drugbank_target|P49189 4-trimethylaminobutyraldehyde dehydrogenase (DB00157)
 OpenBabel12092119283D

  0  0  0     0  0            999 V3000
M  V30 BEGIN CTAB
M  V30 COUNTS 7532 7606 0 0 0
M  V30 BEGIN ATOM
M  V30 1 H -0.908 1.98254 -0.117106 0
M  V30 2 N 0 1.576 0 0
M  V30 3 C 0.933 2.03868 1.02534 0
M  V30 4 C 1.911 0.928543 1.3348 0
M  V30 5 O 3.095 1.19667 1.45644 0
M  V30 6 C 0.222 2.43627 2.35294 0
M  V30 7 C -0.732 3.65373 2.2001 0
M  V30 8 S 0.101 5.13292 1.52614 0
M  V30 9 C 1.257 5.56322 2.86805 0
M  V30 10 H 1.49 2.90518 0.631377 0
M  V30 11 H -0.977 1.52953 0.210867 0
M  V30 12 H 0.981 2.67203 3.11629 0
M  V30 13 H -0.358 1.57376 2.7183 0
M  V30 14 H -1.165 3.90944 3.18086 0
M  V30 15 H -1.563 3.418 1.51819 0
M  V30 16 H 0.729 5.58782 3.83104 0
M  V30 17 H 1.672 6.56266 2.65933 0
M  V30 18 H 2.08 4.83886 2.90714 0
M  V30 19 N 1.4781 -0.272755 1.55222 0
M  V30 20 C 2.7031 -1.02683 1.80197 0
M  V30 21 C 3.1281 -1.79142 0.573551 0
M  V30 22 O 2.4861 -1.74917 -0.476849 0
M  V30 23 C 2.5341 -1.9609 3.02624 0
M  V30 24 O 1.6381 -3.04863 2.77727 0
M  V30 25 H 0.9791 -0.293557 0.595584 0
M  V30 26 H 3.5091 -0.30159 2.02365 0
M  V30 27 H 3.5191 -2.38039 3.31363 0
M  V30 28 H 2.1941 -1.39851 3.91682 0
M  V30 29 H 0.7711 -2.67228 2.60084 0
M  V30 30 N 2.9562 -1.48159 -0.537278 0
M  V30 31 C 4.1842 -1.59454 -1.31841 0
M  V30 32 C 4.5992 -0.252065 -1.8711 0
M  V30 33 O 3.9562 0.757621 -1.66031 0
M  V30 34 C 4.0072 -2.63546 -2.47439 0
M  V30 35 O 3.7282 -3.92583 -1.94449 0
M  V30 36 C 5.2292 -2.85212 -3.39366 0
M  V30 37 H 2.4492 -0.53785 -0.401196 0
M  V30 38 H 4.9932 -1.93932 -0.648891 0
M  V30 39 H 3.1482 -2.31946 -3.1029 0
M  V30 40 H 3.5622 -4.49629 -2.70063 0
M  V30 41 H 5.0362 -3.61863 -4.16844 0
M  V30 42 H 5.5132 -1.93765 -3.94147 0
M  V30 43 H 6.1192 -3.18086 -2.82314 0
M  V30 44 N 4.4343 0.785586 -1.36625 0
M  V30 45 C 5.6823 1.54057 -1.30808 0
M  V30 46 C 6.0033 1.94683 0.111157 0
M  V30 47 O 5.2733 1.65241 1.05224 0
M  V30 48 H 3.8533 0.571354 -0.481211 0
M  V30 49 H 6.5153 0.935821 -1.70963 0
M  V30 50 H 5.6113 2.44637 -1.93801 0
M  V30 51 N 5.9124 1.20967 1.01018 0
M  V30 52 C 7.1404 1.04956 1.78303 0
M  V30 53 C 7.5554 -0.400915 1.84494 0
M  V30 54 O 6.9124 -1.27826 1.30257 0
M  V30 55 C 6.9634 1.63403 3.22462 0
M  V30 56 O 6.6844 3.02775 3.16637 0
M  V30 57 C 8.1854 1.52432 4.16268 0
M  V30 58 H 5.4054 0.368858 0.560522 0
M  V30 59 H 7.9494 1.60193 1.27116 0
M  V30 60 H 6.1044 1.1227 3.70775 0
M  V30 61 H 6.5184 3.30626 4.07169 0
M  V30 62 H 7.9924 1.98078 5.15237 0
M  V30 63 H 8.4694 0.477875 4.36592 0
M  V30 64 H 9.0754 2.02787 3.73841 0
M  V30 65 N 7.3905 -1.2043 1.01659 0
M  V30 66 C 8.6375 -1.89797 0.705917 0
M  V30 67 C 8.9655 -1.78848 -0.764439 0
M  V30 68 O 8.2205 -1.16694 -1.57102 0
M  V30 69 C 8.5195 -3.40464 1.08714 0
M  V30 70 C 8.1855 -3.71614 2.5537 0
M  V30 71 C 6.8475 -3.79826 2.95441 0
M  V30 72 C 9.1995 -3.85915 3.50313 0
M  V30 73 C 6.5275 -3.99797 4.29394 0
M  V30 74 C 8.8795 -4.07396 4.83954 0
M  V30 75 C 7.5435 -4.13837 5.23732 0
M  V30 76 H 6.8135 -0.694518 0.258313 0
M  V30 77 H 9.4605 -1.42691 1.27717 0
M  V30 78 H 7.7655 -3.89385 0.434309 0
M  V30 79 H 9.4625 -3.92433 0.824461 0
M  V30 80 H 6.0525 -3.65822 2.23321 0
M  V30 81 H 10.2365 -3.78926 3.20513 0
M  V30 82 H 5.4925 -4.03018 4.59768 0
M  V30 83 H 9.6665 -4.17404 5.57447 0
M  V30 84 H 7.2935 -4.29064 6.27541 0
M  V30 85 N 8.8686 -0.792821 -1.36206 0
M  V30 86 C 10.1146 -0.36733 -1.99446 0
M  V30 87 C 10.4476 1.05917 -1.62774 0
M  V30 88 O 9.7226 1.7324 -0.88421 0
M  V30 89 C 10.0056 -0.535044 -3.56103 0
M  V30 90 C 9.8586 -2.00548 -4.02617 0
M  V30 91 C 11.1776 0.0478191 -4.40074 0
M  V30 92 H 8.2966 -0.134941 -0.724541 0
M  V30 93 H 10.9386 -0.999794 -1.61568 0
M  V30 94 H 9.0886 0.00336329 -3.885 0
M  V30 95 H 10.7606 -2.60521 -3.80692 0
M  V30 96 H 9.0036 -2.50686 -3.54032 0
M  V30 97 H 9.6746 -2.07377 -5.11565 0
M  V30 98 H 12.1506 -0.411822 -4.14057 0
M  V30 99 H 11.0266 -0.0995336 -5.4881 0
M  V30 100 H 11.2876 1.14025 -4.27142 0
M  V30 101 N 10.3467 1.47872 -0.545128 0
M  V30 102 C 11.5927 2.02793 -0.0166104 0
M  V30 103 C 11.9257 1.41987 1.32489 0
M  V30 104 O 11.2007 0.571045 1.85928 0
M  V30 105 C 11.4837 3.59989 0.0893294 0
M  V30 106 C 11.3367 4.3125 -1.27841 0
M  V30 107 C 12.6557 4.32606 0.808724 0
M  V30 108 H 9.7747 0.736962 -0.00751035 0
M  V30 109 H 12.4167 1.76433 -0.705085 0
M  V30 110 H 10.5667 3.82579 0.675681 0
M  V30 111 H 12.2387 4.20035 -1.90704 0
M  V30 112 H 10.4817 3.92076 -1.85632 0
M  V30 113 H 11.1527 5.39736 -1.15713 0
M  V30 114 H 13.6287 4.14936 0.310992 0
M  V30 115 H 12.5047 5.42251 0.851782 0
M  V30 116 H 12.7657 4.00963 1.86229 0
M  V30 117 N 11.8248 0.280983 1.55075 0
M  V30 118 C 13.0498 -0.340154 2.04592 0
M  V30 119 C 13.4748 -1.48246 1.15779 0
M  V30 120 O 12.8328 -1.80614 0.15761 0
M  V30 121 C 12.8808 -0.793104 3.5177 0
M  V30 122 O 11.9848 -1.89981 3.66034 0
M  V30 123 H 11.3258 -0.0694289 0.66036 0
M  V30 124 H 13.8558 0.416993 2.00306 0
M  V30 125 H 13.8658 -1.08729 3.93245 0
M  V30 126 H 12.5408 0.0426163 4.15878 0
M  V30 127 H 11.1178 -1.60771 3.36463 0
M  V30 128 N 13.3029 -1.57598 0.00835791 0
M  V30 129 C 14.2349 -2.05811 -1.00868 0
M  V30 130 C 15.2479 -0.977579 -1.30182 0
M  V30 131 O 16.4369 -1.25421 -1.27011 0
M  V30 132 C 13.5369 -2.45016 -2.34137 0
M  V30 133 C 12.7099 -3.75903 -2.23643 0
M  V30 134 C 11.7689 -4.01884 -3.3967 0
M  V30 135 O 10.7949 -4.72433 -3.17483 0
M  V30 136 N 11.9969 -3.50432 -4.62793 0
M  V30 137 H 14.7619 -2.93684 -0.597458 0
M  V30 138 H 12.3229 -1.60909 -0.178852 0
M  V30 139 H 14.3149 -2.59506 -3.10546 0
M  V30 140 H 12.8849 -1.62618 -2.66972 0
M  V30 141 H 12.1049 -3.7141 -1.32091 0
M  V30 142 H 13.3929 -4.61695 -2.13812 0
M  V30 143 H 12.7909 -2.93317 -4.83716 0
M  V30 144 H 11.3479 -3.70236 -5.3644 0
M  V30 145 N 14.781 0.264519 -1.55364 0
M  V30 146 C 16.192 0.834936 -1.6699 0
M  V30 147 C 16.543 1.86718 -0.602552 0
M  V30 148 O 15.668 2.14899 0.254425 0
M  V30 149 C 16.263 1.5212 -3.02729 0
M  V30 150 C 14.822 2.03954 -3.16354 0
M  V30 151 C 13.969 0.884498 -2.62815 0
M  V30 152 H 16.92 0.0406869 -1.58648 0
M  V30 153 H 16.941 2.38853 -2.96191 0
M  V30 154 H 16.453 0.769668 -3.80392 0
M  V30 155 H 14.554 2.82041 -2.43482 0
M  V30 156 H 14.667 2.24902 -4.23032 0
M  V30 157 H 13.031 1.2802 -2.20188 0
M  V30 158 H 13.814 0.14634 -3.42988 0
M  V30 159 N 16.2591 1.48442 0.529413 0
M  V30 160 C 17.1891 1.65902 1.64313 0
M  V30 161 C 18.1701 0.507897 1.6234 0
M  V30 162 O 19.3551 0.740503 1.79528 0
M  V30 163 C 16.4851 1.69911 3.02898 0
M  V30 164 C 15.4391 2.8453 3.19729 0
M  V30 165 C 14.7651 2.73629 4.59381 0
M  V30 166 C 16.0651 4.25821 3.02447 0
M  V30 167 H 17.7591 2.5914 1.49955 0
M  V30 168 H 15.3051 1.24709 0.719982 0
M  V30 169 H 17.2581 1.80715 3.80684 0
M  V30 170 H 15.9821 0.732524 3.18279 0
M  V30 171 H 14.6411 2.73283 2.44361 0
M  V30 172 H 14.2891 1.74938 4.71599 0
M  V30 173 H 13.9891 3.50541 4.71588 0
M  V30 174 H 15.5131 2.86401 5.39265 0
M  V30 175 H 16.9271 4.37898 3.70024 0
M  V30 176 H 15.3241 5.03735 3.26146 0
M  V30 177 H 16.3941 4.42244 1.98867 0
M  V30 178 N 17.7372 -0.778329 1.37039 0
M  V30 179 C 18.6852 -1.91278 1.32345 0
M  V30 180 C 19.6792 -1.68051 0.213331 0
M  V30 181 O 20.8852 -1.75922 0.38098 0
M  V30 182 H 17.2602 -0.628909 0.412283 0
M  V30 183 H 19.2312 -1.92355 2.28127 0
M  V30 184 C 17.9802 -3.28455 1.14073 0
M  V30 185 H 17.3032 -3.46901 1.98746 0
M  V30 186 H 18.7432 -4.08152 1.14837 0
M  V30 187 C 17.2022 -3.36548 -0.154015 0
M  V30 188 O 17.7322 -3.85186 -1.13993 0
M  V30 189 N 15.9382 -2.89894 -0.202475 0
M  V30 190 H 15.4852 -2.50504 0.600476 0
M  V30 191 H 15.4432 -2.9569 -1.06841 0
M  V30 192 N 19.2153 -1.21501 -1.00376 0
M  V30 193 C 20.4453 -1.05746 -1.77486 0
M  V30 194 C 20.8533 0.395655 -1.85017 0
M  V30 195 O 20.1963 1.28626 -1.31152 0
M  V30 196 C 20.2583 -1.58092 -3.22873 0
M  V30 197 C 19.9223 -3.06568 -3.38917 0
M  V30 198 C 20.9193 -4.04106 -3.271 0
M  V30 199 C 18.6043 -3.45799 -3.64319 0
M  V30 200 C 20.5983 -5.38862 -3.40451 0
M  V30 201 C 18.2853 -4.80707 -3.77311 0
M  V30 202 C 19.2833 -5.77047 -3.65384 0
M  V30 203 O 18.9713 -7.09507 -3.77961 0
M  V30 204 H 18.7033 -0.371778 -0.564586 0
M  V30 205 H 21.2573 -1.61319 -1.27143 0
M  V30 206 H 19.4873 -0.969163 -3.74358 0
M  V30 207 H 21.1763 -1.38162 -3.81662 0
M  V30 208 H 21.9423 -3.75141 -3.07399 0
M  V30 209 H 17.8213 -2.71344 -3.72684 0
M  V30 210 H 21.3653 -6.14041 -3.31058 0
M  V30 211 H 17.2623 -5.09357 -3.96517 0
M  V30 212 H 18.0303 -7.16935 -3.94901 0
M  V30 213 N 20.6934 1.19889 -1.02296 0
M  V30 214 C 22.1094 1.41462 -0.738954 0
M  V30 215 C 22.3094 1.89721 0.678846 0
M  V30 216 O 21.3654 2.07016 1.4457 0
M  V30 217 C 22.6784 2.43083 -1.77005 0
M  V30 218 C 24.2264 2.5684 -1.78892 0
M  V30 219 C 24.7014 3.61709 -2.80945 0
M  V30 220 N 26.1924 3.69199 -2.79725 0
M  V30 221 C 26.9274 4.50019 -3.55345 0
M  V30 222 N 26.4234 5.34592 -4.40662 0
M  V30 223 N 28.2164 4.44612 -3.43914 0
M  V30 224 H 20.3674 0.868827 -1.93817 0
M  V30 225 H 22.6304 0.44399 -0.837602 0
M  V30 226 H 22.3364 2.14636 -2.78612 0
M  V30 227 H 22.2104 3.4217 -1.58744 0
M  V30 228 H 24.5974 2.84614 -0.779674 0
M  V30 229 H 24.6784 1.57927 -2.01228 0
M  V30 230 H 24.3224 3.34678 -3.82038 0
M  V30 231 H 24.2524 4.60259 -2.5587 0
M  V30 232 H 26.7434 3.08794 -2.17842 0
M  V30 233 H 27.0564 5.93363 -4.95116 0
M  V30 234 H 25.4014 5.34073 -4.44737 0
M  V30 235 H 28.5924 3.7758 -2.76679 0
M  V30 236 H 28.7654 5.0736 -4.031 0
M  V30 237 N 22.1715 0.800033 1.35784 0
M  V30 238 C 23.4195 0.376597 1.9856 0
M  V30 239 C 23.7405 -1.05812 1.63795 0
M  V30 240 O 23.0105 -1.73103 0.917171 0
M  V30 241 H 21.5905 0.136261 0.734467 0
M  V30 242 H 24.2525 1.02442 1.65806 0
M  V30 243 H 23.3485 0.477002 3.08433 0
M  V30 244 N 23.6496 -1.47581 0.552962 0
M  V30 245 C 24.8976 -2.02082 0.0272703 0
M  V30 246 C 25.2186 -1.4301 -1.32563 0
M  V30 247 O 24.4886 -0.603745 -1.86365 0
M  V30 248 H 23.0686 -0.746966 0.00709182 0
M  V30 249 H 25.7306 -1.81033 0.722008 0
M  V30 250 H 24.8266 -3.12034 -0.0639951 0
M  V30 251 N 25.1277 -0.289203 -1.54924 0
M  V30 252 C 26.0907 0.579144 -2.21762 0
M  V30 253 C 27.0907 1.07047 -1.1999 0
M  V30 254 O 28.2807 0.968384 -1.44803 0
M  V30 255 C 25.4127 1.80055 -2.8947 0
M  V30 256 H 26.6057 -0.00464908 -2.999 0
M  V30 257 H 24.1587 -0.0399306 -1.56249 0
M  V30 258 H 24.8937 2.42449 -2.15381 0
M  V30 259 H 24.6787 1.45602 -3.64064 0
M  V30 260 H 26.1687 2.41773 -3.40493 0
M  V30 261 N 26.6058 1.57591 -0.0167156 0
M  V30 262 C 28.0218 1.55946 0.339557 0
M  V30 263 C 28.2218 1.02109 1.73713 0
M  V30 264 O 27.2778 0.662303 2.43659 0
M  V30 265 C 28.5908 3.00037 0.199499 0
M  V30 266 C 30.1388 3.11805 0.273193 0
M  V30 267 C 30.6138 4.57713 0.162068 0
M  V30 268 N 32.1048 4.6268 0.219444 0
M  V30 269 C 32.8398 5.73185 0.157054 0
M  V30 270 N 32.3358 6.92786 0.0442936 0
M  V30 271 N 34.1288 5.61707 0.21014 0
M  V30 272 H 26.2798 1.90921 -0.930758 0
M  V30 273 H 28.5428 0.877674 -0.358319 0
M  V30 274 H 28.2488 3.4333 -0.76273 0
M  V30 275 H 28.1228 3.64387 0.974786 0
M  V30 276 H 30.5098 2.68433 1.22587 0
M  V30 277 H 30.5908 2.50201 -0.532256 0
M  V30 278 H 30.2348 5.01763 -0.78714 0
M  V30 279 H 30.1648 5.17283 0.986222 0
M  V30 280 H 32.6558 3.76649 0.307246 0
M  V30 281 H 32.9688 7.728 0.00304069 0
M  V30 282 H 31.3138 6.94999 0.00968457 0
M  V30 283 H 34.5048 4.6716 0.296546 0
M  V30 284 H 34.6778 6.47807 0.158054 0
M  V30 285 N 28.0839 -0.256276 1.55502 0
M  V30 286 C 29.3299 -0.987079 1.77157 0
M  V30 287 C 29.6629 -1.85327 0.580315 0
M  V30 288 O 28.9379 -1.89874 -0.421686 0
M  V30 289 C 29.2209 -1.85553 3.08613 0
M  V30 290 C 29.0739 -1.01816 4.38125 0
M  V30 291 C 30.3929 -2.8397 3.36228 0
M  V30 292 H 27.5119 -0.357428 0.644526 0
M  V30 293 H 30.1539 -0.258239 1.88237 0
M  V30 294 H 28.3039 -2.47695 2.99298 0
M  V30 295 H 29.9759 -0.416159 4.59419 0
M  V30 296 H 28.2189 -0.322178 4.32602 0
M  V30 297 H 28.8899 -1.65939 5.26468 0
M  V30 298 H 31.3659 -2.31964 3.45445 0
M  V30 299 H 30.2419 -3.41864 4.29442 0
M  V30 300 H 30.5029 -3.59955 2.56681 0
M  V30 301 N 29.562 -1.4872 -0.521534 0
M  V30 302 C 30.472 -1.66569 -1.65203 0
M  V30 303 C 31.488 -0.548197 -1.65139 0
M  V30 304 O 32.664 -0.820339 -1.83936 0
M  V30 305 C 29.729 -1.70917 -3.01642 0
M  V30 306 C 28.79 -2.94356 -3.12495 0
M  V30 307 C 28.023 -2.98487 -4.42426 0
M  V30 308 O 28.246 -2.10786 -5.30024 0
M  V30 309 O 27.18 -3.90746 -4.57822 0
M  V30 310 H 31.006 -2.62298 -1.5308 0
M  V30 311 H 28.591 -1.3222 -0.695565 0
M  V30 312 H 30.473 -1.7625 -3.82771 0
M  V30 313 H 29.148 -0.783633 -3.14071 0
M  V30 314 H 28.055 -2.94552 -2.3063 0
M  V30 315 H 29.388 -3.86322 -3.04986 0
M  V30 316 N 31.0401 0.771051 -1.3745 0
M  V30 317 C 32.4511 1.34737 -1.29239 0
M  V30 318 C 32.8021 1.96109 0.0596908 0
M  V30 319 O 31.9271 1.93865 0.961534 0
M  V30 320 C 32.5221 2.44973 -2.34037 0
M  V30 321 C 31.0811 2.98372 -2.29458 0
M  V30 322 C 30.2281 1.71595 -2.17831 0
M  V30 323 H 33.1791 0.571256 -1.48062 0
M  V30 324 H 33.2001 3.24471 -1.98744 0
M  V30 325 H 32.7121 2.00276 -3.32432 0
M  V30 326 H 30.8131 3.47443 -1.34589 0
M  V30 327 H 30.9261 3.53939 -3.229 0
M  V30 328 H 29.2901 1.94547 -1.64388 0
M  V30 329 H 30.0731 1.29001 -3.18141 0
M  V30 330 N 32.5182 1.22032 0.997298 0
M  V30 331 C 33.4812 0.987909 2.06816 0
M  V30 332 C 34.4812 -0.0440084 1.6074 0
M  V30 333 O 35.6712 0.194053 1.73116 0
M  V30 334 C 32.8032 0.49132 3.37341 0
M  V30 335 H 33.9962 1.93803 2.28868 0
M  V30 336 H 31.5492 1.03838 1.16822 0
M  V30 337 H 32.2842 -0.463364 3.20973 0
M  V30 338 H 32.0692 1.23575 3.72118 0
M  V30 339 H 33.5592 0.348824 4.16141 0
M  V30 340 N 33.9963 -1.19345 1.0293 0
M  V30 341 C 35.2733 -1.84811 0.640642 0
M  V30 342 C 35.6533 -1.91855 -0.88062 0
M  V30 343 O 35.0013 -1.43587 -1.7775 0
M  V30 344 C 35.2113 -3.23755 1.30321 0
M  V30 345 C 36.5593 -3.99912 1.42673 0
M  V30 346 O 37.5833 -3.33155 1.26041 0
M  V30 347 O 36.4423 -5.19494 1.6967 0
M  V30 348 H 33.5363 -0.796443 0.222726 0
M  V30 349 H 36.0823 -1.26831 1.12748 0
M  V30 350 H 34.8543 -3.13466 2.34211 0
M  V30 351 H 34.4773 -3.89381 0.804261 0
M  V30 352 N 35.4744 -0.807222 -1.35358 0
M  V30 353 C 36.4374 -0.223665 -2.28106 0
M  V30 354 C 37.4374 0.589354 -1.4961 0
M  V30 355 O 38.6274 0.407745 -1.69361 0
M  V30 356 C 35.7594 0.688149 -3.33882 0
M  V30 357 H 36.9524 -1.04169 -2.81227 0
M  V30 358 H 34.5054 -0.577921 -1.45223 0
M  V30 359 H 35.2404 1.52984 -2.85948 0
M  V30 360 H 35.0254 0.10687 -3.91954 0
M  V30 361 H 36.5154 1.09075 -4.03104 0
M  V30 362 N 36.9525 1.47285 -0.560781 0
M  V30 363 C 38.1775 2.07359 -0.0410566 0
M  V30 364 C 38.6025 1.41017 1.24483 0
M  V30 365 O 37.9605 0.486368 1.74654 0
M  V30 366 C 38.0085 3.6035 0.134123 0
M  V30 367 O 37.1125 3.94681 1.19587 0
M  V30 368 H 36.4535 0.661887 -0.0529291 0
M  V30 369 H 38.9835 1.89252 -0.777482 0
M  V30 370 H 38.9935 4.0652 0.347207 0
M  V30 371 H 37.6685 4.08034 -0.805047 0
M  V30 372 H 36.2455 3.60251 0.962987 0
M  V30 373 N 38.4306 0.297415 1.54768 0
M  V30 374 C 39.6786 -0.312295 1.99673 0
M  V30 375 C 39.9996 -1.54686 1.18732 0
M  V30 376 O 39.2696 -1.93854 0.282382 0
M  V30 377 H 37.8496 -0.118381 0.73756 0
M  V30 378 H 40.5116 0.407915 1.90583 0
M  V30 379 H 39.6076 -0.586813 3.06534 0
M  V30 380 N 39.9087 -1.5758 0.0250728 0
M  V30 381 C 41.1367 -1.9593 -0.664747 0
M  V30 382 C 41.5517 -0.901352 -1.65895 0
M  V30 383 O 40.9087 0.117255 -1.82123 0
M  V30 384 C 40.9597 -3.34342 -1.37468 0
M  V30 385 O 40.6807 -4.36079 -0.420324 0
M  V30 386 C 42.1817 -3.873 -2.1567 0
M  V30 387 H 39.4017 -0.645405 -0.183557 0
M  V30 388 H 41.9457 -2.04329 0.0836372 0
M  V30 389 H 40.1007 -3.27175 -2.0745 0
M  V30 390 H 40.5147 -5.16297 -0.923991 0
M  V30 391 H 41.9887 -4.86504 -2.60803 0
M  V30 392 H 42.4657 -3.21331 -2.99405 0
M  V30 393 H 43.0717 -3.97723 -1.50654 0
M  V30 394 N 41.3868 0.248026 -1.55636 0
M  V30 395 C 42.2968 1.32859 -1.93354 0
M  V30 396 C 43.3128 1.52719 -0.833838 0
M  V30 397 O 44.4888 1.66363 -1.13513 0
M  V30 398 C 41.5538 2.66337 -2.21958 0
M  V30 399 C 40.6148 2.55008 -3.45354 0
M  V30 400 C 39.8478 3.82121 -3.72584 0
M  V30 401 O 40.0708 4.83951 -3.01907 0
M  V30 402 O 39.0048 3.80822 -4.6611 0
M  V30 403 H 42.8308 1.03862 -2.85388 0
M  V30 404 H 40.4158 0.448686 -1.42503 0
M  V30 405 H 42.2978 3.45216 -2.4167 0
M  V30 406 H 40.9728 2.95068 -1.33103 0
M  V30 407 H 39.8798 1.7442 -3.30951 0
M  V30 408 H 41.2128 2.31222 -4.34508 0
M  V30 409 N 42.8649 1.48995 0.513639 0
M  V30 410 C 43.8119 1.6473 1.61656 0
M  V30 411 C 44.7819 0.488984 1.58739 0
M  V30 412 O 45.9669 0.714478 1.76918 0
M  V30 413 C 43.1069 1.7082 2.99858 0
M  V30 414 C 42.2199 2.9787 3.12885 0
M  V30 415 C 41.3549 2.95017 4.41744 0
M  V30 416 C 40.3939 4.16702 4.48359 0
M  V30 417 N 39.5309 4.11832 5.68629 0
M  V30 418 H 44.3709 2.58909 1.47547 0
M  V30 419 H 41.9079 1.28382 0.71808 0
M  V30 420 H 43.8659 1.72331 3.79944 0
M  V30 421 H 42.4959 0.801181 3.12699 0
M  V30 422 H 41.5479 3.06029 2.25944 0
M  V30 423 H 42.8599 3.8786 3.13633 0
M  V30 424 H 42.0139 2.95021 5.30139 0
M  V30 425 H 40.7529 2.02784 4.43542 0
M  V30 426 H 39.7579 4.16955 3.58369 0
M  V30 427 H 40.9829 5.10113 4.48287 0
M  V30 428 H 38.9289 3.22428 5.71293 0
M  V30 429 H 38.8459 4.95543 5.7094 0
M  V30 430 H 40.1139 4.1592 6.59266 0
M  V30 431 N 44.343 -0.763751 1.37857 0
M  V30 432 C 45.306 -1.85889 1.34081 0
M  V30 433 C 46.306 -1.58949 0.243277 0
M  V30 434 O 47.496 -1.66882 0.499589 0
M  V30 435 C 44.628 -3.23176 1.08489 0
M  V30 436 H 45.821 -1.90648 2.31502 0
M  V30 437 H 43.374 -0.964367 1.23003 0
M  V30 438 H 44.109 -3.24091 0.116318 0
M  V30 439 H 43.894 -3.44124 1.8794 0
M  V30 440 H 45.384 -4.03254 1.08517 0
M  V30 441 N 45.8211 -1.22559 -0.990812 0
M  V30 442 C 47.0681 -1.05141 -1.73065 0
M  V30 443 C 47.3961 0.413191 -1.9006 0
M  V30 444 O 46.6511 1.32257 -1.44245 0
M  V30 445 C 46.9501 -1.71011 -3.13831 0
M  V30 446 C 46.6161 -3.20911 -3.16745 0
M  V30 447 C 45.2781 -3.61812 -3.17247 0
M  V30 448 C 47.6301 -4.16846 -3.12872 0
M  V30 449 C 44.9581 -4.97127 -3.1158 0
M  V30 450 C 47.3101 -5.5214 -3.08746 0
M  V30 451 C 45.9741 -5.92419 -3.07565 0
M  V30 452 H 45.2441 -0.384738 -0.633291 0
M  V30 453 H 47.8911 -1.5235 -1.16025 0
M  V30 454 H 46.1961 -1.16133 -3.74193 0
M  V30 455 H 47.8931 -1.55023 -3.69823 0
M  V30 456 H 44.4831 -2.88344 -3.17105 0
M  V30 457 H 48.6671 -3.86263 -3.11632 0
M  V30 458 H 43.9231 -5.27562 -3.09012 0
M  V30 459 H 48.0971 -6.26201 -3.04705 0
M  V30 460 H 45.7241 -6.97236 -3.02929 0
M  V30 461 N 47.2992 1.18797 -1.03562 0
M  V30 462 C 48.2092 2.25913 -0.632505 0
M  V30 463 C 49.2252 1.70668 0.338882 0
M  V30 464 O 50.4012 2.00453 0.195076 0
M  V30 465 C 47.4662 3.467 0.00350942 0
M  V30 466 C 46.5272 4.17098 -1.01624 0
M  V30 467 C 45.7602 5.32119 -0.410478 0
M  V30 468 O 45.9832 5.64976 0.784725 0
M  V30 469 O 44.9172 5.9107 -1.13667 0
M  V30 470 H 48.7432 2.62648 -1.52478 0
M  V30 471 H 46.3282 1.25781 -0.806195 0
M  V30 472 H 48.2102 4.19878 0.35781 0
M  V30 473 H 46.8852 3.11798 0.869686 0
M  V30 474 H 45.7922 3.4601 -1.42224 0
M  V30 475 H 47.1252 4.55987 -1.85301 0
M  V30 476 N 48.7773 0.814389 1.34928 0
M  V30 477 C 50.1883 0.458364 1.80986 0
M  V30 478 C 50.5393 -1.02042 1.67577 0
M  V30 479 O 49.6643 -1.79352 1.21086 0
M  V30 480 C 50.2593 0.825212 3.28597 0
M  V30 481 C 48.8183 0.521677 3.72767 0
M  V30 482 C 47.9653 1.04668 2.56788 0
M  V30 483 H 50.9163 1.00533 1.22795 0
M  V30 484 H 50.9373 0.12571 3.80292 0
M  V30 485 H 50.4493 1.90154 3.38324 0
M  V30 486 H 48.5503 -0.545589 3.68584 0
M  V30 487 H 48.6633 1.05977 4.67232 0
M  V30 488 H 47.0273 0.468622 2.50352 0
M  V30 489 H 47.8103 2.12927 2.6929 0
M  V30 490 N 50.2554 -1.46986 0.568584 0
M  V30 491 C 51.2184 -2.28624 -0.162366 0
M  V30 492 C 52.2184 -1.37596 -0.832103 0
M  V30 493 O 53.4084 -1.60115 -0.68622 0
M  V30 494 C 50.5404 -3.17596 -1.23878 0
M  V30 495 H 51.7334 -2.94722 0.554899 0
M  V30 496 H 49.2864 -1.52863 0.325976 0
M  V30 497 H 50.0214 -2.56214 -1.98808 0
M  V30 498 H 49.8064 -3.846 -0.763219 0
M  V30 499 H 51.2964 -3.79078 -1.75185 0
M  V30 500 N 51.7335 -0.305618 -1.54608 0
M  V30 501 C 52.9615 0.304775 -2.04643 0
M  V30 502 C 53.3765 1.47167 -1.18268 0
M  V30 503 O 52.7335 1.81296 -0.209328 0
M  V30 504 C 52.7845 0.756564 -3.53495 0
M  V30 505 O 52.5055 -0.36389 -4.36586 0
M  V30 506 C 54.0065 1.43163 -4.19546 0
M  V30 507 H 51.2265 0.0655481 -0.667791 0
M  V30 508 H 53.7705 -0.446592 -1.99564 0
M  V30 509 H 51.9255 1.45794 -3.58919 0
M  V30 510 H 52.3395 -0.0113121 -5.24499 0
M  V30 511 H 53.8135 1.69886 -5.25207 0
M  V30 512 H 54.2905 2.37318 -3.69563 0
M  V30 513 H 54.8965 0.773307 -4.18211 0
M  V30 514 N 53.2116 1.57565 -0.0334293 0
M  V30 515 C 54.4596 1.91598 0.642999 0
M  V30 516 C 54.7806 0.910847 1.7242 0
M  V30 517 O 54.0506 -0.0469931 1.95844 0
M  V30 518 H 52.6306 0.707228 0.240496 0
M  V30 519 H 55.2926 1.94726 -0.0822488 0
M  V30 520 H 54.3886 2.92336 1.09298 0
M  V30 521 N 54.6897 -0.239769 1.55765 0
M  V30 522 C 56.1057 -0.588624 1.48349 0
M  V30 523 C 56.3057 -1.88005 0.72502 0
M  V30 524 O 55.3617 -2.51186 0.257269 0
M  V30 525 C 56.6747 -0.68474 2.928 0
M  V30 526 C 58.2227 -0.77659 3.03213 0
M  V30 527 C 58.6977 -0.904207 4.48986 0
M  V30 528 N 60.1887 -0.968896 4.52953 0
M  V30 529 C 60.9237 -1.08703 5.63002 0
M  V30 530 N 60.4197 -1.17026 6.82845 0
M  V30 531 N 62.2127 -1.12074 5.50814 0
M  V30 532 H 54.3637 0.607911 2.03515 0
M  V30 533 H 56.6267 0.21083 0.924259 0
M  V30 534 H 56.3327 0.194284 3.51163 0
M  V30 535 H 56.2067 -1.55435 3.43686 0
M  V30 536 H 58.5937 -1.64606 2.44926 0
M  V30 537 H 58.6747 0.118315 2.55526 0
M  V30 538 H 58.3187 -0.0392633 5.07885 0
M  V30 539 H 58.2487 -1.81426 4.9436 0
M  V30 540 H 60.7397 -0.915633 3.6664 0
M  V30 541 H 61.0527 -1.25966 7.62465 0
M  V30 542 H 59.3977 -1.13971 6.85591 0
M  V30 543 H 62.5887 -1.05226 4.5612 0
M  V30 544 H 62.7617 -1.20936 6.36615 0
M  V30 545 N 56.1678 -1.49265 -0.50573 0
M  V30 546 C 57.4138 -1.58748 -1.26202 0
M  V30 547 C 57.7468 -0.271227 -1.92297 0
M  V30 548 O 57.0218 0.724831 -1.80489 0
M  V30 549 C 57.3048 -2.74332 -2.33268 0
M  V30 550 C 57.1578 -4.15737 -1.71705 0
M  V30 551 C 58.4768 -2.85576 -3.34865 0
M  V30 552 H 55.5958 -0.577826 -0.457478 0
M  V30 553 H 58.2378 -1.81532 -0.560897 0
M  V30 554 H 56.3878 -2.55036 -2.93068 0
M  V30 555 H 58.0598 -4.46537 -1.15769 0
M  V30 556 H 56.3028 -4.21605 -1.02135 0
M  V30 557 H 56.9738 -4.92477 -2.49341 0
M  V30 558 H 59.4498 -3.03127 -2.8505 0
M  V30 559 H 58.3258 -3.68135 -4.07146 0
M  V30 560 H 58.5868 -1.94732 -3.96903 0
M  V30 561 N 57.6459 0.756429 -1.3826 0
M  V30 562 C 58.8949 1.51082 -1.3363 0
M  V30 563 C 59.2079 1.95467 0.0720068 0
M  V30 564 O 60.4139 2.7043 0.240834 0
M  V30 565 C 58.8699 2.72893 -2.34644 0
M  V30 566 C 58.4779 2.35544 -3.81081 0
M  V30 567 C 60.2219 3.50791 -2.39052 0
M  V30 568 C 58.1289 3.53948 -4.73787 0
M  V30 569 H 57.0589 0.56727 -0.49671 0
M  V30 570 H 59.7099 0.827147 -1.638 0
M  V30 571 H 58.0919 3.43227 -1.97513 0
M  V30 572 H 59.2659 1.72894 -4.27135 0
M  V30 573 H 57.5809 1.70786 -3.79764 0
M  V30 574 H 60.1779 4.38823 -3.05513 0
M  V30 575 H 60.5209 3.91745 -1.40861 0
M  V30 576 H 61.0539 2.87467 -2.74968 0
M  V30 577 H 57.7929 3.18064 -5.73163 0
M  V30 578 H 57.3129 4.15651 -4.32428 0
M  V30 579 H 58.9919 4.20566 -4.91663 0
M  V30 580 N 59.124 1.23083 0.984299 0
M  V30 581 C 60.087 1.00979 2.05757 0
M  V30 582 C 61.087 -0.0269573 1.60777 0
M  V30 583 O 62.277 0.212403 1.729 0
M  V30 584 C 59.409 0.527072 3.36801 0
M  V30 585 H 60.602 1.9622 2.26799 0
M  V30 586 H 58.155 1.05072 1.15714 0
M  V30 587 H 58.89 -0.429294 3.21446 0
M  V30 588 H 58.675 1.27515 3.70786 0
M  V30 589 H 60.165 0.392942 4.15747 0
M  V30 590 N 60.6021 -1.18246 1.0419 0
M  V30 591 C 61.8301 -1.92195 0.766072 0
M  V30 592 C 62.2451 -1.76247 -0.676933 0
M  V30 593 O 61.6021 -1.09293 -1.46155 0
M  V30 594 C 61.6531 -3.43568 1.12442 0
M  V30 595 O 61.3741 -3.59015 2.51078 0
M  V30 596 C 62.8751 -4.34613 0.873275 0
M  V30 597 H 60.0951 -0.610114 0.279288 0
M  V30 598 H 62.6391 -1.50007 1.38989 0
M  V30 599 H 60.7941 -3.8354 0.545542 0
M  V30 600 H 61.2081 -4.5273 2.64831 0
M  V30 601 H 62.6821 -5.39374 1.17385 0
M  V30 602 H 63.1591 -4.38781 -0.191909 0
M  V30 603 H 63.7651 -4.00341 1.43551 0
M  V30 604 N 62.0802 -0.821533 -1.34494 0
M  V30 605 C 63.3272 -0.408946 -1.98328 0
M  V30 606 C 63.6552 1.02764 -1.65136 0
M  V30 607 O 62.9102 1.73026 -0.914349 0
M  V30 608 C 63.2092 -0.556512 -3.53041 0
M  V30 609 C 62.8752 -1.95861 -4.0614 0
M  V30 610 C 61.5372 -2.34217 -4.20352 0
M  V30 611 C 63.8892 -2.87523 -4.34718 0
M  V30 612 C 61.2172 -3.63572 -4.6047 0
M  V30 613 C 63.5692 -4.1634 -4.76281 0
M  V30 614 C 62.2332 -4.54675 -4.88699 0
M  V30 615 H 61.5032 -0.149644 -0.725732 0
M  V30 616 H 64.1502 -1.04521 -1.6046 0
M  V30 617 H 62.4552 0.163148 -3.9146 0
M  V30 618 H 64.1522 -0.217826 -4.00408 0
M  V30 619 H 60.7422 -1.65066 -3.95539 0
M  V30 620 H 64.9262 -2.59133 -4.23277 0
M  V30 621 H 60.1822 -3.93101 -4.68275 0
M  V30 622 H 64.3562 -4.87455 -4.97354 0
M  V30 623 H 61.9832 -5.54959 -5.19542 0
M  V30 624 N 63.5583 1.46682 -0.576371 0
M  V30 625 C 64.7863 2.06798 -0.0649635 0
M  V30 626 C 65.2013 1.42612 1.23723 0
M  V30 627 O 64.5583 0.529203 1.74659 0
M  V30 628 C 64.6093 3.6132 0.114202 0
M  V30 629 O 64.3303 4.23104 -1.13644 0
M  V30 630 C 65.8313 4.38349 0.66069 0
M  V30 631 H 63.0513 0.668778 -0.0545616 0
M  V30 632 H 65.5953 1.88404 -0.795237 0
M  V30 633 H 63.7503 3.79162 0.794673 0
M  V30 634 H 64.1643 5.15894 -0.946253 0
M  V30 635 H 65.6383 5.47081 0.73526 0
M  V30 636 H 66.1153 4.05953 1.67627 0
M  V30 637 H 66.7213 4.25297 0.0152951 0
M  V30 638 N 65.0364 0.313813 1.54444 0
M  V30 639 C 66.2764 -0.292389 2.02298 0
M  V30 640 C 66.6404 -1.50105 1.19719 0
M  V30 641 O 67.8414 -2.17947 1.5733 0
M  V30 642 C 66.1124 -0.627682 3.51845 0
M  V30 643 S 67.6714 -1.21493 4.21646 0
M  V30 644 H 64.4894 -0.0890247 0.705405 0
M  V30 645 H 67.0914 0.444668 1.90376 0
M  V30 646 H 65.7954 0.260265 4.09574 0
M  V30 647 H 65.3264 -1.39519 3.67829 0
M  V30 648 H 67.3414 -2.5022 4.28491 0
M  V30 649 N 66.5145 -1.57545 0.0417849 0
M  V30 650 C 67.7395 -1.97035 -0.647455 0
M  V30 651 C 68.1645 -0.918775 -1.64135 0
M  V30 652 O 67.5225 0.119006 -1.80909 0
M  V30 653 C 67.5705 -3.35609 -1.31905 0
M  V30 654 O 66.6745 -3.3287 -2.43457 0
M  V30 655 H 66.0155 -0.64211 -0.169086 0
M  V30 656 H 68.5455 -2.04318 0.107399 0
M  V30 657 H 68.5555 -3.72126 -1.67291 0
M  V30 658 H 67.2305 -4.11685 -0.590586 0
M  V30 659 H 65.8075 -3.08087 -2.10088 0
M  V30 660 N 67.9926 0.231505 -1.5589 0
M  V30 661 C 69.2406 0.955461 -1.78088 0
M  V30 662 C 69.5616 1.85262 -0.608533 0
M  V30 663 O 68.8316 1.92277 0.375035 0
M  V30 664 H 67.4116 0.355787 -0.656829 0
M  V30 665 H 70.0736 0.245751 -1.93344 0
M  V30 666 H 69.1696 1.56814 -2.69844 0
M  V30 667 N 69.4707 1.49531 0.497807 0
M  V30 668 C 70.3807 1.69176 1.62532 0
M  V30 669 C 71.3967 0.5744 1.64246 0
M  V30 670 O 72.5727 0.849497 1.82608 0
M  V30 671 C 69.6377 1.75695 2.98885 0
M  V30 672 C 68.6987 2.9929 3.07773 0
M  V30 673 C 67.9317 3.05488 4.37622 0
M  V30 674 O 68.1547 2.19192 5.26603 0
M  V30 675 O 67.0887 3.9798 4.51548 0
M  V30 676 H 70.9147 2.647 1.48887 0
M  V30 677 H 68.4997 1.3331 0.674441 0
M  V30 678 H 70.3817 1.82317 3.79919 0
M  V30 679 H 69.0567 0.8335 3.12785 0
M  V30 680 H 67.9637 2.98183 2.25915 0
M  V30 681 H 69.2967 3.91125 2.98801 0
M  V30 682 N 70.9488 -0.749086 1.3866 0
M  V30 683 C 71.8958 -1.86291 1.36251 0
M  V30 684 C 72.8658 -1.64578 0.224347 0
M  V30 685 O 74.0508 -1.86181 0.417279 0
M  V30 686 C 71.1908 -3.23644 1.19786 0
M  V30 687 C 70.3038 -3.57158 2.43027 0
M  V30 688 C 69.4388 -4.83838 2.19258 0
M  V30 689 C 68.4778 -5.10152 3.38247 0
M  V30 690 N 67.6148 -6.28029 3.13884 0
M  V30 691 H 72.4548 -1.87685 2.3147 0
M  V30 692 H 69.9918 -0.917287 1.14997 0
M  V30 693 H 71.9498 -4.0291 1.08254 0
M  V30 694 H 70.5798 -3.21566 0.282031 0
M  V30 695 H 69.6318 -2.72701 2.65214 0
M  V30 696 H 70.9438 -3.7253 3.31697 0
M  V30 697 H 70.0978 -5.71057 2.04888 0
M  V30 698 H 68.8368 -4.70614 1.2796 0
M  V30 699 H 67.8418 -4.21401 3.53131 0
M  V30 700 H 69.0668 -5.25271 4.30427 0
M  V30 701 H 67.0128 -6.1612 2.25238 0
M  V30 702 H 66.9298 -6.43922 3.96106 0
M  V30 703 H 68.1978 -7.18124 3.03179 0
M  V30 704 N 72.4269 -1.23603 -0.977757 0
M  V30 705 C 73.3369 -1.03632 -2.1047 0
M  V30 706 C 74.3529 0.0199435 -1.73989 0
M  V30 707 O 75.5289 -0.176076 -2.00629 0
M  V30 708 C 72.5939 -0.63276 -3.40877 0
M  V30 709 C 71.6549 -1.76437 -3.91367 0
M  V30 710 C 70.8879 -1.37997 -5.15551 0
M  V30 711 O 71.1109 -0.265357 -5.69782 0
M  V30 712 O 70.0449 -2.20201 -5.60174 0
M  V30 713 H 73.8709 -1.98086 -2.30208 0
M  V30 714 H 71.4559 -1.02332 -1.08851 0
M  V30 715 H 73.3379 -0.418761 -4.19314 0
M  V30 716 H 72.0129 0.282754 -3.22463 0
M  V30 717 H 70.9199 -2.03304 -3.14036 0
M  V30 718 H 72.2529 -2.6583 -4.14241 0
M  V30 719 N 73.905 1.17692 -1.04816 0
M  V30 720 C 75.151 1.88137 -0.75711 0
M  V30 721 C 75.484 1.80604 0.713841 0
M  V30 722 O 74.759 1.21146 1.52164 0
M  V30 723 C 75.042 3.38318 -1.2334 0
M  V30 724 C 74.895 3.54622 -2.76701 0
M  V30 725 C 76.214 4.32214 -0.829415 0
M  V30 726 H 73.333 0.683163 -0.27651 0
M  V30 727 H 75.975 1.38424 -1.30149 0
M  V30 728 H 74.125 3.80787 -0.770286 0
M  V30 729 H 75.797 3.21194 -3.31107 0
M  V30 730 H 74.04 2.97026 -3.16161 0
M  V30 731 H 74.711 4.60028 -3.05088 0
M  V30 732 H 77.187 3.97565 -1.22805 0
M  V30 733 H 76.063 5.35838 -1.19033 0
M  V30 734 H 76.324 4.41294 0.266891 0
M  V30 735 N 75.3831 0.828654 1.34056 0
M  V30 736 C 76.3311 0.242973 2.31327 0
M  V30 737 C 77.3251 -0.61944 1.57668 0
M  V30 738 O 78.5311 -0.51014 1.7262 0
M  V30 739 H 74.9061 0.059834 0.749616 0
M  V30 740 H 76.8771 1.07809 2.78244 0
M  V30 741 C 75.6261 -0.575733 3.429 0
M  V30 742 H 74.9491 0.0785582 3.99723 0
M  V30 743 H 76.3891 -0.951547 4.13185 0
M  V30 744 C 74.8481 -1.75044 2.87856 0
M  V30 745 O 75.3781 -2.84882 2.83205 0
M  V30 746 N 73.5841 -1.56903 2.44602 0
M  V30 747 H 73.1311 -0.675547 2.48584 0
M  V30 748 H 73.0891 -2.35652 2.08124 0
M  V30 749 N 76.8612 -1.46375 0.584142 0
M  V30 750 C 77.7912 -2.33103 -0.136037 0
M  V30 751 C 78.7722 -1.45431 -0.882255 0
M  V30 752 O 79.9572 -1.74246 -0.857434 0
M  V30 753 C 77.0872 -3.27731 -1.14933 0
M  V30 754 C 76.0412 -4.24855 -0.517862 0
M  V30 755 C 75.3672 -5.09001 -1.63773 0
M  V30 756 C 76.6672 -5.19439 0.545886 0
M  V30 757 H 78.3612 -2.93568 0.588086 0
M  V30 758 H 75.9072 -1.41166 0.284259 0
M  V30 759 H 77.8602 -3.87261 -1.66153 0
M  V30 760 H 76.5842 -2.65377 -1.90375 0
M  V30 761 H 75.2432 -3.6659 -0.0267361 0
M  V30 762 H 74.8912 -4.43031 -2.38185 0
M  V30 763 H 74.5912 -5.74777 -1.22085 0
M  V30 764 H 76.1152 -5.71396 -2.15266 0
M  V30 765 H 77.5292 -5.73177 0.118704 0
M  V30 766 H 75.9262 -5.93566 0.88317 0
M  V30 767 H 76.9962 -4.63285 1.43162 0
M  V30 768 N 78.3393 -0.321999 -1.54275 0
M  V30 769 C 79.3023 0.531975 -2.22941 0
M  V30 770 C 80.3023 1.04478 -1.22234 0
M  V30 771 O 81.4923 0.937452 -1.46825 0
M  V30 772 C 78.6243 1.73874 -2.93224 0
M  V30 773 H 79.8173 -0.0682612 -2.99822 0
M  V30 774 H 77.3703 -0.0730644 -1.56129 0
M  V30 775 H 78.1053 2.37825 -2.20476 0
M  V30 776 H 77.8903 1.37847 -3.6707 0
M  V30 777 H 79.3803 2.34496 -3.45545 0
M  V30 778 N 79.8174 1.5752 -0.0501392 0
M  V30 779 C 81.0634 1.92936 0.624798 0
M  V30 780 C 81.3964 0.928685 1.70555 0
M  V30 781 O 80.6714 -0.0454779 1.94447 0
M  V30 782 C 80.9544 3.38737 1.22185 0
M  V30 783 C 80.8074 4.49552 0.149218 0
M  V30 784 C 82.1264 3.84913 2.13378 0
M  V30 785 H 79.2454 0.701604 0.225657 0
M  V30 786 H 81.8874 1.89671 -0.111693 0
M  V30 787 H 80.0374 3.4165 1.84953 0
M  V30 788 H 81.7094 4.58768 -0.482648 0
M  V30 789 H 79.9524 4.30638 -0.522841 0
M  V30 790 H 80.6234 5.48653 0.606966 0
M  V30 791 H 83.0994 3.8387 1.60572 0
M  V30 792 H 81.9754 4.87584 2.52097 0
M  V30 793 H 82.2364 3.21611 3.03346 0
M  V30 794 N 81.2955 -0.223234 1.56011 0
M  V30 795 C 82.2275 -1.30006 1.88762 0
M  V30 796 C 83.2405 -1.43129 0.775746 0
M  V30 797 O 84.4295 -1.44057 1.05403 0
M  V30 798 C 81.5295 -2.67589 2.07965 0
M  V30 799 C 80.7025 -2.76434 3.38973 0
M  V30 800 C 79.7615 -3.95019 3.47629 0
M  V30 801 O 78.7875 -3.83436 4.20672 0
M  V30 802 N 79.9895 -5.09249 2.78649 0
M  V30 803 H 82.7545 -1.02238 2.81722 0
M  V30 804 H 80.3155 -0.413278 1.56536 0
M  V30 805 H 82.3075 -3.45297 2.11073 0
M  V30 806 H 80.8775 -2.87964 1.21638 0
M  V30 807 H 80.0975 -1.85216 3.47978 0
M  V30 808 H 81.3855 -2.79313 4.25278 0
M  V30 809 H 80.7835 -5.21556 2.19081 0
M  V30 810 H 79.3405 -5.85007 2.8742 0
M  V30 811 N 82.7736 -1.49793 -0.48987 0
M  V30 812 C 83.7216 -1.67783 -1.61095 0
M  V30 813 C 84.7156 -0.543683 -1.60438 0
M  V30 814 O 85.9216 -0.723647 -1.64813 0
M  V30 815 H 82.2966 -0.529255 -0.534222 0
M  V30 816 H 84.2676 -2.61861 -1.43078 0
M  V30 817 C 83.0166 -1.77191 -2.99164 0
M  V30 818 H 82.3396 -2.63841 -3.0038 0
M  V30 819 H 83.7796 -1.93809 -3.77113 0
M  V30 820 C 82.2386 -0.519203 -3.32875 0
M  V30 821 O 82.7686 0.350124 -4.00171 0
M  V30 822 N 80.9746 -0.378816 -2.8812 0
M  V30 823 H 80.5216 -1.08725 -2.33531 0
M  V30 824 H 80.4796 0.458239 -3.11043 0
M  V30 825 N 84.2517 0.741722 -1.39055 0
M  V30 826 C 85.2147 1.83733 -1.37021 0
M  V30 827 C 86.2147 1.58542 -0.268534 0
M  V30 828 O 87.4047 1.66067 -0.526076 0
M  V30 829 C 84.5367 3.2141 -1.13617 0
M  V30 830 H 85.7297 1.86941 -2.34506 0
M  V30 831 H 83.2827 0.944676 -1.24521 0
M  V30 832 H 84.0177 3.23865 -0.167863 0
M  V30 833 H 83.8027 3.4109 -1.93391 0
M  V30 834 H 85.2927 4.01477 -1.14918 0
M  V30 835 N 85.7298 1.2412 0.971189 0
M  V30 836 C 86.6768 1.0305 2.06517 0
M  V30 837 C 87.6468 -0.0550666 1.66009 0
M  V30 838 O 88.8318 0.0988688 1.90544 0
M  V30 839 C 85.9718 0.637653 3.39158 0
M  V30 840 C 85.0848 1.79633 3.92882 0
M  V30 841 C 84.2198 1.34939 5.13775 0
M  V30 842 C 83.2588 2.47823 5.59687 0
M  V30 843 N 82.3958 2.04022 6.71803 0
M  V30 844 H 87.2358 1.96685 2.23873 0
M  V30 845 H 84.7728 0.979694 1.09729 0
M  V30 846 H 86.7308 0.390931 4.15364 0
M  V30 847 H 85.3608 -0.261693 3.21737 0
M  V30 848 H 84.4128 2.15681 3.13346 0
M  V30 849 H 85.7248 2.64466 4.22918 0
M  V30 850 H 84.8788 1.06134 5.97345 0
M  V30 851 H 83.6178 0.471557 4.85415 0
M  V30 852 H 82.6228 2.77392 4.74693 0
M  V30 853 H 83.8478 3.36158 5.90063 0
M  V30 854 H 81.7938 1.18632 6.45184 0
M  V30 855 H 81.7108 2.82409 7.01271 0
M  V30 856 H 82.9788 1.78347 7.58823 0
M  V30 857 N 87.2079 -1.17134 1.05439 0
M  V30 858 C 88.1709 -2.19439 0.661764 0
M  V30 859 C 89.1709 -1.58199 -0.288042 0
M  V30 860 O 90.3609 -1.74053 -0.0715803 0
M  V30 861 C 87.4929 -3.40889 -0.0276209 0
M  V30 862 H 88.6859 -2.55688 1.56728 0
M  V30 863 H 86.2389 -1.31259 0.848567 0
M  V30 864 H 86.9739 -3.10187 -0.94629 0
M  V30 865 H 86.7589 -3.86586 0.655238 0
M  V30 866 H 88.2489 -4.16603 -0.288342 0
M  V30 867 N 88.686 -0.835752 -1.33615 0
M  V30 868 C 89.649 -0.272 -2.2758 0
M  V30 869 C 90.649 0.557487 -1.50827 0
M  V30 870 O 91.839 0.37173 -1.70188 0
M  V30 871 C 88.971 0.617173 -3.35267 0
M  V30 872 H 90.164 -1.10111 -2.78954 0
M  V30 873 H 87.717 -0.608594 -1.43965 0
M  V30 874 H 88.452 1.46884 -2.89129 0
M  V30 875 H 88.237 0.0237066 -3.92093 0
M  V30 876 H 89.727 1.005 -4.05326 0
M  V30 877 N 90.1641 1.46063 -0.591896 0
M  V30 878 C 91.4111 2.02338 -0.0809991 0
M  V30 879 C 91.7391 1.46228 1.28249 0
M  V30 880 O 90.9941 0.620818 1.85592 0
M  V30 881 C 91.2931 3.57391 0.0249813 0
M  V30 882 C 90.9591 4.32583 -1.27211 0
M  V30 883 C 89.6211 4.52844 -1.62745 0
M  V30 884 C 91.9731 4.75687 -2.13005 0
M  V30 885 C 89.3011 5.13462 -2.83855 0
M  V30 886 C 91.6531 5.37644 -3.3335 0
M  V30 887 C 90.3171 5.5613 -3.69155 0
M  V30 888 H 89.5871 0.740407 -0.0296397 0
M  V30 889 H 92.2341 1.75321 -0.770374 0
M  V30 890 H 90.5391 3.83597 0.797537 0
M  V30 891 H 92.2361 3.98621 0.436184 0
M  V30 892 H 88.8261 4.17116 -0.985499 0
M  V30 893 H 93.0101 4.59782 -1.86855 0
M  V30 894 H 88.2661 5.25965 -3.11722 0
M  V30 895 H 92.4401 5.7 -4.00092 0
M  V30 896 H 90.0671 6.0287 -4.63089 0
M  V30 897 N 91.6422 0.330177 1.54103 0
M  V30 898 C 92.5892 -0.532762 2.24567 0
M  V30 899 C 93.5592 -1.10635 1.23892 0
M  V30 900 O 94.7442 -1.14546 1.5259 0
M  V30 901 C 91.8842 -1.6845 3.01195 0
M  V30 902 C 90.9972 -1.13951 4.167 0
M  V30 903 C 90.1322 -2.25746 4.80845 0
M  V30 904 C 89.1712 -1.6853 5.88442 0
M  V30 905 N 88.3082 -2.74014 6.46421 0
M  V30 906 H 93.1482 0.0746905 2.97906 0
M  V30 907 H 90.6852 0.048632 1.4702 0
M  V30 908 H 92.6432 -2.36234 3.43874 0
M  V30 909 H 91.2732 -2.26314 2.30178 0
M  V30 910 H 90.3252 -0.35301 3.78758 0
M  V30 911 H 91.6372 -0.680892 4.94131 0
M  V30 912 H 90.7912 -3.01422 5.26526 0
M  V30 913 H 89.5302 -2.74947 4.0281 0
M  V30 914 H 88.5352 -0.913543 5.42157 0
M  V30 915 H 89.7602 -1.20198 6.68378 0
M  V30 916 H 87.7062 -3.22494 5.71256 0
M  V30 917 H 87.6232 -2.32735 7.19285 0
M  V30 918 H 88.8912 -3.49499 6.96757 0
M  V30 919 N 93.1203 -1.57491 0.0584922 0
M  V30 920 C 94.3693 -1.92155 -0.613146 0
M  V30 921 C 94.6823 -0.939334 -1.71569 0
M  V30 922 O 95.8883 -1.17829 -2.44599 0
M  V30 923 C 94.3443 -3.41303 -1.14195 0
M  V30 924 C 93.9523 -4.47944 -0.0711265 0
M  V30 925 C 95.6963 -3.84988 -1.78841 0
M  V30 926 C 93.6033 -5.88212 -0.613225 0
M  V30 927 H 92.5333 -0.717162 -0.232796 0
M  V30 928 H 95.1843 -1.83049 0.12857 0
M  V30 929 H 93.5663 -3.45437 -1.93621 0
M  V30 930 H 94.7403 -4.55408 0.702836 0
M  V30 931 H 93.0553 -4.13644 0.478313 0
M  V30 932 H 95.6523 -4.87159 -2.20408 0
M  V30 933 H 95.9953 -3.21632 -2.64308 0
M  V30 934 H 96.5283 -3.83401 -1.06059 0
M  V30 935 H 93.2673 -6.55183 0.203978 0
M  V30 936 H 92.7873 -5.84294 -1.35501 0
M  V30 937 H 94.4663 -6.37687 -1.09383 0
M  V30 938 N 94.5984 0.214957 -1.56127 0
M  V30 939 C 95.8444 0.935325 -1.80619 0
M  V30 940 C 96.1994 1.81706 -0.632507 0
M  V30 941 O 95.4924 1.87931 0.373182 0
M  V30 942 C 95.6864 1.80314 -3.0858 0
M  V30 943 C 95.5154 1.00691 -4.38282 0
M  V30 944 C 94.2854 0.699211 -5.00439 0
M  V30 945 C 96.4834 0.369057 -5.12974 0
M  V30 946 N 94.4654 -0.117734 -6.13787 0
M  V30 947 C 95.8364 -0.310981 -6.1922 0
M  V30 948 C 97.8914 0.282759 -4.97096 0
M  V30 949 C 96.5944 -1.06907 -7.11311 0
M  V30 950 C 98.6204 -0.461881 -5.89594 0
M  V30 951 C 97.9824 -1.13044 -6.9527 0
M  V30 952 H 94.0814 0.322307 -0.71249 0
M  V30 953 H 96.6654 0.205649 -1.93611 0
M  V30 954 H 94.8364 2.50458 -2.96859 0
M  V30 955 H 96.5684 2.46148 -3.21237 0
M  V30 956 H 93.3234 1.01884 -4.62511 0
M  V30 957 H 93.7474 -0.515235 -6.75037 0
M  V30 958 H 98.3894 0.785292 -4.15443 0
M  V30 959 H 96.1074 -1.5831 -7.92442 0
M  V30 960 H 99.6934 -0.529746 -5.79383 0
M  V30 961 H 98.5734 -1.69742 -7.65609 0
M  V30 962 N 96.0765 1.50051 0.48192 0
M  V30 963 C 97.3015 1.64508 1.26301 0
M  V30 964 C 97.7265 0.323851 1.85291 0
M  V30 965 O 97.0845 -0.710969 1.66778 0
M  V30 966 C 97.1325 2.7305 2.35533 0
M  V30 967 O 96.2365 2.3355 3.39895 0
M  V30 968 H 95.5775 0.549978 0.372048 0
M  V30 969 H 98.1075 1.9636 0.574786 0
M  V30 970 H 98.1175 2.95799 2.8101 0
M  V30 971 H 96.7925 3.68946 1.91967 0
M  V30 972 H 95.3695 2.21205 3.00204 0
M  V30 973 N 97.5546 -0.734337 1.39446 0
M  V30 974 C 98.4866 -1.85861 1.34121 0
M  V30 975 C 99.4996 -1.60871 0.249864 0
M  V30 976 O 100.689 -1.71093 0.508865 0
M  V30 977 C 97.7886 -3.21899 1.05991 0
M  V30 978 C 96.9616 -3.74239 2.26415 0
M  V30 979 C 96.0206 -4.88841 1.94733 0
M  V30 980 O 95.0466 -5.02468 2.67422 0
M  V30 981 N 96.2486 -5.73261 0.913884 0
M  V30 982 H 99.0136 -1.90934 2.31007 0
M  V30 983 H 96.5746 -0.915102 1.33557 0
M  V30 984 H 98.5666 -3.96136 0.828147 0
M  V30 985 H 97.1366 -3.12091 0.178361 0
M  V30 986 H 96.3566 -2.91347 2.65539 0
M  V30 987 H 97.6446 -4.05942 3.06738 0
M  V30 988 H 97.0426 -5.64842 0.311476 0
M  V30 989 H 95.5996 -6.47563 0.742015 0
M  V30 990 N 99.0327 -1.24633 -0.964593 0
M  V30 991 C 99.9797 -1.04144 -2.05968 0
M  V30 992 C 100.95 0.046262 -1.66036 0
M  V30 993 O 102.135 -0.108972 -1.90489 0
M  V30 994 C 99.2747 -0.65563 -3.38815 0
M  V30 995 C 98.3877 -1.81714 -3.91923 0
M  V30 996 C 97.5227 -1.37662 -5.13052 0
M  V30 997 C 96.5617 -2.50788 -5.58365 0
M  V30 998 N 95.6987 -2.07582 -6.70712 0
M  V30 999 H 100.539 -1.9787 -2.22827 0
M  V30 1000 H 98.0757 -0.9855 -1.09208 0
M  V30 1001 H 100.034 -0.412954 -4.15151 0
M  V30 1002 H 98.6637 0.244627 -3.21872 0
M  V30 1003 H 97.7157 -2.1734 -3.12198 0
M  V30 1004 H 99.0277 -2.66705 -4.21509 0
M  V30 1005 H 98.1817 -1.093 -5.96773 0
M  V30 1006 H 96.9207 -0.497293 -4.85158 0
M  V30 1007 H 95.9257 -2.79906 -4.73215 0
M  V30 1008 H 97.1507 -3.39283 -5.88272 0
M  V30 1009 H 95.0967 -1.22051 -6.44546 0
M  V30 1010 H 95.0137 -2.86125 -6.99763 0
M  V30 1011 H 96.2817 -1.82369 -7.57867 0
M  V30 1012 N 100.511 1.16574 -1.06058 0
M  V30 1013 C 101.736 1.91493 -0.796562 0
M  V30 1014 C 102.161 1.76773 0.642868 0
M  V30 1015 O 101.519 1.09142 1.44768 0
M  V30 1016 C 101.567 3.40293 -1.19303 0
M  V30 1017 O 100.671 4.11074 -0.330394 0
M  V30 1018 H 100.012 0.596678 -0.291326 0
M  V30 1019 H 102.542 1.47708 -1.41575 0
M  V30 1020 H 102.552 3.91057 -1.16356 0
M  V30 1021 H 101.227 3.50326 -2.24153 0
M  V30 1022 H 99.8038 3.70513 -0.421225 0
M  V30 1023 N 101.989 0.842826 1.3317 0
M  V30 1024 C 103.237 0.439577 1.97262 0
M  V30 1025 C 103.558 -1.00548 1.67078 0
M  V30 1026 O 102.828 -1.70098 0.971779 0
M  V30 1027 H 101.408 0.159558 0.72976 0
M  V30 1028 H 104.07 1.07665 1.62463 0
M  V30 1029 H 103.166 0.574886 3.0676 0
M  V30 1030 N 103.467 -1.45747 0.599634 0
M  V30 1031 C 104.4 -2.27547 -0.172552 0
M  V30 1032 C 105.378 -1.36657 -0.881116 0
M  V30 1033 O 106.562 -1.66081 -0.891595 0
M  V30 1034 C 103.689 -3.14829 -1.24903 0
M  V30 1035 C 102.735 -4.21603 -0.644465 0
M  V30 1036 S 103.568 -5.32754 0.541606 0
M  V30 1037 C 104.724 -6.23604 -0.535656 0
M  V30 1038 H 104.957 -2.92691 0.521468 0
M  V30 1039 H 102.49 -1.49473 0.386947 0
M  V30 1040 H 104.448 -3.65675 -1.86527 0
M  V30 1041 H 103.109 -2.48965 -1.91508 0
M  V30 1042 H 102.302 -4.82566 -1.45417 0
M  V30 1043 H 101.904 -3.73857 -0.103534 0
M  V30 1044 H 104.196 -6.62519 -1.41686 0
M  V30 1045 H 105.139 -7.0809 0.0376246 0
M  V30 1046 H 105.547 -5.58103 -0.84741 0
M  V30 1047 N 104.945 -0.338344 -1.53925 0
M  V30 1048 C 105.855 0.529421 -2.28548 0
M  V30 1049 C 106.871 1.11645 -1.3346 0
M  V30 1050 O 108.047 1.13325 -1.66492 0
M  V30 1051 C 105.112 1.66713 -3.03987 0
M  V30 1052 C 104.173 1.11041 -4.14691 0
M  V30 1053 C 103.406 2.19389 -4.86522 0
M  V30 1054 O 103.629 3.40013 -4.57982 0
M  V30 1055 O 102.563 1.83976 -5.73094 0
M  V30 1056 H 106.389 -0.0770399 -3.03602 0
M  V30 1057 H 103.974 -0.103555 -1.49041 0
M  V30 1058 H 105.856 2.32918 -3.5118 0
M  V30 1059 H 104.531 2.25949 -2.31794 0
M  V30 1060 H 103.438 0.413024 -3.71813 0
M  V30 1061 H 104.771 0.562975 -4.8897 0
M  V30 1062 N 106.423 1.57458 -0.0668435 0
M  V30 1063 C 107.839 1.56947 0.289772 0
M  V30 1064 C 108.039 1.07584 1.70376 0
M  V30 1065 O 107.095 0.739486 2.41429 0
M  V30 1066 C 108.408 3.0052 0.103943 0
M  V30 1067 C 109.956 3.12517 0.173857 0
M  V30 1068 C 110.431 4.57997 0.0163682 0
M  V30 1069 N 111.922 4.63144 0.0721352 0
M  V30 1070 C 112.657 5.73394 -0.0253794 0
M  V30 1071 N 112.153 6.92576 -0.176133 0
M  V30 1072 N 113.946 5.62091 0.0313305 0
M  V30 1073 H 106.097 1.87863 -0.991027 0
M  V30 1074 H 108.36 0.86583 -0.38606 0
M  V30 1075 H 108.066 3.40729 -0.871572 0
M  V30 1076 H 107.94 3.67304 0.858366 0
M  V30 1077 H 110.327 2.72197 1.13985 0
M  V30 1078 H 110.408 2.48381 -0.611586 0
M  V30 1079 H 110.052 4.99005 -0.946374 0
M  V30 1080 H 109.982 5.20158 0.821153 0
M  V30 1081 H 112.473 3.77436 0.187263 0
M  V30 1082 H 112.786 7.72418 -0.242821 0
M  V30 1083 H 111.131 6.94678 -0.211429 0
M  V30 1084 H 114.322 4.67867 0.147773 0
M  V30 1085 H 114.495 6.47982 -0.048121 0
M  V30 1086 N 107.901 -0.206675 1.56239 0
M  V30 1087 C 109.141 -0.93574 1.81723 0
M  V30 1088 C 109.505 -1.80927 0.642609 0
M  V30 1089 O 110.706 -2.57323 0.777081 0
M  V30 1090 C 108.977 -1.74012 3.12177 0
M  V30 1091 S 110.536 -2.52279 3.59028 0
M  V30 1092 H 107.354 -0.314065 0.637875 0
M  V30 1093 H 109.956 -0.200071 1.94474 0
M  V30 1094 H 108.66 -1.0888 3.95693 0
M  V30 1095 H 108.191 -2.51782 3.02274 0
M  V30 1096 H 110.206 -3.76209 3.23545 0
M  V30 1097 N 109.379 -1.50304 -0.473955 0
M  V30 1098 C 110.795 -1.37667 -0.807466 0
M  V30 1099 C 110.995 -0.430555 -1.96846 0
M  V30 1100 O 110.051 0.127874 -2.52176 0
M  V30 1101 C 111.364 -2.78974 -1.12223 0
M  V30 1102 C 112.912 -2.87868 -1.22885 0
M  V30 1103 C 113.387 -4.30003 -1.57676 0
M  V30 1104 N 114.878 -4.3294 -1.64673 0
M  V30 1105 C 115.613 -5.3991 -1.93091 0
M  V30 1106 N 115.109 -6.57092 -2.1955 0
M  V30 1107 N 116.902 -5.27351 -1.94569 0
M  V30 1108 H 109.053 -2.10394 0.291212 0
M  V30 1109 H 111.316 -0.945575 0.0677609 0
M  V30 1110 H 111.022 -3.50031 -0.342229 0
M  V30 1111 H 110.896 -3.16038 -2.05913 0
M  V30 1112 H 113.283 -2.17032 -1.99953 0
M  V30 1113 H 113.364 -2.54352 -0.271814 0
M  V30 1114 H 113.008 -5.01375 -0.81149 0
M  V30 1115 H 112.938 -4.61004 -2.54525 0
M  V30 1116 H 115.429 -3.48441 -1.46277 0
M  V30 1117 H 115.742 -7.34425 -2.405 0
M  V30 1118 H 114.087 -6.60272 -2.16948 0
M  V30 1119 H 117.278 -4.34801 -1.73394 0
M  V30 1120 H 117.451 -6.10805 -2.16381 0
M  V30 1121 N 110.857 0.726932 -1.39834 0
M  V30 1122 C 112.106 1.48214 -1.36805 0
M  V30 1123 C 112.419 1.95576 0.0305291 0
M  V30 1124 O 113.625 2.7088 0.183417 0
M  V30 1125 C 112.081 2.67854 -2.40379 0
M  V30 1126 C 111.689 2.27408 -3.85992 0
M  V30 1127 C 113.433 3.45641 -2.46439 0
M  V30 1128 C 111.34 3.43819 -4.81189 0
M  V30 1129 H 110.27 0.556606 -0.508631 0
M  V30 1130 H 112.921 0.792216 -1.65518 0
M  V30 1131 H 111.303 3.3896 -2.04749 0
M  V30 1132 H 112.477 1.63795 -4.30706 0
M  V30 1133 H 110.792 1.62692 -3.83302 0
M  V30 1134 H 113.389 4.32244 -3.14753 0
M  V30 1135 H 113.732 3.88669 -1.49139 0
M  V30 1136 H 114.265 2.8157 -2.81004 0
M  V30 1137 H 111.004 3.05834 -5.79781 0
M  V30 1138 H 110.524 4.06385 -4.41148 0
M  V30 1139 H 112.203 4.10043 -5.00474 0
M  V30 1140 N 112.336 1.25143 0.95797 0
M  V30 1141 C 113.266 1.07711 2.07173 0
M  V30 1142 C 114.247 -0.0128462 1.70095 0
M  V30 1143 O 115.432 0.156061 1.93572 0
M  V30 1144 C 112.562 0.691503 3.40346 0
M  V30 1145 C 111.516 1.73132 3.9142 0
M  V30 1146 C 110.842 1.20049 5.21049 0
M  V30 1147 C 112.142 3.1294 4.1817 0
M  V30 1148 H 113.836 2.00873 2.22014 0
M  V30 1149 H 111.382 0.967191 1.06684 0
M  V30 1150 H 113.335 0.556505 4.17709 0
M  V30 1151 H 112.059 -0.275819 3.25433 0
M  V30 1152 H 110.718 1.8547 3.16222 0
M  V30 1153 H 110.366 0.223499 5.02503 0
M  V30 1154 H 110.066 1.89545 5.56189 0
M  V30 1155 H 111.59 1.07782 6.01012 0
M  V30 1156 H 113.004 3.03775 4.86203 0
M  V30 1157 H 111.401 3.79875 4.64559 0
M  V30 1158 H 112.471 3.6025 3.24573 0
M  V30 1159 N 113.814 -1.1601 1.06675 0
M  V30 1160 C 114.744 -2.22688 0.702307 0
M  V30 1161 C 115.725 -1.67306 -0.307032 0
M  V30 1162 O 116.91 -1.93352 -0.181305 0
M  V30 1163 C 114.04 -3.47178 0.092038 0
M  V30 1164 C 112.994 -4.15477 1.02777 0
M  V30 1165 C 112.32 -5.33963 0.28061 0
M  V30 1166 C 113.62 -4.66019 2.35846 0
M  V30 1167 H 115.314 -2.53429 1.59419 0
M  V30 1168 H 112.86 -1.21813 0.767961 0
M  V30 1169 H 114.813 -4.21037 -0.174814 0
M  V30 1170 H 113.537 -3.15749 -0.834877 0
M  V30 1171 H 112.196 -3.43549 1.27944 0
M  V30 1172 H 111.844 -4.98788 -0.649545 0
M  V30 1173 H 111.544 -5.806 0.904258 0
M  V30 1174 H 113.068 -6.10596 0.021396 0
M  V30 1175 H 114.482 -5.3144 2.15045 0
M  V30 1176 H 112.879 -5.23293 2.93743 0
M  V30 1177 H 113.949 -3.82023 2.98641 0
M  V30 1178 N 115.292 -0.849877 -1.32721 0
M  V30 1179 C 116.202 -0.293791 -2.32753 0
M  V30 1180 C 117.218 0.585906 -1.63839 0
M  V30 1181 O 118.394 0.487413 -1.95413 0
M  V30 1182 C 115.459 0.512752 -3.42887 0
M  V30 1183 C 114.52 -0.39252 -4.27502 0
M  V30 1184 C 113.753 0.375625 -5.32377 0
M  V30 1185 O 113.976 1.60613 -5.4732 0
M  V30 1186 O 112.91 -0.256094 -6.01355 0
M  V30 1187 H 116.736 -1.12242 -2.82197 0
M  V30 1188 H 114.321 -0.612685 -1.36259 0
M  V30 1189 H 116.203 0.970704 -4.10067 0
M  V30 1190 H 114.878 1.31826 -2.95641 0
M  V30 1191 H 113.785 -0.898547 -3.63149 0
M  V30 1192 H 115.118 -1.16309 -4.7826 0
M  V30 1193 N 116.77 1.45427 -0.607355 0
M  V30 1194 C 117.733 2.28974 0.101693 0
M  V30 1195 C 118.733 1.39754 0.795329 0
M  V30 1196 O 119.923 1.61878 0.643527 0
M  V30 1197 C 117.055 3.20768 1.15414 0
M  V30 1198 H 118.248 2.93147 -0.632844 0
M  V30 1199 H 115.801 1.51945 -0.366391 0
M  V30 1200 H 116.536 2.61395 1.91945 0
M  V30 1201 H 116.321 3.86489 0.66098 0
M  V30 1202 H 117.811 3.83589 1.65073 0
M  V30 1203 N 118.248 0.346503 1.53744 0
M  V30 1204 C 119.211 -0.496439 2.23759 0
M  V30 1205 C 120.211 -1.0252 1.2388 0
M  V30 1206 O 121.401 -0.913974 1.48297 0
M  V30 1207 C 118.533 -1.69187 2.95954 0
M  V30 1208 H 119.726 0.115952 2.99676 0
M  V30 1209 H 117.279 0.0978939 1.55993 0
M  V30 1210 H 118.014 -2.34288 2.24231 0
M  V30 1211 H 117.799 -1.31989 3.69217 0
M  V30 1212 H 119.289 -2.28969 3.49232 0
M  V30 1213 N 119.726 -1.57421 0.075193 0
M  V30 1214 C 121.142 -1.57099 -0.281444 0
M  V30 1215 C 121.342 -1.08486 -1.69803 0
M  V30 1216 O 120.398 -0.752279 -2.41033 0
M  V30 1217 C 121.711 -3.00571 -0.0880041 0
M  V30 1218 C 123.259 -3.12605 -0.157281 0
M  V30 1219 C 123.734 -4.57999 0.0079207 0
M  V30 1220 N 125.225 -4.63176 -0.0475725 0
M  V30 1221 C 125.96 -5.73373 0.0557876 0
M  V30 1222 N 125.456 -6.92473 0.21286 0
M  V30 1223 N 127.249 -5.621 -0.00152098 0
M  V30 1224 H 119.4 -1.87335 1.00098 0
M  V30 1225 H 121.663 -0.86377 0.390646 0
M  V30 1226 H 121.369 -3.40262 0.889629 0
M  V30 1227 H 121.243 -3.67754 -0.838875 0
M  V30 1228 H 123.63 -2.72798 -1.1254 0
M  V30 1229 H 123.711 -2.48053 0.62475 0
M  V30 1230 H 123.355 -4.98496 0.972824 0
M  V30 1231 H 123.285 -5.20586 -0.793556 0
M  V30 1232 H 125.776 -3.7753 -0.167244 0
M  V30 1233 H 126.089 -7.72279 0.283781 0
M  V30 1234 H 124.434 -6.94556 0.248267 0
M  V30 1235 H 127.625 -4.67938 -0.122958 0
M  V30 1236 H 127.798 -6.47948 0.0824844 0
M  V30 1237 N 121.204 0.198386 -1.56346 0
M  V30 1238 C 122.453 0.917451 -1.79627 0
M  V30 1239 C 122.766 1.8456 -0.64784 0
M  V30 1240 O 123.972 2.60504 -0.764859 0
M  V30 1241 C 122.428 1.68175 -3.18191 0
M  V30 1242 C 122.036 0.798589 -4.40825 0
M  V30 1243 C 123.78 2.39065 -3.50782 0
M  V30 1244 C 121.687 1.56157 -5.70411 0
M  V30 1245 H 120.617 0.346317 -0.669762 0
M  V30 1246 H 123.268 0.170801 -1.82703 0
M  V30 1247 H 121.65 2.47216 -3.09354 0
M  V30 1248 H 122.824 0.0470665 -4.60776 0
M  V30 1249 H 121.139 0.200686 -4.15916 0
M  V30 1250 H 123.736 2.96692 -4.44835 0
M  V30 1251 H 124.079 3.13091 -2.74371 0
M  V30 1252 H 124.612 1.66993 -3.61052 0
M  V30 1253 H 121.351 0.864142 -6.49779 0
M  V30 1254 H 120.871 2.2871 -5.54483 0
M  V30 1255 H 122.55 2.11622 -6.11412 0
M  V30 1256 N 122.682 1.50554 0.465978 0
M  V30 1257 C 123.931 1.61038 1.21448 0
M  V30 1258 C 124.244 0.31865 1.92987 0
M  V30 1259 O 125.45 0.302469 2.6981 0
M  V30 1260 C 123.906 2.84283 2.20706 0
M  V30 1261 C 123.514 4.20352 1.54946 0
M  V30 1262 C 125.258 3.04115 2.96166 0
M  V30 1263 C 123.165 5.34778 2.5252 0
M  V30 1264 H 122.095 0.599718 0.457005 0
M  V30 1265 H 124.746 1.7699 0.484424 0
M  V30 1266 H 123.128 2.61901 2.97025 0
M  V30 1267 H 124.302 4.53008 0.843811 0
M  V30 1268 H 122.617 4.06167 0.917475 0
M  V30 1269 H 125.214 3.86774 3.69202 0
M  V30 1270 H 125.557 2.16045 3.55852 0
M  V30 1271 H 126.09 3.26702 2.26959 0
M  V30 1272 H 122.829 6.25018 1.97566 0
M  V30 1273 H 122.349 5.06534 3.21222 0
M  V30 1274 H 124.028 5.65561 3.14245 0
M  V30 1275 N 124.16 -0.719506 1.40217 0
M  V30 1276 C 125.576 -1.02707 1.22161 0
M  V30 1277 C 125.776 -2.0128 0.0940557 0
M  V30 1278 O 124.832 -2.46452 -0.549318 0
M  V30 1279 C 126.145 -1.57454 2.56181 0
M  V30 1280 C 127.693 -1.69458 2.63159 0
M  V30 1281 C 128.168 -2.27611 3.97438 0
M  V30 1282 N 129.659 -2.35002 3.99159 0
M  V30 1283 C 130.394 -2.80972 4.99842 0
M  V30 1284 N 129.89 -3.26723 6.10921 0
M  V30 1285 N 131.683 -2.80321 4.87213 0
M  V30 1286 H 123.834 -0.0660492 2.12297 0
M  V30 1287 H 126.097 -0.0919077 0.943534 0
M  V30 1288 H 125.803 -0.924873 3.39321 0
M  V30 1289 H 125.677 -2.56036 2.76993 0
M  V30 1290 H 128.064 -2.33543 1.80393 0
M  V30 1291 H 128.145 -0.694867 2.46181 0
M  V30 1292 H 127.789 -1.6415 4.80643 0
M  V30 1293 H 127.719 -3.2829 4.11744 0
M  V30 1294 H 130.21 -2.02685 3.18947 0
M  V30 1295 H 130.523 -3.60355 6.8364 0
M  V30 1296 H 128.868 -3.24692 6.14492 0
M  V30 1297 H 132.059 -2.43912 3.9953 0
M  V30 1298 H 132.232 -3.15831 5.65822 0
M  V30 1299 N 125.638 -1.25649 -0.95132 0
M  V30 1300 C 126.548 -1.08073 -2.08224 0
M  V30 1301 C 127.564 -0.0169666 -1.73992 0
M  V30 1302 O 128.74 -0.218593 -2.0021 0
M  V30 1303 C 125.805 -0.704922 -3.39458 0
M  V30 1304 C 124.866 -1.84699 -3.87537 0
M  V30 1305 C 124.099 -1.48902 -5.12508 0
M  V30 1306 O 124.322 -0.386156 -5.69091 0
M  V30 1307 O 123.256 -2.32033 -5.55378 0
M  V30 1308 H 127.082 -2.02924 -2.25954 0
M  V30 1309 H 124.667 -1.04618 -1.06656 0
M  V30 1310 H 126.549 -0.507609 -4.18332 0
M  V30 1311 H 125.224 0.214291 -3.2299 0
M  V30 1312 H 124.131 -2.09919 -3.09653 0
M  V30 1313 H 125.464 -2.74557 -4.08509 0
M  V30 1314 N 127.117 1.15442 -1.07289 0
M  V30 1315 C 128.533 1.38201 -0.798288 0
M  V30 1316 C 128.733 1.92429 0.597769 0
M  V30 1317 O 127.789 2.12962 1.3566 0
M  V30 1318 C 129.102 2.35357 -1.87156 0
M  V30 1319 C 130.65 2.49021 -1.89624 0
M  V30 1320 C 131.125 3.49468 -2.96034 0
M  V30 1321 N 132.616 3.57003 -2.95132 0
M  V30 1322 C 133.351 4.34543 -3.74112 0
M  V30 1323 N 132.847 5.15421 -4.6294 0
M  V30 1324 N 134.64 4.29625 -3.62462 0
M  V30 1325 H 126.791 0.78584 -1.97328 0
M  V30 1326 H 129.054 0.408065 -0.855679 0
M  V30 1327 H 128.76 2.02626 -2.87464 0
M  V30 1328 H 128.634 3.35129 -1.73114 0
M  V30 1329 H 131.021 2.81051 -0.899687 0
M  V30 1330 H 131.102 1.4925 -2.07745 0
M  V30 1331 H 130.746 3.18173 -3.95889 0
M  V30 1332 H 130.676 4.48992 -2.75161 0
M  V30 1333 H 133.167 2.99276 -2.30743 0
M  V30 1334 H 133.48 5.7183 -5.19837 0
M  V30 1335 H 131.825 5.14729 -4.66989 0
M  V30 1336 H 135.016 3.65505 -2.92444 0
M  V30 1337 H 135.189 4.89807 -4.24256 0
M  V30 1338 N 128.595 0.856903 1.32268 0
M  V30 1339 C 129.505 0.306131 2.32594 0
M  V30 1340 C 130.521 -0.577209 1.64147 0
M  V30 1341 O 131.697 -0.477043 1.95669 0
M  V30 1342 C 128.762 -0.494561 3.43154 0
M  V30 1343 C 127.823 0.415186 4.27288 0
M  V30 1344 C 127.056 -0.347387 5.32568 0
M  V30 1345 O 127.279 -1.57708 5.48165 0
M  V30 1346 O 126.213 0.287982 6.01211 0
M  V30 1347 H 130.039 1.13737 2.81598 0
M  V30 1348 H 127.624 0.619902 1.35932 0
M  V30 1349 H 129.506 -0.948944 4.10576 0
M  V30 1350 H 128.181 -1.30257 2.96336 0
M  V30 1351 H 127.088 0.917793 3.62667 0
M  V30 1352 H 128.421 1.18844 4.77637 0
M  V30 1353 N 130.073 -1.45103 0.615059 0
M  V30 1354 C 131.35 -1.95549 0.0448276 0
M  V30 1355 C 131.73 -1.55737 -1.4251 0
M  V30 1356 O 131.078 -0.823556 -2.13143 0
M  V30 1357 C 131.288 -3.48098 0.250785 0
M  V30 1358 C 132.636 -4.24384 0.135509 0
M  V30 1359 O 133.66 -3.55738 0.181299 0
M  V30 1360 O 132.519 -5.46493 0.0268878 0
M  V30 1361 H 129.613 -0.8264 -0.0314845 0
M  V30 1362 H 132.159 -1.55232 0.685642 0
M  V30 1363 H 130.931 -3.7007 1.27139 0
M  V30 1364 H 130.554 -3.95323 -0.424937 0
M  V30 1365 N 131.551 -0.354651 -1.53558 0
M  V30 1366 C 132.461 0.50515 -2.29097 0
M  V30 1367 C 133.477 1.10223 -1.34636 0
M  V30 1368 O 134.653 1.11553 -1.67684 0
M  V30 1369 C 131.718 1.63479 -3.05738 0
M  V30 1370 C 130.779 1.06636 -4.15845 0
M  V30 1371 C 130.012 2.14217 -4.88822 0
M  V30 1372 O 130.235 3.35137 -4.61562 0
M  V30 1373 O 129.169 1.77887 -5.75013 0
M  V30 1374 H 132.995 -0.109237 -3.03503 0
M  V30 1375 H 130.58 -0.119357 -1.48922 0
M  V30 1376 H 132.462 2.2918 -3.5363 0
M  V30 1377 H 131.137 2.23478 -2.34178 0
M  V30 1378 H 130.044 0.373565 -3.7223 0
M  V30 1379 H 131.377 0.511081 -4.89539 0
M  V30 1380 N 133.029 1.57378 -0.0835403 0
M  V30 1381 C 134.278 1.93106 0.582498 0
M  V30 1382 C 134.591 0.96651 1.70053 0
M  V30 1383 O 135.797 1.21705 2.42693 0
M  V30 1384 C 134.253 3.43076 1.08751 0
M  V30 1385 C 133.861 4.48 -0.000146404 0
M  V30 1386 C 135.605 3.87785 1.72694 0
M  V30 1387 C 133.512 5.89113 0.519568 0
M  V30 1388 H 132.442 0.720775 0.221358 0
M  V30 1389 H 135.093 1.82821 -0.157675 0
M  V30 1390 H 133.475 3.48474 1.88101 0
M  V30 1391 H 134.649 4.54233 -0.775199 0
M  V30 1392 H 132.964 4.1283 -0.54406 0
M  V30 1393 H 135.561 4.90604 2.1263 0
M  V30 1394 H 135.904 3.25796 2.59158 0
M  V30 1395 H 136.437 3.8504 0.999457 0
M  V30 1396 H 133.176 6.54775 -0.308186 0
M  V30 1397 H 132.696 5.86376 1.26188 0
M  V30 1398 H 134.375 6.39346 0.992237 0
M  V30 1399 N 134.507 -0.190092 1.56449 0
M  V30 1400 C 135.47 -1.21925 1.9408 0
M  V30 1401 C 136.47 -1.38176 0.822431 0
M  V30 1402 O 137.66 -1.35903 1.08977 0
M  V30 1403 C 134.792 -2.58773 2.21922 0
M  V30 1404 H 135.985 -0.897464 2.86157 0
M  V30 1405 H 133.538 -0.43181 1.50217 0
M  V30 1406 H 134.273 -2.95998 1.32499 0
M  V30 1407 H 134.058 -2.48348 3.03424 0
M  V30 1408 H 135.548 -3.32978 2.52022 0
M  V30 1409 N 135.985 -1.50799 -0.457987 0
M  V30 1410 C 137.213 -1.66218 -1.23203 0
M  V30 1411 C 137.628 -0.350894 -1.85511 0
M  V30 1412 O 136.985 0.668546 -1.69814 0
M  V30 1413 C 137.036 -2.76291 -2.33121 0
M  V30 1414 O 136.757 -4.02338 -1.73366 0
M  V30 1415 C 138.258 -3.028 -3.2377 0
M  V30 1416 H 135.478 -0.558361 -0.372121 0
M  V30 1417 H 138.022 -1.97099 -0.545179 0
M  V30 1418 H 136.177 -2.48068 -2.97558 0
M  V30 1419 H 136.591 -4.63312 -2.4585 0
M  V30 1420 H 138.065 -3.8345 -3.97077 0
M  V30 1421 H 138.542 -2.14385 -3.83322 0
M  V30 1422 H 139.148 -3.32604 -2.65056 0
M  V30 1423 N 137.463 0.71206 -1.40597 0
M  V30 1424 C 138.396 1.83582 -1.35546 0
M  V30 1425 C 139.374 1.61032 -0.225284 0
M  V30 1426 O 140.558 1.83998 -0.409519 0
M  V30 1427 C 137.685 3.19983 -1.11034 0
M  V30 1428 C 136.731 3.61355 -2.2655 0
M  V30 1429 S 137.564 3.68062 -3.88961 0
M  V30 1430 C 138.72 5.07216 -3.66719 0
M  V30 1431 H 138.953 1.87586 -2.30648 0
M  V30 1432 H 136.486 0.879182 -1.26924 0
M  V30 1433 H 138.444 3.98734 -0.975761 0
M  V30 1434 H 137.105 3.13608 -0.175798 0
M  V30 1435 H 136.298 4.60403 -2.0505 0
M  V30 1436 H 135.9 2.8987 -2.36329 0
M  V30 1437 H 138.192 5.94238 -3.25404 0
M  V30 1438 H 139.135 5.33753 -4.6531 0
M  V30 1439 H 139.543 4.77976 -3.00332 0
M  V30 1440 N 138.941 1.26152 0.944643 0
M  V30 1441 C 139.851 1.09176 2.07648 0
M  V30 1442 C 140.867 0.0261935 1.7398 0
M  V30 1443 O 142.043 0.229208 2.00091 0
M  V30 1444 C 139.108 0.722915 3.39079 0
M  V30 1445 C 138.169 1.86752 3.86552 0
M  V30 1446 C 137.402 1.51617 5.11711 0
M  V30 1447 O 137.625 0.416331 5.68879 0
M  V30 1448 O 136.559 2.34975 5.54139 0
M  V30 1449 H 140.385 2.0412 2.24875 0
M  V30 1450 H 137.97 1.05182 1.061 0
M  V30 1451 H 139.852 0.529787 4.18056 0
M  V30 1452 H 138.527 -0.197159 3.23099 0
M  V30 1453 H 137.434 2.11558 3.08535 0
M  V30 1454 H 138.767 2.76719 4.07047 0
M  V30 1455 N 140.419 -1.14872 1.07899 0
M  V30 1456 C 141.659 -1.8745 0.814965 0
M  V30 1457 C 142.023 -1.80758 -0.64733 0
M  V30 1458 O 143.224 -2.48422 -1.02664 0
M  V30 1459 C 141.495 -3.32286 1.31607 0
M  V30 1460 S 143.054 -4.22537 1.18357 0
M  V30 1461 H 139.872 -0.646833 0.295174 0
M  V30 1462 H 142.474 -1.38555 1.37923 0
M  V30 1463 H 141.178 -3.34703 2.37491 0
M  V30 1464 H 140.709 -3.86238 0.747261 0
M  V30 1465 H 142.724 -4.96044 0.124586 0
M  V30 1466 N 141.898 -0.863906 -1.31812 0
M  V30 1467 C 143.147 -0.46801 -1.96195 0
M  V30 1468 C 143.46 0.983474 -1.69077 0
M  V30 1469 O 144.666 1.48523 -2.27273 0
M  V30 1470 C 143.122 -0.785995 -3.51212 0
M  V30 1471 C 142.73 -2.25383 -3.87178 0
M  V30 1472 C 144.474 -0.458274 -4.22019 0
M  V30 1473 C 142.381 -2.51455 -5.3528 0
M  V30 1474 H 141.311 -0.171283 -0.734287 0
M  V30 1475 H 143.962 -1.05597 -1.50072 0
M  V30 1476 H 142.344 -0.127359 -3.95795 0
M  V30 1477 H 143.518 -2.95502 -3.53575 0
M  V30 1478 H 141.833 -2.54698 -3.2942 0
M  V30 1479 H 144.43 -0.630369 -5.30971 0
M  V30 1480 H 144.773 0.600834 -4.11941 0
M  V30 1481 H 145.306 -1.07319 -3.8305 0
M  V30 1482 H 142.045 -3.56025 -5.50387 0
M  V30 1483 H 141.565 -1.85923 -5.70257 0
M  V30 1484 H 143.244 -2.35874 -6.02472 0
M  V30 1485 N 143.376 1.44774 -0.622745 0
M  V30 1486 C 144.324 2.32387 0.0994683 0
M  V30 1487 C 145.318 1.46859 0.844326 0
M  V30 1488 O 146.524 1.63254 0.758174 0
M  V30 1489 H 142.899 0.750273 0.0509291 0
M  V30 1490 H 144.87 2.91062 -0.65767 0
M  V30 1491 C 143.619 3.30723 1.07319 0
M  V30 1492 H 142.942 3.96541 0.509462 0
M  V30 1493 H 144.382 3.94725 1.54817 0
M  V30 1494 C 142.841 2.59021 2.15429 0
M  V30 1495 O 143.371 2.38286 3.23393 0
M  V30 1496 N 141.577 2.189 1.91131 0
M  V30 1497 H 141.124 2.35964 1.03337 0
M  V30 1498 H 141.082 1.71251 2.63668 0
M  V30 1499 N 144.854 0.36279 1.53368 0
M  V30 1500 C 145.802 -0.500155 2.27159 0
M  V30 1501 C 146.796 -1.08575 1.3003 0
M  V30 1502 O 148.002 -1.02927 1.47668 0
M  V30 1503 H 144.377 -0.180009 0.730138 0
M  V30 1504 H 146.348 0.14401 2.98052 0
M  V30 1505 C 145.097 -1.62937 3.07159 0
M  V30 1506 H 144.42 -1.18806 3.8174 0
M  V30 1507 H 145.86 -2.20795 3.61975 0
M  V30 1508 C 144.319 -2.57007 2.17829 0
M  V30 1509 O 144.849 -3.59752 1.78721 0
M  V30 1510 N 143.055 -2.26131 1.82518 0
M  V30 1511 H 142.602 -1.42616 2.14519 0
M  V30 1512 H 142.56 -2.89327 1.23034 0
M  V30 1513 N 146.332 -1.57332 0.0918853 0
M  V30 1514 C 147.58 -1.93853 -0.571446 0
M  V30 1515 C 147.901 -0.974212 -1.6892 0
M  V30 1516 O 147.171 -0.0257254 -1.95883 0
M  V30 1517 H 145.751 -0.715666 -0.214082 0
M  V30 1518 H 148.413 -1.94287 0.154464 0
M  V30 1519 H 147.509 -2.96191 -0.983729 0
M  V30 1520 N 147.81 0.181792 -1.56548 0
M  V30 1521 C 148.757 1.22521 -1.95595 0
M  V30 1522 C 149.727 1.4454 -0.818373 0
M  V30 1523 O 150.912 1.57454 -1.07763 0
M  V30 1524 C 148.052 2.56193 -2.31212 0
M  V30 1525 C 147.165 2.41641 -3.58097 0
M  V30 1526 C 146.3 3.68108 -3.82975 0
M  V30 1527 C 145.339 3.48445 -5.03242 0
M  V30 1528 N 144.476 4.66956 -5.24306 0
M  V30 1529 H 149.316 0.885226 -2.84548 0
M  V30 1530 H 146.853 0.425718 -1.40805 0
M  V30 1531 H 148.811 3.34088 -2.49882 0
M  V30 1532 H 147.441 2.88208 -1.45382 0
M  V30 1533 H 146.493 1.54976 -3.474 0
M  V30 1534 H 147.805 2.23052 -4.46149 0
M  V30 1535 H 146.959 4.54441 -4.01956 0
M  V30 1536 H 145.698 3.89666 -2.93278 0
M  V30 1537 H 144.703 2.60499 -4.8417 0
M  V30 1538 H 145.928 3.2832 -5.9446 0
M  V30 1539 H 143.874 4.88752 -4.37559 0
M  V30 1540 H 143.791 4.51242 -6.06561 0
M  V30 1541 H 145.059 5.54602 -5.47756 0
M  V30 1542 N 149.288 1.51039 0.449983 0
M  V30 1543 C 150.513 1.6715 1.22783 0
M  V30 1544 C 150.938 0.363081 1.84563 0
M  V30 1545 O 150.296 -0.675433 1.68249 0
M  V30 1546 C 150.344 2.77985 2.29689 0
M  V30 1547 O 149.448 2.40707 3.34864 0
M  V30 1548 H 148.789 0.557746 0.360299 0
M  V30 1549 H 151.319 1.97535 0.533005 0
M  V30 1550 H 151.329 3.01693 2.74673 0
M  V30 1551 H 150.004 3.72935 1.84098 0
M  V30 1552 H 148.581 2.27523 2.95445 0
M  V30 1553 N 150.766 -0.704594 1.40972 0
M  V30 1554 C 152.015 -1.46018 1.39146 0
M  V30 1555 C 152.328 -1.956 0.000589254 0
M  V30 1556 O 153.534 -2.71137 -0.1403 0
M  V30 1557 C 151.99 -2.63996 2.4461 0
M  V30 1558 C 151.598 -2.21238 3.89561 0
M  V30 1559 C 153.342 -3.41677 2.51907 0
M  V30 1560 C 151.249 -3.3612 4.86598 0
M  V30 1561 H 150.179 -0.548444 0.517422 0
M  V30 1562 H 152.83 -0.765784 1.66757 0
M  V30 1563 H 151.212 -3.3566 2.10115 0
M  V30 1564 H 152.386 -1.56923 4.33257 0
M  V30 1565 H 150.701 -1.56574 3.85841 0
M  V30 1566 H 153.298 -4.27182 3.2159 0
M  V30 1567 H 153.641 -3.86247 1.55303 0
M  V30 1568 H 154.174 -2.77064 2.85448 0
M  V30 1569 H 150.913 -2.96572 5.84573 0
M  V30 1570 H 150.433 -3.99315 4.47557 0
M  V30 1571 H 152.112 -4.02029 5.06934 0
M  V30 1572 N 152.244 -1.26651 -0.937939 0
M  V30 1573 C 153.491 -1.12387 -1.6845 0
M  V30 1574 C 153.819 0.332208 -1.91642 0
M  V30 1575 O 153.074 1.2602 -1.49725 0
M  V30 1576 C 153.373 -1.84168 -3.06295 0
M  V30 1577 C 153.039 -3.34056 -3.02849 0
M  V30 1578 C 151.701 -3.74942 -3.01616 0
M  V30 1579 C 154.053 -4.29741 -2.9491 0
M  V30 1580 C 151.381 -5.09894 -2.90215 0
M  V30 1581 C 153.733 -5.64738 -2.8505 0
M  V30 1582 C 152.397 -6.0493 -2.82162 0
M  V30 1583 H 151.667 -0.411252 -0.616403 0
M  V30 1584 H 154.314 -1.57134 -1.09459 0
M  V30 1585 H 152.619 -1.319 -3.6893 0
M  V30 1586 H 154.316 -1.70569 -3.62915 0
M  V30 1587 H 150.906 -3.01534 -3.0459 0
M  V30 1588 H 155.09 -3.99133 -2.94969 0
M  V30 1589 H 150.346 -5.40194 -2.86358 0
M  V30 1590 H 154.52 -6.38561 -2.77872 0
M  V30 1591 H 152.147 -7.09457 -2.73084 0
M  V30 1592 N 153.722 1.14298 -1.08507 0
M  V30 1593 C 154.632 2.23027 -0.727753 0
M  V30 1594 C 155.648 1.71952 0.26619 0
M  V30 1595 O 156.824 2.011 0.109882 0
M  V30 1596 C 153.889 3.46403 -0.143541 0
M  V30 1597 C 152.95 4.12413 -1.19223 0
M  V30 1598 C 152.183 5.29899 -0.635798 0
M  V30 1599 O 152.406 5.67796 0.544393 0
M  V30 1600 O 151.34 5.85717 -1.38634 0
M  V30 1601 H 155.166 2.55945 -1.63481 0
M  V30 1602 H 152.751 1.22248 -0.858817 0
M  V30 1603 H 154.633 4.21018 0.179404 0
M  V30 1604 H 153.308 3.15206 0.736659 0
M  V30 1605 H 152.215 3.39667 -1.56772 0
M  V30 1606 H 153.548 4.47718 -2.04474 0
M  V30 1607 N 155.201 0.870884 1.31352 0
M  V30 1608 C 156.164 0.332243 2.26779 0
M  V30 1609 C 157.164 -0.517302 1.52252 0
M  V30 1610 O 158.354 -0.326477 1.71113 0
M  V30 1611 C 155.486 -0.528066 3.36785 0
M  V30 1612 H 156.679 1.17469 2.75937 0
M  V30 1613 H 154.232 0.64655 1.423 0
M  V30 1614 H 154.967 -1.39167 2.92922 0
M  V30 1615 H 154.752 0.0802582 3.92018 0
M  V30 1616 H 156.242 -0.897179 4.07849 0
M  V30 1617 N 156.679 -1.44442 0.630414 0
M  V30 1618 C 158.095 -1.56832 0.295973 0
M  V30 1619 C 158.295 -1.61806 -1.20088 0
M  V30 1620 O 157.351 -1.5607 -1.9849 0
M  V30 1621 C 158.664 -2.84031 0.987264 0
M  V30 1622 C 160.212 -2.97742 0.96534 0
M  V30 1623 C 160.687 -4.27743 1.63708 0
M  V30 1624 N 162.178 -4.34555 1.60364 0
M  V30 1625 C 162.913 -5.33862 2.09234 0
M  V30 1626 N 162.409 -6.39578 2.66292 0
M  V30 1627 N 164.202 -5.25366 1.99867 0
M  V30 1628 H 156.353 -1.39457 1.60205 0
M  V30 1629 H 158.616 -0.668237 0.672431 0
M  V30 1630 H 158.322 -2.86338 2.04215 0
M  V30 1631 H 158.196 -3.73534 0.524588 0
M  V30 1632 H 160.583 -2.94989 -0.0810639 0
M  V30 1633 H 160.664 -2.09589 1.4665 0
M  V30 1634 H 160.308 -4.31255 2.68293 0
M  V30 1635 H 160.238 -5.14752 1.11076 0
M  V30 1636 H 162.729 -3.58772 1.18705 0
M  V30 1637 H 163.042 -7.11637 3.01317 0
M  V30 1638 H 161.387 -6.40265 2.70343 0
M  V30 1639 H 164.578 -4.41688 1.55013 0
M  V30 1640 H 164.751 -6.02606 2.38265 0
M  V30 1641 N 158.157 -0.370918 -1.53173 0
M  V30 1642 C 159.087 0.464847 -2.28826 0
M  V30 1643 C 160.068 1.07936 -1.31468 0
M  V30 1644 O 161.253 1.0956 -1.60344 0
M  V30 1645 C 158.383 1.60196 -3.08147 0
M  V30 1646 C 157.337 1.11443 -4.13237 0
M  V30 1647 C 156.663 2.3422 -4.80672 0
M  V30 1648 C 157.963 0.195384 -5.21934 0
M  V30 1649 H 159.657 -0.166329 -2.98938 0
M  V30 1650 H 157.203 -0.0814359 -1.4377 0
M  V30 1651 H 159.156 2.19332 -3.59822 0
M  V30 1652 H 157.88 2.26045 -2.35735 0
M  V30 1653 H 156.539 0.545727 -3.62515 0
M  V30 1654 H 156.187 2.98537 -4.04827 0
M  V30 1655 H 155.887 2.02269 -5.51689 0
M  V30 1656 H 157.411 2.94032 -5.35143 0
M  V30 1657 H 158.825 0.694375 -5.69079 0
M  V30 1658 H 157.222 -0.0335027 -6.00091 0
M  V30 1659 H 158.292 -0.760961 -4.78892 0
M  V30 1660 N 159.635 1.57281 -0.100228 0
M  V30 1661 C 160.912 1.86014 0.604812 0
M  V30 1662 C 161.292 0.998025 1.86018 0
M  V30 1663 O 160.64 0.0718184 2.28387 0
M  V30 1664 C 160.85 3.36784 0.915278 0
M  V30 1665 C 162.198 4.04957 1.27651 0
M  V30 1666 O 163.222 3.41695 1.00613 0
M  V30 1667 O 162.081 5.16593 1.7831 0
M  V30 1668 H 159.175 0.76942 0.303185 0
M  V30 1669 H 161.721 1.69176 -0.133313 0
M  V30 1670 H 160.493 3.91292 0.0248896 0
M  V30 1671 H 160.116 3.58987 1.70921 0
M  V30 1672 N 161.113 -0.173488 1.56642 0
M  V30 1673 C 162.362 -0.888758 1.81063 0
M  V30 1674 C 162.675 -1.83506 0.67712 0
M  V30 1675 O 163.881 -2.59254 0.806206 0
M  V30 1676 C 162.337 -1.63091 3.20826 0
M  V30 1677 C 161.945 -0.728357 4.4204 0
M  V30 1678 C 163.689 -2.33454 3.54541 0
M  V30 1679 C 161.596 -1.47062 5.72823 0
M  V30 1680 H 160.526 -0.335618 0.675186 0
M  V30 1681 H 163.177 -0.141712 1.82952 0
M  V30 1682 H 161.559 -2.42263 3.13248 0
M  V30 1683 H 162.733 0.0262449 4.60793 0
M  V30 1684 H 161.048 -0.134492 4.16183 0
M  V30 1685 H 163.645 -2.89578 4.49498 0
M  V30 1686 H 163.988 -3.08687 2.79317 0
M  V30 1687 H 164.521 -1.61227 3.63663 0
M  V30 1688 H 161.26 -0.760658 6.51072 0
M  V30 1689 H 160.78 -2.1986 5.58052 0
M  V30 1690 H 162.459 -2.01868 6.14702 0
M  V30 1691 N 162.591 -1.51276 -0.441967 0
M  V30 1692 C 163.868 -1.54252 -1.20273 0
M  V30 1693 C 164.248 -0.30408 -2.08898 0
M  V30 1694 O 163.596 0.711084 -2.17154 0
M  V30 1695 C 163.806 -2.85406 -2.00859 0
M  V30 1696 C 165.154 -3.37181 -2.58059 0
M  V30 1697 O 166.178 -2.86925 -2.11074 0
M  V30 1698 O 165.037 -4.24858 -3.43741 0
M  V30 1699 H 162.131 -0.619969 -0.547328 0
M  V30 1700 H 164.677 -1.63586 -0.451413 0
M  V30 1701 H 163.449 -3.67003 -1.35736 0
M  V30 1702 H 163.072 -2.79213 -2.83065 0
M  V30 1703 N 164.069 0.697108 -1.41344 0
M  V30 1704 C 165.318 1.45279 -1.39918 0
M  V30 1705 C 165.631 1.95597 -0.0109624 0
M  V30 1706 O 166.837 2.71208 0.125919 0
M  V30 1707 C 165.293 2.62695 -2.46007 0
M  V30 1708 C 164.901 2.19169 -3.90729 0
M  V30 1709 C 166.645 3.40336 -2.53715 0
M  V30 1710 C 164.552 3.33535 -4.88373 0
M  V30 1711 H 163.482 0.545692 -0.520323 0
M  V30 1712 H 166.133 0.756929 -1.67161 0
M  V30 1713 H 164.515 3.34541 -2.11892 0
M  V30 1714 H 165.689 1.54623 -4.34083 0
M  V30 1715 H 164.004 1.54525 -3.86666 0
M  V30 1716 H 166.601 4.2547 -3.2385 0
M  V30 1717 H 166.944 3.85418 -1.5735 0
M  V30 1718 H 167.477 2.75546 -2.86913 0
M  V30 1719 H 164.216 2.93468 -5.86137 0
M  V30 1720 H 163.736 3.96936 -4.49668 0
M  V30 1721 H 165.415 3.99335 -5.09059 0
M  V30 1722 N 165.547 1.27147 0.931209 0
M  V30 1723 C 166.772 1.16191 1.71797 0
M  V30 1724 C 167.197 -0.278004 1.86034 0
M  V30 1725 O 166.555 -1.20137 1.35782 0
M  V30 1726 C 166.603 1.84673 3.09723 0
M  V30 1727 O 165.707 1.14231 3.96264 0
M  V30 1728 H 165.048 0.404303 0.526721 0
M  V30 1729 H 167.578 1.68152 1.1656 0
M  V30 1730 H 167.588 1.91893 3.60057 0
M  V30 1731 H 166.263 2.89421 2.98677 0
M  V30 1732 H 164.84 1.15056 3.54706 0
M  V30 1733 N 167.025 -1.13721 1.09112 0
M  V30 1734 C 168.271 -1.85413 0.836283 0
M  V30 1735 C 168.626 -1.8175 -0.631249 0
M  V30 1736 O 167.919 -1.24238 -1.45861 0
M  V30 1737 C 168.113 -3.32861 1.30146 0
M  V30 1738 C 167.942 -3.50882 2.81268 0
M  V30 1739 C 166.712 -3.65312 3.49106 0
M  V30 1740 C 168.91 -3.47196 3.7942 0
M  V30 1741 N 166.892 -3.71563 4.88686 0
M  V30 1742 C 168.263 -3.59777 5.04936 0
M  V30 1743 C 170.318 -3.30577 3.72321 0
M  V30 1744 C 169.021 -3.57455 6.24194 0
M  V30 1745 C 171.047 -3.29562 4.91063 0
M  V30 1746 C 170.409 -3.42691 6.15421 0
M  V30 1747 H 166.508 -0.694812 0.358832 0
M  V30 1748 H 169.092 -1.36246 1.39087 0
M  V30 1749 H 167.263 -3.80602 0.774361 0
M  V30 1750 H 168.995 -3.92346 0.99229 0
M  V30 1751 H 165.75 -3.6685 2.9953 0
M  V30 1752 H 166.174 -3.78387 5.61384 0
M  V30 1753 H 170.816 -3.19332 2.77105 0
M  V30 1754 H 168.534 -3.67475 7.19714 0
M  V30 1755 H 172.12 -3.17905 4.87266 0
M  V30 1756 H 171 -3.41862 7.05762 0
M  V30 1757 N 168.503 -0.877838 -1.30888 0
M  V30 1758 C 169.435 -0.296607 -2.27273 0
M  V30 1759 C 170.448 0.544799 -1.53414 0
M  V30 1760 O 171.637 0.365511 -1.74718 0
M  V30 1761 C 168.737 0.597481 -3.33592 0
M  V30 1762 C 167.91 -0.213251 -4.3688 0
M  V30 1763 C 166.969 0.610208 -5.2265 0
M  V30 1764 O 165.995 0.035441 -5.69189 0
M  V30 1765 N 167.197 1.92071 -5.47804 0
M  V30 1766 H 169.962 -1.12492 -2.77787 0
M  V30 1767 H 167.523 -0.740105 -1.43993 0
M  V30 1768 H 169.515 1.15425 -3.87891 0
M  V30 1769 H 168.085 1.32647 -2.83061 0
M  V30 1770 H 167.305 -0.951466 -3.82545 0
M  V30 1771 H 168.593 -0.769262 -5.02951 0
M  V30 1772 H 167.991 2.4107 -5.11763 0
M  V30 1773 H 166.548 2.42508 -6.05007 0
M  V30 1774 N 169.982 1.44106 -0.638065 0
M  V30 1775 C 171.222 2.03858 -0.148733 0
M  V30 1776 C 171.586 1.49153 1.20903 0
M  V30 1777 O 172.787 2.00452 1.79088 0
M  V30 1778 C 171.058 3.57117 -0.142314 0
M  V30 1779 S 172.617 4.37897 0.281385 0
M  V30 1780 H 169.435 0.708069 -0.0644912 0
M  V30 1781 H 172.037 1.7639 -0.843009 0
M  V30 1782 H 170.741 3.94436 -1.13349 0
M  V30 1783 H 170.272 3.89205 0.572988 0
M  V30 1784 H 172.287 4.72218 1.52395 0
M  V30 1785 N 171.46 0.379036 1.52974 0
M  V30 1786 C 172.39 -0.452706 2.29069 0
M  V30 1787 C 173.371 -1.07237 1.32039 0
M  V30 1788 O 174.556 -1.08708 1.60923 0
M  V30 1789 C 171.686 -1.5856 3.08992 0
M  V30 1790 C 170.64 -1.0925 4.13822 0
M  V30 1791 C 169.966 -2.31668 4.81907 0
M  V30 1792 C 171.266 -0.167702 5.22031 0
M  V30 1793 H 172.96 0.182181 2.98845 0
M  V30 1794 H 170.506 0.0890592 1.43724 0
M  V30 1795 H 172.459 -2.1742 3.6098 0
M  V30 1796 H 171.183 -2.24792 2.36931 0
M  V30 1797 H 169.842 -0.526494 3.628 0
M  V30 1798 H 169.49 -2.96386 4.06404 0
M  V30 1799 H 169.19 -1.9934 5.52754 0
M  V30 1800 H 170.714 -2.91189 5.36695 0
M  V30 1801 H 172.128 -0.664186 5.6944 0
M  V30 1802 H 170.525 0.0653265 6.00064 0
M  V30 1803 H 171.595 0.786347 4.78482 0
M  V30 1804 N 172.938 -1.57226 0.108567 0
M  V30 1805 C 173.848 -2.18292 -0.859401 0
M  V30 1806 C 174.864 -1.15612 -1.30038 0
M  V30 1807 O 176.04 -1.48039 -1.36552 0
M  V30 1808 C 173.105 -2.762 -2.09558 0
M  V30 1809 C 172.166 -3.93881 -1.70752 0
M  V30 1810 C 171.399 -4.49018 -2.88477 0
M  V30 1811 O 171.622 -4.03068 -4.036 0
M  V30 1812 O 170.556 -5.39852 -2.66164 0
M  V30 1813 H 174.382 -3.01441 -0.369769 0
M  V30 1814 H 171.967 -1.48945 -0.1165 0
M  V30 1815 H 173.849 -3.13156 -2.81978 0
M  V30 1816 H 172.524 -1.96089 -2.57548 0
M  V30 1817 H 171.431 -3.61713 -0.954714 0
M  V30 1818 H 172.764 -4.75396 -1.27513 0
M  V30 1819 N 174.416 0.165178 -1.56732 0
M  V30 1820 C 175.646 0.894919 -1.86212 0
M  V30 1821 C 176.054 1.76066 -0.692627 0
M  V30 1822 O 175.397 1.80387 0.347303 0
M  V30 1823 C 175.459 1.8174 -3.10179 0
M  V30 1824 C 175.123 1.13064 -4.42793 0
M  V30 1825 C 176.12 0.493169 -5.17556 0
M  V30 1826 C 173.805 1.12556 -4.89527 0
M  V30 1827 C 175.799 -0.140209 -6.37246 0
M  V30 1828 C 173.486 0.488366 -6.09145 0
M  V30 1829 C 174.484 -0.143411 -6.82849 0
M  V30 1830 O 174.172 -0.77055 -8.00199 0
M  V30 1831 H 173.904 0.265114 -0.621844 0
M  V30 1832 H 176.458 0.168242 -2.0471 0
M  V30 1833 H 174.688 2.58455 -2.87642 0
M  V30 1834 H 176.377 2.4175 -3.26055 0
M  V30 1835 H 177.143 0.489023 -4.82528 0
M  V30 1836 H 173.022 1.60672 -4.32094 0
M  V30 1837 H 176.566 -0.633932 -6.94714 0
M  V30 1838 H 172.463 0.490116 -6.43637 0
M  V30 1839 H 173.231 -0.670408 -8.1575 0
M  V30 1840 N 175.894 1.51508 0.433938 0
M  V30 1841 C 177.124 1.67914 1.20369 0
M  V30 1842 C 177.532 0.377461 1.85397 0
M  V30 1843 O 176.875 -0.654255 1.71654 0
M  V30 1844 C 176.937 2.74045 2.32679 0
M  V30 1845 C 176.601 4.16543 1.87991 0
M  V30 1846 C 177.598 5.01211 1.38145 0
M  V30 1847 C 175.283 4.6266 1.95579 0
M  V30 1848 C 177.277 6.30056 0.964774 0
M  V30 1849 C 174.964 5.91501 1.53523 0
M  V30 1850 C 175.962 6.75027 1.04055 0
M  V30 1851 O 175.65 8.01459 0.625964 0
M  V30 1852 H 175.382 0.566578 0.368735 0
M  V30 1853 H 177.936 1.98709 0.51999 0
M  V30 1854 H 176.166 2.38572 3.04336 0
M  V30 1855 H 177.855 2.79295 2.94532 0
M  V30 1856 H 178.621 4.66783 1.31675 0
M  V30 1857 H 174.5 3.97767 2.33029 0
M  V30 1858 H 178.044 6.95202 0.57796 0
M  V30 1859 H 173.941 6.25442 1.59665 0
M  V30 1860 H 174.709 8.15043 0.751509 0
M  V30 1861 N 177.372 -0.689602 1.41712 0
M  V30 1862 C 178.335 -1.78521 1.43746 0
M  V30 1863 C 179.335 -1.57436 0.327191 0
M  V30 1864 O 180.525 -1.64 0.587348 0
M  V30 1865 C 177.657 -3.16971 1.25467 0
M  V30 1866 H 178.85 -1.78108 2.41283 0
M  V30 1867 H 176.403 -0.89781 1.27942 0
M  V30 1868 H 177.138 -3.23019 0.287948 0
M  V30 1869 H 176.923 -3.33678 2.05917 0
M  V30 1870 H 178.413 -3.96935 1.2974 0
M  V30 1871 N 178.85 -1.27639 -0.924453 0
M  V30 1872 C 180.098 -1.13941 -1.66918 0
M  V30 1873 C 180.419 0.314589 -1.92446 0
M  V30 1874 O 179.689 1.21964 -1.53303 0
M  V30 1875 H 178.269 -0.418678 -0.618642 0
M  V30 1876 H 180.931 -1.60213 -1.10985 0
M  V30 1877 H 180.027 -1.67094 -2.63602 0
M  V30 1878 N 180.328 1.1314 -1.09713 0
M  V30 1879 C 181.258 2.20748 -0.761102 0
M  V30 1880 C 182.239 1.68061 0.262566 0
M  V30 1881 O 183.424 1.93765 0.129977 0
M  V30 1882 C 180.554 3.46812 -0.184054 0
M  V30 1883 C 179.508 4.12606 -1.13757 0
M  V30 1884 C 178.834 5.33031 -0.422083 0
M  V30 1885 C 180.134 4.59603 -2.48118 0
M  V30 1886 H 181.828 2.49113 -1.66082 0
M  V30 1887 H 179.374 1.19734 -0.799987 0
M  V30 1888 H 181.327 4.21353 0.0631215 0
M  V30 1889 H 180.051 3.17851 0.750868 0
M  V30 1890 H 178.71 3.40036 -1.37007 0
M  V30 1891 H 178.358 5.00335 0.517072 0
M  V30 1892 H 178.058 5.77999 -1.05788 0
M  V30 1893 H 179.582 6.10325 -0.183277 0
M  V30 1894 H 180.996 5.25552 -2.29059 0
M  V30 1895 H 179.393 5.15321 -3.07514 0
M  V30 1896 H 180.463 3.73971 -3.08665 0
M  V30 1897 N 181.806 0.884767 1.30421 0
M  V30 1898 C 182.769 0.356277 2.26414 0
M  V30 1899 C 183.769 -0.501124 1.52792 0
M  V30 1900 O 184.959 -0.30831 1.7145 0
M  V30 1901 C 182.091 -0.492316 3.37326 0
M  V30 1902 H 183.284 1.20389 2.74675 0
M  V30 1903 H 180.837 0.661607 1.41607 0
M  V30 1904 H 181.572 -1.36052 2.94381 0
M  V30 1905 H 181.357 0.121832 3.91911 0
M  V30 1906 H 182.847 -0.853871 4.08777 0
M  V30 1907 N 183.284 -1.43765 0.645699 0
M  V30 1908 C 184.247 -2.29163 -0.0409488 0
M  V30 1909 C 185.247 -1.41813 -0.757996 0
M  V30 1910 O 186.437 -1.63527 -0.600382 0
M  V30 1911 C 183.569 -3.23716 -1.06869 0
M  V30 1912 H 184.762 -2.91366 0.710345 0
M  V30 1913 H 182.315 -1.5092 0.406547 0
M  V30 1914 H 183.05 -2.66393 -1.84947 0
M  V30 1915 H 182.835 -3.88105 -0.558277 0
M  V30 1916 H 184.325 -3.87831 -1.54845 0
M  V30 1917 N 184.763 -0.387143 -1.52771 0
M  V30 1918 C 185.988 0.198407 -2.06449 0
M  V30 1919 C 186.413 1.39918 -1.25716 0
M  V30 1920 O 185.771 1.79099 -0.281657 0
M  V30 1921 C 185.819 0.548893 -3.56398 0
M  V30 1922 O 184.923 1.64315 -3.78252 0
M  V30 1923 H 184.264 0.0237731 -0.663574 0
M  V30 1924 H 186.794 -0.553989 -1.96957 0
M  V30 1925 H 186.804 0.813812 -3.99801 0
M  V30 1926 H 185.479 -0.329005 -4.14597 0
M  V30 1927 H 184.056 1.37211 -3.46738 0
M  V30 1928 N 186.241 1.57166 -0.116904 0
M  V30 1929 C 187.174 2.10912 0.871291 0
M  V30 1930 C 188.152 1.025 1.26224 0
M  V30 1931 O 189.336 1.3014 1.36366 0
M  V30 1932 C 186.463 2.6041 2.16574 0
M  V30 1933 C 185.509 3.80687 1.92302 0
M  V30 1934 S 186.342 5.23199 1.14119 0
M  V30 1935 C 187.498 5.76064 2.44748 0
M  V30 1936 H 187.731 2.94401 0.414138 0
M  V30 1937 H 185.264 1.54096 0.096829 0
M  V30 1938 H 187.222 2.89583 2.9095 0
M  V30 1939 H 185.883 1.77106 2.59408 0
M  V30 1940 H 185.076 4.13462 2.8821 0
M  V30 1941 H 184.678 3.5212 1.26047 0
M  V30 1942 H 186.97 5.8566 3.406 0
M  V30 1943 H 187.913 6.74184 2.16521 0
M  V30 1944 H 188.321 5.04117 2.54019 0
M  V30 1945 N 187.719 -0.156864 1.56817 0
M  V30 1946 C 188.682 -1.17781 1.96622 0
M  V30 1947 C 189.682 -1.36401 0.851555 0
M  V30 1948 O 190.872 -1.33561 1.11836 0
M  V30 1949 C 188.004 -2.54008 2.27361 0
M  V30 1950 H 189.197 -0.836564 2.87996 0
M  V30 1951 H 186.75 -0.39985 1.51099 0
M  V30 1952 H 187.485 -2.9312 1.38748 0
M  V30 1953 H 187.27 -2.41856 3.08623 0
M  V30 1954 H 188.76 -3.27558 2.59029 0
M  V30 1955 N 189.197 -1.51736 -0.425897 0
M  V30 1956 C 190.445 -1.64644 -1.17204 0
M  V30 1957 C 190.766 -0.370486 -1.91448 0
M  V30 1958 O 190.036 0.614088 -1.86026 0
M  V30 1959 H 188.616 -0.606819 -0.435638 0
M  V30 1960 H 191.278 -1.88713 -0.487177 0
M  V30 1961 H 190.374 -2.47958 -1.89534 0
M  V30 1962 N 190.675 0.682077 -1.42076 0
M  V30 1963 C 191.585 1.82535 -1.47371 0
M  V30 1964 C 192.601 1.7017 -0.363079 0
M  V30 1965 O 193.777 1.91848 -0.612875 0
M  V30 1966 C 190.842 3.18624 -1.36674 0
M  V30 1967 C 189.903 3.42999 -2.58167 0
M  V30 1968 C 189.136 4.72595 -2.4797 0
M  V30 1969 O 189.359 5.50006 -1.5116 0
M  V30 1970 O 188.293 4.98054 -3.37974 0
M  V30 1971 H 192.119 1.81023 -2.43853 0
M  V30 1972 H 189.704 0.836887 -1.2376 0
M  V30 1973 H 191.586 3.99847 -1.33043 0
M  V30 1974 H 190.261 3.20789 -0.433138 0
M  V30 1975 H 189.168 2.61653 -2.67373 0
M  V30 1976 H 190.501 3.45659 -3.50401 0
M  V30 1977 N 192.153 1.28127 0.917671 0
M  V30 1978 C 193.103 1.08361 2.00604 0
M  V30 1979 C 194.087 0.00847518 1.60898 0
M  V30 1980 O 195.279 0.228167 1.75523 0
M  V30 1981 C 192.408 0.743376 3.35155 0
M  V30 1982 C 191.494 1.85716 3.81275 0
M  V30 1983 N 191.885 3.09822 3.99805 0
M  V30 1984 C 190.183 1.74612 4.10398 0
M  V30 1985 C 190.884 3.82368 4.38372 0
M  V30 1986 N 189.86 3.10192 4.4641 0
M  V30 1987 H 193.662 2.02531 2.12975 0
M  V30 1988 H 191.176 1.18989 1.10523 0
M  V30 1989 H 193.173 0.582859 4.12805 0
M  V30 1990 H 191.833 -0.190595 3.2414 0
M  V30 1991 H 192.844 3.45475 3.85833 0
M  V30 1992 H 189.521 0.883657 4.08041 0
M  V30 1993 H 190.911 4.89082 4.60704 0
M  V30 1994 N 193.631 -1.12557 1.10312 0
M  V30 1995 C 194.88 -1.83395 0.839588 0
M  V30 1996 C 195.193 -1.84939 -0.636929 0
M  V30 1997 O 196.399 -2.51761 -1.01631 0
M  V30 1998 C 194.855 -3.29303 1.45215 0
M  V30 1999 C 194.463 -3.36122 2.96186 0
M  V30 2000 C 196.207 -4.05121 1.26796 0
M  V30 2001 C 194.114 -4.76357 3.50483 0
M  V30 2002 H 193.044 -0.687133 0.310425 0
M  V30 2003 H 195.695 -1.26746 1.32694 0
M  V30 2004 H 194.077 -3.85812 0.892469 0
M  V30 2005 H 195.251 -2.89559 3.58458 0
M  V30 2006 H 193.566 -2.73776 3.13745 0
M  V30 2007 H 196.163 -5.08668 1.64806 0
M  V30 2008 H 196.506 -4.15773 0.209409 0
M  V30 2009 H 197.039 -3.54967 1.79563 0
M  V30 2010 H 193.778 -4.70899 4.55998 0
M  V30 2011 H 193.298 -5.23377 2.92978 0
M  V30 2012 H 194.977 -5.45294 3.48228 0
M  V30 2013 N 195.109 -0.891671 -1.2995 0
M  V30 2014 C 196.041 -0.320695 -2.26945 0
M  V30 2015 C 197.054 0.528497 -1.53983 0
M  V30 2016 O 198.243 0.346959 -1.75096 0
M  V30 2017 C 195.343 0.562066 -3.34207 0
M  V30 2018 C 194.516 -0.259576 -4.36629 0
M  V30 2019 C 193.575 0.554739 -5.23268 0
M  V30 2020 O 192.601 -0.0249311 -5.69195 0
M  V30 2021 N 193.803 1.8625 -5.4981 0
M  V30 2022 H 196.568 -1.15432 -2.76578 0
M  V30 2023 H 194.129 -0.755336 -1.432 0
M  V30 2024 H 196.121 1.11304 -3.89093 0
M  V30 2025 H 194.691 1.29637 -2.84452 0
M  V30 2026 H 193.911 -0.991986 -3.81514 0
M  V30 2027 H 195.199 -0.822564 -5.02107 0
M  V30 2028 H 194.597 2.35628 -5.14292 0
M  V30 2029 H 193.154 2.36078 -6.07545 0
M  V30 2030 N 196.587 1.43421 -0.653314 0
M  V30 2031 C 197.517 2.33487 0.0246656 0
M  V30 2032 C 198.498 1.49475 0.811863 0
M  V30 2033 O 199.683 1.78139 0.773322 0
M  V30 2034 C 196.813 3.32841 0.99166 0
M  V30 2035 C 195.767 4.26842 0.314568 0
M  V30 2036 C 195.093 5.16236 1.39302 0
M  V30 2037 C 196.393 5.16243 -0.793095 0
M  V30 2038 H 198.087 2.90427 -0.727481 0
M  V30 2039 H 195.633 1.39649 -0.351287 0
M  V30 2040 H 197.586 3.94747 1.47487 0
M  V30 2041 H 196.31 2.74158 1.77497 0
M  V30 2042 H 194.969 3.663 -0.148199 0
M  V30 2043 H 194.617 4.53891 2.16776 0
M  V30 2044 H 194.317 5.79948 0.945223 0
M  V30 2045 H 195.841 5.81015 1.87759 0
M  V30 2046 H 197.255 5.71958 -0.392039 0
M  V30 2047 H 195.652 5.88676 -1.16536 0
M  V30 2048 H 196.722 4.55927 -1.65103 0
M  V30 2049 N 198.065 0.39524 1.52563 0
M  V30 2050 C 199.476 -0.0774719 1.86539 0
M  V30 2051 C 199.827 -1.45641 1.31466 0
M  V30 2052 O 198.952 -2.06459 0.648367 0
M  V30 2053 C 199.547 -0.147356 3.38479 0
M  V30 2054 C 198.106 -0.564373 3.72145 0
M  V30 2055 C 197.253 0.269919 2.75983 0
M  V30 2056 H 200.204 0.612876 1.46388 0
M  V30 2057 H 200.225 -0.965343 3.68051 0
M  V30 2058 H 199.737 0.856387 3.78534 0
M  V30 2059 H 197.838 -1.57527 3.37663 0
M  V30 2060 H 197.951 -0.318402 4.78041 0
M  V30 2061 H 196.315 -0.265696 2.5331 0
M  V30 2062 H 197.098 1.27175 3.18875 0
M  V30 2063 N 199.544 -1.57102 0.125237 0
M  V30 2064 C 200.792 -1.95021 -0.530198 0
M  V30 2065 C 201.113 -1.00982 -1.66816 0
M  V30 2066 O 200.383 -0.0672693 -1.95784 0
M  V30 2067 H 198.963 -0.720046 -0.198853 0
M  V30 2068 H 201.625 -1.93916 0.19564 0
M  V30 2069 H 200.721 -2.98211 -0.920681 0
M  V30 2070 N 201.022 0.148545 -1.56898 0
M  V30 2071 C 202.27 0.859717 -1.82902 0
M  V30 2072 C 202.591 1.81775 -0.70588 0
M  V30 2073 O 201.861 1.93994 0.272586 0
M  V30 2074 H 200.441 0.320469 -0.674766 0
M  V30 2075 H 203.103 0.142918 -1.94375 0
M  V30 2076 H 202.199 1.4229 -2.77777 0
M  V30 2077 N 202.5 1.5196 0.417844 0
M  V30 2078 C 203.725 1.69717 1.1921 0
M  V30 2079 C 204.15 0.402148 1.83751 0
M  V30 2080 O 203.508 -0.639593 1.69643 0
M  V30 2081 C 203.556 2.82794 2.2374 0
M  V30 2082 O 202.66 2.47756 3.29683 0
M  V30 2083 H 202.001 0.565263 0.348387 0
M  V30 2084 H 204.531 1.98621 0.490985 0
M  V30 2085 H 204.541 3.07452 2.68212 0
M  V30 2086 H 203.216 3.76756 1.76146 0
M  V30 2087 H 201.793 2.33739 2.90552 0
M  V30 2088 N 203.978 -0.674533 1.42435 0
M  V30 2089 C 205.225 -1.43459 1.42919 0
M  V30 2090 C 205.553 -1.94446 0.0457312 0
M  V30 2091 O 204.808 -1.7132 -0.94593 0
M  V30 2092 C 205.107 -2.64767 2.40069 0
M  V30 2093 C 204.773 -2.3232 3.86443 0
M  V30 2094 C 203.435 -2.23182 4.26314 0
M  V30 2095 C 205.787 -2.05977 4.78773 0
M  V30 2096 C 203.115 -1.85827 5.56494 0
M  V30 2097 C 205.467 -1.70125 6.09295 0
M  V30 2098 C 204.131 -1.59498 6.48164 0
M  V30 2099 H 203.401 -0.524952 0.522978 0
M  V30 2100 H 206.048 -0.769097 1.75377 0
M  V30 2101 H 204.353 -3.36349 2.00939 0
M  V30 2102 H 206.05 -3.22949 2.37707 0
M  V30 2103 H 202.64 -2.40334 3.54877 0
M  V30 2104 H 206.824 -2.11969 4.48757 0
M  V30 2105 H 202.08 -1.76168 5.8547 0
M  V30 2106 H 206.254 -1.48767 6.80324 0
M  V30 2107 H 203.881 -1.30322 7.48946 0
M  V30 2108 N 205.456 -1.28612 -0.910864 0
M  V30 2109 C 206.704 -1.15705 -1.65701 0
M  V30 2110 C 207.025 0.29416 -1.92769 0
M  V30 2111 O 206.295 1.20331 -1.54588 0
M  V30 2112 H 204.875 -0.425216 -0.614167 0
M  V30 2113 H 207.537 -1.61381 -1.0928 0
M  V30 2114 H 206.633 -1.6988 -2.61815 0
M  V30 2115 N 206.934 1.1197 -1.10907 0
M  V30 2116 C 208.164 1.8713 -0.875553 0
M  V30 2117 C 208.572 1.8016 0.577843 0
M  V30 2118 O 207.915 1.17699 1.41042 0
M  V30 2119 C 207.977 3.37005 -1.2517 0
M  V30 2120 C 207.641 3.67748 -2.71313 0
M  V30 2121 C 208.638 3.65698 -3.69542 0
M  V30 2122 C 206.323 3.96928 -3.07821 0
M  V30 2123 C 208.317 3.92395 -5.023 0
M  V30 2124 C 206.004 4.23284 -4.40765 0
M  V30 2125 C 207.002 4.21005 -5.37814 0
M  V30 2126 O 206.69 4.46704 -6.68364 0
M  V30 2127 H 206.422 0.598786 -0.313737 0
M  V30 2128 H 208.976 1.42568 -1.47863 0
M  V30 2129 H 207.206 3.82146 -0.591741 0
M  V30 2130 H 208.895 3.93519 -0.994877 0
M  V30 2131 H 209.661 3.43211 -3.42682 0
M  V30 2132 H 205.54 3.97841 -2.32902 0
M  V30 2133 H 209.084 3.90531 -5.78041 0
M  V30 2134 H 204.981 4.45246 -4.67361 0
M  V30 2135 H 205.749 4.64299 -6.74069 0
M  V30 2136 N 208.412 0.89855 1.29475 0
M  V30 2137 C 209.64 0.539261 1.99749 0
M  V30 2138 C 210.055 -0.875716 1.67262 0
M  V30 2139 O 209.412 -1.57786 0.917049 0
M  V30 2140 C 209.463 0.72061 3.54245 0
M  V30 2141 O 209.184 2.07989 3.8558 0
M  V30 2142 C 210.685 0.366118 4.41786 0
M  V30 2143 H 207.905 0.207047 0.638258 0
M  V30 2144 H 210.449 1.20758 1.65039 0
M  V30 2145 H 208.604 0.0994862 3.87272 0
M  V30 2146 H 209.018 2.10841 4.80257 0
M  V30 2147 H 210.492 0.543848 5.49314 0
M  V30 2148 H 210.969 -0.696763 4.33638 0
M  V30 2149 H 211.575 0.964135 4.14228 0
M  V30 2150 N 209.89 -1.43072 0.660911 0
M  V30 2151 C 211.306 -1.56169 0.329173 0
M  V30 2152 C 211.506 -1.64317 -1.16629 0
M  V30 2153 O 210.562 -1.60245 -1.95135 0
M  V30 2154 C 211.875 -2.81873 1.04729 0
M  V30 2155 C 213.423 -2.95627 1.02828 0
M  V30 2156 C 213.898 -4.24174 1.72744 0
M  V30 2157 N 215.389 -4.31055 1.69545 0
M  V30 2158 C 216.124 -5.29304 2.20511 0
M  V30 2159 N 215.62 -6.33786 2.79799 0
M  V30 2160 N 217.413 -5.21008 2.10966 0
M  V30 2161 H 209.564 -1.36027 1.63127 0
M  V30 2162 H 211.827 -0.653823 0.686454 0
M  V30 2163 H 211.533 -2.81942 2.10242 0
M  V30 2164 H 211.407 -3.72338 0.603702 0
M  V30 2165 H 213.794 -2.95094 -0.0184742 0
M  V30 2166 H 213.875 -2.06431 1.51063 0
M  V30 2167 H 213.519 -4.25467 2.7738 0
M  V30 2168 H 213.449 -5.1228 1.2197 0
M  V30 2169 H 215.94 -3.56174 1.26288 0
M  V30 2170 H 216.253 -7.05086 3.16344 0
M  V30 2171 H 214.598 -6.34387 2.83863 0
M  V30 2172 H 217.789 -4.38301 1.64347 0
M  V30 2173 H 217.962 -5.97416 2.50993 0
M  V30 2174 N 211.368 -0.403325 -1.52352 0
M  V30 2175 C 212.784 -0.0539281 -1.59509 0
M  V30 2176 C 212.984 1.43307 -1.41652 0
M  V30 2177 O 212.04 2.19924 -1.24056 0
M  V30 2178 C 213.353 -0.543654 -2.95745 0
M  V30 2179 C 214.901 -0.501125 -3.08962 0
M  V30 2180 C 215.376 -0.967267 -4.47669 0
M  V30 2181 N 216.867 -0.923849 -4.53893 0
M  V30 2182 C 217.602 -1.25578 -5.5948 0
M  V30 2183 N 217.098 -1.65889 -6.72646 0
M  V30 2184 N 218.891 -1.17613 -5.49658 0
M  V30 2185 H 211.042 -1.37123 -1.62206 0
M  V30 2186 H 213.305 -0.56294 -0.76276 0
M  V30 2187 H 213.011 -1.58275 -3.14073 0
M  V30 2188 H 212.885 0.0498042 -3.77167 0
M  V30 2189 H 215.272 0.528909 -2.90321 0
M  V30 2190 H 215.353 -1.13056 -2.2946 0
M  V30 2191 H 214.997 -1.9956 -4.67053 0
M  V30 2192 H 214.927 -0.314698 -5.25659 0
M  V30 2193 H 217.418 -0.627403 -3.72655 0
M  V30 2194 H 217.731 -1.89543 -7.49195 0
M  V30 2195 H 216.076 -1.69787 -6.73942 0
M  V30 2196 H 219.267 -0.860115 -4.6013 0
M  V30 2197 H 219.44 -1.43812 -6.3184 0
M  V30 2198 N 212.846 1.57033 -0.133567 0
M  V30 2199 C 213.756 2.19632 0.824564 0
M  V30 2200 C 214.772 1.17666 1.28182 0
M  V30 2201 O 215.948 1.50193 1.3418 0
M  V30 2202 C 213.013 2.79499 2.05137 0
M  V30 2203 C 212.074 3.96548 1.64464 0
M  V30 2204 C 211.307 4.5355 2.81297 0
M  V30 2205 O 211.53 4.09438 3.97136 0
M  V30 2206 O 210.464 5.44018 2.57542 0
M  V30 2207 H 214.29 3.01991 0.321766 0
M  V30 2208 H 211.875 1.49112 0.0927889 0
M  V30 2209 H 213.757 3.17602 2.7696 0
M  V30 2210 H 212.432 2.00162 2.54395 0
M  V30 2211 H 211.339 3.63186 0.897048 0
M  V30 2212 H 212.672 4.77364 1.19934 0
M  V30 2213 N 214.325 -0.140222 1.56975 0
M  V30 2214 C 215.736 -0.699596 1.73097 0
M  V30 2215 C 216.087 -1.8134 0.749022 0
M  V30 2216 O 215.212 -2.16241 -0.0828503 0
M  V30 2217 C 215.807 -1.27582 3.1386 0
M  V30 2218 C 214.366 -1.78169 3.31561 0
M  V30 2219 C 213.513 -0.672855 2.69013 0
M  V30 2220 H 216.464 0.0855115 1.58469 0
M  V30 2221 H 216.485 -2.14561 3.14235 0
M  V30 2222 H 215.997 -0.464955 3.85305 0
M  V30 2223 H 214.098 -2.61801 2.65124 0
M  V30 2224 H 214.211 -1.90574 4.39566 0
M  V30 2225 H 212.575 -1.10118 2.29665 0
M  V30 2226 H 213.358 0.126679 3.43066 0
M  V30 2227 N 215.803 -1.52179 -0.40978 0
M  V30 2228 C 216.733 -1.78435 -1.5061 0
M  V30 2229 C 217.714 -0.635295 -1.57791 0
M  V30 2230 O 218.899 -0.880823 -1.73076 0
M  V30 2231 C 216.029 -1.93444 -2.88439 0
M  V30 2232 C 214.983 -3.09038 -2.96108 0
M  V30 2233 C 214.309 -3.09268 -4.36185 0
M  V30 2234 C 215.609 -4.48508 -2.67652 0
M  V30 2235 H 217.303 -2.70237 -1.28889 0
M  V30 2236 H 214.849 -1.30036 -0.618605 0
M  V30 2237 H 216.802 -2.10394 -3.65119 0
M  V30 2238 H 215.526 -0.983129 -3.11452 0
M  V30 2239 H 214.185 -2.91837 -2.21872 0
M  V30 2240 H 213.833 -2.11861 -4.56206 0
M  V30 2241 H 213.533 -3.86907 -4.42241 0
M  V30 2242 H 215.057 -3.28348 -5.14801 0
M  V30 2243 H 216.471 -4.65918 -3.34056 0
M  V30 2244 H 214.868 -5.28059 -2.85085 0
M  V30 2245 H 215.938 -4.56649 -1.63095 0
M  V30 2246 N 217.281 0.66697 -1.42791 0
M  V30 2247 C 218.529 1.42417 -1.43394 0
M  V30 2248 C 218.85 1.94925 -0.0542373 0
M  V30 2249 O 218.12 1.73564 0.908415 0
M  V30 2250 H 216.7 0.528515 -0.527902 0
M  V30 2251 H 219.362 0.787562 -1.78279 0
M  V30 2252 H 218.458 2.27333 -2.13837 0
M  V30 2253 N 218.759 1.29093 0.90403 0
M  V30 2254 C 220.005 1.16986 1.65656 0
M  V30 2255 C 220.338 -0.278925 1.92186 0
M  V30 2256 O 219.613 -1.2019 1.5292 0
M  V30 2257 C 219.896 1.97908 3.0084 0
M  V30 2258 C 219.749 3.50903 2.81403 0
M  V30 2259 C 221.068 1.80208 4.01513 0
M  V30 2260 H 218.187 0.426346 0.601164 0
M  V30 2261 H 220.829 1.58518 1.04747 0
M  V30 2262 H 218.979 1.62616 3.52829 0
M  V30 2263 H 220.651 3.96153 2.36348 0
M  V30 2264 H 218.894 3.76045 2.1627 0
M  V30 2265 H 219.565 4.02791 3.77443 0
M  V30 2266 H 222.041 2.11025 3.58619 0
M  V30 2267 H 220.917 2.39184 4.94047 0
M  V30 2268 H 221.178 0.756119 4.35586 0
M  V30 2269 N 220.237 -1.11381 1.11499 0
M  V30 2270 C 221.477 -1.84763 0.874188 0
M  V30 2271 C 221.841 -1.82726 -0.589496 0
M  V30 2272 O 223.042 -2.51562 -0.947089 0
M  V30 2273 C 221.313 -3.27931 1.42112 0
M  V30 2274 S 222.872 -4.18557 1.31739 0
M  V30 2275 H 219.69 -0.637115 0.315603 0
M  V30 2276 H 222.292 -1.34097 1.42261 0
M  V30 2277 H 220.996 -3.26978 2.48019 0
M  V30 2278 H 220.527 -3.83665 0.869761 0
M  V30 2279 H 222.542 -4.95396 0.282335 0
M  V30 2280 N 221.715 -0.905404 -1.28997 0
M  V30 2281 C 222.961 -0.535039 -1.95615 0
M  V30 2282 C 223.294 0.917404 -1.71165 0
M  V30 2283 O 222.569 1.65123 -1.02785 0
M  V30 2284 C 222.852 -0.834918 -3.50287 0
M  V30 2285 C 222.705 -2.33948 -3.84172 0
M  V30 2286 C 224.024 -0.325318 -4.38896 0
M  V30 2287 H 221.143 -0.195861 -0.710498 0
M  V30 2288 H 223.785 -1.13313 -1.52513 0
M  V30 2289 H 221.935 -0.325904 -3.87131 0
M  V30 2290 H 223.607 -2.91847 -3.57243 0
M  V30 2291 H 221.85 -2.79789 -3.31513 0
M  V30 2292 H 222.521 -2.49987 -4.92149 0
M  V30 2293 H 224.997 -0.761256 -4.09077 0
M  V30 2294 H 223.873 -0.564295 -5.45992 0
M  V30 2295 H 224.134 0.774144 -4.35269 0
M  V30 2296 N 223.193 1.4272 -0.668489 0
M  V30 2297 C 224.441 2.01226 -0.187769 0
M  V30 2298 C 224.762 1.53092 1.2078 0
M  V30 2299 O 224.032 0.74993 1.80977 0
M  V30 2300 H 222.612 0.744041 -0.0664272 0
M  V30 2301 H 225.274 1.74723 -0.863583 0
M  V30 2302 H 224.37 3.11556 -0.184166 0
M  V30 2303 N 224.671 0.411399 1.52136 0
M  V30 2304 C 225.92 -0.165009 2.01024 0
M  V30 2305 C 226.233 -1.4603 1.30133 0
M  V30 2306 O 227.439 -2.1181 1.69849 0
M  V30 2307 C 225.895 -0.344618 3.58246 0
M  V30 2308 C 225.503 0.938716 4.38055 0
M  V30 2309 C 227.247 -0.876195 4.15359 0
M  V30 2310 C 225.154 0.726172 5.86925 0
M  V30 2311 H 224.084 -0.0654407 0.751155 0
M  V30 2312 H 226.735 0.537192 1.75461 0
M  V30 2313 H 225.117 -1.10921 3.80148 0
M  V30 2314 H 226.291 1.70963 4.27912 0
M  V30 2315 H 224.606 1.39688 3.92271 0
M  V30 2316 H 227.203 -1.05128 5.24263 0
M  V30 2317 H 227.546 -1.85152 3.7286 0
M  V30 2318 H 228.079 -0.170607 3.97434 0
M  V30 2319 H 224.818 1.67312 6.33788 0
M  V30 2320 H 224.338 -0.00540283 5.998 0
M  V30 2321 H 226.017 0.369231 6.45946 0
M  V30 2322 N 226.149 -1.5696 0.141893 0
M  V30 2323 C 227.397 -1.95573 -0.509484 0
M  V30 2324 C 227.718 -1.02746 -1.65736 0
M  V30 2325 O 226.988 -0.0880311 -1.95702 0
M  V30 2326 H 225.568 -0.722115 -0.191205 0
M  V30 2327 H 228.23 -1.93697 0.216196 0
M  V30 2328 H 227.326 -2.99171 -0.889 0
M  V30 2329 N 227.627 0.131896 -1.57047 0
M  V30 2330 C 228.59 1.14638 -1.98471 0
M  V30 2331 C 229.59 1.35029 -0.873148 0
M  V30 2332 O 230.78 1.31764 -1.13946 0
M  V30 2333 C 227.912 2.50358 -2.31373 0
M  V30 2334 H 229.105 0.79064 -2.8929 0
M  V30 2335 H 226.658 0.375761 -1.51716 0
M  V30 2336 H 227.393 2.90876 -1.43393 0
M  V30 2337 H 227.178 2.36915 -3.12432 0
M  V30 2338 H 228.668 3.23395 -2.64207 0
M  V30 2339 N 229.106 1.52395 0.401703 0
M  V30 2340 C 230.352 1.68019 1.14635 0
M  V30 2341 C 230.707 0.408722 1.88009 0
M  V30 2342 O 230 -0.597133 1.82057 0
M  V30 2343 C 230.194 2.84578 2.16217 0
M  V30 2344 C 230.023 4.22938 1.5282 0
M  V30 2345 C 228.793 4.88352 1.29772 0
M  V30 2346 C 230.991 5.04778 0.985094 0
M  V30 2347 N 228.973 6.10726 0.623455 0
M  V30 2348 C 230.344 6.1845 0.438172 0
M  V30 2349 C 232.399 4.90057 0.880275 0
M  V30 2350 C 231.102 7.19013 -0.203306 0
M  V30 2351 C 233.128 5.9086 0.252639 0
M  V30 2352 C 232.49 7.03829 -0.283573 0
M  V30 2353 H 228.589 0.668413 0.405892 0
M  V30 2354 H 231.173 1.89717 0.437674 0
M  V30 2355 H 229.344 2.64483 2.84435 0
M  V30 2356 H 231.076 2.89202 2.83098 0
M  V30 2357 H 227.831 4.46846 1.56926 0
M  V30 2358 H 228.255 6.76323 0.302733 0
M  V30 2359 H 232.897 4.02938 1.28065 0
M  V30 2360 H 230.615 8.05751 -0.615726 0
M  V30 2361 H 234.201 5.81543 0.172954 0
M  V30 2362 H 233.081 7.80493 -0.761575 0
M  V30 2363 N 230.584 -0.659388 1.43143 0
M  V30 2364 C 231.532 -1.79374 1.4808 0
M  V30 2365 C 232.526 -1.65639 0.354988 0
M  V30 2366 O 233.732 -1.7206 0.528704 0
M  V30 2367 H 230.107 -0.591705 0.4641 0
M  V30 2368 H 232.078 -1.72329 2.43609 0
M  V30 2369 C 230.827 -3.17606 1.41499 0
M  V30 2370 H 230.15 -3.28809 2.27431 0
M  V30 2371 H 231.59 -3.96951 1.49015 0
M  V30 2372 C 230.049 -3.36642 0.131765 0
M  V30 2373 O 230.579 -3.93461 -0.809386 0
M  V30 2374 N 228.785 -2.90567 0.0439396 0
M  V30 2375 H 228.332 -2.44513 0.810619 0
M  V30 2376 H 228.29 -3.03681 -0.813969 0
M  V30 2377 N 232.062 -1.29571 -0.897171 0
M  V30 2378 C 233.292 -1.20408 -1.67886 0
M  V30 2379 C 233.7 0.237429 -1.87704 0
M  V30 2380 O 233.043 1.17048 -1.41582 0
M  V30 2381 C 233.105 -1.84887 -3.08314 0
M  V30 2382 C 232.769 -3.34189 -3.11716 0
M  V30 2383 C 233.766 -4.30374 -2.91675 0
M  V30 2384 C 231.451 -3.75431 -3.33701 0
M  V30 2385 C 233.445 -5.65776 -2.93557 0
M  V30 2386 C 231.132 -5.10955 -3.35214 0
M  V30 2387 C 232.13 -6.05938 -3.15164 0
M  V30 2388 O 231.818 -7.38987 -3.1647 0
M  V30 2389 H 231.55 -0.418289 -0.531046 0
M  V30 2390 H 234.104 -1.71514 -1.13014 0
M  V30 2391 H 232.334 -1.28295 -3.64798 0
M  V30 2392 H 234.023 -1.70011 -3.6858 0
M  V30 2393 H 234.789 -3.99844 -2.74499 0
M  V30 2394 H 230.668 -3.01953 -3.48347 0
M  V30 2395 H 234.212 -6.39889 -2.77826 0
M  V30 2396 H 230.109 -5.4113 -3.51922 0
M  V30 2397 H 230.877 -7.47823 -3.3272 0
M  V30 2398 N 233.54 1.10788 -1.12088 0
M  V30 2399 C 234.951 1.64181 -0.88891 0
M  V30 2400 C 235.302 1.87508 0.577498 0
M  V30 2401 O 234.427 1.61434 1.44112 0
M  V30 2402 C 235.022 2.98257 -1.60712 0
M  V30 2403 C 233.581 3.4853 -1.42139 0
M  V30 2404 C 232.728 2.23208 -1.6454 0
M  V30 2405 H 235.679 0.943368 -1.27618 0
M  V30 2406 H 235.7 3.65552 -1.05604 0
M  V30 2407 H 235.212 2.81246 -2.67436 0
M  V30 2408 H 233.313 3.70692 -0.376552 0
M  V30 2409 H 233.426 4.26882 -2.17505 0
M  V30 2410 H 231.79 2.31169 -1.06925 0
M  V30 2411 H 232.573 2.08733 -2.72554 0
M  V30 2412 N 235.018 0.912232 1.28515 0
M  V30 2413 C 236.265 0.544599 1.95039 0
M  V30 2414 C 236.593 -0.911435 1.71823 0
M  V30 2415 O 235.848 -1.66317 1.03137 0
M  V30 2416 C 236.147 0.798392 3.48368 0
M  V30 2417 C 235.813 2.23374 3.91682 0
M  V30 2418 C 234.475 2.62617 4.03219 0
M  V30 2419 C 236.827 3.16786 4.13879 0
M  V30 2420 C 234.155 3.94429 4.3433 0
M  V30 2421 C 236.507 4.48161 4.46469 0
M  V30 2422 C 235.171 4.8726 4.56217 0
M  V30 2423 H 234.441 0.199283 0.7137 0
M  V30 2424 H 237.088 1.15327 1.52879 0
M  V30 2425 H 235.393 0.106908 3.91654 0
M  V30 2426 H 237.09 0.493141 3.97956 0
M  V30 2427 H 233.68 1.91922 3.83228 0
M  V30 2428 H 237.864 2.87677 4.0442 0
M  V30 2429 H 233.12 4.24426 4.40082 0
M  V30 2430 H 237.294 5.20559 4.62592 0
M  V30 2431 H 234.921 5.89431 4.80078 0
M  V30 2432 N 236.496 -1.42363 0.676048 0
M  V30 2433 C 237.428 -2.29164 -0.0404605 0
M  V30 2434 C 238.441 -1.43747 -0.764245 0
M  V30 2435 O 239.63 -1.67453 -0.618195 0
M  V30 2436 C 236.73 -3.21196 -1.08103 0
M  V30 2437 C 235.903 -4.35273 -0.430812 0
M  V30 2438 C 234.962 -5.08017 -1.37133 0
M  V30 2439 O 233.988 -5.62494 -0.87116 0
M  V30 2440 N 235.19 -5.13647 -2.70456 0
M  V30 2441 H 237.955 -2.91298 0.704667 0
M  V30 2442 H 235.516 -1.53303 0.520559 0
M  V30 2443 H 237.508 -3.66728 -1.71152 0
M  V30 2444 H 236.078 -2.60505 -1.72788 0
M  V30 2445 H 235.298 -3.92372 0.379209 0
M  V30 2446 H 236.586 -5.08795 0.0221132 0
M  V30 2447 H 235.984 -4.708 -3.1363 0
M  V30 2448 H 234.541 -5.62821 -3.28749 0
M  V30 2449 N 237.974 -0.419461 -1.51915 0
M  V30 2450 C 239.223 0.154346 -2.01109 0
M  V30 2451 C 239.536 1.45338 -1.30905 0
M  V30 2452 O 240.742 2.10906 -1.7097 0
M  V30 2453 C 239.198 0.325615 -3.58424 0
M  V30 2454 C 238.806 -0.961934 -4.37551 0
M  V30 2455 C 240.55 0.854155 -4.15818 0
M  V30 2456 C 238.457 -0.757287 -5.86531 0
M  V30 2457 H 237.387 0.0614563 -0.751491 0
M  V30 2458 H 240.038 -0.54649 -1.75173 0
M  V30 2459 H 238.42 1.08903 -3.80731 0
M  V30 2460 H 239.594 -1.7323 -4.26999 0
M  V30 2461 H 237.909 -1.41766 -3.91524 0
M  V30 2462 H 240.506 1.02346 -5.24814 0
M  V30 2463 H 240.849 1.83172 -3.73837 0
M  V30 2464 H 241.382 0.149528 -3.97519 0
M  V30 2465 H 238.121 -1.70671 -6.32892 0
M  V30 2466 H 237.641 -0.0264061 -5.99794 0
M  V30 2467 H 239.32 -0.403482 -6.45741 0
M  V30 2468 N 239.452 1.56882 -0.150215 0
M  V30 2469 C 240.415 2.1573 0.774157 0
M  V30 2470 C 241.415 1.0999 1.17298 0
M  V30 2471 O 242.605 1.35613 1.09338 0
M  V30 2472 C 239.737 2.72302 2.05096 0
M  V30 2473 H 240.93 2.98752 0.262201 0
M  V30 2474 H 238.483 1.55985 0.099248 0
M  V30 2475 H 239.218 1.92956 2.6065 0
M  V30 2476 H 239.003 3.49665 1.77416 0
M  V30 2477 H 240.493 3.17632 2.71109 0
M  V30 2478 N 240.93 -0.123565 1.57115 0
M  V30 2479 C 242.155 -0.850398 1.89164 0
M  V30 2480 C 242.58 -1.7286 0.741688 0
M  V30 2481 O 241.938 -1.78665 -0.307958 0
M  V30 2482 C 241.986 -1.66353 3.19936 0
M  V30 2483 O 241.09 -2.77004 3.0552 0
M  V30 2484 H 240.431 -0.235454 0.620852 0
M  V30 2485 H 242.961 -0.107335 2.04318 0
M  V30 2486 H 242.971 -2.05372 3.52543 0
M  V30 2487 H 241.646 -1.01881 4.03228 0
M  V30 2488 H 240.223 -2.41221 2.84371 0
M  V30 2489 N 242.408 -1.52605 -0.393616 0
M  V30 2490 C 243.654 -1.68624 -1.13743 0
M  V30 2491 C 244.009 -0.418687 -1.87789 0
M  V30 2492 O 243.302 0.58747 -1.82371 0
M  V30 2493 C 243.496 -2.85721 -2.14705 0
M  V30 2494 C 243.325 -4.23742 -1.50575 0
M  V30 2495 C 242.095 -4.89033 -1.2718 0
M  V30 2496 C 244.293 -5.05293 -0.958311 0
M  V30 2497 N 242.275 -6.11048 -0.591058 0
M  V30 2498 C 243.646 -6.18673 -0.405367 0
M  V30 2499 C 245.701 -4.90517 -0.854274 0
M  V30 2500 C 244.404 -7.18895 0.241434 0
M  V30 2501 C 246.43 -5.90986 -0.221301 0
M  V30 2502 C 245.792 -7.03669 0.320894 0
M  V30 2503 H 241.891 -0.670556 -0.402342 0
M  V30 2504 H 244.475 -1.89946 -0.427607 0
M  V30 2505 H 242.646 -2.65987 -2.83029 0
M  V30 2506 H 244.378 -2.90699 -2.8156 0
M  V30 2507 H 241.133 -4.47672 -1.54554 0
M  V30 2508 H 241.557 -6.76474 -0.266862 0
M  V30 2509 H 246.199 -4.03612 -1.25926 0
M  V30 2510 H 243.917 -8.05413 0.658448 0
M  V30 2511 H 247.503 -5.81626 -0.142111 0
M  V30 2512 H 246.383 -7.80078 0.802956 0
M  V30 2513 N 243.887 0.651787 -1.4349 0
M  V30 2514 C 244.834 1.76462 -1.4876 0
M  V30 2515 C 245.804 1.62641 -0.337189 0
M  V30 2516 O 246.989 1.82864 -0.544544 0
M  V30 2517 C 244.129 3.14623 -1.41796 0
M  V30 2518 C 243.242 3.39568 -2.67053 0
M  V30 2519 C 242.377 4.67585 -2.52068 0
M  V30 2520 C 241.416 4.85639 -3.72587 0
M  V30 2521 N 240.553 6.04915 -3.56402 0
M  V30 2522 H 245.393 1.71293 -2.43849 0
M  V30 2523 H 242.93 0.835889 -1.21043 0
M  V30 2524 H 244.888 3.94496 -1.35753 0
M  V30 2525 H 243.518 3.18859 -0.50288 0
M  V30 2526 H 242.57 2.53783 -2.8337 0
M  V30 2527 H 243.882 3.48795 -3.56572 0
M  V30 2528 H 243.036 5.55586 -2.4374 0
M  V30 2529 H 241.775 4.60681 -1.60075 0
M  V30 2530 H 240.78 3.96073 -3.81321 0
M  V30 2531 H 242.005 4.94372 -4.65589 0
M  V30 2532 H 239.951 5.9914 -2.67146 0
M  V30 2533 H 239.868 6.15106 -4.39524 0
M  V30 2534 H 241.136 6.95533 -3.51929 0
M  V30 2535 N 245.365 1.30045 0.890287 0
M  V30 2536 C 246.59 1.21598 1.68014 0
M  V30 2537 C 247.015 -0.218678 1.86825 0
M  V30 2538 O 246.373 -1.15756 1.39536 0
M  V30 2539 C 246.421 1.94434 3.03691 0
M  V30 2540 O 245.525 1.2678 3.92429 0
M  V30 2541 H 244.866 0.420856 0.513592 0
M  V30 2542 H 247.396 1.71775 1.11151 0
M  V30 2543 H 247.406 2.03251 3.5377 0
M  V30 2544 H 246.081 2.98777 2.89318 0
M  V30 2545 H 244.658 1.26282 3.50866 0
M  V30 2546 N 246.843 -1.10192 1.12674 0
M  V30 2547 C 247.806 -2.14786 0.799979 0
M  V30 2548 C 248.806 -1.59711 -0.18685 0
M  V30 2549 O 249.996 -1.74156 0.0392558 0
M  V30 2550 C 247.128 -3.40374 0.189228 0
M  V30 2551 H 248.321 -2.45203 1.72671 0
M  V30 2552 H 245.874 -1.25597 0.930326 0
M  V30 2553 H 246.609 -3.15577 -0.747107 0
M  V30 2554 H 246.394 -3.81637 0.899766 0
M  V30 2555 H 247.884 -4.17594 -0.0228143 0
M  V30 2556 N 248.321 -0.919034 -1.28029 0
M  V30 2557 C 249.732 -0.600735 -1.76771 0
M  V30 2558 C 250.083 0.884024 -1.75156 0
M  V30 2559 O 249.208 1.69163 -1.34956 0
M  V30 2560 C 249.803 -1.08372 -3.21 0
M  V30 2561 C 248.362 -0.816248 -3.67443 0
M  V30 2562 C 247.509 -1.24742 -2.47658 0
M  V30 2563 H 250.46 -1.09974 -1.14418 0
M  V30 2564 H 250.481 -0.427512 -3.78091 0
M  V30 2565 H 249.993 -2.16437 -3.22144 0
M  V30 2566 H 248.094 0.250968 -3.71754 0
M  V30 2567 H 248.207 -1.4277 -4.57333 0
M  V30 2568 H 246.571 -0.666083 -2.45836 0
M  V30 2569 H 247.354 -2.33653 -2.51518 0
M  V30 2570 N 249.799 1.42003 -0.683588 0
M  V30 2571 C 250.762 2.29191 -0.0198243 0
M  V30 2572 C 251.762 1.43773 0.72013 0
M  V30 2573 O 252.952 1.65061 0.556815 0
M  V30 2574 C 250.084 3.26435 0.982487 0
M  V30 2575 H 251.277 2.8938 -0.787345 0
M  V30 2576 H 248.83 1.49789 -0.446418 0
M  V30 2577 H 249.565 2.71203 1.77819 0
M  V30 2578 H 249.35 3.89449 0.455182 0
M  V30 2579 H 250.84 3.918 1.44508 0
M  V30 2580 N 251.277 0.427512 1.51691 0
M  V30 2581 C 252.207 -0.3796 2.30394 0
M  V30 2582 C 253.188 -1.02982 1.35384 0
M  V30 2583 O 254.373 -1.03534 1.643 0
M  V30 2584 C 251.503 -1.48649 3.1388 0
M  V30 2585 C 250.457 -0.960294 4.17088 0
M  V30 2586 C 249.783 -2.16219 4.89033 0
M  V30 2587 C 251.083 -0.00153679 5.223 0
M  V30 2588 H 252.777 0.277164 2.98114 0
M  V30 2589 H 250.323 0.134739 1.43368 0
M  V30 2590 H 252.276 -2.05826 3.67714 0
M  V30 2591 H 251 -2.1714 2.43962 0
M  V30 2592 H 249.659 -0.410806 3.64291 0
M  V30 2593 H 249.307 -2.83307 4.15628 0
M  V30 2594 H 249.007 -1.81654 5.58816 0
M  V30 2595 H 250.531 -2.73968 5.45687 0
M  V30 2596 H 251.945 -0.482687 5.71264 0
M  V30 2597 H 250.342 0.256199 5.99553 0
M  V30 2598 H 251.412 0.938174 4.75738 0
M  V30 2599 N 252.755 -1.56801 0.158532 0
M  V30 2600 C 253.718 -2.16138 -0.762705 0
M  V30 2601 C 254.718 -1.1061 -1.16713 0
M  V30 2602 O 255.908 -1.36191 -1.08617 0
M  V30 2603 C 253.04 -2.73386 -2.03649 0
M  V30 2604 H 254.233 -2.98886 -0.246354 0
M  V30 2605 H 251.786 -1.56035 -0.0909744 0
M  V30 2606 H 252.521 -1.94335 -2.59623 0
M  V30 2607 H 252.306 -3.50601 -1.75559 0
M  V30 2608 H 253.796 -3.19065 -2.6942 0
M  V30 2609 N 254.233 0.115231 -1.57178 0
M  V30 2610 C 255.473 0.828199 -1.8687 0
M  V30 2611 C 255.837 1.76873 -0.747002 0
M  V30 2612 O 257.038 2.52354 -0.925785 0
M  V30 2613 C 255.309 1.55515 -3.21792 0
M  V30 2614 S 256.868 2.30917 -3.73125 0
M  V30 2615 H 253.686 0.27634 -0.655101 0
M  V30 2616 H 256.288 0.0863469 -1.95309 0
M  V30 2617 H 254.992 0.856248 -4.01368 0
M  V30 2618 H 254.523 2.3373 -3.16439 0
M  V30 2619 H 256.538 3.56705 -3.44929 0
M  V30 2620 N 255.711 1.52812 0.385517 0
M  V30 2621 C 256.959 1.67694 1.12797 0
M  V30 2622 C 257.28 0.421115 1.90399 0
M  V30 2623 O 256.55 -0.564551 1.87589 0
M  V30 2624 H 255.13 0.618155 0.419396 0
M  V30 2625 H 257.792 1.89938 0.436972 0
M  V30 2626 H 256.888 2.52896 1.82894 0
M  V30 2627 N 257.189 -0.644168 1.43834 0
M  V30 2628 C 258.137 -1.77793 1.49974 0
M  V30 2629 C 259.131 -1.65253 0.372536 0
M  V30 2630 O 260.337 -1.7149 0.546924 0
M  V30 2631 H 256.712 -0.58675 0.47035 0
M  V30 2632 H 258.683 -1.69736 2.45423 0
M  V30 2633 C 257.432 -3.16087 1.4486 0
M  V30 2634 H 256.755 -3.26378 2.30905 0
M  V30 2635 H 258.195 -3.95349 1.53217 0
M  V30 2636 C 256.654 -3.36484 0.167463 0
M  V30 2637 O 257.184 -3.94298 -0.767609 0
M  V30 2638 N 255.39 -2.90504 0.0747556 0
M  V30 2639 H 254.937 -2.4364 0.836507 0
M  V30 2640 H 254.895 -3.04527 -0.781714 0
M  V30 2641 N 258.668 -1.30515 -0.883378 0
M  V30 2642 C 259.631 -1.1701 -1.97082 0
M  V30 2643 C 260.631 -0.10089 -1.60483 0
M  V30 2644 O 261.821 -0.349127 -1.70666 0
M  V30 2645 C 258.953 -0.793045 -3.31547 0
M  V30 2646 H 260.146 -2.13622 -2.10489 0
M  V30 2647 H 257.699 -1.13935 -1.06998 0
M  V30 2648 H 258.434 0.172499 -3.23841 0
M  V30 2649 H 258.219 -1.56576 -3.5948 0
M  V30 2650 H 259.709 -0.722073 -4.1131 0
M  V30 2651 N 260.146 1.09593 -1.13257 0
M  V30 2652 C 261.079 2.15451 -0.752061 0
M  V30 2653 C 262.057 1.60493 0.260913 0
M  V30 2654 O 263.241 1.8788 0.152819 0
M  V30 2655 C 260.368 3.38506 -0.114594 0
M  V30 2656 C 259.414 4.12183 -1.09579 0
M  V30 2657 S 260.247 4.6661 -2.62745 0
M  V30 2658 C 261.403 5.92966 -2.00354 0
M  V30 2659 H 261.636 2.47395 -1.64872 0
M  V30 2660 H 259.169 1.21515 -0.952545 0
M  V30 2661 H 261.127 4.09757 0.246808 0
M  V30 2662 H 259.788 3.04784 0.759309 0
M  V30 2663 H 258.981 5.00445 -0.597545 0
M  V30 2664 H 258.583 3.46785 -1.40057 0
M  V30 2665 H 260.875 6.63882 -1.35156 0
M  V30 2666 H 261.818 6.47467 -2.86691 0
M  V30 2667 H 262.226 5.45405 -1.4558 0
M  V30 2668 N 261.624 0.925811 1.2754 0
M  V30 2669 C 262.87 0.566092 1.94739 0
M  V30 2670 C 263.203 -0.890057 1.72603 0
M  V30 2671 O 262.478 -1.63467 1.05399 0
M  V30 2672 C 262.761 0.89054 3.48915 0
M  V30 2673 C 262.614 2.4003 3.80402 0
M  V30 2674 C 263.933 0.395101 4.38323 0
M  V30 2675 H 261.052 0.20714 0.707292 0
M  V30 2676 H 263.694 1.15725 1.50691 0
M  V30 2677 H 261.844 0.387452 3.86563 0
M  V30 2678 H 263.516 2.97494 3.52555 0
M  V30 2679 H 261.759 2.85028 3.2702 0
M  V30 2680 H 262.43 2.57785 4.8811 0
M  V30 2681 H 264.906 0.826241 4.07814 0
M  V30 2682 H 263.782 0.651086 5.45025 0
M  V30 2683 H 264.043 -0.704798 4.36446 0
M  V30 2684 N 263.102 -1.41638 0.69111 0
M  V30 2685 C 264.349 -2.01299 0.220193 0
M  V30 2686 C 264.677 -1.54715 -1.17871 0
M  V30 2687 O 263.932 -0.747193 -1.80874 0
M  V30 2688 C 264.231 -3.56714 0.221277 0
M  V30 2689 C 263.897 -4.22792 1.56709 0
M  V30 2690 C 262.559 -4.40557 1.93554 0
M  V30 2691 C 264.911 -4.59883 2.45268 0
M  V30 2692 C 262.239 -4.92688 3.18552 0
M  V30 2693 C 264.591 -5.13403 3.69595 0
M  V30 2694 C 263.255 -5.29379 4.06589 0
M  V30 2695 H 262.525 -0.736606 0.0805743 0
M  V30 2696 H 265.172 -1.69598 0.889319 0
M  V30 2697 H 263.477 -3.8818 -0.531391 0
M  V30 2698 H 265.174 -4.00678 -0.160547 0
M  V30 2699 H 261.764 -4.09336 1.2705 0
M  V30 2700 H 265.948 -4.45817 2.18084 0
M  V30 2701 H 261.204 -5.03242 3.47214 0
M  V30 2702 H 265.378 -5.41084 4.38407 0
M  V30 2703 H 263.005 -5.69537 5.03519 0
M  V30 2704 N 264.58 -0.43555 -1.51462 0
M  V30 2705 C 265.527 0.376797 -2.27703 0
M  V30 2706 C 266.497 1.01838 -1.31219 0
M  V30 2707 O 267.682 1.03762 -1.60119 0
M  V30 2708 C 264.822 1.47301 -3.12084 0
M  V30 2709 C 263.935 0.849744 -4.2356 0
M  V30 2710 C 263.07 1.92086 -4.95254 0
M  V30 2711 C 262.109 1.27593 -5.98654 0
M  V30 2712 N 261.246 2.28833 -6.63762 0
M  V30 2713 H 266.086 -0.279734 -2.96684 0
M  V30 2714 H 263.623 -0.149795 -1.46335 0
M  V30 2715 H 265.581 2.11984 -3.59331 0
M  V30 2716 H 264.211 2.0992 -2.45221 0
M  V30 2717 H 263.263 0.0912529 -3.80291 0
M  V30 2718 H 264.575 0.338878 -4.97648 0
M  V30 2719 H 263.729 2.64435 -5.46039 0
M  V30 2720 H 262.468 2.46545 -4.20793 0
M  V30 2721 H 261.473 0.537893 -5.47162 0
M  V30 2722 H 262.698 0.738693 -6.7507 0
M  V30 2723 H 260.644 2.82375 -5.92115 0
M  V30 2724 H 260.561 1.82632 -7.33608 0
M  V30 2725 H 261.829 3.00671 -7.19178 0
M  V30 2726 N 266.058 1.56714 -0.166846 0
M  V30 2727 C 267.469 1.83378 0.350646 0
M  V30 2728 C 267.82 1.08646 1.63372 0
M  V30 2729 O 266.945 0.338058 2.13743 0
M  V30 2730 C 267.54 3.32643 0.642963 0
M  V30 2731 C 266.099 3.59818 1.10491 0
M  V30 2732 C 265.246 2.76954 0.138411 0
M  V30 2733 H 268.197 1.53803 -0.391193 0
M  V30 2734 H 268.218 3.49878 1.49551 0
M  V30 2735 H 267.73 3.87007 -0.291055 0
M  V30 2736 H 265.831 3.1086 2.05418 0
M  V30 2737 H 265.944 4.68178 1.01716 0
M  V30 2738 H 264.308 2.4666 0.634911 0
M  V30 2739 H 265.091 3.34097 -0.789549 0
M  V30 2740 N 267.536 -0.106894 1.57237 0
M  V30 2741 C 268.761 -0.830287 1.90055 0
M  V30 2742 C 269.186 -1.72064 0.75998 0
M  V30 2743 O 268.544 -1.78982 -0.288991 0
M  V30 2744 C 268.592 -1.6295 3.21683 0
M  V30 2745 O 267.696 -2.73748 3.08441 0
M  V30 2746 H 267.037 -0.228855 0.623315 0
M  V30 2747 H 269.567 -0.085658 2.04421 0
M  V30 2748 H 269.577 -2.01621 3.54701 0
M  V30 2749 H 268.252 -0.975989 4.04286 0
M  V30 2750 H 266.829 -2.38192 2.86913 0
M  V30 2751 N 269.014 -1.53014 -0.377408 0
M  V30 2752 C 270.425 -1.60438 -0.954798 0
M  V30 2753 C 270.776 -0.464418 -1.90624 0
M  V30 2754 O 269.901 0.41087 -2.12464 0
M  V30 2755 C 270.496 -2.90797 -1.73847 0
M  V30 2756 C 269.055 -3.00595 -2.26538 0
M  V30 2757 C 268.202 -2.55645 -1.07429 0
M  V30 2758 H 271.153 -1.57926 -0.156575 0
M  V30 2759 H 271.174 -2.77935 -2.5987 0
M  V30 2760 H 270.686 -3.73746 -1.04574 0
M  V30 2761 H 268.787 -2.22208 -2.99089 0
M  V30 2762 H 268.9 -4.05456 -2.5523 0
M  V30 2763 H 267.264 -2.10239 -1.43777 0
M  V30 2764 H 268.047 -3.41 -0.396728 0
M  V30 2765 N 270.492 0.636531 -1.44174 0
M  V30 2766 C 271.739 1.39619 -1.46672 0
M  V30 2767 C 272.067 1.94257 -0.0972691 0
M  V30 2768 O 271.322 1.73768 0.900175 0
M  V30 2769 C 271.621 2.58309 -2.47005 0
M  V30 2770 C 271.287 2.21992 -3.92467 0
M  V30 2771 C 269.949 2.118 -4.32081 0
M  V30 2772 C 272.301 1.9321 -4.84065 0
M  V30 2773 C 269.629 1.71007 -5.61225 0
M  V30 2774 C 271.981 1.53911 -6.13591 0
M  V30 2775 C 270.645 1.42257 -6.52165 0
M  V30 2776 H 269.915 0.510902 -0.536712 0
M  V30 2777 H 272.562 0.722328 -1.77355 0
M  V30 2778 H 270.867 3.30903 -2.09786 0
M  V30 2779 H 272.564 3.16533 -2.46186 0
M  V30 2780 H 269.154 2.30841 -3.61124 0
M  V30 2781 H 273.338 1.99997 -4.54219 0
M  V30 2782 H 268.594 1.60583 -5.89935 0
M  V30 2783 H 272.768 1.30677 -6.8403 0
M  V30 2784 H 270.395 1.10419 -7.52138 0
M  V30 2785 N 271.97 1.30982 0.876444 0
M  V30 2786 C 273.198 1.23242 1.6619 0
M  V30 2787 C 273.613 -0.203345 1.87702 0
M  V30 2788 O 272.97 -1.13317 1.43057 0
M  V30 2789 C 273.021 1.96623 3.03351 0
M  V30 2790 O 272.742 3.34594 2.82804 0
M  V30 2791 C 274.243 1.95644 3.97792 0
M  V30 2792 H 271.463 0.426126 0.518322 0
M  V30 2793 H 274.007 1.7275 1.09442 0
M  V30 2794 H 272.162 1.50892 3.56806 0
M  V30 2795 H 272.576 3.71873 3.69879 0
M  V30 2796 H 274.05 2.51511 4.91372 0
M  V30 2797 H 274.527 0.937395 4.2908 0
M  V30 2798 H 275.133 2.41225 3.50272 0
M  V30 2799 N 273.449 -1.08991 1.13837 0
M  V30 2800 C 274.86 -1.62746 0.914917 0
M  V30 2801 C 275.211 -1.88403 -0.547594 0
M  V30 2802 O 274.336 -1.63706 -1.41525 0
M  V30 2803 C 274.931 -2.95662 1.65437 0
M  V30 2804 C 273.49 -3.46225 1.47666 0
M  V30 2805 C 272.637 -2.20562 1.6807 0
M  V30 2806 H 275.588 -0.922946 1.29102 0
M  V30 2807 H 275.609 -3.63825 1.11407 0
M  V30 2808 H 275.121 -2.76956 2.71877 0
M  V30 2809 H 273.222 -3.70046 0.435478 0
M  V30 2810 H 273.335 -4.23368 2.24268 0
M  V30 2811 H 271.699 -2.29439 1.10589 0
M  V30 2812 H 272.482 -2.0437 2.7584 0
M  V30 2813 N 274.927 -0.932562 -1.27047 0
M  V30 2814 C 276.173 -0.576412 -1.94436 0
M  V30 2815 C 276.506 0.880891 -1.73072 0
M  V30 2816 O 275.781 1.62905 -1.06264 0
M  V30 2817 C 276.064 -0.909031 -3.48437 0
M  V30 2818 C 275.917 -2.42044 -3.79123 0
M  V30 2819 C 277.236 -0.418341 -4.38107 0
M  V30 2820 H 274.355 -0.210888 -0.706184 0
M  V30 2821 H 276.997 -1.16522 -1.50075 0
M  V30 2822 H 275.147 -0.407947 -3.86352 0
M  V30 2823 H 276.819 -2.99359 -3.50973 0
M  V30 2824 H 275.062 -2.86758 -3.25503 0
M  V30 2825 H 275.733 -2.6037 -4.86736 0
M  V30 2826 H 278.209 -0.847856 -4.0737 0
M  V30 2827 H 277.085 -0.679981 -5.44672 0
M  V30 2828 H 277.346 0.681642 -4.36814 0
M  V30 2829 N 276.405 1.4127 -0.698611 0
M  V30 2830 C 277.63 2.06024 -0.238512 0
M  V30 2831 C 278.055 1.5224 1.10475 0
M  V30 2832 O 277.413 0.650623 1.69223 0
M  V30 2833 C 277.461 3.59988 -0.209952 0
M  V30 2834 O 276.565 4.04282 0.814235 0
M  V30 2835 H 275.906 0.653829 -0.115775 0
M  V30 2836 H 278.436 1.8098 -0.954326 0
M  V30 2837 H 278.446 4.07979 -0.0418436 0
M  V30 2838 H 277.121 3.98503 -1.1903 0
M  V30 2839 H 275.698 3.6779 0.615234 0
M  V30 2840 N 277.883 0.443576 1.51229 0
M  V30 2841 C 278.846 -0.353132 2.26463 0
M  V30 2842 C 279.846 -0.944338 1.3015 0
M  V30 2843 O 281.036 -0.817813 1.5381 0
M  V30 2844 C 278.168 -1.50023 3.06114 0
M  V30 2845 H 279.361 0.3063 2.98332 0
M  V30 2846 H 276.914 0.196902 1.55055 0
M  V30 2847 H 277.649 -2.19553 2.38677 0
M  V30 2848 H 277.434 -1.08241 3.76864 0
M  V30 2849 H 278.924 -2.06296 3.63087 0
M  V30 2850 N 279.361 -1.56624 0.175154 0
M  V30 2851 C 280.291 -2.21155 -0.749195 0
M  V30 2852 C 281.272 -1.16836 -1.23626 0
M  V30 2853 O 282.457 -1.45277 -1.28873 0
M  V30 2854 C 279.587 -2.8553 -1.97711 0
M  V30 2855 C 278.541 -3.95921 -1.62575 0
M  V30 2856 C 277.867 -4.47365 -2.92864 0
M  V30 2857 C 279.167 -5.15323 -0.850838 0
M  V30 2858 H 280.861 -2.98653 -0.211295 0
M  V30 2859 H 278.407 -1.43651 -0.100188 0
M  V30 2860 H 280.36 -3.2935 -2.62881 0
M  V30 2861 H 279.084 -2.05406 -2.53921 0
M  V30 2862 H 277.743 -3.52762 -0.997719 0
M  V30 2863 H 277.391 -3.64027 -3.47122 0
M  V30 2864 H 277.091 -5.21839 -2.70106 0
M  V30 2865 H 278.615 -4.93873 -3.59056 0
M  V30 2866 H 280.029 -5.55812 -1.40521 0
M  V30 2867 H 278.426 -5.95739 -0.722154 0
M  V30 2868 H 279.496 -4.84661 0.152082 0
M  V30 2869 N 280.839 0.0985539 -1.57292 0
M  V30 2870 C 281.769 1.12064 -2.04851 0
M  V30 2871 C 282.75 1.41981 -0.936767 0
M  V30 2872 O 283.935 1.52071 -1.20781 0
M  V30 2873 C 281.065 2.44144 -2.47004 0
M  V30 2874 C 280.019 2.28643 -3.6181 0
M  V30 2875 C 279.345 3.65869 -3.89929 0
M  V30 2876 C 280.645 1.72986 -4.92822 0
M  V30 2877 H 282.339 0.724979 -2.9049 0
M  V30 2878 H 279.885 0.34729 -1.39749 0
M  V30 2879 H 281.838 3.15914 -2.78884 0
M  V30 2880 H 280.562 2.85639 -1.5836 0
M  V30 2881 H 279.221 1.59318 -3.30172 0
M  V30 2882 H 278.869 4.04885 -2.98458 0
M  V30 2883 H 278.569 3.56344 -4.67218 0
M  V30 2884 H 280.093 4.39112 -4.2428 0
M  V30 2885 H 281.507 2.34593 -5.23105 0
M  V30 2886 H 279.904 1.74229 -5.74251 0
M  V30 2887 H 280.974 0.689007 -4.7998 0
M  V30 2888 N 282.317 1.53212 0.369288 0
M  V30 2889 C 283.247 1.82365 1.45826 0
M  V30 2890 C 284.228 0.676907 1.56051 0
M  V30 2891 O 285.413 0.926401 1.70679 0
M  V30 2892 C 282.543 2.01023 2.83208 0
M  V30 2893 C 281.497 3.1678 2.8781 0
M  V30 2894 C 280.823 3.20724 4.27832 0
M  V30 2895 C 282.123 4.55447 2.55667 0
M  V30 2896 H 283.817 2.73559 1.21678 0
M  V30 2897 H 281.363 1.3163 0.583911 0
M  V30 2898 H 283.316 2.20001 3.59413 0
M  V30 2899 H 282.04 1.06536 3.08736 0
M  V30 2900 H 280.699 2.97616 2.14056 0
M  V30 2901 H 280.347 2.23882 4.50429 0
M  V30 2902 H 280.047 3.98496 4.31827 0
M  V30 2903 H 281.571 3.41881 5.05915 0
M  V30 2904 H 282.985 4.74611 3.21586 0
M  V30 2905 H 281.382 5.35432 2.70984 0
M  V30 2906 H 282.452 4.60812 1.5093 0
M  V30 2907 N 283.795 -0.628877 1.44509 0
M  V30 2908 C 284.758 -1.72263 1.51188 0
M  V30 2909 C 285.758 -1.55907 0.39367 0
M  V30 2910 O 286.948 -1.61361 0.656377 0
M  V30 2911 C 284.08 -3.11365 1.38798 0
M  V30 2912 H 285.273 -1.67714 2.4862 0
M  V30 2913 H 282.826 -0.842737 1.31634 0
M  V30 2914 H 283.561 -3.21507 0.424693 0
M  V30 2915 H 283.346 -3.24644 2.19884 0
M  V30 2916 H 284.836 -3.91075 1.46458 0
M  V30 2917 N 285.273 -1.31445 -0.869486 0
M  V30 2918 C 286.183 -1.21097 -2.0093 0
M  V30 2919 C 287.199 -0.127584 -1.73532 0
M  V30 2920 O 288.375 -0.345477 -1.98415 0
M  V30 2921 C 285.44 -0.919378 -3.34288 0
M  V30 2922 C 284.501 -2.08971 -3.75006 0
M  V30 2923 C 283.734 -1.81194 -5.02001 0
M  V30 2924 O 283.957 -0.747296 -5.65484 0
M  V30 2925 O 282.891 -2.66883 -5.39497 0
M  V30 2926 H 286.717 -2.16883 -2.12592 0
M  V30 2927 H 284.302 -1.11189 -0.997868 0
M  V30 2928 H 286.184 -0.772625 -4.14257 0
M  V30 2929 H 284.859 0.00844772 -3.23699 0
M  V30 2930 H 283.766 -2.29187 -2.95676 0
M  V30 2931 H 285.099 -2.9998 -3.90221 0
M  V30 2932 N 286.751 1.08385 -1.14413 0
M  V30 2933 C 288 1.80153 -0.907076 0
M  V30 2934 C 288.313 1.87176 0.567851 0
M  V30 2935 O 289.519 2.55359 0.922172 0
M  V30 2936 C 287.975 3.23687 -1.57336 0
M  V30 2937 C 287.583 3.24897 -3.08457 0
M  V30 2938 C 289.327 4.00136 -1.41744 0
M  V30 2939 C 287.234 4.6302 -3.67921 0
M  V30 2940 H 286.164 0.675139 -0.335714 0
M  V30 2941 H 288.815 1.21733 -1.37307 0
M  V30 2942 H 287.197 3.82234 -1.03505 0
M  V30 2943 H 288.371 2.76055 -3.68958 0
M  V30 2944 H 286.686 2.61943 -3.2369 0
M  V30 2945 H 289.283 5.02201 -1.83572 0
M  V30 2946 H 289.626 4.14709 -0.363576 0
M  V30 2947 H 290.159 3.48058 -1.92614 0
M  V30 2948 H 286.898 4.5365 -4.73161 0
M  V30 2949 H 286.418 5.12143 -3.12201 0
M  V30 2950 H 288.097 5.31994 -3.68227 0
M  V30 2951 N 288.23 0.939286 1.26551 0
M  V30 2952 C 289.46 0.601663 1.97645 0
M  V30 2953 C 289.868 -0.827206 1.70159 0
M  V30 2954 O 289.211 -1.56291 0.965338 0
M  V30 2955 C 289.273 0.761725 3.51337 0
M  V30 2956 C 288.937 2.16487 4.0247 0
M  V30 2957 C 289.934 3.14016 4.14355 0
M  V30 2958 C 287.619 2.48494 4.36527 0
M  V30 2959 C 289.613 4.41654 4.59587 0
M  V30 2960 C 287.3 3.76364 4.81449 0
M  V30 2961 C 288.298 4.72758 4.92939 0
M  V30 2962 O 287.986 5.98352 5.36871 0
M  V30 2963 H 287.718 0.225758 0.637189 0
M  V30 2964 H 290.272 1.26178 1.62075 0
M  V30 2965 H 288.502 0.0444808 3.86674 0
M  V30 2966 H 290.191 0.427442 4.03643 0
M  V30 2967 H 290.957 2.90613 3.8829 0
M  V30 2968 H 286.836 1.74202 4.26819 0
M  V30 2969 H 290.38 5.16896 4.68471 0
M  V30 2970 H 286.277 3.99582 5.06956 0
M  V30 2971 H 287.045 6.01507 5.55096 0
M  V30 2972 N 289.708 -1.40897 0.706093 0
M  V30 2973 C 290.933 -2.05895 0.249435 0
M  V30 2974 C 291.358 -1.52823 -1.09666 0
M  V30 2975 O 290.716 -0.659589 -1.68876 0
M  V30 2976 C 290.764 -3.59872 0.22904 0
M  V30 2977 O 289.868 -4.04708 -0.792784 0
M  V30 2978 H 289.209 -0.653206 0.119241 0
M  V30 2979 H 291.739 -1.80471 0.96391 0
M  V30 2980 H 291.749 -4.07951 0.0634791 0
M  V30 2981 H 290.424 -3.97866 1.21141 0
M  V30 2982 H 289.001 -3.68111 -0.59572 0
M  V30 2983 N 291.186 -0.45159 -1.50991 0
M  V30 2984 C 292.096 0.358431 -2.31846 0
M  V30 2985 C 293.112 1.01438 -1.41373 0
M  V30 2986 O 294.288 1.00663 -1.74439 0
M  V30 2987 C 291.353 1.43704 -3.15515 0
M  V30 2988 C 290.414 0.799742 -4.21785 0
M  V30 2989 C 289.647 1.82696 -5.01456 0
M  V30 2990 O 289.87 3.05105 -4.81941 0
M  V30 2991 O 288.804 1.40958 -5.85162 0
M  V30 2992 H 292.63 -0.302032 -3.02194 0
M  V30 2993 H 290.215 -0.213825 -1.47862 0
M  V30 2994 H 292.097 2.06227 -3.67489 0
M  V30 2995 H 290.772 2.08133 -2.47916 0
M  V30 2996 H 289.679 0.136084 -3.73852 0
M  V30 2997 H 291.012 0.198718 -4.91799 0
M  V30 2998 N 292.664 1.56529 -0.183458 0
M  V30 2999 C 293.627 2.17324 0.728223 0
M  V30 3000 C 294.627 1.12453 1.14939 0
M  V30 3001 O 295.817 1.37902 1.06437 0
M  V30 3002 C 292.949 2.76591 1.99274 0
M  V30 3003 H 294.142 2.99241 0.198772 0
M  V30 3004 H 291.695 1.5616 0.0661391 0
M  V30 3005 H 292.43 1.98441 2.56499 0
M  V30 3006 H 292.215 3.5335 1.69959 0
M  V30 3007 H 293.705 3.23311 2.6431 0
M  V30 3008 N 294.142 -0.090211 1.57342 0
M  V30 3009 C 295.39 -0.791241 1.85967 0
M  V30 3010 C 295.711 -1.7903 0.772859 0
M  V30 3011 O 294.981 -1.94872 -0.200398 0
M  V30 3012 H 293.561 -0.295205 0.686195 0
M  V30 3013 H 296.223 -0.0706782 1.94772 0
M  V30 3014 H 295.319 -1.31882 2.82867 0
M  V30 3015 N 295.62 -1.53406 -0.361157 0
M  V30 3016 C 296.866 -1.70054 -1.10496 0
M  V30 3017 C 297.199 -0.453278 -1.88836 0
M  V30 3018 O 296.474 0.5495 -1.86576 0
M  V30 3019 C 296.757 -2.95317 -2.06058 0
M  V30 3020 C 296.61 -4.3021 -1.31298 0
M  V30 3021 C 297.929 -3.16193 -3.06121 0
M  V30 3022 H 295.048 -0.618799 -0.400321 0
M  V30 3023 H 297.69 -1.86052 -0.385318 0
M  V30 3024 H 295.84 -2.81809 -2.67425 0
M  V30 3025 H 297.512 -4.55538 -0.726807 0
M  V30 3026 H 295.755 -4.29421 -0.614853 0
M  V30 3027 H 296.426 -5.14 -2.01265 0
M  V30 3028 H 298.902 -3.28916 -2.5486 0
M  V30 3029 H 297.778 -4.05266 -3.70204 0
M  V30 3030 H 298.039 -2.31676 -3.76535 0
M  V30 3031 N 297.098 0.621204 -1.44841 0
M  V30 3032 C 298.509 1.20298 -1.42777 0
M  V30 3033 C 298.86 1.95639 -0.148259 0
M  V30 3034 O 297.985 2.02955 0.750892 0
M  V30 3035 C 298.58 2.1882 -2.58657 0
M  V30 3036 C 297.139 2.72403 -2.59756 0
M  V30 3037 C 296.286 1.4757 -2.34773 0
M  V30 3038 H 299.237 0.411297 -1.53278 0
M  V30 3039 H 299.258 3.01607 -2.31977 0
M  V30 3040 H 298.77 1.63957 -3.51766 0
M  V30 3041 H 296.871 3.31242 -1.70615 0
M  V30 3042 H 296.984 3.17765 -3.58556 0
M  V30 3043 H 295.348 1.76051 -1.8406 0
M  V30 3044 H 296.131 0.945954 -3.3001 0
M  V30 3045 N 298.576 1.31904 0.862503 0
M  V30 3046 C 299.987 1.19803 1.43193 0
M  V30 3047 C 300.338 -0.192567 1.95253 0
M  V30 3048 O 299.463 -1.09081 1.86896 0
M  V30 3049 C 300.058 2.16883 2.60283 0
M  V30 3050 C 298.617 2.08692 3.13248 0
M  V30 3051 C 297.764 2.05691 1.85975 0
M  V30 3052 H 300.715 1.43846 0.670365 0
M  V30 3053 H 300.736 1.76278 3.37204 0
M  V30 3054 H 300.248 3.18083 2.22363 0
M  V30 3055 H 298.349 1.10713 3.55771 0
M  V30 3056 H 298.462 2.9815 3.75025 0
M  V30 3057 H 296.826 1.50814 2.05249 0
M  V30 3058 H 297.609 3.08659 1.50282 0
M  V30 3059 N 300.054 -1.07777 1.14986 0
M  V30 3060 C 301.302 -1.79934 0.920235 0
M  V30 3061 C 301.623 -1.86955 -0.554336 0
M  V30 3062 O 300.893 -1.36731 -1.40291 0
M  V30 3063 H 299.473 -0.666424 0.337473 0
M  V30 3064 H 302.135 -1.3027 1.44968 0
M  V30 3065 H 301.231 -2.82539 1.32583 0
M  V30 3066 N 301.532 -0.945985 -1.26051 0
M  V30 3067 C 302.462 -0.477172 -2.28572 0
M  V30 3068 C 303.443 0.472032 -1.63419 0
M  V30 3069 O 304.628 0.372853 -1.90587 0
M  V30 3070 C 301.758 0.253975 -3.4637 0
M  V30 3071 C 300.712 -0.609135 -4.23643 0
M  V30 3072 C 300.038 0.252252 -5.34105 0
M  V30 3073 C 301.338 -1.8829 -4.8718 0
M  V30 3074 H 303.032 -1.33402 -2.68038 0
M  V30 3075 H 300.578 -0.642904 -1.28852 0
M  V30 3076 H 302.531 0.593016 -4.17207 0
M  V30 3077 H 301.255 1.145 -3.05871 0
M  V30 3078 H 299.914 -0.931138 -3.54578 0
M  V30 3079 H 299.562 1.14278 -4.89846 0
M  V30 3080 H 299.262 -0.32188 -5.86718 0
M  V30 3081 H 300.786 0.586454 -6.07777 0
M  V30 3082 H 302.2 -1.61081 -5.50205 0
M  V30 3083 H 300.597 -2.40199 -5.49931 0
M  V30 3084 H 301.667 -2.59134 -4.09851 0
M  V30 3085 N 303.011 1.40521 -0.713556 0
M  V30 3086 C 304.258 2.00923 -0.25219 0
M  V30 3087 C 304.586 1.56571 1.15395 0
M  V30 3088 O 303.841 0.775874 1.79663 0
M  V30 3089 C 304.14 3.56317 -0.278 0
M  V30 3090 C 303.806 4.20246 -1.63415 0
M  V30 3091 C 302.468 4.37422 -2.00538 0
M  V30 3092 C 304.82 4.55923 -2.52554 0
M  V30 3093 C 302.148 4.87558 -3.2635 0
M  V30 3094 C 304.5 5.07458 -3.77716 0
M  V30 3095 C 303.164 5.22843 -4.14959 0
M  V30 3096 H 302.434 0.735231 -0.0922829 0
M  V30 3097 H 305.081 1.68161 -0.916188 0
M  V30 3098 H 303.386 3.88976 0.469567 0
M  V30 3099 H 305.083 4.00883 0.0967819 0
M  V30 3100 H 301.673 4.07263 -1.33546 0
M  V30 3101 H 305.857 4.42291 -2.25149 0
M  V30 3102 H 301.113 4.97654 -3.55176 0
M  V30 3103 H 305.287 5.34041 -4.4696 0
M  V30 3104 H 302.914 5.61454 -5.12516 0
M  V30 3105 N 304.489 0.459591 1.5075 0
M  V30 3106 C 305.437 -0.354678 2.2988 0
M  V30 3107 C 306.431 -1.00086 1.36672 0
M  V30 3108 O 307.637 -0.933277 1.53915 0
M  V30 3109 H 304.012 -0.13321 0.740107 0
M  V30 3110 H 305.983 0.333269 2.96533 0
M  V30 3111 C 304.732 -1.43073 3.169 0
M  V30 3112 H 304.055 -0.942882 3.88523 0
M  V30 3113 H 305.495 -1.97328 3.75284 0
M  V30 3114 C 303.954 -2.42633 2.33732 0
M  V30 3115 O 304.484 -3.47658 2.01238 0
M  V30 3116 N 302.69 -2.14066 1.9653 0
M  V30 3117 H 302.237 -1.28685 2.23155 0
M  V30 3118 H 302.195 -2.80917 1.41185 0
M  V30 3119 N 305.967 -1.56429 0.191757 0
M  V30 3120 C 307.213 -1.97777 -0.448554 0
M  V30 3121 C 307.546 -1.07847 -1.61501 0
M  V30 3122 O 306.821 -0.129774 -1.94067 0
M  V30 3123 C 307.104 -3.48362 -0.911906 0
M  V30 3124 C 306.957 -4.4907 0.256136 0
M  V30 3125 C 308.276 -4.02561 -1.77857 0
M  V30 3126 H 305.395 -0.719071 -0.161572 0
M  V30 3127 H 308.037 -1.87896 0.282007 0
M  V30 3128 H 306.187 -3.56914 -1.53442 0
M  V30 3129 H 307.859 -4.5256 0.893733 0
M  V30 3130 H 306.102 -4.24181 0.908436 0
M  V30 3131 H 306.773 -5.51889 -0.11053 0
M  V30 3132 H 309.249 -3.96767 -1.25359 0
M  V30 3133 H 308.125 -5.08301 -2.07174 0
M  V30 3134 H 308.386 -3.47616 -2.73158 0
M  V30 3135 N 307.445 0.0818655 -1.57387 0
M  V30 3136 C 308.691 0.784074 -1.8703 0
M  V30 3137 C 309.024 1.77729 -0.782689 0
M  V30 3138 O 308.299 1.93384 0.208051 0
M  V30 3139 C 308.582 1.50105 -3.27323 0
M  V30 3140 C 308.435 0.524925 -4.46727 0
M  V30 3141 C 309.754 2.44843 -3.65705 0
M  V30 3142 H 306.873 0.283582 -0.680257 0
M  V30 3143 H 309.515 0.0474352 -1.89941 0
M  V30 3144 H 307.665 2.12897 -3.24972 0
M  V30 3145 H 309.337 -0.0970111 -4.61198 0
M  V30 3146 H 307.58 -0.160606 -4.33503 0
M  V30 3147 H 308.251 1.064 -5.41648 0
M  V30 3148 H 310.727 1.92135 -3.69085 0
M  V30 3149 H 309.603 2.92018 -4.64776 0
M  V30 3150 H 309.864 3.29197 -2.95096 0
M  V30 3151 N 308.923 1.53595 0.353017 0
M  V30 3152 C 309.855 1.77219 1.45348 0
M  V30 3153 C 310.868 0.65324 1.49119 0
M  V30 3154 O 312.057 0.929775 1.52373 0
M  V30 3155 C 309.157 1.84841 2.84055 0
M  V30 3156 C 308.33 3.14649 3.03833 0
M  V30 3157 C 307.389 3.13351 4.22727 0
M  V30 3158 O 306.415 3.87107 4.17297 0
M  V30 3159 N 307.617 2.35052 5.30783 0
M  V30 3160 H 310.382 2.72178 1.25457 0
M  V30 3161 H 307.943 1.52528 0.542833 0
M  V30 3162 H 309.935 1.81435 3.61751 0
M  V30 3163 H 308.505 0.971114 2.97133 0
M  V30 3164 H 307.725 3.31256 2.13689 0
M  V30 3165 H 309.013 4.00411 3.13925 0
M  V30 3166 H 308.411 1.74663 5.38061 0
M  V30 3167 H 306.968 2.37453 6.07009 0
M  V30 3168 N 310.401 -0.613514 1.45168 0
M  V30 3169 C 311.649 -1.36997 1.48581 0
M  V30 3170 C 311.97 -1.94589 0.126545 0
M  V30 3171 O 311.24 -1.76816 -0.843372 0
M  V30 3172 H 309.82 -0.508558 0.547154 0
M  V30 3173 H 312.482 -0.720853 1.81079 0
M  V30 3174 H 311.578 -2.1924 2.22127 0
M  V30 3175 N 311.879 -1.3236 -0.855495 0
M  V30 3176 C 313.127 -1.22629 -1.60644 0
M  V30 3177 C 313.448 0.212136 -1.93843 0
M  V30 3178 O 312.718 1.13666 -1.59552 0
M  V30 3179 H 311.298 -0.450882 -0.595579 0
M  V30 3180 H 313.96 -1.65871 -1.02337 0
M  V30 3181 H 313.056 -1.80832 -2.54374 0
M  V30 3182 N 313.357 1.07166 -1.15556 0
M  V30 3183 C 314.32 2.12589 -0.856644 0
M  V30 3184 C 315.32 1.6015 0.14444 0
M  V30 3185 O 316.51 1.7399 -0.0854163 0
M  V30 3186 C 313.642 3.39753 -0.279405 0
M  V30 3187 H 314.835 2.40539 -1.79112 0
M  V30 3188 H 312.388 1.23086 -0.963298 0
M  V30 3189 H 313.123 3.17447 0.663174 0
M  V30 3190 H 312.908 3.79117 -1.00063 0
M  V30 3191 H 314.398 4.17507 -0.0879113 0
M  V30 3192 N 314.835 0.952656 1.25548 0
M  V30 3193 C 315.798 0.475794 2.24207 0
M  V30 3194 C 316.798 -0.419428 1.55234 0
M  V30 3195 O 317.988 -0.216994 1.72843 0
M  V30 3196 C 315.12 -0.312814 3.39462 0
M  V30 3197 H 316.313 1.34779 2.67908 0
M  V30 3198 H 313.866 0.735739 1.37901 0
M  V30 3199 H 314.601 -1.20257 3.01179 0
M  V30 3200 H 314.386 0.329404 3.90714 0
M  V30 3201 H 315.876 -0.635986 4.12729 0
M  V30 3202 N 316.313 -1.40141 0.720998 0
M  V30 3203 C 317.541 -2.05096 0.272656 0
M  V30 3204 C 317.956 -1.54334 -1.0875 0
M  V30 3205 O 317.313 -0.702211 -1.6845 0
M  V30 3206 C 317.364 -3.60636 0.249835 0
M  V30 3207 O 317.085 -4.09526 1.55629 0
M  V30 3208 C 318.586 -4.42772 -0.216396 0
M  V30 3209 H 315.806 -0.659897 0.121558 0
M  V30 3210 H 318.35 -1.79449 0.980723 0
M  V30 3211 H 316.505 -3.85232 -0.409237 0
M  V30 3212 H 316.919 -5.03758 1.4604 0
M  V30 3213 H 318.393 -5.51702 -0.181212 0
M  V30 3214 H 318.87 -4.20756 -1.25941 0
M  V30 3215 H 319.476 -4.23294 0.412596 0
M  V30 3216 N 317.792 -0.46758 -1.50504 0
M  V30 3217 C 319.04 0.0884469 -2.01906 0
M  V30 3218 C 319.361 1.40532 -1.35188 0
M  V30 3219 O 318.631 1.89515 -0.496079 0
M  V30 3220 H 317.211 0.0356765 -0.746148 0
M  V30 3221 H 319.873 -0.6172 -1.84869 0
M  V30 3222 H 318.969 0.2425 -3.11156 0
M  V30 3223 N 319.27 1.56325 -0.20005 0
M  V30 3224 C 320.202 2.16555 0.750771 0
M  V30 3225 C 321.215 1.12871 1.1732 0
M  V30 3226 O 322.404 1.39943 1.10807 0
M  V30 3227 C 319.504 2.71684 2.02586 0
M  V30 3228 C 318.677 4.00321 1.76244 0
M  V30 3229 C 317.736 4.40227 2.88248 0
M  V30 3230 O 316.762 5.07552 2.57642 0
M  V30 3231 N 317.964 4.04138 4.16717 0
M  V30 3232 H 320.729 2.98772 0.235685 0
M  V30 3233 H 318.29 1.6189 -0.0182594 0
M  V30 3234 H 320.282 2.95363 2.76664 0
M  V30 3235 H 318.852 1.93893 2.45202 0
M  V30 3236 H 318.072 3.84723 0.85919 0
M  V30 3237 H 319.36 4.84279 1.56048 0
M  V30 3238 H 318.758 3.49993 4.44434 0
M  V30 3239 H 317.315 4.32756 4.87407 0
M  V30 3240 N 320.748 -0.0735177 1.57428 0
M  V30 3241 C 321.995 -0.772999 1.87166 0
M  V30 3242 C 322.323 -1.77665 0.791551 0
M  V30 3243 O 321.578 -1.94541 -0.212636 0
M  V30 3244 C 321.877 -1.51799 3.23561 0
M  V30 3245 C 321.543 -0.654484 4.46125 0
M  V30 3246 C 320.205 -0.416511 4.79394 0
M  V30 3247 C 322.557 -0.0555862 5.2117 0
M  V30 3248 C 319.885 0.429869 5.85123 0
M  V30 3249 C 322.237 0.778239 6.27795 0
M  V30 3250 C 320.901 1.0261 6.59566 0
M  V30 3251 H 320.171 -0.282861 0.684888 0
M  V30 3252 H 322.818 -0.0338272 1.9147 0
M  V30 3253 H 321.123 -2.32932 3.1504 0
M  V30 3254 H 322.82 -2.06397 3.43804 0
M  V30 3255 H 319.41 -0.850091 4.20085 0
M  V30 3256 H 323.594 -0.226558 4.95783 0
M  V30 3257 H 318.85 0.630665 6.08139 0
M  V30 3258 H 323.024 1.24906 6.85107 0
M  V30 3259 H 320.651 1.68371 7.4132 0
M  V30 3260 N 322.226 -1.5378 -0.344866 0
M  V30 3261 C 323.156 -1.84662 -1.42906 0
M  V30 3262 C 324.137 -0.701648 -1.54955 0
M  V30 3263 O 325.322 -0.953438 -1.69184 0
M  V30 3264 C 322.452 -2.05503 -2.79974 0
M  V30 3265 C 321.406 -3.21318 -2.82734 0
M  V30 3266 C 320.732 -3.2749 -4.22675 0
M  V30 3267 C 322.032 -4.59456 -2.48389 0
M  V30 3268 H 323.726 -2.75461 -1.17311 0
M  V30 3269 H 321.272 -1.32542 -0.562896 0
M  V30 3270 H 323.225 -2.25691 -3.55867 0
M  V30 3271 H 321.949 -1.11434 -3.07002 0
M  V30 3272 H 320.608 -3.00984 -2.09294 0
M  V30 3273 H 320.256 -2.31019 -4.4681 0
M  V30 3274 H 319.956 -4.05316 -4.25433 0
M  V30 3275 H 321.48 -3.49887 -5.00412 0
M  V30 3276 H 322.894 -4.79667 -3.13995 0
M  V30 3277 H 321.291 -5.39675 -2.62432 0
M  V30 3278 H 322.361 -4.63155 -1.4358 0
M  V30 3279 N 323.704 0.605807 -1.45491 0
M  V30 3280 C 324.944 1.37606 -1.51142 0
M  V30 3281 C 325.308 1.91413 -0.150075 0
M  V30 3282 O 326.509 2.68677 -0.0812828 0
M  V30 3283 C 324.78 2.49197 -2.56195 0
M  V30 3284 S 326.339 3.36953 -2.81083 0
M  V30 3285 H 323.157 0.469118 -0.534275 0
M  V30 3286 H 325.759 0.698845 -1.82583 0
M  V30 3287 H 324.463 2.0802 -3.53773 0
M  V30 3288 H 323.994 3.21717 -2.26411 0
M  V30 3289 H 326.009 4.47395 -2.14598 0
M  V30 3290 N 325.182 1.32811 0.848464 0
M  V30 3291 C 326.114 1.18095 1.96433 0
M  V30 3292 C 327.127 0.114354 1.62398 0
M  V30 3293 O 328.316 0.363892 1.74751 0
M  V30 3294 C 325.416 0.786798 3.2964 0
M  V30 3295 C 324.589 1.943 3.91875 0
M  V30 3296 C 323.648 1.53138 5.03423 0
M  V30 3297 O 322.674 2.24432 5.23086 0
M  V30 3298 N 323.876 0.430915 5.78898 0
M  V30 3299 H 326.641 2.14218 2.09597 0
M  V30 3300 H 324.202 1.2543 1.02367 0
M  V30 3301 H 326.194 0.493715 4.01677 0
M  V30 3302 H 324.764 -0.0834541 3.12489 0
M  V30 3303 H 323.984 2.40224 3.12547 0
M  V30 3304 H 325.272 2.71689 4.30189 0
M  V30 3305 H 324.67 -0.162333 5.65467 0
M  V30 3306 H 323.227 0.197466 6.51501 0
M  V30 3307 N 326.66 -1.06551 1.16123 0
M  V30 3308 C 327.61 -2.12209 0.833736 0
M  V30 3309 C 328.594 -1.59825 -0.185656 0
M  V30 3310 O 329.786 -1.76994 0.0147906 0
M  V30 3311 C 326.915 -3.41674 0.333697 0
M  V30 3312 C 326.001 -4.00892 1.38372 0
M  V30 3313 N 326.392 -4.34256 2.59337 0
M  V30 3314 C 324.69 -4.28463 1.23836 0
M  V30 3315 C 325.391 -4.81291 3.26701 0
M  V30 3316 N 324.367 -4.80565 2.54083 0
M  V30 3317 H 328.169 -2.35849 1.75364 0
M  V30 3318 H 325.683 -1.24068 1.04789 0
M  V30 3319 H 327.68 -4.16822 0.0806918 0
M  V30 3320 H 326.34 -3.19475 -0.58017 0
M  V30 3321 H 327.351 -4.24687 2.96415 0
M  V30 3322 H 324.028 -4.15721 0.38504 0
M  V30 3323 H 325.418 -5.16332 4.29943 0
M  V30 3324 N 328.138 -0.959301 -1.25041 0
M  V30 3325 C 329.549 -0.65667 -1.74771 0
M  V30 3326 C 329.9 0.827852 -1.77879 0
M  V30 3327 O 329.025 1.64783 -1.40269 0
M  V30 3328 C 329.62 -1.1853 -3.1739 0
M  V30 3329 C 328.179 -0.932734 -3.6466 0
M  V30 3330 C 327.326 -1.32558 -2.43564 0
M  V30 3331 H 330.277 -1.13558 -1.10862 0
M  V30 3332 H 330.298 -0.547582 -3.76539 0
M  V30 3333 H 329.81 -2.26576 -3.15095 0
M  V30 3334 H 327.911 0.13257 -3.72364 0
M  V30 3335 H 328.024 -1.57248 -4.52559 0
M  V30 3336 H 326.388 -0.743956 -2.43593 0
M  V30 3337 H 327.171 -2.41537 -2.43957 0
M  V30 3338 N 329.616 1.39756 -0.72842 0
M  V30 3339 C 330.893 1.94574 -0.200079 0
M  V30 3340 C 331.273 1.66569 1.29684 0
M  V30 3341 O 330.621 0.990326 2.05924 0
M  V30 3342 C 330.831 3.45004 -0.526608 0
M  V30 3343 C 332.179 4.21965 -0.472318 0
M  V30 3344 O 333.203 3.53173 -0.463413 0
M  V30 3345 O 332.062 5.44552 -0.461075 0
M  V30 3346 H 329.156 0.826289 -0.0342851 0
M  V30 3347 H 331.702 1.49293 -0.806829 0
M  V30 3348 H 330.474 3.58796 -1.56144 0
M  V30 3349 H 330.097 3.97449 0.109449 0
M  V30 3350 N 331.094 0.475555 1.50254 0
M  V30 3351 C 332.34 -0.0780073 2.0265 0
M  V30 3352 C 332.673 -1.38968 1.35652 0
M  V30 3353 O 331.948 -1.8839 0.483691 0
M  V30 3354 C 332.231 -0.257161 3.59181 0
M  V30 3355 C 332.084 1.07585 4.36744 0
M  V30 3356 C 333.403 -1.00965 4.28362 0
M  V30 3357 H 330.522 -0.0268758 0.73651 0
M  V30 3358 H 333.164 0.622015 1.7953 0
M  V30 3359 H 331.314 -0.853412 3.79011 0
M  V30 3360 H 332.986 1.70902 4.28474 0
M  V30 3361 H 331.229 1.6714 4.00308 0
M  V30 3362 H 331.9 0.904088 5.44546 0
M  V30 3363 H 334.376 -0.504214 4.13034 0
M  V30 3364 H 333.252 -1.10381 5.37687 0
M  V30 3365 H 333.513 -2.04731 3.91839 0
M  V30 3366 N 332.573 -1.56217 0.208337 0
M  V30 3367 C 333.536 -2.18455 -0.693557 0
M  V30 3368 C 334.536 -1.14268 -1.13135 0
M  V30 3369 O 335.726 -1.39577 -1.0423 0
M  V30 3370 C 332.858 -2.79727 -1.94848 0
M  V30 3371 H 334.051 -2.99519 -0.15114 0
M  V30 3372 H 331.604 -1.56245 -0.041287 0
M  V30 3373 H 332.339 -2.02497 -2.53309 0
M  V30 3374 H 332.124 -3.56009 -1.64316 0
M  V30 3375 H 333.614 -3.27475 -2.59133 0
M  V30 3376 N 334.051 0.0651679 -1.57465 0
M  V30 3377 C 334.998 1.07675 -2.04144 0
M  V30 3378 C 335.968 1.38071 -0.923335 0
M  V30 3379 O 337.153 1.49026 -1.19146 0
M  V30 3380 C 334.293 2.38337 -2.49579 0
M  V30 3381 C 333.406 2.14413 -3.75035 0
M  V30 3382 C 332.541 3.38686 -4.09225 0
M  V30 3383 C 331.58 3.10156 -5.27702 0
M  V30 3384 N 330.717 4.26778 -5.57499 0
M  V30 3385 H 335.557 0.671716 -2.90331 0
M  V30 3386 H 333.094 0.3201 -1.43575 0
M  V30 3387 H 335.052 3.14632 -2.73975 0
M  V30 3388 H 333.682 2.7663 -1.6636 0
M  V30 3389 H 332.734 1.2878 -3.57939 0
M  V30 3390 H 334.046 1.89344 -4.61466 0
M  V30 3391 H 333.2 4.23373 -4.34558 0
M  V30 3392 H 331.939 3.66837 -3.21374 0
M  V30 3393 H 330.944 2.23866 -5.02159 0
M  V30 3394 H 332.169 2.8332 -6.17176 0
M  V30 3395 H 330.115 4.54948 -4.72608 0
M  V30 3396 H 330.032 4.05005 -6.38362 0
M  V30 3397 H 331.3 5.12443 -5.87386 0
M  V30 3398 N 335.529 1.53961 0.336706 0
M  V30 3399 C 336.775 1.7179 1.07777 0
M  V30 3400 C 337.108 0.483263 1.88091 0
M  V30 3401 O 336.383 -0.519747 1.87427 0
M  V30 3402 C 336.666 2.98558 2.01334 0
M  V30 3403 C 336.519 4.32245 1.24437 0
M  V30 3404 C 337.838 3.21023 3.01052 0
M  V30 3405 H 334.957 0.625089 0.390426 0
M  V30 3406 H 337.599 1.86641 0.35567 0
M  V30 3407 H 335.749 2.86028 2.62908 0
M  V30 3408 H 337.421 4.56637 0.654243 0
M  V30 3409 H 335.664 4.30344 0.546458 0
M  V30 3410 H 336.335 5.17137 1.93063 0
M  V30 3411 H 338.811 3.32929 2.49595 0
M  V30 3412 H 337.687 4.11104 3.6371 0
M  V30 3413 H 337.948 2.37637 3.72802 0
M  V30 3414 N 337.007 -0.598083 1.45811 0
M  V30 3415 C 338.232 -1.3881 1.54099 0
M  V30 3416 C 338.657 -1.8726 0.177578 0
M  V30 3417 O 338.015 -1.6069 -0.839541 0
M  V30 3418 C 338.063 -2.56217 2.53743 0
M  V30 3419 O 337.167 -3.5716 2.06182 0
M  V30 3420 H 336.508 -0.414024 0.519115 0
M  V30 3421 H 339.038 -0.726971 1.91249 0
M  V30 3422 H 339.048 -3.03337 2.72856 0
M  V30 3423 H 337.723 -2.20303 3.5276 0
M  V30 3424 H 336.3 -3.16624 1.96987 0
M  V30 3425 N 338.485 -1.33259 -0.841409 0
M  V30 3426 C 339.732 -1.24572 -1.5965 0
M  V30 3427 C 340.06 0.189137 -1.93578 0
M  V30 3428 O 339.315 1.14566 -1.5866 0
M  V30 3429 C 339.614 -2.06381 -2.9179 0
M  V30 3430 C 339.28 -3.556 -2.77235 0
M  V30 3431 C 337.942 -3.96282 -2.72973 0
M  V30 3432 C 340.294 -4.50433 -2.62221 0
M  V30 3433 C 337.622 -5.30017 -2.51592 0
M  V30 3434 C 339.974 -5.84327 -2.42374 0
M  V30 3435 C 338.638 -6.24194 -2.36512 0
M  V30 3436 H 337.908 -0.455842 -0.5842 0
M  V30 3437 H 340.555 -1.6482 -0.975016 0
M  V30 3438 H 338.86 -1.58903 -3.5813 0
M  V30 3439 H 340.557 -1.97019 -3.49263 0
M  V30 3440 H 337.147 -3.23298 -2.81384 0
M  V30 3441 H 341.331 -4.19914 -2.64549 0
M  V30 3442 H 336.587 -5.59947 -2.45499 0
M  V30 3443 H 340.761 -6.57414 -2.29739 0
M  V30 3444 H 338.388 -7.27759 -2.19706 0
M  V30 3445 N 339.963 1.05934 -1.16686 0
M  V30 3446 C 341.191 1.8249 -0.974929 0
M  V30 3447 C 341.606 1.82679 0.476861 0
M  V30 3448 O 340.963 1.2486 1.33103 0
M  V30 3449 C 341.014 3.28943 -1.49929 0
M  V30 3450 O 340.735 3.28886 -2.89423 0
M  V30 3451 C 342.236 4.22215 -1.35089 0
M  V30 3452 H 339.456 0.575295 -0.345365 0
M  V30 3453 H 342 1.33631 -1.548 0
M  V30 3454 H 340.155 3.751 -0.968423 0
M  V30 3455 H 340.569 4.20493 -3.13506 0
M  V30 3456 H 342.043 5.22987 -1.76603 0
M  V30 3457 H 342.52 4.38195 -0.296935 0
M  V30 3458 H 343.126 3.81907 -1.87155 0
M  V30 3459 N 341.441 0.965919 1.2453 0
M  V30 3460 C 342.689 0.625593 1.92174 0
M  V30 3461 C 343.01 -0.841652 1.75901 0
M  V30 3462 O 342.28 -1.60061 1.12948 0
M  V30 3463 H 340.86 0.228388 0.71123 0
M  V30 3464 H 343.522 1.2266 1.51461 0
M  V30 3465 H 342.618 0.864653 2.99884 0
M  V30 3466 N 342.919 -1.39368 0.735821 0
M  V30 3467 C 344.144 -2.05319 0.293052 0
M  V30 3468 C 344.569 -1.55115 -1.064 0
M  V30 3469 O 343.927 -0.695261 -1.67439 0
M  V30 3470 C 343.975 -3.59305 0.305323 0
M  V30 3471 O 343.079 -4.06299 -0.706761 0
M  V30 3472 H 342.42 -0.650529 0.13307 0
M  V30 3473 H 344.95 -1.78386 1.00197 0
M  V30 3474 H 344.96 -4.07724 0.149997 0
M  V30 3475 H 343.635 -3.95207 1.29553 0
M  V30 3476 H 342.212 -3.69292 -0.517504 0
M  V30 3477 N 344.397 -0.483516 -1.5 0
M  V30 3478 C 345.643 0.0672592 -2.02688 0
M  V30 3479 C 345.976 1.38247 -1.36387 0
M  V30 3480 O 345.251 1.88131 -0.493675 0
M  V30 3481 C 345.534 0.238109 -3.59312 0
M  V30 3482 C 345.387 -1.099 -4.36168 0
M  V30 3483 C 346.706 0.986916 -4.28892 0
M  V30 3484 H 343.825 0.0229696 -0.736642 0
M  V30 3485 H 346.467 -0.631527 -1.79197 0
M  V30 3486 H 344.617 0.8333 -3.79458 0
M  V30 3487 H 346.289 -1.73172 -4.27562 0
M  V30 3488 H 344.532 -1.69261 -3.99416 0
M  V30 3489 H 345.203 -0.932954 -5.44059 0
M  V30 3490 H 347.679 0.482302 -4.13295 0
M  V30 3491 H 346.555 1.07527 -5.38265 0
M  V30 3492 H 346.816 2.0265 -3.92919 0
M  V30 3493 N 345.875 1.56104 -0.216619 0
M  V30 3494 C 347.286 1.844 0.292128 0
M  V30 3495 C 347.637 1.13788 1.59833 0
M  V30 3496 O 346.762 0.405888 2.12559 0
M  V30 3497 C 347.357 3.3452 0.53681 0
M  V30 3498 C 345.916 3.63151 0.989876 0
M  V30 3499 C 345.063 2.77255 0.0502302 0
M  V30 3500 H 348.014 1.52481 -0.439926 0
M  V30 3501 H 348.035 3.54459 1.38345 0
M  V30 3502 H 347.547 3.85885 -0.414031 0
M  V30 3503 H 345.648 3.17238 1.95425 0
M  V30 3504 H 345.761 4.71177 0.867698 0
M  V30 3505 H 344.125 2.48555 0.556117 0
M  V30 3506 H 344.908 3.31416 -0.89544 0
M  V30 3507 N 347.353 -0.0568162 1.57498 0
M  V30 3508 C 348.581 -0.765626 1.92213 0
M  V30 3509 C 348.996 -1.70353 0.813961 0
M  V30 3510 O 348.353 -1.81268 -0.211701 0
M  V30 3511 C 348.404 -1.5465 3.2675 0
M  V30 3512 O 348.125 -0.646278 4.33307 0
M  V30 3513 C 349.626 -2.35497 3.75574 0
M  V30 3514 H 346.846 -0.216835 0.634999 0
M  V30 3515 H 349.39 -0.0226146 2.04487 0
M  V30 3516 H 347.545 -2.24165 3.15957 0
M  V30 3517 H 347.959 -1.19093 5.108 0
M  V30 3518 H 349.433 -2.85722 4.72299 0
M  V30 3519 H 349.91 -3.15692 3.05344 0
M  V30 3520 H 350.516 -1.7111 3.8936 0
M  V30 3521 N 348.832 -1.54138 -0.328536 0
M  V30 3522 C 350.08 -1.71765 -1.06496 0
M  V30 3523 C 350.401 -0.49149 -1.88704 0
M  V30 3524 O 349.671 0.494539 -1.89555 0
M  V30 3525 H 348.251 -0.633295 -0.396164 0
M  V30 3526 H 350.913 -1.91429 -0.366176 0
M  V30 3527 H 350.009 -2.5951 -1.73381 0
M  V30 3528 N 350.31 0.590341 -1.46126 0
M  V30 3529 C 351.243 1.71434 -1.50617 0
M  V30 3530 C 352.221 1.58543 -0.360948 0
M  V30 3531 O 353.405 1.79865 -0.563985 0
M  V30 3532 C 350.532 3.09422 -1.37753 0
M  V30 3533 C 349.578 3.40854 -2.5636 0
M  V30 3534 S 350.411 3.33773 -4.18755 0
M  V30 3535 C 351.567 4.74312 -4.08386 0
M  V30 3536 H 351.8 1.67364 -2.45717 0
M  V30 3537 H 349.333 0.76845 -1.33919 0
M  V30 3538 H 351.291 3.8903 -1.31018 0
M  V30 3539 H 349.952 3.10989 -0.440949 0
M  V30 3540 H 349.145 4.41368 -2.43332 0
M  V30 3541 H 348.747 2.68798 -2.60046 0
M  V30 3542 H 351.039 5.64522 -3.74595 0
M  V30 3543 H 351.982 4.92397 -5.08872 0
M  V30 3544 H 352.39 4.50803 -3.3976 0
M  V30 3545 N 351.788 1.33704 0.83433 0
M  V30 3546 C 352.735 1.24335 1.94447 0
M  V30 3547 C 353.705 0.120991 1.65659 0
M  V30 3548 O 354.89 0.300035 1.88426 0
M  V30 3549 C 352.03 0.993124 3.30501 0
M  V30 3550 C 351.143 2.20217 3.71657 0
M  V30 3551 C 350.278 1.88572 4.96602 0
M  V30 3552 C 349.317 3.05683 5.30306 0
M  V30 3553 N 348.454 2.73997 6.46429 0
M  V30 3554 H 353.294 2.1928 2.01792 0
M  V30 3555 H 350.831 1.09035 0.987404 0
M  V30 3556 H 352.789 0.828467 4.08892 0
M  V30 3557 H 351.419 0.0803902 3.227 0
M  V30 3558 H 350.471 2.47642 2.88752 0
M  V30 3559 H 351.783 3.07752 3.92543 0
M  V30 3560 H 350.937 1.68776 5.82752 0
M  V30 3561 H 349.676 0.982799 4.77695 0
M  V30 3562 H 348.681 3.26088 4.42659 0
M  V30 3563 H 349.906 3.96737 5.51159 0
M  V30 3564 H 347.852 1.86268 6.28999 0
M  V30 3565 H 347.769 3.55064 6.67432 0
M  V30 3566 H 349.037 2.57679 7.35678 0
M  V30 3567 N 353.266 -1.05314 1.17247 0
M  V30 3568 C 354.515 -1.77685 0.954521 0
M  V30 3569 C 354.828 -1.88616 -0.518025 0
M  V30 3570 O 356.034 -2.57714 -0.854144 0
M  V30 3571 C 354.49 -3.19402 1.65863 0
M  V30 3572 C 354.098 -3.16605 3.16963 0
M  V30 3573 C 355.842 -3.96237 1.52303 0
M  V30 3574 C 353.749 -4.53103 3.80068 0
M  V30 3575 H 352.679 -0.666 0.353496 0
M  V30 3576 H 355.33 -1.1805 1.40486 0
M  V30 3577 H 353.712 -3.79355 1.13602 0
M  V30 3578 H 354.886 -2.66176 3.76148 0
M  V30 3579 H 353.201 -2.53268 3.30521 0
M  V30 3580 H 355.798 -4.97157 1.96822 0
M  V30 3581 H 356.141 -4.136 0.473401 0
M  V30 3582 H 356.674 -3.42829 2.01775 0
M  V30 3583 H 353.413 -4.40946 4.85023 0
M  V30 3584 H 352.933 -5.03686 3.2567 0
M  V30 3585 H 354.612 -5.22045 3.82202 0
M  V30 3586 N 354.744 -0.972509 -1.24016 0
M  V30 3587 C 355.677 -0.45117 -2.23696 0
M  V30 3588 C 356.655 0.477378 -1.55434 0
M  V30 3589 O 357.839 0.407647 -1.84039 0
M  V30 3590 C 354.966 0.34818 -3.36906 0
M  V30 3591 C 354.012 -0.523355 -4.23277 0
M  V30 3592 S 354.845 -1.96647 -4.98087 0
M  V30 3593 C 356.001 -1.17604 -6.14752 0
M  V30 3594 H 356.234 -1.29588 -2.67571 0
M  V30 3595 H 353.767 -0.777903 -1.33372 0
M  V30 3596 H 355.725 0.803387 -4.02562 0
M  V30 3597 H 354.386 1.16792 -2.91579 0
M  V30 3598 H 353.579 0.0906181 -5.03919 0
M  V30 3599 H 353.181 -0.914485 -3.62647 0
M  V30 3600 H 355.473 -0.433434 -6.76112 0
M  V30 3601 H 356.416 -1.95701 -6.8052 0
M  V30 3602 H 356.824 -0.698295 -5.60164 0
M  V30 3603 N 356.222 1.38976 -0.743202 0
M  V30 3604 C 357.132 2.3434 -0.110399 0
M  V30 3605 C 358.148 1.58741 0.712559 0
M  V30 3606 O 359.324 1.9099 0.639125 0
M  V30 3607 C 356.389 3.37812 0.780012 0
M  V30 3608 C 355.45 4.29263 -0.0561319 0
M  V30 3609 C 354.683 5.27793 0.791875 0
M  V30 3610 O 354.906 5.33043 2.03031 0
M  V30 3611 O 353.84 6.01512 0.216183 0
M  V30 3612 H 357.666 2.90129 -0.897714 0
M  V30 3613 H 355.251 1.40643 -0.503966 0
M  V30 3614 H 357.133 4.01194 1.28923 0
M  V30 3615 H 355.808 2.84395 1.546 0
M  V30 3616 H 354.715 3.69076 -0.611056 0
M  V30 3617 H 356.048 4.85907 -0.784531 0
M  V30 3618 N 357.7 0.491464 1.49741 0
M  V30 3619 C 358.633 -0.338464 2.25676 0
M  V30 3620 C 359.611 -0.978676 1.29849 0
M  V30 3621 O 360.795 -1.01064 1.59117 0
M  V30 3622 C 357.922 -1.47588 3.04853 0
M  V30 3623 C 356.968 -0.951 4.15762 0
M  V30 3624 S 357.801 0.150626 5.35288 0
M  V30 3625 C 358.957 -0.990178 6.18018 0
M  V30 3626 H 359.19 0.306068 2.9572 0
M  V30 3627 H 356.723 0.276622 1.51902 0
M  V30 3628 H 358.681 -2.12764 3.51058 0
M  V30 3629 H 357.342 -2.09199 2.34296 0
M  V30 3630 H 356.535 -1.80311 4.70642 0
M  V30 3631 H 356.137 -0.376607 3.72099 0
M  V30 3632 H 358.429 -1.89748 6.50386 0
M  V30 3633 H 359.372 -0.480205 7.0647 0
M  V30 3634 H 359.78 -1.25321 5.50413 0
M  V30 3635 N 359.178 -1.55987 0.224894 0
M  V30 3636 C 360.403 -2.03232 -0.41369 0
M  V30 3637 C 360.828 -1.10359 -1.52323 0
M  V30 3638 O 360.186 -0.092395 -1.81064 0
M  V30 3639 C 360.234 -3.48682 -0.919405 0
M  V30 3640 O 359.338 -3.58947 -2.03054 0
M  V30 3641 H 358.679 -0.657428 -0.0931903 0
M  V30 3642 H 361.209 -2.01679 0.34451 0
M  V30 3643 H 361.219 -3.8907 -1.22835 0
M  V30 3644 H 359.894 -4.15761 -0.107339 0
M  V30 3645 H 358.471 -3.30448 -1.72796 0
M  V30 3646 N 360.656 0.0484629 -1.57525 0
M  V30 3647 C 361.619 1.03956 -2.04269 0
M  V30 3648 C 362.619 1.30211 -0.943496 0
M  V30 3649 O 363.809 1.25539 -1.20771 0
M  V30 3650 C 360.941 2.37742 -2.44319 0
M  V30 3651 H 362.134 0.636182 -2.93075 0
M  V30 3652 H 359.687 0.294811 -1.53494 0
M  V30 3653 H 360.422 2.82866 -1.5861 0
M  V30 3654 H 360.207 2.20021 -3.24551 0
M  V30 3655 H 361.697 3.08936 -2.80978 0
M  V30 3656 N 362.134 1.5431 0.320358 0
M  V30 3657 C 363.081 1.83918 1.39438 0
M  V30 3658 C 364.051 0.686525 1.51248 0
M  V30 3659 O 365.236 0.933269 1.66417 0
M  V30 3660 C 362.376 2.075 2.75749 0
M  V30 3661 C 361.489 3.35177 2.72544 0
M  V30 3662 C 360.624 3.48704 4.00723 0
M  V30 3663 C 359.663 4.70244 3.91838 0
M  V30 3664 N 358.8 4.80679 5.11754 0
M  V30 3665 H 363.64 2.75544 1.13489 0
M  V30 3666 H 361.177 1.36459 0.549309 0
M  V30 3667 H 363.135 2.19166 3.54996 0
M  V30 3668 H 361.765 1.19163 3 0
M  V30 3669 H 360.817 3.32233 1.85271 0
M  V30 3670 H 362.129 4.24534 2.61863 0
M  V30 3671 H 361.283 3.59928 4.88402 0
M  V30 3672 H 360.022 2.57445 4.14214 0
M  V30 3673 H 359.027 4.59072 3.02544 0
M  V30 3674 H 360.252 5.6289 3.7991 0
M  V30 3675 H 358.198 3.92337 5.25745 0
M  V30 3676 H 358.115 5.64007 5.0342 0
M  V30 3677 H 359.383 4.96239 6.01138 0
M  V30 3678 N 363.613 -0.582584 1.46437 0
M  V30 3679 C 364.861 -1.33814 1.51453 0
M  V30 3680 C 365.182 -1.94277 0.167792 0
M  V30 3681 O 364.452 -1.78566 -0.805677 0
M  V30 3682 H 363.032 -0.496838 0.557818 0
M  V30 3683 H 365.694 -0.682281 1.82568 0
M  V30 3684 H 364.79 -2.14479 2.26728 0
M  V30 3685 N 365.091 -1.34144 -0.827227 0
M  V30 3686 C 366.34 -1.25602 -1.5782 0
M  V30 3687 C 366.653 0.173445 -1.94829 0
M  V30 3688 O 367.859 0.380984 -2.68814 0
M  V30 3689 C 366.315 -2.20151 -2.84713 0
M  V30 3690 C 365.923 -3.68331 -2.55021 0
M  V30 3691 C 367.667 -2.20508 -3.62735 0
M  V30 3692 C 365.574 -4.54762 -3.78082 0
M  V30 3693 H 364.504 -0.466573 -0.592306 0
M  V30 3694 H 367.155 -1.59283 -0.911116 0
M  V30 3695 H 365.537 -1.79417 -3.53023 0
M  V30 3696 H 366.711 -4.17577 -1.94849 0
M  V30 3697 H 365.026 -3.7038 -1.90283 0
M  V30 3698 H 367.623 -2.82306 -4.54101 0
M  V30 3699 H 367.966 -1.20322 -3.98533 0
M  V30 3700 H 368.499 -2.59664 -3.01362 0
M  V30 3701 H 365.238 -5.55867 -3.47407 0
M  V30 3702 H 364.758 -4.10254 -4.37552 0
M  V30 3703 H 366.437 -4.69153 -4.45538 0
M  V30 3704 N 366.569 1.04691 -1.17803 0
M  V30 3705 C 367.516 2.12557 -0.899343 0
M  V30 3706 C 368.486 1.65339 0.158771 0
M  V30 3707 O 369.671 1.90789 0.0204797 0
M  V30 3708 C 366.811 3.42481 -0.424315 0
M  V30 3709 C 365.924 4.03346 -1.54713 0
M  V30 3710 C 365.059 5.21208 -1.02546 0
M  V30 3711 C 364.098 5.74089 -2.12339 0
M  V30 3712 N 363.235 6.83247 -1.61612 0
M  V30 3713 H 368.075 2.35734 -1.823 0
M  V30 3714 H 365.612 1.1564 -0.909159 0
M  V30 3715 H 367.57 4.16996 -0.130421 0
M  V30 3716 H 366.2 3.19471 0.462377 0
M  V30 3717 H 365.252 3.2622 -1.95664 0
M  V30 3718 H 366.564 4.38628 -2.37501 0
M  V30 3719 H 365.718 6.02812 -0.685718 0
M  V30 3720 H 364.457 4.87414 -0.167084 0
M  V30 3721 H 363.462 4.91111 -2.47165 0
M  V30 3722 H 364.687 6.0993 -2.98601 0
M  V30 3723 H 362.633 6.5134 -0.780533 0
M  V30 3724 H 362.55 7.17559 -2.38003 0
M  V30 3725 H 363.818 7.68491 -1.30545 0
M  V30 3726 N 368.047 0.979072 1.23499 0
M  V30 3727 C 369.458 0.684391 1.73704 0
M  V30 3728 C 369.809 -0.799448 1.79174 0
M  V30 3729 O 368.934 -1.62531 1.42873 0
M  V30 3730 C 369.529 1.23564 3.15464 0
M  V30 3731 C 368.088 0.99063 3.6313 0
M  V30 3732 C 367.235 1.36416 2.41425 0
M  V30 3733 H 370.186 1.15307 1.09041 0
M  V30 3734 H 370.207 0.607417 3.7562 0
M  V30 3735 H 369.719 2.31561 3.1145 0
M  V30 3736 H 367.82 -0.0733136 3.72528 0
M  V30 3737 H 367.933 1.64427 4.5 0
M  V30 3738 H 366.297 0.782616 2.42378 0
M  V30 3739 H 367.08 2.45387 2.40083 0
M  V30 3740 N 369.525 -1.3858 0.750561 0
M  V30 3741 C 370.771 -2.00481 0.305825 0
M  V30 3742 C 371.104 -1.5944 -1.10872 0
M  V30 3743 O 370.379 -0.83052 -1.75877 0
M  V30 3744 C 370.662 -3.5758 0.425287 0
M  V30 3745 C 370.515 -4.08594 1.88072 0
M  V30 3746 C 371.834 -4.39719 -0.183122 0
M  V30 3747 H 368.953 -0.728348 0.112598 0
M  V30 3748 H 371.595 -1.64566 0.949638 0
M  V30 3749 H 369.745 -3.88306 -0.122828 0
M  V30 3750 H 371.417 -3.88523 2.48691 0
M  V30 3751 H 369.66 -3.61574 2.39681 0
M  V30 3752 H 370.331 -5.177 1.91548 0
M  V30 3753 H 372.807 -4.15128 0.284303 0
M  V30 3754 H 371.683 -5.48856 -0.0692757 0
M  V30 3755 H 371.944 -4.23434 -1.27106 0
M  V30 3756 N 371.003 -0.499398 -1.49478 0
M  V30 3757 C 372.231 0.0425456 -2.06856 0
M  V30 3758 C 372.646 1.30964 -1.35992 0
M  V30 3759 O 372.003 1.77172 -0.437762 0
M  V30 3760 C 372.054 0.301735 -3.60239 0
M  V30 3761 O 371.775 -0.915127 -4.28436 0
M  V30 3762 C 373.276 0.887499 -4.34325 0
M  V30 3763 H 370.496 -0.0197482 -0.670709 0
M  V30 3764 H 373.04 -0.696297 -1.92281 0
M  V30 3765 H 371.195 0.990556 -3.74522 0
M  V30 3766 H 371.609 -0.676993 -5.20113 0
M  V30 3767 H 373.083 1.01845 -5.42523 0
M  V30 3768 H 373.56 1.88488 -3.96698 0
M  V30 3769 H 374.166 0.236196 -4.24644 0
M  V30 3770 N 372.481 1.55866 -0.233164 0
M  V30 3771 C 373.411 2.23783 0.666599 0
M  V30 3772 C 374.392 1.21343 1.19205 0
M  V30 3773 O 375.577 1.4996 1.23392 0
M  V30 3774 C 372.707 2.92671 1.86978 0
M  V30 3775 C 371.661 4.01682 1.47768 0
M  V30 3776 C 370.987 4.57926 2.76058 0
M  V30 3777 C 372.287 5.18126 0.658993 0
M  V30 3778 H 373.981 2.99232 0.100306 0
M  V30 3779 H 371.527 1.43924 0.046804 0
M  V30 3780 H 373.48 3.3888 2.50476 0
M  V30 3781 H 372.204 2.14688 2.46123 0
M  V30 3782 H 370.863 3.56222 0.866106 0
M  V30 3783 H 370.511 3.76659 3.33372 0
M  V30 3784 H 370.211 5.31505 2.50552 0
M  V30 3785 H 371.735 5.06859 3.40479 0
M  V30 3786 H 373.149 5.60644 1.19795 0
M  V30 3787 H 371.546 5.98009 0.500552 0
M  V30 3788 H 372.616 4.83763 -0.331856 0
M  V30 3789 N 373.959 -0.0401083 1.57549 0
M  V30 3790 C 374.869 -1.06133 2.0922 0
M  V30 3791 C 375.885 -1.40356 1.0284 0
M  V30 3792 O 377.061 -1.49897 1.34509 0
M  V30 3793 C 374.126 -2.34658 2.55218 0
M  V30 3794 C 373.187 -2.07117 3.76033 0
M  V30 3795 C 372.42 -3.29514 4.19829 0
M  V30 3796 O 372.643 -4.39794 3.63232 0
M  V30 3797 O 371.577 -3.15863 5.12362 0
M  V30 3798 H 375.403 -0.652244 2.96613 0
M  V30 3799 H 372.988 -0.256368 1.47184 0
M  V30 3800 H 374.87 -3.10239 2.85184 0
M  V30 3801 H 373.545 -2.74883 1.70941 0
M  V30 3802 H 372.452 -1.29139 3.51104 0
M  V30 3803 H 373.785 -1.71754 4.61261 0
M  V30 3804 N 375.437 -1.54477 -0.31217 0
M  V30 3805 C 376.367 -1.87652 -1.38957 0
M  V30 3806 C 377.348 -0.734358 -1.53431 0
M  V30 3807 O 378.533 -0.98911 -1.67123 0
M  V30 3808 C 375.663 -2.11396 -2.75552 0
M  V30 3809 C 374.617 -3.27243 -2.75855 0
M  V30 3810 C 373.943 -3.36382 -4.15633 0
M  V30 3811 C 375.243 -4.64622 -2.38587 0
M  V30 3812 H 376.937 -2.77887 -1.11442 0
M  V30 3813 H 374.483 -1.33707 -0.534655 0
M  V30 3814 H 376.436 -2.33189 -3.51 0
M  V30 3815 H 375.16 -1.17921 -3.04569 0
M  V30 3816 H 373.819 -3.05356 -2.02863 0
M  V30 3817 H 373.467 -2.40445 -4.41809 0
M  V30 3818 H 373.167 -4.14249 -4.1674 0
M  V30 3819 H 374.691 -3.60422 -4.92877 0
M  V30 3820 H 376.105 -4.86219 -3.03749 0
M  V30 3821 H 374.502 -5.45121 -2.50925 0
M  V30 3822 H 375.572 -4.66097 -1.33723 0
M  V30 3823 N 376.915 0.57481 -1.46744 0
M  V30 3824 C 378.163 1.33009 -1.52161 0
M  V30 3825 C 378.484 1.94185 -0.178092 0
M  V30 3826 O 377.754 1.7899 0.796196 0
M  V30 3827 H 376.334 0.493873 -0.560445 0
M  V30 3828 H 378.996 0.672589 -1.82927 0
M  V30 3829 H 378.092 2.13273 -2.27862 0
M  V30 3830 N 378.394 1.34581 0.820102 0
M  V30 3831 C 379.642 1.26845 1.57336 0
M  V30 3832 C 379.963 -0.160667 1.94337 0
M  V30 3833 O 379.233 -1.09396 1.6251 0
M  V30 3834 H 377.813 0.466514 0.583415 0
M  V30 3835 H 380.475 1.68526 0.979027 0
M  V30 3836 H 379.571 1.87513 2.4949 0
M  V30 3837 N 379.872 -1.04064 1.18357 0
M  V30 3838 C 380.819 -2.12077 0.910603 0
M  V30 3839 C 381.789 -1.65421 -0.15 0
M  V30 3840 O 382.974 -1.90797 -0.0103614 0
M  V30 3841 C 380.114 -3.42252 0.442472 0
M  V30 3842 C 379.227 -4.0252 1.5685 0
M  V30 3843 C 378.362 -5.20657 1.05309 0
M  V30 3844 C 377.401 -5.72955 2.1538 0
M  V30 3845 N 376.538 -6.8238 1.65233 0
M  V30 3846 H 381.378 -2.34764 1.83548 0
M  V30 3847 H 378.915 -1.15157 0.915279 0
M  V30 3848 H 380.873 -4.16921 0.152534 0
M  V30 3849 H 379.503 -3.19712 -0.445428 0
M  V30 3850 H 378.555 -3.25178 1.97391 0
M  V30 3851 H 379.867 -4.37362 2.39824 0
M  V30 3852 H 379.021 -6.0244 0.717677 0
M  V30 3853 H 377.76 -4.87318 0.19293 0
M  V30 3854 H 376.765 -4.89793 2.49766 0
M  V30 3855 H 377.99 -6.08337 3.01832 0
M  V30 3856 H 375.936 -6.50917 0.815064 0
M  V30 3857 H 375.853 -7.16286 2.41805 0
M  V30 3858 H 377.121 -7.67788 1.34619 0
M  V30 3859 N 381.35 -0.985608 -1.22978 0
M  V30 3860 C 382.575 -0.675254 -1.961 0
M  V30 3861 C 383 0.752154 -1.72407 0
M  V30 3862 O 382.358 1.5131 -0.998751 0
M  V30 3863 C 382.406 -0.977899 -3.47087 0
M  V30 3864 O 381.51 -0.072685 -4.12336 0
M  V30 3865 H 380.851 -0.253443 -0.613728 0
M  V30 3866 H 383.381 -1.32061 -1.56272 0
M  V30 3867 H 383.391 -0.916739 -3.97567 0
M  V30 3868 H 382.066 -2.01807 -3.63657 0
M  V30 3869 H 380.643 -0.188703 -3.72422 0
M  V30 3870 N 382.828 1.3818 -0.7579 0
M  V30 3871 C 384.239 1.82726 -0.383134 0
M  V30 3872 C 384.59 1.63214 1.08884 0
M  V30 3873 O 383.715 1.13566 1.84205 0
M  V30 3874 C 384.31 3.31728 -0.688631 0
M  V30 3875 C 382.869 3.74606 -0.367091 0
M  V30 3876 C 382.016 2.60896 -0.939599 0
M  V30 3877 H 384.967 1.26847 -0.953699 0
M  V30 3878 H 384.988 3.80487 0.0316492 0
M  V30 3879 H 384.5 3.45898 -1.76001 0
M  V30 3880 H 382.601 3.66013 0.697532 0
M  V30 3881 H 382.714 4.71215 -0.865658 0
M  V30 3882 H 381.078 2.52075 -0.3647 0
M  V30 3883 H 381.861 2.77864 -2.0161 0
M  V30 3884 N 384.306 0.507319 1.49211 0
M  V30 3885 C 385.236 -0.256939 2.32082 0
M  V30 3886 C 386.217 -0.956609 1.40652 0
M  V30 3887 O 387.402 -0.946788 1.69557 0
M  V30 3888 C 384.532 -1.31802 3.21318 0
M  V30 3889 C 383.486 -0.737855 4.21592 0
M  V30 3890 C 382.812 -1.89992 4.99807 0
M  V30 3891 C 384.112 0.275325 5.21574 0
M  V30 3892 H 385.806 0.434798 2.96226 0
M  V30 3893 H 383.352 0.210546 1.42452 0
M  V30 3894 H 385.305 -1.86045 3.78107 0
M  V30 3895 H 384.029 -2.03903 2.5513 0
M  V30 3896 H 382.688 -0.217126 3.65956 0
M  V30 3897 H 382.336 -2.60877 4.30061 0
M  V30 3898 H 382.036 -1.51777 5.6766 0
M  V30 3899 H 383.56 -2.44657 5.59442 0
M  V30 3900 H 384.974 -0.179193 5.7302 0
M  V30 3901 H 383.371 0.573649 5.97352 0
M  V30 3902 H 384.441 1.18903 4.70096 0
M  V30 3903 N 385.784 -1.5574 0.241426 0
M  V30 3904 C 387.033 -1.97986 -0.385295 0
M  V30 3905 C 387.346 -1.13267 -1.59468 0
M  V30 3906 O 388.552 -1.45501 -2.2922 0
M  V30 3907 C 387.008 -3.52275 -0.736884 0
M  V30 3908 C 386.616 -4.45726 0.450796 0
M  V30 3909 C 388.36 -4.03189 -1.3281 0
M  V30 3910 C 386.267 -5.91352 0.0756662 0
M  V30 3911 H 385.197 -0.739386 -0.147731 0
M  V30 3912 H 387.848 -1.80308 0.340779 0
M  V30 3913 H 386.23 -3.65628 -1.52094 0
M  V30 3914 H 387.404 -4.44131 1.22819 0
M  V30 3915 H 385.719 -4.05264 0.956573 0
M  V30 3916 H 388.316 -5.09505 -1.62201 0
M  V30 3917 H 388.659 -3.50212 -2.25071 0
M  V30 3918 H 389.192 -3.93141 -0.607069 0
M  V30 3919 H 385.931 -6.48354 0.965272 0
M  V30 3920 H 385.451 -5.96095 -0.665635 0
M  V30 3921 H 387.13 -6.46084 -0.344075 0
M  V30 3922 N 387.262 0.0317525 -1.57568 0
M  V30 3923 C 388.511 0.722131 -1.8833 0
M  V30 3924 C 388.824 1.76664 -0.839587 0
M  V30 3925 O 390.03 2.50942 -1.03635 0
M  V30 3926 C 388.486 1.33544 -3.34207 0
M  V30 3927 C 388.094 0.327415 -4.46802 0
M  V30 3928 C 389.838 2.00585 -3.7412 0
M  V30 3929 C 387.745 0.948915 -5.83738 0
M  V30 3930 H 386.675 0.273466 -0.702661 0
M  V30 3931 H 389.326 -0.0235811 -1.83485 0
M  V30 3932 H 387.708 2.13077 -3.33788 0
M  V30 3933 H 388.882 -0.441006 -4.58685 0
M  V30 3934 H 387.197 -0.240758 -4.15703 0
M  V30 3935 H 389.794 2.47932 -4.73744 0
M  V30 3936 H 390.137 2.82285 -3.05975 0
M  V30 3937 H 390.67 1.27831 -3.76702 0
M  V30 3938 H 387.409 0.171387 -6.55276 0
M  V30 3939 H 386.929 1.68724 -5.7558 0
M  V30 3940 H 388.608 1.45705 -6.3038 0
M  V30 3941 N 388.74 1.54641 0.303973 0
M  V30 3942 C 389.987 1.7378 1.03955 0
M  V30 3943 C 390.315 0.521986 1.87365 0
M  V30 3944 O 389.57 -0.496099 1.89308 0
M  V30 3945 C 389.869 2.97753 1.97681 0
M  V30 3946 C 389.535 4.31671 1.30271 0
M  V30 3947 C 388.197 4.68075 1.11619 0
M  V30 3948 C 390.549 5.147 0.82055 0
M  V30 3949 C 387.877 5.8509 0.434304 0
M  V30 3950 C 390.229 6.32416 0.152395 0
M  V30 3951 C 388.893 6.67484 -0.0461067 0
M  V30 3952 H 388.163 0.635908 0.380398 0
M  V30 3953 H 390.81 1.88896 0.314718 0
M  V30 3954 H 389.115 2.77406 2.76682 0
M  V30 3955 H 390.812 3.09756 2.54661 0
M  V30 3956 H 387.402 4.03041 1.45795 0
M  V30 3957 H 391.586 4.87077 0.952374 0
M  V30 3958 H 386.842 6.10806 0.269495 0
M  V30 3959 H 391.016 6.96023 -0.229126 0
M  V30 3960 H 388.643 7.58011 -0.576494 0
M  V30 3961 N 390.218 -0.567019 1.47046 0
M  V30 3962 C 391.443 -1.3551 1.57009 0
M  V30 3963 C 391.868 -1.86841 0.217259 0
M  V30 3964 O 391.226 -1.62435 -0.805268 0
M  V30 3965 C 391.274 -2.50777 2.5912 0
M  V30 3966 O 390.378 -3.52706 2.13711 0
M  V30 3967 H 389.719 -0.402919 0.52778 0
M  V30 3968 H 392.249 -0.686241 1.92748 0
M  V30 3969 H 392.259 -2.97481 2.79229 0
M  V30 3970 H 390.934 -2.12771 3.57353 0
M  V30 3971 H 389.511 -3.12374 2.03659 0
M  V30 3972 N 391.696 -1.35014 -0.812953 0
M  V30 3973 C 392.973 -1.18502 -1.55617 0
M  V30 3974 C 393.353 0.238421 -2.09749 0
M  V30 3975 O 392.701 1.2411 -1.91857 0
M  V30 3976 C 392.911 -2.24783 -2.66971 0
M  V30 3977 C 394.259 -2.60268 -3.35478 0
M  V30 3978 O 395.283 -2.23648 -2.77236 0
M  V30 3979 O 394.142 -3.2321 -4.40678 0
M  V30 3980 H 391.236 -0.459984 -0.687272 0
M  V30 3981 H 393.782 -1.46677 -0.853464 0
M  V30 3982 H 392.554 -3.20284 -2.24798 0
M  V30 3983 H 392.177 -1.97841 -3.44884 0
M  V30 3984 N 393.175 1.03435 -1.18907 0
M  V30 3985 C 394.415 1.78302 -0.999391 0
M  V30 3986 C 394.779 1.86353 0.462219 0
M  V30 3987 O 395.98 2.57489 0.771543 0
M  V30 3988 C 394.251 3.17362 -1.64365 0
M  V30 3989 S 395.81 4.08488 -1.6026 0
M  V30 3990 H 392.628 0.613861 -0.358742 0
M  V30 3991 H 395.23 1.23979 -1.51161 0
M  V30 3992 H 393.934 3.09116 -2.69955 0
M  V30 3993 H 393.465 3.76762 -1.13199 0
M  V30 3994 H 395.48 4.92274 -0.622932 0
M  V30 3995 N 394.653 0.992116 1.22453 0
M  V30 3996 C 395.93 0.583508 1.86694 0
M  V30 3997 C 396.31 -0.9392 1.89056 0
M  V30 3998 O 395.658 -1.82081 1.38053 0
M  V30 3999 C 395.868 1.20304 3.2761 0
M  V30 4000 C 397.216 1.30308 4.0411 0
M  V30 4001 O 398.24 1.15737 3.36873 0
M  V30 4002 O 397.099 1.53615 5.24466 0
M  V30 4003 H 394.193 0.198129 0.802916 0
M  V30 4004 H 396.739 1.08794 1.30238 0
M  V30 4005 H 395.511 2.24461 3.2052 0
M  V30 4006 H 395.134 0.684144 3.9167 0
M  V30 4007 N 396.131 -1.37776 0.765217 0
M  V30 4008 C 397.064 -2.28008 0.0935025 0
M  V30 4009 C 398.042 -1.45985 -0.716047 0
M  V30 4010 O 399.226 -1.75331 -0.692203 0
M  V30 4011 C 396.353 -3.27228 -0.874052 0
M  V30 4012 C 395.399 -4.26239 -0.149307 0
M  V30 4013 S 396.232 -5.22827 1.15809 0
M  V30 4014 C 397.388 -6.256 0.193906 0
M  V30 4015 H 397.621 -2.84631 0.858637 0
M  V30 4016 H 395.154 -1.43952 0.558313 0
M  V30 4017 H 397.112 -3.84902 -1.42691 0
M  V30 4018 H 395.773 -2.69565 -1.61225 0
M  V30 4019 H 394.966 -4.96213 -0.88254 0
M  V30 4020 H 394.568 -3.7252 0.332366 0
M  V30 4021 H 396.86 -6.74508 -0.636011 0
M  V30 4022 H 397.803 -7.02838 0.861638 0
M  V30 4023 H 398.211 -5.64173 -0.191975 0
M  V30 4024 N 397.609 -0.515225 -1.4894 0
M  V30 4025 C 398.557 0.269115 -2.31038 0
M  V30 4026 C 399.551 0.949443 -1.40292 0
M  V30 4027 O 400.757 0.87551 -1.57273 0
M  V30 4028 H 397.132 0.10565 -0.744542 0
M  V30 4029 H 399.103 -0.443096 -2.95092 0
M  V30 4030 C 397.852 1.31213 -3.21991 0
M  V30 4031 H 397.175 0.798034 -3.91754 0
M  V30 4032 H 398.615 1.83263 -3.82349 0
M  V30 4033 C 397.074 2.33791 -2.42576 0
M  V30 4034 O 397.604 3.3995 -2.14003 0
M  V30 4035 N 395.81 2.06625 -2.0434 0
M  V30 4036 H 395.357 1.20314 -2.27777 0
M  V30 4037 H 395.315 2.75483 -1.51514 0
M  V30 4038 N 399.087 1.5561 -0.249682 0
M  V30 4039 C 400.035 2.22894 0.664906 0
M  V30 4040 C 401.029 1.21743 1.17792 0
M  V30 4041 O 402.235 1.39748 1.13449 0
M  V30 4042 H 398.61 0.715022 0.232912 0
M  V30 4043 H 400.581 2.98307 0.0742998 0
M  V30 4044 C 399.33 2.94424 1.84959 0
M  V30 4045 H 398.653 3.72031 1.46399 0
M  V30 4046 H 400.093 3.44862 2.4667 0
M  V30 4047 C 398.552 1.98454 2.72245 0
M  V30 4048 O 399.082 1.51939 3.71857 0
M  V30 4049 N 397.288 1.65496 2.38871 0
M  V30 4050 H 396.835 2.03517 1.57919 0
M  V30 4051 H 396.793 1.0155 2.97548 0
M  V30 4052 N 400.565 -0.0233959 1.57583 0
M  V30 4053 C 401.528 -1.00693 2.05897 0
M  V30 4054 C 402.528 -1.28693 0.964092 0
M  V30 4055 O 403.718 -1.23602 1.22753 0
M  V30 4056 C 400.85 -2.33825 2.4807 0
M  V30 4057 H 402.043 -0.589476 2.9405 0
M  V30 4058 H 399.596 -0.270354 1.53944 0
M  V30 4059 H 400.331 -2.80307 1.6309 0
M  V30 4060 H 400.116 -2.1483 3.2801 0
M  V30 4061 H 401.606 -3.04426 2.85857 0
M  V30 4062 N 402.043 -1.548 -0.295768 0
M  V30 4063 C 403.289 -1.74588 -1.03184 0
M  V30 4064 C 403.622 -0.532962 -1.86744 0
M  V30 4065 O 402.897 0.469872 -1.88739 0
M  V30 4066 C 403.18 -3.03791 -1.93347 0
M  V30 4067 C 403.033 -4.35392 -1.12933 0
M  V30 4068 C 404.352 -3.28892 -2.92435 0
M  V30 4069 H 401.471 -0.635221 -0.373715 0
M  V30 4070 H 404.113 -1.87519 -0.30606 0
M  V30 4071 H 402.263 -2.92898 -2.55232 0
M  V30 4072 H 403.935 -4.58211 -0.532943 0
M  V30 4073 H 402.178 -4.31642 -0.432168 0
M  V30 4074 H 402.849 -5.22074 -1.79284 0
M  V30 4075 H 405.325 -3.39429 -2.4068 0
M  V30 4076 H 404.201 -4.20603 -3.52682 0
M  V30 4077 H 404.462 -2.47437 -3.6637 0
M  V30 4078 N 403.521 0.559213 -1.47345 0
M  V30 4079 C 404.468 1.66645 -1.59682 0
M  V30 4080 C 405.438 1.60168 -0.43994 0
M  V30 4081 O 406.623 1.79031 -0.659736 0
M  V30 4082 C 403.763 3.04969 -1.61518 0
M  V30 4083 C 402.876 3.21897 -2.88108 0
M  V30 4084 C 402.011 4.50608 -2.81294 0
M  V30 4085 C 401.05 4.60961 -4.02717 0
M  V30 4086 N 400.187 5.81024 -3.94151 0
M  V30 4087 H 405.027 1.55439 -2.54249 0
M  V30 4088 H 402.564 0.757219 -1.26113 0
M  V30 4089 H 404.522 3.85064 -1.60566 0
M  V30 4090 H 403.152 3.15015 -0.704645 0
M  V30 4091 H 402.204 2.35248 -2.98936 0
M  V30 4092 H 403.516 3.25412 -3.78032 0
M  V30 4093 H 402.67 5.3896 -2.7858 0
M  V30 4094 H 401.409 4.49568 -1.89049 0
M  V30 4095 H 400.414 3.71021 -4.05738 0
M  V30 4096 H 401.639 4.63761 -4.96087 0
M  V30 4097 H 399.585 5.80938 -3.04708 0
M  V30 4098 H 399.502 5.85909 -4.77752 0
M  V30 4099 H 400.77 6.71744 -3.9545 0
M  V30 4100 N 404.999 1.35443 0.805782 0
M  V30 4101 C 406.247 1.28507 1.55982 0
M  V30 4102 C 406.568 -0.140046 1.94496 0
M  V30 4103 O 405.838 -1.07666 1.63661 0
M  V30 4104 H 404.418 0.472676 0.578434 0
M  V30 4105 H 407.08 1.69555 0.961098 0
M  V30 4106 H 406.176 1.90148 2.47488 0
M  V30 4107 N 406.477 -1.02803 1.19454 0
M  V30 4108 C 407.44 -2.09264 0.934955 0
M  V30 4109 C 408.44 -1.60576 -0.0849015 0
M  V30 4110 O 409.63 -1.73554 0.149933 0
M  V30 4111 C 406.762 -3.38482 0.40531 0
M  V30 4112 H 407.955 -2.33726 1.87916 0
M  V30 4113 H 405.508 -1.19426 1.00832 0
M  V30 4114 H 406.243 -3.19689 -0.544899 0
M  V30 4115 H 406.028 -3.75142 1.14065 0
M  V30 4116 H 407.518 -4.16894 0.242806 0
M  V30 4117 N 407.956 -0.998596 -1.21925 0
M  V30 4118 C 408.886 -0.573688 -2.26343 0
M  V30 4119 C 409.867 0.402296 -1.65274 0
M  V30 4120 O 411.052 0.291683 -1.91997 0
M  V30 4121 C 408.182 0.106839 -3.47136 0
M  V30 4122 C 407.136 -0.788269 -4.20678 0
M  V30 4123 C 406.462 0.0254927 -5.34694 0
M  V30 4124 C 407.762 -2.08784 -4.78755 0
M  V30 4125 H 409.456 -1.44651 -2.62138 0
M  V30 4126 H 407.002 -0.696975 -1.26009 0
M  V30 4127 H 408.955 0.415531 -4.19346 0
M  V30 4128 H 407.679 1.01424 -3.10452 0
M  V30 4129 H 406.338 -1.08069 -3.50309 0
M  V30 4130 H 405.986 0.933989 -4.94253 0
M  V30 4131 H 405.686 -0.570437 -5.84825 0
M  V30 4132 H 407.21 0.328147 -6.09718 0
M  V30 4133 H 408.624 -1.84272 -5.42878 0
M  V30 4134 H 407.021 -2.63307 -5.39249 0
M  V30 4135 H 408.091 -2.76284 -3.98491 0
M  V30 4136 N 409.434 1.37368 -0.772513 0
M  V30 4137 C 410.367 2.27956 -0.105593 0
M  V30 4138 C 411.345 1.46362 0.708295 0
M  V30 4139 O 412.529 1.75695 0.682895 0
M  V30 4140 C 409.656 3.27687 0.856686 0
M  V30 4141 C 408.702 4.26312 0.1267 0
M  V30 4142 S 409.535 5.22206 -1.1858 0
M  V30 4143 C 410.691 6.25488 -0.227081 0
M  V30 4144 H 410.924 2.84171 -0.87372 0
M  V30 4145 H 408.457 1.43654 -0.565939 0
M  V30 4146 H 410.415 3.85653 1.40648 0
M  V30 4147 H 409.076 2.70417 1.59793 0
M  V30 4148 H 408.269 4.96674 0.856212 0
M  V30 4149 H 407.871 3.72339 -0.352117 0
M  V30 4150 H 410.163 6.74836 0.600231 0
M  V30 4151 H 411.106 7.02371 -0.898899 0
M  V30 4152 H 411.514 5.64267 0.162053 0
M  V30 4153 N 410.912 0.523116 1.48665 0
M  V30 4154 C 411.875 -0.232592 2.28017 0
M  V30 4155 C 412.875 -0.874021 1.34972 0
M  V30 4156 O 414.065 -0.735132 1.57929 0
M  V30 4157 C 411.197 -1.33586 3.13636 0
M  V30 4158 H 412.39 0.464008 2.96289 0
M  V30 4159 H 409.943 0.278816 1.53793 0
M  V30 4160 H 410.678 -2.06593 2.4998 0
M  V30 4161 H 410.463 -0.881125 3.82071 0
M  V30 4162 H 411.953 -1.86759 3.73511 0
M  V30 4163 N 412.39 -1.55475 0.257931 0
M  V30 4164 C 413.338 -2.23244 -0.653076 0
M  V30 4165 C 414.332 -1.22366 -1.17144 0
M  V30 4166 O 415.538 -1.40347 -1.12706 0
M  V30 4167 H 411.913 -0.716247 -0.229117 0
M  V30 4168 H 413.884 -2.98343 -0.0584788 0
M  V30 4169 C 412.633 -2.95401 -1.83395 0
M  V30 4170 H 411.956 -3.72802 -1.44424 0
M  V30 4171 H 413.396 -3.46165 -2.44838 0
M  V30 4172 C 411.855 -1.99895 -2.71189 0
M  V30 4173 O 412.385 -1.53909 -3.71046 0
M  V30 4174 N 410.591 -1.6676 -2.3799 0
M  V30 4175 H 410.138 -2.04352 -1.56837 0
M  V30 4176 H 410.096 -1.03127 -2.97005 0
M  V30 4177 N 413.868 0.0150385 -1.57593 0
M  V30 4178 C 415.115 0.703001 -1.89906 0
M  V30 4179 C 415.443 1.74604 -0.856944 0
M  V30 4180 O 414.698 1.95197 0.140287 0
M  V30 4181 C 414.997 1.39686 -3.28972 0
M  V30 4182 C 414.663 0.488457 -4.48246 0
M  V30 4183 C 413.325 0.2383 -4.8061 0
M  V30 4184 C 415.677 -0.137881 -5.21018 0
M  V30 4185 C 413.005 -0.646738 -5.83125 0
M  V30 4186 C 415.357 -1.0107 -6.24474 0
M  V30 4187 C 414.021 -1.27019 -6.55303 0
M  V30 4188 H 413.291 0.257246 -0.694914 0
M  V30 4189 H 415.938 -0.037259 -1.91464 0
M  V30 4190 H 414.243 2.21079 -3.23468 0
M  V30 4191 H 415.94 1.93495 -3.51227 0
M  V30 4192 H 412.53 0.693593 -4.22951 0
M  V30 4193 H 416.714 0.0423953 -4.96282 0
M  V30 4194 H 411.97 -0.855937 -6.05379 0
M  V30 4195 H 416.144 -1.50247 -6.79999 0
M  V30 4196 H 413.771 -1.95769 -7.3456 0
M  V30 4197 N 415.346 1.54954 0.287554 0
M  V30 4198 C 416.276 1.89839 1.35954 0
M  V30 4199 C 417.257 0.758675 1.52244 0
M  V30 4200 O 418.442 1.01557 1.65529 0
M  V30 4201 C 415.572 2.15753 2.72154 0
M  V30 4202 C 414.526 3.3159 2.70614 0
M  V30 4203 C 413.852 3.42952 4.10229 0
M  V30 4204 C 415.152 4.68359 2.31165 0
M  V30 4205 H 416.846 2.79625 1.07007 0
M  V30 4206 H 414.392 1.3454 0.513316 0
M  V30 4207 H 416.345 2.38743 3.47246 0
M  V30 4208 H 415.069 1.22752 3.02654 0
M  V30 4209 H 413.728 3.08545 1.97979 0
M  V30 4210 H 413.376 2.47443 4.37928 0
M  V30 4211 H 413.076 4.20826 4.10097 0
M  V30 4212 H 414.6 3.68218 4.87081 0
M  V30 4213 H 416.014 4.9099 2.95976 0
M  V30 4214 H 414.411 5.49044 2.42221 0
M  V30 4215 H 415.481 4.68165 1.26291 0
M  V30 4216 N 416.824 -0.551391 1.4764 0
M  V30 4217 C 418.052 -1.33357 1.58189 0
M  V30 4218 C 418.467 -1.87342 0.234199 0
M  V30 4219 O 417.824 -1.65301 -0.77343 0
M  V30 4220 C 417.875 -2.49942 2.61173 0
M  V30 4221 O 417.596 -1.98187 3.90709 0
M  V30 4222 C 419.097 -3.42072 2.8196 0
M  V30 4223 H 416.317 -0.40631 0.533998 0
M  V30 4224 H 418.861 -0.667367 1.93304 0
M  V30 4225 H 417.016 -3.12489 2.28975 0
M  V30 4226 H 417.43 -2.74342 4.47031 0
M  V30 4227 H 418.904 -4.20278 3.57869 0
M  V30 4228 H 419.381 -3.95978 1.89995 0
M  V30 4229 H 419.987 -2.85336 3.15378 0
M  V30 4230 N 418.302 -1.35869 -0.798587 0
M  V30 4231 C 419.234 -1.25305 -1.91915 0
M  V30 4232 C 420.247 -0.174548 -1.61862 0
M  V30 4233 O 421.436 -0.428499 -1.73281 0
M  V30 4234 C 418.536 -0.9086 -3.26493 0
M  V30 4235 C 417.709 -2.08711 -3.84394 0
M  V30 4236 C 416.768 -1.71717 -4.97393 0
M  V30 4237 O 415.794 -2.43692 -5.14396 0
M  V30 4238 N 416.996 -0.645473 -5.769 0
M  V30 4239 H 419.761 -2.21849 -2.01502 0
M  V30 4240 H 417.322 -1.29143 -0.976408 0
M  V30 4241 H 419.314 -0.642455 -3.99568 0
M  V30 4242 H 417.884 -0.0325815 -3.12583 0
M  V30 4243 H 417.104 -2.51659 -3.03416 0
M  V30 4244 H 418.392 -2.87468 -4.19809 0
M  V30 4245 H 417.79 -0.047648 -5.6568 0
M  V30 4246 H 416.347 -0.43913 -6.50319 0
M  V30 4247 N 419.78 1.02168 -1.19998 0
M  V30 4248 C 421.028 1.75338 -1.00504 0
M  V30 4249 C 421.349 1.89387 0.464506 0
M  V30 4250 O 420.619 1.43268 1.33608 0
M  V30 4251 H 419.199 0.649564 -0.368885 0
M  V30 4252 H 421.861 1.23205 -1.51018 0
M  V30 4253 H 420.957 2.75892 -1.45912 0
M  V30 4254 N 421.258 1.00505 1.21394 0
M  V30 4255 C 422.19 0.52372 2.23136 0
M  V30 4256 C 423.203 -0.387714 1.58116 0
M  V30 4257 O 424.392 -0.187905 1.77508 0
M  V30 4258 C 421.492 -0.258885 3.3791 0
M  V30 4259 C 420.665 0.651634 4.32519 0
M  V30 4260 C 419.724 -0.0813705 5.26137 0
M  V30 4261 O 418.75 0.537295 5.66658 0
M  V30 4262 N 419.952 -1.35992 5.64346 0
M  V30 4263 H 422.717 1.39865 2.65062 0
M  V30 4264 H 420.278 0.881196 1.35818 0
M  V30 4265 H 422.27 -0.758208 3.97534 0
M  V30 4266 H 420.84 -1.035 2.94968 0
M  V30 4267 H 420.06 1.33145 3.71034 0
M  V30 4268 H 421.348 1.27129 4.92662 0
M  V30 4269 H 420.746 -1.88368 5.33417 0
M  V30 4270 H 419.303 -1.8042 6.26332 0
M  V30 4271 N 422.737 -1.36956 0.779787 0
M  V30 4272 C 423.983 -1.99787 0.348281 0
M  V30 4273 C 424.316 -1.61756 -1.07465 0
M  V30 4274 O 423.591 -0.867639 -1.74075 0
M  V30 4275 C 423.874 -3.56597 0.50104 0
M  V30 4276 C 423.727 -4.04513 1.96697 0
M  V30 4277 C 425.046 -4.40008 -0.0898097 0
M  V30 4278 H 422.165 -0.725796 0.128022 0
M  V30 4279 H 424.807 -1.62514 0.984331 0
M  V30 4280 H 422.957 -3.88479 -0.0404347 0
M  V30 4281 H 424.629 -3.83161 2.56876 0
M  V30 4282 H 422.872 -3.56408 2.47297 0
M  V30 4283 H 423.543 -5.1352 2.02486 0
M  V30 4284 H 426.019 -4.14431 0.372293 0
M  V30 4285 H 424.895 -5.4888 0.0471605 0
M  V30 4286 H 425.156 -4.26035 -1.18096 0
M  V30 4287 N 424.215 -0.530993 -1.48385 0
M  V30 4288 C 425.455 0.000718982 -2.044 0
M  V30 4289 C 425.819 1.31485 -1.39913 0
M  V30 4290 O 427.02 1.93265 -1.86821 0
M  V30 4291 C 425.291 0.119177 -3.57201 0
M  V30 4292 S 426.85 0.600806 -4.34667 0
M  V30 4293 H 423.668 -0.0125473 -0.710889 0
M  V30 4294 H 426.27 -0.711783 -1.82082 0
M  V30 4295 H 424.974 -0.842061 -4.01668 0
M  V30 4296 H 424.505 0.856026 -3.83974 0
M  V30 4297 H 426.52 1.86514 -4.59812 0
M  V30 4298 N 425.693 1.55336 -0.266172 0
M  V30 4299 C 426.933 2.01303 0.354459 0
M  V30 4300 C 427.297 1.15046 1.53715 0
M  V30 4301 O 428.498 1.50554 2.22681 0
M  V30 4302 C 426.769 3.49748 0.735579 0
M  V30 4303 S 428.328 4.1771 1.34401 0
M  V30 4304 H 425.146 0.702333 0.110674 0
M  V30 4305 H 427.748 1.91653 -0.385916 0
M  V30 4306 H 426.452 4.10181 -0.134196 0
M  V30 4307 H 425.983 3.63364 1.50764 0
M  V30 4308 H 427.998 4.20594 2.63278 0
M  V30 4309 N 427.171 -0.0066808 1.57599 0
M  V30 4310 C 428.119 -1.01851 2.09115 0
M  V30 4311 C 429.113 -1.36021 1.00969 0
M  V30 4312 O 430.319 -1.34663 1.19439 0
M  V30 4313 H 426.694 -0.346083 0.667631 0
M  V30 4314 H 428.665 -0.558394 2.93129 0
M  V30 4315 C 427.414 -2.30374 2.60429 0
M  V30 4316 H 426.737 -2.04947 3.43273 0
M  V30 4317 H 428.177 -2.99466 3.00161 0
M  V30 4318 C 426.636 -3.00893 1.51542 0
M  V30 4319 O 427.166 -3.91614 0.894484 0
M  V30 4320 N 425.372 -2.62603 1.2445 0
M  V30 4321 H 424.919 -1.88911 1.75129 0
M  V30 4322 H 424.877 -3.10101 0.518137 0
M  V30 4323 N 428.649 -1.55105 -0.279332 0
M  V30 4324 C 429.897 -1.75066 -1.00977 0
M  V30 4325 C 430.218 -0.551276 -1.87045 0
M  V30 4326 O 429.488 0.433984 -1.91032 0
M  V30 4327 H 428.068 -0.645578 -0.375816 0
M  V30 4328 H 430.73 -1.92497 -0.305089 0
M  V30 4329 H 429.826 -2.64894 -1.65038 0
M  V30 4330 N 430.127 0.543554 -1.4793 0
M  V30 4331 C 431.355 1.32516 -1.58894 0
M  V30 4332 C 431.77 1.87215 -0.244131 0
M  V30 4333 O 431.127 1.65709 0.764652 0
M  V30 4334 C 431.178 2.48554 -2.62494 0
M  V30 4335 O 430.899 1.96112 -3.91755 0
M  V30 4336 C 432.4 3.40572 -2.8377 0
M  V30 4337 H 429.62 0.403472 -0.536145 0
M  V30 4338 H 432.164 0.657106 -1.93655 0
M  V30 4339 H 430.319 3.1127 -2.30629 0
M  V30 4340 H 430.733 2.71967 -4.4848 0
M  V30 4341 H 432.207 4.18375 -3.60093 0
M  V30 4342 H 432.684 3.94965 -1.92092 0
M  V30 4343 H 433.29 2.8366 -3.16887 0
M  V30 4344 N 431.605 1.3629 0.791371 0
M  V30 4345 C 433.021 1.16661 1.08914 0
M  V30 4346 C 433.221 -0.0106266 2.01497 0
M  V30 4347 O 432.277 -0.676596 2.43266 0
M  V30 4348 C 433.59 2.47656 1.70549 0
M  V30 4349 C 435.138 2.54002 1.82899 0
M  V30 4350 C 435.613 3.85078 2.47949 0
M  V30 4351 N 437.104 3.86413 2.5542 0
M  V30 4352 C 437.839 4.84572 3.06557 0
M  V30 4353 N 437.335 5.93124 3.58016 0
M  V30 4354 N 439.128 4.71994 3.05251 0
M  V30 4355 H 431.279 2.11668 0.176238 0
M  V30 4356 H 433.542 0.937486 0.140796 0
M  V30 4357 H 433.248 3.34059 1.09989 0
M  V30 4358 H 433.122 2.63319 2.70079 0
M  V30 4359 H 435.509 1.68018 2.42598 0
M  V30 4360 H 435.59 2.42239 0.821808 0
M  V30 4361 H 435.234 4.71467 1.88895 0
M  V30 4362 H 435.164 3.94135 3.49235 0
M  V30 4363 H 437.655 3.07988 2.18979 0
M  V30 4364 H 437.968 6.63999 3.95381 0
M  V30 4365 H 436.313 5.96796 3.56173 0
M  V30 4366 H 439.504 3.86321 2.64336 0
M  V30 4367 H 439.677 5.48653 3.44796 0
M  V30 4368 N 433.083 -1.0153 1.20538 0
M  V30 4369 C 434.329 -1.75408 1.01783 0
M  V30 4370 C 434.662 -1.88943 -0.448814 0
M  V30 4371 O 433.937 -1.4162 -1.33319 0
M  V30 4372 C 434.22 -3.17255 1.70356 0
M  V30 4373 C 434.073 -3.11508 3.24473 0
M  V30 4374 C 435.392 -4.15955 1.43769 0
M  V30 4375 H 432.511 -0.636713 0.371167 0
M  V30 4376 H 435.153 -1.18436 1.4857 0
M  V30 4377 H 433.303 -3.65898 1.30578 0
M  V30 4378 H 434.975 -2.70658 3.73553 0
M  V30 4379 H 433.218 -2.4887 3.55311 0
M  V30 4380 H 433.889 -4.11784 3.67611 0
M  V30 4381 H 436.365 -3.75973 1.7828 0
M  V30 4382 H 435.241 -5.13368 1.94279 0
M  V30 4383 H 435.502 -4.40586 0.365564 0
M  V30 4384 N 434.561 -1.01147 -1.20859 0
M  V30 4385 C 435.808 -0.697865 -1.90095 0
M  V30 4386 C 436.136 0.772014 -1.78522 0
M  V30 4387 O 435.391 1.57595 -1.16027 0
M  V30 4388 C 435.69 -1.0727 -3.40922 0
M  V30 4389 C 435.356 -2.53792 -3.72693 0
M  V30 4390 C 434.018 -2.93829 -3.81075 0
M  V30 4391 C 436.37 -3.48674 -3.87397 0
M  V30 4392 C 433.698 -4.27696 -4.01613 0
M  V30 4393 C 436.05 -4.82223 -4.09444 0
M  V30 4394 C 434.714 -5.21973 -4.16054 0
M  V30 4395 H 433.984 -0.255367 -0.695607 0
M  V30 4396 H 436.631 -1.27111 -1.43231 0
M  V30 4397 H 434.936 -0.417799 -3.89566 0
M  V30 4398 H 436.633 -0.807818 -3.92779 0
M  V30 4399 H 433.223 -2.21768 -3.66765 0
M  V30 4400 H 437.407 -3.18904 -3.80281 0
M  V30 4401 H 432.663 -4.58055 -4.04964 0
M  V30 4402 H 436.837 -5.55672 -4.19763 0
M  V30 4403 H 434.464 -6.25717 -4.31721 0
M  V30 4404 N 436.039 1.36541 -0.78704 0
M  V30 4405 C 437.285 1.99599 -0.358872 0
M  V30 4406 C 437.618 1.62323 1.06606 0
M  V30 4407 O 436.893 0.876858 1.73613 0
M  V30 4408 C 437.176 3.56327 -0.519944 0
M  V30 4409 C 437.029 4.03464 -1.98839 0
M  V30 4410 C 438.348 4.4005 0.0664737 0
M  V30 4411 H 435.467 0.725107 -0.131869 0
M  V30 4412 H 438.109 1.6199 -0.992936 0
M  V30 4413 H 436.259 3.88495 0.0198321 0
M  V30 4414 H 437.931 3.81793 -2.58905 0
M  V30 4415 H 436.174 3.55092 -2.49183 0
M  V30 4416 H 436.845 5.12439 -2.05207 0
M  V30 4417 H 439.321 4.14228 -0.394267 0
M  V30 4418 H 438.197 5.48847 -0.0762682 0
M  V30 4419 H 438.458 4.26655 1.15835 0
M  V30 4420 N 437.518 0.538854 1.48102 0
M  V30 4421 C 438.45 -0.256278 2.27763 0
M  V30 4422 C 439.463 -0.89633 1.35904 0
M  V30 4423 O 440.652 -0.773275 1.60881 0
M  V30 4424 C 437.752 -1.37896 3.09577 0
M  V30 4425 C 436.925 -0.839159 4.29275 0
M  V30 4426 C 435.984 -1.84405 4.9283 0
M  V30 4427 O 435.01 -1.39746 5.51779 0
M  V30 4428 N 436.212 -3.17666 4.85869 0
M  V30 4429 H 438.977 0.426968 2.96643 0
M  V30 4430 H 436.538 0.373747 1.57527 0
M  V30 4431 H 438.53 -2.04955 3.48963 0
M  V30 4432 H 437.1 -1.96572 2.4306 0
M  V30 4433 H 436.32 0.00769287 3.94199 0
M  V30 4434 H 437.608 -0.457548 5.06739 0
M  V30 4435 H 437.006 -3.56609 4.39143 0
M  V30 4436 H 435.563 -3.80334 5.29329 0
M  V30 4437 N 438.996 -1.55193 0.274407 0
M  V30 4438 C 439.943 -2.225 -0.613374 0
M  V30 4439 C 440.913 -1.19823 -1.15029 0
M  V30 4440 O 442.098 -1.48362 -1.19973 0
M  V30 4441 C 439.238 -2.94927 -1.79199 0
M  V30 4442 C 438.351 -4.12322 -1.28899 0
M  V30 4443 C 437.486 -4.72394 -2.42934 0
M  V30 4444 C 436.525 -5.81984 -1.89634 0
M  V30 4445 N 435.662 -6.36123 -2.9714 0
M  V30 4446 H 440.502 -2.97982 -0.032756 0
M  V30 4447 H 438.039 -1.47099 -0.00440146 0
M  V30 4448 H 439.997 -3.35134 -2.48478 0
M  V30 4449 H 438.627 -2.2187 -2.34465 0
M  V30 4450 H 437.679 -3.7724 -0.489327 0
M  V30 4451 H 438.991 -4.91355 -0.858587 0
M  V30 4452 H 438.145 -5.15317 -3.20208 0
M  V30 4453 H 436.884 -3.92636 -2.8929 0
M  V30 4454 H 435.889 -5.38511 -1.1084 0
M  V30 4455 H 437.114 -6.6361 -1.44215 0
M  V30 4456 H 435.06 -5.59259 -3.42878 0
M  V30 4457 H 434.977 -7.10427 -2.58515 0
M  V30 4458 H 436.245 -6.83704 -3.74391 0
M  V30 4459 N 440.474 -0.00167713 -1.576 0
M  V30 4460 C 441.384 1.00548 -2.1196 0
M  V30 4461 C 442.4 1.3758 -1.06526 0
M  V30 4462 O 443.576 1.46278 -1.38436 0
M  V30 4463 C 440.641 2.27809 -2.6135 0
M  V30 4464 C 439.702 1.97074 -3.81393 0
M  V30 4465 C 438.935 3.18267 -4.28417 0
M  V30 4466 O 439.158 4.30009 -3.74765 0
M  V30 4467 O 438.092 3.02167 -5.20556 0
M  V30 4468 H 441.918 0.573373 -2.98238 0
M  V30 4469 H 439.503 0.217255 -1.47812 0
M  V30 4470 H 441.385 3.02568 -2.93309 0
M  V30 4471 H 440.06 2.70254 -1.78169 0
M  V30 4472 H 438.967 1.19785 -3.54404 0
M  V30 4473 H 440.3 1.59464 -4.65652 0
M  V30 4474 N 441.952 1.55251 0.271103 0
M  V30 4475 C 443.201 1.75151 1.00025 0
M  V30 4476 C 443.514 0.561041 1.87381 0
M  V30 4477 O 444.72 0.642506 2.63788 0
M  V30 4478 C 443.176 3.09999 1.82835 0
M  V30 4479 C 442.784 4.3662 1.00336 0
M  V30 4480 C 444.528 3.39249 2.55168 0
M  V30 4481 C 442.435 5.62506 1.82595 0
M  V30 4482 H 441.365 0.652877 0.377183 0
M  V30 4483 H 444.016 1.81708 0.255843 0
M  V30 4484 H 442.398 2.97485 2.61378 0
M  V30 4485 H 443.572 4.60055 0.261959 0
M  V30 4486 H 441.887 4.14527 0.394486 0
M  V30 4487 H 444.484 4.3051 3.1712 0
M  V30 4488 H 444.827 2.59467 3.2555 0
M  V30 4489 H 445.36 3.52869 1.83653 0
M  V30 4490 H 442.099 6.45041 1.16631 0
M  V30 4491 H 441.619 5.43211 2.54327 0
M  V30 4492 H 443.298 6.00875 2.39913 0
M  V30 4493 N 443.43 -0.535701 1.48216 0
M  V30 4494 C 444.36 -1.65014 1.65204 0
M  V30 4495 C 445.341 -1.62554 0.501011 0
M  V30 4496 O 446.526 -1.7984 0.732886 0
M  V30 4497 C 443.656 -3.03616 1.68626 0
M  V30 4498 C 442.61 -3.20932 2.83172 0
M  V30 4499 C 441.936 -4.60537 2.71679 0
M  V30 4500 C 443.236 -3.04249 4.24535 0
M  V30 4501 H 444.93 -1.51053 2.58502 0
M  V30 4502 H 442.476 -0.725262 1.24402 0
M  V30 4503 H 444.429 -3.81446 1.79099 0
M  V30 4504 H 443.153 -3.18587 0.719026 0
M  V30 4505 H 441.812 -2.45517 2.72244 0
M  V30 4506 H 441.46 -4.72336 1.72937 0
M  V30 4507 H 441.16 -4.73069 3.48538 0
M  V30 4508 H 442.684 -5.40475 2.84112 0
M  V30 4509 H 444.098 -3.71877 4.36326 0
M  V30 4510 H 442.495 -3.28278 5.02348 0
M  V30 4511 H 443.565 -2.00739 4.41397 0
M  V30 4512 N 444.908 -1.36708 -0.784132 0
M  V30 4513 C 446.185 -1.21776 -1.53069 0
M  V30 4514 C 446.565 0.193876 -2.10208 0
M  V30 4515 O 445.913 1.20012 -1.94446 0
M  V30 4516 C 446.123 -2.30395 -2.62143 0
M  V30 4517 C 447.471 -2.67325 -3.29882 0
M  V30 4518 O 448.495 -2.29478 -2.7243 0
M  V30 4519 O 447.354 -3.32485 -4.33724 0
M  V30 4520 H 444.448 -0.474459 -0.677361 0
M  V30 4521 H 446.994 -1.48454 -0.82216 0
M  V30 4522 H 445.766 -3.2498 -2.17953 0
M  V30 4523 H 445.389 -2.05112 -3.40609 0
M  V30 4524 N 446.386 1.0089 -1.21074 0
M  V30 4525 C 447.333 2.09588 -0.966512 0
M  V30 4526 C 448.303 1.65761 0.106089 0
M  V30 4527 O 449.488 1.90758 -0.0402287 0
M  V30 4528 C 446.628 3.40958 -0.533058 0
M  V30 4529 C 445.741 3.9822 -1.67467 0
M  V30 4530 C 444.876 5.17682 -1.19076 0
M  V30 4531 C 443.915 5.67043 -2.30496 0
M  V30 4532 N 443.052 6.77759 -1.83267 0
M  V30 4533 H 447.892 2.29815 -1.89708 0
M  V30 4534 H 445.429 1.12689 -0.945489 0
M  V30 4535 H 447.387 4.1637 -0.263019 0
M  V30 4536 H 446.017 3.20781 0.360505 0
M  V30 4537 H 445.069 3.1983 -2.05944 0
M  V30 4538 H 446.381 4.3085 -2.51336 0
M  V30 4539 H 445.535 6.00326 -0.877151 0
M  V30 4540 H 444.274 4.86635 -0.322066 0
M  V30 4541 H 443.279 4.82999 -2.62664 0
M  V30 4542 H 444.504 6.00121 -3.17855 0
M  V30 4543 H 442.45 6.48527 -0.987356 0
M  V30 4544 H 442.367 7.09624 -2.60711 0
M  V30 4545 H 443.635 7.63949 -1.54928 0
M  V30 4546 N 447.864 1.01787 1.20321 0
M  V30 4547 C 449.111 0.707936 1.89722 0
M  V30 4548 C 449.439 -0.762535 1.78929 0
M  V30 4549 O 448.694 -1.56977 1.16861 0
M  V30 4550 C 448.993 1.09076 3.40349 0
M  V30 4551 C 448.659 2.55765 3.71342 0
M  V30 4552 C 447.321 2.95845 3.79511 0
M  V30 4553 C 449.673 3.50723 3.85542 0
M  V30 4554 C 447.001 4.2982 3.99339 0
M  V30 4555 C 449.353 4.84387 4.06881 0
M  V30 4556 C 448.017 5.24172 4.1328 0
M  V30 4557 H 447.287 0.259052 0.694243 0
M  V30 4558 H 449.934 1.27868 1.42555 0
M  V30 4559 H 448.239 0.438453 3.89339 0
M  V30 4560 H 449.936 0.828636 3.92345 0
M  V30 4561 H 446.526 2.2371 3.65584 0
M  V30 4562 H 450.71 3.20916 3.78585 0
M  V30 4563 H 445.966 4.60196 4.02529 0
M  V30 4564 H 450.14 5.57891 4.1681 0
M  V30 4565 H 447.767 6.27997 4.28396 0
M  V30 4566 N 449.342 -1.36122 0.79427 0
M  V30 4567 C 450.57 -2.03362 0.380989 0
M  V30 4568 C 450.985 -1.59881 -1.00416 0
M  V30 4569 O 450.342 -0.790515 -1.6449 0
M  V30 4570 C 450.393 -3.58804 0.440649 0
M  V30 4571 O 450.114 -4.007 1.77118 0
M  V30 4572 C 451.615 -4.43296 0.0186117 0
M  V30 4573 H 448.835 -0.652526 0.156367 0
M  V30 4574 H 451.379 -1.73998 1.07447 0
M  V30 4575 H 449.534 -3.8686 -0.204458 0
M  V30 4576 H 449.948 -4.95309 1.72538 0
M  V30 4577 H 451.422 -5.51887 0.111488 0
M  V30 4578 H 451.899 -4.2684 -1.03461 0
M  V30 4579 H 452.505 -4.20512 0.636395 0
M  V30 4580 N 450.82 -0.546701 -1.47814 0
M  V30 4581 C 451.73 0.21026 -2.33656 0
M  V30 4582 C 452.746 0.922413 -1.47538 0
M  V30 4583 O 453.922 0.893652 -1.80488 0
M  V30 4584 C 450.987 1.23348 -3.24016 0
M  V30 4585 C 450.048 0.529883 -4.26017 0
M  V30 4586 C 449.281 1.50435 -5.12059 0
M  V30 4587 O 449.504 2.73837 -5.00369 0
M  V30 4588 O 448.438 1.03459 -5.92942 0
M  V30 4589 H 452.264 -0.493605 -2.99662 0
M  V30 4590 H 449.849 -0.307427 -1.46203 0
M  V30 4591 H 451.731 1.82438 -3.79861 0
M  V30 4592 H 450.406 1.91945 -2.60651 0
M  V30 4593 H 449.313 -0.101948 -3.73961 0
M  V30 4594 H 450.646 -0.11445 -4.92067 0
M  V30 4595 N 452.299 1.55045 -0.282633 0
M  V30 4596 C 453.209 2.26491 0.61147 0
M  V30 4597 C 454.225 1.29348 1.16384 0
M  V30 4598 O 455.401 1.62298 1.19253 0
M  V30 4599 C 452.466 2.97779 1.77563 0
M  V30 4600 C 451.527 4.10418 1.25919 0
M  V30 4601 C 450.76 4.78297 2.36786 0
M  V30 4602 O 450.983 4.45426 3.56303 0
M  V30 4603 O 449.917 5.66089 2.04517 0
M  V30 4604 H 453.743 3.03683 0.0324615 0
M  V30 4605 H 451.328 1.49317 -0.0497576 0
M  V30 4606 H 453.21 3.42554 2.45427 0
M  V30 4607 H 451.885 2.23498 2.34159 0
M  V30 4608 H 450.792 3.70082 0.546797 0
M  V30 4609 H 452.125 4.86622 0.738887 0
M  V30 4610 N 453.777 0.010035 1.57597 0
M  V30 4611 C 455.023 -0.673697 1.91283 0
M  V30 4612 C 455.356 -1.72863 0.884979 0
M  V30 4613 O 454.631 -1.94268 -0.0949487 0
M  V30 4614 C 454.914 -1.30766 3.35518 0
M  V30 4615 C 454.767 -0.263578 4.49027 0
M  V30 4616 C 456.086 -2.23105 3.79358 0
M  V30 4617 H 453.205 -0.243439 0.695634 0
M  V30 4618 H 455.847 0.0633864 1.89894 0
M  V30 4619 H 453.997 -1.93588 3.36832 0
M  V30 4620 H 455.669 0.365738 4.59848 0
M  V30 4621 H 453.912 0.413077 4.31829 0
M  V30 4622 H 454.583 -0.746398 5.4693 0
M  V30 4623 H 457.059 -1.70289 3.79659 0
M  V30 4624 H 455.935 -2.64424 4.81011 0
M  V30 4625 H 456.196 -3.11433 3.13787 0
M  V30 4626 N 455.255 -1.55392 -0.262866 0
M  V30 4627 C 456.501 -1.76737 -0.99458 0
M  V30 4628 C 456.834 -0.572453 -1.85571 0
M  V30 4629 O 456.109 0.429732 -1.89693 0
M  V30 4630 C 456.392 -3.07824 -1.8686 0
M  V30 4631 C 456.245 -4.3769 -1.03672 0
M  V30 4632 C 457.564 -3.35021 -2.85393 0
M  V30 4633 H 454.683 -0.643005 -0.360157 0
M  V30 4634 H 457.325 -1.88126 -0.266216 0
M  V30 4635 H 455.475 -2.98245 -2.48962 0
M  V30 4636 H 457.147 -4.59238 -0.43563 0
M  V30 4637 H 455.39 -4.32461 -0.340513 0
M  V30 4638 H 456.061 -5.25759 -1.6817 0
M  V30 4639 H 458.537 -3.44458 -2.33426 0
M  V30 4640 H 457.413 -4.27989 -3.43681 0
M  V30 4641 H 457.674 -2.55153 -3.61039 0
M  V30 4642 N 456.733 0.527833 -1.48498 0
M  V30 4643 C 457.68 1.6322 -1.6318 0
M  V30 4644 C 458.65 1.59199 -0.473815 0
M  V30 4645 O 459.835 1.77591 -0.697563 0
M  V30 4646 C 456.975 3.01474 -1.67951 0
M  V30 4647 C 456.088 3.15713 -2.94871 0
M  V30 4648 C 455.223 4.44539 -2.90789 0
M  V30 4649 C 454.262 4.52315 -4.12404 0
M  V30 4650 N 453.399 5.72533 -4.06387 0
M  V30 4651 H 458.239 1.50011 -2.57489 0
M  V30 4652 H 455.776 0.730298 -1.27691 0
M  V30 4653 H 457.734 3.81572 -1.68698 0
M  V30 4654 H 456.364 3.1345 -0.771306 0
M  V30 4655 H 455.416 2.28854 -3.03859 0
M  V30 4656 H 456.728 3.1732 -3.8485 0
M  V30 4657 H 455.882 5.3293 -2.89949 0
M  V30 4658 H 454.621 4.45457 -1.98542 0
M  V30 4659 H 453.626 3.62331 -4.13517 0
M  V30 4660 H 454.851 4.53134 -5.05812 0
M  V30 4661 H 452.797 5.74344 -3.16962 0
M  V30 4662 H 452.714 5.75643 -4.90073 0
M  V30 4663 H 453.982 6.63204 -4.0961 0
M  V30 4664 N 458.211 1.37122 0.776871 0
M  V30 4665 C 459.143 1.28342 1.89897 0
M  V30 4666 C 460.156 0.200277 1.61563 0
M  V30 4667 O 461.345 0.456012 1.72577 0
M  V30 4668 C 458.445 0.960427 3.25006 0
M  V30 4669 C 457.618 2.148 3.81025 0
M  V30 4670 C 456.677 1.79608 4.94598 0
M  V30 4671 O 455.703 2.51845 5.10454 0
M  V30 4672 N 456.905 0.737171 5.758 0
M  V30 4673 H 459.67 2.25027 1.97947 0
M  V30 4674 H 457.231 1.3068 0.955739 0
M  V30 4675 H 459.223 0.705942 3.98495 0
M  V30 4676 H 457.793 0.0823066 3.12492 0
M  V30 4677 H 457.013 2.56454 2.99374 0
M  V30 4678 H 458.301 2.9411 4.15183 0
M  V30 4679 H 457.699 0.137637 5.65533 0
M  V30 4680 H 456.256 0.542534 6.49538 0
M  V30 4681 N 459.689 -1.00246 1.21608 0
M  V30 4682 C 460.917 -1.77631 1.06089 0
M  V30 4683 C 461.332 -1.84746 -0.38916 0
M  V30 4684 O 460.689 -1.31068 -1.26994 0
M  V30 4685 C 460.74 -3.21415 1.65453 0
M  V30 4686 O 460.461 -3.14703 3.04785 0
M  V30 4687 C 461.962 -4.15289 1.55079 0
M  V30 4688 H 459.182 -0.558162 0.37242 0
M  V30 4689 H 461.726 -1.26093 1.60999 0
M  V30 4690 H 459.881 -3.70053 1.14629 0
M  V30 4691 H 460.295 -4.05056 3.33212 0
M  V30 4692 H 461.769 -5.13965 2.01355 0
M  V30 4693 H 462.246 -4.36279 0.505665 0
M  V30 4694 H 462.852 -3.72543 2.05163 0
M  V30 4695 N 461.167 -1.02423 -1.1978 0
M  V30 4696 C 462.099 -0.559152 -2.22275 0
M  V30 4697 C 463.112 0.36251 -1.58713 0
M  V30 4698 O 464.301 0.159641 -1.77785 0
M  V30 4699 C 461.401 0.205094 -3.38279 0
M  V30 4700 C 460.574 -0.720361 -4.31427 0
M  V30 4701 C 459.633 -0.00234368 -5.262 0
M  V30 4702 O 458.659 -0.627378 -5.65732 0
M  V30 4703 N 459.861 1.26996 -5.66438 0
M  V30 4704 H 462.626 -1.44064 -2.62804 0
M  V30 4705 H 460.187 -0.902692 -1.34399 0
M  V30 4706 H 462.179 0.694868 -3.9869 0
M  V30 4707 H 460.749 0.987947 -2.96578 0
M  V30 4708 H 459.969 -1.39031 -3.68869 0
M  V30 4709 H 461.257 -1.3495 -4.90577 0
M  V30 4710 H 460.655 1.79858 -5.36347 0
M  V30 4711 H 459.212 1.70432 -6.29123 0
M  V30 4712 N 462.645 1.35699 -0.801477 0
M  V30 4713 C 464.061 1.52065 -0.484596 0
M  V30 4714 C 464.261 1.75215 0.995084 0
M  V30 4715 O 463.317 1.79061 1.78026 0
M  V30 4716 C 464.63 2.69908 -1.32552 0
M  V30 4717 C 466.178 2.83784 -1.32044 0
M  V30 4718 C 466.653 4.04646 -2.14536 0
M  V30 4719 N 468.144 4.11814 -2.12046 0
M  V30 4720 C 468.879 5.04437 -2.72636 0
M  V30 4721 N 468.375 6.02426 -3.42133 0
M  V30 4722 N 470.168 4.97144 -2.62305 0
M  V30 4723 H 462.319 1.18928 -1.75983 0
M  V30 4724 H 464.582 0.581455 -0.748741 0
M  V30 4725 H 464.288 2.59363 -2.37537 0
M  V30 4726 H 464.162 3.64376 -0.975181 0
M  V30 4727 H 466.549 2.93783 -0.27846 0
M  V30 4728 H 466.63 1.90188 -1.71062 0
M  V30 4729 H 466.274 3.95407 -3.18772 0
M  V30 4730 H 466.204 4.97413 -1.72882 0
M  V30 4731 H 468.695 3.41664 -1.61476 0
M  V30 4732 H 469.008 6.69688 -3.85666 0
M  V30 4733 H 467.353 6.02615 -3.46237 0
M  V30 4734 H 470.544 4.19546 -2.07603 0
M  V30 4735 H 470.717 5.69138 -3.09815 0
M  V30 4736 N 464.123 0.554532 1.47522 0
M  V30 4737 C 465.372 0.0273458 2.01681 0
M  V30 4738 C 465.685 -1.32962 1.43459 0
M  V30 4739 O 466.891 -1.94657 1.89265 0
M  V30 4740 C 465.347 -0.00159057 3.599 0
M  V30 4741 C 464.955 1.35197 4.27113 0
M  V30 4742 C 466.699 -0.476311 4.21819 0
M  V30 4743 C 464.606 1.28229 5.77331 0
M  V30 4744 H 463.536 0.00645269 0.753972 0
M  V30 4745 H 466.187 0.701985 1.69542 0
M  V30 4746 H 464.569 -0.741821 3.8899 0
M  V30 4747 H 465.743 2.1097 4.09668 0
M  V30 4748 H 464.058 1.76441 3.77171 0
M  V30 4749 H 466.655 -0.5468 5.31897 0
M  V30 4750 H 466.998 -1.4877 3.8881 0
M  V30 4751 H 467.531 0.20898 3.97251 0
M  V30 4752 H 464.27 2.26959 6.14955 0
M  V30 4753 H 463.79 0.566314 5.97121 0
M  V30 4754 H 465.469 0.983226 6.39485 0
M  V30 4755 N 465.601 -1.54893 0.290851 0
M  V30 4756 C 466.548 -2.23138 -0.58974 0
M  V30 4757 C 467.518 -1.21036 -1.13752 0
M  V30 4758 O 468.703 -1.49626 -1.18392 0
M  V30 4759 C 465.843 -2.96811 -1.76061 0
M  V30 4760 C 464.956 -4.13665 -1.24519 0
M  V30 4761 C 464.091 -4.74944 -2.3791 0
M  V30 4762 C 463.13 -5.83963 -1.83451 0
M  V30 4763 N 462.267 -6.39239 -2.90376 0
M  V30 4764 H 467.107 -2.98 -0.00114915 0
M  V30 4765 H 464.644 -1.47096 0.0112006 0
M  V30 4766 H 466.602 -3.37751 -2.44909 0
M  V30 4767 H 465.232 -2.24344 -2.32098 0
M  V30 4768 H 464.284 -3.77737 -0.449288 0
M  V30 4769 H 465.596 -4.92238 -0.806424 0
M  V30 4770 H 464.75 -5.18684 -3.14724 0
M  V30 4771 H 463.489 -3.95682 -2.85109 0
M  V30 4772 H 462.494 -5.39657 -1.05122 0
M  V30 4773 H 463.719 -6.65103 -1.37169 0
M  V30 4774 H 461.665 -5.62864 -3.36927 0
M  V30 4775 H 461.582 -7.13129 -2.50965 0
M  V30 4776 H 462.85 -6.87637 -3.67118 0
M  V30 4777 N 467.08 -0.0183926 -1.57589 0
M  V30 4778 C 468.329 0.66185 -1.90532 0
M  V30 4779 C 468.642 1.73904 -0.895366 0
M  V30 4780 O 469.848 2.47518 -1.11566 0
M  V30 4781 C 468.304 1.22844 -3.38286 0
M  V30 4782 C 467.912 0.185103 -4.47617 0
M  V30 4783 C 469.656 1.88581 -3.80312 0
M  V30 4784 C 467.563 0.762723 -5.86461 0
M  V30 4785 H 466.493 0.250972 -0.711006 0
M  V30 4786 H 469.144 -0.0819435 -1.83317 0
M  V30 4787 H 467.526 2.0235 -3.40398 0
M  V30 4788 H 468.7 -0.58671 -4.5705 0
M  V30 4789 H 467.015 -0.372889 -4.14727 0
M  V30 4790 H 469.612 2.32735 -4.81392 0
M  V30 4791 H 469.955 2.72408 -3.14801 0
M  V30 4792 H 470.488 1.15782 -3.80578 0
M  V30 4793 H 467.227 -0.0371713 -6.55489 0
M  V30 4794 H 466.747 1.50327 -5.80656 0
M  V30 4795 H 468.426 1.25576 -6.34697 0
M  V30 4796 N 468.558 1.5553 0.254621 0
M  V30 4797 C 469.806 1.7665 0.981793 0
M  V30 4798 C 470.127 0.580963 1.86145 0
M  V30 4799 O 469.397 -0.403537 1.91699 0
M  V30 4800 H 467.977 0.651475 0.365498 0
M  V30 4801 H 470.639 1.92958 0.274426 0
M  V30 4802 H 469.735 2.67486 1.60802 0
M  V30 4803 N 470.036 -0.519951 1.48776 0
M  V30 4804 C 471.313 -1.28123 1.47797 0
M  V30 4805 C 471.693 -2.10196 0.195157 0
M  V30 4806 O 471.041 -2.13167 -0.822925 0
M  V30 4807 C 471.251 -2.15413 2.74587 0
M  V30 4808 C 472.599 -2.75225 3.23321 0
M  V30 4809 O 473.623 -2.25694 2.75574 0
M  V30 4810 O 472.482 -3.65346 4.06429 0
M  V30 4811 H 469.576 -0.578793 0.590701 0
M  V30 4812 H 472.122 -0.535779 1.6102 0
M  V30 4813 H 470.894 -1.54617 3.59457 0
M  V30 4814 H 470.517 -2.97186 2.64132 0
M  V30 4815 N 471.514 -1.37532 -0.769588 0
M  V30 4816 C 472.925 -1.29382 -1.346 0
M  V30 4817 C 473.276 0.0576039 -1.96115 0
M  V30 4818 O 472.401 0.95947 -1.93967 0
M  V30 4819 C 472.996 -2.34298 -2.44724 0
M  V30 4820 C 471.555 -2.29776 -2.98128 0
M  V30 4821 C 470.702 -2.18013 -1.71364 0
M  V30 4822 H 473.653 -1.48123 -0.56968 0
M  V30 4823 H 473.674 -1.99089 -3.24259 0
M  V30 4824 H 473.186 -3.32645 -1.99922 0
M  V30 4825 H 471.287 -1.34959 -3.47299 0
M  V30 4826 H 471.4 -3.23276 -3.53595 0
M  V30 4827 H 469.764 -1.64595 -1.94372 0
M  V30 4828 H 470.547 -3.18278 -1.28662 0
M  V30 4829 N 472.992 0.995999 -1.22138 0
M  V30 4830 C 473.922 2.10387 -1.01289 0
M  V30 4831 C 474.903 1.69975 0.0651454 0
M  V30 4832 O 476.088 1.9396 -0.0964628 0
M  V30 4833 C 473.218 3.42312 -0.586517 0
M  V30 4834 C 472.172 3.96558 -1.61014 0
M  V30 4835 C 471.498 5.24494 -1.0397 0
M  V30 4836 C 472.798 4.27595 -2.99933 0
M  V30 4837 H 474.492 2.28086 -1.93951 0
M  V30 4838 H 472.038 1.09607 -0.933928 0
M  V30 4839 H 473.991 4.19223 -0.427793 0
M  V30 4840 H 472.715 3.24431 0.375761 0
M  V30 4841 H 471.374 3.21776 -1.75658 0
M  V30 4842 H 471.022 5.02953 -0.0688703 0
M  V30 4843 H 470.722 5.61755 -1.72352 0
M  V30 4844 H 472.246 6.04042 -0.892494 0
M  V30 4845 H 473.66 4.95315 -2.8868 0
M  V30 4846 H 472.057 4.76021 -3.6541 0
M  V30 4847 H 473.127 3.35498 -3.50099 0
M  V30 4848 N 474.47 1.03057 1.19235 0
M  V30 4849 C 475.4 0.633497 2.24742 0
M  V30 4850 C 476.381 -0.358335 1.66283 0
M  V30 4851 O 477.566 -0.240676 1.92703 0
M  V30 4852 C 474.696 -0.0147648 3.47297 0
M  V30 4853 C 473.65 0.899527 4.18441 0
M  V30 4854 C 472.976 0.116281 5.34574 0
M  V30 4855 C 474.276 2.21404 4.73051 0
M  V30 4856 H 475.97 1.5155 2.58211 0
M  V30 4857 H 473.516 0.73014 1.24117 0
M  V30 4858 H 475.469 -0.304202 4.20301 0
M  V30 4859 H 474.193 -0.931577 3.13032 0
M  V30 4860 H 472.852 1.17319 3.47321 0
M  V30 4861 H 472.5 -0.802619 4.96555 0
M  V30 4862 H 472.2 0.725293 5.83107 0
M  V30 4863 H 473.724 -0.166376 6.10373 0
M  V30 4864 H 475.138 1.98601 5.37802 0
M  V30 4865 H 473.535 2.77512 5.32078 0
M  V30 4866 H 474.605 2.86752 3.91026 0
M  V30 4867 N 475.948 -1.35272 0.808662 0
M  V30 4868 C 476.858 -2.33546 0.222079 0
M  V30 4869 C 477.874 -1.6196 -0.636011 0
M  V30 4870 O 479.05 -1.93822 -0.547274 0
M  V30 4871 C 476.115 -3.41148 -0.61795 0
M  V30 4872 C 475.176 -4.28507 0.260875 0
M  V30 4873 C 474.409 -5.3097 -0.539156 0
M  V30 4874 O 474.632 -5.42123 -1.77367 0
M  V30 4875 O 473.566 -6.01858 0.0710526 0
M  V30 4876 H 477.392 -2.85515 1.03512 0
M  V30 4877 H 474.977 -1.38079 0.570495 0
M  V30 4878 H 476.859 -4.06889 -1.09634 0
M  V30 4879 H 475.534 -2.91447 -1.40855 0
M  V30 4880 H 474.441 -3.6574 0.786451 0
M  V30 4881 H 475.774 -4.81611 1.01547 0
M  V30 4882 N 477.426 -0.562348 -1.47226 0
M  V30 4883 C 478.703 0.0256985 -1.95583 0
M  V30 4884 C 479.083 1.48032 -1.50498 0
M  V30 4885 O 478.431 2.15973 -0.746181 0
M  V30 4886 C 478.641 -0.125129 -3.48776 0
M  V30 4887 C 479.989 0.0175728 -4.24596 0
M  V30 4888 O 481.013 -0.0529341 -3.56161 0
M  V30 4889 O 479.872 0.170145 -5.46235 0
M  V30 4890 H 476.966 0.0612565 -0.824728 0
M  V30 4891 H 479.512 -0.629233 -1.57603 0
M  V30 4892 H 478.284 -1.13715 -3.74412 0
M  V30 4893 H 477.907 0.567178 -3.93534 0
M  V30 4894 N 478.904 1.54736 -0.299062 0
M  V30 4895 C 480.132 2.04512 0.313447 0
M  V30 4896 C 480.547 1.17643 1.47667 0
M  V30 4897 O 479.904 0.20164 1.81383 0
M  V30 4898 C 479.955 3.53171 0.771542 0
M  V30 4899 O 479.676 4.36736 -0.345379 0
M  V30 4900 C 481.177 4.18936 1.4494 0
M  V30 4901 H 478.397 0.667507 0.0683784 0
M  V30 4902 H 480.941 1.99752 -0.438129 0
M  V30 4903 H 479.096 3.58298 1.47314 0
M  V30 4904 H 479.51 5.24499 0.0109219 0
M  V30 4905 H 480.984 5.24482 1.72111 0
M  V30 4906 H 481.461 3.68554 2.38883 0
M  V30 4907 H 482.067 4.17879 0.791028 0
M  V30 4908 N 480.382 0.0267497 1.57577 0
M  V30 4909 C 481.798 -0.32962 1.56159 0
M  V30 4910 C 481.998 -1.73059 1.03213 0
M  V30 4911 O 481.054 -2.43233 0.677804 0
M  V30 4912 C 482.367 -0.18039 3.00158 0
M  V30 4913 C 483.915 -0.253334 3.11973 0
M  V30 4914 C 484.39 -0.132921 4.57807 0
M  V30 4915 N 485.881 -0.189979 4.6281 0
M  V30 4916 C 486.616 -0.120554 5.73273 0
M  V30 4917 N 486.112 -0.000180315 6.928 0
M  V30 4918 N 487.905 -0.174369 5.61829 0
M  V30 4919 H 480.056 0.942896 1.90324 0
M  V30 4920 H 482.319 0.3639 0.875375 0
M  V30 4921 H 482.025 0.784576 3.42837 0
M  V30 4922 H 481.899 -0.951565 3.65 0
M  V30 4923 H 484.286 -1.20876 2.69208 0
M  V30 4924 H 484.367 0.548177 2.49857 0
M  V30 4925 H 484.011 0.819073 5.01252 0
M  V30 4926 H 483.941 -0.953264 5.179 0
M  V30 4927 H 486.432 -0.283257 3.76837 0
M  V30 4928 H 486.745 0.0461666 7.72786 0
M  V30 4929 H 485.09 0.034569 6.94991 0
M  V30 4930 H 488.281 -0.266794 4.67339 0
M  V30 4931 H 488.454 -0.116802 6.47895 0
M  V30 4932 N 481.861 -1.55662 -0.24637 0
M  V30 4933 C 482.794 -1.85332 -1.33143 0
M  V30 4934 C 483.772 -0.708464 -1.46354 0
M  V30 4935 O 484.956 -0.954274 -1.6256 0
M  V30 4936 C 482.083 -2.0385 -2.70487 0
M  V30 4937 C 481.129 -3.26488 -2.74423 0
M  V30 4938 S 481.962 -4.83124 -2.30979 0
M  V30 4939 C 483.118 -5.04647 -3.70246 0
M  V30 4940 H 483.351 -2.77077 -1.07777 0
M  V30 4941 H 480.884 -1.47776 -0.44738 0
M  V30 4942 H 482.842 -2.15202 -3.49569 0
M  V30 4943 H 481.503 -1.12947 -2.9309 0
M  V30 4944 H 480.696 -3.36413 -3.7529 0
M  V30 4945 H 480.298 -3.13864 -2.03385 0
M  V30 4946 H 482.59 -4.92023 -4.65746 0
M  V30 4947 H 483.533 -6.06625 -3.65255 0
M  V30 4948 H 483.941 -4.32491 -3.62784 0
M  V30 4949 N 483.339 0.512053 -1.4905 0
M  V30 4950 C 484.587 1.26436 -1.57665 0
M  V30 4951 C 484.908 1.93255 -0.260293 0
M  V30 4952 O 484.178 1.82206 0.719564 0
M  V30 4953 H 482.758 0.469658 -0.580888 0
M  V30 4954 H 485.42 0.594398 -1.85615 0
M  V30 4955 H 484.516 2.03417 -2.36702 0
M  V30 4956 N 484.817 1.37938 0.762283 0
M  V30 4957 C 486.228 1.30094 1.33912 0
M  V30 4958 C 486.579 -0.0472026 1.96143 0
M  V30 4959 O 485.704 -0.94917 1.94473 0
M  V30 4960 C 486.299 2.35592 2.43478 0
M  V30 4961 C 484.858 2.31353 2.96905 0
M  V30 4962 C 484.005 2.18919 1.70205 0
M  V30 4963 H 486.956 1.48423 0.561816 0
M  V30 4964 H 486.977 2.00806 3.23199 0
M  V30 4965 H 486.489 3.33701 1.98155 0
M  V30 4966 H 484.59 1.36799 3.46579 0
M  V30 4967 H 484.703 3.25147 3.51875 0
M  V30 4968 H 483.067 1.65624 1.93496 0
M  V30 4969 H 483.85 3.18956 1.26973 0
M  V30 4970 N 486.295 -0.989507 1.22664 0
M  V30 4971 C 487.225 -2.09847 1.02404 0
M  V30 4972 C 488.206 -1.70007 -0.0561303 0
M  V30 4973 O 489.391 -1.93906 0.106748 0
M  V30 4974 C 486.521 -3.41996 0.604663 0
M  V30 4975 C 485.475 -3.95699 1.63115 0
M  V30 4976 C 484.801 -5.23936 1.0675 0
M  V30 4977 C 486.101 -4.25999 3.02196 0
M  V30 4978 H 487.795 -2.27054 1.95158 0
M  V30 4979 H 485.341 -1.09111 0.939727 0
M  V30 4980 H 487.294 -4.1899 0.45002 0
M  V30 4981 H 486.018 -3.24626 -0.35855 0
M  V30 4982 H 484.677 -3.2084 1.77362 0
M  V30 4983 H 484.325 -5.02909 0.0955422 0
M  V30 4984 H 484.025 -5.60833 1.75328 0
M  V30 4985 H 485.549 -6.0356 0.924516 0
M  V30 4986 H 486.963 -4.93777 2.91303 0
M  V30 4987 H 485.36 -4.74076 3.67929 0
M  V30 4988 H 486.43 -3.33636 3.51873 0
M  V30 4989 N 487.773 -1.03688 -1.18687 0
M  V30 4990 C 489.022 -0.733235 -1.879 0
M  V30 4991 C 489.335 0.741745 -1.8099 0
M  V30 4992 O 490.541 1.15875 -2.4553 0
M  V30 4993 C 488.997 -1.26127 -3.37076 0
M  V30 4994 C 488.605 -2.76461 -3.52524 0
M  V30 4995 C 490.349 -1.03398 -4.11715 0
M  V30 4996 C 488.256 -3.22642 -4.95637 0
M  V30 4997 H 487.186 -0.270584 -0.703776 0
M  V30 4998 H 489.837 -1.25222 -1.34133 0
M  V30 4999 H 488.219 -0.670165 -3.90288 0
M  V30 5000 H 489.393 -3.41296 -3.09602 0
M  V30 5001 H 487.708 -2.97559 -2.91286 0
M  V30 5002 H 490.305 -1.3542 -5.17267 0
M  V30 5003 H 490.648 0.0289246 -4.1629 0
M  V30 5004 H 491.181 -1.5895 -3.64664 0
M  V30 5005 H 487.92 -4.28296 -4.96228 0
M  V30 5006 H 487.44 -2.62539 -5.39289 0
M  V30 5007 H 489.119 -3.16444 -5.64333 0
M  V30 5008 N 489.251 1.34841 -0.815825 0
M  V30 5009 C 490.199 2.31549 -0.220888 0
M  V30 5010 C 491.193 1.5707 0.634457 0
M  V30 5011 O 492.399 1.72125 0.526589 0
M  V30 5012 H 488.774 0.750153 -0.0526782 0
M  V30 5013 H 490.745 2.7926 -1.05149 0
M  V30 5014 C 489.494 3.42335 0.608427 0
M  V30 5015 H 488.817 3.9978 -0.0404121 0
M  V30 5016 H 490.257 4.12258 0.990931 0
M  V30 5017 C 488.716 2.86173 1.77782 0
M  V30 5018 O 489.246 2.80474 2.87571 0
M  V30 5019 N 487.452 2.43093 1.59229 0
M  V30 5020 H 486.999 2.47928 0.699237 0
M  V30 5021 H 486.957 2.05866 2.37627 0
M  V30 5022 N 490.729 0.570148 1.46925 0
M  V30 5023 C 492.145 0.23087 1.57921 0
M  V30 5024 C 492.345 -1.26676 1.56702 0
M  V30 5025 O 491.401 -2.04774 1.47729 0
M  V30 5026 C 492.714 0.868973 2.8787 0
M  V30 5027 C 494.262 0.841397 3.01479 0
M  V30 5028 C 494.737 1.45881 4.34146 0
M  V30 5029 N 496.228 1.42258 4.40814 0
M  V30 5030 C 496.963 1.8698 5.42057 0
M  V30 5031 N 496.459 2.39618 6.50042 0
M  V30 5032 N 498.252 1.77972 5.33181 0
M  V30 5033 H 490.403 1.54301 1.45962 0
M  V30 5034 H 492.666 0.644224 0.69547 0
M  V30 5035 H 492.372 1.922 2.94537 0
M  V30 5036 H 492.246 0.369682 3.75384 0
M  V30 5037 H 494.633 -0.202973 2.94401 0
M  V30 5038 H 494.714 1.37858 2.15474 0
M  V30 5039 H 494.358 2.50231 4.4198 0
M  V30 5040 H 494.288 0.896958 5.18905 0
M  V30 5041 H 496.779 1.03768 3.63374 0
M  V30 5042 H 497.092 2.71633 7.23488 0
M  V30 5043 H 495.437 2.43636 6.50897 0
M  V30 5044 H 498.628 1.36617 4.4772 0
M  V30 5045 H 498.801 2.13143 6.11943 0
M  V30 5046 N 492.207 -1.54576 0.307264 0
M  V30 5047 C 493.618 -1.8579 -0.184121 0
M  V30 5048 C 493.969 -1.22914 -1.52927 0
M  V30 5049 O 493.094 -0.529126 -2.09831 0
M  V30 5050 C 493.689 -3.37081 -0.340862 0
M  V30 5051 C 492.248 -3.68304 -0.776465 0
M  V30 5052 C 491.395 -2.77076 0.111503 0
M  V30 5053 H 494.346 -1.49656 0.528078 0
M  V30 5054 H 494.367 -3.61922 -1.17443 0
M  V30 5055 H 493.879 -3.82815 0.638309 0
M  V30 5056 H 491.98 -3.28092 -1.76596 0
M  V30 5057 H 492.093 -4.75434 -0.591512 0
M  V30 5058 H 490.457 -2.51374 -0.410256 0
M  V30 5059 H 491.24 -3.25632 1.08714 0
M  V30 5060 N 493.685 -0.035106 -1.57561 0
M  V30 5061 C 494.635 0.954034 -2.0708 0
M  V30 5062 C 495.619 1.2818 -0.972558 0
M  V30 5063 O 496.811 1.26691 -1.23606 0
M  V30 5064 C 493.94 2.23442 -2.60631 0
M  V30 5065 C 493.026 1.93475 -3.77396 0
M  V30 5066 N 493.417 1.33802 -4.87781 0
M  V30 5067 C 491.715 2.23434 -3.85996 0
M  V30 5068 C 492.416 1.21103 -5.68954 0
M  V30 5069 N 491.392 1.70855 -5.16052 0
M  V30 5070 H 495.194 0.487731 -2.89825 0
M  V30 5071 H 492.708 0.169759 -1.6151 0
M  V30 5072 H 494.705 2.95183 -2.94402 0
M  V30 5073 H 493.365 2.70693 -1.79319 0
M  V30 5074 H 494.376 1.01227 -5.07911 0
M  V30 5075 H 491.053 2.73317 -3.15601 0
M  V30 5076 H 492.443 0.749105 -6.67711 0
M  V30 5077 N 495.163 1.55791 0.238111 0
M  V30 5078 C 496.093 1.94068 1.29846 0
M  V30 5079 C 497.074 0.806726 1.49753 0
M  V30 5080 O 498.259 1.06772 1.62214 0
M  V30 5081 C 495.389 2.24302 2.65153 0
M  V30 5082 C 494.343 3.40032 2.59927 0
M  V30 5083 C 493.669 3.55829 3.99111 0
M  V30 5084 C 494.969 4.75476 2.16148 0
M  V30 5085 H 496.663 2.82887 0.980563 0
M  V30 5086 H 494.209 1.36105 0.470253 0
M  V30 5087 H 496.162 2.4967 3.39475 0
M  V30 5088 H 494.886 1.32318 2.98596 0
M  V30 5089 H 493.545 3.14687 1.88063 0
M  V30 5090 H 493.193 2.6125 4.29834 0
M  V30 5091 H 492.893 4.3366 3.96501 0
M  V30 5092 H 494.417 3.83528 4.7512 0
M  V30 5093 H 495.831 5.00158 2.80205 0
M  V30 5094 H 494.228 5.56472 2.24631 0
M  V30 5095 H 495.298 4.71946 1.11333 0
M  V30 5096 N 496.642 -0.504142 1.49319 0
M  V30 5097 C 497.552 -1.63248 1.68486 0
M  V30 5098 C 498.568 -1.64488 0.567432 0
M  V30 5099 O 499.744 -1.82966 0.841749 0
M  V30 5100 C 496.809 -2.99627 1.74426 0
M  V30 5101 C 495.87 -3.09039 2.97982 0
M  V30 5102 C 495.103 -4.38913 3.0363 0
M  V30 5103 O 495.326 -5.27528 2.16958 0
M  V30 5104 O 494.26 -4.53231 3.96062 0
M  V30 5105 H 498.086 -1.50008 2.64067 0
M  V30 5106 H 495.671 -0.680086 1.33023 0
M  V30 5107 H 497.553 -3.80689 1.80705 0
M  V30 5108 H 496.228 -3.13136 0.820233 0
M  V30 5109 H 495.135 -2.27177 2.97223 0
M  V30 5110 H 496.468 -3.00456 3.89855 0
M  V30 5111 N 498.12 -1.38341 -0.754957 0
M  V30 5112 C 499.536 -1.19508 -1.05783 0
M  V30 5113 C 499.736 -0.0428005 -2.01455 0
M  V30 5114 O 498.792 0.611861 -2.44975 0
M  V30 5115 C 500.105 -2.52091 -1.63923 0
M  V30 5116 C 501.653 -2.58762 -1.76101 0
M  V30 5117 C 502.128 -3.91517 -2.37652 0
M  V30 5118 N 503.619 -3.93049 -2.45085 0
M  V30 5119 C 504.354 -4.9253 -2.93602 0
M  V30 5120 N 503.85 -6.02408 -3.42165 0
M  V30 5121 N 505.643 -4.79921 -2.92629 0
M  V30 5122 H 497.794 -2.1206 -0.120056 0
M  V30 5123 H 500.057 -0.94089 -0.11589 0
M  V30 5124 H 499.763 -3.36858 -1.01093 0
M  V30 5125 H 499.637 -2.70388 -2.63003 0
M  V30 5126 H 502.024 -1.74391 -2.38058 0
M  V30 5127 H 502.105 -2.44333 -0.757294 0
M  V30 5128 H 501.749 -4.76309 -1.76329 0
M  V30 5129 H 501.679 -4.03256 -3.38662 0
M  V30 5130 H 504.17 -3.13685 -2.10736 0
M  V30 5131 H 504.483 -6.74248 -3.77637 0
M  V30 5132 H 502.828 -6.0603 -3.40225 0
M  V30 5133 H 506.019 -3.93194 -2.54001 0
M  V30 5134 H 506.192 -5.57601 -3.30128 0
M  V30 5135 N 499.598 0.982988 -1.23187 0
M  V30 5136 C 500.844 1.72648 -1.06398 0
M  V30 5137 C 501.177 1.90066 0.398561 0
M  V30 5138 O 500.452 1.45105 1.29518 0
M  V30 5139 C 500.735 3.12627 -1.78707 0
M  V30 5140 C 500.588 3.02795 -3.32618 0
M  V30 5141 C 501.907 4.11997 -1.54747 0
M  V30 5142 H 499.026 0.626649 -0.387918 0
M  V30 5143 H 501.668 1.14455 -1.51658 0
M  V30 5144 H 499.818 3.62308 -1.40234 0
M  V30 5145 H 501.49 2.60659 -3.80598 0
M  V30 5146 H 499.733 2.39362 -3.61785 0
M  V30 5147 H 500.404 4.01893 -3.78399 0
M  V30 5148 H 502.88 3.71114 -1.88186 0
M  V30 5149 H 501.756 5.08037 -2.07821 0
M  V30 5150 H 502.017 4.39462 -0.482249 0
M  V30 5151 N 501.076 1.04316 1.18135 0
M  V30 5152 C 502.006 0.657299 2.24058 0
M  V30 5153 C 502.987 -0.340678 1.66654 0
M  V30 5154 O 504.172 -0.220223 1.92947 0
M  V30 5155 C 501.302 0.0220715 3.47293 0
M  V30 5156 C 500.256 0.943857 4.17463 0
M  V30 5157 C 499.582 0.172973 5.3442 0
M  V30 5158 C 500.882 2.26409 4.70677 0
M  V30 5159 H 502.576 1.5428 2.56589 0
M  V30 5160 H 500.122 0.743263 1.23335 0
M  V30 5161 H 502.075 -0.259607 4.206 0
M  V30 5162 H 500.799 -0.898323 3.14003 0
M  V30 5163 H 499.458 1.20996 3.46057 0
M  V30 5164 H 499.106 -0.749907 4.97379 0
M  V30 5165 H 498.806 0.787098 5.82304 0
M  V30 5166 H 500.33 -0.101628 6.10515 0
M  V30 5167 H 501.744 2.04294 5.35665 0
M  V30 5168 H 500.141 2.8314 5.29105 0
M  V30 5169 H 501.211 2.90883 3.87962 0
M  V30 5170 N 502.554 -1.34406 0.822964 0
M  V30 5171 C 503.802 -1.97892 0.410245 0
M  V30 5172 C 504.123 -1.65567 -1.03017 0
M  V30 5173 O 503.393 -0.94642 -1.71522 0
M  V30 5174 H 501.973 -0.732049 0.148707 0
M  V30 5175 H 504.635 -1.64043 1.05242 0
M  V30 5176 H 503.731 -3.07579 0.529284 0
M  V30 5177 N 504.032 -0.577932 -1.46621 0
M  V30 5178 C 505.279 -0.0616879 -2.02406 0
M  V30 5179 C 505.607 1.29638 -1.44997 0
M  V30 5180 O 504.862 1.86176 -0.60308 0
M  V30 5181 C 505.161 0.0590832 -3.57351 0
M  V30 5182 C 504.827 -1.23077 -4.33777 0
M  V30 5183 C 503.489 -1.58416 -4.54376 0
M  V30 5184 C 505.841 -2.08457 -4.77698 0
M  V30 5185 C 503.169 -2.78943 -5.16147 0
M  V30 5186 C 505.521 -3.28204 -5.408 0
M  V30 5187 C 504.185 -3.63832 -5.59627 0
M  V30 5188 H 503.455 -0.0225732 -0.740656 0
M  V30 5189 H 506.102 -0.753609 -1.76048 0
M  V30 5190 H 504.407 0.834104 -3.82818 0
M  V30 5191 H 506.104 0.474202 -3.98186 0
M  V30 5192 H 502.694 -0.945652 -4.18038 0
M  V30 5193 H 506.878 -1.82459 -4.61544 0
M  V30 5194 H 502.134 -3.06689 -5.28916 0
M  V30 5195 H 506.308 -3.94634 -5.73792 0
M  V30 5196 H 503.935 -4.57315 -6.07262 0
M  V30 5197 N 505.51 1.54411 -0.315457 0
M  V30 5198 C 506.756 2.00716 0.289972 0
M  V30 5199 C 507.089 1.2034 1.5242 0
M  V30 5200 O 506.364 0.283579 1.92422 0
M  V30 5201 C 506.647 3.54507 0.632196 0
M  V30 5202 C 506.5 4.45615 -0.61218 0
M  V30 5203 C 507.819 4.15421 1.45305 0
M  V30 5204 H 504.938 0.729637 0.10392 0
M  V30 5205 H 507.58 1.8506 -0.430427 0
M  V30 5206 H 505.73 3.67979 1.24595 0
M  V30 5207 H 507.402 4.44026 -1.25053 0
M  V30 5208 H 505.645 4.15621 -1.24264 0
M  V30 5209 H 506.316 5.51022 -0.328379 0
M  V30 5210 H 508.792 4.05474 0.934331 0
M  V30 5211 H 507.668 5.23157 1.66127 0
M  V30 5212 H 507.929 3.68223 2.44671 0
M  V30 5213 N 506.988 0.0434614 1.5754 0
M  V30 5214 C 507.935 -0.93356 2.11077 0
M  V30 5215 C 508.905 -1.31383 1.01626 0
M  V30 5216 O 510.09 -1.40465 1.29129 0
M  V30 5217 C 507.23 -2.20578 2.65404 0
M  V30 5218 C 506.343 -1.88068 3.88914 0
M  V30 5219 C 505.478 -3.09691 4.31584 0
M  V30 5220 C 504.517 -2.73067 5.47815 0
M  V30 5221 N 503.654 -3.87359 5.85574 0
M  V30 5222 H 508.494 -0.470118 2.94268 0
M  V30 5223 H 506.031 -0.220434 1.45439 0
M  V30 5224 H 507.989 -2.95011 2.94999 0
M  V30 5225 H 506.619 -2.64513 1.85021 0
M  V30 5226 H 505.671 -1.03816 3.6596 0
M  V30 5227 H 506.983 -1.57104 4.73413 0
M  V30 5228 H 506.137 -3.92431 4.62691 0
M  V30 5229 H 504.876 -3.43827 3.45882 0
M  V30 5230 H 503.881 -1.88742 5.16388 0
M  V30 5231 H 505.106 -2.40131 6.35227 0
M  V30 5232 H 503.052 -4.21311 5.02825 0
M  V30 5233 H 502.969 -3.60068 6.64746 0
M  V30 5234 H 504.237 -4.70761 6.21292 0
M  V30 5235 N 508.466 -1.55915 -0.229846 0
M  V30 5236 C 509.712 -1.78807 -0.956868 0
M  V30 5237 C 510.045 -0.611687 -1.84315 0
M  V30 5238 O 509.32 0.389398 -1.90562 0
M  V30 5239 C 509.603 -3.11718 -1.80288 0
M  V30 5240 C 509.456 -4.3979 -0.943649 0
M  V30 5241 C 510.775 -3.40999 -2.78222 0
M  V30 5242 H 507.894 -0.6505 -0.346437 0
M  V30 5243 H 510.536 -1.88648 -0.226252 0
M  V30 5244 H 508.686 -3.03459 -2.42579 0
M  V30 5245 H 510.358 -4.60059 -0.338121 0
M  V30 5246 H 508.601 -4.33086 -0.248705 0
M  V30 5247 H 509.272 -5.29208 -1.5698 0
M  V30 5248 H 511.748 -3.49332 -2.26067 0
M  V30 5249 H 510.624 -4.35183 -3.34526 0
M  V30 5250 H 510.885 -2.62754 -3.55546 0
M  V30 5251 N 509.944 0.496216 -1.49584 0
M  V30 5252 C 510.907 1.57952 -1.66084 0
M  V30 5253 C 511.907 1.51729 -0.53244 0
M  V30 5254 O 513.097 1.54796 -0.79899 0
M  V30 5255 C 510.229 2.97604 -1.66268 0
M  V30 5256 H 511.422 1.44649 -2.6271 0
M  V30 5257 H 508.975 0.7208 -1.38687 0
M  V30 5258 H 509.71 3.16378 -0.712432 0
M  V30 5259 H 509.495 3.03528 -2.4822 0
M  V30 5260 H 510.985 3.76301 -1.81073 0
M  V30 5261 N 511.423 1.38739 0.74761 0
M  V30 5262 C 512.37 1.36449 1.86146 0
M  V30 5263 C 513.34 0.226098 1.64554 0
M  V30 5264 O 514.525 0.41926 1.86137 0
M  V30 5265 C 511.665 1.2013 3.23516 0
M  V30 5266 C 510.778 2.43407 3.56899 0
M  V30 5267 C 509.913 2.19773 4.83605 0
M  V30 5268 C 508.952 3.3879 5.09792 0
M  V30 5269 N 508.089 3.14553 6.27695 0
M  V30 5270 H 512.929 2.3167 1.87438 0
M  V30 5271 H 510.466 1.15094 0.916063 0
M  V30 5272 H 512.424 1.08683 4.02795 0
M  V30 5273 H 511.054 0.285453 3.21535 0
M  V30 5274 H 510.106 2.65504 2.72418 0
M  V30 5275 H 511.418 3.32094 3.72176 0
M  V30 5276 H 510.572 2.05496 5.70838 0
M  V30 5277 H 509.311 1.28461 4.70478 0
M  V30 5278 H 508.316 3.53579 4.21025 0
M  V30 5279 H 509.541 4.30986 5.24812 0
M  V30 5280 H 507.487 2.25893 6.1588 0
M  V30 5281 H 507.404 3.96791 6.435 0
M  V30 5282 H 508.672 3.03943 7.17801 0
M  V30 5283 N 512.901 -0.976442 1.23707 0
M  V30 5284 C 513.811 -2.10359 1.03856 0
M  V30 5285 C 514.827 -1.73991 -0.0180919 0
M  V30 5286 O 516.003 -2.0061 0.178211 0
M  V30 5287 C 513.068 -3.40809 0.636387 0
M  V30 5288 C 512.129 -3.91179 1.76854 0
M  V30 5289 C 511.362 -5.15404 1.38546 0
M  V30 5290 O 511.585 -5.69754 0.27142 0
M  V30 5291 O 510.519 -5.5994 2.20797 0
M  V30 5292 H 514.345 -2.29997 1.98331 0
M  V30 5293 H 511.93 -1.08742 1.02448 0
M  V30 5294 H 513.812 -4.19269 0.423223 0
M  V30 5295 H 512.487 -3.22493 -0.279322 0
M  V30 5296 H 511.394 -3.13819 2.03638 0
M  V30 5297 H 512.727 -4.13958 2.6627 0
M  V30 5298 N 514.379 -1.04941 -1.1758 0
M  V30 5299 C 515.311 -0.606174 -2.21039 0
M  V30 5300 C 516.324 0.328763 -1.59446 0
M  V30 5301 O 517.513 0.121895 -1.78083 0
M  V30 5302 C 514.613 0.133294 -3.38638 0
M  V30 5303 C 513.786 -0.811711 -4.29802 0
M  V30 5304 C 512.845 -0.113958 -5.26077 0
M  V30 5305 O 511.871 -0.747237 -5.64274 0
M  V30 5306 N 513.073 1.14953 -5.69004 0
M  V30 5307 H 515.838 -1.49606 -2.59689 0
M  V30 5308 H 513.399 -0.930997 -1.32454 0
M  V30 5309 H 515.391 0.610144 -4.00074 0
M  V30 5310 H 513.961 0.924816 -2.98607 0
M  V30 5311 H 513.181 -1.46824 -3.65837 0
M  V30 5312 H 514.469 -1.45326 -4.87604 0
M  V30 5313 H 513.867 1.68441 -5.40041 0
M  V30 5314 H 512.424 1.57049 -6.32597 0
M  V30 5315 N 515.857 1.33968 -0.830081 0
M  V30 5316 C 517.105 1.97672 -0.420734 0
M  V30 5317 C 517.426 1.66111 1.02138 0
M  V30 5318 O 516.696 0.955503 1.71017 0
M  V30 5319 H 515.276 0.73125 -0.152587 0
M  V30 5320 H 517.938 1.63483 -1.0611 0
M  V30 5321 H 517.034 3.07294 -0.545588 0
M  V30 5322 N 517.335 0.585699 1.46312 0
M  V30 5323 C 518.298 -0.135673 2.28798 0
M  V30 5324 C 519.298 -0.815988 1.38558 0
M  V30 5325 O 520.488 -0.667487 1.60904 0
M  V30 5326 C 517.62 -1.20163 3.1902 0
M  V30 5327 H 518.813 0.589257 2.94054 0
M  V30 5328 H 516.366 0.343794 1.52472 0
M  V30 5329 H 517.101 -1.95804 2.58517 0
M  V30 5330 H 516.886 -0.718282 3.85465 0
M  V30 5331 H 518.376 -1.70749 3.81096 0
M  V30 5332 N 518.813 -1.54241 0.323641 0
M  V30 5333 C 519.76 -2.24339 -0.542277 0
M  V30 5334 C 520.73 -1.23421 -1.11159 0
M  V30 5335 O 521.915 -1.52104 -1.15192 0
M  V30 5336 C 519.055 -3.00479 -1.69725 0
M  V30 5337 C 518.168 -4.16214 -1.15716 0
M  V30 5338 C 517.303 -4.79884 -2.27783 0
M  V30 5339 C 516.342 -5.87722 -1.71023 0
M  V30 5340 N 515.479 -6.45254 -2.76752 0
M  V30 5341 H 520.319 -2.97935 0.0620613 0
M  V30 5342 H 517.856 -1.47039 0.0423993 0
M  V30 5343 H 519.814 -3.42869 -2.3769 0
M  V30 5344 H 518.444 -2.29217 -2.27288 0
M  V30 5345 H 517.496 -3.78605 -0.369063 0
M  V30 5346 H 518.808 -4.93838 -0.701832 0
M  V30 5347 H 517.962 -5.25243 -3.03651 0
M  V30 5348 H 516.701 -4.01641 -2.76652 0
M  V30 5349 H 515.706 -5.41765 -0.936518 0
M  V30 5350 H 516.931 -6.67863 -1.2303 0
M  V30 5351 H 514.877 -5.69884 -3.24912 0
M  V30 5352 H 514.794 -7.18292 -2.35782 0
M  V30 5353 H 516.062 -6.95269 -3.5245 0
M  V30 5354 N 520.291 -0.0518155 -1.57515 0
M  V30 5355 C 521.537 0.622745 -1.93002 0
M  V30 5356 C 521.87 1.70456 -0.930499 0
M  V30 5357 O 521.145 1.94452 0.0434086 0
M  V30 5358 C 521.428 1.21824 -3.38867 0
M  V30 5359 C 521.281 0.144434 -4.49568 0
M  V30 5360 C 522.6 2.12968 -3.8514 0
M  V30 5361 H 519.719 0.22491 -0.701844 0
M  V30 5362 H 522.361 -0.113711 -1.89659 0
M  V30 5363 H 520.511 1.8459 -3.41846 0
M  V30 5364 H 522.183 -0.48753 -4.58717 0
M  V30 5365 H 520.426 -0.527424 -4.30582 0
M  V30 5366 H 521.097 0.601127 -5.48717 0
M  V30 5367 H 523.573 1.60163 -3.8404 0
M  V30 5368 H 522.449 2.51578 -4.87852 0
M  V30 5369 H 522.71 3.03004 -3.21934 0
M  V30 5370 N 521.769 1.56035 0.221574 0
M  V30 5371 C 522.699 1.95434 1.2778 0
M  V30 5372 C 523.68 0.822564 1.48889 0
M  V30 5373 O 524.865 1.08486 1.61072 0
M  V30 5374 C 521.995 2.27102 2.62759 0
M  V30 5375 C 520.949 3.4277 2.56306 0
M  V30 5376 C 520.275 3.60043 3.95314 0
M  V30 5377 C 521.575 4.77742 2.11093 0
M  V30 5378 H 523.269 2.83912 0.950504 0
M  V30 5379 H 520.815 1.36596 0.455791 0
M  V30 5380 H 522.768 2.53256 3.36807 0
M  V30 5381 H 521.492 1.35478 2.97176 0
M  V30 5382 H 520.151 3.16664 1.84715 0
M  V30 5383 H 519.799 2.65794 4.27039 0
M  V30 5384 H 519.499 4.37841 3.91879 0
M  V30 5385 H 521.023 3.88545 4.71025 0
M  V30 5386 H 522.437 5.03102 2.74885 0
M  V30 5387 H 520.834 5.58823 2.18716 0
M  V30 5388 H 521.904 4.731 1.06321 0
M  V30 5389 N 523.247 -0.488276 1.49845 0
M  V30 5390 C 524.487 -1.2516 1.61599 0
M  V30 5391 C 524.851 -1.89615 0.301706 0
M  V30 5392 O 526.052 -2.67182 0.29453 0
M  V30 5393 C 524.323 -2.2805 2.75187 0
M  V30 5394 S 525.882 -3.13552 3.0697 0
M  V30 5395 H 522.7 -0.425178 0.569864 0
M  V30 5396 H 525.302 -0.551545 1.87559 0
M  V30 5397 H 524.006 -1.7925 3.69185 0
M  V30 5398 H 523.537 -3.02708 2.5126 0
M  V30 5399 H 525.552 -4.28927 2.49471 0
M  V30 5400 N 524.725 -1.39134 -0.740242 0
M  V30 5401 C 525.973 -1.35803 -1.49673 0
M  V30 5402 C 526.294 0.0470897 -1.94943 0
M  V30 5403 O 525.564 0.997347 -1.68611 0
M  V30 5404 H 524.144 -0.499736 -0.555224 0
M  V30 5405 H 526.806 -1.73947 -0.879107 0
M  V30 5406 H 525.902 -2.0174 -2.38133 0
M  V30 5407 N 526.204 0.969867 -1.24223 0
M  V30 5408 C 527.452 1.70918 -1.0785 0
M  V30 5409 C 527.773 1.91186 0.383763 0
M  V30 5410 O 527.043 1.48806 1.27411 0
M  V30 5411 H 525.623 0.633334 -0.396103 0
M  V30 5412 H 528.285 1.16689 -1.56108 0
M  V30 5413 H 527.381 2.69455 -1.57482 0
M  V30 5414 N 527.682 1.05563 1.17022 0
M  V30 5415 C 528.959 0.68165 1.83338 0
M  V30 5416 C 529.339 -0.837665 1.93769 0
M  V30 5417 O 528.687 -1.74507 1.47511 0
M  V30 5418 C 528.897 1.375 3.20772 0
M  V30 5419 C 530.245 1.51545 3.96635 0
M  V30 5420 O 531.269 1.33431 3.30264 0
M  V30 5421 O 530.128 1.812 5.15586 0
M  V30 5422 H 527.222 0.240412 0.791285 0
M  V30 5423 H 529.768 1.15545 1.24288 0
M  V30 5424 H 528.54 2.41135 3.08171 0
M  V30 5425 H 528.163 0.890798 3.87493 0
M  V30 5426 N 529.16 -1.33526 0.837174 0
M  V30 5427 C 530.409 -1.97098 0.428387 0
M  V30 5428 C 530.722 -1.67062 -1.01734 0
M  V30 5429 O 531.928 -2.24235 -1.53072 0
M  V30 5430 C 530.384 -3.52725 0.715075 0
M  V30 5431 C 529.992 -3.9164 2.17537 0
M  V30 5432 C 531.736 -4.22857 0.373154 0
M  V30 5433 C 529.643 -5.40237 2.40619 0
M  V30 5434 H 528.573 -0.737589 0.156455 0
M  V30 5435 H 531.224 -1.52169 1.02552 0
M  V30 5436 H 529.606 -3.95971 0.0475904 0
M  V30 5437 H 530.78 -3.59456 2.88319 0
M  V30 5438 H 529.095 -3.34485 2.4801 0
M  V30 5439 H 531.692 -5.32133 0.523264 0
M  V30 5440 H 532.035 -4.10647 -0.683708 0
M  V30 5441 H 532.568 -3.85135 0.995801 0
M  V30 5442 H 529.307 -5.57449 3.44864 0
M  V30 5443 H 528.827 -5.73887 1.74396 0
M  V30 5444 H 530.506 -6.07102 2.23688 0
M  V30 5445 N 530.638 -0.59345 -1.46 0
M  V30 5446 C 531.868 -0.0889642 -2.06408 0
M  V30 5447 C 532.276 1.22597 -1.44106 0
M  V30 5448 O 531.619 1.75448 -0.544398 0
M  V30 5449 C 531.681 0.139902 -3.59228 0
M  V30 5450 C 531.345 -1.09107 -4.43784 0
M  V30 5451 C 532.342 -2.00577 -4.79651 0
M  V30 5452 C 530.027 -1.31593 -4.84756 0
M  V30 5453 C 532.021 -3.12873 -5.55328 0
M  V30 5454 C 529.708 -2.44192 -5.60191 0
M  V30 5455 C 530.706 -3.34661 -5.95392 0
M  V30 5456 O 530.394 -4.45302 -6.69299 0
M  V30 5457 H 530.126 -0.0594613 -0.67338 0
M  V30 5458 H 532.68 -0.817 -1.88452 0
M  V30 5459 H 530.91 0.922672 -3.75531 0
M  V30 5460 H 532.599 0.594228 -4.01527 0
M  V30 5461 H 533.365 -1.84425 -4.48567 0
M  V30 5462 H 529.244 -0.620801 -4.56801 0
M  V30 5463 H 532.788 -3.83511 -5.82722 0
M  V30 5464 H 528.685 -2.60303 -5.90688 0
M  V30 5465 H 529.453 -4.43805 -6.87735 0
M  V30 5466 N 532.116 1.54067 -0.331816 0
M  V30 5467 C 533.362 2.01012 0.268667 0
M  V30 5468 C 533.695 1.2195 1.51136 0
M  V30 5469 O 532.97 0.303972 1.9211 0
M  V30 5470 C 533.253 3.55158 0.59456 0
M  V30 5471 C 533.106 4.4494 -0.659409 0
M  V30 5472 C 534.425 4.16939 1.4089 0
M  V30 5473 H 531.544 0.730698 0.0961756 0
M  V30 5474 H 534.186 1.84593 -0.450031 0
M  V30 5475 H 532.336 3.6928 1.20685 0
M  V30 5476 H 534.008 4.42675 -1.29756 0
M  V30 5477 H 532.251 4.1428 -1.28665 0
M  V30 5478 H 532.922 5.50643 -0.386804 0
M  V30 5479 H 535.398 4.06443 0.891272 0
M  V30 5480 H 534.274 5.24889 1.60569 0
M  V30 5481 H 534.535 3.70798 2.40752 0
M  V30 5482 N 533.594 0.0601682 1.57485 0
M  V30 5483 C 535.005 -0.474217 1.80577 0
M  V30 5484 C 535.356 -1.70365 0.973147 0
M  V30 5485 O 534.481 -2.15544 0.192306 0
M  V30 5486 C 535.076 -0.867102 3.27516 0
M  V30 5487 C 533.635 -1.34642 3.51495 0
M  V30 5488 C 532.782 -0.32594 2.75378 0
M  V30 5489 H 535.733 0.285973 1.56102 0
M  V30 5490 H 535.754 -1.72938 3.38929 0
M  V30 5491 H 535.266 0.0278927 3.8809 0
M  V30 5492 H 533.367 -2.2603 2.96212 0
M  V30 5493 H 533.48 -1.33237 4.60201 0
M  V30 5494 H 531.844 -0.800749 2.41785 0
M  V30 5495 H 532.627 0.561125 3.38683 0
M  V30 5496 N 535.072 -1.5615 -0.213296 0
M  V30 5497 C 535.982 -1.96265 -1.28519 0
M  V30 5498 C 536.998 -0.86765 -1.50824 0
M  V30 5499 O 538.174 -1.17191 -1.63793 0
M  V30 5500 C 535.239 -2.27836 -2.61327 0
M  V30 5501 C 534.3 -3.50949 -2.47252 0
M  V30 5502 C 533.533 -3.81004 -3.73727 0
M  V30 5503 O 533.756 -3.12612 -4.77106 0
M  V30 5504 O 532.69 -4.74477 -3.70344 0
M  V30 5505 H 536.516 -2.87631 -0.974795 0
M  V30 5506 H 534.101 -1.43467 -0.416832 0
M  V30 5507 H 535.983 -2.49299 -3.39747 0
M  V30 5508 H 534.658 -1.39643 -2.9203 0
M  V30 5509 H 533.565 -3.34754 -1.67004 0
M  V30 5510 H 534.898 -4.39551 -2.21486 0
M  V30 5511 N 536.55 0.480323 -1.50102 0
M  V30 5512 C 537.827 1.24159 -1.51142 0
M  V30 5513 C 538.207 2.09605 -0.250818 0
M  V30 5514 O 537.555 2.15274 0.766118 0
M  V30 5515 C 537.765 2.08057 -2.80202 0
M  V30 5516 C 539.113 2.66556 -3.30504 0
M  V30 5517 O 540.137 2.18308 -2.81461 0
M  V30 5518 O 538.996 3.54442 -4.15973 0
M  V30 5519 H 536.09 0.562928 -0.605839 0
M  V30 5520 H 538.636 0.492899 -1.62384 0
M  V30 5521 H 537.408 1.45032 -3.6343 0
M  V30 5522 H 537.031 2.90079 -2.71919 0
M  V30 5523 N 538.028 1.39524 0.732853 0
M  V30 5524 C 539.439 1.32905 1.31122 0
M  V30 5525 C 539.79 -0.00558708 1.96199 0
M  V30 5526 O 538.915 -0.907706 1.96443 0
M  V30 5527 C 539.51 2.40704 2.38426 0
M  V30 5528 C 538.069 2.37599 2.91931 0
M  V30 5529 C 537.216 2.2248 1.65523 0
M  V30 5530 H 540.167 1.49581 0.530207 0
M  V30 5531 H 540.188 2.07616 3.18867 0
M  V30 5532 H 539.7 3.37829 1.91033 0
M  V30 5533 H 537.801 1.44119 3.43599 0
M  V30 5534 H 537.914 3.32538 3.44899 0
M  V30 5535 H 536.278 1.69691 1.8994 0
M  V30 5536 H 537.061 3.21577 1.20178 0
M  V30 5537 N 539.506 -0.963266 1.24736 0
M  V30 5538 C 540.453 -2.05857 1.04363 0
M  V30 5539 C 541.423 -1.6604 -0.0444951 0
M  V30 5540 O 542.608 -1.90477 0.110999 0
M  V30 5541 C 539.748 -3.38745 0.659235 0
M  V30 5542 C 538.861 -3.9173 1.82131 0
M  V30 5543 C 537.996 -5.12906 1.38208 0
M  V30 5544 C 537.035 -5.58098 2.51382 0
M  V30 5545 N 536.172 -6.7049 2.08295 0
M  V30 5546 H 541.012 -2.22616 1.98107 0
M  V30 5547 H 538.549 -1.09103 0.986661 0
M  V30 5548 H 540.507 -4.15107 0.417371 0
M  V30 5549 H 539.137 -3.21898 -0.241201 0
M  V30 5550 H 538.189 -3.11966 2.17672 0
M  V30 5551 H 539.501 -4.21225 2.67153 0
M  V30 5552 H 538.655 -5.96657 1.09935 0
M  V30 5553 H 537.394 -4.85105 0.502456 0
M  V30 5554 H 536.399 -4.72917 2.80409 0
M  V30 5555 H 537.624 -5.87911 3.39909 0
M  V30 5556 H 535.57 -6.44416 1.22737 0
M  V30 5557 H 535.487 -6.99458 2.86869 0
M  V30 5558 H 536.755 -7.57672 1.83175 0
M  V30 5559 N 540.985 -1.06182 -1.16461 0
M  V30 5560 C 541.915 -0.692861 -2.22984 0
M  V30 5561 C 542.896 0.314122 -1.67174 0
M  V30 5562 O 544.081 0.189499 -1.93273 0
M  V30 5563 C 541.211 -0.07732 -3.47214 0
M  V30 5564 C 540.165 -1.01015 -4.15909 0
M  V30 5565 C 539.491 -0.257973 -5.34077 0
M  V30 5566 C 540.791 -2.33868 -4.67015 0
M  V30 5567 H 542.485 -1.58343 -2.54102 0
M  V30 5568 H 540.031 -0.76279 -1.22137 0
M  V30 5569 H 541.984 0.19266 -4.20959 0
M  V30 5570 H 540.708 0.848254 -3.15392 0
M  V30 5571 H 539.367 -1.26486 -3.44088 0
M  V30 5572 H 539.015 0.670684 -4.98509 0
M  V30 5573 H 538.715 -0.879638 -5.80979 0
M  V30 5574 H 540.239 0.00448788 -6.106 0
M  V30 5575 H 541.653 -2.1279 -5.32347 0
M  V30 5576 H 540.05 -2.91522 -5.24533 0
M  V30 5577 H 541.12 -2.97019 -3.83286 0
M  V30 5578 N 542.463 1.3308 -0.844243 0
M  V30 5579 C 543.41 2.29104 -0.279323 0
M  V30 5580 C 544.38 1.54577 0.607882 0
M  V30 5581 O 545.565 1.8285 0.545009 0
M  V30 5582 C 542.705 3.40927 0.53508 0
M  V30 5583 C 541.818 4.30354 -0.376749 0
M  V30 5584 C 540.953 5.29297 0.449276 0
M  V30 5585 C 539.992 6.10365 -0.460606 0
M  V30 5586 N 539.129 7.01335 0.327612 0
M  V30 5587 H 543.969 2.76817 -1.10346 0
M  V30 5588 H 541.506 1.36203 -0.555611 0
M  V30 5589 H 543.464 4.04469 1.02278 0
M  V30 5590 H 542.094 2.94391 1.32414 0
M  V30 5591 H 541.146 3.67485 -0.982791 0
M  V30 5592 H 542.458 4.87067 -1.07549 0
M  V30 5593 H 541.612 5.98392 1.00058 0
M  V30 5594 H 540.351 4.73174 1.18143 0
M  V30 5595 H 539.356 5.40182 -1.02388 0
M  V30 5596 H 540.581 6.68571 -1.1912 0
M  V30 5597 H 538.527 6.47655 1.04305 0
M  V30 5598 H 538.444 7.55355 -0.3123 0
M  V30 5599 H 539.712 7.74731 0.86098 0
M  V30 5600 N 543.941 0.601185 1.45683 0
M  V30 5601 C 545.218 0.0261659 1.95582 0
M  V30 5602 C 545.598 -1.4399 1.5437 0
M  V30 5603 O 544.946 -2.13919 0.80318 0
M  V30 5604 C 545.156 0.217557 3.48321 0
M  V30 5605 C 546.504 0.0950076 4.24494 0
M  V30 5606 O 547.528 0.147345 3.55895 0
M  V30 5607 O 546.387 -0.025261 5.46494 0
M  V30 5608 H 543.481 -0.0393688 0.826062 0
M  V30 5609 H 546.027 0.670798 1.55879 0
M  V30 5610 H 544.799 1.23601 3.71266 0
M  V30 5611 H 544.422 -0.46264 3.94899 0
M  V30 5612 N 545.419 -1.53889 0.339982 0
M  V30 5613 C 546.667 -2.00458 -0.257112 0
M  V30 5614 C 546.988 -1.22953 -1.51353 0
M  V30 5615 O 546.258 -0.335734 -1.93002 0
M  V30 5616 H 544.838 -0.740544 -0.0979965 0
M  V30 5617 H 547.5 -1.89386 0.460317 0
M  V30 5618 H 546.596 -3.08035 -0.502057 0
M  V30 5619 N 546.897 -0.0685191 -1.57451 0
M  V30 5620 C 548.127 0.609577 -1.97402 0
M  V30 5621 C 548.535 1.63882 -0.945489 0
M  V30 5622 O 547.878 1.8354 0.0766052 0
M  V30 5623 C 547.94 1.3385 -3.33653 0
M  V30 5624 C 547.604 0.463103 -4.54648 0
M  V30 5625 C 548.601 -0.277964 -5.19156 0
M  V30 5626 C 546.286 0.388941 -5.00792 0
M  V30 5627 C 548.28 -1.08145 -6.28159 0
M  V30 5628 C 545.967 -0.418217 -6.09667 0
M  V30 5629 C 546.965 -1.15208 -6.73213 0
M  V30 5630 O 546.653 -1.94594 -7.79993 0
M  V30 5631 H 546.385 0.170197 -0.654224 0
M  V30 5632 H 548.939 -0.13647 -2.04946 0
M  V30 5633 H 547.169 2.13055 -3.22714 0
M  V30 5634 H 548.858 1.90851 -3.58233 0
M  V30 5635 H 549.624 -0.230241 -4.84453 0
M  V30 5636 H 545.503 0.949769 -4.5111 0
M  V30 5637 H 549.047 -1.65476 -6.7769 0
M  V30 5638 H 544.944 -0.467515 -6.43805 0
M  V30 5639 H 545.712 -1.8699 -7.96854 0
M  V30 5640 N 548.375 1.56261 0.205012 0
M  V30 5641 C 549.605 1.83874 0.942018 0
M  V30 5642 C 550.013 0.647595 1.77772 0
M  V30 5643 O 549.356 -0.393098 1.79445 0
M  V30 5644 C 549.418 3.05453 1.89575 0
M  V30 5645 C 549.082 4.39772 1.24296 0
M  V30 5646 C 550.079 5.16133 0.624724 0
M  V30 5647 C 547.764 4.86504 1.24978 0
M  V30 5648 C 549.758 6.37396 0.0220117 0
M  V30 5649 C 547.445 6.07705 0.643232 0
M  V30 5650 C 548.443 6.82993 0.0304164 0
M  V30 5651 O 548.131 8.019 -0.566654 0
M  V30 5652 H 547.863 0.614896 0.280854 0
M  V30 5653 H 550.417 2.04215 0.220285 0
M  V30 5654 H 548.647 2.80972 2.65691 0
M  V30 5655 H 550.336 3.19797 2.4997 0
M  V30 5656 H 551.102 4.81127 0.611666 0
M  V30 5657 H 546.981 4.27865 1.71616 0
M  V30 5658 H 550.525 6.96102 -0.456926 0
M  V30 5659 H 546.422 6.42181 0.653759 0
M  V30 5660 H 547.19 8.17192 -0.462588 0
M  V30 5661 N 549.853 -0.472356 1.50355 0
M  V30 5662 C 550.786 -1.58923 1.63764 0
M  V30 5663 C 551.764 -1.55173 0.485793 0
M  V30 5664 O 552.948 -1.74815 0.705132 0
M  V30 5665 C 550.075 -2.97497 1.61905 0
M  V30 5666 C 549.121 -3.19405 2.82635 0
M  V30 5667 S 549.954 -2.99441 4.43954 0
M  V30 5668 C 551.11 -4.40359 4.44786 0
M  V30 5669 H 551.343 -1.47309 2.58239 0
M  V30 5670 H 548.876 -0.659601 1.39602 0
M  V30 5671 H 550.834 -3.77389 1.61518 0
M  V30 5672 H 549.495 -3.06502 0.686683 0
M  V30 5673 H 548.688 -4.20636 2.77636 0
M  V30 5674 H 548.29 -2.47283 2.80583 0
M  V30 5675 H 550.582 -5.32969 4.1827 0
M  V30 5676 H 551.525 -4.50403 5.46391 0
M  V30 5677 H 551.933 -4.22378 3.74509 0
M  V30 5678 N 551.331 -1.39911 -0.725443 0
M  V30 5679 C 552.747 -1.21725 -1.03224 0
M  V30 5680 C 552.947 -0.0855224 -2.01318 0
M  V30 5681 O 552.003 0.55976 -2.46217 0
M  V30 5682 C 553.316 -2.55511 -1.58539 0
M  V30 5683 C 554.864 -2.62439 -1.70572 0
M  V30 5684 C 555.339 -3.9647 -2.29294 0
M  V30 5685 N 556.83 -3.98159 -2.36692 0
M  V30 5686 C 557.565 -4.98647 -2.83088 0
M  V30 5687 N 557.061 -6.0953 -3.2931 0
M  V30 5688 N 558.854 -4.8602 -2.82384 0
M  V30 5689 H 551.005 -2.12267 -0.075048 0
M  V30 5690 H 553.268 -0.943136 -0.0959066 0
M  V30 5691 H 552.974 -3.38926 -0.939249 0
M  V30 5692 H 552.848 -2.75905 -2.57208 0
M  V30 5693 H 555.235 -1.79401 -2.34306 0
M  V30 5694 H 555.316 -2.45885 -0.705297 0
M  V30 5695 H 554.96 -4.79942 -1.66186 0
M  V30 5696 H 554.89 -4.10349 -3.30032 0
M  V30 5697 H 557.381 -3.18085 -2.04035 0
M  V30 5698 H 557.694 -6.82106 -3.6325 0
M  V30 5699 H 556.039 -6.1311 -3.27294 0
M  V30 5700 H 559.23 -3.98493 -2.45603 0
M  V30 5701 H 559.403 -5.64478 -3.18226 0
M  V30 5702 N 552.809 0.956637 -1.25245 0
M  V30 5703 C 554.22 1.51569 -1.09012 0
M  V30 5704 C 554.571 1.93322 0.334813 0
M  V30 5705 O 553.696 1.78421 1.22454 0
M  V30 5706 C 554.291 2.75444 -1.97271 0
M  V30 5707 C 552.85 3.27669 -1.8523 0
M  V30 5708 C 551.997 2.00517 -1.91542 0
M  V30 5709 H 554.948 0.773746 -1.3856 0
M  V30 5710 H 554.969 3.4919 -1.51151 0
M  V30 5711 H 554.481 2.45024 -3.00973 0
M  V30 5712 H 552.582 3.62914 -0.844045 0
M  V30 5713 H 552.695 3.9582 -2.69932 0
M  V30 5714 H 551.059 2.15727 -1.35404 0
M  V30 5715 H 551.842 1.72448 -2.96844 0
M  V30 5716 N 554.287 1.06798 1.15896 0
M  V30 5717 C 555.527 0.797041 1.8822 0
M  V30 5718 C 555.891 -0.664549 1.80133 0
M  V30 5719 O 557.092 -1.0503 2.47431 0
M  V30 5720 C 555.363 1.28431 3.33527 0
M  V30 5721 S 556.922 1.14319 4.23647 0
M  V30 5722 H 553.74 0.288988 0.649621 0
M  V30 5723 H 556.342 1.36594 1.39865 0
M  V30 5724 H 555.046 2.34286 3.36954 0
M  V30 5725 H 554.577 0.710371 3.86933 0
M  V30 5726 H 556.592 0.0772467 4.9614 0
M  V30 5727 N 555.766 -1.3263 0.851289 0
M  V30 5728 C 557.012 -1.9766 0.453694 0
M  V30 5729 C 557.345 -1.67225 -0.987396 0
M  V30 5730 O 556.62 -0.958693 -1.69232 0
M  V30 5731 C 556.903 -3.5344 0.68936 0
M  V30 5732 C 556.756 -3.93517 2.17862 0
M  V30 5733 C 558.075 -4.39866 0.143555 0
M  V30 5734 H 555.194 -0.717989 0.166314 0
M  V30 5735 H 557.836 -1.57068 1.06909 0
M  V30 5736 H 555.986 -3.88147 0.165546 0
M  V30 5737 H 557.658 -3.69006 2.76826 0
M  V30 5738 H 555.901 -3.42798 2.65841 0
M  V30 5739 H 556.572 -5.02065 2.29422 0
M  V30 5740 H 559.048 -4.11875 0.591451 0
M  V30 5741 H 557.924 -5.47858 0.338043 0
M  V30 5742 H 558.185 -4.31696 -0.953466 0
M  V30 5743 N 557.244 -0.608902 -1.45362 0
M  V30 5744 C 558.174 0.0964526 -2.33301 0
M  V30 5745 C 559.155 0.857444 -1.46908 0
M  V30 5746 O 560.34 0.827735 -1.75676 0
M  V30 5747 C 557.47 1.09354 -3.29635 0
M  V30 5748 C 556.424 0.445676 -4.25673 0
M  V30 5749 C 555.75 1.5511 -5.11708 0
M  V30 5750 C 557.05 -0.633972 -5.18438 0
M  V30 5751 H 558.744 -0.637829 -2.92527 0
M  V30 5752 H 556.29 -0.308178 -1.40664 0
M  V30 5753 H 558.243 1.59556 -3.90025 0
M  V30 5754 H 556.967 1.85843 -2.6857 0
M  V30 5755 H 555.626 -0.0354897 -3.66583 0
M  V30 5756 H 555.274 2.30631 -4.4701 0
M  V30 5757 H 554.974 1.12311 -5.76767 0
M  V30 5758 H 556.498 2.05537 -5.74967 0
M  V30 5759 H 557.912 -0.215974 -5.72893 0
M  V30 5760 H 556.309 -0.983789 -5.91981 0
M  V30 5761 H 557.379 -1.51005 -4.60788 0
M  V30 5762 N 558.722 1.53707 -0.348139 0
M  V30 5763 C 559.95 2.05406 0.248224 0
M  V30 5764 C 560.365 1.22282 1.43849 0
M  V30 5765 O 559.722 0.259244 1.80649 0
M  V30 5766 C 559.773 3.55446 0.658793 0
M  V30 5767 O 559.494 4.35417 -0.484149 0
M  V30 5768 C 560.995 4.23335 1.31539 0
M  V30 5769 H 558.215 0.669344 0.0471075 0
M  V30 5770 H 560.759 1.98257 -0.501456 0
M  V30 5771 H 558.914 3.62803 1.35841 0
M  V30 5772 H 559.328 5.24268 -0.155949 0
M  V30 5773 H 560.802 5.29692 1.55338 0
M  V30 5774 H 561.279 3.75967 2.27036 0
M  V30 5775 H 561.885 4.20184 0.657683 0
M  V30 5776 N 560.2 0.0768682 1.57412 0
M  V30 5777 C 561.148 -0.906229 2.1422 0
M  V30 5778 C 562.142 -1.30477 1.08037 0
M  V30 5779 O 563.348 -1.28143 1.2641 0
M  V30 5780 H 559.723 -0.310207 0.685037 0
M  V30 5781 H 561.694 -0.402228 2.95677 0
M  V30 5782 C 560.443 -2.16245 2.72274 0
M  V30 5783 H 559.766 -1.86463 3.53655 0
M  V30 5784 H 561.206 -2.83134 3.15613 0
M  V30 5785 C 559.665 -2.92437 1.67279 0
M  V30 5786 O 560.195 -3.86322 1.10081 0
M  V30 5787 N 558.401 -2.55637 1.38195 0
M  V30 5788 H 557.948 -1.79363 1.84897 0
M  V30 5789 H 557.906 -3.06919 0.681787 0
M  V30 5790 N 561.678 -1.56367 -0.196722 0
M  V30 5791 C 562.918 -1.82315 -0.92415 0
M  V30 5792 C 563.282 -0.654117 -1.80514 0
M  V30 5793 O 564.483 -0.79345 -2.56823 0
M  V30 5794 C 562.754 -3.13279 -1.72021 0
M  V30 5795 S 564.313 -3.60627 -2.49988 0
M  V30 5796 H 561.131 -0.639862 -0.309997 0
M  V30 5797 H 563.733 -1.94597 -0.187684 0
M  V30 5798 H 562.437 -3.96379 -1.06358 0
M  V30 5799 H 561.968 -3.03871 -2.49852 0
M  V30 5800 H 563.983 -3.25934 -3.74141 0
M  V30 5801 N 563.156 0.464375 -1.50603 0
M  V30 5802 C 564.572 0.798684 -1.38178 0
M  V30 5803 C 564.772 1.96568 -0.44308 0
M  V30 5804 O 563.828 2.52252 0.111814 0
M  V30 5805 C 565.141 1.10444 -2.79683 0
M  V30 5806 C 566.689 1.2105 -2.88645 0
M  V30 5807 C 567.164 1.54934 -4.30998 0
M  V30 5808 N 568.655 1.61913 -4.3398 0
M  V30 5809 C 569.39 1.8965 -5.41129 0
M  V30 5810 N 568.886 2.15361 -6.58477 0
M  V30 5811 N 570.679 1.91207 -5.28579 0
M  V30 5812 H 562.83 -0.304603 -2.10204 0
M  V30 5813 H 565.093 -0.0737804 -0.945125 0
M  V30 5814 H 564.799 0.319934 -3.50242 0
M  V30 5815 H 564.673 2.03896 -3.17342 0
M  V30 5816 H 567.06 1.98567 -2.18301 0
M  V30 5817 H 567.141 0.255613 -2.5452 0
M  V30 5818 H 566.785 0.779549 -5.01882 0
M  V30 5819 H 566.715 2.51584 -4.62615 0
M  V30 5820 H 569.206 1.44055 -3.49366 0
M  V30 5821 H 569.519 2.35818 -7.35941 0
M  V30 5822 H 567.864 2.1274 -6.6164 0
M  V30 5823 H 571.055 1.70622 -4.35897 0
M  V30 5824 H 571.228 2.12488 -6.12171 0
M  V30 5825 N 564.634 1.40294 0.718013 0
M  V30 5826 C 565.911 1.2894 1.47084 0
M  V30 5827 C 566.291 -0.0933625 2.10893 0
M  V30 5828 O 565.639 -1.10598 1.99951 0
M  V30 5829 C 565.849 2.4264 2.50852 0
M  V30 5830 C 567.197 2.8276 3.16752 0
M  V30 5831 O 568.221 2.42215 2.61171 0
M  V30 5832 O 567.08 3.528 4.17366 0
M  V30 5833 H 564.174 0.506236 0.653952 0
M  V30 5834 H 566.72 1.52208 0.750394 0
M  V30 5835 H 565.492 3.35009 2.022 0
M  V30 5836 H 565.115 2.21129 3.30435 0
M  V30 5837 N 566.112 -0.949982 1.2575 0
M  V30 5838 C 567.389 -1.6718 1.01539 0
M  V30 5839 C 567.769 -2.06095 -0.456942 0
M  V30 5840 O 567.117 -1.77792 -1.43534 0
M  V30 5841 C 567.327 -2.8906 1.95564 0
M  V30 5842 C 568.675 -3.60909 2.23673 0
M  V30 5843 O 569.699 -2.9915 1.9336 0
M  V30 5844 O 568.558 -4.72127 2.75243 0
M  V30 5845 H 565.652 -0.731697 0.385419 0
M  V30 5846 H 568.198 -1.00249 1.36924 0
M  V30 5847 H 566.97 -2.57128 2.94959 0
M  V30 5848 H 566.593 -3.63719 1.60605 0
M  V30 5849 N 567.59 -1.07411 -1.15328 0
M  V30 5850 C 568.523 -0.63913 -2.19067 0
M  V30 5851 C 569.501 0.343929 -1.58921 0
M  V30 5852 O 570.685 0.250207 -1.86832 0
M  V30 5853 C 567.812 0.0613977 -3.38644 0
M  V30 5854 C 566.858 -0.880201 -4.17318 0
M  V30 5855 S 567.691 -2.38152 -4.79629 0
M  V30 5856 C 568.847 -1.69281 -6.02573 0
M  V30 5857 H 569.08 -1.51799 -2.55626 0
M  V30 5858 H 566.613 -0.888138 -1.26299 0
M  V30 5859 H 568.571 0.459323 -4.07922 0
M  V30 5860 H 567.232 0.916605 -3.00428 0
M  V30 5861 H 566.425 -0.336781 -5.02874 0
M  V30 5862 H 566.027 -1.21854 -3.53592 0
M  V30 5863 H 568.319 -1.00488 -6.70006 0
M  V30 5864 H 569.262 -2.52671 -6.61485 0
M  V30 5865 H 569.67 -1.17053 -5.52231 0
M  V30 5866 N 569.068 1.32177 -0.85831 0
M  V30 5867 C 570.296 2.01313 -0.477582 0
M  V30 5868 C 570.711 1.6449 0.926736 0
M  V30 5869 O 570.068 0.868096 1.60531 0
M  V30 5870 C 570.119 3.56293 -0.611337 0
M  V30 5871 O 569.84 3.91794 -1.96034 0
M  V30 5872 C 571.341 4.42702 -0.230093 0
M  V30 5873 H 568.561 0.644323 -0.187322 0
M  V30 5874 H 571.105 1.68674 -1.15626 0
M  V30 5875 H 569.26 3.87395 0.0196494 0
M  V30 5876 H 569.674 4.86513 -1.95973 0
M  V30 5877 H 571.148 5.50727 -0.374674 0
M  V30 5878 H 571.625 4.3129 0.829779 0
M  V30 5879 H 572.231 4.16997 -0.836302 0
M  V30 5880 N 570.547 0.616602 1.45037 0
M  V30 5881 C 571.787 0.118453 2.04056 0
M  V30 5882 C 572.151 -1.23104 1.47341 0
M  V30 5883 O 573.352 -1.82044 1.97771 0
M  V30 5884 C 571.623 0.0892842 3.57288 0
M  V30 5885 S 573.182 -0.346361 4.37431 0
M  V30 5886 H 570 0.0539728 0.708948 0
M  V30 5887 H 572.602 0.816731 1.77623 0
M  V30 5888 H 571.306 1.07481 3.96076 0
M  V30 5889 H 570.837 -0.630703 3.88311 0
M  V30 5890 H 572.852 -1.59389 4.69904 0
M  V30 5891 N 572.025 -1.5352 0.356285 0
M  V30 5892 C 573.271 -2.01414 -0.236653 0
M  V30 5893 C 573.604 -1.24339 -1.49176 0
M  V30 5894 O 572.879 -0.334496 -1.91602 0
M  V30 5895 C 573.162 -3.56059 -0.537982 0
M  V30 5896 C 573.015 -4.43835 0.730112 0
M  V30 5897 C 574.334 -4.19127 -1.34239 0
M  V30 5898 H 571.453 -0.732135 -0.0845386 0
M  V30 5899 H 574.095 -1.83854 0.479341 0
M  V30 5900 H 572.245 -3.71153 -1.14795 0
M  V30 5901 H 573.917 -4.40555 1.36782 0
M  V30 5902 H 572.16 -4.1218 1.3524 0
M  V30 5903 H 572.831 -5.49958 0.474358 0
M  V30 5904 H 575.307 -4.07809 -0.826498 0
M  V30 5905 H 574.183 -5.27378 -1.52198 0
M  V30 5906 H 574.444 -3.74581 -2.34822 0
M  V30 5907 N 573.503 -0.0852151 -1.57369 0
M  V30 5908 C 574.45 0.877268 -2.13478 0
M  V30 5909 C 575.42 1.28642 -1.05073 0
M  V30 5910 O 576.605 1.36992 -1.32808 0
M  V30 5911 C 573.745 2.13464 -2.71159 0
M  V30 5912 C 572.858 1.77691 -3.93764 0
M  V30 5913 C 571.993 2.98139 -4.39643 0
M  V30 5914 C 571.032 2.58447 -5.54862 0
M  V30 5915 N 570.169 3.71698 -5.95639 0
M  V30 5916 H 575.009 0.391933 -2.95411 0
M  V30 5917 H 572.546 0.181796 -1.45972 0
M  V30 5918 H 574.504 2.87086 -3.02717 0
M  V30 5919 H 573.134 2.59514 -1.91969 0
M  V30 5920 H 572.186 0.940768 -3.68583 0
M  V30 5921 H 573.498 1.44497 -4.77412 0
M  V30 5922 H 572.652 3.80026 -4.72933 0
M  V30 5923 H 571.391 3.34536 -3.54876 0
M  V30 5924 H 570.396 1.74984 -5.21211 0
M  V30 5925 H 571.621 2.23205 -6.41371 0
M  V30 5926 H 569.567 4.07831 -5.13819 0
M  V30 5927 H 569.484 3.42317 -6.74059 0
M  V30 5928 H 570.752 4.54123 -6.33555 0
M  V30 5929 N 574.981 1.5647 0.188427 0
M  V30 5930 C 575.891 1.98285 1.2538 0
M  V30 5931 C 576.907 0.891535 1.49424 0
M  V30 5932 O 578.083 1.19782 1.61908 0
M  V30 5933 C 575.148 2.31965 2.57669 0
M  V30 5934 C 574.209 3.54838 2.41638 0
M  V30 5935 C 573.442 3.86901 3.67618 0
M  V30 5936 O 573.665 3.20163 4.72072 0
M  V30 5937 O 572.599 4.80309 3.62749 0
M  V30 5938 H 576.425 2.89145 0.928912 0
M  V30 5939 H 574.01 1.44112 0.393955 0
M  V30 5940 H 575.892 2.54673 3.35737 0
M  V30 5941 H 574.567 1.44271 2.89771 0
M  V30 5942 H 573.474 3.37369 1.61658 0
M  V30 5943 H 574.807 4.43019 2.14465 0
M  V30 5944 N 576.459 -0.456382 1.50847 0
M  V30 5945 C 577.369 -1.57805 1.73594 0
M  V30 5946 C 578.385 -1.62599 0.619476 0
M  V30 5947 O 579.561 -1.80195 0.899532 0
M  V30 5948 C 576.626 -2.93926 1.8387 0
M  V30 5949 C 575.687 -2.99402 3.07663 0
M  V30 5950 C 574.92 -4.29031 3.1744 0
M  V30 5951 O 575.143 -5.20358 2.33631 0
M  V30 5952 O 574.077 -4.40401 4.10281 0
M  V30 5953 H 577.903 -1.41531 2.68705 0
M  V30 5954 H 575.488 -0.637422 1.3512 0
M  V30 5955 H 577.37 -3.74747 1.92725 0
M  V30 5956 H 576.045 -3.10368 0.91944 0
M  V30 5957 H 574.952 -2.17606 3.043 0
M  V30 5958 H 576.285 -2.87901 3.99216 0
M  V30 5959 N 577.937 -1.40673 -0.710563 0
M  V30 5960 C 579.186 -1.38525 -1.46607 0
M  V30 5961 C 579.499 0.0077024 -1.95598 0
M  V30 5962 O 580.705 0.151792 -2.71075 0
M  V30 5963 C 579.161 -2.43489 -2.6503 0
M  V30 5964 C 578.769 -3.88619 -2.22888 0
M  V30 5965 C 580.513 -2.50456 -3.42742 0
M  V30 5966 C 578.42 -4.85168 -3.3818 0
M  V30 5967 H 577.35 -0.515092 -0.550632 0
M  V30 5968 H 580.001 -1.66431 -0.772846 0
M  V30 5969 H 578.383 -2.0869 -3.36548 0
M  V30 5970 H 579.557 -4.32588 -1.58758 0
M  V30 5971 H 577.872 -3.85174 -1.58208 0
M  V30 5972 H 580.469 -3.19776 -4.28541 0
M  V30 5973 H 580.812 -1.53665 -3.86902 0
M  V30 5974 H 581.345 -2.84271 -2.78271 0
M  V30 5975 H 578.084 -5.8331 -2.99047 0
M  V30 5976 H 577.604 -4.4586 -4.01209 0
M  V30 5977 H 579.283 -5.05225 -4.04174 0
M  V30 5978 N 579.415 0.9433 -1.26252 0
M  V30 5979 C 580.662 1.68925 -1.11672 0
M  V30 5980 C 580.99 1.91499 0.340329 0
M  V30 5981 O 580.245 1.49189 1.26653 0
M  V30 5982 C 580.544 3.07073 -1.82868 0
M  V30 5983 C 580.21 3.04262 -3.32769 0
M  V30 5984 C 578.872 3.03203 -3.7366 0
M  V30 5985 C 581.224 2.96729 -4.28487 0
M  V30 5986 C 578.552 2.92373 -5.0866 0
M  V30 5987 C 580.904 2.87442 -5.63525 0
M  V30 5988 C 579.568 2.84724 -6.03729 0
M  V30 5989 H 578.838 0.618141 -0.408635 0
M  V30 5990 H 581.485 1.10124 -1.56668 0
M  V30 5991 H 579.79 3.69486 -1.30335 0
M  V30 5992 H 581.487 3.63635 -1.69029 0
M  V30 5993 H 578.077 3.05865 -3.00241 0
M  V30 5994 H 582.261 2.96658 -3.97879 0
M  V30 5995 H 577.517 2.88645 -5.38975 0
M  V30 5996 H 581.691 2.80576 -6.37377 0
M  V30 5997 H 579.318 2.76089 -7.08293 0
M  V30 5998 N 580.893 1.08022 1.14757 0
M  V30 5999 C 582.141 0.805913 1.85336 0
M  V30 6000 C 582.462 -0.670162 1.83122 0
M  V30 6001 O 581.732 -1.48567 1.2769 0
M  V30 6002 H 580.312 0.295138 0.686223 0
M  V30 6003 H 582.974 1.36538 1.3908 0
M  V30 6004 H 582.07 1.14655 2.90277 0
M  V30 6005 N 582.371 -1.3172 0.865308 0
M  V30 6006 C 583.782 -1.79104 0.527126 0
M  V30 6007 C 584.133 -1.7135 -0.955695 0
M  V30 6008 O 583.258 -1.27845 -1.74598 0
M  V30 6009 C 583.853 -3.25207 0.950061 0
M  V30 6010 C 582.412 -3.70504 0.663611 0
M  V30 6011 C 581.559 -2.52605 1.14395 0
M  V30 6012 H 584.51 -1.18868 1.05148 0
M  V30 6013 H 584.531 -3.79535 0.270805 0
M  V30 6014 H 584.043 -3.30818 2.02931 0
M  V30 6015 H 582.144 -3.70398 -0.404474 0
M  V30 6016 H 582.257 -4.62845 1.23737 0
M  V30 6017 H 580.621 -2.4838 0.563859 0
M  V30 6018 H 581.404 -2.60964 2.23053 0
M  V30 6019 N 583.85 -0.624285 -1.44708 0
M  V30 6020 C 585.096 -0.126237 -2.02407 0
M  V30 6021 C 585.428 1.24618 -1.48943 0
M  V30 6022 O 584.704 1.82569 -0.670742 0
M  V30 6023 C 584.986 -0.105449 -3.59946 0
M  V30 6024 C 584.84 -1.50972 -4.23707 0
M  V30 6025 C 586.159 0.573629 -4.36346 0
M  V30 6026 H 583.278 -0.0473472 -0.735478 0
M  V30 6027 H 585.92 -0.799452 -1.72362 0
M  V30 6028 H 584.07 0.46783 -3.85673 0
M  V30 6029 H 585.742 -2.13136 -4.0911 0
M  V30 6030 H 583.985 -2.0656 -3.81465 0
M  V30 6031 H 584.656 -1.44727 -5.32689 0
M  V30 6032 H 587.132 0.0861787 -4.16011 0
M  V30 6033 H 586.008 0.557338 -5.46063 0
M  V30 6034 H 586.269 1.64276 -4.10446 0
M  V30 6035 N 585.328 1.53329 -0.364422 0
M  V30 6036 C 586.261 2.22052 0.526145 0
M  V30 6037 C 587.239 1.21203 1.08391 0
M  V30 6038 O 588.423 1.50101 1.14026 0
M  V30 6039 C 585.55 2.91432 1.72583 0
M  V30 6040 C 584.596 4.06345 1.29562 0
M  V30 6041 S 585.429 5.34671 0.297885 0
M  V30 6042 C 586.585 6.07563 1.50392 0
M  V30 6043 H 586.818 2.97244 -0.0575055 0
M  V30 6044 H 584.351 1.53684 -0.148525 0
M  V30 6045 H 586.309 3.3202 2.41398 0
M  V30 6046 H 584.97 2.15966 2.28073 0
M  V30 6047 H 584.163 4.53901 2.19067 0
M  V30 6048 H 583.765 3.67642 0.686696 0
M  V30 6049 H 586.057 6.32224 2.43513 0
M  V30 6050 H 587 6.99973 1.06977 0
M  V30 6051 H 587.408 5.37994 1.70945 0
M  V30 6052 N 586.806 0.0935595 1.57322 0
M  V30 6053 C 588.031 -0.582324 1.99057 0
M  V30 6054 C 588.456 -1.61025 0.972242 0
M  V30 6055 O 587.814 -1.81202 -0.0594622 0
M  V30 6056 C 587.862 -1.20799 3.39765 0
M  V30 6057 O 586.966 -2.32382 3.40694 0
M  V30 6058 H 586.307 -0.147884 0.647323 0
M  V30 6059 H 588.837 0.174516 2.03854 0
M  V30 6060 H 588.847 -1.54966 3.77425 0
M  V30 6061 H 587.522 -0.454914 4.13405 0
M  V30 6062 H 586.099 -1.99845 3.14827 0
M  V30 6063 N 588.284 -1.56567 -0.180126 0
M  V30 6064 C 589.533 -1.80685 -0.896426 0
M  V30 6065 C 589.846 -0.669335 -1.83791 0
M  V30 6066 O 591.052 -0.795209 -2.59593 0
M  V30 6067 C 589.508 -3.20132 -1.6445 0
M  V30 6068 C 589.116 -4.41727 -0.747088 0
M  V30 6069 C 590.86 -3.53549 -2.34955 0
M  V30 6070 C 588.767 -5.72195 -1.49489 0
M  V30 6071 H 587.697 -0.673758 -0.338477 0
M  V30 6072 H 590.348 -1.8289 -0.149467 0
M  V30 6073 H 588.73 -3.12218 -2.43589 0
M  V30 6074 H 589.904 -4.608 0.00671129 0
M  V30 6075 H 588.219 -4.16122 -0.152134 0
M  V30 6076 H 590.816 -4.48267 -2.91481 0
M  V30 6077 H 591.159 -2.78006 -3.09868 0
M  V30 6078 H 591.692 -3.62976 -1.62768 0
M  V30 6079 H 588.431 -6.50743 -0.788251 0
M  V30 6080 H 587.951 -5.57115 -2.22224 0
M  V30 6081 H 589.63 -6.1384 -2.04472 0
M  V30 6082 N 589.762 0.448376 -1.51087 0
M  V30 6083 C 590.692 1.55102 -1.74544 0
M  V30 6084 C 591.673 1.59357 -0.594932 0
M  V30 6085 O 592.858 1.75261 -0.836491 0
M  V30 6086 C 589.988 2.93268 -1.86041 0
M  V30 6087 C 588.942 3.03877 -3.01402 0
M  V30 6088 C 588.268 4.43914 -2.98068 0
M  V30 6089 C 589.568 2.7898 -4.41551 0
M  V30 6090 H 591.262 1.35724 -2.66869 0
M  V30 6091 H 588.808 0.651498 -1.28419 0
M  V30 6092 H 590.761 3.70356 -2.01034 0
M  V30 6093 H 589.485 3.13853 -0.903548 0
M  V30 6094 H 588.144 2.29227 -2.86096 0
M  V30 6095 H 587.792 4.6145 -2.00182 0
M  V30 6096 H 587.492 4.51944 -3.75527 0
M  V30 6097 H 589.016 5.22991 -3.1514 0
M  V30 6098 H 590.43 3.45805 -4.57265 0
M  V30 6099 H 588.827 2.98431 -5.20633 0
M  V30 6100 H 589.897 1.74663 -4.5235 0
M  V30 6101 N 591.24 1.41047 0.703093 0
M  V30 6102 C 592.465 1.43537 1.49706 0
M  V30 6103 C 592.89 0.0401853 1.88057 0
M  V30 6104 O 592.248 -0.954785 1.54122 0
M  V30 6105 C 592.296 2.3433 2.74084 0
M  V30 6106 O 591.4 1.79515 3.71279 0
M  V30 6107 H 590.741 0.487454 0.450871 0
M  V30 6108 H 593.271 1.85422 0.86486 0
M  V30 6109 H 593.281 2.49947 3.22476 0
M  V30 6110 H 591.956 3.35708 2.45506 0
M  V30 6111 H 590.533 1.7331 3.30179 0
M  V30 6112 N 592.718 -0.936591 1.26751 0
M  V30 6113 C 593.965 -1.68331 1.12566 0
M  V30 6114 C 594.293 -1.91677 -0.330168 0
M  V30 6115 O 593.548 -1.49859 -1.2586 0
M  V30 6116 C 593.847 -3.06099 1.84494 0
M  V30 6117 C 593.513 -3.02493 3.34378 0
M  V30 6118 C 592.175 -3.01217 3.75262 0
M  V30 6119 C 594.527 -2.94453 4.30055 0
M  V30 6120 C 591.855 -2.89672 5.10203 0
M  V30 6121 C 594.207 -2.84449 5.65041 0
M  V30 6122 C 592.871 -2.81518 6.0523 0
M  V30 6123 H 592.141 -0.615965 0.411907 0
M  V30 6124 H 594.788 -1.09292 1.5725 0
M  V30 6125 H 593.093 -3.6879 1.32292 0
M  V30 6126 H 594.79 -3.62733 1.70955 0
M  V30 6127 H 591.38 -3.04269 3.01858 0
M  V30 6128 H 595.564 -2.94544 3.99447 0
M  V30 6129 H 590.82 -2.85783 5.40498 0
M  V30 6130 H 594.994 -2.77192 6.38856 0
M  V30 6131 H 592.621 -2.72329 7.09747 0
M  V30 6132 N 594.196 -1.08629 -1.14182 0
M  V30 6133 C 595.473 -0.73002 -1.81466 0
M  V30 6134 C 595.853 0.785996 -1.95922 0
M  V30 6135 O 595.201 1.70535 -1.52086 0
M  V30 6136 C 595.411 -1.45957 -3.17014 0
M  V30 6137 C 596.759 -1.62008 -3.92477 0
M  V30 6138 O 597.783 -1.42141 -3.26611 0
M  V30 6139 O 596.642 -1.94806 -5.106 0
M  V30 6140 H 593.736 -0.261307 -0.784632 0
M  V30 6141 H 596.282 -1.188 -1.2118 0
M  V30 6142 H 595.054 -2.49221 -3.01669 0
M  V30 6143 H 594.677 -0.993222 -3.84995 0
M  V30 6144 N 595.674 1.31259 -0.872281 0
M  V30 6145 C 596.902 2.00795 -0.498907 0
M  V30 6146 C 597.317 1.65464 0.909238 0
M  V30 6147 O 596.674 0.885073 1.59602 0
M  V30 6148 C 596.725 3.55625 -0.649092 0
M  V30 6149 O 596.446 3.89692 -2.00179 0
M  V30 6150 C 597.947 4.42434 -0.277034 0
M  V30 6151 H 595.167 0.642299 -0.194145 0
M  V30 6152 H 597.711 1.67438 -1.17408 0
M  V30 6153 H 595.866 3.87394 -0.0214402 0
M  V30 6154 H 596.28 4.84407 -2.01122 0
M  V30 6155 H 597.754 5.50299 -0.433064 0
M  V30 6156 H 598.231 4.32146 0.783989 0
M  V30 6157 H 598.837 4.16086 -0.880483 0
M  V30 6158 N 597.152 0.631951 1.44375 0
M  V30 6159 C 598.062 -0.073674 2.34484 0
M  V30 6160 C 599.078 -0.834825 1.52665 0
M  V30 6161 O 600.254 -0.786902 1.85391 0
M  V30 6162 C 597.319 -1.04247 3.30656 0
M  V30 6163 C 596.38 -0.280602 4.28382 0
M  V30 6164 C 595.613 -1.20325 5.19959 0
M  V30 6165 O 595.836 -2.44199 5.15484 0
M  V30 6166 O 594.77 -0.687128 5.97965 0
M  V30 6167 H 598.596 0.667477 2.96274 0
M  V30 6168 H 596.181 0.392144 1.44162 0
M  V30 6169 H 598.063 -1.59981 3.89851 0
M  V30 6170 H 596.738 -1.76422 2.71398 0
M  V30 6171 H 595.645 0.319804 3.72731 0
M  V30 6172 H 596.978 0.401144 4.90563 0
M  V30 6173 N 598.631 -1.53133 0.372548 0
M  V30 6174 C 599.594 -2.24569 -0.458389 0
M  V30 6175 C 600.594 -1.25603 -1.00402 0
M  V30 6176 O 601.784 -1.49827 -0.888672 0
M  V30 6177 C 598.916 -2.98783 -1.6414 0
M  V30 6178 H 600.109 -2.99436 0.166799 0
M  V30 6179 H 597.662 -1.55805 0.124357 0
M  V30 6180 H 598.397 -2.28176 -2.30448 0
M  V30 6181 H 598.182 -3.71404 -1.25704 0
M  V30 6182 H 599.672 -3.53068 -2.23008 0
M  V30 6183 N 600.109 -0.101901 -1.5727 0
M  V30 6184 C 601.019 0.868647 -2.17926 0
M  V30 6185 C 602.035 1.30527 -1.1506 0
M  V30 6186 O 603.211 1.37178 -1.47459 0
M  V30 6187 C 600.276 2.10727 -2.75309 0
M  V30 6188 C 599.337 1.7242 -3.93154 0
M  V30 6189 C 598.57 2.90377 -4.47791 0
M  V30 6190 O 598.793 4.05305 -4.01353 0
M  V30 6191 O 597.727 2.6845 -5.38719 0
M  V30 6192 H 601.553 0.382544 -3.01281 0
M  V30 6193 H 599.138 0.122812 -1.48894 0
M  V30 6194 H 601.02 2.83303 -3.11958 0
M  V30 6195 H 599.695 2.58376 -1.94996 0
M  V30 6196 H 598.602 0.970039 -3.61305 0
M  V30 6197 H 599.935 1.29528 -4.74851 0
M  V30 6198 N 601.587 1.56661 0.17182 0
M  V30 6199 C 602.833 1.82235 0.889845 0
M  V30 6200 C 603.166 0.679673 1.81918 0
M  V30 6201 O 602.441 -0.318404 1.91876 0
M  V30 6202 C 602.724 3.18195 1.68595 0
M  V30 6203 C 602.577 4.42989 0.779773 0
M  V30 6204 C 603.896 3.5109 2.65375 0
M  V30 6205 H 601.015 0.66291 0.322056 0
M  V30 6206 H 603.657 1.89358 0.15608 0
M  V30 6207 H 601.807 3.12253 2.3115 0
M  V30 6208 H 603.479 4.60997 0.16714 0
M  V30 6209 H 601.722 4.33711 0.0877964 0
M  V30 6210 H 602.393 5.3467 1.3723 0
M  V30 6211 H 604.869 3.57482 2.12946 0
M  V30 6212 H 603.745 4.47298 3.18144 0
M  V30 6213 H 604.006 2.75768 3.45549 0
M  V30 6214 N 603.065 -0.440357 1.51323 0
M  V30 6215 C 603.995 -1.54174 1.75364 0
M  V30 6216 C 604.976 -1.59039 0.603375 0
M  V30 6217 O 606.161 -1.74815 0.845774 0
M  V30 6218 C 603.291 -2.92277 1.87593 0
M  V30 6219 C 602.245 -3.02274 3.03009 0
M  V30 6220 C 601.571 -4.42327 3.00418 0
M  V30 6221 C 602.871 -2.76634 4.43024 0
M  V30 6222 H 604.565 -1.34307 2.67585 0
M  V30 6223 H 602.111 -0.644678 1.28763 0
M  V30 6224 H 604.064 -3.69284 2.02995 0
M  V30 6225 H 602.788 -3.13369 0.920179 0
M  V30 6226 H 601.447 -2.27706 2.87307 0
M  V30 6227 H 601.095 -4.60382 2.02626 0
M  V30 6228 H 600.795 -4.49946 3.77918 0
M  V30 6229 H 602.319 -5.21312 3.17909 0
M  V30 6230 H 603.733 -3.43376 4.59093 0
M  V30 6231 H 602.13 -2.95666 5.22208 0
M  V30 6232 H 603.2 -1.72262 4.5327 0
M  V30 6233 N 604.543 -1.41418 -0.695603 0
M  V30 6234 C 605.453 -1.45622 -1.83933 0
M  V30 6235 C 606.469 -0.346825 -1.70508 0
M  V30 6236 O 607.645 -0.59454 -1.92424 0
M  V30 6237 C 604.71 -1.33627 -3.19914 0
M  V30 6238 C 603.771 -2.54882 -3.45447 0
M  V30 6239 C 603.004 -2.43449 -4.7494 0
M  V30 6240 O 603.227 -1.45905 -5.51424 0
M  V30 6241 O 602.161 -3.33206 -5.01256 0
M  V30 6242 H 605.987 -2.42114 -1.83342 0
M  V30 6243 H 603.572 -1.22956 -0.848658 0
M  V30 6244 H 605.454 -1.29221 -4.01098 0
M  V30 6245 H 604.129 -0.402508 -3.21188 0
M  V30 6246 H 603.036 -2.64865 -2.64192 0
M  V30 6247 H 604.369 -3.47087 -3.48987 0
M  V30 6248 N 606.021 0.929856 -1.27246 0
M  V30 6249 C 607.437 1.20542 -1.04603 0
M  V30 6250 C 607.637 2.00276 0.221754 0
M  V30 6251 O 606.693 2.34835 0.927833 0
M  V30 6252 C 608.006 1.95566 -2.28417 0
M  V30 6253 C 609.554 2.08513 -2.33433 0
M  V30 6254 C 610.029 2.86943 -3.5697 0
M  V30 6255 N 611.52 2.94512 -3.57515 0
M  V30 6256 C 612.255 3.55656 -4.49774 0
M  V30 6257 N 611.751 4.18209 -5.52334 0
M  V30 6258 N 613.544 3.53038 -4.37402 0
M  V30 6259 H 605.695 0.397113 -2.08655 0
M  V30 6260 H 607.958 0.238277 -0.917566 0
M  V30 6261 H 607.664 1.44395 -3.20691 0
M  V30 6262 H 607.538 2.9619 -2.33563 0
M  V30 6263 H 609.925 2.58872 -1.41666 0
M  V30 6264 H 610.006 1.07117 -2.32292 0
M  V30 6265 H 609.65 2.37268 -4.49072 0
M  V30 6266 H 609.58 3.8862 -3.55362 0
M  V30 6267 H 612.071 2.50053 -2.83341 0
M  V30 6268 H 612.384 4.62796 -6.18902 0
M  V30 6269 H 610.729 4.16761 -5.56179 0
M  V30 6270 H 613.92 3.0337 -3.56489 0
M  V30 6271 H 614.093 4.004 -5.09493 0
M  V30 6272 N 607.499 1.09233 1.13605 0
M  V30 6273 C 608.462 0.733553 2.17144 0
M  V30 6274 C 609.462 -0.235873 1.59061 0
M  V30 6275 O 610.652 -0.0143167 1.74194 0
M  V30 6276 C 607.784 0.084471 3.40795 0
M  V30 6277 H 608.977 1.65049 2.50397 0
M  V30 6278 H 606.53 0.891264 1.28399 0
M  V30 6279 H 607.265 -0.843795 3.1313 0
M  V30 6280 H 607.05 0.781985 3.84223 0
M  V30 6281 H 608.54 -0.151216 4.17326 0
M  V30 6282 N 608.977 -1.30795 0.87923 0
M  V30 6283 C 609.925 -2.30231 0.331112 0
M  V30 6284 C 610.919 -1.59918 -0.558794 0
M  V30 6285 O 612.125 -1.74441 -0.443866 0
M  V30 6286 H 608.5 -0.746785 0.088409 0
M  V30 6287 H 610.471 -2.73925 1.18353 0
M  V30 6288 C 609.22 -3.44848 -0.444401 0
M  V30 6289 H 608.543 -3.99131 0.231106 0
M  V30 6290 H 609.983 -4.16516 -0.793109 0
M  V30 6291 C 608.442 -2.94329 -1.63926 0
M  V30 6292 O 608.972 -2.93875 -2.73862 0
M  V30 6293 N 607.178 -2.50413 -1.4745 0
M  V30 6294 H 606.725 -2.50982 -0.58015 0
M  V30 6295 H 606.683 -2.16969 -2.27534 0
M  V30 6296 N 610.455 -0.639598 -1.44038 0
M  V30 6297 C 611.732 -0.078012 -1.95444 0
M  V30 6298 C 612.112 1.39847 -1.58133 0
M  V30 6299 O 611.46 2.11714 -0.859614 0
M  V30 6300 C 611.67 -0.309832 -3.47622 0
M  V30 6301 C 613.018 -0.207521 -4.24093 0
M  V30 6302 O 614.042 -0.241653 -3.55379 0
M  V30 6303 O 612.901 -0.119641 -5.46369 0
M  V30 6304 H 609.995 0.0174534 -0.826816 0
M  V30 6305 H 612.541 -0.711891 -1.54046 0
M  V30 6306 H 611.313 -1.33401 -3.67858 0
M  V30 6307 H 610.936 0.357777 -3.95987 0
M  V30 6308 N 611.933 1.52934 -0.380664 0
M  V30 6309 C 613.161 2.05886 0.204599 0
M  V30 6310 C 613.576 1.25305 1.41223 0
M  V30 6311 O 612.933 0.297504 1.80059 0
M  V30 6312 C 612.984 3.56764 0.583249 0
M  V30 6313 O 612.705 4.34292 -0.576398 0
M  V30 6314 C 614.206 4.2603 1.2253 0
M  V30 6315 H 611.426 0.670193 0.0328991 0
M  V30 6316 H 613.97 1.97148 -0.543397 0
M  V30 6317 H 612.125 3.65603 1.28115 0
M  V30 6318 H 612.539 5.23819 -0.267119 0
M  V30 6319 H 614.013 5.32868 1.44068 0
M  V30 6320 H 614.49 3.80698 2.19011 0
M  V30 6321 H 615.096 4.21485 0.568407 0
M  V30 6322 N 613.412 0.11024 1.57214 0
M  V30 6323 C 614.64 -0.557834 1.99238 0
M  V30 6324 C 615.055 -1.60778 0.989734 0
M  V30 6325 O 614.412 -1.82491 -0.0186092 0
M  V30 6326 C 614.463 -1.19189 3.41286 0
M  V30 6327 O 614.184 -0.183919 4.37714 0
M  V30 6328 C 615.685 -1.94413 3.98395 0
M  V30 6329 H 612.905 -0.148392 0.654386 0
M  V30 6330 H 615.449 0.193996 2.03578 0
M  V30 6331 H 613.604 -1.89456 3.37913 0
M  V30 6332 H 614.018 -0.643475 5.20538 0
M  V30 6333 H 615.492 -2.34116 4.99894 0
M  V30 6334 H 615.969 -2.81592 3.3705 0
M  V30 6335 H 616.575 -1.28928 4.05287 0
M  V30 6336 N 614.89 -1.56749 -0.16351 0
M  V30 6337 C 616.137 -1.82434 -0.878866 0
M  V30 6338 C 616.465 -0.688557 -1.81904 0
M  V30 6339 O 615.72 0.323644 -1.93005 0
M  V30 6340 C 616.019 -3.14342 -1.70071 0
M  V30 6341 C 615.685 -4.41647 -0.908775 0
M  V30 6342 C 614.347 -4.76224 -0.690236 0
M  V30 6343 C 616.699 -5.19998 -0.353815 0
M  V30 6344 C 614.027 -5.86624 0.0942374 0
M  V30 6345 C 616.379 -6.3122 0.41761 0
M  V30 6346 C 615.043 -6.64358 0.646879 0
M  V30 6347 H 614.313 -0.667574 -0.3216 0
M  V30 6348 H 616.96 -1.90963 -0.14337 0
M  V30 6349 H 615.265 -3.0119 -2.50583 0
M  V30 6350 H 616.962 -3.31426 -2.25738 0
M  V30 6351 H 613.552 -4.1453 -1.08916 0
M  V30 6352 H 617.736 -4.93673 -0.509975 0
M  V30 6353 H 612.992 -6.10751 0.281529 0
M  V30 6354 H 617.166 -6.91133 0.854849 0
M  V30 6355 H 614.793 -7.49742 1.25662 0
M  V30 6356 N 616.368 0.432326 -1.51554 0
M  V30 6357 C 617.616 1.17901 -1.64146 0
M  V30 6358 C 617.937 1.91604 -0.362367 0
M  V30 6359 O 617.207 1.85764 0.621968 0
M  V30 6360 H 615.787 0.438206 -0.604966 0
M  V30 6361 H 618.449 0.495172 -1.88505 0
M  V30 6362 H 617.545 1.90584 -2.47152 0
M  V30 6363 N 617.846 1.41785 0.688094 0
M  V30 6364 C 618.776 1.47 1.8142 0
M  V30 6365 C 619.757 0.327881 1.6691 0
M  V30 6366 O 620.942 0.540362 1.86531 0
M  V30 6367 C 618.072 1.35876 3.19617 0
M  V30 6368 C 617.026 2.47976 3.48844 0
M  V30 6369 C 616.352 2.21915 4.86475 0
M  V30 6370 C 617.652 3.90309 3.47068 0
M  V30 6371 H 619.346 2.41247 1.77314 0
M  V30 6372 H 616.892 1.16116 0.851651 0
M  V30 6373 H 618.845 1.38134 3.98117 0
M  V30 6374 H 617.569 0.38116 3.24368 0
M  V30 6375 H 616.228 2.45013 2.72698 0
M  V30 6376 H 615.876 1.2248 4.8786 0
M  V30 6377 H 615.576 2.97037 5.06994 0
M  V30 6378 H 617.1 2.25901 5.67275 0
M  V30 6379 H 618.514 3.94947 4.1556 0
M  V30 6380 H 616.911 4.65175 3.7912 0
M  V30 6381 H 617.981 4.17927 2.45896 0
M  V30 6382 N 619.324 -0.923095 1.27737 0
M  V30 6383 C 620.287 -2.00587 1.10894 0
M  V30 6384 C 621.287 -1.60718 0.0514927 0
M  V30 6385 O 622.477 -1.71658 0.296481 0
M  V30 6386 C 619.609 -3.33829 0.690717 0
M  V30 6387 H 620.802 -2.16959 2.07048 0
M  V30 6388 H 618.355 -1.10451 1.1059 0
M  V30 6389 H 619.09 -3.23157 -0.272 0
M  V30 6390 H 618.875 -3.64125 1.45448 0
M  V30 6391 H 620.365 -4.13336 0.595252 0
M  V30 6392 N 620.802 -1.09834 -1.13024 0
M  V30 6393 C 621.765 -0.745058 -2.16752 0
M  V30 6394 C 622.765 0.227435 -1.59183 0
M  V30 6395 O 623.955 0.0050786 -1.74199 0
M  V30 6396 C 621.087 -0.102543 -3.40746 0
M  V30 6397 H 622.28 -1.66375 -2.49518 0
M  V30 6398 H 619.833 -0.898061 -1.27924 0
M  V30 6399 H 620.568 0.827177 -3.13573 0
M  V30 6400 H 620.353 -0.80235 -3.83803 0
M  V30 6401 H 621.843 0.129082 -4.174 0
M  V30 6402 N 622.28 1.30327 -0.886154 0
M  V30 6403 C 623.528 1.9571 -0.504195 0
M  V30 6404 C 623.849 1.70294 0.950003 0
M  V30 6405 O 623.119 1.02718 1.66811 0
M  V30 6406 H 621.699 0.72412 -0.183465 0
M  V30 6407 H 624.361 1.58835 -1.12949 0
M  V30 6408 H 623.457 3.04704 -0.675431 0
M  V30 6409 N 623.758 0.647228 1.43697 0
M  V30 6410 C 625.004 0.158422 2.0218 0
M  V30 6411 C 625.337 -1.22233 1.50907 0
M  V30 6412 O 624.612 -1.81478 0.699702 0
M  V30 6413 C 624.895 0.1627 3.59732 0
M  V30 6414 C 624.748 1.57694 4.21251 0
M  V30 6415 C 626.067 -0.504138 4.37203 0
M  V30 6416 H 623.186 0.059042 0.734631 0
M  V30 6417 H 625.828 0.826772 1.71069 0
M  V30 6418 H 623.978 -0.406414 3.86368 0
M  V30 6419 H 625.65 2.19618 4.05667 0
M  V30 6420 H 623.893 2.12603 3.7813 0
M  V30 6421 H 624.564 1.53183 5.3032 0
M  V30 6422 H 627.04 -0.0199841 4.16095 0
M  V30 6423 H 625.916 -0.470394 5.46881 0
M  V30 6424 H 626.177 -1.57726 4.13007 0
M  V30 6425 N 625.236 -1.5273 0.388769 0
M  V30 6426 C 626.483 -2.01573 -0.19359 0
M  V30 6427 C 626.811 -1.27525 -1.46859 0
M  V30 6428 O 626.066 -0.363926 -1.92286 0
M  V30 6429 C 626.365 -3.53765 -0.508445 0
M  V30 6430 C 626.031 -4.4582 0.674947 0
M  V30 6431 C 624.693 -4.70703 0.999596 0
M  V30 6432 C 627.045 -5.00138 1.46666 0
M  V30 6433 C 624.373 -5.47155 2.11751 0
M  V30 6434 C 626.725 -5.77812 2.57518 0
M  V30 6435 C 625.389 -6.00975 2.90492 0
M  V30 6436 H 624.659 -0.737606 -0.0708397 0
M  V30 6437 H 627.306 -1.84134 0.526006 0
M  V30 6438 H 625.611 -3.69274 -1.30936 0
M  V30 6439 H 627.308 -3.8905 -0.971664 0
M  V30 6440 H 623.898 -4.26616 0.411906 0
M  V30 6441 H 628.082 -4.8084 1.22909 0
M  V30 6442 H 623.338 -5.63314 2.3767 0
M  V30 6443 H 627.512 -6.18904 3.19267 0
M  V30 6444 H 625.139 -6.59998 3.77236 0
M  V30 6445 N 626.714 -0.118576 -1.57153 0
M  V30 6446 C 627.942 0.54726 -1.99531 0
M  V30 6447 C 628.357 1.60251 -0.998246 0
M  V30 6448 O 627.714 1.82498 0.00893106 0
M  V30 6449 C 627.765 1.17378 -3.41913 0
M  V30 6450 O 627.486 0.160703 -4.37805 0
M  V30 6451 C 628.987 1.92297 -3.9942 0
M  V30 6452 H 626.207 0.144919 -0.655164 0
M  V30 6453 H 628.751 -0.20479 -2.03472 0
M  V30 6454 H 626.906 1.87661 -3.38913 0
M  V30 6455 H 627.32 0.61586 -5.20872 0
M  V30 6456 H 628.794 2.31462 -5.01128 0
M  V30 6457 H 629.271 2.79801 -3.38538 0
M  V30 6458 H 629.877 1.26777 -4.05965 0
M  V30 6459 N 628.193 1.56834 0.155195 0
M  V30 6460 C 629.609 1.51315 0.50755 0
M  V30 6461 C 629.809 0.825614 1.83809 0
M  V30 6462 O 628.865 0.39271 2.49427 0
M  V30 6463 C 630.178 2.96074 0.52542 0
M  V30 6464 C 631.726 3.06968 0.611505 0
M  V30 6465 C 632.201 4.53218 0.660115 0
M  V30 6466 N 633.692 4.5753 0.722564 0
M  V30 6467 C 634.427 5.68056 0.781023 0
M  V30 6468 N 633.923 6.88173 0.799327 0
M  V30 6469 N 635.716 5.56068 0.821278 0
M  V30 6470 H 627.867 1.9993 -0.717063 0
M  V30 6471 H 630.13 0.911507 -0.260496 0
M  V30 6472 H 629.836 3.49599 -0.383875 0
M  V30 6473 H 629.71 3.51587 1.36624 0
M  V30 6474 H 632.097 2.53468 1.51122 0
M  V30 6475 H 632.178 2.54513 -0.256306 0
M  V30 6476 H 631.822 5.07354 -0.23541 0
M  V30 6477 H 631.752 5.03447 1.5443 0
M  V30 6478 H 634.243 3.71054 0.716049 0
M  V30 6479 H 634.556 7.6816 0.845553 0
M  V30 6480 H 632.901 6.90751 0.767337 0
M  V30 6481 H 636.092 4.61142 0.804091 0
M  V30 6482 H 636.265 6.42223 0.863372 0
M  V30 6483 N 629.671 -0.424282 1.51781 0
M  V30 6484 C 630.948 -1.18464 1.55646 0
M  V30 6485 C 631.328 -2.08529 0.328438 0
M  V30 6486 O 630.676 -2.17969 -0.685693 0
M  V30 6487 C 630.886 -1.97514 2.87731 0
M  V30 6488 C 632.234 -2.54106 3.40169 0
M  V30 6489 O 633.258 -2.07711 2.89369 0
M  V30 6490 O 632.117 -3.38759 4.28841 0
M  V30 6491 H 629.211 -0.540055 0.626314 0
M  V30 6492 H 631.757 -0.432291 1.64102 0
M  V30 6493 H 630.529 -1.31444 3.68562 0
M  V30 6494 H 630.152 -2.79787 2.82498 0
M  V30 6495 N 631.149 -1.42148 -0.680565 0
M  V30 6496 C 632.398 -1.41604 -1.43636 0
M  V30 6497 C 632.711 -0.0337887 -1.95571 0
M  V30 6498 O 633.917 0.0942588 -2.71336 0
M  V30 6499 C 632.373 -2.49056 -2.59806 0
M  V30 6500 C 631.981 -3.9326 -2.14594 0
M  V30 6501 C 633.725 -2.5767 -3.37352 0
M  V30 6502 C 631.632 -4.92232 -3.27813 0
M  V30 6503 H 630.562 -0.526656 -0.539583 0
M  V30 6504 H 633.213 -1.68033 -0.737369 0
M  V30 6505 H 631.595 -2.15782 -3.32045 0
M  V30 6506 H 632.769 -4.35858 -1.49546 0
M  V30 6507 H 631.084 -3.88443 -1.50002 0
M  V30 6508 H 633.681 -3.28794 -4.21662 0
M  V30 6509 H 634.024 -1.61837 -3.83555 0
M  V30 6510 H 634.557 -2.90109 -2.72179 0
M  V30 6511 H 631.296 -5.89522 -2.86607 0
M  V30 6512 H 630.816 -4.5427 -3.91661 0
M  V30 6513 H 632.495 -5.13684 -3.93367 0
M  V30 6514 N 632.627 0.916307 -1.28225 0
M  V30 6515 C 633.559 2.02303 -1.07732 0
M  V30 6516 C 634.572 1.62773 -0.0298421 0
M  V30 6517 O 635.761 1.76406 -0.272626 0
M  V30 6518 C 632.861 3.33282 -0.614504 0
M  V30 6519 C 632.034 4.01439 -1.73682 0
M  V30 6520 C 631.093 5.10698 -1.26781 0
M  V30 6521 O 630.119 5.34038 -1.96958 0
M  V30 6522 N 631.321 5.80355 -0.129624 0
M  V30 6523 H 634.086 2.20442 -2.03041 0
M  V30 6524 H 631.647 1.08744 -1.19943 0
M  V30 6525 H 633.639 4.03699 -0.284397 0
M  V30 6526 H 632.209 3.11633 0.245664 0
M  V30 6527 H 631.429 3.24604 -2.23665 0
M  V30 6528 H 632.717 4.43721 -2.48976 0
M  V30 6529 H 632.115 5.6386 0.455847 0
M  V30 6530 H 630.672 6.51647 0.141224 0
M  V30 6531 N 634.105 1.10431 1.1244 0
M  V30 6532 C 635.521 0.836096 1.35947 0
M  V30 6533 C 635.721 -0.544475 1.94004 0
M  V30 6534 O 634.777 -1.29735 2.16622 0
M  V30 6535 C 636.09 1.93575 2.30107 0
M  V30 6536 C 637.638 1.9642 2.43697 0
M  V30 6537 C 638.113 3.05559 3.41171 0
M  V30 6538 N 639.604 3.04865 3.48728 0
M  V30 6539 C 640.339 3.85954 4.24061 0
M  V30 6540 N 639.835 4.76977 5.02458 0
M  V30 6541 N 641.628 3.74172 4.19466 0
M  V30 6542 H 633.779 1.9942 0.731124 0
M  V30 6543 H 636.042 0.866607 0.384312 0
M  V30 6544 H 635.748 2.92943 1.94621 0
M  V30 6545 H 635.622 1.8229 3.30227 0
M  V30 6546 H 638.009 0.97685 2.78463 0
M  V30 6547 H 638.09 2.11782 1.43465 0
M  V30 6548 H 637.734 4.04513 3.07135 0
M  V30 6549 H 637.664 2.87438 4.41234 0
M  V30 6550 H 640.155 2.38908 2.92799 0
M  V30 6551 H 640.468 5.35409 5.57277 0
M  V30 6552 H 638.813 4.81006 5.01655 0
M  V30 6553 H 642.004 3.02412 3.57302 0
M  V30 6554 H 642.177 4.37602 4.77921 0
M  V30 6555 N 635.583 -1.29855 0.893053 0
M  V30 6556 C 636.546 -2.26183 0.370687 0
M  V30 6557 C 637.546 -1.53108 -0.491385 0
M  V30 6558 O 638.736 -1.71643 -0.297386 0
M  V30 6559 C 635.868 -3.37633 -0.470827 0
M  V30 6560 H 637.061 -2.73903 1.22135 0
M  V30 6561 H 634.614 -1.41183 0.67061 0
M  V30 6562 H 635.349 -2.95241 -1.34175 0
M  V30 6563 H 635.134 -3.91825 0.146784 0
M  V30 6564 H 636.624 -4.09313 -0.827825 0
M  V30 6565 N 637.061 -0.65484 -1.43351 0
M  V30 6566 C 638.011 0.0581325 -2.27926 0
M  V30 6567 C 638.995 0.793188 -1.3999 0
M  V30 6568 O 640.187 0.675387 -1.63608 0
M  V30 6569 C 637.316 1.02272 -3.27712 0
M  V30 6570 C 636.402 0.286048 -4.23134 0
M  V30 6571 N 636.793 -0.698298 -5.00957 0
M  V30 6572 C 635.091 0.527272 -4.42872 0
M  V30 6573 C 635.792 -1.1357 -5.70506 0
M  V30 6574 N 634.768 -0.469631 -5.41568 0
M  V30 6575 H 638.57 -0.697182 -2.85511 0
M  V30 6576 H 636.084 -0.482252 -1.55074 0
M  V30 6577 H 638.081 1.5483 -3.87083 0
M  V30 6578 H 636.741 1.77807 -2.71688 0
M  V30 6579 H 637.752 -1.07708 -5.06576 0
M  V30 6580 H 634.429 1.26367 -3.97916 0
M  V30 6581 H 635.819 -1.95027 -6.42973 0
M  V30 6582 N 638.539 1.52521 -0.396863 0
M  V30 6583 C 639.955 1.5953 -0.0471659 0
M  V30 6584 C 640.155 1.41044 1.43906 0
M  V30 6585 O 639.211 1.23122 2.20448 0
M  V30 6586 C 640.524 2.95972 -0.531113 0
M  V30 6587 C 642.072 3.09172 -0.488024 0
M  V30 6588 C 642.547 4.48075 -0.948281 0
M  V30 6589 N 644.038 4.54281 -0.9046 0
M  V30 6590 C 644.773 5.60007 -1.23205 0
M  V30 6591 N 644.269 6.73343 -1.63036 0
M  V30 6592 N 646.062 5.50151 -1.15282 0
M  V30 6593 H 638.213 1.62786 -1.36435 0
M  V30 6594 H 640.476 0.76514 -0.559701 0
M  V30 6595 H 640.182 3.14741 -1.56942 0
M  V30 6596 H 640.056 3.77143 0.0657922 0
M  V30 6597 H 642.443 2.90095 0.541211 0
M  V30 6598 H 642.524 2.29937 -1.12083 0
M  V30 6599 H 642.168 4.67894 -1.97578 0
M  V30 6600 H 642.098 5.25788 -0.292412 0
M  V30 6601 H 644.589 3.72918 -0.6116 0
M  V30 6602 H 644.902 7.49992 -1.86365 0
M  V30 6603 H 643.247 6.74655 -1.66929 0
M  V30 6604 H 646.438 4.6049 -0.840602 0
M  V30 6605 H 646.611 6.32444 -1.41133 0
M  V30 6606 N 640.017 0.126909 1.57088 0
M  V30 6607 C 641.263 -0.529952 1.95753 0
M  V30 6608 C 641.596 -1.65823 1.01077 0
M  V30 6609 O 640.871 -1.94437 0.0494162 0
M  V30 6610 C 641.154 -1.05517 3.44294 0
M  V30 6611 C 641.007 0.0702253 4.49745 0
M  V30 6612 C 642.326 -1.9435 3.94862 0
M  V30 6613 H 639.445 -0.191168 0.711775 0
M  V30 6614 H 642.087 0.204071 1.88901 0
M  V30 6615 H 640.237 -1.68069 3.50264 0
M  V30 6616 H 641.909 0.705834 4.55868 0
M  V30 6617 H 640.152 0.732259 4.27575 0
M  V30 6618 H 640.823 -0.338642 5.5096 0
M  V30 6619 H 643.299 -1.41658 3.91244 0
M  V30 6620 H 642.175 -2.28015 4.993 0
M  V30 6621 H 642.436 -2.87299 3.36024 0
M  V30 6622 N 641.495 -1.56914 -0.146875 0
M  V30 6623 C 642.741 -1.83628 -0.860741 0
M  V30 6624 C 643.074 -0.708528 -1.80813 0
M  V30 6625 O 642.349 0.287838 -1.92358 0
M  V30 6626 C 642.632 -3.20836 -1.63511 0
M  V30 6627 C 642.485 -4.44174 -0.709199 0
M  V30 6628 C 643.804 -3.55268 -2.59756 0
M  V30 6629 H 640.923 -0.667949 -0.311468 0
M  V30 6630 H 643.565 -1.89582 -0.125936 0
M  V30 6631 H 641.715 -3.15891 -2.26153 0
M  V30 6632 H 643.387 -4.61205 -0.0937781 0
M  V30 6633 H 641.63 -4.33796 -0.0187856 0
M  V30 6634 H 642.301 -5.36785 -1.28707 0
M  V30 6635 H 644.777 -3.60824 -2.07232 0
M  V30 6636 H 643.653 -4.52303 -3.10987 0
M  V30 6637 H 643.914 -2.81231 -3.41118 0
M  V30 6638 N 642.974 0.416227 -1.52004 0
M  V30 6639 C 643.937 1.48926 -1.74223 0
M  V30 6640 C 644.937 1.48693 -0.612119 0
M  V30 6641 O 646.127 1.50343 -0.879921 0
M  V30 6642 C 643.259 2.88372 -1.81809 0
M  V30 6643 H 644.452 1.3052 -2.70008 0
M  V30 6644 H 642.005 0.646271 -1.42313 0
M  V30 6645 H 642.74 3.12157 -0.879135 0
M  V30 6646 H 642.525 2.89944 -2.6396 0
M  V30 6647 H 644.015 3.66173 -2.00766 0
M  V30 6648 N 644.452 1.42507 0.673017 0
M  V30 6649 C 645.362 1.4853 1.81593 0
M  V30 6650 C 646.378 0.373907 1.69935 0
M  V30 6651 O 647.554 0.625078 1.91454 0
M  V30 6652 C 644.619 1.387 3.17747 0
M  V30 6653 C 643.68 2.60346 3.41348 0
M  V30 6654 C 642.913 2.50975 4.71007 0
M  V30 6655 O 643.136 1.54659 5.49033 0
M  V30 6656 O 642.07 3.41138 4.95892 0
M  V30 6657 H 645.896 2.45001 1.79467 0
M  V30 6658 H 643.481 1.2429 0.82899 0
M  V30 6659 H 645.363 1.35586 3.98992 0
M  V30 6660 H 644.038 0.453555 3.20507 0
M  V30 6661 H 642.945 2.69034 2.59945 0
M  V30 6662 H 644.278 3.52595 3.43421 0
M  V30 6663 N 645.93 -0.909495 1.28709 0
M  V30 6664 C 646.86 -2.0291 1.15542 0
M  V30 6665 C 647.841 -1.7002 0.0521017 0
M  V30 6666 O 649.026 -1.92835 0.229849 0
M  V30 6667 C 646.156 -3.37458 0.820935 0
M  V30 6668 C 645.11 -3.84524 1.87949 0
M  V30 6669 C 644.436 -5.16086 1.39854 0
M  V30 6670 C 645.736 -4.05918 3.28676 0
M  V30 6671 H 647.43 -2.14183 2.09203 0
M  V30 6672 H 644.976 -1.02913 1.00722 0
M  V30 6673 H 646.929 -4.1528 0.715571 0
M  V30 6674 H 645.653 -3.26249 -0.151374 0
M  V30 6675 H 644.312 -3.08911 1.97408 0
M  V30 6676 H 643.96 -5.01284 0.41518 0
M  V30 6677 H 643.66 -5.48547 2.1064 0
M  V30 6678 H 645.184 -5.96459 1.30649 0
M  V30 6679 H 646.598 -4.74252 3.22115 0
M  V30 6680 H 644.995 -4.49717 3.97334 0
M  V30 6681 H 646.065 -3.10583 3.72379 0
M  V30 6682 N 647.408 -1.11026 -1.11852 0
M  V30 6683 C 648.34 -0.72249 -2.17515 0
M  V30 6684 C 649.353 0.243782 -1.60964 0
M  V30 6685 O 650.542 0.0273252 -1.78479 0
M  V30 6686 C 647.642 -0.0463979 -3.38868 0
M  V30 6687 C 646.815 -1.0384 -4.24895 0
M  V30 6688 C 645.874 -0.392659 -5.24733 0
M  V30 6689 O 644.9 -1.0453 -5.5952 0
M  V30 6690 N 646.102 0.846296 -5.74298 0
M  V30 6691 H 648.867 -1.63161 -2.51393 0
M  V30 6692 H 646.428 -0.999899 -1.27333 0
M  V30 6693 H 648.42 0.397215 -4.02746 0
M  V30 6694 H 646.99 0.765231 -3.03089 0
M  V30 6695 H 646.21 -1.6601 -3.57539 0
M  V30 6696 H 647.498 -1.70968 -4.79215 0
M  V30 6697 H 646.896 1.39578 -5.4821 0
M  V30 6698 H 645.453 1.23296 -6.40032 0
M  V30 6699 N 648.886 1.2938 -0.899927 0
M  V30 6700 C 649.849 2.25983 -0.382677 0
M  V30 6701 C 650.849 1.53366 0.483259 0
M  V30 6702 O 652.039 1.71798 0.28828 0
M  V30 6703 C 649.171 3.37878 0.452915 0
M  V30 6704 H 650.364 2.73252 -1.23586 0
M  V30 6705 H 647.917 1.40825 -0.678088 0
M  V30 6706 H 648.652 2.95949 1.32608 0
M  V30 6707 H 648.437 3.91742 -0.167562 0
M  V30 6708 H 649.927 4.09746 0.806107 0
M  V30 6709 N 650.364 0.662433 1.43002 0
M  V30 6710 C 651.612 0.179237 2.01304 0
M  V30 6711 C 651.933 -1.21428 1.52579 0
M  V30 6712 O 651.203 -1.81294 0.742252 0
M  V30 6713 H 649.783 0.0632725 0.744316 0
M  V30 6714 H 652.445 0.856169 1.75088 0
M  V30 6715 H 651.541 0.170957 3.11631 0
M  V30 6716 N 651.842 -1.52309 0.404946 0
M  V30 6717 C 653.07 -2.06185 -0.171818 0
M  V30 6718 C 653.485 -1.27536 -1.39212 0
M  V30 6719 O 652.842 -0.326112 -1.79563 0
M  V30 6720 C 652.893 -3.57647 -0.526417 0
M  V30 6721 O 652.614 -4.3332 0.645417 0
M  V30 6722 C 654.115 -4.27925 -1.15736 0
M  V30 6723 H 651.335 -0.670632 -0.0222328 0
M  V30 6724 H 653.879 -1.96259 0.574692 0
M  V30 6725 H 652.034 -3.67595 -1.22282 0
M  V30 6726 H 652.448 -5.23328 0.35042 0
M  V30 6727 H 653.922 -5.35093 -1.35572 0
M  V30 6728 H 654.399 -3.84134 -2.12926 0
M  V30 6729 H 655.005 -4.22335 -0.501281 0
M  V30 6730 N 653.32 -0.135238 -1.57019 0
M  V30 6731 C 654.56 0.521686 -1.9763 0
M  V30 6732 C 654.924 1.62804 -1.01778 0
M  V30 6733 O 656.125 2.345 -1.31389 0
M  V30 6734 C 654.396 1.0257 -3.42365 0
M  V30 6735 S 655.955 1.68888 -4.04997 0
M  V30 6736 H 652.773 0.169064 -0.690607 0
M  V30 6737 H 655.375 -0.224168 -1.94211 0
M  V30 6738 H 654.079 0.209556 -4.09865 0
M  V30 6739 H 653.61 1.80645 -3.49472 0
M  V30 6740 H 655.625 2.97554 -3.97084 0
M  V30 6741 N 654.798 1.5699 0.138552 0
M  V30 6742 C 656.045 1.83809 0.849732 0
M  V30 6743 C 656.373 0.717409 1.80786 0
M  V30 6744 O 655.628 -0.292897 1.93496 0
M  V30 6745 C 655.927 3.17007 1.65049 0
M  V30 6746 C 655.593 4.43037 0.838398 0
M  V30 6747 C 654.255 4.77262 0.614385 0
M  V30 6748 C 656.607 5.20495 0.271044 0
M  V30 6749 C 653.935 5.864 -0.187552 0
M  V30 6750 C 656.287 6.30476 -0.517979 0
M  V30 6751 C 654.951 6.63245 -0.75249 0
M  V30 6752 H 654.221 0.672605 0.310939 0
M  V30 6753 H 656.868 1.91166 0.112971 0
M  V30 6754 H 655.173 3.05138 2.4576 0
M  V30 6755 H 656.87 3.34975 2.20437 0
M  V30 6756 H 653.46 4.16211 1.02307 0
M  V30 6757 H 657.644 4.94422 0.431371 0
M  V30 6758 H 652.9 6.10226 -0.378659 0
M  V30 6759 H 657.074 6.89686 -0.964694 0
M  V30 6760 H 654.701 7.47648 -1.37573 0
M  V30 6761 N 656.276 -0.40816 1.52223 0
M  V30 6762 C 657.525 -1.15212 1.65557 0
M  V30 6763 C 657.838 -1.9163 0.392096 0
M  V30 6764 O 659.044 -2.68458 0.405256 0
M  V30 6765 C 657.5 -2.09691 2.92502 0
M  V30 6766 C 657.108 -1.38785 4.25961 0
M  V30 6767 C 658.852 -2.8434 3.152 0
M  V30 6768 C 656.759 -2.31919 5.44029 0
M  V30 6769 H 655.689 -0.433776 0.616729 0
M  V30 6770 H 658.34 -0.4165 1.78711 0
M  V30 6771 H 656.722 -2.8681 2.7305 0
M  V30 6772 H 657.896 -0.670248 4.55899 0
M  V30 6773 H 656.211 -0.761741 4.09373 0
M  V30 6774 H 658.808 -3.54166 4.00587 0
M  V30 6775 H 659.151 -3.47344 2.29473 0
M  V30 6776 H 659.684 -2.14321 3.35129 0
M  V30 6777 H 656.423 -1.7356 6.32105 0
M  V30 6778 H 655.943 -3.0165 5.18428 0
M  V30 6779 H 657.622 -2.92424 5.77146 0
M  V30 6780 N 657.755 -1.42862 -0.66545 0
M  V30 6781 C 658.703 -1.47319 -1.8 0
M  V30 6782 C 659.697 -0.347963 -1.65788 0
M  V30 6783 O 660.903 -0.521406 -1.72283 0
M  V30 6784 H 657.278 -0.461588 -0.593667 0
M  V30 6785 H 659.249 -2.42876 -1.7336 0
M  V30 6786 C 657.998 -1.40152 -3.18203 0
M  V30 6787 H 657.321 -2.26035 -3.2977 0
M  V30 6788 H 658.761 -1.47331 -3.9758 0
M  V30 6789 C 657.22 -0.117493 -3.36695 0
M  V30 6790 O 657.75 0.826058 -3.93115 0
M  V30 6791 N 655.956 -0.0316218 -2.90583 0
M  V30 6792 H 655.503 -0.800247 -2.44855 0
M  V30 6793 H 655.461 0.826835 -3.03333 0
M  V30 6794 N 659.233 0.902656 -1.29189 0
M  V30 6795 C 660.181 2.0278 -1.13943 0
M  V30 6796 C 661.175 1.69308 -0.055787 0
M  V30 6797 O 662.381 1.78707 -0.215371 0
M  V30 6798 H 658.756 0.664595 -0.351877 0
M  V30 6799 H 660.727 2.12778 -2.09208 0
M  V30 6800 C 659.476 3.37657 -0.82966 0
M  V30 6801 H 658.799 3.63913 -1.65551 0
M  V30 6802 H 660.239 4.17078 -0.762998 0
M  V30 6803 C 658.698 3.33648 0.466991 0
M  V30 6804 O 659.228 3.72886 1.49395 0
M  V30 6805 N 657.434 2.86745 0.471761 0
M  V30 6806 H 656.981 2.55009 -0.364406 0
M  V30 6807 H 656.939 2.84446 1.33933 0
M  V30 6808 N 660.711 1.11618 1.11262 0
M  V30 6809 C 661.941 0.88745 1.86569 0
M  V30 6810 C 662.349 -0.56636 1.80524 0
M  V30 6811 O 661.692 -1.40289 1.18594 0
M  V30 6812 C 661.754 1.27313 3.36202 0
M  V30 6813 C 661.418 2.73649 3.66013 0
M  V30 6814 C 662.415 3.71863 3.63337 0
M  V30 6815 C 660.1 3.10342 3.9496 0
M  V30 6816 C 662.094 5.04788 3.89188 0
M  V30 6817 C 659.781 4.43451 4.20469 0
M  V30 6818 C 660.779 5.40484 4.17572 0
M  V30 6819 O 660.467 6.71195 4.42439 0
M  V30 6820 H 660.199 0.317543 0.596777 0
M  V30 6821 H 662.753 1.48768 1.41624 0
M  V30 6822 H 660.983 0.616062 3.81761 0
M  V30 6823 H 662.672 1.01991 3.92877 0
M  V30 6824 H 663.438 3.44861 3.41022 0
M  V30 6825 H 659.317 2.35431 3.9635 0
M  V30 6826 H 662.861 5.80516 3.86842 0
M  V30 6827 H 658.758 4.70187 4.42261 0
M  V30 6828 H 659.526 6.77012 4.59997 0
M  V30 6829 N 662.189 -1.289 0.906776 0
M  V30 6830 C 663.137 -2.29477 0.379873 0
M  V30 6831 C 664.131 -1.61068 -0.524747 0
M  V30 6832 O 665.337 -1.75344 -0.406765 0
M  V30 6833 H 661.712 -0.744742 0.10423 0
M  V30 6834 H 663.683 -2.71353 1.24137 0
M  V30 6835 C 662.432 -3.45713 -0.371154 0
M  V30 6836 H 661.755 -3.98551 0.315716 0
M  V30 6837 H 663.195 -4.18105 -0.704581 0
M  V30 6838 C 661.654 -2.9774 -1.57646 0
M  V30 6839 O 662.184 -2.99618 -2.67567 0
M  V30 6840 N 660.39 -2.53485 -1.42105 0
M  V30 6841 H 659.937 -2.52156 -0.526783 0
M  V30 6842 H 659.895 -2.21747 -2.22881 0
M  V30 6843 N 663.667 -0.670007 -1.42649 0
M  V30 6844 C 664.913 -0.190568 -2.01903 0
M  V30 6845 C 665.246 1.19817 -1.52832 0
M  V30 6846 O 664.521 1.80342 -0.728485 0
M  V30 6847 C 664.804 -0.21991 -3.59428 0
M  V30 6848 C 664.657 -1.64376 -4.18689 0
M  V30 6849 C 665.976 0.434519 -4.3795 0
M  V30 6850 H 663.095 -0.0707219 -0.733599 0
M  V30 6851 H 665.737 -0.853883 -1.69732 0
M  V30 6852 H 663.887 0.344894 -3.86966 0
M  V30 6853 H 665.559 -2.26044 -4.02122 0
M  V30 6854 H 663.802 -2.18591 -3.747 0
M  V30 6855 H 664.473 -1.61601 -5.27815 0
M  V30 6856 H 666.949 -0.0462156 -4.16074 0
M  V30 6857 H 665.825 0.38333 -5.4756 0
M  V30 6858 H 666.086 1.51135 -4.15464 0
M  V30 6859 N 665.145 1.52092 -0.413018 0
M  V30 6860 C 666.37 2.06756 0.163338 0
M  V30 6861 C 666.795 1.28073 1.37764 0
M  V30 6862 O 666.153 0.312015 1.78595 0
M  V30 6863 C 666.201 3.57278 0.488322 0
M  V30 6864 O 665.305 3.80986 1.57871 0
M  V30 6865 H 664.646 0.663882 0.0125068 0
M  V30 6866 H 667.176 1.95988 -0.587339 0
M  V30 6867 H 667.186 4.01125 0.745836 0
M  V30 6868 H 665.861 4.13978 -0.399327 0
M  V30 6869 H 664.438 3.49017 1.31306 0
M  V30 6870 N 666.623 0.143563 1.56945 0
M  V30 6871 C 668.034 -0.37783 1.82837 0
M  V30 6872 C 668.385 -1.64967 1.06209 0
M  V30 6873 O 667.51 -2.14221 0.306291 0
M  V30 6874 C 668.105 -0.692274 3.31652 0
M  V30 6875 C 666.664 -1.1582 3.58138 0
M  V30 6876 C 665.811 -0.17951 2.76718 0
M  V30 6877 H 668.762 0.368317 1.54367 0
M  V30 6878 H 668.783 -1.54729 3.47619 0
M  V30 6879 H 668.295 0.233572 3.87397 0
M  V30 6880 H 666.396 -2.10011 3.07776 0
M  V30 6881 H 666.509 -1.08655 4.66616 0
M  V30 6882 H 664.873 -0.671458 2.4569 0
M  V30 6883 H 665.656 0.739865 3.35233 0
M  V30 6884 N 668.101 -1.57061 -0.130224 0
M  V30 6885 C 669.347 -1.8453 -0.841216 0
M  V30 6886 C 669.68 -0.727666 -1.80052 0
M  V30 6887 O 668.955 0.267419 -1.92653 0
M  V30 6888 C 669.238 -3.22553 -1.60099 0
M  V30 6889 C 669.091 -4.44901 -0.662048 0
M  V30 6890 C 670.41 -3.58003 -2.55973 0
M  V30 6891 H 667.529 -0.671215 -0.304366 0
M  V30 6892 H 670.171 -1.89705 -0.105821 0
M  V30 6893 H 668.321 -3.18272 -2.22789 0
M  V30 6894 H 669.993 -4.61278 -0.0448559 0
M  V30 6895 H 668.236 -4.33791 0.0272253 0
M  V30 6896 H 668.907 -5.3812 -1.23006 0
M  V30 6897 H 671.383 -3.63002 -2.03393 0
M  V30 6898 H 670.259 -4.55576 -3.06172 0
M  V30 6899 H 670.52 -2.84833 -3.38116 0
M  V30 6900 N 669.579 0.400081 -1.52437 0
M  V30 6901 C 670.489 1.51253 -1.79331 0
M  V30 6902 C 671.505 1.60188 -0.679396 0
M  V30 6903 O 672.681 1.76733 -0.965791 0
M  V30 6904 C 669.746 2.869 -1.94652 0
M  V30 6905 C 668.807 2.87777 -3.18564 0
M  V30 6906 C 668.04 4.16954 -3.33145 0
M  V30 6907 O 668.263 5.11329 -2.52783 0
M  V30 6908 O 667.197 4.2487 -4.26343 0
M  V30 6909 H 671.023 1.31461 -2.73773 0
M  V30 6910 H 668.608 0.586834 -1.37392 0
M  V30 6911 H 670.49 3.67336 -2.065 0
M  V30 6912 H 669.165 3.06741 -1.034 0
M  V30 6913 H 668.072 2.06162 -3.12167 0
M  V30 6914 H 669.405 2.72886 -4.09627 0
M  V30 6915 N 671.057 1.43213 0.657864 0
M  V30 6916 C 671.987 1.50815 1.78262 0
M  V30 6917 C 672.968 0.363211 1.66177 0
M  V30 6918 O 674.153 0.579806 1.85343 0
M  V30 6919 C 671.283 1.42625 3.16663 0
M  V30 6920 C 670.237 2.5532 3.43505 0
M  V30 6921 C 669.563 2.32184 4.81658 0
M  V30 6922 C 670.863 3.97583 3.38711 0
M  V30 6923 H 672.557 2.44954 1.72157 0
M  V30 6924 H 670.103 1.17896 0.82683 0
M  V30 6925 H 672.056 1.46548 3.95097 0
M  V30 6926 H 670.78 0.449877 3.23487 0
M  V30 6927 H 669.439 2.50742 2.6744 0
M  V30 6928 H 669.087 1.32801 4.85153 0
M  V30 6929 H 668.787 3.07724 5.00579 0
M  V30 6930 H 670.311 2.37883 5.62356 0
M  V30 6931 H 671.725 4.03673 4.07089 0
M  V30 6932 H 670.122 4.73112 3.69168 0
M  V30 6933 H 671.192 4.23049 2.36976 0
M  V30 6934 N 672.536 -0.895792 1.29666 0
M  V30 6935 C 673.947 -1.46195 1.1612 0
M  V30 6936 C 674.298 -1.94699 -0.242195 0
M  V30 6937 O 673.423 -1.8406 -1.13802 0
M  V30 6938 C 674.018 -2.65718 2.10189 0
M  V30 6939 C 672.577 -3.18458 2.00653 0
M  V30 6940 C 671.724 -1.91149 2.00891 0
M  V30 6941 H 674.675 -0.706756 1.42094 0
M  V30 6942 H 674.696 -3.4158 1.6764 0
M  V30 6943 H 674.208 -2.30386 3.12321 0
M  V30 6944 H 672.309 -3.58474 1.01623 0
M  V30 6945 H 672.422 -3.82491 2.88509 0
M  V30 6946 H 670.786 -2.09021 1.45542 0
M  V30 6947 H 671.569 -1.58089 3.04734 0
M  V30 6948 N 674.014 -1.12206 -1.10668 0
M  V30 6949 C 675.261 -0.875875 -1.82578 0
M  V30 6950 C 675.589 0.598342 -1.85068 0
M  V30 6951 O 674.844 1.45818 -1.3052 0
M  V30 6952 C 675.143 -1.39276 -3.29146 0
M  V30 6953 C 674.809 -2.8816 -3.46806 0
M  V30 6954 C 673.471 -3.28813 -3.51334 0
M  V30 6955 C 675.823 -3.8401 -3.52399 0
M  V30 6956 C 673.151 -4.64028 -3.59019 0
M  V30 6957 C 675.503 -5.19053 -3.61617 0
M  V30 6958 C 674.167 -5.59252 -3.64408 0
M  V30 6959 H 673.437 -0.320505 -0.6681 0
M  V30 6960 H 676.084 -1.40184 -1.30464 0
M  V30 6961 H 674.389 -0.787207 -3.8381 0
M  V30 6962 H 676.086 -1.17851 -3.83291 0
M  V30 6963 H 672.676 -2.55716 -3.43958 0
M  V30 6964 H 676.86 -3.53698 -3.48154 0
M  V30 6965 H 672.116 -4.94568 -3.59461 0
M  V30 6966 H 676.29 -5.93152 -3.64889 0
M  V30 6967 H 673.917 -6.64017 -3.70116 0
M  V30 6968 N 675.492 1.28418 -0.913599 0
M  V30 6969 C 676.74 1.94596 -0.545594 0
M  V30 6970 C 677.061 1.7227 0.913668 0
M  V30 6971 O 676.331 1.06233 1.64595 0
M  V30 6972 H 674.911 0.720065 -0.198783 0
M  V30 6973 H 677.573 1.56404 -1.16292 0
M  V30 6974 H 676.669 3.03202 -0.739911 0
M  V30 6975 N 676.97 0.677563 1.42291 0
M  V30 6976 C 678.218 0.200578 2.01102 0
M  V30 6977 C 678.539 -1.19803 1.53858 0
M  V30 6978 O 677.809 -1.80496 0.761439 0
M  V30 6979 H 676.389 0.0711634 0.743603 0
M  V30 6980 H 679.051 0.874691 1.7417 0
M  V30 6981 H 678.147 0.204 3.11433 0
M  V30 6982 N 678.448 -1.51871 0.421078 0
M  V30 6983 C 679.678 -2.06057 -0.149723 0
M  V30 6984 C 680.086 -1.29002 -1.38402 0
M  V30 6985 O 679.429 -0.338385 -1.80556 0
M  V30 6986 C 679.491 -3.55216 -0.553339 0
M  V30 6987 C 679.155 -4.53408 0.571879 0
M  V30 6988 C 680.152 -4.99586 1.4391 0
M  V30 6989 C 677.837 -4.967 0.747979 0
M  V30 6990 C 679.831 -5.87711 2.46727 0
M  V30 6991 C 677.518 -5.84619 1.77944 0
M  V30 6992 C 678.516 -6.30021 2.63748 0
M  V30 6993 O 678.204 -7.16197 3.65126 0
M  V30 6994 H 677.936 -0.675744 -0.0186102 0
M  V30 6995 H 680.49 -1.96618 0.594166 0
M  V30 6996 H 678.72 -3.62381 -1.34969 0
M  V30 6997 H 680.409 -3.91992 -1.05342 0
M  V30 6998 H 681.175 -4.66846 1.31451 0
M  V30 6999 H 677.054 -4.60913 0.0897357 0
M  V30 7000 H 680.598 -6.2307 3.13734 0
M  V30 7001 H 676.495 -6.16771 1.90429 0
M  V30 7002 H 677.263 -7.34337 3.61512 0
M  V30 7003 N 679.926 -0.151884 -1.56866 0
M  V30 7004 C 680.873 0.785936 -2.17006 0
M  V30 7005 C 681.843 1.2407 -1.10435 0
M  V30 7006 O 683.028 1.31235 -1.38499 0
M  V30 7007 C 680.168 2.01771 -2.79969 0
M  V30 7008 C 679.281 1.6083 -4.00946 0
M  V30 7009 C 678.416 2.79224 -4.51893 0
M  V30 7010 C 677.455 2.3468 -5.65324 0
M  V30 7011 N 676.592 3.461 -6.10867 0
M  V30 7012 H 681.432 0.266286 -2.96808 0
M  V30 7013 H 678.969 0.11972 -1.46612 0
M  V30 7014 H 680.927 2.73989 -3.14621 0
M  V30 7015 H 679.557 2.51139 -2.02803 0
M  V30 7016 H 678.609 0.783592 -3.72242 0
M  V30 7017 H 679.921 1.24119 -4.83111 0
M  V30 7018 H 679.075 3.59625 -4.88625 0
M  V30 7019 H 677.814 3.19183 -3.68746 0
M  V30 7020 H 676.819 1.52721 -5.28163 0
M  V30 7021 H 678.044 1.95801 -6.5026 0
M  V30 7022 H 675.99 3.85671 -5.30654 0
M  V30 7023 H 675.907 3.1342 -6.87971 0
M  V30 7024 H 677.175 4.26844 -6.52246 0
M  V30 7025 N 681.404 1.57128 0.121893 0
M  V30 7026 C 682.351 2.0013 1.14964 0
M  V30 7027 C 683.321 0.872959 1.4131 0
M  V30 7028 O 684.506 1.13696 1.53225 0
M  V30 7029 C 681.646 2.40824 2.4718 0
M  V30 7030 C 680.759 3.67061 2.27794 0
M  V30 7031 C 679.894 3.96749 3.53219 0
M  V30 7032 C 678.933 5.16178 3.28978 0
M  V30 7033 N 678.07 5.41751 4.46599 0
M  V30 7034 H 682.91 2.8772 0.775947 0
M  V30 7035 H 680.447 1.42328 0.371652 0
M  V30 7036 H 682.405 2.62454 3.24305 0
M  V30 7037 H 681.035 1.56279 2.82448 0
M  V30 7038 H 680.087 3.53063 1.416 0
M  V30 7039 H 681.399 4.5434 2.05857 0
M  V30 7040 H 680.553 4.19012 4.38764 0
M  V30 7041 H 679.292 3.07941 3.78185 0
M  V30 7042 H 678.297 4.93762 2.41824 0
M  V30 7043 H 679.522 6.06561 3.05386 0
M  V30 7044 H 677.468 4.55899 4.71691 0
M  V30 7045 H 677.385 6.23347 4.27756 0
M  V30 7046 H 678.653 5.68531 5.33285 0
M  V30 7047 N 682.882 -0.391992 1.52647 0
M  V30 7048 C 684.107 -1.16312 1.71716 0
M  V30 7049 C 684.532 -1.83042 0.433279 0
M  V30 7050 O 683.89 -1.70705 -0.610707 0
M  V30 7051 C 683.938 -2.18908 2.86551 0
M  V30 7052 O 683.042 -3.2543 2.53316 0
M  V30 7053 H 682.383 -0.338743 0.571095 0
M  V30 7054 H 684.913 -0.457202 1.99426 0
M  V30 7055 H 684.923 -2.62954 3.1196 0
M  V30 7056 H 683.598 -1.69726 3.79692 0
M  V30 7057 H 682.175 -2.86543 2.38637 0
M  V30 7058 N 684.36 -1.4356 -0.65026 0
M  V30 7059 C 685.608 -1.45046 -1.40734 0
M  V30 7060 C 685.929 -0.0769822 -1.94848 0
M  V30 7061 O 685.199 0.888098 -1.74613 0
M  V30 7062 H 683.779 -0.534034 -0.522318 0
M  V30 7063 H 686.441 -1.79186 -0.766703 0
M  V30 7064 H 685.537 -2.16476 -2.24822 0
M  V30 7065 N 685.838 0.888903 -1.30139 0
M  V30 7066 C 687.085 1.64037 -1.18736 0
M  V30 7067 C 687.413 1.92771 0.258801 0
M  V30 7068 O 686.668 1.54427 1.20212 0
M  V30 7069 C 686.967 2.99041 -1.95728 0
M  V30 7070 C 686.633 2.89874 -3.45375 0
M  V30 7071 C 685.295 2.87082 -3.86183 0
M  V30 7072 C 687.647 2.78289 -4.40687 0
M  V30 7073 C 684.975 2.70536 -5.20603 0
M  V30 7074 C 687.327 2.63282 -5.75209 0
M  V30 7075 C 685.991 2.58861 -6.15262 0
M  V30 7076 H 685.261 0.600253 -0.434485 0
M  V30 7077 H 687.908 1.0338 -1.61198 0
M  V30 7078 H 686.213 3.63626 -1.45888 0
M  V30 7079 H 687.91 3.56139 -1.843 0
M  V30 7080 H 684.5 2.92856 -3.12943 0
M  V30 7081 H 688.684 2.79516 -4.10103 0
M  V30 7082 H 683.94 2.65526 -5.50732 0
M  V30 7083 H 688.114 2.5329 -6.48704 0
M  V30 7084 H 685.741 2.45799 -7.19366 0
M  V30 7085 N 687.317 1.12792 1.10072 0
M  V30 7086 C 688.565 0.883796 1.81751 0
M  V30 7087 C 688.886 -0.591891 1.858 0
M  V30 7088 O 688.156 -1.43017 1.33876 0
M  V30 7089 H 686.736 0.323978 0.673088 0
M  V30 7090 H 689.398 1.42314 1.33164 0
M  V30 7091 H 688.494 1.26863 2.85153 0
M  V30 7092 N 688.795 -1.27931 0.920396 0
M  V30 7093 C 690.211 -1.47085 0.619537 0
M  V30 7094 C 690.411 -1.83463 -0.833291 0
M  V30 7095 O 689.467 -1.94363 -1.61181 0
M  V30 7096 C 690.78 -2.56878 1.56314 0
M  V30 7097 C 692.328 -2.70743 1.57058 0
M  V30 7098 C 692.803 -3.83687 2.50097 0
M  V30 7099 N 694.294 -3.9105 2.48262 0
M  V30 7100 C 695.029 -4.77842 3.16945 0
M  V30 7101 N 694.525 -5.69176 3.94982 0
M  V30 7102 N 696.318 -4.71509 3.06 0
M  V30 7103 H 688.469 -1.02601 1.85975 0
M  V30 7104 H 690.732 -0.511682 0.798051 0
M  V30 7105 H 690.438 -2.36923 2.59923 0
M  V30 7106 H 690.312 -3.54117 1.29928 0
M  V30 7107 H 692.699 -2.90083 0.541832 0
M  V30 7108 H 692.78 -1.74015 1.8749 0
M  V30 7109 H 692.424 -3.65101 3.53077 0
M  V30 7110 H 692.354 -4.79827 2.16964 0
M  V30 7111 H 694.845 -3.25738 1.91581 0
M  V30 7112 H 695.158 -6.32245 4.44394 0
M  V30 7113 H 693.503 -5.68995 3.99086 0
M  V30 7114 H 696.694 -3.99151 2.44533 0
M  V30 7115 H 696.867 -5.38933 3.59799 0
M  V30 7116 N 690.273 -0.685099 -1.4193 0
M  V30 7117 C 691.183 -0.013404 -2.34596 0
M  V30 7118 C 692.199 0.777589 -1.55658 0
M  V30 7119 O 693.375 0.717553 -1.88184 0
M  V30 7120 C 690.44 0.919031 -3.34297 0
M  V30 7121 C 689.501 0.121417 -4.29128 0
M  V30 7122 C 688.734 1.00944 -5.24067 0
M  V30 7123 O 688.957 2.24898 -5.24192 0
M  V30 7124 O 687.891 0.464724 -6.00103 0
M  V30 7125 H 691.717 -0.776978 -2.93593 0
M  V30 7126 H 689.302 -0.445379 -1.42607 0
M  V30 7127 H 691.184 1.45402 -3.9552 0
M  V30 7128 H 689.859 1.66228 -2.77759 0
M  V30 7129 H 688.766 -0.45792 -3.71287 0
M  V30 7130 H 690.099 -0.582937 -4.88736 0
M  V30 7131 N 691.751 1.51645 -0.429126 0
M  V30 7132 C 692.699 2.29119 0.400921 0
M  V30 7133 C 693.693 1.34628 1.02819 0
M  V30 7134 O 694.899 1.52004 0.964098 0
M  V30 7135 H 691.274 0.737273 0.148095 0
M  V30 7136 H 693.245 2.97144 -0.273457 0
M  V30 7137 C 691.994 3.13953 1.49429 0
M  V30 7138 H 691.317 3.86544 1.02097 0
M  V30 7139 H 692.757 3.71232 2.04849 0
M  V30 7140 C 691.216 2.28796 2.47293 0
M  V30 7141 O 691.746 1.94193 3.51642 0
M  V30 7142 N 689.952 1.92177 2.17982 0
M  V30 7143 H 689.499 2.20517 1.33154 0
M  V30 7144 H 689.457 1.35497 2.83704 0
M  V30 7145 N 693.229 0.160201 1.56784 0
M  V30 7146 C 694.477 -0.486625 1.96154 0
M  V30 7147 C 694.798 -1.64525 1.04673 0
M  V30 7148 O 694.068 -1.95586 0.110864 0
M  V30 7149 H 692.648 -0.182764 0.724297 0
M  V30 7150 H 695.31 0.238787 1.93432 0
M  V30 7151 H 694.406 -0.854025 3.00188 0
M  V30 7152 N 694.707 -1.5719 -0.113559 0
M  V30 7153 C 696.123 -1.52607 -0.467253 0
M  V30 7154 C 696.323 -0.874058 -1.81556 0
M  V30 7155 O 695.379 -0.458703 -2.48299 0
M  V30 7156 C 696.692 -2.97363 -0.446736 0
M  V30 7157 C 698.24 -3.08482 -0.529903 0
M  V30 7158 C 698.715 -4.54809 -0.539721 0
M  V30 7159 N 700.206 -4.59284 -0.601005 0
M  V30 7160 C 700.941 -5.69927 -0.630138 0
M  V30 7161 N 700.437 -6.90051 -0.616589 0
M  V30 7162 N 702.23 -5.5805 -0.673558 0
M  V30 7163 H 694.381 -1.97958 0.769819 0
M  V30 7164 H 696.644 -0.90428 0.284572 0
M  V30 7165 H 696.35 -3.48458 0.47643 0
M  V30 7166 H 696.224 -3.55086 -1.27254 0
M  V30 7167 H 698.611 -2.57386 -1.44349 0
M  V30 7168 H 698.692 -2.53744 0.323695 0
M  V30 7169 H 698.336 -5.06552 0.369843 0
M  V30 7170 H 698.266 -5.07364 -1.41028 0
M  V30 7171 H 700.757 -3.72822 -0.617419 0
M  V30 7172 H 701.07 -7.70132 -0.641592 0
M  V30 7173 H 699.415 -6.92543 -0.583927 0
M  V30 7174 H 702.606 -4.63112 -0.681544 0
M  V30 7175 H 702.779 -6.44286 -0.692794 0
M  V30 7176 N 696.185 0.383891 -1.52853 0
M  V30 7177 C 697.431 1.13009 -1.68395 0
M  V30 7178 C 697.764 1.89488 -0.425195 0
M  V30 7179 O 697.039 1.8574 0.577136 0
M  V30 7180 C 697.322 2.10419 -2.92226 0
M  V30 7181 C 697.175 1.3767 -4.28214 0
M  V30 7182 C 698.494 3.10781 -3.11614 0
M  V30 7183 H 695.613 0.409463 -0.612788 0
M  V30 7184 H 698.255 0.412895 -1.85459 0
M  V30 7185 H 696.405 2.71579 -2.77808 0
M  V30 7186 H 698.077 0.794352 -4.54409 0
M  V30 7187 H 696.32 0.678533 -4.2846 0
M  V30 7188 H 696.991 2.08874 -5.10956 0
M  V30 7189 H 699.467 2.59715 -3.25096 0
M  V30 7190 H 698.343 3.76179 -3.99725 0
M  V30 7191 H 698.604 3.79933 -2.2606 0
M  V30 7192 N 697.663 1.43903 0.642637 0
M  V30 7193 C 698.891 1.4954 1.42988 0
M  V30 7194 C 699.306 0.116588 1.8844 0
M  V30 7195 O 698.663 -0.875285 1.60141 0
M  V30 7196 C 698.714 2.45031 2.65785 0
M  V30 7197 O 698.435 3.77551 2.22232 0
M  V30 7198 C 699.936 2.60017 3.59035 0
M  V30 7199 H 697.156 0.507544 0.438907 0
M  V30 7200 H 699.7 1.88752 0.786942 0
M  V30 7201 H 697.855 2.08985 3.26196 0
M  V30 7202 H 698.269 4.29001 3.01759 0
M  V30 7203 H 699.743 3.30887 4.41835 0
M  V30 7204 H 700.22 1.64861 4.07084 0
M  V30 7205 H 700.826 2.96918 3.045 0
M  V30 7206 N 699.141 -0.881989 1.30609 0
M  V30 7207 C 700.39 -1.62878 1.18969 0
M  V30 7208 C 700.703 -1.93946 -0.253859 0
M  V30 7209 O 701.909 -2.67008 -0.491813 0
M  V30 7210 C 700.365 -2.93573 2.0819 0
M  V30 7211 C 699.973 -2.70034 3.57471 0
M  V30 7212 C 701.717 -3.71543 2.0532 0
M  V30 7213 C 699.624 -3.96563 4.38739 0
M  V30 7214 H 698.554 -0.611092 0.441682 0
M  V30 7215 H 701.205 -0.976201 1.55379 0
M  V30 7216 H 699.587 -3.6014 1.64666 0
M  V30 7217 H 700.761 -2.11949 4.09163 0
M  V30 7218 H 699.076 -2.05435 3.62195 0
M  V30 7219 H 701.673 -4.65386 2.63288 0
M  V30 7220 H 702.016 -4.03167 1.03739 0
M  V30 7221 H 702.549 -3.11842 2.46981 0
M  V30 7222 H 699.288 -3.70095 5.41027 0
M  V30 7223 H 698.808 -4.54142 3.9181 0
M  V30 7224 H 700.487 -4.64557 4.50329 0
M  V30 7225 N 700.619 -1.13374 -1.09472 0
M  V30 7226 C 701.529 -0.824029 -2.19652 0
M  V30 7227 C 702.545 0.19118 -1.72947 0
M  V30 7228 O 703.721 0.0223464 -2.01388 0
M  V30 7229 C 700.786 -0.294009 -3.45451 0
M  V30 7230 C 699.847 -1.3704 -4.0684 0
M  V30 7231 C 699.08 -0.86558 -5.26634 0
M  V30 7232 O 699.303 0.29702 -5.69626 0
M  V30 7233 O 698.237 -1.63968 -5.79136 0
M  V30 7234 H 702.063 -1.74454 -2.48595 0
M  V30 7235 H 699.648 -0.911155 -1.18399 0
M  V30 7236 H 701.53 -0.00381039 -4.214 0
M  V30 7237 H 700.205 0.598921 -3.18111 0
M  V30 7238 H 699.112 -1.71391 -3.3253 0
M  V30 7239 H 700.445 -2.23746 -4.38405 0
M  V30 7240 N 702.098 1.27442 -0.927168 0
M  V30 7241 C 703.328 1.9821 -0.582775 0
M  V30 7242 C 703.736 1.69361 0.843406 0
M  V30 7243 O 703.079 0.950381 1.57205 0
M  V30 7244 C 703.141 3.52048 -0.728165 0
M  V30 7245 C 702.805 4.04518 -2.12637 0
M  V30 7246 C 703.802 4.17332 -3.10048 0
M  V30 7247 C 701.487 4.38879 -2.44317 0
M  V30 7248 C 703.481 4.6378 -4.37249 0
M  V30 7249 C 701.168 4.85018 -3.71753 0
M  V30 7250 C 702.166 4.97428 -4.68033 0
M  V30 7251 O 701.854 5.42556 -5.93202 0
M  V30 7252 H 701.586 0.639314 -0.219667 0
M  V30 7253 H 704.14 1.63272 -1.24626 0
M  V30 7254 H 702.37 3.86699 -0.00758143 0
M  V30 7255 H 704.059 4.04033 -0.388906 0
M  V30 7256 H 704.825 3.91046 -2.86894 0
M  V30 7257 H 700.704 4.28462 -1.70121 0
M  V30 7258 H 704.248 4.73382 -5.12402 0
M  V30 7259 H 700.145 5.10746 -3.94726 0
M  V30 7260 H 700.913 5.60811 -5.96182 0
M  V30 7261 N 703.576 0.692616 1.41565 0
M  V30 7262 C 704.806 0.230943 2.05305 0
M  V30 7263 C 705.214 -1.12379 1.52209 0
M  V30 7264 O 704.557 -1.71281 0.663968 0
M  V30 7265 C 704.619 0.107894 3.59338 0
M  V30 7266 C 704.283 1.39419 4.35214 0
M  V30 7267 C 705.28 2.33143 4.64694 0
M  V30 7268 C 702.965 1.64674 4.74539 0
M  V30 7269 C 704.959 3.50385 5.32456 0
M  V30 7270 C 702.646 2.82202 5.42038 0
M  V30 7271 C 703.644 3.74881 5.70923 0
M  V30 7272 O 703.332 4.90351 6.37033 0
M  V30 7273 H 703.064 0.105708 0.667684 0
M  V30 7274 H 705.618 0.94488 1.82376 0
M  V30 7275 H 703.848 -0.661785 3.80995 0
M  V30 7276 H 705.537 -0.316213 4.04666 0
M  V30 7277 H 706.303 2.14887 4.34797 0
M  V30 7278 H 702.182 0.934007 4.51439 0
M  V30 7279 H 705.726 4.22743 5.54918 0
M  V30 7280 H 701.623 3.00376 5.71353 0
M  V30 7281 H 702.391 4.90128 6.55528 0
M  V30 7282 N 705.054 -1.51416 0.437162 0
M  V30 7283 C 706.279 -2.0699 -0.130424 0
M  V30 7284 C 706.704 -1.30249 -1.35709 0
M  V30 7285 O 706.062 -0.340388 -1.78076 0
M  V30 7286 C 706.11 -3.5801 -0.43142 0
M  V30 7287 O 705.214 -3.8345 -1.5179 0
M  V30 7288 H 704.555 -0.663997 -0.00194339 0
M  V30 7289 H 707.085 -1.95029 0.618445 0
M  V30 7290 H 707.095 -4.02261 -0.681926 0
M  V30 7291 H 705.77 -4.13291 0.465137 0
M  V30 7292 H 704.347 -3.51062 -1.25737 0
M  V30 7293 N 706.532 -0.168513 -1.56696 0
M  V30 7294 C 707.464 0.794249 -2.14998 0
M  V30 7295 C 708.477 1.1957 -1.10485 0
M  V30 7296 O 709.666 1.13604 -1.37682 0
M  V30 7297 C 706.766 2.08018 -2.67547 0
M  V30 7298 C 705.939 1.84274 -3.96689 0
M  V30 7299 C 704.998 2.97059 -4.3433 0
M  V30 7300 O 704.024 2.67815 -5.02259 0
M  V30 7301 N 705.226 4.24775 -3.9566 0
M  V30 7302 H 707.991 0.295832 -2.98236 0
M  V30 7303 H 705.552 0.0143611 -1.61894 0
M  V30 7304 H 707.544 2.82559 -2.89729 0
M  V30 7305 H 706.114 2.49059 -1.88914 0
M  V30 7306 H 705.334 0.936528 -3.82914 0
M  V30 7307 H 706.622 1.65773 -4.81037 0
M  V30 7308 H 706.02 4.51395 -3.40968 0
M  V30 7309 H 704.577 4.96027 -4.22848 0
M  V30 7310 N 708.01 1.57248 0.105221 0
M  V30 7311 C 708.94 2.04374 1.12931 0
M  V30 7312 C 709.921 0.93074 1.42377 0
M  V30 7313 O 711.106 1.20136 1.52581 0
M  V30 7314 C 708.236 2.45967 2.45189 0
M  V30 7315 C 707.19 3.60838 2.30174 0
M  V30 7316 C 706.516 3.88374 3.67518 0
M  V30 7317 C 707.816 4.92084 1.75073 0
M  V30 7318 H 709.51 2.9018 0.737287 0
M  V30 7319 H 707.056 1.39601 0.353211 0
M  V30 7320 H 709.009 2.77542 3.17094 0
M  V30 7321 H 707.733 1.57148 2.86308 0
M  V30 7322 H 706.392 3.29493 1.60716 0
M  V30 7323 H 706.04 2.96739 4.06147 0
M  V30 7324 H 705.74 4.65703 3.58321 0
M  V30 7325 H 707.264 4.22415 4.40906 0
M  V30 7326 H 708.678 5.22106 2.36809 0
M  V30 7327 H 707.075 5.73507 1.76662 0
M  V30 7328 H 708.145 4.79684 0.709347 0
M  V30 7329 N 709.488 -0.375779 1.53054 0
M  V30 7330 C 710.435 -1.45978 1.78771 0
M  V30 7331 C 711.405 -1.53625 0.631552 0
M  V30 7332 O 712.59 -1.69674 0.872667 0
M  V30 7333 C 709.73 -2.8305 1.97425 0
M  V30 7334 C 708.843 -2.84451 3.25134 0
M  V30 7335 C 707.978 -4.13034 3.34031 0
M  V30 7336 C 707.017 -4.08536 4.55812 0
M  V30 7337 N 706.154 -5.2875 4.61918 0
M  V30 7338 H 710.994 -1.23349 2.71273 0
M  V30 7339 H 708.531 -0.598147 1.3439 0
M  V30 7340 H 710.489 -3.62666 2.06225 0
M  V30 7341 H 709.119 -3.04101 1.0827 0
M  V30 7342 H 708.171 -1.97127 3.25338 0
M  V30 7343 H 709.483 -2.76998 4.14818 0
M  V30 7344 H 708.637 -5.0106 3.42087 0
M  V30 7345 H 707.376 -4.23226 2.42345 0
M  V30 7346 H 706.381 -3.18897 4.47867 0
M  V30 7347 H 707.606 -3.99955 5.48828 0
M  V30 7348 H 705.552 -5.39547 3.73129 0
M  V30 7349 H 705.469 -5.23426 5.45492 0
M  V30 7350 H 706.737 -6.18637 4.74245 0
M  V30 7351 N 710.966 -1.44241 -0.634997 0
M  V30 7352 C 712.194 -1.50296 -1.42193 0
M  V30 7353 C 712.609 -0.12658 -1.88375 0
M  V30 7354 O 711.966 0.86678 -1.60603 0
M  V30 7355 C 712.017 -2.46437 -2.64482 0
M  V30 7356 O 711.738 -3.78724 -2.20226 0
M  V30 7357 C 713.239 -2.61918 -3.57651 0
M  V30 7358 H 710.459 -0.509865 -0.43621 0
M  V30 7359 H 713.003 -1.89167 -0.776921 0
M  V30 7360 H 711.158 -2.10712 -3.25083 0
M  V30 7361 H 711.572 -4.30595 -2.9948 0
M  V30 7362 H 713.046 -3.33225 -4.40074 0
M  V30 7363 H 713.523 -1.67017 -4.06204 0
M  V30 7364 H 714.129 -2.98528 -3.02921 0
M  V30 7365 N 712.444 0.87505 -1.31075 0
M  V30 7366 C 713.69 1.63009 -1.20647 0
M  V30 7367 C 714.023 1.9276 0.236045 0
M  V30 7368 O 713.298 1.55559 1.16754 0
M  V30 7369 C 713.581 2.96357 -2.0456 0
M  V30 7370 C 713.434 2.73516 -3.57084 0
M  V30 7371 C 714.753 3.974 -1.89107 0
M  V30 7372 H 711.872 0.591518 -0.439631 0
M  V30 7373 H 714.514 1.0119 -1.60812 0
M  V30 7374 H 712.664 3.49119 -1.70435 0
M  V30 7375 H 714.336 2.27465 -4.01319 0
M  V30 7376 H 712.579 2.0784 -3.80769 0
M  V30 7377 H 713.25 3.68377 -4.11099 0
M  V30 7378 H 715.726 3.5383 -2.18961 0
M  V30 7379 H 714.602 4.88596 -2.5013 0
M  V30 7380 H 714.863 4.33794 -0.85296 0
M  V30 7381 N 713.922 1.13953 1.08869 0
M  V30 7382 C 715.162 0.915128 1.8277 0
M  V30 7383 C 715.526 -0.548647 1.83994 0
M  V30 7384 O 716.727 -0.890817 2.5361 0
M  V30 7385 C 714.998 1.49382 3.24684 0
M  V30 7386 S 716.557 1.4103 4.15519 0
M  V30 7387 H 713.375 0.329716 0.629927 0
M  V30 7388 H 715.977 1.45213 1.30895 0
M  V30 7389 H 714.681 2.55241 3.21372 0
M  V30 7390 H 714.212 0.955008 3.81632 0
M  V30 7391 H 716.227 0.392617 4.94644 0
M  V30 7392 N 715.4 -1.26948 0.933913 0
M  V30 7393 C 716.646 -1.94374 0.57848 0
M  V30 7394 C 716.979 -1.73166 -0.879048 0
M  V30 7395 O 716.254 -1.06438 -1.62792 0
M  V30 7396 C 716.537 -3.4834 0.912739 0
M  V30 7397 C 716.39 -3.78866 2.42448 0
M  V30 7398 C 717.709 -4.38062 0.423003 0
M  V30 7399 H 714.828 -0.705959 0.211639 0
M  V30 7400 H 717.47 -1.49951 1.16682 0
M  V30 7401 H 715.62 -3.86309 0.412058 0
M  V30 7402 H 717.292 -3.50654 2.99733 0
M  V30 7403 H 715.535 -3.25198 2.87104 0
M  V30 7404 H 716.206 -4.86458 2.60887 0
M  V30 7405 H 718.682 -4.0728 0.852191 0
M  V30 7406 H 717.558 -5.44599 0.685776 0
M  V30 7407 H 717.819 -4.36886 -0.676994 0
M  V30 7408 N 716.879 -0.700114 -1.41195 0
M  V30 7409 C 717.789 -0.0382854 -2.34569 0
M  V30 7410 C 718.805 0.761036 -1.56474 0
M  V30 7411 O 719.981 0.697553 -1.88934 0
M  V30 7412 C 717.046 0.883522 -3.35253 0
M  V30 7413 C 716.107 0.0758957 -4.29233 0
M  V30 7414 C 715.34 0.9538 -5.25108 0
M  V30 7415 O 715.563 2.19326 -5.26547 0
M  V30 7416 O 714.497 0.401049 -6.00562 0
M  V30 7417 H 718.323 -0.808073 -2.92752 0
M  V30 7418 H 715.908 -0.460479 -1.42127 0
M  V30 7419 H 717.79 1.41199 -3.9704 0
M  V30 7420 H 716.465 1.63272 -2.79506 0
M  V30 7421 H 715.372 -0.497274 -3.7078 0
M  V30 7422 H 716.705 -0.634741 -4.8809 0
M  V30 7423 N 718.357 1.51182 -0.445186 0
M  V30 7424 C 719.29 2.24528 0.4077 0
M  V30 7425 C 720.268 1.26778 1.01814 0
M  V30 7426 O 721.452 1.55934 1.05909 0
M  V30 7427 C 718.579 3.00171 1.56892 0
M  V30 7428 C 717.625 4.12641 1.0784 0
M  V30 7429 S 718.458 5.35498 0.014049 0
M  V30 7430 C 719.614 6.14681 1.17975 0
M  V30 7431 H 719.847 2.96522 -0.214987 0
M  V30 7432 H 717.38 1.52681 -0.229781 0
M  V30 7433 H 719.338 3.44349 2.23459 0
M  V30 7434 H 717.999 2.27752 2.16304 0
M  V30 7435 H 717.192 4.64875 1.94698 0
M  V30 7436 H 716.794 3.70765 0.490852 0
M  V30 7437 H 719.086 6.44244 2.09658 0
M  V30 7438 H 720.029 7.04659 0.697222 0
M  V30 7439 H 720.437 5.46299 1.42187 0
M  V30 7440 N 719.835 0.176821 1.56605 0
M  V30 7441 C 721.083 -0.465793 1.96659 0
M  V30 7442 C 721.404 -1.63406 1.06412 0
M  V30 7443 O 720.674 -1.95457 0.131603 0
M  V30 7444 H 719.254 -0.175072 0.726195 0
M  V30 7445 H 721.916 0.25929 1.93168 0
M  V30 7446 H 721.012 -0.822138 3.01077 0
M  V30 7447 N 721.313 -1.57302 -0.09688 0
M  V30 7448 C 722.59 -1.7701 -0.832272 0
M  V30 7449 C 722.97 -0.758025 -1.97021 0
M  V30 7450 O 722.318 0.213824 -2.27497 0
M  V30 7451 C 722.528 -3.22725 -1.32851 0
M  V30 7452 C 723.876 -3.85856 -1.772 0
M  V30 7453 O 724.9 -3.26464 -1.42478 0
M  V30 7454 O 723.759 -4.90295 -2.41398 0
M  V30 7455 H 720.853 -0.725558 -0.396856 0
M  V30 7456 H 723.399 -1.69516 -0.0789005 0
M  V30 7457 H 722.171 -3.87921 -0.51312 0
M  V30 7458 H 721.794 -3.34845 -2.14394 0
M  V30 7459 N 722.791 0.367657 -1.53252 0
M  V30 7460 C 724.037 1.11216 -1.69584 0
M  V30 7461 C 724.37 1.89026 -0.445269 0
M  V30 7462 O 723.645 1.86342 0.557404 0
M  V30 7463 C 723.928 2.07308 -2.94441 0
M  V30 7464 C 723.781 1.3312 -4.2965 0
M  V30 7465 C 725.1 3.07459 -3.14892 0
M  V30 7466 H 722.219 0.40294 -0.617096 0
M  V30 7467 H 724.861 0.393201 -1.85887 0
M  V30 7468 H 723.011 2.68617 -2.80673 0
M  V30 7469 H 724.683 0.746111 -4.55226 0
M  V30 7470 H 722.926 0.633051 -4.29156 0
M  V30 7471 H 723.597 2.03443 -5.13142 0
M  V30 7472 H 726.073 2.56252 -3.27832 0
M  V30 7473 H 724.949 3.71919 -4.03693 0
M  V30 7474 H 725.21 3.77514 -2.30077 0
M  V30 7475 N 724.269 1.44576 0.627338 0
M  V30 7476 C 725.179 1.54232 1.76776 0
M  V30 7477 C 726.195 0.427782 1.6866 0
M  V30 7478 O 727.371 0.685671 1.89369 0
M  V30 7479 C 724.436 1.48738 3.13174 0
M  V30 7480 C 723.497 2.71074 3.32893 0
M  V30 7481 C 722.73 2.65832 4.62784 0
M  V30 7482 O 722.953 1.72048 5.43834 0
M  V30 7483 O 721.887 3.56742 4.84787 0
M  V30 7484 H 725.713 2.50586 1.71582 0
M  V30 7485 H 723.298 1.26865 0.789028 0
M  V30 7486 H 725.18 1.48211 3.94476 0
M  V30 7487 H 723.855 0.555292 3.18902 0
M  V30 7488 H 722.762 2.77168 2.51254 0
M  V30 7489 H 724.095 3.63342 3.32029 0
M  V30 7490 N 725.747 -0.868086 1.31537 0
M  V30 7491 C 726.972 -1.65926 1.24432 0
M  V30 7492 C 727.397 -1.87169 -0.186936 0
M  V30 7493 O 726.755 -1.4148 -1.13371 0
M  V30 7494 C 726.803 -3.00347 1.9956 0
M  V30 7495 O 725.907 -3.90221 1.33422 0
M  V30 7496 H 725.248 -0.506375 0.429512 0
M  V30 7497 H 727.778 -1.0822 1.73637 0
M  V30 7498 H 727.788 -3.50269 2.09226 0
M  V30 7499 H 726.463 -2.84205 3.03645 0
M  V30 7500 H 725.04 -3.48672 1.32219 0
M  V30 7501 N 727.225 -1.14528 -1.08264 0
M  V30 7502 C 728.188 -0.83632 -2.13397 0
M  V30 7503 C 729.188 0.159715 -1.60005 0
M  V30 7504 O 730.378 -0.0688098 -1.74064 0
M  V30 7505 C 727.51 -0.246973 -3.40004 0
M  V30 7506 H 728.703 -1.76808 -2.42237 0
M  V30 7507 H 726.256 -0.951509 -1.24 0
M  V30 7508 H 726.991 0.693436 -3.168 0
M  V30 7509 H 726.776 -0.964412 -3.80055 0
M  V30 7510 H 728.266 -0.0480679 -4.17572 0
M  V30 7511 N 728.703 1.26451 -0.940633 0
M  V30 7512 C 729.95 1.93778 -0.587909 0
M  V30 7513 C 730.278 1.73811 0.872935 0
M  V30 7514 O 729.533 1.06816 1.63978 0
M  V30 7515 C 729.832 3.46503 -0.875794 0
M  V30 7516 C 729.498 3.86609 -2.32043 0
M  V30 7517 C 728.16 3.97269 -2.71534 0
M  V30 7518 C 730.512 4.0672 -3.25927 0
M  V30 7519 C 727.84 4.25436 -4.04006 0
M  V30 7520 C 730.192 4.36375 -4.57995 0
M  V30 7521 C 728.856 4.45249 -4.97302 0
M  V30 7522 H 728.126 0.709084 -0.215131 0
M  V30 7523 H 730.773 1.50272 -1.18704 0
M  V30 7524 H 729.078 3.91319 -0.194124 0
M  V30 7525 H 730.775 3.96759 -0.581665 0
M  V30 7526 H 727.365 3.78858 -2.00411 0
M  V30 7527 H 731.549 3.97912 -2.96614 0
M  V30 7528 H 726.805 4.30519 -4.34124 0
M  V30 7529 H 730.979 4.50882 -5.30734 0
M  V30 7530 H 728.606 4.66829 -5.99979 0
M  V30 7531 O 730.22 0.846016 1.37567 0
M  V30 7532 H 730.911 0.436618 1.88715 0
M  V30 END ATOM
M  V30 BEGIN BOND
M  V30 END BOND
M  V30 END CTAB
M  END
$$$$
