drugbank_target|P49190 Parathyroid hormone 2 receptor (DB05829)
 OpenBabel12092120573D

  0  0  0     0  0            999 V3000
M  V30 BEGIN CTAB
M  V30 COUNTS 8703 8826 0 0 0
M  V30 BEGIN ATOM
M  V30 1 H -0.908 1.98254 -0.117106 0
M  V30 2 N 0 1.576 0 0
M  V30 3 C 0.933 2.03868 1.02534 0
M  V30 4 C 1.911 0.928543 1.3348 0
M  V30 5 O 3.095 1.19667 1.45644 0
M  V30 6 C 0.222 2.43627 2.35294 0
M  V30 7 C -0.732 3.65373 2.2001 0
M  V30 8 S 0.101 5.13292 1.52614 0
M  V30 9 C 1.257 5.56322 2.86805 0
M  V30 10 H 1.49 2.90518 0.631377 0
M  V30 11 H -0.977 1.52953 0.210867 0
M  V30 12 H 0.981 2.67203 3.11629 0
M  V30 13 H -0.358 1.57376 2.7183 0
M  V30 14 H -1.165 3.90944 3.18086 0
M  V30 15 H -1.563 3.418 1.51819 0
M  V30 16 H 0.729 5.58782 3.83104 0
M  V30 17 H 1.672 6.56266 2.65933 0
M  V30 18 H 2.08 4.83886 2.90714 0
M  V30 19 N 1.4781 -0.272755 1.55222 0
M  V30 20 C 2.4411 -1.32041 1.87344 0
M  V30 21 C 3.4411 -1.42342 0.74803 0
M  V30 22 O 4.6311 -1.41488 1.0162 0
M  V30 23 C 1.7631 -2.70173 2.07893 0
M  V30 24 H 2.9561 -1.04789 2.80997 0
M  V30 25 H 0.5091 -0.51083 1.47717 0
M  V30 26 H 1.2441 -3.02605 1.16622 0
M  V30 27 H 1.0291 -2.64082 2.89833 0
M  V30 28 H 2.5191 -3.45869 2.34017 0
M  V30 29 N 2.9562 -1.48159 -0.537278 0
M  V30 30 C 4.2042 -1.55497 -1.29094 0
M  V30 31 C 4.5252 -0.227454 -1.93669 0
M  V30 32 O 3.7952 0.750386 -1.80959 0
M  V30 33 H 2.3752 -0.572832 -0.47945 0
M  V30 34 H 5.0372 -1.84579 -0.625818 0
M  V30 35 H 4.1332 -2.33216 -2.07405 0
M  V30 36 N 4.4343 0.785586 -1.36625 0
M  V30 37 C 5.3643 1.91259 -1.33949 0
M  V30 38 C 6.3453 1.68795 -0.210325 0
M  V30 39 O 7.5303 1.89854 -0.408561 0
M  V30 40 C 4.6603 3.28339 -1.13186 0
M  V30 41 C 3.6143 3.65335 -2.22967 0
M  V30 42 C 2.9403 5.00806 -1.87342 0
M  V30 43 C 4.2403 3.7352 -3.65075 0
M  V30 44 H 5.9343 1.93755 -2.28253 0
M  V30 45 H 3.4803 0.930788 -1.09874 0
M  V30 46 H 5.4333 4.06804 -1.09948 0
M  V30 47 H 4.1573 3.2624 -0.153332 0
M  V30 48 H 2.8163 2.89169 -2.25337 0
M  V30 49 H 2.4643 4.95233 -0.880545 0
M  V30 50 H 2.1643 5.26529 -2.60846 0
M  V30 51 H 3.6883 5.81687 -1.85667 0
M  V30 52 H 5.1023 4.42168 -3.64911 0
M  V30 53 H 3.4993 4.10731 -4.37516 0
M  V30 54 H 4.5693 2.74527 -3.99703 0
M  V30 55 N 5.9124 1.20967 1.01018 0
M  V30 56 C 7.1604 1.02172 1.74371 0
M  V30 57 C 7.4814 -0.446414 1.89821 0
M  V30 58 O 6.7514 -1.32234 1.44537 0
M  V30 59 H 5.3314 0.375066 0.646014 0
M  V30 60 H 7.9934 1.52187 1.21758 0
M  V30 61 H 7.0894 1.48538 2.74487 0
M  V30 62 N 7.3905 -1.2043 1.01659 0
M  V30 63 C 8.3535 -2.21433 0.591616 0
M  V30 64 C 9.3535 -1.57203 -0.338226 0
M  V30 65 O 10.5435 -1.73737 -0.126918 0
M  V30 66 C 7.6755 -3.40628 -0.136058 0
M  V30 67 H 8.8685 -2.60545 1.48514 0
M  V30 68 H 6.4215 -1.33893 0.806379 0
M  V30 69 H 7.1565 -3.07019 -1.04449 0
M  V30 70 H 6.9415 -3.88475 0.531917 0
M  V30 71 H 8.4315 -4.15475 -0.420735 0
M  V30 72 N 8.8686 -0.792821 -1.36206 0
M  V30 73 C 10.0936 -0.377701 -2.03932 0
M  V30 74 C 10.5186 0.998947 -1.59382 0
M  V30 75 O 9.8766 1.64421 -0.763903 0
M  V30 76 C 9.9246 -0.453635 -3.57735 0
M  V30 77 O 9.0286 0.538151 -4.08874 0
M  V30 78 H 8.3696 -0.159855 -0.644471 0
M  V30 79 H 10.8996 -1.07488 -1.7409 0
M  V30 80 H 10.9096 -0.318464 -4.06755 0
M  V30 81 H 9.5846 -1.45784 -3.89512 0
M  V30 82 H 8.1616 0.364359 -3.71116 0
M  V30 83 N 10.3467 1.47872 -0.545128 0
M  V30 84 C 11.2767 2.32661 0.197793 0
M  V30 85 C 12.2577 1.43041 0.920504 0
M  V30 86 O 13.4427 1.71912 0.90333 0
M  V30 87 C 10.5727 3.24569 1.23582 0
M  V30 88 C 9.5267 4.23333 0.630323 0
M  V30 89 C 8.8527 5.0448 1.77211 0
M  V30 90 C 10.1527 5.20704 -0.407974 0
M  V30 91 H 11.8467 2.95024 -0.510045 0
M  V30 92 H 9.3927 1.4187 -0.246731 0
M  V30 93 H 11.3457 3.8272 1.76362 0
M  V30 94 H 10.0697 2.60236 1.97344 0
M  V30 95 H 8.7287 3.6639 0.123922 0
M  V30 96 H 8.3767 4.36561 2.49847 0
M  V30 97 H 8.0767 5.71339 1.37281 0
M  V30 98 H 9.6007 5.65487 2.3034 0
M  V30 99 H 11.0147 5.7329 0.033305 0
M  V30 100 H 9.4117 5.95699 -0.725486 0
M  V30 101 H 10.4817 4.66917 -1.30828 0
M  V30 102 N 11.8248 0.280983 1.55075 0
M  V30 103 C 12.7748 -0.618585 2.19448 0
M  V30 104 C 13.7588 -1.11401 1.16098 0
M  V30 105 O 14.9508 -1.0581 1.41891 0
M  V30 106 C 12.0798 -1.79951 2.92357 0
M  V30 107 C 11.1658 -1.321 4.03002 0
M  V30 108 N 11.5568 -0.559044 5.02701 0
M  V30 109 C 9.8548 -1.60346 4.16179 0
M  V30 110 C 10.5558 -0.306722 5.80891 0
M  V30 111 N 9.5318 -0.880825 5.36416 0
M  V30 112 H 13.3338 -0.0286638 2.93886 0
M  V30 113 H 10.8478 0.0848104 1.62178 0
M  V30 114 H 12.8448 -2.45531 3.36927 0
M  V30 115 H 11.5048 -2.39333 2.19431 0
M  V30 116 H 12.5158 -0.205827 5.17491 0
M  V30 117 H 9.1928 -2.20621 3.54447 0
M  V30 118 H 10.5828 0.30391 6.71212 0
M  V30 119 N 13.3029 -1.57598 0.00835791 0
M  V30 120 C 14.5489 -1.91211 -0.675732 0
M  V30 121 C 14.8819 -0.883139 -1.72958 0
M  V30 122 O 14.1569 0.097016 -1.94258 0
M  V30 123 C 14.4399 -3.35379 -1.31123 0
M  V30 124 C 14.2929 -4.48999 -0.268356 0
M  V30 125 C 15.6119 -3.7912 -2.23508 0
M  V30 126 H 12.7309 -0.695374 -0.244179 0
M  V30 127 H 15.3729 -1.89901 0.0613655 0
M  V30 128 H 13.5229 -3.36626 -1.93946 0
M  V30 129 H 15.1949 -4.59887 0.360844 0
M  V30 130 H 13.4379 -4.31873 0.408482 0
M  V30 131 H 14.1089 -5.46851 -0.752218 0
M  V30 132 H 16.5849 -3.79477 -1.70693 0
M  V30 133 H 15.4609 -4.80729 -2.64936 0
M  V30 134 H 15.7219 -3.13455 -3.11766 0
M  V30 135 N 14.781 0.264519 -1.55364 0
M  V30 136 C 16.027 0.992314 -1.77552 0
M  V30 137 C 16.382 1.83626 -0.574379 0
M  V30 138 O 15.675 1.86648 0.432782 0
M  V30 139 C 15.869 1.9004 -3.02687 0
M  V30 140 C 15.698 1.14583 -4.34857 0
M  V30 141 C 14.468 0.858068 -4.97961 0
M  V30 142 C 16.666 0.532069 -5.1154 0
M  V30 143 N 14.648 0.0775974 -6.13851 0
M  V30 144 C 16.019 -0.113823 -6.19896 0
M  V30 145 C 18.074 0.440763 -4.95945 0
M  V30 146 C 16.777 -0.842231 -7.14352 0
M  V30 147 C 18.803 -0.274072 -5.90765 0
M  V30 148 C 18.165 -0.90867 -6.98515 0
M  V30 149 H 14.264 0.344811 -0.701875 0
M  V30 150 H 16.848 0.267141 -1.92859 0
M  V30 151 H 15.019 2.59775 -2.88741 0
M  V30 152 H 16.751 2.56243 -3.13243 0
M  V30 153 H 13.506 1.16547 -4.59036 0
M  V30 154 H 13.93 -0.300216 -6.76334 0
M  V30 155 H 18.572 0.917064 -4.12735 0
M  V30 156 H 16.29 -1.33019 -7.97077 0
M  V30 157 H 19.876 -0.345151 -5.80775 0
M  V30 158 H 18.756 -1.45299 -7.70622 0
M  V30 159 N 16.2591 1.48442 0.529413 0
M  V30 160 C 17.5071 1.56179 1.28267 0
M  V30 161 C 17.8281 0.237721 1.93546 0
M  V30 162 O 17.0981 -0.740779 1.81354 0
M  V30 163 H 15.6781 0.575367 0.476405 0
M  V30 164 H 18.3401 1.84909 0.61602 0
M  V30 165 H 17.4361 2.34312 2.06165 0
M  V30 166 N 17.7372 -0.778329 1.37039 0
M  V30 167 C 18.9832 -1.53817 1.33086 0
M  V30 168 C 19.3382 -1.92208 -0.0860346 0
M  V30 169 O 18.6312 -1.60713 -1.04316 0
M  V30 170 C 18.8252 -2.81845 2.19768 0
M  V30 171 C 18.6542 -2.55967 3.69744 0
M  V30 172 C 17.4242 -2.50428 4.38878 0
M  V30 173 C 19.6222 -2.2441 4.62758 0
M  V30 174 N 17.6042 -2.16564 5.74433 0
M  V30 175 C 18.9752 -2.0063 5.86641 0
M  V30 176 C 21.0302 -2.1051 4.5121 0
M  V30 177 C 19.7332 -1.64354 7.00272 0
M  V30 178 C 21.7592 -1.75634 5.64718 0
M  V30 179 C 21.1212 -1.52709 6.87648 0
M  V30 180 H 17.2202 -0.563434 0.542279 0
M  V30 181 H 19.8042 -0.908617 1.72198 0
M  V30 182 H 17.9752 -3.42649 1.82883 0
M  V30 183 H 19.7072 -3.47682 2.07122 0
M  V30 184 H 16.4622 -2.66056 3.91805 0
M  V30 185 H 16.8862 -2.02348 6.46053 0
M  V30 186 H 21.5282 -2.26919 3.56746 0
M  V30 187 H 19.2462 -1.46683 7.94676 0
M  V30 188 H 22.8322 -1.65546 5.57751 0
M  V30 189 H 21.7122 -1.2612 7.73992 0
M  V30 190 N 19.2153 -1.21501 -1.00376 0
M  V30 191 C 20.1453 -0.999478 -2.11028 0
M  V30 192 C 21.1263 0.0759671 -1.6993 0
M  V30 193 O 22.3113 -0.0841106 -1.94018 0
M  V30 194 C 19.4413 -0.564709 -3.42678 0
M  V30 195 C 18.3953 -1.58486 -3.97576 0
M  V30 196 C 17.7213 -1.00628 -5.25146 0
M  V30 197 C 19.0213 -2.97204 -4.29496 0
M  V30 198 H 20.7153 -1.92495 -2.29317 0
M  V30 199 H 18.2613 -0.92693 -1.102 0
M  V30 200 H 20.2143 -0.401091 -4.19487 0
M  V30 201 H 18.9383 0.396411 -3.24185 0
M  V30 202 H 17.5973 -1.73606 -3.22888 0
M  V30 203 H 17.2453 -0.0368439 -5.02987 0
M  V30 204 H 16.9453 -1.68771 -5.62841 0
M  V30 205 H 18.4693 -0.854015 -6.04598 0
M  V30 206 H 19.8833 -2.8552 -4.97143 0
M  V30 207 H 18.2803 -3.62372 -4.78338 0
M  V30 208 H 19.3503 -3.47956 -3.3772 0
M  V30 209 N 20.6934 1.19889 -1.02296 0
M  V30 210 C 21.6264 2.21639 -0.543282 0
M  V30 211 C 22.6044 1.57275 0.412698 0
M  V30 212 O 23.7884 1.85568 0.331198 0
M  V30 213 C 20.9154 3.38057 0.208571 0
M  V30 214 C 19.9614 4.20751 -0.697933 0
M  V30 215 S 20.7944 4.89529 -2.17075 0
M  V30 216 C 21.9504 6.09363 -1.42923 0
M  V30 217 H 22.1834 2.61984 -1.40541 0
M  V30 218 H 19.7164 1.30041 -0.832387 0
M  V30 219 H 21.6744 4.05539 0.63624 0
M  V30 220 H 20.3354 2.96159 1.04635 0
M  V30 221 H 19.5284 5.03862 -0.117831 0
M  V30 222 H 19.1304 3.58556 -1.06366 0
M  V30 223 H 21.4224 6.73742 -0.712637 0
M  V30 224 H 22.3654 6.71845 -2.23673 0
M  V30 225 H 22.7734 5.56798 -0.929327 0
M  V30 226 N 22.1715 0.800033 1.35784 0
M  V30 227 C 23.1015 0.220184 2.3246 0
M  V30 228 C 24.0825 -0.65073 1.57161 0
M  V30 229 O 25.2675 -0.582359 1.85263 0
M  V30 230 C 22.3975 -0.637353 3.41402 0
M  V30 231 C 21.3515 0.134531 4.27789 0
M  V30 232 C 20.6775 -0.844285 5.27992 0
M  V30 233 C 21.9775 1.32979 5.05088 0
M  V30 234 H 23.6715 1.02787 2.81203 0
M  V30 235 H 21.2175 0.495717 1.35199 0
M  V30 236 H 23.1705 -1.05302 4.08031 0
M  V30 237 H 21.8945 -1.47785 2.91251 0
M  V30 238 H 20.5535 0.531296 3.6273 0
M  V30 239 H 20.2015 -1.68011 4.74111 0
M  V30 240 H 19.9015 -0.332184 5.8666 0
M  V30 241 H 21.4255 -1.2583 5.97494 0
M  V30 242 H 22.8395 0.98934 5.64699 0
M  V30 243 H 21.2365 1.77593 5.7322 0
M  V30 244 H 22.3065 2.11978 4.36111 0
M  V30 245 N 23.6496 -1.47581 0.552962 0
M  V30 246 C 24.8976 -2.02082 0.0272703 0
M  V30 247 C 25.2186 -1.4301 -1.32563 0
M  V30 248 O 24.4886 -0.603745 -1.86365 0
M  V30 249 H 23.0686 -0.746966 0.00709182 0
M  V30 250 H 25.7306 -1.81033 0.722008 0
M  V30 251 H 24.8266 -3.12034 -0.0639951 0
M  V30 252 N 25.1277 -0.289203 -1.54924 0
M  V30 253 C 26.3527 0.329299 -2.04769 0
M  V30 254 C 26.7777 1.4763 -1.16564 0
M  V30 255 O 26.1357 1.80527 -0.167186 0
M  V30 256 C 26.1837 0.774438 -3.52186 0
M  V30 257 O 25.2877 1.88038 -3.67036 0
M  V30 258 H 24.6287 0.0659259 -0.660719 0
M  V30 259 H 27.1587 -0.42761 -2.00082 0
M  V30 260 H 27.1687 1.06642 -3.93816 0
M  V30 261 H 25.8437 -0.0646707 -4.1585 0
M  V30 262 H 24.4207 1.58985 -3.3731 0
M  V30 263 N 26.6058 1.57591 -0.0167156 0
M  V30 264 C 27.8458 1.93145 0.668902 0
M  V30 265 C 28.2098 0.892406 1.7 0
M  V30 266 O 29.4108 1.13373 2.43721 0
M  V30 267 C 27.6818 3.33678 1.28039 0
M  V30 268 S 29.2408 3.91142 1.9888 0
M  V30 269 H 26.0588 0.67593 0.220545 0
M  V30 270 H 28.6608 1.95347 -0.0774105 0
M  V30 271 H 27.3648 4.07126 0.517339 0
M  V30 272 H 26.8958 3.3489 2.06427 0
M  V30 273 H 28.9108 3.73571 3.26587 0
M  V30 274 N 28.0839 -0.256276 1.55502 0
M  V30 275 C 29.0139 -1.32102 1.92539 0
M  V30 276 C 29.9949 -1.50684 0.789194 0
M  V30 277 O 31.1799 -1.63449 1.04872 0
M  V30 278 C 28.3099 -2.67752 2.21192 0
M  V30 279 C 27.2639 -2.63878 3.36975 0
M  V30 280 C 26.5899 -4.03236 3.51147 0
M  V30 281 C 27.8899 -2.21682 4.72921 0
M  V30 282 H 29.5839 -1.01351 2.81724 0
M  V30 283 H 27.1299 -0.486105 1.35547 0
M  V30 284 H 29.0829 -3.42365 2.45691 0
M  V30 285 H 27.8069 -3.0012 1.28824 0
M  V30 286 H 26.4659 -1.91722 3.12471 0
M  V30 287 H 26.1139 -4.32854 2.56216 0
M  V30 288 H 25.8139 -4.01535 4.29003 0
M  V30 289 H 27.3379 -4.79563 3.77957 0
M  V30 290 H 28.7519 -2.86023 4.96854 0
M  V30 291 H 27.1489 -2.3111 5.53812 0
M  V30 292 H 28.2189 -1.16833 4.70615 0
M  V30 293 N 29.562 -1.4872 -0.521534 0
M  V30 294 C 30.492 -1.66771 -1.63431 0
M  V30 295 C 31.473 -0.516499 -1.62069 0
M  V30 296 O 32.658 -0.750013 -1.79132 0
M  V30 297 C 29.788 -1.71515 -3.01993 0
M  V30 298 C 28.742 -2.86222 -3.18216 0
M  V30 299 C 28.068 -2.76061 -4.57924 0
M  V30 300 C 29.368 -4.27419 -3.00184 0
M  V30 301 H 31.062 -2.59932 -1.48579 0
M  V30 302 H 28.608 -1.25089 -0.713358 0
M  V30 303 H 30.561 -1.82731 -3.7972 0
M  V30 304 H 29.285 -0.749393 -3.17886 0
M  V30 305 H 27.944 -2.74575 -2.42908 0
M  V30 306 H 27.592 -1.77437 -4.70665 0
M  V30 307 H 27.292 -3.53037 -4.69722 0
M  V30 308 H 28.816 -2.89256 -5.37739 0
M  V30 309 H 30.23 -4.39855 -3.67697 0
M  V30 310 H 28.627 -5.05458 -3.2347 0
M  V30 311 H 29.697 -4.43293 -1.96518 0
M  V30 312 N 31.0401 0.771051 -1.3745 0
M  V30 313 C 32.0031 1.86598 -1.33093 0
M  V30 314 C 33.0031 1.59076 -0.234845 0
M  V30 315 O 34.1931 1.67145 -0.490732 0
M  V30 316 C 31.3251 3.23747 -1.06773 0
M  V30 317 H 32.5181 1.91873 -2.30488 0
M  V30 318 H 30.0711 0.970876 -1.2249 0
M  V30 319 H 30.8061 3.24148 -0.099129 0
M  V30 320 H 30.5911 3.45115 -1.86112 0
M  V30 321 H 32.0811 4.03824 -1.06377 0
M  V30 322 N 32.5182 1.22032 0.997298 0
M  V30 323 C 33.9342 0.979326 1.26021 0
M  V30 324 C 34.1342 -0.32972 1.98784 0
M  V30 325 O 33.1902 -1.05345 2.29475 0
M  V30 326 C 34.5032 2.17509 2.07631 0
M  V30 327 C 36.0512 2.21817 2.2083 0
M  V30 328 C 36.5262 3.40933 3.05825 0
M  V30 329 N 38.0172 3.41067 3.13412 0
M  V30 330 C 38.7522 4.29885 3.79455 0
M  V30 331 N 38.2482 5.28914 4.47462 0
M  V30 332 N 40.0412 4.17673 3.76173 0
M  V30 333 H 32.1922 2.06202 0.509352 0
M  V30 334 H 34.4552 0.90334 0.287541 0
M  V30 335 H 34.1612 3.12415 1.61524 0
M  V30 336 H 34.0352 2.17206 3.08385 0
M  V30 337 H 36.4222 1.27462 2.66153 0
M  V30 338 H 36.5032 2.2616 1.1952 0
M  V30 339 H 36.1472 4.35586 2.61203 0
M  V30 340 H 36.0772 3.33829 4.07266 0
M  V30 341 H 38.5682 2.69406 2.65007 0
M  V30 342 H 38.8812 5.92973 4.95583 0
M  V30 343 H 37.2262 5.32831 4.46224 0
M  V30 344 H 40.4172 3.39564 3.22202 0
M  V30 345 H 40.5902 4.87098 4.27363 0
M  V30 346 N 33.9963 -1.19345 1.0293 0
M  V30 347 C 34.9593 -2.20793 0.615069 0
M  V30 348 C 35.9593 -1.57553 -0.321533 0
M  V30 349 O 37.1493 -1.73862 -0.108483 0
M  V30 350 C 34.2813 -3.40754 -0.0999222 0
M  V30 351 H 35.4743 -2.58955 1.51269 0
M  V30 352 H 33.0273 -1.3303 0.820534 0
M  V30 353 H 33.7623 -3.0811 -1.01187 0
M  V30 354 H 33.5473 -3.87889 0.57309 0
M  V30 355 H 35.0373 -4.15898 -0.376645 0
M  V30 356 N 35.4744 -0.807222 -1.35358 0
M  V30 357 C 36.4064 -0.175717 -2.28525 0
M  V30 358 C 37.4194 0.625354 -1.5031 0
M  V30 359 O 38.6084 0.457611 -1.72535 0
M  V30 360 C 35.7084 0.773471 -3.29956 0
M  V30 361 C 34.8814 0.0186296 -4.37396 0
M  V30 362 C 33.9404 0.886395 -5.18681 0
M  V30 363 O 32.9664 0.337106 -5.68201 0
M  V30 364 N 34.1684 2.20839 -5.36852 0
M  V30 365 H 36.9334 -0.976091 -2.83359 0
M  V30 366 H 34.4944 -0.662737 -1.47714 0
M  V30 367 H 36.4864 1.35824 -3.81227 0
M  V30 368 H 35.0564 1.47465 -2.75632 0
M  V30 369 H 34.2764 -0.747349 -3.87051 0
M  V30 370 H 35.5644 -0.501577 -5.06322 0
M  V30 371 H 34.9624 2.67858 -4.98265 0
M  V30 372 H 33.5194 2.74237 -5.91301 0
M  V30 373 N 36.9525 1.47285 -0.560781 0
M  V30 374 C 37.8825 2.32857 0.173105 0
M  V30 375 C 38.8635 1.44009 0.905281 0
M  V30 376 O 40.0485 1.7286 0.885046 0
M  V30 377 C 37.1785 3.25861 1.20133 0
M  V30 378 C 36.1325 4.23978 0.585388 0
M  V30 379 C 35.4585 5.06332 1.7185 0
M  V30 380 C 36.7585 5.20242 -0.463178 0
M  V30 381 H 38.4525 2.94466 -0.541307 0
M  V30 382 H 35.9985 1.41601 -0.261764 0
M  V30 383 H 37.9515 3.84569 1.72293 0
M  V30 384 H 36.6755 2.62315 1.94573 0
M  V30 385 H 35.3345 3.66501 0.085054 0
M  V30 386 H 34.9825 4.39186 2.45203 0
M  V30 387 H 34.6825 5.72762 1.31213 0
M  V30 388 H 36.2065 5.67899 2.24329 0
M  V30 389 H 37.6205 5.73293 -0.027502 0
M  V30 390 H 36.0175 5.94896 -0.788627 0
M  V30 391 H 37.0875 4.65504 -1.35773 0
M  V30 392 N 38.4306 0.297415 1.54768 0
M  V30 393 C 39.7076 -0.365847 1.92148 0
M  V30 394 C 40.0876 -1.71975 1.22424 0
M  V30 395 O 39.4356 -2.25666 0.358739 0
M  V30 396 C 39.6456 -0.484056 3.45627 0
M  V30 397 C 40.9936 -0.756594 4.17805 0
M  V30 398 O 42.0176 -0.568007 3.51642 0
M  V30 399 O 40.8766 -1.11863 5.34929 0
M  V30 400 H 37.9706 -0.203919 0.801465 0
M  V30 401 H 40.5166 0.34521 1.66152 0
M  V30 402 H 39.2886 0.467865 3.88493 0
M  V30 403 H 38.9116 -1.24372 3.77647 0
M  V30 404 N 39.9087 -1.5758 0.0250728 0
M  V30 405 C 41.1337 -1.96337 -0.668317 0
M  V30 406 C 41.5587 -0.901314 -1.651 0
M  V30 407 O 40.9167 0.138187 -1.80773 0
M  V30 408 C 40.9647 -3.34191 -1.35457 0
M  V30 409 O 40.0687 -3.30269 -2.46974 0
M  V30 410 H 39.4097 -0.640281 -0.175887 0
M  V30 411 H 41.9397 -2.0442 0.0857224 0
M  V30 412 H 41.9497 -3.70331 -1.71228 0
M  V30 413 H 40.6247 -4.11036 -0.634218 0
M  V30 414 H 39.2017 -3.05841 -2.13344 0
M  V30 415 N 41.3868 0.248026 -1.55636 0
M  V30 416 C 42.6638 0.998988 -1.68165 0
M  V30 417 C 43.0438 2.03409 -0.564621 0
M  V30 418 O 42.3918 2.24378 0.432076 0
M  V30 419 C 42.6018 1.63334 -3.0842 0
M  V30 420 C 43.9498 2.13562 -3.66983 0
M  V30 421 O 44.9738 1.73277 -3.11213 0
M  V30 422 O 43.8328 2.87526 -4.64749 0
M  V30 423 H 40.9268 0.464933 -0.683935 0
M  V30 424 H 43.4728 0.241902 -1.67967 0
M  V30 425 H 42.2448 0.884583 -3.8117 0
M  V30 426 H 41.8678 2.45666 -3.12624 0
M  V30 427 N 42.8649 1.48995 0.513639 0
M  V30 428 C 44.1129 1.57531 1.26604 0
M  V30 429 C 44.4339 0.258236 1.93283 0
M  V30 430 O 43.7039 -0.721502 1.8213 0
M  V30 431 H 42.2839 0.580387 0.470276 0
M  V30 432 H 44.9459 1.85552 0.596373 0
M  V30 433 H 44.0419 2.36486 2.03669 0
M  V30 434 N 44.343 -0.763751 1.37857 0
M  V30 435 C 45.571 -1.55293 1.36718 0
M  V30 436 C 45.986 -1.88745 -0.0455434 0
M  V30 437 O 45.343 -1.52039 -1.00947 0
M  V30 438 C 45.394 -2.85831 2.2132 0
M  V30 439 O 45.115 -2.5381 3.57089 0
M  V30 440 C 46.616 -3.80023 2.28249 0
M  V30 441 H 43.836 -0.480841 0.468009 0
M  V30 442 H 46.38 -0.946009 1.81303 0
M  V30 443 H 44.535 -3.42926 1.80223 0
M  V30 444 H 44.949 -3.37459 4.01524 0
M  V30 445 H 46.423 -4.68599 2.91752 0
M  V30 446 H 46.9 -4.1973 1.2932 0
M  V30 447 H 47.506 -3.28855 2.69693 0
M  V30 448 N 45.8211 -1.22559 -0.990812 0
M  V30 449 C 47.0701 -1.04553 -1.72486 0
M  V30 450 C 47.3831 0.419349 -1.91052 0
M  V30 451 O 48.5891 0.719121 -2.61803 0
M  V30 452 C 47.0451 -1.82231 -3.10355 0
M  V30 453 C 46.6531 -3.32981 -2.99713 0
M  V30 454 C 48.3971 -1.7268 -3.87791 0
M  V30 455 C 46.3041 -4.03091 -4.32748 0
M  V30 456 H 45.2341 -0.387614 -0.646739 0
M  V30 457 H 47.8851 -1.46429 -1.10593 0
M  V30 458 H 46.2671 -1.33155 -3.72942 0
M  V30 459 H 47.4411 -3.89466 -2.46278 0
M  V30 460 H 45.7561 -3.43231 -2.35758 0
M  V30 461 H 48.3531 -2.22381 -4.86262 0
M  V30 462 H 48.6961 -0.687607 -4.10582 0
M  V30 463 H 49.2291 -2.1931 -3.31885 0
M  V30 464 H 45.9681 -5.07273 -4.15156 0
M  V30 465 H 45.4881 -3.51394 -4.86089 0
M  V30 466 H 47.1671 -4.08804 -5.01486 0
M  V30 467 N 47.2992 1.18797 -1.03562 0
M  V30 468 C 48.5272 1.92599 -0.755869 0
M  V30 469 C 48.9422 1.75886 0.686271 0
M  V30 470 O 48.2992 1.08517 1.46732 0
M  V30 471 C 48.3502 3.44159 -1.10619 0
M  V30 472 O 48.0712 3.60341 -2.4917 0
M  V30 473 C 49.5722 4.3507 -0.850214 0
M  V30 474 H 46.7922 0.611587 -0.276048 0
M  V30 475 H 49.3362 1.50742 -1.38192 0
M  V30 476 H 47.4912 3.83823 -0.525194 0
M  V30 477 H 47.9052 4.54128 -2.62427 0
M  V30 478 H 49.3792 5.39989 -1.14523 0
M  V30 479 H 49.8562 4.38673 0.215176 0
M  V30 480 H 50.4622 4.01097 -1.41426 0
M  V30 481 N 48.7773 0.814389 1.34928 0
M  V30 482 C 50.0263 0.394871 1.97797 0
M  V30 483 C 50.3393 -1.04555 1.65311 0
M  V30 484 O 51.5453 -1.56856 2.21604 0
M  V30 485 C 50.0013 0.655103 3.53888 0
M  V30 486 C 49.6093 2.10858 3.95276 0
M  V30 487 C 51.3533 0.301329 4.23429 0
M  V30 488 C 49.2603 2.31415 5.44244 0
M  V30 489 H 48.1903 0.143913 0.740139 0
M  V30 490 H 50.8413 0.999544 1.53888 0
M  V30 491 H 49.2233 -0.0196253 3.95995 0
M  V30 492 H 50.3973 2.82176 3.64298 0
M  V30 493 H 48.7123 2.42297 3.38646 0
M  V30 494 H 51.3093 0.432869 5.32945 0
M  V30 495 H 51.6523 -0.75331 4.09428 0
M  V30 496 H 52.1853 0.930288 3.86769 0
M  V30 497 H 48.9243 3.35353 5.63222 0
M  V30 498 H 48.4443 1.6463 5.76764 0
M  V30 499 H 50.1233 2.13352 6.10811 0
M  V30 500 N 50.2554 -1.46986 0.568584 0
M  V30 501 C 51.1654 -2.33942 -0.17555 0
M  V30 502 C 52.1814 -1.48891 -0.90041 0
M  V30 503 O 53.3574 -1.81794 -0.86676 0
M  V30 504 C 50.4224 -3.25811 -1.18524 0
M  V30 505 C 49.4834 -4.26757 -0.466582 0
M  V30 506 C 48.7164 -5.14236 -1.42817 0
M  V30 507 O 48.9394 -5.04379 -2.66379 0
M  V30 508 O 47.8734 -5.94412 -0.946453 0
M  V30 509 H 51.6994 -2.98896 0.538036 0
M  V30 510 H 49.2844 -1.4573 0.329097 0
M  V30 511 H 51.1664 -3.82527 -1.76779 0
M  V30 512 H 49.8414 -2.63471 -1.88055 0
M  V30 513 H 48.7484 -3.73769 0.157451 0
M  V30 514 H 50.0814 -4.91843 0.187485 0
M  V30 515 N 51.7335 -0.305618 -1.54608 0
M  V30 516 C 52.6435 0.57778 -2.27374 0
M  V30 517 C 53.6595 1.14451 -1.31061 0
M  V30 518 O 54.8355 1.16831 -1.6405 0
M  V30 519 C 51.9005 1.73123 -3.00382 0
M  V30 520 C 50.9615 1.19812 -4.12242 0
M  V30 521 C 50.1945 2.2966 -4.81759 0
M  V30 522 O 50.4175 3.49651 -4.50666 0
M  V30 523 O 49.3515 1.96091 -5.69062 0
M  V30 524 H 53.1775 -0.012624 -3.03697 0
M  V30 525 H 50.7625 -0.0719184 -1.49227 0
M  V30 526 H 52.6445 2.40315 -3.4616 0
M  V30 527 H 51.3195 2.30815 -2.26949 0
M  V30 528 H 50.2265 0.491798 -3.70853 0
M  V30 529 H 51.5595 0.666566 -4.87666 0
M  V30 530 N 53.2116 1.57565 -0.0334293 0
M  V30 531 C 54.1436 2.0739 0.975811 0
M  V30 532 C 55.1566 0.998166 1.2861 0
M  V30 533 O 56.3456 1.27426 1.25 0
M  V30 534 C 53.4456 2.4871 2.30209 0
M  V30 535 C 52.6186 3.79413 2.17634 0
M  V30 536 C 51.6776 4.07237 3.33233 0
M  V30 537 O 50.7036 4.77425 3.09927 0
M  V30 538 N 51.9056 3.5775 4.5716 0
M  V30 539 H 54.6706 2.94598 0.55066 0
M  V30 540 H 52.2316 1.61173 0.15323 0
M  V30 541 H 54.2236 2.64413 3.06378 0
M  V30 542 H 52.7936 1.66845 2.64351 0
M  V30 543 H 52.0136 3.73465 1.26165 0
M  V30 544 H 53.3016 4.65038 2.0644 0
M  V30 545 H 52.6996 3.00976 4.78989 0
M  V30 546 H 51.2566 3.78724 5.30482 0
M  V30 547 N 54.6897 -0.239769 1.55765 0
M  V30 548 C 55.9387 -0.964754 1.77131 0
M  V30 549 C 56.2517 -1.86213 0.59868 0
M  V30 550 O 57.4577 -2.6244 0.695522 0
M  V30 551 C 55.9137 -1.76552 3.1362 0
M  V30 552 C 55.5217 -0.915185 4.38553 0
M  V30 553 C 57.2657 -2.48281 3.44321 0
M  V30 554 C 55.1727 -1.71225 5.66071 0
M  V30 555 H 54.1027 -0.363953 0.660344 0
M  V30 556 H 56.7537 -0.219181 1.82186 0
M  V30 557 H 55.1357 -2.55331 3.02691 0
M  V30 558 H 56.3097 -0.169217 4.60489 0
M  V30 559 H 54.6247 -0.310889 4.15238 0
M  V30 560 H 57.2217 -3.08382 4.36812 0
M  V30 561 H 57.5647 -3.20256 2.65973 0
M  V30 562 H 58.0977 -1.76507 3.56497 0
M  V30 563 H 54.8367 -1.03612 6.4726 0
M  V30 564 H 54.3567 -2.43331 5.48224 0
M  V30 565 H 56.0357 -2.27758 6.05587 0
M  V30 566 N 56.1678 -1.49265 -0.50573 0
M  V30 567 C 57.4138 -1.58748 -1.26202 0
M  V30 568 C 57.7468 -0.271227 -1.92297 0
M  V30 569 O 57.0218 0.724831 -1.80489 0
M  V30 570 C 57.3048 -2.74332 -2.33268 0
M  V30 571 C 57.1578 -4.15737 -1.71705 0
M  V30 572 C 58.4768 -2.85576 -3.34865 0
M  V30 573 H 55.5958 -0.577826 -0.457478 0
M  V30 574 H 58.2378 -1.81532 -0.560897 0
M  V30 575 H 56.3878 -2.55036 -2.93068 0
M  V30 576 H 58.0598 -4.46537 -1.15769 0
M  V30 577 H 56.3028 -4.21605 -1.02135 0
M  V30 578 H 56.9738 -4.92477 -2.49341 0
M  V30 579 H 59.4498 -3.03127 -2.8505 0
M  V30 580 H 58.3258 -3.68135 -4.07146 0
M  V30 581 H 58.5868 -1.94732 -3.96903 0
M  V30 582 N 57.6459 0.756429 -1.3826 0
M  V30 583 C 58.5759 1.88374 -1.37976 0
M  V30 584 C 59.5569 1.68311 -0.246082 0
M  V30 585 O 60.7419 1.88944 -0.44874 0
M  V30 586 C 57.8719 3.25864 -1.20125 0
M  V30 587 C 56.8259 3.60523 -2.30666 0
M  V30 588 C 56.1519 4.9672 -1.97923 0
M  V30 589 C 57.4519 3.65692 -3.72916 0
M  V30 590 H 59.1459 1.88869 -2.32312 0
M  V30 591 H 56.6919 0.907272 -1.11824 0
M  V30 592 H 58.6449 4.0438 -1.18552 0
M  V30 593 H 57.3689 3.25841 -0.222498 0
M  V30 594 H 56.0279 2.84324 -2.3142 0
M  V30 595 H 55.6759 4.93253 -0.985393 0
M  V30 596 H 55.3759 5.20878 -2.71955 0
M  V30 597 H 56.8999 5.77618 -1.97964 0
M  V30 598 H 58.3139 4.34328 -3.74208 0
M  V30 599 H 56.7109 4.01358 -4.4613 0
M  V30 600 H 57.7809 2.65987 -4.05436 0
M  V30 601 N 59.124 1.23083 0.984299 0
M  V30 602 C 60.37 1.06214 1.72761 0
M  V30 603 C 60.703 -0.400584 1.90024 0
M  V30 604 O 59.978 -1.29672 1.44967 0
M  V30 605 C 60.261 1.78375 3.12817 0
M  V30 606 C 60.114 3.32296 3.03149 0
M  V30 607 C 61.433 1.54309 4.12161 0
M  V30 608 H 58.552 0.387251 0.627061 0
M  V30 609 H 61.194 1.51536 1.14616 0
M  V30 610 H 59.344 1.39848 3.62457 0
M  V30 611 H 61.016 3.8032 2.61064 0
M  V30 612 H 59.259 3.6153 2.39747 0
M  V30 613 H 59.93 3.77972 4.02295 0
M  V30 614 H 62.406 1.87791 3.71314 0
M  V30 615 H 61.282 2.07281 5.08258 0
M  V30 616 H 61.543 0.477572 4.39513 0
M  V30 617 N 60.6021 -1.18246 1.0419 0
M  V30 618 C 61.5321 -2.24127 0.654914 0
M  V30 619 C 62.5131 -1.66617 -0.342451 0
M  V30 620 O 63.6981 -1.92924 -0.222277 0
M  V30 621 C 60.8281 -3.47295 0.0183757 0
M  V30 622 C 59.7821 -4.17563 0.939414 0
M  V30 623 C 59.1081 -5.34438 0.167286 0
M  V30 624 C 60.4081 -4.70917 2.25908 0
M  V30 625 H 62.1021 -2.56753 1.54007 0
M  V30 626 H 59.6481 -1.23414 0.74195 0
M  V30 627 H 61.6011 -4.20572 -0.264082 0
M  V30 628 H 60.3251 -3.13907 -0.901664 0
M  V30 629 H 58.9841 -3.46186 1.20628 0
M  V30 630 H 58.6321 -4.97298 -0.7552 0
M  V30 631 H 58.3321 -5.82388 0.780901 0
M  V30 632 H 59.8561 -6.10504 -0.108125 0
M  V30 633 H 61.2701 -5.35882 2.03724 0
M  V30 634 H 59.6671 -5.29406 2.82577 0
M  V30 635 H 60.7371 -3.88272 2.9047 0
M  V30 636 N 62.0802 -0.821533 -1.34494 0
M  V30 637 C 63.0272 -0.240397 -2.29545 0
M  V30 638 C 63.9972 0.634031 -1.53523 0
M  V30 639 O 65.1822 0.575966 -1.81899 0
M  V30 640 C 62.3222 0.592869 -3.39969 0
M  V30 641 C 61.4352 -0.30365 -4.30932 0
M  V30 642 C 60.5702 0.539049 -5.28458 0
M  V30 643 C 59.6092 -0.356942 -6.11058 0
M  V30 644 N 58.7462 0.446603 -7.00678 0
M  V30 645 H 63.5862 -1.05632 -2.7865 0
M  V30 646 H 61.1232 -0.532413 -1.37127 0
M  V30 647 H 63.0812 1.09129 -4.02675 0
M  V30 648 H 61.7112 1.37392 -2.92102 0
M  V30 649 H 60.7632 -0.920276 -3.691 0
M  V30 650 H 62.0752 -0.992661 -4.88823 0
M  V30 651 H 61.2292 1.102 -5.96608 0
M  V30 652 H 59.9682 1.26157 -4.71101 0
M  V30 653 H 58.9732 -0.932047 -5.41842 0
M  V30 654 H 60.1982 -1.07755 -6.70497 0
M  V30 655 H 58.1442 1.15282 -6.45791 0
M  V30 656 H 58.0612 -0.184048 -7.55776 0
M  V30 657 H 59.3292 0.992352 -7.73158 0
M  V30 658 N 63.5583 1.46682 -0.576371 0
M  V30 659 C 64.5213 2.28707 0.150239 0
M  V30 660 C 65.5213 1.38035 0.824794 0
M  V30 661 O 66.7113 1.60476 0.677719 0
M  V30 662 C 63.8433 3.18248 1.22192 0
M  V30 663 H 65.0363 2.94423 -0.570521 0
M  V30 664 H 62.5893 1.52688 -0.334078 0
M  V30 665 H 63.3243 2.57265 1.97447 0
M  V30 666 H 63.1093 3.85 0.742812 0
M  V30 667 H 64.5993 3.80001 1.73172 0
M  V30 668 N 65.0364 0.313813 1.54444 0
M  V30 669 C 65.9834 -0.55655 2.23989 0
M  V30 670 C 66.9534 -1.11943 1.22711 0
M  V30 671 O 68.1384 -1.16158 1.51367 0
M  V30 672 C 65.2784 -1.71635 2.99392 0
M  V30 673 C 64.3914 -1.18364 4.15468 0
M  V30 674 C 63.5264 -2.30834 4.78424 0
M  V30 675 C 62.5654 -1.74762 5.86622 0
M  V30 676 N 61.7024 -2.80855 6.43479 0
M  V30 677 H 66.5424 0.0430893 2.97969 0
M  V30 678 H 64.0794 0.0330359 1.47063 0
M  V30 679 H 66.0374 -2.39868 3.41349 0
M  V30 680 H 64.6674 -2.28742 2.27765 0
M  V30 681 H 63.7194 -0.393163 3.78363 0
M  V30 682 H 65.0314 -0.733262 4.93381 0
M  V30 683 H 64.1854 -3.0699 5.23299 0
M  V30 684 H 62.9244 -2.79204 3.99871 0
M  V30 685 H 61.9294 -0.970995 5.41158 0
M  V30 686 H 63.1544 -1.2728 6.67066 0
M  V30 687 H 61.1004 -3.28535 5.67804 0
M  V30 688 H 61.0174 -2.40351 7.16776 0
M  V30 689 H 62.2854 -3.5687 6.93011 0
M  V30 690 N 66.5145 -1.57545 0.0417849 0
M  V30 691 C 67.7605 -1.92601 -0.635021 0
M  V30 692 C 68.0935 -0.919627 -1.71045 0
M  V30 693 O 67.3685 0.0557892 -1.9442 0
M  V30 694 C 67.6515 -3.38085 -1.23979 0
M  V30 695 C 67.5045 -4.49467 -0.173057 0
M  V30 696 C 68.8235 -3.83776 -2.15416 0
M  V30 697 H 65.9425 -0.700397 -0.229374 0
M  V30 698 H 68.5845 -1.89728 0.101633 0
M  V30 699 H 66.7345 -3.40664 -1.86762 0
M  V30 700 H 68.4065 -4.59018 0.458312 0
M  V30 701 H 66.6495 -4.30909 0.499996 0
M  V30 702 H 67.3205 -5.48323 -0.636054 0
M  V30 703 H 69.7965 -3.83013 -1.62605 0
M  V30 704 H 68.6725 -4.8624 -2.54679 0
M  V30 705 H 68.9335 -3.19998 -3.05047 0
M  V30 706 N 67.9926 0.231505 -1.5589 0
M  V30 707 C 68.9246 1.31006 -1.8807 0
M  V30 708 C 69.9376 1.43539 -0.768145 0
M  V30 709 O 71.1266 1.44614 -1.04638 0
M  V30 710 C 68.2266 2.68688 -2.06543 0
M  V30 711 C 67.3996 2.78228 -3.37502 0
M  V30 712 C 66.4586 3.96857 -3.4553 0
M  V30 713 O 65.4846 3.85662 -4.18633 0
M  V30 714 N 66.6866 5.1072 -2.75944 0
M  V30 715 H 69.4516 1.03731 -2.81176 0
M  V30 716 H 67.0126 0.421573 -1.56315 0
M  V30 717 H 69.0046 3.46412 -2.09239 0
M  V30 718 H 67.5746 2.88605 -1.20109 0
M  V30 719 H 66.7946 1.87059 -3.46991 0
M  V30 720 H 68.0826 2.81564 -4.23791 0
M  V30 721 H 67.4806 5.2271 -2.16311 0
M  V30 722 H 66.0376 5.86523 -2.84314 0
M  V30 723 N 69.4707 1.49531 0.497807 0
M  V30 724 C 70.7107 1.60799 1.26187 0
M  V30 725 C 71.0747 0.289627 1.89803 0
M  V30 726 O 72.2757 0.277512 2.67364 0
M  V30 727 C 70.5467 2.73729 2.29798 0
M  V30 728 S 72.1057 3.04968 3.155 0
M  V30 729 H 68.9237 0.567145 0.428798 0
M  V30 730 H 71.5257 1.87204 0.563477 0
M  V30 731 H 70.2297 3.68036 1.81597 0
M  V30 732 H 69.7607 2.49328 3.04301 0
M  V30 733 H 71.7757 2.46735 4.30507 0
M  V30 734 N 70.9488 -0.749086 1.3866 0
M  V30 735 C 71.8588 -1.89358 1.38494 0
M  V30 736 C 72.8748 -1.71708 0.281476 0
M  V30 737 O 74.0508 -1.94554 0.520643 0
M  V30 738 C 71.1158 -3.24782 1.21316 0
M  V30 739 C 70.1768 -3.54926 2.41508 0
M  V30 740 C 69.4098 -4.83888 2.2514 0
M  V30 741 O 69.6328 -5.56592 1.24746 0
M  V30 742 O 68.5668 -5.13612 3.13826 0
M  V30 743 H 72.3928 -1.92452 2.34938 0
M  V30 744 H 69.9778 -0.894981 1.19626 0
M  V30 745 H 71.8598 -4.05739 1.13814 0
M  V30 746 H 70.5348 -3.2249 0.279592 0
M  V30 747 H 69.4418 -2.74112 2.54585 0
M  V30 748 H 70.7748 -3.61983 3.3351 0
M  V30 749 N 72.4269 -1.23603 -0.977757 0
M  V30 750 C 73.3569 -1.04401 -2.0886 0
M  V30 751 C 74.3379 0.0399052 -1.70053 0
M  V30 752 O 75.5229 -0.125246 -1.93796 0
M  V30 753 C 72.6529 -0.637269 -3.41403 0
M  V30 754 C 71.6069 -1.66883 -3.94124 0
M  V30 755 C 70.9329 -1.11745 -5.22893 0
M  V30 756 C 72.2329 -3.06247 -4.23096 0
M  V30 757 H 73.9269 -1.97316 -2.25182 0
M  V30 758 H 71.4729 -0.950096 -1.08209 0
M  V30 759 H 73.4259 -0.48998 -4.18542 0
M  V30 760 H 72.1499 0.327557 -3.24953 0
M  V30 761 H 70.8089 -1.80416 -3.19133 0
M  V30 762 H 70.4569 -0.143527 -5.02795 0
M  V30 763 H 70.1569 -1.80672 -5.59134 0
M  V30 764 H 71.6809 -0.982067 -6.02651 0
M  V30 765 H 73.0949 -2.96001 -4.90975 0
M  V30 766 H 71.4919 -3.72436 -4.70544 0
M  V30 767 H 72.5619 -3.55041 -3.30263 0
M  V30 768 N 73.905 1.17692 -1.04816 0
M  V30 769 C 74.853 2.23632 -0.63966 0
M  V30 770 C 75.847 1.6601 0.337219 0
M  V30 771 O 77.053 1.78844 0.203693 0
M  V30 772 H 73.428 0.727949 -0.188665 0
M  V30 773 H 75.399 2.55387 -1.54337 0
M  V30 774 C 74.148 3.4769 -0.0264051 0
M  V30 775 H 73.471 3.92331 -0.769164 0
M  V30 776 H 74.911 4.23418 0.222098 0
M  V30 777 C 73.37 3.13807 1.22584 0
M  V30 778 O 73.9 3.28236 2.31569 0
M  V30 779 N 72.106 2.68065 1.12202 0
M  V30 780 H 71.653 2.56525 0.235133 0
M  V30 781 H 71.611 2.45767 1.96076 0
M  V30 782 N 75.3831 0.828654 1.34056 0
M  V30 783 C 76.6321 0.415828 1.97367 0
M  V30 784 C 76.9451 -1.02796 1.6641 0
M  V30 785 O 78.1511 -1.54497 2.23255 0
M  V30 786 C 76.6071 0.692601 3.53173 0
M  V30 787 C 76.2151 2.15038 3.93017 0
M  V30 788 C 77.9591 0.346222 4.23086 0
M  V30 789 C 75.8661 2.37174 5.41758 0
M  V30 790 H 74.7961 0.151755 0.738571 0
M  V30 791 H 77.4471 1.01581 1.52819 0
M  V30 792 H 75.8291 0.0223764 3.95994 0
M  V30 793 H 77.0031 2.86024 3.61285 0
M  V30 794 H 75.3181 2.45875 3.36057 0
M  V30 795 H 77.9151 0.48937 5.32456 0
M  V30 796 H 78.2581 -0.709842 4.10204 0
M  V30 797 H 78.7911 0.971258 3.85761 0
M  V30 798 H 75.5301 3.41308 5.59633 0
M  V30 799 H 75.0501 1.70738 5.74986 0
M  V30 800 H 76.7291 2.19818 6.08514 0
M  V30 801 N 76.8612 -1.46375 0.584142 0
M  V30 802 C 78.0892 -2.06761 0.0759296 0
M  V30 803 C 78.5042 -1.43266 -1.22965 0
M  V30 804 O 77.8612 -0.538458 -1.74376 0
M  V30 805 C 77.9122 -3.61375 -0.0950384 0
M  V30 806 O 77.6332 -4.22495 1.15887 0
M  V30 807 C 79.1342 -4.38693 -0.637434 0
M  V30 808 H 76.3542 -0.668479 0.0581075 0
M  V30 809 H 78.8982 -1.8798 0.805218 0
M  V30 810 H 77.0532 -3.79578 -0.774554 0
M  V30 811 H 77.4672 -5.15385 0.973598 0
M  V30 812 H 78.9412 -5.47464 -0.706237 0
M  V30 813 H 79.4182 -4.06836 -1.65472 0
M  V30 814 H 80.0242 -4.25299 0.00725967 0
M  V30 815 N 78.3393 -0.321999 -1.54275 0
M  V30 816 C 79.3023 0.531975 -2.22941 0
M  V30 817 C 80.3023 1.04478 -1.22234 0
M  V30 818 O 81.4923 0.937452 -1.46825 0
M  V30 819 C 78.6243 1.73874 -2.93224 0
M  V30 820 H 79.8173 -0.0682612 -2.99822 0
M  V30 821 H 77.3703 -0.0730644 -1.56129 0
M  V30 822 H 78.1053 2.37825 -2.20476 0
M  V30 823 H 77.8903 1.37847 -3.6707 0
M  V30 824 H 79.3803 2.34496 -3.45545 0
M  V30 825 N 79.8174 1.5752 -0.0501392 0
M  V30 826 C 80.7494 2.08413 0.95376 0
M  V30 827 C 81.7624 1.01175 1.27544 0
M  V30 828 O 82.9514 1.28744 1.23641 0
M  V30 829 C 80.0514 2.51138 2.27559 0
M  V30 830 C 79.2244 3.817 2.13598 0
M  V30 831 C 78.2834 4.10749 3.28895 0
M  V30 832 O 77.3094 4.80685 3.04845 0
M  V30 833 N 78.5114 3.62579 4.5334 0
M  V30 834 H 81.2764 2.95165 0.519383 0
M  V30 835 H 78.8374 1.61327 0.136127 0
M  V30 836 H 80.8294 2.67648 3.03557 0
M  V30 837 H 79.3994 1.6964 2.62567 0
M  V30 838 H 78.6194 3.74782 1.22197 0
M  V30 839 H 79.9074 4.67201 2.01496 0
M  V30 840 H 79.3054 3.06039 4.75769 0
M  V30 841 H 77.8624 3.84329 5.26436 0
M  V30 842 N 81.2955 -0.223234 1.56011 0
M  V30 843 C 82.2255 -1.27988 1.95298 0
M  V30 844 C 83.2065 -1.48976 0.820979 0
M  V30 845 O 84.3915 -1.61188 1.08315 0
M  V30 846 C 81.5215 -2.63 2.26822 0
M  V30 847 C 80.4755 -2.56671 3.42497 0
M  V30 848 C 79.8015 -3.95697 3.59622 0
M  V30 849 C 81.1015 -2.11601 4.77517 0
M  V30 850 H 82.7955 -0.953525 2.8381 0
M  V30 851 H 80.3415 -0.457244 1.36548 0
M  V30 852 H 82.2945 -3.37077 2.52898 0
M  V30 853 H 81.0185 -2.9732 1.35161 0
M  V30 854 H 79.6775 -1.85051 3.16467 0
M  V30 855 H 79.3255 -4.27322 2.6534 0
M  V30 856 H 79.0255 -3.92345 4.37424 0
M  V30 857 H 80.5495 -4.71438 3.88044 0
M  V30 858 H 81.9635 -2.7542 5.02809 0
M  V30 859 H 80.3605 -2.19311 5.5859 0
M  V30 860 H 81.4305 -1.06824 4.72987 0
M  V30 861 N 82.7736 -1.49793 -0.48987 0
M  V30 862 C 83.7056 -1.63413 -1.60713 0
M  V30 863 C 84.7186 -0.516329 -1.54395 0
M  V30 864 O 85.9076 -0.788812 -1.60125 0
M  V30 865 C 83.0076 -1.58516 -2.99543 0
M  V30 866 C 82.1806 -2.86016 -3.30928 0
M  V30 867 C 81.2396 -2.74018 -4.49222 0
M  V30 868 O 80.2656 -3.47964 -4.50455 0
M  V30 869 N 81.4676 -1.86309 -5.4979 0
M  V30 870 H 84.2326 -2.59777 -1.49452 0
M  V30 871 H 81.7936 -1.47022 -0.677955 0
M  V30 872 H 83.7856 -1.48128 -3.76617 0
M  V30 873 H 82.3556 -0.69965 -3.0467 0
M  V30 874 H 81.5756 -3.10672 -2.42645 0
M  V30 875 H 82.8636 -3.70521 -3.487 0
M  V30 876 H 82.2616 -1.2551 -5.51601 0
M  V30 877 H 80.8186 -1.81837 -6.25922 0
M  V30 878 N 84.2517 0.741722 -1.39055 0
M  V30 879 C 85.1617 1.88621 -1.39496 0
M  V30 880 C 86.1777 1.71557 -0.290578 0
M  V30 881 O 87.3537 1.94275 -0.530954 0
M  V30 882 C 84.4187 3.24134 -1.23037 0
M  V30 883 C 83.4797 3.5364 -2.43387 0
M  V30 884 C 82.7127 4.82687 -2.27703 0
M  V30 885 O 82.9357 5.55922 -1.27696 0
M  V30 886 O 81.8697 5.1194 -3.16545 0
M  V30 887 H 85.6957 1.91203 -2.35956 0
M  V30 888 H 83.2807 0.888625 -1.20099 0
M  V30 889 H 85.1627 4.0513 -1.15964 0
M  V30 890 H 83.8377 3.22337 -0.296691 0
M  V30 891 H 82.7447 2.72758 -2.56035 0
M  V30 892 H 84.0777 3.60209 -3.35425 0
M  V30 893 N 85.7298 1.2412 0.971189 0
M  V30 894 C 86.9778 1.07668 1.71032 0
M  V30 895 C 87.2988 -0.385797 1.91146 0
M  V30 896 O 86.5688 -1.27569 1.4867 0
M  V30 897 H 85.1488 0.395429 0.633755 0
M  V30 898 H 87.8108 1.55984 1.16855 0
M  V30 899 H 86.9068 1.57195 2.69622 0
M  V30 900 N 87.2079 -1.17134 1.05439 0
M  V30 901 C 88.1179 -2.24878 0.668365 0
M  V30 902 C 89.1339 -1.71186 -0.311687 0
M  V30 903 O 90.3099 -2.00738 -0.163161 0
M  V30 904 C 87.3749 -3.46662 0.051648 0
M  V30 905 C 86.4359 -4.15429 1.08246 0
M  V30 906 C 85.6689 -5.31399 0.495082 0
M  V30 907 O 85.8919 -5.66153 -0.694743 0
M  V30 908 O 84.8259 -5.89187 1.23056 0
M  V30 909 H 88.6519 -2.60189 1.56637 0
M  V30 910 H 86.2369 -1.24482 0.826104 0
M  V30 911 H 88.1189 -4.20394 -0.290966 0
M  V30 912 H 86.7939 -3.13142 -0.819971 0
M  V30 913 H 85.7009 -3.43704 1.47711 0
M  V30 914 H 87.0339 -4.52982 1.92532 0
M  V30 915 N 88.686 -0.835752 -1.33615 0
M  V30 916 C 89.934 -0.429109 -1.97492 0
M  V30 917 C 90.255 1.01433 -1.66543 0
M  V30 918 O 89.525 1.70611 -0.962744 0
M  V30 919 H 88.105 -0.155686 -0.730596 0
M  V30 920 H 90.767 -1.06802 -1.63031 0
M  V30 921 H 89.863 -0.55861 -3.0706 0
M  V30 922 N 90.1641 1.46063 -0.591896 0
M  V30 923 C 91.1121 2.32124 0.148739 0
M  V30 924 C 92.1061 1.45035 0.875286 0
M  V30 925 O 93.3121 1.61609 0.792632 0
M  V30 926 H 89.6871 0.749024 0.066832 0
M  V30 927 H 91.6581 2.92392 -0.595783 0
M  V30 928 C 90.4071 3.28373 1.1431 0
M  V30 929 H 89.7301 3.95371 0.59346 0
M  V30 930 H 91.1701 3.91352 1.63155 0
M  V30 931 C 89.6291 2.54393 2.20875 0
M  V30 932 O 90.1591 2.31373 3.28374 0
M  V30 933 N 88.3651 2.14797 1.95731 0
M  V30 934 H 87.9121 2.33719 1.08319 0
M  V30 935 H 87.8701 1.65619 2.67241 0
M  V30 936 N 91.6422 0.330177 1.54103 0
M  V30 937 C 92.8822 -0.270916 2.02597 0
M  V30 938 C 93.2462 -1.48826 1.21304 0
M  V30 939 O 94.4472 -2.16266 1.59633 0
M  V30 940 C 92.7182 -0.590328 3.52491 0
M  V30 941 S 94.2772 -1.17014 4.2291 0
M  V30 942 H 91.0952 -0.0815379 0.706309 0
M  V30 943 H 93.6972 0.464835 1.89893 0
M  V30 944 H 92.4012 0.303691 4.09275 0
M  V30 945 H 91.9322 -1.3561 3.69288 0
M  V30 946 H 93.9472 -2.45662 4.3112 0
M  V30 947 N 93.1203 -1.57491 0.0584922 0
M  V30 948 C 94.3673 -1.92978 -0.613648 0
M  V30 949 C 94.6953 -0.937461 -1.70417 0
M  V30 950 O 93.9503 0.049078 -1.95638 0
M  V30 951 C 94.2493 -3.3513 -1.24188 0
M  V30 952 C 93.9153 -4.50037 -0.278826 0
M  V30 953 C 92.5773 -4.81198 -0.0138447 0
M  V30 954 C 94.9293 -5.19807 0.380777 0
M  V30 955 C 92.2573 -5.79473 0.918052 0
M  V30 956 C 94.6093 -6.19079 1.30091 0
M  V30 957 C 93.2733 -6.48665 1.57449 0
M  V30 958 H 92.5433 -0.706157 -0.22455 0
M  V30 959 H 95.1903 -1.91082 0.126533 0
M  V30 960 H 93.4953 -3.33429 -2.05749 0
M  V30 961 H 95.1923 -3.59871 -1.769 0
M  V30 962 H 91.7823 -4.25726 -0.495539 0
M  V30 963 H 95.9663 -4.95939 0.189158 0
M  V30 964 H 91.2223 -6.00727 1.1374 0
M  V30 965 H 95.3963 -6.7225 1.81804 0
M  V30 966 H 93.0233 -7.24628 2.29822 0
M  V30 967 N 94.5984 0.214957 -1.56127 0
M  V30 968 C 96.0094 0.781386 -1.69562 0
M  V30 969 C 96.3604 1.84707 -0.66165 0
M  V30 970 O 95.4854 2.156 0.185927 0
M  V30 971 C 96.0804 1.42411 -3.07416 0
M  V30 972 C 94.6394 1.93786 -3.22683 0
M  V30 973 C 93.7864 0.800438 -2.65496 0
M  V30 974 H 96.7374 -0.00980633 -1.58697 0
M  V30 975 H 96.7584 2.29309 -3.0364 0
M  V30 976 H 96.2704 0.64826 -3.82648 0
M  V30 977 H 94.3714 2.74152 -2.52332 0
M  V30 978 H 94.4844 2.1133 -4.29973 0
M  V30 979 H 92.8484 1.2095 -2.2415 0
M  V30 980 H 93.6314 0.0371471 -3.4328 0
M  V30 981 N 96.0765 1.50051 0.48192 0
M  V30 982 C 96.9865 1.7089 1.60728 0
M  V30 983 C 98.0025 0.591788 1.63627 0
M  V30 984 O 99.1785 0.868817 1.81696 0
M  V30 985 C 96.2435 1.78855 2.97005 0
M  V30 986 C 95.3045 3.02537 3.04581 0
M  V30 987 C 94.5375 3.10112 4.34357 0
M  V30 988 O 94.7605 2.24765 5.24249 0
M  V30 989 O 93.6945 4.02747 4.47301 0
M  V30 990 H 97.5205 2.66264 1.46072 0
M  V30 991 H 95.1055 1.34018 0.660264 0
M  V30 992 H 96.9875 1.86336 3.77964 0
M  V30 993 H 95.6625 0.866628 3.11883 0
M  V30 994 H 94.5695 3.00563 2.22739 0
M  V30 995 H 95.9025 3.94272 2.94636 0
M  V30 996 N 97.5546 -0.734337 1.39446 0
M  V30 997 C 98.8006 -1.49505 1.37913 0
M  V30 998 C 99.1556 -1.92384 -0.0248416 0
M  V30 999 O 98.4486 -1.6395 -0.991506 0
M  V30 1000 C 98.6426 -2.74711 2.28623 0
M  V30 1001 C 98.4716 -2.44075 3.777 0
M  V30 1002 C 97.2416 -2.36338 4.46623 0
M  V30 1003 C 99.4396 -2.09574 4.69663 0
M  V30 1004 N 97.4216 -1.9818 5.81032 0
M  V30 1005 C 98.7926 -1.81865 5.92727 0
M  V30 1006 C 100.848 -1.96048 4.57678 0
M  V30 1007 C 99.5506 -1.41992 7.05146 0
M  V30 1008 C 101.577 -1.57579 5.7002 0
M  V30 1009 C 100.939 -1.30754 6.92158 0
M  V30 1010 H 97.0376 -0.545896 0.55993 0
M  V30 1011 H 99.6216 -0.853373 1.75002 0
M  V30 1012 H 97.7926 -3.36657 1.93692 0
M  V30 1013 H 99.5246 -3.40916 2.18078 0
M  V30 1014 H 96.2796 -2.53456 4.00071 0
M  V30 1015 H 96.7036 -1.81691 6.52163 0
M  V30 1016 H 101.346 -2.15455 3.63784 0
M  V30 1017 H 99.0636 -1.21327 7.9894 0
M  V30 1018 H 102.65 -1.47718 5.62735 0
M  V30 1019 H 101.53 -1.01432 7.77612 0
M  V30 1020 N 99.0327 -1.24633 -0.964593 0
M  V30 1021 C 100.31 -0.995809 -1.68354 0
M  V30 1022 C 100.69 0.480964 -2.05548 0
M  V30 1023 O 100.038 1.45599 -1.76105 0
M  V30 1024 C 100.248 -1.92177 -2.91323 0
M  V30 1025 C 101.596 -2.19446 -3.63495 0
M  V30 1026 O 102.62 -1.89855 -3.01386 0
M  V30 1027 O 101.479 -2.69714 -4.75307 0
M  V30 1028 H 98.5727 -0.376854 -0.736146 0
M  V30 1029 H 101.119 -1.35745 -1.0184 0
M  V30 1030 H 99.8907 -2.91938 -2.60553 0
M  V30 1031 H 99.5137 -1.56349 -3.65569 0
M  V30 1032 N 100.511 1.16574 -1.06058 0
M  V30 1033 C 101.759 1.86677 -0.77434 0
M  V30 1034 C 102.08 1.81959 0.701147 0
M  V30 1035 O 101.35 1.2515 1.50713 0
M  V30 1036 H 99.9298 0.691134 -0.283449 0
M  V30 1037 H 102.592 1.41378 -1.34158 0
M  V30 1038 H 101.688 2.92181 -1.09711 0
M  V30 1039 N 101.989 0.842826 1.3317 0
M  V30 1040 C 102.919 0.294028 2.31641 0
M  V30 1041 C 103.9 -0.600401 1.59151 0
M  V30 1042 O 105.085 -0.523124 1.87022 0
M  V30 1043 C 102.215 -0.528416 3.43257 0
M  V30 1044 C 101.169 0.27056 4.27144 0
M  V30 1045 C 100.495 -0.675881 5.30411 0
M  V30 1046 C 101.795 1.48981 5.00602 0
M  V30 1047 H 103.489 1.11681 2.77791 0
M  V30 1048 H 101.035 0.538478 1.33553 0
M  V30 1049 H 102.988 -0.922674 4.11175 0
M  V30 1050 H 101.712 -1.38445 2.95805 0
M  V30 1051 H 100.371 0.646427 3.60856 0
M  V30 1052 H 100.019 -1.52842 4.79216 0
M  V30 1053 H 99.7189 -0.145374 5.8742 0
M  V30 1054 H 101.243 -1.06757 6.01195 0
M  V30 1055 H 102.657 1.16849 5.61266 0
M  V30 1056 H 101.054 1.95739 5.6728 0
M  V30 1057 H 102.124 2.25746 4.29147 0
M  V30 1058 N 103.467 -1.45747 0.599634 0
M  V30 1059 C 104.716 -2.01502 0.0893511 0
M  V30 1060 C 105.029 -1.4748 -1.28488 0
M  V30 1061 O 106.235 -1.95161 -1.88745 0
M  V30 1062 C 104.691 -3.59735 0.109082 0
M  V30 1063 C 104.299 -4.22754 1.48267 0
M  V30 1064 C 106.043 -4.23085 -0.346374 0
M  V30 1065 C 103.95 -5.73115 1.45921 0
M  V30 1066 H 102.88 -0.753417 0.0296347 0
M  V30 1067 H 105.531 -1.67303 0.753788 0
M  V30 1068 H 103.913 -3.91087 -0.621854 0
M  V30 1069 H 105.087 -4.02987 2.23468 0
M  V30 1070 H 103.402 -3.71567 1.87955 0
M  V30 1071 H 105.999 -5.33327 -0.38298 0
M  V30 1072 H 106.342 -3.93201 -1.36743 0
M  V30 1073 H 106.875 -3.9642 0.331038 0
M  V30 1074 H 103.614 -6.07685 2.45762 0
M  V30 1075 H 103.134 -5.95097 0.749665 0
M  V30 1076 H 104.813 -6.3616 1.17941 0
M  V30 1077 N 104.945 -0.338344 -1.53925 0
M  V30 1078 C 106.185 0.260168 -2.02737 0
M  V30 1079 C 106.549 1.48181 -1.22092 0
M  V30 1080 O 107.75 2.15416 -1.60777 0
M  V30 1081 C 106.021 0.571627 -3.52799 0
M  V30 1082 S 107.58 1.14769 -4.23525 0
M  V30 1083 H 104.398 0.077791 -0.706732 0
M  V30 1084 H 107 -0.474899 -1.89644 0
M  V30 1085 H 105.704 -0.325392 -4.09108 0
M  V30 1086 H 105.235 1.3365 -3.70002 0
M  V30 1087 H 107.25 2.43372 -4.32417 0
M  V30 1088 N 106.423 1.57458 -0.0668435 0
M  V30 1089 C 107.669 1.94401 0.598316 0
M  V30 1090 C 108.024 0.946335 1.67518 0
M  V30 1091 O 107.317 -0.0321442 1.91573 0
M  V30 1092 C 107.511 3.35784 1.22409 0
M  V30 1093 C 107.34 4.49212 0.209367 0
M  V30 1094 C 106.11 5.04887 -0.204218 0
M  V30 1095 C 108.308 5.11335 -0.551431 0
M  V30 1096 N 106.29 6.01854 -1.21016 0
M  V30 1097 C 107.661 6.03754 -1.41 0
M  V30 1098 C 109.716 4.94173 -0.608038 0
M  V30 1099 C 108.419 6.80854 -2.32013 0
M  V30 1100 C 110.445 5.71912 -1.50566 0
M  V30 1101 C 109.807 6.63976 -2.35191 0
M  V30 1102 H 105.906 0.758538 0.190114 0
M  V30 1103 H 108.49 1.94175 -0.142832 0
M  V30 1104 H 106.661 3.36757 1.93518 0
M  V30 1105 H 108.393 3.59976 1.84931 0
M  V30 1106 H 105.148 4.73266 0.177908 0
M  V30 1107 H 105.572 6.55035 -1.71049 0
M  V30 1108 H 110.214 4.22788 0.032022 0
M  V30 1109 H 107.932 7.5152 -2.97057 0
M  V30 1110 H 111.518 5.60656 -1.55423 0
M  V30 1111 H 110.398 7.2308 -3.03522 0
M  V30 1112 N 107.901 -0.206675 1.56239 0
M  V30 1113 C 109.312 -0.772383 1.69974 0
M  V30 1114 C 109.663 -1.84353 0.671436 0
M  V30 1115 O 108.788 -2.15695 -0.174491 0
M  V30 1116 C 109.383 -1.40779 3.08167 0
M  V30 1117 C 107.942 -1.92072 3.23706 0
M  V30 1118 C 107.089 -0.786347 2.65917 0
M  V30 1119 H 110.04 0.0182223 1.5869 0
M  V30 1120 H 110.061 -2.27696 3.04852 0
M  V30 1121 H 109.573 -0.627958 3.82986 0
M  V30 1122 H 107.674 -2.7281 2.53782 0
M  V30 1123 H 107.787 -2.09046 4.31087 0
M  V30 1124 H 106.151 -1.1976 2.24788 0
M  V30 1125 H 106.934 -0.0189416 3.43295 0
M  V30 1126 N 109.379 -1.50304 -0.473955 0
M  V30 1127 C 110.795 -1.37667 -0.807466 0
M  V30 1128 C 110.995 -0.430555 -1.96846 0
M  V30 1129 O 110.051 0.127874 -2.52176 0
M  V30 1130 C 111.364 -2.78974 -1.12223 0
M  V30 1131 C 112.912 -2.87868 -1.22885 0
M  V30 1132 C 113.387 -4.30003 -1.57676 0
M  V30 1133 N 114.878 -4.3294 -1.64673 0
M  V30 1134 C 115.613 -5.3991 -1.93091 0
M  V30 1135 N 115.109 -6.57092 -2.1955 0
M  V30 1136 N 116.902 -5.27351 -1.94569 0
M  V30 1137 H 109.053 -2.10394 0.291212 0
M  V30 1138 H 111.316 -0.945575 0.0677609 0
M  V30 1139 H 111.022 -3.50031 -0.342229 0
M  V30 1140 H 110.896 -3.16038 -2.05913 0
M  V30 1141 H 113.283 -2.17032 -1.99953 0
M  V30 1142 H 113.364 -2.54352 -0.271814 0
M  V30 1143 H 113.008 -5.01375 -0.81149 0
M  V30 1144 H 112.938 -4.61004 -2.54525 0
M  V30 1145 H 115.429 -3.48441 -1.46277 0
M  V30 1146 H 115.742 -7.34425 -2.405 0
M  V30 1147 H 114.087 -6.60272 -2.16948 0
M  V30 1148 H 117.278 -4.34801 -1.73394 0
M  V30 1149 H 117.451 -6.10805 -2.16381 0
M  V30 1150 N 110.857 0.726932 -1.39834 0
M  V30 1151 C 112.105 1.4837 -1.37225 0
M  V30 1152 C 112.426 1.94979 0.0284857 0
M  V30 1153 O 111.696 1.69555 0.981213 0
M  V30 1154 H 110.276 0.55043 -0.505011 0
M  V30 1155 H 112.938 0.862468 -1.74778 0
M  V30 1156 H 112.034 2.36198 -2.04003 0
M  V30 1157 N 112.336 1.25143 0.95797 0
M  V30 1158 C 113.564 1.12424 1.73691 0
M  V30 1159 C 113.979 -0.322304 1.86029 0
M  V30 1160 O 113.336 -1.22186 1.35561 0
M  V30 1161 C 113.387 1.76933 3.15241 0
M  V30 1162 O 113.108 3.15932 3.03511 0
M  V30 1163 C 114.609 1.6995 4.09429 0
M  V30 1164 H 111.829 0.3923 0.544373 0
M  V30 1165 H 114.373 1.6544 1.20207 0
M  V30 1166 H 112.528 1.27895 3.6568 0
M  V30 1167 H 112.942 3.47598 3.9278 0
M  V30 1168 H 114.416 2.19753 5.06372 0
M  V30 1169 H 114.893 0.662619 4.34173 0
M  V30 1170 H 115.499 2.18461 3.64904 0
M  V30 1171 N 113.814 -1.1601 1.06675 0
M  V30 1172 C 115.06 -1.86909 0.786945 0
M  V30 1173 C 115.393 -1.81717 -0.685018 0
M  V30 1174 O 114.668 -1.23551 -1.50218 0
M  V30 1175 C 114.951 -3.36313 1.28707 0
M  V30 1176 C 114.804 -3.50175 2.82308 0
M  V30 1177 C 116.123 -4.3084 0.898071 0
M  V30 1178 H 113.242 -0.678677 0.287343 0
M  V30 1179 H 115.884 -1.36336 1.32334 0
M  V30 1180 H 114.034 -3.79513 0.830768 0
M  V30 1181 H 115.706 -3.15886 3.36175 0
M  V30 1182 H 113.949 -2.91959 3.20847 0
M  V30 1183 H 114.62 -4.55116 3.12368 0
M  V30 1184 H 117.096 -3.95561 1.29114 0
M  V30 1185 H 115.972 -5.33876 1.27543 0
M  V30 1186 H 116.233 -4.41662 -0.196651 0
M  V30 1187 N 115.292 -0.849877 -1.32721 0
M  V30 1188 C 116.54 -0.450032 -1.97026 0
M  V30 1189 C 116.861 0.996604 -1.67609 0
M  V30 1190 O 116.131 1.6958 -0.980786 0
M  V30 1191 H 114.711 -0.163426 -0.728904 0
M  V30 1192 H 117.373 -1.08526 -1.6189 0
M  V30 1193 H 116.469 -0.591146 -3.0645 0
M  V30 1194 N 116.77 1.45427 -0.607355 0
M  V30 1195 C 117.717 2.3053 0.111625 0
M  V30 1196 C 118.687 1.4209 0.860216 0
M  V30 1197 O 119.872 1.71019 0.845998 0
M  V30 1198 C 117.012 3.26992 1.10319 0
M  V30 1199 C 116.125 4.30535 0.355493 0
M  V30 1200 C 115.26 5.14105 1.33676 0
M  V30 1201 C 114.299 6.09376 0.576862 0
M  V30 1202 N 113.436 6.85727 1.5074 0
M  V30 1203 H 118.276 2.91477 -0.620093 0
M  V30 1204 H 115.813 1.43631 -0.317594 0
M  V30 1205 H 117.771 3.81385 1.6912 0
M  V30 1206 H 116.401 2.67799 1.80232 0
M  V30 1207 H 115.453 3.78805 -0.348023 0
M  V30 1208 H 116.765 4.98235 -0.237423 0
M  V30 1209 H 115.919 5.72897 1.99684 0
M  V30 1210 H 114.658 4.46423 1.9636 0
M  V30 1211 H 113.663 5.49715 -0.0968519 0
M  V30 1212 H 114.888 6.79085 -0.0449341 0
M  V30 1213 H 112.834 6.20735 2.12189 0
M  V30 1214 H 112.751 7.49778 0.967913 0
M  V30 1215 H 114.019 7.4906 2.15706 0
M  V30 1216 N 118.248 0.346503 1.53744 0
M  V30 1217 C 119.497 -0.250122 2.00143 0
M  V30 1218 C 119.81 -1.51418 1.23822 0
M  V30 1219 O 121.016 -2.18823 1.60713 0
M  V30 1220 C 119.472 -0.496252 3.56462 0
M  V30 1221 C 119.08 0.752077 4.41642 0
M  V30 1222 C 120.824 -1.05157 4.11269 0
M  V30 1223 C 118.731 0.476583 5.89477 0
M  V30 1224 H 117.661 -0.0972409 0.747703 0
M  V30 1225 H 120.312 0.46229 1.77581 0
M  V30 1226 H 118.694 -1.26944 3.75102 0
M  V30 1227 H 119.868 1.5266 4.34778 0
M  V30 1228 H 118.183 1.22925 3.97842 0
M  V30 1229 H 120.78 -1.27269 5.19333 0
M  V30 1230 H 121.123 -2.00799 3.64672 0
M  V30 1231 H 121.656 -0.339019 3.96353 0
M  V30 1232 H 118.395 1.4028 6.40314 0
M  V30 1233 H 117.915 -0.259794 5.99237 0
M  V30 1234 H 119.594 0.0949315 6.4693 0
M  V30 1235 N 119.726 -1.57421 0.075193 0
M  V30 1236 C 120.951 -1.98364 -0.605515 0
M  V30 1237 C 121.376 -0.953383 -1.62149 0
M  V30 1238 O 120.734 0.0806053 -1.81121 0
M  V30 1239 C 120.782 -3.38332 -1.24756 0
M  V30 1240 O 119.886 -3.37959 -2.36342 0
M  V30 1241 H 119.227 -0.645553 -0.155428 0
M  V30 1242 H 121.757 -2.04044 0.150714 0
M  V30 1243 H 121.767 -3.75591 -1.5936 0
M  V30 1244 H 120.442 -4.12846 -0.503129 0
M  V30 1245 H 119.019 -3.12474 -2.03506 0
M  V30 1246 N 121.204 0.198386 -1.56346 0
M  V30 1247 C 122.167 1.22952 -1.93431 0
M  V30 1248 C 123.167 1.38611 -0.815092 0
M  V30 1249 O 124.357 1.36479 -1.08255 0
M  V30 1250 C 121.489 2.59946 -2.20546 0
M  V30 1251 H 122.682 0.912626 -2.85677 0
M  V30 1252 H 120.235 0.43977 -1.49986 0
M  V30 1253 H 120.97 2.96696 -1.30927 0
M  V30 1254 H 120.755 2.49953 -3.02102 0
M  V30 1255 H 122.245 3.3431 -2.50253 0
M  V30 1256 N 122.682 1.50554 0.465978 0
M  V30 1257 C 123.928 1.62038 1.21949 0
M  V30 1258 C 124.261 0.322116 1.9151 0
M  V30 1259 O 123.536 -0.676723 1.82348 0
M  V30 1260 C 123.819 2.80421 2.25912 0
M  V30 1261 C 123.672 4.20144 1.60622 0
M  V30 1262 C 124.991 2.94354 3.27176 0
M  V30 1263 H 122.11 0.589752 0.441998 0
M  V30 1264 H 124.752 1.82956 0.51257 0
M  V30 1265 H 122.902 2.62717 2.86203 0
M  V30 1266 H 124.574 4.49449 1.03889 0
M  V30 1267 H 122.817 4.24165 0.909211 0
M  V30 1268 H 123.488 4.98914 2.36196 0
M  V30 1269 H 125.964 3.10578 2.76913 0
M  V30 1270 H 124.84 3.788 3.97242 0
M  V30 1271 H 125.101 2.05186 3.916 0
M  V30 1272 N 124.16 -0.719506 1.40217 0
M  V30 1273 C 125.571 -1.29848 1.34151 0
M  V30 1274 C 125.922 -1.96196 0.0131349 0
M  V30 1275 O 125.047 -1.973 -0.88892 0
M  V30 1276 C 125.642 -2.36118 2.42968 0
M  V30 1277 C 124.201 -2.8965 2.40374 0
M  V30 1278 C 123.348 -1.63393 2.24049 0
M  V30 1279 H 126.299 -0.51591 1.5008 0
M  V30 1280 H 126.32 -3.16871 2.10649 0
M  V30 1281 H 125.832 -1.878 3.39636 0
M  V30 1282 H 123.933 -3.42208 1.47392 0
M  V30 1283 H 124.046 -3.4171 3.35814 0
M  V30 1284 H 122.41 -1.88312 1.71495 0
M  V30 1285 H 123.193 -1.17104 3.2271 0
M  V30 1286 N 125.638 -1.25649 -0.95132 0
M  V30 1287 C 126.878 -1.11802 -1.71113 0
M  V30 1288 C 127.242 0.334758 -1.89059 0
M  V30 1289 O 128.443 0.595121 -2.62129 0
M  V30 1290 C 126.714 -1.85512 -3.05483 0
M  V30 1291 S 128.273 -1.87597 -3.96677 0
M  V30 1292 H 125.091 -0.399552 -0.588115 0
M  V30 1293 H 127.693 -1.59222 -1.1344 0
M  V30 1294 H 126.397 -2.90299 -2.90094 0
M  V30 1295 H 125.928 -1.38493 -3.68216 0
M  V30 1296 H 127.943 -0.955389 -4.86916 0
M  V30 1297 N 127.117 1.15442 -1.07289 0
M  V30 1298 C 128.528 1.67803 -0.818475 0
M  V30 1299 C 128.879 1.8489 0.656507 0
M  V30 1300 O 128.004 1.55176 1.50829 0
M  V30 1301 C 128.599 3.04805 -1.47917 0
M  V30 1302 C 127.158 3.54245 -1.27229 0
M  V30 1303 C 126.305 2.29986 -1.54925 0
M  V30 1304 H 129.256 0.996646 -1.23502 0
M  V30 1305 H 129.277 3.69702 -0.90005 0
M  V30 1306 H 128.789 2.92336 -2.55267 0
M  V30 1307 H 126.89 3.71956 -0.21899 0
M  V30 1308 H 127.003 4.35723 -1.99203 0
M  V30 1309 H 125.367 2.35496 -0.970242 0
M  V30 1310 H 126.15 2.20105 -2.63455 0
M  V30 1311 N 128.595 0.856903 1.32268 0
M  V30 1312 C 130.006 0.515711 1.79436 0
M  V30 1313 C 130.357 -0.966586 1.70738 0
M  V30 1314 O 129.482 -1.75409 1.26731 0
M  V30 1315 C 130.077 0.929335 3.25805 0
M  V30 1316 C 128.636 0.640006 3.70919 0
M  V30 1317 C 127.783 1.12784 2.53328 0
M  V30 1318 H 130.734 1.04389 1.19535 0
M  V30 1319 H 130.755 0.246633 3.797 0
M  V30 1320 H 130.267 2.00821 3.32103 0
M  V30 1321 H 128.368 -0.428051 3.70133 0
M  V30 1322 H 128.481 1.20788 4.63624 0
M  V30 1323 H 126.845 0.548033 2.48734 0
M  V30 1324 H 127.628 2.21387 2.62379 0
M  V30 1325 N 130.073 -1.45103 0.615059 0
M  V30 1326 C 131.303 -2.06254 0.119596 0
M  V30 1327 C 131.711 -1.4591 -1.20445 0
M  V30 1328 O 131.054 -0.570384 -1.7462 0
M  V30 1329 C 131.116 -3.59396 -0.0865591 0
M  V30 1330 C 130.78 -4.42116 1.15683 0
M  V30 1331 C 131.777 -4.7662 2.07676 0
M  V30 1332 C 129.462 -4.82749 1.38775 0
M  V30 1333 C 131.456 -5.50622 3.21082 0
M  V30 1334 C 129.143 -5.56504 2.52481 0
M  V30 1335 C 130.141 -5.90358 3.43463 0
M  V30 1336 O 129.829 -6.62615 4.55189 0
M  V30 1337 H 129.561 -0.672423 0.0694512 0
M  V30 1338 H 132.115 -1.87219 0.844885 0
M  V30 1339 H 130.345 -3.76859 -0.866823 0
M  V30 1340 H 132.034 -4.02365 -0.534555 0
M  V30 1341 H 132.8 -4.4578 1.91063 0
M  V30 1342 H 128.679 -4.55829 0.688545 0
M  V30 1343 H 132.223 -5.76965 3.92119 0
M  V30 1344 H 128.12 -5.86759 2.69043 0
M  V30 1345 H 128.888 -6.81071 4.53966 0
M  V30 1346 N 131.551 -0.354651 -1.53558 0
M  V30 1347 C 132.8 0.239504 -2.00273 0
M  V30 1348 C 133.113 1.50759 -1.24623 0
M  V30 1349 O 134.319 2.17968 -1.61871 0
M  V30 1350 C 132.775 0.477341 -3.5672 0
M  V30 1351 C 132.383 -0.775488 -4.41237 0
M  V30 1352 C 134.127 1.02975 -4.11821 0
M  V30 1353 C 132.034 -0.507838 -5.89216 0
M  V30 1354 H 130.964 0.0932743 -0.748208 0
M  V30 1355 H 133.615 -0.471701 -1.77334 0
M  V30 1356 H 131.997 1.24953 -3.7577 0
M  V30 1357 H 133.171 -1.54963 -4.33962 0
M  V30 1358 H 131.486 -1.25033 -3.97185 0
M  V30 1359 H 134.083 1.24513 -5.2 0
M  V30 1360 H 134.426 1.98862 -3.65731 0
M  V30 1361 H 134.959 0.317994 -3.96527 0
M  V30 1362 H 131.698 -1.43674 -6.39561 0
M  V30 1363 H 131.218 0.228011 -5.99366 0
M  V30 1364 H 132.897 -0.129238 -6.46871 0
M  V30 1365 N 133.029 1.57378 -0.0835403 0
M  V30 1366 C 134.259 1.97975 0.590713 0
M  V30 1367 C 134.667 0.961083 1.62972 0
M  V30 1368 O 134.01 -0.0590879 1.83605 0
M  V30 1369 C 134.072 3.34915 1.3066 0
M  V30 1370 C 133.736 4.55069 0.419698 0
M  V30 1371 C 134.733 5.18868 -0.32749 0
M  V30 1372 C 132.418 5.0114 0.341137 0
M  V30 1373 C 134.412 6.27098 -1.14134 0
M  V30 1374 C 132.099 6.0924 -0.476374 0
M  V30 1375 C 133.097 6.72083 -1.21627 0
M  V30 1376 O 132.785 7.781 -2.02028 0
M  V30 1377 H 132.517 0.655818 0.163947 0
M  V30 1378 H 135.071 2.04807 -0.156021 0
M  V30 1379 H 133.301 3.24733 2.09966 0
M  V30 1380 H 134.99 3.60037 1.87424 0
M  V30 1381 H 135.756 4.84211 -0.276459 0
M  V30 1382 H 131.635 4.51996 0.90668 0
M  V30 1383 H 135.179 6.7608 -1.71935 0
M  V30 1384 H 131.076 6.43329 -0.528927 0
M  V30 1385 H 131.844 7.95034 -1.94586 0
M  V30 1386 N 134.507 -0.190092 1.56449 0
M  V30 1387 C 135.784 -0.935886 1.71757 0
M  V30 1388 C 136.164 -2.01173 0.639726 0
M  V30 1389 O 135.512 -2.25827 -0.348502 0
M  V30 1390 C 135.722 -1.51775 3.1427 0
M  V30 1391 C 137.07 -1.99794 3.74656 0
M  V30 1392 O 138.094 -1.61607 3.1743 0
M  V30 1393 O 136.953 -2.70079 4.751 0
M  V30 1394 H 134.047 -0.439229 0.700719 0
M  V30 1395 H 136.593 -0.179395 1.68749 0
M  V30 1396 H 135.365 -0.742505 3.84191 0
M  V30 1397 H 134.988 -2.33894 3.21527 0
M  V30 1398 N 135.985 -1.50799 -0.457987 0
M  V30 1399 C 137.232 -1.62442 -1.20908 0
M  V30 1400 C 137.56 -0.330865 -1.91665 0
M  V30 1401 O 136.815 0.68401 -1.83357 0
M  V30 1402 C 137.114 -2.76358 -2.2663 0
M  V30 1403 C 136.78 -4.16378 -1.73033 0
M  V30 1404 C 135.442 -4.54473 -1.58138 0
M  V30 1405 C 137.794 -5.03836 -1.33413 0
M  V30 1406 C 135.122 -5.77754 -1.02065 0
M  V30 1407 C 137.474 -6.27676 -0.78778 0
M  V30 1408 C 136.138 -6.64562 -0.625561 0
M  V30 1409 H 135.408 -0.594417 -0.442435 0
M  V30 1410 H 138.055 -1.84772 -0.503136 0
M  V30 1411 H 136.36 -2.48167 -3.03184 0
M  V30 1412 H 138.057 -2.82568 -2.84528 0
M  V30 1413 H 134.647 -3.86331 -1.85598 0
M  V30 1414 H 138.831 -4.75026 -1.4375 0
M  V30 1415 H 134.087 -6.04997 -0.882547 0
M  V30 1416 H 138.261 -6.94797 -0.472177 0
M  V30 1417 H 135.888 -7.59965 -0.188926 0
M  V30 1418 N 137.463 0.71206 -1.40597 0
M  V30 1419 C 138.411 1.84746 -1.41321 0
M  V30 1420 C 139.405 1.66842 -0.293268 0
M  V30 1421 O 140.611 1.73904 -0.464481 0
M  V30 1422 H 136.986 0.608522 -0.441819 0
M  V30 1423 H 138.957 1.81252 -2.37045 0
M  V30 1424 C 137.706 3.22638 -1.29614 0
M  V30 1425 H 137.029 3.37023 -2.15071 0
M  V30 1426 H 138.469 4.02209 -1.3418 0
M  V30 1427 C 136.928 3.36899 -0.00673121 0
M  V30 1428 O 137.458 3.90186 0.954859 0
M  V30 1429 N 135.664 2.9053 0.0639327 0
M  V30 1430 H 135.211 2.47353 -0.719311 0
M  V30 1431 H 135.169 3.0045 0.926118 0
M  V30 1432 N 138.941 1.26152 0.944643 0
M  V30 1433 C 139.891 1.04081 2.02857 0
M  V30 1434 C 140.875 -0.0256555 1.6088 0
M  V30 1435 O 142.067 0.190884 1.75968 0
M  V30 1436 C 139.196 0.672118 3.36656 0
M  V30 1437 C 138.282 1.77586 3.85128 0
M  V30 1438 N 138.673 3.01272 4.06287 0
M  V30 1439 C 136.971 1.65867 4.1401 0
M  V30 1440 C 137.672 3.72983 4.46384 0
M  V30 1441 N 136.648 3.00653 4.52889 0
M  V30 1442 H 140.45 1.97968 2.17223 0
M  V30 1443 H 137.964 1.16618 1.13022 0
M  V30 1444 H 139.961 0.495166 4.13949 0
M  V30 1445 H 138.621 -0.259307 3.23663 0
M  V30 1446 H 139.632 3.37213 3.93075 0
M  V30 1447 H 136.309 0.796907 4.09824 0
M  V30 1448 H 137.699 4.792 4.70975 0
M  V30 1449 N 140.419 -1.14872 1.07899 0
M  V30 1450 C 141.366 -2.19791 0.704319 0
M  V30 1451 C 142.336 -1.63238 -0.306987 0
M  V30 1452 O 143.521 -1.8983 -0.192171 0
M  V30 1453 C 140.661 -3.44911 0.114244 0
M  V30 1454 C 139.774 -4.15637 1.1777 0
M  V30 1455 C 138.909 -5.28324 0.552037 0
M  V30 1456 C 137.948 -5.90875 1.59789 0
M  V30 1457 N 137.085 -6.95022 0.994404 0
M  V30 1458 H 141.925 -2.5119 1.60336 0
M  V30 1459 H 139.462 -1.23356 0.801352 0
M  V30 1460 H 141.42 -4.16477 -0.245544 0
M  V30 1461 H 140.05 -3.14011 -0.74813 0
M  V30 1462 H 139.102 -3.42512 1.65499 0
M  V30 1463 H 140.414 -4.5823 1.97046 0
M  V30 1464 H 139.568 -6.06538 0.1402 0
M  V30 1465 H 138.307 -4.86939 -0.272431 0
M  V30 1466 H 137.312 -5.11369 2.01945 0
M  V30 1467 H 138.537 -6.34337 2.42474 0
M  V30 1468 H 136.483 -6.55722 0.190939 0
M  V30 1469 H 136.4 -7.36073 1.72432 0
M  V30 1470 H 137.668 -7.77123 0.608253 0
M  V30 1471 N 141.898 -0.863906 -1.31812 0
M  V30 1472 C 143.146 -0.470904 -1.96537 0
M  V30 1473 C 143.467 0.978771 -1.68657 0
M  V30 1474 O 142.737 1.6853 -0.998717 0
M  V30 1475 H 141.317 -0.171148 -0.72713 0
M  V30 1476 H 143.979 -1.10236 -1.60729 0
M  V30 1477 H 143.075 -0.623616 -3.05806 0
M  V30 1478 N 143.376 1.44774 -0.622745 0
M  V30 1479 C 144.622 2.0242 -0.124083 0
M  V30 1480 C 144.955 1.4881 1.24777 0
M  V30 1481 O 144.23 0.668799 1.8264 0
M  V30 1482 C 144.513 3.59957 -0.101619 0
M  V30 1483 C 144.366 4.23867 -1.50521 0
M  V30 1484 C 145.685 4.36284 0.578272 0
M  V30 1485 H 142.804 0.735528 -0.0465645 0
M  V30 1486 H 145.446 1.72447 -0.797617 0
M  V30 1487 H 143.596 3.85623 0.471934 0
M  V30 1488 H 145.268 4.09336 -2.12701 0
M  V30 1489 H 143.511 3.81684 -2.06154 0
M  V30 1490 H 144.182 5.32843 -1.4416 0
M  V30 1491 H 146.658 4.16001 0.0906057 0
M  V30 1492 H 145.534 5.46004 0.563149 0
M  V30 1493 H 145.795 4.10271 1.64713 0
M  V30 1494 N 144.854 0.36279 1.53368 0
M  V30 1495 C 145.817 -0.472679 2.24273 0
M  V30 1496 C 146.817 -1.012 1.24961 0
M  V30 1497 O 148.007 -0.898194 1.49259 0
M  V30 1498 C 145.139 -1.66039 2.97731 0
M  V30 1499 H 146.332 0.14773 2.99536 0
M  V30 1500 H 143.885 0.114434 1.55881 0
M  V30 1501 H 144.62 -2.31896 2.26704 0
M  V30 1502 H 144.405 -1.28066 3.70596 0
M  V30 1503 H 145.895 -2.25252 3.51641 0
M  V30 1504 N 146.332 -1.57332 0.0918853 0
M  V30 1505 C 147.579 -1.94236 -0.572577 0
M  V30 1506 C 147.907 -0.973398 -1.6839 0
M  V30 1507 O 147.162 0.00756912 -1.95699 0
M  V30 1508 C 147.461 -3.37689 -1.17051 0
M  V30 1509 C 147.127 -4.50527 -0.183304 0
M  V30 1510 C 145.789 -4.81119 0.0882276 0
M  V30 1511 C 148.141 -5.18883 0.49095 0
M  V30 1512 C 145.469 -5.77395 1.04076 0
M  V30 1513 C 147.821 -6.1618 1.43193 0
M  V30 1514 C 146.485 -6.45179 1.71173 0
M  V30 1515 H 145.755 -0.710762 -0.209521 0
M  V30 1516 H 148.402 -1.9077 0.167036 0
M  V30 1517 H 146.707 -3.37718 -1.9863 0
M  V30 1518 H 148.404 -3.63543 -1.69227 0
M  V30 1519 H 144.994 -4.26681 -0.405124 0
M  V30 1520 H 149.178 -4.95427 0.294312 0
M  V30 1521 H 144.434 -5.98179 1.26457 0
M  V30 1522 H 148.608 -6.68243 1.96023 0
M  V30 1523 H 146.235 -7.1959 2.4514 0
M  V30 1524 N 147.81 0.181792 -1.56548 0
M  V30 1525 C 149.226 0.53316 -1.50431 0
M  V30 1526 C 149.426 1.85184 -0.794297 0
M  V30 1527 O 148.482 2.50058 -0.350318 0
M  V30 1528 C 149.795 0.575597 -2.9514 0
M  V30 1529 C 151.343 0.663519 -3.05886 0
M  V30 1530 C 151.818 0.736946 -4.52032 0
M  V30 1531 N 153.309 0.800118 -4.56237 0
M  V30 1532 C 154.044 0.877327 -5.66649 0
M  V30 1533 N 153.54 0.916016 -6.86718 0
M  V30 1534 N 155.333 0.915542 -5.54594 0
M  V30 1535 H 147.484 -0.683025 -2.01118 0
M  V30 1536 H 149.747 -0.244988 -0.915797 0
M  V30 1537 H 149.453 -0.324482 -3.502 0
M  V30 1538 H 149.327 1.42572 -3.49218 0
M  V30 1539 H 151.714 1.55403 -2.50867 0
M  V30 1540 H 151.795 -0.21307 -2.54911 0
M  V30 1541 H 151.439 -0.149262 -5.07681 0
M  V30 1542 H 151.369 1.62953 -5.00753 0
M  V30 1543 H 153.86 0.778926 -3.69785 0
M  V30 1544 H 154.173 0.975813 -7.66614 0
M  V30 1545 H 152.518 0.884469 -6.89349 0
M  V30 1546 H 155.709 0.882245 -4.59711 0
M  V30 1547 H 155.882 0.972253 -6.40665 0
M  V30 1548 N 149.288 1.51039 0.449983 0
M  V30 1549 C 150.238 1.67824 1.54335 0
M  V30 1550 C 151.222 0.5324 1.51836 0
M  V30 1551 O 152.414 0.787762 1.58503 0
M  V30 1552 C 149.543 1.7951 2.92628 0
M  V30 1553 C 148.629 2.99838 2.9993 0
M  V30 1554 N 149.02 4.23207 2.77001 0
M  V30 1555 C 147.318 2.98832 3.31082 0
M  V30 1556 C 148.019 5.04361 2.89818 0
M  V30 1557 N 146.995 4.38746 3.2094 0
M  V30 1558 H 150.797 2.60884 1.35339 0
M  V30 1559 H 148.311 1.48513 0.657085 0
M  V30 1560 H 150.308 1.89642 3.7127 0
M  V30 1561 H 148.968 0.876227 3.12654 0
M  V30 1562 H 149.979 4.5236 2.52172 0
M  V30 1563 H 146.656 2.16527 3.56963 0
M  V30 1564 H 148.046 6.12528 2.76151 0
M  V30 1565 N 150.766 -0.704594 1.40972 0
M  V30 1566 C 152.006 -1.47691 1.41304 0
M  V30 1567 C 152.37 -1.91992 0.0178582 0
M  V30 1568 O 153.571 -2.68599 -0.103996 0
M  V30 1569 C 151.842 -2.66254 2.38419 0
M  V30 1570 S 153.401 -3.55516 2.57204 0
M  V30 1571 H 150.219 -0.504808 0.500689 0
M  V30 1572 H 152.821 -0.822962 1.77335 0
M  V30 1573 H 151.525 -2.31897 3.38603 0
M  V30 1574 H 151.056 -3.3655 2.03711 0
M  V30 1575 H 153.071 -4.61115 1.83268 0
M  V30 1576 N 152.244 -1.26651 -0.937939 0
M  V30 1577 C 153.192 -1.08308 -2.05845 0
M  V30 1578 C 154.186 -0.0090757 -1.69398 0
M  V30 1579 O 155.392 -0.166007 -1.79233 0
M  V30 1580 H 151.767 -0.333416 -0.674046 0
M  V30 1581 H 153.738 -2.03261 -2.18467 0
M  V30 1582 C 152.487 -0.736229 -3.39816 0
M  V30 1583 H 151.81 -1.55453 -3.6834 0
M  V30 1584 H 153.25 -0.64769 -4.19024 0
M  V30 1585 C 151.709 0.558824 -3.32233 0
M  V30 1586 O 152.239 1.59621 -3.68624 0
M  V30 1587 N 150.445 0.550657 -2.85335 0
M  V30 1588 H 149.992 -0.293943 -2.55917 0
M  V30 1589 H 149.95 1.41726 -2.80644 0
M  V30 1590 N 153.722 1.14298 -1.08507 0
M  V30 1591 C 155.133 1.66926 -0.836227 0
M  V30 1592 C 155.484 1.85576 0.63686 0
M  V30 1593 O 154.609 1.56767 1.49175 0
M  V30 1594 C 155.204 3.03219 -1.51142 0
M  V30 1595 C 153.763 3.52876 -1.30979 0
M  V30 1596 C 152.91 2.2833 -1.57356 0
M  V30 1597 H 155.861 0.983491 -1.24552 0
M  V30 1598 H 155.882 3.68726 -0.939211 0
M  V30 1599 H 155.394 2.89612 -2.58353 0
M  V30 1600 H 153.495 3.71703 -0.258429 0
M  V30 1601 H 153.608 4.33586 -2.03814 0
M  V30 1602 H 151.972 2.34454 -0.995164 0
M  V30 1603 H 152.755 2.17298 -2.65775 0
M  V30 1604 N 155.201 0.870884 1.31352 0
M  V30 1605 C 156.149 0.316445 2.30437 0
M  V30 1606 C 157.143 -0.568965 1.59559 0
M  V30 1607 O 158.349 -0.454964 1.74155 0
M  V30 1608 H 154.724 0.0836521 0.747333 0
M  V30 1609 H 156.695 1.16606 2.74673 0
M  V30 1610 C 155.444 -0.46635 3.44558 0
M  V30 1611 H 154.767 0.205687 3.99271 0
M  V30 1612 H 156.207 -0.819614 4.16003 0
M  V30 1613 C 154.666 -1.65797 2.9328 0
M  V30 1614 O 155.196 -2.75728 2.92125 0
M  V30 1615 N 153.402 -1.49041 2.4947 0
M  V30 1616 H 152.949 -0.59612 2.50608 0
M  V30 1617 H 152.907 -2.28911 2.15516 0
M  V30 1618 N 156.679 -1.44442 0.630414 0
M  V30 1619 C 157.927 -2.01653 0.134351 0
M  V30 1620 C 158.248 -1.49836 -1.24796 0
M  V30 1621 O 157.518 -0.701684 -1.82902 0
M  V30 1622 H 156.098 -0.74554 0.0466769 0
M  V30 1623 H 158.76 -1.76952 0.816955 0
M  V30 1624 H 157.856 -3.11935 0.101498 0
M  V30 1625 N 158.157 -0.370918 -1.53173 0
M  V30 1626 C 159.385 0.217704 -2.05751 0
M  V30 1627 C 159.8 1.42018 -1.24404 0
M  V30 1628 O 159.157 1.80245 -0.286033 0
M  V30 1629 C 159.208 0.605954 -3.56385 0
M  V30 1630 O 158.929 -0.548734 -4.3465 0
M  V30 1631 C 160.43 1.2524 -4.25241 0
M  V30 1632 H 157.65 0.0371659 -0.66997 0
M  V30 1633 H 160.194 -0.530832 -1.9749 0
M  V30 1634 H 158.349 1.3044 -3.6478 0
M  V30 1635 H 158.763 -0.23376 -5.23979 0
M  V30 1636 H 160.237 1.47458 -5.3194 0
M  V30 1637 H 160.714 2.2143 -3.79296 0
M  V30 1638 H 161.32 0.595233 -4.21114 0
M  V30 1639 N 159.635 1.57281 -0.100228 0
M  V30 1640 C 160.881 1.95626 0.556946 0
M  V30 1641 C 161.236 0.981655 1.65473 0
M  V30 1642 O 160.529 0.00849847 1.91598 0
M  V30 1643 C 160.723 3.38305 1.15259 0
M  V30 1644 C 160.552 4.49555 0.114035 0
M  V30 1645 C 159.322 5.0434 -0.311266 0
M  V30 1646 C 161.52 5.10051 -0.659768 0
M  V30 1647 N 159.502 5.99152 -1.33755 0
M  V30 1648 C 160.873 6.00628 -1.53774 0
M  V30 1649 C 162.928 4.92772 -0.712723 0
M  V30 1650 C 161.631 6.7578 -2.46403 0
M  V30 1651 C 163.657 5.6859 -1.62663 0
M  V30 1652 C 163.019 6.58838 -2.49222 0
M  V30 1653 H 159.118 0.7624 0.173982 0
M  V30 1654 H 161.702 1.93829 -0.183988 0
M  V30 1655 H 159.873 3.40786 1.86332 0
M  V30 1656 H 161.605 3.63817 1.77254 0
M  V30 1657 H 158.36 4.73537 0.0774812 0
M  V30 1658 H 158.784 6.5126 -1.84905 0
M  V30 1659 H 163.426 4.22761 -0.0576648 0
M  V30 1660 H 161.144 7.4505 -3.12931 0
M  V30 1661 H 164.73 5.57233 -1.67281 0
M  V30 1662 H 163.61 7.16479 -3.18791 0
M  V30 1663 N 161.113 -0.173488 1.56642 0
M  V30 1664 C 162.39 -0.917617 1.7274 0
M  V30 1665 C 162.77 -2.00484 0.661027 0
M  V30 1666 O 162.118 -2.26184 -0.32453 0
M  V30 1667 C 162.328 -1.48433 3.15862 0
M  V30 1668 C 163.676 -1.95809 3.76754 0
M  V30 1669 O 164.7 -1.58231 3.19126 0
M  V30 1670 O 163.559 -2.65024 4.77938 0
M  V30 1671 H 160.653 -0.431772 0.705338 0
M  V30 1672 H 163.199 -0.161487 1.6893 0
M  V30 1673 H 161.971 -0.701715 3.84957 0
M  V30 1674 H 161.594 -2.30471 3.23989 0
M  V30 1675 N 162.591 -1.51276 -0.441967 0
M  V30 1676 C 163.838 -1.63715 -1.19179 0
M  V30 1677 C 164.166 -0.351175 -1.91303 0
M  V30 1678 O 163.421 0.664524 -1.84072 0
M  V30 1679 C 163.72 -2.78746 -2.23686 0
M  V30 1680 C 163.386 -4.18189 -1.68607 0
M  V30 1681 C 162.048 -4.56125 -1.53308 0
M  V30 1682 C 164.4 -5.05222 -1.28062 0
M  V30 1683 C 161.728 -5.78804 -0.959317 0
M  V30 1684 C 164.08 -6.28476 -0.721162 0
M  V30 1685 C 162.744 -6.65188 -0.55504 0
M  V30 1686 H 162.014 -0.599076 -0.436106 0
M  V30 1687 H 164.661 -1.85296 -0.48351 0
M  V30 1688 H 162.966 -2.51369 -3.00535 0
M  V30 1689 H 164.663 -2.8557 -2.81515 0
M  V30 1690 H 161.253 -3.88277 -1.8149 0
M  V30 1691 H 165.437 -4.76524 -1.38704 0
M  V30 1692 H 160.693 -6.05899 -0.81833 0
M  V30 1693 H 164.867 -6.95259 -0.398458 0
M  V30 1694 H 162.494 -7.60123 -0.108311 0
M  V30 1695 N 164.069 0.697108 -1.41344 0
M  V30 1696 C 165.002 1.82134 -1.37486 0
M  V30 1697 C 165.98 1.60784 -0.242351 0
M  V30 1698 O 167.164 1.83553 -0.429012 0
M  V30 1699 C 164.291 3.18788 -1.14421 0
M  V30 1700 C 163.337 3.58932 -2.3037 0
M  V30 1701 S 164.17 3.63916 -3.92843 0
M  V30 1702 C 165.326 5.03298 -3.72078 0
M  V30 1703 H 165.559 1.85129 -2.32625 0
M  V30 1704 H 163.092 0.865671 -1.2785 0
M  V30 1705 H 165.05 3.97677 -1.018 0
M  V30 1706 H 163.711 3.13404 -0.20905 0
M  V30 1707 H 162.904 4.58202 -2.09922 0
M  V30 1708 H 162.506 2.87347 -2.39391 0
M  V30 1709 H 164.798 5.90753 -3.31688 0
M  V30 1710 H 165.741 5.28788 -4.70945 0
M  V30 1711 H 166.149 4.74764 -3.05384 0
M  V30 1712 N 165.547 1.27147 0.931209 0
M  V30 1713 C 166.497 1.06227 2.01742 0
M  V30 1714 C 167.481 -0.00859065 1.60898 0
M  V30 1715 O 168.673 0.209537 1.75755 0
M  V30 1716 C 165.802 0.707787 3.35924 0
M  V30 1717 C 164.888 1.81661 3.83223 0
M  V30 1718 N 165.279 3.05564 4.03069 0
M  V30 1719 C 163.577 1.70249 4.12227 0
M  V30 1720 C 164.278 3.77697 4.42403 0
M  V30 1721 N 163.254 3.0544 4.49675 0
M  V30 1722 H 167.056 2.00261 2.15111 0
M  V30 1723 H 164.57 1.1781 1.11779 0
M  V30 1724 H 166.567 0.539043 4.134 0
M  V30 1725 H 165.227 -0.224964 3.2392 0
M  V30 1726 H 166.238 3.41363 3.89476 0
M  V30 1727 H 162.915 0.840329 4.08956 0
M  V30 1728 H 164.305 4.84168 4.65866 0
M  V30 1729 N 167.025 -1.13721 1.09112 0
M  V30 1730 C 168.25 -1.89314 0.847053 0
M  V30 1731 C 168.675 -1.78416 -0.595774 0
M  V30 1732 O 168.033 -1.12942 -1.41823 0
M  V30 1733 C 168.081 -3.3701 1.28284 0
M  V30 1734 O 167.185 -4.10054 0.439267 0
M  V30 1735 H 166.526 -0.588745 0.307044 0
M  V30 1736 H 169.056 -1.43902 1.45442 0
M  V30 1737 H 169.066 -3.87834 1.26683 0
M  V30 1738 H 167.741 -3.4426 2.33363 0
M  V30 1739 H 166.318 -3.69266 0.519312 0
M  V30 1740 N 168.503 -0.877838 -1.30888 0
M  V30 1741 C 169.433 -0.35534 -2.3078 0
M  V30 1742 C 170.414 0.557994 -1.60687 0
M  V30 1743 O 171.599 0.473355 -1.88343 0
M  V30 1744 C 168.729 0.437221 -3.44537 0
M  V30 1745 C 167.683 -0.383715 -4.26276 0
M  V30 1746 C 167.009 0.535014 -5.32017 0
M  V30 1747 C 168.309 -1.62201 -4.96476 0
M  V30 1748 H 170.003 -1.19007 -2.74732 0
M  V30 1749 H 167.549 -0.573698 -1.32078 0
M  V30 1750 H 169.502 0.813334 -4.13477 0
M  V30 1751 H 168.226 1.30553 -2.99372 0
M  V30 1752 H 166.885 -0.741874 -3.59015 0
M  V30 1753 H 166.533 1.40083 -4.831 0
M  V30 1754 H 166.233 -0.0104211 -5.87599 0
M  V30 1755 H 167.757 0.907799 -6.03814 0
M  V30 1756 H 169.171 -1.31689 -5.5797 0
M  V30 1757 H 167.568 -2.10711 -5.61891 0
M  V30 1758 H 168.638 -2.37044 -4.23011 0
M  V30 1759 N 169.982 1.44106 -0.638065 0
M  V30 1760 C 170.93 2.3248 0.0748149 0
M  V30 1761 C 171.924 1.47746 0.828702 0
M  V30 1762 O 173.13 1.64049 0.740816 0
M  V30 1763 H 169.505 0.750771 0.0429686 0
M  V30 1764 H 171.476 2.90348 -0.688504 0
M  V30 1765 C 170.225 3.31843 1.03805 0
M  V30 1766 H 169.548 3.97059 0.467375 0
M  V30 1767 H 170.988 3.96345 1.50622 0
M  V30 1768 C 169.447 2.61291 2.1267 0
M  V30 1769 O 169.977 2.41702 3.20847 0
M  V30 1770 N 168.183 2.20915 1.88798 0
M  V30 1771 H 167.73 2.37047 1.00829 0
M  V30 1772 H 167.688 1.74038 2.61836 0
M  V30 1773 N 171.46 0.379036 1.52974 0
M  V30 1774 C 172.407 -0.461048 2.26148 0
M  V30 1775 C 173.377 -1.06637 1.27349 0
M  V30 1776 O 174.562 -1.09633 1.56157 0
M  V30 1777 C 171.702 -1.58782 3.06402 0
M  V30 1778 C 170.815 -1.00636 4.20115 0
M  V30 1779 C 169.95 -2.10334 4.87784 0
M  V30 1780 C 168.989 -1.49724 5.93506 0
M  V30 1781 N 168.126 -2.5331 6.54812 0
M  V30 1782 H 172.966 0.169429 2.97518 0
M  V30 1783 H 170.503 0.0953806 1.4679 0
M  V30 1784 H 172.461 -2.25174 3.51215 0
M  V30 1785 H 171.091 -2.18876 2.37261 0
M  V30 1786 H 170.143 -0.232332 3.7969 0
M  V30 1787 H 171.455 -0.523343 4.96047 0
M  V30 1788 H 170.609 -2.84519 5.35849 0
M  V30 1789 H 169.348 -2.61992 4.11353 0
M  V30 1790 H 168.353 -0.740598 5.44789 0
M  V30 1791 H 169.578 -0.988732 6.71864 0
M  V30 1792 H 167.524 -3.04156 5.81227 0
M  V30 1793 H 167.441 -2.09734 7.26325 0
M  V30 1794 H 168.709 -3.27155 7.07524 0
M  V30 1795 N 172.938 -1.57226 0.108567 0
M  V30 1796 C 174.166 -1.99179 -0.559954 0
M  V30 1797 C 174.581 -0.988022 -1.60884 0
M  V30 1798 O 173.938 0.0205512 -1.82488 0
M  V30 1799 C 173.989 -3.41159 -1.19552 0
M  V30 1800 O 173.71 -4.37694 -0.188577 0
M  V30 1801 C 175.211 -3.98188 -1.94837 0
M  V30 1802 H 172.431 -0.654228 -0.149088 0
M  V30 1803 H 174.975 -2.03598 0.19183 0
M  V30 1804 H 173.13 -3.37711 -1.89815 0
M  V30 1805 H 173.544 -5.20469 -0.649014 0
M  V30 1806 H 175.018 -4.99644 -2.34648 0
M  V30 1807 H 175.495 -3.3675 -2.81951 0
M  V30 1808 H 176.101 -4.0515 -1.2936 0
M  V30 1809 N 174.416 0.165178 -1.56732 0
M  V30 1810 C 175.662 0.877389 -1.83503 0
M  V30 1811 C 176.017 1.79602 -0.689996 0
M  V30 1812 O 175.31 1.89023 0.313205 0
M  V30 1813 C 175.504 1.70405 -3.1416 0
M  V30 1814 C 175.333 0.866961 -4.41264 0
M  V30 1815 C 174.103 0.539646 -5.0241 0
M  V30 1816 C 176.301 0.205671 -5.13889 0
M  V30 1817 N 174.283 -0.312946 -6.13102 0
M  V30 1818 C 175.654 -0.507823 -6.17917 0
M  V30 1819 C 177.709 0.124468 -4.97744 0
M  V30 1820 C 176.412 -1.29483 -7.0755 0
M  V30 1821 C 178.438 -0.649222 -5.87826 0
M  V30 1822 C 177.8 -1.35106 -6.91322 0
M  V30 1823 H 173.899 0.299477 -0.722383 0
M  V30 1824 H 176.483 0.143949 -1.94167 0
M  V30 1825 H 174.654 2.40887 -3.04677 0
M  V30 1826 H 176.386 2.35804 -3.28905 0
M  V30 1827 H 173.141 0.871176 -4.65519 0
M  V30 1828 H 173.565 -0.729731 -6.73056 0
M  V30 1829 H 178.207 0.652724 -4.17731 0
M  V30 1830 H 175.925 -1.83441 -7.87004 0
M  V30 1831 H 179.511 -0.713804 -5.77405 0
M  V30 1832 H 178.391 -1.94013 -7.59821 0
M  V30 1833 N 175.894 1.51508 0.433938 0
M  V30 1834 C 176.857 1.72473 1.50949 0
M  V30 1835 C 177.857 0.594725 1.49398 0
M  V30 1836 O 179.047 0.862315 1.5136 0
M  V30 1837 C 176.179 1.78431 2.90474 0
M  V30 1838 H 177.372 2.68467 1.33662 0
M  V30 1839 H 174.925 1.41549 0.662836 0
M  V30 1840 H 175.66 0.842645 3.13161 0
M  V30 1841 H 175.445 2.60558 2.93005 0
M  V30 1842 H 176.935 1.96479 3.68491 0
M  V30 1843 N 177.372 -0.689602 1.41712 0
M  V30 1844 C 178.32 -1.82475 1.44242 0
M  V30 1845 C 179.314 -1.66354 0.319774 0
M  V30 1846 O 180.52 -1.73143 0.492089 0
M  V30 1847 H 176.895 -0.601416 0.451445 0
M  V30 1848 H 178.866 -1.77458 2.39899 0
M  V30 1849 C 177.615 -3.20535 1.3473 0
M  V30 1850 H 176.938 -3.33559 2.20405 0
M  V30 1851 H 178.378 -4.00023 1.40562 0
M  V30 1852 C 176.837 -3.36846 0.0603281 0
M  V30 1853 O 177.367 -3.91656 -0.892663 0
M  V30 1854 N 175.573 -2.90595 -0.0177039 0
M  V30 1855 H 175.12 -2.46178 0.758572 0
M  V30 1856 H 175.078 -3.01886 -0.878201 0
M  V30 1857 N 178.85 -1.27639 -0.924453 0
M  V30 1858 C 180.08 -1.16819 -1.70402 0
M  V30 1859 C 180.488 0.277191 -1.87158 0
M  V30 1860 O 179.831 1.20025 -1.39067 0
M  V30 1861 C 179.893 -1.78305 -3.12166 0
M  V30 1862 C 179.557 -3.27502 -3.18734 0
M  V30 1863 C 180.554 -4.2409 -3.00738 0
M  V30 1864 C 178.239 -3.68269 -3.4159 0
M  V30 1865 C 180.233 -5.59422 -3.05492 0
M  V30 1866 C 177.92 -5.0373 -3.45977 0
M  V30 1867 C 178.918 -5.99116 -3.27946 0
M  V30 1868 O 178.606 -7.32108 -3.32074 0
M  V30 1869 H 178.338 -0.406931 -0.539799 0
M  V30 1870 H 180.892 -1.69078 -1.16626 0
M  V30 1871 H 179.122 -1.20528 -3.67437 0
M  V30 1872 H 180.811 -1.62154 -3.72103 0
M  V30 1873 H 181.577 -3.93931 -2.82919 0
M  V30 1874 H 177.456 -2.94496 -3.54673 0
M  V30 1875 H 181 -6.33852 -2.91337 0
M  V30 1876 H 176.897 -5.33543 -3.63321 0
M  V30 1877 H 177.665 -7.40598 -3.48507 0
M  V30 1878 N 180.328 1.1314 -1.09713 0
M  V30 1879 C 181.553 1.88862 -0.857081 0
M  V30 1880 C 181.978 1.78729 0.586304 0
M  V30 1881 O 181.336 1.13692 1.41222 0
M  V30 1882 C 181.384 3.36325 -1.30069 0
M  V30 1883 O 180.488 4.09815 -0.461007 0
M  V30 1884 H 179.829 0.587108 -0.310162 0
M  V30 1885 H 182.359 1.43129 -1.46203 0
M  V30 1886 H 182.369 3.87157 -1.28738 0
M  V30 1887 H 181.044 3.43017 -2.35185 0
M  V30 1888 H 179.621 3.68986 -0.538888 0
M  V30 1889 N 181.806 0.884767 1.30421 0
M  V30 1890 C 183.083 0.423185 1.90967 0
M  V30 1891 C 183.463 -1.09605 1.80416 0
M  V30 1892 O 182.811 -1.93126 1.22125 0
M  V30 1893 C 183.021 0.921056 3.36627 0
M  V30 1894 C 184.369 0.955903 4.137 0
M  V30 1895 O 185.393 0.867706 3.4547 0
M  V30 1896 O 184.252 1.08614 5.35598 0
M  V30 1897 H 181.346 0.129369 0.816819 0
M  V30 1898 H 183.892 0.973653 1.3899 0
M  V30 1899 H 182.664 1.96489 3.3839 0
M  V30 1900 H 182.287 0.349741 3.96059 0
M  V30 1901 N 183.284 -1.43765 0.645699 0
M  V30 1902 C 184.524 -2.03776 0.159542 0
M  V30 1903 C 184.888 -1.49792 -1.2011 0
M  V30 1904 O 186.089 -2.01398 -1.78023 0
M  V30 1905 C 184.36 -3.57036 0.161251 0
M  V30 1906 S 185.919 -4.3804 -0.258159 0
M  V30 1907 H 182.737 -0.707717 0.0682454 0
M  V30 1908 H 185.339 -1.75941 0.852352 0
M  V30 1909 H 184.043 -3.9383 1.15439 0
M  V30 1910 H 183.574 -3.89503 -0.552339 0
M  V30 1911 H 185.589 -4.7302 -1.49889 0
M  V30 1912 N 184.763 -0.387143 -1.52771 0
M  V30 1913 C 185.693 0.440551 -2.29306 0
M  V30 1914 C 186.674 1.06535 -1.32606 0
M  V30 1915 O 187.859 1.07853 -1.61497 0
M  V30 1916 C 184.989 1.56919 -3.09829 0
M  V30 1917 C 183.943 1.07054 -4.14395 0
M  V30 1918 C 183.269 2.29109 -4.83129 0
M  V30 1919 C 184.569 0.140015 -5.22112 0
M  V30 1920 H 186.263 -0.198026 -2.98744 0
M  V30 1921 H 183.809 -0.09668 -1.43675 0
M  V30 1922 H 185.762 2.15503 -3.62128 0
M  V30 1923 H 184.486 2.23532 -2.3812 0
M  V30 1924 H 183.145 0.507247 -3.63074 0
M  V30 1925 H 182.793 2.94227 -4.0797 0
M  V30 1926 H 182.493 1.96406 -5.53804 0
M  V30 1927 H 184.017 2.88339 -5.38231 0
M  V30 1928 H 185.431 0.633978 -5.69784 0
M  V30 1929 H 183.828 -0.0971485 -6.00021 0
M  V30 1930 H 184.898 -0.811711 -4.78058 0
M  V30 1931 N 186.241 1.57166 -0.116904 0
M  V30 1932 C 187.657 1.5779 0.239693 0
M  V30 1933 C 187.857 1.1295 1.66867 0
M  V30 1934 O 186.913 0.81592 2.38954 0
M  V30 1935 C 188.226 3.00699 0.00828202 0
M  V30 1936 C 189.774 3.12912 0.0743438 0
M  V30 1937 C 190.249 4.57817 -0.129348 0
M  V30 1938 N 191.74 4.63139 -0.075247 0
M  V30 1939 C 192.475 5.73023 -0.207788 0
M  V30 1940 N 191.971 6.91665 -0.396382 0
M  V30 1941 N 193.764 5.61906 -0.14751 0
M  V30 1942 H 185.915 1.84615 -1.05029 0
M  V30 1943 H 188.178 0.85311 -0.41341 0
M  V30 1944 H 187.884 3.37784 -0.979531 0
M  V30 1945 H 187.758 3.69848 0.741077 0
M  V30 1946 H 190.145 2.75686 1.05268 0
M  V30 1947 H 190.226 2.4631 -0.690297 0
M  V30 1948 H 189.87 4.95742 -1.10465 0
M  V30 1949 H 189.8 5.22507 0.655253 0
M  V30 1950 H 192.291 3.7784 0.0670898 0
M  V30 1951 H 192.604 7.71255 -0.488437 0
M  V30 1952 H 190.949 6.93654 -0.432329 0
M  V30 1953 H 194.14 4.681 -0.00115036 0
M  V30 1954 H 194.313 6.47501 -0.254247 0
M  V30 1955 N 187.719 -0.156864 1.56817 0
M  V30 1956 C 188.966 -0.871125 1.82805 0
M  V30 1957 C 189.294 -1.81611 0.696262 0
M  V30 1958 O 188.549 -1.93141 -0.315459 0
M  V30 1959 C 188.848 -1.68737 3.1506 0
M  V30 1960 C 188.514 -0.890045 4.42028 0
M  V30 1961 C 187.176 -0.670042 4.76512 0
M  V30 1962 C 189.528 -0.331769 5.20143 0
M  V30 1963 C 186.856 0.119104 5.86579 0
M  V30 1964 C 189.208 0.444365 6.31037 0
M  V30 1965 C 187.872 0.675035 6.64078 0
M  V30 1966 H 187.142 -0.318767 0.668931 0
M  V30 1967 H 189.789 -0.135274 1.91022 0
M  V30 1968 H 188.094 -2.49304 3.0225 0
M  V30 1969 H 189.791 -2.24331 3.3238 0
M  V30 1970 H 186.381 -1.07157 4.14988 0
M  V30 1971 H 190.565 -0.489043 4.93885 0
M  V30 1972 H 185.821 0.307417 6.10627 0
M  V30 1973 H 189.995 0.884139 6.90765 0
M  V30 1974 H 187.622 1.28839 7.49203 0
M  V30 1975 N 189.197 -1.51736 -0.425897 0
M  V30 1976 C 190.127 -1.76827 -1.52494 0
M  V30 1977 C 191.108 -0.618524 -1.58456 0
M  V30 1978 O 192.293 -0.862416 -1.74 0
M  V30 1979 C 189.423 -1.90374 -2.90474 0
M  V30 1980 C 188.377 -3.0588 -2.99369 0
M  V30 1981 C 187.703 -3.04625 -4.3944 0
M  V30 1982 C 189.003 -4.45644 -2.72394 0
M  V30 1983 H 190.697 -2.68855 -1.31748 0
M  V30 1984 H 188.243 -1.29372 -0.632362 0
M  V30 1985 H 190.196 -2.0651 -3.6733 0
M  V30 1986 H 188.92 -0.95004 -3.12477 0
M  V30 1987 H 187.579 -2.89467 -2.24954 0
M  V30 1988 H 187.227 -2.0701 -4.58428 0
M  V30 1989 H 186.927 -3.82195 -4.46319 0
M  V30 1990 H 188.451 -3.22869 -5.18255 0
M  V30 1991 H 189.865 -4.62348 -3.38979 0
M  V30 1992 H 188.262 -5.25006 -2.9067 0
M  V30 1993 H 189.332 -4.54893 -1.67929 0
M  V30 1994 N 190.675 0.682077 -1.42076 0
M  V30 1995 C 191.607 1.80755 -1.40926 0
M  V30 1996 C 192.62 1.59833 -0.309398 0
M  V30 1997 O 193.809 1.69087 -0.572014 0
M  V30 1998 C 190.909 3.17744 -1.17865 0
M  V30 1999 C 190.082 3.65578 -2.40149 0
M  V30 2000 C 189.141 4.81277 -2.12742 0
M  V30 2001 O 188.167 4.92197 -2.85887 0
M  V30 2002 N 189.369 5.69474 -1.12602 0
M  V30 2003 H 192.134 1.82229 -2.37935 0
M  V30 2004 H 189.695 0.864903 -1.36861 0
M  V30 2005 H 191.687 3.9279 -0.9746 0
M  V30 2006 H 190.257 3.11214 -0.294068 0
M  V30 2007 H 189.477 2.81291 -2.76169 0
M  V30 2008 H 190.765 3.94278 -3.21593 0
M  V30 2009 H 190.163 5.63297 -0.520899 0
M  V30 2010 H 188.72 6.44363 -0.981842 0
M  V30 2011 N 192.153 1.28127 0.917671 0
M  V30 2012 C 193.564 1.13622 1.48145 0
M  V30 2013 C 193.915 -0.275207 1.9426 0
M  V30 2014 O 193.04 -1.1691 1.82102 0
M  V30 2015 C 193.635 2.05648 2.69248 0
M  V30 2016 C 192.194 1.95219 3.21818 0
M  V30 2017 C 191.341 1.97618 1.94532 0
M  V30 2018 H 194.292 1.40874 0.730772 0
M  V30 2019 H 194.313 1.61818 3.44377 0
M  V30 2020 H 193.825 3.08365 2.35653 0
M  V30 2021 H 191.926 0.955244 3.60147 0
M  V30 2022 H 192.039 2.81976 3.87333 0
M  V30 2023 H 190.403 1.41973 2.11461 0
M  V30 2024 H 191.186 3.02007 1.63238 0
M  V30 2025 N 193.631 -1.12557 1.10312 0
M  V30 2026 C 194.908 -1.80363 0.756878 0
M  V30 2027 C 195.288 -1.97067 -0.756824 0
M  V30 2028 O 194.636 -1.54601 -1.68259 0
M  V30 2029 C 194.846 -3.14812 1.50647 0
M  V30 2030 C 196.194 -3.90029 1.67817 0
M  V30 2031 O 197.218 -3.24464 1.46974 0
M  V30 2032 O 196.077 -5.07652 2.02365 0
M  V30 2033 H 193.171 -0.780667 0.272926 0
M  V30 2034 H 195.717 -1.19404 1.20586 0
M  V30 2035 H 194.489 -2.97936 2.53672 0
M  V30 2036 H 194.112 -3.83478 1.05026 0
M  V30 2037 N 195.109 -0.891671 -1.2995 0
M  V30 2038 C 196.358 -0.509521 -1.95158 0
M  V30 2039 C 196.671 0.947388 -1.71125 0
M  V30 2040 O 197.877 1.43669 -2.30372 0
M  V30 2041 C 196.333 -0.860315 -3.49466 0
M  V30 2042 C 195.941 -2.33545 -3.8231 0
M  V30 2043 C 197.685 -0.547687 -4.20952 0
M  V30 2044 C 195.592 -2.62752 -5.29826 0
M  V30 2045 H 194.522 -0.18682 -0.730489 0
M  V30 2046 H 197.173 -1.08756 -1.47798 0
M  V30 2047 H 195.555 -0.211285 -3.95436 0
M  V30 2048 H 196.729 -3.02936 -3.47227 0
M  V30 2049 H 195.044 -2.61629 -3.23944 0
M  V30 2050 H 197.641 -0.742854 -5.29515 0
M  V30 2051 H 197.984 0.51332 -4.13123 0
M  V30 2052 H 198.517 -1.1542 -3.80688 0
M  V30 2053 H 195.256 -3.6762 -5.42712 0
M  V30 2054 H 194.776 -1.97977 -5.66185 0
M  V30 2055 H 196.455 -2.48601 -5.97333 0
M  V30 2056 N 196.587 1.43421 -0.653314 0
M  V30 2057 C 197.812 2.06678 -0.172846 0
M  V30 2058 C 198.237 1.48648 1.15262 0
M  V30 2059 O 197.595 0.596457 1.71208 0
M  V30 2060 C 197.643 3.60474 -0.0953184 0
M  V30 2061 O 196.747 4.01487 0.942442 0
M  V30 2062 H 196.088 0.657181 -0.0949155 0
M  V30 2063 H 198.618 1.83925 -0.896265 0
M  V30 2064 H 198.628 4.07905 0.0879728 0
M  V30 2065 H 197.303 4.02088 -1.06291 0
M  V30 2066 H 195.88 3.65646 0.731932 0
M  V30 2067 N 198.065 0.39524 1.52563 0
M  V30 2068 C 199.314 -0.186321 2.00838 0
M  V30 2069 C 199.627 -1.47402 1.28577 0
M  V30 2070 O 200.833 -2.13599 1.67593 0
M  V30 2071 C 199.289 -0.382595 3.57861 0
M  V30 2072 C 198.897 0.892202 4.39026 0
M  V30 2073 C 200.641 -0.9202 4.14406 0
M  V30 2074 C 198.548 0.66388 5.87662 0
M  V30 2075 H 197.478 -0.0734041 0.750418 0
M  V30 2076 H 200.129 0.518552 1.76021 0
M  V30 2077 H 198.511 -1.14946 3.7895 0
M  V30 2078 H 199.685 1.66414 4.29701 0
M  V30 2079 H 198 1.35519 3.9373 0
M  V30 2080 H 200.597 -1.10683 5.23119 0
M  V30 2081 H 200.94 -1.89096 3.70875 0
M  V30 2082 H 201.473 -0.212751 3.97231 0
M  V30 2083 H 198.212 1.6058 6.35527 0
M  V30 2084 H 197.732 -0.0690193 5.9976 0
M  V30 2085 H 199.411 0.300699 6.46301 0
M  V30 2086 N 199.544 -1.57102 0.125237 0
M  V30 2087 C 200.792 -1.95021 -0.530198 0
M  V30 2088 C 201.113 -1.00982 -1.66816 0
M  V30 2089 O 200.383 -0.0672693 -1.95784 0
M  V30 2090 H 198.963 -0.720046 -0.198853 0
M  V30 2091 H 201.625 -1.93916 0.19564 0
M  V30 2092 H 200.721 -2.98211 -0.920681 0
M  V30 2093 N 201.022 0.148545 -1.56898 0
M  V30 2094 C 201.969 1.18345 -1.98149 0
M  V30 2095 C 202.939 1.42772 -0.848848 0
M  V30 2096 O 204.124 1.55132 -1.11079 0
M  V30 2097 C 201.264 2.51231 -2.36594 0
M  V30 2098 C 200.377 2.33991 -3.63142 0
M  V30 2099 C 199.512 3.59902 -3.90697 0
M  V30 2100 C 198.551 3.37692 -5.1052 0
M  V30 2101 N 197.688 4.5573 -5.34092 0
M  V30 2102 H 202.528 0.82467 -2.86362 0
M  V30 2103 H 200.065 0.395756 -1.41676 0
M  V30 2104 H 202.023 3.28713 -2.56912 0
M  V30 2105 H 200.653 2.85059 -1.51463 0
M  V30 2106 H 199.705 1.47572 -3.50609 0
M  V30 2107 H 201.017 2.13539 -4.5078 0
M  V30 2108 H 200.171 4.45813 -4.11505 0
M  V30 2109 H 198.91 3.83357 -3.01477 0
M  V30 2110 H 197.915 2.5017 -4.89587 0
M  V30 2111 H 199.14 3.15637 -6.0129 0
M  V30 2112 H 197.086 4.79361 -4.47827 0
M  V30 2113 H 197.003 4.38274 -6.15996 0
M  V30 2114 H 198.271 5.42858 -5.59397 0
M  V30 2115 N 202.5 1.5196 0.417844 0
M  V30 2116 C 203.432 1.70895 1.52733 0
M  V30 2117 C 204.445 0.589405 1.51756 0
M  V30 2118 O 205.634 0.864312 1.56179 0
M  V30 2119 C 202.734 1.72627 2.91639 0
M  V30 2120 C 201.907 3.01479 3.16905 0
M  V30 2121 C 200.966 2.95139 4.35637 0
M  V30 2122 O 199.992 3.69059 4.3334 0
M  V30 2123 N 201.194 2.12328 5.40275 0
M  V30 2124 H 203.959 2.66612 1.36888 0
M  V30 2125 H 201.52 1.50089 0.607037 0
M  V30 2126 H 203.512 1.65928 3.6912 0
M  V30 2127 H 202.082 0.844216 3.00985 0
M  V30 2128 H 201.302 3.21895 2.27546 0
M  V30 2129 H 202.59 3.86736 3.30625 0
M  V30 2130 H 201.988 1.51685 5.44985 0
M  V30 2131 H 200.545 2.11494 6.16534 0
M  V30 2132 N 203.978 -0.674533 1.42435 0
M  V30 2133 C 204.888 -1.81751 1.48337 0
M  V30 2134 C 205.904 -1.69975 0.372099 0
M  V30 2135 O 207.08 -1.91521 0.62304 0
M  V30 2136 C 204.145 -3.17895 1.38361 0
M  V30 2137 C 203.206 -3.41625 2.59982 0
M  V30 2138 C 202.439 -4.71274 2.50473 0
M  V30 2139 O 202.662 -5.49197 1.54075 0
M  V30 2140 O 201.596 -4.96254 3.4061 0
M  V30 2141 H 205.422 -1.79728 2.44809 0
M  V30 2142 H 203.007 -0.830312 1.24202 0
M  V30 2143 H 204.889 -3.99136 1.35161 0
M  V30 2144 H 203.564 -3.20555 0.450144 0
M  V30 2145 H 202.471 -2.60231 2.68757 0
M  V30 2146 H 203.804 -3.43796 3.52229 0
M  V30 2147 N 205.456 -1.28612 -0.910864 0
M  V30 2148 C 206.703 -1.15934 -1.66029 0
M  V30 2149 C 207.031 0.291483 -1.92303 0
M  V30 2150 O 206.286 1.22816 -1.52364 0
M  V30 2151 C 206.585 -1.90624 -3.0232 0
M  V30 2152 C 206.251 -3.40405 -2.95695 0
M  V30 2153 C 204.913 -3.81255 -2.93595 0
M  V30 2154 C 207.265 -4.359 -2.85728 0
M  V30 2155 C 204.593 -5.15936 -2.79334 0
M  V30 2156 C 206.945 -5.70657 -2.73007 0
M  V30 2157 C 205.609 -6.10779 -2.69267 0
M  V30 2158 H 204.879 -0.424234 -0.607541 0
M  V30 2159 H 207.526 -1.5942 -1.06101 0
M  V30 2160 H 205.831 -1.39696 -3.6605 0
M  V30 2161 H 207.528 -1.78228 -3.59215 0
M  V30 2162 H 204.118 -3.07927 -2.98125 0
M  V30 2163 H 208.302 -4.053 -2.86436 0
M  V30 2164 H 203.558 -5.46146 -2.74835 0
M  V30 2165 H 207.732 -6.44311 -2.64264 0
M  V30 2166 H 205.359 -7.1509 -2.57974 0
M  V30 2167 N 206.934 1.1197 -1.10907 0
M  V30 2168 C 208.181 1.83588 -0.854507 0
M  V30 2169 C 208.509 1.84357 0.6199 0
M  V30 2170 O 207.764 1.28809 1.47332 0
M  V30 2171 C 208.063 3.30749 -1.35425 0
M  V30 2172 C 207.729 3.50146 -2.84093 0
M  V30 2173 C 206.391 3.55148 -3.2469 0
M  V30 2174 C 208.743 3.56857 -3.79872 0
M  V30 2175 C 206.071 3.6441 -4.59806 0
M  V30 2176 C 208.423 3.6765 -5.14797 0
M  V30 2177 C 207.087 3.7091 -5.54961 0
M  V30 2178 H 206.357 0.671795 -0.312686 0
M  V30 2179 H 209.004 1.32091 -1.38652 0
M  V30 2180 H 207.309 3.84703 -0.742361 0
M  V30 2181 H 209.006 3.8464 -1.1337 0
M  V30 2182 H 205.596 3.46919 -2.51685 0
M  V30 2183 H 209.78 3.52258 -3.49611 0
M  V30 2184 H 205.036 3.65208 -4.9034 0
M  V30 2185 H 209.21 3.71786 -5.88853 0
M  V30 2186 H 206.837 3.7784 -6.59652 0
M  V30 2187 N 208.412 0.89855 1.29475 0
M  V30 2188 C 209.322 0.379974 2.31502 0
M  V30 2189 C 210.338 -0.524695 1.659 0
M  V30 2190 O 211.514 -0.414551 1.97087 0
M  V30 2191 C 208.579 -0.385138 3.44554 0
M  V30 2192 C 207.64 0.550914 4.2575 0
M  V30 2193 C 206.873 -0.177778 5.33404 0
M  V30 2194 O 207.096 -1.40189 5.52904 0
M  V30 2195 O 206.03 0.479106 5.9999 0
M  V30 2196 H 209.856 1.22639 2.77837 0
M  V30 2197 H 207.441 0.662834 1.33891 0
M  V30 2198 H 209.323 -0.817841 4.13388 0
M  V30 2199 H 207.998 -1.20763 3.0033 0
M  V30 2200 H 206.905 1.03271 3.59564 0
M  V30 2201 H 208.238 1.33979 4.73614 0
M  V30 2202 N 209.89 -1.43072 0.660911 0
M  V30 2203 C 211.306 -1.56169 0.329173 0
M  V30 2204 C 211.506 -1.64317 -1.16629 0
M  V30 2205 O 210.562 -1.60245 -1.95135 0
M  V30 2206 C 211.875 -2.81873 1.04729 0
M  V30 2207 C 213.423 -2.95627 1.02828 0
M  V30 2208 C 213.898 -4.24174 1.72744 0
M  V30 2209 N 215.389 -4.31055 1.69545 0
M  V30 2210 C 216.124 -5.29304 2.20511 0
M  V30 2211 N 215.62 -6.33786 2.79799 0
M  V30 2212 N 217.413 -5.21008 2.10966 0
M  V30 2213 H 209.564 -1.36027 1.63127 0
M  V30 2214 H 211.827 -0.653823 0.686454 0
M  V30 2215 H 211.533 -2.81942 2.10242 0
M  V30 2216 H 211.407 -3.72338 0.603702 0
M  V30 2217 H 213.794 -2.95094 -0.0184742 0
M  V30 2218 H 213.875 -2.06431 1.51063 0
M  V30 2219 H 213.519 -4.25467 2.7738 0
M  V30 2220 H 213.449 -5.1228 1.2197 0
M  V30 2221 H 215.94 -3.56174 1.26288 0
M  V30 2222 H 216.253 -7.05086 3.16344 0
M  V30 2223 H 214.598 -6.34387 2.83863 0
M  V30 2224 H 217.789 -4.38301 1.64347 0
M  V30 2225 H 217.962 -5.97416 2.50993 0
M  V30 2226 N 211.368 -0.403325 -1.52352 0
M  V30 2227 C 212.298 0.416205 -2.29761 0
M  V30 2228 C 213.279 1.05123 -1.33728 0
M  V30 2229 O 214.464 1.06134 -1.62632 0
M  V30 2230 C 211.594 1.53624 -3.11475 0
M  V30 2231 C 210.548 1.02653 -4.15507 0
M  V30 2232 C 209.874 2.23971 -4.85532 0
M  V30 2233 C 211.174 0.08463 -5.22231 0
M  V30 2234 H 212.868 -0.229701 -2.98518 0
M  V30 2235 H 210.414 -0.111913 -1.43564 0
M  V30 2236 H 212.367 2.1165 -3.64393 0
M  V30 2237 H 211.091 2.20994 -2.40477 0
M  V30 2238 H 209.75 0.46871 -3.63591 0
M  V30 2239 H 209.398 2.89883 -4.11068 0
M  V30 2240 H 209.098 1.90521 -5.55856 0
M  V30 2241 H 210.622 2.82614 -5.41259 0
M  V30 2242 H 212.036 0.573509 -5.70424 0
M  V30 2243 H 210.433 -0.160783 -5.99885 0
M  V30 2244 H 211.503 -0.86237 -4.7717 0
M  V30 2245 N 212.846 1.57033 -0.133567 0
M  V30 2246 C 214.076 1.99754 0.527429 0
M  V30 2247 C 214.484 1.01245 1.59832 0
M  V30 2248 O 213.827 -0.000645496 1.837 0
M  V30 2249 C 213.889 3.38903 1.19939 0
M  V30 2250 C 213.553 4.56174 0.274709 0
M  V30 2251 C 214.55 5.17563 -0.492398 0
M  V30 2252 C 212.235 5.01972 0.18153 0
M  V30 2253 C 214.229 6.2315 -1.34027 0
M  V30 2254 C 211.916 6.07416 -0.669958 0
M  V30 2255 C 212.914 6.67874 -1.42947 0
M  V30 2256 O 212.602 7.71279 -2.2668 0
M  V30 2257 H 212.334 0.660702 0.142999 0
M  V30 2258 H 214.888 2.04207 -0.221099 0
M  V30 2259 H 213.118 3.31248 1.99528 0
M  V30 2260 H 214.807 3.65818 1.75875 0
M  V30 2261 H 215.573 4.83087 -0.430367 0
M  V30 2262 H 211.452 4.54652 0.762422 0
M  V30 2263 H 214.996 6.70268 -1.93357 0
M  V30 2264 H 210.893 6.41321 -0.73333 0
M  V30 2265 H 211.661 7.88441 -2.1978 0
M  V30 2266 N 214.325 -0.140222 1.56975 0
M  V30 2267 C 215.571 -0.852949 1.83991 0
M  V30 2268 C 215.904 -1.80512 0.716187 0
M  V30 2269 O 215.179 -1.92479 -0.279681 0
M  V30 2270 C 215.462 -1.6215 3.21527 0
M  V30 2271 C 215.315 -0.690363 4.4447 0
M  V30 2272 C 216.634 -2.58247 3.56366 0
M  V30 2273 H 213.753 -0.308634 0.669264 0
M  V30 2274 H 216.395 -0.117898 1.89634 0
M  V30 2275 H 214.545 -2.24812 3.16847 0
M  V30 2276 H 216.217 -0.0742264 4.6124 0
M  V30 2277 H 214.46 -0.000396433 4.338 0
M  V30 2278 H 215.131 -1.2643 5.37326 0
M  V30 2279 H 217.607 -2.05701 3.61699 0
M  V30 2280 H 216.483 -3.09067 4.53617 0
M  V30 2281 H 216.744 -3.39923 2.82674 0
M  V30 2282 N 215.803 -1.52179 -0.40978 0
M  V30 2283 C 216.736 -1.70196 -1.52015 0
M  V30 2284 C 217.714 -0.549542 -1.53032 0
M  V30 2285 O 218.898 -0.776815 -1.71749 0
M  V30 2286 C 216.025 -1.74069 -2.90547 0
M  V30 2287 C 215.071 -2.95601 -3.07445 0
M  V30 2288 S 215.904 -4.55956 -2.80827 0
M  V30 2289 C 217.06 -4.62614 -4.21591 0
M  V30 2290 H 217.293 -2.64109 -1.36504 0
M  V30 2291 H 214.826 -1.4221 -0.601312 0
M  V30 2292 H 216.784 -1.76985 -3.70387 0
M  V30 2293 H 215.445 -0.812835 -3.034 0
M  V30 2294 H 214.638 -2.94791 -4.08796 0
M  V30 2295 H 214.24 -2.90569 -2.35469 0
M  V30 2296 H 216.532 -4.39951 -5.15218 0
M  V30 2297 H 217.475 -5.64548 -4.27424 0
M  V30 2298 H 217.883 -3.91654 -4.06531 0
M  V30 2299 N 217.281 0.66697 -1.42791 0
M  V30 2300 C 218.511 1.45294 -1.46878 0
M  V30 2301 C 218.919 1.89027 -0.0809861 0
M  V30 2302 O 218.262 1.59219 0.916246 0
M  V30 2303 C 218.324 2.72908 -2.34012 0
M  V30 2304 C 217.988 2.51203 -3.81767 0
M  V30 2305 C 218.985 2.15302 -4.73224 0
M  V30 2306 C 216.67 2.65954 -4.26115 0
M  V30 2307 C 218.664 1.94431 -6.07022 0
M  V30 2308 C 216.351 2.44699 -5.59969 0
M  V30 2309 C 217.349 2.08992 -6.5024 0
M  V30 2310 O 217.037 1.87948 -7.81621 0
M  V30 2311 H 216.769 0.453306 -0.501487 0
M  V30 2312 H 219.323 0.826232 -1.88049 0
M  V30 2313 H 217.553 3.38089 -1.87703 0
M  V30 2314 H 219.242 3.34816 -2.29462 0
M  V30 2315 H 220.008 2.03495 -4.40244 0
M  V30 2316 H 215.887 2.92724 -3.56137 0
M  V30 2317 H 219.431 1.66484 -6.77443 0
M  V30 2318 H 215.328 2.56105 -5.9252 0
M  V30 2319 H 216.096 2.02483 -7.93059 0
M  V30 2320 N 218.759 1.29093 0.90403 0
M  V30 2321 C 219.987 1.19689 1.68766 0
M  V30 2322 C 220.402 -0.243113 1.87228 0
M  V30 2323 O 219.759 -1.16326 1.40621 0
M  V30 2324 C 219.81 1.90144 3.07453 0
M  V30 2325 O 219.531 3.2852 2.89838 0
M  V30 2326 C 221.032 1.87162 4.01852 0
M  V30 2327 H 218.252 0.415035 0.527244 0
M  V30 2328 H 220.796 1.7039 1.13082 0
M  V30 2329 H 218.951 1.43289 3.59926 0
M  V30 2330 H 219.365 3.63944 3.77684 0
M  V30 2331 H 220.839 2.41032 4.96596 0
M  V30 2332 H 221.316 0.84617 4.30972 0
M  V30 2333 H 221.922 2.33741 3.5531 0
M  V30 2334 N 220.237 -1.11381 1.11499 0
M  V30 2335 C 221.483 -1.83403 0.865512 0
M  V30 2336 C 221.816 -1.84459 -0.607329 0
M  V30 2337 O 221.091 -1.29811 -1.44842 0
M  V30 2338 C 221.374 -3.30552 1.42855 0
M  V30 2339 C 221.227 -3.37886 2.96906 0
M  V30 2340 C 222.546 -4.26643 1.08 0
M  V30 2341 H 219.665 -0.665879 0.31587 0
M  V30 2342 H 222.307 -1.30601 1.37998 0
M  V30 2343 H 220.457 -3.75648 0.990985 0
M  V30 2344 H 222.129 -3.01343 3.49271 0
M  V30 2345 H 220.372 -2.78088 3.32941 0
M  V30 2346 H 221.043 -4.41458 3.31389 0
M  V30 2347 H 223.519 -3.89729 1.45775 0
M  V30 2348 H 222.395 -5.27986 1.50072 0
M  V30 2349 H 222.656 -4.42099 -0.00915037 0
M  V30 2350 N 221.715 -0.905404 -1.28997 0
M  V30 2351 C 222.963 -0.533192 -1.9494 0
M  V30 2352 C 223.284 0.924618 -1.71685 0
M  V30 2353 O 222.554 1.65268 -1.05183 0
M  V30 2354 H 221.134 -0.194194 -0.721317 0
M  V30 2355 H 223.796 -1.15294 -1.57141 0
M  V30 2356 H 222.892 -0.72059 -3.03667 0
M  V30 2357 N 223.193 1.4272 -0.668489 0
M  V30 2358 C 224.423 2.05668 -0.196063 0
M  V30 2359 C 224.831 1.5028 1.14946 0
M  V30 2360 O 224.174 0.6348 1.72383 0
M  V30 2361 C 224.236 3.59469 -0.0468879 0
M  V30 2362 C 223.9 4.37518 -1.32012 0
M  V30 2363 C 224.897 4.68584 -2.25222 0
M  V30 2364 C 222.582 4.77266 -1.56596 0
M  V30 2365 C 224.576 5.38326 -3.41297 0
M  V30 2366 C 222.263 5.4675 -2.72962 0
M  V30 2367 C 223.261 5.77204 -3.65137 0
M  V30 2368 O 222.949 6.45264 -4.79468 0
M  V30 2369 H 222.681 0.669382 -0.0943599 0
M  V30 2370 H 225.235 1.83954 -0.913788 0
M  V30 2371 H 223.465 3.79817 0.726357 0
M  V30 2372 H 225.154 4.04071 0.384852 0
M  V30 2373 H 225.92 4.38382 -2.07477 0
M  V30 2374 H 221.799 4.52959 -0.857249 0
M  V30 2375 H 225.343 5.62014 -4.13263 0
M  V30 2376 H 221.24 5.76369 -2.90635 0
M  V30 2377 H 222.008 6.63753 -4.78931 0
M  V30 2378 N 224.671 0.411399 1.52136 0
M  V30 2379 C 225.896 -0.165538 2.06738 0
M  V30 2380 C 226.321 -1.379 1.27926 0
M  V30 2381 O 225.679 -1.78628 0.310114 0
M  V30 2382 C 225.727 -0.492124 3.57226 0
M  V30 2383 O 224.831 -1.58276 3.80818 0
M  V30 2384 H 224.172 -0.0132132 0.663869 0
M  V30 2385 H 226.702 0.585253 1.96051 0
M  V30 2386 H 226.712 -0.750104 4.01045 0
M  V30 2387 H 225.387 0.394922 4.14021 0
M  V30 2388 H 223.964 -1.31677 3.48877 0
M  V30 2389 N 226.149 -1.5696 0.141893 0
M  V30 2390 C 227.398 -1.95135 -0.510427 0
M  V30 2391 C 227.711 -1.02896 -1.66348 0
M  V30 2392 O 228.917 -1.30629 -2.38009 0
M  V30 2393 C 227.373 -3.46876 -0.959427 0
M  V30 2394 C 226.981 -4.47691 0.166419 0
M  V30 2395 C 228.725 -3.93927 -1.58183 0
M  V30 2396 C 226.632 -5.90636 -0.300565 0
M  V30 2397 H 225.562 -0.728494 -0.194454 0
M  V30 2398 H 228.213 -1.8211 0.22542 0
M  V30 2399 H 226.595 -3.55215 -1.75038 0
M  V30 2400 H 227.769 -4.51043 0.94325 0
M  V30 2401 H 226.084 -4.10527 0.696905 0
M  V30 2402 H 228.681 -4.98158 -1.94275 0
M  V30 2403 H 229.024 -3.3519 -2.46888 0
M  V30 2404 H 229.557 -3.88484 -0.855863 0
M  V30 2405 H 226.296 -6.5318 0.550989 0
M  V30 2406 H 225.816 -5.90655 -1.04338 0
M  V30 2407 H 227.495 -6.42588 -0.754265 0
M  V30 2408 N 227.627 0.131896 -1.57047 0
M  V30 2409 C 228.852 0.860418 -1.8871 0
M  V30 2410 C 229.277 1.73251 -0.73251 0
M  V30 2411 O 228.635 1.785 0.317429 0
M  V30 2412 C 228.683 1.68047 -3.19049 0
M  V30 2413 O 227.787 2.7862 -3.04047 0
M  V30 2414 H 227.128 0.238743 -0.619595 0
M  V30 2415 H 229.658 0.118169 -2.04258 0
M  V30 2416 H 229.668 2.07238 -3.51449 0
M  V30 2417 H 228.343 1.04018 -4.02682 0
M  V30 2418 H 226.92 2.42726 -2.83088 0
M  V30 2419 N 229.106 1.52395 0.401703 0
M  V30 2420 C 230.353 1.66817 1.14796 0
M  V30 2421 C 230.681 0.401772 1.90305 0
M  V30 2422 O 229.936 -0.615487 1.85769 0
M  V30 2423 C 230.235 2.84578 2.16217 0
M  V30 2424 C 229.901 4.22513 1.5746 0
M  V30 2425 C 228.563 4.60029 1.41161 0
M  V30 2426 C 230.915 5.0844 1.14622 0
M  V30 2427 C 228.243 5.81144 0.80552 0
M  V30 2428 C 230.595 6.30167 0.55428 0
M  V30 2429 C 229.259 6.66426 0.378482 0
M  V30 2430 H 228.529 0.610428 0.420069 0
M  V30 2431 H 231.176 1.86512 0.434212 0
M  V30 2432 H 229.481 2.59248 2.93764 0
M  V30 2433 H 231.178 2.92933 2.73845 0
M  V30 2434 H 227.768 3.92953 1.71132 0
M  V30 2435 H 231.952 4.80034 1.26021 0
M  V30 2436 H 227.208 6.07855 0.657399 0
M  V30 2437 H 231.382 6.96071 0.213983 0
M  V30 2438 H 229.009 7.60143 -0.0932606 0
M  V30 2439 N 230.584 -0.659388 1.43143 0
M  V30 2440 C 231.832 -1.41654 1.44147 0
M  V30 2441 C 232.153 -1.94893 0.0645739 0
M  V30 2442 O 231.423 -1.74044 -0.899198 0
M  V30 2443 H 230.003 -0.525708 0.530697 0
M  V30 2444 H 232.665 -0.778097 1.78694 0
M  V30 2445 H 231.761 -2.26195 2.1504 0
M  V30 2446 N 232.062 -1.29571 -0.897171 0
M  V30 2447 C 233.287 -1.20705 -1.68656 0
M  V30 2448 C 233.712 0.228582 -1.86706 0
M  V30 2449 O 233.07 1.16494 -1.3892 0
M  V30 2450 C 233.118 -1.9282 -3.04717 0
M  V30 2451 O 232.222 -1.24697 -3.93096 0
M  V30 2452 H 231.563 -0.418126 -0.515816 0
M  V30 2453 H 234.093 -1.71183 -1.12061 0
M  V30 2454 H 234.103 -2.01372 -3.54843 0
M  V30 2455 H 232.778 -2.97239 -2.90899 0
M  V30 2456 H 231.355 -1.2442 -3.51531 0
M  V30 2457 N 233.54 1.10788 -1.12088 0
M  V30 2458 C 234.47 2.19083 -0.807755 0
M  V30 2459 C 235.451 1.6858 0.226859 0
M  V30 2460 O 236.636 1.93997 0.0888475 0
M  V30 2461 C 233.766 3.46344 -0.257576 0
M  V30 2462 C 232.72 4.101 -1.22483 0
M  V30 2463 C 232.046 5.32016 -0.535052 0
M  V30 2464 C 233.346 4.54236 -2.57811 0
M  V30 2465 H 235.04 2.45534 -1.71328 0
M  V30 2466 H 232.586 1.1801 -0.825205 0
M  V30 2467 H 234.539 4.21392 -0.0262679 0
M  V30 2468 H 233.263 3.19373 0.683278 0
M  V30 2469 H 231.922 3.37054 -1.44189 0
M  V30 2470 H 231.57 5.01319 0.410827 0
M  V30 2471 H 231.27 5.75625 -1.18024 0
M  V30 2472 H 232.794 6.09799 -0.312695 0
M  V30 2473 H 234.208 5.20575 -2.40155 0
M  V30 2474 H 232.605 5.08682 -3.18375 0
M  V30 2475 H 233.675 3.6734 -3.16528 0
M  V30 2476 N 235.018 0.912232 1.28515 0
M  V30 2477 C 235.981 0.404223 2.25607 0
M  V30 2478 C 236.981 -0.468602 1.53821 0
M  V30 2479 O 238.171 -0.271873 1.72065 0
M  V30 2480 C 235.303 -0.420653 3.38295 0
M  V30 2481 H 236.496 1.26188 2.7206 0
M  V30 2482 H 234.049 0.691495 1.40171 0
M  V30 2483 H 234.784 -1.29777 2.97201 0
M  V30 2484 H 234.569 0.204935 3.91564 0
M  V30 2485 H 236.059 -0.766971 4.10496 0
M  V30 2486 N 236.496 -1.42363 0.676048 0
M  V30 2487 C 237.742 -2.0182 0.199125 0
M  V30 2488 C 238.075 -1.53339 -1.19168 0
M  V30 2489 O 237.35 -0.736124 -1.80032 0
M  V30 2490 C 237.633 -3.59331 0.235144 0
M  V30 2491 C 237.486 -4.17989 1.66149 0
M  V30 2492 C 238.805 -4.3813 -0.41595 0
M  V30 2493 H 235.924 -0.733293 0.0738311 0
M  V30 2494 H 238.566 -1.69368 0.86107 0
M  V30 2495 H 236.716 -3.87109 -0.328487 0
M  V30 2496 H 238.388 -4.0116 2.27747 0
M  V30 2497 H 236.631 -3.7377 2.20178 0
M  V30 2498 H 237.302 -5.27126 1.63837 0
M  V30 2499 H 239.778 -4.16051 0.0638529 0
M  V30 2500 H 238.654 -5.47717 -0.360115 0
M  V30 2501 H 238.915 -4.16101 -1.49373 0
M  V30 2502 N 237.974 -0.419461 -1.51915 0
M  V30 2503 C 238.937 0.389116 -2.25873 0
M  V30 2504 C 239.937 0.964924 -1.28631 0
M  V30 2505 O 241.127 0.842179 -1.52489 0
M  V30 2506 C 238.259 1.54874 -3.03689 0
M  V30 2507 H 239.452 -0.258799 -2.98781 0
M  V30 2508 H 237.005 -0.172209 -1.55348 0
M  V30 2509 H 237.74 2.23323 -2.35154 0
M  V30 2510 H 237.525 1.14223 -3.75094 0
M  V30 2511 H 239.015 2.12046 -3.59759 0
M  V30 2512 N 239.452 1.56882 -0.150215 0
M  V30 2513 C 240.701 1.95403 0.500071 0
M  V30 2514 C 241.014 1.03777 1.658 0
M  V30 2515 O 242.22 1.31889 2.37313 0
M  V30 2516 C 240.676 3.4738 0.941018 0
M  V30 2517 C 240.284 4.47596 -0.190158 0
M  V30 2518 C 242.028 3.9476 1.56091 0
M  V30 2519 C 239.935 5.90787 0.269237 0
M  V30 2520 H 238.865 0.729515 0.190588 0
M  V30 2521 H 241.516 1.81988 -0.235074 0
M  V30 2522 H 239.898 3.56138 1.73152 0
M  V30 2523 H 241.072 4.50536 -0.967157 0
M  V30 2524 H 239.387 4.10151 -0.718666 0
M  V30 2525 H 241.984 4.99181 1.9163 0
M  V30 2526 H 242.327 3.36494 2.45107 0
M  V30 2527 H 242.86 3.88932 0.835249 0
M  V30 2528 H 239.599 6.52879 -0.585621 0
M  V30 2529 H 239.119 5.912 1.01204 0
M  V30 2530 H 240.798 6.42979 0.720176 0
M  V30 2531 N 240.93 -0.123565 1.57115 0
M  V30 2532 C 241.86 -1.15309 2.03042 0
M  V30 2533 C 242.841 -1.43454 0.914061 0
M  V30 2534 O 244.026 -1.53973 1.18347 0
M  V30 2535 C 241.156 -2.48043 2.43089 0
M  V30 2536 C 240.11 -2.3437 3.58127 0
M  V30 2537 C 239.436 -3.72026 3.84059 0
M  V30 2538 C 240.736 -1.80804 4.90007 0
M  V30 2539 H 242.43 -0.771102 2.893 0
M  V30 2540 H 239.976 -0.369479 1.39179 0
M  V30 2541 H 241.929 -3.20311 2.73823 0
M  V30 2542 H 240.653 -2.88122 1.53796 0
M  V30 2543 H 239.312 -1.64551 3.27595 0
M  V30 2544 H 238.96 -4.09582 2.91979 0
M  V30 2545 H 238.66 -3.63732 4.6149 0
M  V30 2546 H 240.184 -4.45806 4.1724 0
M  V30 2547 H 241.598 -2.42886 5.19307 0
M  V30 2548 H 239.995 -1.83343 5.71407 0
M  V30 2549 H 241.065 -0.76528 4.78823 0
M  V30 2550 N 242.408 -1.52605 -0.393616 0
M  V30 2551 C 243.657 -1.66649 -1.13627 0
M  V30 2552 C 243.97 -0.410364 -1.91247 0
M  V30 2553 O 245.176 -0.430854 -2.68059 0
M  V30 2554 C 243.632 -2.9449 -2.06891 0
M  V30 2555 C 243.24 -4.27266 -1.34714 0
M  V30 2556 C 244.984 -3.17899 -2.81319 0
M  V30 2557 C 242.891 -5.46217 -2.26717 0
M  V30 2558 H 241.821 -0.62084 -0.427871 0
M  V30 2559 H 244.472 -1.791 -0.399428 0
M  V30 2560 H 242.854 -2.75774 -2.84191 0
M  V30 2561 H 244.028 -4.56518 -0.626714 0
M  V30 2562 H 242.343 -4.10081 -0.722643 0
M  V30 2563 H 244.94 -4.03949 -3.50328 0
M  V30 2564 H 245.283 -2.32777 -3.45139 0
M  V30 2565 H 245.816 -3.37159 -2.11113 0
M  V30 2566 H 242.555 -6.33733 -1.67521 0
M  V30 2567 H 242.075 -5.21283 -2.96689 0
M  V30 2568 H 243.754 -5.7991 -2.86903 0
M  V30 2569 N 243.887 0.651787 -1.4349 0
M  V30 2570 C 245.136 1.40754 -1.44469 0
M  V30 2571 C 245.449 1.95463 -0.0731845 0
M  V30 2572 O 246.655 2.71471 0.0395721 0
M  V30 2573 C 245.111 2.54735 -2.5424 0
M  V30 2574 C 244.719 2.06628 -3.97504 0
M  V30 2575 C 246.463 3.32092 -2.64414 0
M  V30 2576 C 244.37 3.17829 -4.98737 0
M  V30 2577 H 243.3 0.528862 -0.53742 0
M  V30 2578 H 245.951 0.703365 -1.69485 0
M  V30 2579 H 244.333 3.2763 -2.22428 0
M  V30 2580 H 245.507 1.40734 -4.38783 0
M  V30 2581 H 243.822 1.42146 -3.91387 0
M  V30 2582 H 246.419 4.14952 -3.37223 0
M  V30 2583 H 246.762 3.80217 -1.69532 0
M  V30 2584 H 247.295 2.66279 -2.95534 0
M  V30 2585 H 244.034 2.74671 -5.95177 0
M  V30 2586 H 243.554 3.82429 -4.62069 0
M  V30 2587 H 245.233 3.82937 -5.21505 0
M  V30 2588 N 245.365 1.30045 0.890287 0
M  V30 2589 C 246.613 1.18327 1.63839 0
M  V30 2590 C 246.934 -0.263455 1.93212 0
M  V30 2591 O 246.204 -1.17856 1.56482 0
M  V30 2592 H 244.784 0.434933 0.607324 0
M  V30 2593 H 247.446 1.631 1.06698 0
M  V30 2594 H 246.542 1.74024 2.59079 0
M  V30 2595 N 246.843 -1.10192 1.12674 0
M  V30 2596 C 248.073 -1.85713 0.905213 0
M  V30 2597 C 248.481 -1.81056 -0.549108 0
M  V30 2598 O 247.824 -1.19927 -1.39151 0
M  V30 2599 C 247.886 -3.34972 1.30516 0
M  V30 2600 C 247.55 -3.63385 2.77129 0
M  V30 2601 C 248.547 -3.59772 3.75313 0
M  V30 2602 C 246.232 -3.91981 3.14096 0
M  V30 2603 C 248.226 -3.84354 5.08479 0
M  V30 2604 C 245.913 -4.16218 4.47443 0
M  V30 2605 C 246.911 -4.12395 5.44444 0
M  V30 2606 O 246.599 -4.36014 6.75387 0
M  V30 2607 H 246.331 -0.593719 0.323223 0
M  V30 2608 H 248.885 -1.40198 1.50112 0
M  V30 2609 H 247.115 -3.81156 0.652463 0
M  V30 2610 H 248.804 -3.91886 1.05736 0
M  V30 2611 H 249.57 -3.37716 3.48099 0
M  V30 2612 H 245.449 -3.94085 2.39202 0
M  V30 2613 H 248.993 -3.81285 5.84181 0
M  V30 2614 H 244.89 -4.37754 4.74386 0
M  V30 2615 H 245.658 -4.53516 6.8137 0
M  V30 2616 N 248.321 -0.919034 -1.28029 0
M  V30 2617 C 249.568 -0.554934 -1.94748 0
M  V30 2618 C 249.896 0.90231 -1.72304 0
M  V30 2619 O 249.151 1.65767 -1.04018 0
M  V30 2620 C 249.45 -0.816855 -3.4794 0
M  V30 2621 C 249.116 -2.25448 -3.90492 0
M  V30 2622 C 247.778 -2.64752 -4.01821 0
M  V30 2623 C 250.13 -3.18977 -4.12193 0
M  V30 2624 C 247.458 -3.96727 -4.32232 0
M  V30 2625 C 249.81 -4.50523 -4.44086 0
M  V30 2626 C 248.474 -4.89673 -4.53626 0
M  V30 2627 H 247.744 -0.203065 -0.712633 0
M  V30 2628 H 250.391 -1.16136 -1.52265 0
M  V30 2629 H 248.696 -0.127677 -3.91592 0
M  V30 2630 H 250.393 -0.514238 -3.97689 0
M  V30 2631 H 246.983 -1.93952 -3.82205 0
M  V30 2632 H 251.167 -2.89817 -4.02889 0
M  V30 2633 H 246.423 -4.26754 -4.37825 0
M  V30 2634 H 250.597 -5.23005 -4.59825 0
M  V30 2635 H 248.224 -5.91969 -4.76946 0
M  V30 2636 N 249.799 1.42003 -0.683588 0
M  V30 2637 C 251.215 1.55625 -0.353976 0
M  V30 2638 C 251.415 1.66151 1.14 0
M  V30 2639 O 250.471 1.63329 1.92561 0
M  V30 2640 C 251.784 2.80171 -1.092 0
M  V30 2641 C 253.332 2.93954 -1.07518 0
M  V30 2642 C 253.807 4.21372 -1.79471 0
M  V30 2643 N 255.298 4.28303 -1.76381 0
M  V30 2644 C 256.033 5.25729 -2.28904 0
M  V30 2645 N 255.529 6.29254 -2.89846 0
M  V30 2646 N 257.322 5.17586 -2.19228 0
M  V30 2647 H 249.473 1.33415 -1.6527 0
M  V30 2648 H 251.736 0.64282 -0.696769 0
M  V30 2649 H 251.442 2.78561 -2.14701 0
M  V30 2650 H 251.316 3.7133 -0.662862 0
M  V30 2651 H 253.703 2.95086 -0.028475 0
M  V30 2652 H 253.784 2.04002 -1.54328 0
M  V30 2653 H 253.428 4.21001 -2.84114 0
M  V30 2654 H 253.358 5.10275 -1.30104 0
M  V30 2655 H 255.849 3.54119 -1.31939 0
M  V30 2656 H 256.162 6.99964 -3.27522 0
M  V30 2657 H 254.507 6.29791 -2.93919 0
M  V30 2658 H 257.698 4.35631 -1.71299 0
M  V30 2659 H 257.871 5.93348 -2.60466 0
M  V30 2660 N 251.277 0.427512 1.51691 0
M  V30 2661 C 252.693 0.0792977 1.59403 0
M  V30 2662 C 252.893 -1.41035 1.43914 0
M  V30 2663 O 251.949 -2.17922 1.27539 0
M  V30 2664 C 253.262 0.590636 2.94842 0
M  V30 2665 C 254.81 0.550215 3.08126 0
M  V30 2666 C 255.285 1.03836 4.46074 0
M  V30 2667 N 256.776 0.995943 4.52366 0
M  V30 2668 C 257.511 1.34463 5.57411 0
M  V30 2669 N 257.007 1.76569 6.69922 0
M  V30 2670 N 258.8 1.26343 5.47717 0
M  V30 2671 H 250.951 1.39687 1.60004 0
M  V30 2672 H 253.214 0.575003 0.753708 0
M  V30 2673 H 252.92 1.63251 3.11516 0
M  V30 2674 H 252.794 0.0102061 3.77199 0
M  V30 2675 H 255.181 -0.482654 2.91126 0
M  V30 2676 H 255.262 1.16693 2.27632 0
M  V30 2677 H 254.906 2.06965 4.63819 0
M  V30 2678 H 254.836 0.398286 5.25092 0
M  V30 2679 H 257.327 0.68661 3.7161 0
M  V30 2680 H 257.64 2.01438 7.46085 0
M  V30 2681 H 255.985 1.80488 6.71155 0
M  V30 2682 H 259.176 0.933209 4.58703 0
M  V30 2683 H 259.349 1.53846 6.29472 0
M  V30 2684 N 252.755 -1.56801 0.158532 0
M  V30 2685 C 253.685 -2.20347 -0.772609 0
M  V30 2686 C 254.666 -1.15518 -1.24859 0
M  V30 2687 O 255.851 -1.43902 -1.30406 0
M  V30 2688 C 252.981 -2.83417 -2.00729 0
M  V30 2689 C 251.935 -3.94174 -1.66765 0
M  V30 2690 C 251.261 -4.44233 -2.97592 0
M  V30 2691 C 252.561 -5.14392 -0.905447 0
M  V30 2692 H 254.255 -2.98413 -0.242959 0
M  V30 2693 H 251.801 -1.43537 -0.115419 0
M  V30 2694 H 253.754 -3.26543 -2.6636 0
M  V30 2695 H 252.478 -2.02701 -2.56086 0
M  V30 2696 H 251.137 -3.51684 -1.03508 0
M  V30 2697 H 250.785 -3.60325 -3.50963 0
M  V30 2698 H 250.485 -5.18945 -2.75626 0
M  V30 2699 H 252.009 -4.90037 -3.64274 0
M  V30 2700 H 253.423 -5.5429 -1.46408 0
M  V30 2701 H 251.82 -5.9494 -0.7853 0
M  V30 2702 H 252.89 -4.84795 0.100668 0
M  V30 2703 N 254.233 0.115231 -1.57178 0
M  V30 2704 C 255.183 1.14707 -1.97044 0
M  V30 2705 C 256.167 1.36866 -0.845957 0
M  V30 2706 O 257.359 1.37895 -1.10968 0
M  V30 2707 C 254.488 2.47266 -2.38148 0
M  V30 2708 C 253.574 2.28566 -3.57237 0
M  V30 2709 N 253.965 1.79685 -4.72807 0
M  V30 2710 C 252.263 2.59208 -3.62943 0
M  V30 2711 C 252.964 1.74781 -5.54821 0
M  V30 2712 N 251.94 2.19264 -4.97417 0
M  V30 2713 H 255.742 0.761754 -2.83857 0
M  V30 2714 H 253.256 0.322928 -1.59157 0
M  V30 2715 H 255.253 3.219 -2.64927 0
M  V30 2716 H 253.913 2.86552 -1.52702 0
M  V30 2717 H 254.924 1.49177 -4.9595 0
M  V30 2718 H 251.601 3.02154 -2.88113 0
M  V30 2719 H 252.991 1.38212 -6.57531 0
M  V30 2720 N 255.711 1.52812 0.385517 0
M  V30 2721 C 256.951 1.69716 1.13911 0
M  V30 2722 C 257.315 0.42962 1.87132 0
M  V30 2723 O 258.516 0.475071 2.64569 0
M  V30 2724 C 256.787 2.90021 2.0886 0
M  V30 2725 S 258.346 3.27531 2.92009 0
M  V30 2726 H 255.164 0.59739 0.385547 0
M  V30 2727 H 257.766 1.90868 0.423061 0
M  V30 2728 H 256.47 3.80493 1.53797 0
M  V30 2729 H 256.001 2.71213 2.84969 0
M  V30 2730 H 258.016 2.77989 4.11019 0
M  V30 2731 N 257.189 -0.644168 1.43834 0
M  V30 2732 C 258.417 -1.43147 1.49387 0
M  V30 2733 C 258.832 -1.88452 0.114583 0
M  V30 2734 O 258.189 -1.60047 -0.876989 0
M  V30 2735 C 258.24 -2.66046 2.44748 0
M  V30 2736 O 257.961 -2.22633 3.77314 0
M  V30 2737 C 259.462 -3.59311 2.59635 0
M  V30 2738 H 256.682 -0.439447 0.507077 0
M  V30 2739 H 259.226 -0.78895 1.88669 0
M  V30 2740 H 257.381 -3.26418 2.08638 0
M  V30 2741 H 257.795 -3.02216 4.28679 0
M  V30 2742 H 259.269 -4.42187 3.30416 0
M  V30 2743 H 259.746 -4.07259 1.64427 0
M  V30 2744 H 260.352 -3.04816 2.96593 0
M  V30 2745 N 258.668 -1.30515 -0.883378 0
M  V30 2746 C 260.084 -1.08881 -1.16692 0
M  V30 2747 C 260.284 0.149409 -2.00945 0
M  V30 2748 O 259.34 0.84257 -2.38027 0
M  V30 2749 C 260.653 -2.35319 -1.87204 0
M  V30 2750 C 262.201 -2.40799 -1.99962 0
M  V30 2751 C 262.676 -3.67083 -2.73887 0
M  V30 2752 N 264.167 -3.679 -2.81432 0
M  V30 2753 C 264.902 -4.62303 -3.3921 0
M  V30 2754 N 264.398 -5.67052 -3.98025 0
M  V30 2755 N 266.191 -4.49845 -3.3704 0
M  V30 2756 H 258.342 -2.09951 -0.321633 0
M  V30 2757 H 260.605 -0.92556 -0.205043 0
M  V30 2758 H 260.311 -3.25689 -1.3274 0
M  V30 2759 H 260.185 -2.44089 -2.87577 0
M  V30 2760 H 262.572 -1.50907 -2.53597 0
M  V30 2761 H 262.653 -2.36003 -0.98673 0
M  V30 2762 H 262.297 -4.57334 -2.20925 0
M  V30 2763 H 262.227 -3.69141 -3.75556 0
M  V30 2764 H 264.718 -2.92171 -2.39676 0
M  V30 2765 H 265.031 -6.35184 -4.40183 0
M  V30 2766 H 263.376 -5.70842 -3.96439 0
M  V30 2767 H 266.567 -3.67194 -2.90321 0
M  V30 2768 H 266.74 -5.23597 -3.81772 0
M  V30 2769 N 260.146 1.09593 -1.13257 0
M  V30 2770 C 261.094 2.18271 -0.803783 0
M  V30 2771 C 262.088 1.68054 0.213148 0
M  V30 2772 O 263.294 1.79862 0.0704699 0
M  V30 2773 H 259.669 0.711949 -0.242143 0
M  V30 2774 H 261.64 2.43235 -1.72856 0
M  V30 2775 C 260.389 3.46536 -0.28424 0
M  V30 2776 H 259.712 3.85545 -1.05807 0
M  V30 2777 H 261.152 4.23899 -0.0925945 0
M  V30 2778 C 259.611 3.22036 0.989684 0
M  V30 2779 O 260.141 3.44509 2.06584 0
M  V30 2780 N 258.347 2.7565 0.920086 0
M  V30 2781 H 257.894 2.57562 0.0442019 0
M  V30 2782 H 257.852 2.59635 1.77306 0
M  V30 2783 N 261.624 0.925811 1.2754 0
M  V30 2784 C 262.854 0.580666 1.98272 0
M  V30 2785 C 263.262 -0.845207 1.69272 0
M  V30 2786 O 262.605 -1.57306 0.948707 0
M  V30 2787 C 262.667 0.724418 3.52126 0
M  V30 2788 C 262.331 2.12206 4.04744 0
M  V30 2789 C 263.328 3.09604 4.17662 0
M  V30 2790 C 261.013 2.4385 4.39138 0
M  V30 2791 C 263.007 4.36755 4.64246 0
M  V30 2792 C 260.694 3.71237 4.85414 0
M  V30 2793 C 261.692 4.67503 4.97926 0
M  V30 2794 O 261.38 5.92624 5.43187 0
M  V30 2795 H 261.112 0.218987 0.639547 0
M  V30 2796 H 263.666 1.24452 1.63404 0
M  V30 2797 H 261.896 0.0034663 3.867 0
M  V30 2798 H 263.585 0.384607 4.04074 0
M  V30 2799 H 264.351 2.86478 3.91351 0
M  V30 2800 H 260.23 1.69665 4.28643 0
M  V30 2801 H 263.774 5.11898 4.73927 0
M  V30 2802 H 259.671 3.94182 5.11166 0
M  V30 2803 H 260.439 5.95585 5.61445 0
M  V30 2804 N 263.102 -1.41638 0.69111 0
M  V30 2805 C 264.351 -2.00526 0.217318 0
M  V30 2806 C 264.664 -1.55353 -1.18848 0
M  V30 2807 O 265.87 -2.06769 -1.75951 0
M  V30 2808 C 264.326 -3.58313 0.337639 0
M  V30 2809 C 263.934 -4.12469 1.74852 0
M  V30 2810 C 265.678 -4.24431 -0.0766066 0
M  V30 2811 C 263.585 -5.62675 1.82074 0
M  V30 2812 H 262.515 -0.750008 0.0774893 0
M  V30 2813 H 265.166 -1.6217 0.858661 0
M  V30 2814 H 263.548 -3.9425 -0.371879 0
M  V30 2815 H 264.722 -3.8796 2.48644 0
M  V30 2816 H 263.037 -3.58861 2.11205 0
M  V30 2817 H 265.634 -5.34683 -0.0430284 0
M  V30 2818 H 265.977 -4.01101 -1.1146 0
M  V30 2819 H 266.51 -3.93512 0.582476 0
M  V30 2820 H 263.249 -5.90826 2.83911 0
M  V30 2821 H 262.769 -5.89124 1.12661 0
M  V30 2822 H 264.448 -6.27371 1.58159 0
M  V30 2823 N 264.58 -0.43555 -1.51462 0
M  V30 2824 C 265.53 0.394701 -2.24558 0
M  V30 2825 C 266.514 0.99157 -1.26715 0
M  V30 2826 O 267.706 0.910007 -1.51815 0
M  V30 2827 C 264.835 1.4963 -3.08975 0
M  V30 2828 C 263.921 0.908912 -4.14246 0
M  V30 2829 N 264.312 0.0505335 -5.05775 0
M  V30 2830 C 262.61 1.17668 -4.30198 0
M  V30 2831 C 263.311 -0.279161 -5.8103 0
M  V30 2832 N 262.287 0.336767 -5.42556 0
M  V30 2833 H 266.089 -0.267106 -2.92684 0
M  V30 2834 H 263.603 -0.247518 -1.60503 0
M  V30 2835 H 265.6 2.10394 -3.59917 0
M  V30 2836 H 264.26 2.16046 -2.42393 0
M  V30 2837 H 265.271 -0.31577 -5.16936 0
M  V30 2838 H 261.948 1.83847 -3.74842 0
M  V30 2839 H 263.338 -0.977553 -6.64751 0
M  V30 2840 N 266.058 1.56714 -0.166846 0
M  V30 2841 C 266.991 2.13577 0.80375 0
M  V30 2842 C 267.969 1.06464 1.22899 0
M  V30 2843 O 269.153 1.34413 1.32157 0
M  V30 2844 C 266.28 2.67168 2.0818 0
M  V30 2845 C 265.326 3.86612 1.80093 0
M  V30 2846 S 266.159 5.26565 0.97416 0
M  V30 2847 C 267.315 5.83558 2.26297 0
M  V30 2848 H 267.548 2.9557 0.320267 0
M  V30 2849 H 265.081 1.54326 0.0477555 0
M  V30 2850 H 267.039 2.98692 2.8159 0
M  V30 2851 H 265.7 1.85269 2.53642 0
M  V30 2852 H 264.893 4.22422 2.7491 0
M  V30 2853 H 264.495 3.55951 1.14781 0
M  V30 2854 H 266.787 5.962 3.21795 0
M  V30 2855 H 267.73 6.80731 1.94962 0
M  V30 2856 H 268.138 5.11944 2.37853 0
M  V30 2857 N 267.536 -0.106894 1.57237 0
M  V30 2858 C 268.486 -1.1366 1.9765 0
M  V30 2859 C 269.47 -1.36416 0.853203 0
M  V30 2860 O 270.662 -1.37305 1.11697 0
M  V30 2861 C 267.791 -2.46 2.39455 0
M  V30 2862 C 266.877 -2.26668 3.58445 0
M  V30 2863 N 267.268 -1.77176 4.73754 0
M  V30 2864 C 265.566 -2.57279 3.64312 0
M  V30 2865 C 266.267 -1.71836 5.5574 0
M  V30 2866 N 265.243 -2.16623 4.98573 0
M  V30 2867 H 269.045 -0.74669 2.84256 0
M  V30 2868 H 266.559 -0.314483 1.59326 0
M  V30 2869 H 268.556 -3.2049 2.6663 0
M  V30 2870 H 267.216 -2.85738 1.54219 0
M  V30 2871 H 268.227 -1.46545 4.96734 0
M  V30 2872 H 264.904 -3.00622 2.89711 0
M  V30 2873 H 266.294 -1.34723 6.58255 0
M  V30 2874 N 269.014 -1.53014 -0.377408 0
M  V30 2875 C 269.944 -1.81589 -1.46791 0
M  V30 2876 C 270.925 -0.668622 -1.56408 0
M  V30 2877 O 272.11 -0.917337 -1.71168 0
M  V30 2878 C 269.24 -1.99519 -2.8427 0
M  V30 2879 C 268.194 -3.15249 -2.89486 0
M  V30 2880 C 267.52 -3.18451 -4.29527 0
M  V30 2881 C 268.82 -4.54084 -2.58079 0
M  V30 2882 H 270.514 -2.7291 -1.23127 0
M  V30 2883 H 268.06 -1.31319 -0.590883 0
M  V30 2884 H 270.013 -2.18092 -3.60575 0
M  V30 2885 H 268.737 -1.04897 -3.09296 0
M  V30 2886 H 267.396 -2.96477 -2.15631 0
M  V30 2887 H 267.044 -2.2149 -4.5161 0
M  V30 2888 H 266.744 -3.962 -4.33934 0
M  V30 2889 H 268.268 -3.39193 -5.07721 0
M  V30 2890 H 269.682 -4.72899 -3.24098 0
M  V30 2891 H 268.079 -5.33987 -2.7382 0
M  V30 2892 H 269.149 -4.60006 -1.53372 0
M  V30 2893 N 270.492 0.636531 -1.44174 0
M  V30 2894 C 271.739 1.39619 -1.46672 0
M  V30 2895 C 272.067 1.94257 -0.0972691 0
M  V30 2896 O 271.322 1.73768 0.900175 0
M  V30 2897 C 271.621 2.58309 -2.47005 0
M  V30 2898 C 271.287 2.21992 -3.92467 0
M  V30 2899 C 269.949 2.118 -4.32081 0
M  V30 2900 C 272.301 1.9321 -4.84065 0
M  V30 2901 C 269.629 1.71007 -5.61225 0
M  V30 2902 C 271.981 1.53911 -6.13591 0
M  V30 2903 C 270.645 1.42257 -6.52165 0
M  V30 2904 H 269.915 0.510902 -0.536712 0
M  V30 2905 H 272.562 0.722328 -1.77355 0
M  V30 2906 H 270.867 3.30903 -2.09786 0
M  V30 2907 H 272.564 3.16533 -2.46186 0
M  V30 2908 H 269.154 2.30841 -3.61124 0
M  V30 2909 H 273.338 1.99997 -4.54219 0
M  V30 2910 H 268.594 1.60583 -5.89935 0
M  V30 2911 H 272.768 1.30677 -6.8403 0
M  V30 2912 H 270.395 1.10419 -7.52138 0
M  V30 2913 N 271.97 1.30982 0.876444 0
M  V30 2914 C 273.216 1.20474 1.63138 0
M  V30 2915 C 273.549 -0.238096 1.92735 0
M  V30 2916 O 272.824 -1.1692 1.55435 0
M  V30 2917 C 273.107 2.04244 2.96574 0
M  V30 2918 C 272.96 3.56793 2.73896 0
M  V30 2919 C 274.279 1.88684 3.97601 0
M  V30 2920 H 271.398 0.439001 0.591985 0
M  V30 2921 H 274.04 1.60704 1.01361 0
M  V30 2922 H 272.19 1.70063 3.493 0
M  V30 2923 H 273.862 4.01077 2.27892 0
M  V30 2924 H 272.105 3.80548 2.08245 0
M  V30 2925 H 272.776 4.10706 3.68815 0
M  V30 2926 H 275.252 2.18584 3.54062 0
M  V30 2927 H 274.128 2.4961 4.88862 0
M  V30 2928 H 274.389 0.848343 4.33884 0
M  V30 2929 N 273.449 -1.08991 1.13837 0
M  V30 2930 C 274.674 -1.85551 0.926585 0
M  V30 2931 C 275.099 -1.80782 -0.519566 0
M  V30 2932 O 274.457 -1.18855 -1.36906 0
M  V30 2933 C 274.505 -3.31266 1.42462 0
M  V30 2934 O 273.609 -4.07822 0.612789 0
M  V30 2935 H 272.95 -0.575192 0.331738 0
M  V30 2936 H 275.48 -1.37604 1.51414 0
M  V30 2937 H 275.49 -3.82112 1.43019 0
M  V30 2938 H 274.165 -3.34052 2.47754 0
M  V30 2939 H 272.742 -3.66731 0.675463 0
M  V30 2940 N 274.927 -0.932562 -1.27047 0
M  V30 2941 C 276.174 -0.575559 -1.94148 0
M  V30 2942 C 276.502 0.883984 -1.73251 0
M  V30 2943 O 275.757 1.64655 -1.0577 0
M  V30 2944 C 276.056 -0.853713 -3.47054 0
M  V30 2945 C 275.722 -2.29577 -3.88079 0
M  V30 2946 C 274.384 -2.68999 -3.9899 0
M  V30 2947 C 276.736 -3.23331 -4.08787 0
M  V30 2948 C 274.064 -4.01289 -4.28 0
M  V30 2949 C 276.416 -4.55207 -4.39282 0
M  V30 2950 C 275.08 -4.94457 -4.48407 0
M  V30 2951 H 274.35 -0.210612 -0.710439 0
M  V30 2952 H 276.997 -1.17744 -1.51025 0
M  V30 2953 H 275.302 -0.169204 -3.91434 0
M  V30 2954 H 276.999 -0.55639 -3.97121 0
M  V30 2955 H 273.589 -1.97994 -3.80127 0
M  V30 2956 H 277.773 -2.94074 -3.99793 0
M  V30 2957 H 273.029 -4.31374 -4.33275 0
M  V30 2958 H 277.203 -5.27852 -4.54252 0
M  V30 2959 H 274.83 -5.96994 -4.7064 0
M  V30 2960 N 276.405 1.4127 -0.698611 0
M  V30 2961 C 277.338 2.28195 0.0153898 0
M  V30 2962 C 278.316 1.42402 0.784883 0
M  V30 2963 O 279.5 1.71828 0.775067 0
M  V30 2964 C 276.627 3.22685 1.02918 0
M  V30 2965 C 275.673 4.25041 0.352501 0
M  V30 2966 S 276.506 5.27757 -0.907322 0
M  V30 2967 C 277.662 6.25812 0.104796 0
M  V30 2968 H 277.895 2.88403 -0.721858 0
M  V30 2969 H 275.428 1.46452 -0.488996 0
M  V30 2970 H 277.386 3.77655 1.60893 0
M  V30 2971 H 276.047 2.61566 1.73902 0
M  V30 2972 H 275.24 4.91437 1.11828 0
M  V30 2973 H 274.842 3.73682 -0.154254 0
M  V30 2974 H 277.134 6.70705 0.957103 0
M  V30 2975 H 278.077 7.06149 -0.525323 0
M  V30 2976 H 278.485 5.62615 0.460931 0
M  V30 2977 N 277.883 0.443576 1.51229 0
M  V30 2978 C 278.813 -0.355142 2.30783 0
M  V30 2979 C 279.794 -1.0154 1.36468 0
M  V30 2980 O 280.979 -1.01785 1.65389 0
M  V30 2981 C 278.109 -1.45312 3.15439 0
M  V30 2982 C 277.063 -0.916002 4.18083 0
M  V30 2983 C 276.389 -2.1102 4.91299 0
M  V30 2984 C 277.689 0.0538602 5.22272 0
M  V30 2985 H 279.383 0.308767 2.97804 0
M  V30 2986 H 276.929 0.149937 1.43217 0
M  V30 2987 H 278.882 -2.01914 3.69876 0
M  V30 2988 H 277.606 -2.14541 2.46252 0
M  V30 2989 H 276.265 -0.372145 3.64706 0
M  V30 2990 H 275.913 -2.78882 4.18609 0
M  V30 2991 H 275.613 -1.75717 5.60712 0
M  V30 2992 H 277.137 -2.68164 5.48562 0
M  V30 2993 H 278.551 -0.422069 5.71744 0
M  V30 2994 H 276.948 0.319776 5.99247 0
M  V30 2995 H 278.018 0.98858 4.74716 0
M  V30 2996 N 279.361 -1.56624 0.175154 0
M  V30 2997 C 280.777 -1.58571 -0.180966 0
M  V30 2998 C 280.977 -1.19065 -1.6256 0
M  V30 2999 O 280.033 -0.904044 -2.35761 0
M  V30 3000 C 281.346 -3.00522 0.103326 0
M  V30 3001 C 282.894 -3.12972 0.0418426 0
M  V30 3002 C 283.369 -4.57022 0.299175 0
M  V30 3003 N 284.86 -4.62541 0.247086 0
M  V30 3004 C 285.595 -5.71857 0.420318 0
M  V30 3005 N 285.091 -6.89717 0.652816 0
M  V30 3006 N 286.884 -5.60972 0.355957 0
M  V30 3007 H 279.035 -1.80589 1.11809 0
M  V30 3008 H 281.298 -0.837178 0.444788 0
M  V30 3009 H 281.004 -3.33916 1.10422 0
M  V30 3010 H 280.878 -3.72344 -0.603299 0
M  V30 3011 H 283.265 -2.79403 -0.949636 0
M  V30 3012 H 283.346 -2.43578 0.781238 0
M  V30 3013 H 282.99 -4.913 1.28788 0
M  V30 3014 H 282.92 -5.24579 -0.460876 0
M  V30 3015 H 285.411 -3.77829 0.0731895 0
M  V30 3016 H 285.724 -7.68911 0.774347 0
M  V30 3017 H 284.069 -6.91572 0.689476 0
M  V30 3018 H 287.26 -4.67773 0.174882 0
M  V30 3019 H 287.433 -6.46111 0.494388 0
M  V30 3020 N 280.839 0.0985539 -1.57292 0
M  V30 3021 C 281.802 1.10402 -2.00858 0
M  V30 3022 C 282.802 1.33146 -0.901593 0
M  V30 3023 O 283.992 1.29318 -1.16716 0
M  V30 3024 C 281.124 2.45394 -2.36632 0
M  V30 3025 H 282.317 0.729099 -2.90902 0
M  V30 3026 H 279.87 0.343495 -1.52479 0
M  V30 3027 H 280.605 2.87769 -1.49531 0
M  V30 3028 H 280.39 2.30235 -3.17387 0
M  V30 3029 H 281.88 3.17718 -2.71007 0
M  V30 3030 N 282.317 1.53212 0.369288 0
M  V30 3031 C 283.545 1.73119 1.13303 0
M  V30 3032 C 283.96 0.458455 1.83149 0
M  V30 3033 O 283.317 -0.568403 1.73423 0
M  V30 3034 C 283.368 2.89413 2.16616 0
M  V30 3035 O 283.089 4.11761 1.49614 0
M  V30 3036 C 284.59 3.21161 3.05566 0
M  V30 3037 H 281.81 0.579107 0.338934 0
M  V30 3038 H 284.354 1.99942 0.429338 0
M  V30 3039 H 282.509 2.64994 2.82589 0
M  V30 3040 H 282.923 4.76858 2.18419 0
M  V30 3041 H 284.397 4.05949 3.74045 0
M  V30 3042 H 284.874 2.36369 3.70171 0
M  V30 3043 H 285.48 3.47492 2.45213 0
M  V30 3044 N 283.795 -0.628877 1.44509 0
M  V30 3045 C 285.02 -1.42048 1.5112 0
M  V30 3046 C 285.445 -1.87594 0.137818 0
M  V30 3047 O 284.803 -1.58873 -0.873437 0
M  V30 3048 C 284.851 -2.61541 2.48251 0
M  V30 3049 O 283.955 -3.61453 1.98559 0
M  V30 3050 H 283.296 -0.424942 0.510216 0
M  V30 3051 H 285.826 -0.767374 1.89664 0
M  V30 3052 H 285.836 -3.09057 2.66361 0
M  V30 3053 H 284.511 -2.27736 3.48007 0
M  V30 3054 H 283.088 -3.20731 1.90227 0
M  V30 3055 N 285.273 -1.31445 -0.869486 0
M  V30 3056 C 286.522 -1.20517 -1.61736 0
M  V30 3057 C 286.835 0.235341 -1.94179 0
M  V30 3058 O 288.041 0.466312 -2.67465 0
M  V30 3059 C 286.497 -2.10982 -2.91573 0
M  V30 3060 C 286.105 -3.60032 -2.66611 0
M  V30 3061 C 287.849 -2.08856 -3.69567 0
M  V30 3062 C 285.756 -4.42503 -3.92358 0
M  V30 3063 H 284.686 -0.447493 -0.606849 0
M  V30 3064 H 287.337 -1.56303 -0.96133 0
M  V30 3065 H 285.719 -1.68095 -3.58553 0
M  V30 3066 H 286.893 -4.11167 -2.08035 0
M  V30 3067 H 285.208 -3.64139 -2.0197 0
M  V30 3068 H 287.805 -2.67716 -4.62852 0
M  V30 3069 H 288.148 -1.07582 -4.02159 0
M  V30 3070 H 288.681 -2.49945 -3.09471 0
M  V30 3071 H 285.42 -5.44533 -3.64916 0
M  V30 3072 H 284.94 -3.96125 -4.50383 0
M  V30 3073 H 286.619 -4.54741 -4.60238 0
M  V30 3074 N 286.751 1.08385 -1.14413 0
M  V30 3075 C 287.998 1.80776 -0.912482 0
M  V30 3076 C 288.326 1.86236 0.560934 0
M  V30 3077 O 287.581 1.33431 1.43159 0
M  V30 3078 C 287.88 3.26273 -1.45879 0
M  V30 3079 C 287.546 3.4093 -2.95089 0
M  V30 3080 C 286.208 3.44638 -3.35824 0
M  V30 3081 C 288.56 3.44591 -3.91033 0
M  V30 3082 C 285.888 3.49597 -4.71167 0
M  V30 3083 C 288.24 3.51086 -5.26233 0
M  V30 3084 C 286.904 3.53067 -5.6648 0
M  V30 3085 H 286.174 0.661507 -0.333901 0
M  V30 3086 H 288.821 1.27613 -1.42784 0
M  V30 3087 H 287.126 3.82146 -0.864376 0
M  V30 3088 H 288.823 3.80839 -1.2555 0
M  V30 3089 H 285.413 3.38736 -2.62594 0
M  V30 3090 H 289.597 3.40957 -3.60641 0
M  V30 3091 H 284.853 3.49424 -5.0171 0
M  V30 3092 H 289.027 3.52864 -6.00383 0
M  V30 3093 H 286.654 3.56662 -6.71339 0
M  V30 3094 N 288.23 0.939286 1.26551 0
M  V30 3095 C 289.476 0.586715 1.94128 0
M  V30 3096 C 289.809 -0.8717 1.73537 0
M  V30 3097 O 289.084 -1.62339 1.07127 0
M  V30 3098 C 289.367 0.927497 3.4795 0
M  V30 3099 C 289.22 2.44052 3.77834 0
M  V30 3100 C 290.539 0.441569 4.37879 0
M  V30 3101 H 287.658 0.21463 0.705055 0
M  V30 3102 H 290.3 1.17316 1.49455 0
M  V30 3103 H 288.45 0.428431 3.8613 0
M  V30 3104 H 290.122 3.01216 3.4938 0
M  V30 3105 H 288.365 2.8848 3.23978 0
M  V30 3106 H 289.036 2.62947 4.85348 0
M  V30 3107 H 291.512 0.869448 4.06915 0
M  V30 3108 H 290.388 0.708856 5.44304 0
M  V30 3109 H 290.649 -0.658467 4.37169 0
M  V30 3110 N 289.708 -1.40897 0.706093 0
M  V30 3111 C 290.655 -2.30751 0.0474474 0
M  V30 3112 C 291.625 -1.47678 -0.76029 0
M  V30 3113 O 292.81 -1.76441 -0.726177 0
M  V30 3114 C 289.95 -3.33815 -0.875309 0
M  V30 3115 C 289.063 -4.31961 -0.0580623 0
M  V30 3116 C 288.198 -5.22093 -0.979425 0
M  V30 3117 C 287.237 -6.11902 -0.155706 0
M  V30 3118 N 286.374 -6.94482 -1.03144 0
M  V30 3119 H 291.214 -2.86513 0.819413 0
M  V30 3120 H 288.751 -1.41102 0.415783 0
M  V30 3121 H 290.709 -3.92129 -1.42446 0
M  V30 3122 H 289.339 -2.79579 -1.61356 0
M  V30 3123 H 288.391 -3.75507 0.608147 0
M  V30 3124 H 289.703 -4.95415 0.580082 0
M  V30 3125 H 288.857 -5.85292 -1.59744 0
M  V30 3126 H 287.596 -4.5889 -1.65141 0
M  V30 3127 H 286.601 -5.47742 0.475309 0
M  V30 3128 H 287.826 -6.77162 0.512635 0
M  V30 3129 H 285.772 -6.33877 -1.68924 0
M  V30 3130 H 285.689 -7.54665 -0.449108 0
M  V30 3131 H 286.957 -7.6214 -1.63593 0
M  V30 3132 N 291.186 -0.45159 -1.50991 0
M  V30 3133 C 292.463 0.170707 -1.94854 0
M  V30 3134 C 292.843 1.58788 -1.39103 0
M  V30 3135 O 292.191 2.20913 -0.583921 0
M  V30 3136 C 292.401 0.133929 -3.48743 0
M  V30 3137 C 293.749 0.33248 -4.23296 0
M  V30 3138 O 294.773 0.211403 -3.55572 0
M  V30 3139 O 293.632 0.57486 -5.43468 0
M  V30 3140 H 290.726 0.122264 -0.817912 0
M  V30 3141 H 293.272 -0.510594 -1.61836 0
M  V30 3142 H 292.044 -0.856283 -3.81816 0
M  V30 3143 H 291.667 0.857529 -3.88242 0
M  V30 3144 N 292.664 1.56529 -0.183458 0
M  V30 3145 C 294.08 1.58664 0.172554 0
M  V30 3146 C 294.28 1.19925 1.61926 0
M  V30 3147 O 293.336 0.916534 2.35278 0
M  V30 3148 C 294.649 3.00463 -0.119262 0
M  V30 3149 C 296.197 3.12945 -0.0584396 0
M  V30 3150 C 296.672 4.56857 -0.323408 0
M  V30 3151 N 298.163 4.62403 -0.271612 0
M  V30 3152 C 298.898 5.71626 -0.450639 0
M  V30 3153 N 298.394 6.89362 -0.689384 0
M  V30 3154 N 300.187 5.60775 -0.385701 0
M  V30 3155 H 292.338 1.79994 -1.12765 0
M  V30 3156 H 294.601 0.834808 -0.449222 0
M  V30 3157 H 294.307 3.33326 -1.12192 0
M  V30 3158 H 294.181 3.72659 0.583544 0
M  V30 3159 H 296.568 2.79902 0.934805 0
M  V30 3160 H 296.649 2.4316 -0.794144 0
M  V30 3161 H 296.293 4.9061 -1.31392 0
M  V30 3162 H 296.223 5.24816 0.43305 0
M  V30 3163 H 298.714 3.77785 -0.0932256 0
M  V30 3164 H 299.027 7.68489 -0.815113 0
M  V30 3165 H 297.372 6.91196 -0.726142 0
M  V30 3166 H 300.563 4.67674 -0.199687 0
M  V30 3167 H 300.736 6.4584 -0.528646 0
M  V30 3168 N 294.142 -0.090211 1.57342 0
M  V30 3169 C 295.388 -0.793982 1.86611 0
M  V30 3170 C 295.721 -1.78142 0.773252 0
M  V30 3171 O 294.996 -1.93271 -0.218304 0
M  V30 3172 C 295.279 -1.51839 3.26523 0
M  V30 3173 C 295.132 -0.548609 4.46442 0
M  V30 3174 C 296.451 -2.46779 3.64401 0
M  V30 3175 H 293.57 -0.287186 0.678744 0
M  V30 3176 H 296.212 -0.0575076 1.89913 0
M  V30 3177 H 294.362 -2.14617 3.23839 0
M  V30 3178 H 296.034 0.0725513 4.61243 0
M  V30 3179 H 294.277 0.137614 4.33582 0
M  V30 3180 H 294.948 -1.09271 5.41076 0
M  V30 3181 H 297.424 -1.94089 3.68061 0
M  V30 3182 H 296.3 -2.94479 4.63221 0
M  V30 3183 H 296.561 -3.30758 2.93346 0
M  V30 3184 N 295.62 -1.53406 -0.361157 0
M  V30 3185 C 296.866 -1.70054 -1.10496 0
M  V30 3186 C 297.199 -0.453278 -1.88836 0
M  V30 3187 O 296.474 0.5495 -1.86576 0
M  V30 3188 C 296.757 -2.95317 -2.06058 0
M  V30 3189 C 296.61 -4.3021 -1.31298 0
M  V30 3190 C 297.929 -3.16193 -3.06121 0
M  V30 3191 H 295.048 -0.618799 -0.400321 0
M  V30 3192 H 297.69 -1.86052 -0.385318 0
M  V30 3193 H 295.84 -2.81809 -2.67425 0
M  V30 3194 H 297.512 -4.55538 -0.726807 0
M  V30 3195 H 295.755 -4.29421 -0.614853 0
M  V30 3196 H 296.426 -5.14 -2.01265 0
M  V30 3197 H 298.902 -3.28916 -2.5486 0
M  V30 3198 H 297.778 -4.05266 -3.70204 0
M  V30 3199 H 298.039 -2.31676 -3.76535 0
M  V30 3200 N 297.098 0.621204 -1.44841 0
M  V30 3201 C 298.048 1.72663 -1.48901 0
M  V30 3202 C 299.032 1.56964 -0.353702 0
M  V30 3203 O 300.224 1.66532 -0.599669 0
M  V30 3204 C 297.353 3.11381 -1.44557 0
M  V30 3205 C 296.439 3.32514 -2.6324 0
M  V30 3206 N 296.83 3.23969 -3.8843 0
M  V30 3207 C 295.128 3.63343 -2.58647 0
M  V30 3208 C 295.829 3.46062 -4.67564 0
M  V30 3209 N 294.805 3.69407 -3.98797 0
M  V30 3210 H 298.607 1.64529 -2.43531 0
M  V30 3211 H 296.121 0.82401 -1.39942 0
M  V30 3212 H 298.118 3.90667 -1.4555 0
M  V30 3213 H 296.778 3.20674 -0.509731 0
M  V30 3214 H 297.789 3.02669 -4.20252 0
M  V30 3215 H 294.466 3.79556 -1.73906 0
M  V30 3216 H 295.856 3.44963 -5.76585 0
M  V30 3217 N 298.576 1.31904 0.862503 0
M  V30 3218 C 299.539 1.20131 1.95195 0
M  V30 3219 C 300.539 0.126409 1.60302 0
M  V30 3220 O 301.729 0.376234 1.70089 0
M  V30 3221 C 298.861 0.845691 3.30244 0
M  V30 3222 H 300.054 2.16943 2.07064 0
M  V30 3223 H 297.607 1.15622 1.05172 0
M  V30 3224 H 298.342 -0.120957 3.24074 0
M  V30 3225 H 298.127 1.62276 3.56944 0
M  V30 3226 H 299.617 0.787418 4.10109 0
M  V30 3227 N 300.054 -1.07777 1.14986 0
M  V30 3228 C 301.004 -2.13082 0.811181 0
M  V30 3229 C 301.988 -1.59619 -0.202597 0
M  V30 3230 O 303.18 -1.77 -0.00398275 0
M  V30 3231 C 300.309 -3.42009 0.297439 0
M  V30 3232 C 299.395 -4.02337 1.34112 0
M  V30 3233 N 299.786 -4.36982 2.54716 0
M  V30 3234 C 298.084 -4.29752 1.19285 0
M  V30 3235 C 298.785 -4.84729 3.21578 0
M  V30 3236 N 297.761 -4.83233 2.48972 0
M  V30 3237 H 301.563 -2.37696 1.72853 0
M  V30 3238 H 299.077 -1.25173 1.03468 0
M  V30 3239 H 301.074 -4.16884 0.0364777 0
M  V30 3240 H 299.734 -3.18841 -0.614022 0
M  V30 3241 H 300.745 -4.27807 2.91894 0
M  V30 3242 H 297.422 -4.16106 0.340926 0
M  V30 3243 H 298.812 -5.20863 4.24442 0
M  V30 3244 N 301.532 -0.945985 -1.26051 0
M  V30 3245 C 302.781 -0.591836 -1.92822 0
M  V30 3246 C 303.094 0.873956 -1.7499 0
M  V30 3247 O 304.3 1.33769 -2.36259 0
M  V30 3248 C 302.756 -1.00776 -3.45503 0
M  V30 3249 C 302.364 -2.4955 -3.7206 0
M  V30 3250 C 304.108 -0.725735 -4.1825 0
M  V30 3251 C 302.015 -2.84988 -5.18205 0
M  V30 3252 H 300.945 -0.217635 -0.721908 0
M  V30 3253 H 303.596 -1.14927 -1.43052 0
M  V30 3254 H 301.978 -0.378812 -3.94184 0
M  V30 3255 H 303.152 -3.1739 -3.34066 0
M  V30 3256 H 301.467 -2.75133 -3.12555 0
M  V30 3257 H 304.064 -0.966771 -5.25887 0
M  V30 3258 H 304.407 0.337639 -4.14929 0
M  V30 3259 H 304.94 -1.31463 -3.7545 0
M  V30 3260 H 301.679 -3.90307 -5.26631 0
M  V30 3261 H 301.199 -2.21813 -5.57278 0
M  V30 3262 H 302.878 -2.73712 -5.86252 0
M  V30 3263 N 303.011 1.40521 -0.713556 0
M  V30 3264 C 304.259 2.00527 -0.251692 0
M  V30 3265 C 304.58 1.56857 1.15848 0
M  V30 3266 O 303.85 0.807127 1.785 0
M  V30 3267 H 302.43 0.741551 -0.0900646 0
M  V30 3268 H 305.092 1.71887 -0.918733 0
M  V30 3269 H 304.188 3.10813 -0.283192 0
M  V30 3270 N 304.489 0.459591 1.5075 0
M  V30 3271 C 305.735 -0.0994966 2.02556 0
M  V30 3272 C 306.068 -1.40399 1.3417 0
M  V30 3273 O 305.343 -1.88892 0.463683 0
M  V30 3274 C 305.626 -0.295242 3.58888 0
M  V30 3275 C 305.479 1.02947 4.37861 0
M  V30 3276 C 306.798 -1.05502 4.27267 0
M  V30 3277 H 303.917 -0.034686 0.736183 0
M  V30 3278 H 306.559 0.602938 1.8018 0
M  V30 3279 H 304.709 -0.893563 3.78084 0
M  V30 3280 H 306.381 1.66348 4.30263 0
M  V30 3281 H 304.624 1.62885 4.02058 0
M  V30 3282 H 305.295 0.846281 5.45474 0
M  V30 3283 H 307.771 -0.547993 4.12476 0
M  V30 3284 H 306.647 -1.16077 5.36486 0
M  V30 3285 H 306.908 -2.08875 3.89645 0
M  V30 3286 N 305.967 -1.56429 0.191757 0
M  V30 3287 C 306.914 -2.18936 -0.730454 0
M  V30 3288 C 307.884 -1.13557 -1.21219 0
M  V30 3289 O 309.069 -1.41794 -1.27668 0
M  V30 3290 C 306.209 -2.85013 -1.9458 0
M  V30 3291 C 305.322 -4.04909 -1.50574 0
M  V30 3292 C 304.457 -4.58853 -2.67634 0
M  V30 3293 C 303.496 -5.71114 -2.20217 0
M  V30 3294 N 302.633 -6.19478 -3.30442 0
M  V30 3295 H 307.473 -2.97389 -0.190664 0
M  V30 3296 H 305.01 -1.46869 -0.0823694 0
M  V30 3297 H 306.968 -3.21492 -2.65893 0
M  V30 3298 H 305.598 -2.09129 -2.45896 0
M  V30 3299 H 304.65 -3.74115 -0.688605 0
M  V30 3300 H 305.962 -4.86113 -1.11784 0
M  V30 3301 H 305.116 -4.97619 -3.47074 0
M  V30 3302 H 303.855 -3.76749 -3.09696 0
M  V30 3303 H 302.86 -5.31879 -1.3923 0
M  V30 3304 H 304.085 -6.55033 -1.79189 0
M  V30 3305 H 302.031 -5.40297 -3.72041 0
M  V30 3306 H 301.948 -6.95725 -2.9581 0
M  V30 3307 H 303.216 -6.62898 -4.10106 0
M  V30 3308 N 307.445 0.0818655 -1.57387 0
M  V30 3309 C 308.355 1.11642 -2.06333 0
M  V30 3310 C 309.371 1.43033 -0.99083 0
M  V30 3311 O 310.547 1.53411 -1.30488 0
M  V30 3312 C 307.612 2.41342 -2.48907 0
M  V30 3313 C 306.673 2.17014 -3.7041 0
M  V30 3314 C 305.906 3.4053 -4.10944 0
M  V30 3315 O 306.129 4.4927 -3.51444 0
M  V30 3316 O 305.063 3.29336 -5.03807 0
M  V30 3317 H 308.889 0.730657 -2.9478 0
M  V30 3318 H 306.474 0.295301 -1.46452 0
M  V30 3319 H 308.356 3.17691 -2.76858 0
M  V30 3320 H 307.031 2.79319 -1.63593 0
M  V30 3321 H 305.938 1.38403 -3.47556 0
M  V30 3322 H 307.271 1.83923 -4.56545 0
M  V30 3323 N 308.923 1.53595 0.353017 0
M  V30 3324 C 309.853 1.83902 1.43883 0
M  V30 3325 C 310.834 0.693421 1.55324 0
M  V30 3326 O 312.019 0.944452 1.69687 0
M  V30 3327 C 309.149 2.04016 2.8106 0
M  V30 3328 C 308.103 3.19814 2.84434 0
M  V30 3329 C 307.429 3.25244 4.24406 0
M  V30 3330 C 308.729 4.58133 2.50822 0
M  V30 3331 H 310.423 2.74835 1.1877 0
M  V30 3332 H 307.969 1.32242 0.569917 0
M  V30 3333 H 309.922 2.238 3.57059 0
M  V30 3334 H 308.646 1.09804 3.07588 0
M  V30 3335 H 307.305 2.9987 2.10887 0
M  V30 3336 H 306.953 2.28646 4.48029 0
M  V30 3337 H 306.653 4.03054 4.27576 0
M  V30 3338 H 308.177 3.47228 5.0226 0
M  V30 3339 H 309.591 4.77995 3.16534 0
M  V30 3340 H 307.988 5.38276 2.6529 0
M  V30 3341 H 309.058 4.62387 1.46034 0
M  V30 3342 N 310.401 -0.613514 1.45168 0
M  V30 3343 C 311.311 -1.75296 1.55912 0
M  V30 3344 C 312.327 -1.68244 0.443856 0
M  V30 3345 O 313.503 -1.88706 0.70371 0
M  V30 3346 C 310.568 -3.1174 1.5172 0
M  V30 3347 C 309.629 -3.30291 2.74238 0
M  V30 3348 C 308.862 -4.60226 2.70236 0
M  V30 3349 O 309.085 -5.42168 1.77229 0
M  V30 3350 O 308.019 -4.81361 3.61352 0
M  V30 3351 H 311.845 -1.69183 2.52212 0
M  V30 3352 H 309.43 -0.776886 1.27612 0
M  V30 3353 H 311.312 -3.93044 1.51968 0
M  V30 3354 H 309.987 -3.18357 0.585697 0
M  V30 3355 H 308.894 -2.48598 2.79553 0
M  V30 3356 H 310.227 -3.28547 3.66494 0
M  V30 3357 N 311.879 -1.3236 -0.855495 0
M  V30 3358 C 313.104 -1.2601 -1.64731 0
M  V30 3359 C 313.529 0.169068 -1.87339 0
M  V30 3360 O 312.887 1.12016 -1.42556 0
M  V30 3361 C 312.935 -2.02417 -2.98429 0
M  V30 3362 O 312.039 -1.3714 -3.8893 0
M  V30 3363 H 311.38 -0.434325 -0.502253 0
M  V30 3364 H 313.91 -1.74661 -1.06558 0
M  V30 3365 H 313.92 -2.12559 -3.48257 0
M  V30 3366 H 312.595 -3.06343 -2.81295 0
M  V30 3367 H 311.172 -1.3554 -3.47395 0
M  V30 3368 N 313.357 1.07166 -1.15556 0
M  V30 3369 C 314.287 2.16403 -0.877046 0
M  V30 3370 C 315.268 1.69217 0.173111 0
M  V30 3371 O 316.453 1.94181 0.027084 0
M  V30 3372 C 313.583 3.45349 -0.367632 0
M  V30 3373 C 312.537 4.05995 -1.35468 0
M  V30 3374 C 311.863 5.30045 -0.704038 0
M  V30 3375 C 313.163 4.45804 -2.72132 0
M  V30 3376 H 314.857 2.39959 -1.79053 0
M  V30 3377 H 312.403 1.15325 -0.862331 0
M  V30 3378 H 314.356 4.21095 -0.160317 0
M  V30 3379 H 313.08 3.21385 0.581326 0
M  V30 3380 H 311.739 3.32296 -1.54839 0
M  V30 3381 H 311.387 5.02373 0.251128 0
M  V30 3382 H 311.087 5.71579 -1.36277 0
M  V30 3383 H 312.611 6.08495 -0.50654 0
M  V30 3384 H 314.025 5.12671 -2.56595 0
M  V30 3385 H 312.422 4.98296 -3.34397 0
M  V30 3386 H 313.492 3.57083 -3.28054 0
M  V30 3387 N 314.835 0.952656 1.25548 0
M  V30 3388 C 316.084 0.602053 1.92505 0
M  V30 3389 C 316.397 -0.864663 1.75451 0
M  V30 3390 O 317.603 -1.32514 2.36965 0
M  V30 3391 C 316.059 1.02607 3.44963 0
M  V30 3392 C 315.667 2.51519 3.70732 0
M  V30 3393 C 317.411 0.747905 4.1786 0
M  V30 3394 C 315.318 2.87732 5.16686 0
M  V30 3395 H 314.248 0.22146 0.720744 0
M  V30 3396 H 316.899 1.15684 1.42441 0
M  V30 3397 H 315.281 0.399712 3.93978 0
M  V30 3398 H 316.455 3.19157 3.32378 0
M  V30 3399 H 314.77 2.76786 3.11092 0
M  V30 3400 H 317.367 0.994647 5.25367 0
M  V30 3401 H 317.71 -0.315629 4.15102 0
M  V30 3402 H 318.243 1.33452 3.74747 0
M  V30 3403 H 314.982 3.93095 5.24554 0
M  V30 3404 H 314.502 2.24765 5.56094 0
M  V30 3405 H 316.181 2.76817 5.84792 0
M  V30 3406 N 316.313 -1.40141 0.720998 0
M  V30 3407 C 317.246 -2.2819 0.020916 0
M  V30 3408 C 318.224 -1.43633 -0.762129 0
M  V30 3409 O 319.408 -1.7304 -0.747633 0
M  V30 3410 C 316.535 -3.24281 -0.977715 0
M  V30 3411 C 315.581 -4.25548 -0.284836 0
M  V30 3412 S 316.414 -5.26247 0.991169 0
M  V30 3413 C 317.57 -6.259 -0.0052214 0
M  V30 3414 H 317.803 -2.87218 0.767649 0
M  V30 3415 H 315.336 -1.45656 0.512233 0
M  V30 3416 H 317.294 -3.80167 -1.54865 0
M  V30 3417 H 315.955 -2.643 -1.69719 0
M  V30 3418 H 315.148 -4.93154 -1.03996 0
M  V30 3419 H 314.75 -3.73389 0.213684 0
M  V30 3420 H 317.042 -6.72143 -0.850279 0
M  V30 3421 H 317.985 -7.05224 0.637599 0
M  V30 3422 H 318.393 -5.63277 -0.371366 0
M  V30 3423 N 317.792 -0.46758 -1.50504 0
M  V30 3424 C 318.724 0.364655 -2.26281 0
M  V30 3425 C 319.737 0.960151 -1.31472 0
M  V30 3426 O 320.926 0.849153 -1.57008 0
M  V30 3427 C 318.026 1.52509 -3.02645 0
M  V30 3428 C 317.199 1.04302 -4.24782 0
M  V30 3429 C 316.258 2.07709 -4.8347 0
M  V30 3430 O 315.284 1.65913 -5.44483 0
M  V30 3431 N 316.486 3.40485 -4.70159 0
M  V30 3432 H 319.251 -0.28495 -2.98342 0
M  V30 3433 H 316.812 -0.298163 -1.59131 0
M  V30 3434 H 318.804 2.21371 -3.38787 0
M  V30 3435 H 317.374 2.07945 -2.33404 0
M  V30 3436 H 316.594 0.180393 -3.93787 0
M  V30 3437 H 317.882 0.698798 -5.03978 0
M  V30 3438 H 317.28 3.77155 -4.21629 0
M  V30 3439 H 315.837 4.05156 -5.1058 0
M  V30 3440 N 319.27 1.56325 -0.20005 0
M  V30 3441 C 320.547 1.89484 0.48529 0
M  V30 3442 C 320.927 1.1143 1.79294 0
M  V30 3443 O 320.275 0.216919 2.27468 0
M  V30 3444 C 320.485 3.41923 0.699243 0
M  V30 3445 C 321.833 4.12256 1.01638 0
M  V30 3446 O 322.857 3.47402 0.786792 0
M  V30 3447 O 321.716 5.26887 1.45095 0
M  V30 3448 H 318.81 0.787144 0.253639 0
M  V30 3449 H 321.356 1.67985 -0.240633 0
M  V30 3450 H 320.128 3.90658 -0.224008 0
M  V30 3451 H 319.751 3.69131 1.47744 0
M  V30 3452 N 320.748 -0.0735177 1.57428 0
M  V30 3453 C 322.025 -0.805903 1.78226 0
M  V30 3454 C 322.405 -1.95874 0.787189 0
M  V30 3455 O 321.753 -2.2779 -0.180029 0
M  V30 3456 C 321.963 -1.28045 3.24662 0
M  V30 3457 C 323.311 -1.71453 3.88444 0
M  V30 3458 O 324.335 -1.37616 3.28543 0
M  V30 3459 O 323.194 -2.34093 4.93825 0
M  V30 3460 H 320.288 -0.386041 0.73137 0
M  V30 3461 H 322.834 -0.0537269 1.69615 0
M  V30 3462 H 321.606 -0.455476 3.8864 0
M  V30 3463 H 321.229 -2.094 3.37991 0
M  V30 3464 N 322.226 -1.5378 -0.344866 0
M  V30 3465 C 323.637 -1.62428 -0.920552 0
M  V30 3466 C 323.988 -0.504747 -1.89596 0
M  V30 3467 O 323.113 0.365711 -2.13287 0
M  V30 3468 C 323.708 -2.94419 -1.67639 0
M  V30 3469 C 322.267 -3.05333 -2.20111 0
M  V30 3470 C 321.414 -2.57866 -1.01982 0
M  V30 3471 H 324.365 -1.58222 -0.123042 0
M  V30 3472 H 324.386 -2.83384 -2.53917 0
M  V30 3473 H 323.898 -3.7588 -0.966224 0
M  V30 3474 H 321.999 -2.28502 -2.94308 0
M  V30 3475 H 322.112 -4.10778 -2.46573 0
M  V30 3476 H 320.476 -2.13241 -1.39285 0
M  V30 3477 H 321.259 -3.41765 -0.324308 0
M  V30 3478 N 323.704 0.605807 -1.45491 0
M  V30 3479 C 324.636 1.73031 -1.5031 0
M  V30 3480 C 325.649 1.57968 -0.393687 0
M  V30 3481 O 326.838 1.65817 -0.660839 0
M  V30 3482 C 323.938 3.11049 -1.34543 0
M  V30 3483 C 323.111 3.52334 -2.59189 0
M  V30 3484 C 322.17 4.69323 -2.37954 0
M  V30 3485 O 321.196 4.7635 -3.11575 0
M  V30 3486 N 322.398 5.62705 -1.4263 0
M  V30 3487 H 325.163 1.6936 -2.4726 0
M  V30 3488 H 322.724 0.79114 -1.41254 0
M  V30 3489 H 324.716 3.87071 -1.18144 0
M  V30 3490 H 323.286 3.09217 -0.458623 0
M  V30 3491 H 322.506 2.66256 -2.90691 0
M  V30 3492 H 323.794 3.76677 -3.42041 0
M  V30 3493 H 323.192 5.59744 -0.818758 0
M  V30 3494 H 321.749 6.38252 -1.32202 0
M  V30 3495 N 325.182 1.32811 0.848464 0
M  V30 3496 C 326.13 1.22231 1.97895 0
M  V30 3497 C 327.124 0.125749 1.68933 0
M  V30 3498 O 328.33 0.289083 1.77663 0
M  V30 3499 H 324.705 0.379058 0.649476 0
M  V30 3500 H 326.676 2.17828 2.03945 0
M  V30 3501 C 325.425 0.968572 3.33937 0
M  V30 3502 H 324.748 1.80458 3.56756 0
M  V30 3503 H 326.188 0.934808 4.13567 0
M  V30 3504 C 324.647 -0.328628 3.35293 0
M  V30 3505 O 325.177 -1.33848 3.78745 0
M  V30 3506 N 323.383 -0.352788 2.88451 0
M  V30 3507 H 322.93 0.469541 2.53285 0
M  V30 3508 H 322.888 -1.22057 2.89741 0
M  V30 3509 N 326.66 -1.06551 1.16123 0
M  V30 3510 C 327.885 -1.83544 0.965735 0
M  V30 3511 C 328.31 -1.81843 -0.481102 0
M  V30 3512 O 327.668 -1.21732 -1.34354 0
M  V30 3513 C 327.716 -3.28169 1.49457 0
M  V30 3514 O 326.82 -4.0643 0.699157 0
M  V30 3515 H 326.161 -0.568026 0.343864 0
M  V30 3516 H 328.691 -1.34362 1.54299 0
M  V30 3517 H 328.701 -3.78992 1.51092 0
M  V30 3518 H 327.376 -3.28722 2.54784 0
M  V30 3519 H 325.953 -3.65216 0.7531 0
M  V30 3520 N 328.138 -0.959301 -1.25041 0
M  V30 3521 C 329.387 -0.612254 -1.92183 0
M  V30 3522 C 329.7 0.855347 -1.75907 0
M  V30 3523 O 330.906 1.31256 -2.37664 0
M  V30 3524 C 329.362 -1.04435 -3.44414 0
M  V30 3525 C 328.97 -2.53482 -3.69393 0
M  V30 3526 C 330.714 -0.770055 -4.17457 0
M  V30 3527 C 328.621 -2.90468 -5.15153 0
M  V30 3528 H 327.551 -0.225279 -0.719559 0
M  V30 3529 H 330.202 -1.16438 -1.41825 0
M  V30 3530 H 328.584 -0.4206 -3.9376 0
M  V30 3531 H 329.758 -3.20916 -3.30681 0
M  V30 3532 H 328.073 -2.78432 -3.0962 0
M  V30 3533 H 330.67 -1.02249 -5.24832 0
M  V30 3534 H 331.013 0.293611 -4.15263 0
M  V30 3535 H 331.546 -1.35437 -3.74034 0
M  V30 3536 H 328.285 -3.95871 -5.22462 0
M  V30 3537 H 327.805 -2.27711 -5.54894 0
M  V30 3538 H 329.484 -2.79914 -5.83315 0
M  V30 3539 N 329.616 1.39756 -0.72842 0
M  V30 3540 C 330.526 2.34444 -0.0855374 0
M  V30 3541 C 331.542 1.57976 0.729356 0
M  V30 3542 O 332.718 1.90301 0.659346 0
M  V30 3543 C 329.783 3.36965 0.815798 0
M  V30 3544 C 328.844 4.29299 -0.0105996 0
M  V30 3545 C 328.077 5.26923 0.84781 0
M  V30 3546 O 328.3 5.30859 2.08673 0
M  V30 3547 O 327.234 6.01249 0.279969 0
M  V30 3548 H 331.06 2.91065 -0.866892 0
M  V30 3549 H 328.645 1.4117 -0.48902 0
M  V30 3550 H 330.527 3.99804 1.33171 0
M  V30 3551 H 329.202 2.82739 1.57608 0
M  V30 3552 H 328.109 3.69703 -0.571877 0
M  V30 3553 H 329.442 4.86712 -0.73295 0
M  V30 3554 N 331.094 0.475555 1.50254 0
M  V30 3555 C 332.057 -0.305016 2.27161 0
M  V30 3556 C 333.057 -0.916519 1.32123 0
M  V30 3557 O 334.247 -0.785003 1.5551 0
M  V30 3558 C 331.379 -1.43496 3.09227 0
M  V30 3559 H 332.572 0.369511 2.97615 0
M  V30 3560 H 330.125 0.229747 1.54602 0
M  V30 3561 H 330.86 -2.14441 2.43281 0
M  V30 3562 H 330.645 -1.00223 3.79075 0
M  V30 3563 H 332.135 -1.98548 3.67381 0
M  V30 3564 N 332.573 -1.56217 0.208337 0
M  V30 3565 C 333.801 -2.02337 -0.43215 0
M  V30 3566 C 334.216 -1.08834 -1.54275 0
M  V30 3567 O 333.573 -0.0955462 -1.8225 0
M  V30 3568 C 333.624 -3.48072 -0.976138 0
M  V30 3569 O 333.345 -4.38007 0.0901621 0
M  V30 3570 C 334.846 -4.09773 -1.69119 0
M  V30 3571 H 332.066 -0.662385 -0.10718 0
M  V30 3572 H 334.61 -2.01966 0.320923 0
M  V30 3573 H 332.765 -3.49099 -1.67954 0
M  V30 3574 H 333.179 -5.23543 -0.316701 0
M  V30 3575 H 334.653 -5.13556 -2.02397 0
M  V30 3576 H 335.13 -3.53999 -2.59964 0
M  V30 3577 H 335.736 -4.12556 -1.03332 0
M  V30 3578 N 334.051 0.0651679 -1.57465 0
M  V30 3579 C 335.276 0.779605 -1.9219 0
M  V30 3580 C 335.701 1.69988 -0.805333 0
M  V30 3581 O 335.059 1.79685 0.241435 0
M  V30 3582 C 335.107 1.54364 -3.2589 0
M  V30 3583 O 334.211 2.65474 -3.1559 0
M  V30 3584 H 333.552 0.212249 -0.629163 0
M  V30 3585 H 336.082 0.0314294 -2.04576 0
M  V30 3586 H 336.092 1.92146 -3.59922 0
M  V30 3587 H 334.767 0.868457 -4.06732 0
M  V30 3588 H 333.344 2.30501 -2.93128 0
M  V30 3589 N 335.529 1.53961 0.336706 0
M  V30 3590 C 336.775 1.7179 1.07777 0
M  V30 3591 C 337.108 0.483263 1.88091 0
M  V30 3592 O 336.383 -0.519747 1.87427 0
M  V30 3593 C 336.666 2.98558 2.01334 0
M  V30 3594 C 336.519 4.32245 1.24437 0
M  V30 3595 C 337.838 3.21023 3.01052 0
M  V30 3596 H 334.957 0.625089 0.390426 0
M  V30 3597 H 337.599 1.86641 0.35567 0
M  V30 3598 H 335.749 2.86028 2.62908 0
M  V30 3599 H 337.421 4.56637 0.654243 0
M  V30 3600 H 335.664 4.30344 0.546458 0
M  V30 3601 H 336.335 5.17137 1.93063 0
M  V30 3602 H 338.811 3.32929 2.49595 0
M  V30 3603 H 337.687 4.11104 3.6371 0
M  V30 3604 H 337.948 2.37637 3.72802 0
M  V30 3605 N 337.007 -0.598083 1.45811 0
M  V30 3606 C 338.284 -1.35777 1.40797 0
M  V30 3607 C 338.664 -2.10935 0.083462 0
M  V30 3608 O 338.012 -2.08505 -0.934763 0
M  V30 3609 C 338.222 -2.29666 2.62783 0
M  V30 3610 C 339.57 -2.91977 3.08277 0
M  V30 3611 O 340.594 -2.39984 2.63223 0
M  V30 3612 O 339.453 -3.86376 3.86491 0
M  V30 3613 H 336.547 -0.609291 0.55919 0
M  V30 3614 H 339.093 -0.620379 1.57954 0
M  V30 3615 H 337.865 -1.73454 3.50756 0
M  V30 3616 H 337.488 -3.1077 2.48008 0
M  V30 3617 N 338.485 -1.33259 -0.841409 0
M  V30 3618 C 339.432 -1.23302 -1.95103 0
M  V30 3619 C 340.402 -0.112204 -1.65721 0
M  V30 3620 O 341.587 -0.290038 -1.88583 0
M  V30 3621 C 338.727 -0.975583 -3.31023 0
M  V30 3622 C 337.84 -2.18243 -3.72819 0
M  V30 3623 C 336.975 -1.85936 -4.97595 0
M  V30 3624 C 336.014 -3.02866 -5.3192 0
M  V30 3625 N 335.151 -2.70565 -6.47873 0
M  V30 3626 H 339.991 -2.18207 -2.02952 0
M  V30 3627 H 337.528 -1.0851 -0.993173 0
M  V30 3628 H 339.486 -0.80677 -4.09325 0
M  V30 3629 H 338.116 -0.0632755 -3.22738 0
M  V30 3630 H 337.168 -2.46107 -2.90061 0
M  V30 3631 H 338.48 -3.05666 -3.94169 0
M  V30 3632 H 337.634 -1.65684 -5.83638 0
M  V30 3633 H 336.373 -0.957452 -4.78209 0
M  V30 3634 H 335.378 -3.23736 -4.44382 0
M  V30 3635 H 336.603 -3.93809 -5.53255 0
M  V30 3636 H 334.549 -1.8293 -6.29978 0
M  V30 3637 H 334.466 -3.51519 -6.69306 0
M  V30 3638 H 335.734 -2.53774 -7.37034 0
M  V30 3639 N 339.963 1.05934 -1.16686 0
M  V30 3640 C 341.188 1.83029 -0.975455 0
M  V30 3641 C 341.613 1.82096 0.471452 0
M  V30 3642 O 340.971 1.22443 1.33706 0
M  V30 3643 C 341.019 3.27372 -1.51195 0
M  V30 3644 O 340.123 4.06054 -0.720701 0
M  V30 3645 H 339.464 0.566194 -0.346872 0
M  V30 3646 H 341.994 1.33541 -1.55009 0
M  V30 3647 H 342.004 3.78186 -1.53099 0
M  V30 3648 H 340.679 3.27366 -2.56523 0
M  V30 3649 H 339.256 3.64812 -0.772458 0
M  V30 3650 N 341.441 0.965919 1.2453 0
M  V30 3651 C 342.373 0.452465 2.2469 0
M  V30 3652 C 343.386 -0.437821 1.56802 0
M  V30 3653 O 344.575 -0.244283 1.76821 0
M  V30 3654 C 341.675 -0.366258 3.36915 0
M  V30 3655 C 340.848 0.513701 4.34373 0
M  V30 3656 C 339.907 -0.248716 5.25612 0
M  V30 3657 O 338.933 0.356745 5.68081 0
M  V30 3658 N 340.135 -1.53877 5.59734 0
M  V30 3659 H 342.9 1.31361 2.69378 0
M  V30 3660 H 340.461 0.837541 1.38553 0
M  V30 3661 H 342.453 -0.884297 3.94921 0
M  V30 3662 H 341.023 -1.12832 2.91526 0
M  V30 3663 H 340.243 1.21273 3.75082 0
M  V30 3664 H 341.531 1.11391 4.96457 0
M  V30 3665 H 340.929 -2.05243 5.27154 0
M  V30 3666 H 339.486 -2.00254 6.20275 0
M  V30 3667 N 342.919 -1.39368 0.735821 0
M  V30 3668 C 344.149 -2.04498 0.293967 0
M  V30 3669 C 344.557 -1.55593 -1.07645 0
M  V30 3670 O 343.9 -0.716324 -1.69158 0
M  V30 3671 C 343.962 -3.58836 0.218342 0
M  V30 3672 C 343.626 -4.30721 1.52736 0
M  V30 3673 C 344.623 -4.57305 2.47322 0
M  V30 3674 C 342.308 -4.69251 1.79189 0
M  V30 3675 C 344.302 -5.21429 3.66593 0
M  V30 3676 C 341.989 -5.33104 2.98737 0
M  V30 3677 C 342.987 -5.59125 3.9226 0
M  V30 3678 O 342.675 -6.21653 5.09708 0
M  V30 3679 H 342.407 -0.664118 0.126189 0
M  V30 3680 H 344.961 -1.79385 1.00051 0
M  V30 3681 H 343.191 -3.8285 -0.544314 0
M  V30 3682 H 344.88 -4.05447 -0.191626 0
M  V30 3683 H 345.646 -4.27983 2.28156 0
M  V30 3684 H 341.525 -4.48354 1.07239 0
M  V30 3685 H 345.069 -5.41656 4.39607 0
M  V30 3686 H 340.966 -5.61846 3.17803 0
M  V30 3687 H 341.734 -6.40146 5.10054 0
M  V30 3688 N 344.397 -0.483516 -1.5 0
M  V30 3689 C 345.646 0.0689102 -2.01582 0
M  V30 3690 C 345.959 1.39655 -1.36952 0
M  V30 3691 O 347.165 2.03465 -1.79762 0
M  V30 3692 C 345.621 0.173302 -3.59483 0
M  V30 3693 C 345.229 -1.14665 -4.33077 0
M  V30 3694 C 346.973 0.677024 -4.19066 0
M  V30 3695 C 344.88 -1.00537 -5.82792 0
M  V30 3696 H 343.81 0.0295277 -0.753422 0
M  V30 3697 H 346.461 -0.620295 -1.72698 0
M  V30 3698 H 344.843 0.926569 -3.85007 0
M  V30 3699 H 346.017 -1.91184 -4.19268 0
M  V30 3700 H 344.332 -1.58244 -3.85159 0
M  V30 3701 H 346.929 0.799952 -5.28682 0
M  V30 3702 H 347.272 1.67151 -3.81269 0
M  V30 3703 H 347.805 -0.0192083 -3.97795 0
M  V30 3704 H 344.544 -1.9736 -6.25083 0
M  V30 3705 H 344.064 -0.280776 -5.99142 0
M  V30 3706 H 345.743 -0.677 -6.43448 0
M  V30 3707 N 345.875 1.56104 -0.216619 0
M  V30 3708 C 347.123 1.97781 0.415593 0
M  V30 3709 C 347.444 1.10536 1.60645 0
M  V30 3710 O 346.714 0.181303 1.95059 0
M  V30 3711 H 345.294 0.730415 0.156534 0
M  V30 3712 H 347.956 1.92445 -0.308366 0
M  V30 3713 H 347.052 3.03072 0.74525 0
M  V30 3714 N 347.353 -0.0568162 1.57498 0
M  V30 3715 C 348.593 -0.758273 1.89815 0
M  V30 3716 C 348.957 -1.73978 0.812132 0
M  V30 3717 O 350.158 -2.48744 1.01881 0
M  V30 3718 C 348.429 -1.43465 3.27342 0
M  V30 3719 S 349.988 -2.1691 3.81439 0
M  V30 3720 H 346.806 -0.251836 0.664906 0
M  V30 3721 H 349.408 -0.0137997 1.95495 0
M  V30 3722 H 348.112 -0.706693 4.0427 0
M  V30 3723 H 347.643 -2.21825 3.24896 0
M  V30 3724 H 349.658 -3.43658 3.5793 0
M  V30 3725 N 348.832 -1.54138 -0.328536 0
M  V30 3726 C 349.779 -1.83176 -1.40411 0
M  V30 3727 C 350.749 -0.678494 -1.5161 0
M  V30 3728 O 351.934 -0.92443 -1.6691 0
M  V30 3729 C 349.074 -2.06035 -2.76846 0
M  V30 3730 C 348.187 -3.33727 -2.74318 0
M  V30 3731 C 347.322 -3.46574 -4.02567 0
M  V30 3732 C 346.361 -4.68159 -3.94327 0
M  V30 3733 N 345.498 -4.77959 -5.14296 0
M  V30 3734 H 350.338 -2.74938 -1.14948 0
M  V30 3735 H 347.875 -1.36166 -0.556538 0
M  V30 3736 H 349.833 -2.1728 -3.56153 0
M  V30 3737 H 348.463 -1.1757 -3.00628 0
M  V30 3738 H 347.515 -3.31246 -1.8703 0
M  V30 3739 H 348.827 -4.23139 -2.64111 0
M  V30 3740 H 347.981 -3.57333 -4.90304 0
M  V30 3741 H 346.72 -2.55245 -4.15574 0
M  V30 3742 H 345.725 -4.57461 -3.04974 0
M  V30 3743 H 346.95 -5.60868 -3.82889 0
M  V30 3744 H 344.896 -3.89544 -5.27818 0
M  V30 3745 H 344.813 -5.6133 -5.06404 0
M  V30 3746 H 346.081 -4.93044 -6.03761 0
M  V30 3747 N 350.31 0.590341 -1.46126 0
M  V30 3748 C 351.559 1.34499 -1.50309 0
M  V30 3749 C 351.872 1.94977 -0.156021 0
M  V30 3750 O 353.078 2.71395 -0.0756037 0
M  V30 3751 C 351.534 2.43723 -2.64815 0
M  V30 3752 C 351.142 1.89582 -4.0591 0
M  V30 3753 C 352.886 3.20579 -2.78262 0
M  V30 3754 C 350.793 2.9639 -5.11769 0
M  V30 3755 H 349.723 0.505593 -0.559368 0
M  V30 3756 H 352.374 0.630848 -1.72315 0
M  V30 3757 H 350.756 3.17902 -2.36124 0
M  V30 3758 H 351.93 1.21997 -4.44357 0
M  V30 3759 H 350.245 1.25418 -3.97063 0
M  V30 3760 H 352.842 4.00276 -3.54519 0
M  V30 3761 H 353.185 3.72684 -1.85505 0
M  V30 3762 H 353.718 2.53505 -3.06562 0
M  V30 3763 H 350.457 2.49181 -6.06291 0
M  V30 3764 H 349.977 3.62487 -4.77873 0
M  V30 3765 H 351.656 3.60474 -5.37278 0
M  V30 3766 N 351.788 1.33704 0.83433 0
M  V30 3767 C 352.751 1.24244 1.92603 0
M  V30 3768 C 353.751 0.160383 1.59998 0
M  V30 3769 O 354.941 0.412228 1.69252 0
M  V30 3770 C 352.073 0.91555 3.28376 0
M  V30 3771 H 353.266 2.21287 2.02416 0
M  V30 3772 H 350.819 1.17827 1.02696 0
M  V30 3773 H 351.554 -0.0521886 3.24258 0
M  V30 3774 H 351.339 1.69811 3.53422 0
M  V30 3775 H 352.829 0.874231 4.08347 0
M  V30 3776 N 353.266 -1.05314 1.17247 0
M  V30 3777 C 354.512 -1.78557 0.961513 0
M  V30 3778 C 354.845 -1.87419 -0.508697 0
M  V30 3779 O 354.12 -1.37307 -1.37757 0
M  V30 3780 C 354.403 -3.22514 1.60176 0
M  V30 3781 C 354.256 -3.21673 3.14399 0
M  V30 3782 C 355.575 -4.20318 1.30463 0
M  V30 3783 H 352.694 -0.6482 0.350723 0
M  V30 3784 H 355.336 -1.23102 1.44727 0
M  V30 3785 H 353.486 -3.69867 1.18871 0
M  V30 3786 H 355.158 -2.82405 3.64753 0
M  V30 3787 H 353.401 -2.60048 3.47214 0
M  V30 3788 H 354.072 -4.23271 3.54324 0
M  V30 3789 H 356.548 -3.81454 1.66229 0
M  V30 3790 H 355.424 -5.19289 1.77848 0
M  V30 3791 H 355.685 -4.41526 0.22521 0
M  V30 3792 N 354.744 -0.972509 -1.24016 0
M  V30 3793 C 355.99 -0.637978 -1.92504 0
M  V30 3794 C 356.323 0.825383 -1.75787 0
M  V30 3795 O 355.598 1.59442 -1.11393 0
M  V30 3796 C 355.881 -1.01942 -3.45369 0
M  V30 3797 C 355.734 -2.53983 -3.71231 0
M  V30 3798 C 357.053 -0.55751 -4.36555 0
M  V30 3799 H 354.172 -0.233248 -0.699117 0
M  V30 3800 H 356.814 -1.21238 -1.46292 0
M  V30 3801 H 354.964 -0.530656 -3.84859 0
M  V30 3802 H 356.636 -3.10374 -3.41271 0
M  V30 3803 H 354.879 -2.96968 -3.16216 0
M  V30 3804 H 355.55 -2.75723 -4.78206 0
M  V30 3805 H 358.026 -0.977029 -4.04467 0
M  V30 3806 H 356.902 -0.85292 -5.42233 0
M  V30 3807 H 357.163 0.542328 -4.38761 0
M  V30 3808 N 356.222 1.38976 -0.743202 0
M  V30 3809 C 357.155 2.28128 -0.0572165 0
M  V30 3810 C 358.133 1.44827 0.739182 0
M  V30 3811 O 359.317 1.74207 0.720009 0
M  V30 3812 C 356.444 3.25796 0.926001 0
M  V30 3813 C 355.49 4.25947 0.217099 0
M  V30 3814 S 356.323 5.24604 -1.07477 0
M  V30 3815 C 357.479 6.25829 -0.0943545 0
M  V30 3816 H 357.712 2.85961 -0.813246 0
M  V30 3817 H 355.245 1.44822 -0.535341 0
M  V30 3818 H 357.203 3.82583 1.48797 0
M  V30 3819 H 355.864 2.66966 1.65493 0
M  V30 3820 H 355.057 4.94746 0.961372 0
M  V30 3821 H 354.659 3.73002 -0.273059 0
M  V30 3822 H 356.951 6.73411 0.743239 0
M  V30 3823 H 357.894 7.0412 -0.749713 0
M  V30 3824 H 358.302 5.63797 0.281706 0
M  V30 3825 N 357.7 0.491464 1.49741 0
M  V30 3826 C 358.947 -0.0564256 2.02421 0
M  V30 3827 C 359.275 -1.37872 1.37192 0
M  V30 3828 O 358.53 -1.89375 0.493508 0
M  V30 3829 C 358.829 -0.267329 3.56399 0
M  V30 3830 C 358.495 0.975775 4.40215 0
M  V30 3831 C 357.157 1.31655 4.62839 0
M  V30 3832 C 359.509 1.80251 4.89039 0
M  V30 3833 C 356.837 2.48375 5.31532 0
M  V30 3834 C 359.189 2.96116 5.59015 0
M  V30 3835 C 357.853 3.30585 5.79888 0
M  V30 3836 H 357.123 -0.0206476 0.740712 0
M  V30 3837 H 359.77 0.649686 1.80143 0
M  V30 3838 H 358.075 -1.05588 3.77304 0
M  V30 3839 H 359.772 -0.705549 3.94744 0
M  V30 3840 H 356.362 0.700315 4.2284 0
M  V30 3841 H 360.546 1.55239 4.71396 0
M  V30 3842 H 355.802 2.7533 5.45897 0
M  V30 3843 H 359.976 3.60509 5.95824 0
M  V30 3844 H 357.603 4.21132 6.32892 0
M  V30 3845 N 359.178 -1.55987 0.224894 0
M  V30 3846 C 360.427 -1.97566 -0.406273 0
M  V30 3847 C 360.74 -1.11569 -1.6066 0
M  V30 3848 O 361.946 -1.43062 -2.3075 0
M  V30 3849 C 360.402 -3.51474 -0.774207 0
M  V30 3850 C 360.01 -4.46179 0.403496 0
M  V30 3851 C 361.754 -4.01758 -1.37079 0
M  V30 3852 C 359.661 -5.91399 0.0129412 0
M  V30 3853 H 358.591 -0.737777 -0.155565 0
M  V30 3854 H 361.242 -1.80659 0.321635 0
M  V30 3855 H 359.624 -3.63994 -1.55963 0
M  V30 3856 H 360.798 -4.45409 1.18101 0
M  V30 3857 H 359.113 -4.06255 0.913536 0
M  V30 3858 H 361.71 -5.07756 -1.67596 0
M  V30 3859 H 362.053 -3.47805 -2.28773 0
M  V30 3860 H 362.586 -3.92475 -0.648733 0
M  V30 3861 H 359.325 -6.49341 0.896451 0
M  V30 3862 H 358.845 -5.95356 -0.728821 0
M  V30 3863 H 360.524 -6.45683 -0.412582 0
M  V30 3864 N 360.656 0.0484629 -1.57525 0
M  V30 3865 C 361.886 0.754326 -1.92337 0
M  V30 3866 C 362.294 1.70443 -0.82132 0
M  V30 3867 O 361.637 1.82466 0.21254 0
M  V30 3868 C 361.699 1.58231 -3.22805 0
M  V30 3869 C 361.363 0.799074 -4.4996 0
M  V30 3870 C 362.36 0.1079 -5.19788 0
M  V30 3871 C 360.045 0.759345 -4.96527 0
M  V30 3872 C 362.039 -0.612516 -6.3445 0
M  V30 3873 C 359.726 0.0351713 -6.1109 0
M  V30 3874 C 360.724 -0.649537 -6.79904 0
M  V30 3875 O 360.412 -1.36199 -7.92278 0
M  V30 3876 H 360.144 0.218257 -0.639797 0
M  V30 3877 H 362.698 0.0159295 -2.05394 0
M  V30 3878 H 360.928 2.36406 -3.06021 0
M  V30 3879 H 362.617 2.16898 -3.43089 0
M  V30 3880 H 363.383 0.129748 -4.84826 0
M  V30 3881 H 359.262 1.28177 -4.42822 0
M  V30 3882 H 362.806 -1.14751 -6.88097 0
M  V30 3883 H 358.703 0.0113314 -6.45499 0
M  V30 3884 H 359.471 -1.27366 -8.0853 0
M  V30 3885 N 362.134 1.5431 0.320358 0
M  V30 3886 C 363.381 1.72668 1.05792 0
M  V30 3887 C 363.709 0.502084 1.87908 0
M  V30 3888 O 362.964 -0.516149 1.88771 0
M  V30 3889 C 363.263 2.95639 2.00828 0
M  V30 3890 C 362.929 4.30265 1.34843 0
M  V30 3891 C 361.591 4.66865 1.16578 0
M  V30 3892 C 363.943 5.13801 0.875095 0
M  V30 3893 C 361.271 5.84597 0.496336 0
M  V30 3894 C 363.623 6.32219 0.219463 0
M  V30 3895 C 362.287 6.67495 0.0246915 0
M  V30 3896 H 361.557 0.631837 0.387121 0
M  V30 3897 H 364.204 1.88552 0.334735 0
M  V30 3898 H 362.509 2.74456 2.79609 0
M  V30 3899 H 364.206 3.07038 2.57932 0
M  V30 3900 H 360.796 4.01472 1.50061 0
M  V30 3901 H 364.98 4.86039 1.00398 0
M  V30 3902 H 360.236 6.10486 0.334264 0
M  V30 3903 H 364.41 6.96227 -0.155291 0
M  V30 3904 H 362.037 7.5858 -0.496065 0
M  V30 3905 N 363.613 -0.582584 1.46437 0
M  V30 3906 C 364.543 -1.70187 1.59871 0
M  V30 3907 C 365.524 -1.64066 0.449042 0
M  V30 3908 O 366.709 -1.82081 0.6753 0
M  V30 3909 C 363.839 -3.08827 1.58881 0
M  V30 3910 C 362.793 -3.29779 2.72819 0
M  V30 3911 C 362.119 -4.68947 2.5689 0
M  V30 3912 C 363.419 -3.17601 4.1464 0
M  V30 3913 H 365.113 -1.592 2.53566 0
M  V30 3914 H 362.659 -0.764472 1.22032 0
M  V30 3915 H 364.612 -3.86951 1.66873 0
M  V30 3916 H 363.336 -3.20713 0.617306 0
M  V30 3917 H 361.995 -2.54054 2.64296 0
M  V30 3918 H 361.643 -4.77599 1.57823 0
M  V30 3919 H 361.343 -4.83919 3.33312 0
M  V30 3920 H 362.867 -5.4924 2.66773 0
M  V30 3921 H 364.281 -3.8557 4.24274 0
M  V30 3922 H 362.678 -3.44094 4.9165 0
M  V30 3923 H 363.748 -2.14681 4.34788 0
M  V30 3924 N 365.091 -1.34144 -0.827227 0
M  V30 3925 C 366.054 -1.25264 -1.91942 0
M  V30 3926 C 367.054 -0.168866 -1.59911 0
M  V30 3927 O 368.244 -0.421198 -1.69031 0
M  V30 3928 C 365.376 -0.932952 -3.27885 0
M  V30 3929 H 366.569 -2.22357 -2.0124 0
M  V30 3930 H 364.122 -1.1837 -1.0207 0
M  V30 3931 H 364.857 0.0349917 -3.24281 0
M  V30 3932 H 364.642 -1.71682 -3.52516 0
M  V30 3933 H 366.132 -0.895874 -4.07877 0
M  V30 3934 N 366.569 1.04691 -1.17803 0
M  V30 3935 C 367.797 1.81446 -0.99423 0
M  V30 3936 C 368.212 1.83174 0.457459 0
M  V30 3937 O 367.569 1.26265 1.31771 0
M  V30 3938 C 367.62 3.27334 -1.5341 0
M  V30 3939 O 367.341 3.25798 -2.92895 0
M  V30 3940 C 368.842 4.20759 -1.39559 0
M  V30 3941 H 366.062 0.571599 -0.351447 0
M  V30 3942 H 368.606 1.31982 -1.56208 0
M  V30 3943 H 366.761 3.74052 -1.00815 0
M  V30 3944 H 367.175 4.17144 -3.17949 0
M  V30 3945 H 368.649 5.21084 -1.82141 0
M  V30 3946 H 369.126 4.37856 -0.343394 0
M  V30 3947 H 369.732 3.79901 -1.91195 0
M  V30 3948 N 368.047 0.979072 1.23499 0
M  V30 3949 C 368.995 0.510604 2.26926 0
M  V30 3950 C 369.989 -0.431691 1.63807 0
M  V30 3951 O 371.195 -0.30573 1.77385 0
M  V30 3952 H 367.57 0.146688 0.737554 0
M  V30 3953 H 369.541 1.39466 2.63803 0
M  V30 3954 C 368.29 -0.172658 3.47271 0
M  V30 3955 H 367.613 0.543331 3.96091 0
M  V30 3956 H 369.053 -0.464101 4.21452 0
M  V30 3957 C 367.512 -1.40345 3.06276 0
M  V30 3958 O 368.042 -2.49978 3.14442 0
M  V30 3959 N 366.248 -1.27362 2.61203 0
M  V30 3960 H 365.795 -0.381584 2.54758 0
M  V30 3961 H 365.753 -2.09822 2.34141 0
M  V30 3962 N 369.525 -1.3858 0.750561 0
M  V30 3963 C 370.755 -2.04175 0.31564 0
M  V30 3964 C 371.163 -1.56726 -1.05989 0
M  V30 3965 O 370.506 -0.734225 -1.68389 0
M  V30 3966 C 370.568 -3.58585 0.256389 0
M  V30 3967 C 370.232 -4.29077 1.57296 0
M  V30 3968 C 371.229 -4.54656 2.52159 0
M  V30 3969 C 368.914 -4.67324 1.84156 0
M  V30 3970 C 370.908 -5.17512 3.72103 0
M  V30 3971 C 368.595 -5.29905 3.04374 0
M  V30 3972 C 369.593 -5.54933 3.98168 0
M  V30 3973 O 369.281 -6.16212 5.16273 0
M  V30 3974 H 369.013 -0.662742 0.133226 0
M  V30 3975 H 371.567 -1.78313 1.01948 0
M  V30 3976 H 369.797 -3.83406 -0.503677 0
M  V30 3977 H 371.486 -4.05628 -0.148612 0
M  V30 3978 H 372.252 -4.25539 2.32683 0
M  V30 3979 H 368.131 -4.47191 1.11988 0
M  V30 3980 H 371.675 -5.36963 4.45327 0
M  V30 3981 H 367.572 -5.58444 3.23745 0
M  V30 3982 H 368.34 -6.34701 5.16815 0
M  V30 3983 N 371.003 -0.499398 -1.49478 0
M  V30 3984 C 372.233 0.0424839 -2.06556 0
M  V30 3985 C 372.641 1.31514 -1.36018 0
M  V30 3986 O 371.984 1.78555 -0.431718 0
M  V30 3987 C 372.046 0.368074 -3.57611 0
M  V30 3988 C 371.71 -0.806631 -4.49825 0
M  V30 3989 C 372.707 -1.69667 -4.91436 0
M  V30 3990 C 370.392 -1.00498 -4.92144 0
M  V30 3991 C 372.386 -2.76923 -5.74101 0
M  V30 3992 C 370.073 -2.08072 -5.74586 0
M  V30 3993 C 371.071 -2.96119 -6.15469 0
M  V30 3994 O 370.759 -4.01836 -6.96264 0
M  V30 3995 H 370.491 -0.0165165 -0.675798 0
M  V30 3996 H 373.045 -0.695497 -1.93267 0
M  V30 3997 H 371.275 1.15963 -3.68903 0
M  V30 3998 H 372.964 0.848381 -3.96935 0
M  V30 3999 H 373.73 -1.55524 -4.59388 0
M  V30 4000 H 369.609 -0.329036 -4.59824 0
M  V30 4001 H 373.153 -3.45676 -6.05932 0
M  V30 4002 H 369.05 -2.22211 -6.06047 0
M  V30 4003 H 369.818 -3.9917 -7.14567 0
M  V30 4004 N 372.481 1.55866 -0.233164 0
M  V30 4005 C 373.727 1.99643 0.389148 0
M  V30 4006 C 374.082 1.11836 1.56558 0
M  V30 4007 O 373.375 0.170848 1.90837 0
M  V30 4008 C 373.569 3.46856 0.861724 0
M  V30 4009 C 373.398 4.48904 -0.267376 0
M  V30 4010 C 372.168 4.99888 -0.737577 0
M  V30 4011 C 374.366 5.02624 -1.08966 0
M  V30 4012 N 372.348 5.8566 -1.84052 0
M  V30 4013 C 373.719 5.85434 -2.04125 0
M  V30 4014 C 375.774 4.84959 -1.12779 0
M  V30 4015 C 374.477 6.52466 -3.02789 0
M  V30 4016 C 376.503 5.52759 -2.10266 0
M  V30 4017 C 375.865 6.35346 -3.04162 0
M  V30 4018 H 371.964 0.774402 0.108742 0
M  V30 4019 H 374.548 1.91572 -0.347596 0
M  V30 4020 H 372.719 3.55352 1.5678 0
M  V30 4021 H 374.451 3.77531 1.45783 0
M  V30 4022 H 371.206 4.7249 -0.324122 0
M  V30 4023 H 371.63 6.33246 -2.39434 0
M  V30 4024 H 376.272 4.20751 -0.415749 0
M  V30 4025 H 373.99 7.15849 -3.74948 0
M  V30 4026 H 377.576 5.41051 -2.13905 0
M  V30 4027 H 376.456 6.86883 -3.78366 0
M  V30 4028 N 373.959 -0.0401083 1.57549 0
M  V30 4029 C 375.208 -0.732108 1.87944 0
M  V30 4030 C 375.521 -1.77107 0.830206 0
M  V30 4031 O 376.727 -2.51488 1.02302 0
M  V30 4032 C 375.183 -1.35315 3.33494 0
M  V30 4033 C 374.791 -0.351105 4.46622 0
M  V30 4034 C 376.535 -2.02566 3.73051 0
M  V30 4035 C 374.442 -0.979859 5.83226 0
M  V30 4036 H 373.372 -0.277188 0.701201 0
M  V30 4037 H 376.023 0.0138501 1.83495 0
M  V30 4038 H 374.405 -2.14844 3.32653 0
M  V30 4039 H 375.579 0.416674 4.58912 0
M  V30 4040 H 373.894 0.218708 4.15825 0
M  V30 4041 H 376.491 -2.50441 4.72423 0
M  V30 4042 H 376.834 -2.83904 3.04474 0
M  V30 4043 H 377.367 -1.29827 3.76018 0
M  V30 4044 H 374.106 -0.206135 6.55176 0
M  V30 4045 H 373.626 -1.71774 5.74677 0
M  V30 4046 H 375.305 -1.49046 6.29599 0
M  V30 4047 N 375.437 -1.54477 -0.31217 0
M  V30 4048 C 376.367 -1.87652 -1.38957 0
M  V30 4049 C 377.348 -0.734358 -1.53431 0
M  V30 4050 O 378.533 -0.98911 -1.67123 0
M  V30 4051 C 375.663 -2.11396 -2.75552 0
M  V30 4052 C 374.617 -3.27243 -2.75855 0
M  V30 4053 C 373.943 -3.36382 -4.15633 0
M  V30 4054 C 375.243 -4.64622 -2.38587 0
M  V30 4055 H 376.937 -2.77887 -1.11442 0
M  V30 4056 H 374.483 -1.33707 -0.534655 0
M  V30 4057 H 376.436 -2.33189 -3.51 0
M  V30 4058 H 375.16 -1.17921 -3.04569 0
M  V30 4059 H 373.819 -3.05356 -2.02863 0
M  V30 4060 H 373.467 -2.40445 -4.41809 0
M  V30 4061 H 373.167 -4.14249 -4.1674 0
M  V30 4062 H 374.691 -3.60422 -4.92877 0
M  V30 4063 H 376.105 -4.86219 -3.03749 0
M  V30 4064 H 374.502 -5.45121 -2.50925 0
M  V30 4065 H 375.572 -4.66097 -1.33723 0
M  V30 4066 N 376.915 0.57481 -1.46744 0
M  V30 4067 C 378.161 1.3347 -1.52688 0
M  V30 4068 C 378.494 1.93353 -0.181229 0
M  V30 4069 O 377.769 1.76912 0.808237 0
M  V30 4070 C 378.052 2.45811 -2.63152 0
M  V30 4071 C 377.905 1.90912 -4.07275 0
M  V30 4072 C 379.224 3.47822 -2.69644 0
M  V30 4073 H 376.343 0.483935 -0.555856 0
M  V30 4074 H 378.985 0.644968 -1.78718 0
M  V30 4075 H 377.135 3.04646 -2.41088 0
M  V30 4076 H 378.807 1.36473 -4.4065 0
M  V30 4077 H 377.05 1.21691 -4.16382 0
M  V30 4078 H 377.721 2.72042 -4.80309 0
M  V30 4079 H 380.197 2.9888 -2.895 0
M  V30 4080 H 379.073 4.23876 -3.48742 0
M  V30 4081 H 379.334 4.05555 -1.76005 0
M  V30 4082 N 378.394 1.34581 0.820102 0
M  V30 4083 C 379.304 1.28471 1.96297 0
M  V30 4084 C 380.32 0.191902 1.72939 0
M  V30 4085 O 381.496 0.418879 1.96996 0
M  V30 4086 C 378.561 1.04281 3.30645 0
M  V30 4087 C 377.622 2.22745 3.66992 0
M  V30 4088 C 376.855 1.997 4.9493 0
M  V30 4089 O 377.078 0.956656 5.6232 0
M  V30 4090 O 376.012 2.86723 5.2922 0
M  V30 4091 H 379.838 2.24624 2.04396 0
M  V30 4092 H 377.423 1.14816 0.955913 0
M  V30 4093 H 379.305 0.925841 4.11104 0
M  V30 4094 H 377.98 0.111697 3.23507 0
M  V30 4095 H 376.887 2.40003 2.86966 0
M  V30 4096 H 378.22 3.14257 3.78819 0
M  V30 4097 N 379.872 -1.04064 1.18357 0
M  V30 4098 C 381.12 -1.76915 0.977013 0
M  V30 4099 C 381.441 -1.88624 -0.494577 0
M  V30 4100 O 380.711 -1.41125 -1.3587 0
M  V30 4101 H 379.291 -0.65535 0.358504 0
M  V30 4102 H 381.953 -1.25592 1.49039 0
M  V30 4103 H 381.049 -2.78178 1.41504 0
M  V30 4104 N 381.35 -0.985608 -1.22978 0
M  V30 4105 C 382.28 -0.549649 -2.26939 0
M  V30 4106 C 383.261 0.419803 -1.64838 0
M  V30 4107 O 384.446 0.31203 -1.91677 0
M  V30 4108 C 381.576 0.143652 -3.47003 0
M  V30 4109 C 380.53 -0.743606 -4.21491 0
M  V30 4110 C 379.856 0.0822027 -5.34637 0
M  V30 4111 C 381.156 -2.03694 -4.80943 0
M  V30 4112 H 382.85 -1.41862 -2.63658 0
M  V30 4113 H 380.396 -0.683571 -1.26741 0
M  V30 4114 H 382.349 0.459985 -4.18882 0
M  V30 4115 H 381.073 1.04711 -3.09359 0
M  V30 4116 H 379.732 -1.04347 -3.51436 0
M  V30 4117 H 379.38 0.986359 -4.93234 0
M  V30 4118 H 379.08 -0.508377 -5.85397 0
M  V30 4119 H 380.604 0.392797 -6.09335 0
M  V30 4120 H 382.018 -1.78504 -5.44802 0
M  V30 4121 H 380.415 -2.57573 -5.42011 0
M  V30 4122 H 381.485 -2.72042 -4.01399 0
M  V30 4123 N 382.828 1.3818 -0.7579 0
M  V30 4124 C 384.058 2.04004 -0.326463 0
M  V30 4125 C 384.466 1.57286 1.05156 0
M  V30 4126 O 383.809 0.743144 1.67997 0
M  V30 4127 C 383.871 3.58444 -0.275402 0
M  V30 4128 C 383.535 4.28237 -1.59569 0
M  V30 4129 C 384.532 4.53312 -2.54566 0
M  V30 4130 C 382.217 4.66341 -1.86631 0
M  V30 4131 C 384.211 5.15531 -3.74842 0
M  V30 4132 C 381.898 5.28283 -3.0718 0
M  V30 4133 C 382.896 5.52814 -4.01106 0
M  V30 4134 O 382.584 6.13465 -5.19534 0
M  V30 4135 H 382.316 0.662026 -0.136739 0
M  V30 4136 H 384.87 1.7777 -1.02893 0
M  V30 4137 H 383.1 3.83667 0.483337 0
M  V30 4138 H 384.789 4.05701 0.127099 0
M  V30 4139 H 385.555 4.24299 -2.34936 0
M  V30 4140 H 381.434 4.46591 -1.14358 0
M  V30 4141 H 384.978 5.34594 -4.48168 0
M  V30 4142 H 380.875 5.56719 -3.26702 0
M  V30 4143 H 381.643 6.31951 -5.20173 0
M  V30 4144 N 384.306 0.507319 1.49211 0
M  V30 4145 C 385.236 -0.256939 2.32082 0
M  V30 4146 C 386.217 -0.956609 1.40652 0
M  V30 4147 O 387.402 -0.946788 1.69557 0
M  V30 4148 C 384.532 -1.31802 3.21318 0
M  V30 4149 C 383.486 -0.737855 4.21592 0
M  V30 4150 C 382.812 -1.89992 4.99807 0
M  V30 4151 C 384.112 0.275325 5.21574 0
M  V30 4152 H 385.806 0.434798 2.96226 0
M  V30 4153 H 383.352 0.210546 1.42452 0
M  V30 4154 H 385.305 -1.86045 3.78107 0
M  V30 4155 H 384.029 -2.03903 2.5513 0
M  V30 4156 H 382.688 -0.217126 3.65956 0
M  V30 4157 H 382.336 -2.60877 4.30061 0
M  V30 4158 H 382.036 -1.51777 5.6766 0
M  V30 4159 H 383.56 -2.44657 5.59442 0
M  V30 4160 H 384.974 -0.179193 5.7302 0
M  V30 4161 H 383.371 0.573649 5.97352 0
M  V30 4162 H 384.441 1.18903 4.70096 0
M  V30 4163 N 385.784 -1.5574 0.241426 0
M  V30 4164 C 386.734 -2.17803 -0.674233 0
M  V30 4165 C 387.718 -1.13225 -1.14319 0
M  V30 4166 O 388.91 -1.39153 -1.09387 0
M  V30 4167 C 386.039 -2.87682 -1.87333 0
M  V30 4168 C 385.125 -3.99509 -1.42313 0
M  V30 4169 N 385.516 -5.01115 -0.686798 0
M  V30 4170 C 383.814 -4.11964 -1.70885 0
M  V30 4171 C 384.515 -5.79922 -0.454456 0
M  V30 4172 N 383.491 -5.34001 -1.01705 0
M  V30 4173 H 387.293 -2.93718 -0.103447 0
M  V30 4174 H 384.807 -1.62342 0.0435095 0
M  V30 4175 H 386.804 -3.3057 -2.54026 0
M  V30 4176 H 385.464 -2.13269 -2.4484 0
M  V30 4177 H 386.475 -5.16799 -0.337459 0
M  V30 4178 H 383.152 -3.48718 -2.2957 0
M  V30 4179 H 384.542 -6.71768 0.132992 0
M  V30 4180 N 387.262 0.0317525 -1.57568 0
M  V30 4181 C 388.21 1.05165 -2.07468 0
M  V30 4182 C 389.204 1.3761 -0.98792 0
M  V30 4183 O 390.41 1.36546 -1.17282 0
M  V30 4184 H 386.785 0.35666 -0.66204 0
M  V30 4185 H 388.756 0.604958 -2.92203 0
M  V30 4186 C 387.505 2.34488 -2.56731 0
M  V30 4187 H 386.828 2.10383 -3.39969 0
M  V30 4188 H 388.268 3.04203 -2.95358 0
M  V30 4189 C 386.727 3.03266 -1.46736 0
M  V30 4190 O 387.257 3.92988 -0.832069 0
M  V30 4191 N 385.463 2.6455 -1.20256 0
M  V30 4192 H 385.01 1.91674 -1.72102 0
M  V30 4193 H 384.968 3.10886 -0.468737 0
M  V30 4194 N 388.74 1.54641 0.303973 0
M  V30 4195 C 389.67 1.88386 1.3796 0
M  V30 4196 C 390.651 0.742485 1.5304 0
M  V30 4197 O 391.836 0.997959 1.66597 0
M  V30 4198 C 388.966 2.12854 2.74427 0
M  V30 4199 C 387.92 3.28702 2.74115 0
M  V30 4200 C 387.246 3.38582 4.13844 0
M  V30 4201 C 388.546 4.65881 2.3612 0
M  V30 4202 H 390.24 2.78474 1.09966 0
M  V30 4203 H 387.786 1.33988 0.527556 0
M  V30 4204 H 389.739 2.35047 3.49758 0
M  V30 4205 H 388.463 1.19535 3.03939 0
M  V30 4206 H 387.122 3.06428 2.0124 0
M  V30 4207 H 386.77 2.42784 4.40528 0
M  V30 4208 H 386.47 4.16453 4.14537 0
M  V30 4209 H 387.994 3.63031 4.90959 0
M  V30 4210 H 389.408 4.87823 3.01167 0
M  V30 4211 H 387.805 5.46444 2.48031 0
M  V30 4212 H 388.875 4.66799 1.3125 0
M  V30 4213 N 390.218 -0.567019 1.47046 0
M  V30 4214 C 391.467 -1.32091 1.5243 0
M  V30 4215 C 391.78 -1.94704 0.187021 0
M  V30 4216 O 392.986 -2.7124 0.118771 0
M  V30 4217 C 391.442 -2.39479 2.68659 0
M  V30 4218 C 391.05 -1.831 4.08874 0
M  V30 4219 C 392.794 -3.16111 2.83327 0
M  V30 4220 C 390.701 -2.8821 5.16419 0
M  V30 4221 H 389.631 -0.496629 0.56734 0
M  V30 4222 H 392.282 -0.603354 1.73297 0
M  V30 4223 H 390.664 -3.14105 2.41152 0
M  V30 4224 H 391.838 -1.14913 4.46242 0
M  V30 4225 H 390.153 -1.19085 3.99008 0
M  V30 4226 H 392.75 -3.94585 3.60842 0
M  V30 4227 H 393.093 -3.69686 1.91411 0
M  V30 4228 H 393.626 -2.48595 3.10556 0
M  V30 4229 H 390.365 -2.39504 6.10179 0
M  V30 4230 H 389.885 -3.54839 4.8358 0
M  V30 4231 H 391.564 -3.51881 5.42945 0
M  V30 4232 N 391.696 -1.35014 -0.812953 0
M  V30 4233 C 392.943 -1.27931 -1.56971 0
M  V30 4234 C 393.271 0.148034 -1.93936 0
M  V30 4235 O 392.526 1.11175 -1.61054 0
M  V30 4236 C 392.825 -2.12524 -2.87347 0
M  V30 4237 C 392.491 -3.61401 -2.6963 0
M  V30 4238 C 391.153 -4.01983 -2.64506 0
M  V30 4239 C 393.505 -4.55894 -2.52607 0
M  V30 4240 C 390.833 -5.35235 -2.40293 0
M  V30 4241 C 393.185 -5.89336 -2.29925 0
M  V30 4242 C 391.849 -6.2907 -2.23219 0
M  V30 4243 H 391.119 -0.468131 -0.574399 0
M  V30 4244 H 393.766 -1.66851 -0.939836 0
M  V30 4245 H 392.071 -1.66463 -3.54679 0
M  V30 4246 H 393.768 -2.04383 -3.45005 0
M  V30 4247 H 390.358 -3.29193 -2.74463 0
M  V30 4248 H 394.542 -4.25431 -2.55583 0
M  V30 4249 H 389.798 -5.65028 -2.33566 0
M  V30 4250 H 393.972 -6.62139 -2.15743 0
M  V30 4251 H 391.599 -7.32256 -2.04219 0
M  V30 4252 N 393.175 1.03435 -1.18907 0
M  V30 4253 C 394.421 1.77005 -0.989798 0
M  V30 4254 C 394.754 1.88205 0.478816 0
M  V30 4255 O 394.029 1.39481 1.35556 0
M  V30 4256 C 394.312 3.19925 -1.65287 0
M  V30 4257 C 394.165 3.1663 -3.19477 0
M  V30 4258 C 395.484 4.18189 -1.37134 0
M  V30 4259 H 392.603 0.642538 -0.360991 0
M  V30 4260 H 395.245 1.20784 -1.46667 0
M  V30 4261 H 393.395 3.67929 -1.24741 0
M  V30 4262 H 395.067 2.76567 -3.692 0
M  V30 4263 H 393.31 2.54491 -3.51307 0
M  V30 4264 H 393.981 4.1758 -3.61013 0
M  V30 4265 H 396.457 3.78761 -1.72276 0
M  V30 4266 H 395.333 5.16394 -1.86087 0
M  V30 4267 H 395.594 4.41112 -0.295424 0
M  V30 4268 N 394.653 0.992116 1.22453 0
M  V30 4269 C 395.616 0.546883 2.2258 0
M  V30 4270 C 396.616 -0.369829 1.56489 0
M  V30 4271 O 397.806 -0.161896 1.73446 0
M  V30 4272 C 394.938 -0.204659 3.40285 0
M  V30 4273 H 396.131 1.43234 2.63484 0
M  V30 4274 H 393.684 0.779239 1.3549 0
M  V30 4275 H 394.419 -1.10614 3.04853 0
M  V30 4276 H 394.204 0.45354 3.89468 0
M  V30 4277 H 395.694 -0.504358 4.14543 0
M  V30 4278 N 396.131 -1.37776 0.765217 0
M  V30 4279 C 397.378 -1.99849 0.326588 0
M  V30 4280 C 397.706 -1.60746 -1.09504 0
M  V30 4281 O 396.961 -0.84202 -1.76659 0
M  V30 4282 C 397.26 -3.5504 0.410053 0
M  V30 4283 C 396.926 -4.13891 1.78899 0
M  V30 4284 C 395.588 -4.29678 2.16635 0
M  V30 4285 C 397.94 -4.46236 2.69301 0
M  V30 4286 C 395.268 -4.7511 3.44221 0
M  V30 4287 C 397.62 -4.93089 3.9629 0
M  V30 4288 C 396.284 -5.07082 4.34078 0
M  V30 4289 H 395.554 -0.7313 0.119507 0
M  V30 4290 H 398.201 -1.64645 0.977968 0
M  V30 4291 H 396.506 -3.90451 -0.324878 0
M  V30 4292 H 398.203 -4.00966 0.0520699 0
M  V30 4293 H 394.793 -4.02026 1.48569 0
M  V30 4294 H 398.977 -4.3363 2.41409 0
M  V30 4295 H 394.233 -4.84129 3.73402 0
M  V30 4296 H 398.407 -5.17084 4.66472 0
M  V30 4297 H 396.034 -5.42046 5.33001 0
M  V30 4298 N 397.609 -0.515225 -1.4894 0
M  V30 4299 C 398.856 0.024215 -2.02486 0
M  V30 4300 C 399.184 1.35671 -1.39368 0
M  V30 4301 O 398.439 1.88566 -0.523574 0
M  V30 4302 C 398.738 0.210595 -3.56779 0
M  V30 4303 C 398.404 -1.04569 -4.38607 0
M  V30 4304 C 397.066 -1.39002 -4.60686 0
M  V30 4305 C 399.418 -1.88008 -4.86109 0
M  V30 4306 C 396.746 -2.568 -5.27514 0
M  V30 4307 C 399.098 -3.04972 -5.54234 0
M  V30 4308 C 397.762 -3.39768 -5.74555 0
M  V30 4309 H 397.032 0.00886088 -0.740947 0
M  V30 4310 H 399.679 -0.678263 -1.79086 0
M  V30 4311 H 397.984 0.99572 -3.78936 0
M  V30 4312 H 399.681 0.642659 -3.95817 0
M  V30 4313 H 396.271 -0.767497 -4.21672 0
M  V30 4314 H 400.455 -1.62719 -4.68867 0
M  V30 4315 H 395.711 -2.8398 -5.41447 0
M  V30 4316 H 399.885 -3.69943 -5.90013 0
M  V30 4317 H 397.512 -4.31148 -6.26112 0
M  V30 4318 N 399.087 1.5561 -0.249682 0
M  V30 4319 C 400.312 2.03865 0.381305 0
M  V30 4320 C 400.737 1.12769 1.50548 0
M  V30 4321 O 400.095 0.121189 1.80895 0
M  V30 4322 C 400.143 3.50101 0.863816 0
M  V30 4323 O 399.247 3.62132 1.97318 0
M  V30 4324 H 398.588 0.658827 0.0827194 0
M  V30 4325 H 401.118 2.01105 -0.376552 0
M  V30 4326 H 401.128 3.90975 1.1663 0
M  V30 4327 H 399.803 4.1588 0.0411816 0
M  V30 4328 H 398.38 3.33155 1.67517 0
M  V30 4329 N 400.565 -0.0233959 1.57583 0
M  V30 4330 C 401.842 -0.748794 1.807 0
M  V30 4331 C 402.222 -1.9327 0.849106 0
M  V30 4332 O 401.57 -2.28247 -0.107468 0
M  V30 4333 C 401.78 -1.17651 3.28571 0
M  V30 4334 C 403.128 -1.59008 3.93702 0
M  V30 4335 O 404.152 -1.27094 3.32755 0
M  V30 4336 O 403.011 -2.18264 5.01022 0
M  V30 4337 H 400.105 -0.362578 0.743281 0
M  V30 4338 H 402.651 0.000261958 1.697 0
M  V30 4339 H 401.423 -0.331603 3.89892 0
M  V30 4340 H 401.046 -1.98541 3.44481 0
M  V30 4341 N 402.043 -1.548 -0.295768 0
M  V30 4342 C 403.271 -1.78327 -1.04914 0
M  V30 4343 C 403.686 -0.545316 -1.80753 0
M  V30 4344 O 403.043 0.485013 -1.75937 0
M  V30 4345 C 403.094 -2.99418 -2.02561 0
M  V30 4346 O 402.815 -4.18431 -1.29798 0
M  V30 4347 C 404.316 -3.35375 -2.89895 0
M  V30 4348 H 401.536 -0.594618 -0.310918 0
M  V30 4349 H 404.08 -2.01763 -0.333454 0
M  V30 4350 H 402.235 -2.78175 -2.69624 0
M  V30 4351 H 402.649 -4.86736 -1.95419 0
M  V30 4352 H 404.123 -4.23332 -3.54251 0
M  V30 4353 H 404.6 -2.53761 -3.58472 0
M  V30 4354 H 405.206 -3.58796 -2.28355 0
M  V30 4355 N 403.521 0.559213 -1.47345 0
M  V30 4356 C 404.468 1.66645 -1.59682 0
M  V30 4357 C 405.438 1.60168 -0.43994 0
M  V30 4358 O 406.623 1.79031 -0.659736 0
M  V30 4359 C 403.763 3.04969 -1.61518 0
M  V30 4360 C 402.876 3.21897 -2.88108 0
M  V30 4361 C 402.011 4.50608 -2.81294 0
M  V30 4362 C 401.05 4.60961 -4.02717 0
M  V30 4363 N 400.187 5.81024 -3.94151 0
M  V30 4364 H 405.027 1.55439 -2.54249 0
M  V30 4365 H 402.564 0.757219 -1.26113 0
M  V30 4366 H 404.522 3.85064 -1.60566 0
M  V30 4367 H 403.152 3.15015 -0.704645 0
M  V30 4368 H 402.204 2.35248 -2.98936 0
M  V30 4369 H 403.516 3.25412 -3.78032 0
M  V30 4370 H 402.67 5.3896 -2.7858 0
M  V30 4371 H 401.409 4.49568 -1.89049 0
M  V30 4372 H 400.414 3.71021 -4.05738 0
M  V30 4373 H 401.639 4.63761 -4.96087 0
M  V30 4374 H 399.585 5.80938 -3.04708 0
M  V30 4375 H 399.502 5.85909 -4.77752 0
M  V30 4376 H 400.77 6.71744 -3.9545 0
M  V30 4377 N 404.999 1.35443 0.805782 0
M  V30 4378 C 406.229 1.31687 1.59192 0
M  V30 4379 C 406.637 -0.10756 1.88894 0
M  V30 4380 O 405.98 -1.07017 1.49309 0
M  V30 4381 C 406.042 2.05686 2.94845 0
M  V30 4382 C 405.706 3.54868 2.87954 0
M  V30 4383 C 406.703 4.49444 2.61335 0
M  V30 4384 C 404.388 3.97528 3.07046 0
M  V30 4385 C 406.382 5.84655 2.53885 0
M  V30 4386 C 404.069 5.32833 2.99219 0
M  V30 4387 C 405.067 6.26209 2.72674 0
M  V30 4388 O 404.755 7.59032 2.64811 0
M  V30 4389 H 404.487 0.453878 0.50097 0
M  V30 4390 H 407.041 1.78892 1.0093 0
M  V30 4391 H 405.271 1.5312 3.55093 0
M  V30 4392 H 406.96 1.94998 3.55993 0
M  V30 4393 H 407.726 4.17804 2.46303 0
M  V30 4394 H 403.605 3.25233 3.26718 0
M  V30 4395 H 407.149 6.57508 2.33086 0
M  V30 4396 H 403.046 5.64087 3.13809 0
M  V30 4397 H 403.814 7.68967 2.80413 0
M  V30 4398 N 406.477 -1.02803 1.19454 0
M  V30 4399 C 407.407 -2.12999 0.956758 0
M  V30 4400 C 408.388 -1.69743 -0.110188 0
M  V30 4401 O 409.573 -1.94148 0.0450038 0
M  V30 4402 C 406.703 -3.43746 0.495553 0
M  V30 4403 C 405.657 -4.00688 1.50443 0
M  V30 4404 C 404.983 -5.27067 0.900275 0
M  V30 4405 C 406.283 -4.35397 2.8849 0
M  V30 4406 H 407.977 -2.33148 1.87836 0
M  V30 4407 H 405.523 -1.12045 0.904539 0
M  V30 4408 H 407.476 -4.2021 0.316493 0
M  V30 4409 H 406.2 -3.23321 -0.461646 0
M  V30 4410 H 404.859 -3.2632 1.67065 0
M  V30 4411 H 404.507 -5.02959 -0.064503 0
M  V30 4412 H 404.207 -5.66127 1.57397 0
M  V30 4413 H 405.731 -6.06196 0.73203 0
M  V30 4414 H 407.145 -5.02795 2.75446 0
M  V30 4415 H 405.542 -4.85541 3.52661 0
M  V30 4416 H 406.612 -3.44662 3.41081 0
M  V30 4417 N 407.956 -0.998596 -1.21925 0
M  V30 4418 C 409.202 -0.688337 -1.91399 0
M  V30 4419 C 409.557 0.771805 -1.76241 0
M  V30 4420 O 408.85 1.55153 -1.1242 0
M  V30 4421 C 409.044 -1.03648 -3.42041 0
M  V30 4422 C 408.873 -2.52892 -3.71855 0
M  V30 4423 C 407.643 -3.19389 -3.91559 0
M  V30 4424 C 409.841 -3.5103 -3.75875 0
M  V30 4425 N 407.823 -4.5805 -4.08734 0
M  V30 4426 C 409.194 -4.75174 -3.98259 0
M  V30 4427 C 411.249 -3.45257 -3.58751 0
M  V30 4428 C 409.952 -5.94247 -4.05294 0
M  V30 4429 C 411.978 -4.63712 -3.67049 0
M  V30 4430 C 411.34 -5.86658 -3.89887 0
M  V30 4431 H 407.439 -0.303251 -0.720807 0
M  V30 4432 H 410.023 -1.27977 -1.46731 0
M  V30 4433 H 408.194 -0.473569 -3.85502 0
M  V30 4434 H 409.926 -0.681619 -3.98919 0
M  V30 4435 H 406.681 -2.69846 -3.89205 0
M  V30 4436 H 407.105 -5.29989 -4.21237 0
M  V30 4437 H 411.747 -2.51215 -3.40075 0
M  V30 4438 H 409.465 -6.88687 -4.22772 0
M  V30 4439 H 413.051 -4.6084 -3.5513 0
M  V30 4440 H 411.931 -6.76786 -3.96144 0
M  V30 4441 N 409.434 1.37368 -0.772513 0
M  V30 4442 C 410.682 1.99279 -0.336516 0
M  V30 4443 C 411.003 1.6163 1.09091 0
M  V30 4444 O 410.273 0.882109 1.74916 0
M  V30 4445 H 408.853 0.737063 -0.121435 0
M  V30 4446 H 411.515 1.67836 -0.990809 0
M  V30 4447 H 410.611 3.09332 -0.414763 0
M  V30 4448 N 410.912 0.523116 1.48665 0
M  V30 4449 C 412.159 -0.0134763 2.02496 0
M  V30 4450 C 412.487 -1.3493 1.40086 0
M  V30 4451 O 411.742 -1.88286 0.533567 0
M  V30 4452 C 412.041 -0.191671 3.56886 0
M  V30 4453 C 411.707 1.06893 4.38046 0
M  V30 4454 C 410.369 1.41443 4.59943 0
M  V30 4455 C 412.721 1.90584 4.85106 0
M  V30 4456 C 410.049 2.59594 5.26144 0
M  V30 4457 C 412.401 3.07907 5.52609 0
M  V30 4458 C 411.065 3.42811 5.72745 0
M  V30 4459 H 410.335 -0.00493133 0.740984 0
M  V30 4460 H 412.982 0.687751 1.78724 0
M  V30 4461 H 411.287 -0.97561 3.79459 0
M  V30 4462 H 412.984 -0.621659 3.96152 0
M  V30 4463 H 409.574 0.789848 4.21259 0
M  V30 4464 H 413.758 1.65203 4.67997 0
M  V30 4465 H 409.014 2.86847 5.39934 0
M  V30 4466 H 413.188 3.73066 5.88043 0
M  V30 4467 H 410.815 4.34462 6.23816 0
M  V30 4468 N 412.39 -1.55475 0.257931 0
M  V30 4469 C 413.639 -1.98383 -0.364275 0
M  V30 4470 C 413.952 -1.14952 -1.58258 0
M  V30 4471 O 415.158 -1.47924 -2.27664 0
M  V30 4472 C 413.614 -3.53037 -0.699479 0
M  V30 4473 C 413.222 -4.45223 0.498046 0
M  V30 4474 C 414.966 -4.04575 -1.28526 0
M  V30 4475 C 412.873 -5.91238 0.138383 0
M  V30 4476 H 411.803 -0.740911 -0.13988 0
M  V30 4477 H 414.454 -1.79936 0.359883 0
M  V30 4478 H 412.836 -3.6722 -1.48207 0
M  V30 4479 H 414.01 -4.42803 1.27522 0
M  V30 4480 H 412.325 -4.04226 0.999503 0
M  V30 4481 H 414.922 -5.11196 -1.56788 0
M  V30 4482 H 415.265 -3.5258 -2.21344 0
M  V30 4483 H 415.798 -3.93762 -0.565337 0
M  V30 4484 H 412.537 -6.47294 1.03398 0
M  V30 4485 H 412.057 -5.96768 -0.602374 0
M  V30 4486 H 413.736 -6.46413 -0.27553 0
M  V30 4487 N 413.868 0.0150385 -1.57593 0
M  V30 4488 C 414.798 1.01047 -2.10503 0
M  V30 4489 C 415.779 1.36816 -1.01071 0
M  V30 4490 O 416.964 1.45455 -1.28672 0
M  V30 4491 C 414.094 2.30708 -2.59598 0
M  V30 4492 C 413.048 2.09142 -3.73421 0
M  V30 4493 C 412.374 3.44685 -4.08774 0
M  V30 4494 C 413.674 1.46619 -5.01298 0
M  V30 4495 H 415.368 0.569978 -2.93925 0
M  V30 4496 H 412.914 0.272724 -1.41394 0
M  V30 4497 H 414.867 3.00687 -2.95238 0
M  V30 4498 H 413.591 2.76843 -1.73279 0
M  V30 4499 H 412.25 1.41592 -3.38153 0
M  V30 4500 H 411.898 3.88495 -3.195 0
M  V30 4501 H 411.598 3.31077 -4.8545 0
M  V30 4502 H 413.122 4.16004 -4.4696 0
M  V30 4503 H 414.536 2.06535 -5.34805 0
M  V30 4504 H 412.933 1.43544 -5.82679 0
M  V30 4505 H 414.003 0.433611 -4.82957 0
M  V30 4506 N 415.346 1.54954 0.287554 0
M  V30 4507 C 416.595 1.74081 1.01877 0
M  V30 4508 C 416.908 0.541135 1.87966 0
M  V30 4509 O 418.114 0.614491 2.64455 0
M  V30 4510 C 416.57 3.08042 1.86113 0
M  V30 4511 C 416.178 4.35531 1.04961 0
M  V30 4512 C 417.922 3.36523 2.58752 0
M  V30 4513 C 415.829 5.60538 1.88551 0
M  V30 4514 H 414.759 0.64884 0.384087 0
M  V30 4515 H 417.41 1.81426 0.275101 0
M  V30 4516 H 415.792 2.94696 2.64519 0
M  V30 4517 H 416.966 4.59751 0.31074 0
M  V30 4518 H 415.281 4.14085 0.43843 0
M  V30 4519 H 417.878 4.27122 3.21668 0
M  V30 4520 H 418.221 2.56 3.28283 0
M  V30 4521 H 418.754 3.50901 1.87386 0
M  V30 4522 H 415.493 6.43767 1.23466 0
M  V30 4523 H 415.013 5.40483 2.60074 0
M  V30 4524 H 416.692 5.98297 2.46273 0
M  V30 4525 N 416.824 -0.551391 1.4764 0
M  V30 4526 C 418.072 -1.30572 1.54258 0
M  V30 4527 C 418.393 -1.93877 0.208963 0
M  V30 4528 O 417.663 -1.80234 -0.767619 0
M  V30 4529 H 416.243 -0.484894 0.568231 0
M  V30 4530 H 418.905 -0.643402 1.83974 0
M  V30 4531 H 418.001 -2.09621 2.31226 0
M  V30 4532 N 418.302 -1.35869 -0.798587 0
M  V30 4533 C 419.548 -1.30788 -1.55775 0
M  V30 4534 C 419.903 0.114558 -1.92059 0
M  V30 4535 O 419.196 1.06691 -1.59147 0
M  V30 4536 C 419.39 -2.1556 -2.85077 0
M  V30 4537 C 419.219 -3.65904 -2.61428 0
M  V30 4538 C 417.989 -4.35112 -2.56915 0
M  V30 4539 C 420.187 -4.59375 -2.31255 0
M  V30 4540 N 418.169 -5.71155 -2.25068 0
M  V30 4541 C 419.54 -5.83598 -2.09316 0
M  V30 4542 C 421.595 -4.48035 -2.17185 0
M  V30 4543 C 420.298 -6.97755 -1.74731 0
M  V30 4544 C 422.324 -5.62049 -1.83998 0
M  V30 4545 C 421.686 -6.85305 -1.629 0
M  V30 4546 H 417.785 -0.533855 -0.571422 0
M  V30 4547 H 420.369 -1.7083 -0.934079 0
M  V30 4548 H 418.54 -1.77776 -3.45326 0
M  V30 4549 H 420.272 -2.01938 -3.50718 0
M  V30 4550 H 417.027 -3.87812 -2.71843 0
M  V30 4551 H 417.451 -6.42978 -2.11916 0
M  V30 4552 H 422.093 -3.53338 -2.3219 0
M  V30 4553 H 419.811 -7.92411 -1.58464 0
M  V30 4554 H 423.397 -5.55232 -1.73808 0
M  V30 4555 H 422.277 -7.72034 -1.37596 0
M  V30 4556 N 419.78 1.02168 -1.19998 0
M  V30 4557 C 421.028 1.75338 -1.00504 0
M  V30 4558 C 421.349 1.89387 0.464506 0
M  V30 4559 O 420.619 1.43268 1.33608 0
M  V30 4560 H 419.199 0.649564 -0.368885 0
M  V30 4561 H 421.861 1.23205 -1.51018 0
M  V30 4562 H 420.957 2.75892 -1.45912 0
M  V30 4563 N 421.258 1.00505 1.21394 0
M  V30 4564 C 422.505 0.687774 1.90462 0
M  V30 4565 C 422.833 -0.78147 1.7811 0
M  V30 4566 O 422.088 -1.58208 1.1519 0
M  V30 4567 C 422.387 1.0546 3.41486 0
M  V30 4568 C 422.053 2.51812 3.74034 0
M  V30 4569 C 420.715 2.91804 3.82628 0
M  V30 4570 C 423.067 3.46614 3.8924 0
M  V30 4571 C 420.395 4.2556 4.03876 0
M  V30 4572 C 422.747 4.80044 4.11995 0
M  V30 4573 C 421.411 5.19759 4.18816 0
M  V30 4574 H 420.681 0.251674 0.696951 0
M  V30 4575 H 423.328 1.26349 1.43903 0
M  V30 4576 H 421.633 0.397133 3.89782 0
M  V30 4577 H 423.33 0.786976 3.93202 0
M  V30 4578 H 419.92 2.1982 3.67936 0
M  V30 4579 H 424.104 3.16883 3.81967 0
M  V30 4580 H 419.36 4.55901 4.07387 0
M  V30 4581 H 423.534 5.53439 4.22704 0
M  V30 4582 H 421.161 6.23418 4.35033 0
M  V30 4583 N 422.737 -1.36956 0.779787 0
M  V30 4584 C 424.148 -1.82094 0.412156 0
M  V30 4585 C 424.499 -1.64926 -1.06273 0
M  V30 4586 O 423.624 -1.16483 -1.82375 0
M  V30 4587 C 424.219 -3.3059 0.741319 0
M  V30 4588 C 422.778 -3.73974 0.426641 0
M  V30 4589 C 421.925 -2.59368 0.980987 0
M  V30 4590 H 424.876 -1.25314 0.973758 0
M  V30 4591 H 424.897 -3.80489 0.028887 0
M  V30 4592 H 424.409 -3.43054 1.81482 0
M  V30 4593 H 422.51 -3.67076 -0.639215 0
M  V30 4594 H 422.623 -4.69778 0.940515 0
M  V30 4595 H 420.987 -2.51463 0.404757 0
M  V30 4596 H 421.77 -2.74621 2.06005 0
M  V30 4597 N 424.215 -0.530993 -1.48385 0
M  V30 4598 C 425.178 0.220497 -2.28137 0
M  V30 4599 C 426.178 0.866851 -1.35434 0
M  V30 4600 O 427.368 0.726746 -1.58316 0
M  V30 4601 C 424.5 1.31921 -3.1434 0
M  V30 4602 H 425.693 -0.479714 -2.96038 0
M  V30 4603 H 423.246 -0.286968 -1.53643 0
M  V30 4604 H 423.981 2.05264 -2.51072 0
M  V30 4605 H 423.766 0.86085 -3.82533 0
M  V30 4606 H 425.256 1.84776 -3.74497 0
M  V30 4607 N 425.693 1.55336 -0.266172 0
M  V30 4608 C 426.656 2.20878 0.612001 0
M  V30 4609 C 427.656 1.18388 1.08816 0
M  V30 4610 O 428.846 1.4335 0.989774 0
M  V30 4611 C 425.978 2.86765 1.84332 0
M  V30 4612 H 427.171 2.99873 0.0398718 0
M  V30 4613 H 424.724 1.56291 -0.0167309 0
M  V30 4614 H 425.459 2.11759 2.45619 0
M  V30 4615 H 425.244 3.61862 1.5099 0
M  V30 4616 H 426.734 3.36867 2.46801 0
M  V30 4617 N 427.171 -0.0066808 1.57599 0
M  V30 4618 C 428.418 -0.69292 1.90276 0
M  V30 4619 C 428.746 -1.74148 0.866192 0
M  V30 4620 O 428.001 -1.95268 -0.129933 0
M  V30 4621 C 428.3 -1.37939 3.29708 0
M  V30 4622 C 427.966 -0.464679 4.48499 0
M  V30 4623 C 426.628 -0.212809 4.80729 0
M  V30 4624 C 428.98 0.16551 5.20937 0
M  V30 4625 C 426.308 0.677653 5.82773 0
M  V30 4626 C 428.66 1.04381 6.23929 0
M  V30 4627 C 427.324 1.30492 6.54621 0
M  V30 4628 H 426.594 -0.253558 0.696268 0
M  V30 4629 H 429.241 0.0474123 1.91441 0
M  V30 4630 H 427.546 -2.1936 3.24636 0
M  V30 4631 H 429.243 -1.9163 3.52249 0
M  V30 4632 H 425.833 -0.671153 4.23313 0
M  V30 4633 H 430.017 -0.0160756 4.96297 0
M  V30 4634 H 425.273 0.88803 6.04917 0
M  V30 4635 H 429.447 1.53851 6.79193 0
M  V30 4636 H 427.074 1.99662 7.33512 0
M  V30 4637 N 428.649 -1.55105 -0.279332 0
M  V30 4638 C 429.895 -1.75672 -1.01327 0
M  V30 4639 C 430.228 -0.552739 -1.86168 0
M  V30 4640 O 429.503 0.449827 -1.89227 0
M  V30 4641 C 429.786 -3.05825 -1.90114 0
M  V30 4642 C 429.639 -4.36565 -1.08309 0
M  V30 4643 C 430.958 -3.31975 -2.8893 0
M  V30 4644 H 428.077 -0.639149 -0.366957 0
M  V30 4645 H 430.719 -1.87833 -0.286154 0
M  V30 4646 H 428.869 -2.95588 -2.52111 0
M  V30 4647 H 430.541 -4.58751 -0.484314 0
M  V30 4648 H 428.784 -4.32076 -0.386362 0
M  V30 4649 H 429.455 -5.23946 -1.73737 0
M  V30 4650 H 431.931 -3.41963 -2.37067 0
M  V30 4651 H 430.807 -4.2432 -3.48201 0
M  V30 4652 H 431.068 -2.51309 -3.63725 0
M  V30 4653 N 430.127 0.543554 -1.4793 0
M  V30 4654 C 431.09 1.63156 -1.60975 0
M  V30 4655 C 432.09 1.53346 -0.483899 0
M  V30 4656 O 433.28 1.5726 -0.749339 0
M  V30 4657 C 430.412 3.02743 -1.56716 0
M  V30 4658 H 431.605 1.52934 -2.57975 0
M  V30 4659 H 429.158 0.764557 -1.36324 0
M  V30 4660 H 429.893 3.18484 -0.611418 0
M  V30 4661 H 429.678 3.11272 -2.38438 0
M  V30 4662 H 431.168 3.81871 -1.6901 0
M  V30 4663 N 431.605 1.3629 0.791371 0
M  V30 4664 C 432.568 1.30309 1.88553 0
M  V30 4665 C 433.568 0.211204 1.59407 0
M  V30 4666 O 434.758 0.465865 1.67855 0
M  V30 4667 C 431.89 1.01956 3.25297 0
M  V30 4668 H 433.083 2.27614 1.95273 0
M  V30 4669 H 430.636 1.21035 0.988953 0
M  V30 4670 H 431.371 0.050998 3.2426 0
M  V30 4671 H 431.156 1.80968 3.4784 0
M  V30 4672 H 432.646 1.0037 4.05359 0
M  V30 4673 N 433.083 -1.0153 1.20538 0
M  V30 4674 C 434.329 -1.75517 1.02787 0
M  V30 4675 C 434.684 -1.87411 -0.435289 0
M  V30 4676 O 433.977 -1.38982 -1.31889 0
M  V30 4677 C 434.171 -3.17213 1.64654 0
M  V30 4678 C 434 -3.19134 3.16834 0
M  V30 4679 C 432.77 -3.26301 3.85818 0
M  V30 4680 C 434.968 -3.05077 4.14044 0
M  V30 4681 N 432.95 -3.17739 5.25276 0
M  V30 4682 C 434.321 -3.04299 5.40187 0
M  V30 4683 C 436.376 -2.89303 4.05226 0
M  V30 4684 C 435.079 -2.89365 6.58529 0
M  V30 4685 C 437.105 -2.75723 5.23193 0
M  V30 4686 C 436.467 -2.75612 6.48242 0
M  V30 4687 H 432.566 -0.652919 0.430373 0
M  V30 4688 H 435.15 -1.20755 1.52729 0
M  V30 4689 H 433.321 -3.70266 1.17294 0
M  V30 4690 H 435.053 -3.79637 1.40208 0
M  V30 4691 H 431.808 -3.33078 3.36684 0
M  V30 4692 H 432.232 -3.16829 5.98288 0
M  V30 4693 H 436.874 -2.88201 3.09354 0
M  V30 4694 H 434.592 -2.89216 7.54573 0
M  V30 4695 H 438.178 -2.64533 5.18183 0
M  V30 4696 H 437.058 -2.65224 7.37988 0
M  V30 4697 N 434.561 -1.01147 -1.20859 0
M  V30 4698 C 435.524 -0.582224 -2.21682 0
M  V30 4699 C 436.524 0.344887 -1.57058 0
M  V30 4700 O 437.714 0.134281 -1.73682 0
M  V30 4701 C 434.846 0.150496 -3.40568 0
M  V30 4702 H 436.039 -1.47408 -2.61172 0
M  V30 4703 H 433.592 -0.800695 -1.34233 0
M  V30 4704 H 434.327 1.0575 -3.06574 0
M  V30 4705 H 434.112 -0.515444 -3.88697 0
M  V30 4706 H 435.602 0.438344 -4.15293 0
M  V30 4707 N 436.039 1.36541 -0.78704 0
M  V30 4708 C 437.285 1.99599 -0.358872 0
M  V30 4709 C 437.618 1.62323 1.06606 0
M  V30 4710 O 436.893 0.876858 1.73613 0
M  V30 4711 C 437.176 3.56327 -0.519944 0
M  V30 4712 C 437.029 4.03464 -1.98839 0
M  V30 4713 C 438.348 4.4005 0.0664737 0
M  V30 4714 H 435.467 0.725107 -0.131869 0
M  V30 4715 H 438.109 1.6199 -0.992936 0
M  V30 4716 H 436.259 3.88495 0.0198321 0
M  V30 4717 H 437.931 3.81793 -2.58905 0
M  V30 4718 H 436.174 3.55092 -2.49183 0
M  V30 4719 H 436.845 5.12439 -2.05207 0
M  V30 4720 H 439.321 4.14228 -0.394267 0
M  V30 4721 H 438.197 5.48847 -0.0762682 0
M  V30 4722 H 438.458 4.26655 1.15835 0
M  V30 4723 N 437.518 0.538854 1.48102 0
M  V30 4724 C 438.481 -0.208395 2.28251 0
M  V30 4725 C 439.481 -0.859656 1.35892 0
M  V30 4726 O 440.671 -0.71834 1.58699 0
M  V30 4727 C 437.803 -1.30252 3.15035 0
M  V30 4728 H 438.996 0.495407 2.9578 0
M  V30 4729 H 436.549 0.295112 1.53489 0
M  V30 4730 H 437.284 -2.0393 2.52157 0
M  V30 4731 H 437.069 -0.840551 3.82985 0
M  V30 4732 H 438.559 -1.82787 3.75471 0
M  V30 4733 N 438.996 -1.55193 0.274407 0
M  V30 4734 C 440.412 -1.59401 -0.0797543 0
M  V30 4735 C 440.612 -1.29162 -1.54659 0
M  V30 4736 O 439.668 -1.05215 -2.29534 0
M  V30 4737 C 440.981 -2.99257 0.294238 0
M  V30 4738 C 442.529 -3.12072 0.240796 0
M  V30 4739 C 443.004 -4.54194 0.589218 0
M  V30 4740 N 444.495 -4.60033 0.540744 0
M  V30 4741 C 445.23 -5.68027 0.783147 0
M  V30 4742 N 444.726 -6.8417 1.09013 0
M  V30 4743 N 446.519 -5.57572 0.711993 0
M  V30 4744 H 438.67 -1.73113 1.23067 0
M  V30 4745 H 440.933 -0.807197 0.497129 0
M  V30 4746 H 440.639 -3.26217 1.31435 0
M  V30 4747 H 440.513 -3.75427 -0.365281 0
M  V30 4748 H 442.9 -2.84877 -0.770024 0
M  V30 4749 H 442.981 -2.38117 0.934563 0
M  V30 4750 H 442.625 -4.82115 1.59772 0
M  V30 4751 H 442.555 -5.26448 -0.126331 0
M  V30 4752 H 445.046 -3.76599 0.313327 0
M  V30 4753 H 445.359 -7.6243 1.26178 0
M  V30 4754 H 443.704 -6.85787 1.12789 0
M  V30 4755 H 446.895 -4.65714 0.472014 0
M  V30 4756 H 447.068 -6.41659 0.90429 0
M  V30 4757 N 440.474 -0.00167713 -1.576 0
M  V30 4758 C 441.437 0.974046 -2.07473 0
M  V30 4759 C 442.437 1.27143 -0.984444 0
M  V30 4760 O 443.627 1.21633 -1.24703 0
M  V30 4761 C 440.759 2.29849 -2.51759 0
M  V30 4762 H 441.952 0.54262 -2.9495 0
M  V30 4763 H 439.505 0.245829 -1.54355 0
M  V30 4764 H 440.24 2.77677 -1.67529 0
M  V30 4765 H 440.025 2.09584 -3.31386 0
M  V30 4766 H 441.515 2.9984 -2.90664 0
M  V30 4767 N 441.952 1.55251 0.271103 0
M  V30 4768 C 443.18 1.79974 1.02064 0
M  V30 4769 C 443.595 0.574003 1.79863 0
M  V30 4770 O 442.952 -0.456962 1.76686 0
M  V30 4771 C 443.003 3.02603 1.97772 0
M  V30 4772 O 442.724 4.20443 1.23124 0
M  V30 4773 C 444.225 3.39944 2.84522 0
M  V30 4774 H 441.445 0.599489 0.301419 0
M  V30 4775 H 443.989 2.02268 0.301313 0
M  V30 4776 H 442.144 2.8243 2.65165 0
M  V30 4777 H 442.558 4.89783 1.87651 0
M  V30 4778 H 444.032 4.28915 3.47471 0
M  V30 4779 H 444.509 2.59432 3.54389 0
M  V30 4780 H 445.115 3.62383 2.22618 0
M  V30 4781 N 443.43 -0.535701 1.48216 0
M  V30 4782 C 444.36 -1.65014 1.65204 0
M  V30 4783 C 445.341 -1.62554 0.501011 0
M  V30 4784 O 446.526 -1.7984 0.732886 0
M  V30 4785 C 443.656 -3.03616 1.68626 0
M  V30 4786 C 442.61 -3.20932 2.83172 0
M  V30 4787 C 441.936 -4.60537 2.71679 0
M  V30 4788 C 443.236 -3.04249 4.24535 0
M  V30 4789 H 444.93 -1.51053 2.58502 0
M  V30 4790 H 442.476 -0.725262 1.24402 0
M  V30 4791 H 444.429 -3.81446 1.79099 0
M  V30 4792 H 443.153 -3.18587 0.719026 0
M  V30 4793 H 441.812 -2.45517 2.72244 0
M  V30 4794 H 441.46 -4.72336 1.72937 0
M  V30 4795 H 441.16 -4.73069 3.48538 0
M  V30 4796 H 442.684 -5.40475 2.84112 0
M  V30 4797 H 444.098 -3.71877 4.36326 0
M  V30 4798 H 442.495 -3.28278 5.02348 0
M  V30 4799 H 443.565 -2.00739 4.41397 0
M  V30 4800 N 444.908 -1.36708 -0.784132 0
M  V30 4801 C 445.871 -1.31307 -1.87859 0
M  V30 4802 C 446.871 -0.219654 -1.59293 0
M  V30 4803 O 448.061 -0.47476 -1.67606 0
M  V30 4804 C 445.193 -1.03679 -3.24751 0
M  V30 4805 H 446.386 -2.28647 -1.94064 0
M  V30 4806 H 443.939 -1.21558 -0.98252 0
M  V30 4807 H 444.674 -0.0681936 -3.24228 0
M  V30 4808 H 444.459 -1.82811 -3.46876 0
M  V30 4809 H 445.949 -1.02518 -4.04821 0
M  V30 4810 N 446.386 1.0089 -1.21074 0
M  V30 4811 C 447.663 1.71834 -0.934469 0
M  V30 4812 C 448.043 2.0368 0.554753 0
M  V30 4813 O 447.391 1.70742 1.51854 0
M  V30 4814 C 447.601 2.98061 -1.8155 0
M  V30 4815 C 448.949 3.7117 -2.06199 0
M  V30 4816 O 449.973 3.08034 -1.78867 0
M  V30 4817 O 448.832 4.84721 -2.52404 0
M  V30 4818 H 445.926 0.749253 -0.35007 0
M  V30 4819 H 448.472 1.06668 -1.31985 0
M  V30 4820 H 447.244 2.70908 -2.82355 0
M  V30 4821 H 446.867 3.70968 -1.43068 0
M  V30 4822 N 447.864 1.01787 1.20321 0
M  V30 4823 C 448.827 0.593972 2.2137 0
M  V30 4824 C 449.827 -0.336553 1.57239 0
M  V30 4825 O 451.017 -0.125069 1.7375 0
M  V30 4826 C 448.149 -0.132433 3.40643 0
M  V30 4827 H 449.342 1.48791 2.60387 0
M  V30 4828 H 446.895 0.807803 1.33807 0
M  V30 4829 H 447.63 -1.04123 3.0713 0
M  V30 4830 H 447.415 0.53605 3.88418 0
M  V30 4831 H 448.905 -0.416314 4.1552 0
M  V30 4832 N 449.342 -1.36122 0.79427 0
M  V30 4833 C 450.758 -1.5232 0.476525 0
M  V30 4834 C 450.958 -1.74685 -1.00436 0
M  V30 4835 O 450.014 -1.78115 -1.78973 0
M  V30 4836 C 451.327 -2.70607 1.31119 0
M  V30 4837 C 452.875 -2.8448 1.30537 0
M  V30 4838 C 453.35 -4.05778 2.12387 0
M  V30 4839 N 454.841 -4.12933 2.09859 0
M  V30 4840 C 455.576 -5.05876 2.69957 0
M  V30 4841 N 455.072 -6.04232 3.38934 0
M  V30 4842 N 456.865 -4.98528 2.59665 0
M  V30 4843 H 449.016 -1.1986 1.75349 0
M  V30 4844 H 451.279 -0.585418 0.745647 0
M  V30 4845 H 450.985 -2.60619 2.36158 0
M  V30 4846 H 450.859 -3.64888 0.955843 0
M  V30 4847 H 453.246 -2.93927 0.262876 0
M  V30 4848 H 453.327 -1.91093 1.70051 0
M  V30 4849 H 452.971 -3.97092 3.1667 0
M  V30 4850 H 452.901 -4.98323 1.70242 0
M  V30 4851 H 455.392 -3.42515 1.59662 0
M  V30 4852 H 455.705 -6.71724 3.82109 0
M  V30 4853 H 454.05 -6.04443 3.43036 0
M  V30 4854 H 457.241 -4.20641 2.05375 0
M  V30 4855 H 457.414 -5.70773 3.06793 0
M  V30 4856 N 450.82 -0.546701 -1.47814 0
M  V30 4857 C 452.06 -0.0209604 -2.04389 0
M  V30 4858 C 452.424 1.29993 -1.413 0
M  V30 4859 O 453.625 1.91273 -1.8886 0
M  V30 4860 C 451.896 0.0812844 -3.57308 0
M  V30 4861 S 453.455 0.55467 -4.3528 0
M  V30 4862 H 450.273 -0.0200865 -0.710716 0
M  V30 4863 H 452.875 -0.731055 -1.81317 0
M  V30 4864 H 451.579 -0.884616 -4.00753 0
M  V30 4865 H 451.11 0.815253 -3.8486 0
M  V30 4866 H 453.125 1.81627 -4.61764 0
M  V30 4867 N 452.299 1.55045 -0.282633 0
M  V30 4868 C 453.545 2.0078 0.325436 0
M  V30 4869 C 453.9 1.1676 1.52921 0
M  V30 4870 O 453.193 0.231475 1.90197 0
M  V30 4871 C 453.387 3.49422 0.750938 0
M  V30 4872 C 453.216 4.47827 -0.410056 0
M  V30 4873 C 451.986 4.97288 -0.896239 0
M  V30 4874 C 454.184 4.98903 -1.24902 0
M  V30 4875 N 452.166 5.79508 -2.02591 0
M  V30 4876 C 453.537 5.78644 -2.22646 0
M  V30 4877 C 455.592 4.81126 -1.2815 0
M  V30 4878 C 454.295 6.42502 -3.23393 0
M  V30 4879 C 456.321 5.45789 -2.27745 0
M  V30 4880 C 455.683 6.25348 -3.24222 0
M  V30 4881 H 451.782 0.77747 0.08405 0
M  V30 4882 H 454.366 1.90369 -0.408368 0
M  V30 4883 H 452.537 3.60159 1.45395 0
M  V30 4884 H 454.269 3.81978 1.33698 0
M  V30 4885 H 451.024 4.71219 -0.474277 0
M  V30 4886 H 451.448 6.25308 -2.59459 0
M  V30 4887 H 456.09 4.19215 -0.549397 0
M  V30 4888 H 453.808 7.03558 -3.97533 0
M  V30 4889 H 457.394 5.33972 -2.31009 0
M  V30 4890 H 456.274 6.74498 -4.00027 0
M  V30 4891 N 453.777 0.010035 1.57597 0
M  V30 4892 C 454.687 -0.994226 2.12491 0
M  V30 4893 C 455.703 -1.37013 1.07254 0
M  V30 4894 O 456.879 -1.45542 1.3921 0
M  V30 4895 C 453.944 -2.2642 2.62555 0
M  V30 4896 C 453.005 -1.95049 3.82432 0
M  V30 4897 C 452.238 -3.15991 4.30099 0
M  V30 4898 O 452.461 -4.28015 3.7704 0
M  V30 4899 O 451.395 -2.99403 5.22151 0
M  V30 4900 H 455.221 -0.557549 2.98538 0
M  V30 4901 H 452.806 -0.209413 1.47925 0
M  V30 4902 H 454.688 -3.01009 2.9491 0
M  V30 4903 H 453.363 -2.69306 1.796 0
M  V30 4904 H 452.27 -1.17904 3.55034 0
M  V30 4905 H 453.603 -1.56992 4.66491 0
M  V30 4906 N 455.255 -1.55392 -0.262866 0
M  V30 4907 C 456.185 -1.91978 -1.32917 0
M  V30 4908 C 457.166 -0.7828 -1.51017 0
M  V30 4909 O 458.351 -1.04178 -1.63892 0
M  V30 4910 C 455.481 -2.20055 -2.68687 0
M  V30 4911 C 454.435 -3.35854 -2.65304 0
M  V30 4912 C 453.761 -3.49435 -4.04721 0
M  V30 4913 C 455.061 -4.71977 -2.23685 0
M  V30 4914 H 456.755 -2.81292 -1.02544 0
M  V30 4915 H 454.301 -1.3534 -0.491846 0
M  V30 4916 H 456.254 -2.44237 -3.43404 0
M  V30 4917 H 454.978 -1.27551 -3.00663 0
M  V30 4918 H 453.637 -3.11655 -1.93045 0
M  V30 4919 H 453.285 -2.54379 -4.33936 0
M  V30 4920 H 452.985 -4.27297 -4.0335 0
M  V30 4921 H 454.509 -3.7592 -4.81161 0
M  V30 4922 H 455.923 -4.95637 -2.88127 0
M  V30 4923 H 454.32 -5.52828 -2.33456 0
M  V30 4924 H 455.39 -4.70115 -1.18827 0
M  V30 4925 N 456.733 0.527833 -1.48498 0
M  V30 4926 C 457.958 1.313 -1.60546 0
M  V30 4927 C 458.383 1.86199 -0.26672 0
M  V30 4928 O 457.741 1.64513 0.761918 0
M  V30 4929 C 457.789 2.43818 -2.65678 0
M  V30 4930 O 456.893 3.46916 -2.22987 0
M  V30 4931 H 456.234 0.388784 -0.538277 0
M  V30 4932 H 458.764 0.634896 -1.945 0
M  V30 4933 H 458.774 2.89973 -2.87018 0
M  V30 4934 H 457.449 2.03222 -3.62869 0
M  V30 4935 H 456.026 3.06864 -2.11869 0
M  V30 4936 N 458.211 1.37122 0.776871 0
M  V30 4937 C 459.174 1.32301 1.8716 0
M  V30 4938 C 460.174 0.228099 1.59174 0
M  V30 4939 O 461.364 0.483642 1.67352 0
M  V30 4940 C 458.496 1.054 3.24197 0
M  V30 4941 H 459.689 2.29673 1.92848 0
M  V30 4942 H 457.242 1.22077 0.97606 0
M  V30 4943 H 457.977 0.0853872 3.24188 0
M  V30 4944 H 457.762 1.84648 3.45901 0
M  V30 4945 H 459.252 1.04664 4.04271 0
M  V30 4946 N 459.689 -1.00246 1.21608 0
M  V30 4947 C 460.937 -1.73717 1.0328 0
M  V30 4948 C 461.258 -1.90102 -0.434318 0
M  V30 4949 O 460.528 -1.45376 -1.31311 0
M  V30 4950 H 459.108 -0.643613 0.379172 0
M  V30 4951 H 461.77 -1.20787 1.52959 0
M  V30 4952 H 460.866 -2.73535 1.50283 0
M  V30 4953 N 461.167 -1.02423 -1.1978 0
M  V30 4954 C 462.444 -0.632802 -1.85081 0
M  V30 4955 C 462.824 0.888745 -1.9148 0
M  V30 4956 O 462.172 1.78357 -1.42832 0
M  V30 4957 C 462.382 -1.28947 -3.24305 0
M  V30 4958 C 463.73 -1.40976 -4.00513 0
M  V30 4959 O 464.754 -1.24628 -3.33686 0
M  V30 4960 O 463.613 -1.67467 -5.20209 0
M  V30 4961 H 460.707 -0.219348 -0.79738 0
M  V30 4962 H 463.253 -1.12209 -1.27307 0
M  V30 4963 H 462.025 -2.3288 -3.14456 0
M  V30 4964 H 461.648 -0.787748 -3.89718 0
M  V30 4965 N 462.645 1.35699 -0.801477 0
M  V30 4966 C 463.894 1.98165 -0.375979 0
M  V30 4967 C 464.207 1.64306 1.06127 0
M  V30 4968 O 465.413 2.20097 1.58964 0
M  V30 4969 C 463.869 3.54497 -0.621305 0
M  V30 4970 C 463.477 3.9727 -2.07076 0
M  V30 4971 C 465.221 4.23697 -0.26091 0
M  V30 4972 C 463.128 5.46427 -2.26211 0
M  V30 4973 H 462.058 0.741478 -0.136844 0
M  V30 4974 H 464.709 1.54834 -0.984814 0
M  V30 4975 H 463.091 3.95958 0.0574112 0
M  V30 4976 H 464.265 3.66974 -2.78687 0
M  V30 4977 H 462.58 3.40943 -2.39054 0
M  V30 4978 H 465.177 5.33334 -0.381994 0
M  V30 4979 H 465.52 4.0869 0.792344 0
M  V30 4980 H 466.053 3.87639 -0.893339 0
M  V30 4981 H 462.792 5.66396 -3.29963 0
M  V30 4982 H 462.312 5.78309 -1.59119 0
M  V30 4983 H 463.991 6.12819 -2.07513 0
M  V30 4984 N 464.123 0.554532 1.47522 0
M  V30 4985 C 465.07 -0.19466 2.29978 0
M  V30 4986 C 466.04 -0.910882 1.38896 0
M  V30 4987 O 467.225 -0.907102 1.67858 0
M  V30 4988 C 464.365 -1.22035 3.22802 0
M  V30 4989 C 463.478 -0.510474 4.28973 0
M  V30 4990 C 462.613 -1.52123 5.08952 0
M  V30 4991 C 461.652 -0.796173 6.069 0
M  V30 4992 N 460.789 -1.75363 6.79847 0
M  V30 4993 H 465.629 0.51461 2.93523 0
M  V30 4994 H 463.166 0.265607 1.44682 0
M  V30 4995 H 465.124 -1.8276 3.7504 0
M  V30 4996 H 463.754 -1.89769 2.61127 0
M  V30 4997 H 462.806 0.211234 3.79813 0
M  V30 4998 H 464.118 0.0576503 4.98767 0
M  V30 4999 H 463.272 -2.20207 5.65326 0
M  V30 5000 H 462.011 -2.12327 4.39054 0
M  V30 5001 H 461.016 -0.101388 5.49707 0
M  V30 5002 H 462.241 -0.199911 6.78806 0
M  V30 5003 H 460.187 -2.3443 6.12682 0
M  V30 5004 H 460.104 -1.23759 7.45801 0
M  V30 5005 H 461.372 -2.4257 7.40797 0
M  V30 5006 N 465.601 -1.54893 0.290851 0
M  V30 5007 C 466.847 -2.00949 -0.314784 0
M  V30 5008 C 467.202 -1.1757 -1.52299 0
M  V30 5009 O 466.495 -0.241558 -1.90071 0
M  V30 5010 C 466.689 -3.49815 -0.732397 0
M  V30 5011 C 466.518 -4.47603 0.433799 0
M  V30 5012 C 465.288 -4.96806 0.922599 0
M  V30 5013 C 467.486 -4.98233 1.27546 0
M  V30 5014 N 465.468 -5.78426 2.05662 0
M  V30 5015 C 466.839 -5.77455 2.25712 0
M  V30 5016 C 468.894 -4.80439 1.307 0
M  V30 5017 C 467.597 -6.40778 3.26796 0
M  V30 5018 C 469.623 -5.44574 2.30637 0
M  V30 5019 C 468.985 -6.23619 3.27533 0
M  V30 5020 H 465.084 -0.777905 -0.0799257 0
M  V30 5021 H 467.668 -1.9015 0.418458 0
M  V30 5022 H 465.839 -3.60925 -1.43483 0
M  V30 5023 H 467.571 -3.82681 -1.31671 0
M  V30 5024 H 464.326 -4.70961 0.49926 0
M  V30 5025 H 464.75 -6.23923 2.62772 0
M  V30 5026 H 469.392 -4.18918 0.571622 0
M  V30 5027 H 467.11 -7.01439 4.01258 0
M  V30 5028 H 470.696 -5.32739 2.33838 0
M  V30 5029 H 469.576 -6.72367 4.03599 0
M  V30 5030 N 467.08 -0.0183926 -1.57589 0
M  V30 5031 C 468.329 0.66185 -1.90532 0
M  V30 5032 C 468.642 1.73904 -0.895366 0
M  V30 5033 O 469.848 2.47518 -1.11566 0
M  V30 5034 C 468.304 1.22844 -3.38286 0
M  V30 5035 C 467.912 0.185103 -4.47617 0
M  V30 5036 C 469.656 1.88581 -3.80312 0
M  V30 5037 C 467.563 0.762723 -5.86461 0
M  V30 5038 H 466.493 0.250972 -0.711006 0
M  V30 5039 H 469.144 -0.0819435 -1.83317 0
M  V30 5040 H 467.526 2.0235 -3.40398 0
M  V30 5041 H 468.7 -0.58671 -4.5705 0
M  V30 5042 H 467.015 -0.372889 -4.14727 0
M  V30 5043 H 469.612 2.32735 -4.81392 0
M  V30 5044 H 469.955 2.72408 -3.14801 0
M  V30 5045 H 470.488 1.15782 -3.80578 0
M  V30 5046 H 467.227 -0.0371713 -6.55489 0
M  V30 5047 H 466.747 1.50327 -5.80656 0
M  V30 5048 H 468.426 1.25576 -6.34697 0
M  V30 5049 N 468.558 1.5553 0.254621 0
M  V30 5050 C 469.788 1.80784 1.00004 0
M  V30 5051 C 470.196 0.59071 1.79742 0
M  V30 5052 O 469.539 -0.449988 1.78103 0
M  V30 5053 C 469.601 2.99268 1.99196 0
M  V30 5054 C 469.265 4.35595 1.38224 0
M  V30 5055 C 470.262 5.13884 0.788611 0
M  V30 5056 C 467.947 4.82281 1.40393 0
M  V30 5057 C 469.941 6.37004 0.224783 0
M  V30 5058 C 467.628 6.05351 0.836243 0
M  V30 5059 C 468.626 6.82551 0.24769 0
M  V30 5060 O 468.314 8.03297 -0.311249 0
M  V30 5061 H 468.046 0.60565 0.300274 0
M  V30 5062 H 470.6 2.03411 0.285143 0
M  V30 5063 H 468.83 2.72377 2.74496 0
M  V30 5064 H 470.519 3.11682 2.60018 0
M  V30 5065 H 471.285 4.78938 0.764423 0
M  V30 5066 H 467.164 4.22189 1.85142 0
M  V30 5067 H 470.708 6.97203 -0.235235 0
M  V30 5068 H 466.605 6.39776 0.857733 0
M  V30 5069 H 467.373 8.1825 -0.20237 0
M  V30 5070 N 470.036 -0.519951 1.48776 0
M  V30 5071 C 470.968 -1.63973 1.60142 0
M  V30 5072 C 471.981 -1.55404 0.485117 0
M  V30 5073 O 473.17 -1.61682 0.756391 0
M  V30 5074 C 470.27 -3.02676 1.52449 0
M  V30 5075 C 469.443 -3.36624 2.79291 0
M  V30 5076 C 468.502 -4.54652 2.64912 0
M  V30 5077 O 467.528 -4.57374 3.38818 0
M  V30 5078 N 468.73 -5.53432 1.75195 0
M  V30 5079 H 471.495 -1.54656 2.56713 0
M  V30 5080 H 469.056 -0.707439 1.45626 0
M  V30 5081 H 471.048 -3.79525 1.4051 0
M  V30 5082 H 469.618 -3.06018 0.638125 0
M  V30 5083 H 468.838 -2.48855 3.0572 0
M  V30 5084 H 470.126 -3.56094 3.6342 0
M  V30 5085 H 469.524 -5.54018 1.14371 0
M  V30 5086 H 468.081 -6.29459 1.69189 0
M  V30 5087 N 471.514 -1.37532 -0.769588 0
M  V30 5088 C 472.477 -1.33292 -1.86456 0
M  V30 5089 C 473.477 -0.236537 -1.59051 0
M  V30 5090 O 474.667 -0.492511 -1.67093 0
M  V30 5091 C 471.799 -1.07118 -3.23633 0
M  V30 5092 H 472.992 -2.30692 -1.91628 0
M  V30 5093 H 470.545 -1.22593 -0.969572 0
M  V30 5094 H 471.28 -0.102578 -3.24138 0
M  V30 5095 H 471.065 -1.86479 -3.44917 0
M  V30 5096 H 472.555 -1.06806 -4.03711 0
M  V30 5097 N 472.992 0.995999 -1.22138 0
M  V30 5098 C 474.403 1.54961 -1.04135 0
M  V30 5099 C 474.754 1.92159 0.396147 0
M  V30 5100 O 473.879 1.74435 1.28069 0
M  V30 5101 C 474.474 2.81581 -1.88408 0
M  V30 5102 C 473.033 3.33396 -1.74712 0
M  V30 5103 C 472.18 2.06509 -1.85066 0
M  V30 5104 H 475.131 0.817436 -1.36028 0
M  V30 5105 H 475.152 3.53822 -1.39966 0
M  V30 5106 H 474.664 2.54476 -2.93025 0
M  V30 5107 H 472.765 3.65416 -0.728159 0
M  V30 5108 H 472.878 4.04208 -2.57202 0
M  V30 5109 H 471.242 2.19925 -1.28472 0
M  V30 5110 H 472.025 1.81804 -2.91208 0
M  V30 5111 N 474.47 1.03057 1.19235 0
M  V30 5112 C 475.719 0.72326 1.88287 0
M  V30 5113 C 476.032 -0.751333 1.80594 0
M  V30 5114 O 477.238 -1.17176 2.44912 0
M  V30 5115 C 475.694 1.24338 3.3774 0
M  V30 5116 C 475.302 2.74587 3.53986 0
M  V30 5117 C 477.046 1.01213 4.12257 0
M  V30 5118 C 474.953 3.20009 4.97341 0
M  V30 5119 H 473.883 0.266848 0.705201 0
M  V30 5120 H 476.534 1.24509 1.34795 0
M  V30 5121 H 474.916 0.649457 3.90638 0
M  V30 5122 H 476.09 3.39649 3.11408 0
M  V30 5123 H 474.405 2.9601 2.9286 0
M  V30 5124 H 477.002 1.32675 5.17978 0
M  V30 5125 H 477.345 -0.051001 4.16269 0
M  V30 5126 H 477.878 1.57014 3.65501 0
M  V30 5127 H 474.617 4.25659 4.98493 0
M  V30 5128 H 474.137 2.59676 5.40674 0
M  V30 5129 H 475.816 3.13447 5.66003 0
M  V30 5130 N 475.948 -1.35272 0.808662 0
M  V30 5131 C 476.878 -2.32315 0.234981 0
M  V30 5132 C 477.859 -1.57572 -0.64071 0
M  V30 5133 O 479.044 -1.8563 -0.570551 0
M  V30 5134 C 476.174 -3.41801 -0.615601 0
M  V30 5135 C 475.128 -4.27694 0.161767 0
M  V30 5136 C 474.454 -5.28519 -0.810649 0
M  V30 5137 C 475.754 -5.04231 1.36193 0
M  V30 5138 H 477.448 -2.80543 1.04575 0
M  V30 5139 H 474.994 -1.3488 0.504315 0
M  V30 5140 H 476.947 -4.08693 -1.02702 0
M  V30 5141 H 475.671 -2.92186 -1.45928 0
M  V30 5142 H 474.33 -3.62384 0.554382 0
M  V30 5143 H 473.978 -4.75171 -1.64988 0
M  V30 5144 H 473.678 -5.8686 -0.294822 0
M  V30 5145 H 475.202 -5.98283 -1.22023 0
M  V30 5146 H 476.616 -5.64058 1.02528 0
M  V30 5147 H 475.013 -5.72077 1.81239 0
M  V30 5148 H 476.083 -4.34753 2.14751 0
M  V30 5149 N 477.426 -0.562348 -1.47226 0
M  V30 5150 C 478.389 0.172056 -2.28553 0
M  V30 5151 C 479.389 0.837928 -1.37242 0
M  V30 5152 O 480.579 0.693001 -1.59822 0
M  V30 5153 C 477.711 1.25223 -3.17068 0
M  V30 5154 H 478.904 -0.542401 -2.94954 0
M  V30 5155 H 476.457 -0.319493 -1.53 0
M  V30 5156 H 477.192 1.99892 -2.55369 0
M  V30 5157 H 476.977 0.779515 -3.84273 0
M  V30 5158 H 478.467 1.76791 -3.78332 0
M  V30 5159 N 478.904 1.54736 -0.299062 0
M  V30 5160 C 479.867 2.22127 0.565012 0
M  V30 5161 C 480.867 1.20669 1.06281 0
M  V30 5162 O 482.057 1.45417 0.959145 0
M  V30 5163 C 479.189 2.90611 1.78208 0
M  V30 5164 H 480.382 2.99891 -0.0237448 0
M  V30 5165 H 477.935 1.5622 -0.0498788 0
M  V30 5166 H 478.67 2.16921 2.41072 0
M  V30 5167 H 478.455 3.64984 1.43281 0
M  V30 5168 H 479.945 3.42026 2.396 0
M  V30 5169 N 480.382 0.0267497 1.57577 0
M  V30 5170 C 481.631 -0.651736 1.9088 0
M  V30 5171 C 481.944 -1.73427 0.904576 0
M  V30 5172 O 483.15 -2.46923 1.12877 0
M  V30 5173 C 481.606 -1.21048 3.38933 0
M  V30 5174 C 481.214 -0.161362 4.47709 0
M  V30 5175 C 482.958 -1.86562 3.81307 0
M  V30 5176 C 480.865 -0.731611 5.86857 0
M  V30 5177 H 479.795 -0.247198 0.712326 0
M  V30 5178 H 482.446 0.0916641 1.83271 0
M  V30 5179 H 480.828 -2.00542 3.41466 0
M  V30 5180 H 482.002 0.61094 4.56732 0
M  V30 5181 H 480.317 0.394877 4.14523 0
M  V30 5182 H 482.914 -2.30178 4.8262 0
M  V30 5183 H 483.257 -2.70735 3.16241 0
M  V30 5184 H 483.79 -1.13762 3.81186 0
M  V30 5185 H 480.529 0.0719329 6.55461 0
M  V30 5186 H 480.049 -1.47245 5.81445 0
M  V30 5187 H 481.728 -1.22208 6.35354 0
M  V30 5188 N 481.861 -1.55662 -0.24637 0
M  V30 5189 C 483.109 -1.77168 -0.972411 0
M  V30 5190 C 483.43 -0.590827 -1.85834 0
M  V30 5191 O 482.7 0.393365 -1.9191 0
M  V30 5192 H 481.28 -0.653405 -0.362038 0
M  V30 5193 H 483.942 -1.93101 -0.264189 0
M  V30 5194 H 483.038 -2.68335 -1.59382 0
M  V30 5195 N 483.339 0.512053 -1.4905 0
M  V30 5196 C 484.269 1.62365 -1.67809 0
M  V30 5197 C 485.25 1.61737 -0.526809 0
M  V30 5198 O 486.435 1.78651 -0.761404 0
M  V30 5199 C 483.565 3.00895 -1.73435 0
M  V30 5200 C 482.519 3.16387 -2.88242 0
M  V30 5201 C 481.845 4.56157 -2.78971 0
M  V30 5202 C 483.145 2.97457 -4.29321 0
M  V30 5203 H 484.839 1.46921 -2.60873 0
M  V30 5204 H 482.385 0.705379 -1.2554 0
M  V30 5205 H 484.338 3.78549 -1.85145 0
M  V30 5206 H 483.062 3.17403 -0.769619 0
M  V30 5207 H 481.721 2.41155 -2.76116 0
M  V30 5208 H 481.369 4.69525 -1.8043 0
M  V30 5209 H 481.069 4.67465 -3.5602 0
M  V30 5210 H 482.593 5.35886 -2.92675 0
M  V30 5211 H 484.007 3.64888 -4.42187 0
M  V30 5212 H 482.404 3.20245 -5.07507 0
M  V30 5213 H 483.474 1.93692 -4.44535 0
M  V30 5214 N 484.817 1.37938 0.762283 0
M  V30 5215 C 485.765 1.34569 1.89721 0
M  V30 5216 C 486.759 0.232929 1.67791 0
M  V30 5217 O 487.965 0.401485 1.75465 0
M  V30 5218 H 484.34 0.419594 0.624055 0
M  V30 5219 H 486.311 2.30357 1.8968 0
M  V30 5220 C 485.06 1.17898 3.27101 0
M  V30 5221 H 484.383 2.02781 3.44558 0
M  V30 5222 H 485.823 1.19593 4.06784 0
M  V30 5223 C 484.282 -0.114728 3.36705 0
M  V30 5224 O 484.812 -1.0949 3.8649 0
M  V30 5225 N 483.018 -0.16863 2.9011 0
M  V30 5226 H 482.565 0.62967 2.49786 0
M  V30 5227 H 482.523 -1.03383 2.96916 0
M  V30 5228 N 486.295 -0.989507 1.22664 0
M  V30 5229 C 487.542 -1.72953 1.05325 0
M  V30 5230 C 487.87 -1.90104 -0.411168 0
M  V30 5231 O 487.125 -1.44386 -1.32103 0
M  V30 5232 C 487.424 -3.13649 1.71345 0
M  V30 5233 C 487.09 -3.16403 3.21248 0
M  V30 5234 C 485.752 -3.16862 3.62149 0
M  V30 5235 C 488.104 -3.12428 4.17179 0
M  V30 5236 C 485.432 -3.11051 4.97458 0
M  V30 5237 C 487.784 -3.08159 5.52468 0
M  V30 5238 C 486.448 -3.06935 5.92746 0
M  V30 5239 H 485.718 -0.632881 0.385412 0
M  V30 5240 H 488.365 -1.15863 1.52473 0
M  V30 5241 H 486.67 -3.74069 1.16532 0
M  V30 5242 H 488.367 -3.69658 1.55416 0
M  V30 5243 H 484.957 -3.16798 2.88682 0
M  V30 5244 H 489.141 -3.11221 3.86595 0
M  V30 5245 H 484.397 -3.0845 5.27891 0
M  V30 5246 H 488.571 -3.04039 6.26525 0
M  V30 5247 H 486.198 -3.02186 6.97558 0
M  V30 5248 N 487.773 -1.03688 -1.18687 0
M  V30 5249 C 489.022 -0.733235 -1.879 0
M  V30 5250 C 489.335 0.741745 -1.8099 0
M  V30 5251 O 490.541 1.15875 -2.4553 0
M  V30 5252 C 488.997 -1.26127 -3.37076 0
M  V30 5253 C 488.605 -2.76461 -3.52524 0
M  V30 5254 C 490.349 -1.03398 -4.11715 0
M  V30 5255 C 488.256 -3.22642 -4.95637 0
M  V30 5256 H 487.186 -0.270584 -0.703776 0
M  V30 5257 H 489.837 -1.25222 -1.34133 0
M  V30 5258 H 488.219 -0.670165 -3.90288 0
M  V30 5259 H 489.393 -3.41296 -3.09602 0
M  V30 5260 H 487.708 -2.97559 -2.91286 0
M  V30 5261 H 490.305 -1.3542 -5.17267 0
M  V30 5262 H 490.648 0.0289246 -4.1629 0
M  V30 5263 H 491.181 -1.5895 -3.64664 0
M  V30 5264 H 487.92 -4.28296 -4.96228 0
M  V30 5265 H 487.44 -2.62539 -5.39289 0
M  V30 5266 H 489.119 -3.16444 -5.64333 0
M  V30 5267 N 489.251 1.34841 -0.815825 0
M  V30 5268 C 490.181 2.32187 -0.247298 0
M  V30 5269 C 491.162 1.5791 0.632344 0
M  V30 5270 O 492.347 1.8593 0.560698 0
M  V30 5271 C 489.477 3.42122 0.597466 0
M  V30 5272 C 488.431 4.27602 -0.184446 0
M  V30 5273 C 487.757 5.28942 0.782609 0
M  V30 5274 C 489.057 5.03502 -1.38865 0
M  V30 5275 H 490.751 2.79985 -1.06061 0
M  V30 5276 H 488.297 1.34611 -0.511461 0
M  V30 5277 H 490.25 4.09232 1.00533 0
M  V30 5278 H 488.974 2.92956 1.44376 0
M  V30 5279 H 487.633 3.62085 -0.573592 0
M  V30 5280 H 487.281 4.7604 1.62466 0
M  V30 5281 H 486.981 5.87008 0.263695 0
M  V30 5282 H 488.505 5.98922 1.18848 0
M  V30 5283 H 489.919 5.63506 -1.05518 0
M  V30 5284 H 488.316 5.71108 -1.8427 0
M  V30 5285 H 489.386 4.33608 -2.17054 0
M  V30 5286 N 490.729 0.570148 1.46925 0
M  V30 5287 C 491.976 0.0509529 2.02436 0
M  V30 5288 C 492.304 -1.30405 1.44308 0
M  V30 5289 O 491.559 -1.86493 0.593198 0
M  V30 5290 C 491.858 -0.0780336 3.57315 0
M  V30 5291 C 491.524 1.20775 4.34424 0
M  V30 5292 C 490.186 1.56004 4.5521 0
M  V30 5293 C 492.538 2.0592 4.78797 0
M  V30 5294 C 489.866 2.76201 5.17619 0
M  V30 5295 C 492.218 3.25332 5.42533 0
M  V30 5296 C 490.882 3.60859 5.61549 0
M  V30 5297 H 490.152 0.018645 0.740765 0
M  V30 5298 H 492.799 0.744262 1.76445 0
M  V30 5299 H 491.104 -0.854394 3.82371 0
M  V30 5300 H 492.801 -0.495312 3.97929 0
M  V30 5301 H 489.391 0.923469 4.18533 0
M  V30 5302 H 493.575 1.80008 4.62505 0
M  V30 5303 H 488.831 3.0388 5.30535 0
M  V30 5304 H 493.005 3.91586 5.75876 0
M  V30 5305 H 490.632 4.54088 6.09678 0
M  V30 5306 N 492.207 -1.54576 0.307264 0
M  V30 5307 C 493.137 -2.26708 -0.55907 0
M  V30 5308 C 494.118 -1.26893 -1.1328 0
M  V30 5309 O 495.303 -1.55677 -1.16097 0
M  V30 5310 C 492.433 -3.01259 -1.72801 0
M  V30 5311 C 491.387 -4.08275 -1.28435 0
M  V30 5312 C 490.713 -4.70575 -2.53895 0
M  V30 5313 C 492.013 -5.2068 -0.411038 0
M  V30 5314 H 493.707 -2.9937 0.042576 0
M  V30 5315 H 491.253 -1.43983 0.0219173 0
M  V30 5316 H 493.206 -3.50444 -2.34023 0
M  V30 5317 H 491.93 -2.26187 -2.356 0
M  V30 5318 H 490.589 -3.59949 -0.695161 0
M  V30 5319 H 490.237 -3.92136 -3.15021 0
M  V30 5320 H 489.937 -5.42854 -2.24908 0
M  V30 5321 H 491.461 -5.22527 -3.15908 0
M  V30 5322 H 492.875 -5.65721 -0.929097 0
M  V30 5323 H 491.272 -5.99716 -0.214664 0
M  V30 5324 H 492.342 -4.81629 0.562287 0
M  V30 5325 N 493.685 -0.035106 -1.57561 0
M  V30 5326 C 494.633 0.962707 -2.11742 0
M  V30 5327 C 495.627 1.33296 -1.0454 0
M  V30 5328 O 496.833 1.31449 -1.22968 0
M  V30 5329 H 493.208 0.32826 -0.676572 0
M  V30 5330 H 495.179 0.48048 -2.94506 0
M  V30 5331 C 493.928 2.23388 -2.66445 0
M  V30 5332 H 493.251 1.95774 -3.48587 0
M  V30 5333 H 494.691 2.91402 -3.07995 0
M  V30 5334 C 493.15 2.96769 -1.59467 0
M  V30 5335 O 493.68 3.89105 -0.998 0
M  V30 5336 N 491.886 2.59212 -1.31369 0
M  V30 5337 H 491.433 1.84202 -1.80076 0
M  V30 5338 H 491.391 3.08618 -0.600173 0
M  V30 5339 N 495.163 1.55791 0.238111 0
M  V30 5340 C 496.391 1.82098 0.982233 0
M  V30 5341 C 496.806 0.612025 1.78605 0
M  V30 5342 O 496.163 -0.419381 1.77616 0
M  V30 5343 C 496.214 3.0673 1.91309 0
M  V30 5344 O 495.935 4.2296 1.14179 0
M  V30 5345 C 497.436 3.45903 2.77248 0
M  V30 5346 H 494.656 0.605748 0.288635 0
M  V30 5347 H 497.2 2.02862 0.258341 0
M  V30 5348 H 495.355 2.87991 2.59114 0
M  V30 5349 H 495.769 4.93653 1.7722 0
M  V30 5350 H 497.243 4.36189 3.38295 0
M  V30 5351 H 497.72 2.66891 3.48806 0
M  V30 5352 H 498.326 3.67024 2.14881 0
M  V30 5353 N 496.642 -0.504142 1.49319 0
M  V30 5354 C 497.888 -1.26033 1.58882 0
M  V30 5355 C 498.221 -1.92268 0.273274 0
M  V30 5356 O 497.496 -1.80567 -0.72291 0
M  V30 5357 C 497.779 -2.32976 2.7458 0
M  V30 5358 C 497.632 -1.71263 4.1592 0
M  V30 5359 C 498.951 -3.34561 2.85932 0
M  V30 5360 H 496.07 -0.456863 0.578312 0
M  V30 5361 H 498.712 -0.558965 1.81592 0
M  V30 5362 H 496.862 -2.92796 2.55348 0
M  V30 5363 H 498.534 -1.15294 4.4666 0
M  V30 5364 H 496.777 -1.01686 4.21714 0
M  V30 5365 H 497.448 -2.48816 4.92742 0
M  V30 5366 H 499.924 -2.84727 3.0343 0
M  V30 5367 H 498.8 -4.06754 3.68568 0
M  V30 5368 H 499.061 -3.96695 1.95154 0
M  V30 5369 N 498.12 -1.38341 -0.754957 0
M  V30 5370 C 499.536 -1.19508 -1.05783 0
M  V30 5371 C 499.736 -0.0428005 -2.01455 0
M  V30 5372 O 498.792 0.611861 -2.44975 0
M  V30 5373 C 500.105 -2.52091 -1.63923 0
M  V30 5374 C 501.653 -2.58762 -1.76101 0
M  V30 5375 C 502.128 -3.91517 -2.37652 0
M  V30 5376 N 503.619 -3.93049 -2.45085 0
M  V30 5377 C 504.354 -4.9253 -2.93602 0
M  V30 5378 N 503.85 -6.02408 -3.42165 0
M  V30 5379 N 505.643 -4.79921 -2.92629 0
M  V30 5380 H 497.794 -2.1206 -0.120056 0
M  V30 5381 H 500.057 -0.94089 -0.11589 0
M  V30 5382 H 499.763 -3.36858 -1.01093 0
M  V30 5383 H 499.637 -2.70388 -2.63003 0
M  V30 5384 H 502.024 -1.74391 -2.38058 0
M  V30 5385 H 502.105 -2.44333 -0.757294 0
M  V30 5386 H 501.749 -4.76309 -1.76329 0
M  V30 5387 H 501.679 -4.03256 -3.38662 0
M  V30 5388 H 504.17 -3.13685 -2.10736 0
M  V30 5389 H 504.483 -6.74248 -3.77637 0
M  V30 5390 H 502.828 -6.0603 -3.40225 0
M  V30 5391 H 506.019 -3.93194 -2.54001 0
M  V30 5392 H 506.192 -5.57601 -3.30128 0
M  V30 5393 N 499.598 0.982988 -1.23187 0
M  V30 5394 C 500.844 1.72648 -1.06398 0
M  V30 5395 C 501.177 1.90066 0.398561 0
M  V30 5396 O 500.452 1.45105 1.29518 0
M  V30 5397 C 500.735 3.12627 -1.78707 0
M  V30 5398 C 500.588 3.02795 -3.32618 0
M  V30 5399 C 501.907 4.11997 -1.54747 0
M  V30 5400 H 499.026 0.626649 -0.387918 0
M  V30 5401 H 501.668 1.14455 -1.51658 0
M  V30 5402 H 499.818 3.62308 -1.40234 0
M  V30 5403 H 501.49 2.60659 -3.80598 0
M  V30 5404 H 499.733 2.39362 -3.61785 0
M  V30 5405 H 500.404 4.01893 -3.78399 0
M  V30 5406 H 502.88 3.71114 -1.88186 0
M  V30 5407 H 501.756 5.08037 -2.07821 0
M  V30 5408 H 502.017 4.39462 -0.482249 0
M  V30 5409 N 501.076 1.04316 1.18135 0
M  V30 5410 C 502.006 0.657299 2.24058 0
M  V30 5411 C 502.987 -0.340678 1.66654 0
M  V30 5412 O 504.172 -0.220223 1.92947 0
M  V30 5413 C 501.302 0.0220715 3.47293 0
M  V30 5414 C 500.256 0.943857 4.17463 0
M  V30 5415 C 499.582 0.172973 5.3442 0
M  V30 5416 C 500.882 2.26409 4.70677 0
M  V30 5417 H 502.576 1.5428 2.56589 0
M  V30 5418 H 500.122 0.743263 1.23335 0
M  V30 5419 H 502.075 -0.259607 4.206 0
M  V30 5420 H 500.799 -0.898323 3.14003 0
M  V30 5421 H 499.458 1.20996 3.46057 0
M  V30 5422 H 499.106 -0.749907 4.97379 0
M  V30 5423 H 498.806 0.787098 5.82304 0
M  V30 5424 H 500.33 -0.101628 6.10515 0
M  V30 5425 H 501.744 2.04294 5.35665 0
M  V30 5426 H 500.141 2.8314 5.29105 0
M  V30 5427 H 501.211 2.90883 3.87962 0
M  V30 5428 N 502.554 -1.34406 0.822964 0
M  V30 5429 C 503.517 -2.2783 0.250271 0
M  V30 5430 C 504.517 -1.50288 -0.571854 0
M  V30 5431 O 505.707 -1.69825 -0.387952 0
M  V30 5432 C 502.839 -3.34663 -0.649137 0
M  V30 5433 H 504.032 -2.79992 1.07444 0
M  V30 5434 H 501.585 -1.44539 0.594829 0
M  V30 5435 H 502.32 -2.87714 -1.49637 0
M  V30 5436 H 502.105 -3.92052 -0.0611199 0
M  V30 5437 H 503.595 -4.04349 -1.04363 0
M  V30 5438 N 504.032 -0.577932 -1.46621 0
M  V30 5439 C 505.26 -0.0671642 -2.06791 0
M  V30 5440 C 505.675 1.23571 -1.42743 0
M  V30 5441 O 505.032 1.74602 -0.531062 0
M  V30 5442 C 505.083 0.110357 -3.61332 0
M  V30 5443 O 504.804 -1.14095 -4.22982 0
M  V30 5444 C 506.305 0.656025 -4.38419 0
M  V30 5445 H 503.525 -0.0552732 -0.66872 0
M  V30 5446 H 506.069 -0.797242 -1.8832 0
M  V30 5447 H 504.224 0.790637 -3.79246 0
M  V30 5448 H 504.638 -0.951742 -5.15793 0
M  V30 5449 H 506.112 0.729438 -5.47159 0
M  V30 5450 H 506.589 1.67195 -4.06131 0
M  V30 5451 H 507.195 0.0107692 -4.25299 0
M  V30 5452 N 505.51 1.54411 -0.315457 0
M  V30 5453 C 506.457 2.24048 0.554166 0
M  V30 5454 C 507.427 1.2283 1.11812 0
M  V30 5455 O 508.612 1.51491 1.15997 0
M  V30 5456 C 505.752 2.99574 1.71316 0
M  V30 5457 C 504.865 4.15594 1.17922 0
M  V30 5458 C 504 4.78669 2.30324 0
M  V30 5459 C 503.039 5.86807 1.74137 0
M  V30 5460 N 502.176 6.43777 2.8017 0
M  V30 5461 H 507.016 2.97964 -0.0462602 0
M  V30 5462 H 504.553 1.47059 -0.0346009 0
M  V30 5463 H 506.511 3.41604 2.39505 0
M  V30 5464 H 505.141 2.28008 2.285 0
M  V30 5465 H 504.193 3.78404 0.389136 0
M  V30 5466 H 505.505 4.93459 0.728012 0
M  V30 5467 H 504.659 5.23626 3.06433 0
M  V30 5468 H 503.398 4.00168 2.78778 0
M  V30 5469 H 502.403 5.41261 0.965236 0
M  V30 5470 H 503.628 6.67201 1.2657 0
M  V30 5471 H 501.574 5.68153 3.2793 0
M  V30 5472 H 501.491 7.17031 2.39588 0
M  V30 5473 H 502.759 6.9339 3.56132 0
M  V30 5474 N 506.988 0.0434614 1.5754 0
M  V30 5475 C 508.237 -0.631454 1.91561 0
M  V30 5476 C 508.55 -1.72457 0.92292 0
M  V30 5477 O 509.756 -2.45712 1.15489 0
M  V30 5478 C 508.212 -1.17447 3.40197 0
M  V30 5479 C 507.82 -0.113867 4.47855 0
M  V30 5480 C 509.564 -1.82507 3.83264 0
M  V30 5481 C 507.471 -0.669326 5.876 0
M  V30 5482 H 506.401 -0.239629 0.714908 0
M  V30 5483 H 509.052 0.111097 1.83163 0
M  V30 5484 H 507.434 -1.96909 3.43574 0
M  V30 5485 H 508.608 0.659348 4.56058 0
M  V30 5486 H 506.923 0.438821 4.14081 0
M  V30 5487 H 509.52 -2.25047 4.85034 0
M  V30 5488 H 509.863 -2.67365 3.19095 0
M  V30 5489 H 510.396 -1.09712 3.82372 0
M  V30 5490 H 507.135 0.141449 6.55347 0
M  V30 5491 H 506.655 -1.4107 5.82974 0
M  V30 5492 H 508.334 -1.15463 6.36614 0
M  V30 5493 N 508.466 -1.55915 -0.229846 0
M  V30 5494 C 509.712 -1.79718 -0.952517 0
M  V30 5495 C 510.067 -0.61514 -1.82301 0
M  V30 5496 O 509.36 0.391098 -1.87566 0
M  V30 5497 C 509.554 -3.06845 -1.8325 0
M  V30 5498 C 509.383 -4.37302 -1.04868 0
M  V30 5499 C 508.153 -4.99749 -0.746932 0
M  V30 5500 C 510.351 -5.12599 -0.417989 0
M  V30 5501 N 508.333 -6.13871 0.0591596 0
M  V30 5502 C 509.704 -6.19488 0.251879 0
M  V30 5503 C 511.759 -4.96804 -0.33018 0
M  V30 5504 C 510.462 -7.12299 1.00115 0
M  V30 5505 C 512.488 -5.90007 0.4056 0
M  V30 5506 C 511.85 -6.96317 1.06404 0
M  V30 5507 H 507.949 -0.709382 -0.329091 0
M  V30 5508 H 510.533 -1.93406 -0.224114 0
M  V30 5509 H 508.704 -2.94456 -2.53279 0
M  V30 5510 H 510.436 -3.18874 -2.49202 0
M  V30 5511 H 507.191 -4.61518 -1.06292 0
M  V30 5512 H 507.615 -6.75497 0.450798 0
M  V30 5513 H 512.257 -4.14675 -0.824898 0
M  V30 5514 H 509.975 -7.93916 1.50741 0
M  V30 5515 H 513.561 -5.79862 0.474436 0
M  V30 5516 H 512.441 -7.67194 1.62429 0
M  V30 5517 N 509.944 0.496216 -1.49584 0
M  V30 5518 C 510.854 1.62352 -1.69349 0
M  V30 5519 C 511.87 1.64184 -0.576147 0
M  V30 5520 O 513.046 1.82517 -0.85144 0
M  V30 5521 C 510.111 2.98698 -1.76013 0
M  V30 5522 C 509.172 3.07454 -2.99617 0
M  V30 5523 C 508.405 4.37296 -3.05953 0
M  V30 5524 O 508.628 5.2637 -2.19752 0
M  V30 5525 O 507.562 4.51124 -3.9846 0
M  V30 5526 H 511.388 1.48606 -2.64859 0
M  V30 5527 H 508.973 0.673022 -1.33382 0
M  V30 5528 H 510.855 3.79725 -1.82721 0
M  V30 5529 H 509.53 3.12696 -0.836828 0
M  V30 5530 H 508.437 2.25597 -2.98424 0
M  V30 5531 H 509.77 2.98385 -3.91443 0
M  V30 5532 N 511.423 1.38739 0.74761 0
M  V30 5533 C 512.651 1.38521 1.53686 0
M  V30 5534 C 513.066 -0.0235129 1.88785 0
M  V30 5535 O 512.423 -0.991662 1.53207 0
M  V30 5536 C 512.474 2.24641 2.83229 0
M  V30 5537 O 512.195 3.60026 2.49625 0
M  V30 5538 C 513.696 2.32669 3.77333 0
M  V30 5539 H 510.916 0.473589 0.475347 0
M  V30 5540 H 513.46 1.82395 0.924786 0
M  V30 5541 H 511.615 1.84213 3.40799 0
M  V30 5542 H 512.029 4.05435 3.3275 0
M  V30 5543 H 513.503 2.97201 4.65162 0
M  V30 5544 H 513.98 1.3421 4.18192 0
M  V30 5545 H 514.586 2.73512 3.25685 0
M  V30 5546 N 512.901 -0.976442 1.23707 0
M  V30 5547 C 513.849 -2.09078 1.01927 0
M  V30 5548 C 514.843 -1.69345 -0.0430193 0
M  V30 5549 O 516.049 -1.79659 0.110814 0
M  V30 5550 H 512.424 -0.68398 0.312531 0
M  V30 5551 H 514.395 -2.24614 1.96447 0
M  V30 5552 C 513.144 -3.41919 0.631385 0
M  V30 5553 H 512.467 -3.72946 1.44053 0
M  V30 5554 H 513.907 -4.20817 0.518532 0
M  V30 5555 C 512.366 -3.30357 -0.660723 0
M  V30 5556 O 512.896 -3.63542 -1.70881 0
M  V30 5557 N 511.102 -2.83507 -0.638139 0
M  V30 5558 H 510.649 -2.567 0.215108 0
M  V30 5559 H 510.607 -2.76153 -1.50289 0
M  V30 5560 N 514.379 -1.04941 -1.1758 0
M  V30 5561 C 515.342 -0.652456 -2.19717 0
M  V30 5562 C 516.342 0.294745 -1.58076 0
M  V30 5563 O 517.532 0.0789579 -1.74021 0
M  V30 5564 C 514.664 0.0420712 -3.40874 0
M  V30 5565 H 515.857 -1.55642 -2.5635 0
M  V30 5566 H 513.41 -0.842995 -1.31618 0
M  V30 5567 H 514.145 0.95943 -3.09783 0
M  V30 5568 H 513.93 -0.638844 -3.86861 0
M  V30 5569 H 515.42 0.306 -4.16477 0
M  V30 5570 N 515.857 1.33968 -0.830081 0
M  V30 5571 C 517.103 1.98357 -0.422191 0
M  V30 5572 C 517.436 1.65633 1.01387 0
M  V30 5573 O 516.711 0.931648 1.70735 0
M  V30 5574 C 516.994 3.54492 -0.633043 0
M  V30 5575 C 516.847 3.96934 -2.11574 0
M  V30 5576 C 518.166 4.40039 -0.0735584 0
M  V30 5577 H 515.285 0.720544 -0.154871 0
M  V30 5578 H 517.927 1.58749 -1.04397 0
M  V30 5579 H 516.077 3.88361 -0.103775 0
M  V30 5580 H 517.749 3.73363 -2.7092 0
M  V30 5581 H 515.992 3.46984 -2.60354 0
M  V30 5582 H 516.663 5.05651 -2.21406 0
M  V30 5583 H 519.139 4.12764 -0.52585 0
M  V30 5584 H 518.015 5.48327 -0.250841 0
M  V30 5585 H 518.276 4.30124 1.02202 0
M  V30 5586 N 517.335 0.585699 1.46312 0
M  V30 5587 C 518.583 0.072278 2.01971 0
M  V30 5588 C 518.904 -1.29345 1.45928 0
M  V30 5589 O 518.174 -1.84973 0.645109 0
M  V30 5590 H 516.754 0.023729 0.746623 0
M  V30 5591 H 519.416 0.762155 1.7938 0
M  V30 5592 H 518.512 0.00552767 3.121 0
M  V30 5593 N 518.813 -1.54241 0.323641 0
M  V30 5594 C 519.763 -2.21071 -0.557833 0
M  V30 5595 C 520.747 -1.19126 -1.08157 0
M  V30 5596 O 521.939 -1.44755 -1.01857 0
M  V30 5597 C 519.068 -2.97208 -1.71821 0
M  V30 5598 C 518.154 -4.06491 -1.20936 0
M  V30 5599 N 518.545 -5.04052 -0.420202 0
M  V30 5600 C 516.843 -4.20443 -1.48808 0
M  V30 5601 C 517.544 -5.81516 -0.146413 0
M  V30 5602 N 516.52 -5.38641 -0.732562 0
M  V30 5603 H 520.322 -2.93853 0.0523921 0
M  V30 5604 H 517.836 -1.61883 0.129502 0
M  V30 5605 H 519.833 -3.4357 -2.36146 0
M  V30 5606 H 518.493 -2.25947 -2.33191 0
M  V30 5607 H 519.504 -5.17862 -0.0630401 0
M  V30 5608 H 516.181 -3.60396 -2.10762 0
M  V30 5609 H 517.571 -6.70119 0.488895 0
M  V30 5610 N 520.291 -0.0518155 -1.57515 0
M  V30 5611 C 521.568 0.661727 -1.84067 0
M  V30 5612 C 521.948 1.88999 -0.940351 0
M  V30 5613 O 521.296 2.285 -0.00155404 0
M  V30 5614 C 521.506 1.01841 -3.3381 0
M  V30 5615 C 522.854 1.40043 -4.00841 0
M  V30 5616 O 523.878 1.11073 -3.38439 0
M  V30 5617 O 522.737 1.94111 -5.10865 0
M  V30 5618 H 519.831 0.326702 -0.759733 0
M  V30 5619 H 522.377 -0.0812277 -1.69505 0
M  V30 5620 H 521.149 0.145202 -3.91031 0
M  V30 5621 H 520.772 1.81879 -3.53562 0
M  V30 5622 N 521.769 1.56035 0.221574 0
M  V30 5623 C 522.997 1.8313 0.962864 0
M  V30 5624 C 523.412 0.630934 1.77946 0
M  V30 5625 O 522.769 -0.400519 1.78051 0
M  V30 5626 C 522.82 3.08742 1.88045 0
M  V30 5627 O 522.541 4.24147 1.09686 0
M  V30 5628 C 524.042 3.48824 2.73563 0
M  V30 5629 H 521.262 0.608775 0.282194 0
M  V30 5630 H 523.806 2.03124 0.23681 0
M  V30 5631 H 521.961 2.90723 2.56045 0
M  V30 5632 H 522.375 4.95505 1.71974 0
M  V30 5633 H 523.849 4.39752 3.3365 0
M  V30 5634 H 524.326 2.70575 3.45956 0
M  V30 5635 H 524.932 3.69282 2.10976 0
M  V30 5636 N 523.247 -0.488276 1.49845 0
M  V30 5637 C 524.663 -0.820566 1.3689 0
M  V30 5638 C 524.863 -1.97248 0.411752 0
M  V30 5639 O 523.919 -2.52042 -0.151931 0
M  V30 5640 C 525.232 -1.1488 2.77891 0
M  V30 5641 C 526.78 -1.25626 2.86683 0
M  V30 5642 C 527.255 -1.61772 4.28479 0
M  V30 5643 N 528.746 -1.68797 4.31349 0
M  V30 5644 C 529.481 -1.98235 5.38043 0
M  V30 5645 N 528.977 -2.2581 6.54967 0
M  V30 5646 N 530.77 -1.99593 5.2547 0
M  V30 5647 H 522.921 0.271123 2.10662 0
M  V30 5648 H 525.184 0.058735 0.946179 0
M  V30 5649 H 524.89 -0.375614 3.49688 0
M  V30 5650 H 524.764 -2.08919 3.14058 0
M  V30 5651 H 527.151 -2.02014 2.15114 0
M  V30 5652 H 527.232 -0.296072 2.54081 0
M  V30 5653 H 526.876 -0.859295 5.00578 0
M  V30 5654 H 526.806 -2.58912 4.58554 0
M  V30 5655 H 529.297 -1.49595 3.4703 0
M  V30 5656 H 529.61 -2.47497 7.32096 0
M  V30 5657 H 527.955 -2.23239 6.58171 0
M  V30 5658 H 531.146 -1.77535 4.33127 0
M  V30 5659 H 531.319 -2.222 6.08713 0
M  V30 5660 N 524.725 -1.39134 -0.740242 0
M  V30 5661 C 525.672 -1.37434 -1.8542 0
M  V30 5662 C 526.642 -0.234822 -1.64432 0
M  V30 5663 O 527.827 -0.429125 -1.85912 0
M  V30 5664 C 524.967 -1.21844 -3.22875 0
M  V30 5665 C 524.08 -2.45296 -3.55603 0
M  V30 5666 C 523.215 -2.22334 -4.82432 0
M  V30 5667 C 522.254 -3.41488 -5.07988 0
M  V30 5668 N 521.391 -3.17877 -6.26018 0
M  V30 5669 H 526.231 -2.3266 -1.86207 0
M  V30 5670 H 523.768 -1.15578 -0.909946 0
M  V30 5671 H 525.726 -1.10818 -4.02213 0
M  V30 5672 H 524.356 -0.3025 -3.21379 0
M  V30 5673 H 523.408 -2.66945 -2.71006 0
M  V30 5674 H 524.72 -3.34063 -3.7041 0
M  V30 5675 H 523.874 -2.0852 -5.69741 0
M  V30 5676 H 522.613 -1.30954 -4.6979 0
M  V30 5677 H 521.618 -3.55807 -4.19144 0
M  V30 5678 H 522.843 -4.33763 -5.22519 0
M  V30 5679 H 520.789 -2.29156 -6.14673 0
M  V30 5680 H 520.706 -4.00198 -6.41387 0
M  V30 5681 H 521.974 -3.07746 -7.16179 0
M  V30 5682 N 526.204 0.969867 -1.24223 0
M  V30 5683 C 527.136 2.0669 -0.99055 0
M  V30 5684 C 528.149 1.62753 0.0392222 0
M  V30 5685 O 529.338 1.77403 -0.197561 0
M  V30 5686 C 526.438 3.35589 -0.472594 0
M  V30 5687 C 525.611 4.08444 -1.56499 0
M  V30 5688 C 524.67 5.15616 -1.05007 0
M  V30 5689 O 523.696 5.41911 -1.7413 0
M  V30 5690 N 524.898 5.80383 0.116641 0
M  V30 5691 H 527.663 2.28855 -1.93508 0
M  V30 5692 H 525.224 1.13733 -1.15223 0
M  V30 5693 H 527.216 4.04542 -0.112919 0
M  V30 5694 H 525.786 3.10311 0.377617 0
M  V30 5695 H 525.006 3.33798 -2.09696 0
M  V30 5696 H 526.294 4.53882 -2.29932 0
M  V30 5697 H 525.692 5.6142 0.694589 0
M  V30 5698 H 524.249 6.50462 0.417483 0
M  V30 5699 N 527.682 1.05563 1.17022 0
M  V30 5700 C 528.912 0.787307 1.91011 0
M  V30 5701 C 529.32 -0.661256 1.77268 0
M  V30 5702 O 528.663 -1.46379 1.10991 0
M  V30 5703 C 528.725 1.09313 3.42478 0
M  V30 5704 C 528.389 2.53863 3.80004 0
M  V30 5705 C 529.386 3.52081 3.82538 0
M  V30 5706 C 527.071 2.88969 4.10855 0
M  V30 5707 C 529.065 4.83449 4.15399 0
M  V30 5708 C 526.752 4.2054 4.43384 0
M  V30 5709 C 527.75 5.17589 4.45635 0
M  V30 5710 O 527.438 6.46799 4.77395 0
M  V30 5711 H 527.17 0.285463 0.61277 0
M  V30 5712 H 529.724 1.41051 1.49311 0
M  V30 5713 H 527.954 0.412833 3.8449 0
M  V30 5714 H 529.643 0.810224 3.97731 0
M  V30 5715 H 530.409 3.26299 3.58823 0
M  V30 5716 H 526.288 2.1409 4.08272 0
M  V30 5717 H 529.832 5.59194 4.1707 0
M  V30 5718 H 525.729 4.46083 4.66563 0
M  V30 5719 H 526.497 6.51677 4.95237 0
M  V30 5720 N 529.16 -1.33526 0.837174 0
M  V30 5721 C 530.576 -1.50727 0.524743 0
M  V30 5722 C 530.776 -1.77792 -0.948279 0
M  V30 5723 O 529.832 -1.83719 -1.73216 0
M  V30 5724 C 531.145 -2.66299 1.39661 0
M  V30 5725 C 532.693 -2.80183 1.39521 0
M  V30 5726 C 533.168 -3.98815 2.25189 0
M  V30 5727 N 534.659 -4.06047 2.2289 0
M  V30 5728 C 535.394 -4.97032 2.85915 0
M  V30 5729 N 534.89 -5.93143 3.57985 0
M  V30 5730 N 536.683 -4.90015 2.75394 0
M  V30 5731 H 528.834 -1.1422 1.79074 0
M  V30 5732 H 531.097 -0.561399 0.763894 0
M  V30 5733 H 530.803 -2.52974 2.4433 0
M  V30 5734 H 530.677 -3.61663 1.07145 0
M  V30 5735 H 533.064 -2.92942 0.356253 0
M  V30 5736 H 533.145 -1.85586 1.76044 0
M  V30 5737 H 532.789 -3.86817 3.29143 0
M  V30 5738 H 532.719 -4.92654 1.86009 0
M  V30 5739 H 535.21 -3.37262 1.70478 0
M  V30 5740 H 535.523 -6.59227 4.03286 0
M  V30 5741 H 533.868 -5.93223 3.62093 0
M  V30 5742 H 537.059 -4.13894 2.18654 0
M  V30 5743 H 537.232 -5.60724 3.24796 0
M  V30 5744 N 530.638 -0.59345 -1.46 0
M  V30 5745 C 531.585 0.133618 -2.30413 0
M  V30 5746 C 532.555 0.873736 -1.41262 0
M  V30 5747 O 533.74 0.862279 -1.70204 0
M  V30 5748 C 530.88 1.13434 -3.25924 0
M  V30 5749 C 529.993 0.39656 -4.30176 0
M  V30 5750 C 529.128 1.38575 -5.12806 0
M  V30 5751 C 528.167 0.634984 -6.08797 0
M  V30 5752 N 527.304 1.57276 -6.84258 0
M  V30 5753 H 532.144 -0.592252 -2.92055 0
M  V30 5754 H 529.681 -0.303874 -1.43927 0
M  V30 5755 H 531.639 1.72752 -3.79753 0
M  V30 5756 H 530.269 1.82779 -2.66067 0
M  V30 5757 H 529.321 -0.311861 -3.79119 0
M  V30 5758 H 530.633 -0.189869 -4.98438 0
M  V30 5759 H 529.787 2.05141 -5.70966 0
M  V30 5760 H 528.526 2.00611 -4.44529 0
M  V30 5761 H 527.531 -0.0443925 -5.49782 0
M  V30 5762 H 528.756 0.0198678 -6.79097 0
M  V30 5763 H 526.702 2.18103 -6.18682 0
M  V30 5764 H 526.619 1.03941 -7.48821 0
M  V30 5765 H 527.887 2.22844 -7.46968 0
M  V30 5766 N 532.116 1.54067 -0.331816 0
M  V30 5767 C 533.046 2.27569 0.522932 0
M  V30 5768 C 534.027 1.28679 1.11247 0
M  V30 5769 O 535.212 1.57504 1.13605 0
M  V30 5770 C 532.342 3.0397 1.67987 0
M  V30 5771 C 531.296 4.10267 1.21924 0
M  V30 5772 C 530.622 4.74555 2.46377 0
M  V30 5773 C 531.922 5.21268 0.32815 0
M  V30 5774 H 533.616 2.99264 -0.0901977 0
M  V30 5775 H 531.162 1.4393 -0.044821 0
M  V30 5776 H 533.115 3.54123 2.28418 0
M  V30 5777 H 531.839 2.29906 2.31971 0
M  V30 5778 H 530.498 3.61009 0.637809 0
M  V30 5779 H 530.146 3.97098 3.08743 0
M  V30 5780 H 529.846 5.46363 2.16243 0
M  V30 5781 H 531.37 5.27487 3.07555 0
M  V30 5782 H 532.784 5.67128 0.838978 0
M  V30 5783 H 531.181 5.99982 0.119228 0
M  V30 5784 H 532.251 4.80673 -0.638839 0
M  V30 5785 N 533.594 0.0601682 1.57485 0
M  V30 5786 C 534.557 -0.896373 2.10945 0
M  V30 5787 C 535.557 -1.23402 1.03095 0
M  V30 5788 O 536.747 -1.16921 1.29132 0
M  V30 5789 C 533.879 -2.20346 2.60116 0
M  V30 5790 H 535.072 -0.432778 2.96761 0
M  V30 5791 H 532.625 -0.188372 1.55161 0
M  V30 5792 H 533.36 -2.71268 1.7772 0
M  V30 5793 H 533.145 -1.9714 3.38937 0
M  V30 5794 H 534.635 -2.88846 3.01592 0
M  V30 5795 N 535.072 -1.5615 -0.213296 0
M  V30 5796 C 536.019 -1.93086 -1.26437 0
M  V30 5797 C 536.989 -0.789086 -1.4616 0
M  V30 5798 O 538.174 -1.04569 -1.59593 0
M  V30 5799 C 535.314 -2.26003 -2.608 0
M  V30 5800 C 534.427 -3.53156 -2.48807 0
M  V30 5801 C 533.562 -3.7548 -3.7575 0
M  V30 5802 C 532.601 -4.96119 -3.58514 0
M  V30 5803 N 531.738 -5.14791 -4.77425 0
M  V30 5804 H 536.578 -2.82707 -0.942376 0
M  V30 5805 H 534.115 -1.39919 -0.454001 0
M  V30 5806 H 536.073 -2.431 -3.39055 0
M  V30 5807 H 534.703 -1.39546 -2.91079 0
M  V30 5808 H 533.755 -3.44207 -1.61944 0
M  V30 5809 H 535.067 -4.41565 -2.31996 0
M  V30 5810 H 534.221 -3.92718 -4.62447 0
M  V30 5811 H 532.96 -2.85368 -3.95495 0
M  V30 5812 H 531.965 -4.78823 -2.70201 0
M  V30 5813 H 533.19 -5.87724 -3.40231 0
M  V30 5814 H 531.136 -4.27623 -4.97468 0
M  V30 5815 H 531.053 -5.97347 -4.63371 0
M  V30 5816 H 532.321 -5.36471 -5.65525 0
M  V30 5817 N 536.55 0.480323 -1.50102 0
M  V30 5818 C 537.775 1.26126 -1.64642 0
M  V30 5819 C 538.2 1.85257 -0.325823 0
M  V30 5820 O 537.558 1.66854 0.709194 0
M  V30 5821 C 537.606 2.35243 -2.73301 0
M  V30 5822 O 536.71 3.39646 -2.33911 0
M  V30 5823 H 536.051 0.371463 -0.550374 0
M  V30 5824 H 538.581 0.572696 -1.96421 0
M  V30 5825 H 538.591 2.80695 -2.96098 0
M  V30 5826 H 537.266 1.91574 -3.6915 0
M  V30 5827 H 535.843 2.99969 -2.21525 0
M  V30 5828 N 538.028 1.39524 0.732853 0
M  V30 5829 C 539.256 1.40143 1.52209 0
M  V30 5830 C 539.671 -0.00348836 1.888 0
M  V30 5831 O 539.028 -0.975357 1.5425 0
M  V30 5832 C 539.079 2.27632 2.8083 0
M  V30 5833 O 538.8 3.62654 2.45792 0
M  V30 5834 C 540.301 2.36658 3.74844 0
M  V30 5835 H 537.521 0.478604 0.470297 0
M  V30 5836 H 540.065 1.83366 0.905388 0
M  V30 5837 H 538.22 1.87818 3.38826 0
M  V30 5838 H 538.634 4.08941 3.28431 0
M  V30 5839 H 540.108 3.02118 4.61984 0
M  V30 5840 H 540.585 1.38638 4.16745 0
M  V30 5841 H 541.191 2.76951 3.22766 0
M  V30 5842 N 539.506 -0.963266 1.24736 0
M  V30 5843 C 540.436 -2.07628 1.06832 0
M  V30 5844 C 541.417 -1.70088 -0.0200566 0
M  V30 5845 O 542.602 -1.93636 0.147854 0
M  V30 5846 C 539.732 -3.40636 0.677069 0
M  V30 5847 C 538.686 -3.9215 1.71471 0
M  V30 5848 C 538.012 -5.21553 1.1784 0
M  V30 5849 C 539.312 -4.19493 3.11164 0
M  V30 5850 H 541.006 -2.22864 1.9993 0
M  V30 5851 H 538.552 -1.07093 0.96266 0
M  V30 5852 H 540.505 -4.17941 0.538792 0
M  V30 5853 H 539.229 -3.25313 -0.289612 0
M  V30 5854 H 537.888 -3.17005 1.84128 0
M  V30 5855 H 537.536 -5.02593 0.202195 0
M  V30 5856 H 537.236 -5.56988 1.87185 0
M  V30 5857 H 538.76 -6.01463 1.05233 0
M  V30 5858 H 540.174 -4.87487 3.01711 0
M  V30 5859 H 538.571 -4.66165 3.77902 0
M  V30 5860 H 539.641 -3.26097 3.58871 0
M  V30 5861 N 540.985 -1.06182 -1.16461 0
M  V30 5862 C 542.231 -0.779015 -1.87241 0
M  V30 5863 C 542.564 0.692715 -1.81425 0
M  V30 5864 O 541.839 1.5074 -1.22913 0
M  V30 5865 C 542.122 -1.2728 -3.36856 0
M  V30 5866 C 541.975 -2.80821 -3.51368 0
M  V30 5867 C 543.294 -0.879799 -4.31216 0
M  V30 5868 H 540.413 -0.284464 -0.679889 0
M  V30 5869 H 543.055 -1.31755 -1.36896 0
M  V30 5870 H 541.205 -0.814673 -3.79862 0
M  V30 5871 H 542.877 -3.34833 -3.17308 0
M  V30 5872 H 541.12 -3.19606 -2.93316 0
M  V30 5873 H 541.791 -3.10435 -4.56436 0
M  V30 5874 H 544.267 -1.27436 -3.96105 0
M  V30 5875 H 543.143 -1.25278 -5.34412 0
M  V30 5876 H 543.404 0.215372 -4.41575 0
M  V30 5877 N 542.463 1.3308 -0.844243 0
M  V30 5878 C 543.393 2.3161 -0.296493 0
M  V30 5879 C 544.374 1.59215 0.598707 0
M  V30 5880 O 545.559 1.87077 0.521134 0
M  V30 5881 C 542.689 3.43313 0.524762 0
M  V30 5882 C 541.643 4.27115 -0.275106 0
M  V30 5883 C 540.969 5.30483 0.670236 0
M  V30 5884 C 542.269 5.00443 -1.49514 0
M  V30 5885 H 543.963 2.77672 -1.11976 0
M  V30 5886 H 541.509 1.33496 -0.539899 0
M  V30 5887 H 543.462 4.11273 0.918298 0
M  V30 5888 H 542.186 2.95952 1.3813 0
M  V30 5889 H 540.845 3.60787 -0.650267 0
M  V30 5890 H 540.493 4.79379 1.52332 0
M  V30 5891 H 540.193 5.87435 0.139123 0
M  V30 5892 H 541.717 6.01308 1.06117 0
M  V30 5893 H 543.131 5.61141 -1.17447 0
M  V30 5894 H 541.528 5.67071 -1.96343 0
M  V30 5895 H 542.598 4.28906 -2.26202 0
M  V30 5896 N 543.941 0.601185 1.45683 0
M  V30 5897 C 545.187 0.0940202 2.02582 0
M  V30 5898 C 545.52 -1.26972 1.46941 0
M  V30 5899 O 544.795 -1.83613 0.641612 0
M  V30 5900 C 545.078 0.0481715 3.60068 0
M  V30 5901 C 544.931 1.44212 4.26055 0
M  V30 5902 C 546.25 -0.642975 4.35378 0
M  V30 5903 H 543.369 0.0356404 0.736138 0
M  V30 5904 H 546.011 0.771929 1.73612 0
M  V30 5905 H 544.161 -0.529128 3.8488 0
M  V30 5906 H 545.833 2.06601 4.12449 0
M  V30 5907 H 544.076 2.00465 3.84703 0
M  V30 5908 H 544.747 1.36234 5.34925 0
M  V30 5909 H 547.223 -0.152351 4.15821 0
M  V30 5910 H 546.099 -0.644141 5.45107 0
M  V30 5911 H 546.36 -1.70785 4.0778 0
M  V30 5912 N 545.419 -1.53889 0.339982 0
M  V30 5913 C 546.349 -2.27843 -0.510856 0
M  V30 5914 C 547.33 -1.29267 -1.10563 0
M  V30 5915 O 548.515 -1.58104 -1.12768 0
M  V30 5916 C 545.645 -3.04857 -1.66372 0
M  V30 5917 C 544.599 -4.10907 -1.19746 0
M  V30 5918 C 543.925 -4.75855 -2.43857 0
M  V30 5919 C 545.225 -5.21435 -0.300501 0
M  V30 5920 H 546.919 -2.99212 0.106067 0
M  V30 5921 H 544.465 -1.43904 0.0524533 0
M  V30 5922 H 546.418 -3.5533 -2.26537 0
M  V30 5923 H 545.142 -2.31133 -2.30749 0
M  V30 5924 H 543.801 -3.61342 -0.618654 0
M  V30 5925 H 543.449 -3.9873 -3.06633 0
M  V30 5926 H 543.149 -5.47502 -2.13343 0
M  V30 5927 H 544.673 -5.2911 -3.04754 0
M  V30 5928 H 546.087 -5.67565 -0.80889 0
M  V30 5929 H 544.484 -6.00036 -0.0874076 0
M  V30 5930 H 545.554 -4.80328 0.664321 0
M  V30 5931 N 546.897 -0.0685191 -1.57451 0
M  V30 5932 C 548.143 0.602239 -1.93652 0
M  V30 5933 C 548.476 1.6946 -0.948526 0
M  V30 5934 O 547.751 1.94487 0.022782 0
M  V30 5935 C 548.034 1.18223 -3.4014 0
M  V30 5936 C 547.887 0.0967431 -4.49696 0
M  V30 5937 C 549.206 2.08872 -3.87377 0
M  V30 5938 H 546.325 0.217453 -0.70419 0
M  V30 5939 H 548.967 -0.133821 -1.89528 0
M  V30 5940 H 547.117 1.80953 -3.43785 0
M  V30 5941 H 548.789 -0.536155 -4.58174 0
M  V30 5942 H 547.032 -0.573063 -4.29998 0
M  V30 5943 H 547.703 0.542894 -5.49324 0
M  V30 5944 H 550.179 1.56081 -3.85717 0
M  V30 5945 H 549.055 2.46389 -4.90493 0
M  V30 5946 H 549.316 2.99572 -3.25129 0
M  V30 5947 N 548.375 1.56261 0.205012 0
M  V30 5948 C 549.622 1.8004 0.926927 0
M  V30 5949 C 549.95 0.640086 1.83666 0
M  V30 5950 O 549.205 -0.374702 1.92079 0
M  V30 5951 C 549.504 3.09722 1.78345 0
M  V30 5952 C 549.17 4.39082 1.02555 0
M  V30 5953 C 547.832 4.74226 0.816256 0
M  V30 5954 C 550.184 5.18877 0.491559 0
M  V30 5955 C 547.512 5.86668 0.0613287 0
M  V30 5956 C 549.864 6.32105 -0.250107 0
M  V30 5957 C 548.528 6.6584 -0.470508 0
M  V30 5958 H 547.798 0.658812 0.339187 0
M  V30 5959 H 550.445 1.90515 0.19395 0
M  V30 5960 H 548.75 2.9444 2.5848 0
M  V30 5961 H 550.447 3.25324 2.34446 0
M  V30 5962 H 547.037 4.11497 1.19868 0
M  V30 5963 H 551.221 4.92147 0.640684 0
M  V30 5964 H 546.477 6.11283 -0.119501 0
M  V30 5965 H 550.651 6.93157 -0.671307 0
M  V30 5966 H 548.278 7.5281 -1.05739 0
M  V30 5967 N 549.853 -0.472356 1.50355 0
M  V30 5968 C 551.101 -1.22211 1.60962 0
M  V30 5969 C 551.422 -1.92497 0.311439 0
M  V30 5970 O 550.692 -1.8405 -0.671002 0
M  V30 5971 H 549.272 -0.454092 0.593135 0
M  V30 5972 H 551.934 -0.544977 1.87126 0
M  V30 5973 H 551.03 -1.9707 2.42012 0
M  V30 5974 N 551.331 -1.39911 -0.725443 0
M  V30 5975 C 552.577 -1.37858 -1.48738 0
M  V30 5976 C 552.91 0.0224187 -1.94187 0
M  V30 5977 O 552.185 0.989204 -1.67466 0
M  V30 5978 C 552.468 -2.3594 -2.72038 0
M  V30 5979 C 552.321 -3.85023 -2.32546 0
M  V30 5980 C 553.64 -2.31704 -3.74167 0
M  V30 5981 H 550.759 -0.502074 -0.539528 0
M  V30 5982 H 553.401 -1.70974 -0.828728 0
M  V30 5983 H 551.551 -2.0783 -3.28236 0
M  V30 5984 H 553.223 -4.2392 -1.81905 0
M  V30 5985 H 551.466 -4.01334 -1.64661 0
M  V30 5986 H 552.137 -4.49152 -3.20884 0
M  V30 5987 H 554.613 -2.5658 -3.27576 0
M  V30 5988 H 553.489 -3.02395 -4.58092 0
M  V30 5989 H 553.75 -1.3253 -4.21768 0
M  V30 5990 N 552.809 0.956637 -1.25245 0
M  V30 5991 C 553.759 2.03841 -1.02141 0
M  V30 5992 C 554.743 1.60848 0.0410058 0
M  V30 5993 O 555.935 1.76142 -0.174084 0
M  V30 5994 C 553.064 3.37282 -0.639963 0
M  V30 5995 C 552.15 3.86805 -1.73903 0
M  V30 5996 N 552.541 4.09143 -2.97381 0
M  V30 5997 C 550.839 4.15574 -1.61909 0
M  V30 5998 C 551.54 4.49923 -3.68707 0
M  V30 5999 N 550.516 4.55737 -2.96318 0
M  V30 6000 H 554.318 2.19102 -1.95886 0
M  V30 6001 H 551.832 1.1413 -1.15534 0
M  V30 6002 H 553.829 4.14403 -0.455643 0
M  V30 6003 H 552.489 3.23401 0.29018 0
M  V30 6004 H 553.5 3.96275 -3.33447 0
M  V30 6005 H 550.177 4.10566 -0.757764 0
M  V30 6006 H 551.567 4.75526 -4.74684 0
M  V30 6007 N 554.287 1.06798 1.15896 0
M  V30 6008 C 555.517 0.807522 1.90165 0
M  V30 6009 C 555.925 -0.642417 1.7796 0
M  V30 6010 O 555.268 -1.45193 1.12537 0
M  V30 6011 C 555.33 1.12939 3.41299 0
M  V30 6012 C 554.994 2.57879 3.7729 0
M  V30 6013 C 555.991 3.56118 3.78782 0
M  V30 6014 C 553.676 2.93311 4.07767 0
M  V30 6015 C 555.67 4.87827 4.10248 0
M  V30 6016 C 553.357 4.25219 4.38899 0
M  V30 6017 C 554.355 5.22287 4.4012 0
M  V30 6018 O 554.043 6.51826 4.70508 0
M  V30 6019 H 553.775 0.291946 0.609708 0
M  V30 6020 H 556.329 1.42627 1.47806 0
M  V30 6021 H 554.559 0.45359 3.84031 0
M  V30 6022 H 556.248 0.852363 3.9685 0
M  V30 6023 H 557.014 3.30086 3.55342 0
M  V30 6024 H 552.893 2.18409 4.05979 0
M  V30 6025 H 556.437 5.63586 4.11116 0
M  V30 6026 H 552.334 4.51006 4.61805 0
M  V30 6027 H 553.102 6.56893 4.88298 0
M  V30 6028 N 555.766 -1.3263 0.851289 0
M  V30 6029 C 557.015 -1.96633 0.449267 0
M  V30 6030 C 557.328 -1.68131 -0.999562 0
M  V30 6031 O 558.534 -2.25845 -1.50685 0
M  V30 6032 C 556.99 -3.51946 0.752446 0
M  V30 6033 C 556.598 -3.89311 2.21678 0
M  V30 6034 C 558.342 -4.22437 0.417983 0
M  V30 6035 C 556.249 -5.37655 2.46336 0
M  V30 6036 H 555.179 -0.735888 0.164269 0
M  V30 6037 H 557.83 -1.51073 1.0416 0
M  V30 6038 H 556.212 -3.95899 0.0895858 0
M  V30 6039 H 557.386 -3.56378 2.92115 0
M  V30 6040 H 555.701 -3.31836 2.51543 0
M  V30 6041 H 558.298 -5.31549 0.579674 0
M  V30 6042 H 558.641 -4.11349 -0.640115 0
M  V30 6043 H 559.174 -3.84057 1.03659 0
M  V30 6044 H 555.913 -5.5376 3.50757 0
M  V30 6045 H 555.433 -5.72005 1.80473 0
M  V30 6046 H 557.112 -6.04695 2.30115 0
M  V30 6047 N 557.244 -0.608902 -1.45362 0
M  V30 6048 C 558.49 -0.104762 -2.02529 0
M  V30 6049 C 558.823 1.26191 -1.47613 0
M  V30 6050 O 558.098 1.8327 -0.65134 0
M  V30 6051 C 558.381 -0.0672661 -3.60037 0
M  V30 6052 C 558.234 -1.4647 -4.25284 0
M  V30 6053 C 559.553 0.619877 -4.35713 0
M  V30 6054 H 556.672 -0.0395438 -0.735938 0
M  V30 6055 H 559.314 -0.781126 -1.73201 0
M  V30 6056 H 557.464 0.50871 -3.85155 0
M  V30 6057 H 559.136 -2.08785 -4.11347 0
M  V30 6058 H 557.379 -2.02502 -3.83634 0
M  V30 6059 H 558.05 -1.39069 -5.34195 0
M  V30 6060 H 560.526 0.130297 -4.15896 0
M  V30 6061 H 559.402 0.615224 -5.45441 0
M  V30 6062 H 559.663 1.68621 -4.0868 0
M  V30 6063 N 558.722 1.53707 -0.348139 0
M  V30 6064 C 559.969 2.00988 0.246966 0
M  V30 6065 C 560.297 1.23586 1.50189 0
M  V30 6066 O 559.552 0.312817 1.93184 0
M  V30 6067 C 559.851 3.52292 0.602061 0
M  V30 6068 C 559.517 4.47453 -0.556509 0
M  V30 6069 C 558.179 4.73188 -0.874446 0
M  V30 6070 C 560.531 5.03851 -1.33354 0
M  V30 6071 C 557.859 5.52577 -1.9717 0
M  V30 6072 C 560.211 5.84437 -2.42108 0
M  V30 6073 C 558.875 6.08465 -2.74456 0
M  V30 6074 H 558.145 0.735469 0.0903712 0
M  V30 6075 H 560.792 1.85464 -0.477001 0
M  V30 6076 H 559.097 3.65672 1.40681 0
M  V30 6077 H 560.794 3.86337 1.07447 0
M  V30 6078 H 557.384 4.27558 -0.298652 0
M  V30 6079 H 561.568 4.8393 -1.10117 0
M  V30 6080 H 556.824 5.69418 -2.22651 0
M  V30 6081 H 560.998 6.27151 -3.02745 0
M  V30 6082 H 558.625 6.69768 -3.59604 0
M  V30 6083 N 560.2 0.0768682 1.57412 0
M  V30 6084 C 561.446 -0.591961 1.93968 0
M  V30 6085 C 561.779 -1.68954 0.9575 0
M  V30 6086 O 561.054 -1.94496 -0.0124675 0
M  V30 6087 C 561.337 -1.16418 3.40762 0
M  V30 6088 C 561.19 -0.0728933 4.49741 0
M  V30 6089 C 562.509 -2.06814 3.88479 0
M  V30 6090 H 559.628 -0.213716 0.705333 0
M  V30 6091 H 562.27 0.14387 1.89455 0
M  V30 6092 H 560.42 -1.79128 3.4474 0
M  V30 6093 H 562.092 0.560446 4.57883 0
M  V30 6094 H 560.335 0.595859 4.29688 0
M  V30 6095 H 561.006 -0.513755 5.49604 0
M  V30 6096 H 563.482 -1.54033 3.8654 0
M  V30 6097 H 562.358 -2.43785 4.91793 0
M  V30 6098 H 562.619 -2.97844 3.26713 0
M  V30 6099 N 561.678 -1.56367 -0.196722 0
M  V30 6100 C 562.918 -1.82315 -0.92415 0
M  V30 6101 C 563.282 -0.654117 -1.80514 0
M  V30 6102 O 564.483 -0.79345 -2.56823 0
M  V30 6103 C 562.754 -3.13279 -1.72021 0
M  V30 6104 S 564.313 -3.60627 -2.49988 0
M  V30 6105 H 561.131 -0.639862 -0.309997 0
M  V30 6106 H 563.733 -1.94597 -0.187684 0
M  V30 6107 H 562.437 -3.96379 -1.06358 0
M  V30 6108 H 561.968 -3.03871 -2.49852 0
M  V30 6109 H 563.983 -3.25934 -3.74141 0
M  V30 6110 N 563.156 0.464375 -1.50603 0
M  V30 6111 C 564.086 1.56944 -1.72889 0
M  V30 6112 C 565.067 1.59979 -0.577997 0
M  V30 6113 O 566.252 1.76138 -0.817855 0
M  V30 6114 C 563.382 2.95225 -1.8292 0
M  V30 6115 C 562.336 3.07056 -2.98162 0
M  V30 6116 C 561.662 4.47051 -2.93343 0
M  V30 6117 C 562.962 2.83648 -4.38567 0
M  V30 6118 H 564.656 1.38547 -2.65415 0
M  V30 6119 H 562.202 0.665082 -1.27721 0
M  V30 6120 H 564.155 3.72467 -1.97095 0
M  V30 6121 H 562.879 3.14793 -0.870209 0
M  V30 6122 H 561.538 2.32248 -2.83648 0
M  V30 6123 H 561.186 4.63547 -1.95276 0
M  V30 6124 H 560.886 4.55902 -3.70712 0
M  V30 6125 H 562.41 5.26304 -3.09575 0
M  V30 6126 H 563.824 3.50636 -4.53572 0
M  V30 6127 H 562.221 3.03937 -5.17438 0
M  V30 6128 H 563.291 1.79451 -4.50472 0
M  V30 6129 N 564.634 1.40294 0.718013 0
M  V30 6130 C 566.045 1.34289 1.29705 0
M  V30 6131 C 566.396 0.0152228 1.96194 0
M  V30 6132 O 565.521 -0.88682 1.97394 0
M  V30 6133 C 566.116 2.43219 2.3586 0
M  V30 6134 C 564.675 2.40682 2.89394 0
M  V30 6135 C 563.822 2.24223 1.63154 0
M  V30 6136 H 566.773 1.50135 0.514312 0
M  V30 6137 H 566.794 2.10986 3.16647 0
M  V30 6138 H 566.306 3.39836 1.87439 0
M  V30 6139 H 564.407 1.47756 3.42051 0
M  V30 6140 H 564.52 3.36177 3.41353 0
M  V30 6141 H 562.884 1.71696 1.88129 0
M  V30 6142 H 563.667 3.22834 1.16761 0
M  V30 6143 N 566.112 -0.949982 1.2575 0
M  V30 6144 C 567.062 -2.03297 1.03221 0
M  V30 6145 C 568.046 -1.60867 -0.0324751 0
M  V30 6146 O 569.238 -1.76047 0.183423 0
M  V30 6147 C 566.367 -3.36938 0.657841 0
M  V30 6148 C 565.453 -3.85878 1.75952 0
M  V30 6149 N 565.844 -4.0756 2.99547 0
M  V30 6150 C 564.142 -4.14709 1.64111 0
M  V30 6151 C 564.843 -4.47961 3.71087 0
M  V30 6152 N 563.819 -4.5416 2.98731 0
M  V30 6153 H 567.621 -2.1806 1.97045 0
M  V30 6154 H 565.135 -1.13516 1.16138 0
M  V30 6155 H 567.132 -4.14155 0.477614 0
M  V30 6156 H 565.792 -3.2355 -0.273025 0
M  V30 6157 H 566.803 -3.94501 3.35544 0
M  V30 6158 H 563.48 -4.10158 0.779527 0
M  V30 6159 H 564.87 -4.73002 4.77199 0
M  V30 6160 N 567.59 -1.07411 -1.15328 0
M  V30 6161 C 568.815 -0.818856 -1.90551 0
M  V30 6162 C 569.24 0.622194 -1.77512 0
M  V30 6163 O 568.598 1.43484 -1.10824 0
M  V30 6164 C 568.646 -1.23267 -3.38877 0
M  V30 6165 O 567.75 -0.378345 -4.10661 0
M  V30 6166 H 567.091 -0.29827 -0.593238 0
M  V30 6167 H 569.621 -1.43289 -1.46046 0
M  V30 6168 H 569.631 -1.20912 -3.89672 0
M  V30 6169 H 568.306 -2.28226 -3.47686 0
M  V30 6170 H 566.883 -0.464437 -3.69996 0
M  V30 6171 N 569.068 1.32177 -0.85831 0
M  V30 6172 C 570.315 1.97125 -0.463484 0
M  V30 6173 C 570.643 1.67907 0.981705 0
M  V30 6174 O 569.898 0.961717 1.70439 0
M  V30 6175 C 570.197 3.51372 -0.653658 0
M  V30 6176 C 569.863 4.00584 -2.06987 0
M  V30 6177 C 568.525 4.13733 -2.4572 0
M  V30 6178 C 570.877 4.26624 -2.99402 0
M  V30 6179 C 568.205 4.50268 -3.76132 0
M  V30 6180 C 570.557 4.64618 -4.29316 0
M  V30 6181 C 569.221 4.75975 -4.67979 0
M  V30 6182 H 568.491 0.72133 -0.169601 0
M  V30 6183 H 571.138 1.57517 -1.08907 0
M  V30 6184 H 569.443 3.91761 0.0551328 0
M  V30 6185 H 571.14 3.99655 -0.328163 0
M  V30 6186 H 567.73 3.90837 -1.75911 0
M  V30 6187 H 571.914 4.1597 -2.70708 0
M  V30 6188 H 567.17 4.57256 -4.05865 0
M  V30 6189 H 571.344 4.83722 -5.00985 0
M  V30 6190 H 568.971 5.04041 -5.69076 0
M  V30 6191 N 570.547 0.616602 1.45037 0
M  V30 6192 C 571.775 0.121968 2.0654 0
M  V30 6193 C 572.19 -1.19743 1.45969 0
M  V30 6194 O 571.547 -1.73133 0.577168 0
M  V30 6195 C 571.598 -0.0145171 3.61497 0
M  V30 6196 O 571.319 1.25269 4.19809 0
M  V30 6197 C 572.82 -0.539555 4.40004 0
M  V30 6198 H 570.04 0.0729837 0.667019 0
M  V30 6199 H 572.584 0.846891 1.8614 0
M  V30 6200 H 570.739 -0.689809 3.81209 0
M  V30 6201 H 571.153 1.08816 5.13088 0
M  V30 6202 H 572.627 -0.584112 5.48901 0
M  V30 6203 H 573.104 -1.56368 4.10421 0
M  V30 6204 H 573.71 0.101995 4.25178 0
M  V30 6205 N 572.025 -1.5352 0.356285 0
M  V30 6206 C 573.273 -2.00719 -0.235837 0
M  V30 6207 C 573.594 -1.24551 -1.5004 0
M  V30 6208 O 572.864 -0.356185 -1.92635 0
M  V30 6209 H 571.444 -0.741542 -0.0901366 0
M  V30 6210 H 574.106 -1.88887 0.480378 0
M  V30 6211 H 573.202 -3.08551 -0.469357 0
M  V30 6212 N 573.503 -0.0852151 -1.57369 0
M  V30 6213 C 574.433 0.874556 -2.16503 0
M  V30 6214 C 575.414 1.30111 -1.09568 0
M  V30 6215 O 576.599 1.36977 -1.37662 0
M  V30 6216 C 573.729 2.13731 -2.73745 0
M  V30 6217 C 572.683 1.84971 -3.85966 0
M  V30 6218 C 572.009 3.17991 -4.29867 0
M  V30 6219 C 573.309 1.14442 -5.09608 0
M  V30 6220 H 575.003 0.381899 -2.96954 0
M  V30 6221 H 572.549 0.18225 -1.42842 0
M  V30 6222 H 574.502 2.81302 -3.13763 0
M  V30 6223 H 573.226 2.65263 -1.90534 0
M  V30 6224 H 571.885 1.19801 -3.46473 0
M  V30 6225 H 571.533 3.6739 -3.4356 0
M  V30 6226 H 571.233 2.99534 -5.05523 0
M  V30 6227 H 572.757 3.86737 -4.72511 0
M  V30 6228 H 574.171 1.72105 -5.46857 0
M  V30 6229 H 572.568 1.06197 -5.90629 0
M  V30 6230 H 573.638 0.12559 -4.84737 0
M  V30 6231 N 574.981 1.5647 0.188427 0
M  V30 6232 C 576.229 1.80655 0.905986 0
M  V30 6233 C 576.55 0.659391 1.83513 0
M  V30 6234 O 575.82 -0.321868 1.93238 0
M  V30 6235 H 574.4 0.666391 0.337538 0
M  V30 6236 H 577.062 1.93949 0.192339 0
M  V30 6237 H 576.158 2.74066 1.49313 0
M  V30 6238 N 576.459 -0.456382 1.50847 0
M  V30 6239 C 577.705 -1.20618 1.63777 0
M  V30 6240 C 578.06 -1.8936 0.340677 0
M  V30 6241 O 577.353 -1.79786 -0.662378 0
M  V30 6242 C 577.547 -2.26336 2.76599 0
M  V30 6243 C 577.376 -1.67968 4.17153 0
M  V30 6244 C 576.146 -1.47293 4.83356 0
M  V30 6245 C 578.344 -1.16643 5.00898 0
M  V30 6246 N 576.326 -0.843222 6.08081 0
M  V30 6247 C 577.697 -0.660843 6.16468 0
M  V30 6248 C 579.752 -1.05637 4.86565 0
M  V30 6249 C 578.455 -0.0560365 7.19278 0
M  V30 6250 C 580.481 -0.465485 5.89565 0
M  V30 6251 C 579.843 0.0296516 7.04394 0
M  V30 6252 H 575.942 -0.429725 0.653345 0
M  V30 6253 H 578.526 -0.505784 1.88016 0
M  V30 6254 H 576.697 -2.93785 2.54056 0
M  V30 6255 H 578.429 -2.9334 2.78808 0
M  V30 6256 H 575.184 -1.72934 4.40898 0
M  V30 6257 H 575.608 -0.546357 6.74792 0
M  V30 6258 H 580.25 -1.42508 3.98059 0
M  V30 6259 H 577.968 0.324845 8.07447 0
M  V30 6260 H 581.554 -0.382493 5.80541 0
M  V30 6261 H 580.434 0.479705 7.82731 0
M  V30 6262 N 577.937 -1.40673 -0.710563 0
M  V30 6263 C 578.847 -1.43663 -1.85467 0
M  V30 6264 C 579.863 -0.328721 -1.70867 0
M  V30 6265 O 581.039 -0.574098 -1.93044 0
M  V30 6266 C 578.104 -1.30226 -3.21313 0
M  V30 6267 C 577.165 -2.51204 -3.48131 0
M  V30 6268 C 576.398 -2.38398 -4.77495 0
M  V30 6269 O 576.621 -1.40048 -5.5294 0
M  V30 6270 O 575.555 -3.2787 -5.04762 0
M  V30 6271 H 579.381 -2.40156 -1.859 0
M  V30 6272 H 576.966 -1.22049 -0.861652 0
M  V30 6273 H 578.848 -1.2496 -4.02446 0
M  V30 6274 H 577.523 -0.368419 -3.21597 0
M  V30 6275 H 576.43 -2.62048 -2.66987 0
M  V30 6276 H 577.763 -3.43366 -3.52648 0
M  V30 6277 N 579.415 0.9433 -1.26252 0
M  V30 6278 C 580.664 1.68369 -1.11062 0
M  V30 6279 C 580.977 1.92514 0.346104 0
M  V30 6280 O 582.183 2.64358 0.618646 0
M  V30 6281 C 580.639 3.03171 -1.93946 0
M  V30 6282 C 580.247 2.86782 -3.4418 0
M  V30 6283 C 581.991 3.80916 -1.87359 0
M  V30 6284 C 579.898 4.17044 -4.19319 0
M  V30 6285 H 578.828 0.631469 -0.412023 0
M  V30 6286 H 581.479 1.04922 -1.50544 0
M  V30 6287 H 579.861 3.67587 -1.47296 0
M  V30 6288 H 581.035 2.31229 -3.98585 0
M  V30 6289 H 579.35 2.22482 -3.51981 0
M  V30 6290 H 581.947 4.77417 -2.40784 0
M  V30 6291 H 582.29 4.07658 -0.843857 0
M  V30 6292 H 582.823 3.2327 -2.31821 0
M  V30 6293 H 579.562 3.95487 -5.22753 0
M  V30 6294 H 579.082 4.72319 -3.69696 0
M  V30 6295 H 580.761 4.85513 -4.27651 0
M  V30 6296 N 580.893 1.08022 1.14757 0
M  V30 6297 C 582.309 0.807072 1.3769 0
M  V30 6298 C 582.509 -0.585504 1.92806 0
M  V30 6299 O 581.565 -1.34301 2.13821 0
M  V30 6300 C 582.878 1.88651 2.34161 0
M  V30 6301 C 584.426 1.91206 2.47809 0
M  V30 6302 C 584.901 2.98253 3.47576 0
M  V30 6303 N 586.392 2.974 3.55117 0
M  V30 6304 C 587.127 3.76872 4.32152 0
M  V30 6305 N 586.623 4.66212 5.12463 0
M  V30 6306 N 588.416 3.6519 4.27309 0
M  V30 6307 H 580.567 1.97824 0.77326 0
M  V30 6308 H 582.83 0.85826 0.402608 0
M  V30 6309 H 582.536 2.88749 2.00791 0
M  V30 6310 H 582.41 1.75244 3.3402 0
M  V30 6311 H 584.797 0.917564 2.80472 0
M  V30 6312 H 584.878 2.08691 1.47925 0
M  V30 6313 H 584.522 3.97907 3.15646 0
M  V30 6314 H 584.452 2.78014 4.47231 0
M  V30 6315 H 586.943 2.32643 2.97801 0
M  V30 6316 H 587.256 5.23468 5.68508 0
M  V30 6317 H 585.601 4.70257 5.11745 0
M  V30 6318 H 588.792 2.94765 3.63636 0
M  V30 6319 H 588.965 4.27366 4.87095 0
M  V30 6320 N 582.371 -1.3172 0.865308 0
M  V30 6321 C 583.304 -2.26687 0.262376 0
M  V30 6322 C 584.282 -1.50894 -0.605787 0
M  V30 6323 O 585.466 -1.79982 -0.56024 0
M  V30 6324 C 582.593 -3.3281 -0.628915 0
M  V30 6325 C 581.639 -4.26172 0.167278 0
M  V30 6326 S 582.472 -5.12797 1.54272 0
M  V30 6327 C 583.628 -6.22438 0.657427 0
M  V30 6328 H 583.861 -2.77478 1.0674 0
M  V30 6329 H 581.394 -1.39414 0.663555 0
M  V30 6330 H 583.352 -3.94426 -1.13747 0
M  V30 6331 H 582.013 -2.80782 -1.40785 0
M  V30 6332 H 581.206 -5.01392 -0.51203 0
M  V30 6333 H 580.808 -3.69029 0.607777 0
M  V30 6334 H 583.1 -6.77368 -0.133925 0
M  V30 6335 H 584.043 -6.9451 1.38061 0
M  V30 6336 H 584.451 -5.64043 0.227044 0
M  V30 6337 N 583.85 -0.624285 -1.44708 0
M  V30 6338 C 584.8 0.106466 -2.27751 0
M  V30 6339 C 585.784 0.822703 -1.38277 0
M  V30 6340 O 586.976 0.709939 -1.62138 0
M  V30 6341 C 584.105 1.092 -3.25469 0
M  V30 6342 C 583.191 0.375737 -4.22432 0
M  V30 6343 N 583.582 -0.591881 -5.02325 0
M  V30 6344 C 581.88 0.621093 -4.41654 0
M  V30 6345 C 582.581 -1.01443 -5.72786 0
M  V30 6346 N 581.557 -0.354651 -5.42442 0
M  V30 6347 H 585.359 -0.636464 -2.86926 0
M  V30 6348 H 582.873 -0.44925 -1.56062 0
M  V30 6349 H 584.87 1.63006 -3.83712 0
M  V30 6350 H 583.529 1.8353 -2.67856 0
M  V30 6351 H 584.541 -0.969389 -5.08747 0
M  V30 6352 H 581.218 1.34779 -3.95147 0
M  V30 6353 H 582.608 -1.81345 -6.46965 0
M  V30 6354 N 585.328 1.53329 -0.364422 0
M  V30 6355 C 586.568 2.0315 0.22572 0
M  V30 6356 C 586.932 1.24589 1.46087 0
M  V30 6357 O 588.133 1.64411 2.12656 0
M  V30 6358 C 586.404 3.53718 0.511663 0
M  V30 6359 S 587.963 4.25412 1.07564 0
M  V30 6360 H 584.781 0.70795 0.0657843 0
M  V30 6361 H 587.383 1.88811 -0.507019 0
M  V30 6362 H 586.087 4.08497 -0.394784 0
M  V30 6363 H 585.618 3.72217 1.27351 0
M  V30 6364 H 587.633 4.36486 2.35997 0
M  V30 6365 N 586.806 0.0935595 1.57322 0
M  V30 6366 C 587.716 -0.880192 2.17462 0
M  V30 6367 C 588.732 -1.31135 1.14366 0
M  V30 6368 O 589.908 -1.37958 1.46729 0
M  V30 6369 C 586.973 -2.12184 2.74188 0
M  V30 6370 C 586.034 -1.74503 3.92234 0
M  V30 6371 C 585.267 -2.92748 4.46245 0
M  V30 6372 O 585.49 -4.07427 3.99198 0
M  V30 6373 O 584.424 -2.71303 5.37288 0
M  V30 6374 H 588.25 -0.398516 3.01074 0
M  V30 6375 H 585.835 -0.130707 1.48827 0
M  V30 6376 H 587.717 -2.84953 3.10451 0
M  V30 6377 H 586.392 -2.59407 1.93623 0
M  V30 6378 H 585.299 -0.989186 3.60785 0
M  V30 6379 H 586.632 -1.32044 4.74157 0
M  V30 6380 N 588.284 -1.56567 -0.180126 0
M  V30 6381 C 589.214 -1.98753 -1.22553 0
M  V30 6382 C 590.195 -0.86175 -1.46656 0
M  V30 6383 O 591.38 -1.12719 -1.58139 0
M  V30 6384 C 588.51 -2.33988 -2.56645 0
M  V30 6385 C 587.464 -3.49445 -2.47128 0
M  V30 6386 C 586.79 -3.70397 -3.8563 0
M  V30 6387 C 588.09 -4.83171 -1.98352 0
M  V30 6388 H 589.784 -2.86332 -0.874896 0
M  V30 6389 H 587.33 -1.37757 -0.419414 0
M  V30 6390 H 589.283 -2.62097 -3.29974 0
M  V30 6391 H 588.007 -1.43309 -2.93479 0
M  V30 6392 H 586.666 -3.2145 -1.76254 0
M  V30 6393 H 586.314 -2.77023 -4.19842 0
M  V30 6394 H 586.014 -4.48077 -3.80132 0
M  V30 6395 H 587.538 -4.00897 -4.60558 0
M  V30 6396 H 588.952 -5.10213 -2.61449 0
M  V30 6397 H 587.349 -5.64425 -2.03823 0
M  V30 6398 H 588.419 -4.75753 -0.937402 0
M  V30 6399 N 589.762 0.448376 -1.51087 0
M  V30 6400 C 591.009 1.19872 -1.63209 0
M  V30 6401 C 591.337 1.91451 -0.343062 0
M  V30 6402 O 590.592 1.83789 0.672321 0
M  V30 6403 C 590.891 2.24866 -2.77795 0
M  V30 6404 C 590.557 1.70378 -4.17471 0
M  V30 6405 C 589.219 1.55241 -4.55471 0
M  V30 6406 C 591.571 1.30203 -5.04675 0
M  V30 6407 C 588.899 0.983844 -5.78392 0
M  V30 6408 C 591.251 0.747798 -6.28165 0
M  V30 6409 C 589.915 0.583233 -6.64947 0
M  V30 6410 H 589.185 0.438642 -0.597222 0
M  V30 6411 H 591.832 0.49136 -1.85089 0
M  V30 6412 H 590.137 3.01598 -2.50092 0
M  V30 6413 H 591.834 2.82723 -2.84374 0
M  V30 6414 H 588.424 1.83134 -3.87505 0
M  V30 6415 H 592.608 1.40723 -4.75932 0
M  V30 6416 H 587.864 0.844007 -6.05546 0
M  V30 6417 H 592.038 0.427927 -6.95084 0
M  V30 6418 H 589.665 0.140532 -7.6007 0
M  V30 6419 N 591.24 1.41047 0.703093 0
M  V30 6420 C 592.487 1.4 1.46309 0
M  V30 6421 C 592.815 0.00654574 1.94499 0
M  V30 6422 O 592.07 -0.980255 1.6938 0
M  V30 6423 C 592.369 2.34686 2.6955 0
M  V30 6424 C 592.035 3.81684 2.40058 0
M  V30 6425 C 590.697 4.21731 2.31725 0
M  V30 6426 C 593.049 4.74525 2.15581 0
M  V30 6427 C 590.377 5.52637 1.97001 0
M  V30 6428 C 592.729 6.05744 1.82366 0
M  V30 6429 C 591.393 6.44819 1.72524 0
M  V30 6430 H 590.663 0.512295 0.535382 0
M  V30 6431 H 593.31 1.73792 0.804275 0
M  V30 6432 H 591.615 1.94122 3.40329 0
M  V30 6433 H 593.312 2.31152 3.27673 0
M  V30 6434 H 589.902 3.49963 2.47435 0
M  V30 6435 H 594.086 4.44395 2.20968 0
M  V30 6436 H 589.342 5.81802 1.87928 0
M  V30 6437 H 593.516 6.77189 1.62444 0
M  V30 6438 H 591.143 7.46168 1.45385 0
M  V30 6439 N 592.718 -0.936591 1.26751 0
M  V30 6440 C 593.666 -2.0573 1.08527 0
M  V30 6441 C 594.66 -1.69397 0.0108784 0
M  V30 6442 O 595.866 -1.79215 0.167915 0
M  V30 6443 H 592.241 -0.673691 0.334133 0
M  V30 6444 H 594.212 -2.1825 2.03493 0
M  V30 6445 C 592.961 -3.39738 0.739845 0
M  V30 6446 H 592.284 -3.68174 1.55845 0
M  V30 6447 H 593.724 -4.18955 0.652149 0
M  V30 6448 C 592.183 -3.32292 -0.555288 0
M  V30 6449 O 592.713 -3.68794 -1.59229 0
M  V30 6450 N 590.919 -2.85394 -0.54762 0
M  V30 6451 H 590.466 -2.55886 0.296667 0
M  V30 6452 H 590.424 -2.80795 -1.41427 0
M  V30 6453 N 594.196 -1.08629 -1.14182 0
M  V30 6454 C 595.421 -0.83902 -1.89671 0
M  V30 6455 C 595.846 0.603332 -1.78161 0
M  V30 6456 O 595.204 1.42301 -1.12339 0
M  V30 6457 C 595.252 -1.26854 -3.37551 0
M  V30 6458 O 594.356 -0.42188 -4.10236 0
M  V30 6459 H 593.697 -0.304545 -0.590041 0
M  V30 6460 H 596.227 -1.4483 -1.44518 0
M  V30 6461 H 596.237 -1.25038 -3.88368 0
M  V30 6462 H 594.912 -2.31901 -3.45246 0
M  V30 6463 H 593.489 -0.503654 -3.69483 0
M  V30 6464 N 595.674 1.31259 -0.872281 0
M  V30 6465 C 596.921 1.96622 -0.484365 0
M  V30 6466 C 597.249 1.68939 0.963841 0
M  V30 6467 O 596.504 0.97974 1.6941 0
M  V30 6468 C 596.803 3.50659 -0.690889 0
M  V30 6469 C 596.469 3.98366 -2.11224 0
M  V30 6470 C 595.131 4.11104 -2.50094 0
M  V30 6471 C 597.483 4.23425 -3.0391 0
M  V30 6472 C 594.811 4.46254 -3.80887 0
M  V30 6473 C 597.163 4.60039 -4.3422 0
M  V30 6474 C 595.827 4.70984 -4.73001 0
M  V30 6475 H 595.097 0.71949 -0.177242 0
M  V30 6476 H 597.744 1.56353 -1.10571 0
M  V30 6477 H 596.049 3.91798 0.0135782 0
M  V30 6478 H 597.746 3.99284 -0.370534 0
M  V30 6479 H 594.336 3.88949 -1.80047 0
M  V30 6480 H 598.52 4.13075 -2.75104 0
M  V30 6481 H 593.776 4.52926 -4.10692 0
M  V30 6482 H 597.95 4.78381 -5.06088 0
M  V30 6483 H 595.577 4.97977 -5.7439 0
M  V30 6484 N 597.152 0.631951 1.44375 0
M  V30 6485 C 598.084 -0.110911 2.28931 0
M  V30 6486 C 599.097 -0.808086 1.41329 0
M  V30 6487 O 600.286 -0.669396 1.65473 0
M  V30 6488 C 597.386 -1.17928 3.1772 0
M  V30 6489 C 596.559 -0.564458 4.33743 0
M  V30 6490 C 595.618 -1.5269 5.0356 0
M  V30 6491 O 594.644 -1.04372 5.59549 0
M  V30 6492 N 595.846 -2.86123 5.05088 0
M  V30 6493 H 598.611 0.614758 2.93327 0
M  V30 6494 H 596.172 0.473171 1.54831 0
M  V30 6495 H 598.164 -1.82348 3.61291 0
M  V30 6496 H 596.734 -1.80717 2.55069 0
M  V30 6497 H 595.954 0.258373 3.93352 0
M  V30 6498 H 597.242 -0.134355 5.08623 0
M  V30 6499 H 596.64 -3.27959 4.60933 0
M  V30 6500 H 595.197 -3.45901 5.52445 0
M  V30 6501 N 598.631 -1.53133 0.372548 0
M  V30 6502 C 599.879 -2.00958 -0.214534 0
M  V30 6503 C 600.2 -1.26135 -1.48711 0
M  V30 6504 O 599.47 -0.376597 -1.92246 0
M  V30 6505 H 598.05 -0.742456 -0.0822664 0
M  V30 6506 H 600.712 -1.88367 0.500385 0
M  V30 6507 H 599.808 -3.09031 -0.436605 0
M  V30 6508 N 600.109 -0.101901 -1.5727 0
M  V30 6509 C 601.356 0.560197 -1.94597 0
M  V30 6510 C 601.684 1.67767 -0.984101 0
M  V30 6511 O 600.939 1.95699 -0.00489193 0
M  V30 6512 C 601.238 1.14898 -3.38427 0
M  V30 6513 C 600.904 0.154613 -4.50635 0
M  V30 6514 C 599.566 -0.118861 -4.81053 0
M  V30 6515 C 601.918 -0.523979 -5.18559 0
M  V30 6516 C 599.246 -1.0775 -5.76721 0
M  V30 6517 C 601.598 -1.47114 -6.15256 0
M  V30 6518 C 600.262 -1.75278 -6.44076 0
M  V30 6519 H 599.532 0.204991 -0.712081 0
M  V30 6520 H 602.179 -0.17918 -1.9066 0
M  V30 6521 H 600.484 1.96476 -3.38976 0
M  V30 6522 H 602.181 1.66909 -3.64613 0
M  V30 6523 H 598.771 0.377948 -4.2693 0
M  V30 6524 H 602.955 -0.325851 -4.95229 0
M  V30 6525 H 598.211 -1.30263 -5.97362 0
M  V30 6526 H 602.385 -2.00274 -6.66981 0
M  V30 6527 H 600.012 -2.49717 -7.18015 0
M  V30 6528 N 601.587 1.56661 0.17182 0
M  V30 6529 C 602.834 1.81965 0.888529 0
M  V30 6530 C 603.162 0.6789 1.82267 0
M  V30 6531 O 602.417 -0.333875 1.92831 0
M  V30 6532 C 602.716 3.13435 1.71736 0
M  V30 6533 C 602.382 4.41159 0.932184 0
M  V30 6534 C 601.044 4.75851 0.715481 0
M  V30 6535 C 603.396 5.19803 0.381387 0
M  V30 6536 C 600.724 5.86666 -0.063126 0
M  V30 6537 C 603.076 6.31433 -0.384129 0
M  V30 6538 C 601.74 6.64692 -0.611637 0
M  V30 6539 H 601.01 0.665859 0.325136 0
M  V30 6540 H 603.657 1.90884 0.153495 0
M  V30 6541 H 601.962 2.99857 2.52177 0
M  V30 6542 H 603.659 3.30224 2.27493 0
M  V30 6543 H 600.249 4.13947 1.11112 0
M  V30 6544 H 604.433 4.93396 0.536148 0
M  V30 6545 H 599.689 6.10892 -0.249136 0
M  V30 6546 H 603.863 6.91577 -0.818185 0
M  V30 6547 H 601.49 7.50398 -1.21684 0
M  V30 6548 N 603.065 -0.440357 1.51323 0
M  V30 6549 C 604.311 -1.19181 1.64085 0
M  V30 6550 C 604.644 -1.90936 0.354575 0
M  V30 6551 O 603.919 -1.8347 -0.645675 0
M  V30 6552 C 604.202 -2.2112 2.84215 0
M  V30 6553 C 604.055 -1.53468 4.22809 0
M  V30 6554 C 605.374 -3.22133 2.99864 0
M  V30 6555 H 602.493 -0.431924 0.597169 0
M  V30 6556 H 605.135 -0.481443 1.83799 0
M  V30 6557 H 603.285 -2.81703 2.67537 0
M  V30 6558 H 604.957 -0.962455 4.51148 0
M  V30 6559 H 603.2 -0.837086 4.25647 0
M  V30 6560 H 603.871 -2.27694 5.02852 0
M  V30 6561 H 606.347 -2.71601 3.15233 0
M  V30 6562 H 605.223 -3.90756 3.85488 0
M  V30 6563 H 605.484 -3.88061 2.11804 0
M  V30 6564 N 604.543 -1.41418 -0.695603 0
M  V30 6565 C 605.768 -1.44329 -1.48942 0
M  V30 6566 C 606.193 -0.0501579 -1.88033 0
M  V30 6567 O 605.551 0.946598 -1.54626 0
M  V30 6568 C 605.599 -2.3578 -2.72837 0
M  V30 6569 O 604.703 -1.81482 -3.70322 0
M  V30 6570 H 604.044 -0.489838 -0.44828 0
M  V30 6571 H 606.574 -1.85878 -0.855014 0
M  V30 6572 H 606.584 -2.51654 -3.21145 0
M  V30 6573 H 605.259 -3.37005 -2.43722 0
M  V30 6574 H 603.836 -1.75058 -3.29255 0
M  V30 6575 N 606.021 0.929856 -1.27246 0
M  V30 6576 C 607.27 1.67182 -1.12842 0
M  V30 6577 C 607.583 1.9287 0.325666 0
M  V30 6578 O 608.789 2.64999 0.590572 0
M  V30 6579 C 607.245 3.01097 -1.97151 0
M  V30 6580 C 606.853 2.83115 -3.47203 0
M  V30 6581 C 608.597 3.78907 -1.91389 0
M  V30 6582 C 606.504 4.12573 -4.23719 0
M  V30 6583 H 605.434 0.627064 -0.418697 0
M  V30 6584 H 608.085 1.0332 -1.51649 0
M  V30 6585 H 606.467 3.66004 -1.51186 0
M  V30 6586 H 607.641 2.26989 -4.01015 0
M  V30 6587 H 605.956 2.18736 -3.54321 0
M  V30 6588 H 608.553 4.74837 -2.45834 0
M  V30 6589 H 608.896 4.0674 -0.887047 0
M  V30 6590 H 609.429 3.20794 -2.35237 0
M  V30 6591 H 606.168 3.8992 -5.26918 0
M  V30 6592 H 605.688 4.68371 -3.74685 0
M  V30 6593 H 607.367 4.8095 -4.32777 0
M  V30 6594 N 607.499 1.09233 1.13605 0
M  V30 6595 C 608.748 0.82205 1.84188 0
M  V30 6596 C 609.061 -0.654548 1.84323 0
M  V30 6597 O 610.267 -1.04029 2.50779 0
M  V30 6598 C 608.723 1.42066 3.30674 0
M  V30 6599 C 608.331 2.92965 3.38933 0
M  V30 6600 C 610.075 1.22924 4.06313 0
M  V30 6601 C 607.982 3.45922 4.79679 0
M  V30 6602 H 606.912 0.303854 0.690064 0
M  V30 6603 H 609.563 1.31479 1.28006 0
M  V30 6604 H 607.945 0.855613 3.86646 0
M  V30 6605 H 609.119 3.55679 2.92966 0
M  V30 6606 H 607.434 3.11118 2.76757 0
M  V30 6607 H 610.031 1.59945 5.10217 0
M  V30 6608 H 610.374 0.169726 4.15954 0
M  V30 6609 H 610.907 1.76168 3.56665 0
M  V30 6610 H 607.646 4.51484 4.75229 0
M  V30 6611 H 607.166 2.87971 5.26149 0
M  V30 6612 H 608.845 3.43009 5.48592 0
M  V30 6613 N 608.977 -1.30795 0.87923 0
M  V30 6614 C 610.207 -2.00237 0.50881 0
M  V30 6615 C 610.615 -1.66115 -0.905682 0
M  V30 6616 O 609.958 -0.89138 -1.60624 0
M  V30 6617 C 610.02 -3.54508 0.597003 0
M  V30 6618 C 609.684 -4.12131 1.97477 0
M  V30 6619 C 610.681 -4.28552 2.94346 0
M  V30 6620 C 608.366 -4.47644 2.2786 0
M  V30 6621 C 610.36 -4.79689 4.19735 0
M  V30 6622 C 608.047 -4.98481 3.53496 0
M  V30 6623 C 609.045 -5.14456 4.49248 0
M  V30 6624 O 608.733 -5.64199 5.72656 0
M  V30 6625 H 608.465 -0.647026 0.195788 0
M  V30 6626 H 611.019 -1.67785 1.1848 0
M  V30 6627 H 609.249 -3.86461 -0.135945 0
M  V30 6628 H 610.938 -4.05198 0.238684 0
M  V30 6629 H 611.704 -4.01424 2.72183 0
M  V30 6630 H 607.583 -4.34481 1.54102 0
M  V30 6631 H 611.127 -4.92073 4.9448 0
M  V30 6632 H 607.024 -5.25044 3.75498 0
M  V30 6633 H 607.792 -5.82551 5.74957 0
M  V30 6634 N 610.455 -0.639598 -1.44038 0
M  V30 6635 C 611.695 -0.150902 -2.03842 0
M  V30 6636 C 612.059 1.20744 -1.49281 0
M  V30 6637 O 613.26 1.78875 -2.00642 0
M  V30 6638 C 611.531 -0.146114 -3.57101 0
M  V30 6639 S 613.09 0.276725 -4.37927 0
M  V30 6640 H 609.908 -0.0652447 -0.708 0
M  V30 6641 H 612.51 -0.844886 -1.76301 0
M  V30 6642 H 611.214 -1.13769 -3.94316 0
M  V30 6643 H 610.745 0.568846 -3.89266 0
M  V30 6644 H 612.76 1.51893 -4.7238 0
M  V30 6645 N 611.933 1.52934 -0.380664 0
M  V30 6646 C 613.163 2.05587 0.204302 0
M  V30 6647 C 613.571 1.25288 1.41773 0
M  V30 6648 O 612.914 0.290394 1.8139 0
M  V30 6649 C 612.976 3.53624 0.647324 0
M  V30 6650 C 612.64 4.54765 -0.451465 0
M  V30 6651 C 613.637 5.03226 -1.30614 0
M  V30 6652 C 611.322 4.98508 -0.616025 0
M  V30 6653 C 613.316 5.94046 -2.31058 0
M  V30 6654 C 611.003 5.89131 -1.62381 0
M  V30 6655 C 612.001 6.36792 -2.46952 0
M  V30 6656 O 611.689 7.25626 -3.46009 0
M  V30 6657 H 611.421 0.675013 0.0365198 0
M  V30 6658 H 613.975 1.98125 -0.541827 0
M  V30 6659 H 612.205 3.58676 1.44529 0
M  V30 6660 H 613.894 3.89061 1.15698 0
M  V30 6661 H 614.66 4.70167 -1.19027 0
M  V30 6662 H 610.539 4.60989 0.0324987 0
M  V30 6663 H 614.083 6.3117 -2.97104 0
M  V30 6664 H 609.98 6.21603 -1.7401 0
M  V30 6665 H 610.748 7.43664 -3.41916 0
M  V30 6666 N 613.412 0.11024 1.57214 0
M  V30 6667 C 614.652 -0.553061 1.96775 0
M  V30 6668 C 615.016 -1.64403 0.991753 0
M  V30 6669 O 616.217 -2.36561 1.27642 0
M  V30 6670 C 614.488 -1.08004 3.4069 0
M  V30 6671 S 616.047 -1.75309 4.02259 0
M  V30 6672 H 612.865 -0.18003 0.68783 0
M  V30 6673 H 615.467 0.193242 1.94543 0
M  V30 6674 H 614.171 -0.274735 4.09479 0
M  V30 6675 H 613.702 -1.86182 3.46554 0
M  V30 6676 H 615.717 -3.03834 3.923 0
M  V30 6677 N 614.89 -1.56749 -0.16351 0
M  V30 6678 C 615.838 -1.97939 -1.22159 0
M  V30 6679 C 616.832 -0.869288 -1.45395 0
M  V30 6680 O 618.038 -1.05443 -1.45883 0
M  V30 6681 H 614.413 -0.629869 -0.410815 0
M  V30 6682 H 616.384 -2.86115 -0.847381 0
M  V30 6683 C 615.133 -2.36206 -2.55151 0
M  V30 6684 H 614.456 -3.2117 -2.38097 0
M  V30 6685 H 615.896 -2.68863 -3.27854 0
M  V30 6686 C 614.355 -1.20841 -3.14482 0
M  V30 6687 O 614.885 -0.500258 -3.98573 0
M  V30 6688 N 613.091 -0.976943 -2.73686 0
M  V30 6689 H 612.638 -1.55457 -2.05404 0
M  V30 6690 H 612.596 -0.206912 -3.13718 0
M  V30 6691 N 616.368 0.432326 -1.51554 0
M  V30 6692 C 617.616 1.17901 -1.64146 0
M  V30 6693 C 617.937 1.91604 -0.362367 0
M  V30 6694 O 617.207 1.85764 0.621968 0
M  V30 6695 H 615.787 0.438206 -0.604966 0
M  V30 6696 H 618.449 0.495172 -1.88505 0
M  V30 6697 H 617.545 1.90584 -2.47152 0
M  V30 6698 N 617.846 1.41785 0.688094 0
M  V30 6699 C 618.756 1.46596 1.83158 0
M  V30 6700 C 619.772 0.355862 1.70322 0
M  V30 6701 O 620.948 0.604737 1.92106 0
M  V30 6702 C 618.013 1.35322 3.192 0
M  V30 6703 C 617.074 2.56711 3.4409 0
M  V30 6704 C 616.307 2.45965 4.73642 0
M  V30 6705 O 616.53 1.48827 5.50642 0
M  V30 6706 O 615.464 3.35859 4.99482 0
M  V30 6707 H 619.29 2.43083 1.82056 0
M  V30 6708 H 616.875 1.23404 0.842126 0
M  V30 6709 H 618.757 1.31347 4.00407 0
M  V30 6710 H 617.432 0.419536 3.2097 0
M  V30 6711 H 616.339 2.66262 2.62784 0
M  V30 6712 H 617.672 3.48933 3.47141 0
M  V30 6713 N 619.324 -0.923095 1.27737 0
M  V30 6714 C 620.57 -1.67375 1.14514 0
M  V30 6715 C 620.903 -1.91751 -0.307424 0
M  V30 6716 O 620.178 -1.51119 -1.22447 0
M  V30 6717 C 620.461 -3.03745 1.9342 0
M  V30 6718 C 620.314 -2.86581 3.46686 0
M  V30 6719 C 621.633 -4.04144 1.74228 0
M  V30 6720 H 618.752 -0.607427 0.417374 0
M  V30 6721 H 621.394 -1.07089 1.56946 0
M  V30 6722 H 619.544 -3.55204 1.5736 0
M  V30 6723 H 621.216 -2.42203 3.92601 0
M  V30 6724 H 619.459 -2.21829 3.72793 0
M  V30 6725 H 620.13 -3.83381 3.97143 0
M  V30 6726 H 622.606 -3.61712 2.05678 0
M  V30 6727 H 621.482 -4.97543 2.31824 0
M  V30 6728 H 621.743 -4.36661 0.691373 0
M  V30 6729 N 620.802 -1.09834 -1.13024 0
M  V30 6730 C 621.734 -0.699379 -2.18269 0
M  V30 6731 C 622.747 0.260841 -1.60697 0
M  V30 6732 O 623.936 0.0462538 -1.7844 0
M  V30 6733 C 621.036 -0.0104537 -3.38898 0
M  V30 6734 C 620.209 -0.993275 -4.25973 0
M  V30 6735 C 619.268 -0.336982 -5.2512 0
M  V30 6736 O 618.294 -0.985892 -5.60597 0
M  V30 6737 N 619.496 0.90716 -5.73368 0
M  V30 6738 H 622.261 -1.60486 -2.5311 0
M  V30 6739 H 619.822 -0.986337 -1.28386 0
M  V30 6740 H 621.814 0.43991 -4.02302 0
M  V30 6741 H 620.384 0.797335 -3.0226 0
M  V30 6742 H 619.604 -1.62208 -3.5928 0
M  V30 6743 H 620.892 -1.65876 -4.81002 0
M  V30 6744 H 620.29 1.45384 -5.46699 0
M  V30 6745 H 618.847 1.30077 -6.38689 0
M  V30 6746 N 622.28 1.30327 -0.886154 0
M  V30 6747 C 623.243 2.26376 -0.358687 0
M  V30 6748 C 624.243 1.52845 0.499498 0
M  V30 6749 O 625.433 1.71483 0.306485 0
M  V30 6750 C 622.565 3.37379 0.488726 0
M  V30 6751 H 623.758 2.74547 -1.20681 0
M  V30 6752 H 621.311 1.41536 -0.663113 0
M  V30 6753 H 622.046 2.94526 1.35739 0
M  V30 6754 H 621.831 3.91897 -0.126003 0
M  V30 6755 H 623.321 4.08868 0.84952 0
M  V30 6756 N 623.758 0.647228 1.43697 0
M  V30 6757 C 624.668 -0.0487997 2.34549 0
M  V30 6758 C 625.684 -0.818586 1.53542 0
M  V30 6759 O 626.86 -0.767195 1.86215 0
M  V30 6760 C 623.925 -1.00734 3.31743 0
M  V30 6761 C 622.986 -0.23515 4.28655 0
M  V30 6762 C 622.219 -1.14803 5.21206 0
M  V30 6763 O 622.442 -2.38717 5.18045 0
M  V30 6764 O 621.376 -0.623667 5.9866 0
M  V30 6765 H 625.202 0.698863 2.9555 0
M  V30 6766 H 622.787 0.407412 1.43738 0
M  V30 6767 H 624.669 -1.55837 3.91526 0
M  V30 6768 H 623.344 -1.73534 2.73254 0
M  V30 6769 H 622.251 0.359319 3.7237 0
M  V30 6770 H 623.584 0.453152 4.9011 0
M  V30 6771 N 625.236 -1.5273 0.388769 0
M  V30 6772 C 626.482 -2.01871 -0.193877 0
M  V30 6773 C 626.815 -1.27475 -1.46505 0
M  V30 6774 O 626.09 -0.375063 -1.90849 0
M  V30 6775 C 626.373 -3.5712 -0.462336 0
M  V30 6776 C 626.226 -4.42186 0.824091 0
M  V30 6777 C 627.545 -4.21881 -1.25319 0
M  V30 6778 H 624.664 -0.733764 -0.0689899 0
M  V30 6779 H 627.306 -1.82796 0.518231 0
M  V30 6780 H 625.456 -3.73504 -1.06896 0
M  V30 6781 H 627.128 -4.37554 1.46096 0
M  V30 6782 H 625.371 -4.09219 1.43952 0
M  V30 6783 H 626.042 -5.48828 0.590905 0
M  V30 6784 H 628.518 -4.0947 -0.73981 0
M  V30 6785 H 627.394 -5.30487 -1.40977 0
M  V30 6786 H 627.655 -3.79478 -2.26824 0
M  V30 6787 N 626.714 -0.118576 -1.57153 0
M  V30 6788 C 627.661 0.831789 -2.1529 0
M  V30 6789 C 628.631 1.26385 -1.07778 0
M  V30 6790 O 629.816 1.34144 -1.35684 0
M  V30 6791 C 626.956 2.07664 -2.75626 0
M  V30 6792 C 626.069 1.69298 -3.97444 0
M  V30 6793 C 625.204 2.88747 -4.45868 0
M  V30 6794 C 624.243 2.46619 -5.60219 0
M  V30 6795 N 623.38 3.5898 -6.03389 0
M  V30 6796 H 628.22 0.329183 -2.96176 0
M  V30 6797 H 625.757 0.150792 -1.46325 0
M  V30 6798 H 627.715 2.80601 -3.08738 0
M  V30 6799 H 626.345 2.55384 -1.97431 0
M  V30 6800 H 625.397 0.862374 -3.70496 0
M  V30 6801 H 626.709 1.34338 -4.80369 0
M  V30 6802 H 625.863 3.69909 -4.80887 0
M  V30 6803 H 624.602 3.26933 -3.61892 0
M  V30 6804 H 623.607 1.63889 -5.24805 0
M  V30 6805 H 624.832 2.0955 -6.45961 0
M  V30 6806 H 622.778 3.9684 -5.22354 0
M  V30 6807 H 622.695 3.27942 -6.81168 0
M  V30 6808 H 623.963 4.40583 -6.43045 0
M  V30 6809 N 628.193 1.56834 0.155195 0
M  V30 6810 C 629.14 1.97646 1.19184 0
M  V30 6811 C 630.11 0.842788 1.4313 0
M  V30 6812 O 631.295 1.1042 1.55602 0
M  V30 6813 C 628.435 2.35527 2.52232 0
M  V30 6814 C 627.548 3.62147 2.35529 0
M  V30 6815 C 626.683 3.89167 3.61555 0
M  V30 6816 C 625.722 5.09084 3.39853 0
M  V30 6817 N 624.859 5.32156 4.5799 0
M  V30 6818 H 629.699 2.8601 0.836802 0
M  V30 6819 H 627.236 1.41507 0.401758 0
M  V30 6820 H 629.194 2.55516 3.29799 0
M  V30 6821 H 627.824 1.50253 2.85699 0
M  V30 6822 H 626.876 3.4998 1.49057 0
M  V30 6823 H 628.188 4.49871 2.15448 0
M  V30 6824 H 627.342 4.09611 4.47553 0
M  V30 6825 H 626.081 2.9985 3.84632 0
M  V30 6826 H 625.086 4.88522 2.52243 0
M  V30 6827 H 626.311 5.99947 3.18183 0
M  V30 6828 H 624.257 4.45791 4.81255 0
M  V30 6829 H 624.174 6.14133 4.40882 0
M  V30 6830 H 625.442 5.57091 5.45225 0
M  V30 6831 N 629.671 -0.424282 1.51781 0
M  V30 6832 C 630.604 -1.53633 1.68737 0
M  V30 6833 C 631.582 -1.53549 0.534915 0
M  V30 6834 O 632.766 -1.72483 0.760391 0
M  V30 6835 C 629.893 -2.92195 1.71288 0
M  V30 6836 C 628.939 -3.10251 2.92654 0
M  V30 6837 S 629.772 -2.85166 4.53256 0
M  V30 6838 C 630.928 -4.25986 4.58571 0
M  V30 6839 H 631.161 -1.39018 2.62795 0
M  V30 6840 H 628.694 -0.614854 1.41629 0
M  V30 6841 H 630.652 -3.72059 1.73443 0
M  V30 6842 H 629.313 -3.04162 0.783847 0
M  V30 6843 H 628.506 -4.1159 2.90877 0
M  V30 6844 H 628.108 -2.38231 2.88308 0
M  V30 6845 H 630.4 -5.19392 4.35015 0
M  V30 6846 H 631.343 -4.32792 5.60444 0
M  V30 6847 H 631.751 -4.1025 3.87757 0
M  V30 6848 N 631.149 -1.42148 -0.680565 0
M  V30 6849 C 632.395 -1.4352 -1.44131 0
M  V30 6850 C 632.75 -0.0486244 -1.92339 0
M  V30 6851 O 632.043 0.92819 -1.67616 0
M  V30 6852 C 632.237 -2.38945 -2.65782 0
M  V30 6853 C 632.066 -3.86743 -2.29477 0
M  V30 6854 C 630.836 -4.5532 -2.19115 0
M  V30 6855 C 633.034 -4.77321 -1.91491 0
M  V30 6856 N 631.016 -5.88174 -1.75853 0
M  V30 6857 C 632.387 -5.99238 -1.59103 0
M  V30 6858 C 634.442 -4.64829 -1.78432 0
M  V30 6859 C 633.145 -7.10053 -1.14968 0
M  V30 6860 C 635.171 -5.75621 -1.35702 0
M  V30 6861 C 634.533 -6.96645 -1.04234 0
M  V30 6862 H 630.632 -0.580363 -0.524121 0
M  V30 6863 H 633.216 -1.78132 -0.785939 0
M  V30 6864 H 631.387 -2.06403 -3.29017 0
M  V30 6865 H 633.119 -2.30935 -3.32342 0
M  V30 6866 H 629.874 -4.09456 -2.37998 0
M  V30 6867 H 630.298 -6.58625 -1.56661 0
M  V30 6868 H 634.94 -3.71745 -2.01409 0
M  V30 6869 H 632.658 -8.0299 -0.907365 0
M  V30 6870 H 636.244 -5.67964 -1.26126 0
M  V30 6871 H 635.124 -7.80918 -0.716707 0
M  V30 6872 N 632.627 0.916307 -1.28225 0
M  V30 6873 C 633.852 1.7043 -1.18188 0
M  V30 6874 C 634.277 1.86346 0.256274 0
M  V30 6875 O 633.635 1.37175 1.18544 0
M  V30 6876 C 633.683 3.07546 -1.88275 0
M  V30 6877 O 632.787 3.94904 -1.18848 0
M  V30 6878 H 632.128 0.521967 -0.410423 0
M  V30 6879 H 634.658 1.14589 -1.69501 0
M  V30 6880 H 634.668 3.57793 -1.96082 0
M  V30 6881 H 633.343 2.95279 -2.92887 0
M  V30 6882 H 631.92 3.53339 -1.19187 0
M  V30 6883 N 634.105 1.10431 1.1244 0
M  V30 6884 C 635.521 0.836096 1.35947 0
M  V30 6885 C 635.721 -0.544475 1.94004 0
M  V30 6886 O 634.777 -1.29735 2.16622 0
M  V30 6887 C 636.09 1.93575 2.30107 0
M  V30 6888 C 637.638 1.9642 2.43697 0
M  V30 6889 C 638.113 3.05559 3.41171 0
M  V30 6890 N 639.604 3.04865 3.48728 0
M  V30 6891 C 640.339 3.85954 4.24061 0
M  V30 6892 N 639.835 4.76977 5.02458 0
M  V30 6893 N 641.628 3.74172 4.19466 0
M  V30 6894 H 633.779 1.9942 0.731124 0
M  V30 6895 H 636.042 0.866607 0.384312 0
M  V30 6896 H 635.748 2.92943 1.94621 0
M  V30 6897 H 635.622 1.8229 3.30227 0
M  V30 6898 H 638.009 0.97685 2.78463 0
M  V30 6899 H 638.09 2.11782 1.43465 0
M  V30 6900 H 637.734 4.04513 3.07135 0
M  V30 6901 H 637.664 2.87438 4.41234 0
M  V30 6902 H 640.155 2.38908 2.92799 0
M  V30 6903 H 640.468 5.35409 5.57277 0
M  V30 6904 H 638.813 4.81006 5.01655 0
M  V30 6905 H 642.004 3.02412 3.57302 0
M  V30 6906 H 642.177 4.37602 4.77921 0
M  V30 6907 N 635.583 -1.29855 0.893053 0
M  V30 6908 C 636.829 -1.96488 0.52574 0
M  V30 6909 C 637.184 -1.69164 -0.916594 0
M  V30 6910 O 636.477 -0.990405 -1.64017 0
M  V30 6911 C 636.671 -3.49515 0.746588 0
M  V30 6912 C 636.5 -3.91715 2.20884 0
M  V30 6913 C 635.27 -4.16915 2.85499 0
M  V30 6914 C 637.468 -4.03934 3.18342 0
M  V30 6915 N 635.45 -4.45634 4.22236 0
M  V30 6916 C 636.821 -4.36629 4.40176 0
M  V30 6917 C 638.876 -3.86387 3.14021 0
M  V30 6918 C 637.579 -4.53605 5.58243 0
M  V30 6919 C 639.605 -4.04569 4.31367 0
M  V30 6920 C 638.967 -4.37617 5.5197 0
M  V30 6921 H 635.066 -0.743657 0.241863 0
M  V30 6922 H 637.65 -1.56927 1.15248 0
M  V30 6923 H 635.821 -3.88113 0.149281 0
M  V30 6924 H 637.553 -4.03224 0.345372 0
M  V30 6925 H 634.308 -4.10423 2.36326 0
M  V30 6926 H 634.732 -4.64114 4.92876 0
M  V30 6927 H 639.374 -3.59906 2.21873 0
M  V30 6928 H 637.092 -4.78925 6.50889 0
M  V30 6929 H 640.678 -3.92452 4.29503 0
M  V30 6930 H 639.558 -4.51395 6.41258 0
M  V30 6931 N 637.061 -0.65484 -1.43351 0
M  V30 6932 C 638.009 0.0476784 -2.32551 0
M  V30 6933 C 639.003 0.811403 -1.48703 0
M  V30 6934 O 640.209 0.721621 -1.64902 0
M  V30 6935 H 636.584 0.0342038 -0.751222 0
M  V30 6936 H 638.555 -0.722342 -2.89525 0
M  V30 6937 C 637.304 0.999251 -3.33032 0
M  V30 6938 H 636.627 0.421005 -3.97577 0
M  V30 6939 H 638.067 1.45986 -3.98076 0
M  V30 6940 C 636.526 2.09606 -2.63756 0
M  V30 6941 O 637.056 3.18004 -2.4543 0
M  V30 6942 N 635.262 1.86207 -2.23103 0
M  V30 6943 H 634.809 0.980555 -2.38208 0
M  V30 6944 H 634.767 2.59787 -1.77081 0
M  V30 6945 N 638.539 1.52521 -0.396863 0
M  V30 6946 C 639.469 2.29582 0.425941 0
M  V30 6947 C 640.45 1.33281 1.05689 0
M  V30 6948 O 641.635 1.62181 1.06823 0
M  V30 6949 C 638.765 3.10821 1.54943 0
M  V30 6950 C 637.719 4.15069 1.04413 0
M  V30 6951 C 637.045 4.84578 2.26028 0
M  V30 6952 C 638.345 5.22191 0.106767 0
M  V30 6953 H 640.039 2.98612 -0.217045 0
M  V30 6954 H 637.585 1.43611 -0.105826 0
M  V30 6955 H 639.538 3.63492 2.13193 0
M  V30 6956 H 638.262 2.39538 2.22011 0
M  V30 6957 H 636.921 3.63389 0.484118 0
M  V30 6958 H 636.569 4.09835 2.91623 0
M  V30 6959 H 636.269 5.55043 1.92876 0
M  V30 6960 H 637.793 5.40056 2.84906 0
M  V30 6961 H 639.207 5.70176 0.597685 0
M  V30 6962 H 637.604 5.99947 -0.135352 0
M  V30 6963 H 638.674 4.77531 -0.842134 0
M  V30 6964 N 640.017 0.126909 1.57088 0
M  V30 6965 C 641.242 -0.53997 2.00248 0
M  V30 6966 C 641.667 -1.58927 1.00618 0
M  V30 6967 O 641.025 -1.81288 -0.0210131 0
M  V30 6968 C 641.073 -1.13565 3.4225 0
M  V30 6969 O 640.177 -2.25103 3.45547 0
M  V30 6970 H 639.518 -0.13412 0.650314 0
M  V30 6971 H 642.048 0.217718 2.03438 0
M  V30 6972 H 642.058 -1.46925 3.80627 0
M  V30 6973 H 640.733 -0.367122 4.14277 0
M  V30 6974 H 639.31 -1.93123 3.18995 0
M  V30 6975 N 641.495 -1.56914 -0.146875 0
M  V30 6976 C 642.741 -1.83628 -0.860741 0
M  V30 6977 C 643.074 -0.708528 -1.80813 0
M  V30 6978 O 642.349 0.287838 -1.92358 0
M  V30 6979 C 642.632 -3.20836 -1.63511 0
M  V30 6980 C 642.485 -4.44174 -0.709199 0
M  V30 6981 C 643.804 -3.55268 -2.59756 0
M  V30 6982 H 640.923 -0.667949 -0.311468 0
M  V30 6983 H 643.565 -1.89582 -0.125936 0
M  V30 6984 H 641.715 -3.15891 -2.26153 0
M  V30 6985 H 643.387 -4.61205 -0.0937781 0
M  V30 6986 H 641.63 -4.33796 -0.0187856 0
M  V30 6987 H 642.301 -5.36785 -1.28707 0
M  V30 6988 H 644.777 -3.60824 -2.07232 0
M  V30 6989 H 643.653 -4.52303 -3.10987 0
M  V30 6990 H 643.914 -2.81231 -3.41118 0
M  V30 6991 N 642.974 0.416227 -1.52004 0
M  V30 6992 C 644.251 1.17637 -1.56272 0
M  V30 6993 C 644.631 2.08352 -0.339493 0
M  V30 6994 O 643.979 2.1833 0.674124 0
M  V30 6995 C 644.189 1.95986 -2.88774 0
M  V30 6996 C 645.537 2.52299 -3.41512 0
M  V30 6997 O 646.561 2.06174 -2.90467 0
M  V30 6998 O 645.42 3.3648 -4.30631 0
M  V30 6999 H 642.514 0.536726 -0.629169 0
M  V30 7000 H 645.06 0.423583 -1.64329 0
M  V30 7001 H 643.832 1.29487 -3.69254 0
M  V30 7002 H 643.455 2.78285 -2.83978 0
M  V30 7003 N 644.452 1.42507 0.673017 0
M  V30 7004 C 645.698 1.44282 1.43367 0
M  V30 7005 C 646.053 0.0588239 1.9231 0
M  V30 7006 O 645.346 -0.919288 1.68106 0
M  V30 7007 C 645.54 2.40351 2.64511 0
M  V30 7008 C 645.369 3.87955 2.27423 0
M  V30 7009 C 644.139 4.56476 2.16697 0
M  V30 7010 C 646.337 4.7833 1.88957 0
M  V30 7011 N 644.319 5.89099 1.72731 0
M  V30 7012 C 645.69 6.00073 1.55923 0
M  V30 7013 C 647.745 4.65769 1.75965 0
M  V30 7014 C 646.448 7.10652 1.112 0
M  V30 7015 C 648.474 5.76332 1.32647 0
M  V30 7016 C 647.836 6.97188 1.00538 0
M  V30 7017 H 643.935 0.583134 0.521036 0
M  V30 7018 H 646.519 1.78547 0.776481 0
M  V30 7019 H 644.69 2.08145 3.27918 0
M  V30 7020 H 646.422 2.32694 3.31113 0
M  V30 7021 H 643.177 4.10712 2.35823 0
M  V30 7022 H 643.601 6.59446 1.53166 0
M  V30 7023 H 648.243 3.72808 1.99435 0
M  V30 7024 H 645.961 8.0346 0.864768 0
M  V30 7025 H 649.547 5.68625 1.23112 0
M  V30 7026 H 648.427 7.81287 0.675283 0
M  V30 7027 N 645.93 -0.909495 1.28709 0
M  V30 7028 C 646.877 -2.01245 1.13 0
M  V30 7029 C 647.847 -1.6608 0.0259684 0
M  V30 7030 O 649.032 -1.89835 0.191687 0
M  V30 7031 C 646.172 -3.35644 0.802315 0
M  V30 7032 C 645.285 -3.83653 1.98582 0
M  V30 7033 C 644.42 -5.06582 1.59837 0
M  V30 7034 C 643.459 -5.46934 2.74827 0
M  V30 7035 N 642.596 -6.61053 2.36546 0
M  V30 7036 H 647.436 -2.14013 2.0737 0
M  V30 7037 H 644.973 -1.0482 1.03205 0
M  V30 7038 H 646.931 -4.12963 0.593057 0
M  V30 7039 H 645.561 -3.22631 -0.104457 0
M  V30 7040 H 644.613 -3.02454 2.30708 0
M  V30 7041 H 645.925 -4.09515 2.84779 0
M  V30 7042 H 645.079 -5.91457 1.35143 0
M  V30 7043 H 643.818 -4.82537 0.707753 0
M  V30 7044 H 642.823 -4.60599 3.00215 0
M  V30 7045 H 644.048 -5.72965 3.64538 0
M  V30 7046 H 641.994 -6.3863 1.49959 0
M  V30 7047 H 641.911 -6.86662 3.16277 0
M  V30 7048 H 643.179 -7.49221 2.15146 0
M  V30 7049 N 647.408 -1.11026 -1.11852 0
M  V30 7050 C 648.824 -0.843294 -1.35502 0
M  V30 7051 C 649.024 0.534179 -1.9429 0
M  V30 7052 O 648.08 1.28585 -2.17307 0
M  V30 7053 C 649.393 -1.94793 -2.29077 0
M  V30 7054 C 650.941 -1.97709 -2.42652 0
M  V30 7055 C 651.416 -3.07364 -3.39546 0
M  V30 7056 N 652.907 -3.0671 -3.47107 0
M  V30 7057 C 653.642 -3.88197 -4.22008 0
M  V30 7058 N 653.138 -4.79635 -4.99922 0
M  V30 7059 N 654.931 -3.76391 -4.17476 0
M  V30 7060 H 647.082 -1.99805 -0.720538 0
M  V30 7061 H 649.345 -0.868633 -0.379711 0
M  V30 7062 H 649.051 -2.93971 -1.93065 0
M  V30 7063 H 648.925 -1.84039 -3.29256 0
M  V30 7064 H 651.312 -0.991604 -2.77941 0
M  V30 7065 H 651.393 -2.1254 -1.4234 0
M  V30 7066 H 651.037 -4.06136 -3.04985 0
M  V30 7067 H 650.967 -2.89774 -4.39703 0
M  V30 7068 H 653.458 -2.40457 -2.91528 0
M  V30 7069 H 653.771 -5.38357 -5.54429 0
M  V30 7070 H 652.116 -4.8366 -4.99097 0
M  V30 7071 H 655.307 -3.04303 -3.55693 0
M  V30 7072 H 655.48 -4.40131 -4.75593 0
M  V30 7073 N 648.886 1.2938 -0.899927 0
M  V30 7074 C 650.114 1.99691 -0.541386 0
M  V30 7075 C 650.529 1.67355 0.873936 0
M  V30 7076 O 649.886 0.918728 1.57688 0
M  V30 7077 C 649.937 3.54168 -0.72438 0
M  V30 7078 O 649.658 3.85359 -2.08399 0
M  V30 7079 C 651.159 4.41746 -0.370819 0
M  V30 7080 H 648.379 0.638037 -0.207726 0
M  V30 7081 H 650.923 1.6491 -1.20934 0
M  V30 7082 H 649.078 3.87261 -0.103607 0
M  V30 7083 H 649.492 4.80032 -2.11352 0
M  V30 7084 H 650.966 5.49256 -0.549693 0
M  V30 7085 H 651.443 4.33712 0.692148 0
M  V30 7086 H 652.049 4.14125 -0.968543 0
M  V30 7087 N 650.364 0.662433 1.43002 0
M  V30 7088 C 651.775 0.258315 1.84904 0
M  V30 7089 C 652.126 -1.19703 1.55453 0
M  V30 7090 O 651.251 -1.91484 1.00811 0
M  V30 7091 C 651.846 0.462047 3.35635 0
M  V30 7092 C 650.405 0.112165 3.76233 0
M  V30 7093 C 649.552 0.760479 2.66668 0
M  V30 7094 H 652.503 0.865467 1.33024 0
M  V30 7095 H 652.524 -0.289646 3.79396 0
M  V30 7096 H 652.036 1.52135 3.57039 0
M  V30 7097 H 650.137 -0.944179 3.60439 0
M  V30 7098 H 650.25 0.544058 4.76001 0
M  V30 7099 H 648.614 0.192887 2.53969 0
M  V30 7100 H 649.397 1.82299 2.90898 0
M  V30 7101 N 651.842 -1.52309 0.404946 0
M  V30 7102 C 653.253 -1.86585 -0.0655926 0
M  V30 7103 C 653.604 -1.3239 -1.44801 0
M  V30 7104 O 652.729 -0.6615 -2.06042 0
M  V30 7105 C 653.324 -3.38566 -0.125801 0
M  V30 7106 C 651.883 -3.72497 -0.540666 0
M  V30 7107 C 651.03 -2.75806 0.287487 0
M  V30 7108 H 653.981 -1.45995 0.622185 0
M  V30 7109 H 654.002 -3.68658 -0.941888 0
M  V30 7110 H 653.514 -3.77981 0.880473 0
M  V30 7111 H 651.615 -3.38659 -1.55373 0
M  V30 7112 H 651.728 -4.78234 -0.287956 0
M  V30 7113 H 650.092 -2.53474 -0.249561 0
M  V30 7114 H 650.875 -3.18059 1.29203 0
M  V30 7115 N 653.32 -0.135238 -1.57019 0
M  V30 7116 C 654.56 0.521686 -1.9763 0
M  V30 7117 C 654.924 1.62804 -1.01778 0
M  V30 7118 O 656.125 2.345 -1.31389 0
M  V30 7119 C 654.396 1.0257 -3.42365 0
M  V30 7120 S 655.955 1.68888 -4.04997 0
M  V30 7121 H 652.773 0.169064 -0.690607 0
M  V30 7122 H 655.375 -0.224168 -1.94211 0
M  V30 7123 H 654.079 0.209556 -4.09865 0
M  V30 7124 H 653.61 1.80645 -3.49472 0
M  V30 7125 H 655.625 2.97554 -3.97084 0
M  V30 7126 N 654.798 1.5699 0.138552 0
M  V30 7127 C 656.046 1.83446 0.848053 0
M  V30 7128 C 656.367 0.71744 1.81322 0
M  V30 7129 O 655.637 -0.260228 1.94164 0
M  V30 7130 H 654.217 0.676792 0.316166 0
M  V30 7131 H 656.879 1.94462 0.130538 0
M  V30 7132 H 655.975 2.78677 1.40518 0
M  V30 7133 N 656.276 -0.40816 1.52223 0
M  V30 7134 C 657.501 -1.18127 1.70472 0
M  V30 7135 C 657.926 -1.83491 0.41384 0
M  V30 7136 O 657.284 -1.70047 -0.628778 0
M  V30 7137 C 657.332 -2.21935 2.84213 0
M  V30 7138 O 656.436 -3.28099 2.4985 0
M  V30 7139 H 655.777 -0.344781 0.56747 0
M  V30 7140 H 658.307 -0.478328 1.9893 0
M  V30 7141 H 658.317 -2.66248 3.09153 0
M  V30 7142 H 656.992 -1.73744 3.7787 0
M  V30 7143 H 655.569 -2.89058 2.35584 0
M  V30 7144 N 657.755 -1.42862 -0.66545 0
M  V30 7145 C 659.171 -1.25993 -0.979687 0
M  V30 7146 C 659.371 -0.170831 -2.00775 0
M  V30 7147 O 658.427 0.454827 -2.4837 0
M  V30 7148 C 659.74 -2.62005 -1.47559 0
M  V30 7149 C 661.288 -2.69437 -1.59288 0
M  V30 7150 C 661.763 -4.05838 -2.12272 0
M  V30 7151 N 663.254 -4.0784 -2.19592 0
M  V30 7152 C 663.989 -5.10205 -2.61684 0
M  V30 7153 N 663.485 -6.22949 -3.03161 0
M  V30 7154 N 665.278 -4.9756 -2.61516 0
M  V30 7155 H 657.429 -2.12395 0.0150493 0
M  V30 7156 H 659.692 -0.946355 -0.0558187 0
M  V30 7157 H 659.398 -3.42605 -0.794654 0
M  V30 7158 H 659.272 -2.86566 -2.45275 0
M  V30 7159 H 661.659 -1.89178 -2.26486 0
M  V30 7160 H 661.74 -2.48655 -0.600374 0
M  V30 7161 H 661.384 -4.86559 -1.4568 0
M  V30 7162 H 661.314 -4.23977 -3.12331 0
M  V30 7163 H 663.805 -3.26452 -1.90361 0
M  V30 7164 H 664.118 -6.96899 -3.33993 0
M  V30 7165 H 662.463 -6.2644 -3.00995 0
M  V30 7166 H 665.654 -4.08551 -2.28481 0
M  V30 7167 H 665.827 -5.77468 -2.93999 0
M  V30 7168 N 659.233 0.902656 -1.29189 0
M  V30 7169 C 660.649 1.18296 -1.07137 0
M  V30 7170 C 660.849 2.00701 0.179223 0
M  V30 7171 O 659.905 2.3675 0.877812 0
M  V30 7172 C 661.218 1.90677 -2.32514 0
M  V30 7173 C 662.766 2.03515 -2.37804 0
M  V30 7174 C 663.241 2.79307 -3.62976 0
M  V30 7175 N 664.732 2.86862 -3.63681 0
M  V30 7176 C 665.467 3.46035 -4.57217 0
M  V30 7177 N 664.963 4.06399 -5.61081 0
M  V30 7178 N 666.756 3.43681 -4.44792 0
M  V30 7179 H 658.907 0.352765 -2.0945 0
M  V30 7180 H 661.17 0.21876 -0.922414 0
M  V30 7181 H 660.876 1.3756 -3.23682 0
M  V30 7182 H 660.75 2.91169 -2.39793 0
M  V30 7183 H 663.137 2.55809 -1.47125 0
M  V30 7184 H 663.218 1.02166 -2.34512 0
M  V30 7185 H 662.862 2.2769 -4.54004 0
M  V30 7186 H 662.792 3.80995 -3.63525 0
M  V30 7187 H 665.283 2.43987 -2.88581 0
M  V30 7188 H 665.596 4.49564 -6.2858 0
M  V30 7189 H 663.941 4.0487 -5.64894 0
M  V30 7190 H 667.132 2.9574 -3.62843 0
M  V30 7191 H 667.305 3.89503 -5.17872 0
M  V30 7192 N 660.711 1.11618 1.11262 0
M  V30 7193 C 661.951 0.876154 1.8467 0
M  V30 7194 C 662.315 -0.587551 1.82789 0
M  V30 7195 O 663.516 -0.944411 2.51663 0
M  V30 7196 C 661.787 1.42461 3.2778 0
M  V30 7197 S 663.346 1.32185 4.18417 0
M  V30 7198 H 660.164 0.31628 0.636779 0
M  V30 7199 H 662.766 1.42404 1.33946 0
M  V30 7200 H 661.47 2.48367 3.26714 0
M  V30 7201 H 661.001 0.873844 3.83572 0
M  V30 7202 H 663.016 0.287607 4.95366 0
M  V30 7203 N 662.189 -1.289 0.906776 0
M  V30 7204 C 663.437 -1.94883 0.535266 0
M  V30 7205 C 663.758 -1.71784 -0.922791 0
M  V30 7206 O 663.028 -1.05359 -1.65156 0
M  V30 7207 H 661.608 -0.721109 0.194962 0
M  V30 7208 H 664.27 -1.57018 1.15461 0
M  V30 7209 H 663.366 -3.03591 0.723821 0
M  V30 7210 N 663.667 -0.670007 -1.42649 0
M  V30 7211 C 664.892 -0.196955 -2.06463 0
M  V30 7212 C 665.317 1.1352 -1.49983 0
M  V30 7213 O 664.675 1.705 -0.616397 0
M  V30 7214 C 664.723 -0.137381 -3.60338 0
M  V30 7215 O 663.827 0.895523 -4.02559 0
M  V30 7216 H 663.168 -0.102579 -0.656029 0
M  V30 7217 H 665.698 -0.917669 -1.82866 0
M  V30 7218 H 665.708 0.0403625 -4.0798 0
M  V30 7219 H 664.383 -1.10977 -4.0082 0
M  V30 7220 H 662.96 0.689209 -3.66476 0
M  V30 7221 N 665.145 1.52092 -0.413018 0
M  V30 7222 C 666.391 2.02154 0.161737 0
M  V30 7223 C 666.724 1.29789 1.44459 0
M  V30 7224 O 665.999 0.405378 1.90229 0
M  V30 7225 C 666.282 3.5781 0.405463 0
M  V30 7226 C 666.135 4.40819 -0.894335 0
M  V30 7227 C 667.454 4.23821 1.18591 0
M  V30 7228 H 664.573 0.734769 0.0573077 0
M  V30 7229 H 667.215 1.81948 -0.547247 0
M  V30 7230 H 665.365 3.75158 1.0094 0
M  V30 7231 H 667.037 4.35175 -1.53039 0
M  V30 7232 H 665.28 4.06877 -1.50444 0
M  V30 7233 H 665.951 5.47819 -0.678144 0
M  V30 7234 H 668.427 4.10596 0.674573 0
M  V30 7235 H 667.303 5.32663 1.3252 0
M  V30 7236 H 667.564 3.83038 2.20758 0
M  V30 7237 N 666.623 0.143563 1.56945 0
M  V30 7238 C 667.553 -0.7936 2.196 0
M  V30 7239 C 668.534 -1.25955 1.14321 0
M  V30 7240 O 669.719 -1.31773 1.42651 0
M  V30 7241 C 666.849 -2.03424 2.81489 0
M  V30 7242 C 665.803 -1.70519 3.92565 0
M  V30 7243 C 665.129 -3.01817 4.41373 0
M  V30 7244 C 666.429 -0.95449 5.13504 0
M  V30 7245 H 668.123 -0.271423 2.98167 0
M  V30 7246 H 665.669 -0.12911 1.4342 0
M  V30 7247 H 667.622 -2.69463 3.23987 0
M  V30 7248 H 666.346 -2.58008 2.00248 0
M  V30 7249 H 665.005 -1.06859 3.5068 0
M  V30 7250 H 664.653 -3.54386 3.56959 0
M  V30 7251 H 664.353 -2.80565 5.16292 0
M  V30 7252 H 665.877 -3.68934 4.86539 0
M  V30 7253 H 667.291 -1.5169 5.52868 0
M  V30 7254 H 665.688 -0.842035 5.94163 0
M  V30 7255 H 666.758 0.0544033 4.84869 0
M  V30 7256 N 668.101 -1.57061 -0.130224 0
M  V30 7257 C 669.329 -1.88432 -0.854456 0
M  V30 7258 C 669.744 -0.733608 -1.73964 0
M  V30 7259 O 669.101 0.296029 -1.80083 0
M  V30 7260 C 669.152 -3.1918 -1.69724 0
M  V30 7261 O 668.873 -4.2982 -0.847705 0
M  V30 7262 C 670.374 -3.6418 -2.5276 0
M  V30 7263 H 667.594 -0.624193 -0.246221 0
M  V30 7264 H 670.138 -2.04159 -0.11798 0
M  V30 7265 H 668.293 -3.05156 -2.3866 0
M  V30 7266 H 668.707 -5.04689 -1.42792 0
M  V30 7267 H 670.181 -4.58457 -3.07443 0
M  V30 7268 H 670.658 -2.90285 -3.29592 0
M  V30 7269 H 671.264 -3.80954 -1.89087 0
M  V30 7270 N 669.579 0.400081 -1.52437 0
M  V30 7271 C 670.807 1.16768 -1.70801 0
M  V30 7272 C 671.222 1.84036 -0.421462 0
M  V30 7273 O 670.579 1.72242 0.603228 0
M  V30 7274 C 670.63 2.22403 -2.8499 0
M  V30 7275 O 670.351 1.57879 -4.08663 0
M  V30 7276 C 671.852 3.11974 -3.1494 0
M  V30 7277 H 669.072 0.350533 -0.57216 0
M  V30 7278 H 671.616 0.469534 -1.99037 0
M  V30 7279 H 669.771 2.87871 -2.59247 0
M  V30 7280 H 670.185 2.27982 -4.7236 0
M  V30 7281 H 671.659 3.82148 -3.9833 0
M  V30 7282 H 672.136 3.74858 -2.28863 0
M  V30 7283 H 672.742 2.52165 -3.42481 0
M  V30 7284 N 671.057 1.43213 0.657864 0
M  V30 7285 C 672.303 1.44798 1.41991 0
M  V30 7286 C 672.636 0.070256 1.94073 0
M  V30 7287 O 671.911 -0.908177 1.71995 0
M  V30 7288 C 672.194 2.4865 2.60471 0
M  V30 7289 C 672.047 3.95679 2.13911 0
M  V30 7290 C 673.366 2.49292 3.62686 0
M  V30 7291 H 670.485 0.527244 0.514959 0
M  V30 7292 H 673.127 1.74733 0.74621 0
M  V30 7293 H 671.277 2.23254 3.17946 0
M  V30 7294 H 672.949 4.32116 1.61472 0
M  V30 7295 H 671.192 4.08733 1.45325 0
M  V30 7296 H 671.863 4.6395 2.99089 0
M  V30 7297 H 674.339 2.71917 3.14961 0
M  V30 7298 H 673.215 3.23907 4.43143 0
M  V30 7299 H 673.476 1.52502 4.14964 0
M  V30 7300 N 672.536 -0.895792 1.29666 0
M  V30 7301 C 673.764 -1.68001 1.20761 0
M  V30 7302 C 674.179 -1.87379 -0.231187 0
M  V30 7303 O 673.536 -1.41359 -1.15429 0
M  V30 7304 C 673.587 -3.06236 1.92098 0
M  V30 7305 O 673.308 -2.8774 3.30359 0
M  V30 7306 C 674.809 -4.00652 1.89717 0
M  V30 7307 H 672.029 -0.524591 0.418384 0
M  V30 7308 H 674.573 -1.11995 1.71106 0
M  V30 7309 H 672.728 -3.59007 1.45578 0
M  V30 7310 H 673.142 -3.75359 3.66342 0
M  V30 7311 H 674.616 -4.95051 2.44189 0
M  V30 7312 H 675.093 -4.30424 0.873595 0
M  V30 7313 H 675.699 -3.53815 2.35998 0
M  V30 7314 N 674.014 -1.12206 -1.10668 0
M  V30 7315 C 674.964 -0.75669 -2.15077 0
M  V30 7316 C 675.948 0.243154 -1.59052 0
M  V30 7317 O 677.14 0.0490268 -1.76932 0
M  V30 7318 C 674.269 -0.210303 -3.42655 0
M  V30 7319 C 673.355 -1.23829 -4.05619 0
M  V30 7320 N 673.746 -2.43513 -4.43323 0
M  V30 7321 C 672.044 -1.08309 -4.32649 0
M  V30 7322 C 672.745 -3.09138 -4.92756 0
M  V30 7323 N 671.721 -2.36593 -4.89413 0
M  V30 7324 H 675.523 -1.66747 -2.42018 0
M  V30 7325 H 673.037 -1.00248 -1.27765 0
M  V30 7326 H 675.034 0.0696287 -4.16842 0
M  V30 7327 H 673.694 0.694967 -3.17176 0
M  V30 7328 H 674.705 -2.80912 -4.35097 0
M  V30 7329 H 671.382 -0.234919 -4.16839 0
M  V30 7330 H 672.772 -4.11049 -5.31496 0
M  V30 7331 N 675.492 1.28418 -0.913599 0
M  V30 7332 C 676.717 1.99643 -0.561899 0
M  V30 7333 C 677.142 1.67819 0.849608 0
M  V30 7334 O 676.5 0.910503 1.56779 0
M  V30 7335 C 676.548 3.52116 -0.777622 0
M  V30 7336 O 675.652 4.12076 0.163457 0
M  V30 7337 H 674.993 0.627229 -0.217898 0
M  V30 7338 H 677.523 1.63575 -1.229 0
M  V30 7339 H 677.533 4.02163 -0.687666 0
M  V30 7340 H 676.208 3.74613 -1.8066 0
M  V30 7341 H 674.785 3.72892 0.0247827 0
M  V30 7342 N 676.97 0.677563 1.42291 0
M  V30 7343 C 678.198 0.209459 2.05837 0
M  V30 7344 C 678.613 -1.13444 1.50917 0
M  V30 7345 O 677.97 -1.70529 0.65008 0
M  V30 7346 C 678.021 0.138819 3.61233 0
M  V30 7347 O 677.742 1.42962 4.14118 0
M  V30 7348 C 679.243 -0.352449 4.41897 0
M  V30 7349 H 676.463 0.101209 0.663323 0
M  V30 7350 H 679.007 0.925077 1.8238 0
M  V30 7351 H 677.162 -0.527505 3.83792 0
M  V30 7352 H 677.576 1.3048 5.08011 0
M  V30 7353 H 679.05 -0.350778 5.50884 0
M  V30 7354 H 679.527 -1.3882 4.16684 0
M  V30 7355 H 680.133 0.282236 4.24362 0
M  V30 7356 N 678.448 -1.51871 0.421078 0
M  V30 7357 C 679.673 -2.0684 -0.152371 0
M  V30 7358 C 680.098 -1.28802 -1.37083 0
M  V30 7359 O 679.456 -0.321482 -1.78427 0
M  V30 7360 C 679.504 -3.57532 -0.469368 0
M  V30 7361 O 678.608 -3.81818 -1.55848 0
M  V30 7362 H 677.949 -0.663939 -0.00898586 0
M  V30 7363 H 680.479 -1.95674 0.597724 0
M  V30 7364 H 680.489 -4.01515 -0.724553 0
M  V30 7365 H 679.164 -4.13761 0.421276 0
M  V30 7366 H 677.741 -3.49709 -1.29453 0
M  V30 7367 N 679.926 -0.151884 -1.56866 0
M  V30 7368 C 681.151 0.508044 -2.01081 0
M  V30 7369 C 681.576 1.57306 -1.03134 0
M  V30 7370 O 680.934 1.81298 -0.0078309 0
M  V30 7371 C 680.982 1.08106 -3.44014 0
M  V30 7372 O 680.086 2.19577 -3.49084 0
M  V30 7373 H 679.427 0.123757 -0.652365 0
M  V30 7374 H 681.957 -0.250055 -2.03066 0
M  V30 7375 H 681.967 1.40851 -3.82916 0
M  V30 7376 H 680.642 0.301168 -4.14808 0
M  V30 7377 H 679.219 1.88023 -3.22027 0
M  V30 7378 N 681.404 1.57128 0.121893 0
M  V30 7379 C 682.336 1.96773 1.17529 0
M  V30 7380 C 683.349 0.866668 1.37814 0
M  V30 7381 O 684.538 1.14497 1.3694 0
M  V30 7382 C 681.638 2.24832 2.53582 0
M  V30 7383 C 680.811 3.56138 2.53939 0
M  V30 7384 C 679.87 3.72443 3.71716 0
M  V30 7385 O 678.896 4.44584 3.55434 0
M  V30 7386 N 680.098 3.10993 4.90167 0
M  V30 7387 H 682.863 2.87743 0.838086 0
M  V30 7388 H 680.424 1.58881 0.311199 0
M  V30 7389 H 682.416 2.32958 3.30927 0
M  V30 7390 H 680.986 1.40002 2.79496 0
M  V30 7391 H 680.206 3.59226 1.62329 0
M  V30 7392 H 681.494 4.42448 2.51231 0
M  V30 7393 H 680.892 2.52345 5.06299 0
M  V30 7394 H 679.449 3.24644 5.65198 0
M  V30 7395 N 682.882 -0.391992 1.52647 0
M  V30 7396 C 684.107 -1.16312 1.71716 0
M  V30 7397 C 684.532 -1.83042 0.433279 0
M  V30 7398 O 683.89 -1.70705 -0.610707 0
M  V30 7399 C 683.938 -2.18908 2.86551 0
M  V30 7400 O 683.042 -3.2543 2.53316 0
M  V30 7401 H 682.383 -0.338743 0.571095 0
M  V30 7402 H 684.913 -0.457202 1.99426 0
M  V30 7403 H 684.923 -2.62954 3.1196 0
M  V30 7404 H 683.598 -1.69726 3.79692 0
M  V30 7405 H 682.175 -2.86543 2.38637 0
M  V30 7406 N 684.36 -1.4356 -0.65026 0
M  V30 7407 C 685.292 -1.44918 -1.77571 0
M  V30 7408 C 686.305 -0.344925 -1.59104 0
M  V30 7409 O 687.494 -0.609537 -1.6777 0
M  V30 7410 C 684.594 -1.24914 -3.15039 0
M  V30 7411 C 683.767 -2.48232 -3.60138 0
M  V30 7412 C 682.826 -2.23409 -4.76419 0
M  V30 7413 O 681.852 -2.9678 -4.85706 0
M  V30 7414 N 683.054 -1.25259 -5.66825 0
M  V30 7415 H 685.819 -2.41935 -1.76883 0
M  V30 7416 H 683.38 -1.38754 -0.834202 0
M  V30 7417 H 685.372 -1.06185 -3.90521 0
M  V30 7418 H 683.942 -0.363319 -3.10481 0
M  V30 7419 H 683.162 -2.82366 -2.75069 0
M  V30 7420 H 684.45 -3.30296 -3.87017 0
M  V30 7421 H 683.848 -0.646246 -5.61997 0
M  V30 7422 H 682.405 -1.12513 -6.42016 0
M  V30 7423 N 685.838 0.888903 -1.30139 0
M  V30 7424 C 687.084 1.6428 -1.18912 0
M  V30 7425 C 687.417 1.92499 0.256477 0
M  V30 7426 O 686.692 1.54312 1.18397 0
M  V30 7427 C 686.975 2.9851 -2.01405 0
M  V30 7428 C 686.828 2.77288 -3.54163 0
M  V30 7429 C 688.147 3.99383 -1.84882 0
M  V30 7430 H 685.266 0.596148 -0.433333 0
M  V30 7431 H 687.908 1.0289 -1.5973 0
M  V30 7432 H 686.058 3.50907 -1.66722 0
M  V30 7433 H 687.73 2.31709 -3.98884 0
M  V30 7434 H 685.973 2.11867 -3.78543 0
M  V30 7435 H 686.644 3.72717 -4.07168 0
M  V30 7436 H 689.12 3.56132 -2.15196 0
M  V30 7437 H 687.996 4.91222 -2.44934 0
M  V30 7438 H 688.257 4.34674 -0.806902 0
M  V30 7439 N 687.317 1.12792 1.10072 0
M  V30 7440 C 688.28 0.802264 2.14701 0
M  V30 7441 C 689.28 -0.18515 1.59731 0
M  V30 7442 O 690.47 0.041109 1.74151 0
M  V30 7443 C 687.602 0.19285 3.40354 0
M  V30 7444 H 688.795 1.72932 2.45019 0
M  V30 7445 H 686.348 0.931662 1.25498 0
M  V30 7446 H 687.083 -0.743748 3.15656 0
M  V30 7447 H 686.868 0.903827 3.81541 0
M  V30 7448 H 688.358 -0.0183704 4.17596 0
M  V30 7449 N 688.795 -1.27931 0.920396 0
M  V30 7450 C 689.758 -2.25345 0.41858 0
M  V30 7451 C 690.758 -1.54116 -0.458798 0
M  V30 7452 O 691.948 -1.72235 -0.260912 0
M  V30 7453 C 689.08 -3.38556 -0.399104 0
M  V30 7454 H 690.273 -2.71251 1.27918 0
M  V30 7455 H 687.826 -1.39728 0.700406 0
M  V30 7456 H 688.561 -2.98021 -1.27882 0
M  V30 7457 H 688.346 -3.91426 0.229863 0
M  V30 7458 H 689.836 -4.10976 -0.740817 0
M  V30 7459 N 690.273 -0.685099 -1.4193 0
M  V30 7460 C 691.498 -0.218842 -2.06242 0
M  V30 7461 C 691.923 1.11923 -1.51178 0
M  V30 7462 O 691.281 1.69837 -0.634446 0
M  V30 7463 C 691.329 -0.175592 -3.60172 0
M  V30 7464 O 690.433 0.852776 -4.03487 0
M  V30 7465 H 689.774 -0.109531 -0.654904 0
M  V30 7466 H 692.304 -0.937013 -1.81882 0
M  V30 7467 H 692.314 -0.00291151 -4.08 0
M  V30 7468 H 690.989 -1.15222 -3.99621 0
M  V30 7469 H 689.566 0.650301 -3.67186 0
M  V30 7470 N 691.751 1.51645 -0.429126 0
M  V30 7471 C 692.979 2.06433 0.138994 0
M  V30 7472 C 693.394 1.29735 1.37165 0
M  V30 7473 O 692.751 0.354638 1.79021 0
M  V30 7474 C 692.802 3.58439 0.469452 0
M  V30 7475 O 692.523 4.32238 -0.714273 0
M  V30 7476 C 694.024 4.29712 1.08914 0
M  V30 7477 H 691.244 0.6709 0.0115608 0
M  V30 7478 H 693.788 1.9532 -0.605843 0
M  V30 7479 H 691.943 3.69494 1.16419 0
M  V30 7480 H 692.357 5.22704 -0.433633 0
M  V30 7481 H 693.831 5.37182 1.27042 0
M  V30 7482 H 694.308 3.87473 2.06788 0
M  V30 7483 H 694.914 4.2308 0.434028 0
M  V30 7484 N 693.229 0.160201 1.56784 0
M  V30 7485 C 694.645 -0.196089 1.58391 0
M  V30 7486 C 694.845 -1.63689 1.17508 0
M  V30 7487 O 693.901 -2.36613 0.881506 0
M  V30 7488 C 695.214 0.0746449 3.00607 0
M  V30 7489 C 696.762 0.0119762 3.12998 0
M  V30 7490 C 697.237 0.255551 4.57286 0
M  V30 7491 N 698.728 0.202938 4.62755 0
M  V30 7492 C 699.463 0.365731 5.72232 0
M  V30 7493 N 698.959 0.586972 6.90309 0
M  V30 7494 N 700.752 0.302411 5.61286 0
M  V30 7495 H 692.903 1.1008 1.81648 0
M  V30 7496 H 695.166 0.436779 0.841384 0
M  V30 7497 H 694.872 1.07231 3.34954 0
M  V30 7498 H 694.746 -0.638802 3.71751 0
M  V30 7499 H 697.133 -0.976254 2.78484 0
M  V30 7500 H 697.214 0.75796 2.44313 0
M  V30 7501 H 696.858 1.24094 4.92507 0
M  V30 7502 H 696.788 -0.510912 5.24116 0
M  V30 7503 H 699.279 0.0371328 3.77882 0
M  V30 7504 H 699.592 0.700941 7.69615 0
M  V30 7505 H 697.937 0.623453 6.92198 0
M  V30 7506 H 701.128 0.130238 4.67919 0
M  V30 7507 H 701.301 0.432712 6.46554 0
M  V30 7508 N 694.707 -1.5719 -0.113559 0
M  V30 7509 C 695.64 -1.9595 -1.16957 0
M  V30 7510 C 696.618 -0.829951 -1.39823 0
M  V30 7511 O 697.802 -1.08861 -1.53888 0
M  V30 7512 C 694.929 -2.2604 -2.52237 0
M  V30 7513 C 693.975 -3.48571 -2.45765 0
M  V30 7514 S 694.808 -5.00962 -1.89203 0
M  V30 7515 C 695.964 -5.3421 -3.26145 0
M  V30 7516 H 696.197 -2.85214 -0.839069 0
M  V30 7517 H 693.73 -1.51036 -0.320529 0
M  V30 7518 H 695.688 -2.44054 -3.30073 0
M  V30 7519 H 694.349 -1.3738 -2.82463 0
M  V30 7520 H 693.542 -3.67008 -3.45429 0
M  V30 7521 H 693.144 -3.29972 -1.76053 0
M  V30 7522 H 695.436 -5.29725 -4.22371 0
M  V30 7523 H 696.379 -6.35398 -3.12529 0
M  V30 7524 H 696.787 -4.61681 -3.24825 0
M  V30 7525 N 696.185 0.383891 -1.52853 0
M  V30 7526 C 697.431 1.13009 -1.68395 0
M  V30 7527 C 697.764 1.89488 -0.425195 0
M  V30 7528 O 697.039 1.8574 0.577136 0
M  V30 7529 C 697.322 2.10419 -2.92226 0
M  V30 7530 C 697.175 1.3767 -4.28214 0
M  V30 7531 C 698.494 3.10781 -3.11614 0
M  V30 7532 H 695.613 0.409463 -0.612788 0
M  V30 7533 H 698.255 0.412895 -1.85459 0
M  V30 7534 H 696.405 2.71579 -2.77808 0
M  V30 7535 H 698.077 0.794352 -4.54409 0
M  V30 7536 H 696.32 0.678533 -4.2846 0
M  V30 7537 H 696.991 2.08874 -5.10956 0
M  V30 7538 H 699.467 2.59715 -3.25096 0
M  V30 7539 H 698.343 3.76179 -3.99725 0
M  V30 7540 H 698.604 3.79933 -2.2606 0
M  V30 7541 N 697.663 1.43903 0.642637 0
M  V30 7542 C 698.593 1.52697 1.76652 0
M  V30 7543 C 699.574 0.380816 1.65782 0
M  V30 7544 O 700.759 0.599432 1.84717 0
M  V30 7545 C 697.889 1.45975 3.15133 0
M  V30 7546 C 696.843 2.58949 3.40778 0
M  V30 7547 C 696.169 2.37279 4.79169 0
M  V30 7548 C 697.469 4.01153 3.34475 0
M  V30 7549 H 699.163 2.46766 1.69549 0
M  V30 7550 H 696.709 1.18767 0.814279 0
M  V30 7551 H 698.662 1.5073 3.93521 0
M  V30 7552 H 697.386 0.484162 3.22991 0
M  V30 7553 H 696.045 2.53564 2.64765 0
M  V30 7554 H 695.693 1.37939 4.83717 0
M  V30 7555 H 695.393 3.13016 4.97287 0
M  V30 7556 H 696.917 2.43834 5.59801 0
M  V30 7557 H 698.331 4.07968 4.02784 0
M  V30 7558 H 696.728 4.77001 3.64129 0
M  V30 7559 H 697.798 4.25539 2.32475 0
M  V30 7560 N 699.141 -0.881989 1.30609 0
M  V30 7561 C 700.39 -1.62878 1.18969 0
M  V30 7562 C 700.703 -1.93946 -0.253859 0
M  V30 7563 O 701.909 -2.67008 -0.491813 0
M  V30 7564 C 700.365 -2.93573 2.0819 0
M  V30 7565 C 699.973 -2.70034 3.57471 0
M  V30 7566 C 701.717 -3.71543 2.0532 0
M  V30 7567 C 699.624 -3.96563 4.38739 0
M  V30 7568 H 698.554 -0.611092 0.441682 0
M  V30 7569 H 701.205 -0.976201 1.55379 0
M  V30 7570 H 699.587 -3.6014 1.64666 0
M  V30 7571 H 700.761 -2.11949 4.09163 0
M  V30 7572 H 699.076 -2.05435 3.62195 0
M  V30 7573 H 701.673 -4.65386 2.63288 0
M  V30 7574 H 702.016 -4.03167 1.03739 0
M  V30 7575 H 702.549 -3.11842 2.46981 0
M  V30 7576 H 699.288 -3.70095 5.41027 0
M  V30 7577 H 698.808 -4.54142 3.9181 0
M  V30 7578 H 700.487 -4.64557 4.50329 0
M  V30 7579 N 700.619 -1.13374 -1.09472 0
M  V30 7580 C 701.844 -0.918711 -1.85942 0
M  V30 7581 C 702.269 0.527225 -1.8056 0
M  V30 7582 O 701.627 1.37408 -1.18274 0
M  V30 7583 C 701.675 -1.41056 -3.31867 0
M  V30 7584 O 700.779 -0.595496 -4.08078 0
M  V30 7585 H 700.12 -0.329297 -0.576593 0
M  V30 7586 H 702.65 -1.50829 -1.38245 0
M  V30 7587 H 702.66 -1.41398 -3.82715 0
M  V30 7588 H 701.335 -2.46335 -3.35099 0
M  V30 7589 H 699.912 -0.659911 -3.67014 0
M  V30 7590 N 702.098 1.27442 -0.927168 0
M  V30 7591 C 703.346 1.94007 -0.566203 0
M  V30 7592 C 703.667 1.7323 0.895345 0
M  V30 7593 O 702.937 1.07973 1.63459 0
M  V30 7594 H 701.517 0.717917 -0.206409 0
M  V30 7595 H 704.179 1.55161 -1.17945 0
M  V30 7596 H 703.275 3.02401 -0.772028 0
M  V30 7597 N 703.576 0.692616 1.41565 0
M  V30 7598 C 704.523 0.0254264 2.30786 0
M  V30 7599 C 705.493 -0.774347 1.46946 0
M  V30 7600 O 706.678 -0.742981 1.7574 0
M  V30 7601 C 703.818 -0.907123 3.32964 0
M  V30 7602 C 702.931 -0.0992784 4.31886 0
M  V30 7603 C 702.066 -1.0292 5.21134 0
M  V30 7604 C 701.105 -0.214088 6.11725 0
M  V30 7605 N 700.242 -1.09766 6.93467 0
M  V30 7606 H 705.082 0.792036 2.87282 0
M  V30 7607 H 702.619 0.4023 1.41492 0
M  V30 7608 H 704.577 -1.46181 3.90752 0
M  V30 7609 H 703.207 -1.64016 2.78026 0
M  V30 7610 H 702.259 0.572287 3.76071 0
M  V30 7611 H 703.571 0.532782 4.95946 0
M  V30 7612 H 702.725 -1.65321 5.83741 0
M  V30 7613 H 701.464 -1.69512 4.57293 0
M  V30 7614 H 700.469 0.42302 5.4817 0
M  V30 7615 H 701.694 0.447995 6.77621 0
M  V30 7616 H 699.64 -1.74965 6.32237 0
M  V30 7617 H 699.557 -0.521099 7.54202 0
M  V30 7618 H 700.825 -1.70858 7.60544 0
M  V30 7619 N 705.054 -1.51416 0.437162 0
M  V30 7620 C 706.017 -2.26312 -0.362729 0
M  V30 7621 C 707.017 -1.29748 -0.949847 0
M  V30 7622 O 708.207 -1.53462 -0.824325 0
M  V30 7623 C 705.339 -3.05475 -1.5132 0
M  V30 7624 H 706.532 -2.98459 0.29365 0
M  V30 7625 H 704.085 -1.55137 0.190327 0
M  V30 7626 H 704.82 -2.37744 -2.20563 0
M  V30 7627 H 704.605 -3.76401 -1.09838 0
M  V30 7628 H 706.095 -3.62209 -2.07833 0
M  V30 7629 N 706.532 -0.168513 -1.56696 0
M  V30 7630 C 707.495 0.748928 -2.16619 0
M  V30 7631 C 708.495 1.16007 -1.11351 0
M  V30 7632 O 709.685 1.07748 -1.3688 0
M  V30 7633 C 706.817 2.01904 -2.74677 0
M  V30 7634 H 708.01 0.227317 -2.99037 0
M  V30 7635 H 705.563 0.0810372 -1.5609 0
M  V30 7636 H 706.298 2.58381 -1.95985 0
M  V30 7637 H 706.083 1.73323 -3.51712 0
M  V30 7638 H 707.573 2.67383 -3.20774 0
M  V30 7639 N 708.01 1.57248 0.105221 0
M  V30 7640 C 708.957 2.01338 1.12835 0
M  V30 7641 C 709.927 0.887897 1.40377 0
M  V30 7642 O 711.112 1.15315 1.5201 0
M  V30 7643 C 708.252 2.43432 2.44611 0
M  V30 7644 C 707.365 3.69457 2.23888 0
M  V30 7645 C 706.5 4.00473 3.48991 0
M  V30 7646 C 705.539 5.19638 3.23485 0
M  V30 7647 N 704.676 5.46457 4.40828 0
M  V30 7648 H 709.516 2.88527 0.745386 0
M  V30 7649 H 707.053 1.42714 0.356535 0
M  V30 7650 H 709.011 2.65879 3.21503 0
M  V30 7651 H 707.641 1.59266 2.80774 0
M  V30 7652 H 706.693 3.54545 1.37847 0
M  V30 7653 H 708.005 4.56497 2.01026 0
M  V30 7654 H 707.159 4.23642 4.34295 0
M  V30 7655 H 705.898 3.11935 3.74897 0
M  V30 7656 H 704.903 4.96299 2.36574 0
M  V30 7657 H 706.128 6.09766 2.98935 0
M  V30 7658 H 704.074 4.60876 4.66829 0
M  V30 7659 H 703.991 6.27849 4.2112 0
M  V30 7660 H 705.259 5.74155 5.27225 0
M  V30 7661 N 709.488 -0.375779 1.53054 0
M  V30 7662 C 710.737 -1.11674 1.67964 0
M  V30 7663 C 711.05 -1.90755 0.432655 0
M  V30 7664 O 712.256 -2.67538 0.462109 0
M  V30 7665 C 710.712 -2.0344 2.96884 0
M  V30 7666 C 710.32 -1.29719 4.28809 0
M  V30 7667 C 712.064 -2.7759 3.2116 0
M  V30 7668 C 709.971 -2.20327 5.48826 0
M  V30 7669 H 708.901 -0.420597 0.625791 0
M  V30 7670 H 711.552 -0.378499 1.79554 0
M  V30 7671 H 709.934 -2.80953 2.79072 0
M  V30 7672 H 711.108 -0.573394 4.57219 0
M  V30 7673 H 709.423 -0.674735 4.10897 0
M  V30 7674 H 712.02 -3.4559 4.0801 0
M  V30 7675 H 712.363 -3.42399 2.36789 0
M  V30 7676 H 712.896 -2.07164 3.396 0
M  V30 7677 H 709.635 -1.60113 6.35645 0
M  V30 7678 H 709.155 -2.90585 5.2471 0
M  V30 7679 H 710.834 -2.80116 5.83219 0
M  V30 7680 N 710.966 -1.44241 -0.634997 0
M  V30 7681 C 711.929 -1.50457 -1.72903 0
M  V30 7682 C 712.929 -0.387058 -1.56072 0
M  V30 7683 O 714.119 -0.649531 -1.61638 0
M  V30 7684 C 711.251 -1.37477 -3.1195 0
M  V30 7685 H 712.444 -2.47907 -1.68767 0
M  V30 7686 H 709.997 -1.31276 -0.84831 0
M  V30 7687 H 710.732 -0.41106 -3.21684 0
M  V30 7688 H 710.517 -2.18506 -3.25573 0
M  V30 7689 H 712.007 -1.44799 -3.91692 0
M  V30 7690 N 712.444 0.87505 -1.31075 0
M  V30 7691 C 713.669 1.66583 -1.23551 0
M  V30 7692 C 714.094 1.87067 0.19686 0
M  V30 7693 O 713.452 1.40877 1.1412 0
M  V30 7694 C 713.5 3.01401 -1.97965 0
M  V30 7695 O 712.604 3.90923 -1.31351 0
M  V30 7696 H 711.945 0.508645 -0.426821 0
M  V30 7697 H 714.475 1.09139 -1.7306 0
M  V30 7698 H 714.485 3.51374 -2.07366 0
M  V30 7699 H 713.16 2.85812 -3.02133 0
M  V30 7700 H 711.737 3.49369 -1.30368 0
M  V30 7701 N 713.922 1.13953 1.08869 0
M  V30 7702 C 715.338 0.878924 1.33218 0
M  V30 7703 C 715.538 -0.482478 1.95638 0
M  V30 7704 O 714.594 -1.22778 2.2064 0
M  V30 7705 C 715.907 2.00798 2.23832 0
M  V30 7706 C 717.455 2.04073 2.37325 0
M  V30 7707 C 717.93 3.16258 3.31278 0
M  V30 7708 N 719.421 3.15805 3.38853 0
M  V30 7709 C 720.156 3.99249 4.11567 0
M  V30 7710 N 719.652 4.92721 4.87029 0
M  V30 7711 N 721.445 3.87327 4.0735 0
M  V30 7712 H 713.596 2.01645 0.66731 0
M  V30 7713 H 715.859 0.878395 0.356547 0
M  V30 7714 H 715.565 2.98986 1.85203 0
M  V30 7715 H 715.439 1.92704 3.24261 0
M  V30 7716 H 717.826 1.06495 2.75214 0
M  V30 7717 H 717.907 2.16239 1.36654 0
M  V30 7718 H 717.551 4.14079 2.9411 0
M  V30 7719 H 717.481 3.0133 4.31866 0
M  V30 7720 H 719.972 2.48102 2.8505 0
M  V30 7721 H 720.285 5.52867 5.39961 0
M  V30 7722 H 718.63 4.96723 4.86098 0
M  V30 7723 H 721.821 3.13627 3.475 0
M  V30 7724 H 721.994 4.52585 4.63757 0
M  V30 7725 N 715.4 -1.26948 0.933913 0
M  V30 7726 C 716.332 -2.25768 0.395137 0
M  V30 7727 C 717.345 -1.55637 -0.477585 0
M  V30 7728 O 718.534 -1.76142 -0.289204 0
M  V30 7729 C 715.634 -3.35874 -0.451882 0
M  V30 7730 C 714.807 -4.3554 0.40299 0
M  V30 7731 C 713.866 -5.24809 -0.3824 0
M  V30 7732 O 712.892 -5.68805 0.212057 0
M  V30 7733 N 714.094 -5.55636 -1.68072 0
M  V30 7734 H 716.859 -2.72634 1.24463 0
M  V30 7735 H 714.42 -1.40639 0.802008 0
M  V30 7736 H 716.412 -3.92542 -0.984516 0
M  V30 7737 H 714.982 -2.8856 -1.20215 0
M  V30 7738 H 714.202 -3.78047 1.11688 0
M  V30 7739 H 715.49 -4.99131 0.987201 0
M  V30 7740 H 714.888 -5.2176 -2.18592 0
M  V30 7741 H 713.445 -6.14978 -2.15975 0
M  V30 7742 N 716.879 -0.700114 -1.41195 0
M  V30 7743 C 718.29 -0.307249 -1.84154 0
M  V30 7744 C 718.641 1.15539 -1.58572 0
M  V30 7745 O 717.766 1.88744 -1.05852 0
M  V30 7746 C 718.361 -0.550872 -3.34292 0
M  V30 7747 C 716.92 -0.211877 -3.75803 0
M  V30 7748 C 716.067 -0.830915 -2.64558 0
M  V30 7749 H 719.018 -0.900431 -1.30683 0
M  V30 7750 H 719.039 0.188954 -3.80031 0
M  V30 7751 H 718.551 -1.61548 -3.5288 0
M  V30 7752 H 716.652 0.848283 -3.62815 0
M  V30 7753 H 716.765 -0.67007 -4.74391 0
M  V30 7754 H 715.129 -0.260155 -2.53368 0
M  V30 7755 H 715.912 -1.89948 -2.85963 0
M  V30 7756 N 718.357 1.51182 -0.445186 0
M  V30 7757 C 719.634 1.9478 0.178965 0
M  V30 7758 C 720.014 1.38428 1.59376 0
M  V30 7759 O 719.362 0.574552 2.21159 0
M  V30 7760 C 719.572 3.48683 0.148711 0
M  V30 7761 C 720.92 4.23152 0.35042 0
M  V30 7762 O 721.944 3.55479 0.226474 0
M  V30 7763 O 720.803 5.4322 0.597893 0
M  V30 7764 H 717.897 0.817387 0.12573 0
M  V30 7765 H 720.443 1.62051 -0.503729 0
M  V30 7766 H 719.215 3.82176 -0.84009 0
M  V30 7767 H 718.838 3.87875 0.873979 0
M  V30 7768 N 719.835 0.176821 1.56605 0
M  V30 7769 C 721.06 -0.47599 2.01864 0
M  V30 7770 C 721.485 -1.55645 1.05623 0
M  V30 7771 O 720.843 -1.81263 0.0366729 0
M  V30 7772 C 720.891 -1.02619 3.4569 0
M  V30 7773 O 719.995 -2.13996 3.52533 0
M  V30 7774 H 719.336 -0.113363 0.654251 0
M  V30 7775 H 721.866 0.28233 2.02643 0
M  V30 7776 H 721.876 -1.34742 3.85109 0
M  V30 7777 H 720.551 -0.235138 4.15235 0
M  V30 7778 H 719.128 -1.82876 3.24978 0
M  V30 7779 N 721.313 -1.57302 -0.09688 0
M  V30 7780 C 722.263 -1.98369 -1.12399 0
M  V30 7781 C 723.247 -0.861872 -1.3587 0
M  V30 7782 O 724.439 -1.1257 -1.36591 0
M  V30 7783 C 721.568 -2.41017 -2.4447 0
M  V30 7784 C 720.654 -3.59881 -2.24381 0
M  V30 7785 N 721.045 -4.74872 -1.74155 0
M  V30 7786 C 719.343 -3.65943 -2.54954 0
M  V30 7787 C 720.044 -5.56823 -1.68294 0
M  V30 7788 N 719.02 -4.99942 -2.13444 0
M  V30 7789 H 722.822 -2.84726 -0.728575 0
M  V30 7790 H 720.336 -1.59523 -0.304332 0
M  V30 7791 H 722.333 -2.68665 -3.18786 0
M  V30 7792 H 720.993 -1.56036 -2.84751 0
M  V30 7793 H 722.004 -4.97657 -1.43379 0
M  V30 7794 H 718.681 -2.9162 -2.98771 0
M  V30 7795 H 720.071 -6.59099 -1.30528 0
M  V30 7796 N 722.791 0.367657 -1.53252 0
M  V30 7797 C 724.04 1.10782 -1.68554 0
M  V30 7798 C 724.353 1.90523 -0.442765 0
M  V30 7799 O 725.559 2.6729 -0.47629 0
M  V30 7800 C 724.015 2.01863 -2.97959 0
M  V30 7801 C 723.623 1.27443 -4.29491 0
M  V30 7802 C 725.367 2.75883 -3.22628 0
M  V30 7803 C 723.274 2.17414 -5.49987 0
M  V30 7804 H 722.204 0.417272 -0.628013 0
M  V30 7805 H 724.855 0.368971 -1.79752 0
M  V30 7806 H 723.237 2.7947 -2.80558 0
M  V30 7807 H 724.411 0.549138 -4.57516 0
M  V30 7808 H 722.726 0.652935 -4.11249 0
M  V30 7809 H 725.323 3.43421 -4.09837 0
M  V30 7810 H 725.666 3.41138 -2.38601 0
M  V30 7811 H 726.199 2.0536 -3.40693 0
M  V30 7812 H 722.938 1.5674 -6.36485 0
M  V30 7813 H 722.458 2.87799 -5.26243 0
M  V30 7814 H 724.137 2.77019 -5.84696 0
M  V30 7815 N 724.269 1.44576 0.627338 0
M  V30 7816 C 725.497 1.51048 1.41394 0
M  V30 7817 C 725.912 0.136568 1.88305 0
M  V30 7818 O 725.269 -0.858251 1.6106 0
M  V30 7819 C 725.32 2.47837 2.63172 0
M  V30 7820 O 725.041 3.79887 2.18215 0
M  V30 7821 C 726.542 2.63811 3.56257 0
M  V30 7822 H 723.762 0.512171 0.4335 0
M  V30 7823 H 726.306 1.89576 0.766878 0
M  V30 7824 H 724.461 2.12433 3.23961 0
M  V30 7825 H 724.875 4.32177 2.97192 0
M  V30 7826 H 726.349 3.35554 4.38301 0
M  V30 7827 H 726.826 1.69169 4.05313 0
M  V30 7828 H 727.432 3.0013 3.01333 0
M  V30 7829 N 725.747 -0.868086 1.31537 0
M  V30 7830 C 726.677 -1.99131 1.21939 0
M  V30 7831 C 727.658 -1.69768 0.106166 0
M  V30 7832 O 728.843 -1.92006 0.291081 0
M  V30 7833 C 725.973 -3.34676 0.927879 0
M  V30 7834 C 724.927 -3.7835 2.00088 0
M  V30 7835 C 724.253 -5.11375 1.56203 0
M  V30 7836 C 725.553 -3.95256 3.41424 0
M  V30 7837 H 727.247 -2.07419 2.15911 0
M  V30 7838 H 724.793 -0.996569 1.03945 0
M  V30 7839 H 726.746 -4.12793 0.847327 0
M  V30 7840 H 725.47 -3.26565 -0.0475042 0
M  V30 7841 H 724.129 -3.02474 2.07135 0
M  V30 7842 H 723.777 -4.99709 0.57445 0
M  V30 7843 H 723.477 -5.41568 2.27985 0
M  V30 7844 H 725.001 -5.92001 1.49558 0
M  V30 7845 H 726.415 -4.63764 3.3704 0
M  V30 7846 H 724.812 -4.36849 4.1144 0
M  V30 7847 H 725.882 -2.98579 3.82072 0
M  V30 7848 N 727.225 -1.14528 -1.08264 0
M  V30 7849 C 728.636 -0.925261 -1.6216 0
M  V30 7850 C 728.987 0.535587 -1.88748 0
M  V30 7851 O 728.112 1.4048 -1.64604 0
M  V30 7852 C 728.707 -1.67316 -2.94603 0
M  V30 7853 C 727.266 -1.49868 -3.45278 0
M  V30 7854 C 726.413 -1.69471 -2.19487 0
M  V30 7855 H 729.364 -1.29687 -0.914707 0
M  V30 7856 H 729.385 -1.13721 -3.63109 0
M  V30 7857 H 728.897 -2.73635 -2.75219 0
M  V30 7858 H 726.998 -0.459032 -3.69762 0
M  V30 7859 H 727.111 -2.2696 -4.21931 0
M  V30 7860 H 725.475 -1.12048 -2.2873 0
M  V30 7861 H 726.258 -2.77136 -2.0261 0
M  V30 7862 N 728.703 1.26451 -0.940633 0
M  V30 7863 C 729.951 1.93395 -0.586748 0
M  V30 7864 C 730.272 1.7417 0.876921 0
M  V30 7865 O 729.542 1.097 1.62304 0
M  V30 7866 H 728.122 0.715687 -0.214012 0
M  V30 7867 H 730.784 1.53902 -1.19584 0
M  V30 7868 H 729.88 3.01565 -0.804059 0
M  V30 7869 N 730.181 0.707592 1.40822 0
M  V30 7870 C 731.411 0.252706 2.05049 0
M  V30 7871 C 731.819 -1.10758 1.53393 0
M  V30 7872 O 731.162 -1.70567 0.682097 0
M  V30 7873 C 731.224 0.146001 3.59203 0
M  V30 7874 C 730.888 1.44027 4.33711 0
M  V30 7875 C 731.885 2.38058 4.62195 0
M  V30 7876 C 729.57 1.69698 4.72766 0
M  V30 7877 C 731.564 3.56013 5.28709 0
M  V30 7878 C 729.251 2.87936 5.39014 0
M  V30 7879 C 730.249 3.80915 5.66915 0
M  V30 7880 O 729.937 4.9708 6.31796 0
M  V30 7881 H 729.669 0.112784 0.666525 0
M  V30 7882 H 732.223 0.96417 1.81364 0
M  V30 7883 H 730.453 -0.621338 3.81676 0
M  V30 7884 H 732.142 -0.273275 4.04979 0
M  V30 7885 H 732.908 2.19487 4.32493 0
M  V30 7886 H 728.787 0.981835 4.50423 0
M  V30 7887 H 732.331 4.28604 5.50404 0
M  V30 7888 H 728.228 3.06419 5.68135 0
M  V30 7889 H 728.996 4.97053 6.50293 0
M  V30 7890 N 731.66 -1.50943 0.453197 0
M  V30 7891 C 732.906 -2.02512 -0.108082 0
M  V30 7892 C 733.239 -1.33574 -1.40967 0
M  V30 7893 O 732.514 -0.455671 -1.89087 0
M  V30 7894 C 732.797 -3.58759 -0.310453 0
M  V30 7895 C 732.65 -4.38293 1.0109 0
M  V30 7896 C 733.969 -4.26816 -1.07313 0
M  V30 7897 H 731.088 -0.73603 -0.0378064 0
M  V30 7898 H 733.73 -1.80433 0.595295 0
M  V30 7899 H 731.88 -3.77702 -0.909582 0
M  V30 7900 H 733.552 -4.30964 1.64523 0
M  V30 7901 H 731.795 -4.02745 1.61179 0
M  V30 7902 H 732.466 -5.45828 0.82315 0
M  V30 7903 H 734.942 -4.1224 -0.565473 0
M  V30 7904 H 733.818 -5.35989 -1.1835 0
M  V30 7905 H 734.079 -3.88757 -2.10525 0
M  V30 7906 N 733.138 -0.185124 -1.56509 0
M  V30 7907 C 734.384 0.450356 -1.98352 0
M  V30 7908 C 734.739 1.59923 -1.06969 0
M  V30 7909 O 734.032 1.91272 -0.112084 0
M  V30 7910 C 734.226 0.967977 -3.44042 0
M  V30 7911 C 734.055 -0.129208 -4.49514 0
M  V30 7912 C 732.825 -0.58351 -5.0192 0
M  V30 7913 C 735.023 -0.93459 -5.05737 0
M  V30 7914 N 733.005 -1.65956 -5.91043 0
M  V30 7915 C 734.376 -1.86026 -5.91434 0
M  V30 7916 C 736.431 -0.978125 -4.88198 0
M  V30 7917 C 735.134 -2.82582 -6.61468 0
M  V30 7918 C 737.16 -1.93169 -5.58963 0
M  V30 7919 C 736.522 -2.84481 -6.44399 0
M  V30 7920 H 732.621 0.132504 -0.770692 0
M  V30 7921 H 735.205 -0.288523 -1.9255 0
M  V30 7922 H 733.376 1.67633 -3.50362 0
M  V30 7923 H 735.108 1.57323 -3.72869 0
M  V30 7924 H 731.863 -0.178676 -4.73263 0
M  V30 7925 H 732.287 -2.19848 -6.40309 0
M  V30 7926 H 736.929 -0.286169 -4.2183 0
M  V30 7927 H 734.647 -3.52758 -7.2704 0
M  V30 7928 H 738.233 -1.97166 -5.47373 0
M  V30 7929 H 737.113 -3.57065 -6.98194 0
M  V30 7930 N 734.616 1.57351 0.0885366 0
M  V30 7931 C 735.841 1.91011 0.80805 0
M  V30 7932 C 736.266 0.780009 1.71165 0
M  V30 7933 O 735.624 -0.268083 1.79307 0
M  V30 7934 C 735.672 3.23562 1.59185 0
M  V30 7935 O 734.776 3.11615 2.7013 0
M  V30 7936 H 734.117 0.625943 0.221565 0
M  V30 7937 H 736.647 2.04507 0.0617954 0
M  V30 7938 H 736.657 3.5703 1.97468 0
M  V30 7939 H 735.332 4.05398 0.928741 0
M  V30 7940 H 733.909 2.89673 2.34827 0
M  V30 7941 N 736.094 -0.359525 1.53444 0
M  V30 7942 C 737.042 -1.46104 1.80987 0
M  V30 7943 C 738.036 -1.55181 0.679351 0
M  V30 7944 O 739.242 -1.57995 0.862405 0
M  V30 7945 H 735.617 -0.486835 0.573145 0
M  V30 7946 H 737.588 -1.2008 2.73173 0
M  V30 7947 C 736.337 -2.82855 2.02208 0
M  V30 7948 H 735.66 -2.76631 2.88644 0
M  V30 7949 H 737.1 -3.59091 2.25455 0
M  V30 7950 C 735.559 -3.27192 0.802931 0
M  V30 7951 O 736.089 -4.017 -0.00544286 0
M  V30 7952 N 734.295 -2.83807 0.624657 0
M  V30 7953 H 733.842 -2.23339 1.28364 0
M  V30 7954 H 733.8 -3.13828 -0.189641 0
M  V30 7955 N 737.572 -1.44907 -0.619662 0
M  V30 7956 C 738.797 -1.52021 -1.41083 0
M  V30 7957 C 739.222 -0.14976 -1.87503 0
M  V30 7958 O 738.58 0.863303 -1.59426 0
M  V30 7959 C 738.628 -2.49911 -2.59955 0
M  V30 7960 O 737.732 -2.00857 -3.60181 0
M  V30 7961 H 737.073 -0.512912 -0.421684 0
M  V30 7962 H 739.603 -1.90149 -0.755282 0
M  V30 7963 H 739.613 -2.68323 -3.07354 0
M  V30 7964 H 738.288 -3.4945 -2.25516 0
M  V30 7965 H 736.865 -1.92265 -3.19513 0
M  V30 7966 N 739.05 0.861098 -1.31996 0
M  V30 7967 C 739.96 2.00154 -1.22374 0
M  V30 7968 C 740.976 1.73447 -0.138631 0
M  V30 7969 O 742.152 1.98191 -0.358104 0
M  V30 7970 C 739.217 3.33696 -0.940645 0
M  V30 7971 C 738.278 3.73668 -2.11355 0
M  V30 7972 C 737.511 5.00837 -1.84386 0
M  V30 7973 O 737.734 5.64996 -0.783287 0
M  V30 7974 O 736.668 5.37787 -2.70313 0
M  V30 7975 H 740.494 2.11207 -2.18233 0
M  V30 7976 H 738.079 0.990768 -1.11822 0
M  V30 7977 H 739.961 4.13756 -0.798987 0
M  V30 7978 H 738.636 3.23698 -0.0121636 0
M  V30 7979 H 737.543 2.94211 -2.31065 0
M  V30 7980 H 738.876 3.88303 -3.02459 0
M  V30 7981 N 740.528 1.15101 1.07655 0
M  V30 7982 C 741.46 0.802722 2.14684 0
M  V30 7983 C 742.473 -0.183874 1.61758 0
M  V30 7984 O 743.662 0.0389349 1.78458 0
M  V30 7985 C 740.762 0.172135 3.38463 0
M  V30 7986 C 739.935 1.19538 4.20749 0
M  V30 7987 C 738.994 0.58714 5.22914 0
M  V30 7988 O 738.02 1.25224 5.55255 0
M  V30 7989 N 739.222 -0.632566 5.77043 0
M  V30 7990 H 741.987 1.72379 2.45164 0
M  V30 7991 H 739.548 1.04647 1.23534 0
M  V30 7992 H 741.54 -0.247465 4.03943 0
M  V30 7993 H 740.11 -0.652214 3.0572 0
M  V30 7994 H 739.33 1.79165 3.51132 0
M  V30 7995 H 740.618 1.88636 4.7254 0
M  V30 7996 H 740.016 -1.19135 5.53013 0
M  V30 7997 H 738.573 -0.994566 6.44167 0
M  V30 7998 N 742.006 -1.2595 0.947325 0
M  V30 7999 C 743.283 -1.88676 0.515824 0
M  V30 8000 C 743.663 -1.85547 -1.00675 0
M  V30 8001 O 743.011 -1.31399 -1.8694 0
M  V30 8002 C 743.221 -3.31734 1.08415 0
M  V30 8003 C 744.569 -4.08545 1.15654 0
M  V30 8004 O 745.593 -3.40826 1.03517 0
M  V30 8005 O 744.452 -5.29663 1.34608 0
M  V30 8006 H 741.546 -0.809537 0.169055 0
M  V30 8007 H 744.092 -1.34075 1.04029 0
M  V30 8008 H 742.864 -3.28404 2.1276 0
M  V30 8009 H 742.487 -3.93882 0.542499 0
M  V30 8010 N 743.484 -0.715051 -1.40445 0
M  V30 8011 C 744.724 -0.258742 -2.02756 0
M  V30 8012 C 745.088 1.12661 -1.55472 0
M  V30 8013 O 746.289 1.67988 -2.09842 0
M  V30 8014 C 744.56 -0.335201 -3.55825 0
M  V30 8015 S 746.119 0.044201 -4.38778 0
M  V30 8016 H 742.937 -0.102683 -0.703546 0
M  V30 8017 H 745.539 -0.937151 -1.71574 0
M  V30 8018 H 744.243 -1.34511 -3.87731 0
M  V30 8019 H 743.774 0.361705 -3.91734 0
M  V30 8020 H 745.789 1.26639 -4.79768 0
M  V30 8021 N 744.962 1.50701 -0.461195 0
M  V30 8022 C 745.892 2.31182 0.328184 0
M  V30 8023 C 746.873 1.37644 0.999408 0
M  V30 8024 O 748.058 1.66565 0.99848 0
M  V30 8025 C 745.188 3.17113 1.41621 0
M  V30 8026 C 744.142 4.19124 0.867148 0
M  V30 8027 C 743.468 4.93728 2.05272 0
M  V30 8028 C 744.768 5.22174 -0.114808 0
M  V30 8029 H 746.462 2.97423 -0.343501 0
M  V30 8030 H 744.008 1.43033 -0.166641 0
M  V30 8031 H 745.961 3.72208 1.97584 0
M  V30 8032 H 744.685 2.48739 2.11652 0
M  V30 8033 H 743.344 3.65116 0.329557 0
M  V30 8034 H 742.992 4.21835 2.73978 0
M  V30 8035 H 742.692 5.62724 1.69161 0
M  V30 8036 H 744.216 5.51654 2.61744 0
M  V30 8037 H 745.63 5.72198 0.355316 0
M  V30 8038 H 744.027 5.98833 -0.389689 0
M  V30 8039 H 745.097 4.7353 -1.04391 0
M  V30 8040 N 746.441 0.193421 1.56409 0
M  V30 8041 C 747.852 -0.319471 1.83946 0
M  V30 8042 C 748.203 -1.61505 1.11403 0
M  V30 8043 O 747.328 -2.13139 0.374289 0
M  V30 8044 C 747.923 -0.586411 3.33686 0
M  V30 8045 C 746.482 -1.04368 3.61641 0
M  V30 8046 C 745.629 -0.0913834 2.77149 0
M  V30 8047 H 748.58 0.417242 1.53117 0
M  V30 8048 H 748.601 -1.43591 3.52366 0
M  V30 8049 H 748.113 0.356701 3.86457 0
M  V30 8050 H 746.214 -2.00113 3.14302 0
M  V30 8051 H 746.327 -0.937549 4.69837 0
M  V30 8052 H 744.691 -0.592954 2.47702 0
M  V30 8053 H 745.474 0.846142 3.32709 0
M  V30 8054 N 747.919 -1.57396 -0.0801906 0
M  V30 8055 C 748.869 -1.9955 -1.10289 0
M  V30 8056 C 749.853 -0.876234 -1.34948 0
M  V30 8057 O 751.045 -1.14012 -1.35389 0
M  V30 8058 C 748.174 -2.43596 -2.419 0
M  V30 8059 C 747.26 -3.6224 -2.20551 0
M  V30 8060 N 747.651 -4.76693 -1.69109 0
M  V30 8061 C 745.949 -3.68627 -2.51059 0
M  V30 8062 C 746.65 -5.58577 -1.62379 0
M  V30 8063 N 745.626 -5.02178 -2.0813 0
M  V30 8064 H 749.428 -2.85483 -0.698335 0
M  V30 8065 H 746.942 -1.59837 -0.287395 0
M  V30 8066 H 748.939 -2.72031 -3.15919 0
M  V30 8067 H 747.599 -1.59047 -2.8308 0
M  V30 8068 H 748.61 -4.9915 -1.38092 0
M  V30 8069 H 745.287 -2.94772 -2.95661 0
M  V30 8070 H 746.677 -6.60447 -1.2353 0
M  V30 8071 N 749.397 0.351382 -1.53633 0
M  V30 8072 C 750.622 1.11718 -1.74739 0
M  V30 8073 C 751.047 1.81829 -0.481657 0
M  V30 8074 O 750.405 1.72264 0.565233 0
M  V30 8075 C 750.453 2.11234 -2.92254 0
M  V30 8076 O 749.557 3.186 -2.61855 0
M  V30 8077 H 748.898 0.323482 -0.579875 0
M  V30 8078 H 751.428 0.404167 -2.00568 0
M  V30 8079 H 751.438 2.54591 -3.18822 0
M  V30 8080 H 750.113 1.59599 -3.84058 0
M  V30 8081 H 748.69 2.80115 -2.4615 0
M  V30 8082 N 750.875 1.45233 0.611969 0
M  V30 8083 C 752.122 1.49021 1.37109 0
M  V30 8084 C 752.45 0.130227 1.94064 0
M  V30 8085 O 751.705 -0.870551 1.75271 0
M  V30 8086 C 752.004 2.51353 2.54079 0
M  V30 8087 C 751.67 3.96178 2.15299 0
M  V30 8088 C 750.332 4.35614 2.04436 0
M  V30 8089 C 752.684 4.87275 1.84966 0
M  V30 8090 C 750.012 5.64047 1.61456 0
M  V30 8091 C 752.364 6.16115 1.43474 0
M  V30 8092 C 751.028 6.54486 1.31167 0
M  V30 8093 H 750.298 0.545307 0.501719 0
M  V30 8094 H 752.945 1.78555 0.692122 0
M  V30 8095 H 751.25 2.15372 3.27295 0
M  V30 8096 H 752.947 2.51523 3.12309 0
M  V30 8097 H 749.537 3.6499 2.24678 0
M  V30 8098 H 753.721 4.57548 1.92258 0
M  V30 8099 H 748.977 5.92575 1.50547 0
M  V30 8100 H 753.151 6.86149 1.19048 0
M  V30 8101 H 750.778 7.53904 0.97637 0
M  V30 8102 N 752.353 -0.854086 1.3245 0
M  V30 8103 C 753.303 -1.9508 1.18016 0
M  V30 8104 C 754.287 -1.60665 0.0869417 0
M  V30 8105 O 755.479 -1.74201 0.313505 0
M  V30 8106 C 752.608 -3.3113 0.905961 0
M  V30 8107 C 751.694 -3.71763 2.04091 0
M  V30 8108 N 752.085 -3.84218 3.28953 0
M  V30 8109 C 750.383 -4.01393 1.94421 0
M  V30 8110 C 751.084 -4.192 4.03294 0
M  V30 8111 N 750.06 -4.30749 3.31596 0
M  V30 8112 H 753.862 -2.02843 2.12678 0
M  V30 8113 H 751.376 -1.04588 1.24238 0
M  V30 8114 H 753.373 -4.09471 0.783508 0
M  V30 8115 H 752.033 -3.24684 -0.0322715 0
M  V30 8116 H 753.044 -3.68524 3.63883 0
M  V30 8117 H 749.721 -4.03246 1.08162 0
M  V30 8118 H 751.111 -4.36301 5.1097 0
M  V30 8119 N 753.831 -1.1567 -1.07043 0
M  V30 8120 C 754.741 -0.870435 -2.17855 0
M  V30 8121 C 755.757 0.154452 -1.73313 0
M  V30 8122 O 756.933 -0.0203759 -2.0139 0
M  V30 8123 C 753.998 -0.367219 -3.4475 0
M  V30 8124 C 753.059 -1.45639 -4.03841 0
M  V30 8125 C 752.292 -0.977092 -5.2468 0
M  V30 8126 O 752.515 0.176127 -5.70128 0
M  V30 8127 O 751.449 -1.76215 -5.75527 0
M  V30 8128 H 755.275 -1.79687 -2.44839 0
M  V30 8129 H 752.86 -0.936064 -1.1644 0
M  V30 8130 H 754.742 -0.0931947 -4.21297 0
M  V30 8131 H 753.417 0.53131 -3.1931 0
M  V30 8132 H 752.324 -1.78406 -3.28819 0
M  V30 8133 H 753.657 -2.32995 -4.3356 0
M  V30 8134 N 755.309 1.25446 -0.953992 0
M  V30 8135 C 756.219 2.29632 -0.480264 0
M  V30 8136 C 757.235 1.68025 0.452071 0
M  V30 8137 O 758.411 1.98703 0.328472 0
M  V30 8138 C 755.476 3.45903 0.234974 0
M  V30 8139 C 754.537 4.22953 -0.735495 0
M  V30 8140 C 753.77 5.33672 -0.0542957 0
M  V30 8141 O 753.993 5.58477 1.16018 0
M  V30 8142 O 752.927 5.9734 -0.739509 0
M  V30 8143 H 756.753 2.72242 -1.34602 0
M  V30 8144 H 754.338 1.30883 -0.720419 0
M  V30 8145 H 756.22 4.16552 0.637341 0
M  V30 8146 H 754.895 3.05296 1.07592 0
M  V30 8147 H 753.802 3.54734 -1.18806 0
M  V30 8148 H 755.135 4.67341 -1.54444 0
M  V30 8149 N 756.787 0.722489 1.40064 0
M  V30 8150 C 758.015 0.274838 2.05066 0
M  V30 8151 C 758.43 -1.08586 1.54449 0
M  V30 8152 O 757.787 -1.68375 0.704003 0
M  V30 8153 C 757.838 0.253673 3.60609 0
M  V30 8154 O 757.559 1.56064 4.0936 0
M  V30 8155 C 759.06 -0.211684 4.42794 0
M  V30 8156 H 756.28 0.12226 0.659768 0
M  V30 8157 H 758.824 0.982632 1.79345 0
M  V30 8158 H 756.979 -0.405137 3.85276 0
M  V30 8159 H 757.393 1.46576 5.03603 0
M  V30 8160 H 758.867 -0.175341 5.51721 0
M  V30 8161 H 759.344 -1.25493 4.2089 0
M  V30 8162 H 759.95 0.4171 4.2325 0
M  V30 8163 N 758.265 -1.50454 0.469181 0
M  V30 8164 C 759.212 -2.28486 -0.325982 0
M  V30 8165 C 760.182 -1.33455 -0.988893 0
M  V30 8166 O 761.367 -1.6239 -1.0017 0
M  V30 8167 C 758.507 -3.15288 -1.40313 0
M  V30 8168 C 757.62 -4.25348 -0.755183 0
M  V30 8169 C 756.755 -4.9941 -1.81006 0
M  V30 8170 C 755.794 -6.01348 -1.14226 0
M  V30 8171 N 754.931 -6.68695 -2.1399 0
M  V30 8172 H 759.771 -2.95987 0.345753 0
M  V30 8173 H 757.308 -1.45965 0.182355 0
M  V30 8174 H 759.266 -3.63964 -2.03927 0
M  V30 8175 H 757.896 -2.49837 -2.04405 0
M  V30 8176 H 756.948 -3.80399 -0.00651901 0
M  V30 8177 H 758.26 -4.98279 -0.227941 0
M  V30 8178 H 757.414 -5.51794 -2.52206 0
M  V30 8179 H 756.153 -4.26181 -2.3711 0
M  V30 8180 H 755.158 -5.48225 -0.415876 0
M  V30 8181 H 756.383 -6.76548 -0.588135 0
M  V30 8182 H 754.329 -5.98258 -2.69115 0
M  V30 8183 H 754.246 -7.37495 -1.66246 0
M  V30 8184 H 755.514 -7.25697 -2.84576 0
M  V30 8185 N 759.743 -0.201713 -1.56304 0
M  V30 8186 C 760.653 0.728296 -2.23009 0
M  V30 8187 C 761.669 1.22945 -1.23128 0
M  V30 8188 O 762.845 1.27523 -1.55884 0
M  V30 8189 C 759.91 1.92792 -2.88153 0
M  V30 8190 C 758.971 1.47068 -4.03323 0
M  V30 8191 C 758.204 2.61312 -4.65351 0
M  V30 8192 O 758.427 3.7896 -4.26317 0
M  V30 8193 O 757.361 2.33646 -5.54701 0
M  V30 8194 H 761.187 0.190166 -3.03104 0
M  V30 8195 H 758.772 0.0278725 -1.49374 0
M  V30 8196 H 760.654 2.6289 -3.29343 0
M  V30 8197 H 759.329 2.45452 -2.11033 0
M  V30 8198 H 758.236 0.738299 -3.66742 0
M  V30 8199 H 759.569 0.990666 -4.82127 0
M  V30 8200 N 761.222 1.57436 0.0718424 0
M  V30 8201 C 762.499 1.78312 0.804006 0
M  V30 8202 C 762.879 0.789273 1.9579 0
M  V30 8203 O 762.227 -0.177605 2.27809 0
M  V30 8204 C 762.437 3.24798 1.277 0
M  V30 8205 C 763.785 3.88627 1.71039 0
M  V30 8206 O 764.809 3.28689 1.37266 0
M  V30 8207 O 763.668 4.94073 2.33567 0
M  V30 8208 H 760.762 0.73178 0.385262 0
M  V30 8209 H 763.308 1.69621 0.0519219 0
M  V30 8210 H 762.08 3.88688 0.45134 0
M  V30 8211 H 761.703 3.38213 2.0904 0
M  V30 8212 N 762.7 -0.34323 1.53817 0
M  V30 8213 C 763.925 -1.1079 1.75329 0
M  V30 8214 C 764.35 -1.81571 0.491293 0
M  V30 8215 O 763.708 -1.72561 -0.556089 0
M  V30 8216 C 763.756 -2.09681 2.9337 0
M  V30 8217 O 762.86 -3.17207 2.63541 0
M  V30 8218 H 762.201 -0.320402 0.581583 0
M  V30 8219 H 764.731 -0.393525 2.0078 0
M  V30 8220 H 764.741 -2.52897 3.20168 0
M  V30 8221 H 763.416 -1.5756 3.84899 0
M  V30 8222 H 761.993 -2.78806 2.47632 0
M  V30 8223 N 764.178 -1.45556 -0.604258 0
M  V30 8224 C 765.426 -1.4945 -1.36048 0
M  V30 8225 C 765.747 -0.138933 -1.94504 0
M  V30 8226 O 765.017 0.832097 -1.7735 0
M  V30 8227 H 763.597 -0.550381 -0.505064 0
M  V30 8228 H 766.259 -1.81535 -0.709308 0
M  V30 8229 H 765.355 -2.23519 -2.17821 0
M  V30 8230 N 765.656 0.84705 -1.32902 0
M  V30 8231 C 767.072 1.13645 -1.12058 0
M  V30 8232 C 767.272 2.01281 0.093937 0
M  V30 8233 O 766.328 2.4026 0.776608 0
M  V30 8234 C 767.641 1.80644 -2.40392 0
M  V30 8235 C 769.189 1.93246 -2.46221 0
M  V30 8236 C 769.664 2.6366 -3.74496 0
M  V30 8237 N 771.155 2.71179 -3.75521 0
M  V30 8238 C 771.89 3.26332 -4.71482 0
M  V30 8239 N 771.386 3.82236 -5.77813 0
M  V30 8240 N 773.179 3.24507 -4.58968 0
M  V30 8241 H 765.33 0.263612 -2.10758 0
M  V30 8242 H 767.593 0.17944 -0.930863 0
M  V30 8243 H 767.299 1.23708 -3.29225 0
M  V30 8244 H 767.173 2.80736 -2.51926 0
M  V30 8245 H 769.56 2.49338 -1.57843 0
M  V30 8246 H 769.641 0.921272 -2.38634 0
M  V30 8247 H 769.285 2.08229 -4.63253 0
M  V30 8248 H 769.215 3.65234 -3.79357 0
M  V30 8249 H 771.706 2.31527 -2.9867 0
M  V30 8250 H 772.019 4.22499 -6.47082 0
M  V30 8251 H 770.364 3.80546 -5.81558 0
M  V30 8252 H 773.555 2.80085 -3.7506 0
M  V30 8253 H 773.728 3.67188 -5.33926 0
M  V30 8254 N 767.134 1.16236 1.06428 0
M  V30 8255 C 768.066 0.825446 2.1382 0
M  V30 8256 C 769.079 -0.166707 1.61944 0
M  V30 8257 O 770.268 0.0578606 1.78406 0
M  V30 8258 C 767.368 0.208023 3.38261 0
M  V30 8259 C 766.541 1.23994 4.19457 0
M  V30 8260 C 765.6 0.642569 5.22262 0
M  V30 8261 O 764.626 1.31106 5.53895 0
M  V30 8262 N 765.828 -0.571327 5.77682 0
M  V30 8263 H 768.593 1.7497 2.43322 0
M  V30 8264 H 766.154 1.05951 1.22417 0
M  V30 8265 H 768.146 -0.204608 4.04182 0
M  V30 8266 H 766.716 -0.619752 3.06395 0
M  V30 8267 H 765.936 1.82879 3.49212 0
M  V30 8268 H 767.224 1.93638 4.70512 0
M  V30 8269 H 766.622 -1.13263 5.54245 0
M  V30 8270 H 765.179 -0.926187 6.45186 0
M  V30 8271 N 768.612 -1.24939 0.960631 0
M  V30 8272 C 769.86 -1.92437 0.617441 0
M  V30 8273 C 770.181 -1.75543 -0.849101 0
M  V30 8274 O 769.451 -1.12269 -1.60538 0
M  V30 8275 H 768.031 -0.712192 0.225371 0
M  V30 8276 H 770.693 -1.5198 1.22017 0
M  V30 8277 H 769.789 -3.00247 0.851933 0
M  V30 8278 N 770.09 -0.729906 -1.39679 0
M  V30 8279 C 771.367 -0.202149 -1.94553 0
M  V30 8280 C 771.747 1.29507 -1.66707 0
M  V30 8281 O 771.095 2.05819 -0.992517 0
M  V30 8282 C 771.305 -0.530279 -3.44948 0
M  V30 8283 C 772.653 -0.476808 -4.21914 0
M  V30 8284 O 773.677 -0.467171 -3.53123 0
M  V30 8285 O 772.536 -0.466869 -5.44502 0
M  V30 8286 H 769.63 -0.0351644 -0.826252 0
M  V30 8287 H 772.176 -0.808417 -1.49207 0
M  V30 8288 H 770.948 -1.56526 -3.5863 0
M  V30 8289 H 770.571 0.10522 -3.97461 0
M  V30 8290 N 771.568 1.50203 -0.477153 0
M  V30 8291 C 772.845 1.95115 0.137609 0
M  V30 8292 C 773.225 1.41778 1.56404 0
M  V30 8293 O 772.573 0.621333 2.1989 0
M  V30 8294 C 772.783 3.4892 0.0747168 0
M  V30 8295 C 774.131 4.238 0.260585 0
M  V30 8296 O 775.155 3.5588 0.151021 0
M  V30 8297 O 774.014 5.44366 0.482534 0
M  V30 8298 H 771.108 0.81987 0.108364 0
M  V30 8299 H 773.654 1.60946 -0.537989 0
M  V30 8300 H 772.426 3.80308 -0.920966 0
M  V30 8301 H 772.049 3.89642 0.791509 0
M  V30 8302 N 773.046 0.209999 1.56195 0
M  V30 8303 C 774.295 -0.425106 1.97169 0
M  V30 8304 C 774.608 -1.61718 1.10031 0
M  V30 8305 O 775.814 -2.32105 1.40853 0
M  V30 8306 C 774.27 -0.80771 3.50719 0
M  V30 8307 C 773.878 0.360902 4.46544 0
M  V30 8308 C 775.622 -1.40906 4.00432 0
M  V30 8309 C 773.529 -0.0434919 5.91384 0
M  V30 8310 H 772.459 -0.162598 0.736259 0
M  V30 8311 H 775.11 0.304382 1.80958 0
M  V30 8312 H 773.492 -1.59429 3.62489 0
M  V30 8313 H 774.666 1.13846 4.46515 0
M  V30 8314 H 772.981 0.874729 4.07109 0
M  V30 8315 H 775.578 -1.72433 5.06133 0
M  V30 8316 H 775.921 -2.32081 3.45607 0
M  V30 8317 H 776.454 -0.686154 3.91838 0
M  V30 8318 H 773.193 0.834448 6.50167 0
M  V30 8319 H 772.713 -0.785598 5.94633 0
M  V30 8320 H 774.392 -0.474176 6.4526 0
M  V30 8321 N 774.524 -1.57472 -0.0634922 0
M  V30 8322 C 775.454 -2.07297 -1.07473 0
M  V30 8323 C 776.435 -0.968162 -1.39859 0
M  V30 8324 O 777.62 -1.24139 -1.49343 0
M  V30 8325 C 774.75 -2.52381 -2.38581 0
M  V30 8326 C 773.704 -3.66813 -2.20526 0
M  V30 8327 C 773.03 -3.97982 -3.57092 0
M  V30 8328 C 774.33 -4.96553 -1.61965 0
M  V30 8329 H 776.024 -2.92033 -0.660092 0
M  V30 8330 H 773.57 -1.40488 -0.316074 0
M  V30 8331 H 775.523 -2.85852 -3.09624 0
M  V30 8332 H 774.247 -1.64684 -2.8204 0
M  V30 8333 H 772.906 -3.33639 -1.51924 0
M  V30 8334 H 772.554 -3.07403 -3.98136 0
M  V30 8335 H 772.254 -4.7504 -3.45848 0
M  V30 8336 H 773.778 -4.33956 -4.29552 0
M  V30 8337 H 775.192 -5.28201 -2.22883 0
M  V30 8338 H 773.589 -5.7799 -1.61394 0
M  V30 8339 H 774.659 -4.81396 -0.581918 0
M  V30 8340 N 776.003 0.335068 -1.53997 0
M  V30 8341 C 776.936 1.43533 -1.77407 0
M  V30 8342 C 777.914 1.5017 -0.623529 0
M  V30 8343 O 779.098 1.67756 -0.85966 0
M  V30 8344 C 776.225 2.81712 -1.88033 0
M  V30 8345 C 775.271 2.92661 -3.10245 0
M  V30 8346 S 776.104 2.58254 -4.69111 0
M  V30 8347 C 777.26 3.98525 -4.82627 0
M  V30 8348 H 777.493 1.2346 -2.70453 0
M  V30 8349 H 775.026 0.531234 -1.44973 0
M  V30 8350 H 776.984 3.61314 -1.9484 0
M  V30 8351 H 775.645 2.99075 -0.959849 0
M  V30 8352 H 774.838 3.93931 -3.14379 0
M  V30 8353 H 774.44 2.21017 -3.01708 0
M  V30 8354 H 776.732 4.93146 -4.64557 0
M  V30 8355 H 777.675 3.9938 -5.84723 0
M  V30 8356 H 778.083 3.86945 -4.11016 0
M  V30 8357 N 777.481 1.45874 0.596531 0
M  V30 8358 C 778.391 1.57947 1.73464 0
M  V30 8359 C 779.407 0.463461 1.67714 0
M  V30 8360 O 780.583 0.725685 1.87872 0
M  V30 8361 C 777.648 1.55348 3.09948 0
M  V30 8362 C 776.709 2.78074 3.27068 0
M  V30 8363 C 775.942 2.75589 4.57041 0
M  V30 8364 O 776.165 1.83545 5.40063 0
M  V30 8365 O 775.099 3.66945 4.77111 0
M  V30 8366 H 778.925 2.54169 1.66228 0
M  V30 8367 H 776.51 1.2851 0.76194 0
M  V30 8368 H 778.392 1.56545 3.91244 0
M  V30 8369 H 777.067 0.622811 3.17652 0
M  V30 8370 H 775.974 2.82435 2.45319 0
M  V30 8371 H 777.307 3.70303 3.24248 0
M  V30 8372 N 778.959 -0.83999 1.33349 0
M  V30 8373 C 779.906 -1.94972 1.23509 0
M  V30 8374 C 780.876 -1.65709 0.113967 0
M  V30 8375 O 782.061 -1.88552 0.292045 0
M  V30 8376 C 779.201 -3.30919 0.979105 0
M  V30 8377 C 778.314 -3.72587 2.18639 0
M  V30 8378 C 777.449 -4.97397 1.86465 0
M  V30 8379 C 776.488 -5.31597 3.03432 0
M  V30 8380 N 775.625 -6.47584 2.71254 0
M  V30 8381 H 780.465 -2.0272 2.18423 0
M  V30 8382 H 778.002 -0.992017 1.08616 0
M  V30 8383 H 779.96 -4.09239 0.811126 0
M  V30 8384 H 778.59 -3.22731 0.0667099 0
M  V30 8385 H 777.642 -2.89799 2.46416 0
M  V30 8386 H 778.954 -3.93844 3.06086 0
M  V30 8387 H 778.108 -5.83462 1.66305 0
M  V30 8388 H 776.847 -4.78107 0.96254 0
M  V30 8389 H 775.852 -4.44037 3.24208 0
M  V30 8390 H 777.077 -5.52836 3.94397 0
M  V30 8391 H 775.023 -6.29783 1.836 0
M  V30 8392 H 774.94 -6.68931 3.52231 0
M  V30 8393 H 776.208 -7.36764 2.54558 0
M  V30 8394 N 780.437 -1.16799 -1.0581 0
M  V30 8395 C 781.848 -0.95945 -1.60161 0
M  V30 8396 C 782.199 0.49543 -1.89842 0
M  V30 8397 O 781.324 1.36957 -1.67546 0
M  V30 8398 C 781.919 -1.73527 -2.90987 0
M  V30 8399 C 780.478 -1.57158 -3.42021 0
M  V30 8400 C 779.625 -1.74089 -2.15843 0
M  V30 8401 H 782.576 -1.31598 -0.886992 0
M  V30 8402 H 782.597 -1.21397 -3.60615 0
M  V30 8403 H 782.109 -2.79411 -2.69353 0
M  V30 8404 H 780.21 -0.537361 -3.68705 0
M  V30 8405 H 780.323 -2.35858 -4.17022 0
M  V30 8406 H 778.687 -1.16874 -2.26302 0
M  V30 8407 H 779.47 -2.81371 -1.96686 0
M  V30 8408 N 781.915 1.24427 -0.967243 0
M  V30 8409 C 783.14 1.9708 -0.646069 0
M  V30 8410 C 783.565 1.71272 0.777665 0
M  V30 8411 O 782.923 0.976179 1.52776 0
M  V30 8412 C 782.971 3.48501 -0.926266 0
M  V30 8413 O 782.075 4.12398 -0.0114653 0
M  V30 8414 H 781.416 0.617423 -0.244304 0
M  V30 8415 H 783.946 1.58215 -1.29727 0
M  V30 8416 H 783.956 3.98885 -0.857619 0
M  V30 8417 H 782.631 3.66613 -1.96386 0
M  V30 8418 H 781.208 3.72661 -0.133396 0
M  V30 8419 N 783.393 0.737304 1.3929 0
M  V30 8420 C 784.809 0.413132 1.5416 0
M  V30 8421 C 785.009 -1.07574 1.70382 0
M  V30 8422 O 784.065 -1.86185 1.70562 0
M  V30 8423 C 785.378 1.19817 2.75798 0
M  V30 8424 C 786.926 1.18662 2.89635 0
M  V30 8425 C 787.401 1.95427 4.14213 0
M  V30 8426 N 788.892 1.92605 4.21257 0
M  V30 8427 C 789.627 2.48808 5.16606 0
M  V30 8428 N 789.123 3.13659 6.1773 0
M  V30 8429 N 790.916 2.38829 5.08839 0
M  V30 8430 H 783.067 1.70243 1.27008 0
M  V30 8431 H 785.33 0.720802 0.61575 0
M  V30 8432 H 785.036 2.25179 2.70161 0
M  V30 8433 H 784.91 0.804144 3.68529 0
M  V30 8434 H 787.297 0.141112 2.94762 0
M  V30 8435 H 787.378 1.62003 1.97961 0
M  V30 8436 H 787.022 2.9998 4.09847 0
M  V30 8437 H 786.952 1.4949 5.04936 0
M  V30 8438 H 789.443 1.45362 3.48824 0
M  V30 8439 H 789.756 3.54006 6.8695 0
M  V30 8440 H 788.101 3.17749 6.1811 0
M  V30 8441 H 791.292 1.87806 4.28773 0
M  V30 8442 H 791.465 2.82929 5.82971 0
M  V30 8443 N 784.871 -1.49948 0.485112 0
M  V30 8444 C 786.282 -1.8667 0.0334041 0
M  V30 8445 C 786.633 -1.3988 -1.37579 0
M  V30 8446 O 785.758 -0.769788 -2.02245 0
M  V30 8447 C 786.353 -3.38757 0.0538426 0
M  V30 8448 C 784.912 -3.74839 -0.342453 0
M  V30 8449 C 784.059 -2.73894 0.433281 0
M  V30 8450 H 787.01 -1.42492 0.698699 0
M  V30 8451 H 787.031 -3.73132 -0.745146 0
M  V30 8452 H 786.543 -3.72782 1.07959 0
M  V30 8453 H 784.644 -3.46419 -1.37203 0
M  V30 8454 H 784.757 -4.79088 -0.0340503 0
M  V30 8455 H 783.121 -2.54441 -0.114849 0
M  V30 8456 H 783.904 -3.10763 1.45881 0
M  V30 8457 N 786.349 -0.21828 -1.56081 0
M  V30 8458 C 787.282 0.733096 -2.16104 0
M  V30 8459 C 788.26 1.19333 -1.10447 0
M  V30 8460 O 789.444 1.27666 -1.38685 0
M  V30 8461 C 786.571 1.99283 -2.73868 0
M  V30 8462 C 785.617 1.67285 -3.92324 0
M  V30 8463 S 786.45 0.800511 -5.29483 0
M  V30 8464 C 787.606 2.06988 -5.90683 0
M  V30 8465 H 787.839 0.222917 -2.96463 0
M  V30 8466 H 785.372 -0.00300946 -1.544 0
M  V30 8467 H 787.33 2.71618 -3.07789 0
M  V30 8468 H 785.991 2.47414 -1.93508 0
M  V30 8469 H 785.184 2.60874 -4.31232 0
M  V30 8470 H 784.786 1.03016 -3.59533 0
M  V30 8471 H 787.078 3.02019 -6.06457 0
M  V30 8472 H 788.021 1.72476 -6.86773 0
M  V30 8473 H 788.429 2.20893 -5.19487 0
M  V30 8474 N 787.827 1.57504 0.0551401 0
M  V30 8475 C 788.737 2.08198 1.08124 0
M  V30 8476 C 789.753 1.01496 1.41331 0
M  V30 8477 O 790.929 1.33073 1.51174 0
M  V30 8478 C 787.994 2.52968 2.37083 0
M  V30 8479 C 787.055 3.7404 2.10696 0
M  V30 8480 C 786.288 4.16665 3.33505 0
M  V30 8481 O 786.511 3.59019 4.4324 0
M  V30 8482 O 785.445 5.09324 3.20737 0
M  V30 8483 H 789.271 2.95977 0.680518 0
M  V30 8484 H 786.856 1.46933 0.270401 0
M  V30 8485 H 788.738 2.82211 3.12946 0
M  V30 8486 H 787.413 1.6831 2.76502 0
M  V30 8487 H 786.32 3.49855 1.32484 0
M  V30 8488 H 787.653 4.59601 1.76148 0
M  V30 8489 N 789.305 -0.326896 1.54172 0
M  V30 8490 C 790.53 -1.08924 1.76494 0
M  V30 8491 C 790.955 -1.81039 0.510523 0
M  V30 8492 O 790.313 -1.73141 -0.537756 0
M  V30 8493 C 790.361 -2.06558 2.95578 0
M  V30 8494 O 789.465 -3.14394 2.6689 0
M  V30 8495 H 788.806 -0.314216 0.584948 0
M  V30 8496 H 791.336 -0.372207 2.01186 0
M  V30 8497 H 791.346 -2.49487 3.22832 0
M  V30 8498 H 790.021 -1.53469 3.86549 0
M  V30 8499 H 788.598 -2.76164 2.50576 0
M  V30 8500 N 790.784 -1.46188 -0.588786 0
M  V30 8501 C 791.732 -1.56653 -1.71938 0
M  V30 8502 C 792.726 -0.435354 -1.6371 0
M  V30 8503 O 793.932 -0.611996 -1.69277 0
M  V30 8504 H 790.307 -0.492408 -0.568365 0
M  V30 8505 H 792.278 -2.51724 -1.60242 0
M  V30 8506 C 791.027 -1.56822 -3.10326 0
M  V30 8507 H 790.35 -2.43198 -3.17325 0
M  V30 8508 H 791.79 -1.68199 -3.89211 0
M  V30 8509 C 790.249 -0.295802 -3.35599 0
M  V30 8510 O 790.779 0.616515 -3.96941 0
M  V30 8511 N 788.985 -0.185609 -2.90007 0
M  V30 8512 H 788.532 -0.928914 -2.40269 0
M  V30 8513 H 788.49 0.664883 -3.07289 0
M  V30 8514 N 792.262 0.832906 -1.33792 0
M  V30 8515 C 793.673 1.40489 -1.22963 0
M  V30 8516 C 794.024 1.95633 0.149026 0
M  V30 8517 O 793.149 1.8928 1.04891 0
M  V30 8518 C 793.744 2.55387 -2.22627 0
M  V30 8519 C 792.303 3.08522 -2.15618 0
M  V30 8520 C 791.45 1.81347 -2.09782 0
M  V30 8521 H 794.401 0.638156 -1.45304 0
M  V30 8522 H 794.422 3.33193 -1.83746 0
M  V30 8523 H 793.934 2.15222 -3.22957 0
M  V30 8524 H 792.035 3.53217 -1.18611 0
M  V30 8525 H 792.148 3.6829 -3.0643 0
M  V30 8526 H 790.512 2.01839 -1.55349 0
M  V30 8527 H 791.295 1.43369 -3.1193 0
M  V30 8528 N 793.74 1.17359 1.05189 0
M  V30 8529 C 795.017 0.871914 1.75091 0
M  V30 8530 C 795.397 -0.627821 2.01548 0
M  V30 8531 O 794.745 -1.5791 1.65156 0
M  V30 8532 C 794.955 1.70687 3.04413 0
M  V30 8533 C 796.303 1.92684 3.78362 0
M  V30 8534 O 797.327 1.67645 3.14282 0
M  V30 8535 O 796.186 2.34765 4.93505 0
M  V30 8536 H 793.28 0.322831 0.761386 0
M  V30 8537 H 795.826 1.28054 1.11357 0
M  V30 8538 H 794.598 2.72405 2.80911 0
M  V30 8539 H 794.221 1.29602 3.75884 0
M  V30 8540 N 795.218 -1.23913 0.973828 0
M  V30 8541 C 796.446 -1.96195 0.656891 0
M  V30 8542 C 796.861 -1.72166 -0.774876 0
M  V30 8543 O 796.218 -1.0091 -1.52064 0
M  V30 8544 C 796.269 -3.49342 0.929638 0
M  V30 8545 O 795.99 -3.72553 2.30512 0
M  V30 8546 C 797.491 -4.38833 0.627739 0
M  V30 8547 H 794.711 -0.624841 0.244572 0
M  V30 8548 H 797.255 -1.57579 1.30343 0
M  V30 8549 H 795.41 -3.85999 0.329216 0
M  V30 8550 H 795.824 -4.66893 2.3898 0
M  V30 8551 H 797.298 -5.45117 0.868991 0
M  V30 8552 H 797.775 -4.37009 -0.438104 0
M  V30 8553 H 798.381 -4.07773 1.20834 0
M  V30 8554 N 796.696 -0.74468 -1.38897 0
M  V30 8555 C 797.606 -0.112892 -2.34328 0
M  V30 8556 C 798.622 0.71087 -1.58816 0
M  V30 8557 O 799.798 0.637092 -1.91058 0
M  V30 8558 C 796.863 0.776417 -3.37894 0
M  V30 8559 C 795.924 -0.0606999 -4.29257 0
M  V30 8560 C 795.157 0.786258 -5.27877 0
M  V30 8561 O 795.38 2.02463 -5.33259 0
M  V30 8562 O 794.314 0.209781 -6.01534 0
M  V30 8563 H 798.14 -0.900801 -2.90033 0
M  V30 8564 H 795.725 -0.505462 -1.4059 0
M  V30 8565 H 797.607 1.28496 -4.01331 0
M  V30 8566 H 796.282 1.54297 -2.84559 0
M  V30 8567 H 795.189 -0.614984 -3.69011 0
M  V30 8568 H 796.522 -0.789702 -4.85824 0
M  V30 8569 N 798.174 1.49689 -0.493057 0
M  V30 8570 C 799.422 2.02027 0.0541642 0
M  V30 8571 C 799.743 1.37554 1.38217 0
M  V30 8572 O 799.013 0.528174 1.88646 0
M  V30 8573 H 797.593 0.746646 0.0230069 0
M  V30 8574 H 800.255 1.83795 -0.648489 0
M  V30 8575 H 799.351 3.11523 0.189652 0
M  V30 8576 N 799.652 0.226554 1.55963 0
M  V30 8577 C 800.892 -0.405574 2.00336 0
M  V30 8578 C 801.256 -1.56593 1.11097 0
M  V30 8579 O 802.457 -2.26441 1.44838 0
M  V30 8580 C 800.728 -0.82435 3.47763 0
M  V30 8581 S 802.287 -1.44988 4.14154 0
M  V30 8582 H 799.105 -0.128512 0.699289 0
M  V30 8583 H 801.707 0.337017 1.92573 0
M  V30 8584 H 800.411 0.0297636 4.10389 0
M  V30 8585 H 799.942 -1.59963 3.5941 0
M  V30 8586 H 801.957 -2.73897 4.13757 0
M  V30 8587 N 801.13 -1.57531 -0.0467866 0
M  V30 8588 C 802.062 -2.02156 -1.08007 0
M  V30 8589 C 803.075 -0.931434 -1.33522 0
M  V30 8590 O 804.264 -1.209 -1.31321 0
M  V30 8591 C 801.364 -2.36675 -2.42566 0
M  V30 8592 C 800.537 -3.67848 -2.36658 0
M  V30 8593 C 799.596 -3.89754 -3.53523 0
M  V30 8594 O 798.622 -4.61036 -3.33818 0
M  V30 8595 N 799.824 -3.34025 -4.74771 0
M  V30 8596 H 802.589 -2.91414 -0.699845 0
M  V30 8597 H 800.15 -1.60185 -0.235041 0
M  V30 8598 H 802.142 -2.48482 -3.19435 0
M  V30 8599 H 800.712 -1.53178 -2.72498 0
M  V30 8600 H 799.932 -3.66561 -1.45005 0
M  V30 8601 H 801.22 -4.53931 -2.29835 0
M  V30 8602 H 800.618 -2.76214 -4.93683 0
M  V30 8603 H 799.175 -3.51241 -5.49066 0
M  V30 8604 N 802.608 0.318715 -1.54344 0
M  V30 8605 C 803.856 1.054 -1.72439 0
M  V30 8606 C 804.177 1.88388 -0.503495 0
M  V30 8607 O 803.447 1.89866 0.48246 0
M  V30 8608 H 802.027 0.392124 -0.635805 0
M  V30 8609 H 804.689 0.35398 -1.91659 0
M  V30 8610 H 803.785 1.71726 -2.60608 0
M  V30 8611 N 804.086 1.46499 0.581025 0
M  V30 8612 C 804.996 1.59778 1.71779 0
M  V30 8613 C 806.012 0.481223 1.67213 0
M  V30 8614 O 807.188 0.74557 1.87091 0
M  V30 8615 C 804.253 1.58626 3.08283 0
M  V30 8616 C 803.314 2.81527 3.241 0
M  V30 8617 C 802.547 2.80421 4.54092 0
M  V30 8618 O 802.77 1.89262 5.38085 0
M  V30 8619 O 801.704 3.71984 4.73193 0
M  V30 8620 H 805.53 2.55918 1.63523 0
M  V30 8621 H 803.115 1.29311 0.748267 0
M  V30 8622 H 804.997 1.60686 3.89561 0
M  V30 8623 H 803.672 0.656467 3.16973 0
M  V30 8624 H 802.579 2.85021 2.42309 0
M  V30 8625 H 803.912 3.73721 3.20302 0
M  V30 8626 N 805.565 -0.825799 1.34232 0
M  V30 8627 C 806.793 -1.61363 1.29497 0
M  V30 8628 C 807.208 -1.88341 -0.131536 0
M  V30 8629 O 806.565 -1.47279 -1.07773 0
M  V30 8630 C 806.616 -2.95623 2.08061 0
M  V30 8631 O 806.337 -2.69824 3.45147 0
M  V30 8632 C 807.838 -3.90032 2.10688 0
M  V30 8633 H 805.058 -0.501676 0.445603 0
M  V30 8634 H 807.602 -1.02767 1.76803 0
M  V30 8635 H 805.757 -3.50785 1.64404 0
M  V30 8636 H 806.171 -3.55412 3.85723 0
M  V30 8637 H 807.645 -4.81411 2.70087 0
M  V30 8638 H 808.122 -4.25188 1.10052 0
M  V30 8639 H 808.728 -3.40807 2.54422 0
M  V30 8640 N 807.043 -1.17915 -1.04565 0
M  V30 8641 C 807.953 -0.916449 -2.15959 0
M  V30 8642 C 808.969 0.117655 -1.73602 0
M  V30 8643 O 810.145 -0.063089 -2.01301 0
M  V30 8644 C 807.21 -0.440262 -3.43893 0
M  V30 8645 C 806.271 -1.54172 -4.00661 0
M  V30 8646 C 805.504 -1.08816 -5.22489 0
M  V30 8647 O 805.727 0.0551547 -5.70373 0
M  V30 8648 O 804.661 -1.88383 -5.7166 0
M  V30 8649 H 808.487 -1.8484 -2.40972 0
M  V30 8650 H 806.072 -0.960552 -1.14428 0
M  V30 8651 H 807.954 -0.182537 -4.21004 0
M  V30 8652 H 806.629 0.46346 -3.20365 0
M  V30 8653 H 805.536 -1.85341 -3.24961 0
M  V30 8654 H 806.869 -2.42139 -4.2852 0
M  V30 8655 N 808.521 1.23394 -0.980386 0
M  V30 8656 C 809.798 1.87242 -0.565667 0
M  V30 8657 C 810.178 1.88151 0.957197 0
M  V30 8658 O 809.526 1.36309 1.8339 0
M  V30 8659 C 809.736 3.28743 -1.17172 0
M  V30 8660 C 811.084 4.05335 -1.26446 0
M  V30 8661 O 812.108 3.37962 -1.12517 0
M  V30 8662 O 810.967 5.25908 -1.48604 0
M  V30 8663 H 808.061 0.80477 -0.190459 0
M  V30 8664 H 810.607 1.3127 -1.07547 0
M  V30 8665 H 809.379 3.22647 -2.21392 0
M  V30 8666 H 809.002 3.92305 -0.646739 0
M  V30 8667 N 809.999 0.752036 1.385 0
M  V30 8668 C 811.245 0.307958 2.00448 0
M  V30 8669 C 811.578 -1.10702 1.59558 0
M  V30 8670 O 810.853 -1.75788 0.832391 0
M  V30 8671 C 811.136 0.429092 3.57534 0
M  V30 8672 C 810.989 1.88507 4.08393 0
M  V30 8673 C 812.308 -0.178442 4.39738 0
M  V30 8674 H 809.427 0.113373 0.728228 0
M  V30 8675 H 812.069 0.951389 1.64465 0
M  V30 8676 H 810.219 -0.118695 3.88319 0
M  V30 8677 H 811.891 2.49104 3.88259 0
M  V30 8678 H 810.134 2.40066 3.61318 0
M  V30 8679 H 810.805 1.92099 5.17496 0
M  V30 8680 H 813.281 0.28872 4.15097 0
M  V30 8681 H 812.157 -0.0634349 5.48863 0
M  V30 8682 H 812.418 -1.26655 4.23569 0
M  V30 8683 N 811.477 -1.49425 0.500989 0
M  V30 8684 C 812.407 -2.31971 -0.266775 0
M  V30 8685 C 813.388 -1.40245 -0.962563 0
M  V30 8686 O 814.573 -1.69154 -0.953968 0
M  V30 8687 C 811.703 -3.20757 -1.33163 0
M  V30 8688 C 810.657 -4.21275 -0.75572 0
M  V30 8689 C 809.983 -4.98997 -1.92109 0
M  V30 8690 C 811.283 -5.21686 0.253213 0
M  V30 8691 H 812.977 -2.96408 0.422237 0
M  V30 8692 H 810.523 -1.4254 0.204505 0
M  V30 8693 H 812.476 -3.77315 -1.87646 0
M  V30 8694 H 811.2 -2.54263 -2.04983 0
M  V30 8695 H 809.859 -3.65861 -0.232637 0
M  V30 8696 H 809.507 -4.28951 -2.62698 0
M  V30 8697 H 809.207 -5.67011 -1.54182 0
M  V30 8698 H 810.731 -5.584 -2.47026 0
M  V30 8699 H 812.145 -5.72939 -0.203483 0
M  V30 8700 H 810.542 -5.9759 0.548322 0
M  V30 8701 H 811.612 -4.70596 1.16909 0
M  V30 8702 O 812.994 -0.376506 -1.5705 0
M  V30 8703 H 813.685 0.171595 -1.92938 0
M  V30 END ATOM
M  V30 BEGIN BOND
M  V30 END BOND
M  V30 END CTAB
M  END
$$$$
