drugbank_target|P49146 Neuropeptide Y receptor type 2 (DB00847; DB05004; DB05045)
 OpenBabel12092120143D

  0  0  0     0  0            999 V3000
M  V30 BEGIN CTAB
M  V30 COUNTS 6108 6177 0 0 0
M  V30 BEGIN ATOM
M  V30 1 H -0.908 1.98254 -0.117106 0
M  V30 2 N 0 1.576 0 0
M  V30 3 C 0.933 2.03868 1.02534 0
M  V30 4 C 1.911 0.928543 1.3348 0
M  V30 5 O 3.095 1.19667 1.45644 0
M  V30 6 C 0.222 2.43627 2.35294 0
M  V30 7 C -0.732 3.65373 2.2001 0
M  V30 8 S 0.101 5.13292 1.52614 0
M  V30 9 C 1.257 5.56322 2.86805 0
M  V30 10 H 1.49 2.90518 0.631377 0
M  V30 11 H -0.977 1.52953 0.210867 0
M  V30 12 H 0.981 2.67203 3.11629 0
M  V30 13 H -0.358 1.57376 2.7183 0
M  V30 14 H -1.165 3.90944 3.18086 0
M  V30 15 H -1.563 3.418 1.51819 0
M  V30 16 H 0.729 5.58782 3.83104 0
M  V30 17 H 1.672 6.56266 2.65933 0
M  V30 18 H 2.08 4.83886 2.90714 0
M  V30 19 N 1.4781 -0.272755 1.55222 0
M  V30 20 C 2.7261 -1.00234 1.75492 0
M  V30 21 C 3.0471 -1.8681 0.5592 0
M  V30 22 O 2.3171 -1.91215 -0.425882 0
M  V30 23 H 0.8971 -0.373076 0.647166 0
M  V30 24 H 3.5591 -0.296926 1.92625 0
M  V30 25 H 2.6551 -1.63913 2.65592 0
M  V30 26 N 2.9562 -1.48159 -0.537278 0
M  V30 27 C 4.3672 -1.49429 -1.11928 0
M  V30 28 C 4.7182 -0.26 -1.9447 0
M  V30 29 O 3.8432 0.633489 -2.0692 0
M  V30 30 C 4.4382 -2.70758 -2.03656 0
M  V30 31 C 2.9972 -2.74923 -2.57088 0
M  V30 32 C 2.1442 -2.42835 -1.3389 0
M  V30 33 H 5.0952 -1.55381 -0.322886 0
M  V30 34 H 5.1162 -2.48861 -2.87834 0
M  V30 35 H 4.6282 -3.60575 -1.43553 0
M  V30 36 H 2.7292 -1.89296 -3.20933 0
M  V30 37 H 2.8422 -3.76157 -2.9672 0
M  V30 38 H 1.2062 -1.93836 -1.65226 0
M  V30 39 H 1.9892 -3.34884 -0.755504 0
M  V30 40 N 4.4343 0.785586 -1.36625 0
M  V30 41 C 5.6833 1.53883 -1.30396 0
M  V30 42 C 5.9963 1.95271 0.113452 0
M  V30 43 O 7.2023 2.69858 0.298142 0
M  V30 44 C 5.6583 2.77808 -2.28802 0
M  V30 45 C 5.2663 2.43574 -3.75999 0
M  V30 46 C 7.0103 3.55783 -2.31558 0
M  V30 47 C 4.9173 3.63919 -4.66173 0
M  V30 48 H 3.8473 0.577678 -0.484566 0
M  V30 49 H 6.4983 0.861705 -1.62009 0
M  V30 50 H 4.8803 3.47339 -1.90188 0
M  V30 51 H 6.0543 1.81916 -4.23371 0
M  V30 52 H 4.3693 1.78803 -3.76056 0
M  V30 53 H 6.9663 4.45205 -2.96137 0
M  V30 54 H 7.3093 3.94644 -1.3252 0
M  V30 55 H 7.8423 2.93235 -2.68809 0
M  V30 56 H 4.5813 3.3015 -5.66287 0
M  V30 57 H 4.1013 4.2473 -4.23515 0
M  V30 58 H 5.7803 4.30901 -4.82632 0
M  V30 59 N 5.9124 1.20967 1.01018 0
M  V30 60 C 7.1604 1.02172 1.74371 0
M  V30 61 C 7.4814 -0.446414 1.89821 0
M  V30 62 O 6.7514 -1.32234 1.44537 0
M  V30 63 H 5.3314 0.375066 0.646014 0
M  V30 64 H 7.9934 1.52187 1.21758 0
M  V30 65 H 7.0894 1.48538 2.74487 0
M  V30 66 N 7.3905 -1.2043 1.01659 0
M  V30 67 C 8.3535 -2.21433 0.591616 0
M  V30 68 C 9.3535 -1.57203 -0.338226 0
M  V30 69 O 10.5435 -1.73737 -0.126918 0
M  V30 70 C 7.6755 -3.40628 -0.136058 0
M  V30 71 H 8.8685 -2.60545 1.48514 0
M  V30 72 H 6.4215 -1.33893 0.806379 0
M  V30 73 H 7.1565 -3.07019 -1.04449 0
M  V30 74 H 6.9415 -3.88475 0.531917 0
M  V30 75 H 8.4315 -4.15475 -0.420735 0
M  V30 76 N 8.8686 -0.792821 -1.36206 0
M  V30 77 C 9.7786 -0.194808 -2.3379 0
M  V30 78 C 10.7946 0.654869 -1.61206 0
M  V30 79 O 11.9706 0.569856 -1.9317 0
M  V30 80 C 9.0356 0.657721 -3.40404 0
M  V30 81 C 8.0966 -0.210849 -4.28782 0
M  V30 82 C 7.3296 0.601086 -5.30304 0
M  V30 83 O 7.5526 1.83682 -5.40016 0
M  V30 84 O 6.4866 -0.000808277 -6.019 0
M  V30 85 H 10.3126 -1.00172 -2.86704 0
M  V30 86 H 7.8976 -0.554341 -1.38735 0
M  V30 87 H 9.7796 1.14375 -4.05581 0
M  V30 88 H 8.4546 1.44247 -2.89784 0
M  V30 89 H 7.3616 -0.743714 -3.66633 0
M  V30 90 H 8.6946 -0.959195 -4.82763 0
M  V30 91 N 10.3467 1.47872 -0.545128 0
M  V30 92 C 11.3097 2.28337 0.198717 0
M  V30 93 C 12.3097 1.36255 0.853888 0
M  V30 94 O 13.4997 1.59003 0.711606 0
M  V30 95 C 10.6317 3.15585 1.28915 0
M  V30 96 H 11.8247 2.95567 -0.507941 0
M  V30 97 H 9.3777 1.53362 -0.301616 0
M  V30 98 H 10.1127 2.53019 2.02859 0
M  V30 99 H 9.8977 3.83337 0.824309 0
M  V30 100 H 11.3877 3.76243 1.81194 0
M  V30 101 N 11.8248 0.280983 1.55075 0
M  V30 102 C 13.1018 -0.386207 1.91749 0
M  V30 103 C 13.4818 -1.73264 1.20594 0
M  V30 104 O 12.8298 -2.26034 0.334784 0
M  V30 105 C 13.0398 -0.520687 3.45094 0
M  V30 106 C 14.3878 -0.800865 4.16979 0
M  V30 107 O 15.4118 -0.605271 3.5102 0
M  V30 108 O 14.2708 -1.1753 5.33712 0
M  V30 109 H 11.3648 -0.212408 0.799257 0
M  V30 110 H 13.9108 0.327568 1.66509 0
M  V30 111 H 12.6828 0.426633 3.88967 0
M  V30 112 H 12.3058 -1.2837 3.76307 0
M  V30 113 N 13.3029 -1.57598 0.00835791 0
M  V30 114 C 14.2129 -2.12385 -0.996487 0
M  V30 115 C 15.2289 -1.07108 -1.37127 0
M  V30 116 O 16.4049 -1.39055 -1.4569 0
M  V30 117 C 13.4699 -2.62314 -2.26699 0
M  V30 118 C 12.5309 -3.82225 -1.95456 0
M  V30 119 C 11.7639 -4.29763 -3.16449 0
M  V30 120 O 11.9869 -3.76584 -4.28416 0
M  V30 121 O 10.9209 -5.21832 -2.99958 0
M  V30 122 H 14.7469 -2.98479 -0.560725 0
M  V30 123 H 12.3319 -1.47903 -0.210987 0
M  V30 124 H 14.2139 -2.94589 -3.01322 0
M  V30 125 H 12.8889 -1.79313 -2.69497 0
M  V30 126 H 11.7959 -3.54909 -1.18282 0
M  V30 127 H 13.1289 -4.66324 -1.57489 0
M  V30 128 N 14.781 0.264519 -1.55364 0
M  V30 129 C 15.729 1.34702 -1.89626 0
M  V30 130 C 16.723 1.50712 -0.773459 0
M  V30 131 O 17.929 1.52395 -0.957897 0
M  V30 132 H 14.304 0.450682 -0.601988 0
M  V30 133 H 16.275 1.0306 -2.80038 0
M  V30 134 C 15.024 2.6989 -2.19214 0
M  V30 135 H 14.347 2.58365 -3.05103 0
M  V30 136 H 15.787 3.44553 -2.47102 0
M  V30 137 C 14.246 3.21637 -1.00254 0
M  V30 138 O 14.776 4.00973 -0.241501 0
M  V30 139 N 12.982 2.7943 -0.797938 0
M  V30 140 H 12.529 2.15026 -1.4185 0
M  V30 141 H 12.487 3.144 -0.00363422 0
M  V30 142 N 16.2591 1.48442 0.529413 0
M  V30 143 C 17.1911 1.59095 1.64989 0
M  V30 144 C 18.2041 0.475212 1.5571 0
M  V30 145 O 19.3931 0.746081 1.6216 0
M  V30 146 C 16.4931 1.50518 3.0364 0
M  V30 147 C 15.6661 2.77142 3.38395 0
M  V30 148 C 14.7251 2.62012 4.56329 0
M  V30 149 O 13.7511 3.35898 4.59522 0
M  V30 150 N 14.9531 1.71667 5.54536 0
M  V30 151 H 17.7181 2.55723 1.56287 0
M  V30 152 H 15.2791 1.45173 0.716697 0
M  V30 153 H 17.2711 1.38091 3.80412 0
M  V30 154 H 15.8411 0.618627 3.06418 0
M  V30 155 H 15.0611 3.0413 2.50796 0
M  V30 156 H 16.3491 3.61146 3.58401 0
M  V30 157 H 15.7471 1.10841 5.54735 0
M  V30 158 H 14.3041 1.65178 6.30523 0
M  V30 159 N 17.7372 -0.778329 1.37039 0
M  V30 160 C 18.9652 -1.56734 1.35063 0
M  V30 161 C 19.3802 -1.88686 -0.0655597 0
M  V30 162 O 18.7372 -1.5096 -1.02554 0
M  V30 163 C 18.7882 -2.88163 2.18276 0
M  V30 164 O 18.5092 -2.57583 3.54376 0
M  V30 165 C 20.0102 -3.82422 2.24206 0
M  V30 166 H 17.2302 -0.485778 0.462883 0
M  V30 167 H 19.7742 -0.965185 1.8029 0
M  V30 168 H 17.9292 -3.44818 1.76576 0
M  V30 169 H 18.3432 -3.41699 3.97922 0
M  V30 170 H 19.8172 -4.71667 2.86765 0
M  V30 171 H 20.2942 -4.21078 1.24861 0
M  V30 172 H 20.9002 -3.31697 2.6619 0
M  V30 173 N 19.2153 -1.21501 -1.00376 0
M  V30 174 C 20.4613 -1.03452 -1.74429 0
M  V30 175 C 20.7943 0.430764 -1.89362 0
M  V30 176 O 20.0693 1.31962 -1.42886 0
M  V30 177 C 20.3523 -1.73375 -3.15615 0
M  V30 178 C 20.2053 -3.27431 -3.08397 0
M  V30 179 C 21.5243 -1.47732 -4.14564 0
M  V30 180 H 18.6433 -0.377226 -0.633143 0
M  V30 181 H 21.2853 -1.49693 -1.17013 0
M  V30 182 H 19.4353 -1.34064 -3.64636 0
M  V30 183 H 21.1073 -3.76119 -2.67081 0
M  V30 184 H 19.3503 -3.5767 -2.45468 0
M  V30 185 H 20.0213 -3.71524 -4.08258 0
M  V30 186 H 22.4973 -1.8186 -3.74254 0
M  V30 187 H 21.3733 -1.99169 -5.11491 0
M  V30 188 H 21.6343 -0.407589 -4.40217 0
M  V30 189 N 20.6934 1.19889 -1.02296 0
M  V30 190 C 21.6034 2.26571 -0.608508 0
M  V30 191 C 22.6194 1.70299 0.356964 0
M  V30 192 O 23.7954 2.00235 0.216326 0
M  V30 193 C 20.8604 3.46677 0.0402814 0
M  V30 194 C 19.9214 4.18153 -0.97194 0
M  V30 195 C 19.1544 5.32525 -0.354016 0
M  V30 196 O 19.3774 5.64112 0.844604 0
M  V30 197 O 18.3114 5.92242 -1.07391 0
M  V30 198 H 22.1374 2.64251 -1.49684 0
M  V30 199 H 19.7224 1.26629 -0.792809 0
M  V30 200 H 21.6044 4.19475 0.402324 0
M  V30 201 H 20.2794 3.10858 0.902707 0
M  V30 202 H 19.1864 3.47499 -1.38546 0
M  V30 203 H 20.5194 4.57927 -1.80454 0
M  V30 204 N 22.1715 0.800033 1.35784 0
M  V30 205 C 23.0815 0.207204 2.33683 0
M  V30 206 C 24.0975 -0.64631 1.61551 0
M  V30 207 O 25.2735 -0.559604 1.93469 0
M  V30 208 C 22.3385 -0.639659 3.40748 0
M  V30 209 C 21.3995 0.233585 4.28664 0
M  V30 210 C 20.6325 -0.572954 5.30616 0
M  V30 211 O 20.8555 -1.80816 5.40982 0
M  V30 212 O 19.7895 0.0327285 6.01891 0
M  V30 213 H 23.6155 1.01692 2.86169 0
M  V30 214 H 21.2005 0.561691 1.38439 0
M  V30 215 H 23.0825 -1.12223 4.06182 0
M  V30 216 H 21.7575 -1.42708 2.90544 0
M  V30 217 H 20.6645 0.763147 3.66233 0
M  V30 218 H 21.9975 0.984784 4.82248 0
M  V30 219 N 23.6496 -1.47581 0.552962 0
M  V30 220 C 24.5826 -2.26883 -0.244857 0
M  V30 221 C 25.5606 -1.33784 -0.924147 0
M  V30 222 O 26.7446 -1.6316 -0.943981 0
M  V30 223 C 23.8716 -3.10695 -1.34856 0
M  V30 224 C 22.9176 -4.19339 -0.778268 0
M  V30 225 S 23.7506 -5.34207 0.37184 0
M  V30 226 C 24.9066 -6.21584 -0.733779 0
M  V30 227 H 25.1396 -2.94202 0.428087 0
M  V30 228 H 22.6726 -1.50628 0.339197 0
M  V30 229 H 24.6306 -3.59555 -1.98066 0
M  V30 230 H 23.2916 -2.42746 -1.99332 0
M  V30 231 H 22.4846 -4.77695 -1.60696 0
M  V30 232 H 22.0866 -3.73338 -0.222422 0
M  V30 233 H 24.3786 -6.57676 -1.62692 0
M  V30 234 H 25.3216 -7.07851 -0.187668 0
M  V30 235 H 25.7296 -5.55125 -1.02454 0
M  V30 236 N 25.1277 -0.289203 -1.54924 0
M  V30 237 C 26.0747 0.592115 -2.23075 0
M  V30 238 C 27.0447 1.13881 -1.20915 0
M  V30 239 O 28.2297 1.18551 -1.495 0
M  V30 240 C 25.3697 1.76376 -2.96623 0
M  V30 241 C 24.4827 1.24959 -4.13533 0
M  V30 242 C 23.6177 2.38416 -4.74691 0
M  V30 243 C 22.6567 1.84072 -5.83767 0
M  V30 244 N 21.7937 2.91057 -6.38929 0
M  V30 245 H 26.6337 0.00432038 -2.98 0
M  V30 246 H 24.1707 -0.00963529 -1.47097 0
M  V30 247 H 26.1287 2.45268 -3.3749 0
M  V30 248 H 24.7587 2.32337 -2.24097 0
M  V30 249 H 23.8107 0.453307 -3.77689 0
M  V30 250 H 25.1227 0.811662 -4.92152 0
M  V30 251 H 24.2767 3.15276 -5.18349 0
M  V30 252 H 23.0157 2.8553 -3.95378 0
M  V30 253 H 22.0207 1.05697 -5.39545 0
M  V30 254 H 23.2457 1.37877 -6.64956 0
M  V30 255 H 21.1917 3.37526 -5.62505 0
M  V30 256 H 21.1087 2.51724 -7.12861 0
M  V30 257 H 22.3767 3.6785 -6.87246 0
M  V30 258 N 26.6058 1.57591 -0.0167156 0
M  V30 259 C 27.8518 1.91567 0.665582 0
M  V30 260 C 28.1848 0.892298 1.72487 0
M  V30 261 O 27.4598 -0.0867127 1.94307 0
M  V30 262 C 27.7428 3.36069 1.29342 0
M  V30 263 C 27.5958 4.49135 0.244541 0
M  V30 264 C 28.9148 3.803 2.21495 0
M  V30 265 H 26.0338 0.69666 0.240488 0
M  V30 266 H 28.6758 1.89866 -0.0714356 0
M  V30 267 H 26.8258 3.3765 1.92158 0
M  V30 268 H 28.4978 4.59689 -0.385228 0
M  V30 269 H 26.7408 4.3165 -0.431379 0
M  V30 270 H 27.4118 5.47242 0.723207 0
M  V30 271 H 29.8878 3.80377 1.68678 0
M  V30 272 H 28.7638 4.82127 2.62382 0
M  V30 273 H 29.0248 3.15104 3.101 0
M  V30 274 N 28.0839 -0.256276 1.55502 0
M  V30 275 C 28.9939 -1.33882 1.92647 0
M  V30 276 C 30.0099 -1.53159 0.825727 0
M  V30 277 O 31.1859 -1.66963 1.12629 0
M  V30 278 C 28.2509 -2.6751 2.20543 0
M  V30 279 C 27.3119 -2.56836 3.43997 0
M  V30 280 C 26.5449 -3.84092 3.70553 0
M  V30 281 O 26.7679 -4.85545 2.99336 0
M  V30 282 O 25.7019 -3.83288 4.64084 0
M  V30 283 H 29.5279 -1.05374 2.84833 0
M  V30 284 H 27.1129 -0.456237 1.42263 0
M  V30 285 H 28.9949 -3.46492 2.39835 0
M  V30 286 H 27.6699 -2.9577 1.31536 0
M  V30 287 H 26.5769 -1.76172 3.30021 0
M  V30 288 H 27.9099 -2.33523 4.33275 0
M  V30 289 N 29.562 -1.4872 -0.521534 0
M  V30 290 C 30.494 -1.59968 -1.64143 0
M  V30 291 C 31.507 -0.483463 -1.55456 0
M  V30 292 O 32.696 -0.75467 -1.61762 0
M  V30 293 C 29.796 -1.52127 -3.02838 0
M  V30 294 C 28.969 -2.78932 -3.36921 0
M  V30 295 C 28.028 -2.64428 -4.54933 0
M  V30 296 O 27.054 -3.38331 -4.57735 0
M  V30 297 N 28.256 -1.74606 -5.53618 0
M  V30 298 H 31.021 -2.56548 -1.54929 0
M  V30 299 H 28.582 -1.45551 -0.708988 0
M  V30 300 H 30.574 -1.40106 -3.79674 0
M  V30 301 H 29.144 -0.634868 -3.06085 0
M  V30 302 H 28.364 -3.05455 -2.4918 0
M  V30 303 H 29.652 -3.63041 -3.56481 0
M  V30 304 H 29.05 -1.13782 -5.54139 0
M  V30 305 H 27.607 -1.6852 -6.29638 0
M  V30 306 N 31.0401 0.771051 -1.3745 0
M  V30 307 C 32.2701 1.55789 -1.35696 0
M  V30 308 C 32.6781 1.89107 0.0594523 0
M  V30 309 O 32.0211 1.51984 1.03183 0
M  V30 310 C 32.0831 2.89515 -2.13123 0
M  V30 311 C 31.7471 2.78829 -3.62082 0
M  V30 312 C 32.7441 2.49812 -4.5595 0
M  V30 313 C 30.4291 2.9683 -4.05213 0
M  V30 314 C 32.4231 2.38923 -5.90927 0
M  V30 315 C 30.1101 2.85562 -5.40276 0
M  V30 316 C 31.1081 2.56649 -6.32946 0
M  V30 317 O 30.7961 2.45408 -7.65526 0
M  V30 318 H 30.5281 0.489257 -0.466481 0
M  V30 319 H 33.0821 0.963446 -1.81403 0
M  V30 320 H 31.3121 3.51081 -1.62107 0
M  V30 321 H 33.0011 3.50915 -2.03994 0
M  V30 322 H 33.7671 2.3559 -4.23937 0
M  V30 323 H 29.6461 3.18335 -3.33442 0
M  V30 324 H 33.1901 2.16277 -6.63227 0
M  V30 325 H 29.0871 2.99351 -5.71891 0
M  V30 326 H 29.8551 2.60753 -7.75855 0
M  V30 327 N 32.5182 1.22032 0.997298 0
M  V30 328 C 33.7662 1.04016 1.73278 0
M  V30 329 C 34.0872 -0.426255 1.90284 0
M  V30 330 O 33.3572 -1.30694 1.45931 0
M  V30 331 H 31.9372 0.381897 0.642 0
M  V30 332 H 34.5992 1.5347 1.20137 0
M  V30 333 H 33.6952 1.51441 2.72896 0
M  V30 334 N 33.9963 -1.19345 1.0293 0
M  V30 335 C 35.4073 -1.70725 0.755633 0
M  V30 336 C 35.7583 -1.82326 -0.724676 0
M  V30 337 O 34.8833 -1.49471 -1.56484 0
M  V30 338 C 35.4783 -3.10084 1.36503 0
M  V30 339 C 34.0373 -3.58723 1.13994 0
M  V30 340 C 33.1843 -2.35577 1.46283 0
M  V30 341 H 36.1353 -1.0418 1.19718 0
M  V30 342 H 36.1563 -3.72787 0.762217 0
M  V30 343 H 35.6683 -3.01609 2.44241 0
M  V30 344 H 33.7693 -3.72512 0.0807901 0
M  V30 345 H 33.8823 -4.42816 1.82894 0
M  V30 346 H 32.2463 -2.38935 0.88217 0
M  V30 347 H 33.0293 -2.29731 2.55105 0
M  V30 348 N 35.4744 -0.807222 -1.35358 0
M  V30 349 C 36.4064 -0.175717 -2.28525 0
M  V30 350 C 37.4194 0.625354 -1.5031 0
M  V30 351 O 38.6084 0.457611 -1.72535 0
M  V30 352 C 35.7084 0.773471 -3.29956 0
M  V30 353 C 34.8814 0.0186296 -4.37396 0
M  V30 354 C 33.9404 0.886395 -5.18681 0
M  V30 355 O 32.9664 0.337106 -5.68201 0
M  V30 356 N 34.1684 2.20839 -5.36852 0
M  V30 357 H 36.9334 -0.976091 -2.83359 0
M  V30 358 H 34.4944 -0.662737 -1.47714 0
M  V30 359 H 36.4864 1.35824 -3.81227 0
M  V30 360 H 35.0564 1.47465 -2.75632 0
M  V30 361 H 34.2764 -0.747349 -3.87051 0
M  V30 362 H 35.5644 -0.501577 -5.06322 0
M  V30 363 H 34.9624 2.67858 -4.98265 0
M  V30 364 H 33.5194 2.74237 -5.91301 0
M  V30 365 N 36.9525 1.47285 -0.560781 0
M  V30 366 C 38.1805 2.06855 -0.0430262 0
M  V30 367 C 38.5955 1.41291 1.25229 0
M  V30 368 O 37.9525 0.510648 1.7521 0
M  V30 369 C 38.0035 3.61178 0.152518 0
M  V30 370 O 37.7245 4.24285 -1.0915 0
M  V30 371 C 39.2255 4.37624 0.707145 0
M  V30 372 H 36.4455 0.669319 -0.0474652 0
M  V30 373 H 38.9895 1.89237 -0.77521 0
M  V30 374 H 37.1445 3.78298 0.834843 0
M  V30 375 H 37.5585 5.16868 -0.891482 0
M  V30 376 H 39.0325 5.46271 0.793244 0
M  V30 377 H 39.5095 4.04152 1.71923 0
M  V30 378 H 40.1155 4.25257 0.0604027 0
M  V30 379 N 38.4306 0.297415 1.54768 0
M  V30 380 C 39.6586 -0.315623 2.04478 0
M  V30 381 C 40.0736 -1.47792 1.17486 0
M  V30 382 O 39.4306 -1.81404 0.19971 0
M  V30 383 C 39.4816 -0.7753 3.53088 0
M  V30 384 O 39.2026 0.340732 4.36773 0
M  V30 385 C 40.7036 -1.45386 4.18781 0
M  V30 386 H 37.9236 -0.0690887 0.667434 0
M  V30 387 H 40.4676 0.436003 1.99798 0
M  V30 388 H 38.6226 -1.47696 3.58141 0
M  V30 389 H 39.0366 -0.0165035 5.24497 0
M  V30 390 H 40.5106 -1.72669 5.24299 0
M  V30 391 H 40.9876 -2.39275 3.68299 0
M  V30 392 H 41.5936 -0.795475 4.17795 0
M  V30 393 N 39.9087 -1.5758 0.0250728 0
M  V30 394 C 41.3197 -1.79476 -0.514323 0
M  V30 395 C 41.6707 -0.934956 -1.72491 0
M  V30 396 O 40.7957 -0.144245 -2.15919 0
M  V30 397 C 41.3907 -3.25503 -0.939842 0
M  V30 398 C 39.9497 -3.48408 -1.42438 0
M  V30 399 C 39.0967 -2.74583 -0.387201 0
M  V30 400 H 42.0477 -1.567 0.25113 0
M  V30 401 H 42.0687 -3.34992 -1.80445 0
M  V30 402 H 41.5807 -3.88056 -0.0585628 0
M  V30 403 H 39.6817 -2.91103 -2.32572 0
M  V30 404 H 39.7947 -4.57119 -1.43455 0
M  V30 405 H 38.1587 -2.39942 -0.854409 0
M  V30 406 H 38.9417 -3.39849 0.485543 0
M  V30 407 N 41.3868 0.248026 -1.55636 0
M  V30 408 C 42.8028 0.596483 -1.48035 0
M  V30 409 C 43.0028 1.88386 -0.715039 0
M  V30 410 O 42.0588 2.51319 -0.243944 0
M  V30 411 C 43.3718 0.700258 -2.92433 0
M  V30 412 C 44.9198 0.792659 -3.02797 0
M  V30 413 C 45.3948 0.928005 -4.485 0
M  V30 414 N 46.8858 0.992903 -4.52433 0
M  V30 415 C 47.6208 1.11687 -5.62418 0
M  V30 416 N 47.1168 1.20645 -6.82214 0
M  V30 417 N 48.9098 1.14994 -5.50212 0
M  V30 418 H 41.0608 -0.597109 -2.03834 0
M  V30 419 H 43.3238 -0.205925 -0.925364 0
M  V30 420 H 43.0298 -0.175658 -3.51261 0
M  V30 421 H 42.9038 1.57255 -3.42857 0
M  V30 422 H 45.2908 1.65903 -2.4405 0
M  V30 423 H 45.3718 -0.104762 -2.55585 0
M  V30 424 H 45.0158 0.0661971 -5.07857 0
M  V30 425 H 44.9458 1.84045 -4.93391 0
M  V30 426 H 47.4368 0.935064 -3.66149 0
M  V30 427 H 47.7498 1.30008 -7.61786 0
M  V30 428 H 46.0948 1.17605 -6.84977 0
M  V30 429 H 49.2858 1.07643 -4.55555 0
M  V30 430 H 49.4588 1.24311 -6.35965 0
M  V30 431 N 42.8649 1.48995 0.513639 0
M  V30 432 C 44.1129 1.57531 1.26604 0
M  V30 433 C 44.4339 0.258236 1.93283 0
M  V30 434 O 43.7039 -0.721502 1.8213 0
M  V30 435 H 42.2839 0.580387 0.470276 0
M  V30 436 H 44.9459 1.85552 0.596373 0
M  V30 437 H 44.0419 2.36486 2.03669 0
M  V30 438 N 44.343 -0.763751 1.37857 0
M  V30 439 C 45.253 -1.90817 1.36478 0
M  V30 440 C 46.269 -1.71997 0.263248 0
M  V30 441 O 47.445 -1.95095 0.499979 0
M  V30 442 C 44.51 -3.2605 1.17864 0
M  V30 443 C 43.571 -3.57467 2.3773 0
M  V30 444 C 42.804 -4.86249 2.19995 0
M  V30 445 O 43.027 -5.57884 1.18836 0
M  V30 446 O 41.961 -5.16911 3.08361 0
M  V30 447 H 45.787 -1.94933 2.32884 0
M  V30 448 H 43.372 -0.907619 1.1867 0
M  V30 449 H 45.254 -4.06924 1.09504 0
M  V30 450 H 43.929 -3.22769 0.245372 0
M  V30 451 H 42.836 -2.76796 2.51664 0
M  V30 452 H 44.169 -3.655 3.29652 0
M  V30 453 N 45.8211 -1.22559 -0.990812 0
M  V30 454 C 46.7511 -1.0218 -2.09956 0
M  V30 455 C 47.7321 0.0579394 -1.70001 0
M  V30 456 O 48.9171 -0.104684 -1.93918 0
M  V30 457 C 46.0471 -0.601023 -3.4206 0
M  V30 458 C 45.0011 -1.62694 -3.95872 0
M  V30 459 C 44.3271 -1.06193 -5.24049 0
M  V30 460 C 45.6271 -3.01743 -4.2632 0
M  V30 461 H 47.3211 -1.94916 -2.27262 0
M  V30 462 H 44.8671 -0.938566 -1.09211 0
M  V30 463 H 46.8201 -0.445561 -4.19038 0
M  V30 464 H 45.5441 0.362005 -3.24588 0
M  V30 465 H 44.2031 -1.77021 -3.21028 0
M  V30 466 H 43.8511 -0.0901903 -5.02919 0
M  V30 467 H 43.5511 -1.74732 -5.61019 0
M  V30 468 H 45.0751 -0.918092 -6.03658 0
M  V30 469 H 46.4891 -2.90777 -4.94087 0
M  V30 470 H 44.8861 -3.67425 -4.74467 0
M  V30 471 H 45.9561 -3.51518 -3.34011 0
M  V30 472 N 47.2992 1.18797 -1.03562 0
M  V30 473 C 48.5452 1.8893 -0.737113 0
M  V30 474 C 48.8782 1.79837 0.732956 0
M  V30 475 O 48.1532 1.19525 1.5344 0
M  V30 476 C 48.4362 3.39607 -1.19745 0
M  V30 477 C 48.2892 3.57537 -2.72924 0
M  V30 478 C 49.6082 4.33069 -0.783526 0
M  V30 479 H 46.7272 0.686057 -0.269249 0
M  V30 480 H 49.3692 1.39797 -1.28673 0
M  V30 481 H 47.5192 3.81583 -0.729855 0
M  V30 482 H 49.1912 3.24688 -3.27682 0
M  V30 483 H 47.4342 3.00363 -3.12993 0
M  V30 484 H 48.1052 4.63238 -3.00191 0
M  V30 485 H 50.5812 3.98846 -1.18581 0
M  V30 486 H 49.4572 5.3707 -1.13343 0
M  V30 487 H 49.7182 4.40986 0.313681 0
M  V30 488 N 48.7773 0.814389 1.34928 0
M  V30 489 C 50.1883 0.458364 1.80986 0
M  V30 490 C 50.5393 -1.02042 1.67577 0
M  V30 491 O 49.6643 -1.79352 1.21086 0
M  V30 492 C 50.2593 0.825212 3.28597 0
M  V30 493 C 48.8183 0.521677 3.72767 0
M  V30 494 C 47.9653 1.04668 2.56788 0
M  V30 495 H 50.9163 1.00533 1.22795 0
M  V30 496 H 50.9373 0.12571 3.80292 0
M  V30 497 H 50.4493 1.90154 3.38324 0
M  V30 498 H 48.5503 -0.545589 3.68584 0
M  V30 499 H 48.6633 1.05977 4.67232 0
M  V30 500 H 47.0273 0.468622 2.50352 0
M  V30 501 H 47.8103 2.12927 2.6929 0
M  V30 502 N 50.2554 -1.46986 0.568584 0
M  V30 503 C 51.5324 -1.95592 -0.0174074 0
M  V30 504 C 51.9124 -1.51124 -1.47393 0
M  V30 505 O 51.2604 -0.755329 -2.15655 0
M  V30 506 C 51.4704 -3.48719 0.139913 0
M  V30 507 C 52.8184 -4.246 0.000426376 0
M  V30 508 O 53.8424 -3.56135 0.0680316 0
M  V30 509 O 52.7014 -5.46302 -0.146988 0
M  V30 510 H 49.7954 -0.82498 -0.0577599 0
M  V30 511 H 52.3414 -1.57335 0.635909 0
M  V30 512 H 51.1134 -3.73927 1.15301 0
M  V30 513 H 50.7364 -3.93771 -0.550491 0
M  V30 514 N 51.7335 -0.305618 -1.54608 0
M  V30 515 C 53.1445 0.186098 -1.8577 0
M  V30 516 C 53.4955 1.53058 -1.22751 0
M  V30 517 O 52.6205 2.09888 -0.526893 0
M  V30 518 C 53.2155 0.344449 -3.37044 0
M  V30 519 C 51.7745 0.780384 -3.68221 0
M  V30 520 C 50.9215 -0.108554 -2.77087 0
M  V30 521 H 53.8725 -0.526485 -1.49712 0
M  V30 522 H 53.8935 1.17828 -3.61796 0
M  V30 523 H 53.4055 -0.634235 -3.82883 0
M  V30 524 H 51.5065 1.76945 -3.27904 0
M  V30 525 H 51.6195 0.596572 -4.75371 0
M  V30 526 H 49.9835 0.412931 -2.5133 0
M  V30 527 H 50.7665 -1.08368 -3.25747 0
M  V30 528 N 53.2116 1.57565 -0.0334293 0
M  V30 529 C 54.1216 2.13943 0.962572 0
M  V30 530 C 55.1376 1.09276 1.35406 0
M  V30 531 O 56.3136 1.41355 1.4346 0
M  V30 532 C 53.3786 2.65887 2.22497 0
M  V30 533 C 52.4396 3.85286 1.8935 0
M  V30 534 C 51.6726 4.34743 3.09571 0
M  V30 535 O 51.8956 3.83352 4.22371 0
M  V30 536 O 50.8296 5.26538 2.91618 0
M  V30 537 H 54.6556 2.99333 0.513169 0
M  V30 538 H 52.2406 1.4822 0.18743 0
M  V30 539 H 54.1226 2.99346 2.96598 0
M  V30 540 H 52.7976 1.83578 2.6661 0
M  V30 541 H 51.7046 3.56746 1.1262 0
M  V30 542 H 53.0376 4.68771 1.5005 0
M  V30 543 N 54.6897 -0.239769 1.55765 0
M  V30 544 C 56.1007 -0.808263 1.68297 0
M  V30 545 C 56.4517 -1.85736 0.632181 0
M  V30 546 O 55.5767 -2.15277 -0.220204 0
M  V30 547 C 56.1717 -1.47284 3.05111 0
M  V30 548 C 54.7307 -1.98895 3.19559 0
M  V30 549 C 53.8777 -0.842575 2.64189 0
M  V30 550 H 56.8287 -0.0154422 1.58692 0
M  V30 551 H 56.8497 -2.34111 2.99954 0
M  V30 552 H 56.3617 -0.709053 3.81568 0
M  V30 553 H 54.4627 -2.78132 2.47938 0
M  V30 554 H 54.5757 -2.18143 4.26556 0
M  V30 555 H 52.9397 -1.24501 2.22197 0
M  V30 556 H 53.7227 -0.0917552 3.43177 0
M  V30 557 N 56.1678 -1.49265 -0.50573 0
M  V30 558 C 57.0778 -1.68312 -1.63427 0
M  V30 559 C 58.0938 -0.565682 -1.64548 0
M  V30 560 O 59.2698 -0.839801 -1.83055 0
M  V30 561 C 56.3348 -1.74107 -2.99813 0
M  V30 562 C 55.3958 -2.97653 -3.09356 0
M  V30 563 C 54.6288 -3.03163 -4.39236 0
M  V30 564 O 54.8518 -2.16396 -5.27758 0
M  V30 565 O 53.7858 -3.9558 -4.53652 0
M  V30 566 H 57.6118 -2.63907 -1.50289 0
M  V30 567 H 55.1968 -1.32951 -0.681502 0
M  V30 568 H 57.0788 -1.803 -3.80881 0
M  V30 569 H 55.7538 -0.816901 -3.13223 0
M  V30 570 H 54.6608 -2.96981 -2.27493 0
M  V30 571 H 55.9938 -3.89535 -3.00871 0
M  V30 572 N 57.6459 0.756429 -1.3826 0
M  V30 573 C 58.5759 1.88374 -1.37976 0
M  V30 574 C 59.5569 1.68311 -0.246082 0
M  V30 575 O 60.7419 1.88944 -0.44874 0
M  V30 576 C 57.8719 3.25864 -1.20125 0
M  V30 577 C 56.8259 3.60523 -2.30666 0
M  V30 578 C 56.1519 4.9672 -1.97923 0
M  V30 579 C 57.4519 3.65692 -3.72916 0
M  V30 580 H 59.1459 1.88869 -2.32312 0
M  V30 581 H 56.6919 0.907272 -1.11824 0
M  V30 582 H 58.6449 4.0438 -1.18552 0
M  V30 583 H 57.3689 3.25841 -0.222498 0
M  V30 584 H 56.0279 2.84324 -2.3142 0
M  V30 585 H 55.6759 4.93253 -0.985393 0
M  V30 586 H 55.3759 5.20878 -2.71955 0
M  V30 587 H 56.8999 5.77618 -1.97964 0
M  V30 588 H 58.3139 4.34328 -3.74208 0
M  V30 589 H 56.7109 4.01358 -4.4613 0
M  V30 590 H 57.7809 2.65987 -4.05436 0
M  V30 591 N 59.124 1.23083 0.984299 0
M  V30 592 C 60.373 1.05466 1.71929 0
M  V30 593 C 60.686 -0.409211 1.91272 0
M  V30 594 O 61.892 -0.705226 2.62181 0
M  V30 595 C 60.348 1.83874 3.09384 0
M  V30 596 C 59.956 3.34566 2.97943 0
M  V30 597 C 61.7 1.74734 3.8687 0
M  V30 598 C 59.607 4.05381 4.30605 0
M  V30 599 H 58.537 0.391039 0.644674 0
M  V30 600 H 61.188 1.47013 1.09815 0
M  V30 601 H 59.57 1.35131 3.72231 0
M  V30 602 H 60.744 3.90767 2.44209 0
M  V30 603 H 59.059 3.44476 2.33934 0
M  V30 604 H 61.656 2.24957 4.85076 0
M  V30 605 H 61.999 0.709372 4.10212 0
M  V30 606 H 62.532 2.21067 3.30717 0
M  V30 607 H 59.271 5.09467 4.1246 0
M  V30 608 H 58.791 3.53967 4.84218 0
M  V30 609 H 60.47 4.11458 4.99311 0
M  V30 610 N 60.6021 -1.18246 1.0419 0
M  V30 611 C 61.8791 -1.84121 0.660208 0
M  V30 612 C 62.2591 -1.92778 -0.860221 0
M  V30 613 O 61.6071 -1.45464 -1.76217 0
M  V30 614 C 61.8171 -3.22355 1.33747 0
M  V30 615 C 63.1651 -3.98376 1.46906 0
M  V30 616 O 64.1891 -3.31799 1.29568 0
M  V30 617 O 63.0481 -5.17665 1.75171 0
M  V30 618 H 60.1421 -0.794036 0.231161 0
M  V30 619 H 62.6881 -1.25628 1.14087 0
M  V30 620 H 61.4601 -3.10964 2.37522 0
M  V30 621 H 61.0831 -3.88506 0.845515 0
M  V30 622 N 62.0802 -0.821533 -1.34494 0
M  V30 623 C 63.3052 -0.420873 -2.03085 0
M  V30 624 C 63.7302 0.964915 -1.61465 0
M  V30 625 O 63.0882 1.62763 -0.798607 0
M  V30 626 C 63.1362 -0.529414 -3.56693 0
M  V30 627 O 62.2402 0.451302 -4.09923 0
M  V30 628 H 61.5812 -0.173489 -0.640935 0
M  V30 629 H 64.1112 -1.11157 -1.71771 0
M  V30 630 H 64.1212 -0.404671 -4.05988 0
M  V30 631 H 62.7962 -1.54014 -3.86332 0
M  V30 632 H 61.3732 0.285558 -3.71805 0
M  V30 633 N 63.5583 1.46682 -0.576371 0
M  V30 634 C 64.7863 2.06798 -0.0649635 0
M  V30 635 C 65.2013 1.42612 1.23723 0
M  V30 636 O 64.5583 0.529203 1.74659 0
M  V30 637 C 64.6093 3.6132 0.114202 0
M  V30 638 O 64.3303 4.23104 -1.13644 0
M  V30 639 C 65.8313 4.38349 0.66069 0
M  V30 640 H 63.0513 0.668778 -0.0545616 0
M  V30 641 H 65.5953 1.88404 -0.795237 0
M  V30 642 H 63.7503 3.79162 0.794673 0
M  V30 643 H 64.1643 5.15894 -0.946253 0
M  V30 644 H 65.6383 5.47081 0.73526 0
M  V30 645 H 66.1153 4.05953 1.67627 0
M  V30 646 H 66.7213 4.25297 0.0152951 0
M  V30 647 N 65.0364 0.313813 1.54444 0
M  V30 648 C 65.9834 -0.55655 2.23989 0
M  V30 649 C 66.9534 -1.11943 1.22711 0
M  V30 650 O 68.1384 -1.16158 1.51367 0
M  V30 651 C 65.2784 -1.71635 2.99392 0
M  V30 652 C 64.3914 -1.18364 4.15468 0
M  V30 653 C 63.5264 -2.30834 4.78424 0
M  V30 654 C 62.5654 -1.74762 5.86622 0
M  V30 655 N 61.7024 -2.80855 6.43479 0
M  V30 656 H 66.5424 0.0430893 2.97969 0
M  V30 657 H 64.0794 0.0330359 1.47063 0
M  V30 658 H 66.0374 -2.39868 3.41349 0
M  V30 659 H 64.6674 -2.28742 2.27765 0
M  V30 660 H 63.7194 -0.393163 3.78363 0
M  V30 661 H 65.0314 -0.733262 4.93381 0
M  V30 662 H 64.1854 -3.0699 5.23299 0
M  V30 663 H 62.9244 -2.79204 3.99871 0
M  V30 664 H 61.9294 -0.970995 5.41158 0
M  V30 665 H 63.1544 -1.2728 6.67066 0
M  V30 666 H 61.1004 -3.28535 5.67804 0
M  V30 667 H 61.0174 -2.40351 7.16776 0
M  V30 668 H 62.2854 -3.5687 6.93011 0
M  V30 669 N 66.5145 -1.57545 0.0417849 0
M  V30 670 C 67.4445 -2.14009 -0.933929 0
M  V30 671 C 68.4255 -1.05938 -1.33083 0
M  V30 672 O 69.6105 -1.33833 -1.40721 0
M  V30 673 C 66.7405 -2.67747 -2.21199 0
M  V30 674 C 65.6945 -3.80718 -1.95544 0
M  V30 675 C 65.0205 -4.20935 -3.29724 0
M  V30 676 C 66.3205 -5.06258 -1.28452 0
M  V30 677 H 68.0145 -2.95788 -0.463645 0
M  V30 678 H 65.5605 -1.42285 -0.221573 0
M  V30 679 H 67.5135 -3.05886 -2.89848 0
M  V30 680 H 66.2375 -1.83147 -2.70416 0
M  V30 681 H 64.8965 -3.43037 -1.2931 0
M  V30 682 H 64.5445 -3.33298 -3.76724 0
M  V30 683 H 64.2445 -4.9707 -3.13361 0
M  V30 684 H 65.7685 -4.61666 -3.9962 0
M  V30 685 H 67.1825 -5.41903 -1.8712 0
M  V30 686 H 65.5795 -5.87475 -1.22445 0
M  V30 687 H 66.6495 -4.84207 -0.259219 0
M  V30 688 N 67.9926 0.231505 -1.5589 0
M  V30 689 C 69.2416 0.955346 -1.7764 0
M  V30 690 C 69.5546 1.85893 -0.608546 0
M  V30 691 O 70.7606 2.62067 -0.70943 0
M  V30 692 C 69.2166 1.74886 -3.14552 0
M  V30 693 C 68.8246 0.891915 -4.39032 0
M  V30 694 C 70.5686 2.46452 -3.45633 0
M  V30 695 C 68.4756 1.68221 -5.66971 0
M  V30 696 H 67.4056 0.360446 -0.662265 0
M  V30 697 H 70.0566 0.209516 -1.823 0
M  V30 698 H 68.4386 2.53723 -3.04041 0
M  V30 699 H 69.6126 0.144793 -4.60572 0
M  V30 700 H 67.9276 0.288863 -4.15397 0
M  V30 701 H 70.5246 3.06061 -4.38441 0
M  V30 702 H 70.8676 3.18841 -2.67668 0
M  V30 703 H 71.4006 1.74613 -3.57428 0
M  V30 704 H 68.1396 1.00178 -6.478 0
M  V30 705 H 67.6596 2.4042 -5.49507 0
M  V30 706 H 69.3386 2.24544 -6.06786 0
M  V30 707 N 69.4707 1.49531 0.497807 0
M  V30 708 C 70.3807 1.69176 1.62532 0
M  V30 709 C 71.3967 0.5744 1.64246 0
M  V30 710 O 72.5727 0.849497 1.82608 0
M  V30 711 C 69.6377 1.75695 2.98885 0
M  V30 712 C 68.6987 2.9929 3.07773 0
M  V30 713 C 67.9317 3.05488 4.37622 0
M  V30 714 O 68.1547 2.19192 5.26603 0
M  V30 715 O 67.0887 3.9798 4.51548 0
M  V30 716 H 70.9147 2.647 1.48887 0
M  V30 717 H 68.4997 1.3331 0.674441 0
M  V30 718 H 70.3817 1.82317 3.79919 0
M  V30 719 H 69.0567 0.8335 3.12785 0
M  V30 720 H 67.9637 2.98183 2.25915 0
M  V30 721 H 69.2967 3.91125 2.98801 0
M  V30 722 N 70.9488 -0.749086 1.3866 0
M  V30 723 C 72.1948 -1.51056 1.35314 0
M  V30 724 C 72.5278 -1.94121 -0.0553751 0
M  V30 725 O 71.8028 -1.65763 -1.01749 0
M  V30 726 C 72.0858 -2.76003 2.31288 0
M  V30 727 C 71.9388 -2.39047 3.8102 0
M  V30 728 C 73.2578 -3.78046 2.2532 0
M  V30 729 H 70.3768 -0.547972 0.492844 0
M  V30 730 H 73.0188 -0.857628 1.69543 0
M  V30 731 H 71.1688 -3.31716 2.02229 0
M  V30 732 H 72.8408 -1.89074 4.20771 0
M  V30 733 H 71.0838 -1.71449 3.98482 0
M  V30 734 H 71.7548 -3.28462 4.4364 0
M  V30 735 H 74.2308 -3.31884 2.50983 0
M  V30 736 H 73.1068 -4.63159 2.94576 0
M  V30 737 H 73.3678 -4.23957 1.25352 0
M  V30 738 N 72.4269 -1.23603 -0.977757 0
M  V30 739 C 73.3589 -0.977369 -2.07317 0
M  V30 740 C 74.3719 0.0495845 -1.62724 0
M  V30 741 O 75.5609 -0.186261 -1.77526 0
M  V30 742 C 72.6609 -0.451216 -3.35883 0
M  V30 743 C 71.8339 -1.53896 -4.09432 0
M  V30 744 C 70.8929 -1.01721 -5.16274 0
M  V30 745 O 69.9189 -1.70676 -5.43009 0
M  V30 746 N 71.1209 0.153594 -5.80297 0
M  V30 747 H 73.8859 -1.92047 -2.30082 0
M  V30 748 H 71.4469 -1.14497 -1.14465 0
M  V30 749 H 73.4389 -0.0871574 -4.04606 0
M  V30 750 H 72.0089 0.397368 -3.10064 0
M  V30 751 H 71.2289 -2.07566 -3.35127 0
M  V30 752 H 72.5169 -2.27037 -4.55337 0
M  V30 753 H 71.9149 0.730323 -5.60966 0
M  V30 754 H 70.4719 0.458892 -6.50183 0
M  V30 755 N 73.905 1.17692 -1.04816 0
M  V30 756 C 75.151 1.88137 -0.75711 0
M  V30 757 C 75.484 1.80604 0.713841 0
M  V30 758 O 74.759 1.21146 1.52164 0
M  V30 759 C 75.042 3.38318 -1.2334 0
M  V30 760 C 74.895 3.54622 -2.76701 0
M  V30 761 C 76.214 4.32214 -0.829415 0
M  V30 762 H 73.333 0.683163 -0.27651 0
M  V30 763 H 75.975 1.38424 -1.30149 0
M  V30 764 H 74.125 3.80787 -0.770286 0
M  V30 765 H 75.797 3.21194 -3.31107 0
M  V30 766 H 74.04 2.97026 -3.16161 0
M  V30 767 H 74.711 4.60028 -3.05088 0
M  V30 768 H 77.187 3.97565 -1.22805 0
M  V30 769 H 76.063 5.35838 -1.19033 0
M  V30 770 H 76.324 4.41294 0.266891 0
M  V30 771 N 75.3831 0.828654 1.34056 0
M  V30 772 C 76.6291 0.42008 1.98402 0
M  V30 773 C 76.9621 -1.01564 1.65525 0
M  V30 774 O 76.2371 -1.70834 0.929831 0
M  V30 775 C 76.5201 0.62927 3.54559 0
M  V30 776 C 76.3731 2.11152 3.97159 0
M  V30 777 C 77.6921 0.0688756 4.40046 0
M  V30 778 H 74.8111 0.154104 0.720709 0
M  V30 779 H 77.4531 1.04228 1.5886 0
M  V30 780 H 75.6031 0.0996418 3.88372 0
M  V30 781 H 77.2751 2.70522 3.73651 0
M  V30 782 H 75.5181 2.59985 3.47261 0
M  V30 783 H 76.1891 2.20868 5.05887 0
M  V30 784 H 78.6651 0.521458 4.1282 0
M  V30 785 H 77.5411 0.245006 5.48353 0
M  V30 786 H 77.8021 -1.0266 4.30015 0
M  V30 787 N 76.8612 -1.46375 0.584142 0
M  V30 788 C 77.7912 -2.33103 -0.136037 0
M  V30 789 C 78.7722 -1.45431 -0.882255 0
M  V30 790 O 79.9572 -1.74246 -0.857434 0
M  V30 791 C 77.0872 -3.27731 -1.14933 0
M  V30 792 C 76.0412 -4.24855 -0.517862 0
M  V30 793 C 75.3672 -5.09001 -1.63773 0
M  V30 794 C 76.6672 -5.19439 0.545886 0
M  V30 795 H 78.3612 -2.93568 0.588086 0
M  V30 796 H 75.9072 -1.41166 0.284259 0
M  V30 797 H 77.8602 -3.87261 -1.66153 0
M  V30 798 H 76.5842 -2.65377 -1.90375 0
M  V30 799 H 75.2432 -3.6659 -0.0267361 0
M  V30 800 H 74.8912 -4.43031 -2.38185 0
M  V30 801 H 74.5912 -5.74777 -1.22085 0
M  V30 802 H 76.1152 -5.71396 -2.15266 0
M  V30 803 H 77.5292 -5.73177 0.118704 0
M  V30 804 H 75.9262 -5.93566 0.88317 0
M  V30 805 H 76.9962 -4.63285 1.43162 0
M  V30 806 N 78.3393 -0.321999 -1.54275 0
M  V30 807 C 79.5883 0.281931 -1.9972 0
M  V30 808 C 79.9013 1.53369 -1.21397 0
M  V30 809 O 81.1073 2.21352 -1.57211 0
M  V30 810 C 79.5633 0.5529 -3.55628 0
M  V30 811 C 79.1713 -0.681721 -4.42783 0
M  V30 812 C 80.9153 1.11687 -4.09544 0
M  V30 813 C 78.8223 -0.382742 -5.9016 0
M  V30 814 H 77.7523 0.109124 -0.746062 0
M  V30 815 H 80.4033 -0.43398 -1.78294 0
M  V30 816 H 78.7853 1.32896 -3.73035 0
M  V30 817 H 79.9593 -1.45723 -4.37151 0
M  V30 818 H 78.2743 -1.1658 -3.99748 0
M  V30 819 H 80.8713 1.35515 -5.17242 0
M  V30 820 H 81.2143 2.06575 -3.61431 0
M  V30 821 H 81.7473 0.402032 -3.95763 0
M  V30 822 H 78.4863 -1.30076 -6.42464 0
M  V30 823 H 78.0063 0.355094 -5.98748 0
M  V30 824 H 79.6853 0.00800157 -6.47 0
M  V30 825 N 79.8174 1.5752 -0.0501392 0
M  V30 826 C 80.7474 2.14502 0.922566 0
M  V30 827 C 81.7284 1.06642 1.3252 0
M  V30 828 O 82.9134 1.34577 1.4001 0
M  V30 829 C 80.0434 2.68916 2.19776 0
M  V30 830 C 78.9974 3.8175 1.93523 0
M  V30 831 C 78.3234 4.22677 3.27487 0
M  V30 832 C 79.6234 5.06932 1.25765 0
M  V30 833 H 81.3174 2.9603 0.447952 0
M  V30 834 H 78.8634 1.42401 0.214024 0
M  V30 835 H 80.8164 3.07419 2.88222 0
M  V30 836 H 79.5404 1.84578 2.69441 0
M  V30 837 H 78.1994 3.43718 1.27489 0
M  V30 838 H 77.8474 3.35291 3.74952 0
M  V30 839 H 77.5474 4.98725 3.1072 0
M  V30 840 H 79.0714 4.63779 3.97166 0
M  V30 841 H 80.4854 5.42888 1.84244 0
M  V30 842 H 78.8824 5.88116 1.19328 0
M  V30 843 H 79.9524 4.84337 0.233536 0
M  V30 844 N 81.2955 -0.223234 1.56011 0
M  V30 845 C 82.2585 -1.26014 1.9145 0
M  V30 846 C 83.2585 -1.3989 0.792937 0
M  V30 847 O 84.4485 -1.38184 1.0607 0
M  V30 848 C 81.5805 -2.63422 2.16383 0
M  V30 849 H 82.7735 -0.95796 2.84189 0
M  V30 850 H 80.3265 -0.463576 1.49267 0
M  V30 851 H 81.0615 -2.98741 1.2619 0
M  V30 852 H 80.8465 -2.54728 2.98088 0
M  V30 853 H 82.3365 -3.38249 2.44903 0
M  V30 854 N 82.7736 -1.49793 -0.48987 0
M  V30 855 C 84.0036 -1.6333 -1.26518 0
M  V30 856 C 84.4116 -0.308392 -1.8667 0
M  V30 857 O 83.7546 0.717512 -1.69108 0
M  V30 858 C 83.8166 -2.6522 -2.4269 0
M  V30 859 C 83.4806 -4.09279 -2.03321 0
M  V30 860 C 84.4776 -4.95738 -1.56652 0
M  V30 861 C 82.1626 -4.55082 -2.12616 0
M  V30 862 C 84.1566 -6.26041 -1.19795 0
M  V30 863 C 81.8436 -5.85396 -1.75371 0
M  V30 864 C 82.8416 -6.707 -1.29036 0
M  V30 865 O 82.5296 -7.98584 -0.92299 0
M  V30 866 H 82.2616 -0.552502 -0.389509 0
M  V30 867 H 84.8156 -1.96642 -0.593381 0
M  V30 868 H 83.0456 -2.27112 -3.12981 0
M  V30 869 H 84.7346 -2.68171 -3.04695 0
M  V30 870 H 85.5006 -4.61575 -1.48908 0
M  V30 871 H 81.3796 -3.88844 -2.47631 0
M  V30 872 H 84.9236 -6.92578 -0.835582 0
M  V30 873 H 80.8206 -6.19085 -1.82768 0
M  V30 874 H 81.5886 -8.11692 -1.05349 0
M  V30 875 N 84.2517 0.741722 -1.39055 0
M  V30 876 C 85.4917 1.51385 -1.37338 0
M  V30 877 C 85.8557 1.91972 0.0330513 0
M  V30 878 O 87.0567 2.68229 0.175174 0
M  V30 879 C 85.3277 2.72481 -2.31276 0
M  V30 880 S 86.8867 3.62211 -2.47687 0
M  V30 881 H 83.7047 0.517906 -0.487129 0
M  V30 882 H 86.3067 0.86969 -1.7509 0
M  V30 883 H 85.0107 2.40793 -3.32336 0
M  V30 884 H 84.5417 3.41832 -1.94716 0
M  V30 885 H 86.5567 4.65812 -1.70978 0
M  V30 886 N 85.7298 1.2412 0.971189 0
M  V30 887 C 86.9548 1.10667 1.75407 0
M  V30 888 C 87.3798 -0.337048 1.85056 0
M  V30 889 O 86.7378 -1.24396 1.31892 0
M  V30 890 C 86.7858 1.74726 3.15441 0
M  V30 891 O 85.8898 1.01566 3.99697 0
M  V30 892 H 85.2308 0.387341 0.539317 0
M  V30 893 H 87.7608 1.64358 1.2185 0
M  V30 894 H 87.7708 1.80341 3.6598 0
M  V30 895 H 86.4458 2.79773 3.07734 0
M  V30 896 H 85.0228 1.03713 3.58187 0
M  V30 897 N 87.2079 -1.17134 1.05439 0
M  V30 898 C 88.4569 -1.86791 0.761049 0
M  V30 899 C 88.7699 -1.82072 -0.714795 0
M  V30 900 O 89.9759 -2.47223 -1.12218 0
M  V30 901 C 88.4319 -3.35166 1.31117 0
M  V30 902 C 88.0399 -3.48381 2.81664 0
M  V30 903 C 89.7839 -4.10134 1.09499 0
M  V30 904 C 87.6909 -4.90793 3.29964 0
M  V30 905 H 86.6209 -0.699681 0.281002 0
M  V30 906 H 89.2719 -1.3226 1.27199 0
M  V30 907 H 87.6539 -3.8925 0.72803 0
M  V30 908 H 88.8279 -3.04502 3.45855 0
M  V30 909 H 87.1429 -2.86836 3.01851 0
M  V30 910 H 89.7399 -5.152 1.43084 0
M  V30 911 H 90.0829 -4.16287 0.0328772 0
M  V30 912 H 90.6159 -3.62264 1.64346 0
M  V30 913 H 87.3549 -4.89816 4.35616 0
M  V30 914 H 86.8749 -5.35333 2.70516 0
M  V30 915 H 88.5539 -5.59573 3.24787 0
M  V30 916 N 88.686 -0.835752 -1.33615 0
M  V30 917 C 89.935 -0.426289 -1.97144 0
M  V30 918 C 90.248 1.01912 -1.66953 0
M  V30 919 O 91.454 1.53311 -2.24072 0
M  V30 920 C 89.91 -0.711321 -3.52801 0
M  V30 921 C 89.518 -2.1712 -3.91871 0
M  V30 922 C 91.262 -0.368654 -4.22896 0
M  V30 923 C 89.169 -2.40044 -5.40493 0
M  V30 924 H 88.099 -0.15567 -0.737755 0
M  V30 925 H 90.75 -1.0239 -1.52278 0
M  V30 926 H 89.132 -0.0433766 -3.95976 0
M  V30 927 H 90.306 -2.87936 -3.59763 0
M  V30 928 H 88.621 -2.47654 -3.34749 0
M  V30 929 H 91.218 -0.517601 -5.32189 0
M  V30 930 H 91.561 0.688078 -4.10574 0
M  V30 931 H 92.094 -0.991702 -3.8524 0
M  V30 932 H 88.833 -3.44271 -5.57815 0
M  V30 933 H 88.353 -1.73785 -5.74072 0
M  V30 934 H 90.032 -2.23042 -6.0734 0
M  V30 935 N 90.1641 1.46063 -0.591896 0
M  V30 936 C 91.0941 2.33172 0.123673 0
M  V30 937 C 92.0751 1.45897 0.87453 0
M  V30 938 O 93.2601 1.74698 0.848181 0
M  V30 939 C 90.3901 3.28336 1.13194 0
M  V30 940 C 89.3441 4.25124 0.495324 0
M  V30 941 C 88.6701 5.09863 1.61071 0
M  V30 942 C 89.9701 5.19143 -0.573425 0
M  V30 943 H 91.6641 2.93252 -0.603646 0
M  V30 944 H 89.2101 1.41014 -0.291741 0
M  V30 945 H 91.1631 3.88137 1.64097 0
M  V30 946 H 89.8871 2.66383 1.88965 0
M  V30 947 H 88.5461 3.66599 0.00729452 0
M  V30 948 H 88.1941 4.44288 2.35832 0
M  V30 949 H 87.8941 5.75417 1.19035 0
M  V30 950 H 89.4181 5.72529 2.12233 0
M  V30 951 H 90.8321 5.73106 -0.1491 0
M  V30 952 H 89.2291 5.93089 -0.914636 0
M  V30 953 H 90.2991 4.62519 -1.45617 0
M  V30 954 N 91.6422 0.330177 1.54103 0
M  V30 955 C 92.5722 -0.525353 2.27513 0
M  V30 956 C 93.5532 -1.11383 1.2856 0
M  V30 957 O 94.7382 -1.13773 1.57383 0
M  V30 958 C 91.8682 -1.6831 3.03791 0
M  V30 959 C 90.8222 -1.2236 4.10137 0
M  V30 960 C 90.1482 -2.46882 4.74293 0
M  V30 961 C 91.4482 -0.333697 5.21233 0
M  V30 962 H 93.1422 0.087013 2.99274 0
M  V30 963 H 90.6882 0.0432893 1.43935 0
M  V30 964 H 92.6412 -2.28795 3.5388 0
M  V30 965 H 91.3652 -2.32216 2.29659 0
M  V30 966 H 90.0242 -0.64165 3.60941 0
M  V30 967 H 89.6722 -3.09165 3.96769 0
M  V30 968 H 89.3722 -2.16825 5.46133 0
M  V30 969 H 90.8962 -3.08117 5.27159 0
M  V30 970 H 92.3102 -0.845013 5.67038 0
M  V30 971 H 90.7072 -0.125612 5.99969 0
M  V30 972 H 91.7772 0.633724 4.80741 0
M  V30 973 N 93.1203 -1.57491 0.0584922 0
M  V30 974 C 94.3683 -1.92597 -0.612436 0
M  V30 975 C 94.6893 -0.938162 -1.70949 0
M  V30 976 O 93.9593 0.0158301 -1.95894 0
M  V30 977 H 92.5393 -0.710964 -0.229214 0
M  V30 978 H 95.2013 -1.94571 0.113218 0
M  V30 979 H 94.2973 -2.94038 -1.04633 0
M  V30 980 N 94.5984 0.214957 -1.56127 0
M  V30 981 C 95.8444 0.939762 -1.79712 0
M  V30 982 C 96.1774 1.83723 -0.629247 0
M  V30 983 O 95.4524 1.90925 0.371197 0
M  V30 984 C 95.7354 1.77306 -3.13424 0
M  V30 985 C 95.5884 0.90164 -4.40671 0
M  V30 986 C 96.9074 2.74956 -3.43638 0
M  V30 987 H 94.0264 0.340214 -0.653776 0
M  V30 988 H 96.6684 0.20824 -1.88855 0
M  V30 989 H 94.8184 2.39673 -3.0576 0
M  V30 990 H 96.4904 0.294206 -4.60361 0
M  V30 991 H 94.7334 0.207368 -4.33304 0
M  V30 992 H 95.4044 1.51923 -5.30682 0
M  V30 993 H 97.8804 2.22724 -3.51473 0
M  V30 994 H 96.7564 3.30358 -4.38355 0
M  V30 995 H 97.0174 3.53023 -2.66134 0
M  V30 996 N 96.0765 1.50051 0.48192 0
M  V30 997 C 97.3255 1.59741 1.23149 0
M  V30 998 C 97.6385 0.298163 1.93314 0
M  V30 999 O 98.8445 0.273835 2.70116 0
M  V30 1000 C 97.3005 2.81926 2.23708 0
M  V30 1001 C 96.9085 4.18685 1.59396 0
M  V30 1002 C 98.6525 3.00956 2.99375 0
M  V30 1003 C 96.5595 5.3207 2.58178 0
M  V30 1004 H 95.4895 0.594838 0.46334 0
M  V30 1005 H 98.1405 1.76467 0.503169 0
M  V30 1006 H 96.5225 2.58736 2.99786 0
M  V30 1007 H 97.6965 4.52088 0.891811 0
M  V30 1008 H 96.0115 4.05171 0.960503 0
M  V30 1009 H 98.6085 3.82836 3.73283 0
M  V30 1010 H 98.9515 2.12258 3.58123 0
M  V30 1011 H 99.4845 3.24277 2.30411 0
M  V30 1012 H 96.2235 6.22888 2.04184 0
M  V30 1013 H 95.7435 5.03098 3.26577 0
M  V30 1014 H 97.4225 5.62196 3.20225 0
M  V30 1015 N 97.5546 -0.734337 1.39446 0
M  V30 1016 C 98.8026 -1.49096 1.36436 0
M  V30 1017 C 99.1236 -1.94961 -0.0388255 0
M  V30 1018 O 98.3936 -1.69033 -0.990191 0
M  V30 1019 H 96.9736 -0.5531 0.502085 0
M  V30 1020 H 99.6356 -0.871725 1.74319 0
M  V30 1021 H 98.7316 -2.37276 2.02747 0
M  V30 1022 N 99.0327 -1.24633 -0.964593 0
M  V30 1023 C 99.9807 -1.03917 -2.08096 0
M  V30 1024 C 100.975 0.0268581 -1.69379 0
M  V30 1025 O 102.181 -0.127952 -1.79545 0
M  V30 1026 H 98.5557 -0.319044 -0.680966 0
M  V30 1027 H 100.527 -1.98581 -2.22729 0
M  V30 1028 C 99.2757 -0.663983 -3.41301 0
M  V30 1029 H 98.5987 -1.47605 -3.71555 0
M  V30 1030 H 100.039 -0.558663 -4.20303 0
M  V30 1031 C 98.4977 0.629169 -3.30973 0
M  V30 1032 O 99.0277 1.67404 -3.65156 0
M  V30 1033 N 97.2337 0.611057 -2.84103 0
M  V30 1034 H 96.7807 -0.239593 -2.56483 0
M  V30 1035 H 96.7387 1.47647 -2.77575 0
M  V30 1036 N 100.511 1.16574 -1.06058 0
M  V30 1037 C 101.736 1.91493 -0.796562 0
M  V30 1038 C 102.161 1.76773 0.642868 0
M  V30 1039 O 101.519 1.09142 1.44768 0
M  V30 1040 C 101.567 3.40293 -1.19303 0
M  V30 1041 O 100.671 4.11074 -0.330394 0
M  V30 1042 H 100.012 0.596678 -0.291326 0
M  V30 1043 H 102.542 1.47708 -1.41575 0
M  V30 1044 H 102.552 3.91057 -1.16356 0
M  V30 1045 H 101.227 3.50326 -2.24153 0
M  V30 1046 H 99.8038 3.70513 -0.421225 0
M  V30 1047 N 101.989 0.842826 1.3317 0
M  V30 1048 C 102.919 0.294028 2.31641 0
M  V30 1049 C 103.9 -0.600401 1.59151 0
M  V30 1050 O 105.085 -0.523124 1.87022 0
M  V30 1051 C 102.215 -0.528416 3.43257 0
M  V30 1052 C 101.169 0.27056 4.27144 0
M  V30 1053 C 100.495 -0.675881 5.30411 0
M  V30 1054 C 101.795 1.48981 5.00602 0
M  V30 1055 H 103.489 1.11681 2.77791 0
M  V30 1056 H 101.035 0.538478 1.33553 0
M  V30 1057 H 102.988 -0.922674 4.11175 0
M  V30 1058 H 101.712 -1.38445 2.95805 0
M  V30 1059 H 100.371 0.646427 3.60856 0
M  V30 1060 H 100.019 -1.52842 4.79216 0
M  V30 1061 H 99.7189 -0.145374 5.8742 0
M  V30 1062 H 101.243 -1.06757 6.01195 0
M  V30 1063 H 102.657 1.16849 5.61266 0
M  V30 1064 H 101.054 1.95739 5.6728 0
M  V30 1065 H 102.124 2.25746 4.29147 0
M  V30 1066 N 103.467 -1.45747 0.599634 0
M  V30 1067 C 104.713 -2.02592 0.0918643 0
M  V30 1068 C 105.046 -1.46806 -1.27128 0
M  V30 1069 O 104.321 -0.639658 -1.83681 0
M  V30 1070 C 104.604 -3.60073 0.0443398 0
M  V30 1071 C 104.457 -4.26208 1.43759 0
M  V30 1072 C 105.776 -4.35309 -0.647608 0
M  V30 1073 H 102.895 -0.736175 0.034857 0
M  V30 1074 H 105.537 -1.73694 0.770081 0
M  V30 1075 H 103.687 -3.84823 -0.533224 0
M  V30 1076 H 105.359 -4.12668 2.06162 0
M  V30 1077 H 103.602 -3.84916 2.00056 0
M  V30 1078 H 104.273 -5.35069 1.35665 0
M  V30 1079 H 106.749 -4.15805 -0.156776 0
M  V30 1080 H 105.625 -5.45038 -0.649942 0
M  V30 1081 H 105.886 -4.07598 -1.71219 0
M  V30 1082 N 104.945 -0.338344 -1.53925 0
M  V30 1083 C 106.194 0.260732 -2.00008 0
M  V30 1084 C 106.507 1.52073 -1.23017 0
M  V30 1085 O 107.713 2.19672 -1.5955 0
M  V30 1086 C 106.169 0.51515 -3.56194 0
M  V30 1087 C 105.777 -0.728645 -4.42035 0
M  V30 1088 C 107.521 1.07337 -4.10706 0
M  V30 1089 C 105.428 -0.445315 -5.89721 0
M  V30 1090 H 104.358 0.101205 -0.747177 0
M  V30 1091 H 107.009 -0.452866 -1.77824 0
M  V30 1092 H 105.391 1.28932 -3.74423 0
M  V30 1093 H 106.565 -1.50352 -4.35581 0
M  V30 1094 H 104.88 -1.20813 -3.98489 0
M  V30 1095 H 107.477 1.30022 -5.18651 0
M  V30 1096 H 107.82 2.0273 -3.63602 0
M  V30 1097 H 108.353 0.360034 -3.96167 0
M  V30 1098 H 105.092 -1.36883 -6.41049 0
M  V30 1099 H 104.612 0.291569 -5.99091 0
M  V30 1100 H 106.291 -0.0606218 -6.46972 0
M  V30 1101 N 106.423 1.57458 -0.0668435 0
M  V30 1102 C 107.373 2.0896 0.912119 0
M  V30 1103 C 108.357 0.998186 1.26195 0
M  V30 1104 O 109.549 1.26133 1.24175 0
M  V30 1105 C 106.678 2.6508 2.18145 0
M  V30 1106 C 105.764 3.81218 1.85832 0
M  V30 1107 N 106.155 4.90378 1.23948 0
M  V30 1108 C 104.453 3.9042 2.15612 0
M  V30 1109 C 105.154 5.71279 1.09616 0
M  V30 1110 N 104.13 5.19389 1.60423 0
M  V30 1111 H 107.932 2.90749 0.42924 0
M  V30 1112 H 105.446 1.6182 0.137184 0
M  V30 1113 H 107.443 3.0029 2.89192 0
M  V30 1114 H 106.103 1.84736 2.67025 0
M  V30 1115 H 107.114 5.09847 0.909731 0
M  V30 1116 H 103.791 3.21043 2.66903 0
M  V30 1117 H 105.181 6.69085 0.614425 0
M  V30 1118 N 107.901 -0.206675 1.56239 0
M  V30 1119 C 109.147 -0.930218 1.80208 0
M  V30 1120 C 109.48 -1.83387 0.638981 0
M  V30 1121 O 108.755 -1.91119 -0.361066 0
M  V30 1122 C 109.038 -1.75641 3.1436 0
M  V30 1123 C 108.891 -0.878257 4.41142 0
M  V30 1124 C 110.21 -2.73129 3.45092 0
M  V30 1125 H 107.329 -0.336742 0.655571 0
M  V30 1126 H 109.971 -0.198222 1.88963 0
M  V30 1127 H 108.121 -2.38048 3.07027 0
M  V30 1128 H 109.793 -0.269787 4.6051 0
M  V30 1129 H 108.036 -0.184385 4.33408 0
M  V30 1130 H 108.707 -1.49106 5.3148 0
M  V30 1131 H 111.183 -2.20856 3.52649 0
M  V30 1132 H 110.059 -3.28028 4.40101 0
M  V30 1133 H 110.32 -3.51606 2.68003 0
M  V30 1134 N 109.379 -1.50304 -0.473955 0
M  V30 1135 C 110.625 -1.61389 -1.22806 0
M  V30 1136 C 110.958 -0.311955 -1.91678 0
M  V30 1137 O 110.233 0.686384 -1.81986 0
M  V30 1138 C 110.516 -2.79219 -2.27396 0
M  V30 1139 C 110.369 -4.19286 -1.62848 0
M  V30 1140 C 111.688 -2.92614 -3.28732 0
M  V30 1141 H 108.807 -0.587399 -0.445119 0
M  V30 1142 H 111.449 -1.82681 -0.522265 0
M  V30 1143 H 109.599 -2.61195 -2.87592 0
M  V30 1144 H 111.271 -4.48892 -1.06271 0
M  V30 1145 H 109.514 -4.23677 -0.931693 0
M  V30 1146 H 110.185 -4.97655 -2.38838 0
M  V30 1147 H 112.661 -3.09105 -2.78556 0
M  V30 1148 H 111.537 -3.76688 -3.99246 0
M  V30 1149 H 111.798 -2.03107 -3.92683 0
M  V30 1150 N 110.857 0.726932 -1.39834 0
M  V30 1151 C 112.106 1.48214 -1.36805 0
M  V30 1152 C 112.419 1.95576 0.0305291 0
M  V30 1153 O 113.625 2.7088 0.183417 0
M  V30 1154 C 112.081 2.67854 -2.40379 0
M  V30 1155 C 111.689 2.27408 -3.85992 0
M  V30 1156 C 113.433 3.45641 -2.46439 0
M  V30 1157 C 111.34 3.43819 -4.81189 0
M  V30 1158 H 110.27 0.556606 -0.508631 0
M  V30 1159 H 112.921 0.792216 -1.65518 0
M  V30 1160 H 111.303 3.3896 -2.04749 0
M  V30 1161 H 112.477 1.63795 -4.30706 0
M  V30 1162 H 110.792 1.62692 -3.83302 0
M  V30 1163 H 113.389 4.32244 -3.14753 0
M  V30 1164 H 113.732 3.88669 -1.49139 0
M  V30 1165 H 114.265 2.8157 -2.81004 0
M  V30 1166 H 111.004 3.05834 -5.79781 0
M  V30 1167 H 110.524 4.06385 -4.41148 0
M  V30 1168 H 112.203 4.10043 -5.00474 0
M  V30 1169 N 112.336 1.25143 0.95797 0
M  V30 1170 C 113.283 1.05235 2.05412 0
M  V30 1171 C 114.253 -0.0374561 1.66058 0
M  V30 1172 O 115.438 0.119073 1.90428 0
M  V30 1173 C 112.578 0.673589 3.38462 0
M  V30 1174 C 111.691 1.8379 3.90954 0
M  V30 1175 C 110.826 1.40381 5.12315 0
M  V30 1176 C 109.865 2.53746 5.57027 0
M  V30 1177 N 109.002 2.11136 6.69601 0
M  V30 1178 H 113.842 1.99048 2.21774 0
M  V30 1179 H 111.379 0.991277 1.08683 0
M  V30 1180 H 113.337 0.434964 4.14926 0
M  V30 1181 H 111.967 -0.227554 3.21997 0
M  V30 1182 H 111.019 2.18992 3.11041 0
M  V30 1183 H 112.331 2.68937 4.20089 0
M  V30 1184 H 111.485 1.12464 5.96185 0
M  V30 1185 H 110.224 0.523015 4.84887 0
M  V30 1186 H 109.229 2.82412 4.71724 0
M  V30 1187 H 110.454 3.42398 5.86464 0
M  V30 1188 H 108.4 1.25468 6.4389 0
M  V30 1189 H 108.317 2.89832 6.98236 0
M  V30 1190 H 109.585 1.86385 7.56889 0
M  V30 1191 N 113.814 -1.1601 1.06675 0
M  V30 1192 C 115.061 -1.86633 0.785781 0
M  V30 1193 C 115.389 -1.81929 -0.687896 0
M  V30 1194 O 114.644 -1.23253 -1.52011 0
M  V30 1195 C 114.943 -3.35547 1.23057 0
M  V30 1196 C 114.609 -3.60448 2.70902 0
M  V30 1197 C 113.271 -3.66954 3.11285 0
M  V30 1198 C 115.623 -3.7071 3.66365 0
M  V30 1199 C 112.951 -3.81225 4.45965 0
M  V30 1200 C 115.303 -3.86503 5.00797 0
M  V30 1201 C 113.967 -3.91252 5.40813 0
M  V30 1202 H 113.237 -0.682937 0.287538 0
M  V30 1203 H 115.884 -1.37146 1.33654 0
M  V30 1204 H 114.189 -3.87193 0.59907 0
M  V30 1205 H 115.886 -3.88583 0.990163 0
M  V30 1206 H 112.476 -3.56021 2.38636 0
M  V30 1207 H 116.66 -3.64991 3.36296 0
M  V30 1208 H 111.916 -3.83155 4.76447 0
M  V30 1209 H 116.09 -3.93385 5.74649 0
M  V30 1210 H 113.717 -4.02062 6.45174 0
M  V30 1211 N 115.292 -0.849877 -1.32721 0
M  V30 1212 C 116.239 -0.289033 -2.28983 0
M  V30 1213 C 117.209 0.601324 -1.54833 0
M  V30 1214 O 118.394 0.537253 -1.8308 0
M  V30 1215 C 115.534 0.520623 -3.4115 0
M  V30 1216 C 114.647 -0.394989 -4.3019 0
M  V30 1217 C 113.782 0.426834 -5.29482 0
M  V30 1218 C 112.821 -0.486476 -6.10164 0
M  V30 1219 N 111.958 0.297879 -7.01468 0
M  V30 1220 H 116.798 -1.11519 -2.76347 0
M  V30 1221 H 114.335 -0.56138 -1.35967 0
M  V30 1222 H 116.293 1.00563 -4.04899 0
M  V30 1223 H 114.923 1.31165 -2.9495 0
M  V30 1224 H 113.975 -0.99836 -3.67065 0
M  V30 1225 H 115.287 -1.09612 -4.86607 0
M  V30 1226 H 114.441 0.975205 -5.98811 0
M  V30 1227 H 113.18 1.16136 -4.73671 0
M  V30 1228 H 112.185 -1.04677 -5.39743 0
M  V30 1229 H 113.41 -1.21953 -6.6806 0
M  V30 1230 H 111.356 1.01558 -6.48091 0
M  V30 1231 H 111.273 -0.344318 -7.55216 0
M  V30 1232 H 112.541 0.828131 -7.75089 0
M  V30 1233 N 116.77 1.45427 -0.607355 0
M  V30 1234 C 117.995 2.07124 -0.107006 0
M  V30 1235 C 118.42 1.44906 1.19933 0
M  V30 1236 O 117.778 0.541687 1.73019 0
M  V30 1237 C 117.826 3.60595 0.0194119 0
M  V30 1238 O 116.93 3.98285 1.0697 0
M  V30 1239 H 116.271 0.659868 -0.0739597 0
M  V30 1240 H 118.801 1.86683 -0.837297 0
M  V30 1241 H 118.811 4.07419 0.2177 0
M  V30 1242 H 117.486 4.05266 -0.934453 0
M  V30 1243 H 116.063 3.63133 0.847889 0
M  V30 1244 N 118.248 0.346503 1.53744 0
M  V30 1245 C 119.181 -0.552023 2.21423 0
M  V30 1246 C 120.159 -1.09798 1.19929 0
M  V30 1247 O 121.343 -1.1577 1.4876 0
M  V30 1248 C 118.47 -1.75972 2.89398 0
M  V30 1249 C 117.516 -1.34295 4.04805 0
M  V30 1250 S 118.349 -0.360263 5.34287 0
M  V30 1251 C 119.505 -1.57473 6.05767 0
M  V30 1252 H 119.738 0.0228119 2.97291 0
M  V30 1253 H 117.271 0.130579 1.53847 0
M  V30 1254 H 119.229 -2.45256 3.2918 0
M  V30 1255 H 117.89 -2.30578 2.1329 0
M  V30 1256 H 117.083 -2.24349 4.51313 0
M  V30 1257 H 116.685 -0.729555 3.66815 0
M  V30 1258 H 118.977 -2.50875 6.29339 0
M  V30 1259 H 119.92 -1.15138 6.98676 0
M  V30 1260 H 120.328 -1.77212 5.35963 0
M  V30 1261 N 119.726 -1.57421 0.075193 0
M  V30 1262 C 121.142 -1.57099 -0.281444 0
M  V30 1263 C 121.342 -1.08486 -1.69803 0
M  V30 1264 O 120.398 -0.752279 -2.41033 0
M  V30 1265 C 121.711 -3.00571 -0.0880041 0
M  V30 1266 C 123.259 -3.12605 -0.157281 0
M  V30 1267 C 123.734 -4.57999 0.0079207 0
M  V30 1268 N 125.225 -4.63176 -0.0475725 0
M  V30 1269 C 125.96 -5.73373 0.0557876 0
M  V30 1270 N 125.456 -6.92473 0.21286 0
M  V30 1271 N 127.249 -5.621 -0.00152098 0
M  V30 1272 H 119.4 -1.87335 1.00098 0
M  V30 1273 H 121.663 -0.86377 0.390646 0
M  V30 1274 H 121.369 -3.40262 0.889629 0
M  V30 1275 H 121.243 -3.67754 -0.838875 0
M  V30 1276 H 123.63 -2.72798 -1.1254 0
M  V30 1277 H 123.711 -2.48053 0.62475 0
M  V30 1278 H 123.355 -4.98496 0.972824 0
M  V30 1279 H 123.285 -5.20586 -0.793556 0
M  V30 1280 H 125.776 -3.7753 -0.167244 0
M  V30 1281 H 126.089 -7.72279 0.283781 0
M  V30 1282 H 124.434 -6.94556 0.248267 0
M  V30 1283 H 127.625 -4.67938 -0.122958 0
M  V30 1284 H 127.798 -6.47948 0.0824844 0
M  V30 1285 N 121.204 0.198386 -1.56346 0
M  V30 1286 C 122.432 0.935572 -1.84539 0
M  V30 1287 C 122.847 1.76989 -0.657281 0
M  V30 1288 O 122.204 1.78626 0.374043 0
M  V30 1289 C 122.255 1.8344 -3.11499 0
M  V30 1290 O 121.976 1.03377 -4.25728 0
M  V30 1291 C 123.477 2.68355 -3.52846 0
M  V30 1292 H 120.697 0.273126 -0.612897 0
M  V30 1293 H 123.241 0.20663 -2.03453 0
M  V30 1294 H 121.396 2.51701 -2.94492 0
M  V30 1295 H 121.81 1.64599 -4.98003 0
M  V30 1296 H 123.284 3.27085 -4.44657 0
M  V30 1297 H 123.761 3.41901 -2.75681 0
M  V30 1298 H 124.367 2.05471 -3.72373 0
M  V30 1299 N 122.682 1.50554 0.465978 0
M  V30 1300 C 123.928 1.62038 1.21949 0
M  V30 1301 C 124.261 0.322116 1.9151 0
M  V30 1302 O 123.536 -0.676723 1.82348 0
M  V30 1303 C 123.819 2.80421 2.25912 0
M  V30 1304 C 123.672 4.20144 1.60622 0
M  V30 1305 C 124.991 2.94354 3.27176 0
M  V30 1306 H 122.11 0.589752 0.441998 0
M  V30 1307 H 124.752 1.82956 0.51257 0
M  V30 1308 H 122.902 2.62717 2.86203 0
M  V30 1309 H 124.574 4.49449 1.03889 0
M  V30 1310 H 122.817 4.24165 0.909211 0
M  V30 1311 H 123.488 4.98914 2.36196 0
M  V30 1312 H 125.964 3.10578 2.76913 0
M  V30 1313 H 124.84 3.788 3.97242 0
M  V30 1314 H 125.101 2.05186 3.916 0
M  V30 1315 N 124.16 -0.719506 1.40217 0
M  V30 1316 C 125.388 -1.50864 1.41589 0
M  V30 1317 C 125.803 -1.88794 0.0145275 0
M  V30 1318 O 125.16 -1.55174 -0.960594 0
M  V30 1319 C 125.211 -2.78646 2.30302 0
M  V30 1320 O 124.932 -2.42321 3.64983 0
M  V30 1321 C 126.433 -3.72569 2.40224 0
M  V30 1322 H 123.653 -0.465709 0.48307 0
M  V30 1323 H 126.197 -0.88785 1.84221 0
M  V30 1324 H 124.352 -3.37019 1.91042 0
M  V30 1325 H 124.766 -3.24514 4.12057 0
M  V30 1326 H 126.24 -4.5908 3.06512 0
M  V30 1327 H 126.717 -4.15403 1.42608 0
M  V30 1328 H 127.323 -3.20109 2.80019 0
M  V30 1329 N 125.638 -1.25649 -0.95132 0
M  V30 1330 C 126.586 -1.06118 -2.06982 0
M  V30 1331 C 127.58 0.00889169 -1.69398 0
M  V30 1332 O 128.786 -0.146988 -1.79399 0
M  V30 1333 H 125.161 -0.326248 -0.677544 0
M  V30 1334 H 127.132 -2.00932 -2.2061 0
M  V30 1335 C 125.881 -0.700145 -3.40578 0
M  V30 1336 H 125.204 -1.51537 -3.69968 0
M  V30 1337 H 126.644 -0.603211 -4.19687 0
M  V30 1338 C 125.103 0.59403 -3.31622 0
M  V30 1339 O 125.633 1.63522 -3.66911 0
M  V30 1340 N 123.839 0.58089 -2.84735 0
M  V30 1341 H 123.386 -0.266783 -2.56215 0
M  V30 1342 H 123.344 1.44695 -2.79125 0
M  V30 1343 N 127.117 1.15442 -1.07289 0
M  V30 1344 C 128.364 1.86213 -0.795668 0
M  V30 1345 C 128.692 1.82291 0.678238 0
M  V30 1346 O 127.947 1.24057 1.51355 0
M  V30 1347 C 128.246 3.3489 -1.24834 0
M  V30 1348 C 127.912 3.59007 -2.72809 0
M  V30 1349 C 126.574 3.65298 -3.13227 0
M  V30 1350 C 128.926 3.68762 -3.68326 0
M  V30 1351 C 126.254 3.78854 -4.4798 0
M  V30 1352 C 128.606 3.83842 -5.0284 0
M  V30 1353 C 127.27 3.88378 -5.4288 0
M  V30 1354 H 126.54 0.681403 -0.291155 0
M  V30 1355 H 129.187 1.36435 -1.34379 0
M  V30 1356 H 127.492 3.8687 -0.619595 0
M  V30 1357 H 129.189 3.88052 -1.01076 0
M  V30 1358 H 125.779 3.5475 -2.40521 0
M  V30 1359 H 129.963 3.63202 -3.38227 0
M  V30 1360 H 125.219 3.80623 -4.78472 0
M  V30 1361 H 129.393 3.90332 -5.76727 0
M  V30 1362 H 127.02 3.98635 -6.47298 0
M  V30 1363 N 128.595 0.856903 1.32268 0
M  V30 1364 C 129.842 0.461386 1.97174 0
M  V30 1365 C 130.17 -0.983491 1.67803 0
M  V30 1366 O 129.425 -1.70541 0.959903 0
M  V30 1367 C 129.724 0.649919 3.51441 0
M  V30 1368 C 129.39 2.0656 4.00804 0
M  V30 1369 C 128.052 2.45279 4.13995 0
M  V30 1370 C 130.404 2.98947 4.26943 0
M  V30 1371 C 127.732 3.75653 4.50668 0
M  V30 1372 C 130.084 4.28822 4.65075 0
M  V30 1373 C 128.748 4.67472 4.76472 0
M  V30 1374 H 128.018 0.168833 0.72151 0
M  V30 1375 H 130.665 1.08739 1.57633 0
M  V30 1376 H 128.97 -0.0593018 3.91755 0
M  V30 1377 H 130.667 0.32391 3.9969 0
M  V30 1378 H 127.257 1.75495 3.91024 0
M  V30 1379 H 131.441 2.70265 4.16258 0
M  V30 1380 H 126.697 4.05379 4.57688 0
M  V30 1381 H 130.871 5.0047 4.84255 0
M  V30 1382 H 128.498 5.68539 5.04646 0
M  V30 1383 N 130.073 -1.45103 0.615059 0
M  V30 1384 C 131.322 -2.01396 0.110718 0
M  V30 1385 C 131.635 -1.48834 -1.26916 0
M  V30 1386 O 132.841 -1.97152 -1.86664 0
M  V30 1387 C 131.297 -3.59599 0.14723 0
M  V30 1388 C 130.905 -4.21158 1.52743 0
M  V30 1389 C 132.649 -4.23428 -0.30148 0
M  V30 1390 C 130.556 -5.71535 1.51992 0
M  V30 1391 H 129.486 -0.753061 0.0376241 0
M  V30 1392 H 132.137 -1.66494 0.77149 0
M  V30 1393 H 130.519 -3.91724 -0.580339 0
M  V30 1394 H 131.693 -4.00594 2.2773 0
M  V30 1395 H 130.008 -3.69552 1.91886 0
M  V30 1396 H 132.605 -5.33703 -0.326392 0
M  V30 1397 H 132.948 -3.94629 -1.32565 0
M  V30 1398 H 133.481 -3.96047 0.373065 0
M  V30 1399 H 130.22 -6.05044 2.52193 0
M  V30 1400 H 129.74 -5.94268 0.81274 0
M  V30 1401 H 131.419 -6.34873 1.24681 0
M  V30 1402 N 131.551 -0.354651 -1.53558 0
M  V30 1403 C 132.514 0.484566 -2.24019 0
M  V30 1404 C 133.514 1.01861 -1.24422 0
M  V30 1405 O 134.704 0.906097 -1.4878 0
M  V30 1406 C 131.836 1.67615 -2.96847 0
M  V30 1407 H 133.029 -0.131843 -2.9961 0
M  V30 1408 H 130.582 -0.106165 -1.55939 0
M  V30 1409 H 131.317 2.33095 -2.25471 0
M  V30 1410 H 131.102 1.30029 -3.69912 0
M  V30 1411 H 132.592 2.27114 -3.50441 0
M  V30 1412 N 133.029 1.57378 -0.0835403 0
M  V30 1413 C 133.977 2.14602 0.89714 0
M  V30 1414 C 134.971 1.08589 1.30018 0
M  V30 1415 O 136.177 1.26952 1.27606 0
M  V30 1416 H 132.552 0.686346 0.3073 0
M  V30 1417 H 134.523 2.95845 0.38969 0
M  V30 1418 C 133.272 2.73188 2.15089 0
M  V30 1419 H 132.595 3.54442 1.84962 0
M  V30 1420 H 134.035 3.1681 2.81793 0
M  V30 1421 C 132.494 1.68517 2.91725 0
M  V30 1422 O 133.024 1.11718 3.85852 0
M  V30 1423 N 131.23 1.39277 2.55049 0
M  V30 1424 H 130.777 1.85655 1.78577 0
M  V30 1425 H 130.735 0.694791 3.06627 0
M  V30 1426 N 134.507 -0.190092 1.56449 0
M  V30 1427 C 135.437 -1.23816 1.97969 0
M  V30 1428 C 136.418 -1.47201 0.852395 0
M  V30 1429 O 137.603 -1.58854 1.1171 0
M  V30 1430 C 134.733 -2.5813 2.3235 0
M  V30 1431 C 133.687 -2.49348 3.47864 0
M  V30 1432 C 133.013 -3.8798 3.67934 0
M  V30 1433 C 134.313 -2.01424 4.81898 0
M  V30 1434 H 136.007 -0.89311 2.85769 0
M  V30 1435 H 133.553 -0.428177 1.37487 0
M  V30 1436 H 135.506 -3.31637 2.59991 0
M  V30 1437 H 134.23 -2.94386 1.41438 0
M  V30 1438 H 132.889 -1.78297 3.20321 0
M  V30 1439 H 132.537 -4.21597 2.74344 0
M  V30 1440 H 132.237 -3.82978 4.45648 0
M  V30 1441 H 133.761 -4.63101 3.97957 0
M  V30 1442 H 135.175 -2.64693 5.08538 0
M  V30 1443 H 133.572 -2.07413 5.63116 0
M  V30 1444 H 134.642 -0.967677 4.75146 0
M  V30 1445 N 135.985 -1.50799 -0.457987 0
M  V30 1446 C 136.948 -1.7005 -1.53674 0
M  V30 1447 C 137.948 -0.570881 -1.50325 0
M  V30 1448 O 139.138 -0.838126 -1.52712 0
M  V30 1449 C 136.27 -1.73788 -2.93276 0
M  V30 1450 H 137.463 -2.66306 -1.37917 0
M  V30 1451 H 135.016 -1.40477 -0.685271 0
M  V30 1452 H 135.751 -0.792717 -3.14462 0
M  V30 1453 H 135.536 -2.55864 -2.97113 0
M  V30 1454 H 137.026 -1.90591 -3.71571 0
M  V30 1455 N 137.463 0.71206 -1.40597 0
M  V30 1456 C 138.709 1.47416 -1.39271 0
M  V30 1457 C 139.042 1.942 0.00388791 0
M  V30 1458 O 138.317 1.68403 0.973179 0
M  V30 1459 C 138.6 2.69774 -2.38525 0
M  V30 1460 C 138.453 2.28861 -3.87224 0
M  V30 1461 C 139.772 3.71939 -2.35264 0
M  V30 1462 H 136.891 0.534713 -0.5072 0
M  V30 1463 H 139.533 0.812375 -1.71757 0
M  V30 1464 H 137.683 3.26238 -2.10953 0
M  V30 1465 H 139.355 1.77852 -4.25636 0
M  V30 1466 H 137.598 1.60824 -4.02887 0
M  V30 1467 H 138.269 3.16584 -4.52193 0
M  V30 1468 H 140.745 3.25113 -2.59694 0
M  V30 1469 H 139.621 4.55186 -3.06753 0
M  V30 1470 H 139.882 4.20484 -1.36549 0
M  V30 1471 N 138.941 1.26152 0.944643 0
M  V30 1472 C 139.904 1.07474 2.0244 0
M  V30 1473 C 140.904 0.0242064 1.60782 0
M  V30 1474 O 142.094 0.267302 1.72137 0
M  V30 1475 C 139.226 0.633956 3.34953 0
M  V30 1476 H 140.419 2.03336 2.20442 0
M  V30 1477 H 137.972 1.087 1.12312 0
M  V30 1478 H 138.707 -0.326811 3.22649 0
M  V30 1479 H 138.492 1.39247 3.66542 0
M  V30 1480 H 139.982 0.52501 4.14287 0
M  V30 1481 N 140.419 -1.14872 1.07899 0
M  V30 1482 C 141.696 -1.81928 0.71845 0
M  V30 1483 C 142.076 -1.95417 -0.798455 0
M  V30 1484 O 141.424 -1.50997 -1.715 0
M  V30 1485 C 141.634 -3.17937 1.43935 0
M  V30 1486 C 142.982 -3.93501 1.59506 0
M  V30 1487 O 144.006 -3.27509 1.40058 0
M  V30 1488 O 142.865 -5.1183 1.91551 0
M  V30 1489 H 139.959 -0.78628 0.256305 0
M  V30 1490 H 142.505 -1.21934 1.18026 0
M  V30 1491 H 141.277 -3.0325 2.47295 0
M  V30 1492 H 140.9 -3.85619 0.968687 0
M  V30 1493 N 141.898 -0.863906 -1.31812 0
M  V30 1494 C 142.828 -0.330843 -2.31144 0
M  V30 1495 C 143.809 0.575005 -1.60087 0
M  V30 1496 O 144.994 0.493304 -1.8783 0
M  V30 1497 C 142.124 0.47374 -3.44054 0
M  V30 1498 C 141.078 -0.338481 -4.26659 0
M  V30 1499 C 140.404 0.591412 -5.31419 0
M  V30 1500 C 141.704 -1.56926 -4.98168 0
M  V30 1501 H 143.398 -1.16086 -2.75979 0
M  V30 1502 H 140.944 -0.559657 -1.32679 0
M  V30 1503 H 142.897 0.857143 -4.12591 0
M  V30 1504 H 141.621 1.33721 -2.9797 0
M  V30 1505 H 140.28 -0.703754 -3.59782 0
M  V30 1506 H 139.928 1.45199 -4.81587 0
M  V30 1507 H 139.628 0.0519022 -5.87577 0
M  V30 1508 H 141.152 0.97179 -6.02817 0
M  V30 1509 H 142.566 -1.25764 -5.59336 0
M  V30 1510 H 140.963 -2.04739 -5.64094 0
M  V30 1511 H 142.033 -2.32544 -4.25501 0
M  V30 1512 N 143.376 1.44774 -0.622745 0
M  V30 1513 C 144.306 2.33382 0.0741861 0
M  V30 1514 C 145.287 1.47719 0.843387 0
M  V30 1515 O 146.472 1.76458 0.810934 0
M  V30 1516 C 143.602 3.30663 1.06204 0
M  V30 1517 C 142.556 4.26079 0.405037 0
M  V30 1518 C 141.882 5.13165 1.5022 0
M  V30 1519 C 143.182 5.1781 -0.683414 0
M  V30 1520 H 144.876 2.91905 -0.665713 0
M  V30 1521 H 142.422 1.40363 -0.321587 0
M  V30 1522 H 144.375 3.9153 1.55827 0
M  V30 1523 H 143.099 2.70331 1.83272 0
M  V30 1524 H 141.758 3.66532 -0.0704683 0
M  V30 1525 H 141.406 4.49191 2.26355 0
M  V30 1526 H 141.106 5.77812 1.06803 0
M  V30 1527 H 142.63 5.76902 2.00041 0
M  V30 1528 H 144.044 5.72661 -0.270631 0
M  V30 1529 H 142.441 5.91015 -1.04023 0
M  V30 1530 H 143.511 4.59326 -1.55395 0
M  V30 1531 N 144.854 0.36279 1.53368 0
M  V30 1532 C 146.1 -0.228113 2.01513 0
M  V30 1533 C 146.433 -1.48648 1.2497 0
M  V30 1534 O 145.708 -1.91459 0.342616 0
M  V30 1535 C 145.991 -0.522884 3.56284 0
M  V30 1536 C 145.844 0.74892 4.43521 0
M  V30 1537 C 147.163 -1.32461 4.19693 0
M  V30 1538 H 144.282 -0.0814343 0.732487 0
M  V30 1539 H 146.924 0.48713 1.83649 0
M  V30 1540 H 145.074 -1.1322 3.71636 0
M  V30 1541 H 146.746 1.38648 4.39971 0
M  V30 1542 H 144.989 1.36986 4.11603 0
M  V30 1543 H 145.66 0.497667 5.49752 0
M  V30 1544 H 148.136 -0.809203 4.08156 0
M  V30 1545 H 147.012 -1.49961 5.28018 0
M  V30 1546 H 147.273 -2.33232 3.75573 0
M  V30 1547 N 146.332 -1.57332 0.0918853 0
M  V30 1548 C 147.28 -2.15075 -0.885747 0
M  V30 1549 C 148.274 -1.09277 -1.29441 0
M  V30 1550 O 149.48 -1.27627 -1.26931 0
M  V30 1551 H 145.855 -0.687966 -0.303656 0
M  V30 1552 H 147.826 -2.96047 -0.373995 0
M  V30 1553 C 146.575 -2.74325 -2.13638 0
M  V30 1554 H 145.898 -3.55418 -1.8308 0
M  V30 1555 H 147.338 -3.183 -2.80109 0
M  V30 1556 C 145.797 -1.70062 -2.90827 0
M  V30 1557 O 146.327 -1.13763 -3.85254 0
M  V30 1558 N 144.533 -1.40628 -2.54307 0
M  V30 1559 H 144.08 -1.866 -1.7759 0
M  V30 1560 H 144.038 -0.711043 -3.06254 0
M  V30 1561 N 147.81 0.181792 -1.56548 0
M  V30 1562 C 149.038 0.915947 -1.85521 0
M  V30 1563 C 149.453 1.76282 -0.676016 0
M  V30 1564 O 148.81 1.79012 0.355077 0
M  V30 1565 C 148.861 1.80126 -3.13427 0
M  V30 1566 O 148.582 0.988562 -4.26801 0
M  V30 1567 C 150.083 2.64597 -3.55673 0
M  V30 1568 H 147.303 0.26661 -0.61576 0
M  V30 1569 H 149.847 0.185039 -2.03661 0
M  V30 1570 H 148.002 2.48563 -2.97145 0
M  V30 1571 H 148.416 1.59308 -4.99721 0
M  V30 1572 H 149.89 3.2235 -4.48101 0
M  V30 1573 H 150.367 3.38958 -2.79292 0
M  V30 1574 H 150.973 2.0151 -3.74532 0
M  V30 1575 N 149.288 1.51039 0.449983 0
M  V30 1576 C 150.218 1.74379 1.55288 0
M  V30 1577 C 151.199 0.593236 1.5942 0
M  V30 1578 O 152.384 0.834625 1.7535 0
M  V30 1579 C 149.514 1.85728 2.93466 0
M  V30 1580 C 148.468 3.01078 3.04197 0
M  V30 1581 C 147.794 2.97595 4.44231 0
M  V30 1582 C 149.094 4.41254 2.7945 0
M  V30 1583 H 150.788 2.66725 1.36008 0
M  V30 1584 H 148.334 1.2835 0.652864 0
M  V30 1585 H 150.287 2.0064 3.70569 0
M  V30 1586 H 149.011 0.900207 3.13949 0
M  V30 1587 H 147.67 2.85851 2.29531 0
M  V30 1588 H 147.318 1.99691 4.61663 0
M  V30 1589 H 147.018 3.75046 4.52343 0
M  V30 1590 H 148.542 3.14583 5.23326 0
M  V30 1591 H 149.956 4.56897 3.46292 0
M  V30 1592 H 148.353 5.20315 2.98985 0
M  V30 1593 H 149.423 4.52164 1.75144 0
M  V30 1594 N 150.766 -0.704594 1.40972 0
M  V30 1595 C 152.006 -1.47691 1.41304 0
M  V30 1596 C 152.37 -1.91992 0.0178582 0
M  V30 1597 O 153.571 -2.68599 -0.103996 0
M  V30 1598 C 151.842 -2.66254 2.38419 0
M  V30 1599 S 153.401 -3.55516 2.57204 0
M  V30 1600 H 150.219 -0.504808 0.500689 0
M  V30 1601 H 152.821 -0.822962 1.77335 0
M  V30 1602 H 151.525 -2.31897 3.38603 0
M  V30 1603 H 151.056 -3.3655 2.03711 0
M  V30 1604 H 153.071 -4.61115 1.83268 0
M  V30 1605 N 152.244 -1.26651 -0.937939 0
M  V30 1606 C 153.174 -1.10993 -2.05433 0
M  V30 1607 C 154.155 -0.0142161 -1.70094 0
M  V30 1608 O 155.34 -0.186837 -1.93299 0
M  V30 1609 C 152.47 -0.745561 -3.39203 0
M  V30 1610 C 151.424 -1.79337 -3.88616 0
M  V30 1611 C 150.75 -1.28324 -5.19073 0
M  V30 1612 C 152.05 -3.19553 -4.13138 0
M  V30 1613 H 153.744 -2.0438 -2.1879 0
M  V30 1614 H 151.29 -0.984041 -1.05131 0
M  V30 1615 H 153.243 -0.622888 -4.16771 0
M  V30 1616 H 151.967 0.22401 -3.25831 0
M  V30 1617 H 150.626 -1.90477 -3.13231 0
M  V30 1618 H 150.274 -0.303414 -5.02084 0
M  V30 1619 H 149.974 -1.98369 -5.53103 0
M  V30 1620 H 151.498 -1.1733 -5.99221 0
M  V30 1621 H 152.912 -3.11471 -4.81309 0
M  V30 1622 H 151.309 -3.87218 -4.58457 0
M  V30 1623 H 152.379 -3.65368 -3.18801 0
M  V30 1624 N 153.722 1.14298 -1.08507 0
M  V30 1625 C 155.133 1.66926 -0.836227 0
M  V30 1626 C 155.484 1.85576 0.63686 0
M  V30 1627 O 154.609 1.56767 1.49175 0
M  V30 1628 C 155.204 3.03219 -1.51142 0
M  V30 1629 C 153.763 3.52876 -1.30979 0
M  V30 1630 C 152.91 2.2833 -1.57356 0
M  V30 1631 H 155.861 0.983491 -1.24552 0
M  V30 1632 H 155.882 3.68726 -0.939211 0
M  V30 1633 H 155.394 2.89612 -2.58353 0
M  V30 1634 H 153.495 3.71703 -0.258429 0
M  V30 1635 H 153.608 4.33586 -2.03814 0
M  V30 1636 H 151.972 2.34454 -0.995164 0
M  V30 1637 H 152.755 2.17298 -2.65775 0
M  V30 1638 N 155.201 0.870884 1.31352 0
M  V30 1639 C 156.448 0.482273 1.96673 0
M  V30 1640 C 156.776 -0.965638 1.68836 0
M  V30 1641 O 156.031 -1.69514 0.977937 0
M  V30 1642 C 156.33 0.687157 3.50732 0
M  V30 1643 C 155.996 2.108 3.9859 0
M  V30 1644 C 154.658 2.49656 4.1137 0
M  V30 1645 C 157.01 3.03459 4.23748 0
M  V30 1646 C 154.338 3.80412 4.46659 0
M  V30 1647 C 156.69 4.3373 4.60501 0
M  V30 1648 C 155.354 4.725 4.71487 0
M  V30 1649 H 154.624 0.176476 0.719679 0
M  V30 1650 H 157.271 1.10405 1.56471 0
M  V30 1651 H 155.576 -0.0177476 3.91796 0
M  V30 1652 H 157.273 0.366284 3.99324 0
M  V30 1653 H 153.863 1.79633 3.8914 0
M  V30 1654 H 158.047 2.74665 4.13368 0
M  V30 1655 H 153.303 4.1021 4.53362 0
M  V30 1656 H 157.477 5.05578 4.78919 0
M  V30 1657 H 155.104 5.73859 4.98588 0
M  V30 1658 N 156.679 -1.44442 0.630414 0
M  V30 1659 C 157.907 -2.06414 0.141671 0
M  V30 1660 C 158.322 -1.47105 -1.18345 0
M  V30 1661 O 157.679 -0.593662 -1.72574 0
M  V30 1662 C 157.73 -3.61494 0.0199784 0
M  V30 1663 O 157.451 -4.18594 1.29269 0
M  V30 1664 C 158.952 -4.40499 -0.497544 0
M  V30 1665 H 156.172 -0.666292 0.0793452 0
M  V30 1666 H 158.716 -1.85323 0.864614 0
M  V30 1667 H 156.871 -3.8185 -0.653402 0
M  V30 1668 H 157.285 -5.12026 1.13707 0
M  V30 1669 H 158.759 -5.49433 -0.531708 0
M  V30 1670 H 159.236 -4.11895 -1.52445 0
M  V30 1671 H 159.842 -4.25061 0.142562 0
M  V30 1672 N 158.157 -0.370918 -1.53173 0
M  V30 1673 C 159.087 0.464847 -2.28826 0
M  V30 1674 C 160.068 1.07936 -1.31468 0
M  V30 1675 O 161.253 1.0956 -1.60344 0
M  V30 1676 C 158.383 1.60196 -3.08147 0
M  V30 1677 C 157.337 1.11443 -4.13237 0
M  V30 1678 C 156.663 2.3422 -4.80672 0
M  V30 1679 C 157.963 0.195384 -5.21934 0
M  V30 1680 H 159.657 -0.166329 -2.98938 0
M  V30 1681 H 157.203 -0.0814359 -1.4377 0
M  V30 1682 H 159.156 2.19332 -3.59822 0
M  V30 1683 H 157.88 2.26045 -2.35735 0
M  V30 1684 H 156.539 0.545727 -3.62515 0
M  V30 1685 H 156.187 2.98537 -4.04827 0
M  V30 1686 H 155.887 2.02269 -5.51689 0
M  V30 1687 H 157.411 2.94032 -5.35143 0
M  V30 1688 H 158.825 0.694375 -5.69079 0
M  V30 1689 H 157.222 -0.0335027 -6.00091 0
M  V30 1690 H 158.292 -0.760961 -4.78892 0
M  V30 1691 N 159.635 1.57281 -0.100228 0
M  V30 1692 C 160.863 1.98879 0.570509 0
M  V30 1693 C 161.278 0.979476 1.61405 0
M  V30 1694 O 160.635 -0.0302288 1.82475 0
M  V30 1695 C 160.686 3.4052 1.2136 0
M  V30 1696 O 160.407 4.37588 0.211786 0
M  V30 1697 C 161.908 3.97149 1.96945 0
M  V30 1698 H 159.128 0.653428 0.152555 0
M  V30 1699 H 161.672 2.03697 -0.18103 0
M  V30 1700 H 159.827 3.367 1.91603 0
M  V30 1701 H 160.241 5.20118 0.676607 0
M  V30 1702 H 161.715 4.98393 2.37294 0
M  V30 1703 H 162.192 3.3525 2.83733 0
M  V30 1704 H 162.798 4.04458 1.31506 0
M  V30 1705 N 161.113 -0.173488 1.56642 0
M  V30 1706 C 162.343 -0.904781 1.85734 0
M  V30 1707 C 162.751 -1.76431 0.68328 0
M  V30 1708 O 162.094 -1.802 -0.356865 0
M  V30 1709 C 162.156 -1.83382 3.09211 0
M  V30 1710 C 161.82 -1.15411 4.42187 0
M  V30 1711 C 162.817 -0.520609 5.17287 0
M  V30 1712 C 160.502 -1.15151 4.88923 0
M  V30 1713 C 162.496 0.106412 6.37311 0
M  V30 1714 C 160.183 -0.520664 6.08878 0
M  V30 1715 C 161.181 0.107196 6.82916 0
M  V30 1716 O 160.869 0.728102 8.00596 0
M  V30 1717 H 160.601 -0.268408 0.62043 0
M  V30 1718 H 163.155 -0.179096 2.04618 0
M  V30 1719 H 161.385 -2.59976 2.86268 0
M  V30 1720 H 163.074 -2.43476 3.24768 0
M  V30 1721 H 163.84 -0.514606 4.82262 0
M  V30 1722 H 159.719 -1.62961 4.31236 0
M  V30 1723 H 163.263 0.597081 6.9504 0
M  V30 1724 H 159.16 -0.524242 6.43368 0
M  V30 1725 H 159.928 0.627138 8.16094 0
M  V30 1726 N 162.591 -1.51276 -0.441967 0
M  V30 1727 C 163.819 -1.67516 -1.21434 0
M  V30 1728 C 164.234 -0.37055 -1.85128 0
M  V30 1729 O 163.591 0.650498 -1.70513 0
M  V30 1730 C 163.642 -2.78748 -2.30177 0
M  V30 1731 O 163.363 -4.04154 -1.69089 0
M  V30 1732 C 164.864 -3.06217 -3.20541 0
M  V30 1733 H 162.084 -0.562276 -0.366178 0
M  V30 1734 H 164.628 -1.97666 -0.524244 0
M  V30 1735 H 162.783 -2.5121 -2.94911 0
M  V30 1736 H 163.197 -4.65894 -2.40922 0
M  V30 1737 H 164.671 -3.8764 -3.92987 0
M  V30 1738 H 165.148 -2.18439 -3.81026 0
M  V30 1739 H 165.754 -3.35397 -2.61513 0
M  V30 1740 N 164.069 0.697108 -1.41344 0
M  V30 1741 C 164.999 1.82353 -1.45841 0
M  V30 1742 C 165.98 1.67115 -0.317247 0
M  V30 1743 O 167.165 1.86871 -0.528474 0
M  V30 1744 C 164.295 3.20476 -1.33838 0
M  V30 1745 C 163.249 3.50415 -2.4575 0
M  V30 1746 C 162.575 4.87878 -2.18813 0
M  V30 1747 C 163.875 3.49546 -3.88091 0
M  V30 1748 H 165.569 1.78846 -2.40113 0
M  V30 1749 H 163.115 0.859028 -1.15571 0
M  V30 1750 H 165.068 3.98988 -1.35596 0
M  V30 1751 H 163.792 3.24604 -0.360498 0
M  V30 1752 H 162.451 2.74253 -2.43271 0
M  V30 1753 H 162.099 4.8863 -1.19371 0
M  V30 1754 H 161.799 5.08875 -2.93803 0
M  V30 1755 H 163.323 5.68702 -2.22284 0
M  V30 1756 H 164.737 4.18066 -3.92293 0
M  V30 1757 H 163.134 3.82075 -4.62751 0
M  V30 1758 H 164.204 2.48552 -4.16353 0
M  V30 1759 N 165.547 1.27147 0.931209 0
M  V30 1760 C 166.48 1.0389 2.0318 0
M  V30 1761 C 167.458 -0.0395716 1.62552 0
M  V30 1762 O 168.642 0.104867 1.88208 0
M  V30 1763 C 165.769 0.575227 3.3378 0
M  V30 1764 C 164.815 1.64774 3.93385 0
M  V30 1765 S 165.648 3.23933 4.26413 0
M  V30 1766 C 166.804 2.79358 5.60098 0
M  V30 1767 H 167.037 1.97075 2.22596 0
M  V30 1768 H 164.57 1.10938 1.07387 0
M  V30 1769 H 166.528 0.314385 4.09294 0
M  V30 1770 H 165.189 -0.336505 3.12292 0
M  V30 1771 H 164.382 1.27454 4.87618 0
M  V30 1772 H 163.984 1.86048 3.24441 0
M  V30 1773 H 166.276 2.24443 6.39243 0
M  V30 1774 H 167.219 3.72322 6.02314 0
M  V30 1775 H 167.627 2.1861 5.20452 0
M  V30 1776 N 167.025 -1.13721 1.09112 0
M  V30 1777 C 168.273 -1.84559 0.823562 0
M  V30 1778 C 168.594 -1.83754 -0.652658 0
M  V30 1779 O 167.864 -1.29102 -1.47342 0
M  V30 1780 H 166.444 -0.683376 0.301673 0
M  V30 1781 H 169.106 -1.37771 1.37859 0
M  V30 1782 H 168.202 -2.8917 1.17419 0
M  V30 1783 N 168.503 -0.877838 -1.30888 0
M  V30 1784 C 169.413 -0.343096 -2.32078 0
M  V30 1785 C 170.429 0.551022 -1.65045 0
M  V30 1786 O 171.605 0.445854 -1.96403 0
M  V30 1787 C 168.67 0.439905 -3.43898 0
M  V30 1788 C 167.731 -0.483111 -4.26573 0
M  V30 1789 C 166.964 0.262616 -5.33053 0
M  V30 1790 O 167.187 1.48967 -5.50604 0
M  V30 1791 O 166.121 -0.383593 -6.00676 0
M  V30 1792 H 169.947 -1.18203 -2.79753 0
M  V30 1793 H 167.532 -0.64145 -1.34929 0
M  V30 1794 H 169.414 0.883504 -4.12034 0
M  V30 1795 H 168.089 1.25526 -2.98371 0
M  V30 1796 H 166.996 -0.975374 -3.61161 0
M  V30 1797 H 168.329 -1.26427 -4.75686 0
M  V30 1798 N 169.982 1.44106 -0.638065 0
M  V30 1799 C 171.228 2.02815 -0.15409 0
M  V30 1800 C 171.583 1.49342 1.21304 0
M  V30 1801 O 170.876 0.670699 1.79478 0
M  V30 1802 C 171.07 3.5729 -0.0887327 0
M  V30 1803 C 170.899 4.2575 -1.44799 0
M  V30 1804 C 169.669 4.62443 -2.03653 0
M  V30 1805 C 171.867 4.55746 -2.38327 0
M  V30 1806 N 169.849 5.15903 -3.32741 0
M  V30 1807 C 171.22 5.10364 -3.52036 0
M  V30 1808 C 173.275 4.37703 -2.3732 0
M  V30 1809 C 171.978 5.48837 -4.64941 0
M  V30 1810 C 174.004 4.77229 -3.49294 0
M  V30 1811 C 173.366 5.31966 -4.61726 0
M  V30 1812 H 169.465 0.775519 -0.100466 0
M  V30 1813 H 172.049 1.755 -0.843071 0
M  V30 1814 H 170.22 3.84201 0.569548 0
M  V30 1815 H 171.952 4.02671 0.404711 0
M  V30 1816 H 168.707 4.46987 -1.56523 0
M  V30 1817 H 169.131 5.47102 -3.98758 0
M  V30 1818 H 173.773 3.94671 -1.51641 0
M  V30 1819 H 171.491 5.9082 -5.51323 0
M  V30 1820 H 175.077 4.64976 -3.49698 0
M  V30 1821 H 173.957 5.61986 -5.46939 0
M  V30 1822 N 171.46 0.379036 1.52974 0
M  V30 1823 C 172.407 -0.461048 2.26148 0
M  V30 1824 C 173.377 -1.06637 1.27349 0
M  V30 1825 O 174.562 -1.09633 1.56157 0
M  V30 1826 C 171.702 -1.58782 3.06402 0
M  V30 1827 C 170.815 -1.00636 4.20115 0
M  V30 1828 C 169.95 -2.10334 4.87784 0
M  V30 1829 C 168.989 -1.49724 5.93506 0
M  V30 1830 N 168.126 -2.5331 6.54812 0
M  V30 1831 H 172.966 0.169429 2.97518 0
M  V30 1832 H 170.503 0.0953806 1.4679 0
M  V30 1833 H 172.461 -2.25174 3.51215 0
M  V30 1834 H 171.091 -2.18876 2.37261 0
M  V30 1835 H 170.143 -0.232332 3.7969 0
M  V30 1836 H 171.455 -0.523343 4.96047 0
M  V30 1837 H 170.609 -2.84519 5.35849 0
M  V30 1838 H 169.348 -2.61992 4.11353 0
M  V30 1839 H 168.353 -0.740598 5.44789 0
M  V30 1840 H 169.578 -0.988732 6.71864 0
M  V30 1841 H 167.524 -3.04156 5.81227 0
M  V30 1842 H 167.441 -2.09734 7.26325 0
M  V30 1843 H 168.709 -3.27155 7.07524 0
M  V30 1844 N 172.938 -1.57226 0.108567 0
M  V30 1845 C 173.871 -2.10447 -0.882464 0
M  V30 1846 C 174.849 -1.01829 -1.26766 0
M  V30 1847 O 176.033 -1.29415 -1.37054 0
M  V30 1848 C 173.16 -2.59258 -2.17952 0
M  V30 1849 C 172.206 -3.79662 -1.94318 0
M  V30 1850 S 173.039 -5.22586 -1.16892 0
M  V30 1851 C 174.195 -5.74758 -2.47799 0
M  V30 1852 H 174.428 -2.94178 -0.429745 0
M  V30 1853 H 171.961 -1.54043 -0.105 0
M  V30 1854 H 173.919 -2.88036 -2.92482 0
M  V30 1855 H 172.58 -1.75728 -2.60343 0
M  V30 1856 H 171.773 -4.11928 -2.90399 0
M  V30 1857 H 171.375 -3.51446 -1.27913 0
M  V30 1858 H 173.667 -5.83846 -3.43701 0
M  V30 1859 H 174.61 -6.73027 -2.20093 0
M  V30 1860 H 175.018 -5.02763 -2.56689 0
M  V30 1861 N 174.416 0.165178 -1.56732 0
M  V30 1862 C 175.664 0.879068 -1.8198 0
M  V30 1863 C 175.985 1.82514 -0.686561 0
M  V30 1864 O 175.255 1.93694 0.293146 0
M  V30 1865 H 173.835 0.327608 -0.671329 0
M  V30 1866 H 176.497 0.163526 -1.94213 0
M  V30 1867 H 175.593 1.45228 -2.76252 0
M  V30 1868 N 175.894 1.51508 0.433938 0
M  V30 1869 C 177.305 1.56784 1.01369 0
M  V30 1870 C 177.656 0.393349 1.92217 0
M  V30 1871 O 176.781 -0.489441 2.10792 0
M  V30 1872 C 177.376 2.84144 1.8452 0
M  V30 1873 C 175.935 2.9198 2.37539 0
M  V30 1874 C 175.082 2.51482 1.16843 0
M  V30 1875 H 178.033 1.57236 0.215081 0
M  V30 1876 H 178.054 2.68098 2.70007 0
M  V30 1877 H 177.566 3.69607 1.18373 0
M  V30 1878 H 175.667 2.10955 3.0713 0
M  V30 1879 H 175.78 3.95704 2.70103 0
M  V30 1880 H 174.144 2.04758 1.51481 0
M  V30 1881 H 174.927 3.39293 0.523015 0
M  V30 1882 N 177.372 -0.689602 1.41712 0
M  V30 1883 C 178.618 -1.45181 1.41599 0
M  V30 1884 C 178.951 -1.94181 0.0270081 0
M  V30 1885 O 178.226 -1.6993 -0.946265 0
M  V30 1886 C 178.509 -2.65945 2.42787 0
M  V30 1887 C 178.362 -2.22672 3.90816 0
M  V30 1888 C 179.681 -3.68149 2.41151 0
M  V30 1889 H 176.8 -0.526576 0.515642 0
M  V30 1890 H 179.442 -0.784947 1.73028 0
M  V30 1891 H 177.592 -3.2284 2.16116 0
M  V30 1892 H 179.264 -1.71058 4.28412 0
M  V30 1893 H 177.507 -1.54394 4.05395 0
M  V30 1894 H 178.178 -3.0935 4.57172 0
M  V30 1895 H 180.654 -3.2094 2.64834 0
M  V30 1896 H 179.53 -4.50248 3.13955 0
M  V30 1897 H 179.791 -4.18259 1.43221 0
M  V30 1898 N 178.85 -1.27639 -0.924453 0
M  V30 1899 C 179.78 -1.13166 -2.04244 0
M  V30 1900 C 180.761 -0.032256 -1.70069 0
M  V30 1901 O 181.946 -0.207328 -1.9309 0
M  V30 1902 C 179.076 -0.781496 -3.38393 0
M  V30 1903 C 178.03 -1.83449 -3.86692 0
M  V30 1904 C 177.356 -1.33822 -5.17683 0
M  V30 1905 C 178.656 -3.23917 -4.09726 0
M  V30 1906 H 180.35 -2.06689 -2.1661 0
M  V30 1907 H 177.896 -0.995136 -1.04082 0
M  V30 1908 H 179.849 -0.667057 -4.16087 0
M  V30 1909 H 178.573 0.189439 -3.2605 0
M  V30 1910 H 177.232 -1.93789 -3.11193 0
M  V30 1911 H 176.88 -0.35665 -5.01734 0
M  V30 1912 H 176.58 -2.04224 -5.50968 0
M  V30 1913 H 178.104 -1.23679 -5.97943 0
M  V30 1914 H 179.518 -3.16559 -4.77978 0
M  V30 1915 H 177.915 -3.92059 -4.54324 0
M  V30 1916 H 178.985 -3.68729 -3.14908 0
M  V30 1917 N 180.328 1.1314 -1.09713 0
M  V30 1918 C 181.568 1.8613 -0.844683 0
M  V30 1919 C 181.932 1.81765 0.618491 0
M  V30 1920 O 183.133 2.50024 0.98699 0
M  V30 1921 C 181.404 3.30151 -1.36877 0
M  V30 1922 S 182.963 4.206 -1.25064 0
M  V30 1923 H 179.781 0.642056 -0.305427 0
M  V30 1924 H 182.383 1.36343 -1.4011 0
M  V30 1925 H 181.087 3.30883 -2.42786 0
M  V30 1926 H 180.618 3.85 -0.808614 0
M  V30 1927 H 182.633 4.95783 -0.203486 0
M  V30 1928 N 181.806 0.884767 1.30421 0
M  V30 1929 C 182.756 0.322846 2.25703 0
M  V30 1930 C 183.74 -0.548582 1.51259 0
M  V30 1931 O 184.932 -0.39304 1.72581 0
M  V30 1932 C 182.061 -0.461787 3.4018 0
M  V30 1933 C 181.147 0.423717 4.21978 0
M  V30 1934 N 181.538 1.52408 4.82292 0
M  V30 1935 C 179.836 0.218795 4.45463 0
M  V30 1936 C 180.537 2.07136 5.43571 0
M  V30 1937 N 179.513 1.36635 5.26148 0
M  V30 1938 H 183.315 1.16363 2.69883 0
M  V30 1939 H 180.829 0.73415 1.44859 0
M  V30 1940 H 182.826 -0.880985 4.07485 0
M  V30 1941 H 181.486 -1.30001 2.9754 0
M  V30 1942 H 182.497 1.90693 4.81515 0
M  V30 1943 H 179.174 -0.582275 4.1342 0
M  V30 1944 H 180.564 2.99538 6.01437 0
M  V30 1945 N 183.284 -1.43765 0.645699 0
M  V30 1946 C 184.214 -2.33471 -0.0370477 0
M  V30 1947 C 185.195 -1.49042 -0.819779 0
M  V30 1948 O 186.38 -1.77726 -0.782758 0
M  V30 1949 C 183.51 -3.32311 -1.0093 0
M  V30 1950 C 182.464 -4.2667 -0.337201 0
M  V30 1951 C 181.79 -5.1549 -1.42037 0
M  V30 1952 C 183.09 -5.16657 0.765706 0
M  V30 1953 H 184.784 -2.90809 0.712069 0
M  V30 1954 H 182.33 -1.39834 0.343876 0
M  V30 1955 H 184.283 -3.9396 -1.49578 0
M  V30 1956 H 183.007 -2.73213 -1.78948 0
M  V30 1957 H 181.666 -3.66374 0.128771 0
M  V30 1958 H 181.314 -4.52735 -2.1918 0
M  V30 1959 H 181.014 -5.79438 -0.975966 0
M  V30 1960 H 182.538 -5.80012 -1.90838 0
M  V30 1961 H 183.952 -5.72158 0.361702 0
M  V30 1962 H 182.349 -5.89286 1.13413 0
M  V30 1963 H 183.419 -4.56796 1.62683 0
M  V30 1964 N 184.763 -0.387143 -1.52771 0
M  V30 1965 C 186.009 0.196025 -2.0185 0
M  V30 1966 C 186.342 1.46641 -1.27319 0
M  V30 1967 O 185.617 1.90889 -0.373032 0
M  V30 1968 C 185.9 0.466136 -3.5707 0
M  V30 1969 C 185.753 -0.819385 -4.42274 0
M  V30 1970 C 187.072 1.25768 -4.21747 0
M  V30 1971 H 184.191 0.0697708 -0.73369 0
M  V30 1972 H 186.833 -0.516286 -1.82851 0
M  V30 1973 H 184.983 1.07293 -3.7339 0
M  V30 1974 H 186.655 -1.4563 -4.37709 0
M  V30 1975 H 184.898 -1.43517 -4.09372 0
M  V30 1976 H 185.569 -0.585065 -5.48891 0
M  V30 1977 H 188.045 0.744167 -4.09391 0
M  V30 1978 H 186.921 1.41541 -5.30337 0
M  V30 1979 H 187.182 2.27228 -3.79236 0
M  V30 1980 N 186.241 1.57166 -0.116904 0
M  V30 1981 C 187.652 1.82169 0.408809 0
M  V30 1982 C 188.003 1.03393 1.66746 0
M  V30 1983 O 187.128 0.269886 2.1471 0
M  V30 1984 C 187.723 3.30429 0.748466 0
M  V30 1985 C 186.282 3.5612 1.21882 0
M  V30 1986 C 185.429 2.76374 0.226452 0
M  V30 1987 H 188.38 1.5497 -0.342063 0
M  V30 1988 H 188.401 3.44943 1.60607 0
M  V30 1989 H 187.913 3.87737 -0.167784 0
M  V30 1990 H 186.014 3.04168 2.15204 0
M  V30 1991 H 186.127 4.64705 1.16559 0
M  V30 1992 H 184.491 2.44515 0.713063 0
M  V30 1993 H 185.274 3.3644 -0.682859 0
M  V30 1994 N 187.719 -0.156864 1.56817 0
M  V30 1995 C 188.949 -0.885031 1.86684 0
M  V30 1996 C 189.357 -1.75696 0.701954 0
M  V30 1997 O 188.7 -1.80569 -0.337732 0
M  V30 1998 C 188.762 -1.80092 3.11138 0
M  V30 1999 C 188.426 -1.10714 4.43386 0
M  V30 2000 C 189.423 -0.465714 5.1781 0
M  V30 2001 C 187.108 -1.09959 4.90117 0
M  V30 2002 C 189.102 0.174002 6.37162 0
M  V30 2003 C 186.789 -0.456055 6.09396 0
M  V30 2004 C 187.787 0.179622 6.82764 0
M  V30 2005 O 187.475 0.812975 7.99779 0
M  V30 2006 H 187.207 -0.261813 0.623242 0
M  V30 2007 H 189.761 -0.157383 2.04796 0
M  V30 2008 H 187.991 -2.56926 2.89009 0
M  V30 2009 H 189.68 -2.40018 3.27332 0
M  V30 2010 H 190.446 -0.463427 4.82781 0
M  V30 2011 H 186.325 -1.58378 4.3294 0
M  V30 2012 H 189.869 0.670765 6.94368 0
M  V30 2013 H 185.766 -0.455975 6.43888 0
M  V30 2014 H 186.534 0.71366 8.15383 0
M  V30 2015 N 189.197 -1.51736 -0.425897 0
M  V30 2016 C 190.16 -1.73271 -1.50032 0
M  V30 2017 C 191.16 -0.602639 -1.4908 0
M  V30 2018 O 192.35 -0.87033 -1.509 0
M  V30 2019 C 189.482 -1.79969 -2.89523 0
M  V30 2020 H 190.675 -2.69172 -1.32237 0
M  V30 2021 H 188.228 -1.41899 -0.65532 0
M  V30 2022 H 188.963 -0.859241 -3.1271 0
M  V30 2023 H 188.748 -2.62109 -2.91619 0
M  V30 2024 H 190.238 -1.9843 -3.67444 0
M  V30 2025 N 190.675 0.682077 -1.42076 0
M  V30 2026 C 191.607 1.80755 -1.40926 0
M  V30 2027 C 192.62 1.59833 -0.309398 0
M  V30 2028 O 193.809 1.69087 -0.572014 0
M  V30 2029 C 190.909 3.17744 -1.17865 0
M  V30 2030 C 190.082 3.65578 -2.40149 0
M  V30 2031 C 189.141 4.81277 -2.12742 0
M  V30 2032 O 188.167 4.92197 -2.85887 0
M  V30 2033 N 189.369 5.69474 -1.12602 0
M  V30 2034 H 192.134 1.82229 -2.37935 0
M  V30 2035 H 189.695 0.864903 -1.36861 0
M  V30 2036 H 191.687 3.9279 -0.9746 0
M  V30 2037 H 190.257 3.11214 -0.294068 0
M  V30 2038 H 189.477 2.81291 -2.76169 0
M  V30 2039 H 190.765 3.94278 -3.21593 0
M  V30 2040 H 190.163 5.63297 -0.520899 0
M  V30 2041 H 188.72 6.44363 -0.981842 0
M  V30 2042 N 192.153 1.28127 0.917671 0
M  V30 2043 C 193.401 1.14825 1.66312 0
M  V30 2044 C 193.722 -0.304379 1.9261 0
M  V30 2045 O 192.992 -1.21149 1.53947 0
M  V30 2046 H 191.572 0.421953 0.616413 0
M  V30 2047 H 194.234 1.608 1.10134 0
M  V30 2048 H 193.33 1.68489 2.62712 0
M  V30 2049 N 193.631 -1.12557 1.10312 0
M  V30 2050 C 194.561 -2.20341 0.772798 0
M  V30 2051 C 195.542 -1.68198 -0.25365 0
M  V30 2052 O 196.727 -1.93831 -0.119699 0
M  V30 2053 C 193.857 -3.46709 0.202443 0
M  V30 2054 C 192.811 -4.11996 1.15943 0
M  V30 2055 C 192.137 -5.328 0.450345 0
M  V30 2056 C 193.437 -4.5828 2.50552 0
M  V30 2057 H 195.131 -2.48229 1.674 0
M  V30 2058 H 192.677 -1.19308 0.806326 0
M  V30 2059 H 194.63 -4.2138 -0.0407752 0
M  V30 2060 H 193.354 -3.18245 -0.734001 0
M  V30 2061 H 192.013 -3.39305 1.38808 0
M  V30 2062 H 191.661 -5.00602 -0.490531 0
M  V30 2063 H 191.361 -5.7743 1.08851 0
M  V30 2064 H 192.885 -6.10219 0.215642 0
M  V30 2065 H 194.299 -5.2433 2.31843 0
M  V30 2066 H 192.696 -5.13683 3.10242 0
M  V30 2067 H 193.766 -3.72329 3.10643 0
M  V30 2068 N 195.109 -0.891671 -1.2995 0
M  V30 2069 C 196.072 -0.36828 -2.26222 0
M  V30 2070 C 197.072 0.493014 -1.53056 0
M  V30 2071 O 198.262 0.299213 -1.71611 0
M  V30 2072 C 195.394 0.47442 -3.37583 0
M  V30 2073 H 196.587 -1.21844 -2.74033 0
M  V30 2074 H 194.14 -0.669107 -1.41254 0
M  V30 2075 H 194.875 1.34489 -2.95099 0
M  V30 2076 H 194.66 -0.142615 -3.91841 0
M  V30 2077 H 196.15 0.83218 -4.09224 0
M  V30 2078 N 196.587 1.43421 -0.653314 0
M  V30 2079 C 197.833 2.02111 -0.166992 0
M  V30 2080 C 198.166 1.51423 1.21592 0
M  V30 2081 O 197.441 0.707389 1.8118 0
M  V30 2082 C 197.724 3.5966 -0.177948 0
M  V30 2083 C 197.577 4.20579 -1.59478 0
M  V30 2084 C 198.896 4.37413 0.4856 0
M  V30 2085 H 196.015 0.734374 -0.0621557 0
M  V30 2086 H 198.657 1.70717 -0.834016 0
M  V30 2087 H 196.807 3.86537 0.390032 0
M  V30 2088 H 198.479 4.04732 -2.21336 0
M  V30 2089 H 196.722 3.77226 -2.14204 0
M  V30 2090 H 197.393 5.29665 -1.5543 0
M  V30 2091 H 199.869 4.161 0.00234528 0
M  V30 2092 H 198.745 5.47075 0.447207 0
M  V30 2093 H 199.006 4.13672 1.55974 0
M  V30 2094 N 198.065 0.39524 1.52563 0
M  V30 2095 C 198.997 -0.472201 2.24283 0
M  V30 2096 C 200.01 -1.02178 1.26742 0
M  V30 2097 O 201.199 -0.923097 1.52778 0
M  V30 2098 C 198.299 -1.66775 2.95024 0
M  V30 2099 C 197.472 -1.2445 4.19322 0
M  V30 2100 C 196.531 -2.30539 4.7301 0
M  V30 2101 O 195.557 -1.91702 5.35947 0
M  V30 2102 N 196.759 -3.6253 4.53379 0
M  V30 2103 H 199.524 0.142282 2.99362 0
M  V30 2104 H 197.085 0.2219 1.60372 0
M  V30 2105 H 199.077 -2.37283 3.27839 0
M  V30 2106 H 197.647 -2.18845 2.23217 0
M  V30 2107 H 196.867 -0.368069 3.92478 0
M  V30 2108 H 198.155 -0.938457 5.0007 0
M  V30 2109 H 197.553 -3.96841 4.03154 0
M  V30 2110 H 196.11 -4.29055 4.90668 0
M  V30 2111 N 199.544 -1.57102 0.125237 0
M  V30 2112 C 200.79 -1.95697 -0.532035 0
M  V30 2113 C 201.123 -1.009 -1.6593 0
M  V30 2114 O 200.398 -0.047347 -1.94442 0
M  V30 2115 C 200.681 -3.44181 -1.05884 0
M  V30 2116 C 200.534 -4.49752 0.0654392 0
M  V30 2117 C 201.853 -3.94655 -1.9477 0
M  V30 2118 H 198.972 -0.711571 -0.191925 0
M  V30 2119 H 201.614 -1.88923 0.20206 0
M  V30 2120 H 199.764 -3.50085 -1.68442 0
M  V30 2121 H 201.436 -4.55943 0.700982 0
M  V30 2122 H 199.679 -4.27653 0.727709 0
M  V30 2123 H 200.35 -5.50924 -0.344505 0
M  V30 2124 H 202.826 -3.91094 -1.42074 0
M  V30 2125 H 201.702 -4.99057 -2.28546 0
M  V30 2126 H 201.963 -3.35718 -2.87656 0
M  V30 2127 N 201.022 0.148545 -1.56898 0
M  V30 2128 C 202.247 0.880385 -1.87787 0
M  V30 2129 C 202.672 1.74018 -0.714093 0
M  V30 2130 O 202.03 1.78153 0.336343 0
M  V30 2131 C 202.078 1.71422 -3.17249 0
M  V30 2132 O 201.182 2.8183 -3.01074 0
M  V30 2133 H 200.523 0.245301 -0.617028 0
M  V30 2134 H 203.053 0.139826 -2.04122 0
M  V30 2135 H 203.063 2.10954 -3.49231 0
M  V30 2136 H 201.738 1.08284 -4.01556 0
M  V30 2137 H 200.315 2.45715 -2.80497 0
M  V30 2138 N 202.5 1.5196 0.417844 0
M  V30 2139 C 203.728 1.69426 1.18753 0
M  V30 2140 C 204.143 0.399955 1.84515 0
M  V30 2141 O 203.5 -0.623288 1.71527 0
M  V30 2142 C 203.551 2.82375 2.25714 0
M  V30 2143 O 203.272 4.06793 1.62638 0
M  V30 2144 C 204.773 3.11277 3.15628 0
M  V30 2145 H 201.993 0.568031 0.357186 0
M  V30 2146 H 204.537 1.98475 0.49273 0
M  V30 2147 H 202.692 2.5587 2.90877 0
M  V30 2148 H 203.106 4.69667 2.3348 0
M  V30 2149 H 204.58 3.93843 3.86771 0
M  V30 2150 H 205.057 2.24473 3.77503 0
M  V30 2151 H 205.663 3.39515 2.56144 0
M  V30 2152 N 203.978 -0.674533 1.42435 0
M  V30 2153 C 205.227 -1.43034 1.42212 0
M  V30 2154 C 205.54 -1.95555 0.0420788 0
M  V30 2155 O 206.746 -2.71374 -0.0827558 0
M  V30 2156 C 205.202 -2.58748 2.50155 0
M  V30 2157 C 204.81 -2.12925 3.94166 0
M  V30 2158 C 206.554 -3.36257 2.59098 0
M  V30 2159 C 204.461 -3.25723 4.93618 0
M  V30 2160 H 203.391 -0.537345 0.528939 0
M  V30 2161 H 206.042 -0.73024 1.68344 0
M  V30 2162 H 204.424 -3.31128 2.17188 0
M  V30 2163 H 205.598 -1.47697 4.36488 0
M  V30 2164 H 203.913 -1.48354 3.89076 0
M  V30 2165 H 206.51 -4.20264 3.30578 0
M  V30 2166 H 206.853 -3.82866 1.63461 0
M  V30 2167 H 207.386 -2.70947 2.9126 0
M  V30 2168 H 204.125 -2.84105 5.90732 0
M  V30 2169 H 203.645 -3.89732 4.55926 0
M  V30 2170 H 205.324 -3.91186 5.15347 0
M  V30 2171 N 205.456 -1.28612 -0.910864 0
M  V30 2172 C 206.684 -1.18792 -1.69399 0
M  V30 2173 C 207.099 0.253039 -1.87097 0
M  V30 2174 O 206.456 1.17071 -1.40003 0
M  V30 2175 C 206.507 -1.88511 -3.08457 0
M  V30 2176 O 206.228 -3.26979 -2.91576 0
M  V30 2177 C 207.729 -1.85029 -4.02839 0
M  V30 2178 H 204.949 -0.412233 -0.529438 0
M  V30 2179 H 207.493 -1.69788 -1.13984 0
M  V30 2180 H 205.648 -1.41379 -3.60681 0
M  V30 2181 H 206.062 -3.61936 -3.79608 0
M  V30 2182 H 207.536 -2.38395 -4.97867 0
M  V30 2183 H 208.013 -0.823303 -4.31414 0
M  V30 2184 H 208.619 -2.31853 -3.56545 0
M  V30 2185 N 206.934 1.1197 -1.10907 0
M  V30 2186 C 207.864 2.19928 -0.784473 0
M  V30 2187 C 208.845 1.6833 0.244726 0
M  V30 2188 O 210.03 1.93892 0.109418 0
M  V30 2189 C 207.16 3.46597 -0.220827 0
M  V30 2190 C 206.114 4.11376 -1.18127 0
M  V30 2191 C 205.44 5.32554 -0.478594 0
M  V30 2192 C 206.74 4.56945 -2.52979 0
M  V30 2193 H 208.434 2.47337 -1.68715 0
M  V30 2194 H 205.98 1.18879 -0.812642 0
M  V30 2195 H 207.933 4.21396 0.0184278 0
M  V30 2196 H 206.657 3.1863 0.717113 0
M  V30 2197 H 205.316 3.38564 -1.40606 0
M  V30 2198 H 204.964 5.00856 0.463976 0
M  V30 2199 H 204.664 5.76844 -1.11912 0
M  V30 2200 H 206.188 6.10096 -0.248 0
M  V30 2201 H 207.602 5.23093 -2.3462 0
M  V30 2202 H 205.999 5.1203 -3.12962 0
M  V30 2203 H 207.069 3.70676 -3.12614 0
M  V30 2204 N 208.412 0.89855 1.29475 0
M  V30 2205 C 209.64 0.539261 1.99749 0
M  V30 2206 C 210.055 -0.875716 1.67262 0
M  V30 2207 O 209.412 -1.57786 0.917049 0
M  V30 2208 C 209.463 0.72061 3.54245 0
M  V30 2209 O 209.184 2.07989 3.8558 0
M  V30 2210 C 210.685 0.366118 4.41786 0
M  V30 2211 H 207.905 0.207047 0.638258 0
M  V30 2212 H 210.449 1.20758 1.65039 0
M  V30 2213 H 208.604 0.0994862 3.87272 0
M  V30 2214 H 209.018 2.10841 4.80257 0
M  V30 2215 H 210.492 0.543848 5.49314 0
M  V30 2216 H 210.969 -0.696763 4.33638 0
M  V30 2217 H 211.575 0.964135 4.14228 0
M  V30 2218 N 209.89 -1.43072 0.660911 0
M  V30 2219 C 211.136 -2.0202 0.177708 0
M  V30 2220 C 211.469 -1.52066 -1.20787 0
M  V30 2221 O 210.744 -0.716987 -1.80802 0
M  V30 2222 C 211.027 -3.59561 0.197019 0
M  V30 2223 C 210.88 -4.19727 1.61706 0
M  V30 2224 C 212.199 -4.37664 -0.462396 0
M  V30 2225 H 209.318 -0.734034 0.0660494 0
M  V30 2226 H 211.96 -1.70272 0.843058 0
M  V30 2227 H 210.11 -3.86739 -0.369527 0
M  V30 2228 H 211.782 -4.03553 2.23479 0
M  V30 2229 H 210.025 -3.76084 2.16201 0
M  V30 2230 H 210.696 -5.28834 1.58237 0
M  V30 2231 H 213.172 -4.16095 0.0197215 0
M  V30 2232 H 212.048 -5.47305 -0.418188 0
M  V30 2233 H 212.309 -4.14493 -1.53778 0
M  V30 2234 N 211.368 -0.403325 -1.52352 0
M  V30 2235 C 212.617 0.175668 -2.00934 0
M  V30 2236 C 212.93 1.46718 -1.29356 0
M  V30 2237 O 214.136 2.12708 -1.68724 0
M  V30 2238 C 212.592 0.363612 -3.58058 0
M  V30 2239 C 212.2 -0.915472 -4.38547 0
M  V30 2240 C 213.944 0.89821 -4.14888 0
M  V30 2241 C 211.851 -0.695035 -5.87302 0
M  V30 2242 H 210.781 0.0694234 -0.750797 0
M  V30 2243 H 213.432 -0.527879 -1.75743 0
M  V30 2244 H 211.814 1.12935 -3.79555 0
M  V30 2245 H 212.988 -1.68691 -4.28812 0
M  V30 2246 H 211.303 -1.37606 -3.93006 0
M  V30 2247 H 213.9 1.07907 -5.23699 0
M  V30 2248 H 214.243 1.87126 -3.71873 0
M  V30 2249 H 214.776 0.191681 -3.97338 0
M  V30 2250 H 211.515 -1.63948 -6.34666 0
M  V30 2251 H 211.035 0.0372116 -5.99788 0
M  V30 2252 H 212.714 -0.33497 -6.46132 0
M  V30 2253 N 212.846 1.57033 -0.133567 0
M  V30 2254 C 213.809 2.14897 0.796995 0
M  V30 2255 C 214.809 1.0874 1.18458 0
M  V30 2256 O 215.999 1.34446 1.1077 0
M  V30 2257 C 213.131 2.70112 2.07973 0
M  V30 2258 H 214.324 2.98457 0.293873 0
M  V30 2259 H 211.877 1.55871 0.115787 0
M  V30 2260 H 212.612 1.9018 2.62682 0
M  V30 2261 H 212.397 3.47764 1.81115 0
M  V30 2262 H 213.887 3.14738 2.74462 0
M  V30 2263 N 214.325 -0.140222 1.56975 0
M  V30 2264 C 215.255 -1.17456 2.01808 0
M  V30 2265 C 216.236 -1.44415 0.898794 0
M  V30 2266 O 217.421 -1.5522 1.16707 0
M  V30 2267 C 214.551 -2.50607 2.40444 0
M  V30 2268 C 213.505 -2.38155 3.55621 0
M  V30 2269 C 212.831 -3.76078 3.80091 0
M  V30 2270 C 214.131 -1.85991 4.88062 0
M  V30 2271 H 215.825 -0.801743 2.88466 0
M  V30 2272 H 213.371 -0.38422 1.38779 0
M  V30 2273 H 215.324 -3.23197 2.7041 0
M  V30 2274 H 214.048 -2.89737 1.50732 0
M  V30 2275 H 212.707 -1.68016 3.25832 0
M  V30 2276 H 212.355 -4.12656 2.87618 0
M  V30 2277 H 212.055 -3.68606 4.57606 0
M  V30 2278 H 213.579 -4.50206 4.12488 0
M  V30 2279 H 214.993 -2.4838 5.16701 0
M  V30 2280 H 213.39 -1.89393 5.6943 0
M  V30 2281 H 214.46 -0.816023 4.77984 0
M  V30 2282 N 215.803 -1.52179 -0.40978 0
M  V30 2283 C 217.08 -1.56769 -1.16974 0
M  V30 2284 C 217.46 -0.348322 -2.08206 0
M  V30 2285 O 216.808 0.664862 -2.18613 0
M  V30 2286 C 217.018 -2.89603 -1.9476 0
M  V30 2287 C 218.366 -3.42579 -2.50849 0
M  V30 2288 O 219.39 -2.91338 -2.04941 0
M  V30 2289 O 218.249 -4.32054 -3.34652 0
M  V30 2290 H 215.343 -0.631439 -0.534054 0
M  V30 2291 H 217.889 -1.64507 -0.416613 0
M  V30 2292 H 216.661 -3.698 -1.27921 0
M  V30 2293 H 216.284 -2.85155 -2.77079 0
M  V30 2294 N 217.281 0.66697 -1.42791 0
M  V30 2295 C 218.697 0.981027 -1.25889 0
M  V30 2296 C 218.897 2.00793 -0.168695 0
M  V30 2297 O 217.953 2.48321 0.45747 0
M  V30 2298 C 219.266 1.47838 -2.61848 0
M  V30 2299 C 220.814 1.59575 -2.69267 0
M  V30 2300 C 221.289 2.12704 -4.05612 0
M  V30 2301 N 222.78 2.20026 -4.07606 0
M  V30 2302 C 223.515 2.62227 -5.09926 0
M  V30 2303 N 223.011 3.03824 -6.22626 0
M  V30 2304 N 224.804 2.62045 -4.97281 0
M  V30 2305 H 216.955 -0.0127891 -2.12396 0
M  V30 2306 H 219.218 0.0568258 -0.946295 0
M  V30 2307 H 218.924 0.798299 -3.4252 0
M  V30 2308 H 218.798 2.45579 -2.86305 0
M  V30 2309 H 221.185 2.26687 -1.88936 0
M  V30 2310 H 221.266 0.60302 -2.48591 0
M  V30 2311 H 220.91 1.46198 -4.86404 0
M  V30 2312 H 220.84 3.12782 -4.23645 0
M  V30 2313 H 223.331 1.90708 -3.2625 0
M  V30 2314 H 223.644 3.34734 -6.96544 0
M  V30 2315 H 221.989 3.01662 -6.26119 0
M  V30 2316 H 225.18 2.28916 -4.08308 0
M  V30 2317 H 225.353 2.94613 -5.77154 0
M  V30 2318 N 218.759 1.29093 0.90403 0
M  V30 2319 C 219.709 1.10482 1.99443 0
M  V30 2320 C 220.693 0.0255401 1.6088 0
M  V30 2321 O 221.885 0.24677 1.75271 0
M  V30 2322 C 219.014 0.778882 3.34348 0
M  V30 2323 C 218.1 1.89749 3.79284 0
M  V30 2324 N 218.491 3.14045 3.96497 0
M  V30 2325 C 216.789 1.78955 4.08523 0
M  V30 2326 C 217.49 3.86996 4.34292 0
M  V30 2327 N 216.466 3.14909 4.43095 0
M  V30 2328 H 220.268 2.04778 2.10815 0
M  V30 2329 H 217.782 1.20155 1.09255 0
M  V30 2330 H 219.779 0.62661 4.12164 0
M  V30 2331 H 218.439 -0.156205 3.24324 0
M  V30 2332 H 219.45 3.49548 3.82148 0
M  V30 2333 H 216.127 0.926886 4.07081 0
M  V30 2334 H 217.517 4.93941 4.55491 0
M  V30 2335 N 220.237 -1.11381 1.11499 0
M  V30 2336 C 221.653 -1.35143 0.849031 0
M  V30 2337 C 221.853 -1.94515 -0.525938 0
M  V30 2338 O 220.909 -2.1785 -1.27662 0
M  V30 2339 C 222.222 -2.28249 1.95762 0
M  V30 2340 C 223.77 -2.41812 1.98736 0
M  V30 2341 C 224.245 -3.3824 3.088 0
M  V30 2342 N 225.736 -3.45803 3.08179 0
M  V30 2343 C 226.471 -4.20358 3.89982 0
M  V30 2344 N 225.967 -4.97884 4.8175 0
M  V30 2345 N 227.76 -4.15877 3.78157 0
M  V30 2346 H 219.911 -0.712062 2.00109 0
M  V30 2347 H 222.174 -0.376025 0.870235 0
M  V30 2348 H 221.88 -1.91817 2.94787 0
M  V30 2349 H 221.754 -3.28473 1.85433 0
M  V30 2350 H 224.141 -2.77518 1.00338 0
M  V30 2351 H 224.222 -1.41437 2.13141 0
M  V30 2352 H 223.866 -3.03261 4.07425 0
M  V30 2353 H 223.796 -4.38471 2.91635 0
M  V30 2354 H 226.287 -2.90506 2.41691 0
M  V30 2355 H 226.6 -5.52142 5.40702 0
M  V30 2356 H 224.945 -4.97043 4.85771 0
M  V30 2357 H 228.136 -3.544 3.05808 0
M  V30 2358 H 228.309 -4.73723 4.42143 0
M  V30 2359 N 221.715 -0.905404 -1.28997 0
M  V30 2360 C 222.955 -0.541232 -1.97104 0
M  V30 2361 C 223.319 0.896841 -1.69767 0
M  V30 2362 O 224.52 1.36817 -2.31375 0
M  V30 2363 C 222.791 -0.832134 -3.47578 0
M  V30 2364 S 224.35 -0.573127 -4.35041 0
M  V30 2365 H 221.168 -0.200576 -0.682122 0
M  V30 2366 H 223.77 -1.16906 -1.56694 0
M  V30 2367 H 222.474 -1.87687 -3.64968 0
M  V30 2368 H 222.005 -0.192636 -3.92928 0
M  V30 2369 H 224.02 0.579297 -4.92807 0
M  V30 2370 N 223.193 1.4272 -0.668489 0
M  V30 2371 C 224.442 2.00846 -0.185389 0
M  V30 2372 C 224.755 1.53442 1.21305 0
M  V30 2373 O 225.961 2.03944 1.79218 0
M  V30 2374 C 224.417 3.58805 -0.280591 0
M  V30 2375 C 224.025 4.15198 -1.68268 0
M  V30 2376 C 225.769 4.24255 0.14412 0
M  V30 2377 C 223.676 5.655 -1.73099 0
M  V30 2378 H 222.606 0.751145 -0.0655475 0
M  V30 2379 H 225.257 1.63516 -0.832752 0
M  V30 2380 H 223.639 3.93608 0.434553 0
M  V30 2381 H 224.813 3.91866 -2.42441 0
M  V30 2382 H 223.128 3.62176 -2.05469 0
M  V30 2383 H 225.725 5.34547 0.128086 0
M  V30 2384 H 226.068 3.99277 1.17827 0
M  V30 2385 H 226.601 3.94389 -0.519798 0
M  V30 2386 H 223.34 5.95268 -2.74475 0
M  V30 2387 H 222.86 5.90842 -1.03274 0
M  V30 2388 H 224.539 6.29808 -1.48158 0
M  V30 2389 N 224.671 0.411399 1.52136 0
M  V30 2390 C 225.917 -0.163888 2.02137 0
M  V30 2391 C 226.25 -1.44597 1.29636 0
M  V30 2392 O 225.525 -1.90272 0.403353 0
M  V30 2393 C 225.808 -0.40927 3.57767 0
M  V30 2394 C 225.661 0.889643 4.40914 0
M  V30 2395 C 226.98 -1.19042 4.23694 0
M  V30 2396 H 224.099 -0.0580896 0.734707 0
M  V30 2397 H 226.741 0.54531 1.82007 0
M  V30 2398 H 224.891 -1.0134 3.7505 0
M  V30 2399 H 226.563 1.52575 4.35337 0
M  V30 2400 H 224.806 1.50011 4.07037 0
M  V30 2401 H 225.477 0.672314 5.4789 0
M  V30 2402 H 227.953 -0.678942 4.10524 0
M  V30 2403 H 226.829 -1.33086 5.32522 0
M  V30 2404 H 227.09 -2.21166 3.82803 0
M  V30 2405 N 226.149 -1.5696 0.141893 0
M  V30 2406 C 227.379 -2.00031 -0.516828 0
M  V30 2407 C 227.787 -1.02091 -1.59293 0
M  V30 2408 O 227.13 -0.00909657 -1.83698 0
M  V30 2409 C 227.192 -3.39534 -1.1814 0
M  V30 2410 C 226.856 -4.56313 -0.250513 0
M  V30 2411 C 227.853 -5.17295 0.519839 0
M  V30 2412 C 225.538 -5.02061 -0.154907 0
M  V30 2413 C 227.532 -6.2243 1.3733 0
M  V30 2414 C 225.219 -6.07053 0.702161 0
M  V30 2415 C 226.217 -6.67106 1.46487 0
M  V30 2416 O 225.905 -7.70066 2.30767 0
M  V30 2417 H 225.637 -0.661451 -0.139493 0
M  V30 2418 H 228.191 -2.04086 0.231926 0
M  V30 2419 H 226.421 -3.32302 -1.97769 0
M  V30 2420 H 228.11 -3.66745 -1.73933 0
M  V30 2421 H 228.876 -4.82852 0.45598 0
M  V30 2422 H 224.755 -4.5505 -0.7383 0
M  V30 2423 H 228.299 -6.69233 1.96909 0
M  V30 2424 H 224.196 -6.40923 0.76733 0
M  V30 2425 H 224.964 -7.87264 2.23959 0
M  V30 2426 N 227.627 0.131896 -1.57047 0
M  V30 2427 C 228.577 1.1679 -1.95816 0
M  V30 2428 C 229.561 1.37756 -0.831393 0
M  V30 2429 O 230.753 1.39065 -1.09499 0
M  V30 2430 C 227.882 2.49778 -2.35512 0
M  V30 2431 C 226.968 2.32342 -3.54793 0
M  V30 2432 N 227.359 1.8469 -4.70875 0
M  V30 2433 C 225.657 2.63043 -3.60173 0
M  V30 2434 C 226.358 1.80656 -5.52936 0
M  V30 2435 N 225.334 2.24528 -4.95064 0
M  V30 2436 H 229.136 0.791818 -2.83033 0
M  V30 2437 H 226.65 0.339791 -1.58805 0
M  V30 2438 H 228.647 3.24692 -2.61498 0
M  V30 2439 H 227.307 2.88156 -1.49654 0
M  V30 2440 H 228.318 1.54429 -4.9434 0
M  V30 2441 H 224.995 3.05193 -2.84892 0
M  V30 2442 H 226.385 1.45178 -6.56028 0
M  V30 2443 N 229.106 1.52395 0.401703 0
M  V30 2444 C 230.036 1.79231 1.49661 0
M  V30 2445 C 231.017 0.643654 1.57452 0
M  V30 2446 O 232.202 0.889989 1.72606 0
M  V30 2447 C 229.332 1.94971 2.87409 0
M  V30 2448 C 228.286 3.10604 2.94465 0
M  V30 2449 C 227.612 3.11577 4.34538 0
M  V30 2450 C 228.912 4.49921 2.6527 0
M  V30 2451 H 230.606 2.70917 1.27454 0
M  V30 2452 H 228.152 1.30362 0.6117 0
M  V30 2453 H 230.105 2.12328 3.63999 0
M  V30 2454 H 228.829 0.999632 3.10926 0
M  V30 2455 H 227.488 2.93009 2.20321 0
M  V30 2456 H 227.136 2.14277 4.55076 0
M  V30 2457 H 226.836 3.89247 4.40183 0
M  V30 2458 H 228.36 3.31073 5.13053 0
M  V30 2459 H 229.774 4.67683 3.31581 0
M  V30 2460 H 228.171 5.29564 2.82281 0
M  V30 2461 H 229.241 4.57507 1.60671 0
M  V30 2462 N 230.584 -0.659388 1.43143 0
M  V30 2463 C 231.494 -1.80167 1.50256 0
M  V30 2464 C 232.51 -1.69571 0.390106 0
M  V30 2465 O 233.686 -1.90849 0.643319 0
M  V30 2466 C 230.751 -3.16409 1.41725 0
M  V30 2467 C 229.812 -3.38848 2.63591 0
M  V30 2468 C 229.045 -4.68591 2.55458 0
M  V30 2469 O 229.268 -5.47532 1.59891 0
M  V30 2470 O 228.202 -4.92614 3.45854 0
M  V30 2471 H 232.028 -1.77121 2.46702 0
M  V30 2472 H 229.613 -0.817092 1.25076 0
M  V30 2473 H 231.495 -3.9768 1.39387 0
M  V30 2474 H 230.17 -3.20059 0.484118 0
M  V30 2475 H 229.077 -2.57366 2.71502 0
M  V30 2476 H 230.41 -3.4004 3.55856 0
M  V30 2477 N 232.062 -1.29571 -0.897171 0
M  V30 2478 C 233.287 -1.20705 -1.68656 0
M  V30 2479 C 233.712 0.228582 -1.86706 0
M  V30 2480 O 233.07 1.16494 -1.3892 0
M  V30 2481 C 233.118 -1.9282 -3.04717 0
M  V30 2482 O 232.222 -1.24697 -3.93096 0
M  V30 2483 H 231.563 -0.418126 -0.515816 0
M  V30 2484 H 234.093 -1.71183 -1.12061 0
M  V30 2485 H 234.103 -2.01372 -3.54843 0
M  V30 2486 H 232.778 -2.97239 -2.90899 0
M  V30 2487 H 231.355 -1.2442 -3.51531 0
M  V30 2488 N 233.54 1.10788 -1.12088 0
M  V30 2489 C 234.487 2.17025 -0.785407 0
M  V30 2490 C 235.457 1.64265 0.246191 0
M  V30 2491 O 236.642 1.90412 0.121584 0
M  V30 2492 C 233.782 3.44249 -0.242177 0
M  V30 2493 C 232.895 4.1098 -1.33115 0
M  V30 2494 C 232.03 5.25911 -0.747741 0
M  V30 2495 C 231.069 5.84538 -1.81609 0
M  V30 2496 N 230.206 6.90853 -1.25167 0
M  V30 2497 H 235.046 2.45066 -1.69548 0
M  V30 2498 H 232.583 1.20297 -0.846582 0
M  V30 2499 H 234.541 4.17101 0.0908026 0
M  V30 2500 H 233.171 3.16571 0.631072 0
M  V30 2501 H 232.223 3.36133 -1.78097 0
M  V30 2502 H 233.535 4.50601 -2.13917 0
M  V30 2503 H 232.689 6.056 -0.365216 0
M  V30 2504 H 231.428 4.87614 0.0915188 0
M  V30 2505 H 230.433 5.03522 -2.20785 0
M  V30 2506 H 231.658 6.249 -2.6585 0
M  V30 2507 H 229.604 6.54562 -0.434174 0
M  V30 2508 H 229.521 7.29166 -1.99633 0
M  V30 2509 H 230.789 7.7433 -0.896259 0
M  V30 2510 N 235.018 0.912232 1.28515 0
M  V30 2511 C 236.267 0.540504 1.94323 0
M  V30 2512 C 236.58 -0.920044 1.72611 0
M  V30 2513 O 237.786 -1.39986 2.32629 0
M  V30 2514 C 236.242 0.915803 3.48053 0
M  V30 2515 C 235.85 2.39598 3.78546 0
M  V30 2516 C 237.594 0.614588 4.20027 0
M  V30 2517 C 235.501 2.71148 5.25578 0
M  V30 2518 H 234.431 0.198418 0.727424 0
M  V30 2519 H 237.082 1.11094 1.46049 0
M  V30 2520 H 235.464 0.274168 3.9505 0
M  V30 2521 H 236.638 3.08422 3.42364 0
M  V30 2522 H 234.953 2.66749 3.1974 0
M  V30 2523 H 237.55 0.827002 5.28266 0
M  V30 2524 H 237.893 -0.447531 4.13887 0
M  V30 2525 H 238.426 1.21462 3.78803 0
M  V30 2526 H 235.165 3.76207 5.36794 0
M  V30 2527 H 234.685 2.0696 5.62963 0
M  V30 2528 H 236.364 2.58072 5.93302 0
M  V30 2529 N 236.496 -1.42363 0.676048 0
M  V30 2530 C 237.721 -2.06377 0.205705 0
M  V30 2531 C 238.146 -1.50463 -1.12883 0
M  V30 2532 O 237.504 -0.623619 -1.70237 0
M  V30 2533 C 237.552 -3.60277 0.152655 0
M  V30 2534 O 236.656 -4.02935 -0.87845 0
M  V30 2535 H 235.997 -0.655588 0.105359 0
M  V30 2536 H 238.527 -1.82475 0.925412 0
M  V30 2537 H 238.537 -4.07993 -0.0230675 0
M  V30 2538 H 237.212 -4.00346 1.12675 0
M  V30 2539 H 235.789 -3.66764 -0.673668 0
M  V30 2540 N 237.974 -0.419461 -1.51915 0
M  V30 2541 C 238.921 0.400927 -2.27291 0
M  V30 2542 C 239.891 1.03224 -1.30131 0
M  V30 2543 O 241.076 1.05455 -1.59009 0
M  V30 2544 C 238.216 1.50603 -3.10504 0
M  V30 2545 C 237.329 0.89462 -4.22635 0
M  V30 2546 C 236.464 1.97328 -4.93189 0
M  V30 2547 C 235.503 1.33935 -5.97267 0
M  V30 2548 N 234.64 2.3586 -6.61298 0
M  V30 2549 H 239.48 -0.248251 -2.96964 0
M  V30 2550 H 237.017 -0.134266 -1.46486 0
M  V30 2551 H 238.975 2.15783 -3.57062 0
M  V30 2552 H 237.605 2.12509 -2.42981 0
M  V30 2553 H 236.657 0.131583 -3.80172 0
M  V30 2554 H 237.969 0.391641 -4.9726 0
M  V30 2555 H 237.123 2.70211 -5.43204 0
M  V30 2556 H 235.862 2.50994 -4.18155 0
M  V30 2557 H 234.867 0.595896 -5.46561 0
M  V30 2558 H 236.092 0.810252 -6.74249 0
M  V30 2559 H 234.038 2.88639 -5.89087 0
M  V30 2560 H 233.955 1.90403 -7.3163 0
M  V30 2561 H 235.223 3.08282 -7.15949 0
M  V30 2562 N 239.452 1.56882 -0.150215 0
M  V30 2563 C 240.868 1.58263 0.20617 0
M  V30 2564 C 241.068 1.16464 1.64434 0
M  V30 2565 O 240.124 0.866422 2.3717 0
M  V30 2566 C 241.437 3.00649 -0.0555025 0
M  V30 2567 C 242.985 3.12999 0.00795388 0
M  V30 2568 C 243.46 4.5744 -0.226429 0
M  V30 2569 N 244.951 4.62875 -0.173469 0
M  V30 2570 C 245.686 5.72454 -0.329288 0
M  V30 2571 N 245.182 6.90669 -0.543005 0
M  V30 2572 N 246.975 5.61467 -0.266666 0
M  V30 2573 H 239.126 1.82345 -1.08922 0
M  V30 2574 H 241.389 0.844149 -0.431413 0
M  V30 2575 H 241.095 3.3563 -1.05096 0
M  V30 2576 H 240.969 3.71337 0.66246 0
M  V30 2577 H 243.356 2.77857 0.993966 0
M  V30 2578 H 243.437 2.4479 -0.742388 0
M  V30 2579 H 243.081 4.93287 -1.20956 0
M  V30 2580 H 243.011 5.2378 0.544274 0
M  V30 2581 H 245.502 3.77898 -0.0130709 0
M  V30 2582 H 245.815 7.70045 -0.651922 0
M  V30 2583 H 244.16 6.92581 -0.579366 0
M  V30 2584 H 247.351 4.67992 -0.100441 0
M  V30 2585 H 247.524 6.46816 -0.391535 0
M  V30 2586 N 240.93 -0.123565 1.57115 0
M  V30 2587 C 242.179 -0.830704 1.83799 0
M  V30 2588 C 242.492 -1.81259 0.735158 0
M  V30 2589 O 243.698 -2.56558 0.888278 0
M  V30 2590 C 242.154 -1.52802 3.25852 0
M  V30 2591 C 241.762 -0.587356 4.44133 0
M  V30 2592 C 243.506 -2.22056 3.61789 0
M  V30 2593 C 241.413 -1.28764 5.77212 0
M  V30 2594 H 240.343 -0.313967 0.685522 0
M  V30 2595 H 242.994 -0.0834359 1.8331 0
M  V30 2596 H 241.376 -2.32175 3.20797 0
M  V30 2597 H 242.55 0.172829 4.60476 0
M  V30 2598 H 240.865 -0.00201892 4.164 0
M  V30 2599 H 243.462 -2.75131 4.58483 0
M  V30 2600 H 243.805 -2.99644 2.88997 0
M  V30 2601 H 244.338 -1.49576 3.68608 0
M  V30 2602 H 241.077 -0.55314 6.53162 0
M  V30 2603 H 240.597 -2.01995 5.64764 0
M  V30 2604 H 242.276 -1.8221 6.20813 0
M  V30 2605 N 242.408 -1.52605 -0.393616 0
M  V30 2606 C 243.633 -1.71592 -1.16495 0
M  V30 2607 C 244.058 -0.43133 -1.83088 0
M  V30 2608 O 243.416 0.612523 -1.7064 0
M  V30 2609 C 243.464 -2.86318 -2.19213 0
M  V30 2610 O 242.568 -2.52969 -3.257 0
M  V30 2611 H 241.909 -0.570734 -0.33935 0
M  V30 2612 H 244.439 -1.99377 -0.459324 0
M  V30 2613 H 244.449 -3.1168 -2.63286 0
M  V30 2614 H 243.124 -3.79511 -1.7013 0
M  V30 2615 H 241.701 -2.38332 -2.86797 0
M  V30 2616 N 243.887 0.651787 -1.4349 0
M  V30 2617 C 245.134 1.41167 -1.45183 0
M  V30 2618 C 245.462 1.94349 -0.0766601 0
M  V30 2619 O 244.717 1.72804 0.918555 0
M  V30 2620 C 245.016 2.60914 -2.44251 0
M  V30 2621 C 244.682 2.26142 -3.9009 0
M  V30 2622 C 243.344 2.16371 -4.2981 0
M  V30 2623 C 245.696 1.98334 -4.81989 0
M  V30 2624 C 243.024 1.7695 -5.5938 0
M  V30 2625 C 245.376 1.6041 -6.11924 0
M  V30 2626 C 244.04 1.49166 -6.5062 0
M  V30 2627 H 243.31 0.516566 -0.531263 0
M  V30 2628 H 245.957 0.741099 -1.76579 0
M  V30 2629 H 244.262 3.3311 -2.06265 0
M  V30 2630 H 245.959 3.19127 -2.42815 0
M  V30 2631 H 242.549 2.34658 -3.58655 0
M  V30 2632 H 246.733 2.04803 -4.52072 0
M  V30 2633 H 241.989 1.66831 -5.88198 0
M  V30 2634 H 246.163 1.37925 -6.82605 0
M  V30 2635 H 243.79 1.1839 -7.50925 0
M  V30 2636 N 245.365 1.30045 0.890287 0
M  V30 2637 C 246.295 1.18541 2.01172 0
M  V30 2638 C 247.276 0.0773356 1.69924 0
M  V30 2639 O 248.461 0.25845 1.92473 0
M  V30 2640 C 245.591 0.870941 3.36202 0
M  V30 2641 C 244.545 1.93637 3.81692 0
M  V30 2642 C 243.871 1.475 5.13953 0
M  V30 2643 C 245.171 3.34666 4.00994 0
M  V30 2644 H 246.865 2.12359 2.11054 0
M  V30 2645 H 244.411 1.02238 1.01407 0
M  V30 2646 H 246.364 0.777141 4.14172 0
M  V30 2647 H 245.088 -0.102926 3.26438 0
M  V30 2648 H 243.747 2.01972 3.05946 0
M  V30 2649 H 243.395 0.489551 5.00612 0
M  V30 2650 H 243.095 2.1876 5.4536 0
M  V30 2651 H 244.619 1.39489 5.94454 0
M  V30 2652 H 246.033 3.2912 4.69417 0
M  V30 2653 H 244.43 4.03966 4.43769 0
M  V30 2654 H 245.5 3.76949 3.05021 0
M  V30 2655 N 246.843 -1.10192 1.12674 0
M  V30 2656 C 248.092 -1.81573 0.8783 0
M  V30 2657 C 248.405 -1.86249 -0.597557 0
M  V30 2658 O 249.611 -2.5386 -0.962681 0
M  V30 2659 C 248.067 -3.26149 1.52167 0
M  V30 2660 C 247.675 -3.29763 3.03249 0
M  V30 2661 C 249.419 -4.0234 1.3536 0
M  V30 2662 C 247.326 -4.68815 3.60508 0
M  V30 2663 H 246.256 -0.680394 0.324931 0
M  V30 2664 H 248.907 -1.23902 1.35353 0
M  V30 2665 H 247.289 -3.83832 0.974104 0
M  V30 2666 H 248.463 -2.8189 3.6452 0
M  V30 2667 H 246.778 -2.67059 3.19481 0
M  V30 2668 H 249.375 -5.05058 1.75559 0
M  V30 2669 H 249.718 -4.15235 0.297554 0
M  V30 2670 H 250.251 -3.51079 1.87052 0
M  V30 2671 H 246.99 -4.61121 4.65884 0
M  V30 2672 H 246.51 -5.17045 3.04014 0
M  V30 2673 H 248.189 -5.37785 3.59717 0
M  V30 2674 N 248.321 -0.919034 -1.28029 0
M  V30 2675 C 249.57 -0.550802 -1.94034 0
M  V30 2676 C 249.883 0.910877 -1.73096 0
M  V30 2677 O 251.089 1.3875 -2.33368 0
M  V30 2678 C 249.545 -0.934249 -3.47563 0
M  V30 2679 C 249.153 -2.41602 -3.7727 0
M  V30 2680 C 250.897 -0.636854 -4.19696 0
M  V30 2681 C 248.804 -2.73932 -5.24133 0
M  V30 2682 H 247.734 -0.202273 -0.726362 0
M  V30 2683 H 250.385 -1.11867 -1.45458 0
M  V30 2684 H 248.767 -0.295115 -3.94899 0
M  V30 2685 H 249.941 -3.10233 -3.40723 0
M  V30 2686 H 248.256 -2.68441 -3.18321 0
M  V30 2687 H 250.853 -0.855005 -5.2782 0
M  V30 2688 H 251.196 0.425575 -4.14119 0
M  V30 2689 H 251.729 -1.23469 -3.78154 0
M  V30 2690 H 248.468 -3.79049 -5.34792 0
M  V30 2691 H 247.988 -2.09942 -5.61858 0
M  V30 2692 H 249.667 -2.61215 -5.91925 0
M  V30 2693 N 249.799 1.42003 -0.683588 0
M  V30 2694 C 251.047 2.01015 -0.209101 0
M  V30 2695 C 251.368 1.54365 1.19149 0
M  V30 2696 O 250.638 0.769083 1.80172 0
M  V30 2697 H 249.218 0.743294 -0.074315 0
M  V30 2698 H 251.88 1.73798 -0.882066 0
M  V30 2699 H 250.976 3.11343 -0.2172 0
M  V30 2700 N 251.277 0.427512 1.51691 0
M  V30 2701 C 252.207 -0.3796 2.30394 0
M  V30 2702 C 253.188 -1.02982 1.35384 0
M  V30 2703 O 254.373 -1.03534 1.643 0
M  V30 2704 C 251.503 -1.48649 3.1388 0
M  V30 2705 C 250.457 -0.960294 4.17088 0
M  V30 2706 C 249.783 -2.16219 4.89033 0
M  V30 2707 C 251.083 -0.00153679 5.223 0
M  V30 2708 H 252.777 0.277164 2.98114 0
M  V30 2709 H 250.323 0.134739 1.43368 0
M  V30 2710 H 252.276 -2.05826 3.67714 0
M  V30 2711 H 251 -2.1714 2.43962 0
M  V30 2712 H 249.659 -0.410806 3.64291 0
M  V30 2713 H 249.307 -2.83307 4.15628 0
M  V30 2714 H 249.007 -1.81654 5.58816 0
M  V30 2715 H 250.531 -2.73968 5.45687 0
M  V30 2716 H 251.945 -0.482687 5.71264 0
M  V30 2717 H 250.342 0.256199 5.99553 0
M  V30 2718 H 251.412 0.938174 4.75738 0
M  V30 2719 N 252.755 -1.56801 0.158532 0
M  V30 2720 C 253.718 -2.16138 -0.762705 0
M  V30 2721 C 254.718 -1.1061 -1.16713 0
M  V30 2722 O 255.908 -1.36191 -1.08617 0
M  V30 2723 C 253.04 -2.73386 -2.03649 0
M  V30 2724 H 254.233 -2.98886 -0.246354 0
M  V30 2725 H 251.786 -1.56035 -0.0909744 0
M  V30 2726 H 252.521 -1.94335 -2.59623 0
M  V30 2727 H 252.306 -3.50601 -1.75559 0
M  V30 2728 H 253.796 -3.19065 -2.6942 0
M  V30 2729 N 254.233 0.115231 -1.57178 0
M  V30 2730 C 255.479 0.818565 -1.86202 0
M  V30 2731 C 255.834 1.77316 -0.746785 0
M  V30 2732 O 255.127 1.89923 0.25291 0
M  V30 2733 C 255.321 1.60324 -3.19423 0
M  V30 2734 C 255.15 0.726138 -4.43799 0
M  V30 2735 C 253.92 0.379535 -5.03873 0
M  V30 2736 C 256.118 0.0420774 -5.14283 0
M  V30 2737 N 254.1 -0.507841 -6.11796 0
M  V30 2738 C 255.471 -0.704152 -6.15988 0
M  V30 2739 C 257.526 -0.0339486 -4.97888 0
M  V30 2740 C 256.229 -1.51927 -7.03072 0
M  V30 2741 C 258.255 -0.835906 -5.85463 0
M  V30 2742 C 257.617 -1.57031 -6.86673 0
M  V30 2743 H 253.716 0.276343 -0.731545 0
M  V30 2744 H 256.3 0.0821032 -1.94527 0
M  V30 2745 H 254.471 2.31072 -3.12186 0
M  V30 2746 H 256.203 2.2522 -3.36241 0
M  V30 2747 H 252.958 0.722634 -4.68054 0
M  V30 2748 H 253.382 -0.94349 -6.70393 0
M  V30 2749 H 258.024 0.519496 -4.19596 0
M  V30 2750 H 255.742 -2.08386 -7.80769 0
M  V30 2751 H 259.328 -0.89714 -5.74841 0
M  V30 2752 H 258.208 -2.18088 -7.53264 0
M  V30 2753 N 255.711 1.52812 0.385517 0
M  V30 2754 C 256.959 1.67694 1.12797 0
M  V30 2755 C 257.28 0.421115 1.90399 0
M  V30 2756 O 256.55 -0.564551 1.87589 0
M  V30 2757 H 255.13 0.618155 0.419396 0
M  V30 2758 H 257.792 1.89938 0.436972 0
M  V30 2759 H 256.888 2.52896 1.82894 0
M  V30 2760 N 257.189 -0.644168 1.43834 0
M  V30 2761 C 258.438 -1.39985 1.45214 0
M  V30 2762 C 258.751 -1.95421 0.0835494 0
M  V30 2763 O 259.957 -2.71488 -0.0251748 0
M  V30 2764 C 258.413 -2.53384 2.55587 0
M  V30 2765 C 258.021 -2.04517 3.98594 0
M  V30 2766 C 259.765 -3.30685 2.66172 0
M  V30 2767 C 257.672 -3.1518 5.00416 0
M  V30 2768 H 256.602 -0.526005 0.540218 0
M  V30 2769 H 259.253 -0.694367 1.69855 0
M  V30 2770 H 257.635 -3.26446 2.24163 0
M  V30 2771 H 258.809 -1.38405 4.39523 0
M  V30 2772 H 257.124 -1.40068 3.92135 0
M  V30 2773 H 259.721 -4.13158 3.39418 0
M  V30 2774 H 260.064 -3.79312 1.71546 0
M  V30 2775 H 260.597 -2.64708 2.96942 0
M  V30 2776 H 257.336 -2.71511 5.96625 0
M  V30 2777 H 256.856 -3.79974 4.64091 0
M  V30 2778 H 258.535 -3.80166 5.23529 0
M  V30 2779 N 258.668 -1.30515 -0.883378 0
M  V30 2780 C 259.893 -1.22487 -1.67367 0
M  V30 2781 C 260.318 0.208767 -1.86938 0
M  V30 2782 O 259.676 1.15015 -1.40148 0
M  V30 2783 C 259.724 -1.96041 -3.02655 0
M  V30 2784 O 258.828 -1.28859 -3.91751 0
M  V30 2785 H 258.169 -0.423573 -0.511353 0
M  V30 2786 H 260.699 -1.72362 -1.10239 0
M  V30 2787 H 260.709 -2.05124 -3.52687 0
M  V30 2788 H 259.384 -3.00307 -2.8773 0
M  V30 2789 H 257.961 -1.28141 -3.50192 0
M  V30 2790 N 260.146 1.09593 -1.13257 0
M  V30 2791 C 261.109 2.14359 -0.811358 0
M  V30 2792 C 262.109 1.59808 0.178377 0
M  V30 2793 O 263.299 1.74132 -0.0484911 0
M  V30 2794 C 260.431 3.40269 -0.207276 0
M  V30 2795 H 261.624 2.44284 -1.73969 0
M  V30 2796 H 259.177 1.25102 -0.936973 0
M  V30 2797 H 259.912 3.15969 0.73036 0
M  V30 2798 H 259.697 3.81154 -0.919992 0
M  V30 2799 H 261.187 4.176 0.000667944 0
M  V30 2800 N 261.624 0.925811 1.2754 0
M  V30 2801 C 262.554 0.440748 2.29303 0
M  V30 2802 C 263.535 -0.497971 1.62648 0
M  V30 2803 O 264.72 -0.403126 1.8997 0
M  V30 2804 C 261.85 -0.309048 3.45922 0
M  V30 2805 C 260.804 0.54166 4.24559 0
M  V30 2806 C 260.13 -0.337191 5.33636 0
M  V30 2807 C 261.43 1.80516 4.90114 0
M  V30 2808 H 263.124 1.29121 2.70126 0
M  V30 2809 H 260.67 0.622323 1.29858 0
M  V30 2810 H 262.623 -0.659315 4.1621 0
M  V30 2811 H 261.347 -1.19352 3.04011 0
M  V30 2812 H 260.006 0.874609 3.56014 0
M  V30 2813 H 259.654 -1.22056 4.87966 0
M  V30 2814 H 259.354 0.228497 5.87156 0
M  V30 2815 H 260.878 -0.683072 6.06767 0
M  V30 2816 H 262.292 1.52307 5.52698 0
M  V30 2817 H 260.689 2.3142 5.53683 0
M  V30 2818 H 261.759 2.52581 4.13921 0
M  V30 2819 N 263.102 -1.41638 0.69111 0
M  V30 2820 C 264.032 -2.3347 0.037248 0
M  V30 2821 C 265.013 -1.51575 -0.771947 0
M  V30 2822 O 266.198 -1.80126 -0.72582 0
M  V30 2823 C 263.328 -3.35354 -0.903064 0
M  V30 2824 C 262.282 -4.27526 -0.201288 0
M  V30 2825 C 261.608 -5.19747 -1.25565 0
M  V30 2826 C 262.908 -5.13959 0.929689 0
M  V30 2827 H 264.602 -2.88397 0.804227 0
M  V30 2828 H 262.148 -1.38669 0.388189 0
M  V30 2829 H 264.101 -3.98519 -1.36969 0
M  V30 2830 H 262.825 -2.78767 -1.70166 0
M  V30 2831 H 261.484 -3.65779 0.245265 0
M  V30 2832 H 261.132 -4.59479 -2.04666 0
M  V30 2833 H 260.832 -5.8225 -0.791128 0
M  V30 2834 H 262.356 -5.85789 -1.72288 0
M  V30 2835 H 263.77 -5.70718 0.543546 0
M  V30 2836 H 262.167 -5.85379 1.32103 0
M  V30 2837 H 263.237 -4.51389 1.77133 0
M  V30 2838 N 264.58 -0.43555 -1.51462 0
M  V30 2839 C 265.543 0.365137 -2.26273 0
M  V30 2840 C 266.543 0.951227 -1.29647 0
M  V30 2841 O 267.733 0.825958 -1.53374 0
M  V30 2842 C 264.865 1.51645 -3.05314 0
M  V30 2843 H 266.058 -0.290474 -2.9849 0
M  V30 2844 H 263.611 -0.188676 -1.55157 0
M  V30 2845 H 264.346 2.20816 -2.3751 0
M  V30 2846 H 264.131 1.10238 -3.76284 0
M  V30 2847 H 265.621 2.08218 -3.61987 0
M  V30 2848 N 266.058 1.56714 -0.166846 0
M  V30 2849 C 267.283 2.01557 0.488833 0
M  V30 2850 C 267.708 1.0463 1.56314 0
M  V30 2851 O 267.066 0.0251304 1.81283 0
M  V30 2852 C 267.114 3.4503 1.04818 0
M  V30 2853 O 266.218 3.51163 2.16236 0
M  V30 2854 H 265.559 0.653516 0.117526 0
M  V30 2855 H 268.089 2.02818 -0.269421 0
M  V30 2856 H 268.099 3.84243 1.37191 0
M  V30 2857 H 266.774 4.15077 0.261572 0
M  V30 2858 H 265.351 3.23807 1.84942 0
M  V30 2859 N 267.536 -0.106894 1.57237 0
M  V30 2860 C 268.947 -0.662723 1.74542 0
M  V30 2861 C 269.298 -1.7971 0.787319 0
M  V30 2862 O 268.423 -2.16368 -0.0369636 0
M  V30 2863 C 269.018 -1.20896 3.16496 0
M  V30 2864 C 267.577 -1.71096 3.35266 0
M  V30 2865 C 266.724 -0.615642 2.7038 0
M  V30 2866 H 269.675 0.119106 1.58252 0
M  V30 2867 H 269.696 -2.07847 3.18716 0
M  V30 2868 H 269.208 -0.383122 3.86204 0
M  V30 2869 H 267.309 -2.56119 2.70618 0
M  V30 2870 H 267.422 -1.81208 4.43509 0
M  V30 2871 H 265.786 -1.05222 2.31949 0
M  V30 2872 H 266.569 0.199419 3.4272 0
M  V30 2873 N 269.014 -1.53014 -0.377408 0
M  V30 2874 C 269.944 -1.81589 -1.46791 0
M  V30 2875 C 270.925 -0.668622 -1.56408 0
M  V30 2876 O 272.11 -0.917337 -1.71168 0
M  V30 2877 C 269.24 -1.99519 -2.8427 0
M  V30 2878 C 268.194 -3.15249 -2.89486 0
M  V30 2879 C 267.52 -3.18451 -4.29527 0
M  V30 2880 C 268.82 -4.54084 -2.58079 0
M  V30 2881 H 270.514 -2.7291 -1.23127 0
M  V30 2882 H 268.06 -1.31319 -0.590883 0
M  V30 2883 H 270.013 -2.18092 -3.60575 0
M  V30 2884 H 268.737 -1.04897 -3.09296 0
M  V30 2885 H 267.396 -2.96477 -2.15631 0
M  V30 2886 H 267.044 -2.2149 -4.5161 0
M  V30 2887 H 266.744 -3.962 -4.33934 0
M  V30 2888 H 268.268 -3.39193 -5.07721 0
M  V30 2889 H 269.682 -4.72899 -3.24098 0
M  V30 2890 H 268.079 -5.33987 -2.7382 0
M  V30 2891 H 269.149 -4.60006 -1.53372 0
M  V30 2892 N 270.492 0.636531 -1.44174 0
M  V30 2893 C 271.455 1.73063 -1.50273 0
M  V30 2894 C 272.455 1.56113 -0.385397 0
M  V30 2895 O 273.645 1.61707 -0.64781 0
M  V30 2896 C 270.777 3.12096 -1.37145 0
M  V30 2897 H 271.97 1.69031 -2.47727 0
M  V30 2898 H 269.523 0.849706 -1.31186 0
M  V30 2899 H 270.258 3.21728 -0.407636 0
M  V30 2900 H 270.043 3.25805 -2.18159 0
M  V30 2901 H 271.533 3.91846 -1.44382 0
M  V30 2902 N 271.97 1.30982 0.876444 0
M  V30 2903 C 273.219 1.19658 1.62373 0
M  V30 2904 C 273.532 -0.245636 1.94052 0
M  V30 2905 O 274.738 -0.48049 2.67214 0
M  V30 2906 C 273.194 2.09433 2.92687 0
M  V30 2907 C 272.802 3.58613 2.68516 0
M  V30 2908 C 274.546 2.06893 3.70669 0
M  V30 2909 C 272.453 4.40416 3.94699 0
M  V30 2910 H 271.383 0.444268 0.609214 0
M  V30 2911 H 274.034 1.55791 0.969605 0
M  V30 2912 H 272.416 1.66191 3.59439 0
M  V30 2913 H 273.59 4.10058 2.10212 0
M  V30 2914 H 271.905 3.63063 2.03898 0
M  V30 2915 H 274.502 2.65258 4.64265 0
M  V30 2916 H 274.845 1.05448 4.02724 0
M  V30 2917 H 275.378 2.48301 3.10792 0
M  V30 2918 H 272.117 5.42591 3.67798 0
M  V30 2919 H 271.637 3.93731 4.52477 0
M  V30 2920 H 273.316 4.52294 4.62644 0
M  V30 2921 N 273.449 -1.08991 1.13837 0
M  V30 2922 C 274.696 -1.81258 0.902882 0
M  V30 2923 C 275.024 -1.85936 -0.570803 0
M  V30 2924 O 274.279 -1.3267 -1.43865 0
M  V30 2925 C 274.578 -3.27042 1.44147 0
M  V30 2926 C 274.244 -3.4249 2.93276 0
M  V30 2927 C 272.906 -3.46414 3.33992 0
M  V30 2928 C 275.258 -3.4666 3.892 0
M  V30 2929 C 272.586 -3.52091 4.69307 0
M  V30 2930 C 274.938 -3.53872 5.24364 0
M  V30 2931 C 273.602 -3.56066 5.646 0
M  V30 2932 H 272.872 -0.663268 0.330388 0
M  V30 2933 H 275.519 -1.28368 1.42105 0
M  V30 2934 H 273.824 -3.82599 0.844097 0
M  V30 2935 H 275.521 -3.81499 1.23528 0
M  V30 2936 H 272.111 -3.40124 2.60794 0
M  V30 2937 H 276.295 -3.42865 3.58828 0
M  V30 2938 H 271.551 -3.52079 4.9985 0
M  V30 2939 H 275.725 -3.56043 5.98503 0
M  V30 2940 H 273.352 -3.60218 6.69438 0
M  V30 2941 N 274.927 -0.932562 -1.27047 0
M  V30 2942 C 276.343 -0.633544 -1.46487 0
M  V30 2943 C 276.543 0.815746 -1.84249 0
M  V30 2944 O 275.599 1.59319 -1.95892 0
M  V30 2945 C 276.912 -1.58758 -2.55375 0
M  V30 2946 C 278.46 -1.59634 -2.69232 0
M  V30 2947 C 278.935 -2.53747 -3.81283 0
M  V30 2948 N 280.426 -2.51982 -3.88664 0
M  V30 2949 C 281.161 -3.21491 -4.74796 0
M  V30 2950 N 280.657 -4.00395 -5.65381 0
M  V30 2951 N 282.45 -3.10485 -4.68568 0
M  V30 2952 H 274.601 -1.86946 -1.00821 0
M  V30 2953 H 276.864 -0.802897 -0.504044 0
M  V30 2954 H 276.57 -2.62172 -2.34432 0
M  V30 2955 H 276.444 -1.33301 -3.52861 0
M  V30 2956 H 278.831 -0.569488 -2.89553 0
M  V30 2957 H 278.912 -1.89142 -1.72218 0
M  V30 2958 H 278.556 -3.56545 -3.61715 0
M  V30 2959 H 278.486 -2.21532 -4.77735 0
M  V30 2960 H 280.977 -1.94681 -3.23895 0
M  V30 2961 H 281.29 -4.50406 -6.27976 0
M  V30 2962 H 279.635 -4.04498 -5.65161 0
M  V30 2963 H 282.826 -2.48331 -3.96799 0
M  V30 2964 H 282.999 -3.64925 -5.35475 0
M  V30 2965 N 276.405 1.4127 -0.698611 0
M  V30 2966 C 277.315 2.34573 -0.0357891 0
M  V30 2967 C 278.331 1.56393 0.762701 0
M  V30 2968 O 279.507 1.8886 0.699564 0
M  V30 2969 C 276.572 3.35159 0.887089 0
M  V30 2970 C 275.633 4.29225 0.0804634 0
M  V30 2971 C 274.866 5.25006 0.959387 0
M  V30 2972 O 275.089 5.26314 2.19886 0
M  V30 2973 O 274.023 6.00519 0.407439 0
M  V30 2974 H 277.849 2.92838 -0.804957 0
M  V30 2975 H 275.434 1.42175 -0.458966 0
M  V30 2976 H 277.316 3.9689 1.41621 0
M  V30 2977 H 275.991 2.79333 1.6357 0
M  V30 2978 H 274.898 3.70833 -0.493328 0
M  V30 2979 H 276.231 4.88157 -0.629547 0
M  V30 2980 N 277.883 0.443576 1.51229 0
M  V30 2981 C 279.113 -0.119117 2.06256 0
M  V30 2982 C 279.521 -1.36471 1.31043 0
M  V30 2983 O 278.864 -1.80034 0.365151 0
M  V30 2984 C 278.926 -0.500546 3.55998 0
M  V30 2985 C 278.59 0.639125 4.52509 0
M  V30 2986 C 279.587 1.51311 4.97394 0
M  V30 2987 C 277.272 0.821632 4.95535 0
M  V30 2988 C 279.266 2.55425 5.83984 0
M  V30 2989 C 276.953 1.86603 5.81913 0
M  V30 2990 C 277.951 2.73072 6.26036 0
M  V30 2991 O 277.639 3.75718 7.10698 0
M  V30 2992 H 277.371 -0.00857665 0.675946 0
M  V30 2993 H 279.925 0.623288 1.95715 0
M  V30 2994 H 278.155 -1.29575 3.64345 0
M  V30 2995 H 279.844 -0.995116 3.93513 0
M  V30 2996 H 280.61 1.38367 4.64844 0
M  V30 2997 H 276.489 0.158149 4.60729 0
M  V30 2998 H 280.033 3.22949 6.18344 0
M  V30 2999 H 275.93 1.99564 6.13876 0
M  V30 3000 H 276.698 3.72374 7.2889 0
M  V30 3001 N 279.361 -1.56624 0.175154 0
M  V30 3002 C 280.586 -2.01813 -0.478137 0
M  V30 3003 C 281.011 -1.05457 -1.55757 0
M  V30 3004 O 280.369 -0.0347439 -1.81267 0
M  V30 3005 C 280.417 -3.45581 -1.02987 0
M  V30 3006 O 279.521 -3.52305 -2.14371 0
M  V30 3007 H 278.862 -0.65413 -0.114059 0
M  V30 3008 H 281.392 -2.02673 0.280173 0
M  V30 3009 H 281.402 -3.84965 -1.35151 0
M  V30 3010 H 280.077 -4.1521 -0.239556 0
M  V30 3011 H 278.654 -3.24783 -1.83222 0
M  V30 3012 N 280.839 0.0985539 -1.57292 0
M  V30 3013 C 281.769 1.12064 -2.04851 0
M  V30 3014 C 282.75 1.41981 -0.936767 0
M  V30 3015 O 283.935 1.52071 -1.20781 0
M  V30 3016 C 281.065 2.44144 -2.47004 0
M  V30 3017 C 280.019 2.28643 -3.6181 0
M  V30 3018 C 279.345 3.65869 -3.89929 0
M  V30 3019 C 280.645 1.72986 -4.92822 0
M  V30 3020 H 282.339 0.724979 -2.9049 0
M  V30 3021 H 279.885 0.34729 -1.39749 0
M  V30 3022 H 281.838 3.15914 -2.78884 0
M  V30 3023 H 280.562 2.85639 -1.5836 0
M  V30 3024 H 279.221 1.59318 -3.30172 0
M  V30 3025 H 278.869 4.04885 -2.98458 0
M  V30 3026 H 278.569 3.56344 -4.67218 0
M  V30 3027 H 280.093 4.39112 -4.2428 0
M  V30 3028 H 281.507 2.34593 -5.23105 0
M  V30 3029 H 279.904 1.74229 -5.74251 0
M  V30 3030 H 280.974 0.689007 -4.7998 0
M  V30 3031 N 282.317 1.53212 0.369288 0
M  V30 3032 C 283.566 1.68436 1.10961 0
M  V30 3033 C 283.879 0.440738 1.9057 0
M  V30 3034 O 285.085 0.473446 2.6734 0
M  V30 3035 C 283.541 2.97744 2.0218 0
M  V30 3036 C 283.149 4.29355 1.279 0
M  V30 3037 C 284.893 3.22334 2.76226 0
M  V30 3038 C 282.8 5.49755 2.17999 0
M  V30 3039 H 281.73 0.627568 0.41794 0
M  V30 3040 H 284.381 1.79713 0.370884 0
M  V30 3041 H 282.763 2.8026 2.79768 0
M  V30 3042 H 283.937 4.57458 0.554007 0
M  V30 3043 H 282.252 4.11179 0.657311 0
M  V30 3044 H 284.849 4.09471 3.43857 0
M  V30 3045 H 285.192 2.38238 3.41392 0
M  V30 3046 H 285.725 3.40475 2.05723 0
M  V30 3047 H 282.464 6.36318 1.57417 0
M  V30 3048 H 281.984 5.25937 2.88359 0
M  V30 3049 H 283.663 5.84401 2.77641 0
M  V30 3050 N 283.795 -0.628877 1.44509 0
M  V30 3051 C 284.705 -1.7694 1.54044 0
M  V30 3052 C 285.721 -1.68705 0.425987 0
M  V30 3053 O 286.897 -1.89442 0.683656 0
M  V30 3054 C 283.962 -3.13332 1.48405 0
M  V30 3055 C 283.023 -3.33181 2.70719 0
M  V30 3056 C 282.256 -4.63067 2.6534 0
M  V30 3057 O 282.479 -5.44017 1.71469 0
M  V30 3058 O 281.413 -4.85167 3.56226 0
M  V30 3059 H 285.239 -1.71848 2.50403 0
M  V30 3060 H 282.824 -0.790378 1.26781 0
M  V30 3061 H 284.706 -3.94634 1.47791 0
M  V30 3062 H 283.381 -3.1896 0.551898 0
M  V30 3063 H 282.288 -2.51549 2.769 0
M  V30 3064 H 283.621 -3.32416 3.62988 0
M  V30 3065 N 285.273 -1.31445 -0.869486 0
M  V30 3066 C 286.522 -1.20517 -1.61736 0
M  V30 3067 C 286.835 0.235341 -1.94179 0
M  V30 3068 O 288.041 0.466312 -2.67465 0
M  V30 3069 C 286.497 -2.10982 -2.91573 0
M  V30 3070 C 286.105 -3.60032 -2.66611 0
M  V30 3071 C 287.849 -2.08856 -3.69567 0
M  V30 3072 C 285.756 -4.42503 -3.92358 0
M  V30 3073 H 284.686 -0.447493 -0.606849 0
M  V30 3074 H 287.337 -1.56303 -0.96133 0
M  V30 3075 H 285.719 -1.68095 -3.58553 0
M  V30 3076 H 286.893 -4.11167 -2.08035 0
M  V30 3077 H 285.208 -3.64139 -2.0197 0
M  V30 3078 H 287.805 -2.67716 -4.62852 0
M  V30 3079 H 288.148 -1.07582 -4.02159 0
M  V30 3080 H 288.681 -2.49945 -3.09471 0
M  V30 3081 H 285.42 -5.44533 -3.64916 0
M  V30 3082 H 284.94 -3.96125 -4.50383 0
M  V30 3083 H 286.619 -4.54741 -4.60238 0
M  V30 3084 N 286.751 1.08385 -1.14413 0
M  V30 3085 C 288 1.80153 -0.907076 0
M  V30 3086 C 288.313 1.87176 0.567851 0
M  V30 3087 O 289.519 2.55359 0.922172 0
M  V30 3088 C 287.975 3.23687 -1.57336 0
M  V30 3089 C 287.583 3.24897 -3.08457 0
M  V30 3090 C 289.327 4.00136 -1.41744 0
M  V30 3091 C 287.234 4.6302 -3.67921 0
M  V30 3092 H 286.164 0.675139 -0.335714 0
M  V30 3093 H 288.815 1.21733 -1.37307 0
M  V30 3094 H 287.197 3.82234 -1.03505 0
M  V30 3095 H 288.371 2.76055 -3.68958 0
M  V30 3096 H 286.686 2.61943 -3.2369 0
M  V30 3097 H 289.283 5.02201 -1.83572 0
M  V30 3098 H 289.626 4.14709 -0.363576 0
M  V30 3099 H 290.159 3.48058 -1.92614 0
M  V30 3100 H 286.898 4.5365 -4.73161 0
M  V30 3101 H 286.418 5.12143 -3.12201 0
M  V30 3102 H 288.097 5.31994 -3.68227 0
M  V30 3103 N 288.23 0.939286 1.26551 0
M  V30 3104 C 289.641 0.628782 1.75793 0
M  V30 3105 C 289.992 -0.856046 1.7654 0
M  V30 3106 O 289.117 -1.66994 1.3763 0
M  V30 3107 C 289.712 1.13465 3.19235 0
M  V30 3108 C 288.271 0.874601 3.66098 0
M  V30 3109 C 287.418 1.28667 2.45642 0
M  V30 3110 H 290.369 1.1178 1.12654 0
M  V30 3111 H 290.39 0.487609 3.77363 0
M  V30 3112 H 289.902 2.21535 3.1866 0
M  V30 3113 H 288.003 -0.191793 3.72106 0
M  V30 3114 H 288.116 1.50028 4.55004 0
M  V30 3115 H 286.48 0.705109 2.44745 0
M  V30 3116 H 287.263 2.37625 2.47769 0
M  V30 3117 N 289.708 -1.40897 0.706093 0
M  V30 3118 C 290.985 -1.94868 0.169099 0
M  V30 3119 C 291.365 -1.64485 -1.32318 0
M  V30 3120 O 290.713 -0.95744 -2.07474 0
M  V30 3121 C 290.923 -3.45798 0.471654 0
M  V30 3122 C 292.271 -4.22663 0.405127 0
M  V30 3123 O 293.295 -3.53865 0.407168 0
M  V30 3124 O 292.154 -5.45216 0.374383 0
M  V30 3125 H 289.248 -0.82673 0.0211352 0
M  V30 3126 H 291.794 -1.50558 0.782976 0
M  V30 3127 H 290.566 -3.61235 1.50416 0
M  V30 3128 H 290.189 -3.97225 -0.172666 0
M  V30 3129 N 291.186 -0.45159 -1.50991 0
M  V30 3130 C 292.433 0.110074 -2.02201 0
M  V30 3131 C 292.761 1.4146 -1.33489 0
M  V30 3132 O 292.016 1.90617 -0.443125 0
M  V30 3133 C 292.315 0.361728 -3.55565 0
M  V30 3134 C 291.981 -0.858717 -4.42648 0
M  V30 3135 C 290.643 -1.19338 -4.66167 0
M  V30 3136 C 292.995 -1.67221 -4.93646 0
M  V30 3137 C 290.323 -2.34195 -5.37931 0
M  V30 3138 C 292.675 -2.8119 -5.6667 0
M  V30 3139 C 291.339 -3.15094 -5.88449 0
M  V30 3140 H 290.609 0.040279 -0.739904 0
M  V30 3141 H 293.256 -0.601696 -1.81802 0
M  V30 3142 H 291.561 1.15554 -3.74372 0
M  V30 3143 H 293.258 0.80996 -3.92735 0
M  V30 3144 H 289.848 -0.58796 -4.24548 0
M  V30 3145 H 294.032 -1.42686 -4.75347 0
M  V30 3146 H 289.288 -2.6076 -5.53005 0
M  V30 3147 H 293.462 -3.44585 -6.05173 0
M  V30 3148 H 291.089 -4.04204 -6.43835 0
M  V30 3149 N 292.664 1.56529 -0.183458 0
M  V30 3150 C 293.574 2.22144 0.754272 0
M  V30 3151 C 294.59 1.21684 1.24374 0
M  V30 3152 O 295.766 1.54385 1.29333 0
M  V30 3153 C 292.831 2.85884 1.96141 0
M  V30 3154 C 291.892 4.01579 1.51765 0
M  V30 3155 C 291.125 4.6227 2.66725 0
M  V30 3156 O 291.348 4.21865 3.83909 0
M  V30 3157 O 290.282 5.51936 2.40104 0
M  V30 3158 H 294.108 3.02861 0.225527 0
M  V30 3159 H 291.693 1.49331 0.0453032 0
M  V30 3160 H 293.575 3.26253 2.66715 0
M  V30 3161 H 292.25 2.08154 2.47899 0
M  V30 3162 H 291.157 3.65856 0.781049 0
M  V30 3163 H 292.49 4.80938 1.04686 0
M  V30 3164 N 294.142 -0.090211 1.57342 0
M  V30 3165 C 295.391 -0.791531 1.8552 0
M  V30 3166 C 295.704 -1.79659 0.773441 0
M  V30 3167 O 296.91 -2.54616 0.942497 0
M  V30 3168 C 295.366 -1.45856 3.2902 0
M  V30 3169 C 294.974 -0.493017 4.45279 0
M  V30 3170 C 296.718 -2.14332 3.66418 0
M  V30 3171 C 294.625 -1.16491 5.79814 0
M  V30 3172 H 293.555 -0.299356 0.692027 0
M  V30 3173 H 296.206 -0.0445343 1.83446 0
M  V30 3174 H 294.588 -2.25318 3.2565 0
M  V30 3175 H 295.762 0.270464 4.60006 0
M  V30 3176 H 294.077 0.0863061 4.16311 0
M  V30 3177 H 296.674 -2.65344 4.64216 0
M  V30 3178 H 297.017 -2.93447 2.95287 0
M  V30 3179 H 297.55 -1.41724 3.71698 0
M  V30 3180 H 294.289 -0.41447 6.54188 0
M  V30 3181 H 293.809 -1.8997 5.68921 0
M  V30 3182 H 295.488 -1.69001 6.24538 0
M  V30 3183 N 295.62 -1.53406 -0.361157 0
M  V30 3184 C 296.866 -1.70054 -1.10496 0
M  V30 3185 C 297.199 -0.453278 -1.88836 0
M  V30 3186 O 296.474 0.5495 -1.86576 0
M  V30 3187 C 296.757 -2.95317 -2.06058 0
M  V30 3188 C 296.61 -4.3021 -1.31298 0
M  V30 3189 C 297.929 -3.16193 -3.06121 0
M  V30 3190 H 295.048 -0.618799 -0.400321 0
M  V30 3191 H 297.69 -1.86052 -0.385318 0
M  V30 3192 H 295.84 -2.81809 -2.67425 0
M  V30 3193 H 297.512 -4.55538 -0.726807 0
M  V30 3194 H 295.755 -4.29421 -0.614853 0
M  V30 3195 H 296.426 -5.14 -2.01265 0
M  V30 3196 H 298.902 -3.28916 -2.5486 0
M  V30 3197 H 297.778 -4.05266 -3.70204 0
M  V30 3198 H 298.039 -2.31676 -3.76535 0
M  V30 3199 N 297.098 0.621204 -1.44841 0
M  V30 3200 C 298.061 1.71459 -1.521 0
M  V30 3201 C 299.061 1.55696 -0.401933 0
M  V30 3202 O 300.251 1.61011 -0.664925 0
M  V30 3203 C 297.383 3.10624 -1.40447 0
M  V30 3204 H 298.576 1.66394 -2.49506 0
M  V30 3205 H 296.129 0.835745 -1.3208 0
M  V30 3206 H 296.864 3.21277 -0.441737 0
M  V30 3207 H 296.649 3.23473 -2.21602 0
M  V30 3208 H 298.139 3.90293 -1.4853 0
M  V30 3209 N 298.576 1.31904 0.862503 0
M  V30 3210 C 299.816 1.23324 1.63004 0
M  V30 3211 C 300.18 -0.203724 1.90916 0
M  V30 3212 O 301.381 -0.413132 2.65606 0
M  V30 3213 C 299.652 2.06116 2.91978 0
M  V30 3214 S 301.211 2.14478 3.82812 0
M  V30 3215 H 298.029 0.439117 0.559193 0
M  V30 3216 H 300.631 1.66658 1.02202 0
M  V30 3217 H 299.335 3.09593 2.69407 0
M  V30 3218 H 298.866 1.6353 3.57801 0
M  V30 3219 H 300.881 1.28855 4.79177 0
M  V30 3220 N 300.054 -1.07777 1.14986 0
M  V30 3221 C 301.282 -1.84018 0.945773 0
M  V30 3222 C 301.697 -1.81897 -0.505863 0
M  V30 3223 O 301.054 -1.22726 -1.35072 0
M  V30 3224 C 301.105 -3.31287 1.44677 0
M  V30 3225 O 300.826 -3.33449 2.84154 0
M  V30 3226 C 302.327 -4.24311 1.28355 0
M  V30 3227 H 299.547 -0.580716 0.336169 0
M  V30 3228 H 302.091 -1.36077 1.52654 0
M  V30 3229 H 300.246 -3.76594 0.908625 0
M  V30 3230 H 300.66 -4.25427 3.06777 0
M  V30 3231 H 302.134 -5.2573 1.68261 0
M  V30 3232 H 302.611 -4.38612 0.227184 0
M  V30 3233 H 303.217 -3.84836 1.81056 0
M  V30 3234 N 301.532 -0.945985 -1.26051 0
M  V30 3235 C 302.442 -0.465633 -2.29933 0
M  V30 3236 C 303.458 0.462761 -1.67733 0
M  V30 3237 O 304.634 0.341118 -1.9849 0
M  V30 3238 C 301.699 0.256994 -3.45746 0
M  V30 3239 C 300.76 -0.708549 -4.23412 0
M  V30 3240 C 299.993 -0.0203135 -5.33696 0
M  V30 3241 O 300.216 1.19571 -5.57726 0
M  V30 3242 O 299.15 -0.701459 -5.97799 0
M  V30 3243 H 302.976 -1.32866 -2.73094 0
M  V30 3244 H 300.561 -0.712071 -1.31339 0
M  V30 3245 H 302.443 0.663852 -4.16138 0
M  V30 3246 H 301.118 1.09533 -3.04605 0
M  V30 3247 H 300.025 -1.16545 -3.55483 0
M  V30 3248 H 301.358 -1.51465 -4.68315 0
M  V30 3249 N 303.011 1.40521 -0.713556 0
M  V30 3250 C 303.958 2.30723 -0.059684 0
M  V30 3251 C 304.928 1.48079 0.752448 0
M  V30 3252 O 306.113 1.76823 0.71681 0
M  V30 3253 C 303.253 3.34274 0.857594 0
M  V30 3254 C 302.366 4.31986 0.0351536 0
M  V30 3255 C 301.501 5.22605 0.951724 0
M  V30 3256 C 300.54 6.11976 0.123253 0
M  V30 3257 N 299.677 6.9502 0.99459 0
M  V30 3258 H 304.517 2.86074 -0.834596 0
M  V30 3259 H 302.054 1.40879 -0.42326 0
M  V30 3260 H 304.012 3.92879 1.40364 0
M  V30 3261 H 302.642 2.8043 1.59871 0
M  V30 3262 H 301.694 3.7518 -0.628052 0
M  V30 3263 H 303.006 4.95101 -0.606347 0
M  V30 3264 H 302.16 5.86131 1.56638 0
M  V30 3265 H 300.899 4.59759 1.62705 0
M  V30 3266 H 299.904 5.47482 -0.50435 0
M  V30 3267 H 301.129 6.76881 -0.548539 0
M  V30 3268 H 299.075 6.34764 1.6556 0
M  V30 3269 H 298.992 7.54892 0.40908 0
M  V30 3270 H 300.26 7.62997 1.59549 0
M  V30 3271 N 304.489 0.459591 1.5075 0
M  V30 3272 C 305.735 -0.091664 2.03193 0
M  V30 3273 C 306.09 -1.38432 1.3362 0
M  V30 3274 O 305.383 -1.86257 0.449322 0
M  V30 3275 C 305.577 -0.342866 3.55752 0
M  V30 3276 C 305.406 0.923888 4.40107 0
M  V30 3277 C 304.176 1.46388 4.83631 0
M  V30 3278 C 306.374 1.81617 4.81165 0
M  V30 3279 N 304.356 2.68086 5.52271 0
M  V30 3280 C 305.727 2.87907 5.49099 0
M  V30 3281 C 307.782 1.82793 4.63132 0
M  V30 3282 C 306.485 3.95347 6.0091 0
M  V30 3283 C 308.511 2.89182 5.15876 0
M  V30 3284 C 307.873 3.94191 5.83774 0
M  V30 3285 H 303.972 0.00619247 0.781975 0
M  V30 3286 H 306.556 0.625233 1.84388 0
M  V30 3287 H 304.727 -1.0288 3.74527 0
M  V30 3288 H 306.459 -0.887445 3.9485 0
M  V30 3289 H 303.214 1.01466 4.62603 0
M  V30 3290 H 303.638 3.29857 5.91205 0
M  V30 3291 H 308.28 1.0293 4.1008 0
M  V30 3292 H 305.998 4.76035 6.53006 0
M  V30 3293 H 309.584 2.91061 5.0376 0
M  V30 3294 H 308.464 4.75161 6.23853 0
M  V30 3295 N 305.967 -1.56429 0.191757 0
M  V30 3296 C 307.378 -1.83912 -0.321428 0
M  V30 3297 C 307.729 -1.11231 -1.61623 0
M  V30 3298 O 306.854 -0.37202 -2.13178 0
M  V30 3299 C 307.449 -3.33624 -0.589961 0
M  V30 3300 C 306.008 -3.6153 -1.04753 0
M  V30 3301 C 305.155 -2.7714 -0.0943327 0
M  V30 3302 H 308.106 -1.53161 0.415612 0
M  V30 3303 H 308.127 -3.52213 -1.43966 0
M  V30 3304 H 307.639 -3.86495 0.352588 0
M  V30 3305 H 305.74 -3.14089 -2.00447 0
M  V30 3306 H 305.853 -4.69737 -0.942549 0
M  V30 3307 H 304.217 -2.47638 -0.595589 0
M  V30 3308 H 305 -3.32799 0.842601 0
M  V30 3309 N 307.445 0.0818655 -1.57387 0
M  V30 3310 C 308.693 0.781368 -1.86384 0
M  V30 3311 C 309.014 1.78618 -0.782342 0
M  V30 3312 O 308.284 1.94976 0.190061 0
M  V30 3313 H 306.864 0.291562 -0.687751 0
M  V30 3314 H 309.526 0.060348 -1.94807 0
M  V30 3315 H 308.622 1.3038 -2.83562 0
M  V30 3316 N 308.923 1.53595 0.353017 0
M  V30 3317 C 309.833 1.83897 1.45667 0
M  V30 3318 C 310.849 0.728334 1.58023 0
M  V30 3319 O 312.025 1.01968 1.73679 0
M  V30 3320 C 309.09 2.03383 2.80778 0
M  V30 3321 C 308.151 3.27262 2.77845 0
M  V30 3322 C 307.384 3.45809 4.06512 0
M  V30 3323 O 307.607 2.68387 5.03314 0
M  V30 3324 O 306.541 4.39207 4.11559 0
M  V30 3325 H 310.367 2.77686 1.2298 0
M  V30 3326 H 307.952 1.39132 0.544308 0
M  V30 3327 H 309.834 2.17698 3.60812 0
M  V30 3328 H 308.509 1.12783 3.03417 0
M  V30 3329 H 307.416 3.18359 1.96465 0
M  V30 3330 H 308.749 4.17824 2.60161 0
M  V30 3331 N 310.401 -0.613514 1.45168 0
M  V30 3332 C 311.311 -1.75296 1.55912 0
M  V30 3333 C 312.327 -1.68244 0.443856 0
M  V30 3334 O 313.503 -1.88706 0.70371 0
M  V30 3335 C 310.568 -3.1174 1.5172 0
M  V30 3336 C 309.629 -3.30291 2.74238 0
M  V30 3337 C 308.862 -4.60226 2.70236 0
M  V30 3338 O 309.085 -5.42168 1.77229 0
M  V30 3339 O 308.019 -4.81361 3.61352 0
M  V30 3340 H 311.845 -1.69183 2.52212 0
M  V30 3341 H 309.43 -0.776886 1.27612 0
M  V30 3342 H 311.312 -3.93044 1.51968 0
M  V30 3343 H 309.987 -3.18357 0.585697 0
M  V30 3344 H 308.894 -2.48598 2.79553 0
M  V30 3345 H 310.227 -3.28547 3.66494 0
M  V30 3346 N 311.879 -1.3236 -0.855495 0
M  V30 3347 C 312.826 -1.21225 -1.964 0
M  V30 3348 C 313.796 -0.0946204 -1.6583 0
M  V30 3349 O 314.981 -0.27002 -1.8888 0
M  V30 3350 C 312.121 -0.940419 -3.32039 0
M  V30 3351 C 311.234 -2.14276 -3.75113 0
M  V30 3352 C 310.369 -1.80648 -4.9954 0
M  V30 3353 C 309.408 -2.97208 -5.35102 0
M  V30 3354 N 308.545 -2.63678 -6.50706 0
M  V30 3355 H 313.385 -2.16042 -2.05255 0
M  V30 3356 H 310.922 -1.07451 -1.00463 0
M  V30 3357 H 312.88 -0.763311 -4.10158 0
M  V30 3358 H 311.51 -0.0290413 -3.22787 0
M  V30 3359 H 310.562 -2.43017 -2.92655 0
M  V30 3360 H 311.874 -3.01468 -3.97389 0
M  V30 3361 H 311.028 -1.59484 -5.85363 0
M  V30 3362 H 309.767 -0.906678 -4.79198 0
M  V30 3363 H 308.772 -3.19004 -4.47791 0
M  V30 3364 H 309.997 -3.87918 -5.57401 0
M  V30 3365 H 307.943 -1.76238 -6.31883 0
M  V30 3366 H 307.86 -3.444 -6.72997 0
M  V30 3367 H 309.128 -2.45942 -7.39684 0
M  V30 3368 N 313.357 1.07166 -1.15556 0
M  V30 3369 C 314.582 1.84053 -0.955988 0
M  V30 3370 C 315.007 1.81586 0.490739 0
M  V30 3371 O 314.365 1.21018 1.34997 0
M  V30 3372 C 314.413 3.28957 -1.47714 0
M  V30 3373 O 313.517 4.06795 -0.677593 0
M  V30 3374 H 312.858 0.569842 -0.340847 0
M  V30 3375 H 315.388 1.35178 -1.53584 0
M  V30 3376 H 315.398 3.79788 -1.4908 0
M  V30 3377 H 314.073 3.30068 -2.53037 0
M  V30 3378 H 312.65 3.6561 -0.733721 0
M  V30 3379 N 314.835 0.952656 1.25548 0
M  V30 3380 C 316.084 0.602053 1.92505 0
M  V30 3381 C 316.397 -0.864663 1.75451 0
M  V30 3382 O 317.603 -1.32514 2.36965 0
M  V30 3383 C 316.059 1.02607 3.44963 0
M  V30 3384 C 315.667 2.51519 3.70732 0
M  V30 3385 C 317.411 0.747905 4.1786 0
M  V30 3386 C 315.318 2.87732 5.16686 0
M  V30 3387 H 314.248 0.22146 0.720744 0
M  V30 3388 H 316.899 1.15684 1.42441 0
M  V30 3389 H 315.281 0.399712 3.93978 0
M  V30 3390 H 316.455 3.19157 3.32378 0
M  V30 3391 H 314.77 2.76786 3.11092 0
M  V30 3392 H 317.367 0.994647 5.25367 0
M  V30 3393 H 317.71 -0.315629 4.15102 0
M  V30 3394 H 318.243 1.33452 3.74747 0
M  V30 3395 H 314.982 3.93095 5.24554 0
M  V30 3396 H 314.502 2.24765 5.56094 0
M  V30 3397 H 316.181 2.76817 5.84792 0
M  V30 3398 N 316.313 -1.40141 0.720998 0
M  V30 3399 C 317.543 -2.04798 0.27226 0
M  V30 3400 C 317.951 -1.54442 -1.09289 0
M  V30 3401 O 317.294 -0.698342 -1.69908 0
M  V30 3402 C 317.356 -3.59048 0.18027 0
M  V30 3403 C 317.02 -4.32317 1.48159 0
M  V30 3404 C 318.017 -4.59902 2.42458 0
M  V30 3405 C 315.702 -4.71125 1.74202 0
M  V30 3406 C 317.696 -5.25288 3.61042 0
M  V30 3407 C 315.383 -5.36242 2.93066 0
M  V30 3408 C 316.381 -5.63254 3.86308 0
M  V30 3409 O 316.069 -6.27024 5.03086 0
M  V30 3410 H 315.801 -0.665419 0.119139 0
M  V30 3411 H 318.355 -1.80436 0.981432 0
M  V30 3412 H 316.585 -3.82251 -0.58489 0
M  V30 3413 H 318.274 -4.05221 -0.234618 0
M  V30 3414 H 319.04 -4.30379 2.23604 0
M  V30 3415 H 314.919 -4.49466 1.02477 0
M  V30 3416 H 318.463 -5.46289 4.33837 0
M  V30 3417 H 314.36 -5.65185 3.11826 0
M  V30 3418 H 315.128 -6.4552 5.03235 0
M  V30 3419 N 317.792 -0.46758 -1.50504 0
M  V30 3420 C 319.04 0.0884469 -2.01906 0
M  V30 3421 C 319.361 1.40532 -1.35188 0
M  V30 3422 O 318.631 1.89515 -0.496079 0
M  V30 3423 H 317.211 0.0356765 -0.746148 0
M  V30 3424 H 319.873 -0.6172 -1.84869 0
M  V30 3425 H 318.969 0.2425 -3.11156 0
M  V30 3426 N 319.27 1.56325 -0.20005 0
M  V30 3427 C 320.498 2.02105 0.442874 0
M  V30 3428 C 320.913 1.08014 1.5485 0
M  V30 3429 O 320.27 0.0858797 1.82298 0
M  V30 3430 C 320.321 3.47549 0.994583 0
M  V30 3431 O 320.042 4.38049 -0.0669322 0
M  V30 3432 C 321.543 4.0887 1.7129 0
M  V30 3433 H 318.763 0.661807 0.110691 0
M  V30 3434 H 321.307 2.02134 -0.310207 0
M  V30 3435 H 319.462 3.48204 1.69803 0
M  V30 3436 H 319.876 5.23368 0.344462 0
M  V30 3437 H 321.35 5.12475 2.05118 0
M  V30 3438 H 321.827 3.52615 2.61838 0
M  V30 3439 H 322.433 4.12002 1.05518 0
M  V30 3440 N 320.748 -0.0735177 1.57428 0
M  V30 3441 C 321.994 -0.774145 1.87443 0
M  V30 3442 C 322.327 -1.77311 0.792103 0
M  V30 3443 O 321.602 -1.93492 -0.197793 0
M  V30 3444 C 321.885 -1.48367 3.28115 0
M  V30 3445 C 321.738 -0.501227 4.46999 0
M  V30 3446 C 323.057 -2.429 3.66998 0
M  V30 3447 H 320.176 -0.279971 0.681752 0
M  V30 3448 H 322.818 -0.0373616 1.89963 0
M  V30 3449 H 320.968 -2.11171 3.26097 0
M  V30 3450 H 322.64 0.121468 4.6114 0
M  V30 3451 H 320.883 0.183593 4.33411 0
M  V30 3452 H 321.554 -1.03526 5.42205 0
M  V30 3453 H 324.03 -1.90175 3.70098 0
M  V30 3454 H 322.906 -2.89549 4.66318 0
M  V30 3455 H 323.167 -3.27628 2.96837 0
M  V30 3456 N 322.226 -1.5378 -0.344866 0
M  V30 3457 C 323.456 -1.74646 -1.10374 0
M  V30 3458 C 323.864 -0.48491 -1.8288 0
M  V30 3459 O 323.207 0.553062 -1.75177 0
M  V30 3460 C 323.269 -2.87145 -2.16306 0
M  V30 3461 C 322.933 -4.26795 -1.63386 0
M  V30 3462 C 323.93 -5.08412 -1.08688 0
M  V30 3463 C 321.615 -4.73276 -1.68272 0
M  V30 3464 C 323.609 -6.34609 -0.595792 0
M  V30 3465 C 321.296 -5.99446 -1.18776 0
M  V30 3466 C 322.294 -6.79946 -0.645215 0
M  V30 3467 O 321.982 -8.03745 -0.157626 0
M  V30 3468 H 321.714 -0.587112 -0.335075 0
M  V30 3469 H 324.268 -2.01403 -0.403252 0
M  V30 3470 H 322.498 -2.55909 -2.89909 0
M  V30 3471 H 324.187 -2.95992 -2.77747 0
M  V30 3472 H 324.953 -4.73666 -1.04236 0
M  V30 3473 H 320.832 -4.10677 -2.09442 0
M  V30 3474 H 324.376 -6.97389 -0.171654 0
M  V30 3475 H 320.273 -6.33687 -1.22928 0
M  V30 3476 H 321.041 -8.18038 -0.275037 0
M  V30 3477 N 323.704 0.605807 -1.45491 0
M  V30 3478 C 324.929 1.39625 -1.53361 0
M  V30 3479 C 325.354 1.87351 -0.167645 0
M  V30 3480 O 324.712 1.60243 0.848051 0
M  V30 3481 C 324.76 2.57559 -2.5238 0
M  V30 3482 O 323.864 3.58248 -2.04285 0
M  V30 3483 H 323.205 0.416771 -0.516912 0
M  V30 3484 H 325.735 0.737103 -1.90861 0
M  V30 3485 H 325.745 3.0478 -2.71244 0
M  V30 3486 H 324.42 2.22171 -3.51586 0
M  V30 3487 H 322.997 3.17664 -1.95305 0
M  V30 3488 N 325.182 1.32811 0.848464 0
M  V30 3489 C 326.112 1.24882 1.97299 0
M  V30 3490 C 327.093 0.131357 1.69592 0
M  V30 3491 O 328.278 0.319553 1.91553 0
M  V30 3492 C 325.408 0.97746 3.33261 0
M  V30 3493 C 324.362 2.05682 3.75338 0
M  V30 3494 C 323.688 1.63777 5.09 0
M  V30 3495 C 324.988 3.47254 3.90144 0
M  V30 3496 H 326.682 2.18966 2.04191 0
M  V30 3497 H 324.228 1.05413 0.981029 0
M  V30 3498 H 326.181 0.908513 4.1149 0
M  V30 3499 H 324.905 0.000980011 3.266 0
M  V30 3500 H 323.564 2.11603 2.99366 0
M  V30 3501 H 323.212 0.648569 4.98801 0
M  V30 3502 H 322.912 2.36 5.38124 0
M  V30 3503 H 324.436 1.5833 5.89715 0
M  V30 3504 H 325.85 3.43888 4.58709 0
M  V30 3505 H 324.247 4.1788 4.30693 0
M  V30 3506 H 325.317 3.86462 2.92874 0
M  V30 3507 N 326.66 -1.06551 1.16123 0
M  V30 3508 C 327.885 -1.83544 0.965735 0
M  V30 3509 C 328.31 -1.81843 -0.481102 0
M  V30 3510 O 327.668 -1.21732 -1.34354 0
M  V30 3511 C 327.716 -3.28169 1.49457 0
M  V30 3512 O 326.82 -4.0643 0.699157 0
M  V30 3513 H 326.161 -0.568026 0.343864 0
M  V30 3514 H 328.691 -1.34362 1.54299 0
M  V30 3515 H 328.701 -3.78992 1.51092 0
M  V30 3516 H 327.376 -3.28722 2.54784 0
M  V30 3517 H 325.953 -3.65216 0.7531 0
M  V30 3518 N 328.138 -0.959301 -1.25041 0
M  V30 3519 C 329.363 -0.633507 -1.97488 0
M  V30 3520 C 329.788 0.788555 -1.70773 0
M  V30 3521 O 329.146 1.53394 -0.966431 0
M  V30 3522 C 329.194 -0.904057 -3.49083 0
M  V30 3523 O 328.298 0.0147939 -4.12397 0
M  V30 3524 H 327.639 -0.240368 -0.618966 0
M  V30 3525 H 330.169 -1.28717 -1.59038 0
M  V30 3526 H 330.179 -0.832203 -3.99423 0
M  V30 3527 H 328.854 -1.94048 -3.67856 0
M  V30 3528 H 327.431 -0.109664 -3.72739 0
M  V30 3529 N 329.616 1.39756 -0.72842 0
M  V30 3530 C 330.546 2.33289 -0.0991354 0
M  V30 3531 C 331.527 1.53568 0.731489 0
M  V30 3532 O 332.712 1.81987 0.677807 0
M  V30 3533 C 329.842 3.3763 0.813834 0
M  V30 3534 C 328.796 4.2791 0.0878663 0
M  V30 3535 C 328.122 5.22894 1.11741 0
M  V30 3536 C 329.422 5.11314 -1.06563 0
M  V30 3537 H 331.116 2.86163 -0.880408 0
M  V30 3538 H 328.662 1.37591 -0.424819 0
M  V30 3539 H 330.615 4.0201 1.26355 0
M  V30 3540 H 329.339 2.83181 1.62715 0
M  V30 3541 H 327.998 3.65 -0.342159 0
M  V30 3542 H 327.646 4.64744 1.92412 0
M  V30 3543 H 327.346 5.84143 0.636477 0
M  V30 3544 H 328.87 5.90151 1.56697 0
M  V30 3545 H 330.284 5.69076 -0.694671 0
M  V30 3546 H 328.681 5.81671 -1.47577 0
M  V30 3547 H 329.751 4.46534 -1.89038 0
M  V30 3548 N 331.094 0.475555 1.50254 0
M  V30 3549 C 332.024 -0.30611 2.31485 0
M  V30 3550 C 333.005 -0.986228 1.38591 0
M  V30 3551 O 334.19 -0.982541 1.67511 0
M  V30 3552 C 331.32 -1.38588 3.1845 0
M  V30 3553 C 330.274 -0.827115 4.19932 0
M  V30 3554 C 329.6 -2.00551 4.95665 0
M  V30 3555 C 330.9 0.16463 5.2204 0
M  V30 3556 H 332.594 0.371866 2.97082 0
M  V30 3557 H 330.14 0.180282 1.42867 0
M  V30 3558 H 332.093 -1.94023 3.74076 0
M  V30 3559 H 330.817 -2.09269 2.50747 0
M  V30 3560 H 329.476 -0.294702 3.65414 0
M  V30 3561 H 329.124 -2.6994 4.2443 0
M  V30 3562 H 328.824 -1.63784 5.64313 0
M  V30 3563 H 330.348 -2.56468 5.54127 0
M  V30 3564 H 331.762 -0.300699 5.72511 0
M  V30 3565 H 330.159 0.446813 5.98434 0
M  V30 3566 H 331.229 1.08905 4.72512 0
M  V30 3567 N 332.573 -1.56217 0.208337 0
M  V30 3568 C 333.822 -1.97124 -0.427204 0
M  V30 3569 C 334.135 -1.09859 -1.61835 0
M  V30 3570 O 335.341 -1.40606 -2.32255 0
M  V30 3571 C 333.797 -3.50633 -0.811442 0
M  V30 3572 C 333.405 -4.46582 0.35615 0
M  V30 3573 C 335.149 -4.00282 -1.41332 0
M  V30 3574 C 333.056 -5.91379 -0.0497852 0
M  V30 3575 H 331.986 -0.736086 -0.163381 0
M  V30 3576 H 334.637 -1.8099 0.302456 0
M  V30 3577 H 333.019 -3.62319 -1.59815 0
M  V30 3578 H 334.193 -4.46636 1.1337 0
M  V30 3579 H 332.508 -4.07202 0.870396 0
M  V30 3580 H 335.105 -5.0595 -1.72972 0
M  V30 3581 H 335.448 -3.45359 -2.32449 0
M  V30 3582 H 335.981 -3.91764 -0.690323 0
M  V30 3583 H 332.72 -6.50255 0.827529 0
M  V30 3584 H 332.24 -5.94549 -0.791926 0
M  V30 3585 H 333.919 -6.45209 -0.481042 0
M  V30 3586 N 334.051 0.0651679 -1.57465 0
M  V30 3587 C 334.981 1.07693 -2.07182 0
M  V30 3588 C 335.962 1.39962 -0.966673 0
M  V30 3589 O 337.147 1.49475 -1.2398 0
M  V30 3590 C 334.277 2.3885 -2.52127 0
M  V30 3591 C 333.231 2.20917 -3.66579 0
M  V30 3592 C 332.557 3.57515 -3.97601 0
M  V30 3593 C 333.857 1.62493 -4.9638 0
M  V30 3594 H 335.551 0.663199 -2.91962 0
M  V30 3595 H 333.097 0.317569 -1.40455 0
M  V30 3596 H 335.05 3.09928 -2.85522 0
M  V30 3597 H 333.774 2.82215 -1.64384 0
M  V30 3598 H 332.433 1.52279 -3.33477 0
M  V30 3599 H 332.081 3.98463 -3.06979 0
M  V30 3600 H 331.781 3.46353 -4.74672 0
M  V30 3601 H 333.305 4.30013 -4.33499 0
M  V30 3602 H 334.719 2.23445 -5.27963 0
M  V30 3603 H 333.116 1.62009 -5.77818 0
M  V30 3604 H 334.186 0.587041 -4.81333 0
M  V30 3605 N 335.529 1.53961 0.336706 0
M  V30 3606 C 336.759 1.75229 1.09446 0
M  V30 3607 C 337.167 0.494602 1.82621 0
M  V30 3608 O 336.51 -0.543764 1.75468 0
M  V30 3609 C 336.572 2.88288 2.1478 0
M  V30 3610 C 336.236 4.27656 1.6112 0
M  V30 3611 C 337.233 5.08981 1.0599 0
M  V30 3612 C 334.918 4.74161 1.6576 0
M  V30 3613 C 336.912 6.34916 0.562129 0
M  V30 3614 C 334.599 6.00067 1.15595 0
M  V30 3615 C 335.597 6.80278 0.609147 0
M  V30 3616 O 335.285 8.03818 0.114999 0
M  V30 3617 H 335.017 0.588881 0.331956 0
M  V30 3618 H 337.571 2.01614 0.392566 0
M  V30 3619 H 335.801 2.57443 2.88548 0
M  V30 3620 H 337.49 2.97461 2.76174 0
M  V30 3621 H 338.256 4.74213 1.01722 0
M  V30 3622 H 334.135 4.11781 2.07261 0
M  V30 3623 H 337.679 6.9747 0.134668 0
M  V30 3624 H 333.576 6.3433 1.19566 0
M  V30 3625 H 334.344 8.18172 0.231651 0
M  V30 3626 N 337.007 -0.598083 1.45811 0
M  V30 3627 C 338.253 -1.35882 1.50545 0
M  V30 3628 C 338.586 -1.93616 0.150445 0
M  V30 3629 O 337.861 -1.75604 -0.83628 0
M  V30 3630 C 338.144 -2.49966 2.59208 0
M  V30 3631 C 337.997 -1.97367 4.04186 0
M  V30 3632 C 339.316 -3.52068 2.64076 0
M  V30 3633 H 336.435 -0.492717 0.548087 0
M  V30 3634 H 339.077 -0.673319 1.77669 0
M  V30 3635 H 337.227 -3.08443 2.3621 0
M  V30 3636 H 338.899 -1.43466 4.38423 0
M  V30 3637 H 337.142 -1.283 4.14393 0
M  V30 3638 H 337.813 -2.79649 4.75921 0
M  V30 3639 H 340.289 -3.03448 2.84708 0
M  V30 3640 H 339.165 -4.2937 3.41954 0
M  V30 3641 H 339.426 -4.08304 1.69531 0
M  V30 3642 N 338.485 -1.33259 -0.841409 0
M  V30 3643 C 339.415 -1.25926 -1.96634 0
M  V30 3644 C 340.396 -0.140349 -1.6952 0
M  V30 3645 O 341.581 -0.329707 -1.91381 0
M  V30 3646 C 338.711 -0.99512 -3.32738 0
M  V30 3647 C 337.665 -2.0767 -3.74242 0
M  V30 3648 C 336.991 -1.66474 -5.08125 0
M  V30 3649 C 338.291 -3.49318 -3.88297 0
M  V30 3650 H 339.985 -2.20046 -2.03027 0
M  V30 3651 H 337.531 -1.05931 -0.975425 0
M  V30 3652 H 339.484 -0.930323 -4.11002 0
M  V30 3653 H 338.208 -0.0183004 -3.26595 0
M  V30 3654 H 336.867 -2.13187 -2.98239 0
M  V30 3655 H 336.515 -0.675012 -4.9845 0
M  V30 3656 H 336.215 -2.3885 -5.36865 0
M  V30 3657 H 337.739 -1.61455 -5.88867 0
M  V30 3658 H 339.153 -3.46316 -4.56879 0
M  V30 3659 H 337.55 -4.20158 -4.28471 0
M  V30 3660 H 338.62 -3.8801 -2.9082 0
M  V30 3661 N 339.963 1.05934 -1.16686 0
M  V30 3662 C 341.374 1.60263 -0.957745 0
M  V30 3663 C 341.725 1.89789 0.49745 0
M  V30 3664 O 340.85 1.67401 1.37135 0
M  V30 3665 C 341.445 2.91172 -1.73218 0
M  V30 3666 C 340.004 3.42188 -1.56794 0
M  V30 3667 C 339.151 2.16028 -1.73859 0
M  V30 3668 H 342.102 0.888392 -1.31504 0
M  V30 3669 H 342.123 3.60744 -1.21014 0
M  V30 3670 H 341.635 2.6965 -2.79124 0
M  V30 3671 H 339.736 3.68762 -0.533437 0
M  V30 3672 H 339.849 4.17273 -2.35414 0
M  V30 3673 H 338.213 2.26426 -1.16633 0
M  V30 3674 H 338.996 1.96985 -2.81161 0
M  V30 3675 N 341.441 0.965919 1.2453 0
M  V30 3676 C 342.371 0.513476 2.27784 0
M  V30 3677 C 343.352 -0.445974 1.6415 0
M  V30 3678 O 344.537 -0.342485 1.91156 0
M  V30 3679 C 341.667 -0.198839 3.4673 0
M  V30 3680 C 340.621 0.676456 4.2262 0
M  V30 3681 C 339.947 -0.167248 5.34438 0
M  V30 3682 C 341.247 1.96017 4.84123 0
M  V30 3683 H 342.941 1.3765 2.65881 0
M  V30 3684 H 340.487 0.663321 1.27813 0
M  V30 3685 H 342.44 -0.526567 4.18097 0
M  V30 3686 H 341.164 -1.0962 3.07654 0
M  V30 3687 H 339.823 0.98743 3.53052 0
M  V30 3688 H 339.471 -1.0647 4.91603 0
M  V30 3689 H 339.171 0.415181 5.86131 0
M  V30 3690 H 340.695 -0.489688 6.08633 0
M  V30 3691 H 342.109 1.69814 5.47573 0
M  V30 3692 H 340.506 2.48918 5.4604 0
M  V30 3693 H 341.576 2.65622 4.05676 0
M  V30 3694 N 342.919 -1.39368 0.735821 0
M  V30 3695 C 344.167 -2.00101 0.283562 0
M  V30 3696 C 344.488 -1.5868 -1.13338 0
M  V30 3697 O 343.758 -0.835423 -1.77193 0
M  V30 3698 H 342.338 -0.740024 0.101851 0
M  V30 3699 H 345 -1.70404 0.945962 0
M  V30 3700 H 344.096 -3.10323 0.332604 0
M  V30 3701 N 344.397 -0.483516 -1.5 0
M  V30 3702 C 345.646 0.0689102 -2.01582 0
M  V30 3703 C 345.959 1.39655 -1.36952 0
M  V30 3704 O 347.165 2.03465 -1.79762 0
M  V30 3705 C 345.621 0.173302 -3.59483 0
M  V30 3706 C 345.229 -1.14665 -4.33077 0
M  V30 3707 C 346.973 0.677024 -4.19066 0
M  V30 3708 C 344.88 -1.00537 -5.82792 0
M  V30 3709 H 343.81 0.0295277 -0.753422 0
M  V30 3710 H 346.461 -0.620295 -1.72698 0
M  V30 3711 H 344.843 0.926569 -3.85007 0
M  V30 3712 H 346.017 -1.91184 -4.19268 0
M  V30 3713 H 344.332 -1.58244 -3.85159 0
M  V30 3714 H 346.929 0.799952 -5.28682 0
M  V30 3715 H 347.272 1.67151 -3.81269 0
M  V30 3716 H 347.805 -0.0192083 -3.97795 0
M  V30 3717 H 344.544 -1.9736 -6.25083 0
M  V30 3718 H 344.064 -0.280776 -5.99142 0
M  V30 3719 H 345.743 -0.677 -6.43448 0
M  V30 3720 N 345.875 1.56104 -0.216619 0
M  V30 3721 C 347.124 1.97348 0.416744 0
M  V30 3722 C 347.437 1.10715 1.6125 0
M  V30 3723 O 348.643 1.41836 2.31506 0
M  V30 3724 C 347.099 3.51059 0.792835 0
M  V30 3725 C 346.707 4.46387 -0.379828 0
M  V30 3726 C 348.451 4.01026 1.39208 0
M  V30 3727 C 346.358 5.91397 0.0184223 0
M  V30 3728 H 345.288 0.736942 0.159475 0
M  V30 3729 H 347.939 1.80827 -0.31205 0
M  V30 3730 H 346.321 3.63162 1.57891 0
M  V30 3731 H 347.495 4.46029 -1.15737 0
M  V30 3732 H 345.81 4.06734 -0.891979 0
M  V30 3733 H 348.407 5.0686 1.70286 0
M  V30 3734 H 348.75 3.46587 2.30614 0
M  V30 3735 H 349.283 3.92125 0.669537 0
M  V30 3736 H 346.022 6.49807 -0.862002 0
M  V30 3737 H 345.542 5.94961 0.760384 0
M  V30 3738 H 347.221 6.45455 0.446818 0
M  V30 3739 N 347.353 -0.0568162 1.57498 0
M  V30 3740 C 348.578 -0.769402 1.92601 0
M  V30 3741 C 349.003 -1.69559 0.814336 0
M  V30 3742 O 348.361 -1.79811 -0.231903 0
M  V30 3743 C 348.409 -1.52634 3.26704 0
M  V30 3744 O 347.513 -2.63797 3.16994 0
M  V30 3745 H 346.854 -0.208909 0.63028 0
M  V30 3746 H 349.384 -0.0205798 2.0459 0
M  V30 3747 H 349.394 -1.90234 3.60936 0
M  V30 3748 H 348.069 -0.846875 4.07186 0
M  V30 3749 H 346.646 -2.28943 2.94346 0
M  V30 3750 N 348.832 -1.54138 -0.328536 0
M  V30 3751 C 350.079 -1.72105 -1.06706 0
M  V30 3752 C 350.407 -0.492111 -1.88171 0
M  V30 3753 O 349.662 0.526153 -1.88494 0
M  V30 3754 C 349.961 -2.9457 -2.02393 0
M  V30 3755 C 349.627 -4.29544 -1.37122 0
M  V30 3756 C 348.289 -4.6624 -1.19052 0
M  V30 3757 C 350.641 -5.1333 -0.902331 0
M  V30 3758 C 347.969 -5.84325 -0.527331 0
M  V30 3759 C 350.321 -6.32094 -0.252988 0
M  V30 3760 C 348.985 -6.67473 -0.0600901 0
M  V30 3761 H 348.255 -0.629775 -0.390466 0
M  V30 3762 H 350.902 -1.88372 -0.34473 0
M  V30 3763 H 349.207 -2.72969 -2.81061 0
M  V30 3764 H 350.904 -3.05665 -2.59557 0
M  V30 3765 H 347.494 -4.0067 -1.52188 0
M  V30 3766 H 351.678 -4.855 -1.02974 0
M  V30 3767 H 346.934 -6.103 -0.366634 0
M  V30 3768 H 351.108 -6.96299 0.118366 0
M  V30 3769 H 348.735 -7.58832 0.455828 0
M  V30 3770 N 350.31 0.590341 -1.46126 0
M  V30 3771 C 351.535 1.37991 -1.54833 0
M  V30 3772 C 351.96 1.87163 -0.187506 0
M  V30 3773 O 351.318 1.61133 0.831008 0
M  V30 3774 C 351.366 2.54867 -2.55098 0
M  V30 3775 O 350.47 3.56061 -2.08073 0
M  V30 3776 H 349.811 0.411265 -0.521303 0
M  V30 3777 H 352.341 0.716819 -1.91632 0
M  V30 3778 H 352.351 3.01886 -2.74461 0
M  V30 3779 H 351.026 2.18429 -3.53923 0
M  V30 3780 H 349.603 3.15574 -1.98664 0
M  V30 3781 N 351.788 1.33704 0.83433 0
M  V30 3782 C 353.018 1.28281 1.6195 0
M  V30 3783 C 353.426 -0.147603 1.88623 0
M  V30 3784 O 352.769 -1.1016 1.47005 0
M  V30 3785 C 352.831 1.99386 2.99141 0
M  V30 3786 C 352.495 3.48681 2.95416 0
M  V30 3787 C 353.492 4.438 2.70809 0
M  V30 3788 C 351.177 3.90925 3.15409 0
M  V30 3789 C 353.171 5.79138 2.66229 0
M  V30 3790 C 350.858 5.26366 3.10454 0
M  V30 3791 C 351.856 6.20284 2.85895 0
M  V30 3792 O 351.544 7.53245 2.80852 0
M  V30 3793 H 351.276 0.44315 0.510484 0
M  V30 3794 H 353.83 1.76711 1.04702 0
M  V30 3795 H 352.06 1.45554 3.58261 0
M  V30 3796 H 353.749 1.87403 3.60049 0
M  V30 3797 H 354.515 4.12485 2.5511 0
M  V30 3798 H 350.394 3.18229 3.33543 0
M  V30 3799 H 353.938 6.52416 2.4698 0
M  V30 3800 H 349.835 5.57304 3.25703 0
M  V30 3801 H 350.603 7.62846 2.96661 0
M  V30 3802 N 353.266 -1.05314 1.17247 0
M  V30 3803 C 354.494 -1.81971 0.984593 0
M  V30 3804 C 354.909 -1.82929 -0.467166 0
M  V30 3805 O 354.266 -1.25564 -1.32438 0
M  V30 3806 C 354.317 -3.28143 1.51672 0
M  V30 3807 O 354.038 -3.27347 2.91163 0
M  V30 3808 C 355.539 -4.21493 1.37326 0
M  V30 3809 H 352.759 -0.573455 0.348411 0
M  V30 3810 H 355.303 -1.32808 1.55506 0
M  V30 3811 H 353.458 -3.74582 0.988302 0
M  V30 3812 H 353.872 -4.18824 3.15732 0
M  V30 3813 H 355.346 -5.22043 1.79375 0
M  V30 3814 H 355.823 -4.38031 0.320169 0
M  V30 3815 H 356.429 -3.80909 1.89178 0
M  V30 3816 N 354.744 -0.972509 -1.24016 0
M  V30 3817 C 356.16 -0.679827 -1.44397 0
M  V30 3818 C 356.36 0.756716 -1.86751 0
M  V30 3819 O 355.416 1.53007 -2.00861 0
M  V30 3820 C 356.729 -1.66803 -2.50195 0
M  V30 3821 C 358.277 -1.68119 -2.64017 0
M  V30 3822 C 358.752 -2.65748 -3.73017 0
M  V30 3823 N 360.243 -2.64219 -3.8045 0
M  V30 3824 C 360.978 -3.36433 -4.64328 0
M  V30 3825 N 360.474 -4.1818 -5.52356 0
M  V30 3826 N 362.267 -3.25235 -4.58453 0
M  V30 3827 H 354.418 -1.90059 -0.948228 0
M  V30 3828 H 356.681 -0.818527 -0.478245 0
M  V30 3829 H 356.387 -2.69498 -2.25973 0
M  V30 3830 H 356.261 -1.4446 -3.48441 0
M  V30 3831 H 358.648 -0.661319 -2.87594 0
M  V30 3832 H 358.729 -1.94525 -1.66113 0
M  V30 3833 H 358.373 -3.67872 -3.50189 0
M  V30 3834 H 358.303 -2.36619 -4.70446 0
M  V30 3835 H 360.794 -2.04887 -3.17537 0
M  V30 3836 H 361.107 -4.70157 -6.13329 0
M  V30 3837 H 359.452 -4.22273 -5.52006 0
M  V30 3838 H 362.643 -2.60829 -3.88698 0
M  V30 3839 H 362.816 -3.81776 -5.23594 0
M  V30 3840 N 356.222 1.38976 -0.743202 0
M  V30 3841 C 357.471 1.99581 -0.291592 0
M  V30 3842 C 357.784 1.59656 1.13001 0
M  V30 3843 O 358.99 2.13157 1.68156 0
M  V30 3844 C 357.446 3.56813 -0.470391 0
M  V30 3845 C 357.054 4.05695 -1.90041 0
M  V30 3846 C 358.798 4.24423 -0.0809709 0
M  V30 3847 C 356.705 5.5553 -2.02832 0
M  V30 3848 H 355.635 0.746615 -0.105272 0
M  V30 3849 H 358.286 1.58872 -0.918258 0
M  V30 3850 H 356.668 3.95359 0.225299 0
M  V30 3851 H 357.842 3.78464 -2.62872 0
M  V30 3852 H 356.157 3.50775 -2.24379 0
M  V30 3853 H 358.754 5.34474 -0.155445 0
M  V30 3854 H 359.097 4.04962 0.96497 0
M  V30 3855 H 359.63 3.9108 -0.728124 0
M  V30 3856 H 356.369 5.79881 -3.05643 0
M  V30 3857 H 355.889 5.84537 -1.34448 0
M  V30 3858 H 357.568 6.21069 -1.81335 0
M  V30 3859 N 357.7 0.491464 1.49741 0
M  V30 3860 C 358.946 -0.0485431 2.03342 0
M  V30 3861 C 359.301 -1.35566 1.36527 0
M  V30 3862 O 358.594 -1.85262 0.488729 0
M  V30 3863 C 358.788 -0.267329 3.56399 0
M  V30 3864 C 358.617 1.01703 4.38049 0
M  V30 3865 C 357.387 1.56614 4.80417 0
M  V30 3866 C 359.585 1.91782 4.77204 0
M  V30 3867 N 357.567 2.7974 5.4646 0
M  V30 3868 C 358.938 2.99489 5.42868 0
M  V30 3869 C 360.993 1.92575 4.5915 0
M  V30 3870 C 359.696 4.08005 5.92389 0
M  V30 3871 C 361.722 3.0006 5.09626 0
M  V30 3872 C 361.084 4.06485 5.75282 0
M  V30 3873 H 357.183 0.0227779 0.781668 0
M  V30 3874 H 359.767 0.664204 1.8302 0
M  V30 3875 H 357.938 -0.949126 3.76625 0
M  V30 3876 H 359.67 -0.803492 3.96644 0
M  V30 3877 H 356.425 1.11256 4.60347 0
M  V30 3878 H 356.849 3.42323 5.84075 0
M  V30 3879 H 361.491 1.11605 4.07804 0
M  V30 3880 H 359.209 4.89779 6.42761 0
M  V30 3881 H 362.795 3.01681 4.97473 0
M  V30 3882 H 361.675 4.88287 6.13633 0
M  V30 3883 N 359.178 -1.55987 0.224894 0
M  V30 3884 C 360.403 -2.03232 -0.41369 0
M  V30 3885 C 360.828 -1.10359 -1.52323 0
M  V30 3886 O 360.186 -0.092395 -1.81064 0
M  V30 3887 C 360.234 -3.48682 -0.919405 0
M  V30 3888 O 359.338 -3.58947 -2.03054 0
M  V30 3889 H 358.679 -0.657428 -0.0931903 0
M  V30 3890 H 361.209 -2.01679 0.34451 0
M  V30 3891 H 361.219 -3.8907 -1.22835 0
M  V30 3892 H 359.894 -4.15761 -0.107339 0
M  V30 3893 H 358.471 -3.30448 -1.72796 0
M  V30 3894 N 360.656 0.0484629 -1.57525 0
M  V30 3895 C 361.603 1.05504 -2.05275 0
M  V30 3896 C 362.573 1.37084 -0.937927 0
M  V30 3897 O 363.758 1.47754 -1.2072 0
M  V30 3898 C 360.898 2.35676 -2.52093 0
M  V30 3899 C 360.011 2.10423 -3.77288 0
M  V30 3900 C 359.146 3.34327 -4.12794 0
M  V30 3901 C 358.185 3.04542 -5.30962 0
M  V30 3902 N 357.322 4.20841 -5.61994 0
M  V30 3903 H 362.162 0.640885 -2.91027 0
M  V30 3904 H 359.699 0.304854 -1.43906 0
M  V30 3905 H 361.657 3.11709 -2.77297 0
M  V30 3906 H 360.287 2.7485 -1.69285 0
M  V30 3907 H 359.339 1.24976 -3.59284 0
M  V30 3908 H 360.651 1.84438 -4.63448 0
M  V30 3909 H 359.805 4.1874 -4.39024 0
M  V30 3910 H 358.544 3.63408 -3.25247 0
M  V30 3911 H 357.549 2.18528 -5.04505 0
M  V30 3912 H 358.774 2.76758 -6.20146 0
M  V30 3913 H 356.72 4.4991 -4.77406 0
M  V30 3914 H 356.637 3.98212 -6.42622 0
M  V30 3915 H 357.905 5.06184 -5.92789 0
M  V30 3916 N 362.134 1.5431 0.320358 0
M  V30 3917 C 363.064 1.86912 1.3995 0
M  V30 3918 C 364.045 0.726211 1.53819 0
M  V30 3919 O 365.23 0.980233 1.67646 0
M  V30 3920 C 362.36 2.09932 2.7667 0
M  V30 3921 C 361.314 3.25776 2.77586 0
M  V30 3922 C 360.64 3.34173 4.17412 0
M  V30 3923 C 361.94 4.6335 2.41048 0
M  V30 3924 H 363.634 2.77292 1.12914 0
M  V30 3925 H 361.18 1.33421 0.541738 0
M  V30 3926 H 363.133 2.31324 3.52232 0
M  V30 3927 H 361.857 1.16304 3.0519 0
M  V30 3928 H 360.516 3.04276 2.04479 0
M  V30 3929 H 360.164 2.38098 4.43078 0
M  V30 3930 H 359.864 4.12033 4.18931 0
M  V30 3931 H 361.388 3.57803 4.94782 0
M  V30 3932 H 362.802 4.84602 3.06324 0
M  V30 3933 H 361.199 5.43782 2.53813 0
M  V30 3934 H 362.269 4.65381 1.36193 0
M  V30 3935 N 363.613 -0.582584 1.46437 0
M  V30 3936 C 364.56 -1.69164 1.5701 0
M  V30 3937 C 365.53 -1.60847 0.414403 0
M  V30 3938 O 366.715 -1.80058 0.631171 0
M  V30 3939 C 363.855 -3.075 1.56646 0
M  V30 3940 C 362.968 -3.2644 2.82951 0
M  V30 3941 C 362.103 -4.55026 2.7409 0
M  V30 3942 C 361.142 -4.6731 3.95333 0
M  V30 3943 N 360.279 -5.87221 3.84858 0
M  V30 3944 H 365.119 -1.59464 2.51744 0
M  V30 3945 H 362.656 -0.777186 1.24893 0
M  V30 3946 H 364.614 -3.8757 1.5442 0
M  V30 3947 H 363.244 -3.16096 0.654439 0
M  V30 3948 H 362.296 -2.39974 2.95155 0
M  V30 3949 H 363.608 -3.31385 3.72808 0
M  V30 3950 H 362.762 -5.43324 2.6997 0
M  V30 3951 H 361.501 -4.52519 1.81873 0
M  V30 3952 H 360.506 -3.77429 3.99784 0
M  V30 3953 H 361.731 -4.71595 4.88646 0
M  V30 3954 H 359.677 -5.85712 2.95427 0
M  V30 3955 H 359.594 -5.93435 4.6837 0
M  V30 3956 H 360.862 -6.7795 3.84713 0
M  V30 3957 N 365.091 -1.34144 -0.827227 0
M  V30 3958 C 366.039 -1.25364 -1.95925 0
M  V30 3959 C 367.033 -0.152608 -1.68711 0
M  V30 3960 O 368.239 -0.317311 -1.77181 0
M  V30 3961 H 364.614 -0.389342 -0.643364 0
M  V30 3962 H 366.585 -2.21045 -2.00454 0
M  V30 3963 C 365.334 -1.02158 -3.32354 0
M  V30 3964 H 364.657 -1.86111 -3.5384 0
M  V30 3965 H 366.097 -1.00048 -4.12027 0
M  V30 3966 C 364.556 0.275244 -3.35774 0
M  V30 3967 O 365.086 1.27806 -3.80826 0
M  V30 3968 N 363.292 0.306853 -2.88975 0
M  V30 3969 H 362.839 -0.509777 -2.52506 0
M  V30 3970 H 362.797 1.17432 -2.91646 0
M  V30 3971 N 366.569 1.04691 -1.17803 0
M  V30 3972 C 367.519 2.10856 -0.867391 0
M  V30 3973 C 368.503 1.601 0.160206 0
M  V30 3974 O 369.695 1.76948 -0.042947 0
M  V30 3975 C 366.824 3.411 -0.388012 0
M  V30 3976 C 365.91 3.9864 -1.44732 0
M  V30 3977 N 366.301 4.30075 -2.66212 0
M  V30 3978 C 364.599 4.26439 -1.30637 0
M  V30 3979 C 365.3 4.76033 -3.34317 0
M  V30 3980 N 364.276 4.76462 -2.61696 0
M  V30 3981 H 368.078 2.33029 -1.79094 0
M  V30 3982 H 365.592 1.22386 -1.0675 0
M  V30 3983 H 367.589 4.16641 -0.146994 0
M  V30 3984 H 366.249 3.20357 0.529271 0
M  V30 3985 H 367.26 4.19917 -3.03134 0
M  V30 3986 H 363.937 4.15056 -0.451129 0
M  V30 3987 H 365.327 5.09427 -4.38103 0
M  V30 3988 N 368.047 0.979072 1.23499 0
M  V30 3989 C 369.293 0.648178 1.92163 0
M  V30 3990 C 369.626 -0.816049 1.76222 0
M  V30 3991 O 368.901 -1.58849 1.12237 0
M  V30 3992 C 369.184 1.03773 3.44824 0
M  V30 3993 C 369.037 2.55948 3.69879 0
M  V30 3994 C 370.356 0.580653 4.36253 0
M  V30 3995 H 367.475 0.236952 0.69787 0
M  V30 3996 H 370.117 1.22012 1.45647 0
M  V30 3997 H 368.267 0.551058 3.84572 0
M  V30 3998 H 369.939 3.12179 3.3962 0
M  V30 3999 H 368.182 2.98641 3.14636 0
M  V30 4000 H 368.853 2.78255 4.76737 0
M  V30 4001 H 371.329 0.998465 4.03943 0
M  V30 4002 H 370.205 0.881663 5.41773 0
M  V30 4003 H 370.466 -0.519052 4.39042 0
M  V30 4004 N 369.525 -1.3858 0.750561 0
M  V30 4005 C 370.75 -2.04997 0.314812 0
M  V30 4006 C 371.175 -1.56235 -1.04749 0
M  V30 4007 O 370.533 -0.712981 -1.66692 0
M  V30 4008 C 370.581 -3.58961 0.343415 0
M  V30 4009 O 369.685 -4.07025 -0.663628 0
M  V30 4010 H 369.026 -0.649081 0.139962 0
M  V30 4011 H 371.556 -1.77313 1.02084 0
M  V30 4012 H 371.566 -4.07542 0.193233 0
M  V30 4013 H 370.241 -3.93811 1.33738 0
M  V30 4014 H 368.818 -3.6982 -0.478307 0
M  V30 4015 N 371.003 -0.499398 -1.49478 0
M  V30 4016 C 372.414 -0.051215 -1.8663 0
M  V30 4017 C 372.765 1.36238 -1.41186 0
M  V30 4018 O 371.89 2.01502 -0.789051 0
M  V30 4019 C 372.485 -0.0861651 -3.3869 0
M  V30 4020 C 371.044 0.30667 -3.75149 0
M  V30 4021 C 370.191 -0.459397 -2.73468 0
M  V30 4022 H 373.142 -0.712264 -1.41818 0
M  V30 4023 H 373.163 0.709507 -3.73826 0
M  V30 4024 H 372.675 -1.11512 -3.71735 0
M  V30 4025 H 370.776 1.33892 -3.47712 0
M  V30 4026 H 370.889 -0.0116669 -4.79099 0
M  V30 4027 H 369.253 0.0905645 -2.54539 0
M  V30 4028 H 370.036 -1.4884 -3.09357 0
M  V30 4029 N 372.481 1.55866 -0.233164 0
M  V30 4030 C 373.729 1.9821 0.394593 0
M  V30 4031 C 374.05 1.12234 1.59463 0
M  V30 4032 O 373.32 0.201981 1.94856 0
M  V30 4033 H 371.9 0.732034 0.148778 0
M  V30 4034 H 374.562 1.92107 -0.32876 0
M  V30 4035 H 373.658 3.03845 0.713063 0
M  V30 4036 N 373.959 -0.0401083 1.57549 0
M  V30 4037 C 374.922 -1.02871 2.04817 0
M  V30 4038 C 375.922 -1.29708 0.950388 0
M  V30 4039 O 377.112 -1.24897 1.21435 0
M  V30 4040 C 374.244 -2.36443 2.45576 0
M  V30 4041 H 375.437 -0.620631 2.93408 0
M  V30 4042 H 372.99 -0.286667 1.53649 0
M  V30 4043 H 373.725 -2.82021 1.60108 0
M  V30 4044 H 373.51 -2.18296 3.25713 0
M  V30 4045 H 375 -3.07441 2.82612 0
M  V30 4046 N 375.437 -1.54477 -0.31217 0
M  V30 4047 C 376.4 -1.83923 -1.36766 0
M  V30 4048 C 377.4 -0.711563 -1.44199 0
M  V30 4049 O 378.59 -0.979866 -1.44029 0
M  V30 4050 C 375.722 -2.0095 -2.75376 0
M  V30 4051 H 376.915 -2.78239 -1.11906 0
M  V30 4052 H 374.468 -1.46369 -0.548257 0
M  V30 4053 H 375.203 -1.08883 -3.05475 0
M  V30 4054 H 374.988 -2.83018 -2.71373 0
M  V30 4055 H 376.478 -2.2514 -3.51713 0
M  V30 4056 N 376.915 0.57481 -1.46744 0
M  V30 4057 C 377.863 1.70435 -1.58286 0
M  V30 4058 C 378.857 1.63287 -0.450956 0
M  V30 4059 O 380.063 1.68685 -0.628121 0
M  V30 4060 H 376.438 0.56364 -0.497809 0
M  V30 4061 H 378.409 1.57833 -2.53242 0
M  V30 4062 C 377.158 3.08815 -1.59776 0
M  V30 4063 H 376.481 3.1499 -2.46214 0
M  V30 4064 H 377.921 3.87588 -1.71905 0
M  V30 4065 C 376.38 3.35301 -0.327812 0
M  V30 4066 O 376.91 3.97511 0.57861 0
M  V30 4067 N 375.116 2.89816 -0.213274 0
M  V30 4068 H 374.663 2.39371 -0.951798 0
M  V30 4069 H 374.621 3.0791 0.63553 0
M  V30 4070 N 378.394 1.34581 0.820102 0
M  V30 4071 C 379.671 1.17675 1.56244 0
M  V30 4072 C 380.051 -0.249541 2.0962 0
M  V30 4073 O 379.399 -1.25125 1.91196 0
M  V30 4074 C 379.609 2.23364 2.6816 0
M  V30 4075 C 380.957 2.58485 3.36854 0
M  V30 4076 O 381.981 2.22175 2.78418 0
M  V30 4077 O 380.84 3.20868 4.42386 0
M  V30 4078 H 377.934 0.456333 0.689702 0
M  V30 4079 H 380.48 1.46222 0.861231 0
M  V30 4080 H 379.252 3.19087 2.26493 0
M  V30 4081 H 378.875 1.96009 3.45928 0
M  V30 4082 N 379.872 -1.04064 1.18357 0
M  V30 4083 C 380.822 -2.10393 0.878561 0
M  V30 4084 C 381.806 -1.60183 -0.151713 0
M  V30 4085 O 382.998 -1.76923 0.0523303 0
M  V30 4086 C 380.127 -3.4089 0.406096 0
M  V30 4087 C 379.213 -3.97866 1.46844 0
M  V30 4088 N 379.604 -4.28657 2.68489 0
M  V30 4089 C 377.902 -4.2574 1.32896 0
M  V30 4090 C 378.603 -4.74253 3.36836 0
M  V30 4091 N 377.579 -4.75068 2.64219 0
M  V30 4092 H 381.381 -2.32076 1.80327 0
M  V30 4093 H 378.895 -1.21818 1.07397 0
M  V30 4094 H 380.892 -4.16557 0.169088 0
M  V30 4095 H 379.552 -3.20633 -0.512275 0
M  V30 4096 H 380.563 -4.18304 3.05356 0
M  V30 4097 H 377.24 -4.1481 0.473134 0
M  V30 4098 H 378.63 -5.07096 4.40798 0
M  V30 4099 N 381.35 -0.985608 -1.22978 0
M  V30 4100 C 382.58 -0.674603 -1.95276 0
M  V30 4101 C 382.988 0.763483 -1.73111 0
M  V30 4102 O 382.331 1.52601 -1.02268 0
M  V30 4103 C 382.393 -0.891597 -3.48268 0
M  V30 4104 C 382.057 -2.31275 -3.94158 0
M  V30 4105 C 383.054 -3.29179 -4.02415 0
M  V30 4106 C 380.739 -2.64524 -4.27004 0
M  V30 4107 C 382.733 -4.58407 -4.42879 0
M  V30 4108 C 380.42 -3.93974 -4.67149 0
M  V30 4109 C 381.418 -4.90727 -4.75053 0
M  V30 4110 O 381.106 -6.17865 -5.14294 0
M  V30 4111 H 380.838 -0.249251 -0.628371 0
M  V30 4112 H 383.392 -1.32106 -1.5728 0
M  V30 4113 H 381.622 -0.187962 -3.86243 0
M  V30 4114 H 383.311 -0.576957 -4.01779 0
M  V30 4115 H 384.077 -3.04823 -3.77237 0
M  V30 4116 H 379.956 -1.89923 -4.2006 0
M  V30 4117 H 383.5 -5.33926 -4.48964 0
M  V30 4118 H 379.397 -4.18122 -4.91777 0
M  V30 4119 H 380.165 -6.21694 -5.32389 0
M  V30 4120 N 382.828 1.3818 -0.7579 0
M  V30 4121 C 383.778 2.27741 -0.108674 0
M  V30 4122 C 384.762 1.45415 0.688709 0
M  V30 4123 O 385.954 1.68108 0.553956 0
M  V30 4124 C 383.083 3.34313 0.780367 0
M  V30 4125 C 382.169 4.24093 -0.0240977 0
M  V30 4126 N 382.56 4.9451 -1.06271 0
M  V30 4127 C 380.858 4.45542 0.202049 0
M  V30 4128 C 381.559 5.60675 -1.54979 0
M  V30 4129 N 380.535 5.36684 -0.864348 0
M  V30 4130 H 384.337 2.79649 -0.904071 0
M  V30 4131 H 381.851 1.51133 -0.594346 0
M  V30 4132 H 383.848 3.97368 1.26114 0
M  V30 4133 H 382.508 2.83962 1.57467 0
M  V30 4134 H 383.519 4.97345 -1.44459 0
M  V30 4135 H 380.196 4.06091 0.96935 0
M  V30 4136 H 381.586 6.26992 -2.41517 0
M  V30 4137 N 384.306 0.507319 1.49211 0
M  V30 4138 C 385.238 -0.304532 2.27168 0
M  V30 4139 C 386.251 -0.924956 1.33972 0
M  V30 4140 O 387.44 -0.807227 1.59205 0
M  V30 4141 C 384.54 -1.44431 3.06583 0
M  V30 4142 C 383.713 -0.930026 4.27398 0
M  V30 4143 C 382.772 -1.94817 4.88807 0
M  V30 4144 O 381.798 -1.51418 5.4869 0
M  V30 4145 N 383 -3.279 4.79022 0
M  V30 4146 H 385.765 0.36395 2.97482 0
M  V30 4147 H 383.326 0.340249 1.58284 0
M  V30 4148 H 385.318 -2.12311 3.44537 0
M  V30 4149 H 383.888 -2.01684 2.38835 0
M  V30 4150 H 383.108 -0.0759244 3.94127 0
M  V30 4151 H 384.396 -0.564932 5.05654 0
M  V30 4152 H 383.794 -3.65843 4.3148 0
M  V30 4153 H 382.351 -3.91476 5.21142 0
M  V30 4154 N 385.784 -1.5574 0.241426 0
M  V30 4155 C 387.2 -1.59196 -0.113548 0
M  V30 4156 C 387.4 -1.25852 -1.57364 0
M  V30 4157 O 386.456 -1.00322 -2.31715 0
M  V30 4158 C 387.769 -2.99814 0.230695 0
M  V30 4159 C 389.317 -3.12513 0.174547 0
M  V30 4160 C 389.792 -4.55342 0.492744 0
M  V30 4161 N 391.283 -4.61076 0.443043 0
M  V30 4162 C 392.018 -5.6956 0.662484 0
M  V30 4163 N 391.514 -6.86328 0.944761 0
M  V30 4164 N 393.307 -5.58957 0.593564 0
M  V30 4165 H 385.458 -1.75685 1.19368 0
M  V30 4166 H 387.721 -0.81756 0.479896 0
M  V30 4167 H 387.427 -3.28932 1.24485 0
M  V30 4168 H 387.301 -3.74568 -0.444833 0
M  V30 4169 H 389.688 -2.83179 -0.830277 0
M  V30 4170 H 389.769 -2.40045 0.883845 0
M  V30 4171 H 389.413 -4.85396 1.4951 0
M  V30 4172 H 389.343 -5.26062 -0.23797 0
M  V30 4173 H 391.834 -3.77179 0.233374 0
M  V30 4174 H 392.147 -7.64935 1.09977 0
M  V30 4175 H 390.492 -6.88025 0.982175 0
M  V30 4176 H 393.683 -4.66611 0.373123 0
M  V30 4177 H 393.856 -6.43433 0.767981 0
M  V30 4178 N 387.262 0.0317525 -1.57568 0
M  V30 4179 C 388.678 0.38735 -1.54828 0
M  V30 4180 C 388.878 1.7677 -0.967187 0
M  V30 4181 O 387.934 2.45581 -0.587063 0
M  V30 4182 C 389.247 0.291667 -2.99282 0
M  V30 4183 C 390.795 0.368946 -3.10818 0
M  V30 4184 C 391.27 0.302741 -4.56998 0
M  V30 4185 N 392.761 0.361617 -4.61786 0
M  V30 4186 C 393.496 0.333238 -5.72431 0
M  V30 4187 N 392.992 0.257308 -6.92322 0
M  V30 4188 N 394.785 0.382769 -5.60795 0
M  V30 4189 H 386.936 -0.871609 -1.93692 0
M  V30 4190 H 389.199 -0.331161 -0.888277 0
M  V30 4191 H 388.905 -0.656794 -3.45513 0
M  V30 4192 H 388.779 1.08638 -3.61217 0
M  V30 4193 H 391.166 1.30784 -2.64536 0
M  V30 4194 H 391.247 -0.455066 -2.5172 0
M  V30 4195 H 390.891 -0.632473 -5.03947 0
M  V30 4196 H 390.821 1.14482 -5.14005 0
M  V30 4197 H 393.312 0.422923 -3.75526 0
M  V30 4198 H 393.625 0.24068 -7.72425 0
M  V30 4199 H 391.97 0.223396 -6.94641 0
M  V30 4200 H 395.161 0.44006 -4.66027 0
M  V30 4201 H 395.334 0.357184 -6.47015 0
M  V30 4202 N 388.74 1.54641 0.303973 0
M  V30 4203 C 389.672 1.81754 1.39636 0
M  V30 4204 C 390.685 0.70035 1.46966 0
M  V30 4205 O 391.874 0.97778 1.49338 0
M  V30 4206 C 388.974 1.93785 2.7803 0
M  V30 4207 C 388.147 3.24156 2.93669 0
M  V30 4208 C 387.206 3.26641 4.12544 0
M  V30 4209 O 386.232 4.00187 4.04771 0
M  V30 4210 N 387.434 2.5182 5.23036 0
M  V30 4211 H 390.199 2.76031 1.16734 0
M  V30 4212 H 387.76 1.54178 0.494033 0
M  V30 4213 H 389.752 1.92852 3.55795 0
M  V30 4214 H 388.322 1.06515 2.93893 0
M  V30 4215 H 387.542 3.37887 2.03042 0
M  V30 4216 H 388.83 4.10195 3.01027 0
M  V30 4217 H 388.228 1.91692 5.32232 0
M  V30 4218 H 386.785 2.56644 5.99147 0
M  V30 4219 N 390.218 -0.567019 1.47046 0
M  V30 4220 C 391.165 -1.67489 1.58796 0
M  V30 4221 C 392.135 -1.60399 0.43144 0
M  V30 4222 O 393.32 -1.79378 0.650233 0
M  V30 4223 C 390.46 -3.05821 1.59899 0
M  V30 4224 C 389.573 -3.2342 2.86397 0
M  V30 4225 C 388.708 -4.52093 2.789 0
M  V30 4226 C 387.747 -4.6309 4.00267 0
M  V30 4227 N 386.884 -5.83106 3.91064 0
M  V30 4228 H 391.724 -1.56785 2.53422 0
M  V30 4229 H 389.261 -0.763896 1.2571 0
M  V30 4230 H 391.219 -3.8591 1.58522 0
M  V30 4231 H 389.849 -3.15384 0.687929 0
M  V30 4232 H 388.901 -2.3683 2.97684 0
M  V30 4233 H 390.213 -3.27412 3.76301 0
M  V30 4234 H 389.367 -5.4043 2.75718 0
M  V30 4235 H 388.106 -4.50565 1.86662 0
M  V30 4236 H 387.111 -3.73168 4.03765 0
M  V30 4237 H 388.336 -4.66386 4.93621 0
M  V30 4238 H 386.282 -5.82546 3.01623 0
M  V30 4239 H 386.199 -5.88434 4.74638 0
M  V30 4240 H 387.467 -6.73831 3.91882 0
M  V30 4241 N 391.696 -1.35014 -0.812953 0
M  V30 4242 C 392.924 -1.31031 -1.6012 0
M  V30 4243 C 393.339 0.113558 -1.88458 0
M  V30 4244 O 392.696 1.06363 -1.48301 0
M  V30 4245 C 392.747 -2.10872 -2.93624 0
M  V30 4246 O 392.468 -3.47706 -2.66518 0
M  V30 4247 C 393.969 -2.14401 -3.88004 0
M  V30 4248 H 391.189 -0.45037 -0.497401 0
M  V30 4249 H 393.733 -1.77775 -1.01076 0
M  V30 4250 H 391.888 -1.67744 -3.492 0
M  V30 4251 H 392.302 -3.89097 -3.51715 0
M  V30 4252 H 393.776 -2.74669 -4.78812 0
M  V30 4253 H 394.253 -1.14105 -4.24119 0
M  V30 4254 H 394.859 -2.57662 -3.38364 0
M  V30 4255 N 393.175 1.03435 -1.18907 0
M  V30 4256 C 394.403 1.80381 -1.01342 0
M  V30 4257 C 394.818 1.83649 0.438005 0
M  V30 4258 O 394.175 1.27655 1.30424 0
M  V30 4259 C 394.226 3.25689 -1.56873 0
M  V30 4260 O 393.947 3.22673 -2.96334 0
M  V30 4261 C 395.448 4.19255 -1.44014 0
M  V30 4262 H 392.668 0.56784 -0.35749 0
M  V30 4263 H 395.212 1.30317 -1.576 0
M  V30 4264 H 393.367 3.72962 -1.04777 0
M  V30 4265 H 393.781 4.13748 -3.22355 0
M  V30 4266 H 395.255 5.19123 -1.87657 0
M  V30 4267 H 395.732 4.37467 -0.389815 0
M  V30 4268 H 396.338 3.77851 -1.95214 0
M  V30 4269 N 394.653 0.992116 1.22453 0
M  V30 4270 C 395.6 0.541731 2.24352 0
M  V30 4271 C 396.57 -0.425519 1.60557 0
M  V30 4272 O 397.755 -0.330453 1.87917 0
M  V30 4273 C 394.895 -0.138248 3.44823 0
M  V30 4274 C 394.008 0.870649 4.23136 0
M  V30 4275 C 393.143 0.164269 5.30946 0
M  V30 4276 C 392.182 1.16159 6.00977 0
M  V30 4277 N 391.319 0.483568 7.00433 0
M  V30 4278 H 396.159 1.41541 2.62241 0
M  V30 4279 H 393.696 0.709013 1.28885 0
M  V30 4280 H 395.654 -0.5494 4.13567 0
M  V30 4281 H 394.284 -0.975721 3.077 0
M  V30 4282 H 393.336 1.40013 3.53696 0
M  V30 4283 H 394.648 1.63014 4.7141 0
M  V30 4284 H 393.802 -0.303653 6.0594 0
M  V30 4285 H 392.541 -0.627733 4.83643 0
M  V30 4286 H 391.546 1.64015 5.24766 0
M  V30 4287 H 392.771 1.95445 6.50368 0
M  V30 4288 H 390.717 -0.289012 6.55363 0
M  V30 4289 H 390.634 1.18152 7.4671 0
M  V30 4290 H 391.902 0.0384219 7.79491 0
M  V30 4291 N 396.131 -1.37776 0.765217 0
M  V30 4292 C 397.064 -2.28008 0.0935025 0
M  V30 4293 C 398.042 -1.45985 -0.716047 0
M  V30 4294 O 399.226 -1.75331 -0.692203 0
M  V30 4295 C 396.353 -3.27228 -0.874052 0
M  V30 4296 C 395.399 -4.26239 -0.149307 0
M  V30 4297 S 396.232 -5.22827 1.15809 0
M  V30 4298 C 397.388 -6.256 0.193906 0
M  V30 4299 H 397.621 -2.84631 0.858637 0
M  V30 4300 H 395.154 -1.43952 0.558313 0
M  V30 4301 H 397.112 -3.84902 -1.42691 0
M  V30 4302 H 395.773 -2.69565 -1.61225 0
M  V30 4303 H 394.966 -4.96213 -0.88254 0
M  V30 4304 H 394.568 -3.7252 0.332366 0
M  V30 4305 H 396.86 -6.74508 -0.636011 0
M  V30 4306 H 397.803 -7.02838 0.861638 0
M  V30 4307 H 398.211 -5.64173 -0.191975 0
M  V30 4308 N 397.609 -0.515225 -1.4894 0
M  V30 4309 C 398.539 0.244628 -2.32215 0
M  V30 4310 C 399.52 0.949136 -1.41157 0
M  V30 4311 O 400.705 0.937783 -1.70057 0
M  V30 4312 C 397.835 1.30096 -3.22013 0
M  V30 4313 C 396.789 0.715486 -4.21977 0
M  V30 4314 C 396.115 1.87339 -5.00808 0
M  V30 4315 C 397.415 -0.302982 -5.2142 0
M  V30 4316 H 399.109 -0.450501 -2.95991 0
M  V30 4317 H 396.655 -0.218098 -1.42339 0
M  V30 4318 H 398.608 1.84037 -3.79089 0
M  V30 4319 H 397.332 2.02547 -2.56207 0
M  V30 4320 H 395.991 0.197715 -3.66066 0
M  V30 4321 H 395.639 2.58592 -4.31438 0
M  V30 4322 H 395.339 1.48764 -5.68457 0
M  V30 4323 H 396.863 2.41686 -5.60732 0
M  V30 4324 H 398.277 0.148802 -5.73107 0
M  V30 4325 H 396.674 -0.60532 -5.97039 0
M  V30 4326 H 397.744 -1.21395 -4.69459 0
M  V30 4327 N 399.087 1.5561 -0.249682 0
M  V30 4328 C 400.333 1.99306 0.374841 0
M  V30 4329 C 400.666 1.13767 1.57387 0
M  V30 4330 O 399.941 0.201711 1.93451 0
M  V30 4331 C 400.224 3.51507 0.781986 0
M  V30 4332 C 400.077 4.4781 -0.422629 0
M  V30 4333 C 401.396 4.08884 1.62793 0
M  V30 4334 H 398.515 0.724572 0.134773 0
M  V30 4335 H 401.157 1.86719 -0.351549 0
M  V30 4336 H 399.307 3.62363 1.4009 0
M  V30 4337 H 400.979 4.48931 -1.06108 0
M  V30 4338 H 399.222 4.20518 -1.06524 0
M  V30 4339 H 399.893 5.51919 -0.0943766 0
M  V30 4340 H 402.369 4.01147 1.10547 0
M  V30 4341 H 401.245 5.1564 1.88166 0
M  V30 4342 H 401.506 3.57515 2.60068 0
M  V30 4343 N 400.565 -0.0233959 1.57583 0
M  V30 4344 C 401.805 -0.71784 1.9138 0
M  V30 4345 C 402.169 -1.72216 0.848853 0
M  V30 4346 O 403.37 -2.46527 1.07134 0
M  V30 4347 C 401.641 -1.36489 3.30311 0
M  V30 4348 S 403.2 -2.0877 3.85954 0
M  V30 4349 H 400.018 -0.237676 0.670098 0
M  V30 4350 H 402.62 0.0276709 1.9548 0
M  V30 4351 H 401.324 -0.620782 4.05678 0
M  V30 4352 H 400.855 -2.14883 3.29528 0
M  V30 4353 H 402.87 -3.35988 3.65139 0
M  V30 4354 N 402.043 -1.548 -0.295768 0
M  V30 4355 C 403.289 -1.74588 -1.03184 0
M  V30 4356 C 403.622 -0.532962 -1.86744 0
M  V30 4357 O 402.897 0.469872 -1.88739 0
M  V30 4358 C 403.18 -3.03791 -1.93347 0
M  V30 4359 C 403.033 -4.35392 -1.12933 0
M  V30 4360 C 404.352 -3.28892 -2.92435 0
M  V30 4361 H 401.471 -0.635221 -0.373715 0
M  V30 4362 H 404.113 -1.87519 -0.30606 0
M  V30 4363 H 402.263 -2.92898 -2.55232 0
M  V30 4364 H 403.935 -4.58211 -0.532943 0
M  V30 4365 H 402.178 -4.31642 -0.432168 0
M  V30 4366 H 402.849 -5.22074 -1.79284 0
M  V30 4367 H 405.325 -3.39429 -2.4068 0
M  V30 4368 H 404.201 -4.20603 -3.52682 0
M  V30 4369 H 404.462 -2.47437 -3.6637 0
M  V30 4370 N 403.521 0.559213 -1.47345 0
M  V30 4371 C 404.767 1.31843 -1.54095 0
M  V30 4372 C 405.1 1.93149 -0.201726 0
M  V30 4373 O 404.375 1.77759 0.789428 0
M  V30 4374 C 404.658 2.43006 -2.65744 0
M  V30 4375 C 404.511 1.86581 -4.09277 0
M  V30 4376 C 405.83 3.44943 -2.73318 0
M  V30 4377 H 402.949 0.478012 -0.560957 0
M  V30 4378 H 405.591 0.625977 -1.79392 0
M  V30 4379 H 403.741 3.02072 -2.44305 0
M  V30 4380 H 405.413 1.31792 -4.42073 0
M  V30 4381 H 403.656 1.17268 -4.17649 0
M  V30 4382 H 404.327 2.66933 -4.83168 0
M  V30 4383 H 406.803 2.95793 -2.92653 0
M  V30 4384 H 405.679 4.20153 -3.53218 0
M  V30 4385 H 405.94 4.03665 -1.80296 0
M  V30 4386 N 404.999 1.35443 0.805782 0
M  V30 4387 C 406.245 1.28952 1.56522 0
M  V30 4388 C 406.578 -0.135597 1.93726 0
M  V30 4389 O 405.853 -1.08516 1.61414 0
M  V30 4390 C 406.136 2.19678 2.85331 0
M  V30 4391 C 405.989 3.7081 2.54598 0
M  V30 4392 C 407.308 2.09495 3.8704 0
M  V30 4393 H 404.427 0.469764 0.567883 0
M  V30 4394 H 407.069 1.65851 0.927001 0
M  V30 4395 H 405.219 1.8834 3.39795 0
M  V30 4396 H 406.891 4.12593 2.06312 0
M  V30 4397 H 405.134 3.91051 1.8778 0
M  V30 4398 H 405.805 4.29679 3.46525 0
M  V30 4399 H 408.281 2.37045 3.41978 0
M  V30 4400 H 407.157 2.75173 4.74943 0
M  V30 4401 H 407.418 1.07714 4.28777 0
M  V30 4402 N 406.477 -1.02803 1.19454 0
M  V30 4403 C 407.723 -1.76478 0.999171 0
M  V30 4404 C 408.056 -1.88456 -0.468828 0
M  V30 4405 O 407.331 -1.40198 -1.34814 0
M  V30 4406 C 407.614 -3.19044 1.66981 0
M  V30 4407 C 407.467 -3.14932 3.21151 0
M  V30 4408 C 408.786 -4.17456 1.39349 0
M  V30 4409 H 405.905 -0.640614 0.364393 0
M  V30 4410 H 408.547 -1.20005 1.47305 0
M  V30 4411 H 406.697 -3.67263 1.2669 0
M  V30 4412 H 408.369 -2.74605 3.70661 0
M  V30 4413 H 406.612 -2.52625 3.52652 0
M  V30 4414 H 407.283 -4.1566 3.63223 0
M  V30 4415 H 409.759 -3.77842 1.74283 0
M  V30 4416 H 408.635 -5.154 1.88823 0
M  V30 4417 H 408.896 -4.40949 0.318813 0
M  V30 4418 N 407.956 -0.998596 -1.21925 0
M  V30 4419 C 409.203 -0.677663 -1.90824 0
M  V30 4420 C 409.531 0.790905 -1.77693 0
M  V30 4421 O 408.786 1.58817 -1.14349 0
M  V30 4422 C 409.085 -1.03648 -3.42041 0
M  V30 4423 C 408.751 -2.49825 -3.75364 0
M  V30 4424 C 407.413 -2.8977 -3.8417 0
M  V30 4425 C 409.765 -3.44545 -3.91073 0
M  V30 4426 C 407.093 -4.23412 -4.06127 0
M  V30 4427 C 409.445 -4.77853 -4.14535 0
M  V30 4428 C 408.109 -5.17531 -4.21566 0
M  V30 4429 H 407.379 -0.247975 -0.698276 0
M  V30 4430 H 410.026 -1.25584 -1.44571 0
M  V30 4431 H 408.331 -0.376457 -3.89987 0
M  V30 4432 H 410.028 -0.766113 -3.93614 0
M  V30 4433 H 406.618 -2.17866 -3.69097 0
M  V30 4434 H 410.802 -3.14853 -3.83642 0
M  V30 4435 H 406.058 -4.53734 -4.09799 0
M  V30 4436 H 410.232 -5.51189 -4.25633 0
M  V30 4437 H 407.859 -6.21102 -4.38333 0
M  V30 4438 N 409.434 1.37368 -0.772513 0
M  V30 4439 C 410.397 2.28601 -0.165541 0
M  V30 4440 C 411.397 1.48062 0.627238 0
M  V30 4441 O 412.587 1.68268 0.450715 0
M  V30 4442 C 409.719 3.32023 0.772897 0
M  V30 4443 H 410.912 2.83787 -0.969787 0
M  V30 4444 H 408.465 1.46647 -0.540775 0
M  V30 4445 H 409.2 2.81962 1.60212 0
M  V30 4446 H 408.985 3.91555 0.206585 0
M  V30 4447 H 410.475 4.00197 1.19298 0
M  V30 4448 N 410.912 0.523116 1.48665 0
M  V30 4449 C 412.158 -0.0134963 2.02796 0
M  V30 4450 C 412.491 -1.34582 1.40004 0
M  V30 4451 O 411.766 -1.86756 0.543381 0
M  V30 4452 C 412.049 -0.14276 3.59817 0
M  V30 4453 C 411.902 1.21425 4.331 0
M  V30 4454 C 413.221 -0.872856 4.31357 0
M  V30 4455 H 410.34 -0.00343074 0.736992 0
M  V30 4456 H 412.982 0.678816 1.7746 0
M  V30 4457 H 411.132 -0.732401 3.81534 0
M  V30 4458 H 412.804 1.84447 4.2282 0
M  V30 4459 H 411.047 1.79791 3.94788 0
M  V30 4460 H 411.718 1.07687 5.41394 0
M  V30 4461 H 414.194 -0.372555 4.14429 0
M  V30 4462 H 413.07 -0.932185 5.40927 0
M  V30 4463 H 413.331 -1.92161 3.98154 0
M  V30 4464 N 412.39 -1.55475 0.257931 0
M  V30 4465 C 413.615 -2.04064 -0.370488 0
M  V30 4466 C 414.04 -1.13565 -1.49948 0
M  V30 4467 O 413.398 -0.130781 -1.80828 0
M  V30 4468 C 413.446 -3.50554 -0.845237 0
M  V30 4469 O 412.55 -3.63173 -1.95394 0
M  V30 4470 H 411.891 -0.659257 -0.0792243 0
M  V30 4471 H 414.421 -2.00903 0.387212 0
M  V30 4472 H 414.431 -3.91588 -1.14555 0
M  V30 4473 H 413.106 -4.15896 -0.0191259 0
M  V30 4474 H 411.683 -3.34039 -1.65748 0
M  V30 4475 N 413.868 0.0150385 -1.57593 0
M  V30 4476 C 415.114 0.69849 -1.91031 0
M  V30 4477 C 415.469 1.72208 -0.85804 0
M  V30 4478 O 414.762 1.91147 0.131614 0
M  V30 4479 C 414.956 1.39686 -3.28972 0
M  V30 4480 C 414.785 0.442428 -4.47518 0
M  V30 4481 C 413.555 0.0583223 -5.05266 0
M  V30 4482 C 415.753 -0.285072 -5.13509 0
M  V30 4483 N 413.735 -0.895893 -6.07328 0
M  V30 4484 C 415.106 -1.09447 -6.10263 0
M  V30 4485 C 417.161 -0.350518 -4.96665 0
M  V30 4486 C 415.864 -1.96333 -6.91987 0
M  V30 4487 C 417.89 -1.20655 -5.78962 0
M  V30 4488 C 417.252 -2.00383 -6.75297 0
M  V30 4489 H 413.351 0.22926 -0.747639 0
M  V30 4490 H 415.935 -0.0417748 -1.94655 0
M  V30 4491 H 414.106 2.1075 -3.2625 0
M  V30 4492 H 415.838 2.03381 -3.49883 0
M  V30 4493 H 412.593 0.423506 -4.71703 0
M  V30 4494 H 413.017 -1.36792 -6.63036 0
M  V30 4495 H 417.659 0.251596 -4.22051 0
M  V30 4496 H 415.377 -2.57618 -7.65936 0
M  V30 4497 H 418.963 -1.2609 -5.67972 0
M  V30 4498 H 417.843 -2.65552 -7.3787 0
M  V30 4499 N 415.346 1.54954 0.287554 0
M  V30 4500 C 416.276 1.89839 1.35954 0
M  V30 4501 C 417.257 0.758675 1.52244 0
M  V30 4502 O 418.442 1.01557 1.65529 0
M  V30 4503 C 415.572 2.15753 2.72154 0
M  V30 4504 C 414.526 3.3159 2.70614 0
M  V30 4505 C 413.852 3.42952 4.10229 0
M  V30 4506 C 415.152 4.68359 2.31165 0
M  V30 4507 H 416.846 2.79625 1.07007 0
M  V30 4508 H 414.392 1.3454 0.513316 0
M  V30 4509 H 416.345 2.38743 3.47246 0
M  V30 4510 H 415.069 1.22752 3.02654 0
M  V30 4511 H 413.728 3.08545 1.97979 0
M  V30 4512 H 413.376 2.47443 4.37928 0
M  V30 4513 H 413.076 4.20826 4.10097 0
M  V30 4514 H 414.6 3.68218 4.87081 0
M  V30 4515 H 416.014 4.9099 2.95976 0
M  V30 4516 H 414.411 5.49044 2.42221 0
M  V30 4517 H 415.481 4.68165 1.26291 0
M  V30 4518 N 416.824 -0.551391 1.4764 0
M  V30 4519 C 418.235 -1.13349 1.48354 0
M  V30 4520 C 418.586 -1.94709 0.241432 0
M  V30 4521 O 417.711 -2.06306 -0.653205 0
M  V30 4522 C 418.306 -2.0623 2.68802 0
M  V30 4523 C 416.865 -2.597 2.72457 0
M  V30 4524 C 416.012 -1.36201 2.41546 0
M  V30 4525 H 418.963 -0.337698 1.55065 0
M  V30 4526 H 418.984 -2.90196 2.46103 0
M  V30 4527 H 418.496 -1.46987 3.59188 0
M  V30 4528 H 416.597 -3.22724 1.86225 0
M  V30 4529 H 416.71 -3.00296 3.73308 0
M  V30 4530 H 415.074 -1.67068 1.9225 0
M  V30 4531 H 415.857 -0.787425 3.34147 0
M  V30 4532 N 418.302 -1.35869 -0.798587 0
M  V30 4533 C 419.232 -1.32118 -1.92528 0
M  V30 4534 C 420.213 -0.194209 -1.68988 0
M  V30 4535 O 421.398 -0.390426 -1.90235 0
M  V30 4536 C 418.528 -1.10047 -3.29404 0
M  V30 4537 C 417.482 -2.19471 -3.67446 0
M  V30 4538 C 416.808 -1.82555 -5.02571 0
M  V30 4539 C 418.108 -3.61495 -3.76987 0
M  V30 4540 H 419.802 -2.26394 -1.95924 0
M  V30 4541 H 417.348 -1.08981 -0.94123 0
M  V30 4542 H 419.301 -1.06061 -4.07835 0
M  V30 4543 H 418.025 -0.122195 -3.26371 0
M  V30 4544 H 416.684 -2.22568 -2.91306 0
M  V30 4545 H 416.332 -0.833249 -4.9605 0
M  V30 4546 H 416.032 -2.5581 -5.28995 0
M  V30 4547 H 417.556 -1.80108 -5.83432 0
M  V30 4548 H 418.97 -3.60676 -4.4563 0
M  V30 4549 H 417.367 -4.33577 -4.14887 0
M  V30 4550 H 418.437 -3.97065 -2.78329 0
M  V30 4551 N 419.78 1.02168 -1.19998 0
M  V30 4552 C 420.73 2.08969 -0.911921 0
M  V30 4553 C 421.714 1.60404 0.12621 0
M  V30 4554 O 422.906 1.76817 -0.0804706 0
M  V30 4555 C 420.035 3.402 -0.460277 0
M  V30 4556 C 419.121 3.9548 -1.53155 0
M  V30 4557 N 419.512 4.24332 -2.75275 0
M  V30 4558 C 417.81 4.23572 -1.39653 0
M  V30 4559 C 418.511 4.68834 -3.44339 0
M  V30 4560 N 417.487 4.70804 -2.71744 0
M  V30 4561 H 421.289 2.29178 -1.83997 0
M  V30 4562 H 418.803 1.20094 -1.09322 0
M  V30 4563 H 420.8 4.16235 -0.235337 0
M  V30 4564 H 419.46 3.21408 0.4612 0
M  V30 4565 H 420.471 4.13393 -3.11973 0
M  V30 4566 H 417.148 4.14005 -0.539067 0
M  V30 4567 H 418.538 5.00019 -4.4881 0
M  V30 4568 N 421.258 1.00505 1.21394 0
M  V30 4569 C 422.221 0.570459 2.21987 0
M  V30 4570 C 423.221 -0.353211 1.56873 0
M  V30 4571 O 424.411 -0.14349 1.73608 0
M  V30 4572 C 421.543 -0.168555 3.40483 0
M  V30 4573 H 422.736 1.46021 2.6195 0
M  V30 4574 H 420.289 0.793565 1.34656 0
M  V30 4575 H 421.024 -1.07374 3.06009 0
M  V30 4576 H 420.809 0.494823 3.88965 0
M  V30 4577 H 422.299 -0.460362 4.15055 0
M  V30 4578 N 422.737 -1.36956 0.779787 0
M  V30 4579 C 423.984 -1.99491 0.347766 0
M  V30 4580 C 424.312 -1.61898 -1.07793 0
M  V30 4581 O 423.567 -0.86071 -1.75756 0
M  V30 4582 C 423.866 -3.54585 0.447686 0
M  V30 4583 C 423.532 -4.1197 1.83279 0
M  V30 4584 C 422.194 -4.27356 2.2118 0
M  V30 4585 C 424.546 -4.43354 2.74019 0
M  V30 4586 C 421.874 -4.71432 3.4924 0
M  V30 4587 C 424.226 -4.88858 4.01497 0
M  V30 4588 C 422.89 -5.0245 4.39432 0
M  V30 4589 H 422.16 -0.729991 0.127257 0
M  V30 4590 H 424.807 -1.63599 0.995376 0
M  V30 4591 H 423.112 -3.90773 -0.283447 0
M  V30 4592 H 424.809 -4.00888 0.0945948 0
M  V30 4593 H 421.399 -4.00428 1.52825 0
M  V30 4594 H 425.583 -4.31045 2.45995 0
M  V30 4595 H 420.839 -4.80141 3.78516 0
M  V30 4596 H 425.013 -5.12108 4.71931 0
M  V30 4597 H 422.64 -5.36362 5.38721 0
M  V30 4598 N 424.215 -0.530993 -1.48385 0
M  V30 4599 C 425.147 0.268353 -2.27624 0
M  V30 4600 C 426.16 0.903525 -1.35426 0
M  V30 4601 O 427.349 0.781796 -1.60469 0
M  V30 4602 C 424.449 1.39535 -3.08842 0
M  V30 4603 C 423.622 0.861913 -4.28824 0
M  V30 4604 C 422.681 1.87016 -4.91845 0
M  V30 4605 O 421.707 1.4267 -5.5103 0
M  V30 4606 N 422.909 3.20238 -4.84178 0
M  V30 4607 H 425.674 -0.41123 -2.96865 0
M  V30 4608 H 423.235 -0.365387 -1.57723 0
M  V30 4609 H 425.227 2.06803 -3.47871 0
M  V30 4610 H 423.797 1.97859 -2.42014 0
M  V30 4611 H 423.017 0.0132126 -3.94198 0
M  V30 4612 H 424.305 0.484415 -5.06489 0
M  V30 4613 H 423.703 3.58932 -4.37246 0
M  V30 4614 H 422.26 3.83136 -5.27305 0
M  V30 4615 N 425.693 1.55336 -0.266172 0
M  V30 4616 C 426.623 2.25146 0.618981 0
M  V30 4617 C 427.604 1.23845 1.16604 0
M  V30 4618 O 428.789 1.52544 1.20183 0
M  V30 4619 C 425.919 2.96572 1.80728 0
M  V30 4620 C 424.873 4.04726 1.39215 0
M  V30 4621 C 424.199 4.63678 2.66283 0
M  V30 4622 C 425.499 5.19407 0.548942 0
M  V30 4623 H 427.193 2.99377 0.0368116 0
M  V30 4624 H 424.739 1.43991 0.0162651 0
M  V30 4625 H 426.692 3.44116 2.43232 0
M  V30 4626 H 425.416 2.19861 2.41514 0
M  V30 4627 H 424.075 3.57979 0.790351 0
M  V30 4628 H 423.723 3.83646 3.25308 0
M  V30 4629 H 423.423 5.367 2.39222 0
M  V30 4630 H 424.947 5.13967 3.29651 0
M  V30 4631 H 426.361 5.63059 1.07876 0
M  V30 4632 H 424.758 5.98936 0.373593 0
M  V30 4633 H 425.828 4.8295 -0.434394 0
M  V30 4634 N 427.171 -0.0066808 1.57599 0
M  V30 4635 C 428.134 -0.985035 2.06953 0
M  V30 4636 C 429.134 -1.27663 0.977687 0
M  V30 4637 O 430.324 -1.22293 1.24057 0
M  V30 4638 C 427.456 -2.3118 2.50536 0
M  V30 4639 H 428.649 -0.558255 2.94658 0
M  V30 4640 H 426.202 -0.254011 1.54222 0
M  V30 4641 H 426.937 -2.78561 1.66054 0
M  V30 4642 H 426.722 -2.11338 3.3027 0
M  V30 4643 H 428.212 -3.01377 2.8907 0
M  V30 4644 N 428.649 -1.55105 -0.279332 0
M  V30 4645 C 429.895 -1.75672 -1.01327 0
M  V30 4646 C 430.228 -0.552739 -1.86168 0
M  V30 4647 O 429.503 0.449827 -1.89227 0
M  V30 4648 C 429.786 -3.05825 -1.90114 0
M  V30 4649 C 429.639 -4.36565 -1.08309 0
M  V30 4650 C 430.958 -3.31975 -2.8893 0
M  V30 4651 H 428.077 -0.639149 -0.366957 0
M  V30 4652 H 430.719 -1.87833 -0.286154 0
M  V30 4653 H 428.869 -2.95588 -2.52111 0
M  V30 4654 H 430.541 -4.58751 -0.484314 0
M  V30 4655 H 428.784 -4.32076 -0.386362 0
M  V30 4656 H 429.455 -5.23946 -1.73737 0
M  V30 4657 H 431.931 -3.41963 -2.37067 0
M  V30 4658 H 430.807 -4.2432 -3.48201 0
M  V30 4659 H 431.068 -2.51309 -3.63725 0
M  V30 4660 N 430.127 0.543554 -1.4793 0
M  V30 4661 C 431.404 1.30458 -1.4574 0
M  V30 4662 C 431.784 2.1048 -0.161692 0
M  V30 4663 O 431.132 2.11831 0.856734 0
M  V30 4664 C 431.342 2.19754 -2.71126 0
M  V30 4665 C 432.69 2.80334 -3.18901 0
M  V30 4666 O 433.714 2.30049 -2.71948 0
M  V30 4667 O 432.573 3.71766 -4.00565 0
M  V30 4668 H 429.667 0.588117 -0.581418 0
M  V30 4669 H 432.213 0.561328 -1.60147 0
M  V30 4670 H 430.985 1.60316 -3.56952 0
M  V30 4671 H 430.608 3.01351 -2.59371 0
M  V30 4672 N 431.605 1.3629 0.791371 0
M  V30 4673 C 432.854 1.29742 1.54434 0
M  V30 4674 C 433.167 -0.121729 1.95221 0
M  V30 4675 O 434.373 -0.309579 2.69729 0
M  V30 4676 C 432.829 2.27623 2.78776 0
M  V30 4677 C 432.437 3.74963 2.45166 0
M  V30 4678 C 434.181 2.30047 3.56761 0
M  V30 4679 C 432.088 4.64626 3.65891 0
M  V30 4680 H 431.018 0.482113 0.579727 0
M  V30 4681 H 433.669 1.61642 0.868565 0
M  V30 4682 H 432.051 1.88714 3.48142 0
M  V30 4683 H 433.225 4.22596 1.83709 0
M  V30 4684 H 431.54 3.75295 1.80396 0
M  V30 4685 H 434.137 2.94247 4.46456 0
M  V30 4686 H 434.48 1.30846 3.95203 0
M  V30 4687 H 435.013 2.67563 2.94372 0
M  V30 4688 H 431.752 5.64883 3.32547 0
M  V30 4689 H 431.272 4.2171 4.26521 0
M  V30 4690 H 432.951 4.80801 4.32943 0
M  V30 4691 N 433.083 -1.0153 1.20538 0
M  V30 4692 C 434.36 -1.72327 0.925343 0
M  V30 4693 C 434.74 -2.03383 -0.565547 0
M  V30 4694 O 434.088 -1.69934 -1.52757 0
M  V30 4695 C 434.298 -2.9902 1.79967 0
M  V30 4696 C 435.646 -3.72258 2.04228 0
M  V30 4697 O 436.67 -3.08979 1.77231 0
M  V30 4698 O 435.529 -4.86053 2.4983 0
M  V30 4699 H 432.623 -0.751099 0.346092 0
M  V30 4700 H 435.169 -1.07366 1.31417 0
M  V30 4701 H 433.941 -2.72402 2.80915 0
M  V30 4702 H 433.564 -3.71721 1.41099 0
M  V30 4703 N 434.561 -1.01147 -1.20859 0
M  V30 4704 C 435.786 -0.716698 -1.94623 0
M  V30 4705 C 436.211 0.715415 -1.73964 0
M  V30 4706 O 435.569 1.49157 -1.03062 0
M  V30 4707 C 435.617 -1.0513 -3.44935 0
M  V30 4708 O 434.721 -0.160131 -4.12089 0
M  V30 4709 H 434.062 -0.266404 -0.608214 0
M  V30 4710 H 436.592 -1.35346 -1.53436 0
M  V30 4711 H 436.602 -1.00086 -3.95533 0
M  V30 4712 H 435.277 -2.09475 -3.59295 0
M  V30 4713 H 433.854 -0.267657 -3.71938 0
M  V30 4714 N 436.039 1.36541 -0.78704 0
M  V30 4715 C 436.971 2.28761 -0.141773 0
M  V30 4716 C 437.984 1.49365 0.647599 0
M  V30 4717 O 439.173 1.71836 0.483173 0
M  V30 4718 C 436.273 3.28771 0.822368 0
M  V30 4719 C 435.446 4.3732 0.0835594 0
M  V30 4720 C 434.505 5.17307 0.963296 0
M  V30 4721 O 433.531 5.67638 0.421419 0
M  V30 4722 N 434.733 5.33515 2.28784 0
M  V30 4723 H 437.498 2.84777 -0.933919 0
M  V30 4724 H 435.059 1.48682 -0.640735 0
M  V30 4725 H 437.051 3.79169 1.41468 0
M  V30 4726 H 435.621 2.73412 1.5154 0
M  V30 4727 H 434.841 3.88118 -0.689809 0
M  V30 4728 H 436.129 5.0701 -0.426358 0
M  V30 4729 H 435.527 4.94234 2.75226 0
M  V30 4730 H 434.084 5.87165 2.82985 0
M  V30 4731 N 437.518 0.538854 1.48102 0
M  V30 4732 C 438.764 0.00801365 2.02798 0
M  V30 4733 C 439.097 -1.3309 1.41424 0
M  V30 4734 O 438.372 -1.86169 0.563158 0
M  V30 4735 C 438.655 -0.104589 3.59948 0
M  V30 4736 C 438.508 1.26012 4.31788 0
M  V30 4737 C 439.827 -0.827055 4.32259 0
M  V30 4738 H 436.946 0.00438624 0.736987 0
M  V30 4739 H 439.588 0.6976 1.7673 0
M  V30 4740 H 437.738 -0.691893 3.82289 0
M  V30 4741 H 439.41 1.88922 4.2084 0
M  V30 4742 H 437.653 1.83968 3.92859 0
M  V30 4743 H 438.324 1.13424 5.40221 0
M  V30 4744 H 440.8 -0.328578 4.14801 0
M  V30 4745 H 439.676 -0.87476 5.41885 0
M  V30 4746 H 439.937 -1.87927 4.0017 0
M  V30 4747 N 438.996 -1.55193 0.274407 0
M  V30 4748 C 439.926 -2.25471 -0.607032 0
M  V30 4749 C 440.907 -1.24461 -1.15946 0
M  V30 4750 O 442.092 -1.53179 -1.19373 0
M  V30 4751 C 439.222 -2.97526 -1.79153 0
M  V30 4752 C 438.176 -4.05459 -1.37067 0
M  V30 4753 C 437.502 -4.65084 -2.6382 0
M  V30 4754 C 438.802 -5.19691 -0.521389 0
M  V30 4755 H 440.496 -2.99393 -0.0209343 0
M  V30 4756 H 438.042 -1.43997 -0.00862866 0
M  V30 4757 H 439.995 -3.45402 -2.41404 0
M  V30 4758 H 438.719 -2.21138 -2.40344 0
M  V30 4759 H 437.378 -3.58393 -0.771355 0
M  V30 4760 H 437.026 -3.85365 -3.23268 0
M  V30 4761 H 436.726 -5.37961 -2.36372 0
M  V30 4762 H 438.25 -5.15708 -3.26921 0
M  V30 4763 H 439.664 -5.63623 -1.04889 0
M  V30 4764 H 438.061 -5.99126 -0.341825 0
M  V30 4765 H 439.131 -4.82713 0.46 0
M  V30 4766 N 440.474 -0.00167713 -1.576 0
M  V30 4767 C 441.751 0.719951 -1.81868 0
M  V30 4768 C 442.131 1.91895 -0.879747 0
M  V30 4769 O 441.479 2.28389 0.0711423 0
M  V30 4770 C 441.689 1.12409 -3.30402 0
M  V30 4771 C 443.037 1.52724 -3.96182 0
M  V30 4772 O 444.061 1.21784 -3.34734 0
M  V30 4773 O 442.92 2.10265 -5.04431 0
M  V30 4774 H 440.014 0.350707 -0.748955 0
M  V30 4775 H 442.56 -0.0272597 -1.69678 0
M  V30 4776 H 441.332 0.269532 -3.90371 0
M  V30 4777 H 440.955 1.93035 -3.47596 0
M  V30 4778 N 441.952 1.55251 0.271103 0
M  V30 4779 C 442.882 1.9127 1.33933 0
M  V30 4780 C 443.863 0.77478 1.5143 0
M  V30 4781 O 445.048 1.03307 1.64442 0
M  V30 4782 C 442.178 2.18627 2.69851 0
M  V30 4783 C 441.132 3.34442 2.67081 0
M  V30 4784 C 440.458 3.47284 4.06569 0
M  V30 4785 C 441.758 4.70784 2.26185 0
M  V30 4786 H 443.452 2.80744 1.04035 0
M  V30 4787 H 440.998 1.35077 0.499017 0
M  V30 4788 H 442.951 2.42413 3.44694 0
M  V30 4789 H 441.675 1.25955 3.01335 0
M  V30 4790 H 440.334 3.10627 1.94695 0
M  V30 4791 H 439.982 2.52074 4.35279 0
M  V30 4792 H 439.682 4.25152 4.0561 0
M  V30 4793 H 441.206 3.73363 4.83148 0
M  V30 4794 H 442.62 4.94102 2.90751 0
M  V30 4795 H 441.017 5.51582 2.36384 0
M  V30 4796 H 442.087 4.69478 1.21319 0
M  V30 4797 N 443.43 -0.535701 1.48216 0
M  V30 4798 C 444.377 -1.64083 1.62312 0
M  V30 4799 C 445.347 -1.59448 0.465365 0
M  V30 4800 O 446.532 -1.77959 0.688135 0
M  V30 4801 C 443.672 -3.0236 1.66349 0
M  V30 4802 C 442.785 -3.17273 2.93193 0
M  V30 4803 C 441.92 -4.46075 2.88427 0
M  V30 4804 C 440.959 -4.54496 4.1 0
M  V30 4805 N 440.096 -5.7468 4.03345 0
M  V30 4806 H 444.936 -1.51374 2.5669 0
M  V30 4807 H 442.473 -0.737059 1.27302 0
M  V30 4808 H 444.431 -3.82461 1.66672 0
M  V30 4809 H 443.061 -3.13854 0.754672 0
M  V30 4810 H 442.113 -2.30462 3.02641 0
M  V30 4811 H 443.425 -3.19357 3.83162 0
M  V30 4812 H 442.579 -5.3446 2.87119 0
M  V30 4813 H 441.318 -4.46504 1.96177 0
M  V30 4814 H 440.323 -3.64519 4.11589 0
M  V30 4815 H 441.548 -4.5581 5.03402 0
M  V30 4816 H 439.494 -5.76017 3.13912 0
M  V30 4817 H 439.411 -5.78234 4.87013 0
M  V30 4818 H 440.679 -6.65367 4.06087 0
M  V30 4819 N 444.908 -1.36708 -0.784132 0
M  V30 4820 C 445.818 -1.3363 -1.92822 0
M  V30 4821 C 446.834 -0.237686 -1.72369 0
M  V30 4822 O 448.01 -0.470962 -1.95816 0
M  V30 4823 C 445.075 -1.13011 -3.27764 0
M  V30 4824 C 444.136 -2.32397 -3.60957 0
M  V30 4825 C 443.369 -2.12752 -4.89461 0
M  V30 4826 O 443.592 -1.10541 -5.59586 0
M  V30 4827 O 442.526 -3.00653 -5.21432 0
M  V30 4828 H 446.352 -2.29964 -1.98369 0
M  V30 4829 H 443.937 -1.1731 -0.925136 0
M  V30 4830 H 445.819 -1.03451 -4.08504 0
M  V30 4831 H 444.494 -0.19743 -3.23097 0
M  V30 4832 H 443.401 -2.47527 -2.80502 0
M  V30 4833 H 444.734 -3.2419 -3.70354 0
M  V30 4834 N 446.386 1.0089 -1.21074 0
M  V30 4835 C 447.616 1.77933 -1.04993 0
M  V30 4836 C 448.024 1.84847 0.403495 0
M  V30 4837 O 447.367 1.30606 1.29181 0
M  V30 4838 C 447.429 3.23541 -1.56722 0
M  V30 4839 C 447.093 3.40214 -3.05129 0
M  V30 4840 C 448.09 3.2881 -4.02716 0
M  V30 4841 C 445.775 3.65781 -3.44252 0
M  V30 4842 C 447.769 3.42732 -5.37414 0
M  V30 4843 C 445.456 3.79346 -4.79103 0
M  V30 4844 C 446.454 3.67827 -5.75493 0
M  V30 4845 O 446.142 3.80965 -7.07899 0
M  V30 4846 H 445.874 0.566157 -0.369381 0
M  V30 4847 H 448.428 1.27826 -1.60779 0
M  V30 4848 H 446.658 3.74766 -0.953285 0
M  V30 4849 H 448.347 3.82245 -1.36543 0
M  V30 4850 H 449.113 3.08986 -3.73835 0
M  V30 4851 H 444.992 3.73831 -2.69762 0
M  V30 4852 H 448.536 3.33658 -6.12632 0
M  V30 4853 H 444.433 3.98672 -5.07672 0
M  V30 4854 H 445.201 3.97937 -7.15254 0
M  V30 4855 N 447.864 1.01787 1.20321 0
M  V30 4856 C 448.811 0.589197 2.23153 0
M  V30 4857 C 449.781 -0.391367 1.61423 0
M  V30 4858 O 450.966 -0.290518 1.88575 0
M  V30 4859 C 448.106 -0.0650747 3.45039 0
M  V30 4860 C 447.219 0.960207 4.21194 0
M  V30 4861 C 446.354 0.276854 5.30478 0
M  V30 4862 C 445.393 1.2888 5.98378 0
M  V30 4863 N 444.53 0.632031 6.99249 0
M  V30 4864 H 449.37 1.47071 2.59179 0
M  V30 4865 H 446.907 0.736192 1.27352 0
M  V30 4866 H 448.865 -0.461552 4.14639 0
M  V30 4867 H 447.495 -0.910233 3.09701 0
M  V30 4868 H 446.547 1.47484 3.50646 0
M  V30 4869 H 447.859 1.72977 4.67847 0
M  V30 4870 H 447.013 -0.175056 6.06447 0
M  V30 4871 H 445.752 -0.525004 4.84866 0
M  V30 4872 H 444.757 1.75109 5.21169 0
M  V30 4873 H 445.982 2.09196 6.46076 0
M  V30 4874 H 443.928 -0.149935 6.55829 0
M  V30 4875 H 443.845 1.33964 7.44036 0
M  V30 4876 H 445.113 0.203755 7.79234 0
M  V30 4877 N 449.342 -1.36122 0.79427 0
M  V30 4878 C 450.272 -2.32551 0.210328 0
M  V30 4879 C 451.253 -1.56884 -0.657386 0
M  V30 4880 O 452.438 -1.85014 -0.590207 0
M  V30 4881 C 449.568 -3.41128 -0.651819 0
M  V30 4882 C 448.522 -4.27842 0.116395 0
M  V30 4883 C 447.848 -5.2763 -0.86666 0
M  V30 4884 C 449.148 -5.05647 1.30837 0
M  V30 4885 H 450.842 -2.81636 1.01594 0
M  V30 4886 H 448.388 -1.35407 0.489981 0
M  V30 4887 H 450.341 -4.07581 -1.07031 0
M  V30 4888 H 449.065 -2.90622 -1.49019 0
M  V30 4889 H 447.724 -3.62952 0.515915 0
M  V30 4890 H 447.372 -4.73395 -1.70019 0
M  V30 4891 H 447.072 -5.86514 -0.35705 0
M  V30 4892 H 448.596 -5.96955 -1.28361 0
M  V30 4893 H 450.01 -5.65113 0.965393 0
M  V30 4894 H 448.407 -5.73967 1.75161 0
M  V30 4895 H 449.477 -4.37006 2.10128 0
M  V30 4896 N 450.82 -0.546701 -1.47814 0
M  V30 4897 C 452.069 -0.0166497 -2.01693 0
M  V30 4898 C 452.382 1.33721 -1.42752 0
M  V30 4899 O 453.588 1.95658 -1.8823 0
M  V30 4900 C 452.044 0.0206769 -3.59894 0
M  V30 4901 C 451.652 -1.3293 -4.27824 0
M  V30 4902 C 453.396 0.498674 -4.21561 0
M  V30 4903 C 451.303 -1.25165 -5.78003 0
M  V30 4904 H 450.233 -0.0024541 -0.753996 0
M  V30 4905 H 452.884 -0.692984 -1.69912 0
M  V30 4906 H 451.266 0.76244 -3.88591 0
M  V30 4907 H 452.44 -2.08795 -4.10781 0
M  V30 4908 H 450.755 -1.74438 -3.78101 0
M  V30 4909 H 453.352 0.575 -5.31599 0
M  V30 4910 H 453.695 1.5083 -3.88016 0
M  V30 4911 H 454.228 -0.18791 -3.97356 0
M  V30 4912 H 450.967 -2.23695 -6.1615 0
M  V30 4913 H 450.487 -0.53464 -5.97412 0
M  V30 4914 H 452.166 -0.949299 -6.39998 0
M  V30 4915 N 452.299 1.55045 -0.282633 0
M  V30 4916 C 453.546 1.9976 0.33199 0
M  V30 4917 C 453.874 1.17105 1.55295 0
M  V30 4918 O 453.129 0.230599 1.94337 0
M  V30 4919 C 453.428 3.49422 0.750938 0
M  V30 4920 C 453.094 4.4941 -0.366228 0
M  V30 4921 C 451.756 4.76471 -0.672964 0
M  V30 4922 C 454.108 5.09054 -1.11864 0
M  V30 4923 C 451.436 5.60442 -1.73556 0
M  V30 4924 C 453.788 5.9418 -2.17102 0
M  V30 4925 C 452.452 6.19558 -2.48402 0
M  V30 4926 H 451.722 0.730974 0.121484 0
M  V30 4927 H 454.369 1.8732 -0.39791 0
M  V30 4928 H 452.674 3.59377 1.56063 0
M  V30 4929 H 454.371 3.81432 1.23736 0
M  V30 4930 H 450.961 4.2844 -0.117041 0
M  V30 4931 H 455.145 4.88165 -0.894925 0
M  V30 4932 H 450.401 5.78349 -1.983 0
M  V30 4933 H 454.575 6.39427 -2.75873 0
M  V30 4934 H 452.202 6.84417 -3.30874 0
M  V30 4935 N 453.777 0.010035 1.57597 0
M  V30 4936 C 455.005 -0.683413 1.95287 0
M  V30 4937 C 455.42 -1.66747 0.885481 0
M  V30 4938 O 454.777 -1.82003 -0.134629 0
M  V30 4939 C 454.828 -1.40652 3.33015 0
M  V30 4940 O 454.549 -0.461916 4.35658 0
M  V30 4941 C 456.05 -2.19356 3.85225 0
M  V30 4942 H 453.27 -0.189708 0.643624 0
M  V30 4943 H 455.814 0.0641359 2.04399 0
M  V30 4944 H 453.969 -2.10562 3.2518 0
M  V30 4945 H 454.383 -0.973215 5.15392 0
M  V30 4946 H 455.857 -2.65433 4.83993 0
M  V30 4947 H 456.334 -3.02457 3.18459 0
M  V30 4948 H 456.94 -1.54442 3.96267 0
M  V30 4949 N 455.255 -1.55392 -0.262866 0
M  V30 4950 C 456.501 -1.76737 -0.99458 0
M  V30 4951 C 456.834 -0.572453 -1.85571 0
M  V30 4952 O 456.109 0.429732 -1.89693 0
M  V30 4953 C 456.392 -3.07824 -1.8686 0
M  V30 4954 C 456.245 -4.3769 -1.03672 0
M  V30 4955 C 457.564 -3.35021 -2.85393 0
M  V30 4956 H 454.683 -0.643005 -0.360157 0
M  V30 4957 H 457.325 -1.88126 -0.266216 0
M  V30 4958 H 455.475 -2.98245 -2.48962 0
M  V30 4959 H 457.147 -4.59238 -0.43563 0
M  V30 4960 H 455.39 -4.32461 -0.340513 0
M  V30 4961 H 456.061 -5.25759 -1.6817 0
M  V30 4962 H 458.537 -3.44458 -2.33426 0
M  V30 4963 H 457.413 -4.27989 -3.43681 0
M  V30 4964 H 457.674 -2.55153 -3.61039 0
M  V30 4965 N 456.733 0.527833 -1.48498 0
M  V30 4966 C 457.98 1.28354 -1.56625 0
M  V30 4967 C 458.308 1.93 -0.241096 0
M  V30 4968 O 457.563 1.79967 0.768798 0
M  V30 4969 C 457.862 2.39275 -2.65485 0
M  V30 4970 C 457.528 1.92268 -4.07853 0
M  V30 4971 C 456.19 1.79166 -4.46602 0
M  V30 4972 C 458.542 1.56771 -4.97064 0
M  V30 4973 C 455.87 1.28905 -5.72364 0
M  V30 4974 C 458.222 1.07972 -6.23318 0
M  V30 4975 C 456.886 0.934887 -6.60921 0
M  V30 4976 H 456.156 0.469682 -0.573131 0
M  V30 4977 H 458.803 0.588781 -1.82224 0
M  V30 4978 H 457.108 3.1443 -2.33754 0
M  V30 4979 H 458.805 2.974 -2.68988 0
M  V30 4980 H 455.395 2.03417 -3.77252 0
M  V30 4981 H 459.579 1.65753 -4.67803 0
M  V30 4982 H 454.835 1.16381 -6.00221 0
M  V30 4983 H 459.009 0.795775 -6.91838 0
M  V30 4984 H 456.636 0.543231 -7.58257 0
M  V30 4985 N 458.211 1.37122 0.776871 0
M  V30 4986 C 459.161 1.28989 1.88005 0
M  V30 4987 C 460.145 0.178765 1.59904 0
M  V30 4988 O 461.337 0.412705 1.72121 0
M  V30 4989 C 458.466 1.09402 3.25402 0
M  V30 4990 C 457.552 2.25036 3.59471 0
M  V30 4991 N 457.943 3.50407 3.64759 0
M  V30 4992 C 456.241 2.17078 3.89607 0
M  V30 4993 C 456.942 4.26628 3.95428 0
M  V30 4994 N 455.918 3.55709 4.11062 0
M  V30 4995 H 459.72 2.2394 1.90337 0
M  V30 4996 H 457.234 1.30021 0.973052 0
M  V30 4997 H 459.231 1.01661 4.04315 0
M  V30 4998 H 457.891 0.153632 3.24336 0
M  V30 4999 H 458.902 3.8438 3.47091 0
M  V30 5000 H 455.579 1.31067 3.96393 0
M  V30 5001 H 456.969 5.35107 4.06338 0
M  V30 5002 N 459.689 -1.00246 1.21608 0
M  V30 5003 C 460.938 -1.73476 1.02902 0
M  V30 5004 C 461.251 -1.90643 -0.437561 0
M  V30 5005 O 462.457 -2.61105 -0.74407 0
M  V30 5006 C 460.913 -3.12079 1.79261 0
M  V30 5007 C 460.521 -3.02877 3.30106 0
M  V30 5008 C 462.265 -3.89421 1.68972 0
M  V30 5009 C 460.172 -4.36575 3.98944 0
M  V30 5010 H 459.102 -0.650408 0.381425 0
M  V30 5011 H 461.753 -1.11985 1.45367 0
M  V30 5012 H 460.135 -3.74196 1.2959 0
M  V30 5013 H 461.309 -2.49983 3.87098 0
M  V30 5014 H 459.624 -2.39022 3.40965 0
M  V30 5015 H 462.221 -4.88362 2.17731 0
M  V30 5016 H 462.564 -4.1122 0.648397 0
M  V30 5017 H 463.097 -3.33963 2.16133 0
M  V30 5018 H 459.836 -4.19978 5.03288 0
M  V30 5019 H 459.356 -4.8942 3.4674 0
M  V30 5020 H 461.035 -5.05364 4.04 0
M  V30 5021 N 461.167 -1.02423 -1.1978 0
M  V30 5022 C 462.416 -0.713265 -1.88667 0
M  V30 5023 C 462.729 0.7609 -1.80193 0
M  V30 5024 O 463.935 1.18473 -2.44288 0
M  V30 5025 C 462.391 -1.22545 -3.38394 0
M  V30 5026 C 461.999 -2.72706 -3.55437 0
M  V30 5027 C 463.743 -0.990257 -4.12788 0
M  V30 5028 C 461.65 -3.17367 -4.99031 0
M  V30 5029 H 460.58 -0.263105 -0.706606 0
M  V30 5030 H 463.231 -1.23792 -1.35454 0
M  V30 5031 H 461.613 -0.628732 -3.90977 0
M  V30 5032 H 462.787 -3.37993 -3.13205 0
M  V30 5033 H 461.102 -2.94453 -2.94425 0
M  V30 5034 H 463.699 -1.29926 -5.18675 0
M  V30 5035 H 464.042 0.0730761 -4.16236 0
M  V30 5036 H 464.575 -1.55074 -3.66329 0
M  V30 5037 H 461.314 -4.23009 -5.00743 0
M  V30 5038 H 460.834 -2.56805 -5.42044 0
M  V30 5039 H 462.513 -3.10441 -5.67658 0
M  V30 5040 N 462.645 1.35699 -0.801477 0
M  V30 5041 C 463.608 2.28199 -0.213994 0
M  V30 5042 C 464.608 1.49359 0.595691 0
M  V30 5043 O 465.798 1.69186 0.414921 0
M  V30 5044 C 462.93 3.33587 0.702297 0
M  V30 5045 H 464.123 2.81666 -1.02976 0
M  V30 5046 H 461.676 1.45467 -0.571759 0
M  V30 5047 H 462.411 2.85297 1.54195 0
M  V30 5048 H 462.196 3.91906 0.123484 0
M  V30 5049 H 463.686 4.02638 1.10783 0
M  V30 5050 N 464.123 0.554532 1.47522 0
M  V30 5051 C 465.056 -0.242442 2.26908 0
M  V30 5052 C 466.034 -0.922722 1.33883 0
M  V30 5053 O 467.218 -0.942244 1.63261 0
M  V30 5054 C 464.345 -1.34525 3.10839 0
M  V30 5055 C 463.391 -0.773805 4.19422 0
M  V30 5056 S 464.224 0.377525 5.34168 0
M  V30 5057 C 465.38 -0.727164 6.21662 0
M  V30 5058 H 465.613 0.431218 2.94156 0
M  V30 5059 H 463.146 0.3408 1.50592 0
M  V30 5060 H 465.104 -1.97683 3.59766 0
M  V30 5061 H 463.765 -1.99073 2.42958 0
M  V30 5062 H 462.958 -1.60187 4.77866 0
M  V30 5063 H 462.56 -0.218448 3.73361 0
M  V30 5064 H 464.852 -1.61992 6.57849 0
M  V30 5065 H 465.795 -0.180135 7.07871 0
M  V30 5066 H 466.203 -1.01863 5.55233 0
M  V30 5067 N 465.601 -1.54893 0.290851 0
M  V30 5068 C 466.841 -2.01842 -0.322388 0
M  V30 5069 C 467.205 -1.17477 -1.51865 0
M  V30 5070 O 468.406 -1.54077 -2.20258 0
M  V30 5071 C 466.677 -3.50874 -0.679844 0
M  V30 5072 S 468.236 -4.19796 -1.27739 0
M  V30 5073 H 465.054 -0.704005 -0.0994866 0
M  V30 5074 H 467.656 -1.91015 0.416358 0
M  V30 5075 H 466.36 -4.09915 0.199435 0
M  V30 5076 H 465.891 -3.65717 -1.44964 0
M  V30 5077 H 467.906 -4.24729 -2.56554 0
M  V30 5078 N 467.08 -0.0183926 -1.57589 0
M  V30 5079 C 468.305 0.676634 -1.96052 0
M  V30 5080 C 468.73 1.6548 -0.894307 0
M  V30 5081 O 468.088 1.80712 0.145849 0
M  V30 5082 C 468.136 1.36872 -3.33614 0
M  V30 5083 O 467.24 2.48372 -3.29219 0
M  V30 5084 H 466.581 0.1786 -0.63953 0
M  V30 5085 H 469.111 -0.077056 -2.04455 0
M  V30 5086 H 469.121 1.72797 -3.69601 0
M  V30 5087 H 467.796 0.651636 -4.10763 0
M  V30 5088 H 466.373 2.14639 -3.04934 0
M  V30 5089 N 468.558 1.5553 0.254621 0
M  V30 5090 C 469.786 1.81046 1.00149 0
M  V30 5091 C 470.201 0.593047 1.79244 0
M  V30 5092 O 469.558 -0.438196 1.77161 0
M  V30 5093 C 469.609 3.04684 1.94551 0
M  V30 5094 O 469.33 4.21725 1.18658 0
M  V30 5095 C 470.831 3.42943 2.80901 0
M  V30 5096 H 468.051 0.602653 0.295044 0
M  V30 5097 H 470.595 2.02576 0.279842 0
M  V30 5098 H 468.75 2.85226 2.62154 0
M  V30 5099 H 469.164 4.91746 1.82445 0
M  V30 5100 H 470.638 4.32576 3.42902 0
M  V30 5101 H 471.115 2.63176 3.51617 0
M  V30 5102 H 471.721 3.64724 2.18762 0
M  V30 5103 N 470.036 -0.519951 1.48776 0
M  V30 5104 C 471.283 -1.27522 1.57303 0
M  V30 5105 C 471.611 -1.92869 0.251328 0
M  V30 5106 O 470.866 -1.80372 -0.759243 0
M  V30 5107 C 471.165 -2.37864 2.6675 0
M  V30 5108 C 470.831 -1.90103 4.08867 0
M  V30 5109 C 469.493 -1.76795 4.47546 0
M  V30 5110 C 471.845 -1.54133 4.97888 0
M  V30 5111 C 469.173 -1.25868 5.73039 0
M  V30 5112 C 471.525 -1.04665 6.23881 0
M  V30 5113 C 470.189 -0.899823 6.61407 0
M  V30 5114 H 469.459 -0.466636 0.575614 0
M  V30 5115 H 472.106 -0.579109 1.82534 0
M  V30 5116 H 470.411 -3.13186 2.35418 0
M  V30 5117 H 472.108 -2.95969 2.70561 0
M  V30 5118 H 468.698 -2.01414 3.78326 0
M  V30 5119 H 472.882 -1.6327 4.68675 0
M  V30 5120 H 468.138 -1.13196 6.0083 0
M  V30 5121 H 472.312 -0.759074 6.92251 0
M  V30 5122 H 469.939 -0.503011 7.58534 0
M  V30 5123 N 471.514 -1.37532 -0.769588 0
M  V30 5124 C 472.477 -1.33292 -1.86456 0
M  V30 5125 C 473.477 -0.236537 -1.59051 0
M  V30 5126 O 474.667 -0.492511 -1.67093 0
M  V30 5127 C 471.799 -1.07118 -3.23633 0
M  V30 5128 H 472.992 -2.30692 -1.91628 0
M  V30 5129 H 470.545 -1.22593 -0.969572 0
M  V30 5130 H 471.28 -0.102578 -3.24138 0
M  V30 5131 H 471.065 -1.86479 -3.44917 0
M  V30 5132 H 472.555 -1.06806 -4.03711 0
M  V30 5133 N 472.992 0.995999 -1.22138 0
M  V30 5134 C 473.94 2.10673 -0.985876 0
M  V30 5135 C 474.934 1.69255 0.0699553 0
M  V30 5136 O 476.14 1.79812 -0.0822176 0
M  V30 5137 H 472.515 0.688865 -0.30161 0
M  V30 5138 H 474.486 2.27711 -1.92848 0
M  V30 5139 C 473.235 3.42881 -0.576909 0
M  V30 5140 H 472.558 3.75191 -1.38101 0
M  V30 5141 H 473.998 4.21589 -0.451518 0
M  V30 5142 C 472.457 3.29265 0.713196 0
M  V30 5143 O 472.987 3.60777 1.76643 0
M  V30 5144 N 471.193 2.82456 0.683162 0
M  V30 5145 H 470.74 2.5701 -0.174242 0
M  V30 5146 H 470.698 2.73727 1.54663 0
M  V30 5147 N 474.47 1.03057 1.19235 0
M  V30 5148 C 475.881 0.757449 1.70645 0
M  V30 5149 C 476.232 -0.722735 1.82403 0
M  V30 5150 O 475.357 -1.56325 1.49638 0
M  V30 5151 C 475.952 1.36833 3.09939 0
M  V30 5152 C 474.511 1.14375 3.58602 0
M  V30 5153 C 473.658 1.46533 2.35422 0
M  V30 5154 H 476.609 1.19828 1.04052 0
M  V30 5155 H 476.63 0.766184 3.72706 0
M  V30 5156 H 476.142 2.44562 3.01349 0
M  V30 5157 H 474.243 0.0847542 3.72504 0
M  V30 5158 H 474.356 1.83366 4.42622 0
M  V30 5159 H 472.72 0.884712 2.38841 0
M  V30 5160 H 473.503 2.55349 2.2946 0
M  V30 5161 N 475.948 -1.35272 0.808662 0
M  V30 5162 C 476.878 -2.32315 0.234981 0
M  V30 5163 C 477.859 -1.57572 -0.64071 0
M  V30 5164 O 479.044 -1.8563 -0.570551 0
M  V30 5165 C 476.174 -3.41801 -0.615601 0
M  V30 5166 C 475.128 -4.27694 0.161767 0
M  V30 5167 C 474.454 -5.28519 -0.810649 0
M  V30 5168 C 475.754 -5.04231 1.36193 0
M  V30 5169 H 477.448 -2.80543 1.04575 0
M  V30 5170 H 474.994 -1.3488 0.504315 0
M  V30 5171 H 476.947 -4.08693 -1.02702 0
M  V30 5172 H 475.671 -2.92186 -1.45928 0
M  V30 5173 H 474.33 -3.62384 0.554382 0
M  V30 5174 H 473.978 -4.75171 -1.64988 0
M  V30 5175 H 473.678 -5.8686 -0.294822 0
M  V30 5176 H 475.202 -5.98283 -1.22023 0
M  V30 5177 H 476.616 -5.64058 1.02528 0
M  V30 5178 H 475.013 -5.72077 1.81239 0
M  V30 5179 H 476.083 -4.34753 2.14751 0
M  V30 5180 N 477.426 -0.562348 -1.47226 0
M  V30 5181 C 478.356 0.170627 -2.32876 0
M  V30 5182 C 479.337 0.903748 -1.44106 0
M  V30 5183 O 480.522 0.883206 -1.72954 0
M  V30 5184 C 477.652 1.19786 -3.25989 0
M  V30 5185 C 476.606 0.580875 -4.2404 0
M  V30 5186 C 475.932 1.71311 -5.06514 0
M  V30 5187 C 477.232 -0.468714 -5.20193 0
M  V30 5188 H 478.926 -0.544441 -2.94408 0
M  V30 5189 H 476.472 -0.263271 -1.41573 0
M  V30 5190 H 478.425 1.71884 -3.84752 0
M  V30 5191 H 477.149 1.94294 -2.62521 0
M  V30 5192 H 475.808 0.0811538 -3.6651 0
M  V30 5193 H 475.456 2.44736 -4.39447 0
M  V30 5194 H 475.156 1.30604 -5.72902 0
M  V30 5195 H 476.68 2.23725 -5.68137 0
M  V30 5196 H 478.094 -0.0336028 -5.7329 0
M  V30 5197 H 476.491 -0.794957 -5.94811 0
M  V30 5198 H 477.561 -1.36269 -4.65359 0
M  V30 5199 N 478.904 1.54736 -0.299062 0
M  V30 5200 C 480.134 2.04215 0.312992 0
M  V30 5201 C 480.542 1.17596 1.48215 0
M  V30 5202 O 479.885 0.193835 1.82674 0
M  V30 5203 C 479.947 3.49696 0.833862 0
M  V30 5204 C 479.611 4.56518 -0.20977 0
M  V30 5205 C 480.608 5.09442 -1.03756 0
M  V30 5206 C 478.293 5.01073 -0.35091 0
M  V30 5207 C 480.287 6.05459 -1.99244 0
M  V30 5208 C 477.974 5.9691 -1.30924 0
M  V30 5209 C 478.972 6.48987 -2.1285 0
M  V30 5210 O 478.66 7.42947 -3.07059 0
M  V30 5211 H 478.392 0.672128 0.0722494 0
M  V30 5212 H 480.946 2.00718 -0.436043 0
M  V30 5213 H 479.176 3.5051 1.63339 0
M  V30 5214 H 480.865 3.82381 1.36159 0
M  V30 5215 H 481.631 4.75816 -0.939376 0
M  V30 5216 H 477.51 4.60168 0.276813 0
M  V30 5217 H 481.054 6.46031 -2.63229 0
M  V30 5218 H 476.951 6.29953 -1.40815 0
M  V30 5219 H 477.719 7.60743 -3.02015 0
M  V30 5220 N 480.382 0.0267497 1.57577 0
M  V30 5221 C 481.63 -0.651116 1.91324 0
M  V30 5222 C 481.951 -1.72804 0.90353 0
M  V30 5223 O 481.221 -1.95822 -0.0552946 0
M  V30 5224 H 479.801 -0.243491 0.706202 0
M  V30 5225 H 482.463 0.0739935 1.94759 0
M  V30 5226 H 481.559 -1.10536 2.9187 0
M  V30 5227 N 481.861 -1.55662 -0.24637 0
M  V30 5228 C 483.107 -1.78698 -0.971525 0
M  V30 5229 C 483.462 -0.59577 -1.82944 0
M  V30 5230 O 482.755 0.41097 -1.87141 0
M  V30 5231 C 482.949 -3.04885 -1.86494 0
M  V30 5232 C 482.778 -4.36165 -1.09501 0
M  V30 5233 C 481.548 -4.98929 -0.799895 0
M  V30 5234 C 483.746 -5.12126 -0.472334 0
M  V30 5235 N 481.728 -6.139 -0.00595299 0
M  V30 5236 C 483.099 -6.1972 0.18616 0
M  V30 5237 C 485.154 -4.96426 -0.382854 0
M  V30 5238 C 483.857 -7.13321 0.925542 0
M  V30 5239 C 485.883 -5.90405 0.342999 0
M  V30 5240 C 485.245 -6.97407 0.990128 0
M  V30 5241 H 481.344 -0.705852 -0.336597 0
M  V30 5242 H 483.928 -1.93157 -0.244615 0
M  V30 5243 H 482.099 -2.91753 -2.56388 0
M  V30 5244 H 483.831 -3.16212 -2.5257 0
M  V30 5245 H 480.586 -4.60365 -1.11181 0
M  V30 5246 H 481.01 -6.75938 0.379127 0
M  V30 5247 H 485.652 -4.13777 -0.868834 0
M  V30 5248 H 483.37 -7.9547 1.42312 0
M  V30 5249 H 486.956 -5.80333 0.412907 0
M  V30 5250 H 485.836 -7.68874 1.54282 0
M  V30 5251 N 483.339 0.512053 -1.4905 0
M  V30 5252 C 484.272 1.63209 -1.59493 0
M  V30 5253 C 485.25 1.56407 -0.444481 0
M  V30 5254 O 486.434 1.76623 -0.658535 0
M  V30 5255 C 483.561 3.01685 -1.53961 0
M  V30 5256 C 482.607 3.26786 -2.74068 0
M  V30 5257 S 483.44 3.11107 -4.35859 0
M  V30 5258 C 484.596 4.51997 -4.32954 0
M  V30 5259 H 484.829 1.54104 -2.54243 0
M  V30 5260 H 482.362 0.696382 -1.37804 0
M  V30 5261 H 484.32 3.81538 -1.51455 0
M  V30 5262 H 482.981 3.08215 -0.605178 0
M  V30 5263 H 482.174 4.27849 -2.66386 0
M  V30 5264 H 481.776 2.54635 -2.73928 0
M  V30 5265 H 484.068 5.43871 -4.03993 0
M  V30 5266 H 485.011 4.64731 -5.34257 0
M  V30 5267 H 485.419 4.32159 -3.63178 0
M  V30 5268 N 484.817 1.37938 0.762283 0
M  V30 5269 C 485.765 1.34569 1.89721 0
M  V30 5270 C 486.759 0.232929 1.67791 0
M  V30 5271 O 487.965 0.401485 1.75465 0
M  V30 5272 H 484.34 0.419594 0.624055 0
M  V30 5273 H 486.311 2.30357 1.8968 0
M  V30 5274 C 485.06 1.17898 3.27101 0
M  V30 5275 H 484.383 2.02781 3.44558 0
M  V30 5276 H 485.823 1.19593 4.06784 0
M  V30 5277 C 484.282 -0.114728 3.36705 0
M  V30 5278 O 484.812 -1.0949 3.8649 0
M  V30 5279 N 483.018 -0.16863 2.9011 0
M  V30 5280 H 482.565 0.62967 2.49786 0
M  V30 5281 H 482.523 -1.03383 2.96916 0
M  V30 5282 N 486.295 -0.989507 1.22664 0
M  V30 5283 C 487.52 -1.77031 1.08051 0
M  V30 5284 C 487.945 -1.84535 -0.364483 0
M  V30 5285 O 487.303 -1.3003 -1.2634 0
M  V30 5286 C 487.351 -3.18 1.70024 0
M  V30 5287 O 486.455 -4.01161 0.956216 0
M  V30 5288 H 485.796 -0.545008 0.379292 0
M  V30 5289 H 488.326 -1.24277 1.62531 0
M  V30 5290 H 488.336 -3.68616 1.74888 0
M  V30 5291 H 487.011 -3.11853 2.75174 0
M  V30 5292 H 485.588 -3.59687 0.98384 0
M  V30 5293 N 487.773 -1.03688 -1.18687 0
M  V30 5294 C 488.721 -0.618292 -2.24232 0
M  V30 5295 C 489.715 0.353045 -1.6568 0
M  V30 5296 O 490.921 0.220749 -1.78641 0
M  V30 5297 H 487.296 -0.181711 -0.729716 0
M  V30 5298 H 489.267 -1.51893 -2.56848 0
M  V30 5299 C 488.016 0.00677342 -3.47699 0
M  V30 5300 H 487.339 -0.731692 -3.93047 0
M  V30 5301 H 488.779 0.262492 -4.23187 0
M  V30 5302 C 487.238 1.25572 -3.12623 0
M  V30 5303 O 487.768 2.34691 -3.26011 0
M  V30 5304 N 485.974 1.14755 -2.66982 0
M  V30 5305 H 485.521 0.259601 -2.56289 0
M  V30 5306 H 485.479 1.98412 -2.43885 0
M  V30 5307 N 489.251 1.34841 -0.815825 0
M  V30 5308 C 490.481 2.02436 -0.412695 0
M  V30 5309 C 490.889 1.61604 0.983906 0
M  V30 5310 O 490.232 0.813729 1.64694 0
M  V30 5311 C 490.294 3.56953 -0.427182 0
M  V30 5312 C 489.958 4.21083 -1.77589 0
M  V30 5313 C 490.955 4.42107 -2.73564 0
M  V30 5314 C 488.64 4.58006 -2.06243 0
M  V30 5315 C 490.634 4.99169 -3.9637 0
M  V30 5316 C 488.321 5.1478 -3.2931 0
M  V30 5317 C 489.319 5.35304 -4.24191 0
M  V30 5318 O 489.007 5.90878 -5.45086 0
M  V30 5319 H 488.739 0.655631 -0.164695 0
M  V30 5320 H 491.293 1.73246 -1.1034 0
M  V30 5321 H 489.523 3.85372 0.320175 0
M  V30 5322 H 491.212 4.05875 -0.0450875 0
M  V30 5323 H 491.978 4.13953 -2.52721 0
M  V30 5324 H 487.857 4.41339 -1.33196 0
M  V30 5325 H 491.401 5.15105 -4.70439 0
M  V30 5326 H 487.298 5.42362 -3.5002 0
M  V30 5327 H 488.066 6.0932 -5.46508 0
M  V30 5328 N 490.729 0.570148 1.46925 0
M  V30 5329 C 492.145 0.23087 1.57921 0
M  V30 5330 C 492.345 -1.26676 1.56702 0
M  V30 5331 O 491.401 -2.04774 1.47729 0
M  V30 5332 C 492.714 0.868973 2.8787 0
M  V30 5333 C 494.262 0.841397 3.01479 0
M  V30 5334 C 494.737 1.45881 4.34146 0
M  V30 5335 N 496.228 1.42258 4.40814 0
M  V30 5336 C 496.963 1.8698 5.42057 0
M  V30 5337 N 496.459 2.39618 6.50042 0
M  V30 5338 N 498.252 1.77972 5.33181 0
M  V30 5339 H 490.403 1.54301 1.45962 0
M  V30 5340 H 492.666 0.644224 0.69547 0
M  V30 5341 H 492.372 1.922 2.94537 0
M  V30 5342 H 492.246 0.369682 3.75384 0
M  V30 5343 H 494.633 -0.202973 2.94401 0
M  V30 5344 H 494.714 1.37858 2.15474 0
M  V30 5345 H 494.358 2.50231 4.4198 0
M  V30 5346 H 494.288 0.896958 5.18905 0
M  V30 5347 H 496.779 1.03768 3.63374 0
M  V30 5348 H 497.092 2.71633 7.23488 0
M  V30 5349 H 495.437 2.43636 6.50897 0
M  V30 5350 H 498.628 1.36617 4.4772 0
M  V30 5351 H 498.801 2.13143 6.11943 0
M  V30 5352 N 492.207 -1.54576 0.307264 0
M  V30 5353 C 493.154 -2.23751 -0.56604 0
M  V30 5354 C 494.124 -1.22235 -1.12462 0
M  V30 5355 O 495.309 -1.50873 -1.16799 0
M  V30 5356 C 492.449 -2.98661 -1.72903 0
M  V30 5357 C 491.562 -4.14963 -1.20124 0
M  V30 5358 C 490.697 -4.77441 -2.3286 0
M  V30 5359 C 489.736 -5.85875 -1.77247 0
M  V30 5360 N 488.873 -6.42282 -2.8358 0
M  V30 5361 H 493.713 -2.97984 0.0304578 0
M  V30 5362 H 491.25 -1.47076 0.0268015 0
M  V30 5363 H 493.208 -3.40329 -2.41313 0
M  V30 5364 H 491.838 -2.26793 -2.29706 0
M  V30 5365 H 490.89 -3.78193 -0.409198 0
M  V30 5366 H 492.202 -4.93066 -0.754171 0
M  V30 5367 H 491.356 -5.21993 -3.09205 0
M  V30 5368 H 490.095 -3.98684 -2.80896 0
M  V30 5369 H 489.1 -5.40741 -0.993926 0
M  V30 5370 H 490.325 -6.6652 -1.30107 0
M  V30 5371 H 488.271 -5.66406 -3.30939 0
M  V30 5372 H 488.188 -7.1575 -2.43388 0
M  V30 5373 H 489.456 -6.91492 -3.59804 0
M  V30 5374 N 493.685 -0.035106 -1.57561 0
M  V30 5375 C 494.648 0.929819 -2.09492 0
M  V30 5376 C 495.648 1.25026 -1.01119 0
M  V30 5377 O 496.838 1.18961 -1.27255 0
M  V30 5378 C 493.97 2.24457 -2.56577 0
M  V30 5379 H 495.163 0.479935 -2.96035 0
M  V30 5380 H 492.716 0.213033 -1.54841 0
M  V30 5381 H 493.451 2.74061 -1.73382 0
M  V30 5382 H 493.236 2.02508 -3.35757 0
M  V30 5383 H 494.726 2.93607 -2.96959 0
M  V30 5384 N 495.163 1.55791 0.238111 0
M  V30 5385 C 496.41 1.78033 0.964907 0
M  V30 5386 C 496.738 0.600984 1.84982 0
M  V30 5387 O 495.993 -0.41536 1.91241 0
M  V30 5388 C 496.292 3.05869 1.84875 0
M  V30 5389 C 495.958 4.36808 1.11846 0
M  V30 5390 C 494.62 4.72388 0.916662 0
M  V30 5391 C 496.972 5.17717 0.60151 0
M  V30 5392 C 494.3 5.86406 0.185756 0
M  V30 5393 C 496.652 6.32494 -0.115972 0
M  V30 5394 C 495.316 6.66688 -0.329168 0
M  V30 5395 H 494.586 0.651469 0.353085 0
M  V30 5396 H 497.233 1.90061 0.234318 0
M  V30 5397 H 495.538 2.88891 2.64668 0
M  V30 5398 H 497.235 3.20278 2.41294 0
M  V30 5399 H 493.825 4.08862 1.28569 0
M  V30 5400 H 498.009 4.90678 0.744932 0
M  V30 5401 H 493.265 6.11399 0.0101886 0
M  V30 5402 H 497.439 6.94425 -0.524127 0
M  V30 5403 H 495.066 7.54884 -0.897474 0
M  V30 5404 N 496.642 -0.504142 1.49319 0
M  V30 5405 C 497.572 -1.61473 1.68667 0
M  V30 5406 C 498.553 -1.61455 0.535378 0
M  V30 5407 O 499.738 -1.78245 0.770868 0
M  V30 5408 C 496.868 -2.99971 1.75028 0
M  V30 5409 C 495.822 -3.14854 2.89916 0
M  V30 5410 C 495.148 -4.54671 2.81387 0
M  V30 5411 C 496.448 -2.95176 4.30893 0
M  V30 5412 H 498.142 -1.45535 2.61648 0
M  V30 5413 H 495.688 -0.698711 1.25913 0
M  V30 5414 H 497.641 -3.77562 1.8715 0
M  V30 5415 H 496.365 -3.1699 0.786441 0
M  V30 5416 H 495.024 -2.39687 2.77391 0
M  V30 5417 H 494.672 -4.68562 1.82917 0
M  V30 5418 H 494.372 -4.6557 3.58494 0
M  V30 5419 H 495.896 -5.34327 2.95512 0
M  V30 5420 H 497.31 -3.62538 4.44116 0
M  V30 5421 H 495.707 -3.17549 5.09198 0
M  V30 5422 H 496.777 -1.91332 4.45556 0
M  V30 5423 N 498.12 -1.38341 -0.754957 0
M  V30 5424 C 499.345 -1.37882 -1.5493 0
M  V30 5425 C 499.77 0.0296385 -1.88077 0
M  V30 5426 O 499.128 1.01133 -1.50472 0
M  V30 5427 C 499.176 -2.23996 -2.82592 0
M  V30 5428 O 498.28 -1.65612 -3.77686 0
M  V30 5429 H 497.621 -0.470384 -0.468652 0
M  V30 5430 H 500.151 -1.82084 -0.933082 0
M  V30 5431 H 500.161 -2.37806 -3.3153 0
M  V30 5432 H 498.836 -3.26365 -2.57796 0
M  V30 5433 H 497.413 -1.60936 -3.36384 0
M  V30 5434 N 499.598 0.982988 -1.23187 0
M  V30 5435 C 500.561 2.05649 -1.01198 0
M  V30 5436 C 501.561 1.6078 0.0252464 0
M  V30 5437 O 502.751 1.72878 -0.214243 0
M  V30 5438 C 499.883 3.36744 -0.530656 0
M  V30 5439 H 501.076 2.2659 -1.96461 0
M  V30 5440 H 498.629 1.15602 -1.05195 0
M  V30 5441 H 499.364 3.21492 0.425873 0
M  V30 5442 H 499.149 3.7065 -1.2791 0
M  V30 5443 H 500.639 4.15705 -0.397366 0
M  V30 5444 N 501.076 1.04316 1.18135 0
M  V30 5445 C 502.323 0.74802 1.88178 0
M  V30 5446 C 502.651 -0.72441 1.80506 0
M  V30 5447 O 501.906 -1.54463 1.20165 0
M  V30 5448 C 502.205 1.16271 3.37958 0
M  V30 5449 C 501.871 2.63585 3.65833 0
M  V30 5450 C 500.533 3.03829 3.73151 0
M  V30 5451 C 502.885 3.58822 3.78016 0
M  V30 5452 C 500.213 4.38194 3.90132 0
M  V30 5453 C 502.565 4.92909 3.96514 0
M  V30 5454 C 501.229 5.3282 4.02068 0
M  V30 5455 H 500.499 0.27372 0.688592 0
M  V30 5456 H 503.146 1.30863 1.39811 0
M  V30 5457 H 501.451 0.520938 3.88321 0
M  V30 5458 H 503.148 0.911672 3.90499 0
M  V30 5459 H 499.738 2.31414 3.60757 0
M  V30 5460 H 503.922 3.28875 3.71692 0
M  V30 5461 H 499.178 4.68631 3.92677 0
M  V30 5462 H 503.352 5.66606 4.04883 0
M  V30 5463 H 500.979 6.36943 4.14979 0
M  V30 5464 N 502.554 -1.34406 0.822964 0
M  V30 5465 C 503.97 -1.51275 0.508727 0
M  V30 5466 C 504.17 -1.76776 -0.967083 0
M  V30 5467 O 503.226 -1.81871 -1.75155 0
M  V30 5468 C 504.539 -2.67765 1.36829 0
M  V30 5469 C 506.087 -2.81647 1.36542 0
M  V30 5470 C 506.562 -4.01181 2.20947 0
M  V30 5471 N 508.053 -4.08388 2.18571 0
M  V30 5472 C 508.788 -5.00036 2.80627 0
M  V30 5473 N 508.284 -5.96906 3.51674 0
M  V30 5474 N 510.077 -4.92908 2.70181 0
M  V30 5475 H 502.228 -1.16113 1.77852 0
M  V30 5476 H 504.491 -0.56947 0.757897 0
M  V30 5477 H 504.197 -2.55551 2.41633 0
M  V30 5478 H 504.071 -3.62779 1.03303 0
M  V30 5479 H 506.458 -2.93303 0.325163 0
M  V30 5480 H 506.539 -1.87443 1.74066 0
M  V30 5481 H 506.183 -3.90286 3.25022 0
M  V30 5482 H 506.113 -4.94599 1.80774 0
M  V30 5483 H 508.604 -3.39051 1.66891 0
M  V30 5484 H 508.917 -6.63468 3.96271 0
M  V30 5485 H 507.262 -5.9703 3.5578 0
M  V30 5486 H 510.453 -4.1619 2.14251 0
M  V30 5487 H 510.626 -5.64137 3.18831 0
M  V30 5488 N 504.032 -0.577932 -1.46621 0
M  V30 5489 C 505.272 -0.0643097 -2.04299 0
M  V30 5490 C 505.636 1.26967 -1.44026 0
M  V30 5491 O 506.837 1.87224 -1.92875 0
M  V30 5492 C 505.108 0.00547588 -3.574 0
M  V30 5493 S 506.667 0.462216 -4.36359 0
M  V30 5494 H 503.485 -0.0351573 -0.71013 0
M  V30 5495 H 506.087 -0.76935 -1.79725 0
M  V30 5496 H 504.791 -0.969423 -3.98786 0
M  V30 5497 H 504.322 0.733435 -3.86503 0
M  V30 5498 H 506.337 1.71791 -4.65513 0
M  V30 5499 N 505.51 1.54411 -0.315457 0
M  V30 5500 C 506.42 2.27737 0.56329 0
M  V30 5501 C 507.436 1.31787 1.13614 0
M  V30 5502 O 508.612 1.64791 1.15784 0
M  V30 5503 C 505.677 3.01478 1.71207 0
M  V30 5504 C 504.738 4.12997 1.17185 0
M  V30 5505 C 503.971 4.83212 2.26588 0
M  V30 5506 O 504.194 4.52884 3.46775 0
M  V30 5507 O 503.128 5.70299 1.92463 0
M  V30 5508 H 506.954 3.03683 -0.0319614 0
M  V30 5509 H 504.539 1.49178 -0.0814188 0
M  V30 5510 H 506.421 3.47683 2.38106 0
M  V30 5511 H 505.096 2.28414 2.29366 0
M  V30 5512 H 504.003 3.71159 0.468174 0
M  V30 5513 H 505.336 4.8808 0.635501 0
M  V30 5514 N 506.988 0.0434614 1.5754 0
M  V30 5515 C 507.92 -0.962586 2.08007 0
M  V30 5516 C 508.933 -1.27972 1.00634 0
M  V30 5517 O 510.122 -1.24186 1.28219 0
M  V30 5518 C 507.222 -2.28621 2.50171 0
M  V30 5519 C 506.395 -2.15214 3.80791 0
M  V30 5520 C 505.454 -3.30633 4.09351 0
M  V30 5521 O 504.48 -3.0688 4.79388 0
M  V30 5522 N 505.682 -4.54873 3.60654 0
M  V30 5523 H 508.447 -0.531891 2.94942 0
M  V30 5524 H 506.008 -0.142965 1.61268 0
M  V30 5525 H 508 -3.04689 2.66359 0
M  V30 5526 H 506.57 -2.63283 1.68525 0
M  V30 5527 H 505.79 -1.23785 3.74261 0
M  V30 5528 H 507.078 -2.03475 4.66343 0
M  V30 5529 H 506.476 -4.77063 3.04019 0
M  V30 5530 H 505.033 -5.2806 3.82094 0
M  V30 5531 N 508.466 -1.55915 -0.229846 0
M  V30 5532 C 509.882 -1.48721 -0.579166 0
M  V30 5533 C 510.082 -0.736976 -1.87539 0
M  V30 5534 O 509.138 -0.273258 -2.51017 0
M  V30 5535 C 510.451 -2.9323 -0.666082 0
M  V30 5536 C 511.999 -3.03701 -0.757267 0
M  V30 5537 C 512.474 -4.49552 -0.8756 0
M  V30 5538 N 513.965 -4.53561 -0.940035 0
M  V30 5539 C 514.7 -5.63683 -1.05116 0
M  V30 5540 N 514.196 -6.83576 -1.12675 0
M  V30 5541 N 515.989 -5.51516 -1.08565 0
M  V30 5542 H 508.14 -2.03123 0.620857 0
M  V30 5543 H 510.403 -0.922898 0.21671 0
M  V30 5544 H 510.109 -3.51032 0.21664 0
M  V30 5545 H 509.983 -3.44668 -1.53243 0
M  V30 5546 H 512.37 -2.45969 -1.63043 0
M  V30 5547 H 512.451 -2.55446 0.134583 0
M  V30 5548 H 512.095 -5.079 -0.00692351 0
M  V30 5549 H 512.025 -4.95506 -1.78274 0
M  V30 5550 H 514.516 -3.67215 -0.892269 0
M  V30 5551 H 514.829 -7.63251 -1.21109 0
M  V30 5552 H 513.174 -6.86303 -1.09603 0
M  V30 5553 H 516.365 -4.5678 -1.02319 0
M  V30 5554 H 516.538 -6.37372 -1.1688 0
M  V30 5555 N 509.944 0.496216 -1.49584 0
M  V30 5556 C 510.874 1.60576 -1.69521 0
M  V30 5557 C 511.855 1.61169 -0.543933 0
M  V30 5558 O 513.04 1.77834 -0.78031 0
M  V30 5559 C 510.17 2.99038 -1.76616 0
M  V30 5560 C 509.124 3.13312 -2.91581 0
M  V30 5561 C 508.45 4.53172 -2.83794 0
M  V30 5562 C 509.75 2.92886 -4.32452 0
M  V30 5563 H 511.444 1.44146 -2.62416 0
M  V30 5564 H 508.99 0.692024 -1.26282 0
M  V30 5565 H 510.943 3.76564 -1.8915 0
M  V30 5566 H 509.667 3.16568 -0.80324 0
M  V30 5567 H 508.326 2.38213 -2.78658 0
M  V30 5568 H 507.974 4.67585 -1.854 0
M  V30 5569 H 507.674 4.63662 -3.60958 0
M  V30 5570 H 509.198 5.32752 -2.98342 0
M  V30 5571 H 510.612 3.60178 -4.46032 0
M  V30 5572 H 509.009 3.14844 -5.10875 0
M  V30 5573 H 510.079 1.88966 -4.46565 0
M  V30 5574 N 511.423 1.38739 0.74761 0
M  V30 5575 C 512.7 1.25791 1.49786 0
M  V30 5576 C 513.08 -0.138075 2.10648 0
M  V30 5577 O 512.428 -1.14815 1.9756 0
M  V30 5578 C 512.638 2.37265 2.55942 0
M  V30 5579 C 513.986 2.75978 3.22679 0
M  V30 5580 O 515.01 2.36621 2.6625 0
M  V30 5581 O 513.869 3.43867 4.24756 0
M  V30 5582 H 510.963 0.492251 0.664543 0
M  V30 5583 H 513.509 1.50582 0.782511 0
M  V30 5584 H 512.281 3.30644 2.0926 0
M  V30 5585 H 511.904 2.14071 3.35051 0
M  V30 5586 N 512.901 -0.976442 1.23707 0
M  V30 5587 C 513.864 -2.0511 1.02287 0
M  V30 5588 C 514.864 -1.60791 -0.0167195 0
M  V30 5589 O 516.054 -1.72761 0.223408 0
M  V30 5590 C 513.186 -3.36458 0.548507 0
M  V30 5591 H 514.379 -2.25545 1.9766 0
M  V30 5592 H 511.932 -1.15042 1.05806 0
M  V30 5593 H 512.667 -3.21713 -0.408818 0
M  V30 5594 H 512.452 -3.69967 1.29874 0
M  V30 5595 H 513.942 -4.15489 0.419406 0
M  V30 5596 N 514.379 -1.04941 -1.1758 0
M  V30 5597 C 515.628 -0.753124 -1.87112 0
M  V30 5598 C 515.941 0.722507 -1.81767 0
M  V30 5599 O 517.147 1.13265 -2.46746 0
M  V30 5600 C 515.603 -1.29695 -3.35719 0
M  V30 5601 C 515.211 -2.80184 -3.49572 0
M  V30 5602 C 516.955 -1.07759 -4.10595 0
M  V30 5603 C 514.862 -3.2788 -4.92187 0
M  V30 5604 H 513.792 -0.278034 -0.700866 0
M  V30 5605 H 516.443 -1.26637 -1.32798 0
M  V30 5606 H 514.825 -0.711522 -3.89555 0
M  V30 5607 H 515.999 -3.44561 -3.05965 0
M  V30 5608 H 514.314 -3.00632 -2.88113 0
M  V30 5609 H 516.911 -1.40899 -5.15802 0
M  V30 5610 H 517.254 -0.0152302 -4.16297 0
M  V30 5611 H 517.787 -1.62809 -3.62957 0
M  V30 5612 H 514.526 -4.33535 -4.91658 0
M  V30 5613 H 514.046 -2.68245 -5.36475 0
M  V30 5614 H 515.725 -3.22412 -5.60945 0
M  V30 5615 N 515.857 1.33968 -0.830081 0
M  V30 5616 C 516.807 2.26845 -0.229242 0
M  V30 5617 C 517.791 1.48862 0.610659 0
M  V30 5618 O 518.983 1.70808 0.464067 0
M  V30 5619 C 516.112 3.3798 0.602057 0
M  V30 5620 C 515.198 4.23369 -0.248866 0
M  V30 5621 N 515.589 4.88182 -1.32334 0
M  V30 5622 C 513.887 4.45987 -0.0344077 0
M  V30 5623 C 514.588 5.51671 -1.84482 0
M  V30 5624 N 513.564 5.31348 -1.14762 0
M  V30 5625 H 517.366 2.74464 -1.05104 0
M  V30 5626 H 514.88 1.4777 -0.673623 0
M  V30 5627 H 516.877 4.03494 1.04873 0
M  V30 5628 H 515.537 2.9191 1.42193 0
M  V30 5629 H 516.548 4.88988 -1.70619 0
M  V30 5630 H 513.225 4.10658 0.752727 0
M  V30 5631 H 514.615 6.13308 -2.74413 0
M  V30 5632 N 517.335 0.585699 1.46312 0
M  V30 5633 C 518.56 0.0762461 2.0726 0
M  V30 5634 C 518.985 -1.22071 1.43109 0
M  V30 5635 O 518.343 -1.73804 0.515942 0
M  V30 5636 C 518.391 -0.0729404 3.60526 0
M  V30 5637 O 517.495 -1.1287 3.96654 0
M  V30 5638 H 516.836 0.0641558 0.660893 0
M  V30 5639 H 519.366 0.809492 1.87905 0
M  V30 5640 H 519.376 -0.278158 4.07051 0
M  V30 5641 H 518.051 0.874188 4.06609 0
M  V30 5642 H 516.628 -0.901703 3.61834 0
M  V30 5643 N 518.813 -1.54241 0.323641 0
M  V30 5644 C 519.723 -2.28033 -0.551205 0
M  V30 5645 C 520.739 -1.32388 -1.12913 0
M  V30 5646 O 521.915 -1.65403 -1.14908 0
M  V30 5647 C 518.98 -3.02382 -1.69606 0
M  V30 5648 C 518.041 -4.13612 -1.14993 0
M  V30 5649 C 517.274 -4.84407 -2.24022 0
M  V30 5650 O 517.497 -4.54716 -3.44368 0
M  V30 5651 O 516.431 -5.71312 -1.89436 0
M  V30 5652 H 520.257 -3.03662 0.048066 0
M  V30 5653 H 517.842 -1.49133 0.0893289 0
M  V30 5654 H 519.724 -3.48941 -2.36259 0
M  V30 5655 H 518.399 -2.29628 -2.28151 0
M  V30 5656 H 517.306 -3.71402 -0.448484 0
M  V30 5657 H 518.639 -4.8841 -0.609608 0
M  V30 5658 N 520.291 -0.0518155 -1.57515 0
M  V30 5659 C 521.537 0.622745 -1.93002 0
M  V30 5660 C 521.87 1.70456 -0.930499 0
M  V30 5661 O 521.145 1.94452 0.0434086 0
M  V30 5662 C 521.428 1.21824 -3.38867 0
M  V30 5663 C 521.281 0.144434 -4.49568 0
M  V30 5664 C 522.6 2.12968 -3.8514 0
M  V30 5665 H 519.719 0.22491 -0.701844 0
M  V30 5666 H 522.361 -0.113711 -1.89659 0
M  V30 5667 H 520.511 1.8459 -3.41846 0
M  V30 5668 H 522.183 -0.48753 -4.58717 0
M  V30 5669 H 520.426 -0.527424 -4.30582 0
M  V30 5670 H 521.097 0.601127 -5.48717 0
M  V30 5671 H 523.573 1.60163 -3.8404 0
M  V30 5672 H 522.449 2.51578 -4.87852 0
M  V30 5673 H 522.71 3.03004 -3.21934 0
M  V30 5674 N 521.769 1.56035 0.221574 0
M  V30 5675 C 522.994 1.83476 0.967026 0
M  V30 5676 C 523.419 0.632139 1.7716 0
M  V30 5677 O 522.777 -0.419082 1.7639 0
M  V30 5678 C 522.825 3.08907 1.86034 0
M  V30 5679 O 521.929 2.876 2.95567 0
M  V30 5680 H 521.27 0.604913 0.273817 0
M  V30 5681 H 523.8 2.03247 0.234893 0
M  V30 5682 H 523.81 3.3901 2.27016 0
M  V30 5683 H 522.485 3.96068 1.26898 0
M  V30 5684 H 521.062 2.6873 2.58532 0
M  V30 5685 N 523.247 -0.488276 1.49845 0
M  V30 5686 C 524.493 -1.24341 1.6021 0
M  V30 5687 C 524.826 -1.91967 0.293651 0
M  V30 5688 O 524.101 -1.81323 -0.703718 0
M  V30 5689 C 524.384 -2.3005 2.77036 0
M  V30 5690 C 524.237 -1.66842 4.17713 0
M  V30 5691 C 525.556 -3.31509 2.89464 0
M  V30 5692 H 522.675 -0.450704 0.583125 0
M  V30 5693 H 525.317 -0.539673 1.82174 0
M  V30 5694 H 523.467 -2.90071 2.58439 0
M  V30 5695 H 525.139 -1.1055 4.47858 0
M  V30 5696 H 523.382 -0.972079 4.22768 0
M  V30 5697 H 524.053 -2.43576 4.95353 0
M  V30 5698 H 526.529 -2.81493 3.06433 0
M  V30 5699 H 525.405 -4.02822 3.72861 0
M  V30 5700 H 525.666 -3.94603 1.99351 0
M  V30 5701 N 524.725 -1.39134 -0.740242 0
M  V30 5702 C 525.953 -1.39334 -1.5295 0
M  V30 5703 C 526.368 0.0135008 -1.88795 0
M  V30 5704 O 525.725 0.983524 -1.5373 0
M  V30 5705 C 525.776 -2.2614 -2.82034 0
M  V30 5706 O 525.497 -3.61345 -2.47712 0
M  V30 5707 C 526.998 -2.34666 -3.76094 0
M  V30 5708 H 524.218 -0.476103 -0.472828 0
M  V30 5709 H 526.762 -1.82883 -0.9151 0
M  V30 5710 H 524.917 -1.86018 -3.39818 0
M  V30 5711 H 525.331 -4.07194 -3.30595 0
M  V30 5712 H 526.805 -2.99663 -4.63579 0
M  V30 5713 H 527.282 -1.36426 -4.17474 0
M  V30 5714 H 527.888 -2.75236 -3.2423 0
M  V30 5715 N 526.204 0.969867 -1.24223 0
M  V30 5716 C 527.451 1.71256 -1.08063 0
M  V30 5717 C 527.779 1.90734 0.380872 0
M  V30 5718 O 527.034 1.46469 1.29789 0
M  V30 5719 C 527.333 3.10883 -1.76314 0
M  V30 5720 C 526.999 3.11252 -3.26241 0
M  V30 5721 C 525.661 3.1106 -3.67144 0
M  V30 5722 C 528.013 3.05751 -4.22097 0
M  V30 5723 C 525.341 3.03097 -5.02344 0
M  V30 5724 C 527.693 2.9933 -5.57301 0
M  V30 5725 C 526.357 2.97466 -5.97554 0
M  V30 5726 H 525.627 0.62667 -0.395431 0
M  V30 5727 H 528.274 1.13422 -1.54297 0
M  V30 5728 H 526.579 3.72168 -1.22468 0
M  V30 5729 H 528.276 3.67138 -1.61277 0
M  V30 5730 H 524.866 3.12165 -2.93685 0
M  V30 5731 H 529.05 3.05031 -3.91497 0
M  V30 5732 H 524.306 3.00013 -5.32731 0
M  V30 5733 H 528.48 2.94033 -6.31283 0
M  V30 5734 H 526.107 2.91051 -7.02277 0
M  V30 5735 N 527.682 1.05563 1.17022 0
M  V30 5736 C 528.629 0.659893 2.21165 0
M  V30 5737 C 529.599 -0.339813 1.62587 0
M  V30 5738 O 530.784 -0.230378 1.89404 0
M  V30 5739 C 527.924 0.0447297 3.45071 0
M  V30 5740 C 527.037 1.09372 4.17926 0
M  V30 5741 C 526.172 0.445481 5.29329 0
M  V30 5742 C 525.211 1.47852 5.93975 0
M  V30 5743 N 524.348 0.854172 6.96885 0
M  V30 5744 H 529.188 1.55243 2.54369 0
M  V30 5745 H 526.725 0.776336 1.24946 0
M  V30 5746 H 528.683 -0.329404 4.15898 0
M  V30 5747 H 527.313 -0.811244 3.1244 0
M  V30 5748 H 526.365 1.58564 3.45777 0
M  V30 5749 H 527.677 1.87773 4.62107 0
M  V30 5750 H 526.831 0.0179688 6.06697 0
M  V30 5751 H 525.57 -0.370481 4.86291 0
M  V30 5752 H 524.575 1.91601 5.15334 0
M  V30 5753 H 525.8 2.29645 6.39093 0
M  V30 5754 H 523.746 0.0587882 6.55974 0
M  V30 5755 H 523.663 1.57567 7.39397 0
M  V30 5756 H 524.931 0.451559 7.78191 0
M  V30 5757 N 529.16 -1.33526 0.837174 0
M  V30 5758 C 530.123 -2.27551 0.274421 0
M  V30 5759 C 531.123 -1.50886 -0.555881 0
M  V30 5760 O 532.313 -1.70227 -0.369918 0
M  V30 5761 C 529.445 -3.35332 -0.613605 0
M  V30 5762 H 530.638 -2.78837 1.10408 0
M  V30 5763 H 528.191 -1.439 0.610126 0
M  V30 5764 H 528.926 -2.89285 -1.46577 0
M  V30 5765 H 528.711 -3.92095 -0.0195341 0
M  V30 5766 H 530.201 -4.05433 -1.00068 0
M  V30 5767 N 530.638 -0.59345 -1.46 0
M  V30 5768 C 531.585 0.133618 -2.30413 0
M  V30 5769 C 532.555 0.873736 -1.41262 0
M  V30 5770 O 533.74 0.862279 -1.70204 0
M  V30 5771 C 530.88 1.13434 -3.25924 0
M  V30 5772 C 529.993 0.39656 -4.30176 0
M  V30 5773 C 529.128 1.38575 -5.12806 0
M  V30 5774 C 528.167 0.634984 -6.08797 0
M  V30 5775 N 527.304 1.57276 -6.84258 0
M  V30 5776 H 532.144 -0.592252 -2.92055 0
M  V30 5777 H 529.681 -0.303874 -1.43927 0
M  V30 5778 H 531.639 1.72752 -3.79753 0
M  V30 5779 H 530.269 1.82779 -2.66067 0
M  V30 5780 H 529.321 -0.311861 -3.79119 0
M  V30 5781 H 530.633 -0.189869 -4.98438 0
M  V30 5782 H 529.787 2.05141 -5.70966 0
M  V30 5783 H 528.526 2.00611 -4.44529 0
M  V30 5784 H 527.531 -0.0443925 -5.49782 0
M  V30 5785 H 528.756 0.0198678 -6.79097 0
M  V30 5786 H 526.702 2.18103 -6.18682 0
M  V30 5787 H 526.619 1.03941 -7.48821 0
M  V30 5788 H 527.887 2.22844 -7.46968 0
M  V30 5789 N 532.116 1.54067 -0.331816 0
M  V30 5790 C 533.063 2.24623 0.530372 0
M  V30 5791 C 534.033 1.24009 1.10503 0
M  V30 5792 O 535.218 1.52712 1.14384 0
M  V30 5793 C 532.358 3.01374 1.68129 0
M  V30 5794 C 531.471 4.16821 1.13507 0
M  V30 5795 C 530.606 4.81085 2.25234 0
M  V30 5796 C 529.645 5.88621 1.67903 0
M  V30 5797 N 528.782 6.46713 2.73326 0
M  V30 5798 H 533.622 2.97898 -0.0778607 0
M  V30 5799 H 531.159 1.47014 -0.0501965 0
M  V30 5800 H 533.117 3.44125 2.35868 0
M  V30 5801 H 531.747 2.30419 2.26069 0
M  V30 5802 H 530.799 3.78796 0.348979 0
M  V30 5803 H 532.111 4.94203 0.675633 0
M  V30 5804 H 531.265 5.26846 3.00862 0
M  V30 5805 H 530.004 4.03102 2.74518 0
M  V30 5806 H 529.009 5.42254 0.907773 0
M  V30 5807 H 530.234 6.68506 1.19487 0
M  V30 5808 H 528.18 5.71599 3.21886 0
M  V30 5809 H 528.097 7.19532 2.3197 0
M  V30 5810 H 529.365 6.97129 3.48758 0
M  V30 5811 N 533.594 0.0601682 1.57485 0
M  V30 5812 C 534.542 -0.928899 2.13247 0
M  V30 5813 C 535.536 -1.31616 1.06647 0
M  V30 5814 O 536.742 -1.29476 1.25043 0
M  V30 5815 H 533.117 -0.317455 0.681708 0
M  V30 5816 H 535.088 -0.433566 2.95233 0
M  V30 5817 C 533.837 -2.19121 2.69965 0
M  V30 5818 H 533.16 -1.90204 3.51657 0
M  V30 5819 H 534.6 -2.86465 3.12592 0
M  V30 5820 C 533.059 -2.94195 1.64168 0
M  V30 5821 O 533.589 -3.87468 1.05978 0
M  V30 5822 N 531.795 -2.57089 1.35476 0
M  V30 5823 H 531.342 -1.81314 1.82984 0
M  V30 5824 H 531.3 -3.07624 0.649196 0
M  V30 5825 N 535.072 -1.5615 -0.213296 0
M  V30 5826 C 536.002 -1.96109 -1.26742 0
M  V30 5827 C 536.983 -0.830448 -1.48451 0
M  V30 5828 O 538.168 -1.09339 -1.60495 0
M  V30 5829 C 535.298 -2.28492 -2.61551 0
M  V30 5830 C 534.252 -3.44124 -2.54485 0
M  V30 5831 C 533.578 -3.62134 -3.93399 0
M  V30 5832 C 534.878 -4.78855 -2.08556 0
M  V30 5833 H 536.572 -2.84412 -0.935434 0
M  V30 5834 H 534.118 -1.36836 -0.44854 0
M  V30 5835 H 536.071 -2.55039 -3.3546 0
M  V30 5836 H 534.795 -1.37052 -2.96453 0
M  V30 5837 H 533.454 -3.17639 -1.83033 0
M  V30 5838 H 533.102 -2.68055 -4.25623 0
M  V30 5839 H 532.802 -4.39913 -3.89551 0
M  V30 5840 H 534.326 -3.91038 -4.68958 0
M  V30 5841 H 535.74 -5.04552 -2.72213 0
M  V30 5842 H 534.137 -5.59975 -2.1575 0
M  V30 5843 H 535.207 -4.73657 -1.03811 0
M  V30 5844 N 536.55 0.480323 -1.50102 0
M  V30 5845 C 537.46 1.60547 -1.71061 0
M  V30 5846 C 538.476 1.63564 -0.593529 0
M  V30 5847 O 539.652 1.81604 -0.870751 0
M  V30 5848 C 536.717 2.96814 -1.79171 0
M  V30 5849 C 535.778 3.04259 -3.02861 0
M  V30 5850 C 535.011 4.34027 -3.10574 0
M  V30 5851 O 535.234 5.24009 -2.25323 0
M  V30 5852 O 534.168 4.46873 -4.03223 0
M  V30 5853 H 537.994 1.45788 -2.6642 0
M  V30 5854 H 535.579 0.658838 -1.34088 0
M  V30 5855 H 537.461 3.77765 -1.86738 0
M  V30 5856 H 536.136 3.11791 -0.869947 0
M  V30 5857 H 535.043 2.22419 -3.008 0
M  V30 5858 H 536.376 2.94216 -3.94586 0
M  V30 5859 N 538.028 1.39524 0.732853 0
M  V30 5860 C 539.274 1.37068 1.49467 0
M  V30 5861 C 539.607 -0.0327166 1.94172 0
M  V30 5862 O 538.882 -0.998071 1.66939 0
M  V30 5863 C 539.165 2.34494 2.73285 0
M  V30 5864 C 539.018 3.83784 2.34585 0
M  V30 5865 C 540.337 2.29717 3.75391 0
M  V30 5866 H 537.456 0.499206 0.542183 0
M  V30 5867 H 540.098 1.70532 0.837783 0
M  V30 5868 H 538.248 2.06087 3.29333 0
M  V30 5869 H 539.92 4.22949 1.84151 0
M  V30 5870 H 538.163 4.00455 1.66787 0
M  V30 5871 H 538.834 4.47444 3.23262 0
M  V30 5872 H 541.31 2.54839 3.28932 0
M  V30 5873 H 540.186 2.99962 4.59689 0
M  V30 5874 H 540.447 1.30291 4.22465 0
M  V30 5875 N 539.506 -0.963266 1.24736 0
M  V30 5876 C 540.922 -1.23273 1.01371 0
M  V30 5877 C 541.122 -1.99618 -0.274776 0
M  V30 5878 O 540.178 -2.32293 -0.989769 0
M  V30 5879 C 541.491 -2.01554 2.23152 0
M  V30 5880 C 543.039 -2.14629 2.27823 0
M  V30 5881 C 543.514 -2.96307 3.49237 0
M  V30 5882 N 545.005 -3.03887 3.49581 0
M  V30 5883 C 545.74 -3.67456 4.40186 0
M  V30 5884 N 545.236 -4.32706 5.41052 0
M  V30 5885 N 547.029 -3.64511 4.27888 0
M  V30 5886 H 539.18 -0.452294 2.07528 0
M  V30 5887 H 541.443 -0.262521 0.910926 0
M  V30 5888 H 541.149 -1.52847 3.1675 0
M  V30 5889 H 541.023 -3.02278 2.25628 0
M  V30 5890 H 543.41 -2.62537 1.34753 0
M  V30 5891 H 543.491 -1.13238 2.2937 0
M  V30 5892 H 543.135 -2.49091 4.42624 0
M  V30 5893 H 543.065 -3.97905 3.44933 0
M  V30 5894 H 545.556 -2.57477 2.76611 0
M  V30 5895 H 545.869 -4.79042 6.06415 0
M  V30 5896 H 544.214 -4.31361 5.44934 0
M  V30 5897 H 547.405 -3.12715 3.4832 0
M  V30 5898 H 547.578 -4.13768 4.98698 0
M  V30 5899 N 540.985 -1.06182 -1.16461 0
M  V30 5900 C 541.932 -0.671613 -2.20812 0
M  V30 5901 C 542.902 0.331186 -1.62765 0
M  V30 5902 O 544.087 0.22033 -1.89524 0
M  V30 5903 C 541.227 -0.063029 -3.45042 0
M  V30 5904 C 540.34 -1.11587 -4.1734 0
M  V30 5905 C 539.475 -0.473546 -5.29085 0
M  V30 5906 C 538.514 -1.51 -5.93182 0
M  V30 5907 N 537.651 -0.891118 -6.96422 0
M  V30 5908 H 542.491 -1.56589 -2.53542 0
M  V30 5909 H 540.028 -0.782951 -1.24532 0
M  V30 5910 H 541.986 0.307344 -4.16066 0
M  V30 5911 H 540.616 0.794663 -3.12866 0
M  V30 5912 H 539.668 -1.60396 -3.44931 0
M  V30 5913 H 540.98 -1.90221 -4.61104 0
M  V30 5914 H 540.134 -0.0501432 -6.06679 0
M  V30 5915 H 538.873 0.344687 -4.8648 0
M  V30 5916 H 537.878 -1.94331 -5.14311 0
M  V30 5917 H 539.103 -2.33031 -6.37866 0
M  V30 5918 H 537.049 -0.0935753 -6.55933 0
M  V30 5919 H 536.966 -1.61486 -7.38551 0
M  V30 5920 H 538.234 -0.492822 -7.77941 0
M  V30 5921 N 542.463 1.3308 -0.844243 0
M  V30 5922 C 543.411 2.31028 -0.269954 0
M  V30 5923 C 544.405 1.58381 0.600997 0
M  V30 5924 O 545.611 1.73203 0.48996 0
M  V30 5925 H 541.986 0.748866 -0.0685782 0
M  V30 5926 H 543.957 2.76967 -1.11049 0
M  V30 5927 C 542.706 3.43549 0.535676 0
M  V30 5928 H 542.029 3.99604 -0.125202 0
M  V30 5929 H 543.469 4.14267 0.903262 0
M  V30 5930 C 541.928 2.8988 1.71672 0
M  V30 5931 O 542.458 2.86511 2.81557 0
M  V30 5932 N 540.664 2.46416 1.54037 0
M  V30 5933 H 540.211 2.49356 0.64649 0
M  V30 5934 H 540.169 2.1086 2.33207 0
M  V30 5935 N 543.941 0.601185 1.45683 0
M  V30 5936 C 545.166 0.0982245 2.07167 0
M  V30 5937 C 545.591 -1.20546 1.44396 0
M  V30 5938 O 544.949 -1.73247 0.534347 0
M  V30 5939 C 544.997 -0.0346976 3.60583 0
M  V30 5940 O 544.101 -1.08657 3.97828 0
M  V30 5941 H 543.442 0.0711618 0.660176 0
M  V30 5942 H 545.972 0.829376 1.87036 0
M  V30 5943 H 545.982 -0.234969 4.07323 0
M  V30 5944 H 544.657 0.917265 4.05659 0
M  V30 5945 H 543.234 -0.863275 3.6277 0
M  V30 5946 N 545.419 -1.53889 0.339982 0
M  V30 5947 C 546.667 -2.00458 -0.257112 0
M  V30 5948 C 546.988 -1.22953 -1.51353 0
M  V30 5949 O 546.258 -0.335734 -1.93002 0
M  V30 5950 H 544.838 -0.740544 -0.0979965 0
M  V30 5951 H 547.5 -1.89386 0.460317 0
M  V30 5952 H 546.596 -3.08035 -0.502057 0
M  V30 5953 N 546.897 -0.0685191 -1.57451 0
M  V30 5954 C 548.308 0.464634 -1.80826 0
M  V30 5955 C 548.659 1.69847 -0.982169 0
M  V30 5956 O 547.784 2.15439 -0.203734 0
M  V30 5957 C 548.379 0.849721 -3.27971 0
M  V30 5958 C 546.938 1.32776 -3.52204 0
M  V30 5959 C 546.085 0.311332 -2.75547 0
M  V30 5960 H 549.036 -0.294248 -1.55948 0
M  V30 5961 H 549.057 1.71138 -3.39841 0
M  V30 5962 H 548.569 -0.0484736 -3.8807 0
M  V30 5963 H 546.67 2.24456 -2.97406 0
M  V30 5964 H 546.783 1.30794 -4.60901 0
M  V30 5965 H 545.147 0.787915 -2.42206 0
M  V30 5966 H 545.93 -0.579078 -3.38381 0
M  V30 5967 N 548.375 1.56261 0.205012 0
M  V30 5968 C 549.323 1.94631 1.27364 0
M  V30 5969 C 550.317 0.830434 1.47649 0
M  V30 5970 O 551.523 1.01538 1.48627 0
M  V30 5971 H 547.898 0.618755 0.427371 0
M  V30 5972 H 549.869 2.83768 0.922941 0
M  V30 5973 C 548.618 2.29358 2.61324 0
M  V30 5974 H 547.941 3.14744 2.46528 0
M  V30 5975 H 549.381 2.60076 3.34868 0
M  V30 5976 C 547.84 1.12461 3.17575 0
M  V30 5977 O 548.37 0.394407 3.99759 0
M  V30 5978 N 546.576 0.904036 2.7618 0
M  V30 5979 H 546.123 1.49956 2.09454 0
M  V30 5980 H 546.081 0.123662 3.14157 0
M  V30 5981 N 549.853 -0.472356 1.50355 0
M  V30 5982 C 551.13 -1.23356 1.51798 0
M  V30 5983 C 551.51 -2.09469 0.26193 0
M  V30 5984 O 550.858 -2.15677 -0.754691 0
M  V30 5985 C 551.068 -2.06568 2.81302 0
M  V30 5986 C 552.416 -2.648 3.31913 0
M  V30 5987 O 553.44 -2.16812 2.82614 0
M  V30 5988 O 552.299 -3.52231 4.17846 0
M  V30 5989 H 549.393 -0.559707 0.608816 0
M  V30 5990 H 551.939 -0.48428 1.62643 0
M  V30 5991 H 550.711 -1.43103 3.64194 0
M  V30 5992 H 550.334 -2.88633 2.73454 0
M  V30 5993 N 551.331 -1.39911 -0.725443 0
M  V30 5994 C 552.556 -1.41137 -1.5197 0
M  V30 5995 C 552.981 -0.010262 -1.88097 0
M  V30 5996 O 552.339 0.979184 -1.52583 0
M  V30 5997 C 552.387 -2.2994 -2.77777 0
M  V30 5998 O 551.491 -1.73586 -3.74088 0
M  V30 5999 H 550.832 -0.480219 -0.458569 0
M  V30 6000 H 553.362 -1.84023 -0.894249 0
M  V30 6001 H 553.372 -2.44785 -3.26411 0
M  V30 6002 H 552.047 -3.31759 -2.50816 0
M  V30 6003 H 550.624 -1.68035 -3.32894 0
M  V30 6004 N 552.809 0.956637 -1.25245 0
M  V30 6005 C 554.056 1.701 -1.09874 0
M  V30 6006 C 554.384 1.91128 0.36062 0
M  V30 6007 O 553.639 1.47837 1.28229 0
M  V30 6008 C 553.938 3.08996 -1.79601 0
M  V30 6009 C 553.604 3.07774 -3.29523 0
M  V30 6010 C 552.266 3.07149 -3.70423 0
M  V30 6011 C 554.618 3.01257 -4.25316 0
M  V30 6012 C 551.946 2.97752 -5.0553 0
M  V30 6013 C 554.298 2.93403 -5.60444 0
M  V30 6014 C 552.962 2.91111 -6.00675 0
M  V30 6015 H 552.232 0.62244 -0.402056 0
M  V30 6016 H 554.879 1.1178 -1.55491 0
M  V30 6017 H 553.184 3.70848 -1.26408 0
M  V30 6018 H 554.881 3.65407 -1.65162 0
M  V30 6019 H 551.471 3.09032 -2.9698 0
M  V30 6020 H 555.655 3.00861 -3.9471 0
M  V30 6021 H 550.911 2.94346 -5.35883 0
M  V30 6022 H 555.085 2.87321 -6.34366 0
M  V30 6023 H 552.712 2.83586 -7.05325 0
M  V30 6024 N 554.287 1.06798 1.15896 0
M  V30 6025 C 555.515 0.808694 1.90441 0
M  V30 6026 C 555.93 -0.637506 1.77711 0
M  V30 6027 O 555.287 -1.43684 1.12522 0
M  V30 6028 C 555.338 1.20068 3.40978 0
M  V30 6029 O 555.059 2.59013 3.53333 0
M  V30 6030 C 556.56 0.96987 4.3256 0
M  V30 6031 H 553.78 0.292809 0.603742 0
M  V30 6032 H 556.324 1.42296 1.46874 0
M  V30 6033 H 554.479 0.630842 3.82229 0
M  V30 6034 H 554.893 2.7485 4.46719 0
M  V30 6035 H 556.367 1.29371 5.36626 0
M  V30 6036 H 556.844 -0.0941209 4.39099 0
M  V30 6037 H 557.45 1.52433 3.97044 0
M  V30 6038 N 555.766 -1.3263 0.851289 0
M  V30 6039 C 556.676 -2.32722 0.296268 0
M  V30 6040 C 557.692 -1.63901 -0.584162 0
M  V30 6041 O 558.868 -1.95465 -0.485334 0
M  V30 6042 C 555.933 -3.42942 -0.509103 0
M  V30 6043 C 554.994 -4.2746 0.397069 0
M  V30 6044 C 554.227 -5.32416 -0.36996 0
M  V30 6045 O 554.45 -5.47491 -1.6003 0
M  V30 6046 O 553.384 -6.01327 0.262493 0
M  V30 6047 H 557.21 -2.82078 1.12543 0
M  V30 6048 H 554.795 -1.36194 0.614135 0
M  V30 6049 H 556.677 -4.1017 -0.96634 0
M  V30 6050 H 555.352 -2.95781 -1.31512 0
M  V30 6051 H 554.259 -3.63053 0.902411 0
M  V30 6052 H 555.592 -4.78136 1.16818 0
M  V30 6053 N 557.244 -0.608902 -1.45362 0
M  V30 6054 C 558.207 0.0992563 -2.28985 0
M  V30 6055 C 559.207 0.793841 -1.39838 0
M  V30 6056 O 560.397 0.641804 -1.61946 0
M  V30 6057 C 557.529 1.15073 -3.20891 0
M  V30 6058 H 558.722 -0.635964 -2.93079 0
M  V30 6059 H 556.275 -0.368007 -1.51906 0
M  V30 6060 H 557.01 1.91667 -2.616 0
M  V30 6061 H 556.795 0.656867 -3.86559 0
M  V30 6062 H 558.285 1.64665 -3.83765 0
M  V30 6063 N 558.722 1.53707 -0.348139 0
M  V30 6064 C 559.95 2.05406 0.248224 0
M  V30 6065 C 560.365 1.22282 1.43849 0
M  V30 6066 O 559.722 0.259244 1.80649 0
M  V30 6067 C 559.773 3.55446 0.658793 0
M  V30 6068 O 559.494 4.35417 -0.484149 0
M  V30 6069 C 560.995 4.23335 1.31539 0
M  V30 6070 H 558.215 0.669344 0.0471075 0
M  V30 6071 H 560.759 1.98257 -0.501456 0
M  V30 6072 H 558.914 3.62803 1.35841 0
M  V30 6073 H 559.328 5.24268 -0.155949 0
M  V30 6074 H 560.802 5.29692 1.55338 0
M  V30 6075 H 561.279 3.75967 2.27036 0
M  V30 6076 H 561.885 4.20184 0.657683 0
M  V30 6077 N 560.2 0.0768682 1.57412 0
M  V30 6078 C 561.148 -0.906229 2.1422 0
M  V30 6079 C 562.142 -1.30477 1.08037 0
M  V30 6080 O 563.348 -1.28143 1.2641 0
M  V30 6081 H 559.723 -0.310207 0.685037 0
M  V30 6082 H 561.694 -0.402228 2.95677 0
M  V30 6083 C 560.443 -2.16245 2.72274 0
M  V30 6084 H 559.766 -1.86463 3.53655 0
M  V30 6085 H 561.206 -2.83134 3.15613 0
M  V30 6086 C 559.665 -2.92437 1.67279 0
M  V30 6087 O 560.195 -3.86322 1.10081 0
M  V30 6088 N 558.401 -2.55637 1.38195 0
M  V30 6089 H 557.948 -1.79363 1.84897 0
M  V30 6090 H 557.906 -3.06919 0.681787 0
M  V30 6091 N 561.678 -1.56367 -0.196722 0
M  V30 6092 C 562.924 -1.80796 -0.918725 0
M  V30 6093 C 563.257 -0.650645 -1.82976 0
M  V30 6094 O 562.532 0.348889 -1.91345 0
M  V30 6095 C 562.815 -3.15472 -1.73636 0
M  V30 6096 C 562.668 -4.41693 -0.85015 0
M  V30 6097 C 563.987 -3.46824 -2.70927 0
M  V30 6098 H 561.106 -0.657702 -0.332561 0
M  V30 6099 H 563.748 -1.89086 -0.186186 0
M  V30 6100 H 561.898 -3.08536 -2.36088 0
M  V30 6101 H 563.57 -4.60673 -0.240459 0
M  V30 6102 H 561.813 -4.33517 -0.156785 0
M  V30 6103 H 562.484 -5.32419 -1.45719 0
M  V30 6104 H 564.96 -3.54049 -2.18607 0
M  V30 6105 H 563.836 -4.4218 -3.25219 0
M  V30 6106 H 564.097 -2.70236 -3.49893 0
M  V30 6107 O 563.195 0.341958 -1.57838 0
M  V30 6108 H 563.886 0.991482 -1.66401 0
M  V30 END ATOM
M  V30 BEGIN BOND
M  V30 END BOND
M  V30 END CTAB
M  END
$$$$
