drugbank_target|P49281 Natural resistance-associated macrophage protein 2 (DB15598)
 OpenBabel12092121043D

  0  0  0     0  0            999 V3000
M  V30 BEGIN CTAB
M  V30 COUNTS 8827 8932 0 0 0
M  V30 BEGIN ATOM
M  V30 1 H -0.908 1.98254 -0.117106 0
M  V30 2 N 0 1.576 0 0
M  V30 3 C 0.933 2.03868 1.02534 0
M  V30 4 C 1.911 0.928543 1.3348 0
M  V30 5 O 3.095 1.19667 1.45644 0
M  V30 6 C 0.222 2.43627 2.35294 0
M  V30 7 C -0.732 3.65373 2.2001 0
M  V30 8 S 0.101 5.13292 1.52614 0
M  V30 9 C 1.257 5.56322 2.86805 0
M  V30 10 H 1.49 2.90518 0.631377 0
M  V30 11 H -0.977 1.52953 0.210867 0
M  V30 12 H 0.981 2.67203 3.11629 0
M  V30 13 H -0.358 1.57376 2.7183 0
M  V30 14 H -1.165 3.90944 3.18086 0
M  V30 15 H -1.563 3.418 1.51819 0
M  V30 16 H 0.729 5.58782 3.83104 0
M  V30 17 H 1.672 6.56266 2.65933 0
M  V30 18 H 2.08 4.83886 2.90714 0
M  V30 19 N 1.4781 -0.272755 1.55222 0
M  V30 20 C 2.7241 -1.00581 1.761 0
M  V30 21 C 3.0571 -1.85932 0.560625 0
M  V30 22 O 2.3321 -1.89416 -0.441801 0
M  V30 23 C 2.6151 -1.88816 3.06628 0
M  V30 24 C 2.4681 -1.06457 4.37021 0
M  V30 25 C 3.7871 -2.8752 3.33197 0
M  V30 26 H 0.9061 -0.364244 0.640699 0
M  V30 27 H 3.5481 -0.278189 1.87952 0
M  V30 28 H 1.6981 -2.50856 2.96654 0
M  V30 29 H 3.3701 -0.464863 4.58952 0
M  V30 30 H 1.6131 -0.368043 4.32236 0
M  V30 31 H 2.2841 -1.71514 5.24678 0
M  V30 32 H 4.7601 -2.35615 3.42965 0
M  V30 33 H 3.6361 -3.46399 4.25792 0
M  V30 34 H 3.8971 -3.62657 2.52849 0
M  V30 35 N 2.9562 -1.48159 -0.537278 0
M  V30 36 C 3.8862 -1.65029 -1.6519 0
M  V30 37 C 4.8672 -0.499281 -1.62607 0
M  V30 38 O 6.0522 -0.730972 -1.79918 0
M  V30 39 C 3.1822 -1.68303 -3.03795 0
M  V30 40 C 2.1362 -2.8283 -3.21234 0
M  V30 41 C 1.4622 -2.71189 -4.60826 0
M  V30 42 C 2.7622 -4.24211 -3.04701 0
M  V30 43 H 4.4562 -2.58341 -1.51328 0
M  V30 44 H 2.0022 -1.24325 -0.726585 0
M  V30 45 H 3.9552 -1.78693 -3.81637 0
M  V30 46 H 2.6792 -0.715635 -3.18663 0
M  V30 47 H 1.3382 -2.71983 -2.45807 0
M  V30 48 H 0.9862 -1.72435 -4.7252 0
M  V30 49 H 0.6862 -3.48035 -4.7344 0
M  V30 50 H 2.2102 -2.83537 -5.40777 0
M  V30 51 H 3.6242 -4.3593 -3.72341 0
M  V30 52 H 2.0212 -5.01998 -3.28813 0
M  V30 53 H 3.0912 -4.41184 -2.01209 0
M  V30 54 N 4.4343 0.785586 -1.36625 0
M  V30 55 C 5.6823 1.54057 -1.30808 0
M  V30 56 C 6.0033 1.94683 0.111157 0
M  V30 57 O 5.2733 1.65241 1.05224 0
M  V30 58 H 3.8533 0.571354 -0.481211 0
M  V30 59 H 6.5153 0.935821 -1.70963 0
M  V30 60 H 5.6113 2.44637 -1.93801 0
M  V30 61 N 5.9124 1.20967 1.01018 0
M  V30 62 C 7.3234 1.02319 1.56165 0
M  V30 63 C 7.6744 -0.418546 1.91684 0
M  V30 64 O 6.7994 -1.30096 1.72928 0
M  V30 65 C 7.3944 1.85109 2.8376 0
M  V30 66 C 5.9534 1.70809 3.35412 0
M  V30 67 C 5.1004 1.82643 2.08655 0
M  V30 68 H 8.0514 1.35065 0.833255 0
M  V30 69 H 8.0724 1.35827 3.55431 0
M  V30 70 H 7.5844 2.90035 2.57878 0
M  V30 71 H 5.6854 0.685464 3.66241 0
M  V30 72 H 5.7984 2.52467 4.07182 0
M  V30 73 H 4.1624 1.25896 2.21409 0
M  V30 74 H 4.9454 2.89066 1.85191 0
M  V30 75 N 7.3905 -1.2043 1.01659 0
M  V30 76 C 8.3005 -2.2689 0.596484 0
M  V30 77 C 9.3165 -1.70107 -0.36599 0
M  V30 78 O 10.4925 -2.00117 -0.226942 0
M  V30 79 C 7.5575 -3.4665 -0.0586659 0
M  V30 80 C 6.6185 -4.18662 0.949751 0
M  V30 81 C 5.8515 -5.32705 0.32577 0
M  V30 82 O 6.0745 -5.63656 -0.874509 0
M  V30 83 O 5.0085 -5.92803 1.04249 0
M  V30 84 H 8.8345 -2.65041 1.4828 0
M  V30 85 H 6.4195 -1.27048 0.786082 0
M  V30 86 H 8.3015 -4.19256 -0.424564 0
M  V30 87 H 6.9765 -3.10375 -0.91918 0
M  V30 88 H 5.8835 -3.48229 1.36702 0
M  V30 89 H 7.2165 -4.58878 1.78023 0
M  V30 90 N 8.8686 -0.792821 -1.36206 0
M  V30 91 C 9.8006 -0.151469 -2.28699 0
M  V30 92 C 10.8136 0.641262 -1.49638 0
M  V30 93 O 12.0026 0.475885 -1.72039 0
M  V30 94 C 9.1026 0.808424 -3.29117 0
M  V30 95 C 8.2756 0.0650202 -4.37352 0
M  V30 96 C 7.3346 0.941358 -5.17711 0
M  V30 97 O 6.3606 0.397352 -5.67811 0
M  V30 98 N 7.5626 2.2652 -5.3448 0
M  V30 99 H 10.3276 -0.945982 -2.84379 0
M  V30 100 H 7.8886 -0.647032 -1.48409 0
M  V30 101 H 9.8806 1.3986 -3.79765 0
M  V30 102 H 8.4506 1.5038 -2.74052 0
M  V30 103 H 7.6706 -0.706255 -3.87822 0
M  V30 104 H 8.9586 -0.447847 -5.06825 0
M  V30 105 H 8.3566 2.73128 -4.95396 0
M  V30 106 H 6.9136 2.80493 -5.88359 0
M  V30 107 N 10.3467 1.47872 -0.545128 0
M  V30 108 C 11.2937 2.29849 0.2093 0
M  V30 109 C 12.2637 1.38313 0.919707 0
M  V30 110 O 13.4487 1.67277 0.917772 0
M  V30 111 C 10.5887 3.22019 1.24088 0
M  V30 112 C 9.7017 4.2864 0.537778 0
M  V30 113 C 8.8367 5.07973 1.5536 0
M  V30 114 C 7.8757 6.06381 0.8348 0
M  V30 115 N 7.0127 6.78717 1.79688 0
M  V30 116 H 11.8527 2.93845 -0.49591 0
M  V30 117 H 9.3897 1.44848 -0.256389 0
M  V30 118 H 11.3477 3.73868 1.85144 0
M  V30 119 H 9.9777 2.59914 1.91428 0
M  V30 120 H 9.0297 3.7994 -0.187046 0
M  V30 121 H 10.3417 4.98793 -0.0258907 0
M  V30 122 H 9.4957 5.63912 2.23803 0
M  V30 123 H 8.2347 4.37693 2.15118 0
M  V30 124 H 7.2397 5.49631 0.136388 0
M  V30 125 H 8.4647 6.78665 0.24313 0
M  V30 126 H 6.4107 6.11177 2.38326 0
M  V30 127 H 6.3277 7.44998 1.28505 0
M  V30 128 H 7.5957 7.39237 2.47282 0
M  V30 129 N 11.8248 0.280983 1.55075 0
M  V30 130 C 12.7578 -0.645439 2.18882 0
M  V30 131 C 13.7358 -1.14786 1.15165 0
M  V30 132 O 14.9198 -1.21975 1.43716 0
M  V30 133 C 12.0468 -1.88088 2.81674 0
M  V30 134 C 11.0928 -1.51343 3.98745 0
M  V30 135 S 11.9258 -0.586548 5.32278 0
M  V30 136 C 13.0818 -1.83024 5.98543 0
M  V30 137 H 13.3148 -0.1033 2.9712 0
M  V30 138 H 10.8478 0.0652099 1.54262 0
M  V30 139 H 12.8058 -2.58997 3.18482 0
M  V30 140 H 11.4668 -2.39417 2.03318 0
M  V30 141 H 10.6598 -2.43289 4.41392 0
M  V30 142 H 10.2618 -0.884477 3.63391 0
M  V30 143 H 12.5538 -2.77342 6.18133 0
M  V30 144 H 13.4968 -1.44668 6.93164 0
M  V30 145 H 13.9048 -1.99785 5.27964 0
M  V30 146 N 13.3029 -1.57598 0.00835791 0
M  V30 147 C 14.5279 -1.95617 -0.689103 0
M  V30 148 C 14.9529 -0.883753 -1.66046 0
M  V30 149 O 14.3109 0.157352 -1.80616 0
M  V30 150 C 14.3589 -3.32736 -1.38994 0
M  V30 151 O 13.4629 -3.27631 -2.50463 0
M  V30 152 H 12.8039 -0.638379 -0.182668 0
M  V30 153 H 15.3339 -2.045 0.064036 0
M  V30 154 H 15.3439 -3.68494 -1.75147 0
M  V30 155 H 14.0189 -4.1034 -0.677778 0
M  V30 156 H 12.5959 -3.03561 -2.16576 0
M  V30 157 N 14.781 0.264519 -1.55364 0
M  V30 158 C 16.058 1.01677 -1.67096 0
M  V30 159 C 16.438 2.03996 -0.543015 0
M  V30 160 O 15.786 2.23907 0.45585 0
M  V30 161 C 15.996 1.66596 -3.0667 0
M  V30 162 C 17.344 2.17442 -3.64697 0
M  V30 163 O 18.368 1.76568 -3.09358 0
M  V30 164 O 17.227 2.92439 -4.61673 0
M  V30 165 H 14.321 0.472161 -0.678965 0
M  V30 166 H 16.867 0.259703 -1.67701 0
M  V30 167 H 15.639 0.924962 -3.80211 0
M  V30 168 H 15.262 2.48968 -3.10001 0
M  V30 169 N 16.2591 1.48442 0.529413 0
M  V30 170 C 17.5361 1.46978 1.29062 0
M  V30 171 C 17.9161 0.181769 2.10316 0
M  V30 172 O 17.2641 -0.836481 2.12639 0
M  V30 173 C 17.4741 2.7321 2.17157 0
M  V30 174 C 18.8221 3.21562 2.77278 0
M  V30 175 O 19.8461 2.74131 2.27444 0
M  V30 176 O 18.7051 4.04094 3.67927 0
M  V30 177 H 15.7991 0.587003 0.582543 0
M  V30 178 H 18.3451 1.60676 0.546021 0
M  V30 179 H 17.1171 3.58465 1.56903 0
M  V30 180 H 16.7401 2.62235 2.98862 0
M  V30 181 N 17.7372 -0.778329 1.37039 0
M  V30 182 C 18.9622 -1.57248 1.35233 0
M  V30 183 C 19.3872 -1.87999 -0.0615568 0
M  V30 184 O 18.7452 -1.48734 -1.03672 0
M  V30 185 C 18.7932 -2.86353 2.19167 0
M  V30 186 O 17.8972 -3.80442 1.59178 0
M  V30 187 H 17.2382 -0.476569 0.462362 0
M  V30 188 H 19.7682 -0.963853 1.80474 0
M  V30 189 H 19.7782 -3.35519 2.32145 0
M  V30 190 H 18.4532 -2.63299 3.21942 0
M  V30 191 H 17.0302 -3.39067 1.55203 0
M  V30 192 N 19.2153 -1.21501 -1.00376 0
M  V30 193 C 20.4613 -1.03452 -1.74429 0
M  V30 194 C 20.7943 0.430764 -1.89362 0
M  V30 195 O 20.0693 1.31962 -1.42886 0
M  V30 196 C 20.3523 -1.73375 -3.15615 0
M  V30 197 C 20.2053 -3.27431 -3.08397 0
M  V30 198 C 21.5243 -1.47732 -4.14564 0
M  V30 199 H 18.6433 -0.377226 -0.633143 0
M  V30 200 H 21.2853 -1.49693 -1.17013 0
M  V30 201 H 19.4353 -1.34064 -3.64636 0
M  V30 202 H 21.1073 -3.76119 -2.67081 0
M  V30 203 H 19.3503 -3.5767 -2.45468 0
M  V30 204 H 20.0213 -3.71524 -4.08258 0
M  V30 205 H 22.4973 -1.8186 -3.74254 0
M  V30 206 H 21.3733 -1.99169 -5.11491 0
M  V30 207 H 21.6343 -0.407589 -4.40217 0
M  V30 208 N 20.6934 1.19889 -1.02296 0
M  V30 209 C 21.9184 1.9393 -0.735237 0
M  V30 210 C 22.3434 1.74639 0.698782 0
M  V30 211 O 21.7014 1.04481 1.48167 0
M  V30 212 C 21.7494 3.43916 -1.08417 0
M  V30 213 O 20.8534 4.11917 -0.199446 0
M  V30 214 H 20.1944 0.605645 -0.272196 0
M  V30 215 H 22.7244 1.52137 -1.36804 0
M  V30 216 H 22.7344 3.9456 -1.03856 0
M  V30 217 H 21.4094 3.5728 -2.12894 0
M  V30 218 H 19.9864 3.71666 -0.303136 0
M  V30 219 N 22.1715 0.800033 1.35784 0
M  V30 220 C 23.4195 0.376597 1.9856 0
M  V30 221 C 23.7405 -1.05812 1.63795 0
M  V30 222 O 23.0105 -1.73103 0.917171 0
M  V30 223 H 21.5905 0.136261 0.734467 0
M  V30 224 H 24.2525 1.02442 1.65806 0
M  V30 225 H 23.3485 0.477002 3.08433 0
M  V30 226 N 23.6496 -1.47581 0.552962 0
M  V30 227 C 24.9266 -1.95563 -0.0381515 0
M  V30 228 C 25.3066 -1.49552 -1.48988 0
M  V30 229 O 24.6546 -0.732414 -2.16444 0
M  V30 230 C 24.8646 -3.48848 0.102919 0
M  V30 231 C 26.2126 -4.24577 -0.0446082 0
M  V30 232 O 27.2366 -3.56187 0.0302548 0
M  V30 233 O 26.0956 -5.46116 -0.204923 0
M  V30 234 H 23.1896 -0.824321 -0.0665067 0
M  V30 235 H 25.7356 -1.58001 0.619186 0
M  V30 236 H 24.5076 -3.75129 1.11328 0
M  V30 237 H 24.1306 -3.93165 -0.592224 0
M  V30 238 N 25.1277 -0.289203 -1.54924 0
M  V30 239 C 26.0777 0.606939 -2.19773 0
M  V30 240 C 27.0617 1.10783 -1.16687 0
M  V30 241 O 28.2537 1.05057 -1.4245 0
M  V30 242 C 25.3827 1.78398 -2.93307 0
M  V30 243 C 24.4687 1.29961 -4.03697 0
M  V30 244 N 24.8597 0.532377 -5.0299 0
M  V30 245 C 23.1577 1.58136 -4.17024 0
M  V30 246 C 23.8587 0.275912 -5.81045 0
M  V30 247 N 22.8347 0.852365 -5.36876 0
M  V30 248 H 26.6367 0.0130779 -2.93897 0
M  V30 249 H 24.1507 -0.09341 -1.62131 0
M  V30 250 H 26.1477 2.43741 -3.38225 0
M  V30 251 H 24.8077 2.38166 -2.20697 0
M  V30 252 H 25.8187 0.17838 -5.17593 0
M  V30 253 H 22.4957 2.18738 -3.55612 0
M  V30 254 H 23.8857 -0.339502 -6.71042 0
M  V30 255 N 26.6058 1.57591 -0.0167156 0
M  V30 256 C 27.8538 1.90906 0.663285 0
M  V30 257 C 28.1748 0.892509 1.73376 0
M  V30 258 O 27.4448 -0.0677623 1.95783 0
M  V30 259 H 26.0248 0.704637 0.247983 0
M  V30 260 H 28.6868 1.94803 -0.0615909 0
M  V30 261 H 27.7828 2.9116 1.12393 0
M  V30 262 N 28.0839 -0.256276 1.55502 0
M  V30 263 C 28.9939 -1.33882 1.92647 0
M  V30 264 C 30.0099 -1.53159 0.825727 0
M  V30 265 O 31.1859 -1.66963 1.12629 0
M  V30 266 C 28.2509 -2.6751 2.20543 0
M  V30 267 C 27.3119 -2.56836 3.43997 0
M  V30 268 C 26.5449 -3.84092 3.70553 0
M  V30 269 O 26.7679 -4.85545 2.99336 0
M  V30 270 O 25.7019 -3.83288 4.64084 0
M  V30 271 H 29.5279 -1.05374 2.84833 0
M  V30 272 H 27.1129 -0.456237 1.42263 0
M  V30 273 H 28.9949 -3.46492 2.39835 0
M  V30 274 H 27.6699 -2.9577 1.31536 0
M  V30 275 H 26.5769 -1.76172 3.30021 0
M  V30 276 H 27.9099 -2.33523 4.33275 0
M  V30 277 N 29.562 -1.4872 -0.521534 0
M  V30 278 C 30.787 -1.61101 -1.30618 0
M  V30 279 C 31.212 -0.274611 -1.86085 0
M  V30 280 O 30.57 0.754937 -1.64834 0
M  V30 281 C 30.618 -2.66709 -2.4269 0
M  V30 282 O 29.722 -2.24456 -3.45967 0
M  V30 283 H 29.063 -0.539921 -0.386499 0
M  V30 284 H 31.593 -1.94767 -0.626645 0
M  V30 285 H 31.603 -2.88245 -2.88754 0
M  V30 286 H 30.278 -3.63727 -2.01682 0
M  V30 287 H 28.855 -2.13168 -3.05964 0
M  V30 288 N 31.0401 0.771051 -1.3745 0
M  V30 289 C 32.0031 1.86598 -1.33093 0
M  V30 290 C 33.0031 1.59076 -0.234845 0
M  V30 291 O 34.1931 1.67145 -0.490732 0
M  V30 292 C 31.3251 3.23747 -1.06773 0
M  V30 293 H 32.5181 1.91873 -2.30488 0
M  V30 294 H 30.0711 0.970876 -1.2249 0
M  V30 295 H 30.8061 3.24148 -0.099129 0
M  V30 296 H 30.5911 3.45115 -1.86112 0
M  V30 297 H 32.0811 4.03824 -1.06377 0
M  V30 298 N 32.5182 1.22032 0.997298 0
M  V30 299 C 33.7432 1.06921 1.77715 0
M  V30 300 C 34.1682 -0.376226 1.84299 0
M  V30 301 O 33.5262 -1.27165 1.29223 0
M  V30 302 C 33.5742 1.67996 3.19076 0
M  V30 303 O 32.6782 0.930653 4.01762 0
M  V30 304 H 32.0192 0.375814 0.547412 0
M  V30 305 H 34.5492 1.61737 1.25309 0
M  V30 306 H 34.5592 1.72538 3.69723 0
M  V30 307 H 33.2342 2.73182 3.13599 0
M  V30 308 H 31.8112 0.960917 3.60307 0
M  V30 309 N 33.9963 -1.19345 1.0293 0
M  V30 310 C 34.9263 -2.2481 0.631105 0
M  V30 311 C 35.9073 -1.66245 -0.360104 0
M  V30 312 O 37.0923 -1.92677 -0.242726 0
M  V30 313 C 34.2223 -3.47295 -0.0184607 0
M  V30 314 C 33.1763 -4.18536 0.895073 0
M  V30 315 C 32.5023 -5.34586 0.110592 0
M  V30 316 C 33.8023 -4.73287 2.209 0
M  V30 317 H 35.4963 -2.58372 1.51275 0
M  V30 318 H 33.0423 -1.24194 0.728818 0
M  V30 319 H 34.9953 -4.20268 -0.308675 0
M  V30 320 H 33.7193 -3.12933 -0.934907 0
M  V30 321 H 32.3783 -3.47446 1.16949 0
M  V30 322 H 32.0263 -4.96469 -0.807902 0
M  V30 323 H 31.7263 -5.83183 0.719087 0
M  V30 324 H 33.2503 -6.10355 -0.172871 0
M  V30 325 H 34.6643 -5.38013 1.98028 0
M  V30 326 H 33.0613 -5.32373 2.76946 0
M  V30 327 H 34.1313 -3.91331 2.86336 0
M  V30 328 N 35.4744 -0.807222 -1.35358 0
M  V30 329 C 36.7224 -0.387122 -1.98358 0
M  V30 330 C 37.0434 1.04942 -1.64354 0
M  V30 331 O 36.3134 1.72615 -0.926339 0
M  V30 332 H 34.8934 -0.140154 -0.733734 0
M  V30 333 H 37.5554 -1.0332 -1.6526 0
M  V30 334 H 36.6514 -0.493352 -3.08176 0
M  V30 335 N 36.9525 1.47285 -0.560781 0
M  V30 336 C 37.9005 2.31756 0.197942 0
M  V30 337 C 38.8945 1.43146 0.905854 0
M  V30 338 O 40.1005 1.59891 0.826733 0
M  V30 339 H 36.4755 0.747438 0.0827049 0
M  V30 340 H 38.4465 2.9359 -0.533629 0
M  V30 341 C 37.1955 3.25874 1.21249 0
M  V30 342 H 36.5185 3.94023 0.67719 0
M  V30 343 H 37.9585 3.87803 1.71419 0
M  V30 344 C 36.4175 2.49651 2.26221 0
M  V30 345 O 36.9475 2.24355 3.33208 0
M  V30 346 N 35.1535 2.10597 2.00243 0
M  V30 347 H 34.7005 2.31369 1.13252 0
M  V30 348 H 34.6585 1.59913 2.70694 0
M  V30 349 N 38.4306 0.297415 1.54768 0
M  V30 350 C 39.6796 -0.313669 1.99246 0
M  V30 351 C 39.9926 -1.55281 1.18942 0
M  V30 352 O 41.1986 -2.23825 1.5367 0
M  V30 353 C 39.6546 -0.609407 3.54703 0
M  V30 354 C 39.2626 0.611192 4.43811 0
M  V30 355 C 41.0066 -1.18188 4.07715 0
M  V30 356 C 38.9136 0.288805 5.90694 0
M  V30 357 H 37.8436 -0.120979 0.744231 0
M  V30 358 H 40.4946 0.40556 1.78962 0
M  V30 359 H 38.8766 -1.38813 3.70873 0
M  V30 360 H 40.0506 1.3875 4.39414 0
M  V30 361 H 38.3656 1.10205 4.01552 0
M  V30 362 H 40.9626 -1.43727 5.15021 0
M  V30 363 H 41.3056 -2.12299 3.58099 0
M  V30 364 H 41.8386 -0.464944 3.95074 0
M  V30 365 H 38.5776 1.19838 6.44453 0
M  V30 366 H 38.0976 -0.450305 5.98107 0
M  V30 367 H 39.7766 -0.110933 6.46905 0
M  V30 368 N 39.9087 -1.5758 0.0250728 0
M  V30 369 C 40.8567 -2.11125 -0.97617 0
M  V30 370 C 41.8507 -1.03689 -1.33959 0
M  V30 371 O 43.0567 -1.22128 -1.3223 0
M  V30 372 H 39.4317 -0.674468 -0.332561 0
M  V30 373 H 41.4027 -2.94194 -0.499223 0
M  V30 374 C 40.1517 -2.65017 -2.2508 0
M  V30 375 H 39.4747 -3.47333 -1.9799 0
M  V30 376 H 40.9147 -3.06133 -2.93357 0
M  V30 377 C 39.3737 -1.57574 -2.97779 0
M  V30 378 O 39.9037 -0.973203 -3.89733 0
M  V30 379 N 38.1097 -1.29716 -2.60043 0
M  V30 380 H 37.6567 -1.789 -1.85345 0
M  V30 381 H 37.6147 -0.58051 -3.08994 0
M  V30 382 N 41.3868 0.248026 -1.55636 0
M  V30 383 C 42.7978 0.817177 -1.67866 0
M  V30 384 C 43.1488 1.86069 -0.622322 0
M  V30 385 O 42.2738 2.15157 0.231618 0
M  V30 386 C 42.8688 1.489 -3.04326 0
M  V30 387 C 41.4278 2.00587 -3.185 0
M  V30 388 C 40.5748 0.856573 -2.63739 0
M  V30 389 H 43.5258 0.0238579 -1.58682 0
M  V30 390 H 43.5468 2.35698 -2.98708 0
M  V30 391 H 43.0588 0.729279 -3.81186 0
M  V30 392 H 41.1598 2.79443 -2.4646 0
M  V30 393 H 41.2728 2.20402 -4.25393 0
M  V30 394 H 39.6368 1.25678 -2.21534 0
M  V30 395 H 40.4198 0.109953 -3.43124 0
M  V30 396 N 42.8649 1.48995 0.513639 0
M  V30 397 C 43.8279 1.64229 1.59879 0
M  V30 398 C 44.8279 0.514696 1.5234 0
M  V30 399 O 46.0179 0.78087 1.55718 0
M  V30 400 C 43.1499 1.62783 2.99524 0
M  V30 401 H 44.3429 2.61004 1.47705 0
M  V30 402 H 41.8959 1.37837 0.736936 0
M  V30 403 H 42.6309 0.675461 3.17188 0
M  V30 404 H 42.4159 2.4466 3.06404 0
M  V30 405 H 43.9059 1.76669 3.78388 0
M  V30 406 N 44.343 -0.763751 1.37857 0
M  V30 407 C 45.573 -1.55067 1.3652 0
M  V30 408 C 45.981 -1.89135 -0.0494227 0
M  V30 409 O 45.324 -1.52529 -1.02375 0
M  V30 410 C 45.386 -2.8838 2.14656 0
M  V30 411 C 45.05 -2.76905 3.63555 0
M  V30 412 C 46.047 -2.4739 4.57268 0
M  V30 413 C 43.732 -2.94676 4.06781 0
M  V30 414 C 45.726 -2.35786 5.92186 0
M  V30 415 C 43.413 -2.82692 5.41782 0
M  V30 416 C 44.411 -2.53289 6.34298 0
M  V30 417 O 44.099 -2.41345 7.66817 0
M  V30 418 H 43.831 -0.486776 0.469069 0
M  V30 419 H 46.385 -0.953812 1.81911 0
M  V30 420 H 44.615 -3.50217 1.63967 0
M  V30 421 H 46.304 -3.49828 2.05852 0
M  V30 422 H 47.07 -2.33339 4.2518 0
M  V30 423 H 42.949 -3.16563 3.35126 0
M  V30 424 H 46.493 -2.12757 6.64365 0
M  V30 425 H 42.39 -2.96314 5.7347 0
M  V30 426 H 43.158 -2.56634 7.77226 0
M  V30 427 N 45.8211 -1.22559 -0.990812 0
M  V30 428 C 47.0461 -1.07862 -1.77145 0
M  V30 429 C 47.4711 0.366447 -1.84496 0
M  V30 430 O 46.8291 1.26478 -1.29896 0
M  V30 431 C 46.8771 -1.69686 -3.18181 0
M  V30 432 O 45.9811 -0.951946 -4.01263 0
M  V30 433 H 45.3221 -0.378712 -0.545411 0
M  V30 434 H 47.8521 -1.62399 -1.2445 0
M  V30 435 H 47.8621 -1.74496 -3.68802 0
M  V30 436 H 46.5371 -2.74841 -3.12146 0
M  V30 437 H 45.1141 -0.980011 -3.59792 0
M  V30 438 N 47.2992 1.18797 -1.03562 0
M  V30 439 C 48.2472 2.24297 -0.615905 0
M  V30 440 C 49.2412 1.65643 0.354808 0
M  V30 441 O 50.4472 1.78618 0.22265 0
M  V30 442 H 46.8222 0.729909 -0.180934 0
M  V30 443 H 48.7932 2.5701 -1.5162 0
M  V30 444 C 47.5422 3.47698 0.0104735 0
M  V30 445 H 46.8652 3.93125 -0.727509 0
M  V30 446 H 48.3052 4.23159 0.266995 0
M  V30 447 C 46.7642 3.12489 1.25905 0
M  V30 448 O 47.2942 3.25761 2.35038 0
M  V30 449 N 45.5002 2.6686 1.15039 0
M  V30 450 H 45.0472 2.56261 0.262328 0
M  V30 451 H 45.0052 2.43674 1.98672 0
M  V30 452 N 48.7773 0.814389 1.34928 0
M  V30 453 C 50.1883 0.458364 1.80986 0
M  V30 454 C 50.5393 -1.02042 1.67577 0
M  V30 455 O 49.6643 -1.79352 1.21086 0
M  V30 456 C 50.2593 0.825212 3.28597 0
M  V30 457 C 48.8183 0.521677 3.72767 0
M  V30 458 C 47.9653 1.04668 2.56788 0
M  V30 459 H 50.9163 1.00533 1.22795 0
M  V30 460 H 50.9373 0.12571 3.80292 0
M  V30 461 H 50.4493 1.90154 3.38324 0
M  V30 462 H 48.5503 -0.545589 3.68584 0
M  V30 463 H 48.6633 1.05977 4.67232 0
M  V30 464 H 47.0273 0.468622 2.50352 0
M  V30 465 H 47.8103 2.12927 2.6929 0
M  V30 466 N 50.2554 -1.46986 0.568584 0
M  V30 467 C 51.4804 -2.07335 0.0520528 0
M  V30 468 C 51.9054 -1.41675 -1.23733 0
M  V30 469 O 51.2634 -0.495623 -1.74394 0
M  V30 470 C 51.3114 -3.60417 -0.11501 0
M  V30 471 O 50.4154 -3.95309 -1.17492 0
M  V30 472 H 49.7564 -0.661597 0.0564385 0
M  V30 473 H 52.2864 -1.88837 0.787507 0
M  V30 474 H 52.2964 -4.06698 -0.325644 0
M  V30 475 H 50.9714 -4.07601 0.826675 0
M  V30 476 H 49.5484 -3.60757 -0.943869 0
M  V30 477 N 51.7335 -0.305618 -1.54608 0
M  V30 478 C 52.6635 0.561482 -2.26649 0
M  V30 479 C 53.6445 1.13415 -1.26772 0
M  V30 480 O 54.8295 1.16262 -1.55553 0
M  V30 481 C 51.9595 1.73122 -3.01075 0
M  V30 482 C 50.9135 1.2887 -4.08138 0
M  V30 483 C 50.2395 2.54396 -4.70305 0
M  V30 484 C 51.5395 0.416578 -5.20636 0
M  V30 485 H 53.2335 -0.0393902 -2.99374 0
M  V30 486 H 50.7795 -0.020385 -1.43986 0
M  V30 487 H 52.7325 2.34396 -3.50195 0
M  V30 488 H 51.4565 2.3584 -2.25936 0
M  V30 489 H 50.1155 0.698991 -3.59875 0
M  V30 490 H 49.7635 3.15439 -3.918 0
M  V30 491 H 49.4635 2.25486 -5.42614 0
M  V30 492 H 50.9875 3.16464 -5.2219 0
M  V30 493 H 52.4015 0.935116 -5.65622 0
M  V30 494 H 50.7985 0.221046 -5.99693 0
M  V30 495 H 51.8685 -0.557162 -4.81688 0
M  V30 496 N 53.2116 1.57565 -0.0334293 0
M  V30 497 C 54.4366 1.96689 0.657895 0
M  V30 498 C 54.8616 0.910057 1.64619 0
M  V30 499 O 54.2196 -0.128598 1.80843 0
M  V30 500 C 54.2676 3.34905 1.33683 0
M  V30 501 O 53.3716 3.31574 2.45219 0
M  V30 502 H 52.7126 0.641205 0.172489 0
M  V30 503 H 55.2426 2.04372 -0.0965621 0
M  V30 504 H 55.2526 3.71234 1.69262 0
M  V30 505 H 53.9276 4.11366 0.612411 0
M  V30 506 H 52.5046 3.06968 2.11719 0
M  V30 507 N 54.6897 -0.239769 1.55765 0
M  V30 508 C 55.6217 -1.32001 1.87372 0
M  V30 509 C 56.6347 -1.43944 0.760522 0
M  V30 510 O 57.8237 -1.45167 1.0387 0
M  V30 511 C 54.9237 -2.69779 2.05115 0
M  V30 512 C 54.0967 -2.80014 3.36022 0
M  V30 513 C 53.1557 -3.98684 3.4342 0
M  V30 514 O 52.1817 -3.87877 4.16582 0
M  V30 515 N 53.3837 -5.12176 2.73232 0
M  V30 516 H 56.1487 -1.0522 2.80622 0
M  V30 517 H 53.7097 -0.429857 1.56089 0
M  V30 518 H 55.7017 -3.47517 2.07399 0
M  V30 519 H 54.2717 -2.89237 1.18577 0
M  V30 520 H 53.4917 -1.88896 3.45994 0
M  V30 521 H 54.7797 -2.83808 4.22292 0
M  V30 522 H 54.1777 -5.2385 2.13536 0
M  V30 523 H 52.7347 -5.88022 2.81199 0
M  V30 524 N 56.1678 -1.49265 -0.50573 0
M  V30 525 C 57.3928 -1.62478 -1.28902 0
M  V30 526 C 57.8178 -0.294332 -1.85783 0
M  V30 527 O 57.1758 0.737412 -1.65626 0
M  V30 528 C 57.2238 -2.69268 -2.39848 0
M  V30 529 O 56.3278 -2.28113 -3.43567 0
M  V30 530 H 55.6688 -0.54399 -0.380751 0
M  V30 531 H 58.1988 -1.95421 -0.605952 0
M  V30 532 H 58.2088 -2.91291 -2.85681 0
M  V30 533 H 56.8838 -3.65846 -1.97812 0
M  V30 534 H 55.4608 -2.16401 -3.03685 0
M  V30 535 N 57.6459 0.756429 -1.3826 0
M  V30 536 C 59.0569 1.33359 -1.30661 0
M  V30 537 C 59.4079 1.96161 0.0388875 0
M  V30 538 O 58.5329 1.94874 0.940918 0
M  V30 539 C 59.1279 2.42477 -2.36622 0
M  V30 540 C 57.6869 2.95922 -2.3261 0
M  V30 541 C 56.8339 1.69275 -2.19639 0
M  V30 542 H 59.7849 0.55552 -1.4866 0
M  V30 543 H 59.8059 3.22345 -2.02174 0
M  V30 544 H 59.3179 1.96739 -3.34538 0
M  V30 545 H 57.4189 3.45996 -1.38267 0
M  V30 546 H 57.5319 3.50494 -3.26636 0
M  V30 547 H 55.8959 1.92793 -1.66442 0
M  V30 548 H 56.6789 1.25619 -3.19491 0
M  V30 549 N 59.124 1.23083 0.984299 0
M  V30 550 C 60.372 1.05848 1.72165 0
M  V30 551 C 60.693 -0.406049 1.90726 0
M  V30 552 O 59.963 -1.29139 1.47309 0
M  V30 553 H 58.543 0.388685 0.637913 0
M  V30 554 H 61.205 1.54736 1.18503 0
M  V30 555 H 60.301 1.54327 2.71274 0
M  V30 556 N 60.6021 -1.18246 1.0419 0
M  V30 557 C 61.8791 -1.84121 0.660208 0
M  V30 558 C 62.2591 -1.92778 -0.860221 0
M  V30 559 O 61.6071 -1.45464 -1.76217 0
M  V30 560 C 61.8171 -3.22355 1.33747 0
M  V30 561 C 63.1651 -3.98376 1.46906 0
M  V30 562 O 64.1891 -3.31799 1.29568 0
M  V30 563 O 63.0481 -5.17665 1.75171 0
M  V30 564 H 60.1421 -0.794036 0.231161 0
M  V30 565 H 62.6881 -1.25628 1.14087 0
M  V30 566 H 61.4601 -3.10964 2.37522 0
M  V30 567 H 61.0831 -3.88506 0.845515 0
M  V30 568 N 62.0802 -0.821533 -1.34494 0
M  V30 569 C 63.3052 -0.420873 -2.03085 0
M  V30 570 C 63.7302 0.964915 -1.61465 0
M  V30 571 O 63.0882 1.62763 -0.798607 0
M  V30 572 C 63.1362 -0.529414 -3.56693 0
M  V30 573 O 62.2402 0.451302 -4.09923 0
M  V30 574 H 61.5812 -0.173489 -0.640935 0
M  V30 575 H 64.1112 -1.11157 -1.71771 0
M  V30 576 H 64.1212 -0.404671 -4.05988 0
M  V30 577 H 62.7962 -1.54014 -3.86332 0
M  V30 578 H 61.3732 0.285558 -3.71805 0
M  V30 579 N 63.5583 1.46682 -0.576371 0
M  V30 580 C 64.4683 2.34032 0.163141 0
M  V30 581 C 65.4843 1.49367 0.892501 0
M  V30 582 O 66.6603 1.82252 0.857106 0
M  V30 583 C 63.7253 3.26435 1.16795 0
M  V30 584 C 62.7863 4.26998 0.443944 0
M  V30 585 C 62.0193 5.14986 1.40088 0
M  V30 586 O 62.2423 5.05785 2.637 0
M  V30 587 O 61.1763 5.94906 0.914917 0
M  V30 588 H 65.0023 2.98607 -0.55388 0
M  V30 589 H 62.5873 1.45554 -0.336821 0
M  V30 590 H 64.4693 3.83459 1.74748 0
M  V30 591 H 63.1443 2.64465 1.86655 0
M  V30 592 H 62.0513 3.7368 -0.177271 0
M  V30 593 H 63.3843 4.91736 -0.213566 0
M  V30 594 N 65.0364 0.313813 1.54444 0
M  V30 595 C 65.9464 -0.565714 2.27677 0
M  V30 596 C 66.9624 -1.13754 1.31666 0
M  V30 597 O 68.1384 -1.15959 1.64668 0
M  V30 598 C 65.2034 -1.71528 3.01296 0
M  V30 599 C 64.2644 -1.17624 4.12872 0
M  V30 600 C 63.4974 -2.27102 4.8297 0
M  V30 601 O 63.7204 -3.47256 4.52514 0
M  V30 602 O 62.6544 -1.9307 5.70094 0
M  V30 603 H 66.4804 0.0287296 3.03686 0
M  V30 604 H 64.0654 0.0798312 1.49187 0
M  V30 605 H 65.9474 -2.38476 3.4743 0
M  V30 606 H 64.6224 -2.29608 2.2817 0
M  V30 607 H 63.5294 -0.472124 3.71109 0
M  V30 608 H 64.8624 -0.640695 4.88012 0
M  V30 609 N 66.5145 -1.57545 0.0417849 0
M  V30 610 C 67.7445 -1.96339 -0.642995 0
M  V30 611 C 68.1525 -0.917536 -1.65463 0
M  V30 612 O 67.4955 0.107747 -1.83384 0
M  V30 613 C 67.5575 -3.31333 -1.39494 0
M  V30 614 C 67.2215 -4.53796 -0.540204 0
M  V30 615 C 68.2185 -5.19553 0.189806 0
M  V30 616 C 65.9035 -5.0006 -0.473886 0
M  V30 617 C 67.8975 -6.29904 0.974674 0
M  V30 618 C 65.5845 -6.10289 0.314677 0
M  V30 619 C 66.5825 -6.75072 1.03765 0
M  V30 620 O 66.2705 -7.83183 1.81327 0
M  V30 621 H 66.0025 -0.651241 -0.181277 0
M  V30 622 H 68.5565 -2.05148 0.101665 0
M  V30 623 H 66.7865 -3.19052 -2.18502 0
M  V30 624 H 68.4755 -3.54942 -1.96904 0
M  V30 625 H 69.2415 -4.84774 0.147981 0
M  V30 626 H 65.1205 -4.49433 -1.0262 0
M  V30 627 H 68.6645 -6.80401 1.5395 0
M  V30 628 H 64.5615 -6.44506 0.358174 0
M  V30 629 H 65.3295 -7.99913 1.73438 0
M  V30 630 N 67.9926 0.231505 -1.5589 0
M  V30 631 C 69.2396 0.957352 -1.78441 0
M  V30 632 C 69.5676 1.84726 -0.60882 0
M  V30 633 O 68.8226 1.91416 0.40725 0
M  V30 634 C 69.1216 1.83577 -3.0665 0
M  V30 635 C 68.7876 1.09993 -4.37278 0
M  V30 636 C 67.4496 0.896629 -4.72773 0
M  V30 637 C 69.8016 0.579558 -5.17968 0
M  V30 638 C 67.1296 0.160896 -5.86479 0
M  V30 639 C 69.4816 -0.142783 -6.32439 0
M  V30 640 C 68.1456 -0.357427 -6.66542 0
M  V30 641 H 67.4156 0.35032 -0.65296 0
M  V30 642 H 70.0626 0.226259 -1.90159 0
M  V30 643 H 68.3676 2.63441 -2.90011 0
M  V30 644 H 70.0646 2.39934 -3.21298 0
M  V30 645 H 66.6546 1.26835 -4.09403 0
M  V30 646 H 70.8386 0.724125 -4.90989 0
M  V30 647 H 66.0946 -0.0157293 -6.11398 0
M  V30 648 H 70.2686 -0.553559 -6.94196 0
M  V30 649 H 67.8956 -0.929466 -7.54497 0
M  V30 650 N 69.4707 1.49531 0.497807 0
M  V30 651 C 70.4337 1.65916 1.58128 0
M  V30 652 C 71.4337 0.530825 1.51786 0
M  V30 653 O 72.6237 0.797342 1.54881 0
M  V30 654 C 69.7557 1.65951 2.9778 0
M  V30 655 H 70.9487 2.62556 1.44929 0
M  V30 656 H 68.5017 1.38611 0.722275 0
M  V30 657 H 69.2367 0.709065 3.16453 0
M  V30 658 H 69.0217 2.47897 3.03792 0
M  V30 659 H 70.5117 1.80673 3.76493 0
M  V30 660 N 70.9488 -0.749086 1.3866 0
M  V30 661 C 72.1768 -1.53834 1.38358 0
M  V30 662 C 72.5918 -1.88783 -0.0255219 0
M  V30 663 O 71.9488 -1.53101 -0.993292 0
M  V30 664 C 71.9998 -2.83468 2.2434 0
M  V30 665 O 71.7208 -2.50008 3.5976 0
M  V30 666 C 73.2218 -3.7758 2.32267 0
M  V30 667 H 70.4418 -0.47585 0.473083 0
M  V30 668 H 72.9858 -0.926726 1.82297 0
M  V30 669 H 71.1408 -3.40995 1.83851 0
M  V30 670 H 71.5548 -3.33182 4.05081 0
M  V30 671 H 73.0288 -4.65478 2.96706 0
M  V30 672 H 73.5058 -4.18334 1.33765 0
M  V30 673 H 74.1118 -3.25976 2.73166 0
M  V30 674 N 72.4269 -1.23603 -0.977757 0
M  V30 675 C 73.6569 -1.09487 -1.75203 0
M  V30 676 C 74.0649 0.356321 -1.85814 0
M  V30 677 O 73.4079 1.25816 -1.33851 0
M  V30 678 C 73.4699 -1.64905 -3.19447 0
M  V30 679 C 73.1339 -3.13688 -3.32338 0
M  V30 680 C 74.1309 -4.10953 -3.18455 0
M  V30 681 C 71.8159 -3.53449 -3.56902 0
M  V30 682 C 73.8099 -5.45962 -3.28944 0
M  V30 683 C 71.4969 -4.88602 -3.6703 0
M  V30 684 C 72.4949 -5.84668 -3.53062 0
M  V30 685 O 72.1829 -7.17365 -3.62826 0
M  V30 686 H 71.9149 -0.38367 -0.556573 0
M  V30 687 H 74.4689 -1.6398 -1.23693 0
M  V30 688 H 72.6989 -1.04835 -3.72218 0
M  V30 689 H 74.3879 -1.46226 -3.78646 0
M  V30 690 H 75.1539 -3.81577 -2.99372 0
M  V30 691 H 71.0329 -2.79188 -3.66844 0
M  V30 692 H 74.5769 -6.20925 -3.17958 0
M  V30 693 H 70.4739 -5.17653 -3.85623 0
M  V30 694 H 71.2419 -7.2515 -3.79605 0
M  V30 695 N 73.905 1.17692 -1.04816 0
M  V30 696 C 75.152 1.87859 -0.75599 0
M  V30 697 C 75.48 1.80812 0.716752 0
M  V30 698 O 74.735 1.20819 1.53952 0
M  V30 699 C 75.034 3.37462 -1.17703 0
M  V30 700 C 74.7 3.64713 -2.65133 0
M  V30 701 C 73.362 3.71859 -3.05408 0
M  V30 702 C 75.714 3.76492 -3.60421 0
M  V30 703 C 73.042 3.88271 -4.39843 0
M  V30 704 C 75.394 3.94421 -4.94585 0
M  V30 705 C 74.058 3.99806 -5.3452 0
M  V30 706 H 73.328 0.687425 -0.276636 0
M  V30 707 H 75.975 1.39255 -1.31455 0
M  V30 708 H 74.28 3.88097 -0.537395 0
M  V30 709 H 75.977 3.90109 -0.928218 0
M  V30 710 H 72.567 3.59772 -2.32942 0
M  V30 711 H 76.751 3.70295 -3.30447 0
M  V30 712 H 72.007 3.90687 -4.70291 0
M  V30 713 H 76.181 4.02477 -5.68318 0
M  V30 714 H 73.808 4.12276 -6.38696 0
M  V30 715 N 75.3831 0.828654 1.34056 0
M  V30 716 C 76.3311 0.242973 2.31327 0
M  V30 717 C 77.3251 -0.61944 1.57668 0
M  V30 718 O 78.5311 -0.51014 1.7262 0
M  V30 719 H 74.9061 0.059834 0.749616 0
M  V30 720 H 76.8771 1.07809 2.78244 0
M  V30 721 C 75.6261 -0.575733 3.429 0
M  V30 722 H 74.9491 0.0785582 3.99723 0
M  V30 723 H 76.3891 -0.951547 4.13185 0
M  V30 724 C 74.8481 -1.75044 2.87856 0
M  V30 725 O 75.3781 -2.84882 2.83205 0
M  V30 726 N 73.5841 -1.56903 2.44602 0
M  V30 727 H 73.1311 -0.675547 2.48584 0
M  V30 728 H 73.0891 -2.35652 2.08124 0
M  V30 729 N 76.8612 -1.46375 0.584142 0
M  V30 730 C 77.7712 -2.34115 -0.150728 0
M  V30 731 C 78.7872 -1.49838 -0.884567 0
M  V30 732 O 79.9632 -1.82704 -0.847429 0
M  V30 733 C 77.0282 -3.2705 -1.15062 0
M  V30 734 C 76.0892 -4.27228 -0.421293 0
M  V30 735 C 75.3222 -5.15722 -1.37355 0
M  V30 736 O 75.5452 -5.07176 -2.61014 0
M  V30 737 O 74.4792 -5.95383 -0.883355 0
M  V30 738 H 78.3052 -2.98309 0.569708 0
M  V30 739 H 75.8902 -1.45373 0.344535 0
M  V30 740 H 77.7722 -3.84381 -1.72712 0
M  V30 741 H 76.4472 -2.65451 -1.8525 0
M  V30 742 H 75.3542 -3.7358 0.197085 0
M  V30 743 H 76.6872 -4.91616 0.239641 0
M  V30 744 N 78.3393 -0.321999 -1.54275 0
M  V30 745 C 79.2863 0.544664 -2.24281 0
M  V30 746 C 80.2563 1.1129 -1.23303 0
M  V30 747 O 81.4413 1.15354 -1.51981 0
M  V30 748 C 78.5813 1.70045 -3.00298 0
M  V30 749 C 77.6943 1.16159 -4.1609 0
M  V30 750 C 76.8293 2.28293 -4.79641 0
M  V30 751 C 75.8683 1.71648 -5.8754 0
M  V30 752 N 75.0053 2.77438 -6.44959 0
M  V30 753 H 79.8453 -0.0588907 -2.97942 0
M  V30 754 H 77.3823 -0.0408345 -1.47043 0
M  V30 755 H 79.3403 2.38054 -3.42616 0
M  V30 756 H 77.9703 2.27531 -2.28975 0
M  V30 757 H 77.0223 0.373092 -3.78566 0
M  V30 758 H 78.3343 0.707087 -4.93763 0
M  V30 759 H 77.4883 3.0421 -5.2492 0
M  V30 760 H 76.2273 2.77079 -4.01346 0
M  V30 761 H 75.2323 0.942282 -5.41665 0
M  V30 762 H 76.4573 1.23741 -6.67731 0
M  V30 763 H 74.4033 3.25519 -5.69538 0
M  V30 764 H 74.3203 2.36547 -7.1804 0
M  V30 765 H 75.5883 3.53189 -6.94894 0
M  V30 766 N 79.8174 1.5752 -0.0501392 0
M  V30 767 C 81.0664 1.91827 0.623328 0
M  V30 768 C 81.3794 0.930222 1.72065 0
M  V30 769 O 82.5854 1.1653 2.4522 0
M  V30 770 C 81.0414 3.40692 1.16003 0
M  V30 771 C 80.6494 4.479 0.0948811 0
M  V30 772 C 82.3934 3.84034 1.80881 0
M  V30 773 C 80.3004 5.87879 0.644411 0
M  V30 774 H 79.2304 0.715918 0.236596 0
M  V30 775 H 81.8814 1.83115 -0.118861 0
M  V30 776 H 80.2634 3.44405 1.9545 0
M  V30 777 H 81.4374 4.55775 -0.678675 0
M  V30 778 H 79.7524 4.13892 -0.45637 0
M  V30 779 H 82.3494 4.85984 2.22988 0
M  V30 780 H 82.6924 3.20225 2.6601 0
M  V30 781 H 83.2254 3.82833 1.0809 0
M  V30 782 H 79.9644 6.55282 -0.169229 0
M  V30 783 H 79.4844 5.83567 1.38598 0
M  V30 784 H 81.1634 6.37098 1.12763 0
M  V30 785 N 81.2955 -0.223234 1.56011 0
M  V30 786 C 82.5205 -0.968978 1.83373 0
M  V30 787 C 82.9455 -1.77227 0.630254 0
M  V30 788 O 82.3035 -1.76345 -0.420959 0
M  V30 789 C 82.3515 -1.86363 3.08709 0
M  V30 790 O 81.4555 -2.95873 2.87285 0
M  V30 791 H 80.7965 -0.274461 0.604622 0
M  V30 792 H 83.3265 -0.237056 2.03222 0
M  V30 793 H 83.3365 -2.27376 3.38768 0
M  V30 794 H 82.0115 -1.27319 3.95933 0
M  V30 795 H 80.5885 -2.58818 2.68454 0
M  V30 796 N 82.7736 -1.49793 -0.48987 0
M  V30 797 C 84.0226 -1.59085 -1.23995 0
M  V30 798 C 84.3356 -0.287907 -1.9347 0
M  V30 799 O 85.5416 -0.259506 -2.70257 0
M  V30 800 C 83.9976 -2.80736 -2.252 0
M  V30 801 C 83.6056 -4.17833 -1.61614 0
M  V30 802 C 85.3496 -2.99364 -3.00967 0
M  V30 803 C 83.2566 -5.30693 -2.60996 0
M  V30 804 H 82.1866 -0.592372 -0.466488 0
M  V30 805 H 84.8376 -1.76197 -0.51252 0
M  V30 806 H 83.2196 -2.57142 -3.01154 0
M  V30 807 H 84.3936 -4.51608 -0.915774 0
M  V30 808 H 82.7086 -4.04656 -0.981977 0
M  V30 809 H 85.3056 -3.80851 -3.75308 0
M  V30 810 H 85.6486 -2.10356 -3.59244 0
M  V30 811 H 86.1816 -3.2305 -2.32128 0
M  V30 812 H 82.9206 -6.21796 -2.07485 0
M  V30 813 H 82.4406 -5.01359 -3.2924 0
M  V30 814 H 84.1196 -5.6049 -3.23202 0
M  V30 815 N 84.2517 0.741722 -1.39055 0
M  V30 816 C 85.6627 1.31966 -1.32068 0
M  V30 817 C 86.0137 1.96192 0.0180797 0
M  V30 818 O 85.1387 1.95861 0.920196 0
M  V30 819 C 85.7337 2.39954 -2.39181 0
M  V30 820 C 84.2927 2.93438 -2.35735 0
M  V30 821 C 83.4397 1.66936 -2.21422 0
M  V30 822 H 86.3907 0.539721 -1.4924 0
M  V30 823 H 86.4117 3.20182 -2.05581 0
M  V30 824 H 85.9237 1.9318 -3.36605 0
M  V30 825 H 84.0247 3.4451 -1.41929 0
M  V30 826 H 84.1377 3.4701 -3.30335 0
M  V30 827 H 82.5017 1.91016 -1.68478 0
M  V30 828 H 83.2847 1.22224 -3.20806 0
M  V30 829 N 85.7298 1.2412 0.971189 0
M  V30 830 C 86.6398 1.04747 2.09917 0
M  V30 831 C 87.6558 -0.0107162 1.73997 0
M  V30 832 O 88.8318 0.186714 2.00533 0
M  V30 833 C 85.8968 0.650828 3.40537 0
M  V30 834 C 84.9578 1.7851 3.90426 0
M  V30 835 C 84.1908 1.40729 5.14812 0
M  V30 836 O 84.4138 0.29557 5.69634 0
M  V30 837 O 83.3478 2.23168 5.58999 0
M  V30 838 H 87.1738 1.99304 2.29154 0
M  V30 839 H 84.7588 1.02908 1.08307 0
M  V30 840 H 86.6408 0.440992 4.19086 0
M  V30 841 H 85.3158 -0.265649 3.22608 0
M  V30 842 H 84.2228 2.04966 3.12953 0
M  V30 843 H 85.5558 2.68023 4.12825 0
M  V30 844 N 87.2079 -1.17134 1.05439 0
M  V30 845 C 88.1179 -2.24878 0.668365 0
M  V30 846 C 89.1339 -1.71186 -0.311687 0
M  V30 847 O 90.3099 -2.00738 -0.163161 0
M  V30 848 C 87.3749 -3.46662 0.051648 0
M  V30 849 C 86.4359 -4.15429 1.08246 0
M  V30 850 C 85.6689 -5.31399 0.495082 0
M  V30 851 O 85.8919 -5.66153 -0.694743 0
M  V30 852 O 84.8259 -5.89187 1.23056 0
M  V30 853 H 88.6519 -2.60189 1.56637 0
M  V30 854 H 86.2369 -1.24482 0.826104 0
M  V30 855 H 88.1189 -4.20394 -0.290966 0
M  V30 856 H 86.7939 -3.13142 -0.819971 0
M  V30 857 H 85.7009 -3.43704 1.47711 0
M  V30 858 H 87.0339 -4.52982 1.92532 0
M  V30 859 N 88.686 -0.835752 -1.33615 0
M  V30 860 C 89.596 -0.269088 -2.33052 0
M  V30 861 C 90.612 0.603251 -1.63208 0
M  V30 862 O 91.788 0.508112 -1.94885 0
M  V30 863 C 88.853 0.549091 -3.42324 0
M  V30 864 C 87.914 -0.347156 -4.27894 0
M  V30 865 C 87.147 0.43207 -5.31948 0
M  V30 866 O 87.37 1.66409 -5.45586 0
M  V30 867 O 86.304 -0.192298 -6.01593 0
M  V30 868 H 90.13 -1.09243 -2.83372 0
M  V30 869 H 87.715 -0.598198 -1.36901 0
M  V30 870 H 89.597 1.01414 -4.09015 0
M  V30 871 H 88.272 1.34955 -2.94226 0
M  V30 872 H 87.179 -0.859979 -3.64081 0
M  V30 873 H 88.512 -1.1123 -4.79467 0
M  V30 874 N 90.1641 1.46063 -0.591896 0
M  V30 875 C 91.3941 2.06418 -0.0867676 0
M  V30 876 C 91.8021 1.43975 1.22751 0
M  V30 877 O 91.1451 0.542531 1.75506 0
M  V30 878 C 91.2071 3.59213 0.143725 0
M  V30 879 C 90.8711 4.439 -1.08635 0
M  V30 880 C 91.8681 4.79864 -2.00067 0
M  V30 881 C 89.5531 4.84896 -1.31077 0
M  V30 882 C 91.5471 5.55661 -3.12282 0
M  V30 883 C 89.2341 5.6045 -2.43596 0
M  V30 884 C 90.2321 5.95747 -3.34027 0
M  V30 885 O 89.9201 6.69772 -4.4459 0
M  V30 886 H 89.6521 0.673443 -0.0587447 0
M  V30 887 H 92.2061 1.88539 -0.814994 0
M  V30 888 H 90.4361 3.75433 0.926668 0
M  V30 889 H 92.1251 4.01463 0.5985 0
M  V30 890 H 92.8911 4.48763 -1.83947 0
M  V30 891 H 88.7701 4.56867 -0.61594 0
M  V30 892 H 92.3141 5.8313 -3.82891 0
M  V30 893 H 88.2111 5.90965 -2.59674 0
M  V30 894 H 88.9791 6.88207 -4.43073 0
M  V30 895 N 91.6422 0.330177 1.54103 0
M  V30 896 C 92.8672 -0.274893 2.0557 0
M  V30 897 C 93.2922 -1.44487 1.20437 0
M  V30 898 O 92.6502 -1.80021 0.214991 0
M  V30 899 C 92.6982 -0.68079 3.54115 0
M  V30 900 O 91.8022 -1.7824 3.71893 0
M  V30 901 H 91.1432 -0.0483849 0.662235 0
M  V30 902 H 93.6732 0.480508 1.98878 0
M  V30 903 H 93.6832 -0.961635 3.96505 0
M  V30 904 H 92.3582 0.174903 4.15532 0
M  V30 905 H 90.9352 -1.49985 3.41407 0
M  V30 906 N 93.1203 -1.57491 0.0584922 0
M  V30 907 C 94.3603 -1.94851 -0.617458 0
M  V30 908 C 94.7243 -0.937165 -1.67575 0
M  V30 909 O 95.9253 -1.19795 -2.40629 0
M  V30 910 C 94.1963 -3.36955 -1.19147 0
M  V30 911 S 95.7553 -3.96277 -1.8844 0
M  V30 912 H 92.5733 -0.681539 -0.202547 0
M  V30 913 H 95.1753 -1.95073 0.129176 0
M  V30 914 H 93.8793 -4.08355 -0.409215 0
M  V30 915 H 93.4103 -3.40245 -1.97476 0
M  V30 916 H 95.4253 -3.82099 -3.16568 0
M  V30 917 N 94.5984 0.214957 -1.56127 0
M  V30 918 C 95.8454 0.938372 -1.79446 0
M  V30 919 C 96.1734 1.8407 -0.628378 0
M  V30 920 O 95.4284 1.91837 0.386925 0
M  V30 921 C 95.7274 1.80314 -3.0858 0
M  V30 922 C 95.3934 1.05349 -4.3842 0
M  V30 923 C 94.0554 0.846435 -4.73697 0
M  V30 924 C 96.4074 0.524588 -5.18553 0
M  V30 925 C 93.7354 0.098683 -5.86617 0
M  V30 926 C 96.0874 -0.209853 -6.32252 0
M  V30 927 C 94.7514 -0.428102 -6.66126 0
M  V30 928 H 94.0214 0.343375 -0.656639 0
M  V30 929 H 96.6684 0.206077 -1.90388 0
M  V30 930 H 94.9734 2.6035 -2.92789 0
M  V30 931 H 96.6704 2.36513 -3.23825 0
M  V30 932 H 93.2604 1.22486 -4.10725 0
M  V30 933 H 97.4444 0.672008 -4.91729 0
M  V30 934 H 92.7004 -0.0805753 -6.11347 0
M  V30 935 H 96.8744 -0.627157 -6.9357 0
M  V30 936 H 94.5014 -1.00944 -7.53468 0
M  V30 937 N 96.0765 1.50051 0.48192 0
M  V30 938 C 97.3015 1.64508 1.26301 0
M  V30 939 C 97.7265 0.323851 1.85291 0
M  V30 940 O 97.0845 -0.710969 1.66778 0
M  V30 941 C 97.1325 2.7305 2.35533 0
M  V30 942 O 96.2365 2.3355 3.39895 0
M  V30 943 H 95.5775 0.549978 0.372048 0
M  V30 944 H 98.1075 1.9636 0.574786 0
M  V30 945 H 98.1175 2.95799 2.8101 0
M  V30 946 H 96.7925 3.68946 1.91967 0
M  V30 947 H 95.3695 2.21205 3.00204 0
M  V30 948 N 97.5546 -0.734337 1.39446 0
M  V30 949 C 98.8016 -1.49391 1.36706 0
M  V30 950 C 99.1296 -1.94465 -0.0367813 0
M  V30 951 O 98.3846 -1.67154 -1.01774 0
M  V30 952 C 98.6836 -2.74711 2.28623 0
M  V30 953 C 98.3496 -2.48501 3.76242 0
M  V30 954 C 97.0116 -2.41062 4.16464 0
M  V30 955 C 99.3636 -2.26098 4.69606 0
M  V30 956 C 96.6916 -2.09262 5.48112 0
M  V30 957 C 99.0436 -1.95814 6.01531 0
M  V30 958 C 97.7076 -1.86845 6.40816 0
M  V30 959 H 96.9776 -0.546661 0.500243 0
M  V30 960 H 99.6246 -0.842788 1.71957 0
M  V30 961 H 97.9296 -3.44569 1.86492 0
M  V30 962 H 99.6266 -3.32741 2.23796 0
M  V30 963 H 96.2166 -2.55169 3.44364 0
M  V30 964 H 100.401 -2.30812 4.39363 0
M  V30 965 H 95.6566 -2.00841 5.77471 0
M  V30 966 H 99.8306 -1.77488 6.73403 0
M  V30 967 H 97.4576 -1.6197 7.42745 0
M  V30 968 N 99.0327 -1.24633 -0.964593 0
M  V30 969 C 100.449 -1.01239 -1.2338 0
M  V30 970 C 100.649 0.2769 -1.99588 0
M  V30 971 O 99.7047 0.992241 -2.32187 0
M  V30 972 C 101.018 -2.22937 -2.01791 0
M  V30 973 C 102.566 -2.27594 -2.14872 0
M  V30 974 C 103.041 -3.48921 -2.96678 0
M  V30 975 N 104.532 -3.49257 -3.04259 0
M  V30 976 C 105.267 -4.39795 -3.67924 0
M  V30 977 N 104.763 -5.40591 -4.33281 0
M  V30 978 N 106.556 -4.275 -3.64966 0
M  V30 979 H 98.7067 -2.0748 -0.454502 0
M  V30 980 H 100.97 -0.910647 -0.26349 0
M  V30 981 H 100.676 -3.16587 -1.53184 0
M  V30 982 H 100.55 -2.25306 -3.02518 0
M  V30 983 H 102.937 -1.34473 -2.6268 0
M  V30 984 H 103.018 -2.2925 -1.13482 0
M  V30 985 H 102.662 -4.42359 -2.49562 0
M  V30 986 H 102.592 -3.4451 -3.98272 0
M  V30 987 H 105.083 -2.76337 -2.57771 0
M  V30 988 H 105.396 -6.05904 -4.79687 0
M  V30 989 H 103.741 -5.44475 -4.3194 0
M  V30 990 H 106.932 -3.47987 -3.13086 0
M  V30 991 H 107.105 -4.98258 -4.14298 0
M  V30 992 N 100.511 1.16574 -1.06058 0
M  V30 993 C 101.458 2.20883 -0.669263 0
M  V30 994 C 102.428 1.62729 0.332918 0
M  V30 995 O 103.613 1.895 0.222346 0
M  V30 996 C 100.753 3.45049 -0.0593572 0
M  V30 997 C 99.8658 4.17458 -1.11143 0
M  V30 998 C 99.0008 5.29135 -0.467916 0
M  V30 999 C 98.0398 5.93343 -1.50369 0
M  V30 1000 N 97.1768 6.96516 -0.883706 0
M  V30 1001 H 102.017 2.53709 -1.5632 0
M  V30 1002 H 99.5538 1.24616 -0.781625 0
M  V30 1003 H 101.512 4.16033 0.311771 0
M  V30 1004 H 100.142 3.12781 0.797992 0
M  V30 1005 H 99.1938 3.45101 -1.60029 0
M  V30 1006 H 100.506 4.61307 -1.89731 0
M  V30 1007 H 99.6598 6.06684 -0.0436871 0
M  V30 1008 H 98.3988 4.86443 0.349864 0
M  V30 1009 H 97.4038 5.14517 -1.93784 0
M  V30 1010 H 98.6288 6.38114 -2.32352 0
M  V30 1011 H 96.5748 6.55943 -0.086595 0
M  V30 1012 H 96.4918 7.38723 -1.607 0
M  V30 1013 H 97.7598 7.77993 -0.484543 0
M  V30 1014 N 101.989 0.842826 1.3317 0
M  V30 1015 C 102.919 0.294028 2.31641 0
M  V30 1016 C 103.9 -0.600401 1.59151 0
M  V30 1017 O 105.085 -0.523124 1.87022 0
M  V30 1018 C 102.215 -0.528416 3.43257 0
M  V30 1019 C 101.169 0.27056 4.27144 0
M  V30 1020 C 100.495 -0.675881 5.30411 0
M  V30 1021 C 101.795 1.48981 5.00602 0
M  V30 1022 H 103.489 1.11681 2.77791 0
M  V30 1023 H 101.035 0.538478 1.33553 0
M  V30 1024 H 102.988 -0.922674 4.11175 0
M  V30 1025 H 101.712 -1.38445 2.95805 0
M  V30 1026 H 100.371 0.646427 3.60856 0
M  V30 1027 H 100.019 -1.52842 4.79216 0
M  V30 1028 H 99.7189 -0.145374 5.8742 0
M  V30 1029 H 101.243 -1.06757 6.01195 0
M  V30 1030 H 102.657 1.16849 5.61266 0
M  V30 1031 H 101.054 1.95739 5.6728 0
M  V30 1032 H 102.124 2.25746 4.29147 0
M  V30 1033 N 103.467 -1.45747 0.599634 0
M  V30 1034 C 104.713 -2.03153 0.100263 0
M  V30 1035 C 105.068 -1.46073 -1.25221 0
M  V30 1036 O 104.361 -0.622878 -1.81193 0
M  V30 1037 C 104.555 -3.57399 -0.00602758 0
M  V30 1038 C 104.384 -4.2944 1.3346 0
M  V30 1039 C 103.154 -4.6768 1.91321 0
M  V30 1040 C 105.352 -4.61905 2.2616 0
M  V30 1041 N 103.334 -5.24544 3.18946 0
M  V30 1042 C 104.705 -5.19518 3.3838 0
M  V30 1043 C 106.76 -4.43841 2.25631 0
M  V30 1044 C 105.463 -5.60972 4.50226 0
M  V30 1045 C 107.489 -4.86322 3.36518 0
M  V30 1046 C 106.851 -5.44021 4.4746 0
M  V30 1047 H 102.95 -0.777911 0.0798696 0
M  V30 1048 H 105.534 -1.77674 0.796244 0
M  V30 1049 H 103.705 -3.82556 -0.671212 0
M  V30 1050 H 105.437 -4.01457 -0.51133 0
M  V30 1051 H 102.192 -4.5098 1.44617 0
M  V30 1052 H 102.616 -5.57483 3.84112 0
M  V30 1053 H 107.258 -3.98552 1.41123 0
M  V30 1054 H 104.976 -6.0523 5.35464 0
M  V30 1055 H 108.562 -4.74084 3.37247 0
M  V30 1056 H 107.442 -5.76289 5.31846 0
M  V30 1057 N 104.945 -0.338344 -1.53925 0
M  V30 1058 C 105.908 0.508299 -2.23493 0
M  V30 1059 C 106.908 1.03175 -1.23335 0
M  V30 1060 O 108.098 0.921826 -1.47811 0
M  V30 1061 C 105.23 1.70754 -2.95052 0
M  V30 1062 H 106.423 -0.100058 -2.99733 0
M  V30 1063 H 103.976 -0.0896198 -1.56043 0
M  V30 1064 H 104.711 2.35474 -2.22986 0
M  V30 1065 H 104.496 1.33946 -3.68512 0
M  V30 1066 H 105.986 2.30818 -3.48013 0
M  V30 1067 N 106.423 1.57458 -0.0668435 0
M  V30 1068 C 107.67 1.93301 0.603406 0
M  V30 1069 C 107.998 0.946486 1.69917 0
M  V30 1070 O 107.253 -0.0387021 1.95662 0
M  V30 1071 C 107.552 3.35784 1.22409 0
M  V30 1072 C 107.218 4.50179 0.254955 0
M  V30 1073 C 105.88 4.81199 -0.0116746 0
M  V30 1074 C 108.232 5.19598 -0.408338 0
M  V30 1075 C 105.56 5.78978 -0.94877 0
M  V30 1076 C 107.912 6.18381 -1.33372 0
M  V30 1077 C 106.576 6.47821 -1.60887 0
M  V30 1078 H 105.846 0.707338 0.220802 0
M  V30 1079 H 108.493 1.91012 -0.136665 0
M  V30 1080 H 106.798 3.34515 2.03978 0
M  V30 1081 H 108.495 3.60804 1.74989 0
M  V30 1082 H 105.085 4.25983 0.472954 0
M  V30 1083 H 109.269 4.95832 -0.215456 0
M  V30 1084 H 104.525 6.00115 -1.16925 0
M  V30 1085 H 108.699 6.71277 -1.85367 0
M  V30 1086 H 106.326 7.23399 -2.33661 0
M  V30 1087 N 107.901 -0.206675 1.56239 0
M  V30 1088 C 109.129 -0.945345 1.8404 0
M  V30 1089 C 109.544 -1.77336 0.647885 0
M  V30 1090 O 108.901 -1.78425 -0.383511 0
M  V30 1091 C 108.952 -1.8509 3.10522 0
M  V30 1092 O 108.673 -1.05634 4.25174 0
M  V30 1093 C 110.174 -2.70222 3.51418 0
M  V30 1094 H 107.394 -0.276372 0.61144 0
M  V30 1095 H 109.938 -0.217417 2.03341 0
M  V30 1096 H 108.093 -2.53259 2.93153 0
M  V30 1097 H 108.507 -1.67238 4.97124 0
M  V30 1098 H 109.981 -3.29438 4.42916 0
M  V30 1099 H 110.458 -3.43358 2.73864 0
M  V30 1100 H 111.064 -2.07443 3.71278 0
M  V30 1101 N 109.379 -1.50304 -0.473955 0
M  V30 1102 C 110.627 -1.60832 -1.22382 0
M  V30 1103 C 110.948 -0.30939 -1.9253 0
M  V30 1104 O 110.218 0.67296 -1.83978 0
M  V30 1105 H 108.798 -0.592652 -0.454723 0
M  V30 1106 H 111.46 -1.87068 -0.546968 0
M  V30 1107 H 110.556 -2.41803 -1.97327 0
M  V30 1108 N 110.857 0.726932 -1.39834 0
M  V30 1109 C 112.268 1.30558 -1.3346 0
M  V30 1110 C 112.619 1.962 -0.00273003 0
M  V30 1111 O 111.744 1.96826 0.899371 0
M  V30 1112 C 112.339 2.37404 -2.41713 0
M  V30 1113 C 110.898 2.90921 -2.38835 0
M  V30 1114 C 110.045 1.64578 -2.2318 0
M  V30 1115 H 112.996 0.523862 -1.49804 0
M  V30 1116 H 113.017 3.17984 -2.08966 0
M  V30 1117 H 112.529 1.89599 -3.38635 0
M  V30 1118 H 110.63 3.42985 -1.45575 0
M  V30 1119 H 110.743 3.43487 -3.33997 0
M  V30 1120 H 109.107 1.89219 -1.70494 0
M  V30 1121 H 109.89 1.18814 -3.22084 0
M  V30 1122 N 112.336 1.25143 0.95797 0
M  V30 1123 C 113.584 1.09476 1.69881 0
M  V30 1124 C 113.905 -0.365502 1.91544 0
M  V30 1125 O 113.175 -1.25985 1.50015 0
M  V30 1126 H 111.755 0.402128 0.629525 0
M  V30 1127 H 114.417 1.57214 1.15194 0
M  V30 1128 H 113.513 1.60046 2.6794 0
M  V30 1129 N 113.814 -1.1601 1.06675 0
M  V30 1130 C 115.061 -1.86633 0.785781 0
M  V30 1131 C 115.389 -1.81929 -0.687896 0
M  V30 1132 O 114.644 -1.23253 -1.52011 0
M  V30 1133 C 114.943 -3.35547 1.23057 0
M  V30 1134 C 114.609 -3.60448 2.70902 0
M  V30 1135 C 113.271 -3.66954 3.11285 0
M  V30 1136 C 115.623 -3.7071 3.66365 0
M  V30 1137 C 112.951 -3.81225 4.45965 0
M  V30 1138 C 115.303 -3.86503 5.00797 0
M  V30 1139 C 113.967 -3.91252 5.40813 0
M  V30 1140 H 113.237 -0.682937 0.287538 0
M  V30 1141 H 115.884 -1.37146 1.33654 0
M  V30 1142 H 114.189 -3.87193 0.59907 0
M  V30 1143 H 115.886 -3.88583 0.990163 0
M  V30 1144 H 112.476 -3.56021 2.38636 0
M  V30 1145 H 116.66 -3.64991 3.36296 0
M  V30 1146 H 111.916 -3.83155 4.76447 0
M  V30 1147 H 116.09 -3.93385 5.74649 0
M  V30 1148 H 113.717 -4.02062 6.45174 0
M  V30 1149 N 115.292 -0.849877 -1.32721 0
M  V30 1150 C 116.222 -0.306308 -2.31482 0
M  V30 1151 C 117.203 0.591952 -1.59468 0
M  V30 1152 O 118.388 0.513199 -1.87296 0
M  V30 1153 C 115.518 0.510204 -3.43532 0
M  V30 1154 C 114.472 -0.293209 -4.26994 0
M  V30 1155 C 113.798 0.647743 -5.30762 0
M  V30 1156 C 115.098 -1.51634 -4.99804 0
M  V30 1157 H 116.792 -1.13153 -2.77195 0
M  V30 1158 H 114.338 -0.545553 -1.33266 0
M  V30 1159 H 116.291 0.900856 -4.11658 0
M  V30 1160 H 115.015 1.36874 -2.96535 0
M  V30 1161 H 113.674 -0.665555 -3.60508 0
M  V30 1162 H 113.322 1.50299 -4.8002 0
M  V30 1163 H 113.022 0.11422 -5.87489 0
M  V30 1164 H 114.546 1.03567 -6.01753 0
M  V30 1165 H 115.96 -1.19824 -5.60638 0
M  V30 1166 H 114.357 -1.98745 -5.66234 0
M  V30 1167 H 115.427 -2.28018 -4.27943 0
M  V30 1168 N 116.77 1.45427 -0.607355 0
M  V30 1169 C 117.703 2.27635 0.160482 0
M  V30 1170 C 118.681 1.37122 0.873857 0
M  V30 1171 O 119.865 1.66551 0.882775 0
M  V30 1172 C 116.992 3.15486 1.23231 0
M  V30 1173 C 116.038 4.21939 0.622097 0
M  V30 1174 S 116.871 5.32459 -0.569852 0
M  V30 1175 C 118.027 6.23879 0.502577 0
M  V30 1176 H 118.26 2.9241 -0.536983 0
M  V30 1177 H 115.793 1.49265 -0.394868 0
M  V30 1178 H 117.751 3.66659 1.84585 0
M  V30 1179 H 116.412 2.49977 1.90185 0
M  V30 1180 H 115.605 4.8333 1.42856 0
M  V30 1181 H 115.207 3.73906 0.0837063 0
M  V30 1182 H 117.499 6.63261 1.38171 0
M  V30 1183 H 118.442 7.0806 -0.0751759 0
M  V30 1184 H 118.85 5.58545 0.8178 0
M  V30 1185 N 118.248 0.346503 1.53744 0
M  V30 1186 C 119.473 -0.253074 2.0585 0
M  V30 1187 C 119.898 -1.43202 1.21962 0
M  V30 1188 O 119.256 -1.79783 0.234073 0
M  V30 1189 C 119.304 -0.643193 3.54817 0
M  V30 1190 O 118.408 -1.74286 3.73762 0
M  V30 1191 H 117.749 -0.0413583 0.662711 0
M  V30 1192 H 120.279 0.501574 1.98357 0
M  V30 1193 H 120.289 -0.919526 3.97503 0
M  V30 1194 H 118.964 0.218966 4.15323 0
M  V30 1195 H 117.541 -1.46356 3.42979 0
M  V30 1196 N 119.726 -1.57421 0.075193 0
M  V30 1197 C 120.975 -1.92794 -0.592731 0
M  V30 1198 C 121.288 -0.957478 -1.70563 0
M  V30 1199 O 122.494 -1.20417 -2.43335 0
M  V30 1200 C 120.95 -3.42495 -1.10569 0
M  V30 1201 C 120.558 -4.47994 -0.0236121 0
M  V30 1202 C 122.302 -3.86864 -1.74748 0
M  V30 1203 C 120.209 -5.88829 -0.550803 0
M  V30 1204 H 119.139 -0.719591 -0.225177 0
M  V30 1205 H 121.79 -1.82902 0.147978 0
M  V30 1206 H 120.172 -3.47471 -1.89947 0
M  V30 1207 H 121.346 -4.54637 0.751099 0
M  V30 1208 H 119.661 -4.13113 0.522159 0
M  V30 1209 H 122.258 -4.8947 -2.15229 0
M  V30 1210 H 122.601 -3.24417 -2.60882 0
M  V30 1211 H 123.134 -3.84504 -1.01986 0
M  V30 1212 H 119.873 -6.54929 0.273457 0
M  V30 1213 H 119.393 -5.85698 -1.29296 0
M  V30 1214 H 121.072 -6.38811 -1.02613 0
M  V30 1215 N 121.204 0.198386 -1.56346 0
M  V30 1216 C 122.167 1.22952 -1.93431 0
M  V30 1217 C 123.167 1.38611 -0.815092 0
M  V30 1218 O 124.357 1.36479 -1.08255 0
M  V30 1219 C 121.489 2.59946 -2.20546 0
M  V30 1220 H 122.682 0.912626 -2.85677 0
M  V30 1221 H 120.235 0.43977 -1.49986 0
M  V30 1222 H 120.97 2.96696 -1.30927 0
M  V30 1223 H 120.755 2.49953 -3.02102 0
M  V30 1224 H 122.245 3.3431 -2.50253 0
M  V30 1225 N 122.682 1.50554 0.465978 0
M  V30 1226 C 123.912 1.65323 1.23903 0
M  V30 1227 C 124.32 0.338051 1.86155 0
M  V30 1228 O 123.663 -0.690518 1.70228 0
M  V30 1229 C 123.725 2.69048 2.3844 0
M  V30 1230 C 123.389 4.12462 1.96784 0
M  V30 1231 C 124.386 4.98168 1.48745 0
M  V30 1232 C 122.071 4.58407 2.05349 0
M  V30 1233 C 124.065 6.27868 1.0982 0
M  V30 1234 C 121.752 5.88112 1.66035 0
M  V30 1235 C 122.75 6.72668 1.18349 0
M  V30 1236 O 122.438 7.99951 0.795825 0
M  V30 1237 H 122.17 0.558629 0.38067 0
M  V30 1238 H 124.724 1.97561 0.562022 0
M  V30 1239 H 122.954 2.32062 3.09328 0
M  V30 1240 H 124.643 2.72985 3.0039 0
M  V30 1241 H 125.409 4.63885 1.41546 0
M  V30 1242 H 121.288 3.92735 2.41414 0
M  V30 1243 H 124.832 6.93819 0.725293 0
M  V30 1244 H 120.729 6.21914 1.72895 0
M  V30 1245 H 121.497 8.13265 0.924222 0
M  V30 1246 N 124.16 -0.719506 1.40217 0
M  V30 1247 C 125.09 -1.8465 1.42922 0
M  V30 1248 C 126.071 -1.67599 0.29062 0
M  V30 1249 O 127.256 -1.87688 0.498677 0
M  V30 1250 C 124.386 -3.22565 1.28722 0
M  V30 1251 C 123.34 -3.54281 2.40144 0
M  V30 1252 C 122.666 -4.91298 2.11023 0
M  V30 1253 C 123.966 -3.55676 3.82481 0
M  V30 1254 H 125.66 -1.82644 2.37237 0
M  V30 1255 H 123.206 -0.877305 1.1419 0
M  V30 1256 H 125.159 -4.01095 1.29232 0
M  V30 1257 H 123.883 -3.25137 0.308811 0
M  V30 1258 H 122.542 -2.78088 2.38877 0
M  V30 1259 H 122.19 -4.90468 1.11582 0
M  V30 1260 H 121.89 -5.13485 2.8567 0
M  V30 1261 H 123.414 -5.72166 2.13209 0
M  V30 1262 H 124.828 -4.24254 3.85592 0
M  V30 1263 H 123.225 -3.89388 4.56614 0
M  V30 1264 H 124.295 -2.55144 4.12346 0
M  V30 1265 N 125.638 -1.25649 -0.95132 0
M  V30 1266 C 126.915 -1.01361 -1.67288 0
M  V30 1267 C 127.295 0.459135 -2.06046 0
M  V30 1268 O 126.643 1.43723 -1.7764 0
M  V30 1269 C 126.853 -1.95256 -2.89268 0
M  V30 1270 C 128.201 -2.23289 -3.61147 0
M  V30 1271 O 129.225 -1.93041 -2.99355 0
M  V30 1272 O 128.084 -2.74741 -4.72419 0
M  V30 1273 H 125.178 -0.38464 -0.732107 0
M  V30 1274 H 127.724 -1.36817 -1.00395 0
M  V30 1275 H 126.496 -2.94685 -2.57442 0
M  V30 1276 H 126.119 -1.60218 -3.6389 0
M  V30 1277 N 127.117 1.15442 -1.07289 0
M  V30 1278 C 128.528 1.67803 -0.818475 0
M  V30 1279 C 128.879 1.8489 0.656507 0
M  V30 1280 O 128.004 1.55176 1.50829 0
M  V30 1281 C 128.599 3.04805 -1.47917 0
M  V30 1282 C 127.158 3.54245 -1.27229 0
M  V30 1283 C 126.305 2.29986 -1.54925 0
M  V30 1284 H 129.256 0.996646 -1.23502 0
M  V30 1285 H 129.277 3.69702 -0.90005 0
M  V30 1286 H 128.789 2.92336 -2.55267 0
M  V30 1287 H 126.89 3.71956 -0.21899 0
M  V30 1288 H 127.003 4.35723 -1.99203 0
M  V30 1289 H 125.367 2.35496 -0.970242 0
M  V30 1290 H 126.15 2.20105 -2.63455 0
M  V30 1291 N 128.595 0.856903 1.32268 0
M  V30 1292 C 129.843 0.460474 1.96784 0
M  V30 1293 C 130.164 -0.987701 1.68135 0
M  V30 1294 O 129.434 -1.69058 0.989765 0
M  V30 1295 H 128.014 0.167289 0.728027 0
M  V30 1296 H 130.676 1.09383 1.61312 0
M  V30 1297 H 129.772 0.60739 3.06133 0
M  V30 1298 N 130.073 -1.45103 0.615059 0
M  V30 1299 C 131.021 -2.32331 -0.111791 0
M  V30 1300 C 132.015 -1.46409 -0.852102 0
M  V30 1301 O 133.221 -1.62849 -0.766821 0
M  V30 1302 H 129.596 -0.749993 -0.0549072 0
M  V30 1303 H 131.567 -2.91407 0.642225 0
M  V30 1304 C 130.316 -3.3015 -1.09071 0
M  V30 1305 H 129.639 -3.96265 -0.530485 0
M  V30 1306 H 131.079 -3.93898 -1.56908 0
M  V30 1307 C 129.538 -2.57875 -2.168 0
M  V30 1308 O 130.068 -2.36567 -3.24652 0
M  V30 1309 N 128.274 -2.17884 -1.92289 0
M  V30 1310 H 127.821 -2.35413 -1.04587 0
M  V30 1311 H 127.779 -1.6985 -2.64572 0
M  V30 1312 N 131.551 -0.354651 -1.53558 0
M  V30 1313 C 132.8 0.239504 -2.00273 0
M  V30 1314 C 133.113 1.50759 -1.24623 0
M  V30 1315 O 134.319 2.17968 -1.61871 0
M  V30 1316 C 132.775 0.477341 -3.5672 0
M  V30 1317 C 132.383 -0.775488 -4.41237 0
M  V30 1318 C 134.127 1.02975 -4.11821 0
M  V30 1319 C 132.034 -0.507838 -5.89216 0
M  V30 1320 H 130.964 0.0932743 -0.748208 0
M  V30 1321 H 133.615 -0.471701 -1.77334 0
M  V30 1322 H 131.997 1.24953 -3.7577 0
M  V30 1323 H 133.171 -1.54963 -4.33962 0
M  V30 1324 H 131.486 -1.25033 -3.97185 0
M  V30 1325 H 134.083 1.24513 -5.2 0
M  V30 1326 H 134.426 1.98862 -3.65731 0
M  V30 1327 H 134.959 0.317994 -3.96527 0
M  V30 1328 H 131.698 -1.43674 -6.39561 0
M  V30 1329 H 131.218 0.228011 -5.99366 0
M  V30 1330 H 132.897 -0.129238 -6.46871 0
M  V30 1331 N 133.029 1.57378 -0.0835403 0
M  V30 1332 C 133.939 2.16897 0.894021 0
M  V30 1333 C 134.955 1.13528 1.31861 0
M  V30 1334 O 136.131 1.45848 1.3889 0
M  V30 1335 C 133.196 2.72831 2.13925 0
M  V30 1336 C 132.257 3.91115 1.76997 0
M  V30 1337 C 131.49 4.44371 2.95584 0
M  V30 1338 O 131.713 3.96596 4.09961 0
M  V30 1339 O 130.647 5.35549 2.74719 0
M  V30 1340 H 134.473 3.00814 0.417679 0
M  V30 1341 H 132.058 1.48741 0.140181 0
M  V30 1342 H 133.94 3.0863 2.86924 0
M  V30 1343 H 132.615 1.91967 2.60635 0
M  V30 1344 H 131.522 3.60148 1.01214 0
M  V30 1345 H 132.855 4.73307 1.3506 0
M  V30 1346 N 134.507 -0.190092 1.56449 0
M  V30 1347 C 135.732 -0.929864 1.85387 0
M  V30 1348 C 136.157 -1.7585 0.667704 0
M  V30 1349 O 135.515 -1.77198 -0.383459 0
M  V30 1350 C 135.563 -1.79773 3.12593 0
M  V30 1351 O 134.667 -2.89713 2.93496 0
M  V30 1352 H 134.008 -0.261574 0.610307 0
M  V30 1353 H 136.538 -0.193896 2.03679 0
M  V30 1354 H 136.548 -2.20139 3.43515 0
M  V30 1355 H 135.223 -1.18892 3.98544 0
M  V30 1356 H 133.8 -2.53065 2.73884 0
M  V30 1357 N 135.985 -1.50799 -0.457987 0
M  V30 1358 C 137.262 -1.52968 -1.21902 0
M  V30 1359 C 137.642 -0.281906 -2.09209 0
M  V30 1360 O 136.99 0.734076 -2.16388 0
M  V30 1361 C 137.2 -2.8326 -2.03875 0
M  V30 1362 C 138.548 -3.34425 -2.6162 0
M  V30 1363 O 139.572 -2.8467 -2.14106 0
M  V30 1364 O 138.431 -4.21188 -3.48228 0
M  V30 1365 H 135.525 -0.614129 -0.553873 0
M  V30 1366 H 138.071 -1.63098 -0.468739 0
M  V30 1367 H 136.843 -3.65543 -1.39621 0
M  V30 1368 H 136.466 -2.76195 -2.8601 0
M  V30 1369 N 137.463 0.71206 -1.40597 0
M  V30 1370 C 138.393 1.83889 -1.43899 0
M  V30 1371 C 139.374 1.67442 -0.299504 0
M  V30 1372 O 140.559 1.87421 -0.508624 0
M  V30 1373 C 137.689 3.21877 -1.30431 0
M  V30 1374 C 136.643 3.53002 -2.42019 0
M  V30 1375 C 135.969 4.90172 -2.13626 0
M  V30 1376 C 137.269 3.53643 -3.84362 0
M  V30 1377 H 138.963 1.81383 -2.38203 0
M  V30 1378 H 136.509 0.871237 -1.14654 0
M  V30 1379 H 138.462 4.00404 -1.31357 0
M  V30 1380 H 137.186 3.24968 -0.326049 0
M  V30 1381 H 135.845 2.76818 -2.40349 0
M  V30 1382 H 135.493 4.89869 -1.14182 0
M  V30 1383 H 135.193 5.11962 -2.88389 0
M  V30 1384 H 136.717 5.71028 -2.1624 0
M  V30 1385 H 138.131 4.22203 -3.87837 0
M  V30 1386 H 136.528 3.86961 -4.58673 0
M  V30 1387 H 137.598 2.52954 -4.13693 0
M  V30 1388 N 138.941 1.26152 0.944643 0
M  V30 1389 C 139.873 1.03199 2.04652 0
M  V30 1390 C 140.886 -0.00642356 1.62799 0
M  V30 1391 O 142.075 0.233263 1.76969 0
M  V30 1392 C 139.175 0.540111 3.34568 0
M  V30 1393 C 138.348 1.64697 4.05208 0
M  V30 1394 C 137.407 1.15374 5.13396 0
M  V30 1395 O 136.433 1.85013 5.38293 0
M  V30 1396 N 137.635 0.00031529 5.805 0
M  V30 1397 H 140.4 1.9808 2.2491 0
M  V30 1398 H 137.961 1.17491 1.11389 0
M  V30 1399 H 139.953 0.194401 4.04233 0
M  V30 1400 H 138.523 -0.315021 3.11009 0
M  V30 1401 H 137.743 2.16379 3.29506 0
M  V30 1402 H 139.031 2.3903 4.49157 0
M  V30 1403 H 138.429 -0.581336 5.62705 0
M  V30 1404 H 136.986 -0.286346 6.51171 0
M  V30 1405 N 140.419 -1.14872 1.07899 0
M  V30 1406 C 141.644 -1.90202 0.826926 0
M  V30 1407 C 142.069 -1.77774 -0.614664 0
M  V30 1408 O 141.427 -1.11431 -1.43013 0
M  V30 1409 C 141.475 -3.38352 1.24702 0
M  V30 1410 O 140.579 -4.10497 0.39575 0
M  V30 1411 H 139.92 -0.591968 0.300782 0
M  V30 1412 H 142.45 -1.45437 1.43907 0
M  V30 1413 H 142.46 -3.89156 1.22563 0
M  V30 1414 H 141.135 -3.46715 2.29698 0
M  V30 1415 H 139.712 -3.69796 0.480117 0
M  V30 1416 N 141.898 -0.863906 -1.31812 0
M  V30 1417 C 143.146 -0.470904 -1.96537 0
M  V30 1418 C 143.467 0.978771 -1.68657 0
M  V30 1419 O 142.737 1.6853 -0.998717 0
M  V30 1420 H 141.317 -0.171148 -0.72713 0
M  V30 1421 H 143.979 -1.10236 -1.60729 0
M  V30 1422 H 143.075 -0.623616 -3.05806 0
M  V30 1423 N 143.376 1.44774 -0.622745 0
M  V30 1424 C 144.339 2.29069 0.0774015 0
M  V30 1425 C 145.339 1.4059 0.780461 0
M  V30 1426 O 146.529 1.62551 0.626322 0
M  V30 1427 C 143.661 3.21974 1.12006 0
M  V30 1428 H 144.854 2.92459 -0.663901 0
M  V30 1429 H 142.407 1.51548 -0.382486 0
M  V30 1430 H 143.142 2.63417 1.89162 0
M  V30 1431 H 142.927 3.87168 0.619951 0
M  V30 1432 H 144.417 3.85318 1.60995 0
M  V30 1433 N 144.854 0.36279 1.53368 0
M  V30 1434 C 146.1 -0.228113 2.01513 0
M  V30 1435 C 146.433 -1.48648 1.2497 0
M  V30 1436 O 145.708 -1.91459 0.342616 0
M  V30 1437 C 145.991 -0.522884 3.56284 0
M  V30 1438 C 145.844 0.74892 4.43521 0
M  V30 1439 C 147.163 -1.32461 4.19693 0
M  V30 1440 H 144.282 -0.0814343 0.732487 0
M  V30 1441 H 146.924 0.48713 1.83649 0
M  V30 1442 H 145.074 -1.1322 3.71636 0
M  V30 1443 H 146.746 1.38648 4.39971 0
M  V30 1444 H 144.989 1.36986 4.11603 0
M  V30 1445 H 145.66 0.497667 5.49752 0
M  V30 1446 H 148.136 -0.809203 4.08156 0
M  V30 1447 H 147.012 -1.49961 5.28018 0
M  V30 1448 H 147.273 -2.33232 3.75573 0
M  V30 1449 N 146.332 -1.57332 0.0918853 0
M  V30 1450 C 147.295 -2.12708 -0.85369 0
M  V30 1451 C 148.295 -1.05561 -1.213 0
M  V30 1452 O 149.485 -1.31461 -1.14296 0
M  V30 1453 C 146.617 -2.64503 -2.15061 0
M  V30 1454 H 147.81 -2.97573 -0.3729 0
M  V30 1455 H 145.363 -1.55509 -0.157072 0
M  V30 1456 H 146.098 -1.83149 -2.67632 0
M  V30 1457 H 145.883 -3.4284 -1.90272 0
M  V30 1458 H 147.373 -3.07351 -2.82711 0
M  V30 1459 N 147.81 0.181792 -1.56548 0
M  V30 1460 C 149.058 0.89832 -1.81038 0
M  V30 1461 C 149.379 1.83232 -0.667164 0
M  V30 1462 O 148.649 1.93372 0.313673 0
M  V30 1463 H 147.229 0.33471 -0.667816 0
M  V30 1464 H 149.891 0.184116 -1.94028 0
M  V30 1465 H 148.987 1.4815 -2.74696 0
M  V30 1466 N 149.288 1.51039 0.449983 0
M  V30 1467 C 150.535 1.63081 1.20045 0
M  V30 1468 C 150.863 0.341024 1.91487 0
M  V30 1469 O 150.118 -0.674276 1.83717 0
M  V30 1470 C 150.417 2.77556 2.25161 0
M  V30 1471 C 150.083 4.17289 1.70823 0
M  V30 1472 C 148.745 4.55305 1.55725 0
M  V30 1473 C 151.097 5.04536 1.3074 0
M  V30 1474 C 148.425 5.78287 0.989999 0
M  V30 1475 C 150.777 6.28085 0.754482 0
M  V30 1476 C 149.441 6.64885 0.590308 0
M  V30 1477 H 148.711 0.596755 0.439277 0
M  V30 1478 H 151.358 1.85037 0.49333 0
M  V30 1479 H 149.663 2.49771 3.01863 0
M  V30 1480 H 151.36 2.84073 2.83026 0
M  V30 1481 H 147.95 3.8731 1.83546 0
M  V30 1482 H 152.134 4.75782 1.41229 0
M  V30 1483 H 147.39 6.05456 0.850451 0
M  V30 1484 H 151.564 6.95038 0.435324 0
M  V30 1485 H 149.191 7.60055 0.14862 0
M  V30 1486 N 150.766 -0.704594 1.40972 0
M  V30 1487 C 151.713 -1.81862 1.42109 0
M  V30 1488 C 152.683 -1.63781 0.276593 0
M  V30 1489 O 153.868 -1.84759 0.4763 0
M  V30 1490 C 151.008 -3.19669 1.30022 0
M  V30 1491 C 150.121 -3.49246 2.54267 0
M  V30 1492 C 149.256 -4.76618 2.3454 0
M  V30 1493 C 148.295 -4.99133 3.54306 0
M  V30 1494 N 147.432 -6.17726 3.33706 0
M  V30 1495 H 152.272 -1.80226 2.37324 0
M  V30 1496 H 149.809 -0.880238 1.17857 0
M  V30 1497 H 151.767 -3.99263 1.21018 0
M  V30 1498 H 150.397 -3.20506 0.384192 0
M  V30 1499 H 149.449 -2.64125 2.73756 0
M  V30 1500 H 150.761 -3.61788 3.43381 0
M  V30 1501 H 149.915 -5.64249 2.22952 0
M  V30 1502 H 148.654 -4.66305 1.42867 0
M  V30 1503 H 147.659 -4.09953 3.66359 0
M  V30 1504 H 148.884 -5.11311 4.4692 0
M  V30 1505 H 146.83 -6.08642 2.44725 0
M  V30 1506 H 146.747 -6.30995 4.16391 0
M  V30 1507 H 148.015 -7.08115 3.25873 0
M  V30 1508 N 152.244 -1.26651 -0.937939 0
M  V30 1509 C 153.174 -1.10993 -2.05433 0
M  V30 1510 C 154.155 -0.0142161 -1.70094 0
M  V30 1511 O 155.34 -0.186837 -1.93299 0
M  V30 1512 C 152.47 -0.745561 -3.39203 0
M  V30 1513 C 151.424 -1.79337 -3.88616 0
M  V30 1514 C 150.75 -1.28324 -5.19073 0
M  V30 1515 C 152.05 -3.19553 -4.13138 0
M  V30 1516 H 153.744 -2.0438 -2.1879 0
M  V30 1517 H 151.29 -0.984041 -1.05131 0
M  V30 1518 H 153.243 -0.622888 -4.16771 0
M  V30 1519 H 151.967 0.22401 -3.25831 0
M  V30 1520 H 150.626 -1.90477 -3.13231 0
M  V30 1521 H 150.274 -0.303414 -5.02084 0
M  V30 1522 H 149.974 -1.98369 -5.53103 0
M  V30 1523 H 151.498 -1.1733 -5.99221 0
M  V30 1524 H 152.912 -3.11471 -4.81309 0
M  V30 1525 H 151.309 -3.87218 -4.58457 0
M  V30 1526 H 152.379 -3.65368 -3.18801 0
M  V30 1527 N 153.722 1.14298 -1.08507 0
M  V30 1528 C 154.652 2.21542 -0.737646 0
M  V30 1529 C 155.633 1.67773 0.280377 0
M  V30 1530 O 156.818 1.93616 0.150521 0
M  V30 1531 C 153.948 3.46988 -0.147259 0
M  V30 1532 C 152.902 4.13789 -1.09374 0
M  V30 1533 C 152.228 5.33449 -0.365524 0
M  V30 1534 C 153.528 4.62208 -2.4323 0
M  V30 1535 H 155.222 2.5086 -1.6343 0
M  V30 1536 H 152.768 1.20576 -0.787243 0
M  V30 1537 H 154.721 4.21262 0.107808 0
M  V30 1538 H 153.445 3.17037 0.784538 0
M  V30 1539 H 152.104 3.4147 -1.33393 0
M  V30 1540 H 151.752 4.99759 0.57011 0
M  V30 1541 H 151.452 5.79088 -0.996512 0
M  V30 1542 H 152.976 6.10485 -0.118534 0
M  V30 1543 H 154.39 5.27952 -2.23472 0
M  V30 1544 H 152.787 5.18553 -3.02031 0
M  V30 1545 H 153.857 3.77224 -3.04681 0
M  V30 1546 N 155.201 0.870884 1.31352 0
M  V30 1547 C 156.447 0.492314 1.97352 0
M  V30 1548 C 156.802 -0.945174 1.67583 0
M  V30 1549 O 156.095 -1.65674 0.962423 0
M  V30 1550 C 156.289 0.687157 3.50732 0
M  V30 1551 C 156.118 2.14203 3.95407 0
M  V30 1552 C 154.888 2.78382 4.21701 0
M  V30 1553 C 157.086 3.1144 4.09279 0
M  V30 1554 N 155.068 4.14611 4.52737 0
M  V30 1555 C 156.439 4.32702 4.44037 0
M  V30 1556 C 158.494 3.07418 3.91661 0
M  V30 1557 C 157.197 5.50463 4.63015 0
M  V30 1558 C 159.223 4.24438 4.11833 0
M  V30 1559 C 158.585 5.44463 4.46923 0
M  V30 1560 H 154.684 0.229206 0.747655 0
M  V30 1561 H 157.268 1.12568 1.5886 0
M  V30 1562 H 155.439 0.083384 3.8831 0
M  V30 1563 H 157.171 0.276883 4.03752 0
M  V30 1564 H 153.926 2.29326 4.14375 0
M  V30 1565 H 154.35 4.84928 4.72413 0
M  V30 1566 H 158.992 2.15732 3.6362 0
M  V30 1567 H 156.71 6.42666 4.89904 0
M  V30 1568 H 160.296 4.2278 3.99685 0
M  V30 1569 H 159.176 6.33504 4.62214 0
M  V30 1570 N 156.679 -1.44442 0.630414 0
M  V30 1571 C 157.928 -2.01267 0.132073 0
M  V30 1572 C 158.241 -1.50172 -1.25331 0
M  V30 1573 O 159.447 -1.9912 -1.84562 0
M  V30 1574 C 157.903 -3.59422 0.185362 0
M  V30 1575 C 157.511 -4.19514 1.57201 0
M  V30 1576 C 159.255 -4.23724 -0.256553 0
M  V30 1577 C 157.162 -5.69891 1.58045 0
M  V30 1578 H 156.092 -0.752619 0.0456092 0
M  V30 1579 H 158.743 -1.65666 0.789106 0
M  V30 1580 H 157.125 -3.92318 -0.538759 0
M  V30 1581 H 158.299 -3.98156 2.31966 0
M  V30 1582 H 156.614 -3.67496 1.95795 0
M  V30 1583 H 159.211 -5.34019 -0.269767 0
M  V30 1584 H 159.554 -3.96013 -1.28372 0
M  V30 1585 H 160.087 -3.95629 0.41505 0
M  V30 1586 H 156.826 -6.02336 2.58597 0
M  V30 1587 H 156.346 -5.93373 0.875725 0
M  V30 1588 H 158.025 -6.33515 1.31408 0
M  V30 1589 N 158.157 -0.370918 -1.53173 0
M  V30 1590 C 159.087 0.464847 -2.28826 0
M  V30 1591 C 160.068 1.07936 -1.31468 0
M  V30 1592 O 161.253 1.0956 -1.60344 0
M  V30 1593 C 158.383 1.60196 -3.08147 0
M  V30 1594 C 157.337 1.11443 -4.13237 0
M  V30 1595 C 156.663 2.3422 -4.80672 0
M  V30 1596 C 157.963 0.195384 -5.21934 0
M  V30 1597 H 159.657 -0.166329 -2.98938 0
M  V30 1598 H 157.203 -0.0814359 -1.4377 0
M  V30 1599 H 159.156 2.19332 -3.59822 0
M  V30 1600 H 157.88 2.26045 -2.35735 0
M  V30 1601 H 156.539 0.545727 -3.62515 0
M  V30 1602 H 156.187 2.98537 -4.04827 0
M  V30 1603 H 155.887 2.02269 -5.51689 0
M  V30 1604 H 157.411 2.94032 -5.35143 0
M  V30 1605 H 158.825 0.694375 -5.69079 0
M  V30 1606 H 157.222 -0.0335027 -6.00091 0
M  V30 1607 H 158.292 -0.760961 -4.78892 0
M  V30 1608 N 159.635 1.57281 -0.100228 0
M  V30 1609 C 160.565 2.17328 0.853857 0
M  V30 1610 C 161.546 1.10804 1.2906 0
M  V30 1611 O 162.731 1.38963 1.35657 0
M  V30 1612 C 159.861 2.75772 2.11109 0
M  V30 1613 C 158.815 3.87713 1.81279 0
M  V30 1614 C 158.141 4.32882 3.13874 0
M  V30 1615 C 159.441 5.10677 1.09574 0
M  V30 1616 H 161.135 2.97305 0.353545 0
M  V30 1617 H 158.681 1.43009 0.168612 0
M  V30 1618 H 160.634 3.16433 2.78296 0
M  V30 1619 H 159.358 1.93057 2.63432 0
M  V30 1620 H 158.017 3.476 1.16489 0
M  V30 1621 H 157.665 3.47051 3.64095 0
M  V30 1622 H 157.365 5.08358 2.94696 0
M  V30 1623 H 158.889 4.7618 3.82211 0
M  V30 1624 H 160.303 5.48474 1.66879 0
M  V30 1625 H 158.7 5.91615 1.00557 0
M  V30 1626 H 159.77 4.84835 0.0793299 0
M  V30 1627 N 161.113 -0.173488 1.56642 0
M  V30 1628 C 162.043 -1.2171 1.99271 0
M  V30 1629 C 163.024 -1.46289 0.867959 0
M  V30 1630 O 164.209 -1.5766 1.13388 0
M  V30 1631 C 161.339 -2.55651 2.35074 0
M  V30 1632 C 160.293 -2.45645 3.50489 0
M  V30 1633 C 159.619 -3.84056 3.72028 0
M  V30 1634 C 160.919 -1.96302 4.84007 0
M  V30 1635 H 162.613 -0.86275 2.867 0
M  V30 1636 H 160.159 -0.413571 1.37933 0
M  V30 1637 H 162.112 -3.2886 2.63494 0
M  V30 1638 H 160.836 -2.92869 1.44552 0
M  V30 1639 H 159.495 -1.7489 3.22194 0
M  V30 1640 H 159.143 -4.18664 2.788 0
M  V30 1641 H 158.843 -3.7823 4.49684 0
M  V30 1642 H 160.367 -4.58854 4.02846 0
M  V30 1643 H 161.781 -2.59284 5.11317 0
M  V30 1644 H 160.178 -2.01429 5.65284 0
M  V30 1645 H 161.248 -0.917226 4.76146 0
M  V30 1646 N 162.591 -1.51276 -0.441967 0
M  V30 1647 C 163.554 -1.7167 -1.51862 0
M  V30 1648 C 164.554 -0.586793 -1.49711 0
M  V30 1649 O 165.744 -0.854276 -1.51815 0
M  V30 1650 C 162.876 -1.76889 -2.91416 0
M  V30 1651 H 164.069 -2.67754 -1.35084 0
M  V30 1652 H 161.622 -1.41196 -0.670333 0
M  V30 1653 H 162.357 -0.826026 -3.13604 0
M  V30 1654 H 162.142 -2.59001 -2.94382 0
M  V30 1655 H 163.632 -1.94522 -3.69528 0
M  V30 1656 N 164.069 0.697108 -1.41344 0
M  V30 1657 C 165.297 1.48593 -1.43972 0
M  V30 1658 C 165.712 1.88747 -0.0445612 0
M  V30 1659 O 165.069 1.56682 0.935785 0
M  V30 1660 C 165.12 2.74946 -2.34706 0
M  V30 1661 O 164.841 2.36484 -3.68791 0
M  V30 1662 C 166.342 3.687 -2.46121 0
M  V30 1663 H 163.562 0.457964 -0.490418 0
M  V30 1664 H 166.106 0.858429 -1.8561 0
M  V30 1665 H 164.261 3.33937 -1.9638 0
M  V30 1666 H 164.675 3.17918 -4.17167 0
M  V30 1667 H 166.149 4.54145 -3.13777 0
M  V30 1668 H 166.626 4.13081 -1.49199 0
M  V30 1669 H 167.232 3.15613 -2.85076 0
M  V30 1670 N 165.547 1.27147 0.931209 0
M  V30 1671 C 166.477 1.12081 2.04842 0
M  V30 1672 C 167.458 0.0232364 1.70084 0
M  V30 1673 O 168.643 0.197085 1.93197 0
M  V30 1674 C 165.773 0.76354 3.38803 0
M  V30 1675 C 164.727 1.81396 3.87659 0
M  V30 1676 C 164.053 1.31075 5.18385 0
M  V30 1677 C 165.353 3.21739 4.11438 0
M  V30 1678 H 167.047 2.05537 2.17703 0
M  V30 1679 H 164.593 0.989603 1.04608 0
M  V30 1680 H 166.546 0.644982 4.16435 0
M  V30 1681 H 165.27 -0.206727 3.25945 0
M  V30 1682 H 163.929 1.92136 3.12217 0
M  V30 1683 H 163.577 0.330037 5.01916 0
M  V30 1684 H 163.277 2.013 5.52044 0
M  V30 1685 H 164.801 1.20506 5.98591 0
M  V30 1686 H 166.215 3.14019 4.79651 0
M  V30 1687 H 164.612 3.89644 4.56397 0
M  V30 1688 H 165.682 3.67054 3.16859 0
M  V30 1689 N 167.025 -1.13721 1.09112 0
M  V30 1690 C 168.271 -1.85198 0.826414 0
M  V30 1691 C 168.604 -1.83129 -0.646319 0
M  V30 1692 O 167.879 -1.2671 -1.47563 0
M  V30 1693 C 168.162 -3.33507 1.35812 0
M  V30 1694 C 168.015 -3.44108 2.89672 0
M  V30 1695 C 169.334 -4.28838 0.989256 0
M  V30 1696 H 166.453 -0.67243 0.301675 0
M  V30 1697 H 169.095 -1.33499 1.35197 0
M  V30 1698 H 167.245 -3.77666 0.911082 0
M  V30 1699 H 168.917 -3.08684 3.428 0
M  V30 1700 H 167.16 -2.85087 3.26967 0
M  V30 1701 H 167.831 -4.48388 3.21951 0
M  V30 1702 H 170.307 -3.92734 1.37475 0
M  V30 1703 H 169.183 -5.31051 1.38838 0
M  V30 1704 H 169.444 -4.4198 -0.102924 0
M  V30 1705 N 168.503 -0.877838 -1.30888 0
M  V30 1706 C 169.751 -0.491723 -1.96027 0
M  V30 1707 C 170.072 0.960827 -1.69685 0
M  V30 1708 O 169.342 1.67462 -1.01654 0
M  V30 1709 H 167.922 -0.17885 -0.725273 0
M  V30 1710 H 170.584 -1.11935 -1.59551 0
M  V30 1711 H 169.68 -0.656016 -3.05128 0
M  V30 1712 N 169.982 1.44106 -0.638065 0
M  V30 1713 C 170.912 2.33448 0.0494287 0
M  V30 1714 C 171.893 1.48606 0.827672 0
M  V30 1715 O 173.078 1.77308 0.792173 0
M  V30 1716 C 170.208 3.31771 1.02691 0
M  V30 1717 C 169.162 4.26485 0.359823 0
M  V30 1718 C 168.488 5.14729 1.44769 0
M  V30 1719 C 169.788 5.17056 -0.738296 0
M  V30 1720 H 171.482 2.91183 -0.696636 0
M  V30 1721 H 169.028 1.40014 -0.336456 0
M  V30 1722 H 170.981 3.93161 1.51666 0
M  V30 1723 H 169.705 2.7226 1.80395 0
M  V30 1724 H 168.364 3.66437 -0.10934 0
M  V30 1725 H 168.012 4.51566 2.21578 0
M  V30 1726 H 167.712 5.78913 1.00668 0
M  V30 1727 H 169.236 5.78991 1.93911 0
M  V30 1728 H 170.65 5.72342 -0.331354 0
M  V30 1729 H 169.047 5.89879 -1.10286 0
M  V30 1730 H 170.117 4.57652 -1.60258 0
M  V30 1731 N 171.46 0.379036 1.52974 0
M  V30 1732 C 172.39 -0.452706 2.29069 0
M  V30 1733 C 173.371 -1.07237 1.32039 0
M  V30 1734 O 174.556 -1.08708 1.60923 0
M  V30 1735 C 171.686 -1.5856 3.08992 0
M  V30 1736 C 170.64 -1.0925 4.13822 0
M  V30 1737 C 169.966 -2.31668 4.81907 0
M  V30 1738 C 171.266 -0.167702 5.22031 0
M  V30 1739 H 172.96 0.182181 2.98845 0
M  V30 1740 H 170.506 0.0890592 1.43724 0
M  V30 1741 H 172.459 -2.1742 3.6098 0
M  V30 1742 H 171.183 -2.24792 2.36931 0
M  V30 1743 H 169.842 -0.526494 3.628 0
M  V30 1744 H 169.49 -2.96386 4.06404 0
M  V30 1745 H 169.19 -1.9934 5.52754 0
M  V30 1746 H 170.714 -2.91189 5.36695 0
M  V30 1747 H 172.128 -0.664186 5.6944 0
M  V30 1748 H 170.525 0.0653265 6.00064 0
M  V30 1749 H 171.595 0.786347 4.78482 0
M  V30 1750 N 172.938 -1.57226 0.108567 0
M  V30 1751 C 173.868 -2.17778 -0.84232 0
M  V30 1752 C 174.849 -1.11487 -1.2847 0
M  V30 1753 O 176.034 -1.39681 -1.34918 0
M  V30 1754 C 173.164 -2.76888 -2.09644 0
M  V30 1755 C 172.118 -3.88669 -1.79221 0
M  V30 1756 C 171.444 -4.34541 -3.11574 0
M  V30 1757 C 172.744 -5.11251 -1.06864 0
M  V30 1758 H 174.438 -2.97489 -0.337774 0
M  V30 1759 H 171.984 -1.43097 -0.161025 0
M  V30 1760 H 173.937 -3.17904 -2.76614 0
M  V30 1761 H 172.661 -1.94451 -2.62405 0
M  V30 1762 H 171.32 -3.48213 -1.14644 0
M  V30 1763 H 170.968 -3.48977 -3.62249 0
M  V30 1764 H 170.668 -5.09914 -2.91996 0
M  V30 1765 H 172.192 -4.782 -3.7968 0
M  V30 1766 H 173.606 -5.49352 -1.63968 0
M  V30 1767 H 172.003 -5.9214 -0.974178 0
M  V30 1768 H 173.073 -4.8487 -0.0536168 0
M  V30 1769 N 174.416 0.165178 -1.56732 0
M  V30 1770 C 175.348 1.22911 -1.93457 0
M  V30 1771 C 176.361 1.40152 -0.828333 0
M  V30 1772 O 177.55 1.40046 -1.10677 0
M  V30 1773 C 174.65 2.59686 -2.17753 0
M  V30 1774 C 173.823 2.63663 -3.48999 0
M  V30 1775 C 172.882 3.81845 -3.62051 0
M  V30 1776 O 171.908 3.67559 -4.34613 0
M  V30 1777 N 173.11 4.98557 -2.97357 0
M  V30 1778 H 175.875 0.917118 -2.85323 0
M  V30 1779 H 173.436 0.354895 -1.57962 0
M  V30 1780 H 175.428 3.37225 -2.23743 0
M  V30 1781 H 173.998 2.83251 -1.32242 0
M  V30 1782 H 173.218 1.72173 -3.54612 0
M  V30 1783 H 174.506 2.63336 -4.35352 0
M  V30 1784 H 173.904 5.13065 -2.38287 0
M  V30 1785 H 172.461 5.73936 -3.08934 0
M  V30 1786 N 175.894 1.51508 0.433938 0
M  V30 1787 C 177.31 1.39759 0.770682 0
M  V30 1788 C 177.51 0.482594 1.95636 0
M  V30 1789 O 176.566 -0.0609691 2.52426 0
M  V30 1790 C 177.879 2.81851 1.04787 0
M  V30 1791 C 179.427 2.91025 1.1521 0
M  V30 1792 C 179.902 4.34032 1.46219 0
M  V30 1793 N 181.393 4.37154 1.53136 0
M  V30 1794 C 182.128 5.4484 1.78709 0
M  V30 1795 N 181.624 6.62682 2.02051 0
M  V30 1796 N 183.417 5.32324 1.80519 0
M  V30 1797 H 175.568 2.09548 -0.346892 0
M  V30 1798 H 177.831 0.943446 -0.0928074 0
M  V30 1799 H 177.537 3.50815 0.249304 0
M  V30 1800 H 177.411 3.21386 1.97461 0
M  V30 1801 H 179.798 2.22257 1.94128 0
M  V30 1802 H 179.879 2.54983 0.204281 0
M  V30 1803 H 179.523 5.03351 0.678274 0
M  V30 1804 H 179.453 4.6759 2.42212 0
M  V30 1805 H 181.944 3.52197 1.36987 0
M  V30 1806 H 182.257 7.40543 2.20943 0
M  V30 1807 H 180.602 6.65791 1.99366 0
M  V30 1808 H 183.793 4.39246 1.61805 0
M  V30 1809 H 183.966 6.16328 2.00111 0
M  V30 1810 N 177.372 -0.689602 1.41712 0
M  V30 1811 C 178.302 -1.81577 1.46806 0
M  V30 1812 C 179.283 -1.66945 0.326105 0
M  V30 1813 O 180.468 -1.86588 0.538377 0
M  V30 1814 C 177.598 -3.19762 1.35535 0
M  V30 1815 C 176.552 -3.49107 2.47605 0
M  V30 1816 C 175.878 -4.86711 2.21397 0
M  V30 1817 C 177.178 -3.47483 3.89939 0
M  V30 1818 H 178.872 -1.7757 2.41058 0
M  V30 1819 H 176.418 -0.852887 1.16025 0
M  V30 1820 H 178.371 -3.98263 1.3771 0
M  V30 1821 H 177.095 -3.24409 0.377708 0
M  V30 1822 H 175.754 -2.72959 2.44722 0
M  V30 1823 H 175.402 -4.8799 1.21961 0
M  V30 1824 H 175.102 -5.0731 2.96497 0
M  V30 1825 H 176.626 -5.67515 2.25297 0
M  V30 1826 H 178.04 -4.1598 3.94505 0
M  V30 1827 H 176.437 -3.79615 4.64771 0
M  V30 1828 H 177.507 -2.46341 4.17665 0
M  V30 1829 N 178.85 -1.27639 -0.924453 0
M  V30 1830 C 179.813 -1.10681 -2.00705 0
M  V30 1831 C 180.813 -0.0497823 -1.60723 0
M  V30 1832 O 182.003 -0.294654 -1.7169 0
M  V30 1833 C 179.135 -0.687164 -3.33902 0
M  V30 1834 H 180.328 -2.06817 -2.17179 0
M  V30 1835 H 177.881 -1.10473 -1.10569 0
M  V30 1836 H 178.616 0.275439 -3.23128 0
M  V30 1837 H 178.401 -1.45061 -3.6428 0
M  V30 1838 H 179.891 -0.590853 -4.13399 0
M  V30 1839 N 180.328 1.1314 -1.09713 0
M  V30 1840 C 181.291 2.16831 -0.742751 0
M  V30 1841 C 182.291 1.59159 0.229129 0
M  V30 1842 O 183.481 1.74199 0.00693237 0
M  V30 1843 C 180.613 3.40756 -0.0989168 0
M  V30 1844 H 181.806 2.49695 -1.66109 0
M  V30 1845 H 179.359 1.2802 -0.896699 0
M  V30 1846 H 180.094 3.13485 0.830514 0
M  V30 1847 H 179.879 3.83888 -0.798265 0
M  V30 1848 H 181.369 4.17386 0.133524 0
M  V30 1849 N 181.806 0.884767 1.30421 0
M  V30 1850 C 183.222 0.57874 1.48737 0
M  V30 1851 C 183.422 -0.883567 1.81095 0
M  V30 1852 O 182.478 -1.6648 1.89844 0
M  V30 1853 C 183.791 1.49171 2.61091 0
M  V30 1854 C 185.339 1.49532 2.74971 0
M  V30 1855 C 185.814 2.39421 3.90438 0
M  V30 1856 N 187.305 2.37383 3.97748 0
M  V30 1857 C 188.04 3.03647 4.86401 0
M  V30 1858 N 187.536 3.79136 5.79852 0
M  V30 1859 N 189.329 2.9288 4.79768 0
M  V30 1860 H 181.48 1.83075 1.0769 0
M  V30 1861 H 183.743 0.783637 0.533495 0
M  V30 1862 H 183.449 2.53291 2.44001 0
M  V30 1863 H 183.323 1.20113 3.57565 0
M  V30 1864 H 185.71 0.46163 2.91467 0
M  V30 1865 H 185.791 1.8262 1.79119 0
M  V30 1866 H 185.435 3.42874 3.74699 0
M  V30 1867 H 185.365 2.03649 4.85628 0
M  V30 1868 H 187.856 1.82525 3.30897 0
M  V30 1869 H 188.169 4.26789 6.4426 0
M  V30 1870 H 186.514 3.83243 5.79784 0
M  V30 1871 H 189.705 2.33433 4.05742 0
M  V30 1872 H 189.878 3.448 5.4865 0
M  V30 1873 N 183.284 -1.43765 0.645699 0
M  V30 1874 C 184.214 -2.33471 -0.0370477 0
M  V30 1875 C 185.195 -1.49042 -0.819779 0
M  V30 1876 O 186.38 -1.77726 -0.782758 0
M  V30 1877 C 183.51 -3.32311 -1.0093 0
M  V30 1878 C 182.464 -4.2667 -0.337201 0
M  V30 1879 C 181.79 -5.1549 -1.42037 0
M  V30 1880 C 183.09 -5.16657 0.765706 0
M  V30 1881 H 184.784 -2.90809 0.712069 0
M  V30 1882 H 182.33 -1.39834 0.343876 0
M  V30 1883 H 184.283 -3.9396 -1.49578 0
M  V30 1884 H 183.007 -2.73213 -1.78948 0
M  V30 1885 H 181.666 -3.66374 0.128771 0
M  V30 1886 H 181.314 -4.52735 -2.1918 0
M  V30 1887 H 181.014 -5.79438 -0.975966 0
M  V30 1888 H 182.538 -5.80012 -1.90838 0
M  V30 1889 H 183.952 -5.72158 0.361702 0
M  V30 1890 H 182.349 -5.89286 1.13413 0
M  V30 1891 H 183.419 -4.56796 1.62683 0
M  V30 1892 N 184.763 -0.387143 -1.52771 0
M  V30 1893 C 186.011 0.195349 -2.01154 0
M  V30 1894 C 186.332 1.475 -1.27549 0
M  V30 1895 O 185.602 1.91878 -0.394924 0
M  V30 1896 H 184.182 0.075178 -0.743207 0
M  V30 1897 H 186.844 -0.518337 -1.87881 0
M  V30 1898 H 185.94 0.407096 -3.09434 0
M  V30 1899 N 186.241 1.57166 -0.116904 0
M  V30 1900 C 187.487 1.95412 0.542405 0
M  V30 1901 C 187.82 1.00019 1.66463 0
M  V30 1902 O 187.095 0.0370346 1.94465 0
M  V30 1903 C 187.378 3.43615 1.07708 0
M  V30 1904 C 187.231 4.49781 -0.0415868 0
M  V30 1905 C 188.55 3.93616 1.96861 0
M  V30 1906 H 185.669 0.710543 0.195696 0
M  V30 1907 H 188.311 1.89027 -0.192038 0
M  V30 1908 H 186.461 3.49187 1.70296 0
M  V30 1909 H 188.133 4.56308 -0.676793 0
M  V30 1910 H 186.376 4.28033 -0.705019 0
M  V30 1911 H 187.047 5.50733 0.373717 0
M  V30 1912 H 189.523 3.90335 1.44146 0
M  V30 1913 H 188.399 4.97838 2.3119 0
M  V30 1914 H 188.66 3.34188 2.89432 0
M  V30 1915 N 187.719 -0.156864 1.56817 0
M  V30 1916 C 188.965 -0.872416 1.83076 0
M  V30 1917 C 189.298 -1.81261 0.697001 0
M  V30 1918 O 188.573 -1.92171 -0.30008 0
M  V30 1919 C 188.856 -1.65551 3.19789 0
M  V30 1920 C 188.709 -0.737467 4.43713 0
M  V30 1921 C 190.028 -2.62012 3.53606 0
M  V30 1922 H 187.147 -0.315715 0.665953 0
M  V30 1923 H 189.789 -0.138004 1.89498 0
M  V30 1924 H 187.939 -2.28159 3.14445 0
M  V30 1925 H 189.611 -0.123143 4.61136 0
M  V30 1926 H 187.854 -0.0464067 4.33775 0
M  V30 1927 H 188.525 -1.32122 5.35955 0
M  V30 1928 H 191.001 -2.09525 3.59497 0
M  V30 1929 H 189.877 -3.13861 4.50314 0
M  V30 1930 H 190.138 -3.42902 2.79053 0
M  V30 1931 N 189.197 -1.51736 -0.425897 0
M  V30 1932 C 190.425 -1.68794 -1.1965 0
M  V30 1933 C 190.84 -0.390164 -1.84725 0
M  V30 1934 O 190.197 0.632376 -1.71194 0
M  V30 1935 C 190.248 -2.81174 -2.27208 0
M  V30 1936 O 189.969 -4.05925 -1.64793 0
M  V30 1937 C 191.47 -3.09599 -3.17275 0
M  V30 1938 H 188.69 -0.566128 -0.360194 0
M  V30 1939 H 191.234 -1.98211 -0.503249 0
M  V30 1940 H 189.389 -2.54324 -2.9223 0
M  V30 1941 H 189.803 -4.68423 -2.35967 0
M  V30 1942 H 191.277 -3.91786 -3.88854 0
M  V30 1943 H 191.754 -2.22468 -3.78688 0
M  V30 1944 H 192.36 -3.38151 -2.57941 0
M  V30 1945 N 190.675 0.682077 -1.42076 0
M  V30 1946 C 191.923 1.4393 -1.41876 0
M  V30 1947 C 192.244 1.94971 -0.0335599 0
M  V30 1948 O 191.514 1.72591 0.926773 0
M  V30 1949 H 190.094 0.534085 -0.522267 0
M  V30 1950 H 192.756 0.806427 -1.77434 0
M  V30 1951 H 191.852 2.29588 -2.11414 0
M  V30 1952 N 192.153 1.28127 0.917671 0
M  V30 1953 C 193.083 1.14248 2.03641 0
M  V30 1954 C 194.064 0.0412748 1.7005 0
M  V30 1955 O 195.249 0.217566 1.92977 0
M  V30 1956 C 192.379 0.799431 3.37974 0
M  V30 1957 C 191.333 1.85497 3.85713 0
M  V30 1958 C 190.659 1.36565 5.16966 0
M  V30 1959 C 191.959 3.26085 4.08002 0
M  V30 1960 H 193.653 2.07835 2.15511 0
M  V30 1961 H 191.199 1.00064 1.03553 0
M  V30 1962 H 193.152 0.689114 4.15727 0
M  V30 1963 H 191.876 -0.172145 3.26146 0
M  V30 1964 H 190.535 1.95437 3.10161 0
M  V30 1965 H 190.183 0.383253 5.01538 0
M  V30 1966 H 189.883 2.07143 5.49878 0
M  V30 1967 H 191.407 1.26848 5.97279 0
M  V30 1968 H 192.821 3.19089 4.76293 0
M  V30 1969 H 191.218 3.94462 4.52238 0
M  V30 1970 H 192.288 3.70394 3.12948 0
M  V30 1971 N 193.631 -1.12557 1.10312 0
M  V30 1972 C 194.581 -2.16331 0.720076 0
M  V30 1973 C 195.565 -1.58616 -0.270115 0
M  V30 1974 O 196.757 -1.76823 -0.0790507 0
M  V30 1975 C 193.886 -3.42963 0.152113 0
M  V30 1976 C 192.972 -4.07663 1.16927 0
M  V30 1977 N 193.363 -4.47392 2.35953 0
M  V30 1978 C 191.661 -4.34425 1.0095 0
M  V30 1979 C 192.362 -4.97932 3.0073 0
M  V30 1980 N 191.338 -4.93358 2.28252 0
M  V30 1981 H 195.14 -2.44813 1.62616 0
M  V30 1982 H 192.654 -1.29449 0.980654 0
M  V30 1983 H 194.651 -4.16664 -0.14037 0
M  V30 1984 H 193.311 -3.1595 -0.748701 0
M  V30 1985 H 194.322 -4.39802 2.73486 0
M  V30 1986 H 190.999 -4.17177 0.164134 0
M  V30 1987 H 192.389 -5.38397 4.01969 0
M  V30 1988 N 195.109 -0.891671 -1.2995 0
M  V30 1989 C 196.039 -0.379797 -2.30391 0
M  V30 1990 C 197.02 0.540919 -1.6127 0
M  V30 1991 O 198.205 0.453352 -1.88834 0
M  V30 1992 C 195.335 0.400654 -3.44981 0
M  V30 1993 C 194.289 -0.428905 -4.25846 0
M  V30 1994 C 193.615 0.478557 -5.32554 0
M  V30 1995 C 194.915 -1.67458 -4.94727 0
M  V30 1996 H 196.609 -1.21914 -2.73454 0
M  V30 1997 H 194.155 -0.587675 -1.31462 0
M  V30 1998 H 196.108 0.769434 -4.14316 0
M  V30 1999 H 194.832 1.27371 -3.0074 0
M  V30 2000 H 193.491 -0.779911 -3.58208 0
M  V30 2001 H 193.139 1.34951 -4.84559 0
M  V30 2002 H 192.839 -0.0727433 -5.87555 0
M  V30 2003 H 194.363 0.843705 -6.04743 0
M  V30 2004 H 195.777 -1.376 -5.56542 0
M  V30 2005 H 194.174 -2.16659 -5.59624 0
M  V30 2006 H 195.244 -2.41518 -4.20473 0
M  V30 2007 N 196.587 1.43421 -0.653314 0
M  V30 2008 C 197.55 2.29182 0.0287951 0
M  V30 2009 C 198.55 1.42213 0.750465 0
M  V30 2010 O 199.74 1.63843 0.591701 0
M  V30 2011 C 196.872 3.24278 1.05151 0
M  V30 2012 H 198.065 2.90985 -0.725786 0
M  V30 2013 H 195.618 1.50702 -0.414545 0
M  V30 2014 H 196.353 2.6737 1.83532 0
M  V30 2015 H 196.138 3.88396 0.537687 0
M  V30 2016 H 197.628 3.88647 1.52786 0
M  V30 2017 N 198.065 0.39524 1.52563 0
M  V30 2018 C 198.975 -0.444232 2.30356 0
M  V30 2019 C 199.991 -1.06615 1.37511 0
M  V30 2020 O 201.167 -1.07067 1.70583 0
M  V30 2021 C 198.232 -1.55315 3.09964 0
M  V30 2022 C 197.293 -0.955734 4.18526 0
M  V30 2023 C 196.526 -2.01181 4.9433 0
M  V30 2024 O 196.749 -3.22781 4.70285 0
M  V30 2025 O 195.683 -1.62579 5.79527 0
M  V30 2026 H 199.509 0.189667 3.03107 0
M  V30 2027 H 197.094 0.1588 1.48554 0
M  V30 2028 H 198.976 -2.19724 3.59582 0
M  V30 2029 H 197.651 -2.17191 2.4002 0
M  V30 2030 H 196.558 -0.274743 3.7309 0
M  V30 2031 H 197.891 -0.381109 4.90722 0
M  V30 2032 N 199.544 -1.57102 0.125237 0
M  V30 2033 C 200.79 -1.95697 -0.532035 0
M  V30 2034 C 201.123 -1.009 -1.6593 0
M  V30 2035 O 200.398 -0.047347 -1.94442 0
M  V30 2036 C 200.681 -3.44181 -1.05884 0
M  V30 2037 C 200.534 -4.49752 0.0654392 0
M  V30 2038 C 201.853 -3.94655 -1.9477 0
M  V30 2039 H 198.972 -0.711571 -0.191925 0
M  V30 2040 H 201.614 -1.88923 0.20206 0
M  V30 2041 H 199.764 -3.50085 -1.68442 0
M  V30 2042 H 201.436 -4.55943 0.700982 0
M  V30 2043 H 199.679 -4.27653 0.727709 0
M  V30 2044 H 200.35 -5.50924 -0.344505 0
M  V30 2045 H 202.826 -3.91094 -1.42074 0
M  V30 2046 H 201.702 -4.99057 -2.28546 0
M  V30 2047 H 201.963 -3.35718 -2.87656 0
M  V30 2048 N 201.022 0.148545 -1.56898 0
M  V30 2049 C 202.262 0.86765 -1.85071 0
M  V30 2050 C 202.626 1.78417 -0.709317 0
M  V30 2051 O 203.827 2.54261 -0.872049 0
M  V30 2052 C 202.098 1.62306 -3.1842 0
M  V30 2053 S 203.657 2.3878 -3.68143 0
M  V30 2054 H 200.475 0.290174 -0.649092 0
M  V30 2055 H 203.077 0.127755 -1.95082 0
M  V30 2056 H 201.781 0.941192 -3.99462 0
M  V30 2057 H 201.312 2.4039 -3.1141 0
M  V30 2058 H 203.327 3.63942 -3.37285 0
M  V30 2059 N 202.5 1.5196 0.417844 0
M  V30 2060 C 203.45 1.7106 1.5074 0
M  V30 2061 C 204.434 0.564487 1.50673 0
M  V30 2062 O 205.626 0.821206 1.56797 0
M  V30 2063 C 202.755 1.85677 2.88754 0
M  V30 2064 C 201.841 3.06133 2.93502 0
M  V30 2065 N 202.232 4.28987 2.67962 0
M  V30 2066 C 200.53 3.05787 3.24669 0
M  V30 2067 C 201.231 5.10395 2.79055 0
M  V30 2068 N 200.207 4.45455 3.11561 0
M  V30 2069 H 204.009 2.63696 1.29775 0
M  V30 2070 H 201.523 1.49873 0.625436 0
M  V30 2071 H 203.52 1.97475 3.67164 0
M  V30 2072 H 202.18 0.942348 3.10725 0
M  V30 2073 H 203.191 4.57607 2.4252 0
M  V30 2074 H 199.868 2.2405 3.52289 0
M  V30 2075 H 201.258 6.18247 2.63097 0
M  V30 2076 N 203.978 -0.674533 1.42435 0
M  V30 2077 C 205.394 -0.98769 1.25367 0
M  V30 2078 C 205.594 -2.00879 0.158044 0
M  V30 2079 O 204.65 -2.48075 -0.470633 0
M  V30 2080 C 205.963 -1.49224 2.6106 0
M  V30 2081 C 207.511 -1.61 2.68417 0
M  V30 2082 C 207.986 -2.14852 4.04478 0
M  V30 2083 N 209.477 -2.22185 4.06434 0
M  V30 2084 C 210.212 -2.64928 5.08528 0
M  V30 2085 N 209.708 -3.07121 6.21006 0
M  V30 2086 N 211.501 -2.64679 4.95885 0
M  V30 2087 H 203.652 0.00152503 2.124 0
M  V30 2088 H 205.915 -0.0618434 0.945981 0
M  V30 2089 H 205.621 -0.816453 3.42092 0
M  V30 2090 H 205.495 -2.47094 2.84999 0
M  V30 2091 H 207.882 -2.27686 1.87732 0
M  V30 2092 H 207.963 -0.616195 2.48267 0
M  V30 2093 H 207.607 -1.48775 4.85622 0
M  V30 2094 H 207.537 -3.15024 4.2198 0
M  V30 2095 H 210.028 -1.92435 3.25234 0
M  V30 2096 H 210.341 -3.38423 6.94759 0
M  V30 2097 H 208.686 -3.04978 6.24511 0
M  V30 2098 H 211.877 -2.31078 4.07088 0
M  V30 2099 H 212.05 -2.9767 5.75584 0
M  V30 2100 N 205.456 -1.28612 -0.910864 0
M  V30 2101 C 206.388 -1.08589 -2.01844 0
M  V30 2102 C 207.401 -0.0367419 -1.62759 0
M  V30 2103 O 208.59 -0.280101 -1.76289 0
M  V30 2104 C 205.69 -0.628626 -3.33019 0
M  V30 2105 C 204.863 -1.75382 -4.00699 0
M  V30 2106 C 203.922 -1.28945 -5.10156 0
M  V30 2107 O 202.948 -1.9922 -5.33198 0
M  V30 2108 N 204.15 -0.154224 -5.80295 0
M  V30 2109 H 206.915 -2.03973 -2.19579 0
M  V30 2110 H 204.476 -1.20403 -1.08234 0
M  V30 2111 H 206.468 -0.301508 -4.03575 0
M  V30 2112 H 205.038 0.232451 -3.11735 0
M  V30 2113 H 204.258 -2.25039 -3.23653 0
M  V30 2114 H 205.546 -2.50854 -4.42662 0
M  V30 2115 H 204.944 0.43194 -5.64049 0
M  V30 2116 H 203.501 0.113599 -6.51701 0
M  V30 2117 N 206.934 1.1197 -1.10907 0
M  V30 2118 C 208.164 1.8713 -0.875553 0
M  V30 2119 C 208.572 1.8016 0.577843 0
M  V30 2120 O 207.915 1.17699 1.41042 0
M  V30 2121 C 207.977 3.37005 -1.2517 0
M  V30 2122 C 207.641 3.67748 -2.71313 0
M  V30 2123 C 208.638 3.65698 -3.69542 0
M  V30 2124 C 206.323 3.96928 -3.07821 0
M  V30 2125 C 208.317 3.92395 -5.023 0
M  V30 2126 C 206.004 4.23284 -4.40765 0
M  V30 2127 C 207.002 4.21005 -5.37814 0
M  V30 2128 O 206.69 4.46704 -6.68364 0
M  V30 2129 H 206.422 0.598786 -0.313737 0
M  V30 2130 H 208.976 1.42568 -1.47863 0
M  V30 2131 H 207.206 3.82146 -0.591741 0
M  V30 2132 H 208.895 3.93519 -0.994877 0
M  V30 2133 H 209.661 3.43211 -3.42682 0
M  V30 2134 H 205.54 3.97841 -2.32902 0
M  V30 2135 H 209.084 3.90531 -5.78041 0
M  V30 2136 H 204.981 4.45246 -4.67361 0
M  V30 2137 H 205.749 4.64299 -6.74069 0
M  V30 2138 N 208.412 0.89855 1.29475 0
M  V30 2139 C 209.823 0.572537 1.77705 0
M  V30 2140 C 210.174 -0.911778 1.73727 0
M  V30 2141 O 209.299 -1.71288 1.32247 0
M  V30 2142 C 209.894 1.03252 3.22683 0
M  V30 2143 C 208.453 0.757687 3.68695 0
M  V30 2144 C 207.6 1.20787 2.49612 0
M  V30 2145 H 210.551 1.08139 1.16153 0
M  V30 2146 H 210.572 0.367307 3.78723 0
M  V30 2147 H 210.084 2.11285 3.25546 0
M  V30 2148 H 208.185 -0.310079 3.71308 0
M  V30 2149 H 208.298 1.35476 4.59547 0
M  V30 2150 H 206.662 0.626888 2.46865 0
M  V30 2151 H 207.445 2.29622 2.55203 0
M  V30 2152 N 209.89 -1.43072 0.660911 0
M  V30 2153 C 210.837 -2.30785 -0.0259884 0
M  V30 2154 C 211.807 -1.45184 -0.806888 0
M  V30 2155 O 212.992 -1.74041 -0.781943 0
M  V30 2156 C 210.132 -3.30861 -0.981067 0
M  V30 2157 C 209.245 -4.31558 -0.195458 0
M  V30 2158 C 208.38 -5.18712 -1.14503 0
M  V30 2159 C 207.419 -6.11097 -0.350299 0
M  V30 2160 N 206.556 -6.90849 -1.25186 0
M  V30 2161 H 211.396 -2.88975 0.727846 0
M  V30 2162 H 208.933 -1.42353 0.370682 0
M  V30 2163 H 210.891 -3.87399 -1.54849 0
M  V30 2164 H 209.521 -2.74304 -1.70169 0
M  V30 2165 H 208.573 -3.77252 0.488374 0
M  V30 2166 H 209.885 -4.9701 0.422176 0
M  V30 2167 H 209.039 -5.79914 -1.78284 0
M  V30 2168 H 207.778 -4.53404 -1.79656 0
M  V30 2169 H 206.783 -5.48976 0.300808 0
M  V30 2170 H 208.008 -6.7845 0.296941 0
M  V30 2171 H 205.954 -6.28182 -1.89005 0
M  V30 2172 H 205.871 -7.52854 -0.688971 0
M  V30 2173 H 207.139 -7.5655 -1.87757 0
M  V30 2174 N 211.368 -0.403325 -1.52352 0
M  V30 2175 C 212.614 0.174605 -2.02047 0
M  V30 2176 C 212.947 1.45282 -1.28867 0
M  V30 2177 O 212.222 1.90483 -0.393257 0
M  V30 2178 C 212.505 0.428238 -3.57545 0
M  V30 2179 C 212.358 -0.866248 -4.4138 0
M  V30 2180 C 213.677 1.21287 -4.23057 0
M  V30 2181 H 210.796 0.0619851 -0.734389 0
M  V30 2182 H 213.438 -0.53565 -1.82293 0
M  V30 2183 H 211.588 1.03327 -3.74507 0
M  V30 2184 H 213.26 -1.50265 -4.3614 0
M  V30 2185 H 211.503 -1.47851 -4.07827 0
M  V30 2186 H 212.174 -0.643249 -5.48239 0
M  V30 2187 H 214.65 0.700703 -4.10158 0
M  V30 2188 H 213.526 1.35909 -5.31808 0
M  V30 2189 H 213.787 2.23193 -3.81625 0
M  V30 2190 N 212.846 1.57033 -0.133567 0
M  V30 2191 C 214.257 1.82593 0.389464 0
M  V30 2192 C 214.608 1.05156 1.6564 0
M  V30 2193 O 213.733 0.292644 2.14412 0
M  V30 2194 C 214.328 3.31204 0.713377 0
M  V30 2195 C 212.887 3.57393 1.18098 0
M  V30 2196 C 212.034 2.76598 0.197126 0
M  V30 2197 H 214.985 1.54598 -0.358481 0
M  V30 2198 H 215.006 3.46627 1.56939 0
M  V30 2199 H 214.518 3.87537 -0.2089 0
M  V30 2200 H 212.619 3.06433 2.11966 0
M  V30 2201 H 212.732 4.65915 1.11624 0
M  V30 2202 H 211.096 2.45257 0.687088 0
M  V30 2203 H 211.879 3.35697 -0.718504 0
M  V30 2204 N 214.325 -0.140222 1.56975 0
M  V30 2205 C 215.741 -0.493088 1.51792 0
M  V30 2206 C 215.941 -1.83013 0.843116 0
M  V30 2207 O 214.997 -2.49041 0.416493 0
M  V30 2208 C 216.31 -0.497144 2.96562 0
M  V30 2209 C 217.858 -0.582186 3.07538 0
M  V30 2210 C 218.333 -0.616838 4.53827 0
M  V30 2211 N 219.824 -0.678873 4.58198 0
M  V30 2212 C 220.559 -0.726782 5.68775 0
M  V30 2213 N 220.055 -0.733623 6.88905 0
M  V30 2214 N 221.848 -0.768179 5.56826 0
M  V30 2215 H 213.999 0.736108 1.99237 0
M  V30 2216 H 216.262 0.269182 0.90898 0
M  V30 2217 H 215.968 0.417217 3.49217 0
M  V30 2218 H 215.842 -1.33263 3.52875 0
M  V30 2219 H 218.229 -1.48697 2.54899 0
M  V30 2220 H 218.31 0.280581 2.54257 0
M  V30 2221 H 217.954 0.283812 5.07106 0
M  V30 2222 H 217.884 -1.49619 5.04898 0
M  V30 2223 H 220.375 -0.68061 3.7172 0
M  V30 2224 H 220.688 -0.772215 7.68932 0
M  V30 2225 H 219.033 -0.701389 6.91452 0
M  V30 2226 H 222.224 -0.760051 4.61888 0
M  V30 2227 H 222.397 -0.80205 6.43017 0
M  V30 2228 N 215.803 -1.52179 -0.40978 0
M  V30 2229 C 217.049 -1.66453 -1.15851 0
M  V30 2230 C 217.382 -0.392972 -1.90182 0
M  V30 2231 O 216.657 0.608579 -1.84734 0
M  V30 2232 C 216.94 -2.88612 -2.15349 0
M  V30 2233 C 216.793 -4.25815 -1.44918 0
M  V30 2234 C 218.112 -3.06294 -3.16026 0
M  V30 2235 H 215.231 -0.60575 -0.419805 0
M  V30 2236 H 217.873 -1.84732 -0.444314 0
M  V30 2237 H 216.023 -2.73158 -2.76255 0
M  V30 2238 H 217.695 -4.52995 -0.871365 0
M  V30 2239 H 215.938 -4.27247 -0.751159 0
M  V30 2240 H 216.609 -5.07337 -2.17516 0
M  V30 2241 H 219.085 -3.20641 -2.65195 0
M  V30 2242 H 217.961 -3.93283 -3.8291 0
M  V30 2243 H 218.222 -2.19579 -3.83715 0
M  V30 2244 N 217.281 0.66697 -1.42791 0
M  V30 2245 C 218.53 1.42278 -1.42968 0
M  V30 2246 C 218.843 1.9553 -0.0524489 0
M  V30 2247 O 220.049 2.71414 0.068363 0
M  V30 2248 C 218.505 2.57418 -2.51524 0
M  V30 2249 C 218.113 2.10832 -3.9529 0
M  V30 2250 C 219.857 3.34878 -2.60877 0
M  V30 2251 C 217.764 3.23101 -4.95338 0
M  V30 2252 H 216.694 0.534533 -0.531781 0
M  V30 2253 H 219.345 0.721302 -1.68729 0
M  V30 2254 H 217.727 3.29971 -2.18941 0
M  V30 2255 H 218.901 1.4538 -4.37266 0
M  V30 2256 H 217.216 1.46289 -3.89857 0
M  V30 2257 H 219.813 4.18505 -3.32802 0
M  V30 2258 H 220.156 3.81993 -1.6549 0
M  V30 2259 H 220.689 2.69398 -2.92693 0
M  V30 2260 H 217.428 2.80969 -5.9223 0
M  V30 2261 H 216.948 3.87309 -4.57987 0
M  V30 2262 H 218.627 3.88447 -5.17415 0
M  V30 2263 N 218.759 1.29093 0.90403 0
M  V30 2264 C 219.689 1.16401 2.02418 0
M  V30 2265 C 220.67 0.0593085 1.69997 0
M  V30 2266 O 221.855 0.238021 1.92736 0
M  V30 2267 C 218.985 0.835233 3.37107 0
M  V30 2268 C 217.939 1.89578 3.83724 0
M  V30 2269 C 217.265 1.42041 5.15489 0
M  V30 2270 C 218.565 3.30394 4.04521 0
M  V30 2271 H 220.259 2.10109 2.13295 0
M  V30 2272 H 217.805 1.01157 1.02486 0
M  V30 2273 H 219.758 0.733169 4.14973 0
M  V30 2274 H 218.482 -0.137543 3.2631 0
M  V30 2275 H 217.141 1.98715 3.08071 0
M  V30 2276 H 216.789 0.436426 5.01103 0
M  V30 2277 H 216.489 2.12964 5.4765 0
M  V30 2278 H 218.013 1.33176 5.959 0
M  V30 2279 H 219.427 3.24123 4.72882 0
M  V30 2280 H 217.824 3.99237 4.48029 0
M  V30 2281 H 218.894 3.73692 3.09002 0
M  V30 2282 N 220.237 -1.11381 1.11499 0
M  V30 2283 C 221.483 -1.83597 0.875423 0
M  V30 2284 C 221.838 -1.83048 -0.592555 0
M  V30 2285 O 221.131 -1.27304 -1.43193 0
M  V30 2286 C 221.325 -3.30026 1.37177 0
M  V30 2287 C 221.154 -3.44837 2.88647 0
M  V30 2288 C 219.924 -3.57825 3.56776 0
M  V30 2289 C 222.122 -3.3907 3.86699 0
M  V30 2290 N 220.104 -3.61113 4.96458 0
M  V30 2291 C 221.475 -3.48986 5.12454 0
M  V30 2292 C 223.53 -3.22605 3.7925 0
M  V30 2293 C 222.233 -3.44135 6.31636 0
M  V30 2294 C 224.259 -3.19072 4.97943 0
M  V30 2295 C 223.621 -3.29559 6.22551 0
M  V30 2296 H 219.72 -0.687044 0.37349 0
M  V30 2297 H 222.304 -1.33265 1.41946 0
M  V30 2298 H 220.475 -3.78874 0.854919 0
M  V30 2299 H 222.207 -3.90153 1.07529 0
M  V30 2300 H 218.962 -3.60414 3.07244 0
M  V30 2301 H 219.386 -3.66394 5.69284 0
M  V30 2302 H 224.028 -3.13382 2.83816 0
M  V30 2303 H 221.746 -3.52126 7.27347 0
M  V30 2304 H 225.332 -3.07498 4.93899 0
M  V30 2305 H 224.212 -3.26815 7.12855 0
M  V30 2306 N 221.715 -0.905404 -1.28997 0
M  V30 2307 C 222.645 -0.404212 -2.29975 0
M  V30 2308 C 223.626 0.523784 -1.61835 0
M  V30 2309 O 224.811 0.433298 -1.89304 0
M  V30 2310 C 221.941 0.364042 -3.45387 0
M  V30 2311 C 220.895 -0.474048 -4.25367 0
M  V30 2312 C 220.221 0.422045 -5.33032 0
M  V30 2313 C 221.521 -1.72696 -4.92923 0
M  V30 2314 H 223.215 -1.24807 -2.72146 0
M  V30 2315 H 220.761 -0.601585 -1.30832 0
M  V30 2316 H 222.714 0.725447 -4.15109 0
M  V30 2317 H 221.438 1.24174 -3.02074 0
M  V30 2318 H 220.097 -0.81786 -3.57361 0
M  V30 2319 H 219.745 1.29804 -4.85963 0
M  V30 2320 H 219.445 -0.135057 -5.87445 0
M  V30 2321 H 220.969 0.779517 -6.05604 0
M  V30 2322 H 222.383 -1.43495 -5.55051 0
M  V30 2323 H 220.78 -2.22582 -5.57295 0
M  V30 2324 H 221.85 -2.45964 -4.17887 0
M  V30 2325 N 223.193 1.4272 -0.668489 0
M  V30 2326 C 224.126 2.28111 0.0637898 0
M  V30 2327 C 225.104 1.40705 0.814912 0
M  V30 2328 O 226.288 1.70146 0.81134 0
M  V30 2329 C 223.415 3.20429 1.0974 0
M  V30 2330 C 222.461 4.24197 0.442579 0
M  V30 2331 S 223.294 5.29563 -0.795173 0
M  V30 2332 C 224.45 6.25449 0.237516 0
M  V30 2333 H 224.683 2.8987 -0.660521 0
M  V30 2334 H 222.216 1.47456 -0.457821 0
M  V30 2335 H 224.174 3.74158 1.68868 0
M  V30 2336 H 222.835 2.57818 1.79411 0
M  V30 2337 H 222.028 4.88954 1.22227 0
M  V30 2338 H 221.63 3.73925 -0.0749554 0
M  V30 2339 H 223.922 6.68524 1.09915 0
M  V30 2340 H 224.865 7.07104 -0.375421 0
M  V30 2341 H 225.273 5.61511 0.580167 0
M  V30 2342 N 224.671 0.411399 1.52136 0
M  V30 2343 C 225.917 -0.163888 2.02137 0
M  V30 2344 C 226.25 -1.44597 1.29636 0
M  V30 2345 O 225.525 -1.90272 0.403353 0
M  V30 2346 C 225.808 -0.40927 3.57767 0
M  V30 2347 C 225.661 0.889643 4.40914 0
M  V30 2348 C 226.98 -1.19042 4.23694 0
M  V30 2349 H 224.099 -0.0580896 0.734707 0
M  V30 2350 H 226.741 0.54531 1.82007 0
M  V30 2351 H 224.891 -1.0134 3.7505 0
M  V30 2352 H 226.563 1.52575 4.35337 0
M  V30 2353 H 224.806 1.50011 4.07037 0
M  V30 2354 H 225.477 0.672314 5.4789 0
M  V30 2355 H 227.953 -0.678942 4.10524 0
M  V30 2356 H 226.829 -1.33086 5.32522 0
M  V30 2357 H 227.09 -2.21166 3.82803 0
M  V30 2358 N 226.149 -1.5696 0.141893 0
M  V30 2359 C 227.059 -2.20066 -0.812905 0
M  V30 2360 C 228.075 -1.18344 -1.27557 0
M  V30 2361 O 229.251 -1.50902 -1.33381 0
M  V30 2362 C 226.316 -2.80583 -2.03652 0
M  V30 2363 C 225.377 -3.97414 -1.62359 0
M  V30 2364 C 224.61 -4.55036 -2.78887 0
M  V30 2365 O 224.833 -4.11538 -3.94959 0
M  V30 2366 O 223.767 -5.45376 -2.54653 0
M  V30 2367 H 227.593 -3.02157 -0.305746 0
M  V30 2368 H 225.178 -1.49159 -0.0848799 0
M  V30 2369 H 227.06 -3.19067 -2.75272 0
M  V30 2370 H 225.735 -2.01508 -2.5333 0
M  V30 2371 H 224.642 -3.63656 -0.877775 0
M  V30 2372 H 225.975 -4.77994 -1.17401 0
M  V30 2373 N 227.627 0.131896 -1.57047 0
M  V30 2374 C 228.557 1.16384 -2.02428 0
M  V30 2375 C 229.538 1.43936 -0.90644 0
M  V30 2376 O 230.723 1.54599 -1.17528 0
M  V30 2377 C 227.853 2.49328 -2.4177 0
M  V30 2378 C 226.807 2.36266 -3.56879 0
M  V30 2379 C 226.133 3.74057 -3.8208 0
M  V30 2380 C 227.433 1.834 -4.89042 0
M  V30 2381 H 229.127 0.786433 -2.88887 0
M  V30 2382 H 226.673 0.376855 -1.38981 0
M  V30 2383 H 228.626 3.21759 -2.7212 0
M  V30 2384 H 227.35 2.88934 -1.52266 0
M  V30 2385 H 226.009 1.66286 -3.26718 0
M  V30 2386 H 225.657 4.11125 -2.89803 0
M  V30 2387 H 225.357 3.66174 -4.59554 0
M  V30 2388 H 226.881 4.48012 -4.1487 0
M  V30 2389 H 228.295 2.45636 -5.18011 0
M  V30 2390 H 226.692 1.8637 -5.70426 0
M  V30 2391 H 227.762 0.790662 -4.7841 0
M  V30 2392 N 229.106 1.52395 0.401703 0
M  V30 2393 C 230.069 1.75636 1.47257 0
M  V30 2394 C 231.069 0.62628 1.48103 0
M  V30 2395 O 232.259 0.894227 1.49497 0
M  V30 2396 C 229.391 1.84553 2.86624 0
M  V30 2397 H 230.584 2.71241 1.27938 0
M  V30 2398 H 228.137 1.42923 0.632662 0
M  V30 2399 H 228.872 0.908882 3.11303 0
M  V30 2400 H 228.657 2.66715 2.87412 0
M  V30 2401 H 230.147 2.04251 3.64241 0
M  V30 2402 N 230.584 -0.659388 1.43143 0
M  V30 2403 C 231.833 -1.41518 1.43721 0
M  V30 2404 C 232.146 -1.95499 0.0628176 0
M  V30 2405 O 233.352 -2.71446 -0.0539683 0
M  V30 2406 C 231.808 -2.5608 2.52885 0
M  V30 2407 C 231.416 -2.08733 3.96402 0
M  V30 2408 C 233.16 -3.3349 2.62649 0
M  V30 2409 C 231.067 -3.20469 4.97045 0
M  V30 2410 H 229.997 -0.531705 0.534608 0
M  V30 2411 H 232.648 -0.712343 1.69109 0
M  V30 2412 H 231.03 -3.28805 2.20688 0
M  V30 2413 H 232.204 -1.43059 4.3803 0
M  V30 2414 H 230.519 -1.44219 3.90627 0
M  V30 2415 H 233.116 -4.16734 3.35017 0
M  V30 2416 H 233.459 -3.8111 1.67513 0
M  V30 2417 H 233.992 -2.67842 2.94118 0
M  V30 2418 H 230.731 -2.77824 5.93712 0
M  V30 2419 H 230.251 -3.84874 4.60034 0
M  V30 2420 H 231.93 -3.85698 5.19467 0
M  V30 2421 N 232.062 -1.29571 -0.897171 0
M  V30 2422 C 233.311 -1.1706 -1.64256 0
M  V30 2423 C 233.624 0.276476 -1.93636 0
M  V30 2424 O 234.83 0.52294 -2.66416 0
M  V30 2425 C 233.286 -2.0475 -2.95982 0
M  V30 2426 C 232.894 -3.54295 -2.74187 0
M  V30 2427 C 234.638 -2.0097 -3.73914 0
M  V30 2428 C 232.545 -4.34081 -4.01656 0
M  V30 2429 H 231.475 -0.43452 -0.616205 0
M  V30 2430 H 234.126 -1.54229 -0.994268 0
M  V30 2431 H 232.508 -1.60452 -3.62038 0
M  V30 2432 H 233.682 -4.06662 -2.1671 0
M  V30 2433 H 231.997 -3.59773 -2.09648 0
M  V30 2434 H 234.594 -2.57838 -4.68427 0
M  V30 2435 H 234.937 -0.990273 -4.0435 0
M  V30 2436 H 235.47 -2.43325 -3.14703 0
M  V30 2437 H 232.209 -5.36671 -3.76384 0
M  V30 2438 H 231.729 -3.86483 -4.58684 0
M  V30 2439 H 233.408 -4.44877 -4.69781 0
M  V30 2440 N 233.54 1.10788 -1.12088 0
M  V30 2441 C 234.788 1.8231 -0.872205 0
M  V30 2442 C 235.109 1.85419 0.603709 0
M  V30 2443 O 234.379 1.32963 1.43867 0
M  V30 2444 H 232.959 0.675137 -0.319686 0
M  V30 2445 H 235.621 1.34068 -1.41463 0
M  V30 2446 H 234.717 2.85955 -1.25045 0
M  V30 2447 N 235.018 0.912232 1.28515 0
M  V30 2448 C 236.243 0.559774 1.99703 0
M  V30 2449 C 236.668 -0.851393 1.67729 0
M  V30 2450 O 236.026 -1.56875 0.908834 0
M  V30 2451 C 236.074 0.773874 3.52198 0
M  V30 2452 O 235.178 -0.167842 4.12058 0
M  V30 2453 H 234.519 0.21723 0.627461 0
M  V30 2454 H 237.049 1.22725 1.63706 0
M  V30 2455 H 237.059 0.683386 4.02236 0
M  V30 2456 H 235.734 1.80261 3.74805 0
M  V30 2457 H 234.311 -0.0287509 3.72889 0
M  V30 2458 N 236.496 -1.42363 0.676048 0
M  V30 2459 C 237.773 -1.95183 0.127726 0
M  V30 2460 C 238.153 -1.61641 -1.35777 0
M  V30 2461 O 237.501 -0.913216 -2.09458 0
M  V30 2462 C 237.711 -3.46721 0.398199 0
M  V30 2463 C 239.059 -4.23427 0.315383 0
M  V30 2464 O 240.083 -3.54649 0.332016 0
M  V30 2465 O 238.942 -5.45888 0.25865 0
M  V30 2466 H 236.036 -0.826992 0.00359427 0
M  V30 2467 H 238.582 -1.52184 0.750864 0
M  V30 2468 H 237.354 -3.64344 1.4272 0
M  V30 2469 H 236.977 -3.96769 -0.256885 0
M  V30 2470 N 237.974 -0.419461 -1.51915 0
M  V30 2471 C 238.907 0.445751 -2.23804 0
M  V30 2472 C 239.885 1.03951 -1.25031 0
M  V30 2473 O 241.069 1.08541 -1.54114 0
M  V30 2474 C 238.196 1.61964 -2.97465 0
M  V30 2475 C 237.242 1.14828 -4.10751 0
M  V30 2476 S 238.075 0.104938 -5.35397 0
M  V30 2477 C 239.231 1.28391 -6.1259 0
M  V30 2478 H 239.464 -0.164627 -2.96844 0
M  V30 2479 H 236.997 -0.203833 -1.53049 0
M  V30 2480 H 238.955 2.29271 -3.40507 0
M  V30 2481 H 237.616 2.20139 -2.24048 0
M  V30 2482 H 236.809 2.02561 -4.61503 0
M  V30 2483 H 236.411 0.553712 -3.69878 0
M  V30 2484 H 238.703 2.20563 -6.40592 0
M  V30 2485 H 239.646 0.816724 -7.03374 0
M  V30 2486 H 240.054 1.51439 -5.43807 0
M  V30 2487 N 239.452 1.56882 -0.150215 0
M  V30 2488 C 240.384 2.14057 0.819286 0
M  V30 2489 C 241.397 1.09082 1.20851 0
M  V30 2490 O 242.586 1.36347 1.15203 0
M  V30 2491 C 239.686 2.65102 2.11127 0
M  V30 2492 C 238.859 3.94511 1.88891 0
M  V30 2493 C 237.918 4.30834 3.02107 0
M  V30 2494 O 236.944 4.99099 2.73659 0
M  V30 2495 N 238.146 3.90676 4.29363 0
M  V30 2496 H 240.911 2.97871 0.330618 0
M  V30 2497 H 238.472 1.61866 0.0332538 0
M  V30 2498 H 240.464 2.86411 2.85921 0
M  V30 2499 H 239.034 1.85994 2.51247 0
M  V30 2500 H 238.254 3.81795 0.981152 0
M  V30 2501 H 239.542 4.7907 1.71376 0
M  V30 2502 H 238.94 3.35677 4.55343 0
M  V30 2503 H 237.497 4.1703 5.00928 0
M  V30 2504 N 240.93 -0.123565 1.57115 0
M  V30 2505 C 241.84 -1.17074 2.033 0
M  V30 2506 C 242.856 -1.4561 0.952559 0
M  V30 2507 O 244.032 -1.56817 1.26374 0
M  V30 2508 C 241.097 -2.47857 2.42421 0
M  V30 2509 C 240.158 -2.26758 3.64526 0
M  V30 2510 C 239.391 -3.51305 4.01771 0
M  V30 2511 O 239.614 -4.5843 3.39409 0
M  V30 2512 O 238.548 -3.42578 4.94898 0
M  V30 2513 H 242.374 -0.808555 2.92739 0
M  V30 2514 H 239.959 -0.334027 1.45618 0
M  V30 2515 H 241.841 -3.2492 2.68338 0
M  V30 2516 H 240.516 -2.83558 1.5613 0
M  V30 2517 H 239.423 -1.47569 3.43765 0
M  V30 2518 H 240.756 -1.95963 4.51508 0
M  V30 2519 N 242.408 -1.52605 -0.393616 0
M  V30 2520 C 243.654 -1.67672 -1.14079 0
M  V30 2521 C 243.987 -0.413121 -1.89755 0
M  V30 2522 O 243.262 0.588952 -1.85369 0
M  V30 2523 C 243.545 -2.9088 -2.12276 0
M  V30 2524 C 243.398 -4.27329 -1.40394 0
M  V30 2525 C 244.717 -3.09628 -3.12759 0
M  V30 2526 H 241.836 -0.610168 -0.413356 0
M  V30 2527 H 244.478 -1.85193 -0.424696 0
M  V30 2528 H 242.628 -2.76073 -2.73342 0
M  V30 2529 H 244.3 -4.53894 -0.82327 0
M  V30 2530 H 242.543 -4.2802 -0.705801 0
M  V30 2531 H 243.214 -5.09615 -2.12123 0
M  V30 2532 H 245.69 -3.23436 -2.61779 0
M  V30 2533 H 244.566 -3.97322 -3.78717 0
M  V30 2534 H 244.827 -2.23637 -3.81365 0
M  V30 2535 N 243.887 0.651787 -1.4349 0
M  V30 2536 C 245.136 1.40754 -1.44469 0
M  V30 2537 C 245.449 1.95463 -0.0731845 0
M  V30 2538 O 246.655 2.71471 0.0395721 0
M  V30 2539 C 245.111 2.54735 -2.5424 0
M  V30 2540 C 244.719 2.06628 -3.97504 0
M  V30 2541 C 246.463 3.32092 -2.64414 0
M  V30 2542 C 244.37 3.17829 -4.98737 0
M  V30 2543 H 243.3 0.528862 -0.53742 0
M  V30 2544 H 245.951 0.703365 -1.69485 0
M  V30 2545 H 244.333 3.2763 -2.22428 0
M  V30 2546 H 245.507 1.40734 -4.38783 0
M  V30 2547 H 243.822 1.42146 -3.91387 0
M  V30 2548 H 246.419 4.14952 -3.37223 0
M  V30 2549 H 246.762 3.80217 -1.69532 0
M  V30 2550 H 247.295 2.66279 -2.95534 0
M  V30 2551 H 244.034 2.74671 -5.95177 0
M  V30 2552 H 243.554 3.82429 -4.62069 0
M  V30 2553 H 245.233 3.82937 -5.21505 0
M  V30 2554 N 245.365 1.30045 0.890287 0
M  V30 2555 C 246.613 1.18327 1.63839 0
M  V30 2556 C 246.934 -0.263455 1.93212 0
M  V30 2557 O 246.204 -1.17856 1.56482 0
M  V30 2558 H 244.784 0.434933 0.607324 0
M  V30 2559 H 247.446 1.631 1.06698 0
M  V30 2560 H 246.542 1.74024 2.59079 0
M  V30 2561 N 246.843 -1.10192 1.12674 0
M  V30 2562 C 248.068 -1.86523 0.906853 0
M  V30 2563 C 248.493 -1.80221 -0.538711 0
M  V30 2564 O 247.851 -1.17396 -1.38158 0
M  V30 2565 C 247.899 -3.32758 1.3894 0
M  V30 2566 O 247.003 -4.08449 0.5695 0
M  V30 2567 H 246.344 -0.578678 0.325619 0
M  V30 2568 H 248.874 -1.39203 1.49946 0
M  V30 2569 H 248.884 -3.83608 1.38958 0
M  V30 2570 H 247.559 -3.36661 2.44197 0
M  V30 2571 H 246.136 -3.67427 0.636528 0
M  V30 2572 N 248.321 -0.919034 -1.28029 0
M  V30 2573 C 249.284 -0.416182 -2.2539 0
M  V30 2574 C 250.284 0.460438 -1.54067 0
M  V30 2575 O 251.474 0.262744 -1.72207 0
M  V30 2576 C 248.606 0.402707 -3.38513 0
M  V30 2577 H 249.799 -1.27629 -2.71387 0
M  V30 2578 H 247.352 -0.698919 -1.39803 0
M  V30 2579 H 248.087 1.282 -2.97885 0
M  V30 2580 H 247.872 -0.225698 -3.9145 0
M  V30 2581 H 249.362 0.745191 -4.10897 0
M  V30 2582 N 249.799 1.42003 -0.683588 0
M  V30 2583 C 251.048 2.00638 -0.206681 0
M  V30 2584 C 251.361 1.5472 1.19671 0
M  V30 2585 O 252.567 2.05833 1.77045 0
M  V30 2586 C 251.023 3.58487 -0.318632 0
M  V30 2587 C 250.631 4.1339 -1.72663 0
M  V30 2588 C 252.375 4.24384 0.0991141 0
M  V30 2589 C 250.282 5.63633 -1.79087 0
M  V30 2590 H 249.212 0.750408 -0.0735107 0
M  V30 2591 H 251.863 1.62624 -0.850048 0
M  V30 2592 H 250.245 3.94047 0.392781 0
M  V30 2593 H 251.419 3.89273 -2.46583 0
M  V30 2594 H 249.734 3.59976 -2.09299 0
M  V30 2595 H 252.331 5.34652 0.0713833 0
M  V30 2596 H 252.674 4.00505 1.13586 0
M  V30 2597 H 253.207 3.93816 -0.561599 0
M  V30 2598 H 249.946 5.92323 -2.80774 0
M  V30 2599 H 249.466 5.89714 -1.09535 0
M  V30 2600 H 251.145 6.28201 -1.5483 0
M  V30 2601 N 251.277 0.427512 1.51691 0
M  V30 2602 C 252.24 -0.377132 2.26076 0
M  V30 2603 C 253.24 -0.958089 1.29141 0
M  V30 2604 O 254.43 -0.83408 1.52934 0
M  V30 2605 C 251.562 -1.53262 3.04506 0
M  V30 2606 H 252.755 0.27464 2.9864 0
M  V30 2607 H 250.308 0.180445 1.55255 0
M  V30 2608 H 251.043 -2.22072 2.36335 0
M  V30 2609 H 250.828 -1.12232 3.75694 0
M  V30 2610 H 252.318 -2.10135 3.60878 0
M  V30 2611 N 252.755 -1.56801 0.158532 0
M  V30 2612 C 254.004 -1.95665 -0.489702 0
M  V30 2613 C 254.317 -1.04654 -1.65248 0
M  V30 2614 O 255.523 -1.33146 -2.3661 0
M  V30 2615 C 253.979 -3.47874 -0.922582 0
M  V30 2616 C 253.587 -4.47489 0.213893 0
M  V30 2617 C 255.331 -3.95583 -1.53996 0
M  V30 2618 C 253.238 -5.90921 -0.237903 0
M  V30 2619 H 252.168 -0.730516 -0.186716 0
M  V30 2620 H 254.819 -1.81861 0.244722 0
M  V30 2621 H 253.201 -3.57051 -1.71261 0
M  V30 2622 H 254.375 -4.50017 0.991036 0
M  V30 2623 H 252.69 -4.09764 0.740407 0
M  V30 2624 H 255.287 -5.0019 -1.8898 0
M  V30 2625 H 255.63 -3.37789 -2.43319 0
M  V30 2626 H 256.163 -3.8937 -0.814611 0
M  V30 2627 H 252.902 -6.52559 0.620236 0
M  V30 2628 H 252.422 -5.91729 -0.980676 0
M  V30 2629 H 254.101 -6.43352 -0.686067 0
M  V30 2630 N 254.233 0.115231 -1.57178 0
M  V30 2631 C 255.181 1.16014 -2.01602 0
M  V30 2632 C 256.175 1.42653 -0.913587 0
M  V30 2633 O 257.381 1.42571 -1.09879 0
M  V30 2634 H 253.756 0.391252 -0.642204 0
M  V30 2635 H 255.727 0.758998 -2.88586 0
M  V30 2636 C 254.476 2.47767 -2.4394 0
M  V30 2637 H 253.799 2.28108 -3.28339 0
M  V30 2638 H 255.239 3.19432 -2.78818 0
M  V30 2639 C 253.698 3.10617 -1.30455 0
M  V30 2640 O 254.228 3.96846 -0.622585 0
M  V30 2641 N 252.434 2.70553 -1.06064 0
M  V30 2642 H 251.981 2.00527 -1.61699 0
M  V30 2643 H 251.939 3.12934 -0.303284 0
M  V30 2644 N 255.711 1.52812 0.385517 0
M  V30 2645 C 256.641 1.80808 1.47752 0
M  V30 2646 C 257.622 0.660318 1.5676 0
M  V30 2647 O 258.807 0.908246 1.71652 0
M  V30 2648 C 255.937 1.98008 2.85324 0
M  V30 2649 C 254.891 3.13709 2.91154 0
M  V30 2650 C 254.217 3.16169 4.31209 0
M  V30 2651 C 255.517 4.52709 2.60483 0
M  V30 2652 H 257.211 2.72253 1.24573 0
M  V30 2653 H 254.757 1.31003 0.597839 0
M  V30 2654 H 256.71 2.16176 3.61726 0
M  V30 2655 H 255.434 1.03255 3.09848 0
M  V30 2656 H 254.093 2.95329 2.17201 0
M  V30 2657 H 253.741 2.19092 4.52778 0
M  V30 2658 H 253.441 3.93894 4.36029 0
M  V30 2659 H 254.965 3.36496 5.09512 0
M  V30 2660 H 256.379 4.71173 3.26602 0
M  V30 2661 H 254.776 5.32528 2.76648 0
M  V30 2662 H 255.846 4.59186 1.55809 0
M  V30 2663 N 257.189 -0.644168 1.43834 0
M  V30 2664 C 258.119 -1.76814 1.52509 0
M  V30 2665 C 259.1 -1.65823 0.379052 0
M  V30 2666 O 260.285 -1.84781 0.597466 0
M  V30 2667 C 257.415 -3.15288 1.4564 0
M  V30 2668 C 256.369 -3.41053 2.58586 0
M  V30 2669 C 255.695 -4.79421 2.36769 0
M  V30 2670 C 256.995 -3.34902 4.00797 0
M  V30 2671 H 258.689 -1.69812 2.46586 0
M  V30 2672 H 256.235 -0.815542 1.1868 0
M  V30 2673 H 258.188 -3.93681 1.50311 0
M  V30 2674 H 256.912 -3.23043 0.480725 0
M  V30 2675 H 255.571 -2.65035 2.53282 0
M  V30 2676 H 255.219 -4.83863 1.37424 0
M  V30 2677 H 254.919 -4.9762 3.12487 0
M  V30 2678 H 256.443 -5.6006 2.43238 0
M  V30 2679 H 257.857 -4.03218 4.07539 0
M  V30 2680 H 256.254 -3.64637 4.76613 0
M  V30 2681 H 257.324 -2.32928 4.25291 0
M  V30 2682 N 258.668 -1.30515 -0.883378 0
M  V30 2683 C 259.893 -1.22487 -1.67367 0
M  V30 2684 C 260.318 0.208767 -1.86938 0
M  V30 2685 O 259.676 1.15015 -1.40148 0
M  V30 2686 C 259.724 -1.96041 -3.02655 0
M  V30 2687 O 258.828 -1.28859 -3.91751 0
M  V30 2688 H 258.169 -0.423573 -0.511353 0
M  V30 2689 H 260.699 -1.72362 -1.10239 0
M  V30 2690 H 260.709 -2.05124 -3.52687 0
M  V30 2691 H 259.384 -3.00307 -2.8773 0
M  V30 2692 H 257.961 -1.28141 -3.50192 0
M  V30 2693 N 260.146 1.09593 -1.13257 0
M  V30 2694 C 261.392 1.82003 -0.89458 0
M  V30 2695 C 261.725 1.85402 0.577906 0
M  V30 2696 O 261 1.32099 1.42759 0
M  V30 2697 C 261.283 3.28237 -1.48096 0
M  V30 2698 C 261.136 3.3312 -3.02244 0
M  V30 2699 C 262.455 4.24871 -1.14774 0
M  V30 2700 H 259.574 0.66077 -0.326424 0
M  V30 2701 H 262.216 1.28389 -1.40058 0
M  V30 2702 H 260.366 3.74024 -1.05062 0
M  V30 2703 H 262.038 2.95748 -3.54021 0
M  V30 2704 H 260.281 2.72756 -3.37323 0
M  V30 2705 H 260.952 4.3613 -3.38371 0
M  V30 2706 H 263.428 3.87361 -1.51957 0
M  V30 2707 H 262.304 5.25532 -1.58452 0
M  V30 2708 H 262.565 4.42058 -0.0611849 0
M  V30 2709 N 261.624 0.925811 1.2754 0
M  V30 2710 C 262.872 0.564138 1.94067 0
M  V30 2711 C 263.193 -0.897188 1.73134 0
M  V30 2712 O 262.463 -1.63573 1.07799 0
M  V30 2713 H 261.043 0.205645 0.718136 0
M  V30 2714 H 263.705 1.1778 1.55287 0
M  V30 2715 H 262.801 0.76881 3.02483 0
M  V30 2716 N 263.102 -1.41638 0.69111 0
M  V30 2717 C 264.518 -1.55435 0.362224 0
M  V30 2718 C 264.718 -1.66754 -1.13117 0
M  V30 2719 O 263.774 -1.64348 -1.91692 0
M  V30 2720 C 265.087 -2.79588 1.10684 0
M  V30 2721 C 266.635 -2.9338 1.09075 0
M  V30 2722 C 267.11 -4.20414 1.81703 0
M  V30 2723 N 268.601 -4.27362 1.7865 0
M  V30 2724 C 269.336 -5.24507 2.31689 0
M  V30 2725 N 268.832 -6.27708 2.93179 0
M  V30 2726 N 270.625 -5.16416 2.2197 0
M  V30 2727 H 262.776 -1.32536 1.65976 0
M  V30 2728 H 265.039 -0.639115 0.700168 0
M  V30 2729 H 264.745 -2.77419 2.16175 0
M  V30 2730 H 264.619 -3.70973 0.682545 0
M  V30 2731 H 267.006 -2.95067 0.0441238 0
M  V30 2732 H 267.087 -2.0318 1.55407 0
M  V30 2733 H 266.731 -4.19488 2.86343 0
M  V30 2734 H 266.661 -5.09578 1.32808 0
M  V30 2735 H 269.152 -3.53415 1.33815 0
M  V30 2736 H 269.465 -6.98217 3.31229 0
M  V30 2737 H 267.81 -6.28223 2.97255 0
M  V30 2738 H 271.001 -4.34716 1.73607 0
M  V30 2739 H 271.174 -5.91958 2.63609 0
M  V30 2740 N 264.58 -0.43555 -1.51462 0
M  V30 2741 C 265.829 0.133007 -2.01261 0
M  V30 2742 C 266.142 1.43942 -1.32439 0
M  V30 2743 O 267.348 2.09081 -1.73198 0
M  V30 2744 C 265.804 0.287581 -3.58749 0
M  V30 2745 C 265.412 -1.00829 -4.36506 0
M  V30 2746 C 267.156 0.810004 -4.167 0
M  V30 2747 C 265.063 -0.819454 -5.85695 0
M  V30 2748 H 263.993 0.0534822 -0.752101 0
M  V30 2749 H 266.644 -0.565038 -1.74584 0
M  V30 2750 H 265.026 1.04859 -3.81865 0
M  V30 2751 H 266.2 -1.77749 -4.25138 0
M  V30 2752 H 264.515 -1.45911 -3.89999 0
M  V30 2753 H 267.112 0.967743 -5.2587 0
M  V30 2754 H 267.455 1.79196 -3.75758 0
M  V30 2755 H 267.988 0.107357 -3.97655 0
M  V30 2756 H 264.727 -1.77374 -6.31046 0
M  V30 2757 H 264.247 -0.0900208 -5.99732 0
M  V30 2758 H 265.926 -0.471949 -6.45276 0
M  V30 2759 N 266.058 1.56714 -0.166846 0
M  V30 2760 C 267.469 1.83378 0.350646 0
M  V30 2761 C 267.82 1.08646 1.63372 0
M  V30 2762 O 266.945 0.338058 2.13743 0
M  V30 2763 C 267.54 3.32643 0.642963 0
M  V30 2764 C 266.099 3.59818 1.10491 0
M  V30 2765 C 265.246 2.76954 0.138411 0
M  V30 2766 H 268.197 1.53803 -0.391193 0
M  V30 2767 H 268.218 3.49878 1.49551 0
M  V30 2768 H 267.73 3.87007 -0.291055 0
M  V30 2769 H 265.831 3.1086 2.05418 0
M  V30 2770 H 265.944 4.68178 1.01716 0
M  V30 2771 H 264.308 2.4666 0.634911 0
M  V30 2772 H 265.091 3.34097 -0.789549 0
M  V30 2773 N 267.536 -0.106894 1.57237 0
M  V30 2774 C 268.466 -1.13148 2.04254 0
M  V30 2775 C 269.447 -1.42476 0.929224 0
M  V30 2776 O 270.632 -1.52709 1.19973 0
M  V30 2777 C 267.762 -2.4545 2.45706 0
M  V30 2778 C 266.716 -2.30558 3.60592 0
M  V30 2779 C 266.042 -3.67931 3.87983 0
M  V30 2780 C 267.342 -1.75597 4.91897 0
M  V30 2781 H 269.036 -0.740374 2.90101 0
M  V30 2782 H 266.582 -0.354696 1.39563 0
M  V30 2783 H 268.535 -3.17389 2.77205 0
M  V30 2784 H 267.259 -2.86475 1.56843 0
M  V30 2785 H 265.918 -1.61067 3.29322 0
M  V30 2786 H 265.566 -4.06462 2.96306 0
M  V30 2787 H 265.266 -3.58817 4.65322 0
M  V30 2788 H 266.79 -4.41356 4.21945 0
M  V30 2789 H 268.204 -2.37364 5.21854 0
M  V30 2790 H 266.601 -1.77272 5.73319 0
M  V30 2791 H 267.671 -0.714451 4.79608 0
M  V30 2792 N 269.014 -1.53014 -0.377408 0
M  V30 2793 C 270.26 -1.69821 -1.11948 0
M  V30 2794 C 270.615 -0.438581 -1.87335 0
M  V30 2795 O 269.908 0.568094 -1.82984 0
M  V30 2796 C 270.102 -2.87982 -2.11663 0
M  V30 2797 C 269.931 -4.25315 -1.46072 0
M  V30 2798 C 268.701 -4.90354 -1.21986 0
M  V30 2799 C 270.899 -5.06281 -0.904664 0
M  V30 2800 N 268.881 -6.11641 -0.526215 0
M  V30 2801 C 270.252 -6.19069 -0.339726 0
M  V30 2802 C 272.307 -4.91395 -0.8022 0
M  V30 2803 C 271.01 -7.18598 0.317669 0
M  V30 2804 C 273.036 -5.91187 -0.158606 0
M  V30 2805 C 272.398 -7.03289 0.39551 0
M  V30 2806 H 268.497 -0.674785 -0.395207 0
M  V30 2807 H 271.081 -1.90389 -0.407437 0
M  V30 2808 H 269.252 -2.68974 -2.80192 0
M  V30 2809 H 270.984 -2.93669 -2.78461 0
M  V30 2810 H 267.739 -4.49286 -1.49798 0
M  V30 2811 H 268.163 -6.76719 -0.195098 0
M  V30 2812 H 272.805 -4.04925 -1.21639 0
M  V30 2813 H 270.523 -8.04669 0.743836 0
M  V30 2814 H 274.109 -5.81744 -0.0804138 0
M  V30 2815 H 272.989 -7.79183 0.885648 0
M  V30 2816 N 270.492 0.636531 -1.44174 0
M  V30 2817 C 271.74 1.39343 -1.46383 0
M  V30 2818 C 272.061 1.94766 -0.0955715 0
M  V30 2819 O 271.331 1.75452 0.871395 0
M  V30 2820 H 269.911 0.517199 -0.538994 0
M  V30 2821 H 272.573 0.74957 -1.7991 0
M  V30 2822 H 271.669 2.22746 -2.18611 0
M  V30 2823 N 271.97 1.30982 0.876444 0
M  V30 2824 C 273.218 1.20058 1.62575 0
M  V30 2825 C 273.539 -0.242947 1.93481 0
M  V30 2826 O 272.809 -1.1619 1.57724 0
M  V30 2827 H 271.389 0.44135 0.602677 0
M  V30 2828 H 274.051 1.64222 1.04962 0
M  V30 2829 H 273.147 1.76762 2.57219 0
M  V30 2830 N 273.449 -1.08991 1.13837 0
M  V30 2831 C 274.695 -1.81526 0.90422 0
M  V30 2832 C 275.028 -1.85706 -0.568066 0
M  V30 2833 O 274.303 -1.32855 -1.42056 0
M  V30 2834 C 274.586 -3.27447 1.49835 0
M  V30 2835 C 274.439 -3.31512 3.04006 0
M  V30 2836 C 275.758 -4.24256 1.17025 0
M  V30 2837 H 272.877 -0.659029 0.329923 0
M  V30 2838 H 275.519 -1.27644 1.40737 0
M  V30 2839 H 273.669 -3.73462 1.07044 0
M  V30 2840 H 275.341 -2.93867 3.55584 0
M  V30 2841 H 273.584 -2.70963 3.38765 0
M  V30 2842 H 274.255 -4.34329 3.40679 0
M  V30 2843 H 276.731 -3.86549 1.54009 0
M  V30 2844 H 275.607 -5.24684 1.61237 0
M  V30 2845 H 275.868 -4.42019 0.0846274 0
M  V30 2846 N 274.927 -0.932562 -1.27047 0
M  V30 2847 C 275.857 -0.452902 -2.29066 0
M  V30 2848 C 276.838 0.489338 -1.62909 0
M  V30 2849 O 278.023 0.393046 -1.90181 0
M  V30 2850 C 275.153 0.290698 -3.46081 0
M  V30 2851 C 274.107 -0.564168 -4.24265 0
M  V30 2852 C 273.433 0.308886 -5.33807 0
M  V30 2853 C 274.733 -1.83112 -4.89149 0
M  V30 2854 H 276.427 -1.30552 -2.69437 0
M  V30 2855 H 273.973 -0.629201 -1.29526 0
M  V30 2856 H 275.926 0.637233 -4.16554 0
M  V30 2857 H 274.65 1.17738 -3.0464 0
M  V30 2858 H 273.309 -0.893477 -3.55545 0
M  V30 2859 H 272.957 1.19467 -4.88607 0
M  V30 2860 H 272.657 -0.259633 -5.87026 0
M  V30 2861 H 274.181 0.650884 -6.07121 0
M  V30 2862 H 275.595 -1.55236 -5.51883 0
M  V30 2863 H 273.992 -2.34353 -5.52448 0
M  V30 2864 H 275.062 -2.54772 -4.12576 0
M  V30 2865 N 276.405 1.4127 -0.698611 0
M  V30 2866 C 277.654 2.00408 -0.227949 0
M  V30 2867 C 277.967 1.55981 1.18023 0
M  V30 2868 O 279.173 2.07699 1.74852 0
M  V30 2869 C 277.629 3.58129 -0.356636 0
M  V30 2870 C 277.237 4.11536 -1.77037 0
M  V30 2871 C 278.981 4.24466 0.0540969 0
M  V30 2872 C 276.888 5.61701 -1.85055 0
M  V30 2873 H 275.818 0.749586 -0.0814657 0
M  V30 2874 H 278.469 1.61713 -0.867249 0
M  V30 2875 H 276.851 3.94442 0.350965 0
M  V30 2876 H 278.025 3.86636 -2.50698 0
M  V30 2877 H 276.34 3.57736 -2.13105 0
M  V30 2878 H 278.937 5.34698 0.0146723 0
M  V30 2879 H 279.28 4.01687 1.09332 0
M  V30 2880 H 279.813 3.93198 -0.603337 0
M  V30 2881 H 276.552 5.89312 -2.8704 0
M  V30 2882 H 276.072 5.88519 -1.15783 0
M  V30 2883 H 277.751 6.26524 -1.61484 0
M  V30 2884 N 277.883 0.443576 1.51229 0
M  V30 2885 C 279.111 -0.11929 2.06556 0
M  V30 2886 C 279.526 -1.35921 1.31038 0
M  V30 2887 O 278.883 -1.78675 0.371704 0
M  V30 2888 C 278.934 -0.435228 3.5887 0
M  V30 2889 O 278.655 0.755486 4.31537 0
M  V30 2890 C 280.156 -1.04808 4.30732 0
M  V30 2891 H 277.376 -0.0051584 0.67098 0
M  V30 2892 H 279.92 0.624453 1.94733 0
M  V30 2893 H 278.075 -1.12887 3.70588 0
M  V30 2894 H 278.489 0.483491 5.22267 0
M  V30 2895 H 279.963 -1.2191 5.3837 0
M  V30 2896 H 280.44 -2.03081 3.89429 0
M  V30 2897 H 281.046 -0.393637 4.23474 0
M  V30 2898 N 279.361 -1.56624 0.175154 0
M  V30 2899 C 280.61 -1.96173 -0.468921 0
M  V30 2900 C 280.923 -1.06401 -1.64128 0
M  V30 2901 O 282.129 -1.35648 -2.35185 0
M  V30 2902 C 280.585 -3.48833 -0.885633 0
M  V30 2903 C 280.193 -4.47237 0.261343 0
M  V30 2904 C 281.937 -3.97194 -1.49791 0
M  V30 2905 C 279.844 -5.9114 -0.175214 0
M  V30 2906 H 278.774 -0.732455 -0.178958 0
M  V30 2907 H 281.425 -1.81591 0.263997 0
M  V30 2908 H 279.807 -3.58848 -1.67464 0
M  V30 2909 H 280.981 -4.4894 1.03871 0
M  V30 2910 H 279.296 -4.08956 0.783827 0
M  V30 2911 H 281.893 -5.02167 -1.83665 0
M  V30 2912 H 282.236 -3.40351 -2.39722 0
M  V30 2913 H 282.769 -3.90212 -0.773267 0
M  V30 2914 H 279.508 -6.51865 0.689414 0
M  V30 2915 H 279.028 -5.92735 -0.91786 0
M  V30 2916 H 280.707 -6.44044 -0.617792 0
M  V30 2917 N 280.839 0.0985539 -1.57292 0
M  V30 2918 C 281.802 1.10402 -2.00858 0
M  V30 2919 C 282.802 1.33146 -0.901593 0
M  V30 2920 O 283.992 1.29318 -1.16716 0
M  V30 2921 C 281.124 2.45394 -2.36632 0
M  V30 2922 H 282.317 0.729099 -2.90902 0
M  V30 2923 H 279.87 0.343495 -1.52479 0
M  V30 2924 H 280.605 2.87769 -1.49531 0
M  V30 2925 H 280.39 2.30235 -3.17387 0
M  V30 2926 H 281.88 3.17718 -2.71007 0
M  V30 2927 N 282.317 1.53212 0.369288 0
M  V30 2928 C 283.594 1.59815 1.12776 0
M  V30 2929 C 283.974 0.403402 2.0721 0
M  V30 2930 O 283.322 -0.606667 2.20299 0
M  V30 2931 C 283.532 2.94664 1.87013 0
M  V30 2932 C 284.88 3.49109 2.41677 0
M  V30 2933 O 285.904 2.96669 1.97144 0
M  V30 2934 O 284.763 4.40775 3.23079 0
M  V30 2935 H 281.857 0.645376 0.517125 0
M  V30 2936 H 284.403 1.65553 0.37285 0
M  V30 2937 H 283.175 3.73061 1.18071 0
M  V30 2938 H 282.798 2.92401 2.69421 0
M  V30 2939 N 283.795 -0.628877 1.44509 0
M  V30 2940 C 285.023 -1.41554 1.50897 0
M  V30 2941 C 285.438 -1.8832 0.134564 0
M  V30 2942 O 284.795 -1.60969 -0.859965 0
M  V30 2943 C 284.846 -2.63435 2.47556 0
M  V30 2944 O 284.567 -2.18619 3.79654 0
M  V30 2945 C 286.068 -3.56537 2.63431 0
M  V30 2946 H 283.288 -0.434044 0.511709 0
M  V30 2947 H 285.832 -0.768895 1.89495 0
M  V30 2948 H 283.987 -3.24187 2.12089 0
M  V30 2949 H 284.401 -2.97652 4.31861 0
M  V30 2950 H 285.875 -4.38657 3.35088 0
M  V30 2951 H 286.352 -4.05493 1.68738 0
M  V30 2952 H 286.958 -3.01653 2.9981 0
M  V30 2953 N 285.273 -1.31445 -0.869486 0
M  V30 2954 C 286.52 -1.21158 -1.62256 0
M  V30 2955 C 286.848 0.230155 -1.93133 0
M  V30 2956 O 286.103 1.17906 -1.56194 0
M  V30 2957 C 286.402 -2.00145 -2.96102 0
M  V30 2958 C 286.068 -3.4964 -2.84715 0
M  V30 2959 C 284.73 -3.90403 -2.81317 0
M  V30 2960 C 287.082 -4.44769 -2.71716 0
M  V30 2961 C 284.41 -5.24561 -2.62778 0
M  V30 2962 C 286.762 -5.79054 -2.54714 0
M  V30 2963 C 285.426 -6.19037 -2.49699 0
M  V30 2964 H 284.696 -0.443348 -0.593737 0
M  V30 2965 H 287.343 -1.62715 -1.00976 0
M  V30 2966 H 285.648 -1.5127 -3.6142 0
M  V30 2967 H 287.345 -1.89566 -3.53363 0
M  V30 2968 H 283.935 -3.17256 -2.88178 0
M  V30 2969 H 288.119 -4.14208 -2.73397 0
M  V30 2970 H 283.375 -5.54613 -2.57321 0
M  V30 2971 H 287.549 -6.52393 -2.43632 0
M  V30 2972 H 285.176 -7.22935 -2.35093 0
M  V30 2973 N 286.751 1.08385 -1.14413 0
M  V30 2974 C 287.997 1.81044 -0.913834 0
M  V30 2975 C 288.33 1.86004 0.558209 0
M  V30 2976 O 287.605 1.33606 1.4135 0
M  V30 2977 C 287.888 3.26648 -1.51569 0
M  V30 2978 C 287.741 3.29895 -3.0576 0
M  V30 2979 C 289.06 4.23629 -1.19273 0
M  V30 2980 H 286.179 0.65727 -0.333414 0
M  V30 2981 H 288.821 1.26896 -1.41412 0
M  V30 2982 H 286.971 3.72889 -1.09023 0
M  V30 2983 H 288.643 2.91977 -3.57137 0
M  V30 2984 H 286.886 2.69163 -3.40197 0
M  V30 2985 H 287.557 4.32516 -3.42977 0
M  V30 2986 H 290.033 3.85727 -1.56057 0
M  V30 2987 H 288.909 5.23822 -1.64017 0
M  V30 2988 H 289.17 4.41968 -0.108068 0
M  V30 2989 N 288.23 0.939286 1.26551 0
M  V30 2990 C 289.477 0.585847 1.9384 0
M  V30 2991 C 289.805 -0.874784 1.73718 0
M  V30 2992 O 289.06 -1.64092 1.06642 0
M  V30 2993 C 289.359 0.872106 3.46596 0
M  V30 2994 C 289.025 2.31632 3.86856 0
M  V30 2995 C 287.687 2.71111 3.97558 0
M  V30 2996 C 290.039 3.25494 4.07066 0
M  V30 2997 C 287.367 4.03553 4.25866 0
M  V30 2998 C 289.719 4.57531 4.36862 0
M  V30 2999 C 288.383 4.96828 4.45778 0
M  V30 3000 H 287.653 0.214377 0.709312 0
M  V30 3001 H 290.3 1.18544 1.50398 0
M  V30 3002 H 288.605 0.18996 3.91339 0
M  V30 3003 H 290.302 0.577442 3.96821 0
M  V30 3004 H 286.892 2.00008 3.79071 0
M  V30 3005 H 291.076 2.9619 3.98227 0
M  V30 3006 H 286.332 4.33665 4.30981 0
M  V30 3007 H 290.506 5.30254 4.51446 0
M  V30 3008 H 288.133 5.99482 4.67468 0
M  V30 3009 N 289.708 -1.40897 0.706093 0
M  V30 3010 C 290.638 -2.33418 0.0620085 0
M  V30 3011 C 291.619 -1.52385 -0.755827 0
M  V30 3012 O 292.804 -1.80886 -0.706674 0
M  V30 3013 C 289.934 -3.36293 -0.867445 0
M  V30 3014 C 288.888 -4.27716 -0.155932 0
M  V30 3015 C 288.214 -5.2105 -1.20046 0
M  V30 3016 C 289.514 -5.12944 0.984149 0
M  V30 3017 H 291.208 -2.87527 0.83477 0
M  V30 3018 H 288.754 -1.38249 0.402875 0
M  V30 3019 H 290.707 -3.99949 -1.32735 0
M  V30 3020 H 289.431 -2.80556 -1.67199 0
M  V30 3021 H 288.09 -3.65498 0.284047 0
M  V30 3022 H 287.738 -4.61624 -1.99781 0
M  V30 3023 H 287.438 -5.83056 -0.729328 0
M  V30 3024 H 288.962 -5.87584 -1.66066 0
M  V30 3025 H 290.376 -5.70109 0.604048 0
M  V30 3026 H 288.773 -5.83945 1.38304 0
M  V30 3027 H 289.843 -4.49485 1.81911 0
M  V30 3028 N 291.186 -0.45159 -1.50991 0
M  V30 3029 C 292.433 0.110074 -2.02201 0
M  V30 3030 C 292.761 1.4146 -1.33489 0
M  V30 3031 O 292.016 1.90617 -0.443125 0
M  V30 3032 C 292.315 0.361728 -3.55565 0
M  V30 3033 C 291.981 -0.858717 -4.42648 0
M  V30 3034 C 290.643 -1.19338 -4.66167 0
M  V30 3035 C 292.995 -1.67221 -4.93646 0
M  V30 3036 C 290.323 -2.34195 -5.37931 0
M  V30 3037 C 292.675 -2.8119 -5.6667 0
M  V30 3038 C 291.339 -3.15094 -5.88449 0
M  V30 3039 H 290.609 0.040279 -0.739904 0
M  V30 3040 H 293.256 -0.601696 -1.81802 0
M  V30 3041 H 291.561 1.15554 -3.74372 0
M  V30 3042 H 293.258 0.80996 -3.92735 0
M  V30 3043 H 289.848 -0.58796 -4.24548 0
M  V30 3044 H 294.032 -1.42686 -4.75347 0
M  V30 3045 H 289.288 -2.6076 -5.53005 0
M  V30 3046 H 293.462 -3.44585 -6.05173 0
M  V30 3047 H 291.089 -4.04204 -6.43835 0
M  V30 3048 N 292.664 1.56529 -0.183458 0
M  V30 3049 C 293.594 2.21549 0.737456 0
M  V30 3050 C 294.575 1.17489 1.23005 0
M  V30 3051 O 295.76 1.45959 1.281 0
M  V30 3052 C 292.89 2.86575 1.96194 0
M  V30 3053 C 291.844 3.96778 1.60473 0
M  V30 3054 C 291.17 4.48911 2.90487 0
M  V30 3055 C 292.47 5.15767 0.823497 0
M  V30 3056 H 294.164 2.98761 0.195453 0
M  V30 3057 H 291.71 1.43702 0.0925686 0
M  V30 3058 H 293.663 3.30739 2.61131 0
M  V30 3059 H 292.387 2.06749 2.52828 0
M  V30 3060 H 291.046 3.53286 0.978997 0
M  V30 3061 H 290.694 3.65862 3.45186 0
M  V30 3062 H 290.394 5.23265 2.67335 0
M  V30 3063 H 291.918 4.95771 3.56432 0
M  V30 3064 H 293.332 5.56549 1.37571 0
M  V30 3065 H 291.729 5.96114 0.690551 0
M  V30 3066 H 292.799 4.84574 -0.177782 0
M  V30 3067 N 294.142 -0.090211 1.57342 0
M  V30 3068 C 295.419 -0.824761 1.77361 0
M  V30 3069 C 295.799 -1.96698 0.76637 0
M  V30 3070 O 295.147 -2.27586 -0.204179 0
M  V30 3071 C 295.357 -1.31481 3.23286 0
M  V30 3072 C 296.705 -1.75563 3.86604 0
M  V30 3073 O 297.729 -1.41093 3.27065 0
M  V30 3074 O 296.588 -2.39317 4.91314 0
M  V30 3075 H 293.682 -0.393776 0.727234 0
M  V30 3076 H 296.228 -0.0717138 1.69548 0
M  V30 3077 H 295 -0.496671 3.88135 0
M  V30 3078 H 294.623 -2.12973 3.35751 0
M  V30 3079 N 295.62 -1.53406 -0.361157 0
M  V30 3080 C 296.567 -1.80156 -1.44265 0
M  V30 3081 C 297.537 -0.646183 -1.53015 0
M  V30 3082 O 298.722 -0.888818 -1.68833 0
M  V30 3083 C 295.862 -2.00116 -2.81154 0
M  V30 3084 C 294.975 -3.27833 -2.81335 0
M  V30 3085 C 294.11 -3.37957 -4.09828 0
M  V30 3086 C 293.149 -4.59689 -4.04168 0
M  V30 3087 N 292.286 -4.66942 -5.24318 0
M  V30 3088 H 297.126 -2.72438 -1.20754 0
M  V30 3089 H 294.663 -1.34954 -0.585296 0
M  V30 3090 H 296.621 -2.09677 -3.60682 0
M  V30 3091 H 295.251 -1.11167 -3.03054 0
M  V30 3092 H 294.303 -3.27204 -1.94014 0
M  V30 3093 H 295.615 -4.17442 -2.73027 0
M  V30 3094 H 294.769 -3.46853 -4.97773 0
M  V30 3095 H 293.508 -2.46372 -4.20894 0
M  V30 3096 H 292.513 -4.50889 -3.14609 0
M  V30 3097 H 293.738 -5.5262 -3.947 0
M  V30 3098 H 291.684 -3.7826 -5.35962 0
M  V30 3099 H 291.601 -5.50462 -5.18197 0
M  V30 3100 H 292.869 -4.80127 -6.14084 0
M  V30 3101 N 297.098 0.621204 -1.44841 0
M  V30 3102 C 298.328 1.40548 -1.51426 0
M  V30 3103 C 298.736 1.88673 -0.141083 0
M  V30 3104 O 298.079 1.62053 0.865128 0
M  V30 3105 C 298.141 2.65325 -2.42576 0
M  V30 3106 C 297.805 2.3893 -3.89566 0
M  V30 3107 C 298.802 2.00138 -4.79834 0
M  V30 3108 C 296.487 2.52263 -4.3436 0
M  V30 3109 C 298.481 1.75021 -6.129 0
M  V30 3110 C 296.168 2.2676 -5.67471 0
M  V30 3111 C 297.166 1.88199 -6.56559 0
M  V30 3112 O 296.854 1.62986 -7.87204 0
M  V30 3113 H 296.586 0.437122 -0.515655 0
M  V30 3114 H 299.14 0.765987 -1.90583 0
M  V30 3115 H 297.37 3.31947 -1.98364 0
M  V30 3116 H 299.059 3.27347 -2.39998 0
M  V30 3117 H 299.825 1.89386 -4.46495 0
M  V30 3118 H 295.704 2.81246 -3.65269 0
M  V30 3119 H 299.248 1.44848 -6.82396 0
M  V30 3120 H 295.145 2.37125 -6.00368 0
M  V30 3121 H 295.913 1.7715 -7.991 0
M  V30 3122 N 298.576 1.31904 0.862503 0
M  V30 3123 C 299.824 1.21776 1.61292 0
M  V30 3124 C 300.145 -0.222413 1.93727 0
M  V30 3125 O 299.415 -1.1451 1.58947 0
M  V30 3126 H 297.995 0.447717 0.597962 0
M  V30 3127 H 300.657 1.65326 1.03215 0
M  V30 3128 H 299.753 1.7948 2.5533 0
M  V30 3129 N 300.054 -1.07777 1.14986 0
M  V30 3130 C 300.984 -2.16865 0.865557 0
M  V30 3131 C 301.965 -1.69123 -0.182083 0
M  V30 3132 O 303.15 -1.94164 -0.0373815 0
M  V30 3133 C 300.28 -3.45539 0.349313 0
M  V30 3134 C 299.234 -4.06708 1.33313 0
M  V30 3135 C 298.56 -5.30411 0.675918 0
M  V30 3136 C 299.86 -4.47241 2.69764 0
M  V30 3137 H 301.554 -2.40905 1.77778 0
M  V30 3138 H 299.1 -1.15781 0.856203 0
M  V30 3139 H 301.053 -4.21174 0.137983 0
M  V30 3140 H 299.777 -3.21072 -0.598362 0
M  V30 3141 H 298.436 -3.33112 1.53075 0
M  V30 3142 H 298.084 -5.02232 -0.277767 0
M  V30 3143 H 297.784 -5.72293 1.33244 0
M  V30 3144 H 299.308 -6.08755 0.474262 0
M  V30 3145 H 300.722 -5.14025 2.53873 0
M  V30 3146 H 299.119 -5.00062 3.3175 0
M  V30 3147 H 300.189 -3.58818 3.26156 0
M  V30 3148 N 301.532 -0.945985 -1.26051 0
M  V30 3149 C 302.948 -0.649045 -1.45807 0
M  V30 3150 C 303.148 0.796158 -1.85104 0
M  V30 3151 O 302.204 1.57233 -1.97571 0
M  V30 3152 C 303.517 -1.61458 -2.53677 0
M  V30 3153 C 305.065 -1.62481 -2.67524 0
M  V30 3154 C 305.54 -2.57776 -3.7857 0
M  V30 3155 N 307.031 -2.5609 -3.85969 0
M  V30 3156 C 307.766 -3.26508 -4.7136 0
M  V30 3157 N 307.262 -4.0637 -5.61102 0
M  V30 3158 N 309.055 -3.15437 -4.65248 0
M  V30 3159 H 301.206 -1.88005 -0.988328 0
M  V30 3160 H 303.469 -0.808198 -0.4955 0
M  V30 3161 H 303.175 -2.64644 -2.31638 0
M  V30 3162 H 303.049 -1.37036 -3.51427 0
M  V30 3163 H 305.436 -0.600167 -2.88933 0
M  V30 3164 H 305.517 -1.90958 -1.70202 0
M  V30 3165 H 305.161 -3.60361 -3.57913 0
M  V30 3166 H 305.091 -2.26587 -4.75359 0
M  V30 3167 H 307.582 -1.98105 -3.21812 0
M  V30 3168 H 307.895 -4.57042 -6.23164 0
M  V30 3169 H 306.24 -4.10469 -5.60839 0
M  V30 3170 H 309.431 -2.52525 -3.94143 0
M  V30 3171 H 309.604 -3.70584 -5.31575 0
M  V30 3172 N 303.011 1.40521 -0.713556 0
M  V30 3173 C 303.958 2.30723 -0.059684 0
M  V30 3174 C 304.928 1.48079 0.752448 0
M  V30 3175 O 306.113 1.76823 0.71681 0
M  V30 3176 C 303.253 3.34274 0.857594 0
M  V30 3177 C 302.366 4.31986 0.0351536 0
M  V30 3178 C 301.501 5.22605 0.951724 0
M  V30 3179 C 300.54 6.11976 0.123253 0
M  V30 3180 N 299.677 6.9502 0.99459 0
M  V30 3181 H 304.517 2.86074 -0.834596 0
M  V30 3182 H 302.054 1.40879 -0.42326 0
M  V30 3183 H 304.012 3.92879 1.40364 0
M  V30 3184 H 302.642 2.8043 1.59871 0
M  V30 3185 H 301.694 3.7518 -0.628052 0
M  V30 3186 H 303.006 4.95101 -0.606347 0
M  V30 3187 H 302.16 5.86131 1.56638 0
M  V30 3188 H 300.899 4.59759 1.62705 0
M  V30 3189 H 299.904 5.47482 -0.50435 0
M  V30 3190 H 301.129 6.76881 -0.548539 0
M  V30 3191 H 299.075 6.34764 1.6556 0
M  V30 3192 H 298.992 7.54892 0.40908 0
M  V30 3193 H 300.26 7.62997 1.59549 0
M  V30 3194 N 304.489 0.459591 1.5075 0
M  V30 3195 C 305.419 -0.330644 2.31147 0
M  V30 3196 C 306.4 -1.00087 1.37538 0
M  V30 3197 O 307.585 -1.00025 1.66459 0
M  V30 3198 C 304.715 -1.41958 3.16962 0
M  V30 3199 C 303.669 -0.871608 4.19031 0
M  V30 3200 C 302.995 -2.05797 4.9351 0
M  V30 3201 C 304.295 0.109251 5.22186 0
M  V30 3202 H 305.989 0.340336 2.97459 0
M  V30 3203 H 303.535 0.165119 1.4305 0
M  V30 3204 H 305.488 -1.9798 3.71997 0
M  V30 3205 H 304.212 -2.11917 2.48513 0
M  V30 3206 H 302.871 -0.333442 3.6508 0
M  V30 3207 H 302.519 -2.74427 4.21544 0
M  V30 3208 H 302.219 -1.6976 5.62544 0
M  V30 3209 H 303.743 -2.62331 5.51375 0
M  V30 3210 H 305.157 -0.361405 5.7216 0
M  V30 3211 H 303.554 0.383316 5.98875 0
M  V30 3212 H 304.624 1.03887 4.73641 0
M  V30 3213 N 305.967 -1.56429 0.191757 0
M  V30 3214 C 306.877 -2.22541 -0.742481 0
M  V30 3215 C 307.893 -1.22342 -1.23727 0
M  V30 3216 O 309.069 -1.55069 -1.28513 0
M  V30 3217 C 306.134 -2.8692 -1.94623 0
M  V30 3218 C 305.195 -4.02378 -1.49633 0
M  V30 3219 C 304.428 -4.63678 -2.6427 0
M  V30 3220 O 304.651 -4.23895 -3.81666 0
M  V30 3221 O 303.585 -5.53202 -2.37174 0
M  V30 3222 H 307.411 -3.02977 -0.209462 0
M  V30 3223 H 304.996 -1.49353 -0.0373832 0
M  V30 3224 H 306.878 -3.27663 -2.64982 0
M  V30 3225 H 305.553 -2.09466 -2.46791 0
M  V30 3226 H 304.46 -3.66265 -0.761636 0
M  V30 3227 H 305.793 -4.81487 -1.02134 0
M  V30 3228 N 307.445 0.0818655 -1.57387 0
M  V30 3229 C 308.408 1.08265 -2.02018 0
M  V30 3230 C 309.408 1.32183 -0.915664 0
M  V30 3231 O 310.598 1.28073 -1.18081 0
M  V30 3232 C 307.73 2.42871 -2.39221 0
M  V30 3233 H 308.923 0.698204 -2.91659 0
M  V30 3234 H 306.476 0.327303 -1.52835 0
M  V30 3235 H 307.211 2.86167 -1.52575 0
M  V30 3236 H 306.996 2.26855 -3.19811 0
M  V30 3237 H 308.486 3.14826 -2.74362 0
M  V30 3238 N 308.923 1.53595 0.353017 0
M  V30 3239 C 310.17 1.70385 1.09431 0
M  V30 3240 C 310.498 0.462113 1.88931 0
M  V30 3241 O 309.753 -0.556074 1.87633 0
M  V30 3242 C 310.052 2.91313 2.07054 0
M  V30 3243 C 309.718 4.27308 1.43939 0
M  V30 3244 C 308.38 4.64287 1.26454 0
M  V30 3245 C 310.732 5.11829 0.983883 0
M  V30 3246 C 308.06 5.83412 0.620226 0
M  V30 3247 C 310.412 6.31611 0.353516 0
M  V30 3248 C 309.076 6.67293 0.166272 0
M  V30 3249 H 308.346 0.623484 0.400436 0
M  V30 3250 H 310.993 1.87799 0.374655 0
M  V30 3251 H 309.298 2.68463 2.85368 0
M  V30 3252 H 310.995 3.01497 2.64387 0
M  V30 3253 H 307.585 3.98198 1.58543 0
M  V30 3254 H 311.769 4.838 1.10685 0
M  V30 3255 H 307.025 6.09639 0.463681 0
M  V30 3256 H 311.199 6.964 -0.00757555 0
M  V30 3257 H 308.826 7.59461 -0.335047 0
M  V30 3258 N 310.401 -0.613514 1.45168 0
M  V30 3259 C 311.648 -1.37268 1.48875 0
M  V30 3260 C 311.976 -1.94077 0.128161 0
M  V30 3261 O 311.231 -1.75178 -0.872416 0
M  V30 3262 C 311.53 -2.54347 2.51083 0
M  V30 3263 C 311.196 -2.1572 3.95949 0
M  V30 3264 C 309.858 -2.04899 4.35396 0
M  V30 3265 C 312.21 -1.85485 4.87078 0
M  V30 3266 C 309.538 -1.62057 5.63875 0
M  V30 3267 C 311.89 -1.4413 6.15962 0
M  V30 3268 C 310.554 -1.31863 6.54346 0
M  V30 3269 H 309.824 -0.502299 0.544773 0
M  V30 3270 H 312.471 -0.694021 1.78481 0
M  V30 3271 H 310.776 -3.27524 2.15024 0
M  V30 3272 H 312.473 -3.12577 2.51191 0
M  V30 3273 H 309.063 -2.25066 3.64751 0
M  V30 3274 H 313.247 -1.92745 4.57343 0
M  V30 3275 H 308.503 -1.51177 5.92415 0
M  V30 3276 H 312.677 -1.19778 6.86022 0
M  V30 3277 H 310.304 -0.984392 7.538 0
M  V30 3278 N 311.879 -1.3236 -0.855495 0
M  V30 3279 C 313.127 -1.22629 -1.60644 0
M  V30 3280 C 313.448 0.212136 -1.93843 0
M  V30 3281 O 312.718 1.13666 -1.59552 0
M  V30 3282 H 311.298 -0.450882 -0.595579 0
M  V30 3283 H 313.96 -1.65871 -1.02337 0
M  V30 3284 H 313.056 -1.80832 -2.54374 0
M  V30 3285 N 313.357 1.07166 -1.15556 0
M  V30 3286 C 314.604 1.79798 -0.931604 0
M  V30 3287 C 314.932 1.8682 0.54115 0
M  V30 3288 O 314.187 1.34942 1.41736 0
M  V30 3289 C 314.486 3.24707 -1.49332 0
M  V30 3290 C 314.152 3.37781 -2.98688 0
M  V30 3291 C 312.814 3.41057 -3.39461 0
M  V30 3292 C 315.166 3.40424 -3.94665 0
M  V30 3293 C 312.494 3.4458 -4.74849 0
M  V30 3294 C 314.846 3.45485 -5.29927 0
M  V30 3295 C 313.51 3.47039 -5.70193 0
M  V30 3296 H 312.78 0.657928 -0.340898 0
M  V30 3297 H 315.427 1.26091 -1.44129 0
M  V30 3298 H 313.732 3.81208 -0.904859 0
M  V30 3299 H 315.429 3.79486 -1.29582 0
M  V30 3300 H 312.019 3.35932 -2.66172 0
M  V30 3301 H 316.203 3.37113 -3.64237 0
M  V30 3302 H 311.459 3.44083 -5.05388 0
M  V30 3303 H 315.633 3.46476 -6.04092 0
M  V30 3304 H 313.26 3.49522 -6.75084 0
M  V30 3305 N 314.835 0.952656 1.25548 0
M  V30 3306 C 315.765 0.489287 2.28316 0
M  V30 3307 C 316.746 -0.463359 1.63667 0
M  V30 3308 O 317.931 -0.36274 1.90782 0
M  V30 3309 C 315.061 -0.235603 3.465 0
M  V30 3310 C 314.015 0.631593 4.23314 0
M  V30 3311 C 313.341 -0.223923 5.34231 0
M  V30 3312 C 314.641 1.90871 4.86174 0
M  V30 3313 H 316.335 1.34822 2.67326 0
M  V30 3314 H 313.881 0.649728 1.28509 0
M  V30 3315 H 315.834 -0.570882 4.17515 0
M  V30 3316 H 314.558 -1.12877 3.06474 0
M  V30 3317 H 313.217 0.949929 3.54079 0
M  V30 3318 H 312.865 -1.11678 4.90446 0
M  V30 3319 H 312.565 0.35299 5.86539 0
M  V30 3320 H 314.089 -0.554214 6.0808 0
M  V30 3321 H 315.503 1.63997 5.49343 0
M  V30 3322 H 313.9 2.43112 5.4865 0
M  V30 3323 H 314.97 2.61304 4.08471 0
M  V30 3324 N 316.313 -1.40141 0.720998 0
M  V30 3325 C 317.562 -2.0002 0.259804 0
M  V30 3326 C 317.875 -1.57839 -1.15526 0
M  V30 3327 O 319.081 -2.10455 -1.71525 0
M  V30 3328 C 317.537 -3.57516 0.413566 0
M  V30 3329 C 317.145 -4.08667 1.83562 0
M  V30 3330 C 318.889 -4.24498 0.0134387 0
M  V30 3331 C 316.796 -5.58686 1.93968 0
M  V30 3332 H 315.726 -0.748195 0.0933806 0
M  V30 3333 H 318.377 -1.60313 0.892866 0
M  V30 3334 H 316.759 -3.9495 -0.288169 0
M  V30 3335 H 317.933 -3.82598 2.56817 0
M  V30 3336 H 316.248 -3.543 2.1877 0
M  V30 3337 H 318.845 -5.34654 0.0703954 0
M  V30 3338 H 319.188 -4.03375 -1.02927 0
M  V30 3339 H 319.721 -3.92188 0.665815 0
M  V30 3340 H 316.46 -5.8467 2.96379 0
M  V30 3341 H 315.98 -5.86602 1.25131 0
M  V30 3342 H 317.659 -6.23875 1.71431 0
M  V30 3343 N 317.792 -0.46758 -1.50504 0
M  V30 3344 C 319.02 0.0864133 -2.06719 0
M  V30 3345 C 319.435 1.33819 -1.33184 0
M  V30 3346 O 318.792 1.78061 -0.400083 0
M  V30 3347 C 318.843 0.378079 -3.59517 0
M  V30 3348 O 318.564 -0.824044 -4.3028 0
M  V30 3349 C 320.065 0.979426 -4.32345 0
M  V30 3350 H 317.285 -0.00551697 -0.670977 0
M  V30 3351 H 319.829 -0.655354 -1.93715 0
M  V30 3352 H 317.984 1.06977 -3.72337 0
M  V30 3353 H 318.398 -0.566518 -5.21432 0
M  V30 3354 H 319.872 1.1333 -5.40241 0
M  V30 3355 H 320.349 1.9686 -3.9261 0
M  V30 3356 H 320.955 0.326216 -4.24047 0
M  V30 3357 N 319.27 1.56325 -0.20005 0
M  V30 3358 C 320.519 1.96895 0.437652 0
M  V30 3359 C 320.832 1.08999 1.62415 0
M  V30 3360 O 322.038 1.39372 2.32997 0
M  V30 3361 C 320.494 3.50198 0.830025 0
M  V30 3362 C 320.102 4.46765 -0.332461 0
M  V30 3363 C 321.846 3.99526 1.43453 0
M  V30 3364 C 319.753 5.91344 0.0811468 0
M  V30 3365 H 318.683 0.735209 0.167282 0
M  V30 3366 H 321.334 1.81148 -0.292853 0
M  V30 3367 H 319.716 3.61467 1.61734 0
M  V30 3368 H 320.89 4.47231 -1.11 0
M  V30 3369 H 319.205 4.07657 -0.848789 0
M  V30 3370 H 321.802 5.05025 1.75652 0
M  V30 3371 H 322.145 3.44122 2.34277 0
M  V30 3372 H 322.678 3.91393 0.71109 0
M  V30 3373 H 319.417 6.50685 -0.793033 0
M  V30 3374 H 318.937 5.94121 0.823445 0
M  V30 3375 H 320.616 6.44945 0.515252 0
M  V30 3376 N 320.748 -0.0735177 1.57428 0
M  V30 3377 C 321.681 -1.11932 1.98863 0
M  V30 3378 C 322.659 -1.37666 0.865266 0
M  V30 3379 O 323.843 -1.51068 1.12742 0
M  V30 3380 C 320.97 -2.46403 2.32386 0
M  V30 3381 C 320.016 -2.36815 3.54713 0
M  V30 3382 S 320.849 -1.76392 5.05614 0
M  V30 3383 C 322.005 -3.12444 5.42337 0
M  V30 3384 H 322.238 -0.766212 2.87257 0
M  V30 3385 H 319.771 -0.281987 1.51803 0
M  V30 3386 H 321.729 -3.23755 2.52375 0
M  V30 3387 H 320.39 -2.78876 1.44524 0
M  V30 3388 H 319.583 -3.35977 3.7568 0
M  V30 3389 H 319.185 -1.67598 3.34345 0
M  V30 3390 H 321.477 -4.08753 5.40303 0
M  V30 3391 H 322.42 -2.96258 6.43146 0
M  V30 3392 H 322.828 -3.1297 4.69798 0
M  V30 3393 N 322.226 -1.5378 -0.344866 0
M  V30 3394 C 323.189 -1.80981 -1.40637 0
M  V30 3395 C 324.189 -0.680816 -1.45676 0
M  V30 3396 O 325.379 -0.949095 -1.46075 0
M  V30 3397 C 322.511 -1.95063 -2.79577 0
M  V30 3398 H 323.704 -2.75803 -1.17783 0
M  V30 3399 H 321.257 -1.45173 -0.579181 0
M  V30 3400 H 321.992 -1.02379 -3.07716 0
M  V30 3401 H 321.777 -2.77198 -2.77315 0
M  V30 3402 H 323.267 -2.17629 -3.56409 0
M  V30 3403 N 323.704 0.605807 -1.45491 0
M  V30 3404 C 324.634 1.72709 -1.57143 0
M  V30 3405 C 325.615 1.6476 -0.422884 0
M  V30 3406 O 326.8 1.83132 -0.646247 0
M  V30 3407 C 323.93 3.11316 -1.53948 0
M  V30 3408 C 322.884 3.34077 -2.67537 0
M  V30 3409 C 322.21 4.72975 -2.49397 0
M  V30 3410 C 323.51 3.24158 -4.09535 0
M  V30 3411 H 325.204 1.63214 -2.51001 0
M  V30 3412 H 322.75 0.78379 -1.208 0
M  V30 3413 H 324.703 3.89557 -1.60696 0
M  V30 3414 H 323.427 3.21655 -0.566205 0
M  V30 3415 H 322.086 2.58227 -2.6022 0
M  V30 3416 H 321.734 4.8005 -1.50205 0
M  V30 3417 H 321.434 4.8916 -3.25571 0
M  V30 3418 H 322.958 5.53414 -2.58002 0
M  V30 3419 H 324.372 3.92271 -4.18086 0
M  V30 3420 H 322.769 3.51872 -4.86113 0
M  V30 3421 H 323.839 2.2157 -4.31317 0
M  V30 3422 N 325.182 1.32811 0.848464 0
M  V30 3423 C 326.41 1.26739 1.63538 0
M  V30 3424 C 326.825 -0.163484 1.88091 0
M  V30 3425 O 326.182 -1.10258 1.45429 0
M  V30 3426 C 326.233 2.03013 2.99112 0
M  V30 3427 O 325.954 3.40518 2.75643 0
M  V30 3428 C 327.455 2.04038 3.93552 0
M  V30 3429 H 324.675 0.437024 0.509167 0
M  V30 3430 H 327.219 1.75033 1.05753 0
M  V30 3431 H 325.374 1.58426 3.53525 0
M  V30 3432 H 325.788 3.79635 3.61908 0
M  V30 3433 H 327.262 2.61877 4.85926 0
M  V30 3434 H 327.739 1.0282 4.26995 0
M  V30 3435 H 328.345 2.486 3.45077 0
M  V30 3436 N 326.66 -1.06551 1.16123 0
M  V30 3437 C 327.907 -1.79302 0.941126 0
M  V30 3438 C 328.235 -1.87105 -0.531235 0
M  V30 3439 O 327.49 -1.35692 -1.41018 0
M  V30 3440 C 327.789 -3.23911 1.51052 0
M  V30 3441 C 327.455 -3.36193 3.00475 0
M  V30 3442 C 326.117 -3.39252 3.41265 0
M  V30 3443 C 328.469 -3.38326 3.96465 0
M  V30 3444 C 325.797 -3.42057 4.76669 0
M  V30 3445 C 328.149 -3.4267 5.31752 0
M  V30 3446 C 326.813 -3.4401 5.72026 0
M  V30 3447 H 326.083 -0.656111 0.344382 0
M  V30 3448 H 328.73 -1.25325 1.44796 0
M  V30 3449 H 327.035 -3.80723 0.925063 0
M  V30 3450 H 328.732 -3.78793 1.31593 0
M  V30 3451 H 325.322 -3.34516 2.6795 0
M  V30 3452 H 329.506 -3.35176 3.6602 0
M  V30 3453 H 324.762 -3.41398 5.07206 0
M  V30 3454 H 328.936 -3.43268 6.05921 0
M  V30 3455 H 326.563 -3.45937 6.76928 0
M  V30 3456 N 328.138 -0.959301 -1.25041 0
M  V30 3457 C 329.386 -0.615393 -1.92503 0
M  V30 3458 C 329.707 0.850969 -1.75452 0
M  V30 3459 O 328.977 1.60658 -1.12098 0
M  V30 3460 H 327.557 -0.224613 -0.712431 0
M  V30 3461 H 330.219 -1.21855 -1.5211 0
M  V30 3462 H 329.315 -0.848738 -3.00338 0
M  V30 3463 N 329.616 1.39756 -0.72842 0
M  V30 3464 C 330.846 2.04651 -0.283117 0
M  V30 3465 C 331.254 1.5502 1.08469 0
M  V30 3466 O 330.597 0.707343 1.69536 0
M  V30 3467 C 330.659 3.58947 -0.199309 0
M  V30 3468 C 330.323 4.31525 -1.5045 0
M  V30 3469 C 331.32 4.5861 -2.44894 0
M  V30 3470 C 329.005 4.70195 -1.76698 0
M  V30 3471 C 330.999 5.23366 -3.63822 0
M  V30 3472 C 328.686 5.3468 -2.95906 0
M  V30 3473 C 329.684 5.61198 -3.89289 0
M  V30 3474 O 329.372 6.24347 -5.06404 0
M  V30 3475 H 329.104 0.664777 -0.122666 0
M  V30 3476 H 331.658 1.79913 -0.990987 0
M  V30 3477 H 329.888 3.82556 0.56461 0
M  V30 3478 H 331.577 4.0534 0.213125 0
M  V30 3479 H 332.343 4.29187 -2.25883 0
M  V30 3480 H 328.222 4.48916 -1.04859 0
M  V30 3481 H 331.766 5.4398 -4.36728 0
M  V30 3482 H 327.663 5.63524 -3.14819 0
M  V30 3483 H 328.431 6.42842 -5.06652 0
M  V30 3484 N 331.094 0.475555 1.50254 0
M  V30 3485 C 332.004 -0.321501 2.32387 0
M  V30 3486 C 333.02 -0.991755 1.42969 0
M  V30 3487 O 334.196 -0.978747 1.76018 0
M  V30 3488 C 331.261 -1.38667 3.17762 0
M  V30 3489 C 330.322 -0.732538 4.23004 0
M  V30 3490 C 329.555 -1.74695 5.04299 0
M  V30 3491 O 329.778 -2.97399 4.86734 0
M  V30 3492 O 328.712 -1.31631 5.8733 0
M  V30 3493 H 332.538 0.350071 3.01676 0
M  V30 3494 H 330.123 0.237321 1.47503 0
M  V30 3495 H 332.005 -2.00354 3.70724 0
M  V30 3496 H 330.68 -2.04163 2.51196 0
M  V30 3497 H 329.587 -0.0765902 3.74022 0
M  V30 3498 H 330.92 -0.120452 4.92053 0
M  V30 3499 N 332.573 -1.56217 0.208337 0
M  V30 3500 C 333.803 -2.02043 -0.431523 0
M  V30 3501 C 334.211 -1.08755 -1.54819 0
M  V30 3502 O 333.554 -0.0870009 -1.83494 0
M  V30 3503 C 333.616 -3.44239 -1.03633 0
M  V30 3504 C 333.28 -4.56965 -0.0567502 0
M  V30 3505 C 334.277 -5.14624 0.738773 0
M  V30 3506 C 331.962 -5.02266 0.0581736 0
M  V30 3507 C 333.956 -6.16045 1.63605 0
M  V30 3508 C 331.643 -6.03528 0.959001 0
M  V30 3509 C 332.641 -6.60293 1.7465 0
M  V30 3510 O 332.329 -7.59586 2.6322 0
M  V30 3511 H 332.061 -0.666772 -0.111313 0
M  V30 3512 H 334.615 -2.02919 0.318277 0
M  V30 3513 H 332.845 -3.40391 -1.83497 0
M  V30 3514 H 334.534 -3.73793 -1.58221 0
M  V30 3515 H 335.3 -4.80483 0.660364 0
M  V30 3516 H 331.179 -4.57771 -0.544633 0
M  V30 3517 H 334.723 -6.60279 2.25116 0
M  V30 3518 H 330.62 -6.37092 1.03848 0
M  V30 3519 H 331.388 -7.77057 2.57148 0
M  V30 3520 N 334.051 0.0651679 -1.57465 0
M  V30 3521 C 335.297 0.764193 -1.87851 0
M  V30 3522 C 335.63 1.76889 -0.801495 0
M  V30 3523 O 334.905 1.93594 0.187528 0
M  V30 3524 C 335.188 1.46625 -3.28897 0
M  V30 3525 C 335.041 0.477515 -4.47258 0
M  V30 3526 C 336.36 2.4095 -3.68281 0
M  V30 3527 H 333.479 0.276351 -0.683227 0
M  V30 3528 H 336.121 0.0272868 -1.8998 0
M  V30 3529 H 334.271 2.09438 -3.27212 0
M  V30 3530 H 335.943 -0.145922 -4.61069 0
M  V30 3531 H 334.186 -0.206576 -4.33308 0
M  V30 3532 H 334.857 1.0065 -5.42746 0
M  V30 3533 H 337.333 1.88209 -3.71102 0
M  V30 3534 H 336.209 2.87072 -4.67847 0
M  V30 3535 H 336.47 3.26049 -2.98571 0
M  V30 3536 N 335.529 1.53961 0.336706 0
M  V30 3537 C 336.757 1.75483 1.09605 0
M  V30 3538 C 337.172 0.4972 1.82136 0
M  V30 3539 O 336.529 -0.53149 1.74589 0
M  V30 3540 C 336.58 2.93943 2.10428 0
M  V30 3541 O 336.301 4.14842 1.40846 0
M  V30 3542 C 337.802 3.27571 2.98684 0
M  V30 3543 H 335.022 0.586166 0.326574 0
M  V30 3544 H 337.566 2.00808 0.38683 0
M  V30 3545 H 335.721 2.70929 2.76905 0
M  V30 3546 H 336.135 4.81383 2.08255 0
M  V30 3547 H 337.609 4.13791 3.6535 0
M  V30 3548 H 338.086 2.44168 3.65074 0
M  V30 3549 H 338.692 3.52615 2.37787 0
M  V30 3550 N 337.007 -0.598083 1.45811 0
M  V30 3551 C 338.253 -1.35882 1.50545 0
M  V30 3552 C 338.586 -1.93616 0.150445 0
M  V30 3553 O 337.861 -1.75604 -0.83628 0
M  V30 3554 C 338.144 -2.49966 2.59208 0
M  V30 3555 C 337.997 -1.97367 4.04186 0
M  V30 3556 C 339.316 -3.52068 2.64076 0
M  V30 3557 H 336.435 -0.492717 0.548087 0
M  V30 3558 H 339.077 -0.673319 1.77669 0
M  V30 3559 H 337.227 -3.08443 2.3621 0
M  V30 3560 H 338.899 -1.43466 4.38423 0
M  V30 3561 H 337.142 -1.283 4.14393 0
M  V30 3562 H 337.813 -2.79649 4.75921 0
M  V30 3563 H 340.289 -3.03448 2.84708 0
M  V30 3564 H 339.165 -4.2937 3.41954 0
M  V30 3565 H 339.426 -4.08304 1.69531 0
M  V30 3566 N 338.485 -1.33259 -0.841409 0
M  V30 3567 C 339.432 -1.23302 -1.95103 0
M  V30 3568 C 340.402 -0.112204 -1.65721 0
M  V30 3569 O 341.587 -0.290038 -1.88583 0
M  V30 3570 C 338.727 -0.975583 -3.31023 0
M  V30 3571 C 337.84 -2.18243 -3.72819 0
M  V30 3572 C 336.975 -1.85936 -4.97595 0
M  V30 3573 C 336.014 -3.02866 -5.3192 0
M  V30 3574 N 335.151 -2.70565 -6.47873 0
M  V30 3575 H 339.991 -2.18207 -2.02952 0
M  V30 3576 H 337.528 -1.0851 -0.993173 0
M  V30 3577 H 339.486 -0.80677 -4.09325 0
M  V30 3578 H 338.116 -0.0632755 -3.22738 0
M  V30 3579 H 337.168 -2.46107 -2.90061 0
M  V30 3580 H 338.48 -3.05666 -3.94169 0
M  V30 3581 H 337.634 -1.65684 -5.83638 0
M  V30 3582 H 336.373 -0.957452 -4.78209 0
M  V30 3583 H 335.378 -3.23736 -4.44382 0
M  V30 3584 H 336.603 -3.93809 -5.53255 0
M  V30 3585 H 334.549 -1.8293 -6.29978 0
M  V30 3586 H 334.466 -3.51519 -6.69306 0
M  V30 3587 H 335.734 -2.53774 -7.37034 0
M  V30 3588 N 339.963 1.05934 -1.16686 0
M  V30 3589 C 341.374 1.60263 -0.957745 0
M  V30 3590 C 341.725 1.89789 0.49745 0
M  V30 3591 O 340.85 1.67401 1.37135 0
M  V30 3592 C 341.445 2.91172 -1.73218 0
M  V30 3593 C 340.004 3.42188 -1.56794 0
M  V30 3594 C 339.151 2.16028 -1.73859 0
M  V30 3595 H 342.102 0.888392 -1.31504 0
M  V30 3596 H 342.123 3.60744 -1.21014 0
M  V30 3597 H 341.635 2.6965 -2.79124 0
M  V30 3598 H 339.736 3.68762 -0.533437 0
M  V30 3599 H 339.849 4.17273 -2.35414 0
M  V30 3600 H 338.213 2.26426 -1.16633 0
M  V30 3601 H 338.996 1.96985 -2.81161 0
M  V30 3602 N 341.441 0.965919 1.2453 0
M  V30 3603 C 342.666 0.643971 1.97149 0
M  V30 3604 C 343.091 -0.779487 1.71189 0
M  V30 3605 O 342.449 -1.5288 0.974553 0
M  V30 3606 C 342.497 0.922557 3.48599 0
M  V30 3607 O 341.601 0.00707672 4.12399 0
M  V30 3608 H 340.942 0.243647 0.617683 0
M  V30 3609 H 343.472 1.29558 1.58353 0
M  V30 3610 H 343.482 0.853373 3.98976 0
M  V30 3611 H 342.157 1.95996 3.66822 0
M  V30 3612 H 340.734 0.12943 3.72675 0
M  V30 3613 N 342.919 -1.39368 0.735821 0
M  V30 3614 C 343.851 -2.2913 0.0567723 0
M  V30 3615 C 344.864 -1.46859 -0.702589 0
M  V30 3616 O 346.053 -1.69925 -0.546616 0
M  V30 3617 C 343.153 -3.25492 -0.943823 0
M  V30 3618 C 342.326 -4.36709 -0.24581 0
M  V30 3619 C 341.385 -5.13376 -1.15463 0
M  V30 3620 O 340.411 -5.65683 -0.631803 0
M  V30 3621 N 341.613 -5.24656 -2.48427 0
M  V30 3622 H 344.378 -2.88047 0.827582 0
M  V30 3623 H 341.939 -1.50957 0.585112 0
M  V30 3624 H 343.931 -3.73657 -1.55443 0
M  V30 3625 H 342.501 -2.676 -1.61583 0
M  V30 3626 H 341.721 -3.9041 0.545286 0
M  V30 3627 H 343.009 -5.08244 0.237891 0
M  V30 3628 H 342.407 -4.83679 -2.93379 0
M  V30 3629 H 340.964 -5.76258 -3.04582 0
M  V30 3630 N 344.397 -0.483516 -1.5 0
M  V30 3631 C 345.622 0.0667119 -2.07293 0
M  V30 3632 C 346.047 1.3164 -1.3436 0
M  V30 3633 O 345.405 1.76945 -0.394987 0
M  V30 3634 C 345.453 0.321126 -3.59167 0
M  V30 3635 O 344.557 1.39927 -3.87936 0
M  V30 3636 H 343.898 -0.0184758 -0.663743 0
M  V30 3637 H 346.428 -0.678125 -1.93035 0
M  V30 3638 H 346.438 0.557906 -4.04168 0
M  V30 3639 H 345.113 -0.592007 -4.11665 0
M  V30 3640 H 343.69 1.14882 -3.54763 0
M  V30 3641 N 345.875 1.56104 -0.216619 0
M  V30 3642 C 346.807 2.17339 0.72776 0
M  V30 3643 C 347.82 1.14109 1.16116 0
M  V30 3644 O 349.009 1.4111 1.09317 0
M  V30 3645 C 346.109 2.73818 1.99693 0
M  V30 3646 C 345.282 4.02168 1.71988 0
M  V30 3647 C 344.341 4.43259 2.83562 0
M  V30 3648 O 343.367 5.10257 2.52244 0
M  V30 3649 N 344.569 4.08535 4.12407 0
M  V30 3650 H 347.334 2.99005 0.203983 0
M  V30 3651 H 344.895 1.61861 -0.0354289 0
M  V30 3652 H 346.887 2.9828 2.73516 0
M  V30 3653 H 345.457 1.96483 2.43132 0
M  V30 3654 H 344.677 3.85612 0.818337 0
M  V30 3655 H 345.965 4.85907 1.50903 0
M  V30 3656 H 345.363 3.54687 4.40696 0
M  V30 3657 H 343.92 4.37901 4.8279 0
M  V30 3658 N 347.353 -0.0568162 1.57498 0
M  V30 3659 C 348.599 -0.75422 1.88253 0
M  V30 3660 C 348.932 -1.76461 0.810865 0
M  V30 3661 O 348.207 -1.93691 -0.177259 0
M  V30 3662 C 348.49 -1.44878 3.2967 0
M  V30 3663 C 348.343 -0.453789 4.47505 0
M  V30 3664 C 349.662 -2.38994 3.69554 0
M  V30 3665 H 346.781 -0.272724 0.684683 0
M  V30 3666 H 349.423 -0.0172113 1.89992 0
M  V30 3667 H 347.573 -2.077 3.28318 0
M  V30 3668 H 349.245 0.170371 4.60985 0
M  V30 3669 H 347.488 0.229552 4.33192 0
M  V30 3670 H 348.159 -0.977699 5.43273 0
M  V30 3671 H 350.635 -1.86239 3.72095 0
M  V30 3672 H 349.511 -2.84587 4.69363 0
M  V30 3673 H 349.772 -3.24461 3.00296 0
M  V30 3674 N 348.832 -1.54138 -0.328536 0
M  V30 3675 C 349.762 -1.86167 -1.40939 0
M  V30 3676 C 350.743 -0.718044 -1.54202 0
M  V30 3677 O 351.928 -0.971328 -1.68163 0
M  V30 3678 C 349.058 -2.08461 -2.77779 0
M  V30 3679 C 348.012 -3.24299 -2.7931 0
M  V30 3680 C 347.338 -3.31955 -4.19178 0
M  V30 3681 C 348.638 -4.62065 -2.43502 0
M  V30 3682 H 350.332 -2.76689 -1.14383 0
M  V30 3683 H 347.878 -1.33132 -0.548806 0
M  V30 3684 H 349.831 -2.29453 -3.53454 0
M  V30 3685 H 348.555 -1.14684 -3.05802 0
M  V30 3686 H 347.214 -3.03187 -2.0609 0
M  V30 3687 H 346.862 -2.35745 -4.44335 0
M  V30 3688 H 346.562 -4.09805 -4.2111 0
M  V30 3689 H 348.086 -3.55175 -4.96672 0
M  V30 3690 H 349.5 -4.8297 -3.08889 0
M  V30 3691 H 347.897 -5.42429 -2.56693 0
M  V30 3692 H 348.967 -4.64652 -1.38659 0
M  V30 3693 N 350.31 0.590341 -1.46126 0
M  V30 3694 C 351.257 1.69994 -1.56111 0
M  V30 3695 C 352.227 1.61065 -0.405867 0
M  V30 3696 O 353.412 1.8039 -0.621613 0
M  V30 3697 C 350.552 3.08326 -1.55013 0
M  V30 3698 C 349.665 3.27936 -2.81215 0
M  V30 3699 C 348.8 4.56473 -2.71673 0
M  V30 3700 C 347.839 4.694 -3.92849 0
M  V30 3701 N 346.976 5.89254 -3.81738 0
M  V30 3702 H 351.816 1.60797 -2.50895 0
M  V30 3703 H 349.353 0.783799 -1.24479 0
M  V30 3704 H 351.311 3.88383 -1.52362 0
M  V30 3705 H 349.941 3.16439 -0.637667 0
M  V30 3706 H 348.993 2.41536 -2.93879 0
M  V30 3707 H 350.305 3.33357 -3.71045 0
M  V30 3708 H 349.459 5.44748 -2.67085 0
M  V30 3709 H 348.198 4.53477 -1.7947 0
M  V30 3710 H 347.203 3.79544 -3.97777 0
M  V30 3711 H 348.428 4.7418 -4.86138 0
M  V30 3712 H 346.374 5.87271 -2.92317 0
M  V30 3713 H 346.291 5.95911 -4.65217 0
M  V30 3714 H 347.559 6.79981 -3.81112 0
M  V30 3715 N 351.788 1.33704 0.83433 0
M  V30 3716 C 353.036 1.25169 1.58673 0
M  V30 3717 C 353.357 -0.18127 1.94156 0
M  V30 3718 O 352.627 -1.11113 1.6134 0
M  V30 3719 H 351.207 0.4603 0.58833 0
M  V30 3720 H 353.869 1.67478 0.996847 0
M  V30 3721 H 352.965 1.84856 2.51465 0
M  V30 3722 N 353.266 -1.05314 1.17247 0
M  V30 3723 C 354.199 -2.12512 0.831507 0
M  V30 3724 C 355.177 -1.61351 -0.201168 0
M  V30 3725 O 356.361 -1.88317 -0.0829831 0
M  V30 3726 C 353.488 -3.37848 0.24015 0
M  V30 3727 C 352.534 -4.07832 1.24801 0
M  V30 3728 S 353.367 -4.56537 2.79882 0
M  V30 3729 C 354.523 -5.85122 2.22223 0
M  V30 3730 H 354.756 -2.41106 1.7394 0
M  V30 3731 H 352.289 -1.17896 0.996988 0
M  V30 3732 H 354.247 -4.10391 -0.0945588 0
M  V30 3733 H 352.908 -3.07392 -0.645668 0
M  V30 3734 H 352.101 -4.97883 0.78287 0
M  V30 3735 H 351.703 -3.41348 1.52831 0
M  V30 3736 H 353.995 -6.58408 1.59703 0
M  V30 3737 H 354.938 -6.36381 3.10523 0
M  V30 3738 H 355.346 -5.39626 1.65722 0
M  V30 3739 N 354.744 -0.972509 -1.24016 0
M  V30 3740 C 355.991 -0.637034 -1.92219 0
M  V30 3741 C 356.319 0.828418 -1.75976 0
M  V30 3742 O 355.574 1.61206 -1.10955 0
M  V30 3743 C 355.873 -0.963694 -3.44162 0
M  V30 3744 C 355.539 -2.41807 -3.80579 0
M  V30 3745 C 354.201 -2.81556 -3.9023 0
M  V30 3746 C 356.553 -3.36172 -3.98293 0
M  V30 3747 C 353.881 -4.14702 -4.15017 0
M  V30 3748 C 356.233 -4.68952 -4.24578 0
M  V30 3749 C 354.897 -5.08472 -4.32449 0
M  V30 3750 H 354.167 -0.233107 -0.703379 0
M  V30 3751 H 356.814 -1.2249 -1.47202 0
M  V30 3752 H 355.119 -0.29365 -3.90698 0
M  V30 3753 H 356.816 -0.682449 -3.9515 0
M  V30 3754 H 353.406 -2.09988 -3.73635 0
M  V30 3755 H 357.59 -3.06644 -3.90234 0
M  V30 3756 H 352.846 -4.4494 -4.19331 0
M  V30 3757 H 357.02 -5.42037 -4.37229 0
M  V30 3758 H 354.647 -6.11665 -4.51409 0
M  V30 3759 N 356.222 1.38976 -0.743202 0
M  V30 3760 C 357.468 2.0064 -0.295189 0
M  V30 3761 C 357.801 1.5885 1.11716 0
M  V30 3762 O 357.076 0.821181 1.76315 0
M  V30 3763 C 357.359 3.578 -0.406318 0
M  V30 3764 C 357.212 4.09586 -1.85903 0
M  V30 3765 C 358.531 4.39616 0.206439 0
M  V30 3766 H 355.65 0.728935 -0.108733 0
M  V30 3767 H 358.292 1.65067 -0.940897 0
M  V30 3768 H 356.442 3.88235 0.143419 0
M  V30 3769 H 358.114 3.89837 -2.46627 0
M  V30 3770 H 356.357 3.6284 -2.3776 0
M  V30 3771 H 357.028 5.18708 -1.888 0
M  V30 3772 H 359.504 4.15273 -0.262283 0
M  V30 3773 H 358.38 5.48812 0.0983819 0
M  V30 3774 H 358.641 4.22754 1.2935 0
M  V30 3775 N 357.7 0.491464 1.49741 0
M  V30 3776 C 359.111 0.0413169 1.86654 0
M  V30 3777 C 359.462 -1.36985 1.40462 0
M  V30 3778 O 358.587 -2.01917 0.778354 0
M  V30 3779 C 359.182 0.0682023 3.38731 0
M  V30 3780 C 357.741 -0.32656 3.74981 0
M  V30 3781 C 356.888 0.444888 2.73708 0
M  V30 3782 H 359.839 0.704733 1.42194 0
M  V30 3783 H 359.86 -0.729322 3.73445 0
M  V30 3784 H 359.372 1.09539 3.72321 0
M  V30 3785 H 357.473 -1.35734 3.46997 0
M  V30 3786 H 357.586 -0.013741 4.79098 0
M  V30 3787 H 355.95 -0.104062 2.54487 0
M  V30 3788 H 356.733 1.47197 3.10142 0
M  V30 3789 N 359.178 -1.55987 0.224894 0
M  V30 3790 C 360.403 -2.03232 -0.41369 0
M  V30 3791 C 360.828 -1.10359 -1.52323 0
M  V30 3792 O 360.186 -0.092395 -1.81064 0
M  V30 3793 C 360.234 -3.48682 -0.919405 0
M  V30 3794 O 359.338 -3.58947 -2.03054 0
M  V30 3795 H 358.679 -0.657428 -0.0931903 0
M  V30 3796 H 361.209 -2.01679 0.34451 0
M  V30 3797 H 361.219 -3.8907 -1.22835 0
M  V30 3798 H 359.894 -4.15761 -0.107339 0
M  V30 3799 H 358.471 -3.30448 -1.72796 0
M  V30 3800 N 360.656 0.0484629 -1.57525 0
M  V30 3801 C 361.896 0.748196 -1.90214 0
M  V30 3802 C 362.26 1.73545 -0.821347 0
M  V30 3803 O 363.461 2.48201 -1.03198 0
M  V30 3804 C 361.732 1.41727 -3.28098 0
M  V30 3805 S 363.291 2.14884 -3.82584 0
M  V30 3806 H 360.109 0.248307 -0.666232 0
M  V30 3807 H 362.711 0.00343188 -1.955 0
M  V30 3808 H 361.415 0.685244 -4.04639 0
M  V30 3809 H 360.946 2.20099 -3.26068 0
M  V30 3810 H 362.961 3.41755 -3.59747 0
M  V30 3811 N 362.134 1.5431 0.320358 0
M  V30 3812 C 363.359 1.76954 1.08175 0
M  V30 3813 C 363.784 0.518193 1.80821 0
M  V30 3814 O 363.142 -0.530411 1.73368 0
M  V30 3815 C 363.19 2.96451 2.05303 0
M  V30 3816 O 362.294 2.68221 3.13259 0
M  V30 3817 H 361.635 0.586275 0.311733 0
M  V30 3818 H 364.165 2.01342 0.363676 0
M  V30 3819 H 364.175 3.23887 2.48116 0
M  V30 3820 H 362.85 3.87196 1.51829 0
M  V30 3821 H 361.427 2.51744 2.75099 0
M  V30 3822 N 363.613 -0.582584 1.46437 0
M  V30 3823 C 364.861 -1.33814 1.51453 0
M  V30 3824 C 365.182 -1.94277 0.167792 0
M  V30 3825 O 364.452 -1.78566 -0.805677 0
M  V30 3826 H 363.032 -0.496838 0.557818 0
M  V30 3827 H 365.694 -0.682281 1.82568 0
M  V30 3828 H 364.79 -2.14479 2.26728 0
M  V30 3829 N 365.091 -1.34144 -0.827227 0
M  V30 3830 C 366.331 -1.27603 -1.59677 0
M  V30 3831 C 366.695 0.153035 -1.91389 0
M  V30 3832 O 367.896 0.342566 -2.66608 0
M  V30 3833 C 366.167 -2.13784 -2.86411 0
M  V30 3834 S 367.726 -2.24552 -3.76991 0
M  V30 3835 H 364.544 -0.453789 -0.547354 0
M  V30 3836 H 367.146 -1.69309 -0.977479 0
M  V30 3837 H 365.85 -3.16627 -2.61104 0
M  V30 3838 H 365.381 -1.72959 -3.5334 0
M  V30 3839 H 367.396 -1.41514 -4.75593 0
M  V30 3840 N 366.569 1.04691 -1.17803 0
M  V30 3841 C 367.985 1.29963 -0.926379 0
M  V30 3842 C 368.185 1.97251 0.411635 0
M  V30 3843 O 367.241 2.24922 1.14744 0
M  V30 3844 C 368.554 2.16447 -2.08737 0
M  V30 3845 C 370.102 2.29814 -2.12496 0
M  V30 3846 C 370.577 3.19661 -3.27995 0
M  V30 3847 N 372.068 3.27247 -3.27816 0
M  V30 3848 C 372.803 3.96906 -4.13827 0
M  V30 3849 N 372.299 4.6895 -5.09959 0
M  V30 3850 N 374.092 3.93122 -4.01761 0
M  V30 3851 H 366.243 0.594182 -2.0392 0
M  V30 3852 H 368.506 0.324649 -0.890678 0
M  V30 3853 H 368.212 1.74304 -3.05469 0
M  V30 3854 H 368.086 3.17103 -2.04268 0
M  V30 3855 H 370.473 2.71196 -1.16347 0
M  V30 3856 H 370.554 1.2877 -2.21025 0
M  V30 3857 H 370.198 2.78991 -4.24413 0
M  V30 3858 H 370.128 4.20722 -3.16703 0
M  V30 3859 H 372.619 2.75921 -2.58217 0
M  V30 3860 H 372.932 5.19679 -5.71974 0
M  V30 3861 H 371.277 4.67875 -5.13924 0
M  V30 3862 H 374.468 3.35967 -3.2595 0
M  V30 3863 H 374.641 4.47139 -4.6901 0
M  V30 3864 N 368.047 0.979072 1.23499 0
M  V30 3865 C 369.275 0.665202 1.95915 0
M  V30 3866 C 369.69 -0.767571 1.72493 0
M  V30 3867 O 369.047 -1.51635 1.01554 0
M  V30 3868 C 369.098 0.944438 3.48945 0
M  V30 3869 O 368.819 2.3209 3.71572 0
M  V30 3870 C 370.32 0.646336 4.38563 0
M  V30 3871 H 367.54 0.247218 0.623798 0
M  V30 3872 H 370.084 1.31009 1.57025 0
M  V30 3873 H 368.239 0.345575 3.85856 0
M  V30 3874 H 368.653 2.40957 4.65876 0
M  V30 3875 H 370.127 0.892091 5.44744 0
M  V30 3876 H 370.604 -0.419575 4.37191 0
M  V30 3877 H 371.21 1.22562 4.07258 0
M  V30 3878 N 369.525 -1.3858 0.750561 0
M  V30 3879 C 370.936 -1.82927 0.373438 0
M  V30 3880 C 371.287 -1.62634 -1.09748 0
M  V30 3881 O 370.412 -1.12588 -1.84805 0
M  V30 3882 C 371.007 -3.32088 0.671029 0
M  V30 3883 C 369.566 -3.74795 0.34722 0
M  V30 3884 C 368.713 -2.61391 0.92575 0
M  V30 3885 H 371.664 -1.27351 0.946958 0
M  V30 3886 H 371.685 -3.80465 -0.0518269 0
M  V30 3887 H 371.197 -3.46826 1.74164 0
M  V30 3888 H 369.298 -3.65638 -0.716933 0
M  V30 3889 H 369.411 -4.71667 0.840656 0
M  V30 3890 H 367.775 -2.52265 0.351327 0
M  V30 3891 H 368.558 -2.78929 2.00133 0
M  V30 3892 N 371.003 -0.499398 -1.49478 0
M  V30 3893 C 371.935 0.316575 -2.27003 0
M  V30 3894 C 372.948 0.932047 -1.33479 0
M  V30 3895 O 374.137 0.815658 -1.58774 0
M  V30 3896 C 371.237 1.46055 -3.05812 0
M  V30 3897 C 370.41 0.952679 -4.26899 0
M  V30 3898 C 369.469 1.97407 -4.87767 0
M  V30 3899 O 368.495 1.54326 -5.4788 0
M  V30 3900 N 369.697 3.30436 -4.77276 0
M  V30 3901 H 372.462 -0.348168 -2.97671 0
M  V30 3902 H 370.023 -0.33185 -1.58463 0
M  V30 3903 H 372.015 2.14135 -3.43407 0
M  V30 3904 H 370.585 2.02948 -2.37762 0
M  V30 3905 H 369.805 0.0968248 -3.94081 0
M  V30 3906 H 371.093 0.59174 -5.05347 0
M  V30 3907 H 370.491 3.68126 -4.29534 0
M  V30 3908 H 369.048 3.94235 -5.19059 0
M  V30 3909 N 372.481 1.55866 -0.233164 0
M  V30 3910 C 373.73 1.97779 0.39579 0
M  V30 3911 C 374.043 1.12419 1.60066 0
M  V30 3912 O 375.249 1.44283 2.29988 0
M  V30 3913 C 373.705 3.5188 0.755556 0
M  V30 3914 C 373.313 4.45959 -0.427152 0
M  V30 3915 C 375.057 4.02479 1.34946 0
M  V30 3916 C 372.964 5.91383 -0.0443043 0
M  V30 3917 H 371.894 0.738592 0.15165 0
M  V30 3918 H 374.545 1.80486 -0.331212 0
M  V30 3919 H 372.927 3.64816 1.5403 0
M  V30 3920 H 374.101 4.44776 -1.20462 0
M  V30 3921 H 372.416 4.05765 -0.935068 0
M  V30 3922 H 375.013 5.08637 1.649 0
M  V30 3923 H 375.356 3.49014 2.26925 0
M  V30 3924 H 375.889 3.92813 0.62791 0
M  V30 3925 H 372.628 6.48857 -0.930874 0
M  V30 3926 H 372.148 5.95734 0.697238 0
M  V30 3927 H 373.827 6.45893 0.378334 0
M  V30 3928 N 373.959 -0.0401083 1.57549 0
M  V30 3929 C 374.869 -1.06133 2.0922 0
M  V30 3930 C 375.885 -1.40356 1.0284 0
M  V30 3931 O 377.061 -1.49897 1.34509 0
M  V30 3932 C 374.126 -2.34658 2.55218 0
M  V30 3933 C 373.187 -2.07117 3.76033 0
M  V30 3934 C 372.42 -3.29514 4.19829 0
M  V30 3935 O 372.643 -4.39794 3.63232 0
M  V30 3936 O 371.577 -3.15863 5.12362 0
M  V30 3937 H 375.403 -0.652244 2.96613 0
M  V30 3938 H 372.988 -0.256368 1.47184 0
M  V30 3939 H 374.87 -3.10239 2.85184 0
M  V30 3940 H 373.545 -2.74883 1.70941 0
M  V30 3941 H 372.452 -1.29139 3.51104 0
M  V30 3942 H 373.785 -1.71754 4.61261 0
M  V30 3943 N 375.437 -1.54477 -0.31217 0
M  V30 3944 C 376.369 -1.81011 -1.40598 0
M  V30 3945 C 377.382 -0.692546 -1.47335 0
M  V30 3946 O 378.571 -0.969847 -1.49854 0
M  V30 3947 C 375.671 -1.92307 -2.79054 0
M  V30 3948 C 374.844 -3.22594 -2.95384 0
M  V30 3949 C 373.903 -3.24448 -4.1427 0
M  V30 3950 O 372.929 -3.98035 -4.06887 0
M  V30 3951 N 374.131 -2.49042 -5.24365 0
M  V30 3952 H 376.896 -2.75408 -1.18196 0
M  V30 3953 H 374.457 -1.53914 -0.502202 0
M  V30 3954 H 376.449 -1.90962 -3.56813 0
M  V30 3955 H 375.019 -1.04955 -2.94454 0
M  V30 3956 H 374.239 -3.36806 -2.04831 0
M  V30 3957 H 375.527 -4.08593 -3.03198 0
M  V30 3958 H 374.925 -1.88867 -5.33241 0
M  V30 3959 H 373.482 -2.53463 -6.005 0
M  V30 3960 N 376.915 0.57481 -1.46744 0
M  V30 3961 C 377.878 1.66533 -1.57478 0
M  V30 3962 C 378.878 1.54338 -0.451263 0
M  V30 3963 O 380.068 1.58814 -0.715813 0
M  V30 3964 C 377.2 3.05999 -1.50259 0
M  V30 3965 H 378.393 1.58372 -2.54673 0
M  V30 3966 H 375.946 0.793301 -1.34672 0
M  V30 3967 H 376.681 3.19709 -0.543725 0
M  V30 3968 H 376.466 3.16259 -2.31781 0
M  V30 3969 H 377.956 3.8537 -1.60872 0
M  V30 3970 N 378.394 1.34581 0.820102 0
M  V30 3971 C 379.64 1.27285 1.57881 0
M  V30 3972 C 379.973 -0.156137 1.93571 0
M  V30 3973 O 379.248 -1.10222 1.60254 0
M  V30 3974 C 379.531 2.16639 2.87645 0
M  V30 3975 C 379.384 3.68088 2.58517 0
M  V30 3976 C 380.703 2.05378 3.8924 0
M  V30 3977 H 377.822 0.463714 0.572833 0
M  V30 3978 H 380.464 1.64859 0.944539 0
M  V30 3979 H 378.614 1.84725 3.41773 0
M  V30 3980 H 380.286 4.10382 2.10676 0
M  V30 3981 H 378.529 3.89038 1.91917 0
M  V30 3982 H 379.2 4.2598 3.51063 0
M  V30 3983 H 381.676 2.33404 3.44473 0
M  V30 3984 H 380.552 2.7012 4.77835 0
M  V30 3985 H 380.813 1.0316 4.29896 0
M  V30 3986 N 379.872 -1.04064 1.18357 0
M  V30 3987 C 381.12 -1.76915 0.977013 0
M  V30 3988 C 381.441 -1.88624 -0.494577 0
M  V30 3989 O 380.711 -1.41125 -1.3587 0
M  V30 3990 H 379.291 -0.65535 0.358504 0
M  V30 3991 H 381.953 -1.25592 1.49039 0
M  V30 3992 H 381.049 -2.78178 1.41504 0
M  V30 3993 N 381.35 -0.985608 -1.22978 0
M  V30 3994 C 382.599 -0.652881 -1.90841 0
M  V30 3995 C 382.912 0.817842 -1.77681 0
M  V30 3996 O 384.118 1.26185 -2.40395 0
M  V30 3997 C 382.574 -1.11717 -3.42122 0
M  V30 3998 C 382.182 -2.6126 -3.63933 0
M  V30 3999 C 383.926 -0.85843 -4.1573 0
M  V30 4000 C 381.833 -3.0133 -5.08876 0
M  V30 4001 H 380.763 -0.240491 -0.714619 0
M  V30 4002 H 383.414 -1.1942 -1.39324 0
M  V30 4003 H 381.796 -0.504027 -3.92779 0
M  V30 4004 H 382.97 -3.27858 -3.23799 0
M  V30 4005 H 381.285 -2.84937 -3.03644 0
M  V30 4006 H 383.882 -1.13359 -5.22546 0
M  V30 4007 H 384.225 0.205461 -4.15793 0
M  V30 4008 H 384.758 -1.43341 -3.71077 0
M  V30 4009 H 381.497 -4.06864 -5.13947 0
M  V30 4010 H 381.017 -2.3943 -5.49939 0
M  V30 4011 H 382.696 -2.92224 -5.77247 0
M  V30 4012 N 382.828 1.3818 -0.7579 0
M  V30 4013 C 384.074 2.00316 -0.316453 0
M  V30 4014 C 384.407 1.60026 1.10025 0
M  V30 4015 O 383.682 0.839835 1.75434 0
M  V30 4016 C 383.965 3.57349 -0.444245 0
M  V30 4017 C 383.818 4.07591 -1.90236 0
M  V30 4018 C 385.137 4.3981 0.1598 0
M  V30 4019 H 382.256 0.727741 -0.116459 0
M  V30 4020 H 384.898 1.6406 -0.958352 0
M  V30 4021 H 383.048 3.88365 0.102233 0
M  V30 4022 H 384.72 3.87199 -2.50748 0
M  V30 4023 H 382.963 3.60297 -2.41595 0
M  V30 4024 H 383.634 5.16677 -1.94291 0
M  V30 4025 H 386.11 4.14971 -0.306314 0
M  V30 4026 H 384.986 5.48885 0.0401675 0
M  V30 4027 H 385.247 4.24102 1.24859 0
M  V30 4028 N 384.306 0.507319 1.49211 0
M  V30 4029 C 385.554 -0.0348839 2.0207 0
M  V30 4030 C 385.875 -1.36898 1.38866 0
M  V30 4031 O 385.145 -1.88133 0.546151 0
M  V30 4032 H 383.725 -0.0158812 0.746831 0
M  V30 4033 H 386.387 0.665998 1.83168 0
M  V30 4034 H 385.483 -0.159917 3.1169 0
M  V30 4035 N 385.784 -1.5574 0.241426 0
M  V30 4036 C 386.747 -2.19877 -0.647063 0
M  V30 4037 C 387.747 -1.16642 -1.10686 0
M  V30 4038 O 388.937 -1.41757 -1.01245 0
M  V30 4039 C 386.069 -2.83797 -1.88871 0
M  V30 4040 H 387.262 -2.99772 -0.087574 0
M  V30 4041 H 384.815 -1.56298 -0.00813574 0
M  V30 4042 H 385.55 -2.07824 -2.48957 0
M  V30 4043 H 385.335 -3.59414 -1.56728 0
M  V30 4044 H 386.825 -3.32898 -2.52129 0
M  V30 4045 N 387.262 0.0317525 -1.57568 0
M  V30 4046 C 388.508 0.724175 -1.8943 0
M  V30 4047 C 388.841 1.75149 -0.838836 0
M  V30 4048 O 388.116 1.93948 0.146422 0
M  V30 4049 C 388.399 1.39615 -3.31933 0
M  V30 4050 C 388.252 0.382537 -4.4817 0
M  V30 4051 C 389.571 2.33084 -3.73309 0
M  V30 4052 H 386.69 0.261797 -0.688935 0
M  V30 4053 H 389.332 -0.013017 -1.89996 0
M  V30 4054 H 387.482 2.02451 -3.31581 0
M  V30 4055 H 389.154 -0.243689 -4.60656 0
M  V30 4056 H 387.397 -0.29844 -4.32772 0
M  V30 4057 H 388.068 0.891145 -5.44759 0
M  V30 4058 H 390.544 1.80295 -3.7501 0
M  V30 4059 H 389.42 2.77084 -4.73831 0
M  V30 4060 H 389.681 3.19643 -3.05419 0
M  V30 4061 N 388.74 1.54641 0.303973 0
M  V30 4062 C 389.989 1.7299 1.03717 0
M  V30 4063 C 390.302 0.521168 1.88529 0
M  V30 4064 O 391.508 0.586408 2.65092 0
M  V30 4065 C 389.964 3.06051 1.89369 0
M  V30 4066 C 389.572 4.34393 1.09574 0
M  V30 4067 C 391.316 3.3376 2.62306 0
M  V30 4068 C 389.223 5.58506 1.94486 0
M  V30 4069 H 388.153 0.64473 0.390947 0
M  V30 4070 H 390.804 1.81124 0.294328 0
M  V30 4071 H 389.186 2.91874 2.67629 0
M  V30 4072 H 390.36 4.59396 0.359485 0
M  V30 4073 H 388.675 4.13597 0.482324 0
M  V30 4074 H 391.272 4.23687 3.26181 0
M  V30 4075 H 391.615 2.52503 3.3098 0
M  V30 4076 H 392.148 3.48894 1.91097 0
M  V30 4077 H 388.887 6.42422 1.30287 0
M  V30 4078 H 388.407 5.37694 2.65792 0
M  V30 4079 H 390.086 5.95651 2.52605 0
M  V30 4080 N 390.218 -0.567019 1.47046 0
M  V30 4081 C 391.151 -1.69016 1.53326 0
M  V30 4082 C 392.129 -1.57949 0.386126 0
M  V30 4083 O 393.313 -1.78945 0.592529 0
M  V30 4084 C 390.44 -3.07191 1.42658 0
M  V30 4085 C 389.486 -3.36733 2.6175 0
M  V30 4086 S 390.319 -3.27069 4.24012 0
M  V30 4087 C 391.475 -4.67755 4.1588 0
M  V30 4088 H 391.708 -1.63434 2.48348 0
M  V30 4089 H 389.241 -0.747048 1.35124 0
M  V30 4090 H 391.199 -3.86897 1.37191 0
M  V30 4091 H 389.86 -3.10249 0.490369 0
M  V30 4092 H 389.053 -4.37441 2.50323 0
M  V30 4093 H 388.655 -2.64627 2.64289 0
M  V30 4094 H 390.947 -5.58491 3.83529 0
M  V30 4095 H 391.89 -4.84239 5.16641 0
M  V30 4096 H 392.298 -4.45341 3.46889 0
M  V30 4097 N 391.696 -1.35014 -0.812953 0
M  V30 4098 C 393.107 -1.25035 -1.38648 0
M  V30 4099 C 393.458 0.119967 -1.95833 0
M  V30 4100 O 392.583 1.02069 -1.90816 0
M  V30 4101 C 393.178 -2.26394 -2.52054 0
M  V30 4102 C 391.737 -2.20175 -3.05287 0
M  V30 4103 C 390.884 -2.12451 -1.78213 0
M  V30 4104 H 393.835 -1.46235 -0.616516 0
M  V30 4105 H 393.856 -1.88672 -3.30429 0
M  V30 4106 H 393.368 -3.26116 -2.10404 0
M  V30 4107 H 391.469 -1.23841 -3.51417 0
M  V30 4108 H 391.582 -3.11863 -3.63701 0
M  V30 4109 H 389.946 -1.58328 -1.9951 0
M  V30 4110 H 390.729 -3.14024 -1.38723 0
M  V30 4111 N 393.175 1.03435 -1.18907 0
M  V30 4112 C 394.125 2.09924 -0.889706 0
M  V30 4113 C 395.109 1.60261 0.143216 0
M  V30 4114 O 396.301 1.76892 -0.0617122 0
M  V30 4115 C 393.43 3.40669 -0.424168 0
M  V30 4116 C 392.516 3.97082 -1.48952 0
M  V30 4117 N 392.907 4.27227 -2.70759 0
M  V30 4118 C 391.205 4.25029 -1.35152 0
M  V30 4119 C 391.906 4.7246 -3.39347 0
M  V30 4120 N 390.882 4.7366 -2.66735 0
M  V30 4121 H 394.684 2.31116 -1.81555 0
M  V30 4122 H 392.198 1.21246 -1.08042 0
M  V30 4123 H 394.195 4.16461 -0.191176 0
M  V30 4124 H 392.855 3.20901 0.495263 0
M  V30 4125 H 393.866 4.16678 -3.0757 0
M  V30 4126 H 390.543 4.14554 -0.495126 0
M  V30 4127 H 391.933 5.04751 -4.43481 0
M  V30 4128 N 394.653 0.992116 1.22453 0
M  V30 4129 C 395.601 0.534644 2.26372 0
M  V30 4130 C 396.595 -0.414293 1.64256 0
M  V30 4131 O 397.801 -0.286899 1.77699 0
M  V30 4132 H 394.176 0.154502 0.735957 0
M  V30 4133 H 396.147 1.42256 2.62309 0
M  V30 4134 C 394.896 -0.135815 3.47435 0
M  V30 4135 H 394.219 0.585311 3.95492 0
M  V30 4136 H 395.659 -0.419374 4.21921 0
M  V30 4137 C 394.118 -1.37089 3.07747 0
M  V30 4138 O 394.648 -2.46629 3.17076 0
M  V30 4139 N 392.854 -1.24585 2.62539 0
M  V30 4140 H 392.401 -0.354542 2.55149 0
M  V30 4141 H 392.359 -2.07327 2.36353 0
M  V30 4142 N 396.131 -1.37776 0.765217 0
M  V30 4143 C 397.064 -2.28008 0.0935025 0
M  V30 4144 C 398.042 -1.45985 -0.716047 0
M  V30 4145 O 399.226 -1.75331 -0.692203 0
M  V30 4146 C 396.353 -3.27228 -0.874052 0
M  V30 4147 C 395.399 -4.26239 -0.149307 0
M  V30 4148 S 396.232 -5.22827 1.15809 0
M  V30 4149 C 397.388 -6.256 0.193906 0
M  V30 4150 H 397.621 -2.84631 0.858637 0
M  V30 4151 H 395.154 -1.43952 0.558313 0
M  V30 4152 H 397.112 -3.84902 -1.42691 0
M  V30 4153 H 395.773 -2.69565 -1.61225 0
M  V30 4154 H 394.966 -4.96213 -0.88254 0
M  V30 4155 H 394.568 -3.7252 0.332366 0
M  V30 4156 H 396.86 -6.74508 -0.636011 0
M  V30 4157 H 397.803 -7.02838 0.861638 0
M  V30 4158 H 398.211 -5.64173 -0.191975 0
M  V30 4159 N 397.609 -0.515225 -1.4894 0
M  V30 4160 C 398.839 0.0205735 -2.0659 0
M  V30 4161 C 399.247 1.30064 -1.37405 0
M  V30 4162 O 398.59 1.78087 -0.450632 0
M  V30 4163 C 398.652 0.330124 -3.57981 0
M  V30 4164 C 398.316 -0.854295 -4.48944 0
M  V30 4165 C 399.313 -1.7487 -4.89609 0
M  V30 4166 C 396.998 -1.05712 -4.9105 0
M  V30 4167 C 398.992 -2.82996 -5.71132 0
M  V30 4168 C 396.679 -2.14154 -5.72347 0
M  V30 4169 C 397.677 -3.0263 -6.12294 0
M  V30 4170 O 397.365 -4.09198 -6.91962 0
M  V30 4171 H 397.097 -0.0236833 -0.675585 0
M  V30 4172 H 399.651 -0.715956 -1.92518 0
M  V30 4173 H 397.881 1.12044 -3.70112 0
M  V30 4174 H 399.57 0.806233 -3.97812 0
M  V30 4175 H 400.336 -1.60388 -4.57712 0
M  V30 4176 H 396.215 -0.377788 -4.59449 0
M  V30 4177 H 399.759 -3.52083 -6.02232 0
M  V30 4178 H 395.656 -2.28626 -6.03656 0
M  V30 4179 H 396.424 -4.06726 -7.10293 0
M  V30 4180 N 399.087 1.5561 -0.249682 0
M  V30 4181 C 400.017 2.24477 0.642826 0
M  V30 4182 C 400.998 1.22601 1.17911 0
M  V30 4183 O 402.183 1.5126 1.21795 0
M  V30 4184 C 399.313 2.94638 1.83863 0
M  V30 4185 C 398.267 4.03227 1.435 0
M  V30 4186 C 397.593 4.60828 2.71186 0
M  V30 4187 C 398.893 5.18796 0.604002 0
M  V30 4188 H 400.587 2.99321 0.0685625 0
M  V30 4189 H 398.133 1.43965 0.0315363 0
M  V30 4190 H 400.086 3.41517 2.46868 0
M  V30 4191 H 398.81 2.17287 2.43832 0
M  V30 4192 H 397.469 3.57121 0.828275 0
M  V30 4193 H 397.117 3.80174 3.29358 0
M  V30 4194 H 396.817 5.34132 2.44901 0
M  V30 4195 H 398.341 5.10442 3.35084 0
M  V30 4196 H 399.755 5.61883 1.13842 0
M  V30 4197 H 398.152 5.98506 0.437097 0
M  V30 4198 H 399.222 4.83384 -0.383147 0
M  V30 4199 N 400.565 -0.0233959 1.57583 0
M  V30 4200 C 401.515 -1.03023 2.03397 0
M  V30 4201 C 402.499 -1.31701 0.924315 0
M  V30 4202 O 403.691 -1.31191 1.18819 0
M  V30 4203 C 400.82 -2.32961 2.52159 0
M  V30 4204 C 399.906 -2.07349 3.69956 0
M  V30 4205 N 400.297 -1.51814 4.82479 0
M  V30 4206 C 398.595 -2.37606 3.77438 0
M  V30 4207 C 399.296 -1.42136 5.64068 0
M  V30 4208 N 398.272 -1.89891 5.09355 0
M  V30 4209 H 402.074 -0.594962 2.87815 0
M  V30 4210 H 399.588 -0.229586 1.60769 0
M  V30 4211 H 401.585 -3.05906 2.83244 0
M  V30 4212 H 400.245 -2.77162 1.69149 0
M  V30 4213 H 401.256 -1.20008 5.03804 0
M  V30 4214 H 397.933 -2.84842 3.05239 0
M  V30 4215 H 399.323 -0.996405 6.64471 0
M  V30 4216 N 402.043 -1.548 -0.295768 0
M  V30 4217 C 403.268 -1.78653 -1.05346 0
M  V30 4218 C 403.693 -0.546894 -1.79974 0
M  V30 4219 O 403.051 0.502763 -1.7419 0
M  V30 4220 C 403.099 -2.99679 -2.00561 0
M  V30 4221 O 402.203 -2.7317 -3.08953 0
M  V30 4222 H 401.544 -0.59116 -0.302367 0
M  V30 4223 H 404.074 -2.01895 -0.331598 0
M  V30 4224 H 404.084 -3.27793 -2.42932 0
M  V30 4225 H 402.759 -3.89562 -1.4565 0
M  V30 4226 H 401.336 -2.56089 -2.71059 0
M  V30 4227 N 403.521 0.559213 -1.47345 0
M  V30 4228 C 404.484 1.64854 -1.59235 0
M  V30 4229 C 405.484 1.53851 -0.467607 0
M  V30 4230 O 406.674 1.58045 -0.732617 0
M  V30 4231 C 403.806 3.04388 -1.53496 0
M  V30 4232 H 404.999 1.55662 -2.56339 0
M  V30 4233 H 402.552 0.778973 -1.35505 0
M  V30 4234 H 403.287 3.19115 -0.577604 0
M  V30 4235 H 403.072 3.13783 -2.35123 0
M  V30 4236 H 404.562 3.83642 -1.6495 0
M  V30 4237 N 404.999 1.35443 0.805782 0
M  V30 4238 C 405.929 1.31095 1.93226 0
M  V30 4239 C 406.91 0.185244 1.69088 0
M  V30 4240 O 408.095 0.380332 1.90439 0
M  V30 4241 C 405.225 1.08299 3.29983 0
M  V30 4242 C 404.179 2.17519 3.68605 0
M  V30 4243 C 403.505 1.79887 5.03532 0
M  V30 4244 C 404.805 3.5949 3.78898 0
M  V30 4245 H 406.499 2.25352 1.97122 0
M  V30 4246 H 404.045 1.0848 0.946996 0
M  V30 4247 H 405.998 1.03897 4.08391 0
M  V30 4248 H 404.722 0.104885 3.26432 0
M  V30 4249 H 403.381 2.2102 2.92482 0
M  V30 4250 H 403.029 0.80693 4.96485 0
M  V30 4251 H 402.729 2.53001 5.30344 0
M  V30 4252 H 404.253 1.77011 5.84379 0
M  V30 4253 H 405.667 3.58307 4.47536 0
M  V30 4254 H 404.064 4.31371 4.1718 0
M  V30 4255 H 405.134 3.95584 2.80431 0
M  V30 4256 N 406.477 -1.02803 1.19454 0
M  V30 4257 C 407.723 -1.76478 0.999171 0
M  V30 4258 C 408.056 -1.88456 -0.468828 0
M  V30 4259 O 407.331 -1.40198 -1.34814 0
M  V30 4260 C 407.614 -3.19044 1.66981 0
M  V30 4261 C 407.467 -3.14932 3.21151 0
M  V30 4262 C 408.786 -4.17456 1.39349 0
M  V30 4263 H 405.905 -0.640614 0.364393 0
M  V30 4264 H 408.547 -1.20005 1.47305 0
M  V30 4265 H 406.697 -3.67263 1.2669 0
M  V30 4266 H 408.369 -2.74605 3.70661 0
M  V30 4267 H 406.612 -2.52625 3.52652 0
M  V30 4268 H 407.283 -4.1566 3.63223 0
M  V30 4269 H 409.759 -3.77842 1.74283 0
M  V30 4270 H 408.635 -5.154 1.88823 0
M  V30 4271 H 408.896 -4.40949 0.318813 0
M  V30 4272 N 407.956 -0.998596 -1.21925 0
M  V30 4273 C 408.903 -0.553621 -2.24062 0
M  V30 4274 C 409.873 0.416999 -1.6078 0
M  V30 4275 O 411.058 0.320482 -1.88089 0
M  V30 4276 C 408.198 0.119959 -3.44891 0
M  V30 4277 C 407.311 -0.893077 -4.22668 0
M  V30 4278 C 406.446 -0.192424 -5.30851 0
M  V30 4279 C 405.485 -1.19344 -6.00353 0
M  V30 4280 N 404.622 -0.520707 -7.00166 0
M  V30 4281 H 409.462 -1.4293 -2.61486 0
M  V30 4282 H 406.999 -0.715838 -1.28507 0
M  V30 4283 H 408.957 0.527459 -4.13852 0
M  V30 4284 H 407.587 0.959389 -3.08214 0
M  V30 4285 H 406.639 -1.41886 -3.52948 0
M  V30 4286 H 407.951 -1.65512 -4.70539 0
M  V30 4287 H 407.105 0.271515 -6.06092 0
M  V30 4288 H 405.844 0.602075 -4.83969 0
M  V30 4289 H 404.849 -1.66795 -5.23889 0
M  V30 4290 H 406.074 -1.98891 -6.49322 0
M  V30 4291 H 404.02 0.254252 -6.55507 0
M  V30 4292 H 403.937 -1.2211 -7.46073 0
M  V30 4293 H 405.205 -0.0797596 -7.79459 0
M  V30 4294 N 409.434 1.37368 -0.772513 0
M  V30 4295 C 410.659 2.0447 -0.347386 0
M  V30 4296 C 411.084 1.57882 1.0225 0
M  V30 4297 O 410.442 0.73941 1.65537 0
M  V30 4298 C 410.49 3.58369 -0.400479 0
M  V30 4299 O 409.594 4.0803 0.598789 0
M  V30 4300 H 408.935 0.646773 -0.15027 0
M  V30 4301 H 411.465 1.75667 -1.04892 0
M  V30 4302 H 411.475 4.07183 -0.258045 0
M  V30 4303 H 410.15 3.91633 -1.39986 0
M  V30 4304 H 408.727 3.70534 0.419411 0
M  V30 4305 N 410.912 0.523116 1.48665 0
M  V30 4306 C 412.328 0.180511 1.58576 0
M  V30 4307 C 412.528 -1.31597 1.52592 0
M  V30 4308 O 411.584 -2.0937 1.4114 0
M  V30 4309 C 412.897 0.776949 2.90489 0
M  V30 4310 C 414.445 0.745058 3.04003 0
M  V30 4311 C 414.92 1.31995 4.38567 0
M  V30 4312 N 416.411 1.28162 4.45117 0
M  V30 4313 C 417.146 1.6964 5.47731 0
M  V30 4314 N 416.642 2.18816 6.57337 0
M  V30 4315 N 418.435 1.6092 5.38573 0
M  V30 4316 H 410.586 1.4958 1.50797 0
M  V30 4317 H 412.849 0.621772 0.715614 0
M  V30 4318 H 412.555 1.82732 3.00503 0
M  V30 4319 H 412.429 0.25007 3.7637 0
M  V30 4320 H 414.816 -0.296532 2.93606 0
M  V30 4321 H 414.897 1.30933 2.1975 0
M  V30 4322 H 414.541 2.36043 4.49718 0
M  V30 4323 H 414.471 0.731418 5.21496 0
M  V30 4324 H 416.962 0.92155 3.66491 0
M  V30 4325 H 417.275 2.48478 7.31764 0
M  V30 4326 H 415.62 2.22805 6.58318 0
M  V30 4327 H 418.811 1.22304 4.5184 0
M  V30 4328 H 418.984 1.93567 6.18414 0
M  V30 4329 N 412.39 -1.55475 0.257931 0
M  V30 4330 C 413.322 -2.19192 -0.669881 0
M  V30 4331 C 414.335 -1.17148 -1.1305 0
M  V30 4332 O 415.524 -1.43959 -1.05537 0
M  V30 4333 C 412.624 -2.79016 -1.92363 0
M  V30 4334 C 411.797 -4.06586 -1.61265 0
M  V30 4335 C 410.856 -4.50622 -2.7171 0
M  V30 4336 O 409.882 -5.16765 -2.38627 0
M  V30 4337 N 411.084 -4.19325 -4.01431 0
M  V30 4338 H 413.849 -2.99441 -0.124635 0
M  V30 4339 H 411.41 -1.6171 0.0783311 0
M  V30 4340 H 413.402 -3.05427 -2.65511 0
M  V30 4341 H 411.972 -2.0286 -2.37837 0
M  V30 4342 H 411.192 -3.87646 -0.715811 0
M  V30 4343 H 412.48 -4.89737 -1.37967 0
M  V30 4344 H 411.878 -3.66247 -4.31138 0
M  V30 4345 H 410.435 -4.50547 -4.7101 0
M  V30 4346 N 413.868 0.0150385 -1.57593 0
M  V30 4347 C 415.114 0.704043 -1.90187 0
M  V30 4348 C 415.447 1.74249 -0.857366 0
M  V30 4349 O 414.722 1.94092 0.125843 0
M  V30 4350 C 415.005 1.36087 -3.33395 0
M  V30 4351 C 414.858 0.334981 -4.48551 0
M  V30 4352 C 416.177 2.29112 -3.7576 0
M  V30 4353 H 413.296 0.254475 -0.691673 0
M  V30 4354 H 415.938 -0.0331678 -1.89971 0
M  V30 4355 H 414.088 1.98922 -3.3371 0
M  V30 4356 H 415.76 -0.292534 -4.60372 0
M  V30 4357 H 414.003 -0.344325 -4.32431 0
M  V30 4358 H 414.674 0.833316 -5.45674 0
M  V30 4359 H 417.15 1.76308 -3.76902 0
M  V30 4360 H 416.026 2.72043 -4.76743 0
M  V30 4361 H 416.287 3.16385 -3.08793 0
M  V30 4362 N 415.346 1.54954 0.287554 0
M  V30 4363 C 416.294 1.87606 1.37502 0
M  V30 4364 C 417.288 0.751001 1.51843 0
M  V30 4365 O 418.494 0.935169 1.53801 0
M  V30 4366 H 414.869 0.595231 0.459569 0
M  V30 4367 H 416.84 2.78477 1.07206 0
M  V30 4368 C 415.589 2.15183 2.73115 0
M  V30 4369 H 414.912 3.01234 2.62866 0
M  V30 4370 H 416.352 2.4196 3.48183 0
M  V30 4371 C 414.811 0.954686 3.2309 0
M  V30 4372 O 415.341 0.181949 4.01288 0
M  V30 4373 N 413.547 0.756368 2.80584 0
M  V30 4374 H 413.094 1.38643 2.17108 0
M  V30 4375 H 413.052 -0.0430391 3.14371 0
M  V30 4376 N 416.824 -0.551391 1.4764 0
M  V30 4377 C 418.24 -0.877887 1.33287 0
M  V30 4378 C 418.44 -1.98817 0.327721 0
M  V30 4379 O 417.496 -2.51171 -0.258695 0
M  V30 4380 C 418.809 -1.26563 2.72768 0
M  V30 4381 C 420.357 -1.37673 2.81097 0
M  V30 4382 C 420.832 -1.79799 4.21232 0
M  V30 4383 N 422.323 -1.8694 4.23802 0
M  V30 4384 C 423.058 -2.20876 5.29151 0
M  V30 4385 N 422.554 -2.53386 6.448 0
M  V30 4386 N 424.347 -2.217 5.16532 0
M  V30 4387 H 416.498 0.18153 2.11623 0
M  V30 4388 H 418.761 0.0185514 0.947818 0
M  V30 4389 H 418.467 -0.523591 3.47781 0
M  V30 4390 H 418.341 -2.22052 3.04915 0
M  V30 4391 H 420.728 -2.10956 2.06353 0
M  V30 4392 H 420.809 -0.40357 2.52596 0
M  V30 4393 H 420.453 -1.07083 4.96483 0
M  V30 4394 H 420.383 -2.78128 4.4716 0
M  V30 4395 H 422.874 -1.64179 3.40373 0
M  V30 4396 H 423.187 -2.78325 7.20941 0
M  V30 4397 H 421.532 -2.50953 6.48111 0
M  V30 4398 H 424.723 -1.95745 4.25207 0
M  V30 4399 H 424.896 -2.47818 5.98741 0
M  V30 4400 N 418.302 -1.35869 -0.798587 0
M  V30 4401 C 419.25 -1.29491 -1.93222 0
M  V30 4402 C 420.244 -0.18836 -1.6835 0
M  V30 4403 O 421.45 -0.354822 -1.76468 0
M  V30 4404 H 417.825 -0.402901 -0.63496 0
M  V30 4405 H 419.796 -2.25247 -1.9572 0
M  V30 4406 C 418.545 -1.09184 -3.30112 0
M  V30 4407 H 417.868 -1.93574 -3.49813 0
M  V30 4408 H 419.308 -1.08766 -4.09812 0
M  V30 4409 C 417.767 0.203959 -3.36282 0
M  V30 4410 O 418.297 1.19699 -3.83451 0
M  V30 4411 N 416.503 0.245488 -2.89561 0
M  V30 4412 H 416.05 -0.563223 -2.51367 0
M  V30 4413 H 416.008 1.11219 -2.94071 0
M  V30 4414 N 419.78 1.02168 -1.19998 0
M  V30 4415 C 420.728 2.12717 -0.940967 0
M  V30 4416 C 421.722 1.69069 0.105841 0
M  V30 4417 O 422.928 1.79946 -0.0440583 0
M  V30 4418 H 419.303 0.695108 -0.28693 0
M  V30 4419 H 421.274 2.3175 -1.87975 0
M  V30 4420 C 420.023 3.44027 -0.504049 0
M  V30 4421 H 419.346 3.78036 -1.30112 0
M  V30 4422 H 420.786 4.22452 -0.361991 0
M  V30 4423 C 419.245 3.27678 0.782878 0
M  V30 4424 O 419.775 3.56949 1.84256 0
M  V30 4425 N 417.981 2.80943 0.742921 0
M  V30 4426 H 417.528 2.57322 -0.119687 0
M  V30 4427 H 417.486 2.70385 1.60435 0
M  V30 4428 N 421.258 1.00505 1.21394 0
M  V30 4429 C 422.205 0.565496 2.23765 0
M  V30 4430 C 423.175 -0.408466 1.60999 0
M  V30 4431 O 424.36 -0.310503 1.88257 0
M  V30 4432 C 421.5 -0.101667 3.4495 0
M  V30 4433 C 420.613 0.915479 4.22188 0
M  V30 4434 C 419.748 0.220574 5.30742 0
M  V30 4435 C 418.787 1.22527 5.99711 0
M  V30 4436 N 417.924 0.557831 6.9988 0
M  V30 4437 H 422.764 1.44314 2.60725 0
M  V30 4438 H 420.301 0.722643 1.28126 0
M  V30 4439 H 422.259 -0.505504 4.14126 0
M  V30 4440 H 420.889 -0.94303 3.08718 0
M  V30 4441 H 419.941 1.43756 3.52191 0
M  V30 4442 H 421.253 1.68005 4.69655 0
M  V30 4443 H 420.407 -0.239368 6.06228 0
M  V30 4444 H 419.146 -0.576401 4.84282 0
M  V30 4445 H 418.151 1.69571 5.22997 0
M  V30 4446 H 419.376 2.02332 6.48258 0
M  V30 4447 H 417.322 -0.219486 6.55633 0
M  V30 4448 H 417.239 1.26065 7.45415 0
M  V30 4449 H 418.507 0.121095 7.79406 0
M  V30 4450 N 422.737 -1.36956 0.779787 0
M  V30 4451 C 423.669 -2.28833 0.129639 0
M  V30 4452 C 424.682 -1.4902 -0.655511 0
M  V30 4453 O 425.871 -1.71578 -0.492279 0
M  V30 4454 C 422.971 -3.2833 -0.839792 0
M  V30 4455 C 422.144 -4.3727 -0.10675 0
M  V30 4456 C 421.203 -5.16789 -0.990717 0
M  V30 4457 O 420.229 -5.67406 -0.451516 0
M  V30 4458 N 421.431 -5.32294 -2.3161 0
M  V30 4459 H 424.196 -2.85268 0.918803 0
M  V30 4460 H 421.757 -1.49019 0.632841 0
M  V30 4461 H 423.749 -3.78413 -1.43477 0
M  V30 4462 H 422.319 -2.72605 -1.52988 0
M  V30 4463 H 421.539 -3.88478 0.669216 0
M  V30 4464 H 422.827 -5.07229 0.399464 0
M  V30 4465 H 422.225 -4.92768 -2.77843 0
M  V30 4466 H 420.782 -5.85656 -2.86095 0
M  V30 4467 N 424.215 -0.530993 -1.48385 0
M  V30 4468 C 425.125 0.23503 -2.3342 0
M  V30 4469 C 426.141 0.93801 -1.46552 0
M  V30 4470 O 427.317 0.912745 -1.7953 0
M  V30 4471 C 424.382 1.26778 -3.22689 0
M  V30 4472 C 423.443 0.575038 -4.25431 0
M  V30 4473 C 422.676 1.55858 -5.10435 0
M  V30 4474 O 422.899 2.79129 -4.97437 0
M  V30 4475 O 421.833 1.09742 -5.91811 0
M  V30 4476 H 425.659 -0.461794 -3.00169 0
M  V30 4477 H 423.244 -0.291903 -1.46521 0
M  V30 4478 H 425.126 1.86457 -3.77904 0
M  V30 4479 H 423.801 1.94699 -2.586 0
M  V30 4480 H 422.708 -0.0622782 -3.74048 0
M  V30 4481 H 424.041 -0.062253 -4.92161 0
M  V30 4482 N 425.693 1.55336 -0.266172 0
M  V30 4483 C 426.939 1.99692 0.353681 0
M  V30 4484 C 427.272 1.1543 1.56172 0
M  V30 4485 O 426.547 0.222218 1.93226 0
M  V30 4486 C 426.83 3.52316 0.74466 0
M  V30 4487 C 426.683 4.47337 -0.470101 0
M  V30 4488 C 428.002 4.10588 1.58447 0
M  V30 4489 H 425.121 0.725961 0.12708 0
M  V30 4490 H 427.763 1.86336 -0.371333 0
M  V30 4491 H 425.913 3.63829 1.36239 0
M  V30 4492 H 427.585 4.4778 -1.10864 0
M  V30 4493 H 425.828 4.19364 -1.10978 0
M  V30 4494 H 426.499 5.51788 -0.15291 0
M  V30 4495 H 428.975 4.02297 1.06286 0
M  V30 4496 H 427.851 5.17607 1.82686 0
M  V30 4497 H 428.112 3.60253 2.56262 0
M  V30 4498 N 427.171 -0.0066808 1.57599 0
M  V30 4499 C 428.587 -0.36267 1.55425 0
M  V30 4500 C 428.787 -1.75209 0.995187 0
M  V30 4501 O 427.843 -2.44616 0.626058 0
M  V30 4502 C 429.156 -0.244017 2.99708 0
M  V30 4503 C 430.704 -0.319451 3.11366 0
M  V30 4504 C 431.179 -0.229998 4.57422 0
M  V30 4505 N 432.67 -0.288105 4.62303 0
M  V30 4506 C 433.405 -0.242127 5.72889 0
M  V30 4507 N 432.901 -0.147133 6.92644 0
M  V30 4508 N 434.694 -0.293502 5.61333 0
M  V30 4509 H 426.845 0.902314 1.92281 0
M  V30 4510 H 429.108 0.34525 0.882896 0
M  V30 4511 H 428.814 0.711678 3.44424 0
M  V30 4512 H 428.688 -1.02877 3.629 0
M  V30 4513 H 431.075 -1.26559 2.66584 0
M  V30 4514 H 431.156 0.495055 2.50964 0
M  V30 4515 H 430.8 0.712566 5.02877 0
M  V30 4516 H 430.73 -1.0629 5.15761 0
M  V30 4517 H 433.221 -0.363126 3.76151 0
M  V30 4518 H 433.534 -0.117763 7.7271 0
M  V30 4519 H 431.879 -0.112857 6.94908 0
M  V30 4520 H 435.07 -0.365864 4.66668 0
M  V30 4521 H 435.243 -0.254204 6.47501 0
M  V30 4522 N 428.649 -1.55105 -0.279332 0
M  V30 4523 C 429.559 -1.90638 -1.36727 0
M  V30 4524 C 430.575 -0.802899 -1.54368 0
M  V30 4525 O 431.751 -1.10138 -1.68616 0
M  V30 4526 C 428.816 -2.16547 -2.70755 0
M  V30 4527 C 427.877 -3.40146 -2.61915 0
M  V30 4528 C 427.11 -3.6481 -3.8955 0
M  V30 4529 O 427.333 -2.92095 -4.89935 0
M  V30 4530 O 426.267 -4.58343 -3.90135 0
M  V30 4531 H 430.093 -2.83237 -1.09591 0
M  V30 4532 H 427.678 -1.4157 -0.477306 0
M  V30 4533 H 429.56 -2.34665 -3.50014 0
M  V30 4534 H 428.235 -1.27131 -2.9769 0
M  V30 4535 H 427.142 -3.2737 -1.81052 0
M  V30 4536 H 428.475 -4.29761 -2.3993 0
M  V30 4537 N 430.127 0.543554 -1.4793 0
M  V30 4538 C 431.09 1.63156 -1.60975 0
M  V30 4539 C 432.09 1.53346 -0.483899 0
M  V30 4540 O 433.28 1.5726 -0.749339 0
M  V30 4541 C 430.412 3.02743 -1.56716 0
M  V30 4542 H 431.605 1.52934 -2.57975 0
M  V30 4543 H 429.158 0.764557 -1.36324 0
M  V30 4544 H 429.893 3.18484 -0.611418 0
M  V30 4545 H 429.678 3.11272 -2.38438 0
M  V30 4546 H 431.168 3.81871 -1.6901 0
M  V30 4547 N 431.605 1.3629 0.791371 0
M  V30 4548 C 432.553 1.30514 1.92533 0
M  V30 4549 C 433.547 0.197285 1.68247 0
M  V30 4550 O 434.753 0.364176 1.76278 0
M  V30 4551 H 431.128 0.406263 0.632815 0
M  V30 4552 H 433.099 2.26282 1.94523 0
M  V30 4553 C 431.848 1.10933 3.29529 0
M  V30 4554 H 431.171 1.95427 3.48781 0
M  V30 4555 H 432.611 1.10937 4.0923 0
M  V30 4556 C 431.07 -0.186123 3.36385 0
M  V30 4557 O 431.6 -1.17664 3.84081 0
M  V30 4558 N 429.806 -0.230128 2.89687 0
M  V30 4559 H 429.353 0.576545 2.51065 0
M  V30 4560 H 429.311 -1.09658 2.94657 0
M  V30 4561 N 433.083 -1.0153 1.20538 0
M  V30 4562 C 434.03 -2.10098 0.955383 0
M  V30 4563 C 435 -1.65702 -0.114878 0
M  V30 4564 O 436.185 -1.90776 0.0301118 0
M  V30 4565 C 433.325 -3.41236 0.514969 0
M  V30 4566 C 432.438 -3.99102 1.65353 0
M  V30 4567 C 431.573 -5.18306 1.16329 0
M  V30 4568 C 430.612 -5.68258 2.27485 0
M  V30 4569 N 429.749 -6.78722 1.7967 0
M  V30 4570 H 434.589 -2.30818 1.88486 0
M  V30 4571 H 432.126 -1.13189 0.939499 0
M  V30 4572 H 434.084 -4.16504 0.240935 0
M  V30 4573 H 432.714 -3.20585 -0.377512 0
M  V30 4574 H 431.766 -3.20918 2.04245 0
M  V30 4575 H 433.078 -4.32177 2.49047 0
M  V30 4576 H 432.232 -6.00782 0.845302 0
M  V30 4577 H 430.971 -4.86799 0.296254 0
M  V30 4578 H 429.976 -4.84385 2.60099 0
M  V30 4579 H 431.201 -6.01798 3.14667 0
M  V30 4580 H 429.147 -6.49042 0.95295 0
M  V30 4581 H 429.064 -7.10996 2.56944 0
M  V30 4582 H 430.332 -7.64759 1.50875 0
M  V30 4583 N 434.561 -1.01147 -1.20859 0
M  V30 4584 C 435.791 -0.715872 -1.93801 0
M  V30 4585 C 436.199 0.726592 -1.74692 0
M  V30 4586 O 435.542 1.50397 -1.05482 0
M  V30 4587 C 435.604 -0.965269 -3.46299 0
M  V30 4588 C 435.268 -2.39584 -3.89164 0
M  V30 4589 C 436.265 -3.3764 -3.95342 0
M  V30 4590 C 433.95 -2.73522 -4.21297 0
M  V30 4591 C 435.944 -4.67698 -4.33056 0
M  V30 4592 C 433.631 -4.03794 -4.58687 0
M  V30 4593 C 434.629 -5.00693 -4.64538 0
M  V30 4594 O 434.317 -6.28635 -5.01072 0
M  V30 4595 H 434.049 -0.262524 -0.622942 0
M  V30 4596 H 436.603 -1.35413 -1.54443 0
M  V30 4597 H 434.833 -0.269847 -3.85757 0
M  V30 4598 H 436.522 -0.662051 -4.00464 0
M  V30 4599 H 437.288 -3.12757 -3.70686 0
M  V30 4600 H 433.167 -1.9879 -4.15937 0
M  V30 4601 H 436.711 -5.4333 -4.37537 0
M  V30 4602 H 432.608 -4.28459 -4.82797 0
M  V30 4603 H 433.376 -6.32847 -5.19083 0
M  V30 4604 N 436.039 1.36541 -0.78704 0
M  V30 4605 C 437.286 1.99304 -0.358341 0
M  V30 4606 C 437.614 1.62467 1.06933 0
M  V30 4607 O 436.869 0.870019 1.75297 0
M  V30 4608 C 437.168 3.54343 -0.466485 0
M  V30 4609 C 436.834 4.10993 -1.85461 0
M  V30 4610 C 435.496 4.26177 -2.23443 0
M  V30 4611 C 437.848 4.41895 -2.76366 0
M  V30 4612 C 435.176 4.69573 -3.51736 0
M  V30 4613 C 437.528 4.86722 -4.04084 0
M  V30 4614 C 436.192 5.00112 -4.42091 0
M  V30 4615 H 435.462 0.729306 -0.131126 0
M  V30 4616 H 438.109 1.63068 -1.00404 0
M  V30 4617 H 436.414 3.90918 0.262719 0
M  V30 4618 H 438.111 4.00833 -0.115854 0
M  V30 4619 H 434.701 3.99612 -1.54946 0
M  V30 4620 H 438.885 4.29735 -2.48277 0
M  V30 4621 H 434.141 4.78127 -3.81057 0
M  V30 4622 H 438.315 5.09598 -4.7464 0
M  V30 4623 H 435.942 5.33498 -5.41557 0
M  V30 4624 N 437.518 0.538854 1.48102 0
M  V30 4625 C 438.765 0.0080018 2.02498 0
M  V30 4626 C 439.093 -1.33437 1.41509 0
M  V30 4627 O 438.348 -1.87709 0.553507 0
M  V30 4628 C 438.647 -0.153808 3.57069 0
M  V30 4629 C 438.313 1.11533 4.36888 0
M  V30 4630 C 436.975 1.46314 4.58417 0
M  V30 4631 C 439.327 1.95718 4.83057 0
M  V30 4632 C 436.655 2.6516 5.23361 0
M  V30 4633 C 439.007 3.13751 5.49312 0
M  V30 4634 C 437.671 3.48866 5.69077 0
M  V30 4635 H 436.941 0.00292807 0.740994 0
M  V30 4636 H 439.588 0.706668 1.77984 0
M  V30 4637 H 437.893 -0.935309 3.80472 0
M  V30 4638 H 439.59 -0.579607 3.96789 0
M  V30 4639 H 436.18 0.834484 4.20398 0
M  V30 4640 H 440.364 1.70158 4.66219 0
M  V30 4641 H 435.62 2.92558 5.36861 0
M  V30 4642 H 439.794 3.79282 5.84053 0
M  V30 4643 H 437.421 4.41054 6.19173 0
M  V30 4644 N 438.996 -1.55193 0.274407 0
M  V30 4645 C 440.245 -1.98758 -0.343213 0
M  V30 4646 C 440.558 -1.16624 -1.5703 0
M  V30 4647 O 441.764 -1.5033 -2.26082 0
M  V30 4648 C 440.22 -3.53759 -0.661996 0
M  V30 4649 C 439.828 -4.4467 0.54524 0
M  V30 4650 C 441.572 -4.05916 -1.24228 0
M  V30 4651 C 439.479 -5.91058 0.201084 0
M  V30 4652 H 438.409 -0.742353 -0.132014 0
M  V30 4653 H 441.06 -1.79545 0.378948 0
M  V30 4654 H 439.442 -3.68772 -1.44304 0
M  V30 4655 H 440.616 -4.41426 1.32212 0
M  V30 4656 H 438.931 -4.03143 1.04232 0
M  V30 4657 H 441.528 -5.12831 -1.51357 0
M  V30 4658 H 441.871 -3.54908 -2.17592 0
M  V30 4659 H 442.404 -3.9434 -0.523542 0
M  V30 4660 H 439.143 -6.46161 1.10258 0
M  V30 4661 H 438.663 -5.97373 -0.539045 0
M  V30 4662 H 440.342 -6.46669 -0.206954 0
M  V30 4663 N 440.474 -0.00167713 -1.576 0
M  V30 4664 C 441.384 1.00548 -2.1196 0
M  V30 4665 C 442.4 1.3758 -1.06526 0
M  V30 4666 O 443.576 1.46278 -1.38436 0
M  V30 4667 C 440.641 2.27809 -2.6135 0
M  V30 4668 C 439.702 1.97074 -3.81393 0
M  V30 4669 C 438.935 3.18267 -4.28417 0
M  V30 4670 O 439.158 4.30009 -3.74765 0
M  V30 4671 O 438.092 3.02167 -5.20556 0
M  V30 4672 H 441.918 0.573373 -2.98238 0
M  V30 4673 H 439.503 0.217255 -1.47812 0
M  V30 4674 H 441.385 3.02568 -2.93309 0
M  V30 4675 H 440.06 2.70254 -1.78169 0
M  V30 4676 H 438.967 1.19785 -3.54404 0
M  V30 4677 H 440.3 1.59464 -4.65652 0
M  V30 4678 N 441.952 1.55251 0.271103 0
M  V30 4679 C 443.177 1.80306 1.02491 0
M  V30 4680 C 443.602 0.575457 1.79081 0
M  V30 4681 O 442.96 -0.474987 1.74967 0
M  V30 4682 C 443.008 3.02832 1.95768 0
M  V30 4683 O 442.112 2.78051 3.04568 0
M  V30 4684 H 441.453 0.595896 0.292923 0
M  V30 4685 H 443.983 2.02397 0.299436 0
M  V30 4686 H 443.993 3.31616 2.37686 0
M  V30 4687 H 442.668 3.9183 1.39434 0
M  V30 4688 H 441.245 2.60369 2.66951 0
M  V30 4689 N 443.43 -0.535701 1.48216 0
M  V30 4690 C 444.67 -1.30238 1.57536 0
M  V30 4691 C 445.034 -1.90479 0.241229 0
M  V30 4692 O 446.235 -2.67983 0.20938 0
M  V30 4693 C 444.506 -2.3669 2.67792 0
M  V30 4694 S 446.065 -3.23159 2.9684 0
M  V30 4695 H 442.883 -0.443093 0.556048 0
M  V30 4696 H 445.485 -0.610937 1.85709 0
M  V30 4697 H 444.189 -1.90905 3.63296 0
M  V30 4698 H 443.72 -3.10548 2.41502 0
M  V30 4699 H 445.735 -4.36647 2.35699 0
M  V30 4700 N 444.908 -1.36708 -0.784132 0
M  V30 4701 C 446.157 -1.30559 -1.53744 0
M  V30 4702 C 446.47 0.111374 -1.95283 0
M  V30 4703 O 447.676 0.29527 -2.6989 0
M  V30 4704 C 446.132 -2.29098 -2.77565 0
M  V30 4705 C 445.74 -3.76258 -2.43174 0
M  V30 4706 C 447.484 -2.31936 -3.55536 0
M  V30 4707 C 445.391 -4.6656 -3.63422 0
M  V30 4708 H 444.321 -0.48518 -0.577162 0
M  V30 4709 H 446.972 -1.62101 -0.859981 0
M  V30 4710 H 445.354 -1.90557 -3.47137 0
M  V30 4711 H 446.528 -4.23565 -1.81465 0
M  V30 4712 H 444.843 -3.76246 -1.78403 0
M  V30 4713 H 447.44 -2.9661 -4.44889 0
M  V30 4714 H 447.783 -1.3294 -3.94503 0
M  V30 4715 H 448.316 -2.6912 -2.92949 0
M  V30 4716 H 445.055 -5.66638 -3.29547 0
M  V30 4717 H 444.575 -4.23966 -4.24279 0
M  V30 4718 H 446.254 -4.8309 -4.30387 0
M  V30 4719 N 446.386 1.0089 -1.21074 0
M  V30 4720 C 447.349 2.0775 -0.968129 0
M  V30 4721 C 448.349 1.6069 0.0593445 0
M  V30 4722 O 449.539 1.73293 -0.177525 0
M  V30 4723 C 446.671 3.37794 -0.459108 0
M  V30 4724 H 447.864 2.30707 -1.9161 0
M  V30 4725 H 445.417 1.17807 -1.02719 0
M  V30 4726 H 446.152 3.20516 0.49397 0
M  V30 4727 H 445.937 3.7328 -1.20019 0
M  V30 4728 H 447.427 4.16454 -0.309099 0
M  V30 4729 N 447.864 1.01787 1.20321 0
M  V30 4730 C 448.794 0.609625 2.25401 0
M  V30 4731 C 449.775 -0.375951 1.65893 0
M  V30 4732 O 450.96 -0.261101 1.92437 0
M  V30 4733 C 448.09 -0.0515995 3.47262 0
M  V30 4734 C 447.044 0.855095 4.19371 0
M  V30 4735 C 446.37 0.0595757 5.34667 0
M  V30 4736 C 447.67 2.16374 4.75373 0
M  V30 4737 H 449.364 1.48803 2.59804 0
M  V30 4738 H 446.91 0.716934 1.24884 0
M  V30 4739 H 448.863 -0.348764 4.19954 0
M  V30 4740 H 447.587 -0.964726 3.12027 0
M  V30 4741 H 446.246 1.13628 3.48546 0
M  V30 4742 H 445.894 -0.85524 4.95676 0
M  V30 4743 H 445.594 0.663406 5.83843 0
M  V30 4744 H 447.118 -0.231105 6.10162 0
M  V30 4745 H 448.532 1.92885 5.39878 0
M  V30 4746 H 446.929 2.71853 5.34991 0
M  V30 4747 H 447.999 2.82589 3.94045 0
M  V30 4748 N 449.342 -1.36122 0.79427 0
M  V30 4749 C 450.589 -1.99111 0.368905 0
M  V30 4750 C 450.917 -1.63032 -1.0607 0
M  V30 4751 O 450.172 -0.879303 -1.74833 0
M  V30 4752 C 450.471 -3.5409 0.48527 0
M  V30 4753 C 450.137 -4.10003 1.87638 0
M  V30 4754 C 448.799 -4.24986 2.257 0
M  V30 4755 C 451.151 -4.40423 2.78706 0
M  V30 4756 C 448.479 -4.67701 3.54221 0
M  V30 4757 C 450.831 -4.84573 4.0666 0
M  V30 4758 C 449.495 -4.97761 4.44737 0
M  V30 4759 H 448.765 -0.7286 0.134992 0
M  V30 4760 H 451.412 -1.62534 1.01267 0
M  V30 4761 H 449.717 -3.91052 -0.241984 0
M  V30 4762 H 451.414 -4.00766 0.137109 0
M  V30 4763 H 448.004 -3.98784 1.57064 0
M  V30 4764 H 452.188 -4.28412 2.50553 0
M  V30 4765 H 447.444 -4.761 3.83587 0
M  V30 4766 H 451.618 -5.07074 4.77336 0
M  V30 4767 H 449.245 -5.30618 5.44379 0
M  V30 4768 N 450.82 -0.546701 -1.47814 0
M  V30 4769 C 452.066 -0.0187684 -2.02791 0
M  V30 4770 C 452.399 1.32338 -1.42128 0
M  V30 4771 O 451.674 1.85867 -0.573023 0
M  V30 4772 C 451.957 0.0854985 -3.59998 0
M  V30 4773 C 451.81 -1.283 -4.31114 0
M  V30 4774 C 453.129 0.80412 -4.32691 0
M  V30 4775 H 450.248 -0.0082946 -0.736953 0
M  V30 4776 H 452.89 -0.706962 -1.76358 0
M  V30 4777 H 451.04 0.671609 -3.82651 0
M  V30 4778 H 452.712 -1.91151 -4.19832 0
M  V30 4779 H 450.955 -1.86049 -3.91878 0
M  V30 4780 H 451.626 -1.16287 -5.39612 0
M  V30 4781 H 454.102 0.306576 -4.14969 0
M  V30 4782 H 452.978 0.846011 -5.42341 0
M  V30 4783 H 453.239 1.85802 -4.01161 0
M  V30 4784 N 452.299 1.55045 -0.282633 0
M  V30 4785 C 453.524 2.04628 0.337977 0
M  V30 4786 C 453.949 1.15937 1.48123 0
M  V30 4787 O 453.307 0.159532 1.80597 0
M  V30 4788 C 453.355 3.51854 0.78936 0
M  V30 4789 O 452.459 3.66236 1.89592 0
M  V30 4790 H 451.8 0.660434 0.0687261 0
M  V30 4791 H 454.33 2.00261 -0.419124 0
M  V30 4792 H 454.34 3.93361 1.08311 0
M  V30 4793 H 453.015 4.15873 -0.0470419 0
M  V30 4794 H 451.592 3.36633 1.60413 0
M  V30 4795 N 453.777 0.010035 1.57597 0
M  V30 4796 C 455.024 -0.6727 1.91 0
M  V30 4797 C 455.352 -1.73219 0.884614 0
M  V30 4798 O 454.607 -1.95395 -0.109215 0
M  V30 4799 C 454.906 -1.34434 3.31153 0
M  V30 4800 C 454.572 -0.417083 4.48967 0
M  V30 4801 C 453.234 -0.161809 4.80928 0
M  V30 4802 C 455.586 0.220753 5.20732 0
M  V30 4803 C 452.914 0.739426 5.82022 0
M  V30 4804 C 455.266 1.10993 6.22787 0
M  V30 4805 C 453.93 1.37428 6.532 0
M  V30 4806 H 453.2 -0.246158 0.698918 0
M  V30 4807 H 455.847 0.0677145 1.9138 0
M  V30 4808 H 454.152 -2.15905 3.26944 0
M  V30 4809 H 455.849 -1.87883 3.54261 0
M  V30 4810 H 452.439 -0.626217 4.24001 0
M  V30 4811 H 456.623 0.0365643 4.96287 0
M  V30 4812 H 451.879 0.952139 6.03941 0
M  V30 4813 H 456.053 1.61046 6.77523 0
M  V30 4814 H 453.68 2.0743 7.31353 0
M  V30 4815 N 455.255 -1.55392 -0.262866 0
M  V30 4816 C 456.504 -1.75679 -0.990943 0
M  V30 4817 C 456.817 -0.57097 -1.87081 0
M  V30 4818 O 458.023 -0.656486 -2.63444 0
M  V30 4819 C 456.479 -3.10964 -1.81188 0
M  V30 4820 C 456.087 -4.37146 -0.980188 0
M  V30 4821 C 457.831 -3.40597 -2.53365 0
M  V30 4822 C 455.738 -5.63466 -1.7961 0
M  V30 4823 H 454.668 -0.654868 -0.373716 0
M  V30 4824 H 457.319 -1.81841 -0.246203 0
M  V30 4825 H 455.701 -2.98867 -2.59797 0
M  V30 4826 H 456.875 -4.60187 -0.237558 0
M  V30 4827 H 455.19 -4.14731 -0.372497 0
M  V30 4828 H 457.787 -4.32186 -3.14833 0
M  V30 4829 H 458.13 -2.6119 -3.24169 0
M  V30 4830 H 458.663 -3.53838 -1.81779 0
M  V30 4831 H 455.402 -6.4565 -1.13209 0
M  V30 4832 H 454.922 -5.44552 -2.51443 0
M  V30 4833 H 456.601 -6.02139 -2.36723 0
M  V30 4834 N 456.733 0.527833 -1.48498 0
M  V30 4835 C 457.982 1.28003 -1.55878 0
M  V30 4836 C 458.295 1.9414 -0.238577 0
M  V30 4837 O 459.501 2.7083 -0.190643 0
M  V30 4838 C 457.957 2.32272 -2.74914 0
M  V30 4839 C 457.565 1.72196 -4.13585 0
M  V30 4840 C 459.309 3.08488 -2.91608 0
M  V30 4841 C 457.216 2.74417 -5.23879 0
M  V30 4842 H 456.146 0.481413 -0.580308 0
M  V30 4843 H 458.797 0.557195 -1.74836 0
M  V30 4844 H 457.179 3.07601 -2.49395 0
M  V30 4845 H 458.353 1.03041 -4.49132 0
M  V30 4846 H 456.668 1.08464 -4.02025 0
M  V30 4847 H 459.265 3.84879 -3.71177 0
M  V30 4848 H 459.608 3.64481 -2.01145 0
M  V30 4849 H 460.141 2.40274 -3.17038 0
M  V30 4850 H 456.88 2.23242 -6.16314 0
M  V30 4851 H 456.4 3.41893 -4.92818 0
M  V30 4852 H 458.079 3.37362 -5.52083 0
M  V30 4853 N 458.211 1.37122 0.776871 0
M  V30 4854 C 459.159 1.32549 1.91138 0
M  V30 4855 C 460.153 0.215119 1.68029 0
M  V30 4856 O 461.359 0.382852 1.75881 0
M  V30 4857 H 457.734 0.412952 0.62847 0
M  V30 4858 H 459.705 2.28332 1.92112 0
M  V30 4859 C 458.454 1.14422 3.28333 0
M  V30 4860 H 457.777 1.99115 3.46689 0
M  V30 4861 H 459.217 1.15272 4.0803 0
M  V30 4862 C 457.676 -0.150434 3.36564 0
M  V30 4863 O 458.206 -1.13584 3.85307 0
M  V30 4864 N 456.412 -0.19939 2.89915 0
M  V30 4865 H 455.959 0.603142 2.5044 0
M  V30 4866 H 455.917 -1.06526 2.95803 0
M  V30 4867 N 459.689 -1.00246 1.21608 0
M  V30 4868 C 460.935 -1.74319 1.03638 0
M  V30 4869 C 461.268 -1.89408 -0.428749 0
M  V30 4870 O 460.543 -1.43026 -1.3181 0
M  V30 4871 C 460.826 -3.15431 1.73711 0
M  V30 4872 C 460.679 -3.08049 3.27759 0
M  V30 4873 C 461.998 -4.14407 1.48173 0
M  V30 4874 H 459.117 -0.632741 0.377899 0
M  V30 4875 H 461.759 -1.16853 1.49818 0
M  V30 4876 H 459.909 -3.64493 1.34452 0
M  V30 4877 H 461.581 -2.66681 3.76403 0
M  V30 4878 H 459.824 -2.45088 3.57931 0
M  V30 4879 H 460.495 -4.07862 3.71958 0
M  V30 4880 H 462.971 -3.74061 1.82258 0
M  V30 4881 H 461.847 -5.11279 1.99713 0
M  V30 4882 H 462.108 -4.40174 0.412273 0
M  V30 4883 N 461.167 -1.02423 -1.1978 0
M  V30 4884 C 462.414 -0.717988 -1.89344 0
M  V30 4885 C 462.742 0.753036 -1.79331 0
M  V30 4886 O 461.997 1.56355 -1.17692 0
M  V30 4887 C 462.296 -1.1088 -3.39765 0
M  V30 4888 C 461.962 -2.57731 -3.6998 0
M  V30 4889 C 460.624 -2.97854 -3.77937 0
M  V30 4890 C 462.976 -3.52763 -3.83677 0
M  V30 4891 C 460.304 -4.31931 -3.97054 0
M  V30 4892 C 462.656 -4.86538 -4.04306 0
M  V30 4893 C 461.32 -5.26356 -4.10494 0
M  V30 4894 H 460.59 -0.26273 -0.692859 0
M  V30 4895 H 463.237 -1.28623 -1.41875 0
M  V30 4896 H 461.542 -0.459094 -3.89101 0
M  V30 4897 H 463.239 -0.849432 -3.919 0
M  V30 4898 H 459.829 -2.25646 -3.64393 0
M  V30 4899 H 464.013 -3.2292 -3.76877 0
M  V30 4900 H 459.269 -4.62324 -4.00083 0
M  V30 4901 H 463.443 -5.60093 -4.13846 0
M  V30 4902 H 461.07 -6.3026 -4.2506 0
M  V30 4903 N 462.645 1.35699 -0.801477 0
M  V30 4904 C 463.891 1.99208 -0.380022 0
M  V30 4905 C 464.224 1.63445 1.04878 0
M  V30 4906 O 463.499 0.895223 1.72673 0
M  V30 4907 C 463.782 3.55755 -0.557708 0
M  V30 4908 C 463.635 4.01332 -2.03107 0
M  V30 4909 C 464.954 4.40096 0.0197968 0
M  V30 4910 H 462.073 0.723667 -0.139552 0
M  V30 4911 H 464.715 1.60928 -1.01006 0
M  V30 4912 H 462.865 3.88494 -0.0213741 0
M  V30 4913 H 464.537 3.79026 -2.62939 0
M  V30 4914 H 462.78 3.52429 -2.52936 0
M  V30 4915 H 463.451 5.10234 -2.1063 0
M  V30 4916 H 465.927 4.13786 -0.438179 0
M  V30 4917 H 464.803 5.48735 -0.134477 0
M  V30 4918 H 465.064 4.2786 1.11303 0
M  V30 4919 N 464.123 0.554532 1.47522 0
M  V30 4920 C 465.369 0.0295227 2.02779 0
M  V30 4921 C 465.702 -1.31582 1.42828 0
M  V30 4922 O 464.977 -1.85561 0.582872 0
M  V30 4923 C 465.26 -0.0664057 3.60039 0
M  V30 4924 C 465.113 1.30585 4.30427 0
M  V30 4925 C 466.432 -0.781162 4.33112 0
M  V30 4926 H 463.551 0.0122027 0.736899 0
M  V30 4927 H 466.193 0.716305 1.7598 0
M  V30 4928 H 464.343 -0.651307 3.83002 0
M  V30 4929 H 466.015 1.93374 4.18813 0
M  V30 4930 H 464.258 1.88125 3.90886 0
M  V30 4931 H 464.929 1.19147 5.38988 0
M  V30 4932 H 467.405 -0.284565 4.15126 0
M  V30 4933 H 466.281 -0.817237 5.42782 0
M  V30 4934 H 466.542 -1.83672 4.0214 0
M  V30 4935 N 465.601 -1.54893 0.290851 0
M  V30 4936 C 466.826 -2.04804 -0.32712 0
M  V30 4937 C 467.251 -1.16721 -1.47506 0
M  V30 4938 O 466.609 -0.169107 -1.8051 0
M  V30 4939 C 466.657 -3.52268 -0.770689 0
M  V30 4940 O 465.761 -3.67236 -1.87647 0
M  V30 4941 H 465.102 -0.660789 -0.0652227 0
M  V30 4942 H 467.632 -2.00036 0.429739 0
M  V30 4943 H 467.642 -3.9393 -1.06223 0
M  V30 4944 H 466.317 -4.15843 0.069096 0
M  V30 4945 H 464.894 -3.37479 -1.58626 0
M  V30 4946 N 467.08 -0.0183926 -1.57589 0
M  V30 4947 C 468.326 0.663543 -1.91638 0
M  V30 4948 C 468.659 1.72392 -0.894134 0
M  V30 4949 O 467.934 1.94316 0.0846449 0
M  V30 4950 C 468.217 1.28984 -3.36207 0
M  V30 4951 C 468.07 0.239761 -4.49161 0
M  V30 4952 C 469.389 2.2109 -3.80536 0
M  V30 4953 H 466.508 0.239746 -0.696915 0
M  V30 4954 H 469.15 -0.073456 -1.89858 0
M  V30 4955 H 467.3 1.91799 -3.37854 0
M  V30 4956 H 468.972 -0.390119 -4.59647 0
M  V30 4957 H 467.215 -0.435972 -4.31604 0
M  V30 4958 H 467.886 0.717383 -5.47319 0
M  V30 4959 H 470.362 1.68273 -3.80557 0
M  V30 4960 H 469.238 2.61869 -4.82406 0
M  V30 4961 H 469.499 3.09764 -3.15434 0
M  V30 4962 N 468.558 1.5553 0.254621 0
M  V30 4963 C 469.805 1.77 0.983736 0
M  V30 4964 C 470.133 0.58133 1.85609 0
M  V30 4965 O 469.388 -0.435621 1.9079 0
M  V30 4966 C 469.687 3.03891 1.88109 0
M  V30 4967 C 469.353 4.35597 1.16472 0
M  V30 4968 C 468.015 4.7139 0.966714 0
M  V30 4969 C 470.367 5.1705 0.656387 0
M  V30 4970 C 467.695 5.86176 0.247942 0
M  V30 4971 C 470.047 6.32581 -0.0488807 0
M  V30 4972 C 468.711 6.67 -0.258438 0
M  V30 4973 H 467.981 0.647688 0.359974 0
M  V30 4974 H 470.628 1.89802 0.254463 0
M  V30 4975 H 468.933 2.86068 2.67717 0
M  V30 4976 H 470.63 3.17701 2.44677 0
M  V30 4977 H 467.22 4.07475 1.32899 0
M  V30 4978 H 471.404 4.8986 0.796933 0
M  V30 4979 H 466.66 6.11354 0.075035 0
M  V30 4980 H 470.834 6.94942 -0.450444 0
M  V30 4981 H 468.461 7.55793 -0.817358 0
M  V30 4982 N 470.036 -0.519951 1.48776 0
M  V30 4983 C 470.999 -1.60574 1.6355 0
M  V30 4984 C 471.999 -1.52557 0.508234 0
M  V30 4985 O 473.189 -1.56047 0.774262 0
M  V30 4986 C 470.321 -3.00211 1.61512 0
M  V30 4987 H 471.514 -1.4881 2.60376 0
M  V30 4988 H 469.067 -0.742772 1.37523 0
M  V30 4989 H 469.802 -3.17471 0.662009 0
M  V30 4990 H 469.587 -3.07439 2.43359 0
M  V30 4991 H 471.077 -3.79134 1.75064 0
M  V30 4992 N 471.514 -1.37532 -0.769588 0
M  V30 4993 C 472.424 -1.35668 -1.91393 0
M  V30 4994 C 473.44 -0.255954 -1.72107 0
M  V30 4995 O 474.616 -0.491704 -1.95305 0
M  V30 4996 C 471.681 -1.16481 -3.26547 0
M  V30 4997 C 470.742 -2.36212 -3.58472 0
M  V30 4998 C 469.975 -2.17932 -4.87177 0
M  V30 4999 O 470.198 -1.1647 -5.58382 0
M  V30 5000 O 469.132 -3.06167 -5.18214 0
M  V30 5001 H 472.958 -2.32055 -1.95918 0
M  V30 5002 H 470.543 -1.18284 -0.912641 0
M  V30 5003 H 472.425 -1.07778 -4.07384 0
M  V30 5004 H 471.1 -0.231687 -3.2287 0
M  V30 5005 H 470.007 -2.50488 -2.77861 0
M  V30 5006 H 471.34 -3.281 -3.66894 0
M  V30 5007 N 472.992 0.995999 -1.22138 0
M  V30 5008 C 473.955 2.06711 -0.990109 0
M  V30 5009 C 474.955 1.60744 0.0422978 0
M  V30 5010 O 476.145 1.73095 -0.195895 0
M  V30 5011 C 473.277 3.37288 -0.49491 0
M  V30 5012 H 474.47 2.28661 -1.94047 0
M  V30 5013 H 472.023 1.16711 -1.03963 0
M  V30 5014 H 472.758 3.21022 0.459948 0
M  V30 5015 H 472.543 3.71986 -1.23971 0
M  V30 5016 H 474.033 4.16103 -0.353253 0
M  V30 5017 N 474.47 1.03057 1.19235 0
M  V30 5018 C 475.717 0.728019 1.88961 0
M  V30 5019 C 476.045 -0.743515 1.79728 0
M  V30 5020 O 475.3 -1.55729 1.1852 0
M  V30 5021 C 475.599 1.1268 3.39172 0
M  V30 5022 C 475.265 2.5969 3.68608 0
M  V30 5023 C 473.927 2.99854 3.76352 0
M  V30 5024 C 476.279 3.54793 3.81801 0
M  V30 5025 C 473.607 4.34031 3.94758 0
M  V30 5026 C 475.959 4.88675 4.0172 0
M  V30 5027 C 474.623 5.28526 4.07697 0
M  V30 5028 H 473.893 0.266401 0.691456 0
M  V30 5029 H 476.54 1.29373 1.41191 0
M  V30 5030 H 474.845 0.479722 3.88852 0
M  V30 5031 H 476.542 0.870203 3.91444 0
M  V30 5032 H 473.132 2.27575 3.63191 0
M  V30 5033 H 477.316 3.24914 3.7516 0
M  V30 5034 H 472.572 4.6444 3.97625 0
M  V30 5035 H 476.746 5.6228 4.1087 0
M  V30 5036 H 474.373 6.32506 4.21712 0
M  V30 5037 N 475.948 -1.35272 0.808662 0
M  V30 5038 C 477.195 -1.98709 0.390003 0
M  V30 5039 C 477.523 -1.64148 -1.04335 0
M  V30 5040 O 476.778 -0.897797 -1.73891 0
M  V30 5041 C 477.077 -3.53556 0.522798 0
M  V30 5042 C 476.743 -4.0799 1.91977 0
M  V30 5043 C 475.405 -4.22568 2.30195 0
M  V30 5044 C 477.757 -4.37442 2.83361 0
M  V30 5045 C 475.085 -4.63918 3.59162 0
M  V30 5046 C 477.437 -4.80232 4.11776 0
M  V30 5047 C 476.101 -4.93016 4.49991 0
M  V30 5048 H 475.371 -0.727127 0.142712 0
M  V30 5049 H 478.018 -1.6145 1.02985 0
M  V30 5050 H 476.323 -3.91287 -0.200494 0
M  V30 5051 H 478.02 -4.00598 0.179608 0
M  V30 5052 H 474.61 -3.97096 1.61284 0
M  V30 5053 H 478.794 -4.25731 2.55083 0
M  V30 5054 H 474.05 -4.72005 3.88615 0
M  V30 5055 H 478.224 -5.01982 4.82687 0
M  V30 5056 H 475.851 -5.24814 5.49976 0
M  V30 5057 N 477.426 -0.562348 -1.47226 0
M  V30 5058 C 478.674 -0.0401371 -2.0206 0
M  V30 5059 C 478.995 1.3165 -1.43852 0
M  V30 5060 O 478.265 1.85976 -0.615599 0
M  V30 5061 H 476.845 -0.0118479 -0.746906 0
M  V30 5062 H 479.507 -0.73352 -1.8057 0
M  V30 5063 H 478.603 0.0441254 -3.12069 0
M  V30 5064 N 478.904 1.54736 -0.299062 0
M  V30 5065 C 479.851 2.23448 0.577899 0
M  V30 5066 C 480.821 1.21637 1.13109 0
M  V30 5067 O 482.006 1.50252 1.17597 0
M  V30 5068 C 479.146 2.9774 1.74484 0
M  V30 5069 C 478.259 4.1432 1.22323 0
M  V30 5070 C 477.394 4.76199 2.35388 0
M  V30 5071 C 476.433 5.84927 1.80351 0
M  V30 5072 N 475.57 6.4077 2.86982 0
M  V30 5073 H 480.41 2.97996 -0.0146545 0
M  V30 5074 H 477.947 1.47088 -0.0190013 0
M  V30 5075 H 479.905 3.39045 2.43114 0
M  V30 5076 H 478.535 2.25572 2.30905 0
M  V30 5077 H 477.587 3.7797 0.429249 0
M  V30 5078 H 478.899 4.92659 0.780309 0
M  V30 5079 H 478.053 5.20346 3.11969 0
M  V30 5080 H 476.792 3.97188 2.83006 0
M  V30 5081 H 475.797 5.40207 1.02259 0
M  V30 5082 H 477.022 6.65821 1.3364 0
M  V30 5083 H 474.968 5.64643 3.33938 0
M  V30 5084 H 474.885 7.1445 2.4718 0
M  V30 5085 H 476.153 6.89574 3.63466 0
M  V30 5086 N 480.382 0.0267497 1.57577 0
M  V30 5087 C 481.61 -0.662661 1.96001 0
M  V30 5088 C 482.025 -1.65799 0.903117 0
M  V30 5089 O 481.382 -1.82135 -0.115317 0
M  V30 5090 C 481.433 -1.37112 3.34488 0
M  V30 5091 O 481.154 -0.415683 4.36123 0
M  V30 5092 C 482.655 -2.15257 3.8753 0
M  V30 5093 H 479.875 -0.18287 0.6456 0
M  V30 5094 H 482.419 0.0858116 2.0432 0
M  V30 5095 H 480.574 -2.07101 3.27395 0
M  V30 5096 H 480.988 -0.918496 5.16395 0
M  V30 5097 H 482.462 -2.60285 4.86781 0
M  V30 5098 H 482.939 -2.99063 3.21649 0
M  V30 5099 H 483.545 -1.50231 3.97883 0
M  V30 5100 N 481.861 -1.55662 -0.24637 0
M  V30 5101 C 482.809 -1.91186 -1.3248 0
M  V30 5102 C 483.803 -0.790996 -1.49799 0
M  V30 5103 O 485.009 -0.975617 -1.51267 0
M  V30 5104 H 481.384 -0.607207 -0.443626 0
M  V30 5105 H 483.355 -2.81221 -0.997853 0
M  V30 5106 C 482.104 -2.22349 -2.67313 0
M  V30 5107 H 481.427 -3.08097 -2.54786 0
M  V30 5108 H 482.867 -2.51107 -3.41645 0
M  V30 5109 C 481.326 -1.04001 -3.20446 0
M  V30 5110 O 481.856 -0.28828 -4.00664 0
M  V30 5111 N 480.062 -0.830494 -2.7848 0
M  V30 5112 H 479.609 -1.4435 -2.13356 0
M  V30 5113 H 479.567 -0.0403258 -3.14374 0
M  V30 5114 N 483.339 0.512053 -1.4905 0
M  V30 5115 C 484.249 1.64139 -1.67617 0
M  V30 5116 C 485.265 1.64786 -0.558701 0
M  V30 5117 O 486.441 1.8341 -0.832034 0
M  V30 5118 C 483.506 3.00548 -1.72835 0
M  V30 5119 C 482.567 3.10615 -2.96339 0
M  V30 5120 C 481.8 4.40517 -3.01298 0
M  V30 5121 O 482.023 5.28671 -2.14157 0
M  V30 5122 O 480.957 4.55325 -3.93653 0
M  V30 5123 H 484.783 1.51407 -2.63267 0
M  V30 5124 H 482.368 0.687131 -1.32661 0
M  V30 5125 H 484.25 3.81641 -1.78683 0
M  V30 5126 H 482.925 3.13566 -0.803616 0
M  V30 5127 H 481.832 2.2875 -2.96014 0
M  V30 5128 H 483.165 3.0252 -3.88256 0
M  V30 5129 N 484.817 1.37938 0.762283 0
M  V30 5130 C 485.749 1.30349 1.88525 0
M  V30 5131 C 486.762 0.217402 1.61342 0
M  V30 5132 O 487.951 0.474291 1.72084 0
M  V30 5133 C 485.051 0.994844 3.23969 0
M  V30 5134 C 484.224 2.18829 3.78725 0
M  V30 5135 C 483.283 1.84844 4.92665 0
M  V30 5136 O 482.309 2.57244 5.07754 0
M  V30 5137 N 483.511 0.798201 5.74986 0
M  V30 5138 H 486.276 2.27114 1.95549 0
M  V30 5139 H 483.837 1.31686 0.941825 0
M  V30 5140 H 485.829 0.748168 3.97724 0
M  V30 5141 H 484.399 0.115446 3.12387 0
M  V30 5142 H 483.619 2.59615 2.96637 0
M  V30 5143 H 484.907 2.98497 4.1204 0
M  V30 5144 H 484.305 0.197611 5.65355 0
M  V30 5145 H 482.862 0.611396 6.48926 0
M  V30 5146 N 486.295 -0.989507 1.22664 0
M  V30 5147 C 487.541 -1.7321 1.05481 0
M  V30 5148 C 487.874 -1.89852 -0.408635 0
M  V30 5149 O 487.149 -1.44416 -1.30285 0
M  V30 5150 C 487.432 -3.1357 1.77047 0
M  V30 5151 C 487.285 -3.04555 3.31008 0
M  V30 5152 C 488.604 -4.12812 1.5256 0
M  V30 5153 H 485.723 -0.628697 0.384589 0
M  V30 5154 H 488.365 -1.15258 1.51049 0
M  V30 5155 H 486.515 -3.63046 1.3831 0
M  V30 5156 H 488.187 -2.62674 3.7921 0
M  V30 5157 H 486.43 -2.41278 3.6051 0
M  V30 5158 H 487.101 -4.03894 3.76263 0
M  V30 5159 H 489.577 -3.72106 1.86215 0
M  V30 5160 H 488.453 -5.09132 2.05124 0
M  V30 5161 H 488.714 -4.39711 0.458936 0
M  V30 5162 N 487.773 -1.03688 -1.18687 0
M  V30 5163 C 489.019 -0.739123 -1.88851 0
M  V30 5164 C 489.352 0.731042 -1.79915 0
M  V30 5165 O 488.627 1.53313 -1.19688 0
M  V30 5166 C 488.91 -1.20106 -3.3948 0
M  V30 5167 C 488.763 -2.73304 -3.57246 0
M  V30 5168 C 490.082 -0.788134 -4.32986 0
M  V30 5169 H 487.201 -0.269978 -0.68577 0
M  V30 5170 H 489.843 -1.28822 -1.3966 0
M  V30 5171 H 487.993 -0.733915 -3.81505 0
M  V30 5172 H 489.665 -3.28027 -3.24339 0
M  V30 5173 H 487.908 -3.13313 -3.00029 0
M  V30 5174 H 488.579 -3.00684 -4.62918 0
M  V30 5175 H 491.055 -1.19005 -3.98719 0
M  V30 5176 H 489.931 -1.13915 -5.36949 0
M  V30 5177 H 490.192 0.308988 -4.41019 0
M  V30 5178 N 489.251 1.34841 -0.815825 0
M  V30 5179 C 490.161 2.33425 -0.234462 0
M  V30 5180 C 491.177 1.62295 0.627413 0
M  V30 5181 O 492.353 1.94109 0.536987 0
M  V30 5182 C 489.418 3.41471 0.599849 0
M  V30 5183 C 488.479 4.28362 -0.283596 0
M  V30 5184 C 487.712 5.31248 0.51099 0
M  V30 5185 O 487.935 5.43056 1.7449 0
M  V30 5186 O 486.869 6.01812 -0.10297 0
M  V30 5187 H 490.695 2.84962 -1.05024 0
M  V30 5188 H 488.28 1.37774 -0.577809 0
M  V30 5189 H 490.162 4.07464 1.07475 0
M  V30 5190 H 488.837 2.9219 1.39308 0
M  V30 5191 H 487.744 3.65318 -0.805836 0
M  V30 5192 H 489.077 4.81066 -1.041 0
M  V30 5193 N 490.729 0.570148 1.46925 0
M  V30 5194 C 491.975 0.0510284 2.02736 0
M  V30 5195 C 492.308 -1.3006 1.44215 0
M  V30 5196 O 491.583 -1.84932 0.602521 0
M  V30 5197 C 491.866 -0.028215 3.60089 0
M  V30 5198 C 491.719 1.35142 4.29018 0
M  V30 5199 C 493.038 -0.735181 4.33916 0
M  V30 5200 H 490.157 0.0200178 0.736728 0
M  V30 5201 H 492.799 0.73493 1.75211 0
M  V30 5202 H 490.949 -0.610648 3.83671 0
M  V30 5203 H 492.621 1.97806 4.16738 0
M  V30 5204 H 490.864 1.9226 3.88868 0
M  V30 5205 H 491.535 1.24857 5.37694 0
M  V30 5206 H 494.011 -0.240519 4.15404 0
M  V30 5207 H 492.887 -0.759622 5.43618 0
M  V30 5208 H 493.148 -1.79397 4.04066 0
M  V30 5209 N 492.207 -1.54576 0.307264 0
M  V30 5210 C 493.447 -2.02172 -0.300962 0
M  V30 5211 C 493.811 -1.19081 -1.50611 0
M  V30 5212 O 495.012 -1.56405 -2.18612 0
M  V30 5213 C 493.283 -3.51576 -0.642591 0
M  V30 5214 S 494.842 -4.21127 -1.23279 0
M  V30 5215 H 491.66 -0.705021 -0.0920141 0
M  V30 5216 H 494.262 -1.90563 0.436594 0
M  V30 5217 H 492.966 -4.09681 0.242901 0
M  V30 5218 H 492.497 -3.67234 -1.41077 0
M  V30 5219 H 494.512 -4.27426 -2.52034 0
M  V30 5220 N 493.685 -0.035106 -1.57561 0
M  V30 5221 C 494.913 0.652258 -1.9635 0
M  V30 5222 C 495.328 1.65317 -0.911897 0
M  V30 5223 O 494.685 1.82194 0.105657 0
M  V30 5224 C 494.736 1.35337 -3.35211 0
M  V30 5225 O 494.457 0.392548 -4.36338 0
M  V30 5226 C 495.958 2.13199 -3.88666 0
M  V30 5227 H 493.178 0.179444 -0.646561 0
M  V30 5228 H 495.722 -0.0966459 -2.04271 0
M  V30 5229 H 493.877 2.05362 -3.28489 0
M  V30 5230 H 494.291 0.891097 -5.16875 0
M  V30 5231 H 495.765 2.577 -4.88154 0
M  V30 5232 H 496.242 2.97353 -3.23231 0
M  V30 5233 H 496.848 1.48118 -3.98674 0
M  V30 5234 N 495.163 1.55791 0.238111 0
M  V30 5235 C 496.111 1.91885 1.31464 0
M  V30 5236 C 497.105 0.798929 1.49377 0
M  V30 5237 O 498.311 0.983626 1.50747 0
M  V30 5238 H 494.686 0.609551 0.440399 0
M  V30 5239 H 496.657 2.81747 0.982925 0
M  V30 5240 C 495.406 2.23763 2.6613 0
M  V30 5241 H 494.729 3.09444 2.53149 0
M  V30 5242 H 496.169 2.52915 3.40309 0
M  V30 5243 C 494.628 1.05699 3.1989 0
M  V30 5244 O 495.158 0.309524 4.00506 0
M  V30 5245 N 493.364 0.845251 2.78036 0
M  V30 5246 H 492.911 1.4548 2.12588 0
M  V30 5247 H 492.869 0.0569973 3.14348 0
M  V30 5248 N 496.642 -0.504142 1.49319 0
M  V30 5249 C 497.87 -1.28256 1.62351 0
M  V30 5250 C 498.285 -1.86502 0.293682 0
M  V30 5251 O 497.642 -1.67678 -0.720449 0
M  V30 5252 C 497.693 -2.41507 2.68992 0
M  V30 5253 O 497.414 -1.85656 3.96817 0
M  V30 5254 C 498.915 -3.32929 2.927 0
M  V30 5255 H 496.135 -0.389115 0.546654 0
M  V30 5256 H 498.679 -0.605531 1.95329 0
M  V30 5257 H 496.834 -3.05046 2.38801 0
M  V30 5258 H 497.248 -2.59981 4.55533 0
M  V30 5259 H 498.722 -4.0868 3.71058 0
M  V30 5260 H 499.199 -3.89733 2.02496 0
M  V30 5261 H 499.805 -2.75158 3.24296 0
M  V30 5262 N 498.12 -1.38341 -0.754957 0
M  V30 5263 C 499.345 -1.37882 -1.5493 0
M  V30 5264 C 499.77 0.0296385 -1.88077 0
M  V30 5265 O 499.128 1.01133 -1.50472 0
M  V30 5266 C 499.176 -2.23996 -2.82592 0
M  V30 5267 O 498.28 -1.65612 -3.77686 0
M  V30 5268 H 497.621 -0.470384 -0.468652 0
M  V30 5269 H 500.151 -1.82084 -0.933082 0
M  V30 5270 H 500.161 -2.37806 -3.3153 0
M  V30 5271 H 498.836 -3.26365 -2.57796 0
M  V30 5272 H 497.413 -1.60936 -3.36384 0
M  V30 5273 N 499.598 0.982988 -1.23187 0
M  V30 5274 C 500.823 1.76455 -1.08988 0
M  V30 5275 C 501.248 1.84726 0.354691 0
M  V30 5276 O 500.606 1.30699 1.25649 0
M  V30 5277 C 500.654 3.17094 -1.71708 0
M  V30 5278 O 499.758 4.00648 -0.977477 0
M  V30 5279 H 499.099 0.542988 -0.382177 0
M  V30 5280 H 501.629 1.23413 -1.63188 0
M  V30 5281 H 501.639 3.67684 -1.76841 0
M  V30 5282 H 500.314 3.10389 -2.76823 0
M  V30 5283 H 498.891 3.59161 -1.0029 0
M  V30 5284 N 501.076 1.04316 1.18135 0
M  V30 5285 C 502.487 0.775505 1.69832 0
M  V30 5286 C 502.838 -0.703348 1.8316 0
M  V30 5287 O 501.963 -1.54729 1.51287 0
M  V30 5288 C 502.558 1.40112 3.0847 0
M  V30 5289 C 501.117 1.18172 3.57368 0
M  V30 5290 C 500.264 1.49022 2.33854 0
M  V30 5291 H 503.215 1.20925 1.02775 0
M  V30 5292 H 503.236 0.805672 3.71873 0
M  V30 5293 H 502.748 2.47744 2.98738 0
M  V30 5294 H 500.849 0.124258 3.72393 0
M  V30 5295 H 500.962 1.8805 4.40652 0
M  V30 5296 H 499.326 0.909995 2.37889 0
M  V30 5297 H 500.109 2.57768 2.26738 0
M  V30 5298 N 502.554 -1.34406 0.822964 0
M  V30 5299 C 503.504 -2.26963 0.217208 0
M  V30 5300 C 504.488 -1.48536 -0.618545 0
M  V30 5301 O 505.68 -1.7056 -0.473118 0
M  V30 5302 C 502.809 -3.37655 -0.619973 0
M  V30 5303 C 501.895 -4.23495 0.226411 0
M  V30 5304 N 502.286 -4.88876 1.29744 0
M  V30 5305 C 500.584 -4.45999 0.0107554 0
M  V30 5306 C 501.285 -5.52642 1.81553 0
M  V30 5307 N 500.261 -5.31949 1.11942 0
M  V30 5308 H 504.063 -2.75017 1.03647 0
M  V30 5309 H 501.577 -1.48126 0.665777 0
M  V30 5310 H 503.574 -4.02932 -1.07011 0
M  V30 5311 H 502.234 -2.91151 -1.43739 0
M  V30 5312 H 503.245 -4.89886 1.68024 0
M  V30 5313 H 499.922 -4.10253 -0.774495 0
M  V30 5314 H 501.312 -6.14755 2.71156 0
M  V30 5315 N 504.032 -0.577932 -1.46621 0
M  V30 5316 C 504.995 0.147805 -2.28723 0
M  V30 5317 C 505.995 0.823325 -1.38123 0
M  V30 5318 O 507.185 0.676011 -1.60548 0
M  V30 5319 C 504.317 1.21853 -3.18378 0
M  V30 5320 H 505.51 -0.573654 -2.94362 0
M  V30 5321 H 503.063 -0.335703 -1.52652 0
M  V30 5322 H 503.798 1.97173 -2.57475 0
M  V30 5323 H 503.583 0.738714 -3.85078 0
M  V30 5324 H 505.073 1.72768 -3.80186 0
M  V30 5325 N 505.51 1.54411 -0.315457 0
M  V30 5326 C 506.758 2.00023 0.288971 0
M  V30 5327 C 507.079 1.20529 1.5329 0
M  V30 5328 O 506.349 0.304986 1.93511 0
M  V30 5329 H 504.929 0.738891 0.109766 0
M  V30 5330 H 507.591 1.90094 -0.430129 0
M  V30 5331 H 506.687 3.07198 0.550999 0
M  V30 5332 N 506.988 0.0434614 1.5754 0
M  V30 5333 C 507.918 -0.931651 2.14109 0
M  V30 5334 C 508.899 -1.32971 1.06079 0
M  V30 5335 O 510.084 -1.40579 1.33982 0
M  V30 5336 C 507.214 -2.20914 2.67982 0
M  V30 5337 C 506.168 -1.95139 3.80926 0
M  V30 5338 C 505.494 -3.29276 4.21285 0
M  V30 5339 C 506.794 -1.27913 5.06395 0
M  V30 5340 H 508.488 -0.460497 2.95837 0
M  V30 5341 H 506.034 -0.220058 1.42309 0
M  V30 5342 H 507.987 -2.89522 3.06194 0
M  V30 5343 H 506.711 -2.70221 1.83434 0
M  V30 5344 H 505.37 -1.28945 3.43175 0
M  V30 5345 H 505.018 -3.76369 3.33699 0
M  V30 5346 H 504.718 -3.12831 4.97404 0
M  V30 5347 H 506.242 -3.99129 4.62091 0
M  V30 5348 H 507.656 -1.86544 5.42102 0
M  V30 5349 H 506.053 -1.2182 5.87605 0
M  V30 5350 H 507.123 -0.254066 4.84234 0
M  V30 5351 N 508.466 -1.55915 -0.229846 0
M  V30 5352 C 509.713 -1.78542 -0.955452 0
M  V30 5353 C 510.041 -0.610785 -1.84661 0
M  V30 5354 O 509.296 0.405213 -1.91459 0
M  V30 5355 C 509.595 -3.06845 -1.8325 0
M  V30 5356 C 509.261 -4.37395 -1.09528 0
M  V30 5357 C 507.923 -4.72868 -0.891598 0
M  V30 5358 C 510.275 -5.18029 -0.574046 0
M  V30 5359 C 507.603 -5.86496 -0.154655 0
M  V30 5360 C 509.955 -6.32423 0.149513 0
M  V30 5361 C 508.619 -6.66504 0.364519 0
M  V30 5362 H 507.889 -0.653333 -0.349625 0
M  V30 5363 H 510.536 -1.90183 -0.224235 0
M  V30 5364 H 508.841 -2.90291 -2.63132 0
M  V30 5365 H 510.538 -3.21553 -2.39592 0
M  V30 5366 H 507.128 -4.09538 -1.26399 0
M  V30 5367 H 511.312 -4.91066 -0.718899 0
M  V30 5368 H 506.568 -6.11396 0.0222356 0
M  V30 5369 H 510.742 -6.94137 0.560947 0
M  V30 5370 H 508.369 -7.54397 0.937495 0
M  V30 5371 N 509.944 0.496216 -1.49584 0
M  V30 5372 C 511.355 1.07765 -1.52459 0
M  V30 5373 C 511.706 1.93679 -0.31353 0
M  V30 5374 O 510.831 2.08588 0.576186 0
M  V30 5375 C 511.426 1.96111 -2.76271 0
M  V30 5376 C 509.985 2.49409 -2.81908 0
M  V30 5377 C 509.132 1.27142 -2.46435 0
M  V30 5378 H 512.083 0.279914 -1.56212 0
M  V30 5379 H 512.104 2.80862 -2.56704 0
M  V30 5380 H 511.616 1.33555 -3.64396 0
M  V30 5381 H 509.717 3.1559 -1.98074 0
M  V30 5382 H 509.83 2.86234 -3.84196 0
M  V30 5383 H 508.194 1.59818 -1.98319 0
M  V30 5384 H 508.977 0.662866 -3.3684 0
M  V30 5385 N 511.423 1.38739 0.74761 0
M  V30 5386 C 512.37 1.36449 1.86146 0
M  V30 5387 C 513.34 0.226098 1.64554 0
M  V30 5388 O 514.525 0.41926 1.86137 0
M  V30 5389 C 511.665 1.2013 3.23516 0
M  V30 5390 C 510.778 2.43407 3.56899 0
M  V30 5391 C 509.913 2.19773 4.83605 0
M  V30 5392 C 508.952 3.3879 5.09792 0
M  V30 5393 N 508.089 3.14553 6.27695 0
M  V30 5394 H 512.929 2.3167 1.87438 0
M  V30 5395 H 510.466 1.15094 0.916063 0
M  V30 5396 H 512.424 1.08683 4.02795 0
M  V30 5397 H 511.054 0.285453 3.21535 0
M  V30 5398 H 510.106 2.65504 2.72418 0
M  V30 5399 H 511.418 3.32094 3.72176 0
M  V30 5400 H 510.572 2.05496 5.70838 0
M  V30 5401 H 509.311 1.28461 4.70478 0
M  V30 5402 H 508.316 3.53579 4.21025 0
M  V30 5403 H 509.541 4.30986 5.24812 0
M  V30 5404 H 507.487 2.25893 6.1588 0
M  V30 5405 H 507.404 3.96791 6.435 0
M  V30 5406 H 508.672 3.03943 7.17801 0
M  V30 5407 N 512.901 -0.976442 1.23707 0
M  V30 5408 C 514.178 -1.69296 0.979699 0
M  V30 5409 C 514.558 -2.0508 -0.500555 0
M  V30 5410 O 513.906 -1.74708 -1.47273 0
M  V30 5411 C 514.116 -2.93143 1.89389 0
M  V30 5412 C 515.464 -3.65572 2.15968 0
M  V30 5413 O 516.488 -3.03184 1.86971 0
M  V30 5414 O 515.347 -4.77859 2.65167 0
M  V30 5415 H 512.441 -0.739708 0.369812 0
M  V30 5416 H 514.987 -1.03131 1.34767 0
M  V30 5417 H 513.759 -2.63327 2.89439 0
M  V30 5418 H 513.382 -3.67044 1.52854 0
M  V30 5419 N 514.379 -1.04941 -1.1758 0
M  V30 5420 C 515.327 -0.64204 -2.23563 0
M  V30 5421 C 516.321 0.335453 -1.66045 0
M  V30 5422 O 517.527 0.20179 -1.78865 0
M  V30 5423 H 513.902 -0.18944 -0.727748 0
M  V30 5424 H 515.873 -1.54609 -2.55223 0
M  V30 5425 C 514.622 -0.0301051 -3.47687 0
M  V30 5426 H 513.945 -0.773339 -3.92249 0
M  V30 5427 H 515.385 0.217592 -4.23441 0
M  V30 5428 C 513.844 1.2225 -3.13937 0
M  V30 5429 O 514.374 2.3122 -3.28482 0
M  V30 5430 N 512.58 1.11917 -2.68185 0
M  V30 5431 H 512.127 0.232403 -2.5655 0
M  V30 5432 H 512.085 1.95814 -2.45976 0
M  V30 5433 N 515.857 1.33968 -0.830081 0
M  V30 5434 C 517.082 2.02813 -0.433796 0
M  V30 5435 C 517.507 1.62076 0.954614 0
M  V30 5436 O 516.865 0.808955 1.62252 0
M  V30 5437 C 516.913 3.56348 -0.552115 0
M  V30 5438 O 516.017 4.10202 0.425191 0
M  V30 5439 H 515.358 0.639817 -0.177567 0
M  V30 5440 H 517.888 1.7106 -1.12248 0
M  V30 5441 H 517.898 4.05722 -0.430513 0
M  V30 5442 H 516.573 3.85344 -1.56471 0
M  V30 5443 H 515.15 3.71979 0.261878 0
M  V30 5444 N 517.335 0.585699 1.46312 0
M  V30 5445 C 518.563 0.0781299 2.06752 0
M  V30 5446 C 518.978 -1.22812 1.43396 0
M  V30 5447 O 518.335 -1.74318 0.540314 0
M  V30 5448 C 518.386 -0.0911927 3.61385 0
M  V30 5449 O 518.107 1.16336 4.22371 0
M  V30 5450 C 519.608 -0.632765 4.38761 0
M  V30 5451 H 516.828 0.0588188 0.668417 0
M  V30 5452 H 519.372 0.807218 1.87894 0
M  V30 5453 H 517.527 -0.770514 3.7966 0
M  V30 5454 H 517.941 0.979082 5.15281 0
M  V30 5455 H 519.415 -0.70041 5.47538 0
M  V30 5456 H 519.892 -1.65039 4.07012 0
M  V30 5457 H 520.498 0.0117856 4.25298 0
M  V30 5458 N 518.813 -1.54241 0.323641 0
M  V30 5459 C 519.743 -2.27289 -0.534993 0
M  V30 5460 C 520.724 -1.28087 -1.11927 0
M  V30 5461 O 521.909 -1.56899 -1.14439 0
M  V30 5462 C 519.039 -3.03075 -1.69596 0
M  V30 5463 C 517.993 -4.09614 -1.24098 0
M  V30 5464 C 517.319 -4.73242 -2.4889 0
M  V30 5465 C 518.619 -5.21087 -0.355789 0
M  V30 5466 H 520.313 -2.99308 0.0743257 0
M  V30 5467 H 517.859 -1.43952 0.0371874 0
M  V30 5468 H 519.812 -3.52907 -2.30293 0
M  V30 5469 H 518.536 -2.28673 -2.33187 0
M  V30 5470 H 517.195 -3.60666 -0.656945 0
M  V30 5471 H 516.843 -3.95455 -3.10845 0
M  V30 5472 H 516.543 -5.45209 -2.19138 0
M  V30 5473 H 518.067 -5.25848 -3.10348 0
M  V30 5474 H 519.481 -5.66675 -0.869042 0
M  V30 5475 H 517.878 -5.9991 -0.151045 0
M  V30 5476 H 518.948 -4.81005 0.613339 0
M  V30 5477 N 520.291 -0.0518155 -1.57515 0
M  V30 5478 C 521.254 0.907547 -2.10467 0
M  V30 5479 C 522.254 1.23947 -1.02439 0
M  V30 5480 O 523.444 1.17604 -1.2851 0
M  V30 5481 C 520.576 2.21723 -2.58944 0
M  V30 5482 H 521.769 0.44851 -2.96527 0
M  V30 5483 H 519.322 0.196598 -1.55059 0
M  V30 5484 H 520.057 2.72206 -1.76279 0
M  V30 5485 H 519.842 1.98935 -3.37886 0
M  V30 5486 H 521.332 2.90441 -3.00056 0
M  V30 5487 N 521.769 1.56035 0.221574 0
M  V30 5488 C 523.015 1.79312 0.947372 0
M  V30 5489 C 523.348 0.621453 1.83988 0
M  V30 5490 O 522.623 -0.379287 1.90766 0
M  V30 5491 C 522.906 3.1267 1.78633 0
M  V30 5492 C 522.759 4.40284 0.920312 0
M  V30 5493 C 524.078 3.4247 2.7641 0
M  V30 5494 H 521.197 0.652328 0.342982 0
M  V30 5495 H 523.839 1.88765 0.216244 0
M  V30 5496 H 521.989 3.04741 2.40967 0
M  V30 5497 H 523.661 4.60232 0.313718 0
M  V30 5498 H 521.904 4.33212 0.225734 0
M  V30 5499 H 522.575 5.30033 1.54171 0
M  V30 5500 H 525.051 3.50526 2.24211 0
M  V30 5501 H 523.927 4.3695 3.32213 0
M  V30 5502 H 524.188 2.64635 3.54148 0
M  V30 5503 N 523.247 -0.488276 1.49845 0
M  V30 5504 C 524.524 -1.24959 1.50481 0
M  V30 5505 C 524.904 -2.09735 0.239698 0
M  V30 5506 O 524.252 -2.14865 -0.777524 0
M  V30 5507 C 524.462 -2.0954 2.79095 0
M  V30 5508 C 525.81 -2.68305 3.29086 0
M  V30 5509 O 526.834 -2.19797 2.80299 0
M  V30 5510 O 525.693 -3.56643 4.14087 0
M  V30 5511 H 522.787 -0.566133 0.602845 0
M  V30 5512 H 525.333 -0.501504 1.6212 0
M  V30 5513 H 524.105 -1.46958 3.62656 0
M  V30 5514 H 523.728 -2.91517 2.70377 0
M  V30 5515 N 524.725 -1.39134 -0.740242 0
M  V30 5516 C 525.974 -1.35384 -1.49512 0
M  V30 5517 C 526.287 0.04919 -1.95538 0
M  V30 5518 O 527.493 0.209257 -2.70692 0
M  V30 5519 C 525.949 -2.37812 -2.70136 0
M  V30 5520 C 525.557 -3.83804 -2.31081 0
M  V30 5521 C 527.301 -2.4313 -3.47977 0
M  V30 5522 C 525.208 -4.77886 -3.48395 0
M  V30 5523 H 524.138 -0.503297 -0.561434 0
M  V30 5524 H 526.789 -1.64754 -0.807974 0
M  V30 5525 H 525.171 -2.01505 -3.40899 0
M  V30 5526 H 526.345 -4.29123 -1.67898 0
M  V30 5527 H 524.66 -3.81732 -1.66343 0
M  V30 5528 H 527.257 -3.10614 -4.35228 0
M  V30 5529 H 527.6 -1.45423 -3.90074 0
M  V30 5530 H 528.133 -2.78304 -2.84239 0
M  V30 5531 H 524.872 -5.76836 -3.11353 0
M  V30 5532 H 524.392 -4.3725 -4.10576 0
M  V30 5533 H 526.071 -4.96538 -4.148 0
M  V30 5534 N 526.204 0.969867 -1.24223 0
M  V30 5535 C 527.434 1.74502 -1.106 0
M  V30 5536 C 527.842 1.86038 0.344483 0
M  V30 5537 O 527.185 1.3465 1.24961 0
M  V30 5538 C 527.247 3.18391 -1.66935 0
M  V30 5539 C 526.911 3.30334 -3.15798 0
M  V30 5540 C 527.908 3.15832 -4.12973 0
M  V30 5541 C 525.593 3.54644 -3.55715 0
M  V30 5542 C 527.587 3.25461 -5.48045 0
M  V30 5543 C 525.274 3.63912 -4.90929 0
M  V30 5544 C 526.272 3.49332 -5.86904 0
M  V30 5545 O 525.96 3.58251 -7.1966 0
M  V30 5546 H 525.692 0.554119 -0.387206 0
M  V30 5547 H 528.246 1.22646 -1.64764 0
M  V30 5548 H 526.476 3.71543 -1.07203 0
M  V30 5549 H 528.165 3.77707 -1.48634 0
M  V30 5550 H 528.931 2.96937 -3.83476 0
M  V30 5551 H 524.81 3.65059 -2.81519 0
M  V30 5552 H 528.354 3.13998 -6.22937 0
M  V30 5553 H 524.251 3.82319 -5.20098 0
M  V30 5554 H 525.019 3.7498 -7.27552 0
M  V30 5555 N 527.682 1.05563 1.17022 0
M  V30 5556 C 528.629 0.659893 2.21165 0
M  V30 5557 C 529.599 -0.339813 1.62587 0
M  V30 5558 O 530.784 -0.230378 1.89404 0
M  V30 5559 C 527.924 0.0447297 3.45071 0
M  V30 5560 C 527.037 1.09372 4.17926 0
M  V30 5561 C 526.172 0.445481 5.29329 0
M  V30 5562 C 525.211 1.47852 5.93975 0
M  V30 5563 N 524.348 0.854172 6.96885 0
M  V30 5564 H 529.188 1.55243 2.54369 0
M  V30 5565 H 526.725 0.776336 1.24946 0
M  V30 5566 H 528.683 -0.329404 4.15898 0
M  V30 5567 H 527.313 -0.811244 3.1244 0
M  V30 5568 H 526.365 1.58564 3.45777 0
M  V30 5569 H 527.677 1.87773 4.62107 0
M  V30 5570 H 526.831 0.0179688 6.06697 0
M  V30 5571 H 525.57 -0.370481 4.86291 0
M  V30 5572 H 524.575 1.91601 5.15334 0
M  V30 5573 H 525.8 2.29645 6.39093 0
M  V30 5574 H 523.746 0.0587882 6.55974 0
M  V30 5575 H 523.663 1.57567 7.39397 0
M  V30 5576 H 524.931 0.451559 7.78191 0
M  V30 5577 N 529.16 -1.33526 0.837174 0
M  V30 5578 C 530.408 -1.97446 0.431211 0
M  V30 5579 C 530.729 -1.6665 -1.01255 0
M  V30 5580 O 529.999 -0.964559 -1.70508 0
M  V30 5581 H 528.579 -0.73043 0.156463 0
M  V30 5582 H 531.241 -1.62918 1.06976 0
M  V30 5583 H 530.337 -3.07001 0.561877 0
M  V30 5584 N 530.638 -0.59345 -1.46 0
M  V30 5585 C 531.886 -0.082988 -2.0193 0
M  V30 5586 C 532.207 1.28569 -1.46612 0
M  V30 5587 O 531.477 1.84629 -0.654909 0
M  V30 5588 H 530.057 -0.0276882 -0.746487 0
M  V30 5589 H 532.719 -0.771657 -1.78973 0
M  V30 5590 H 531.815 -0.022079 -3.12092 0
M  V30 5591 N 532.116 1.54067 -0.331816 0
M  V30 5592 C 533.362 2.01012 0.268667 0
M  V30 5593 C 533.695 1.2195 1.51136 0
M  V30 5594 O 532.97 0.303972 1.9211 0
M  V30 5595 C 533.253 3.55158 0.59456 0
M  V30 5596 C 533.106 4.4494 -0.659409 0
M  V30 5597 C 534.425 4.16939 1.4089 0
M  V30 5598 H 531.544 0.730698 0.0961756 0
M  V30 5599 H 534.186 1.84593 -0.450031 0
M  V30 5600 H 532.336 3.6928 1.20685 0
M  V30 5601 H 534.008 4.42675 -1.29756 0
M  V30 5602 H 532.251 4.1428 -1.28665 0
M  V30 5603 H 532.922 5.50643 -0.386804 0
M  V30 5604 H 535.398 4.06443 0.891272 0
M  V30 5605 H 534.274 5.24889 1.60569 0
M  V30 5606 H 534.535 3.70798 2.40752 0
M  V30 5607 N 533.594 0.0601682 1.57485 0
M  V30 5608 C 534.84 -0.612501 1.93329 0
M  V30 5609 C 535.173 -1.6996 0.939526 0
M  V30 5610 O 534.448 -1.94472 -0.0330957 0
M  V30 5611 C 534.731 -1.20025 3.39508 0
M  V30 5612 C 534.584 -0.12059 4.49638 0
M  V30 5613 C 535.903 -2.10923 3.86264 0
M  V30 5614 H 533.022 -0.221185 0.703027 0
M  V30 5615 H 535.664 0.123768 1.89596 0
M  V30 5616 H 533.814 -1.82774 3.42821 0
M  V30 5617 H 535.486 0.51185 4.58452 0
M  V30 5618 H 533.729 0.550251 4.30296 0
M  V30 5619 H 534.4 -0.572019 5.49028 0
M  V30 5620 H 536.876 -1.58124 3.84884 0
M  V30 5621 H 535.752 -2.48987 4.8918 0
M  V30 5622 H 536.013 -3.01292 3.23536 0
M  V30 5623 N 535.072 -1.5615 -0.213296 0
M  V30 5624 C 536.002 -1.96109 -1.26742 0
M  V30 5625 C 536.983 -0.830448 -1.48451 0
M  V30 5626 O 538.168 -1.09339 -1.60495 0
M  V30 5627 C 535.298 -2.28492 -2.61551 0
M  V30 5628 C 534.252 -3.44124 -2.54485 0
M  V30 5629 C 533.578 -3.62134 -3.93399 0
M  V30 5630 C 534.878 -4.78855 -2.08556 0
M  V30 5631 H 536.572 -2.84412 -0.935434 0
M  V30 5632 H 534.118 -1.36836 -0.44854 0
M  V30 5633 H 536.071 -2.55039 -3.3546 0
M  V30 5634 H 534.795 -1.37052 -2.96453 0
M  V30 5635 H 533.454 -3.17639 -1.83033 0
M  V30 5636 H 533.102 -2.68055 -4.25623 0
M  V30 5637 H 532.802 -4.39913 -3.89551 0
M  V30 5638 H 534.326 -3.91038 -4.68958 0
M  V30 5639 H 535.74 -5.04552 -2.72213 0
M  V30 5640 H 534.137 -5.59975 -2.1575 0
M  V30 5641 H 535.207 -4.73657 -1.03811 0
M  V30 5642 N 536.55 0.480323 -1.50102 0
M  V30 5643 C 537.798 1.23063 -1.60312 0
M  V30 5644 C 538.119 1.92659 -0.301226 0
M  V30 5645 O 537.389 1.83691 0.680753 0
M  V30 5646 H 535.969 0.457231 -0.590719 0
M  V30 5647 H 538.631 0.554893 -1.86834 0
M  V30 5648 H 537.727 1.9835 -2.40964 0
M  V30 5649 N 538.028 1.39524 0.732853 0
M  V30 5650 C 539.268 1.383 1.50508 0
M  V30 5651 C 539.632 -0.0208271 1.91989 0
M  V30 5652 O 540.833 -0.158091 2.68335 0
M  V30 5653 C 539.104 2.33007 2.71003 0
M  V30 5654 S 540.663 2.49989 3.60626 0
M  V30 5655 H 537.481 0.490417 0.514794 0
M  V30 5656 H 540.083 1.75641 0.858524 0
M  V30 5657 H 538.787 3.33862 2.38672 0
M  V30 5658 H 538.318 1.96889 3.40585 0
M  V30 5659 H 540.333 1.7394 4.64714 0
M  V30 5660 N 539.506 -0.963266 1.24736 0
M  V30 5661 C 540.736 -1.73913 1.11524 0
M  V30 5662 C 541.144 -1.86218 -0.334612 0
M  V30 5663 O 540.487 -1.3531 -1.24245 0
M  V30 5664 C 540.549 -3.17501 1.68622 0
M  V30 5665 C 540.213 -3.28655 3.17546 0
M  V30 5666 C 541.21 -3.13637 4.14642 0
M  V30 5667 C 538.895 -3.52753 3.5759 0
M  V30 5668 C 540.889 -3.2255 5.49764 0
M  V30 5669 C 538.576 -3.61303 4.92852 0
M  V30 5670 C 539.574 -3.46214 5.88748 0
M  V30 5671 O 539.262 -3.5443 7.2155 0
M  V30 5672 H 538.994 -0.552057 0.390139 0
M  V30 5673 H 541.548 -1.2177 1.65412 0
M  V30 5674 H 539.778 -3.70969 1.09172 0
M  V30 5675 H 541.467 -3.76914 1.50635 0
M  V30 5676 H 542.233 -2.94899 3.85045 0
M  V30 5677 H 538.112 -3.63561 2.83451 0
M  V30 5678 H 541.656 -3.1069 6.24594 0
M  V30 5679 H 537.553 -3.79556 5.22118 0
M  V30 5680 H 538.321 -3.71116 7.29531 0
M  V30 5681 N 540.985 -1.06182 -1.16461 0
M  V30 5682 C 542.232 -0.777863 -1.86964 0
M  V30 5683 C 542.56 0.695602 -1.81636 0
M  V30 5684 O 541.815 1.52532 -1.22607 0
M  V30 5685 C 542.114 -1.21633 -3.36066 0
M  V30 5686 C 541.78 -2.69371 -3.61594 0
M  V30 5687 C 540.442 -3.09727 -3.6827 0
M  V30 5688 C 542.794 -3.64791 -3.7226 0
M  V30 5689 C 540.122 -4.44345 -3.83112 0
M  V30 5690 C 542.474 -4.99155 -3.88623 0
M  V30 5691 C 541.138 -5.39149 -3.93541 0
M  V30 5692 H 540.408 -0.28464 -0.68415 0
M  V30 5693 H 543.055 -1.33071 -1.37711 0
M  V30 5694 H 541.36 -0.582651 -3.87443 0
M  V30 5695 H 543.057 -0.973682 -3.88999 0
M  V30 5696 H 539.647 -2.37124 -3.57029 0
M  V30 5697 H 543.831 -3.34746 -3.66413 0
M  V30 5698 H 539.087 -4.74819 -3.85172 0
M  V30 5699 H 543.261 -5.72976 -3.95817 0
M  V30 5700 H 540.888 -6.43464 -4.04794 0
M  V30 5701 N 542.463 1.3308 -0.844243 0
M  V30 5702 C 543.711 1.97215 -0.441676 0
M  V30 5703 C 544.032 1.67185 1.0037 0
M  V30 5704 O 543.302 0.973588 1.69994 0
M  V30 5705 H 541.882 0.72959 -0.160335 0
M  V30 5706 H 544.544 1.62348 -1.07838 0
M  V30 5707 H 543.64 3.06698 -0.57815 0
M  V30 5708 N 543.941 0.601185 1.45683 0
M  V30 5709 C 545.352 0.179659 1.85834 0
M  V30 5710 C 545.703 -1.26189 1.50236 0
M  V30 5711 O 544.828 -1.95587 0.925987 0
M  V30 5712 C 545.423 0.319277 3.37292 0
M  V30 5713 C 543.982 -0.0475092 3.7637 0
M  V30 5714 C 543.129 0.646692 2.69654 0
M  V30 5715 H 546.08 0.808268 1.36575 0
M  V30 5716 H 546.101 -0.4503 3.77826 0
M  V30 5717 H 545.613 1.36855 3.6317 0
M  V30 5718 H 543.714 -1.0962 3.5611 0
M  V30 5719 H 543.827 0.34168 4.7788 0
M  V30 5720 H 542.191 0.0849971 2.54558 0
M  V30 5721 H 542.974 1.69797 2.98369 0
M  V30 5722 N 545.419 -1.53889 0.339982 0
M  V30 5723 C 546.382 -2.23547 -0.50592 0
M  V30 5724 C 547.382 -1.23445 -1.03044 0
M  V30 5725 O 548.572 -1.47909 -0.920253 0
M  V30 5726 C 545.704 -2.95234 -1.7044 0
M  V30 5727 H 546.897 -2.99722 0.103247 0
M  V30 5728 H 544.45 -1.56033 0.0912804 0
M  V30 5729 H 545.185 -2.23236 -2.35236 0
M  V30 5730 H 544.97 -3.68654 -1.33553 0
M  V30 5731 H 546.46 -3.48258 -2.30447 0
M  V30 5732 N 546.897 -0.0685191 -1.57451 0
M  V30 5733 C 547.86 0.885173 -2.11417 0
M  V30 5734 C 548.86 1.22853 -1.03748 0
M  V30 5735 O 550.05 1.16235 -1.2975 0
M  V30 5736 C 547.182 2.18964 -2.61281 0
M  V30 5737 H 548.375 0.417034 -2.96986 0
M  V30 5738 H 545.928 0.18014 -1.55258 0
M  V30 5739 H 546.663 2.70321 -1.79156 0
M  V30 5740 H 546.448 1.9534 -3.39977 0
M  V30 5741 H 547.938 2.87242 -3.0312 0
M  V30 5742 N 548.375 1.56261 0.205012 0
M  V30 5743 C 549.305 1.96779 1.257 0
M  V30 5744 C 550.286 0.838309 1.48008 0
M  V30 5745 O 551.471 1.10189 1.59913 0
M  V30 5746 C 548.601 2.29876 2.60335 0
M  V30 5747 C 547.555 3.45469 2.52656 0
M  V30 5748 C 546.881 3.64215 3.91473 0
M  V30 5749 C 548.181 4.79954 2.06014 0
M  V30 5750 H 549.875 2.84904 0.920338 0
M  V30 5751 H 547.421 1.37072 0.441277 0
M  V30 5752 H 549.374 2.56814 3.34102 0
M  V30 5753 H 548.098 1.38622 2.95722 0
M  V30 5754 H 546.757 3.18605 1.81345 0
M  V30 5755 H 546.405 2.70309 4.24196 0
M  V30 5756 H 546.105 4.41973 3.87213 0
M  V30 5757 H 547.629 3.93519 4.66878 0
M  V30 5758 H 549.043 5.05989 2.69533 0
M  V30 5759 H 547.44 5.61111 2.12777 0
M  V30 5760 H 548.51 4.74201 1.01297 0
M  V30 5761 N 549.853 -0.472356 1.50355 0
M  V30 5762 C 551.083 -1.24603 1.64796 0
M  V30 5763 C 551.491 -1.86297 0.330156 0
M  V30 5764 O 550.834 -1.69934 -0.697728 0
M  V30 5765 C 550.896 -2.39578 2.68035 0
M  V30 5766 C 550.56 -1.98531 4.11624 0
M  V30 5767 C 551.557 -1.50856 4.97532 0
M  V30 5768 C 549.242 -2.0729 4.57532 0
M  V30 5769 C 551.236 -1.12481 6.27397 0
M  V30 5770 C 548.923 -1.68527 5.87403 0
M  V30 5771 C 549.921 -1.212 6.7216 0
M  V30 5772 O 549.609 -0.829728 7.99607 0
M  V30 5773 H 549.341 -0.383035 0.55701 0
M  V30 5774 H 551.895 -0.570392 1.97321 0
M  V30 5775 H 550.125 -3.10309 2.30749 0
M  V30 5776 H 551.814 -3.01544 2.71709 0
M  V30 5777 H 552.58 -1.43511 4.63281 0
M  V30 5778 H 548.459 -2.43076 3.91708 0
M  V30 5779 H 552.003 -0.754698 6.93506 0
M  V30 5780 H 547.9 -1.7553 6.21176 0
M  V30 5781 H 548.668 -0.958689 8.12866 0
M  V30 5782 N 551.331 -1.39911 -0.725443 0
M  V30 5783 C 552.58 -1.36963 -1.48068 0
M  V30 5784 C 552.893 0.0284478 -1.95579 0
M  V30 5785 O 554.099 0.180535 -2.70899 0
M  V30 5786 C 552.555 -2.40664 -2.67598 0
M  V30 5787 C 552.163 -3.86234 -2.26997 0
M  V30 5788 C 553.907 -2.46807 -3.45379 0
M  V30 5789 C 551.814 -4.81554 -3.43307 0
M  V30 5790 H 550.744 -0.509223 -0.556065 0
M  V30 5791 H 553.395 -1.65602 -0.790454 0
M  V30 5792 H 551.777 -2.05109 -3.38742 0
M  V30 5793 H 552.951 -4.3088 -1.63337 0
M  V30 5794 H 551.266 -3.83475 -1.62284 0
M  V30 5795 H 553.863 -3.15213 -4.31909 0
M  V30 5796 H 554.206 -1.49552 -3.8851 0
M  V30 5797 H 554.739 -2.81303 -2.81271 0
M  V30 5798 H 551.478 -5.80106 -3.05217 0
M  V30 5799 H 550.998 -4.4158 -4.05915 0
M  V30 5800 H 552.677 -5.0091 -4.0951 0
M  V30 5801 N 552.809 0.956637 -1.25245 0
M  V30 5802 C 554.055 1.70413 -1.11044 0
M  V30 5803 C 554.41 1.89275 0.345377 0
M  V30 5804 O 553.703 1.45116 1.25107 0
M  V30 5805 C 553.897 3.08996 -1.79601 0
M  V30 5806 C 553.726 3.03654 -3.317 0
M  V30 5807 C 552.496 3.07521 -4.00947 0
M  V30 5808 C 554.694 2.84975 -4.28128 0
M  V30 5809 N 552.676 2.92316 -5.39838 0
M  V30 5810 C 554.047 2.7818 -5.5409 0
M  V30 5811 C 556.102 2.6964 -4.18568 0
M  V30 5812 C 554.805 2.57616 -6.71585 0
M  V30 5813 C 556.831 2.50447 -5.35752 0
M  V30 5814 C 556.193 2.4437 -6.60653 0
M  V30 5815 H 552.292 0.631642 -0.461035 0
M  V30 5816 H 554.876 1.13331 -1.58317 0
M  V30 5817 H 553.047 3.64248 -1.34826 0
M  V30 5818 H 554.779 3.72515 -1.58161 0
M  V30 5819 H 551.534 3.16635 -3.52192 0
M  V30 5820 H 551.958 2.87923 -6.12723 0
M  V30 5821 H 556.6 2.73113 -3.22752 0
M  V30 5822 H 554.318 2.52885 -7.67512 0
M  V30 5823 H 557.904 2.39509 -5.30214 0
M  V30 5824 H 556.784 2.29712 -7.49801 0
M  V30 5825 N 554.287 1.06798 1.15896 0
M  V30 5826 C 555.25 0.687328 2.18651 0
M  V30 5827 C 556.25 -0.269559 1.58524 0
M  V30 5828 O 557.44 -0.0512627 1.74125 0
M  V30 5829 C 554.572 0.0121642 3.40898 0
M  V30 5830 H 555.765 1.59701 2.53842 0
M  V30 5831 H 553.318 0.863828 1.3026 0
M  V30 5832 H 554.053 -0.910025 3.1127 0
M  V30 5833 H 553.838 0.700309 3.85795 0
M  V30 5834 H 555.328 -0.239703 4.16911 0
M  V30 5835 N 555.766 -1.3263 0.851289 0
M  V30 5836 C 557.012 -1.9766 0.453694 0
M  V30 5837 C 557.345 -1.67225 -0.987396 0
M  V30 5838 O 556.62 -0.958693 -1.69232 0
M  V30 5839 C 556.903 -3.5344 0.68936 0
M  V30 5840 C 556.756 -3.93517 2.17862 0
M  V30 5841 C 558.075 -4.39866 0.143555 0
M  V30 5842 H 555.194 -0.717989 0.166314 0
M  V30 5843 H 557.836 -1.57068 1.06909 0
M  V30 5844 H 555.986 -3.88147 0.165546 0
M  V30 5845 H 557.658 -3.69006 2.76826 0
M  V30 5846 H 555.901 -3.42798 2.65841 0
M  V30 5847 H 556.572 -5.02065 2.29422 0
M  V30 5848 H 559.048 -4.11875 0.591451 0
M  V30 5849 H 557.924 -5.47858 0.338043 0
M  V30 5850 H 558.185 -4.31696 -0.953466 0
M  V30 5851 N 557.244 -0.608902 -1.45362 0
M  V30 5852 C 558.492 -0.104401 -2.0183 0
M  V30 5853 C 558.813 1.27007 -1.47967 0
M  V30 5854 O 558.083 1.83924 -0.674455 0
M  V30 5855 H 556.663 -0.0356042 -0.746151 0
M  V30 5856 H 559.325 -0.790596 -1.78145 0
M  V30 5857 H 558.421 -0.0551793 -3.12051 0
M  V30 5858 N 558.722 1.53707 -0.348139 0
M  V30 5859 C 559.971 2.0017 0.247992 0
M  V30 5860 C 560.284 1.23983 1.51286 0
M  V30 5861 O 561.49 1.60946 2.18652 0
M  V30 5862 C 559.946 3.56515 0.492459 0
M  V30 5863 C 559.554 4.41562 -0.756777 0
M  V30 5864 C 561.298 4.11381 1.0472 0
M  V30 5865 C 559.205 5.89426 -0.482856 0
M  V30 5866 H 558.135 0.747806 0.0964452 0
M  V30 5867 H 560.786 1.77532 -0.464179 0
M  V30 5868 H 559.168 3.75236 1.26545 0
M  V30 5869 H 560.342 4.34615 -1.53122 0
M  V30 5870 H 558.657 3.97711 -1.23348 0
M  V30 5871 H 561.254 5.19468 1.26717 0
M  V30 5872 H 561.597 3.64885 2.00411 0
M  V30 5873 H 562.13 3.96389 0.334801 0
M  V30 5874 H 558.869 6.40164 -1.40962 0
M  V30 5875 H 558.389 5.99264 0.253416 0
M  V30 5876 H 560.068 6.4692 -0.101816 0
M  V30 5877 N 560.2 0.0768682 1.57412 0
M  V30 5878 C 561.13 -0.886026 2.16037 0
M  V30 5879 C 562.111 -1.30691 1.08876 0
M  V30 5880 O 563.296 -1.37705 1.36934 0
M  V30 5881 C 560.426 -2.1518 2.72608 0
M  V30 5882 C 559.38 -1.87015 3.8498 0
M  V30 5883 C 558.706 -3.20266 4.28175 0
M  V30 5884 C 560.006 -1.17143 5.08994 0
M  V30 5885 H 561.7 -0.397642 2.96748 0
M  V30 5886 H 559.246 -0.189823 1.42743 0
M  V30 5887 H 561.199 -2.82962 3.12266 0
M  V30 5888 H 559.923 -2.66269 1.89125 0
M  V30 5889 H 558.582 -1.21636 3.45833 0
M  V30 5890 H 558.23 -3.69207 3.41607 0
M  V30 5891 H 557.93 -3.0221 5.03927 0
M  V30 5892 H 559.454 -3.89237 4.70454 0
M  V30 5893 H 560.868 -1.75003 5.45937 0
M  V30 5894 H 559.265 -1.09328 5.90057 0
M  V30 5895 H 560.335 -0.151295 4.84664 0
M  V30 5896 N 561.678 -1.56367 -0.196722 0
M  V30 5897 C 562.641 -1.93561 -1.22746 0
M  V30 5898 C 563.641 -0.816566 -1.38524 0
M  V30 5899 O 564.831 -1.084 -1.36363 0
M  V30 5900 C 561.963 -2.20823 -2.59712 0
M  V30 5901 H 563.156 -2.85774 -0.909586 0
M  V30 5902 H 560.709 -1.50032 -0.438174 0
M  V30 5903 H 561.444 -1.31243 -2.96557 0
M  V30 5904 H 561.229 -3.02368 -2.49632 0
M  V30 5905 H 562.719 -2.50608 -3.34044 0
M  V30 5906 N 563.156 0.464375 -1.50603 0
M  V30 5907 C 564.119 1.54393 -1.69397 0
M  V30 5908 C 565.119 1.50566 -0.564504 0
M  V30 5909 O 566.309 1.53066 -0.831645 0
M  V30 5910 C 563.441 2.9401 -1.72543 0
M  V30 5911 H 564.634 1.39044 -2.65719 0
M  V30 5912 H 562.187 0.69122 -1.40185 0
M  V30 5913 H 562.922 3.14795 -0.77938 0
M  V30 5914 H 562.707 2.98195 -2.54602 0
M  V30 5915 H 564.197 3.72375 -1.89015 0
M  V30 5916 N 564.634 1.40294 0.718013 0
M  V30 5917 C 565.882 1.38167 1.47494 0
M  V30 5918 C 566.203 -0.01607 1.94993 0
M  V30 5919 O 565.473 -0.970396 1.70177 0
M  V30 5920 H 564.053 0.508505 0.547203 0
M  V30 5921 H 566.715 1.75324 0.851322 0
M  V30 5922 H 565.811 2.05503 2.34894 0
M  V30 5923 N 566.112 -0.949982 1.2575 0
M  V30 5924 C 567.044 -2.05088 1.02331 0
M  V30 5925 C 568.057 -1.62795 -0.0133247 0
M  V30 5926 O 569.246 -1.77067 0.225759 0
M  V30 5927 C 566.346 -3.34794 0.525924 0
M  V30 5928 C 565.519 -4.05903 1.62978 0
M  V30 5929 C 564.578 -5.1388 1.13196 0
M  V30 5930 O 563.604 -5.39072 1.82729 0
M  V30 5931 N 564.806 -5.80495 -0.0242926 0
M  V30 5932 H 567.571 -2.25747 1.97125 0
M  V30 5933 H 565.132 -1.11886 1.17018 0
M  V30 5934 H 567.124 -4.04312 0.177263 0
M  V30 5935 H 565.694 -3.10872 -0.328202 0
M  V30 5936 H 564.914 -3.3042 2.1498 0
M  V30 5937 H 566.202 -4.50166 2.37124 0
M  V30 5938 H 565.6 -5.62454 -0.605184 0
M  V30 5939 H 564.157 -6.51043 -0.313947 0
M  V30 5940 N 567.59 -1.07411 -1.15328 0
M  V30 5941 C 568.815 -0.818856 -1.90551 0
M  V30 5942 C 569.24 0.622194 -1.77512 0
M  V30 5943 O 568.598 1.43484 -1.10824 0
M  V30 5944 C 568.646 -1.23267 -3.38877 0
M  V30 5945 O 567.75 -0.378345 -4.10661 0
M  V30 5946 H 567.091 -0.29827 -0.593238 0
M  V30 5947 H 569.621 -1.43289 -1.46046 0
M  V30 5948 H 569.631 -1.20912 -3.89672 0
M  V30 5949 H 568.306 -2.28226 -3.47686 0
M  V30 5950 H 566.883 -0.464437 -3.69996 0
M  V30 5951 N 569.068 1.32177 -0.85831 0
M  V30 5952 C 570.293 2.01847 -0.476718 0
M  V30 5953 C 570.718 1.64065 0.920021 0
M  V30 5954 O 570.076 0.843189 1.60499 0
M  V30 5955 C 570.124 3.55097 -0.627578 0
M  V30 5956 O 569.228 4.11012 0.338086 0
M  V30 5957 H 568.569 0.635907 -0.191099 0
M  V30 5958 H 571.099 1.68641 -1.15851 0
M  V30 5959 H 571.109 4.04718 -0.516476 0
M  V30 5960 H 569.784 3.81938 -1.64609 0
M  V30 5961 H 568.361 3.72451 0.182917 0
M  V30 5962 N 570.547 0.616602 1.45037 0
M  V30 5963 C 571.775 0.121968 2.0654 0
M  V30 5964 C 572.19 -1.19743 1.45969 0
M  V30 5965 O 571.547 -1.73133 0.577168 0
M  V30 5966 C 571.598 -0.0145171 3.61497 0
M  V30 5967 O 571.319 1.25269 4.19809 0
M  V30 5968 C 572.82 -0.539555 4.40004 0
M  V30 5969 H 570.04 0.0729837 0.667019 0
M  V30 5970 H 572.584 0.846891 1.8614 0
M  V30 5971 H 570.739 -0.689809 3.81209 0
M  V30 5972 H 571.153 1.08816 5.13088 0
M  V30 5973 H 572.627 -0.584112 5.48901 0
M  V30 5974 H 573.104 -1.56368 4.10421 0
M  V30 5975 H 573.71 0.101995 4.25178 0
M  V30 5976 N 572.025 -1.5352 0.356285 0
M  V30 5977 C 572.958 -2.2177 -0.537913 0
M  V30 5978 C 573.936 -1.20626 -1.09033 0
M  V30 5979 O 575.12 -1.49494 -1.1482 0
M  V30 5980 C 572.247 -2.90513 -1.74126 0
M  V30 5981 C 571.293 -4.05652 -1.31715 0
M  V30 5982 S 572.126 -5.34505 -0.326236 0
M  V30 5983 C 573.282 -6.06757 -1.53612 0
M  V30 5984 H 573.515 -2.97271 0.0417411 0
M  V30 5985 H 571.048 -1.53761 0.140372 0
M  V30 5986 H 573.006 -3.30735 -2.43155 0
M  V30 5987 H 571.667 -2.14754 -2.29215 0
M  V30 5988 H 570.86 -4.52733 -2.21471 0
M  V30 5989 H 570.462 -3.67272 -0.706183 0
M  V30 5990 H 572.754 -6.30924 -2.46863 0
M  V30 5991 H 573.697 -6.99395 -1.10687 0
M  V30 5992 H 574.105 -5.3708 -1.73796 0
M  V30 5993 N 573.503 -0.0852151 -1.57369 0
M  V30 5994 C 574.731 0.58946 -1.98325 0
M  V30 5995 C 575.146 1.62333 -0.96403 0
M  V30 5996 O 574.503 1.82438 0.0476395 0
M  V30 5997 C 574.554 1.24604 -3.39347 0
M  V30 5998 O 574.275 0.253532 -4.37366 0
M  V30 5999 C 575.776 2.00726 -3.95252 0
M  V30 6000 H 572.996 0.158783 -0.651942 0
M  V30 6001 H 575.54 -0.161584 -2.03861 0
M  V30 6002 H 573.695 1.94808 -3.34856 0
M  V30 6003 H 574.109 0.726207 -5.19448 0
M  V30 6004 H 575.583 2.42039 -4.96106 0
M  V30 6005 H 576.06 2.86919 -3.32527 0
M  V30 6006 H 576.666 1.3536 -4.03185 0
M  V30 6007 N 574.981 1.5647 0.188427 0
M  V30 6008 C 576.229 1.80655 0.905986 0
M  V30 6009 C 576.55 0.659391 1.83513 0
M  V30 6010 O 575.82 -0.321868 1.93238 0
M  V30 6011 H 574.4 0.666391 0.337538 0
M  V30 6012 H 577.062 1.93949 0.192339 0
M  V30 6013 H 576.158 2.74066 1.49313 0
M  V30 6014 N 576.459 -0.456382 1.50847 0
M  V30 6015 C 577.687 -1.23026 1.66349 0
M  V30 6016 C 578.102 -1.85473 0.352868 0
M  V30 6017 O 577.459 -1.69885 -0.666739 0
M  V30 6018 C 577.51 -2.32827 2.76539 0
M  V30 6019 O 577.231 -1.72938 4.02522 0
M  V30 6020 C 578.732 -3.23448 3.03144 0
M  V30 6021 H 575.952 -0.371527 0.558756 0
M  V30 6022 H 578.496 -0.543082 1.97157 0
M  V30 6023 H 576.651 -2.97294 2.48384 0
M  V30 6024 H 577.065 -2.45357 4.63573 0
M  V30 6025 H 578.539 -3.96669 3.83872 0
M  V30 6026 H 579.016 -3.83094 2.14793 0
M  V30 6027 H 579.622 -2.64702 3.32886 0
M  V30 6028 N 577.937 -1.40673 -0.710563 0
M  V30 6029 C 579.167 -1.4234 -1.49742 0
M  V30 6030 C 579.575 -0.022821 -1.89186 0
M  V30 6031 O 578.918 0.964773 -1.56326 0
M  V30 6032 C 578.98 -2.25509 -2.79975 0
M  V30 6033 C 578.644 -3.73862 -2.62824 0
M  V30 6034 C 579.641 -4.66379 -2.29752 0
M  V30 6035 C 577.326 -4.17735 -2.78932 0
M  V30 6036 C 579.32 -6.00756 -2.13006 0
M  V30 6037 C 577.007 -5.5218 -2.61802 0
M  V30 6038 C 578.005 -6.43505 -2.28888 0
M  V30 6039 O 577.693 -7.75472 -2.11894 0
M  V30 6040 H 577.425 -0.487311 -0.468513 0
M  V30 6041 H 579.979 -1.8542 -0.883668 0
M  V30 6042 H 578.209 -1.77218 -3.43701 0
M  V30 6043 H 579.898 -2.19058 -3.41714 0
M  V30 6044 H 580.664 -4.33778 -2.16936 0
M  V30 6045 H 576.543 -3.46967 -3.03537 0
M  V30 6046 H 580.087 -6.72003 -1.87237 0
M  V30 6047 H 575.984 -5.84365 -2.74204 0
M  V30 6048 H 576.752 -7.86458 -2.26775 0
M  V30 6049 N 579.415 0.9433 -1.26252 0
M  V30 6050 C 580.64 1.72898 -1.14547 0
M  V30 6051 C 581.065 1.85761 0.295743 0
M  V30 6052 O 580.423 1.3463 1.21427 0
M  V30 6053 C 580.471 3.11471 -1.8171 0
M  V30 6054 O 579.575 3.97336 -1.10445 0
M  V30 6055 H 578.916 0.530555 -0.399259 0
M  V30 6056 H 581.446 1.18159 -1.67032 0
M  V30 6057 H 581.456 3.61872 -1.88449 0
M  V30 6058 H 580.131 3.01425 -2.86558 0
M  V30 6059 H 578.708 3.55788 -1.11666 0
M  V30 6060 N 580.893 1.08022 1.14757 0
M  V30 6061 C 582.141 0.805913 1.85336 0
M  V30 6062 C 582.462 -0.670162 1.83122 0
M  V30 6063 O 581.732 -1.48567 1.2769 0
M  V30 6064 H 580.312 0.295138 0.686223 0
M  V30 6065 H 582.974 1.36538 1.3908 0
M  V30 6066 H 582.07 1.14655 2.90277 0
M  V30 6067 N 582.371 -1.3172 0.865308 0
M  V30 6068 C 583.303 -2.27545 0.274906 0
M  V30 6069 C 584.316 -1.52887 -0.559413 0
M  V30 6070 O 585.505 -1.74361 -0.382166 0
M  V30 6071 C 582.605 -3.33006 -0.629286 0
M  V30 6072 C 581.778 -4.37063 0.171553 0
M  V30 6073 C 580.837 -5.22044 -0.660052 0
M  V30 6074 O 579.863 -5.69129 -0.0897527 0
M  V30 6075 N 581.065 -5.45946 -1.97289 0
M  V30 6076 H 583.83 -2.78848 1.09836 0
M  V30 6077 H 581.391 -1.44693 0.726331 0
M  V30 6078 H 583.383 -3.86772 -1.19121 0
M  V30 6079 H 581.953 -2.81782 -1.35342 0
M  V30 6080 H 581.173 -3.83436 0.914919 0
M  V30 6081 H 582.461 -5.03662 0.721235 0
M  V30 6082 H 581.859 -5.0944 -2.45942 0
M  V30 6083 H 580.416 -6.02665 -2.4827 0
M  V30 6084 N 583.85 -0.624285 -1.44708 0
M  V30 6085 C 585.096 -0.126051 -2.02107 0
M  V30 6086 C 585.425 1.2496 -1.49048 0
M  V30 6087 O 584.68 1.84163 -0.662005 0
M  V30 6088 C 584.979 -0.0546353 -3.57358 0
M  V30 6089 C 584.644 -1.36815 -4.29642 0
M  V30 6090 C 583.307 -1.72792 -4.49106 0
M  V30 6091 C 585.659 -2.23549 -4.70824 0
M  V30 6092 C 582.986 -2.95222 -5.07012 0
M  V30 6093 C 585.339 -3.45243 -5.30085 0
M  V30 6094 C 584.003 -3.81452 -5.47769 0
M  V30 6095 H 583.273 -0.0461252 -0.739563 0
M  V30 6096 H 585.92 -0.809236 -1.73562 0
M  V30 6097 H 584.225 0.711891 -3.85278 0
M  V30 6098 H 585.922 0.347282 -3.99493 0
M  V30 6099 H 582.512 -1.07817 -4.14817 0
M  V30 6100 H 586.696 -1.9705 -4.55505 0
M  V30 6101 H 581.952 -3.23361 -5.18891 0
M  V30 6102 H 586.125 -4.12689 -5.60946 0
M  V30 6103 H 583.753 -4.76403 -5.92405 0
M  V30 6104 N 585.328 1.53329 -0.364422 0
M  V30 6105 C 586.574 2.01537 0.225969 0
M  V30 6106 C 586.907 1.25128 1.48515 0
M  V30 6107 O 586.182 0.344653 1.91422 0
M  V30 6108 C 586.465 3.56339 0.519092 0
M  V30 6109 C 586.318 4.43441 -0.753639 0
M  V30 6110 C 587.637 4.19833 1.32015 0
M  V30 6111 H 584.756 0.732573 0.0806548 0
M  V30 6112 H 587.398 1.83597 -0.489084 0
M  V30 6113 H 585.548 3.71756 1.12825 0
M  V30 6114 H 587.22 4.39823 -1.39116 0
M  V30 6115 H 585.463 4.11457 -1.37424 0
M  V30 6116 H 586.134 5.49699 -0.503517 0
M  V30 6117 H 588.61 4.08242 0.804859 0
M  V30 6118 H 587.486 5.28177 1.49399 0
M  V30 6119 H 587.747 3.75821 2.32832 0
M  V30 6120 N 586.806 0.0935595 1.57322 0
M  V30 6121 C 587.739 -0.902505 2.09595 0
M  V30 6122 C 588.717 -1.27732 1.00615 0
M  V30 6123 O 589.901 -1.38283 1.28102 0
M  V30 6124 C 587.028 -2.20416 2.57166 0
M  V30 6125 C 586.074 -1.97932 3.7779 0
M  V30 6126 S 586.907 -1.21873 5.21447 0
M  V30 6127 C 588.063 -2.53273 5.72367 0
M  V30 6128 H 588.296 -0.457797 2.93754 0
M  V30 6129 H 585.829 -0.119694 1.53935 0
M  V30 6130 H 587.787 -2.95217 2.85232 0
M  V30 6131 H 586.448 -2.62008 1.73235 0
M  V30 6132 H 585.641 -2.94316 4.09138 0
M  V30 6133 H 585.243 -1.3126 3.5021 0
M  V30 6134 H 587.535 -3.49256 5.8054 0
M  V30 6135 H 588.478 -2.26505 6.70896 0
M  V30 6136 H 588.886 -2.61475 5.00291 0
M  V30 6137 N 588.284 -1.56567 -0.180126 0
M  V30 6138 C 589.194 -1.98947 -1.24327 0
M  V30 6139 C 590.21 -0.899446 -1.4895 0
M  V30 6140 O 591.386 -1.20639 -1.61271 0
M  V30 6141 C 588.451 -2.33328 -2.56435 0
M  V30 6142 C 587.512 -3.56114 -2.39752 0
M  V30 6143 C 586.745 -3.88845 -3.65561 0
M  V30 6144 O 586.968 -3.22662 -4.70368 0
M  V30 6145 O 585.902 -4.82226 -3.60197 0
M  V30 6146 H 589.728 -2.89634 -0.913565 0
M  V30 6147 H 587.313 -1.44319 -0.386306 0
M  V30 6148 H 589.195 -2.5645 -3.34382 0
M  V30 6149 H 587.87 -1.45806 -2.89002 0
M  V30 6150 H 586.777 -3.38221 -1.59866 0
M  V30 6151 H 588.11 -4.4415 -2.12113 0
M  V30 6152 N 589.762 0.448376 -1.51087 0
M  V30 6153 C 591.01 1.19635 -1.62886 0
M  V30 6154 C 591.331 1.91977 -0.342024 0
M  V30 6155 O 590.601 1.85094 0.641636 0
M  V30 6156 H 589.181 0.444598 -0.600285 0
M  V30 6157 H 591.843 0.515138 -1.87969 0
M  V30 6158 H 590.939 1.93194 -2.45117 0
M  V30 6159 N 591.24 1.41047 0.703093 0
M  V30 6160 C 592.487 1.4 1.46309 0
M  V30 6161 C 592.815 0.00654574 1.94499 0
M  V30 6162 O 592.07 -0.980255 1.6938 0
M  V30 6163 C 592.369 2.34686 2.6955 0
M  V30 6164 C 592.035 3.81684 2.40058 0
M  V30 6165 C 590.697 4.21731 2.31725 0
M  V30 6166 C 593.049 4.74525 2.15581 0
M  V30 6167 C 590.377 5.52637 1.97001 0
M  V30 6168 C 592.729 6.05744 1.82366 0
M  V30 6169 C 591.393 6.44819 1.72524 0
M  V30 6170 H 590.663 0.512295 0.535382 0
M  V30 6171 H 593.31 1.73792 0.804275 0
M  V30 6172 H 591.615 1.94122 3.40329 0
M  V30 6173 H 593.312 2.31152 3.27673 0
M  V30 6174 H 589.902 3.49963 2.47435 0
M  V30 6175 H 594.086 4.44395 2.20968 0
M  V30 6176 H 589.342 5.81802 1.87928 0
M  V30 6177 H 593.516 6.77189 1.62444 0
M  V30 6178 H 591.143 7.46168 1.45385 0
M  V30 6179 N 592.718 -0.936591 1.26751 0
M  V30 6180 C 593.648 -2.05315 1.11212 0
M  V30 6181 C 594.629 -1.70092 0.0160262 0
M  V30 6182 O 595.814 -1.93279 0.188894 0
M  V30 6183 C 592.944 -3.39123 0.749171 0
M  V30 6184 C 591.898 -3.88425 1.79751 0
M  V30 6185 C 591.224 -5.18936 1.28876 0
M  V30 6186 C 592.524 -4.12798 3.19992 0
M  V30 6187 H 594.218 -2.18573 2.04613 0
M  V30 6188 H 591.764 -1.05027 0.985159 0
M  V30 6189 H 593.717 -4.16704 0.627323 0
M  V30 6190 H 592.441 -3.25855 -0.220543 0
M  V30 6191 H 591.1 -3.13028 1.90811 0
M  V30 6192 H 590.748 -5.02051 0.308757 0
M  V30 6193 H 590.448 -5.52892 1.98958 0
M  V30 6194 H 591.972 -5.99096 1.17967 0
M  V30 6195 H 593.386 -4.80977 3.11983 0
M  V30 6196 H 591.783 -4.58044 3.87705 0
M  V30 6197 H 592.853 -3.18412 3.65707 0
M  V30 6198 N 594.196 -1.08629 -1.14182 0
M  V30 6199 C 595.144 -0.71284 -2.21408 0
M  V30 6200 C 596.138 0.282457 -1.67029 0
M  V30 6201 O 597.344 0.144783 -1.79417 0
M  V30 6202 H 593.719 -0.212497 -0.721352 0
M  V30 6203 H 595.69 -1.6265 -2.50175 0
M  V30 6204 C 594.439 -0.140704 -3.47415 0
M  V30 6205 H 593.762 -0.897739 -3.8959 0
M  V30 6206 H 595.202 0.0827677 -4.23919 0
M  V30 6207 C 593.661 1.122 -3.17668 0
M  V30 6208 O 594.191 2.20652 -3.35672 0
M  V30 6209 N 592.397 1.03328 -2.71609 0
M  V30 6210 H 591.944 0.150666 -2.57159 0
M  V30 6211 H 591.902 1.8789 -2.52081 0
M  V30 6212 N 595.674 1.31259 -0.872281 0
M  V30 6213 C 596.604 2.30929 -0.345554 0
M  V30 6214 C 597.585 1.60449 0.5648 0
M  V30 6215 O 598.77 1.8814 0.481335 0
M  V30 6216 C 595.9 3.44348 0.451823 0
M  V30 6217 C 594.854 4.26435 -0.365641 0
M  V30 6218 C 594.18 5.31785 0.557562 0
M  V30 6219 C 595.48 4.97159 -1.60095 0
M  V30 6220 H 597.174 2.75234 -1.17841 0
M  V30 6221 H 594.72 1.3232 -0.568094 0
M  V30 6222 H 596.673 4.13128 0.830854 0
M  V30 6223 H 595.397 2.98816 1.31821 0
M  V30 6224 H 594.056 3.59326 -0.726649 0
M  V30 6225 H 593.704 4.82502 1.4213 0
M  V30 6226 H 593.404 5.87598 0.0144878 0
M  V30 6227 H 594.928 6.03424 0.933387 0
M  V30 6228 H 596.342 5.58523 -1.29323 0
M  V30 6229 H 594.739 5.62779 -2.08327 0
M  V30 6230 H 595.809 4.24012 -2.35249 0
M  V30 6231 N 597.152 0.631951 1.44375 0
M  V30 6232 C 598.099 -0.0724807 2.30686 0
M  V30 6233 C 599.069 -0.835975 1.43529 0
M  V30 6234 O 600.254 -0.816849 1.7243 0
M  V30 6235 C 597.394 -1.04753 3.28817 0
M  V30 6236 C 596.507 -0.282367 4.31076 0
M  V30 6237 C 595.642 -1.2493 5.163 0
M  V30 6238 C 594.681 -0.473349 6.10267 0
M  V30 6239 N 593.818 -1.39079 6.88187 0
M  V30 6240 H 598.658 0.669477 2.90383 0
M  V30 6241 H 596.195 0.341927 1.43071 0
M  V30 6242 H 598.153 -1.62623 3.842 0
M  V30 6243 H 596.783 -1.75661 2.70819 0
M  V30 6244 H 595.835 0.412268 3.78159 0
M  V30 6245 H 597.147 0.321955 4.9776 0
M  V30 6246 H 596.301 -1.89931 5.76204 0
M  V30 6247 H 595.04 -1.88755 4.49692 0
M  V30 6248 H 594.045 0.190142 5.49471 0
M  V30 6249 H 595.27 0.16019 6.78911 0
M  V30 6250 H 593.216 -2.01623 6.24247 0
M  V30 6251 H 593.133 -0.840513 7.51313 0
M  V30 6252 H 594.401 -2.02961 7.52613 0
M  V30 6253 N 598.631 -1.53133 0.372548 0
M  V30 6254 C 599.877 -2.02336 -0.207823 0
M  V30 6255 C 600.232 -1.25477 -1.45853 0
M  V30 6256 O 599.525 -0.341971 -1.88524 0
M  V30 6257 C 599.719 -3.53206 -0.545938 0
M  V30 6258 C 599.548 -4.44674 0.670454 0
M  V30 6259 C 598.318 -4.91217 1.18465 0
M  V30 6260 C 600.516 -4.90772 1.53777 0
M  V30 6261 N 598.498 -5.66711 2.36034 0
M  V30 6262 C 599.869 -5.64678 2.56004 0
M  V30 6263 C 601.924 -4.72836 1.55983 0
M  V30 6264 C 600.627 -6.22555 3.60303 0
M  V30 6265 C 602.653 -5.31583 2.59179 0
M  V30 6266 C 602.015 -6.05381 3.6013 0
M  V30 6267 H 598.114 -0.781048 -0.0385783 0
M  V30 6268 H 600.698 -1.87665 0.518664 0
M  V30 6269 H 598.869 -3.68024 -1.24149 0
M  V30 6270 H 600.601 -3.89123 -1.112 0
M  V30 6271 H 597.356 -4.67652 0.748205 0
M  V30 6272 H 597.78 -6.09117 2.95475 0
M  V30 6273 H 602.422 -4.15299 0.792877 0
M  V30 6274 H 600.14 -6.79183 4.37876 0
M  V30 6275 H 603.726 -5.19595 2.61749 0
M  V30 6276 H 602.606 -6.50028 4.38672 0
M  V30 6277 N 600.109 -0.101901 -1.5727 0
M  V30 6278 C 601.334 0.571759 -1.99363 0
M  V30 6279 C 601.759 1.60507 -0.980768 0
M  V30 6280 O 601.117 1.81231 0.0498517 0
M  V30 6281 C 601.165 1.18996 -3.404 0
M  V30 6282 O 600.269 2.30572 -3.41922 0
M  V30 6283 H 599.61 0.144449 -0.648098 0
M  V30 6284 H 602.14 -0.185325 -2.03759 0
M  V30 6285 H 602.15 1.52962 -3.78241 0
M  V30 6286 H 600.825 0.432984 -4.1364 0
M  V30 6287 H 599.402 1.98173 -3.15883 0
M  V30 6288 N 601.587 1.56661 0.17182 0
M  V30 6289 C 603.003 1.50768 0.52357 0
M  V30 6290 C 603.203 0.806072 1.84675 0
M  V30 6291 O 602.259 0.366233 2.4983 0
M  V30 6292 C 603.572 2.955 0.556793 0
M  V30 6293 C 605.12 3.06303 0.644029 0
M  V30 6294 C 605.595 4.52492 0.708148 0
M  V30 6295 N 607.086 4.56737 0.771051 0
M  V30 6296 C 607.821 5.67196 0.841229 0
M  V30 6297 N 607.317 6.87287 0.872272 0
M  V30 6298 N 609.11 5.55165 0.88021 0
M  V30 6299 H 601.261 2.00679 -0.695817 0
M  V30 6300 H 603.524 0.914219 -0.250814 0
M  V30 6301 H 603.23 3.49986 -0.346774 0
M  V30 6302 H 603.104 3.50119 1.40346 0
M  V30 6303 H 605.491 2.51851 1.53802 0
M  V30 6304 H 605.572 2.5477 -0.229297 0
M  V30 6305 H 605.216 5.07575 -0.181585 0
M  V30 6306 H 605.146 5.01781 1.59761 0
M  V30 6307 H 607.637 3.70274 0.755364 0
M  V30 6308 H 607.95 7.6722 0.92698 0
M  V30 6309 H 606.295 6.89898 0.840557 0
M  V30 6310 H 609.486 4.60263 0.852956 0
M  V30 6311 H 609.659 6.41271 0.931439 0
M  V30 6312 N 603.065 -0.440357 1.51323 0
M  V30 6313 C 604.312 -1.19004 1.63842 0
M  V30 6314 C 604.64 -1.91266 0.35321 0
M  V30 6315 O 603.895 -1.84143 -0.662565 0
M  V30 6316 C 604.194 -2.2339 2.78984 0
M  V30 6317 C 603.86 -1.68162 4.18369 0
M  V30 6318 C 602.522 -1.52823 4.56288 0
M  V30 6319 C 604.874 -1.27524 5.05358 0
M  V30 6320 C 602.202 -0.953157 5.78906 0
M  V30 6321 C 604.554 -0.714474 6.28552 0
M  V30 6322 C 603.218 -0.547961 6.65247 0
M  V30 6323 H 602.488 -0.435468 0.59954 0
M  V30 6324 H 605.135 -0.481538 1.85347 0
M  V30 6325 H 603.44 -3.00267 2.51688 0
M  V30 6326 H 605.137 -2.81211 2.85869 0
M  V30 6327 H 601.727 -1.81077 3.8847 0
M  V30 6328 H 605.911 -1.38197 4.76671 0
M  V30 6329 H 601.167 -0.811882 6.05986 0
M  V30 6330 H 605.341 -0.391059 6.95301 0
M  V30 6331 H 602.968 -0.100222 7.60134 0
M  V30 6332 N 604.543 -1.41418 -0.695603 0
M  V30 6333 C 605.506 -1.42988 -1.79129 0
M  V30 6334 C 606.506 -0.320514 -1.57573 0
M  V30 6335 O 607.696 -0.58039 -1.64247 0
M  V30 6336 C 604.828 -1.24122 -3.175 0
M  V30 6337 H 606.021 -2.40526 -1.7913 0
M  V30 6338 H 603.574 -1.2756 -0.903225 0
M  V30 6339 H 604.309 -0.274253 -3.23138 0
M  V30 6340 H 604.094 -2.045 -3.34547 0
M  V30 6341 H 605.584 -1.28056 -3.97481 0
M  V30 6342 N 606.021 0.929856 -1.27246 0
M  V30 6343 C 607.437 1.20542 -1.04603 0
M  V30 6344 C 607.637 2.00276 0.221754 0
M  V30 6345 O 606.693 2.34835 0.927833 0
M  V30 6346 C 608.006 1.95566 -2.28417 0
M  V30 6347 C 609.554 2.08513 -2.33433 0
M  V30 6348 C 610.029 2.86943 -3.5697 0
M  V30 6349 N 611.52 2.94512 -3.57515 0
M  V30 6350 C 612.255 3.55656 -4.49774 0
M  V30 6351 N 611.751 4.18209 -5.52334 0
M  V30 6352 N 613.544 3.53038 -4.37402 0
M  V30 6353 H 605.695 0.397113 -2.08655 0
M  V30 6354 H 607.958 0.238277 -0.917566 0
M  V30 6355 H 607.664 1.44395 -3.20691 0
M  V30 6356 H 607.538 2.9619 -2.33563 0
M  V30 6357 H 609.925 2.58872 -1.41666 0
M  V30 6358 H 610.006 1.07117 -2.32292 0
M  V30 6359 H 609.65 2.37268 -4.49072 0
M  V30 6360 H 609.58 3.8862 -3.55362 0
M  V30 6361 H 612.071 2.50053 -2.83341 0
M  V30 6362 H 612.384 4.62796 -6.18902 0
M  V30 6363 H 610.729 4.16761 -5.56179 0
M  V30 6364 H 613.92 3.0337 -3.56489 0
M  V30 6365 H 614.093 4.004 -5.09493 0
M  V30 6366 N 607.499 1.09233 1.13605 0
M  V30 6367 C 608.745 0.828385 1.8511 0
M  V30 6368 C 609.078 -0.64437 1.83198 0
M  V30 6369 O 608.353 -1.47428 1.26867 0
M  V30 6370 C 608.636 1.36167 3.33363 0
M  V30 6371 C 608.489 2.90038 3.438 0
M  V30 6372 C 609.808 0.993819 4.28732 0
M  V30 6373 H 606.927 0.30239 0.672108 0
M  V30 6374 H 609.569 1.35339 1.33355 0
M  V30 6375 H 607.719 0.9151 3.77569 0
M  V30 6376 H 609.391 3.43128 3.08319 0
M  V30 6377 H 607.634 3.27271 2.84739 0
M  V30 6378 H 608.305 3.22428 4.48045 0
M  V30 6379 H 610.781 1.37893 3.92587 0
M  V30 6380 H 609.657 1.39403 5.30903 0
M  V30 6381 H 609.918 -0.0982206 4.41991 0
M  V30 6382 N 608.977 -1.30795 0.87923 0
M  V30 6383 C 610.223 -1.96653 0.495519 0
M  V30 6384 C 610.556 -1.69282 -0.951703 0
M  V30 6385 O 609.831 -0.994374 -1.6716 0
M  V30 6386 C 610.114 -3.51898 0.764174 0
M  V30 6387 C 609.967 -3.88808 2.2616 0
M  V30 6388 C 611.286 -4.39462 0.236825 0
M  V30 6389 H 608.405 -0.7143 0.181507 0
M  V30 6390 H 611.047 -1.54765 1.10217 0
M  V30 6391 H 609.197 -3.87709 0.247841 0
M  V30 6392 H 610.869 -3.63051 2.8459 0
M  V30 6393 H 609.112 -3.37082 2.73053 0
M  V30 6394 H 609.783 -4.97086 2.4002 0
M  V30 6395 H 612.259 -4.10528 0.678683 0
M  V30 6396 H 611.135 -5.47018 0.454176 0
M  V30 6397 H 611.396 -4.33621 -0.861683 0
M  V30 6398 N 610.455 -0.639598 -1.44038 0
M  V30 6399 C 611.385 0.0469443 -2.33453 0
M  V30 6400 C 612.366 0.82609 -1.48694 0
M  V30 6401 O 613.551 0.790285 -1.77393 0
M  V30 6402 C 610.681 1.02338 -3.3188 0
M  V30 6403 C 609.635 0.355284 -4.26523 0
M  V30 6404 C 608.961 1.44221 -5.14883 0
M  V30 6405 C 610.261 -0.743798 -5.16977 0
M  V30 6406 H 611.955 -0.699735 -2.91108 0
M  V30 6407 H 609.501 -0.337946 -1.39978 0
M  V30 6408 H 611.454 1.51247 -3.93322 0
M  V30 6409 H 610.178 1.80105 -2.72451 0
M  V30 6410 H 608.837 -0.113239 -3.66425 0
M  V30 6411 H 608.485 2.21097 -4.51802 0
M  V30 6412 H 608.185 1.00052 -5.79019 0
M  V30 6413 H 609.709 1.93295 -5.79197 0
M  V30 6414 H 611.123 -0.337444 -5.72306 0
M  V30 6415 H 609.52 -1.10914 -5.89761 0
M  V30 6416 H 610.59 -1.60745 -4.57481 0
M  V30 6417 N 611.933 1.52934 -0.380664 0
M  V30 6418 C 613.161 2.05886 0.204599 0
M  V30 6419 C 613.576 1.25305 1.41223 0
M  V30 6420 O 612.933 0.297504 1.80059 0
M  V30 6421 C 612.984 3.56764 0.583249 0
M  V30 6422 O 612.705 4.34292 -0.576398 0
M  V30 6423 C 614.206 4.2603 1.2253 0
M  V30 6424 H 611.426 0.670193 0.0328991 0
M  V30 6425 H 613.97 1.97148 -0.543397 0
M  V30 6426 H 612.125 3.65603 1.28115 0
M  V30 6427 H 612.539 5.23819 -0.267119 0
M  V30 6428 H 614.013 5.32868 1.44068 0
M  V30 6429 H 614.49 3.80698 2.19011 0
M  V30 6430 H 615.096 4.21485 0.568407 0
M  V30 6431 N 613.412 0.11024 1.57214 0
M  V30 6432 C 614.828 -0.24638 1.57687 0
M  V30 6433 C 615.028 -1.67344 1.12241 0
M  V30 6434 O 614.084 -2.39298 0.805783 0
M  V30 6435 C 615.397 -0.0210288 3.00693 0
M  V30 6436 C 616.945 -0.0876077 3.12877 0
M  V30 6437 C 617.42 0.10994 4.57868 0
M  V30 6438 N 618.911 0.0556135 4.63167 0
M  V30 6439 C 619.646 0.183495 5.73106 0
M  V30 6440 N 619.142 0.367058 6.91827 0
M  V30 6441 N 620.935 0.123689 5.61964 0
M  V30 6442 H 613.086 1.04246 1.85058 0
M  V30 6443 H 615.349 0.40979 0.854854 0
M  V30 6444 H 615.055 0.965203 3.38196 0
M  V30 6445 H 614.929 -0.756748 3.69531 0
M  V30 6446 H 617.316 -1.06436 2.75237 0
M  V30 6447 H 617.397 0.67985 2.466 0
M  V30 6448 H 617.041 1.08362 4.96206 0
M  V30 6449 H 616.971 -0.677397 5.22225 0
M  V30 6450 H 619.462 -0.0831062 3.77809 0
M  V30 6451 H 619.775 0.455739 7.71455 0
M  V30 6452 H 618.12 0.40292 6.93831 0
M  V30 6453 H 621.311 -0.0186928 4.68096 0
M  V30 6454 H 621.484 0.226797 6.47603 0
M  V30 6455 N 614.89 -1.56749 -0.16351 0
M  V30 6456 C 616.115 -1.86938 -0.898264 0
M  V30 6457 C 616.54 -0.697456 -1.74692 0
M  V30 6458 O 615.898 0.353327 -1.77824 0
M  V30 6459 C 615.946 -3.15599 -1.74441 0
M  V30 6460 O 615.05 -2.98371 -2.8469 0
M  V30 6461 H 614.391 -0.614659 -0.251178 0
M  V30 6462 H 616.921 -2.03979 -0.159298 0
M  V30 6463 H 616.931 -3.47202 -2.14277 0
M  V30 6464 H 615.606 -4.00505 -1.1211 0
M  V30 6465 H 614.183 -2.7814 -2.4838 0
M  V30 6466 N 616.368 0.432326 -1.51554 0
M  V30 6467 C 617.617 1.17831 -1.63703 0
M  V30 6468 C 617.93 1.92229 -0.36156 0
M  V30 6469 O 619.136 2.69069 -0.362495 0
M  V30 6470 C 617.592 2.14318 -2.89129 0
M  V30 6471 C 617.2 1.45544 -4.23699 0
M  V30 6472 C 618.944 2.89319 -3.10636 0
M  V30 6473 C 616.851 2.40545 -5.4027 0
M  V30 6474 H 615.781 0.443533 -0.60975 0
M  V30 6475 H 618.432 0.444878 -1.78026 0
M  V30 6476 H 616.814 2.91117 -2.68452 0
M  V30 6477 H 617.988 0.742693 -4.54775 0
M  V30 6478 H 616.303 0.826772 -4.0811 0
M  V30 6479 H 618.9 3.60495 -3.94902 0
M  V30 6480 H 619.243 3.50951 -2.23918 0
M  V30 6481 H 619.776 2.19625 -3.31677 0
M  V30 6482 H 616.515 1.83594 -6.29264 0
M  V30 6483 H 616.035 3.09859 -5.13563 0
M  V30 6484 H 617.714 3.01569 -5.72421 0
M  V30 6485 N 617.846 1.41785 0.688094 0
M  V30 6486 C 618.809 1.43936 1.78368 0
M  V30 6487 C 619.809 0.328866 1.57401 0
M  V30 6488 O 620.999 0.589093 1.63937 0
M  V30 6489 C 618.131 1.25804 3.16838 0
M  V30 6490 H 619.324 2.41472 1.77852 0
M  V30 6491 H 616.877 1.28037 0.896448 0
M  V30 6492 H 617.612 0.291386 3.22988 0
M  V30 6493 H 617.397 2.06272 3.33458 0
M  V30 6494 H 618.887 1.30162 3.96797 0
M  V30 6495 N 619.324 -0.923095 1.27737 0
M  V30 6496 C 620.573 -1.66581 1.13727 0
M  V30 6497 C 620.886 -1.9304 -0.315433 0
M  V30 6498 O 622.092 -2.65309 -0.57651 0
M  V30 6499 C 620.548 -3.00047 1.98745 0
M  V30 6500 C 620.156 -2.8127 3.48699 0
M  V30 6501 C 621.9 -3.77887 1.93395 0
M  V30 6502 C 619.807 -4.1032 4.25901 0
M  V30 6503 H 618.737 -0.624834 0.422017 0
M  V30 6504 H 621.388 -1.02514 1.52194 0
M  V30 6505 H 619.77 -3.65197 1.53125 0
M  V30 6506 H 620.944 -2.24859 4.02213 0
M  V30 6507 H 619.259 -2.16854 3.55476 0
M  V30 6508 H 621.856 -4.73526 2.48348 0
M  V30 6509 H 622.199 -4.06264 0.908605 0
M  V30 6510 H 622.732 -3.19541 2.36935 0
M  V30 6511 H 619.471 -3.8712 5.28978 0
M  V30 6512 H 618.991 -4.66377 3.77163 0
M  V30 6513 H 620.67 -4.78648 4.35321 0
M  V30 6514 N 620.802 -1.09834 -1.13024 0
M  V30 6515 C 622.051 -0.831806 -1.83749 0
M  V30 6516 C 622.364 0.644763 -1.84668 0
M  V30 6517 O 623.57 1.02697 -2.51327 0
M  V30 6518 C 622.026 -1.43817 -3.29916 0
M  V30 6519 C 621.634 -2.94759 -3.37374 0
M  V30 6520 C 623.378 -1.25077 -4.05655 0
M  V30 6521 C 621.285 -3.48461 -4.77838 0
M  V30 6522 H 620.215 -0.30751 -0.688443 0
M  V30 6523 H 622.866 -1.32156 -1.27307 0
M  V30 6524 H 621.248 -0.876106 -3.86187 0
M  V30 6525 H 622.422 -3.57228 -2.91076 0
M  V30 6526 H 620.737 -3.12581 -2.75103 0
M  V30 6527 H 623.334 -1.62649 -5.09362 0
M  V30 6528 H 623.677 -0.191782 -4.15858 0
M  V30 6529 H 624.21 -1.78057 -3.55725 0
M  V30 6530 H 620.949 -4.53998 -4.72828 0
M  V30 6531 H 620.469 -2.90757 -5.24615 0
M  V30 6532 H 622.148 -3.45914 -5.46766 0
M  V30 6533 N 622.28 1.30327 -0.886154 0
M  V30 6534 C 623.691 1.78243 -0.555554 0
M  V30 6535 C 624.042 1.72849 0.928314 0
M  V30 6536 O 623.167 1.30607 1.72542 0
M  V30 6537 C 623.762 3.23654 -1.00168 0
M  V30 6538 C 622.321 3.69401 -0.722471 0
M  V30 6539 C 621.468 2.50753 -1.18399 0
M  V30 6540 H 624.419 1.1718 -1.07026 0
M  V30 6541 H 624.44 3.79056 -0.331152 0
M  V30 6542 H 623.952 3.27548 -2.08169 0
M  V30 6543 H 622.053 3.70995 0.345496 0
M  V30 6544 H 622.166 4.60818 -1.31085 0
M  V30 6545 H 620.53 2.47452 -0.603303 0
M  V30 6546 H 621.313 2.57383 -2.27176 0
M  V30 6547 N 623.758 0.647228 1.43697 0
M  V30 6548 C 624.986 0.16575 2.06235 0
M  V30 6549 C 625.401 -1.1662 1.48476 0
M  V30 6550 O 624.758 -1.7187 0.613762 0
M  V30 6551 C 624.809 0.0621651 3.61447 0
M  V30 6552 O 624.53 1.34146 4.17057 0
M  V30 6553 C 626.031 -0.446102 4.4105 0
M  V30 6554 H 623.251 0.0871158 0.665321 0
M  V30 6555 H 625.795 0.886183 1.84301 0
M  V30 6556 H 623.95 -0.608794 3.82587 0
M  V30 6557 H 624.364 1.19675 5.10664 0
M  V30 6558 H 625.838 -0.46755 5.50016 0
M  V30 6559 H 626.315 -1.47627 4.13646 0
M  V30 6560 H 626.921 0.192159 4.24866 0
M  V30 6561 N 625.236 -1.5273 0.388769 0
M  V30 6562 C 626.166 -2.29353 -0.438111 0
M  V30 6563 C 627.147 -1.32719 -1.06394 0
M  V30 6564 O 628.332 -1.61612 -1.07681 0
M  V30 6565 C 625.462 -3.09995 -1.56589 0
M  V30 6566 C 624.416 -4.14509 -1.06613 0
M  V30 6567 C 623.742 -4.83372 -2.28594 0
M  V30 6568 C 625.042 -5.22127 -0.134459 0
M  V30 6569 H 626.736 -2.98723 0.201206 0
M  V30 6570 H 624.282 -1.43665 0.0982089 0
M  V30 6571 H 626.235 -3.62357 -2.15118 0
M  V30 6572 H 624.959 -2.38357 -2.23279 0
M  V30 6573 H 623.618 -3.63128 -0.503383 0
M  V30 6574 H 623.266 -4.08283 -2.93792 0
M  V30 6575 H 622.966 -5.54012 -1.95817 0
M  V30 6576 H 624.49 -5.38538 -2.87766 0
M  V30 6577 H 625.904 -5.69851 -0.627914 0
M  V30 6578 H 624.301 -6.00011 0.103534 0
M  V30 6579 H 625.371 -4.77971 0.816798 0
M  V30 6580 N 626.714 -0.118576 -1.57153 0
M  V30 6581 C 627.644 0.828436 -2.1831 0
M  V30 6582 C 628.625 1.27758 -1.12303 0
M  V30 6583 O 629.81 1.34026 -1.40537 0
M  V30 6584 C 626.94 2.07876 -2.78217 0
M  V30 6585 C 625.894 1.76742 -3.89803 0
M  V30 6586 C 625.22 3.08801 -4.36516 0
M  V30 6587 C 626.52 1.03606 -5.11921 0
M  V30 6588 H 628.214 0.318824 -2.97698 0
M  V30 6589 H 625.76 0.151911 -1.43196 0
M  V30 6590 H 627.713 2.74584 -3.19659 0
M  V30 6591 H 626.437 2.61161 -1.96118 0
M  V30 6592 H 625.096 1.12424 -3.48936 0
M  V30 6593 H 624.744 3.6002 -3.51276 0
M  V30 6594 H 624.444 2.88743 -5.11763 0
M  V30 6595 H 625.968 3.76627 -4.80608 0
M  V30 6596 H 627.382 1.60467 -5.50385 0
M  V30 6597 H 625.779 0.936454 -5.92748 0
M  V30 6598 H 626.849 0.0227421 -4.84895 0
M  V30 6599 N 628.193 1.56834 0.155195 0
M  V30 6600 C 629.439 1.83169 0.870467 0
M  V30 6601 C 629.772 0.698929 1.81187 0
M  V30 6602 O 629.047 -0.298035 1.92203 0
M  V30 6603 C 629.33 3.19965 1.65211 0
M  V30 6604 C 629.183 4.43792 0.732744 0
M  V30 6605 C 630.502 3.53885 2.61636 0
M  V30 6606 H 627.621 0.666288 0.315006 0
M  V30 6607 H 630.263 1.89513 0.135988 0
M  V30 6608 H 628.413 3.14687 2.27825 0
M  V30 6609 H 630.085 4.61148 0.118236 0
M  V30 6610 H 628.328 4.3378 0.0417906 0
M  V30 6611 H 628.999 5.36095 1.31552 0
M  V30 6612 H 631.475 3.5972 2.09143 0
M  V30 6613 H 630.351 4.50648 3.13381 0
M  V30 6614 H 630.612 2.79418 3.42605 0
M  V30 6615 N 629.671 -0.424282 1.51781 0
M  V30 6616 C 630.634 -1.49848 1.73431 0
M  V30 6617 C 631.634 -1.49016 0.604225 0
M  V30 6618 O 632.824 -1.50808 0.871935 0
M  V30 6619 C 629.956 -2.89332 1.80277 0
M  V30 6620 H 631.149 -1.3195 2.69312 0
M  V30 6621 H 628.702 -0.653809 1.41968 0
M  V30 6622 H 629.437 -3.12618 0.862568 0
M  V30 6623 H 629.222 -2.9134 2.62419 0
M  V30 6624 H 630.712 -3.67233 1.98821 0
M  V30 6625 N 631.149 -1.42148 -0.680565 0
M  V30 6626 C 632.395 -1.42521 -1.44277 0
M  V30 6627 C 632.728 -0.0393718 -1.9416 0
M  V30 6628 O 632.003 0.935425 -1.70529 0
M  V30 6629 C 632.286 -2.44475 -2.64394 0
M  V30 6630 C 632.139 -3.92226 -2.20179 0
M  V30 6631 C 633.458 -2.43491 -3.66606 0
M  V30 6632 H 630.577 -0.518985 -0.523282 0
M  V30 6633 H 633.219 -1.73524 -0.773914 0
M  V30 6634 H 631.369 -2.18168 -3.21458 0
M  V30 6635 H 633.041 -4.29493 -1.68327 0
M  V30 6636 H 631.284 -4.0637 -1.5181 0
M  V30 6637 H 631.955 -4.59133 -3.06433 0
M  V30 6638 H 634.431 -2.66872 -3.19247 0
M  V30 6639 H 633.307 -3.16816 -4.4824 0
M  V30 6640 H 633.568 -1.45881 -4.17338 0
M  V30 6641 N 632.627 0.916307 -1.28225 0
M  V30 6642 C 633.874 1.66518 -1.1523 0
M  V30 6643 C 634.202 1.92178 0.299632 0
M  V30 6644 O 633.457 1.51842 1.2346 0
M  V30 6645 C 633.756 3.03125 -1.8934 0
M  V30 6646 C 633.422 2.97135 -3.39148 0
M  V30 6647 C 632.084 2.95208 -3.80007 0
M  V30 6648 C 634.436 2.87574 -4.34685 0
M  V30 6649 C 631.764 2.81518 -5.14747 0
M  V30 6650 C 634.116 2.75424 -5.69495 0
M  V30 6651 C 632.78 2.71854 -6.09632 0
M  V30 6652 H 632.05 0.609334 -0.421655 0
M  V30 6653 H 634.697 1.06776 -1.58969 0
M  V30 6654 H 633.002 3.66639 -1.38143 0
M  V30 6655 H 634.699 3.59968 -1.76704 0
M  V30 6656 H 631.289 2.99428 -3.06661 0
M  V30 6657 H 635.473 2.88152 -4.04082 0
M  V30 6658 H 630.729 2.77148 -5.44976 0
M  V30 6659 H 634.903 2.66993 -6.43185 0
M  V30 6660 H 632.53 2.61003 -7.1399 0
M  V30 6661 N 634.105 1.10431 1.1244 0
M  V30 6662 C 635.037 0.710945 2.17895 0
M  V30 6663 C 636.05 -0.252315 1.60833 0
M  V30 6664 O 637.239 -0.03679 1.78462 0
M  V30 6665 C 634.339 0.0284262 3.38888 0
M  V30 6666 C 633.512 1.01585 4.2544 0
M  V30 6667 C 632.571 0.364826 5.24934 0
M  V30 6668 O 631.597 1.01561 5.60066 0
M  V30 6669 N 632.799 -0.87674 5.73841 0
M  V30 6670 H 635.564 1.61826 2.52255 0
M  V30 6671 H 633.125 0.993132 1.27861 0
M  V30 6672 H 635.117 -0.418568 4.0253 0
M  V30 6673 H 633.687 -0.781294 3.02679 0
M  V30 6674 H 632.907 1.64111 3.58415 0
M  V30 6675 H 634.195 1.68425 4.80115 0
M  V30 6676 H 633.593 -1.42483 5.47462 0
M  V30 6677 H 632.15 -1.26688 6.39369 0
M  V30 6678 N 635.583 -1.29855 0.893053 0
M  V30 6679 C 636.86 -1.90694 0.435336 0
M  V30 6680 C 637.24 -1.8111 -1.08454 0
M  V30 6681 O 636.588 -1.23352 -1.92345 0
M  V30 6682 C 636.798 -3.36033 0.942472 0
M  V30 6683 C 638.146 -4.13083 0.982226 0
M  V30 6684 O 639.17 -3.4491 0.889686 0
M  V30 6685 O 638.029 -5.34896 1.12022 0
M  V30 6686 H 635.123 -0.815978 0.134567 0
M  V30 6687 H 637.669 -1.38367 0.982484 0
M  V30 6688 H 636.441 -3.37132 1.9864 0
M  V30 6689 H 636.064 -3.95828 0.374952 0
M  V30 6690 N 637.061 -0.65484 -1.43351 0
M  V30 6691 C 638.307 -0.169142 -2.02093 0
M  V30 6692 C 638.64 1.21431 -1.51553 0
M  V30 6693 O 637.915 1.81105 -0.709317 0
M  V30 6694 C 638.198 -0.181775 -3.59641 0
M  V30 6695 C 638.051 -1.59926 -4.20409 0
M  V30 6696 C 639.37 0.480945 -4.37464 0
M  V30 6697 H 636.489 -0.0629371 -0.734308 0
M  V30 6698 H 639.131 -0.835833 -1.70628 0
M  V30 6699 H 637.281 0.385918 -3.86578 0
M  V30 6700 H 638.953 -2.21766 -4.04497 0
M  V30 6701 H 637.196 -2.14605 -3.76998 0
M  V30 6702 H 637.867 -1.55994 -5.295 0
M  V30 6703 H 640.343 -0.00208273 -4.161 0
M  V30 6704 H 639.219 0.441384 -5.47122 0
M  V30 6705 H 639.48 1.55533 -4.13838 0
M  V30 6706 N 638.539 1.52521 -0.396863 0
M  V30 6707 C 639.449 2.30403 0.44178 0
M  V30 6708 C 640.465 1.37625 1.06468 0
M  V30 6709 O 641.641 1.70697 1.06886 0
M  V30 6710 C 638.706 3.1013 1.54986 0
M  V30 6711 C 637.767 4.18628 0.951279 0
M  V30 6712 C 637 4.94543 2.00655 0
M  V30 6713 O 637.223 4.70629 3.22281 0
M  V30 6714 O 636.157 5.797 1.61962 0
M  V30 6715 H 639.983 3.03087 -0.192892 0
M  V30 6716 H 637.568 1.48537 -0.16038 0
M  V30 6717 H 639.45 3.59816 2.19341 0
M  V30 6718 H 638.125 2.40251 2.16935 0
M  V30 6719 H 637.032 3.73119 0.270773 0
M  V30 6720 H 638.365 4.90763 0.375887 0
M  V30 6721 N 640.017 0.126909 1.57088 0
M  V30 6722 C 640.967 -0.831678 2.1229 0
M  V30 6723 C 641.951 -1.22292 1.04564 0
M  V30 6724 O 643.143 -1.19269 1.30782 0
M  V30 6725 C 640.272 -2.07866 2.73215 0
M  V30 6726 C 639.358 -1.71143 3.88035 0
M  V30 6727 N 639.749 -1.05136 4.94753 0
M  V30 6728 C 638.047 -2.00549 3.98367 0
M  V30 6729 C 638.748 -0.877257 5.75047 0
M  V30 6730 N 637.724 -1.40477 5.25135 0
M  V30 6731 H 641.526 -0.317926 2.92175 0
M  V30 6732 H 639.04 -0.0753052 1.62225 0
M  V30 6733 H 641.037 -2.77516 3.11111 0
M  V30 6734 H 639.697 -2.59778 1.94796 0
M  V30 6735 H 640.708 -0.71442 5.12949 0
M  V30 6736 H 637.385 -2.54452 3.30999 0
M  V30 6737 H 638.775 -0.358536 6.70943 0
M  V30 6738 N 641.495 -1.56914 -0.146875 0
M  V30 6739 C 642.425 -2.01308 -1.1831 0
M  V30 6740 C 643.406 -0.892664 -1.44795 0
M  V30 6741 O 644.591 -1.16048 -1.55713 0
M  V30 6742 C 641.721 -2.3938 -2.51624 0
M  V30 6743 C 640.675 -3.54608 -2.3966 0
M  V30 6744 C 640.001 -3.78493 -3.77686 0
M  V30 6745 C 641.301 -4.87269 -1.88058 0
M  V30 6746 H 642.995 -2.88123 -0.813964 0
M  V30 6747 H 640.541 -1.38615 -0.3901 0
M  V30 6748 H 642.494 -2.69037 -3.24341 0
M  V30 6749 H 641.218 -1.49502 -2.90373 0
M  V30 6750 H 639.877 -3.25116 -1.69396 0
M  V30 6751 H 639.525 -2.85866 -4.13871 0
M  V30 6752 H 639.225 -4.56039 -3.70543 0
M  V30 6753 H 640.749 -4.10576 -4.51951 0
M  V30 6754 H 642.163 -5.15644 -2.50568 0
M  V30 6755 H 640.56 -5.68622 -1.91805 0
M  V30 6756 H 641.63 -4.77634 -0.836277 0
M  V30 6757 N 642.974 0.416227 -1.52004 0
M  V30 6758 C 644.202 1.18573 -1.69553 0
M  V30 6759 C 644.617 1.84472 -0.401919 0
M  V30 6760 O 643.974 1.71593 0.621463 0
M  V30 6761 C 644.025 2.25413 -2.82615 0
M  V30 6762 O 643.746 1.62205 -4.06966 0
M  V30 6763 C 645.247 3.15297 -3.11613 0
M  V30 6764 H 642.467 0.356582 -0.56841 0
M  V30 6765 H 645.011 0.490618 -1.98528 0
M  V30 6766 H 643.166 2.90604 -2.56179 0
M  V30 6767 H 643.58 2.3298 -4.69916 0
M  V30 6768 H 645.054 3.86351 -3.94255 0
M  V30 6769 H 645.531 3.77264 -2.24874 0
M  V30 6770 H 646.137 2.55783 -3.39787 0
M  V30 6771 N 644.452 1.42507 0.673017 0
M  V30 6772 C 645.7 1.42789 1.43023 0
M  V30 6773 C 646.021 0.0459738 1.94946 0
M  V30 6774 O 645.291 -0.915765 1.73178 0
M  V30 6775 H 643.871 0.525657 0.530748 0
M  V30 6776 H 646.533 1.77944 0.795113 0
M  V30 6777 H 645.629 2.12872 2.28237 0
M  V30 6778 N 645.93 -0.909495 1.28709 0
M  V30 6779 C 646.863 -2.01388 1.07323 0
M  V30 6780 C 647.841 -1.62596 -0.0119757 0
M  V30 6781 O 649.025 -1.88003 0.136796 0
M  V30 6782 C 646.152 -3.32755 0.631797 0
M  V30 6783 C 645.198 -3.90532 1.71428 0
M  V30 6784 S 646.031 -4.20853 3.31124 0
M  V30 6785 C 647.187 -5.55276 2.88825 0
M  V30 6786 H 647.42 -2.19219 2.00824 0
M  V30 6787 H 644.953 -1.05489 1.12745 0
M  V30 6788 H 646.911 -4.08702 0.38381 0
M  V30 6789 H 645.572 -3.12818 -0.283451 0
M  V30 6790 H 644.765 -4.85385 1.35712 0
M  V30 6791 H 644.367 -3.21237 1.91528 0
M  V30 6792 H 646.659 -6.35341 2.3526 0
M  V30 6793 H 647.602 -5.95907 3.82492 0
M  V30 6794 H 648.01 -5.16666 2.27412 0
M  V30 6795 N 647.408 -1.11026 -1.11852 0
M  V30 6796 C 648.356 -0.759643 -2.19846 0
M  V30 6797 C 649.35 0.246964 -1.6759 0
M  V30 6798 O 650.556 0.106693 -1.79684 0
M  V30 6799 H 646.931 -0.22775 -0.716683 0
M  V30 6800 H 648.902 -1.6792 -2.46669 0
M  V30 6801 C 647.651 -0.214364 -3.47039 0
M  V30 6802 H 646.974 -0.980175 -3.87599 0
M  V30 6803 H 648.414 -0.00717047 -4.23999 0
M  V30 6804 C 646.873 1.05436 -3.19976 0
M  V30 6805 O 647.403 2.13483 -3.40276 0
M  V30 6806 N 645.609 0.975436 -2.7374 0
M  V30 6807 H 645.156 0.0960853 -2.57421 0
M  V30 6808 H 645.114 1.82501 -2.5601 0
M  V30 6809 N 648.886 1.2938 -0.899927 0
M  V30 6810 C 650.163 1.9046 -0.445443 0
M  V30 6811 C 650.543 1.81683 1.07492 0
M  V30 6812 O 649.891 1.24371 1.91688 0
M  V30 6813 C 650.101 3.35529 -0.960279 0
M  V30 6814 C 651.449 4.12556 -1.00412 0
M  V30 6815 O 652.473 3.44434 -0.907965 0
M  V30 6816 O 651.332 5.34294 -1.14857 0
M  V30 6817 H 648.426 0.815253 -0.138893 0
M  V30 6818 H 650.972 1.37844 -0.989808 0
M  V30 6819 H 649.744 3.36074 -2.00425 0
M  V30 6820 H 649.367 3.95624 -0.395939 0
M  V30 6821 N 650.364 0.662433 1.43002 0
M  V30 6822 C 651.611 0.179591 2.01702 0
M  V30 6823 C 651.939 -1.20964 1.52309 0
M  V30 6824 O 651.194 -1.82343 0.7106 0
M  V30 6825 C 651.493 0.149363 3.57088 0
M  V30 6826 C 651.159 1.48158 4.25864 0
M  V30 6827 C 649.821 1.84638 4.44367 0
M  V30 6828 C 652.173 2.35953 4.64732 0
M  V30 6829 C 649.501 3.08561 4.99006 0
M  V30 6830 C 651.853 3.59176 5.20745 0
M  V30 6831 C 650.517 3.95841 5.37463 0
M  V30 6832 H 649.787 0.0657172 0.73808 0
M  V30 6833 H 652.434 0.854968 1.71355 0
M  V30 6834 H 650.739 -0.609491 3.8703 0
M  V30 6835 H 652.436 -0.241241 4.00274 0
M  V30 6836 H 649.026 1.18777 4.11813 0
M  V30 6837 H 653.21 2.09058 4.50121 0
M  V30 6838 H 648.466 3.37005 5.10135 0
M  V30 6839 H 652.64 4.27417 5.49807 0
M  V30 6840 H 650.267 4.91942 5.79566 0
M  V30 6841 N 651.842 -1.52309 0.404946 0
M  V30 6842 C 652.772 -2.29805 -0.41376 0
M  V30 6843 C 653.753 -1.3384 -1.0498 0
M  V30 6844 O 654.938 -1.62745 -1.05961 0
M  V30 6845 C 652.068 -3.11639 -1.53292 0
M  V30 6846 C 651.022 -4.15616 -1.02211 0
M  V30 6847 C 650.348 -4.8577 -2.23455 0
M  V30 6848 C 651.648 -5.2224 -0.0790725 0
M  V30 6849 H 653.342 -2.98493 0.232878 0
M  V30 6850 H 650.888 -1.43552 0.113441 0
M  V30 6851 H 652.841 -3.64618 -2.11262 0
M  V30 6852 H 651.565 -2.40712 -2.20738 0
M  V30 6853 H 650.224 -3.63641 -0.46484 0
M  V30 6854 H 649.872 -4.11376 -2.89445 0
M  V30 6855 H 649.572 -5.56058 -1.89929 0
M  V30 6856 H 651.096 -5.4156 -2.82038 0
M  V30 6857 H 652.51 -5.70485 -0.567438 0
M  V30 6858 H 650.907 -5.99867 0.167167 0
M  V30 6859 H 651.977 -4.77078 0.867447 0
M  V30 6860 N 653.32 -0.135238 -1.57019 0
M  V30 6861 C 654.268 0.826099 -2.17436 0
M  V30 6862 C 655.262 1.26378 -1.12805 0
M  V30 6863 O 656.468 1.23363 -1.31079 0
M  V30 6864 H 652.843 0.284568 -0.696078 0
M  V30 6865 H 654.814 0.292212 -2.96966 0
M  V30 6866 C 653.563 2.05991 -2.80112 0
M  V30 6867 H 652.886 1.73209 -3.60331 0
M  V30 6868 H 654.326 2.71225 -3.25903 0
M  V30 6869 C 652.785 2.86027 -1.78017 0
M  V30 6870 O 653.315 3.81971 -1.24344 0
M  V30 6871 N 651.521 2.50332 -1.47588 0
M  V30 6872 H 651.068 1.72377 -1.91426 0
M  V30 6873 H 651.026 3.04177 -0.795228 0
M  V30 6874 N 654.798 1.5699 0.138552 0
M  V30 6875 C 656.044 1.84081 0.85099 0
M  V30 6876 C 656.377 0.718107 1.80435 0
M  V30 6877 O 655.652 -0.277633 1.92508 0
M  V30 6878 C 655.935 3.21699 1.61808 0
M  V30 6879 C 655.788 4.44544 0.685633 0
M  V30 6880 C 657.107 3.5664 2.57868 0
M  V30 6881 H 654.226 0.669592 0.307922 0
M  V30 6882 H 656.868 1.89646 0.11588 0
M  V30 6883 H 655.018 3.17086 2.24474 0
M  V30 6884 H 656.69 4.61248 0.0693179 0
M  V30 6885 H 654.933 4.338 -0.00421993 0
M  V30 6886 H 655.604 5.3746 1.25858 0
M  V30 6887 H 658.08 3.61918 2.05316 0
M  V30 6888 H 656.956 4.53946 3.08584 0
M  V30 6889 H 657.217 2.83036 3.39622 0
M  V30 6890 N 656.276 -0.40816 1.52223 0
M  V30 6891 C 657.206 -1.5042 1.78595 0
M  V30 6892 C 658.187 -1.57723 0.636974 0
M  V30 6893 O 659.372 -1.72982 0.882664 0
M  V30 6894 C 656.502 -2.88232 1.93751 0
M  V30 6895 C 655.456 -2.95779 3.09352 0
M  V30 6896 C 654.782 -4.35855 3.09732 0
M  V30 6897 C 656.082 -2.67175 4.48793 0
M  V30 6898 H 657.776 -1.28601 2.70374 0
M  V30 6899 H 655.322 -0.617221 1.30101 0
M  V30 6900 H 657.275 -3.64895 2.10783 0
M  V30 6901 H 655.999 -3.11347 0.986443 0
M  V30 6902 H 654.658 -2.21561 2.92072 0
M  V30 6903 H 654.306 -4.55981 2.12346 0
M  V30 6904 H 654.006 -4.41829 3.87377 0
M  V30 6905 H 655.53 -5.14451 3.28895 0
M  V30 6906 H 656.944 -3.3356 4.66273 0
M  V30 6907 H 655.341 -2.84523 5.28362 0
M  V30 6908 H 656.411 -1.62609 4.56822 0
M  V30 6909 N 657.755 -1.42862 -0.66545 0
M  V30 6910 C 658.687 -1.43026 -1.79098 0
M  V30 6911 C 659.7 -0.32803 -1.59461 0
M  V30 6912 O 660.889 -0.591709 -1.68407 0
M  V30 6913 C 657.989 -1.21566 -3.16346 0
M  V30 6914 C 657.162 -2.44399 -3.62751 0
M  V30 6915 C 656.221 -2.18344 -4.78761 0
M  V30 6916 O 655.247 -2.91611 -4.88827 0
M  V30 6917 N 656.449 -1.1924 -5.68122 0
M  V30 6918 H 659.214 -2.40045 -1.79439 0
M  V30 6919 H 656.775 -1.37861 -0.848872 0
M  V30 6920 H 658.767 -1.02037 -3.91625 0
M  V30 6921 H 657.337 -0.330368 -3.10849 0
M  V30 6922 H 656.557 -2.79433 -2.78048 0
M  V30 6923 H 657.845 -3.26173 -3.90498 0
M  V30 6924 H 657.243 -0.586603 -5.6265 0
M  V30 6925 H 655.8 -1.05698 -6.43173 0
M  V30 6926 N 659.233 0.902656 -1.29189 0
M  V30 6927 C 660.458 1.69167 -1.19989 0
M  V30 6928 C 660.883 1.86607 0.236495 0
M  V30 6929 O 660.241 1.38425 1.17082 0
M  V30 6930 C 660.289 3.05532 -1.91527 0
M  V30 6931 O 659.393 3.93621 -1.2303 0
M  V30 6932 H 658.734 0.517584 -0.415936 0
M  V30 6933 H 661.264 1.12785 -1.70706 0
M  V30 6934 H 661.274 3.55693 -1.99866 0
M  V30 6935 H 659.949 2.92156 -2.96003 0
M  V30 6936 H 658.526 3.52055 -1.22928 0
M  V30 6937 N 660.711 1.11618 1.11262 0
M  V30 6938 C 661.641 0.79846 2.19424 0
M  V30 6939 C 662.622 -0.234003 1.68483 0
M  V30 6940 O 663.807 -0.0970704 1.93957 0
M  V30 6941 C 660.937 0.242892 3.4645 0
M  V30 6942 C 659.891 1.20744 4.10615 0
M  V30 6943 C 659.217 0.512494 5.32238 0
M  V30 6944 C 660.517 2.55884 4.55325 0
M  V30 6945 H 662.211 1.70286 2.46258 0
M  V30 6946 H 659.757 0.820195 1.18359 0
M  V30 6947 H 661.71 0.00840447 4.21399 0
M  V30 6948 H 660.434 -0.696811 3.1908 0
M  V30 6949 H 659.093 1.42759 3.37662 0
M  V30 6950 H 658.741 -0.432075 5.01141 0
M  V30 6951 H 658.441 1.15583 5.7612 0
M  V30 6952 H 659.965 0.286842 6.09926 0
M  V30 6953 H 661.379 2.37946 5.21588 0
M  V30 6954 H 659.776 3.16216 5.10027 0
M  V30 6955 H 660.846 3.14968 3.68678 0
M  V30 6956 N 662.189 -1.289 0.906776 0
M  V30 6957 C 663.121 -2.26556 0.347159 0
M  V30 6958 C 664.134 -1.54589 -0.51049 0
M  V30 6959 O 665.323 -1.75489 -0.326501 0
M  V30 6960 C 662.423 -3.3484 -0.523024 0
M  V30 6961 C 661.596 -4.36296 0.310515 0
M  V30 6962 C 660.655 -5.23879 -0.493634 0
M  V30 6963 O 659.681 -5.69127 0.0913569 0
M  V30 6964 N 660.883 -5.51946 -1.7982 0
M  V30 6965 H 663.648 -2.75212 1.18652 0
M  V30 6966 H 661.209 -1.42309 0.771996 0
M  V30 6967 H 663.201 -3.90366 -1.06756 0
M  V30 6968 H 661.771 -2.85946 -1.26309 0
M  V30 6969 H 660.991 -3.80331 1.03644 0
M  V30 6970 H 662.279 -5.01113 0.881106 0
M  V30 6971 H 661.677 -5.17006 -2.2961 0
M  V30 6972 H 660.234 -6.10258 -2.28971 0
M  V30 6973 N 663.667 -0.670007 -1.42649 0
M  V30 6974 C 664.597 -0.00258501 -2.335 0
M  V30 6975 C 665.578 0.794364 -1.50412 0
M  V30 6976 O 666.763 0.75248 -1.79029 0
M  V30 6977 C 663.893 0.952748 -3.33976 0
M  V30 6978 C 662.847 0.264733 -4.2718 0
M  V30 6979 C 662.173 1.33267 -5.17826 0
M  V30 6980 C 663.473 -0.853289 -5.15283 0
M  V30 6981 H 665.167 -0.761326 -2.89559 0
M  V30 6982 H 662.713 -0.367561 -1.3923 0
M  V30 6983 H 664.666 1.4287 -3.96442 0
M  V30 6984 H 663.39 1.74285 -2.7621 0
M  V30 6985 H 662.049 -0.190938 -3.66102 0
M  V30 6986 H 661.697 2.11464 -4.5639 0
M  V30 6987 H 661.397 0.877476 -5.81011 0
M  V30 6988 H 662.921 1.80965 -5.83167 0
M  V30 6989 H 664.335 -0.458763 -5.71462 0
M  V30 6990 H 662.732 -1.23398 -5.87276 0
M  V30 6991 H 663.802 -1.70412 -4.53969 0
M  V30 6992 N 665.145 1.52092 -0.413018 0
M  V30 6993 C 666.556 1.86617 0.0556967 0
M  V30 6994 C 666.907 1.33156 1.44097 0
M  V30 6995 O 666.032 0.672417 2.05688 0
M  V30 6996 C 666.627 3.38628 0.107844 0
M  V30 6997 C 665.186 3.72778 0.520904 0
M  V30 6998 C 664.333 2.75649 -0.302109 0
M  V30 6999 H 667.284 1.45663 -0.629919 0
M  V30 7000 H 667.305 3.69152 0.922324 0
M  V30 7001 H 666.817 3.77508 -0.900506 0
M  V30 7002 H 664.918 3.39478 1.53575 0
M  V30 7003 H 665.031 4.7838 0.262591 0
M  V30 7004 H 663.395 2.53603 0.236115 0
M  V30 7005 H 664.178 3.17369 -1.30888 0
M  V30 7006 N 666.623 0.143563 1.56945 0
M  V30 7007 C 667.87 -0.508407 1.96014 0
M  V30 7008 C 668.198 -1.65099 1.02824 0
M  V30 7009 O 667.453 -1.95618 0.0567764 0
M  V30 7010 C 667.752 -1.05885 3.41355 0
M  V30 7011 C 667.418 -0.0350809 4.50886 0
M  V30 7012 C 666.08 0.246362 4.80569 0
M  V30 7013 C 668.432 0.661282 5.16988 0
M  V30 7014 C 665.76 1.23003 5.73661 0
M  V30 7015 C 668.112 1.63375 6.11139 0
M  V30 7016 C 666.776 1.92292 6.39203 0
M  V30 7017 H 666.046 -0.186039 0.717266 0
M  V30 7018 H 668.693 0.229667 1.90118 0
M  V30 7019 H 666.998 -1.87419 3.44066 0
M  V30 7020 H 668.695 -1.57183 3.6891 0
M  V30 7021 H 665.285 -0.264622 4.27782 0
M  V30 7022 H 669.469 0.457038 4.94191 0
M  V30 7023 H 664.725 1.46056 5.93698 0
M  V30 7024 H 668.899 2.17887 6.61436 0
M  V30 7025 H 666.526 2.68666 7.11142 0
M  V30 7026 N 668.101 -1.57061 -0.130224 0
M  V30 7027 C 669.064 -1.98593 -1.14426 0
M  V30 7028 C 670.064 -0.874584 -1.34936 0
M  V30 7029 O 671.254 -1.14086 -1.31643 0
M  V30 7030 C 668.386 -2.31639 -2.50112 0
M  V30 7031 H 669.579 -2.89374 -0.787561 0
M  V30 7032 H 667.132 -1.51756 -0.374146 0
M  V30 7033 H 667.867 -1.43703 -2.90723 0
M  V30 7034 H 667.652 -3.12684 -2.36583 0
M  V30 7035 H 669.142 -2.64551 -3.23114 0
M  V30 7036 N 669.579 0.400081 -1.52437 0
M  V30 7037 C 670.509 1.4947 -1.7939 0
M  V30 7038 C 671.49 1.57383 -0.645329 0
M  V30 7039 O 672.675 1.72511 -0.891826 0
M  V30 7040 C 669.805 2.87201 -1.95276 0
M  V30 7041 C 668.759 2.94134 -3.10917 0
M  V30 7042 C 668.085 4.34207 -3.1204 0
M  V30 7043 C 669.385 2.64791 -4.50203 0
M  V30 7044 H 671.079 1.27165 -2.71052 0
M  V30 7045 H 668.625 0.610312 -1.30427 0
M  V30 7046 H 670.578 3.63772 -2.12715 0
M  V30 7047 H 669.302 3.10819 -1.00294 0
M  V30 7048 H 667.961 2.20009 -2.93243 0
M  V30 7049 H 667.609 4.54848 -2.14761 0
M  V30 7050 H 667.309 4.39768 -3.89715 0
M  V30 7051 H 668.833 5.127 -3.31619 0
M  V30 7052 H 670.247 3.31083 -4.68035 0
M  V30 7053 H 668.644 2.81717 -5.29864 0
M  V30 7054 H 669.714 1.60184 -4.57678 0
M  V30 7055 N 671.057 1.43213 0.657864 0
M  V30 7056 C 672.306 1.43871 1.41365 0
M  V30 7057 C 672.619 0.064898 1.95492 0
M  V30 7058 O 673.825 -0.0510796 2.71452 0
M  V30 7059 C 672.281 2.53158 2.55811 0
M  V30 7060 C 671.889 3.96624 2.08311 0
M  V30 7061 C 673.633 2.63004 3.3321 0
M  V30 7062 C 671.54 4.97385 3.1994 0
M  V30 7063 H 670.47 0.535174 0.531136 0
M  V30 7064 H 673.121 1.69185 0.710543 0
M  V30 7065 H 671.503 2.21037 3.2857 0
M  V30 7066 H 672.677 4.38182 1.42593 0
M  V30 7067 H 670.992 3.90781 1.43804 0
M  V30 7068 H 673.589 3.3546 4.16378 0
M  V30 7069 H 673.932 1.67918 3.80932 0
M  V30 7070 H 674.465 2.94403 2.67529 0
M  V30 7071 H 671.204 5.94007 2.77192 0
M  V30 7072 H 670.724 4.60444 3.84385 0
M  V30 7073 H 672.403 5.19877 3.85145 0
M  V30 7074 N 672.536 -0.895792 1.29666 0
M  V30 7075 C 673.947 -1.46195 1.1612 0
M  V30 7076 C 674.298 -1.94699 -0.242195 0
M  V30 7077 O 673.423 -1.8406 -1.13802 0
M  V30 7078 C 674.018 -2.65718 2.10189 0
M  V30 7079 C 672.577 -3.18458 2.00653 0
M  V30 7080 C 671.724 -1.91149 2.00891 0
M  V30 7081 H 674.675 -0.706756 1.42094 0
M  V30 7082 H 674.696 -3.4158 1.6764 0
M  V30 7083 H 674.208 -2.30386 3.12321 0
M  V30 7084 H 672.309 -3.58474 1.01623 0
M  V30 7085 H 672.422 -3.82491 2.88509 0
M  V30 7086 H 670.786 -2.09021 1.45542 0
M  V30 7087 H 671.569 -1.58089 3.04734 0
M  V30 7088 N 674.014 -1.12206 -1.10668 0
M  V30 7089 C 675.263 -0.870595 -1.81944 0
M  V30 7090 C 675.576 0.605447 -1.85994 0
M  V30 7091 O 676.782 0.973433 -2.53449 0
M  V30 7092 C 675.238 -1.50783 -3.26791 0
M  V30 7093 C 674.846 -3.01849 -3.31046 0
M  V30 7094 C 676.59 -1.33653 -4.02911 0
M  V30 7095 C 674.497 -3.58518 -4.70339 0
M  V30 7096 H 673.427 -0.322043 -0.681765 0
M  V30 7097 H 676.078 -1.34827 -1.24475 0
M  V30 7098 H 674.46 -0.957825 -3.84242 0
M  V30 7099 H 675.634 -3.63321 -2.83433 0
M  V30 7100 H 673.949 -3.18346 -2.68411 0
M  V30 7101 H 676.546 -1.73416 -5.05797 0
M  V30 7102 H 676.889 -0.279949 -4.15358 0
M  V30 7103 H 677.422 -1.85562 -3.51868 0
M  V30 7104 H 674.161 -4.63925 -4.63091 0
M  V30 7105 H 673.681 -3.01819 -5.18329 0
M  V30 7106 H 675.36 -3.57434 -5.39305 0
M  V30 7107 N 675.492 1.28418 -0.913599 0
M  V30 7108 C 676.422 2.29713 -0.418847 0
M  V30 7109 C 677.403 1.62165 0.513469 0
M  V30 7110 O 678.588 1.89576 0.421235 0
M  V30 7111 C 675.718 3.45612 0.342042 0
M  V30 7112 C 674.672 4.25056 -0.501123 0
M  V30 7113 C 673.998 5.3329 0.388097 0
M  V30 7114 C 675.298 4.91814 -1.75831 0
M  V30 7115 H 676.992 2.71346 -1.26538 0
M  V30 7116 H 674.538 1.30446 -0.609903 0
M  V30 7117 H 676.491 4.15562 0.699 0
M  V30 7118 H 675.215 3.02858 1.22248 0
M  V30 7119 H 673.874 3.56833 -0.840598 0
M  V30 7120 H 673.522 4.8678 1.26707 0
M  V30 7121 H 673.222 5.87347 -0.172459 0
M  V30 7122 H 674.746 6.06088 0.74094 0
M  V30 7123 H 676.16 5.54126 -1.47026 0
M  V30 7124 H 674.557 5.55866 -2.26126 0
M  V30 7125 H 675.627 4.16313 -2.4862 0
M  V30 7126 N 676.97 0.677563 1.42291 0
M  V30 7127 C 678.198 0.209459 2.05837 0
M  V30 7128 C 678.613 -1.13444 1.50917 0
M  V30 7129 O 677.97 -1.70529 0.65008 0
M  V30 7130 C 678.021 0.138819 3.61233 0
M  V30 7131 O 677.742 1.42962 4.14118 0
M  V30 7132 C 679.243 -0.352449 4.41897 0
M  V30 7133 H 676.463 0.101209 0.663323 0
M  V30 7134 H 679.007 0.925077 1.8238 0
M  V30 7135 H 677.162 -0.527505 3.83792 0
M  V30 7136 H 677.576 1.3048 5.08011 0
M  V30 7137 H 679.05 -0.350778 5.50884 0
M  V30 7138 H 679.527 -1.3882 4.16684 0
M  V30 7139 H 680.133 0.282236 4.24362 0
M  V30 7140 N 678.448 -1.51871 0.421078 0
M  V30 7141 C 679.695 -2.01938 -0.15079 0
M  V30 7142 C 680.023 -1.30611 -1.44121 0
M  V30 7143 O 679.278 -0.404631 -1.91471 0
M  V30 7144 C 679.577 -3.54764 -0.433292 0
M  V30 7145 C 679.243 -4.44288 0.76936 0
M  V30 7146 C 677.905 -4.68477 1.09921 0
M  V30 7147 C 680.257 -4.96915 1.57242 0
M  V30 7148 C 677.585 -5.4254 2.2331 0
M  V30 7149 C 679.937 -5.7222 2.69716 0
M  V30 7150 C 678.601 -5.94678 3.03174 0
M  V30 7151 H 677.871 -0.738943 -0.0551781 0
M  V30 7152 H 680.518 -1.82977 0.564945 0
M  V30 7153 H 678.823 -3.71968 -1.23074 0
M  V30 7154 H 680.52 -3.91023 -0.888922 0
M  V30 7155 H 677.11 -4.25646 0.502305 0
M  V30 7156 H 681.294 -4.78125 1.3308 0
M  V30 7157 H 676.55 -5.58146 2.49565 0
M  V30 7158 H 680.724 -6.11992 3.32323 0
M  V30 7159 H 678.351 -6.51848 3.9115 0
M  V30 7160 N 679.926 -0.151884 -1.56866 0
M  V30 7161 C 681.154 0.504813 -2.00647 0
M  V30 7162 C 681.569 1.58098 -1.03201 0
M  V30 7163 O 680.926 1.82476 -0.0297814 0
M  V30 7164 C 680.977 1.10099 -3.44326 0
M  V30 7165 O 680.698 0.0678021 -4.38048 0
M  V30 7166 C 682.199 1.83782 -4.03409 0
M  V30 7167 H 679.419 0.130989 -0.65809 0
M  V30 7168 H 681.963 -0.247903 -2.02992 0
M  V30 7169 H 680.118 1.8043 -3.42817 0
M  V30 7170 H 680.532 0.505237 -5.22061 0
M  V30 7171 H 682.006 2.2078 -5.05925 0
M  V30 7172 H 682.483 2.72557 -3.44397 0
M  V30 7173 H 683.089 1.18138 -4.08563 0
M  V30 7174 N 681.404 1.57128 0.121893 0
M  V30 7175 C 682.629 1.89254 0.848385 0
M  V30 7176 C 683.054 0.743527 1.72781 0
M  V30 7177 O 682.412 -0.306056 1.78698 0
M  V30 7178 C 682.46 3.20113 1.66012 0
M  V30 7179 O 681.564 3.05815 2.76679 0
M  V30 7180 H 680.905 0.621103 0.234793 0
M  V30 7181 H 683.435 2.0433 0.10516 0
M  V30 7182 H 683.445 3.52761 2.04996 0
M  V30 7183 H 682.12 4.03336 1.01452 0
M  V30 7184 H 680.697 2.84627 2.40918 0
M  V30 7185 N 682.882 -0.391992 1.52647 0
M  V30 7186 C 683.812 -1.48517 1.8018 0
M  V30 7187 C 684.793 -1.57039 0.653667 0
M  V30 7188 O 685.978 -1.72036 0.900962 0
M  V30 7189 C 683.108 -2.86161 1.96797 0
M  V30 7190 C 682.062 -2.92481 3.12472 0
M  V30 7191 C 681.388 -4.32546 3.14338 0
M  V30 7192 C 682.688 -2.624 4.51601 0
M  V30 7193 H 684.382 -1.25726 2.71723 0
M  V30 7194 H 681.928 -0.603387 1.30749 0
M  V30 7195 H 683.881 -3.62639 2.14641 0
M  V30 7196 H 682.605 -3.10283 1.01941 0
M  V30 7197 H 681.264 -2.18451 2.94406 0
M  V30 7198 H 680.912 -4.53703 2.1717 0
M  V30 7199 H 680.612 -4.37695 3.92042 0
M  V30 7200 H 682.136 -5.10934 3.34333 0
M  V30 7201 H 683.55 -3.28596 4.69785 0
M  V30 7202 H 681.947 -2.78903 5.3135 0
M  V30 7203 H 683.017 -1.57754 4.58521 0
M  V30 7204 N 684.36 -1.4356 -0.65026 0
M  V30 7205 C 685.776 -1.27025 -0.966269 0
M  V30 7206 C 685.976 -0.192117 -2.00582 0
M  V30 7207 O 685.032 0.428459 -2.48838 0
M  V30 7208 C 686.345 -2.63556 -1.44772 0
M  V30 7209 C 687.893 -2.71111 -1.56421 0
M  V30 7210 C 688.368 -4.08067 -2.07956 0
M  V30 7211 N 689.859 -4.10146 -2.15254 0
M  V30 7212 C 690.594 -5.12952 -2.56258 0
M  V30 7213 N 690.09 -6.26129 -2.96537 0
M  V30 7214 N 691.883 -5.00306 -2.56224 0
M  V30 7215 H 684.034 -2.12367 0.0375758 0
M  V30 7216 H 686.297 -0.946894 -0.0457782 0
M  V30 7217 H 686.003 -3.43429 -0.758271 0
M  V30 7218 H 685.877 -2.89152 -2.42221 0
M  V30 7219 H 688.264 -1.91569 -2.24467 0
M  V30 7220 H 688.345 -2.49277 -0.573967 0
M  V30 7221 H 687.989 -4.88077 -1.40511 0
M  V30 7222 H 687.919 -4.27266 -3.07817 0
M  V30 7223 H 690.41 -3.28453 -1.86887 0
M  V30 7224 H 690.723 -7.00403 -3.26582 0
M  V30 7225 H 689.068 -6.29597 -2.94334 0
M  V30 7226 H 692.259 -4.10952 -2.24135 0
M  V30 7227 H 692.432 -5.80553 -2.87857 0
M  V30 7228 N 685.838 0.888903 -1.30139 0
M  V30 7229 C 687.249 1.45578 -1.16893 0
M  V30 7230 C 687.6 1.94825 0.231866 0
M  V30 7231 O 686.725 1.84661 1.12824 0
M  V30 7232 C 687.32 2.646 -2.11595 0
M  V30 7233 C 685.879 3.17389 -2.02339 0
M  V30 7234 C 685.026 1.90081 -2.01902 0
M  V30 7235 H 687.977 0.69921 -1.42467 0
M  V30 7236 H 687.998 3.40687 -1.69449 0
M  V30 7237 H 687.51 2.28726 -3.13538 0
M  V30 7238 H 685.611 3.5793 -1.03523 0
M  V30 7239 H 685.724 3.80955 -2.90534 0
M  V30 7240 H 684.088 2.08246 -1.46648 0
M  V30 7241 H 684.871 1.5647 -3.05568 0
M  V30 7242 N 687.317 1.12792 1.10072 0
M  V30 7243 C 688.563 0.886857 1.82381 0
M  V30 7244 C 688.896 -0.58576 1.85155 0
M  V30 7245 O 688.171 -1.43317 1.31493 0
M  V30 7246 C 688.454 1.46703 3.28862 0
M  V30 7247 C 688.307 3.00829 3.34398 0
M  V30 7248 C 689.626 1.12971 4.25353 0
M  V30 7249 H 686.745 0.32362 0.662148 0
M  V30 7250 H 689.387 1.39513 1.28982 0
M  V30 7251 H 687.537 1.03476 3.74466 0
M  V30 7252 H 689.209 3.52764 2.97247 0
M  V30 7253 H 687.452 3.36164 2.74183 0
M  V30 7254 H 688.123 3.36519 4.3756 0
M  V30 7255 H 690.599 1.50313 3.88001 0
M  V30 7256 H 689.475 1.56223 5.26199 0
M  V30 7257 H 689.736 0.0424452 4.4208 0
M  V30 7258 N 688.795 -1.27931 0.920396 0
M  V30 7259 C 689.728 -2.2537 0.358285 0
M  V30 7260 C 690.706 -1.53328 -0.541242 0
M  V30 7261 O 691.89 -1.82196 -0.483399 0
M  V30 7262 C 689.017 -3.35178 -0.487193 0
M  V30 7263 C 688.063 -4.25079 0.347881 0
M  V30 7264 S 688.896 -5.05792 1.75883 0
M  V30 7265 C 690.052 -6.19089 0.920832 0
M  V30 7266 H 690.285 -2.72701 1.18413 0
M  V30 7267 H 687.818 -1.36474 0.722088 0
M  V30 7268 H 689.776 -3.98895 -0.96916 0
M  V30 7269 H 688.437 -2.865 -1.28749 0
M  V30 7270 H 687.63 -5.03113 -0.298912 0
M  V30 7271 H 687.232 -3.66119 0.763748 0
M  V30 7272 H 689.524 -6.77326 0.15349 0
M  V30 7273 H 690.467 -6.8803 1.67394 0
M  V30 7274 H 690.875 -5.62573 0.466069 0
M  V30 7275 N 690.273 -0.685099 -1.4193 0
M  V30 7276 C 691.498 -0.218842 -2.06242 0
M  V30 7277 C 691.923 1.11923 -1.51178 0
M  V30 7278 O 691.281 1.69837 -0.634446 0
M  V30 7279 C 691.329 -0.175592 -3.60172 0
M  V30 7280 O 690.433 0.852776 -4.03487 0
M  V30 7281 H 689.774 -0.109531 -0.654904 0
M  V30 7282 H 692.304 -0.937013 -1.81882 0
M  V30 7283 H 692.314 -0.00291151 -4.08 0
M  V30 7284 H 690.989 -1.15222 -3.99621 0
M  V30 7285 H 689.566 0.650301 -3.67186 0
M  V30 7286 N 691.751 1.51645 -0.429126 0
M  V30 7287 C 693.028 1.94579 0.199614 0
M  V30 7288 C 693.408 1.3673 1.60836 0
M  V30 7289 O 692.756 0.551062 2.21756 0
M  V30 7290 C 692.966 3.48506 0.185685 0
M  V30 7291 C 694.314 4.22756 0.395282 0
M  V30 7292 O 695.338 3.55219 0.264165 0
M  V30 7293 O 694.197 5.42555 0.655475 0
M  V30 7294 H 691.291 0.816007 0.134393 0
M  V30 7295 H 693.837 1.62577 -0.486513 0
M  V30 7296 H 692.609 3.83045 -0.799508 0
M  V30 7297 H 692.232 3.86927 0.91507 0
M  V30 7298 N 693.229 0.160201 1.56784 0
M  V30 7299 C 694.476 -0.487588 1.96542 0
M  V30 7300 C 694.804 -1.63999 1.04569 0
M  V30 7301 O 694.059 -1.95546 0.0775211 0
M  V30 7302 C 694.358 -1.02259 3.42459 0
M  V30 7303 C 694.024 0.0127436 4.50898 0
M  V30 7304 C 692.686 0.297318 4.80281 0
M  V30 7305 C 695.038 0.716078 5.16257 0
M  V30 7306 C 692.366 1.29081 5.72324 0
M  V30 7307 C 694.718 1.69847 6.09372 0
M  V30 7308 C 693.382 1.99061 6.37127 0
M  V30 7309 H 692.652 -0.178421 0.719199 0
M  V30 7310 H 695.299 0.249818 1.89864 0
M  V30 7311 H 693.604 -1.8376 3.46034 0
M  V30 7312 H 695.301 -1.53261 3.70556 0
M  V30 7313 H 691.891 -0.219235 4.28039 0
M  V30 7314 H 696.075 0.509428 4.93679 0
M  V30 7315 H 691.331 1.52344 5.92116 0
M  V30 7316 H 695.505 2.2489 6.59088 0
M  V30 7317 H 693.132 2.76194 7.08252 0
M  V30 7318 N 694.707 -1.5719 -0.113559 0
M  V30 7319 C 695.67 -1.99796 -1.12314 0
M  V30 7320 C 696.67 -0.888847 -1.34001 0
M  V30 7321 O 697.86 -1.15476 -1.30426 0
M  V30 7322 C 694.992 -2.34279 -2.47641 0
M  V30 7323 H 696.185 -2.90193 -0.756825 0
M  V30 7324 H 693.738 -1.52144 -0.358029 0
M  V30 7325 H 694.473 -1.46778 -2.89183 0
M  V30 7326 H 694.258 -3.15175 -2.33253 0
M  V30 7327 H 695.748 -2.67963 -3.2029 0
M  V30 7328 N 696.185 0.383891 -1.52853 0
M  V30 7329 C 697.133 1.48965 -1.7864 0
M  V30 7330 C 698.127 1.56242 -0.654577 0
M  V30 7331 O 699.333 1.59347 -0.83716 0
M  V30 7332 H 695.708 0.495892 -0.565328 0
M  V30 7333 H 697.679 1.24411 -2.71228 0
M  V30 7334 C 696.428 2.86036 -1.97683 0
M  V30 7335 H 695.751 2.81188 -2.84206 0
M  V30 7336 H 697.191 3.62632 -2.19713 0
M  V30 7337 C 695.65 3.28428 -0.750776 0
M  V30 7338 O 696.18 4.0164 0.0693491 0
M  V30 7339 N 694.386 2.84765 -0.579427 0
M  V30 7340 H 693.933 2.25353 -1.24795 0
M  V30 7341 H 693.891 3.13486 0.239544 0
M  V30 7342 N 697.663 1.43903 0.642637 0
M  V30 7343 C 698.911 1.45791 1.39962 0
M  V30 7344 C 699.232 0.0873144 1.94804 0
M  V30 7345 O 698.502 -0.878825 1.75081 0
M  V30 7346 H 697.082 0.536797 0.519479 0
M  V30 7347 H 699.744 1.7959 0.757189 0
M  V30 7348 H 698.84 2.17665 2.2367 0
M  V30 7349 N 699.141 -0.881989 1.30609 0
M  V30 7350 C 700.071 -2.00413 1.1982 0
M  V30 7351 C 701.052 -1.69871 0.0881538 0
M  V30 7352 O 702.237 -1.92304 0.2707 0
M  V30 7353 C 699.367 -3.35641 0.89233 0
M  V30 7354 C 698.321 -3.80451 1.96064 0
M  V30 7355 C 697.647 -5.13003 1.5077 0
M  V30 7356 C 698.947 -3.98855 3.37213 0
M  V30 7357 H 700.641 -2.09698 2.13699 0
M  V30 7358 H 698.187 -1.00754 1.02882 0
M  V30 7359 H 700.14 -4.13669 0.803497 0
M  V30 7360 H 698.864 -3.26497 -0.0821381 0
M  V30 7361 H 697.523 -3.04654 2.03916 0
M  V30 7362 H 697.171 -5.0029 0.521417 0
M  V30 7363 H 696.871 -5.43956 2.22229 0
M  V30 7364 H 698.395 -5.93554 1.43271 0
M  V30 7365 H 699.809 -4.67312 3.32103 0
M  V30 7366 H 698.206 -4.41188 4.06784 0
M  V30 7367 H 699.276 -3.02614 3.78883 0
M  V30 7368 N 700.619 -1.13374 -1.09472 0
M  V30 7369 C 701.867 -0.893422 -1.8128 0
M  V30 7370 C 702.188 0.582029 -1.86111 0
M  V30 7371 O 701.458 1.42305 -1.34633 0
M  V30 7372 H 700.038 -0.327543 -0.67136 0
M  V30 7373 H 702.7 -1.43018 -1.32408 0
M  V30 7374 H 701.796 -1.28374 -2.84476 0
M  V30 7375 N 702.098 1.27442 -0.927168 0
M  V30 7376 C 703.344 1.95025 -0.577651 0
M  V30 7377 C 703.699 1.71534 0.871421 0
M  V30 7378 O 702.992 1.03354 1.61333 0
M  V30 7379 C 703.186 3.47413 -0.838994 0
M  V30 7380 C 703.015 3.85721 -2.31192 0
M  V30 7381 C 701.785 4.09199 -2.96452 0
M  V30 7382 C 703.983 3.95352 -3.28939 0
M  V30 7383 N 701.965 4.34283 -4.33903 0
M  V30 7384 C 703.336 4.24805 -4.51598 0
M  V30 7385 C 705.391 3.77926 -3.24155 0
M  V30 7386 C 704.094 4.38645 -5.70073 0
M  V30 7387 C 706.12 3.9299 -4.41942 0
M  V30 7388 C 705.482 4.22829 -5.63379 0
M  V30 7389 H 701.581 0.736983 -0.261495 0
M  V30 7390 H 704.165 1.53816 -1.19368 0
M  V30 7391 H 702.336 3.87581 -0.252129 0
M  V30 7392 H 704.068 4.02166 -0.452158 0
M  V30 7393 H 700.823 4.04013 -2.47125 0
M  V30 7394 H 701.247 4.50883 -5.05008 0
M  V30 7395 H 705.889 3.53897 -2.31337 0
M  V30 7396 H 703.607 4.615 -6.63358 0
M  V30 7397 H 707.193 3.80926 -4.39757 0
M  V30 7398 H 706.073 4.34234 -6.53001 0
M  V30 7399 N 703.576 0.692616 1.41565 0
M  V30 7400 C 704.992 0.363878 1.55397 0
M  V30 7401 C 705.192 -1.1294 1.66874 0
M  V30 7402 O 704.248 -1.91517 1.64552 0
M  V30 7403 C 705.561 1.10982 2.7947 0
M  V30 7404 C 707.109 1.09387 2.93263 0
M  V30 7405 C 707.584 1.8215 4.20221 0
M  V30 7406 N 709.075 1.79105 4.27172 0
M  V30 7407 C 709.81 2.32247 5.2426 0
M  V30 7408 N 709.306 2.93847 6.27396 0
M  V30 7409 N 711.099 2.22519 5.1618 0
M  V30 7410 H 703.25 1.66116 1.3236 0
M  V30 7411 H 705.513 0.700848 0.63837 0
M  V30 7412 H 705.219 2.1647 2.77188 0
M  V30 7413 H 705.093 0.686492 3.709 0
M  V30 7414 H 707.48 0.0472638 2.95062 0
M  V30 7415 H 707.561 1.55623 2.03015 0
M  V30 7416 H 707.205 2.86789 4.19183 0
M  V30 7417 H 707.135 1.33351 5.09436 0
M  V30 7418 H 709.626 1.34191 3.53272 0
M  V30 7419 H 709.939 3.31972 6.97864 0
M  V30 7420 H 708.284 2.97924 6.27906 0
M  V30 7421 H 711.475 1.7407 4.34531 0
M  V30 7422 H 711.648 2.64239 5.91677 0
M  V30 7423 N 705.054 -1.51416 0.437162 0
M  V30 7424 C 706.303 -2.01275 -0.130865 0
M  V30 7425 C 706.616 -1.32593 -1.438 0
M  V30 7426 O 707.822 -1.7342 -2.08897 0
M  V30 7427 C 706.278 -3.5878 -0.283763 0
M  V30 7428 C 705.886 -4.36399 1.01293 0
M  V30 7429 C 707.63 -4.16786 -0.805569 0
M  V30 7430 C 705.537 -5.85608 0.825687 0
M  V30 7431 H 704.467 -0.752157 -0.0526818 0
M  V30 7432 H 707.118 -1.74524 0.566896 0
M  V30 7433 H 705.5 -3.81976 -1.04452 0
M  V30 7434 H 706.674 -4.24948 1.78201 0
M  V30 7435 H 704.989 -3.89843 1.46326 0
M  V30 7436 H 707.586 -5.25972 -0.962146 0
M  V30 7437 H 707.929 -3.75949 -1.78796 0
M  V30 7438 H 708.462 -3.97666 -0.103125 0
M  V30 7439 H 705.201 -6.30857 1.78045 0
M  V30 7440 H 704.721 -5.99723 0.0964029 0
M  V30 7441 H 706.4 -6.45226 0.478815 0
M  V30 7442 N 706.532 -0.168513 -1.56696 0
M  V30 7443 C 707.495 0.748928 -2.16619 0
M  V30 7444 C 708.495 1.16007 -1.11351 0
M  V30 7445 O 709.685 1.07748 -1.3688 0
M  V30 7446 C 706.817 2.01904 -2.74677 0
M  V30 7447 H 708.01 0.227317 -2.99037 0
M  V30 7448 H 705.563 0.0810372 -1.5609 0
M  V30 7449 H 706.298 2.58381 -1.95985 0
M  V30 7450 H 706.083 1.73323 -3.51712 0
M  V30 7451 H 707.573 2.67383 -3.20774 0
M  V30 7452 N 708.01 1.57248 0.105221 0
M  V30 7453 C 709.258 1.85204 0.808951 0
M  V30 7454 C 709.579 0.75574 1.7976 0
M  V30 7455 O 708.849 -0.218984 1.94672 0
M  V30 7456 H 707.429 0.683346 0.301739 0
M  V30 7457 H 710.091 1.94695 0.0892605 0
M  V30 7458 H 709.187 2.81595 1.34575 0
M  V30 7459 N 709.488 -0.375779 1.53054 0
M  V30 7460 C 710.736 -1.11727 1.68409 0
M  V30 7461 C 711.057 -1.90127 0.43323 0
M  V30 7462 O 710.327 -1.87945 -0.552595 0
M  V30 7463 H 708.907 -0.415451 0.620813 0
M  V30 7464 H 711.569 -0.424869 1.90213 0
M  V30 7465 H 710.665 -1.8128 2.54055 0
M  V30 7466 N 710.966 -1.44241 -0.634997 0
M  V30 7467 C 712.215 -1.46102 -1.39058 0
M  V30 7468 C 712.528 -0.0959909 -1.95364 0
M  V30 7469 O 713.734 0.00788751 -2.71499 0
M  V30 7470 C 712.19 -2.57195 -2.51751 0
M  V30 7471 C 711.798 -3.99888 -2.01974 0
M  V30 7472 C 713.542 -2.68272 -3.28984 0
M  V30 7473 C 711.449 -5.02412 -3.11987 0
M  V30 7474 H 710.379 -0.543556 -0.522554 0
M  V30 7475 H 713.03 -1.70294 -0.683538 0
M  V30 7476 H 711.412 -2.26237 -3.25012 0
M  V30 7477 H 712.586 -4.40396 -1.35604 0
M  V30 7478 H 710.901 -3.93019 -1.37568 0
M  V30 7479 H 713.498 -3.42042 -4.10988 0
M  V30 7480 H 713.841 -1.73957 -3.78212 0
M  V30 7481 H 714.374 -2.98622 -2.62812 0
M  V30 7482 H 711.113 -5.98342 -2.67707 0
M  V30 7483 H 710.633 -4.66501 -3.77011 0
M  V30 7484 H 712.312 -5.25939 -3.76825 0
M  V30 7485 N 712.444 0.87505 -1.31075 0
M  V30 7486 C 713.374 1.99775 -1.20881 0
M  V30 7487 C 714.355 1.69822 -0.0971612 0
M  V30 7488 O 715.54 1.92158 -0.280895 0
M  V30 7489 C 712.67 3.35163 -0.910118 0
M  V30 7490 C 711.624 3.79406 -1.98078 0
M  V30 7491 C 710.95 5.12197 -1.53488 0
M  V30 7492 C 712.25 3.97061 -3.39323 0
M  V30 7493 H 713.944 2.08562 -2.14808 0
M  V30 7494 H 711.49 1.00207 -1.03415 0
M  V30 7495 H 713.443 4.13237 -0.825423 0
M  V30 7496 H 712.167 3.26536 0.064822 0
M  V30 7497 H 710.826 3.03568 -2.05528 0
M  V30 7498 H 710.474 5.00007 -0.547941 0
M  V30 7499 H 710.174 5.4277 -2.2511 0
M  V30 7500 H 711.698 5.92785 -1.46417 0
M  V30 7501 H 713.112 4.65545 -3.34576 0
M  V30 7502 H 711.509 4.39025 -4.09118 0
M  V30 7503 H 712.579 3.00601 -3.80483 0
M  V30 7504 N 713.922 1.13953 1.08869 0
M  V30 7505 C 715.168 0.906151 1.8143 0
M  V30 7506 C 715.501 -0.566089 1.85766 0
M  V30 7507 O 714.776 -1.41915 1.33006 0
M  V30 7508 C 715.059 1.50183 3.27287 0
M  V30 7509 C 714.912 3.04359 3.31189 0
M  V30 7510 C 716.231 1.17477 4.24131 0
M  V30 7511 H 713.35 0.330624 0.658678 0
M  V30 7512 H 715.992 1.40873 1.27495 0
M  V30 7513 H 714.142 1.07442 3.73348 0
M  V30 7514 H 715.814 3.55896 2.93488 0
M  V30 7515 H 714.057 3.39053 2.70602 0
M  V30 7516 H 714.728 3.41141 4.33966 0
M  V30 7517 H 717.204 1.5442 3.86385 0
M  V30 7518 H 716.08 1.61795 5.24513 0
M  V30 7519 H 716.341 0.0893312 4.4201 0
M  V30 7520 N 715.4 -1.26948 0.933913 0
M  V30 7521 C 716.33 -2.29017 0.45534 0
M  V30 7522 C 717.311 -1.62961 -0.487605 0
M  V30 7523 O 718.496 -1.90223 -0.391022 0
M  V30 7524 C 715.626 -3.46112 -0.287015 0
M  V30 7525 C 714.58 -4.24205 0.568682 0
M  V30 7526 C 713.906 -5.3384 -0.303206 0
M  V30 7527 C 715.206 -4.88954 1.83633 0
M  V30 7528 H 716.9 -2.69298 1.30839 0
M  V30 7529 H 714.446 -1.29459 0.630579 0
M  V30 7530 H 716.399 -4.16622 -0.6328 0
M  V30 7531 H 715.123 -3.04765 -1.17414 0
M  V30 7532 H 713.782 -3.5545 0.897261 0
M  V30 7533 H 713.43 -4.88734 -1.18947 0
M  V30 7534 H 713.13 -5.86998 0.265879 0
M  V30 7535 H 714.654 -6.0719 -0.644423 0
M  V30 7536 H 716.068 -5.51717 1.55823 0
M  V30 7537 H 714.465 -5.52198 2.34941 0
M  V30 7538 H 715.535 -4.12305 2.55211 0
M  V30 7539 N 716.879 -0.700114 -1.41195 0
M  V30 7540 C 718.128 -0.230082 -2.00383 0
M  V30 7541 C 718.441 1.17857 -1.56106 0
M  V30 7542 O 719.647 1.74631 -2.07885 0
M  V30 7543 C 718.103 -0.360447 -3.5809 0
M  V30 7544 C 717.711 -1.77475 -4.11347 0
M  V30 7545 C 719.455 0.0495799 -4.24471 0
M  V30 7546 C 717.362 -1.85653 -5.61504 0
M  V30 7547 H 716.292 -0.0822633 -0.749499 0
M  V30 7548 H 718.943 -0.868969 -1.6162 0
M  V30 7549 H 717.325 0.346768 -3.94479 0
M  V30 7550 H 718.499 -2.51109 -3.86369 0
M  V30 7551 H 716.814 -2.13486 -3.57509 0
M  V30 7552 H 719.411 0.00898219 -5.34699 0
M  V30 7553 H 719.754 1.08904 -4.01803 0
M  V30 7554 H 720.287 -0.607521 -3.93134 0
M  V30 7555 H 717.026 -2.87667 -5.89006 0
M  V30 7556 H 716.546 -1.1641 -5.88395 0
M  V30 7557 H 718.225 -1.62151 -6.26351 0
M  V30 7558 N 718.357 1.51182 -0.445186 0
M  V30 7559 C 719.606 2.01342 0.120189 0
M  V30 7560 C 719.919 1.33353 1.43095 0
M  V30 7561 O 721.125 1.74525 2.07974 0
M  V30 7562 C 719.581 3.58925 0.264732 0
M  V30 7563 C 719.189 4.35855 -1.03606 0
M  V30 7564 C 720.933 4.17208 0.783455 0
M  V30 7565 C 718.84 5.85162 -0.856731 0
M  V30 7566 H 717.77 0.752426 0.0486922 0
M  V30 7567 H 720.421 1.74221 -0.576143 0
M  V30 7568 H 718.803 3.82525 1.02425 0
M  V30 7569 H 719.977 4.23997 -1.80452 0
M  V30 7570 H 718.292 3.89062 -1.48391 0
M  V30 7571 H 720.889 5.26475 0.934239 0
M  V30 7572 H 721.232 3.76892 1.768 0
M  V30 7573 H 721.765 3.97715 0.0820346 0
M  V30 7574 H 718.504 6.29904 -1.81388 0
M  V30 7575 H 718.024 5.99663 -0.128206 0
M  V30 7576 H 719.703 6.44963 -0.513027 0
M  V30 7577 N 719.835 0.176821 1.56605 0
M  V30 7578 C 721.075 -0.469104 1.98944 0
M  V30 7579 C 721.439 -1.60048 1.06059 0
M  V30 7580 O 722.64 -2.30934 1.3756 0
M  V30 7581 C 720.911 -0.934571 3.44965 0
M  V30 7582 S 722.47 -1.58091 4.09332 0
M  V30 7583 H 719.288 -0.150695 0.694847 0
M  V30 7584 H 721.89 0.27558 1.93548 0
M  V30 7585 H 720.594 -0.100814 4.10276 0
M  V30 7586 H 720.125 -1.71316 3.54139 0
M  V30 7587 H 722.14 -2.86922 4.04834 0
M  V30 7588 N 721.313 -1.57302 -0.09688 0
M  V30 7589 C 722.538 -1.9058 -0.818169 0
M  V30 7590 C 722.963 -0.770921 -1.71576 0
M  V30 7591 O 722.321 0.277588 -1.79162 0
M  V30 7592 C 722.369 -3.22714 -1.60898 0
M  V30 7593 O 721.473 -3.10178 -2.71779 0
M  V30 7594 H 720.814 -0.624759 -0.224882 0
M  V30 7595 H 723.344 -2.04471 -0.07264 0
M  V30 7596 H 723.354 -3.55978 -1.99358 0
M  V30 7597 H 722.029 -4.04899 -0.950227 0
M  V30 7598 H 720.606 -2.88424 -2.3636 0
M  V30 7599 N 722.791 0.367657 -1.53252 0
M  V30 7600 C 724.04 1.10782 -1.68554 0
M  V30 7601 C 724.353 1.90523 -0.442765 0
M  V30 7602 O 725.559 2.6729 -0.47629 0
M  V30 7603 C 724.015 2.01863 -2.97959 0
M  V30 7604 C 723.623 1.27443 -4.29491 0
M  V30 7605 C 725.367 2.75883 -3.22628 0
M  V30 7606 C 723.274 2.17414 -5.49987 0
M  V30 7607 H 722.204 0.417272 -0.628013 0
M  V30 7608 H 724.855 0.368971 -1.79752 0
M  V30 7609 H 723.237 2.7947 -2.80558 0
M  V30 7610 H 724.411 0.549138 -4.57516 0
M  V30 7611 H 722.726 0.652935 -4.11249 0
M  V30 7612 H 725.323 3.43421 -4.09837 0
M  V30 7613 H 725.666 3.41138 -2.38601 0
M  V30 7614 H 726.199 2.0536 -3.40693 0
M  V30 7615 H 722.938 1.5674 -6.36485 0
M  V30 7616 H 722.458 2.87799 -5.26243 0
M  V30 7617 H 724.137 2.77019 -5.84696 0
M  V30 7618 N 724.269 1.44576 0.627338 0
M  V30 7619 C 725.217 1.52039 1.76031 0
M  V30 7620 C 726.211 0.391796 1.64807 0
M  V30 7621 O 727.417 0.5669 1.7084 0
M  V30 7622 H 723.792 0.477165 0.581221 0
M  V30 7623 H 725.763 2.47387 1.6686 0
M  V30 7624 C 724.512 1.48539 3.14375 0
M  V30 7625 H 723.835 2.34699 3.23661 0
M  V30 7626 H 725.275 1.57821 3.93534 0
M  V30 7627 C 723.734 0.20672 3.36265 0
M  V30 7628 O 724.264 -0.72154 3.95167 0
M  V30 7629 N 722.47 0.108654 2.90397 0
M  V30 7630 H 722.017 0.864884 2.42647 0
M  V30 7631 H 721.975 -0.746121 3.05418 0
M  V30 7632 N 725.747 -0.868086 1.31537 0
M  V30 7633 C 726.68 -1.97871 1.13676 0
M  V30 7634 C 727.658 -1.62551 0.0397589 0
M  V30 7635 O 728.842 -1.87473 0.196539 0
M  V30 7636 C 725.969 -3.30577 0.73734 0
M  V30 7637 C 725.015 -3.8488 1.83765 0
M  V30 7638 S 725.848 -4.10106 3.44345 0
M  V30 7639 C 727.004 -5.45806 3.06344 0
M  V30 7640 H 727.237 -2.12719 2.07697 0
M  V30 7641 H 724.77 -1.01849 1.16044 0
M  V30 7642 H 726.728 -4.07274 0.513641 0
M  V30 7643 H 725.389 -3.13562 -0.183787 0
M  V30 7644 H 724.582 -4.80821 1.51085 0
M  V30 7645 H 724.184 -3.14981 2.01651 0
M  V30 7646 H 726.476 -6.27535 2.55354 0
M  V30 7647 H 727.419 -5.83437 4.01257 0
M  V30 7648 H 727.827 -5.0917 2.43734 0
M  V30 7649 N 727.225 -1.14528 -1.08264 0
M  V30 7650 C 728.455 -0.936604 -1.8415 0
M  V30 7651 C 728.863 0.518298 -1.81962 0
M  V30 7652 O 728.206 1.37096 -1.22272 0
M  V30 7653 C 728.268 -1.36182 -3.32708 0
M  V30 7654 C 727.932 -2.83257 -3.58629 0
M  V30 7655 C 728.929 -3.81366 -3.5335 0
M  V30 7656 C 726.614 -3.20704 -3.86593 0
M  V30 7657 C 728.608 -5.14929 -3.75668 0
M  V30 7658 C 726.295 -4.54443 -4.08564 0
M  V30 7659 C 727.293 -5.51365 -4.03095 0
M  V30 7660 O 726.981 -6.8269 -4.24488 0
M  V30 7661 H 726.713 -0.333254 -0.588148 0
M  V30 7662 H 729.267 -1.5247 -1.3763 0
M  V30 7663 H 727.497 -0.717063 -3.79994 0
M  V30 7664 H 729.186 -1.12372 -3.90035 0
M  V30 7665 H 729.952 -3.53781 -3.31759 0
M  V30 7666 H 725.831 -2.45857 -3.89969 0
M  V30 7667 H 729.375 -5.90568 -3.71315 0
M  V30 7668 H 725.272 -4.81747 -4.29639 0
M  V30 7669 H 726.04 -6.8897 -4.41886 0
M  V30 7670 N 728.703 1.26451 -0.940633 0
M  V30 7671 C 729.95 1.93778 -0.587909 0
M  V30 7672 C 730.278 1.73811 0.872935 0
M  V30 7673 O 729.533 1.06816 1.63978 0
M  V30 7674 C 729.832 3.46503 -0.875794 0
M  V30 7675 C 729.498 3.86609 -2.32043 0
M  V30 7676 C 728.16 3.97269 -2.71534 0
M  V30 7677 C 730.512 4.0672 -3.25927 0
M  V30 7678 C 727.84 4.25436 -4.04006 0
M  V30 7679 C 730.192 4.36375 -4.57995 0
M  V30 7680 C 728.856 4.45249 -4.97302 0
M  V30 7681 H 728.126 0.709084 -0.215131 0
M  V30 7682 H 730.773 1.50272 -1.18704 0
M  V30 7683 H 729.078 3.91319 -0.194124 0
M  V30 7684 H 730.775 3.96759 -0.581665 0
M  V30 7685 H 727.365 3.78858 -2.00411 0
M  V30 7686 H 731.549 3.97912 -2.96614 0
M  V30 7687 H 726.805 4.30519 -4.34124 0
M  V30 7688 H 730.979 4.50882 -5.30734 0
M  V30 7689 H 728.606 4.66829 -5.99979 0
M  V30 7690 N 730.181 0.707592 1.40822 0
M  V30 7691 C 731.427 0.244031 2.01326 0
M  V30 7692 C 731.76 -1.15722 1.55955 0
M  V30 7693 O 731.035 -1.78347 0.776044 0
M  V30 7694 C 731.318 0.315128 3.58718 0
M  V30 7695 C 731.171 1.75419 4.14184 0
M  V30 7696 C 732.49 -0.318251 4.38948 0
M  V30 7697 H 729.609 0.0901471 0.731466 0
M  V30 7698 H 732.251 0.898584 1.67408 0
M  V30 7699 H 730.401 -0.242176 3.87744 0
M  V30 7700 H 732.073 2.36626 3.95987 0
M  V30 7701 H 730.316 2.28449 3.68773 0
M  V30 7702 H 730.987 1.75538 5.23345 0
M  V30 7703 H 733.463 0.156514 4.15806 0
M  V30 7704 H 732.339 -0.238019 5.48384 0
M  V30 7705 H 732.6 -1.40067 4.19325 0
M  V30 7706 N 731.66 -1.50943 0.453197 0
M  V30 7707 C 732.906 -2.02512 -0.108082 0
M  V30 7708 C 733.239 -1.33574 -1.40967 0
M  V30 7709 O 732.514 -0.455671 -1.89087 0
M  V30 7710 C 732.797 -3.58759 -0.310453 0
M  V30 7711 C 732.65 -4.38293 1.0109 0
M  V30 7712 C 733.969 -4.26816 -1.07313 0
M  V30 7713 H 731.088 -0.73603 -0.0378064 0
M  V30 7714 H 733.73 -1.80433 0.595295 0
M  V30 7715 H 731.88 -3.77702 -0.909582 0
M  V30 7716 H 733.552 -4.30964 1.64523 0
M  V30 7717 H 731.795 -4.02745 1.61179 0
M  V30 7718 H 732.466 -5.45828 0.82315 0
M  V30 7719 H 734.942 -4.1224 -0.565473 0
M  V30 7720 H 733.818 -5.35989 -1.1835 0
M  V30 7721 H 734.079 -3.88757 -2.10525 0
M  V30 7722 N 733.138 -0.185124 -1.56509 0
M  V30 7723 C 734.384 0.456934 -1.97585 0
M  V30 7724 C 734.717 1.61957 -1.07161 0
M  V30 7725 O 733.992 1.9412 -0.121546 0
M  V30 7726 C 734.275 0.926666 -3.47973 0
M  V30 7727 C 734.128 -0.237097 -4.49175 0
M  V30 7728 C 735.447 1.79561 -4.01803 0
M  V30 7729 H 732.566 0.164619 -0.71838 0
M  V30 7730 H 735.208 -0.274039 -1.88013 0
M  V30 7731 H 733.358 1.54954 -3.56261 0
M  V30 7732 H 735.03 -0.87454 -4.52934 0
M  V30 7733 H 733.273 -0.890446 -4.24563 0
M  V30 7734 H 733.944 0.133924 -5.51838 0
M  V30 7735 H 736.42 1.27039 -3.96232 0
M  V30 7736 H 735.296 2.09327 -5.07418 0
M  V30 7737 H 735.557 2.74629 -3.46455 0
M  V30 7738 N 734.616 1.57351 0.0885366 0
M  V30 7739 C 735.846 1.90355 0.80303 0
M  V30 7740 C 736.254 0.777678 1.72478 0
M  V30 7741 O 735.597 -0.258908 1.81866 0
M  V30 7742 C 735.659 3.18674 1.66395 0
M  V30 7743 C 735.323 4.4778 0.913327 0
M  V30 7744 C 736.32 5.19345 0.240148 0
M  V30 7745 C 734.005 4.94434 0.885462 0
M  V30 7746 C 735.999 6.35803 -0.450854 0
M  V30 7747 C 733.686 6.10802 0.190679 0
M  V30 7748 C 734.684 6.81337 -0.476295 0
M  V30 7749 O 734.372 7.95488 -1.15992 0
M  V30 7750 H 734.104 0.634035 0.234469 0
M  V30 7751 H 736.658 2.05287 0.0681959 0
M  V30 7752 H 734.888 2.99906 2.44117 0
M  V30 7753 H 736.577 3.37458 2.2556 0
M  V30 7754 H 737.343 4.84339 0.253092 0
M  V30 7755 H 733.222 4.39417 1.39406 0
M  V30 7756 H 736.766 6.90795 -0.972019 0
M  V30 7757 H 732.663 6.45261 0.175603 0
M  V30 7758 H 733.431 8.11509 -1.06749 0
M  V30 7759 N 736.094 -0.359525 1.53444 0
M  V30 7760 C 737.34 -1.10315 1.70172 0
M  V30 7761 C 737.673 -1.88788 0.455287 0
M  V30 7762 O 736.948 -1.86635 -0.547514 0
M  V30 7763 C 737.231 -2.05744 2.95536 0
M  V30 7764 C 737.084 -1.3084 4.3035 0
M  V30 7765 C 738.403 -3.05784 3.16518 0
M  V30 7766 H 735.522 -0.399662 0.619225 0
M  V30 7767 H 738.164 -0.383338 1.86093 0
M  V30 7768 H 736.314 -2.67125 2.82093 0
M  V30 7769 H 737.986 -0.721959 4.55615 0
M  V30 7770 H 736.229 -0.610283 4.29486 0
M  V30 7771 H 736.9 -2.00718 5.14214 0
M  V30 7772 H 739.376 -2.5451 3.29187 0
M  V30 7773 H 738.252 -3.69772 4.05659 0
M  V30 7774 H 738.513 -3.76289 2.32076 0
M  V30 7775 N 737.572 -1.44907 -0.619662 0
M  V30 7776 C 738.988 -1.29046 -0.939107 0
M  V30 7777 C 739.188 -0.23462 -2.00129 0
M  V30 7778 O 738.244 0.37558 -2.49691 0
M  V30 7779 C 739.557 -2.66567 -1.39149 0
M  V30 7780 C 741.105 -2.74368 -1.50635 0
M  V30 7781 C 741.58 -4.12386 -1.99253 0
M  V30 7782 N 743.071 -4.1462 -2.06506 0
M  V30 7783 C 743.806 -5.18272 -2.4532 0
M  V30 7784 N 743.302 -6.32278 -2.83189 0
M  V30 7785 N 745.095 -5.05628 -2.45554 0
M  V30 7786 H 737.246 -2.12239 0.0826135 0
M  V30 7787 H 739.509 -0.947652 -0.0256829 0
M  V30 7788 H 739.215 -3.4496 -0.685254 0
M  V30 7789 H 739.089 -2.94224 -2.36034 0
M  V30 7790 H 741.476 -1.96287 -2.20353 0
M  V30 7791 H 741.557 -2.50439 -0.520963 0
M  V30 7792 H 741.201 -4.90947 -1.30127 0
M  V30 7793 H 741.131 -4.33699 -2.98684 0
M  V30 7794 H 743.622 -3.32343 -1.79878 0
M  V30 7795 H 743.935 -7.07172 -3.11652 0
M  V30 7796 H 742.28 -6.35699 -2.80913 0
M  V30 7797 H 745.471 -4.15613 -2.15367 0
M  V30 7798 H 745.644 -5.86529 -2.75478 0
M  V30 7799 N 739.05 0.861098 -1.31996 0
M  V30 7800 C 740.327 1.59788 -1.12814 0
M  V30 7801 C 740.707 2.08753 0.313882 0
M  V30 7802 O 740.055 1.87258 1.30946 0
M  V30 7803 C 740.265 2.74901 -2.15012 0
M  V30 7804 C 741.613 3.44643 -2.48004 0
M  V30 7805 O 742.637 2.85119 -2.13508 0
M  V30 7806 O 741.496 4.52044 -3.07113 0
M  V30 7807 H 738.59 0.703408 -0.434909 0
M  V30 7808 H 741.136 0.905788 -1.43505 0
M  V30 7809 H 739.908 2.36198 -3.11971 0
M  V30 7810 H 739.531 3.51792 -1.85279 0
M  V30 7811 N 740.528 1.15101 1.07655 0
M  V30 7812 C 741.458 0.867864 2.16773 0
M  V30 7813 C 742.439 -0.180283 1.69142 0
M  V30 7814 O 743.624 -0.0353152 1.94168 0
M  V30 7815 C 740.754 0.35299 3.45501 0
M  V30 7816 C 739.708 1.33746 4.06566 0
M  V30 7817 C 739.034 0.681562 5.30338 0
M  V30 7818 C 740.334 2.7024 4.46954 0
M  V30 7819 H 742.028 1.78034 2.40716 0
M  V30 7820 H 739.574 0.857435 1.15689 0
M  V30 7821 H 741.527 0.142465 4.21159 0
M  V30 7822 H 740.251 -0.594945 3.21135 0
M  V30 7823 H 738.91 1.53429 3.32949 0
M  V30 7824 H 738.558 -0.272422 5.02262 0
M  V30 7825 H 738.258 1.33853 5.72151 0
M  V30 7826 H 739.782 0.48074 6.08705 0
M  V30 7827 H 741.196 2.5442 5.13754 0
M  V30 7828 H 739.593 3.32282 4.99709 0
M  V30 7829 H 740.663 3.26537 3.58471 0
M  V30 7830 N 742.006 -1.2595 0.947325 0
M  V30 7831 C 743.254 -1.93081 0.596996 0
M  V30 7832 C 743.575 -1.74632 -0.867672 0
M  V30 7833 O 742.845 -1.1056 -1.6172 0
M  V30 7834 H 741.425 -0.714542 0.217805 0
M  V30 7835 H 744.087 -1.53265 1.20398 0
M  V30 7836 H 743.183 -3.01134 0.82004 0
M  V30 7837 N 743.484 -0.715051 -1.40445 0
M  V30 7838 C 744.434 -0.038591 -2.27967 0
M  V30 7839 C 745.418 0.733099 -1.43229 0
M  V30 7840 O 746.61 0.605388 -1.66325 0
M  V30 7841 C 743.739 0.882801 -3.31755 0
M  V30 7842 C 742.825 0.106325 -4.23967 0
M  V30 7843 N 743.216 -0.910143 -4.97544 0
M  V30 7844 C 741.514 0.33896 -4.4471 0
M  V30 7845 C 742.215 -1.37665 -5.65175 0
M  V30 7846 N 741.191 -0.698905 -5.39088 0
M  V30 7847 H 744.993 -0.81765 -2.82297 0
M  V30 7848 H 742.507 -0.547591 -1.5289 0
M  V30 7849 H 744.504 1.38273 -3.93302 0
M  V30 7850 H 743.164 1.66124 -2.78985 0
M  V30 7851 H 744.175 -1.29097 -5.01552 0
M  V30 7852 H 740.852 1.09377 -4.02918 0
M  V30 7853 H 742.242 -2.22122 -6.34123 0
M  V30 7854 N 744.962 1.50701 -0.461195 0
M  V30 7855 C 746.208 2.02566 0.0973411 0
M  V30 7856 C 746.541 1.3432 1.40257 0
M  V30 7857 O 745.816 0.465692 1.88843 0
M  V30 7858 C 746.099 3.58919 0.291423 0
M  V30 7859 C 745.952 4.37751 -1.03413 0
M  V30 7860 C 747.271 4.27379 1.05048 0
M  V30 7861 H 744.39 0.73622 0.0339026 0
M  V30 7862 H 747.032 1.80115 -0.604855 0
M  V30 7863 H 745.182 3.78179 0.889539 0
M  V30 7864 H 746.854 4.30085 -1.66806 0
M  V30 7865 H 745.097 4.01885 -1.63313 0
M  V30 7866 H 745.768 5.45384 -0.852085 0
M  V30 7867 H 748.244 4.12534 0.543603 0
M  V30 7868 H 747.12 5.36609 1.15506 0
M  V30 7869 H 747.381 3.89868 2.0846 0
M  V30 7870 N 746.441 0.193421 1.56409 0
M  V30 7871 C 747.404 -0.714371 2.17783 0
M  V30 7872 C 748.404 -1.1422 1.13183 0
M  V30 7873 O 749.594 -1.05557 1.38576 0
M  V30 7874 C 746.726 -1.97509 2.77855 0
M  V30 7875 H 747.919 -0.179714 2.99361 0
M  V30 7876 H 745.472 -0.0561944 1.56199 0
M  V30 7877 H 746.207 -2.5523 2.0007 0
M  V30 7878 H 745.992 -1.67706 3.54425 0
M  V30 7879 H 747.482 -2.62246 3.24987 0
M  V30 7880 N 747.919 -1.57396 -0.0801906 0
M  V30 7881 C 748.849 -2.06145 -1.09665 0
M  V30 7882 C 749.83 -0.953273 -1.40878 0
M  V30 7883 O 751.015 -1.22548 -1.50651 0
M  V30 7884 C 748.145 -2.49836 -2.41245 0
M  V30 7885 C 747.099 -3.64454 -2.24405 0
M  V30 7886 C 746.425 -3.94172 -3.61293 0
M  V30 7887 C 747.725 -4.94807 -1.67223 0
M  V30 7888 H 749.419 -2.91316 -0.691028 0
M  V30 7889 H 746.965 -1.40145 -0.330957 0
M  V30 7890 H 748.918 -2.82552 -3.12638 0
M  V30 7891 H 747.642 -1.61683 -2.83771 0
M  V30 7892 H 746.301 -3.32008 -1.55454 0
M  V30 7893 H 745.949 -3.03163 -4.01374 0
M  V30 7894 H 745.649 -4.71345 -3.50867 0
M  V30 7895 H 747.173 -4.29376 -4.3413 0
M  V30 7896 H 748.587 -5.25807 -2.28472 0
M  V30 7897 H 746.984 -5.76245 -1.67515 0
M  V30 7898 H 748.054 -4.80751 -0.632944 0
M  V30 7899 N 749.397 0.351382 -1.53633 0
M  V30 7900 C 750.627 1.11113 -1.74176 0
M  V30 7901 C 751.035 1.83084 -0.477154 0
M  V30 7902 O 750.378 1.74941 0.560483 0
M  V30 7903 C 750.44 2.17521 -2.86225 0
M  V30 7904 C 750.104 1.65193 -4.26099 0
M  V30 7905 C 751.101 1.10842 -5.07947 0
M  V30 7906 C 748.786 1.70277 -4.72558 0
M  V30 7907 C 750.78 0.622689 -6.34351 0
M  V30 7908 C 748.467 1.21316 -5.98937 0
M  V30 7909 C 749.465 0.674033 -6.79666 0
M  V30 7910 O 749.153 0.191696 -8.03671 0
M  V30 7911 H 748.885 0.33756 -0.585687 0
M  V30 7912 H 751.439 0.411786 -2.0123 0
M  V30 7913 H 749.669 2.90991 -2.54678 0
M  V30 7914 H 751.358 2.78999 -2.94812 0
M  V30 7915 H 752.124 1.06243 -4.7322 0
M  V30 7916 H 748.003 2.11181 -4.09785 0
M  V30 7917 H 751.547 0.201216 -6.9731 0
M  V30 7918 H 747.444 1.25613 -6.3316 0
M  V30 7919 H 748.212 0.309712 -8.17914 0
M  V30 7920 N 750.875 1.45233 0.611969 0
M  V30 7921 C 752.121 1.49242 1.37312 0
M  V30 7922 C 752.454 0.131963 1.93751 0
M  V30 7923 O 751.729 -0.852999 1.74798 0
M  V30 7924 C 752.012 2.56811 2.52428 0
M  V30 7925 C 751.865 4.02284 2.01215 0
M  V30 7926 C 753.184 2.60705 3.54572 0
M  V30 7927 H 750.303 0.54336 0.497925 0
M  V30 7928 H 752.945 1.77019 0.690242 0
M  V30 7929 H 751.095 2.33256 3.10683 0
M  V30 7930 H 752.767 4.37035 1.47643 0
M  V30 7931 H 751.01 4.1315 1.32248 0
M  V30 7932 H 751.681 4.7323 2.84178 0
M  V30 7933 H 754.157 2.81799 3.06151 0
M  V30 7934 H 753.033 3.37841 4.32614 0
M  V30 7935 H 753.294 1.65627 4.09903 0
M  V30 7936 N 752.353 -0.854086 1.3245 0
M  V30 7937 C 753.599 -1.61069 1.23225 0
M  V30 7938 C 753.932 -1.93111 -0.205349 0
M  V30 7939 O 753.207 -1.57397 -1.14265 0
M  V30 7940 C 753.49 -2.93065 2.09249 0
M  V30 7941 C 753.343 -2.67801 3.6139 0
M  V30 7942 C 754.662 -3.94341 1.95406 0
M  V30 7943 H 751.781 -0.584449 0.448986 0
M  V30 7944 H 754.423 -0.986189 1.62402 0
M  V30 7945 H 752.573 -3.46364 1.75967 0
M  V30 7946 H 754.245 -2.21052 4.04887 0
M  V30 7947 H 752.488 -2.01756 3.84027 0
M  V30 7948 H 753.159 -3.6179 4.16907 0
M  V30 7949 H 755.635 -3.50301 2.24562 0
M  V30 7950 H 754.511 -4.84555 2.57872 0
M  V30 7951 H 754.772 -4.32382 0.921865 0
M  V30 7952 N 753.831 -1.1567 -1.07043 0
M  V30 7953 C 754.794 -0.858906 -2.12498 0
M  V30 7954 C 755.794 0.142735 -1.60165 0
M  V30 7955 O 756.984 -0.0872678 -1.73981 0
M  V30 7956 C 754.116 -0.283021 -3.39723 0
M  V30 7957 H 755.309 -1.79368 -2.40348 0
M  V30 7958 H 752.862 -0.964608 -1.22984 0
M  V30 7959 H 753.597 0.659796 -3.17517 0
M  V30 7960 H 753.382 -1.00467 -3.7901 0
M  V30 7961 H 754.872 -0.0923543 -4.17498 0
M  V30 7962 N 755.309 1.25446 -0.953992 0
M  V30 7963 C 756.272 2.24156 -0.478179 0
M  V30 7964 C 757.272 1.55278 0.417776 0
M  V30 7965 O 758.462 1.72866 0.215155 0
M  V30 7966 C 755.594 3.39495 0.309202 0
M  V30 7967 H 756.787 2.67764 -1.35064 0
M  V30 7968 H 754.34 1.37822 -0.737206 0
M  V30 7969 H 755.075 3.01307 1.19936 0
M  V30 7970 H 754.86 3.90679 -0.333562 0
M  V30 7971 H 756.35 4.12796 0.631594 0
M  V30 7972 N 756.787 0.722489 1.40064 0
M  V30 7973 C 758.033 0.265371 2.01056 0
M  V30 7974 C 758.366 -1.14062 1.57174 0
M  V30 7975 O 757.641 -1.77514 0.794916 0
M  V30 7976 C 757.924 0.353157 3.58364 0
M  V30 7977 C 757.777 1.79802 4.123 0
M  V30 7978 C 759.096 -0.271677 4.39261 0
M  V30 7979 H 756.215 0.0979002 0.730469 0
M  V30 7980 H 758.857 0.916289 1.66446 0
M  V30 7981 H 757.007 -0.201037 3.87979 0
M  V30 7982 H 758.679 2.40813 3.93455 0
M  V30 7983 H 756.922 2.32348 3.66329 0
M  V30 7984 H 757.593 1.81079 5.21454 0
M  V30 7985 H 760.069 0.200607 4.15616 0
M  V30 7986 H 758.945 -0.179843 5.48605 0
M  V30 7987 H 759.206 -1.35611 4.20787 0
M  V30 7988 N 758.265 -1.50454 0.469181 0
M  V30 7989 C 759.511 -2.02615 -0.0865971 0
M  V30 7990 C 759.844 -1.35062 -1.39542 0
M  V30 7991 O 759.119 -0.475701 -1.88593 0
M  V30 7992 C 759.402 -3.59068 -0.272385 0
M  V30 7993 C 759.255 -4.37196 1.05733 0
M  V30 7994 C 760.574 -4.2793 -1.0278 0
M  V30 7995 H 757.693 -0.736389 -0.0299977 0
M  V30 7996 H 760.335 -1.79792 0.614399 0
M  V30 7997 H 758.485 -3.78646 -0.869471 0
M  V30 7998 H 760.157 -4.29195 1.69084 0
M  V30 7999 H 758.4 -4.01013 1.65442 0
M  V30 8000 H 759.071 -5.44924 0.880997 0
M  V30 8001 H 761.547 -4.12816 -0.521718 0
M  V30 8002 H 760.423 -5.37214 -1.12659 0
M  V30 8003 H 760.684 -3.90968 -2.0639 0
M  V30 8004 N 759.743 -0.201713 -1.56304 0
M  V30 8005 C 760.968 0.443815 -2.02596 0
M  V30 8006 C 761.393 1.53945 -1.08086 0
M  V30 8007 O 760.751 1.81182 -0.0655056 0
M  V30 8008 C 760.799 0.971066 -3.47279 0
M  V30 8009 O 759.903 2.0836 -3.55893 0
M  V30 8010 H 759.244 0.10294 -0.655972 0
M  V30 8011 H 761.774 -0.314533 -2.02168 0
M  V30 8012 H 761.784 1.28598 -3.87204 0
M  V30 8013 H 760.459 0.169048 -4.15556 0
M  V30 8014 H 759.036 1.77683 -3.27846 0
M  V30 8015 N 761.222 1.57436 0.0718424 0
M  V30 8016 C 762.468 1.87525 0.772149 0
M  V30 8017 C 762.801 0.79399 1.77227 0
M  V30 8018 O 762.076 -0.195733 1.93513 0
M  V30 8019 C 762.359 3.28272 1.48018 0
M  V30 8020 C 762.212 4.47052 0.49647 0
M  V30 8021 C 763.531 3.67256 2.42509 0
M  V30 8022 H 760.65 0.682049 0.279245 0
M  V30 8023 H 763.292 1.89967 0.03534 0
M  V30 8024 H 761.442 3.26321 2.10824 0
M  V30 8025 H 763.114 4.61127 -0.126375 0
M  V30 8026 H 761.357 4.33392 -0.188205 0
M  V30 8027 H 762.028 5.42315 1.02949 0
M  V30 8028 H 764.504 3.70301 1.89781 0
M  V30 8029 H 763.38 4.66626 2.89053 0
M  V30 8030 H 763.641 2.97186 3.27312 0
M  V30 8031 N 762.7 -0.34323 1.53817 0
M  V30 8032 C 763.663 -1.40444 1.8113 0
M  V30 8033 C 764.663 -1.45604 0.682366 0
M  V30 8034 O 765.853 -1.45974 0.950649 0
M  V30 8035 C 762.985 -2.79369 1.95361 0
M  V30 8036 H 764.178 -1.17489 2.75928 0
M  V30 8037 H 761.731 -0.577636 1.45234 0
M  V30 8038 H 762.466 -3.07607 1.02707 0
M  V30 8039 H 762.251 -2.7702 2.77493 0
M  V30 8040 H 763.741 -3.56178 2.18008 0
M  V30 8041 N 764.178 -1.45556 -0.604258 0
M  V30 8042 C 765.408 -1.53056 -1.38771 0
M  V30 8043 C 765.816 -0.163092 -1.88496 0
M  V30 8044 O 765.159 0.846157 -1.63052 0
M  V30 8045 C 765.221 -2.45656 -2.62476 0
M  V30 8046 C 764.885 -3.92328 -2.34367 0
M  V30 8047 C 765.882 -4.82137 -1.94525 0
M  V30 8048 C 763.567 -4.37275 -2.47177 0
M  V30 8049 C 765.561 -6.14901 -1.67856 0
M  V30 8050 C 763.248 -5.70079 -2.20122 0
M  V30 8051 C 764.246 -6.58711 -1.80524 0
M  V30 8052 O 763.934 -7.89053 -1.53788 0
M  V30 8053 H 763.666 -0.520721 -0.431075 0
M  V30 8054 H 766.22 -1.91464 -0.743693 0
M  V30 8055 H 764.45 -2.02225 -3.29609 0
M  V30 8056 H 766.139 -2.43802 -3.24523 0
M  V30 8057 H 766.905 -4.48675 -1.84162 0
M  V30 8058 H 762.784 -3.68527 -2.76964 0
M  V30 8059 H 766.328 -6.8404 -1.36874 0
M  V30 8060 H 762.225 -6.03095 -2.30102 0
M  V30 8061 H 762.993 -8.01113 -1.67812 0
M  V30 8062 N 765.656 0.84705 -1.32902 0
M  V30 8063 C 766.586 1.97166 -1.25091 0
M  V30 8064 C 767.567 1.69578 -0.133161 0
M  V30 8065 O 768.752 1.91519 -0.321591 0
M  V30 8066 C 765.882 3.33157 -0.981006 0
M  V30 8067 C 764.836 3.75119 -2.06082 0
M  V30 8068 C 764.162 5.08826 -1.64318 0
M  V30 8069 C 765.462 3.89774 -3.47669 0
M  V30 8070 H 767.156 2.03958 -2.19184 0
M  V30 8071 H 764.702 0.979907 -1.05517 0
M  V30 8072 H 766.655 4.11393 -0.912891 0
M  V30 8073 H 765.379 3.266 -0.00445559 0
M  V30 8074 H 764.038 2.9914 -2.11921 0
M  V30 8075 H 763.686 4.98732 -0.653876 0
M  V30 8076 H 763.386 5.37873 -2.36572 0
M  V30 8077 H 764.91 5.89546 -1.58958 0
M  V30 8078 H 766.324 4.58343 -3.44376 0
M  V30 8079 H 764.721 4.30248 -4.18338 0
M  V30 8080 H 765.791 2.92463 -3.86773 0
M  V30 8081 N 767.134 1.16236 1.06428 0
M  V30 8082 C 768.382 0.941171 1.78847 0
M  V30 8083 C 768.703 -0.53248 1.87589 0
M  V30 8084 O 767.973 -1.38686 1.38358 0
M  V30 8085 H 766.553 0.345228 0.66244 0
M  V30 8086 H 769.215 1.46479 1.28569 0
M  V30 8087 H 768.311 1.35871 2.80972 0
M  V30 8088 N 768.612 -1.24939 0.960631 0
M  V30 8089 C 769.859 -1.92818 0.618663 0
M  V30 8090 C 770.187 -1.75177 -0.845173 0
M  V30 8091 O 769.442 -1.09412 -1.62258 0
M  V30 8092 C 769.741 -3.45066 0.930809 0
M  V30 8093 C 769.407 -3.82869 2.38164 0
M  V30 8094 C 768.069 -3.92899 2.7782 0
M  V30 8095 C 770.421 -4.01483 3.32356 0
M  V30 8096 C 767.749 -4.18955 4.10723 0
M  V30 8097 C 770.101 -4.29033 4.6488 0
M  V30 8098 C 768.765 -4.37282 5.04322 0
M  V30 8099 H 768.035 -0.705571 0.226385 0
M  V30 8100 H 770.682 -1.48365 1.21079 0
M  V30 8101 H 768.987 -3.9096 0.256355 0
M  V30 8102 H 770.684 -3.95783 0.644712 0
M  V30 8103 H 767.274 -3.75622 2.06413 0
M  V30 8104 H 771.458 -3.93143 3.02907 0
M  V30 8105 H 766.714 -4.23558 4.40918 0
M  V30 8106 H 770.888 -4.42381 5.3784 0
M  V30 8107 H 768.515 -4.57225 6.0733 0
M  V30 8108 N 770.09 -0.729906 -1.39679 0
M  V30 8109 C 771.336 -0.27603 -2.00913 0
M  V30 8110 C 771.669 1.13227 -1.57776 0
M  V30 8111 O 770.944 1.7709 -0.804319 0
M  V30 8112 C 771.227 -0.372157 -3.58172 0
M  V30 8113 C 771.08 -1.81986 -4.11341 0
M  V30 8114 C 772.399 0.248378 -4.39399 0
M  V30 8115 H 769.518 -0.101773 -0.729939 0
M  V30 8116 H 772.16 -0.925104 -1.65957 0
M  V30 8117 H 770.31 0.180459 -3.88081 0
M  V30 8118 H 771.982 -2.42896 -3.92172 0
M  V30 8119 H 770.225 -2.34287 -3.65092 0
M  V30 8120 H 770.896 -1.83842 -5.20486 0
M  V30 8121 H 773.372 -0.222645 -4.15504 0
M  V30 8122 H 772.248 0.150746 -5.48693 0
M  V30 8123 H 772.509 1.33378 -4.21501 0
M  V30 8124 N 771.568 1.50203 -0.477153 0
M  V30 8125 C 772.815 2.02358 0.0757385 0
M  V30 8126 C 773.143 1.3587 1.39174 0
M  V30 8127 O 772.398 0.475415 1.89838 0
M  V30 8128 C 772.697 3.56127 0.301325 0
M  V30 8129 C 772.363 4.41126 -0.933725 0
M  V30 8130 C 771.025 4.64075 -1.27233 0
M  V30 8131 C 773.377 4.90737 -1.75576 0
M  V30 8132 C 770.705 5.33878 -2.43292 0
M  V30 8133 C 773.057 5.61816 -2.90768 0
M  V30 8134 C 771.721 5.83016 -3.25036 0
M  V30 8135 H 770.991 0.740482 0.0277147 0
M  V30 8136 H 773.638 1.80754 -0.632467 0
M  V30 8137 H 771.943 3.76279 1.09183 0
M  V30 8138 H 773.64 3.94053 0.743184 0
M  V30 8139 H 770.23 4.23489 -0.659935 0
M  V30 8140 H 774.414 4.72856 -1.50734 0
M  V30 8141 H 769.67 5.48499 -2.70109 0
M  V30 8142 H 773.844 5.99237 -3.54807 0
M  V30 8143 H 771.471 6.36881 -4.15074 0
M  V30 8144 N 773.046 0.209999 1.56195 0
M  V30 8145 C 774.276 -0.429373 2.02089 0
M  V30 8146 C 774.684 -1.54703 1.0892 0
M  V30 8147 O 774.027 -1.83485 0.0889535 0
M  V30 8148 C 774.089 -1.03266 3.44349 0
M  V30 8149 C 773.753 -0.0518873 4.56971 0
M  V30 8150 C 774.75 0.744249 5.14545 0
M  V30 8151 C 772.435 0.0635185 5.0226 0
M  V30 8152 C 774.429 1.64261 6.15871 0
M  V30 8153 C 772.116 0.965423 6.03426 0
M  V30 8154 C 773.114 1.75352 6.60106 0
M  V30 8155 O 772.802 2.64029 7.59305 0
M  V30 8156 H 772.534 -0.110604 0.66689 0
M  V30 8157 H 775.088 0.320436 2.02885 0
M  V30 8158 H 773.318 -1.83134 3.40586 0
M  V30 8159 H 775.007 -1.57823 3.73961 0
M  V30 8160 H 775.773 0.665476 4.80413 0
M  V30 8161 H 771.652 -0.539762 4.57829 0
M  V30 8162 H 775.196 2.25819 6.60039 0
M  V30 8163 H 771.093 1.04526 6.36981 0
M  V30 8164 H 771.861 2.57974 7.76783 0
M  V30 8165 N 774.524 -1.57472 -0.0634922 0
M  V30 8166 C 775.454 -2.07297 -1.07473 0
M  V30 8167 C 776.435 -0.968162 -1.39859 0
M  V30 8168 O 777.62 -1.24139 -1.49343 0
M  V30 8169 C 774.75 -2.52381 -2.38581 0
M  V30 8170 C 773.704 -3.66813 -2.20526 0
M  V30 8171 C 773.03 -3.97982 -3.57092 0
M  V30 8172 C 774.33 -4.96553 -1.61965 0
M  V30 8173 H 776.024 -2.92033 -0.660092 0
M  V30 8174 H 773.57 -1.40488 -0.316074 0
M  V30 8175 H 775.523 -2.85852 -3.09624 0
M  V30 8176 H 774.247 -1.64684 -2.8204 0
M  V30 8177 H 772.906 -3.33639 -1.51924 0
M  V30 8178 H 772.554 -3.07403 -3.98136 0
M  V30 8179 H 772.254 -4.7504 -3.45848 0
M  V30 8180 H 773.778 -4.33956 -4.29552 0
M  V30 8181 H 775.192 -5.28201 -2.22883 0
M  V30 8182 H 773.589 -5.7799 -1.61394 0
M  V30 8183 H 774.659 -4.81396 -0.581918 0
M  V30 8184 N 776.003 0.335068 -1.53997 0
M  V30 8185 C 777.251 1.07223 -1.71312 0
M  V30 8186 C 777.572 1.88911 -0.483486 0
M  V30 8187 O 776.842 1.89344 0.50257 0
M  V30 8188 H 775.422 0.398846 -0.63161 0
M  V30 8189 H 778.084 0.374288 -1.91272 0
M  V30 8190 H 777.18 1.7448 -2.58772 0
M  V30 8191 N 777.481 1.45874 0.596531 0
M  V30 8192 C 778.727 1.51679 1.35518 0
M  V30 8193 C 779.082 0.160681 1.91728 0
M  V30 8194 O 778.375 -0.828886 1.72743 0
M  V30 8195 C 778.569 2.54034 2.51399 0
M  V30 8196 C 778.398 3.99465 2.06538 0
M  V30 8197 C 777.168 4.67321 1.92196 0
M  V30 8198 C 779.366 4.87674 1.63336 0
M  V30 8199 N 777.348 5.97427 1.41261 0
M  V30 8200 C 778.719 6.07495 1.23895 0
M  V30 8201 C 780.774 4.74442 1.51028 0
M  V30 8202 C 779.477 7.15548 0.733739 0
M  V30 8203 C 781.503 5.82553 1.0191 0
M  V30 8204 C 780.865 7.01537 0.634403 0
M  V30 8205 H 776.964 0.609933 0.489393 0
M  V30 8206 H 779.548 1.82411 0.680746 0
M  V30 8207 H 777.719 2.25235 3.16424 0
M  V30 8208 H 779.451 2.49918 3.18313 0
M  V30 8209 H 776.206 4.22635 2.1372 0
M  V30 8210 H 776.63 6.66638 1.17995 0
M  V30 8211 H 781.272 3.82855 1.79393 0
M  V30 8212 H 778.99 8.06914 0.437656 0
M  V30 8213 H 782.576 5.74352 0.927977 0
M  V30 8214 H 781.456 7.83768 0.26019 0
M  V30 8215 N 778.959 -0.83999 1.33349 0
M  V30 8216 C 779.891 -1.95678 1.19344 0
M  V30 8217 C 780.904 -1.62322 0.124692 0
M  V30 8218 O 782.093 -1.74516 0.375012 0
M  V30 8219 C 779.193 -3.29133 0.807771 0
M  V30 8220 C 778.366 -3.9063 1.96792 0
M  V30 8221 C 777.425 -5.02438 1.56341 0
M  V30 8222 O 776.451 -5.21646 2.27759 0
M  V30 8223 N 777.653 -5.78612 0.467767 0
M  V30 8224 H 780.418 -2.08229 2.15548 0
M  V30 8225 H 777.979 -1.01566 1.26079 0
M  V30 8226 H 779.971 -4.01355 0.519282 0
M  V30 8227 H 778.541 -3.12535 -0.063555 0
M  V30 8228 H 777.761 -3.11011 2.4221 0
M  V30 8229 H 779.049 -4.2845 2.74422 0
M  V30 8230 H 778.447 -5.65559 -0.126324 0
M  V30 8231 H 777.004 -6.51362 0.238945 0
M  V30 8232 N 780.437 -1.16799 -1.0581 0
M  V30 8233 C 781.677 -0.963264 -1.80279 0
M  V30 8234 C 782.041 0.499671 -1.85384 0
M  V30 8235 O 783.242 0.823264 -2.55882 0
M  V30 8236 C 781.513 -1.57938 -3.20609 0
M  V30 8237 S 783.072 -1.51997 -4.11634 0
M  V30 8238 H 779.89 -0.346302 -0.620964 0
M  V30 8239 H 782.492 -1.48632 -1.26999 0
M  V30 8240 H 781.196 -2.63672 -3.14492 0
M  V30 8241 H 780.727 -1.05586 -3.78966 0
M  V30 8242 H 782.742 -0.523625 -4.93429 0
M  V30 8243 N 781.915 1.24427 -0.967243 0
M  V30 8244 C 782.845 2.2773 -0.515899 0
M  V30 8245 C 783.826 1.64197 0.444227 0
M  V30 8246 O 785.011 1.91193 0.340451 0
M  V30 8247 C 782.141 3.46751 0.195149 0
M  V30 8248 C 781.095 4.22548 -0.680953 0
M  V30 8249 C 780.421 5.34456 0.161561 0
M  V30 8250 C 781.721 4.83914 -1.96532 0
M  V30 8251 H 783.415 2.65735 -1.37933 0
M  V30 8252 H 780.961 1.27742 -0.664681 0
M  V30 8253 H 782.914 4.18153 0.522117 0
M  V30 8254 H 781.638 3.07771 1.09292 0
M  V30 8255 H 780.297 3.52946 -0.991186 0
M  V30 8256 H 779.945 4.91716 1.05947 0
M  V30 8257 H 779.645 5.86087 -0.421418 0
M  V30 8258 H 781.169 6.08685 0.483211 0
M  V30 8259 H 782.583 5.47392 -1.70396 0
M  V30 8260 H 780.98 5.45775 -2.49499 0
M  V30 8261 H 782.05 4.05393 -2.66053 0
M  V30 8262 N 783.393 0.737304 1.3929 0
M  V30 8263 C 784.642 0.283129 1.99703 0
M  V30 8264 C 784.955 -1.13677 1.59176 0
M  V30 8265 O 786.161 -1.69058 2.12442 0
M  V30 8266 C 784.617 0.455262 3.57009 0
M  V30 8267 C 784.225 1.88319 4.06497 0
M  V30 8268 C 785.969 0.0629786 4.24453 0
M  V30 8269 C 783.876 2.00475 5.56385 0
M  V30 8270 H 782.806 0.102106 0.747054 0
M  V30 8271 H 785.457 0.911515 1.5926 0
M  V30 8272 H 783.839 -0.242057 3.9526 0
M  V30 8273 H 785.013 2.61265 3.79575 0
M  V30 8274 H 783.328 2.2289 3.51723 0
M  V30 8275 H 785.925 0.132787 5.34535 0
M  V30 8276 H 786.268 -0.982128 4.04549 0
M  V30 8277 H 786.801 0.71154 3.91385 0
M  V30 8278 H 783.54 3.03182 5.81172 0
M  V30 8279 H 783.06 1.31969 5.85102 0
M  V30 8280 H 784.739 1.787 6.21832 0
M  V30 8281 N 784.871 -1.49948 0.485112 0
M  V30 8282 C 785.834 -2.27351 -0.290546 0
M  V30 8283 C 786.834 -1.32704 -0.908087 0
M  V30 8284 O 788.024 -1.56007 -0.775085 0
M  V30 8285 C 785.156 -3.10135 -1.41524 0
M  V30 8286 H 786.349 -2.97374 0.388454 0
M  V30 8287 H 783.902 -1.54453 0.239586 0
M  V30 8288 H 784.637 -2.44641 -2.12888 0
M  V30 8289 H 784.422 -3.79705 -0.978074 0
M  V30 8290 H 785.912 -3.68638 -1.96204 0
M  V30 8291 N 786.349 -0.21828 -1.56081 0
M  V30 8292 C 787.279 0.687922 -2.23136 0
M  V30 8293 C 788.26 1.20357 -1.202 0
M  V30 8294 O 789.445 1.24817 -1.48776 0
M  V30 8295 C 786.575 1.89762 -2.90874 0
M  V30 8296 C 785.529 1.51595 -4.00254 0
M  V30 8297 C 784.855 2.80415 -4.55271 0
M  V30 8298 C 786.155 0.708404 -5.17474 0
M  V30 8299 H 787.849 0.128854 -2.99123 0
M  V30 8300 H 785.395 0.0605354 -1.43873 0
M  V30 8301 H 787.348 2.53699 -3.36474 0
M  V30 8302 H 786.072 2.4816 -2.1233 0
M  V30 8303 H 784.731 0.900058 -3.55379 0
M  V30 8304 H 784.379 3.36951 -3.73461 0
M  V30 8305 H 784.079 2.55613 -5.2909 0
M  V30 8306 H 785.603 3.453 -5.03587 0
M  V30 8307 H 787.017 1.2514 -5.59476 0
M  V30 8308 H 785.414 0.557593 -5.97504 0
M  V30 8309 H 786.484 -0.285679 -4.84058 0
M  V30 8310 N 787.827 1.57504 0.0551401 0
M  V30 8311 C 789.075 1.87684 0.74962 0
M  V30 8312 C 789.396 0.812547 1.77264 0
M  V30 8313 O 788.666 -0.15694 1.9527 0
M  V30 8314 H 787.246 0.6926 0.279846 0
M  V30 8315 H 789.908 1.94881 0.0272745 0
M  V30 8316 H 789.004 2.85734 1.25548 0
M  V30 8317 N 789.305 -0.326896 1.54172 0
M  V30 8318 C 790.238 -1.42591 1.78166 0
M  V30 8319 C 791.216 -1.49837 0.631484 0
M  V30 8320 O 792.4 -1.67298 0.868544 0
M  V30 8321 C 789.527 -2.8071 1.89524 0
M  V30 8322 C 788.573 -2.91012 3.11792 0
M  V30 8323 S 789.406 -2.55763 4.70474 0
M  V30 8324 C 790.562 -3.9596 4.84733 0
M  V30 8325 H 790.795 -1.22024 2.71104 0
M  V30 8326 H 788.328 -0.523539 1.45253 0
M  V30 8327 H 790.286 -3.60276 1.96753 0
M  V30 8328 H 788.947 -2.98562 0.975696 0
M  V30 8329 H 788.14 -3.92258 3.16464 0
M  V30 8330 H 787.742 -2.19414 3.02876 0
M  V30 8331 H 790.034 -4.90676 4.67166 0
M  V30 8332 H 790.977 -3.96273 5.86833 0
M  V30 8333 H 791.385 -3.8476 4.13062 0
M  V30 8334 N 790.784 -1.46188 -0.588786 0
M  V30 8335 C 792.009 -1.5498 -1.37826 0
M  V30 8336 C 792.434 -0.189498 -1.87143 0
M  V30 8337 O 791.792 0.829293 -1.61222 0
M  V30 8338 C 791.84 -2.55369 -2.54596 0
M  V30 8339 O 790.944 -2.08452 -3.55839 0
M  V30 8340 H 790.285 -0.521741 -0.41071 0
M  V30 8341 H 792.815 -1.91708 -0.714779 0
M  V30 8342 H 792.825 -2.74782 -3.01594 0
M  V30 8343 H 791.5 -3.54155 -2.18052 0
M  V30 8344 H 790.077 -1.98999 -3.15363 0
M  V30 8345 N 792.262 0.832906 -1.33792 0
M  V30 8346 C 793.509 1.58853 -1.25586 0
M  V30 8347 C 793.837 1.93695 0.176807 0
M  V30 8348 O 793.092 1.59386 1.13554 0
M  V30 8349 C 793.391 2.9047 -2.08235 0
M  V30 8350 C 793.057 2.74965 -3.57358 0
M  V30 8351 C 791.719 2.70444 -3.98012 0
M  V30 8352 C 794.071 2.59347 -4.52093 0
M  V30 8353 C 791.399 2.48212 -5.31608 0
M  V30 8354 C 793.751 2.38649 -5.85858 0
M  V30 8355 C 792.415 2.32533 -6.25687 0
M  V30 8356 H 791.685 0.581285 -0.459553 0
M  V30 8357 H 794.332 0.964501 -1.65438 0
M  V30 8358 H 792.637 3.57111 -1.6118 0
M  V30 8359 H 794.334 3.48001 -1.99239 0
M  V30 8360 H 790.924 2.79319 -3.25083 0
M  V30 8361 H 795.108 2.6187 -4.2159 0
M  V30 8362 H 790.364 2.41929 -5.61498 0
M  V30 8363 H 794.538 2.25549 -6.58863 0
M  V30 8364 H 792.165 2.15067 -7.29143 0
M  V30 8365 N 793.74 1.17359 1.05189 0
M  V30 8366 C 794.67 0.91365 2.14883 0
M  V30 8367 C 795.651 -0.144365 1.69486 0
M  V30 8368 O 796.836 0.00587861 1.94199 0
M  V30 8369 C 793.966 0.426196 3.44675 0
M  V30 8370 C 792.92 1.4234 4.03638 0
M  V30 8371 C 792.246 0.793902 5.28773 0
M  V30 8372 C 793.546 2.7966 4.41121 0
M  V30 8373 H 795.24 1.831 2.36885 0
M  V30 8374 H 792.786 0.881781 1.13845 0
M  V30 8375 H 794.739 0.231767 4.20762 0
M  V30 8376 H 793.463 -0.526693 3.22325 0
M  V30 8377 H 792.122 1.60457 3.2962 0
M  V30 8378 H 791.77 -0.165824 5.02727 0
M  V30 8379 H 791.47 1.45959 5.69183 0
M  V30 8380 H 792.994 0.609747 6.07548 0
M  V30 8381 H 794.408 2.6526 5.08242 0
M  V30 8382 H 792.805 3.42807 4.92548 0
M  V30 8383 H 793.875 3.34068 3.51464 0
M  V30 8384 N 795.218 -1.23913 0.973828 0
M  V30 8385 C 796.495 -1.87539 0.555729 0
M  V30 8386 C 796.875 -1.87641 -0.967162 0
M  V30 8387 O 796.223 -1.35335 -1.84111 0
M  V30 8388 C 796.433 -3.29359 1.15427 0
M  V30 8389 C 797.781 -4.06 1.24294 0
M  V30 8390 O 798.805 -3.38554 1.10723 0
M  V30 8391 O 797.664 -5.26689 1.45813 0
M  V30 8392 H 794.758 -0.805769 0.186188 0
M  V30 8393 H 797.304 -1.31838 1.06849 0
M  V30 8394 H 796.076 -3.23817 2.19678 0
M  V30 8395 H 795.699 -3.92642 0.625925 0
M  V30 8396 N 796.696 -0.74468 -1.38897 0
M  V30 8397 C 797.936 -0.301691 -2.02161 0
M  V30 8398 C 798.3 1.09338 -1.57826 0
M  V30 8399 O 799.501 1.63499 -2.13358 0
M  V30 8400 C 797.772 -0.410601 -3.55034 0
M  V30 8401 S 799.331 -0.0488802 -4.38773 0
M  V30 8402 H 796.149 -0.117583 -0.70121 0
M  V30 8403 H 798.751 -0.973334 -1.69548 0
M  V30 8404 H 797.455 -1.42705 -3.8479 0
M  V30 8405 H 796.986 0.278531 -3.92413 0
M  V30 8406 H 799.001 1.16434 -4.82346 0
M  V30 8407 N 798.174 1.49689 -0.493057 0
M  V30 8408 C 799.422 2.02027 0.0541642 0
M  V30 8409 C 799.743 1.37554 1.38217 0
M  V30 8410 O 799.013 0.528174 1.88646 0
M  V30 8411 H 797.593 0.746646 0.0230069 0
M  V30 8412 H 800.255 1.83795 -0.648489 0
M  V30 8413 H 799.351 3.11523 0.189652 0
M  V30 8414 N 799.652 0.226554 1.55963 0
M  V30 8415 C 800.602 -0.694986 2.1715 0
M  V30 8416 C 801.586 -1.15394 1.12129 0
M  V30 8417 O 802.778 -1.1071 1.38102 0
M  V30 8418 C 799.907 -1.9007 2.85882 0
M  V30 8419 C 798.993 -1.46119 3.98133 0
M  V30 8420 N 799.384 -0.734584 5.00437 0
M  V30 8421 C 797.682 -1.74809 4.10314 0
M  V30 8422 C 798.383 -0.509773 5.79462 0
M  V30 8423 N 797.359 -1.06796 5.33006 0
M  V30 8424 H 801.161 -0.131469 2.93606 0
M  V30 8425 H 798.675 0.0280165 1.62376 0
M  V30 8426 H 800.672 -2.57169 3.28131 0
M  V30 8427 H 799.332 -2.46864 2.10923 0
M  V30 8428 H 800.343 -0.386757 5.16454 0
M  V30 8429 H 797.02 -2.32887 3.46511 0
M  V30 8430 H 798.41 0.0688847 6.71865 0
M  V30 8431 N 801.13 -1.57531 -0.0467866 0
M  V30 8432 C 802.358 -1.92696 -0.753371 0
M  V30 8433 C 802.773 -0.824792 -1.69831 0
M  V30 8434 O 802.13 0.200155 -1.81399 0
M  V30 8435 C 802.181 -3.27728 -1.52566 0
M  V30 8436 O 801.902 -4.3371 -0.618674 0
M  V30 8437 C 803.403 -3.77066 -2.33101 0
M  V30 8438 H 800.623 -0.636367 -0.212788 0
M  V30 8439 H 803.167 -2.04498 -0.00959361 0
M  V30 8440 H 801.322 -3.17378 -2.22148 0
M  V30 8441 H 801.736 -5.11548 -1.15839 0
M  V30 8442 H 803.21 -4.74109 -2.82709 0
M  V30 8443 H 803.687 -3.07348 -3.13741 0
M  V30 8444 H 804.293 -3.90442 -1.68628 0
M  V30 8445 N 802.608 0.318715 -1.54344 0
M  V30 8446 C 803.848 1.06425 -1.74508 0
M  V30 8447 C 804.212 1.85087 -0.510572 0
M  V30 8448 O 805.413 2.62253 -0.589647 0
M  V30 8449 C 803.684 1.96054 -2.98827 0
M  V30 8450 S 805.243 2.77493 -3.39916 0
M  V30 8451 H 802.061 0.35921 -0.613587 0
M  V30 8452 H 804.663 0.339679 -1.92526 0
M  V30 8453 H 803.367 1.37109 -3.8682 0
M  V30 8454 H 802.898 2.72908 -2.83346 0
M  V30 8455 H 804.913 3.98544 -2.95596 0
M  V30 8456 N 804.086 1.46499 0.581025 0
M  V30 8457 C 805.036 1.53606 1.68491 0
M  V30 8458 C 806.02 0.396853 1.55929 0
M  V30 8459 O 807.212 0.645366 1.64815 0
M  V30 8460 C 804.341 1.53089 3.07276 0
M  V30 8461 C 803.427 2.72309 3.25128 0
M  V30 8462 N 803.818 3.97216 3.13134 0
M  V30 8463 C 802.116 2.68568 3.56072 0
M  V30 8464 C 802.817 4.7693 3.33036 0
M  V30 8465 N 801.793 4.08833 3.58269 0
M  V30 8466 H 805.595 2.47976 1.5775 0
M  V30 8467 H 803.109 1.42161 0.785104 0
M  V30 8468 H 805.106 1.56268 3.86505 0
M  V30 8469 H 803.766 0.597969 3.19146 0
M  V30 8470 H 804.777 4.28439 2.90964 0
M  V30 8471 H 801.454 1.84307 3.74616 0
M  V30 8472 H 802.844 5.85879 3.28932 0
M  V30 8473 N 805.565 -0.825799 1.34232 0
M  V30 8474 C 806.495 -1.95151 1.28212 0
M  V30 8475 C 807.476 -1.69345 0.160123 0
M  V30 8476 O 808.661 -1.90983 0.352019 0
M  V30 8477 C 805.791 -3.31554 1.03388 0
M  V30 8478 C 804.745 -3.71793 2.12023 0
M  V30 8479 C 804.071 -5.06147 1.72392 0
M  V30 8480 C 805.371 -3.84193 3.53826 0
M  V30 8481 H 807.065 -2.00445 2.22401 0
M  V30 8482 H 804.611 -0.962996 1.07063 0
M  V30 8483 H 806.564 -4.09889 0.978225 0
M  V30 8484 H 805.288 -3.26551 0.0564142 0
M  V30 8485 H 803.947 -2.95731 2.16654 0
M  V30 8486 H 803.595 -4.97628 0.733137 0
M  V30 8487 H 803.295 -5.34041 2.451 0
M  V30 8488 H 804.819 -5.86943 1.68317 0
M  V30 8489 H 806.233 -4.52806 3.51624 0
M  V30 8490 H 804.63 -4.23538 4.2513 0
M  V30 8491 H 805.7 -2.86272 3.91377 0
M  V30 8492 N 807.043 -1.17915 -1.04565 0
M  V30 8493 C 808.291 -0.969505 -1.77327 0
M  V30 8494 C 808.612 0.502569 -1.88412 0
M  V30 8495 O 807.882 1.36467 -1.40547 0
M  V30 8496 H 806.462 -0.355723 -0.656864 0
M  V30 8497 H 809.124 -1.48506 -1.26223 0
M  V30 8498 H 808.22 -1.40324 -2.78775 0
M  V30 8499 N 808.521 1.23394 -0.980386 0
M  V30 8500 C 809.451 2.2717 -0.540024 0
M  V30 8501 C 810.432 1.64659 0.426787 0
M  V30 8502 O 811.617 1.91543 0.320153 0
M  V30 8503 C 808.747 3.46939 0.15836 0
M  V30 8504 C 807.701 4.21802 -0.725732 0
M  V30 8505 C 807.027 5.34597 0.104866 0
M  V30 8506 C 808.327 4.81802 -2.01654 0
M  V30 8507 H 810.021 2.64257 -1.40743 0
M  V30 8508 H 807.567 1.2703 -0.678193 0
M  V30 8509 H 809.52 4.18683 0.477737 0
M  V30 8510 H 808.244 3.08912 1.06022 0
M  V30 8511 H 806.903 3.51875 -1.02857 0
M  V30 8512 H 806.551 4.92812 1.00726 0
M  V30 8513 H 806.251 5.85607 -0.483557 0
M  V30 8514 H 807.775 6.09163 0.418624 0
M  V30 8515 H 809.189 5.45554 -1.76193 0
M  V30 8516 H 807.586 5.43098 -2.55273 0
M  V30 8517 H 808.656 4.02549 -2.70338 0
M  V30 8518 N 809.999 0.752036 1.385 0
M  V30 8519 C 811.227 0.318274 2.04437 0
M  V30 8520 C 811.642 -1.05285 1.56718 0
M  V30 8521 O 810.999 -1.66844 0.73956 0
M  V30 8522 C 811.05 0.330106 3.5999 0
M  V30 8523 O 810.771 1.64712 4.05957 0
M  V30 8524 C 812.272 -0.117713 4.43144 0
M  V30 8525 H 809.492 0.136228 0.657026 0
M  V30 8526 H 812.036 1.02045 1.7722 0
M  V30 8527 H 810.191 -0.323323 3.86048 0
M  V30 8528 H 810.605 1.57225 5.0038 0
M  V30 8529 H 812.079 -0.0582735 5.51969 0
M  V30 8530 H 812.556 -1.16538 4.23457 0
M  V30 8531 H 813.162 0.506784 4.2227 0
M  V30 8532 N 811.477 -1.49425 0.500989 0
M  V30 8533 C 812.44 -2.27646 -0.266416 0
M  V30 8534 C 813.44 -1.3366 -0.893961 0
M  V30 8535 O 814.63 -1.5682 -0.758495 0
M  V30 8536 C 811.762 -3.11618 -1.38227 0
M  V30 8537 H 812.955 -2.96945 0.419973 0
M  V30 8538 H 810.508 -1.5419 0.255954 0
M  V30 8539 H 811.243 -2.46885 -2.10281 0
M  V30 8540 H 811.028 -3.80721 -0.937746 0
M  V30 8541 H 812.518 -3.70698 -1.92283 0
M  V30 8542 N 812.955 -0.234822 -1.55841 0
M  V30 8543 C 813.887 0.702346 -2.18174 0
M  V30 8544 C 814.9 1.14776 -1.15457 0
M  V30 8545 O 816.089 1.07662 -1.42377 0
M  V30 8546 C 813.189 1.96483 -2.76129 0
M  V30 8547 C 812.362 1.67283 -4.04148 0
M  V30 8548 C 811.421 2.7837 -4.46539 0
M  V30 8549 O 810.447 2.46272 -5.13166 0
M  V30 8550 N 811.649 4.07611 -4.1332 0
M  V30 8551 H 814.414 0.169074 -2.99223 0
M  V30 8552 H 811.975 -0.0543164 -1.61809 0
M  V30 8553 H 813.967 2.70016 -3.01452 0
M  V30 8554 H 812.537 2.40822 -1.99307 0
M  V30 8555 H 811.757 0.773278 -3.86541 0
M  V30 8556 H 813.045 1.45222 -4.87635 0
M  V30 8557 H 812.443 4.36527 -3.59806 0
M  V30 8558 H 811 4.77646 -4.43506 0
M  V30 8559 N 814.433 1.57553 0.0384317 0
M  V30 8560 C 815.844 1.77258 0.586211 0
M  V30 8561 C 816.195 0.864706 1.76117 0
M  V30 8562 O 815.32 0.057141 2.16325 0
M  V30 8563 C 815.915 3.21453 1.07021 0
M  V30 8564 C 814.474 3.42387 1.56358 0
M  V30 8565 C 813.621 2.72801 0.497508 0
M  V30 8566 H 816.572 1.57585 -0.187796 0
M  V30 8567 H 816.593 3.27451 1.93794 0
M  V30 8568 H 816.105 3.87505 0.214851 0
M  V30 8569 H 814.206 2.81497 2.44111 0
M  V30 8570 H 814.319 4.50968 1.61754 0
M  V30 8571 H 812.683 2.36305 0.95038 0
M  V30 8572 H 813.466 3.41529 -0.348234 0
M  V30 8573 N 815.911 -0.310526 1.54511 0
M  V30 8574 C 816.821 -1.4054 1.87844 0
M  V30 8575 C 817.837 -1.55954 0.771635 0
M  V30 8576 O 819.013 -1.70801 1.06719 0
M  V30 8577 C 816.078 -2.75063 2.11048 0
M  V30 8578 C 815.139 -2.68715 3.348 0
M  V30 8579 C 814.372 -3.96821 3.56887 0
M  V30 8580 O 814.595 -4.95721 2.82165 0
M  V30 8581 O 813.529 -3.99291 4.50389 0
M  V30 8582 H 817.355 -1.15275 2.80972 0
M  V30 8583 H 814.94 -0.505732 1.4058 0
M  V30 8584 H 816.822 -3.54671 2.27566 0
M  V30 8585 H 815.497 -3.00191 1.21108 0
M  V30 8586 H 814.404 -1.87611 3.23655 0
M  V30 8587 H 815.737 -2.4854 4.2484 0
M  V30 8588 N 817.389 -1.46805 -0.573248 0
M  V30 8589 C 818.319 -1.60951 -1.69165 0
M  V30 8590 C 819.3 -0.45948 -1.63777 0
M  V30 8591 O 820.485 -0.68688 -1.81647 0
M  V30 8592 C 817.615 -1.60844 -3.07809 0
M  V30 8593 C 816.569 -2.74913 -3.28035 0
M  V30 8594 C 815.895 -2.59871 -4.67302 0
M  V30 8595 C 817.195 -4.16654 -3.14955 0
M  V30 8596 H 818.889 -2.54574 -1.57582 0
M  V30 8597 H 816.435 -1.22516 -0.756686 0
M  V30 8598 H 818.388 -1.69334 -3.85881 0
M  V30 8599 H 817.112 -0.637714 -3.20314 0
M  V30 8600 H 815.771 -2.65908 -2.52366 0
M  V30 8601 H 815.419 -1.60861 -4.76585 0
M  V30 8602 H 815.119 -3.36386 -4.81786 0
M  V30 8603 H 816.643 -2.70265 -5.4753 0
M  V30 8604 H 818.057 -4.26721 -3.82861 0
M  V30 8605 H 816.454 -4.93831 -3.40956 0
M  V30 8606 H 817.524 -4.36146 -2.11908 0
M  V30 8607 N 818.867 0.818669 -1.34668 0
M  V30 8608 C 820.097 1.60441 -1.30162 0
M  V30 8609 C 820.505 1.88783 0.125579 0
M  V30 8610 O 819.848 1.48281 1.08437 0
M  V30 8611 C 819.91 2.96794 -2.02864 0
M  V30 8612 C 819.574 2.91327 -3.52105 0
M  V30 8613 C 820.571 2.65611 -4.4693 0
M  V30 8614 C 818.256 3.10825 -3.9458 0
M  V30 8615 C 820.25 2.59452 -5.82206 0
M  V30 8616 C 817.937 3.0429 -5.29954 0
M  V30 8617 C 818.935 2.78637 -6.23579 0
M  V30 8618 O 818.623 2.72042 -7.56471 0
M  V30 8619 H 818.355 0.505278 -0.449077 0
M  V30 8620 H 820.909 1.02632 -1.77921 0
M  V30 8621 H 819.139 3.56538 -1.49725 0
M  V30 8622 H 820.828 3.57837 -1.91592 0
M  V30 8623 H 821.594 2.50278 -4.15434 0
M  V30 8624 H 817.473 3.29807 -3.221 0
M  V30 8625 H 821.017 2.39349 -6.55254 0
M  V30 8626 H 816.914 3.19177 -5.61067 0
M  V30 8627 H 817.682 2.87738 -7.66257 0
M  V30 8628 N 820.346 1.18468 1.03938 0
M  V30 8629 C 821.276 0.936389 2.13902 0
M  V30 8630 C 822.257 -0.126381 1.6963 0
M  V30 8631 O 823.442 0.0264757 1.94182 0
M  V30 8632 C 820.572 0.462729 3.44204 0
M  V30 8633 C 819.526 1.46613 4.02105 0
M  V30 8634 C 818.852 0.84994 5.27902 0
M  V30 8635 C 820.152 2.84323 4.3813 0
M  V30 8636 H 821.846 1.85602 2.3493 0
M  V30 8637 H 819.392 0.893806 1.12903 0
M  V30 8638 H 821.345 0.276382 4.20493 0
M  V30 8639 H 820.069 -0.492477 3.22866 0
M  V30 8640 H 818.728 1.63944 3.27899 0
M  V30 8641 H 818.376 -0.112493 5.02874 0
M  V30 8642 H 818.076 1.51988 5.67603 0
M  V30 8643 H 819.6 0.674152 6.06867 0
M  V30 8644 H 821.014 2.70636 5.054 0
M  V30 8645 H 819.411 3.48012 4.88884 0
M  V30 8646 H 820.481 3.37776 3.47901 0
M  V30 8647 N 821.824 -1.22873 0.986916 0
M  V30 8648 C 822.754 -2.2688 0.552064 0
M  V30 8649 C 823.735 -1.64883 -0.418048 0
M  V30 8650 O 824.92 -1.9171 -0.30999 0
M  V30 8651 C 822.05 -3.47018 -0.139959 0
M  V30 8652 C 821.004 -4.21411 0.748091 0
M  V30 8653 C 820.33 -5.34645 -0.0765132 0
M  V30 8654 C 821.63 -4.80726 2.04206 0
M  V30 8655 H 823.324 -2.63507 1.42143 0
M  V30 8656 H 820.87 -1.26668 0.68492 0
M  V30 8657 H 822.823 -4.18931 -0.455527 0
M  V30 8658 H 821.547 -3.0947 -1.04382 0
M  V30 8659 H 820.206 -3.51325 1.04721 0
M  V30 8660 H 819.854 -4.93339 -0.981109 0
M  V30 8661 H 819.554 -5.85342 0.514606 0
M  V30 8662 H 821.078 -6.09377 -0.386313 0
M  V30 8663 H 822.492 -5.44612 1.79083 0
M  V30 8664 H 820.889 -5.41737 2.5815 0
M  V30 8665 H 821.959 -4.01109 2.72469 0
M  V30 8666 N 823.302 -0.75937 -1.38099 0
M  V30 8667 C 824.25 -0.124954 -2.32264 0
M  V30 8668 C 825.244 0.698863 -1.54312 0
M  V30 8669 O 826.45 0.597312 -1.698 0
M  V30 8670 H 822.825 -0.0216142 -0.751689 0
M  V30 8671 H 824.796 -0.935115 -2.83369 0
M  V30 8672 C 823.545 0.749463 -3.39527 0
M  V30 8673 H 822.868 0.124932 -3.99605 0
M  V30 8674 H 824.308 1.16055 -4.07808 0
M  V30 8675 C 822.767 1.89464 -2.78577 0
M  V30 8676 O 823.297 2.98923 -2.68343 0
M  V30 8677 N 821.503 1.69145 -2.36301 0
M  V30 8678 H 821.05 0.801157 -2.44825 0
M  V30 8679 H 821.008 2.45936 -1.95864 0
M  V30 8680 N 824.78 1.49157 -0.508906 0
M  V30 8681 C 826.008 2.06879 0.0293734 0
M  V30 8682 C 826.423 1.36823 1.30095 0
M  V30 8683 O 825.78 0.449034 1.7689 0
M  V30 8684 C 825.831 3.60423 0.278791 0
M  V30 8685 O 825.552 4.27844 -0.942389 0
M  V30 8686 C 827.053 4.34881 0.859825 0
M  V30 8687 H 824.273 0.67057 -0.0240184 0
M  V30 8688 H 826.817 1.91834 -0.708526 0
M  V30 8689 H 824.972 3.75145 0.966689 0
M  V30 8690 H 825.386 5.19671 -0.710097 0
M  V30 8691 H 826.86 5.43161 0.983884 0
M  V30 8692 H 827.337 3.9789 1.85958 0
M  V30 8693 H 827.943 4.24785 0.209152 0
M  V30 8694 N 826.258 0.243083 1.55714 0
M  V30 8695 C 827.191 -0.698623 2.17243 0
M  V30 8696 C 828.169 -1.1756 1.12331 0
M  V30 8697 O 829.353 -1.25444 1.40699 0
M  V30 8698 C 826.48 -1.94901 2.77004 0
M  V30 8699 C 825.526 -1.61022 3.94936 0
M  V30 8700 S 826.359 -0.716173 5.30689 0
M  V30 8701 C 827.515 -1.97565 5.93901 0
M  V30 8702 H 827.748 -0.175724 2.9678 0
M  V30 8703 H 825.281 0.0275727 1.54375 0
M  V30 8704 H 827.239 -2.66687 3.12071 0
M  V30 8705 H 825.9 -2.44304 1.9742 0
M  V30 8706 H 825.093 -2.5398 4.35328 0
M  V30 8707 H 824.695 -0.972829 3.61126 0
M  V30 8708 H 826.987 -2.92333 6.11186 0
M  V30 8709 H 827.93 -1.61528 6.8943 0
M  V30 8710 H 828.338 -2.126 5.22935 0
M  V30 8711 N 827.736 -1.57571 -0.0300757 0
M  V30 8712 C 829.013 -1.80381 -0.756447 0
M  V30 8713 C 829.393 -0.840906 -1.93628 0
M  V30 8714 O 828.741 0.117143 -2.282 0
M  V30 8715 C 828.951 -3.2807 -1.19043 0
M  V30 8716 C 830.299 -3.93025 -1.60676 0
M  V30 8717 O 831.323 -3.32213 -1.28503 0
M  V30 8718 O 830.182 -5.00092 -2.20386 0
M  V30 8719 H 827.276 -0.741737 -0.365725 0
M  V30 8720 H 829.822 -1.69699 -0.00693177 0
M  V30 8721 H 828.594 -3.89748 -0.348128 0
M  V30 8722 H 828.217 -3.43637 -1.99999 0
M  V30 8723 N 829.214 0.302327 -1.54673 0
M  V30 8724 C 830.177 1.35592 -1.8479 0
M  V30 8725 C 831.177 1.43743 -0.72073 0
M  V30 8726 O 832.367 1.43402 -0.989017 0
M  V30 8727 C 829.499 2.74091 -2.02699 0
M  V30 8728 H 830.692 1.10132 -2.78946 0
M  V30 8729 H 828.245 0.538926 -1.46715 0
M  V30 8730 H 828.98 3.04775 -1.10826 0
M  V30 8731 H 828.765 2.69565 -2.8474 0
M  V30 8732 H 830.255 3.50272 -2.27374 0
M  V30 8733 N 830.692 1.47107 0.565454 0
M  V30 8734 C 831.969 1.43787 1.32607 0
M  V30 8735 C 832.349 0.130428 2.10697 0
M  V30 8736 O 831.697 -0.888086 2.10536 0
M  V30 8737 C 831.907 2.67833 2.23755 0
M  V30 8738 C 833.255 3.14704 2.85037 0
M  V30 8739 O 834.279 2.68503 2.34061 0
M  V30 8740 O 833.138 3.95002 3.77671 0
M  V30 8741 H 830.232 0.572623 0.596684 0
M  V30 8742 H 832.778 1.59296 0.58504 0
M  V30 8743 H 831.55 3.54532 1.65597 0
M  V30 8744 H 831.173 2.54869 3.05168 0
M  V30 8745 N 832.17 -0.811516 1.35101 0
M  V30 8746 C 833.395 -1.60499 1.31358 0
M  V30 8747 C 833.82 -1.87793 -0.107383 0
M  V30 8748 O 833.178 -1.46161 -1.07268 0
M  V30 8749 C 833.226 -2.91612 2.12119 0
M  V30 8750 O 832.33 -3.84211 1.49853 0
M  V30 8751 H 831.671 -0.487702 0.450603 0
M  V30 8752 H 834.201 -1.00758 1.7807 0
M  V30 8753 H 834.211 -3.4108 2.23894 0
M  V30 8754 H 832.886 -2.71071 3.15426 0
M  V30 8755 H 831.463 -3.42751 1.46889 0
M  V30 8756 N 833.648 -1.19017 -1.03309 0
M  V30 8757 C 834.578 -0.94772 -2.13402 0
M  V30 8758 C 835.559 0.117383 -1.69694 0
M  V30 8759 O 836.744 -0.0367733 -1.94165 0
M  V30 8760 C 833.874 -0.480977 -3.43953 0
M  V30 8761 C 832.828 -1.48743 -4.01322 0
M  V30 8762 C 832.154 -0.877924 -5.27443 0
M  V30 8763 C 833.454 -2.86642 -4.36616 0
M  V30 8764 H 835.148 -1.86846 -2.33942 0
M  V30 8765 H 832.694 -0.899781 -1.12427 0
M  V30 8766 H 834.647 -0.298677 -4.2034 0
M  V30 8767 H 833.371 0.475348 -3.23122 0
M  V30 8768 H 832.03 -1.65681 -3.27025 0
M  V30 8769 H 831.678 0.0858232 -5.02927 0
M  V30 8770 H 831.378 -1.54996 -5.66789 0
M  V30 8771 H 832.902 -0.706326 -6.06501 0
M  V30 8772 H 834.316 -2.73312 -5.03958 0
M  V30 8773 H 832.713 -3.50599 -4.87032 0
M  V30 8774 H 833.783 -3.39617 -3.46105 0
M  V30 8775 N 835.127 1.22348 -0.993418 0
M  V30 8776 C 836.373 1.91393 -0.67056 0
M  V30 8777 C 836.706 1.77163 0.795428 0
M  V30 8778 O 835.981 1.14084 1.57528 0
M  V30 8779 C 836.264 3.43589 -1.0779 0
M  V30 8780 C 836.117 3.66867 -2.60248 0
M  V30 8781 C 837.436 4.35545 -0.631527 0
M  V30 8782 H 834.555 0.695057 -0.24508 0
M  V30 8783 H 837.197 1.44213 -1.23703 0
M  V30 8784 H 835.347 3.83903 -0.595902 0
M  V30 8785 H 837.019 3.35954 -3.16121 0
M  V30 8786 H 835.262 3.1113 -3.02293 0
M  V30 8787 H 835.933 4.73457 -2.838 0
M  V30 8788 H 838.409 4.0275 -1.04554 0
M  V30 8789 H 837.285 5.40707 -0.944831 0
M  V30 8790 H 837.546 4.39618 0.467779 0
M  V30 8791 N 836.605 0.766683 1.37694 0
M  V30 8792 C 837.83 0.338715 2.04615 0
M  V30 8793 C 838.255 -1.02918 1.57447 0
M  V30 8794 O 837.613 -1.65849 0.732386 0
M  V30 8795 C 837.661 0.385284 3.58536 0
M  V30 8796 O 836.765 -0.616081 4.07772 0
M  V30 8797 H 836.106 0.147527 0.647404 0
M  V30 8798 H 838.636 1.04146 1.7611 0
M  V30 8799 H 838.646 0.240782 4.07289 0
M  V30 8800 H 837.321 1.38325 3.92223 0
M  V30 8801 H 835.898 -0.435115 3.70353 0
M  V30 8802 N 838.083 -1.48885 0.516809 0
M  V30 8803 C 839.499 -1.58651 0.173788 0
M  V30 8804 C 839.699 -1.52033 -1.32243 0
M  V30 8805 O 838.755 -1.40251 -2.09967 0
M  V30 8806 C 840.068 -2.90816 0.764628 0
M  V30 8807 C 841.616 -3.04316 0.732164 0
M  V30 8808 C 842.091 -4.39123 1.30135 0
M  V30 8809 N 843.582 -4.45656 1.26273 0
M  V30 8810 C 844.317 -5.48446 1.67317 0
M  V30 8811 N 843.813 -6.58258 2.16028 0
M  V30 8812 N 845.606 -5.39251 1.58635 0
M  V30 8813 H 837.757 -1.5143 1.48939 0
M  V30 8814 H 840.02 -0.718243 0.618733 0
M  V30 8815 H 839.726 -3.01275 1.81456 0
M  V30 8816 H 839.6 -3.76473 0.234113 0
M  V30 8817 H 841.987 -2.93478 -0.308975 0
M  V30 8818 H 842.068 -2.20303 1.3 0
M  V30 8819 H 841.712 -4.50714 2.34135 0
M  V30 8820 H 841.642 -5.21801 0.709305 0
M  V30 8821 H 844.133 -3.66879 0.906006 0
M  V30 8822 H 844.446 -7.32811 2.45374 0
M  V30 8823 H 842.791 -6.59257 2.20013 0
M  V30 8824 H 845.982 -4.52354 1.20387 0
M  V30 8825 H 846.155 -6.19229 1.90944 0
M  V30 8826 O 839.6 -0.393142 -1.56642 0
M  V30 8827 H 840.291 0.151122 -1.9311 0
M  V30 END ATOM
M  V30 BEGIN BOND
M  V30 END BOND
M  V30 END CTAB
M  END
$$$$
