drugbank_target|P49228 50S ribosomal protein L32 (DB13179)
 OpenBabel12092120363D

958970  0  0  0  0  0  0  0  0999 V2000
   -0.9080    1.9825   -0.1171 H   0  0  0  0  0 15  0  0  0  0  0  0
    0.0000    1.5760    0.0000 N   0  0  0  0  0 15  0  0  0  0  0  0
    0.9330    2.0387    1.0253 C   0  0  0  0  0 15  0  0  0  0  0  0
    1.9110    0.9285    1.3348 C   0  0  0  0  0 15  0  0  0  0  0  0
    3.0950    1.1967    1.4564 O   0  0  0  0  0 15  0  0  0  0  0  0
    0.2220    2.4363    2.3529 C   0  0  0  0  0 15  0  0  0  0  0  0
   -0.7320    3.6537    2.2001 C   0  0  0  0  0 15  0  0  0  0  0  0
    0.1010    5.1329    1.5261 S   0  0  0  0  0 15  0  0  0  0  0  0
    1.2570    5.5632    2.8680 C   0  0  0  0  0 15  0  0  0  0  0  0
    1.4900    2.9052    0.6314 H   0  0  0  0  0 15  0  0  0  0  0  0
   -0.9770    1.5295    0.2109 H   0  0  0  0  0 15  0  0  0  0  0  0
    0.9810    2.6720    3.1163 H   0  0  0  0  0 15  0  0  0  0  0  0
   -0.3580    1.5738    2.7183 H   0  0  0  0  0 15  0  0  0  0  0  0
   -1.1650    3.9094    3.1809 H   0  0  0  0  0 15  0  0  0  0  0  0
   -1.5630    3.4180    1.5182 H   0  0  0  0  0 15  0  0  0  0  0  0
    0.7290    5.5878    3.8310 H   0  0  0  0  0 15  0  0  0  0  0  0
    1.6720    6.5627    2.6593 H   0  0  0  0  0 15  0  0  0  0  0  0
    2.0800    4.8389    2.9071 H   0  0  0  0  0 15  0  0  0  0  0  0
    1.4781   -0.2728    1.5522 N   0  0  0  0  0 15  0  0  0  0  0  0
    2.4411   -1.3204    1.8734 C   0  0  0  0  0 15  0  0  0  0  0  0
    3.4411   -1.4234    0.7480 C   0  0  0  0  0 15  0  0  0  0  0  0
    4.6311   -1.4149    1.0162 O   0  0  0  0  0 15  0  0  0  0  0  0
    1.7631   -2.7017    2.0789 C   0  0  0  0  0 15  0  0  0  0  0  0
    2.9561   -1.0479    2.8100 H   0  0  0  0  0 15  0  0  0  0  0  0
    0.5091   -0.5108    1.4772 H   0  0  0  0  0 15  0  0  0  0  0  0
    1.2441   -3.0260    1.1662 H   0  0  0  0  0 15  0  0  0  0  0  0
    1.0291   -2.6408    2.8983 H   0  0  0  0  0 15  0  0  0  0  0  0
    2.5191   -3.4587    2.3402 H   0  0  0  0  0 15  0  0  0  0  0  0
    2.9562   -1.4816   -0.5373 N   0  0  0  0  0 15  0  0  0  0  0  0
    3.9032   -1.6214   -1.6426 C   0  0  0  0  0 15  0  0  0  0  0  0
    4.8732   -0.4637   -1.5950 C   0  0  0  0  0 15  0  0  0  0  0  0
    6.0582   -0.6862   -1.7803 O   0  0  0  0  0 15  0  0  0  0  0  0
    3.1982   -1.6603   -3.0254 C   0  0  0  0  0 15  0  0  0  0  0  0
    2.3112   -2.9285   -3.1758 C   0  0  0  0  0 15  0  0  0  0  0  0
    1.4462   -2.8795   -4.4638 C   0  0  0  0  0 15  0  0  0  0  0  0
    0.4852   -4.0952   -4.5493 C   0  0  0  0  0 15  0  0  0  0  0  0
   -0.3778   -4.0273   -5.7511 N   0  0  0  0  0 15  0  0  0  0  0  0
    4.4622   -2.5653   -1.5165 H   0  0  0  0  0 15  0  0  0  0  0  0
    1.9992   -1.2722   -0.7384 H   0  0  0  0  0 15  0  0  0  0  0  0
    3.9572   -1.6626   -3.8264 H   0  0  0  0  0 15  0  0  0  0  0  0
    2.5872   -0.7513   -3.1393 H   0  0  0  0  0 15  0  0  0  0  0  0
    1.6392   -3.0240   -2.3078 H   0  0  0  0  0 15  0  0  0  0  0  0
    2.9512   -3.8282   -3.1976 H   0  0  0  0  0 15  0  0  0  0  0  0
    2.1052   -2.8655   -5.3477 H   0  0  0  0  0 15  0  0  0  0  0  0
    0.8442   -1.9570   -4.4671 H   0  0  0  0  0 15  0  0  0  0  0  0
   -0.1508   -4.1120   -3.6496 H   0  0  0  0  0 15  0  0  0  0  0  0
    1.0742   -5.0292   -4.5635 H   0  0  0  0  0 15  0  0  0  0  0  0
   -0.9798   -3.1330   -5.7635 H   0  0  0  0  0 15  0  0  0  0  0  0
   -1.0628   -4.8640   -5.7875 H   0  0  0  0  0 15  0  0  0  0  0  0
    0.2052   -4.0538   -6.6580 H   0  0  0  0  0 15  0  0  0  0  0  0
    4.4343    0.7856   -1.3662 N   0  0  0  0  0 15  0  0  0  0  0  0
    5.3843    1.8882   -1.2779 C   0  0  0  0  0 15  0  0  0  0  0  0
    6.3683    1.6001   -0.1686 C   0  0  0  0  0 15  0  0  0  0  0  0
    7.5603    1.7238   -0.4017 O   0  0  0  0  0 15  0  0  0  0  0  0
    4.6893    3.2609   -1.0733 C   0  0  0  0  0 15  0  0  0  0  0  0
    3.7753    3.6090   -2.2274 C   0  0  0  0  0 15  0  0  0  0  0  0
    4.1663    3.6698   -3.4808 N   0  0  0  0  0 15  0  0  0  0  0  0
    2.4643    3.9098   -2.1459 C   0  0  0  0  0 15  0  0  0  0  0  0
    3.1653    3.9814   -4.2410 C   0  0  0  0  0 15  0  0  0  0  0  0
    2.1413    4.1332   -3.5308 N   0  0  0  0  0 15  0  0  0  0  0  0
    5.9433    1.9176   -2.2272 H   0  0  0  0  0 15  0  0  0  0  0  0
    3.4573    0.9813   -1.2940 H   0  0  0  0  0 15  0  0  0  0  0  0
    5.4543    4.0495   -0.9908 H   0  0  0  0  0 15  0  0  0  0  0  0
    4.1143    3.2443   -0.1330 H   0  0  0  0  0 15  0  0  0  0  0  0
    5.1253    3.4953   -3.8216 H   0  0  0  0  0 15  0  0  0  0  0  0
    1.8023    3.9722   -1.2854 H   0  0  0  0  0 15  0  0  0  0  0  0
    3.1923    4.0974   -5.3251 H   0  0  0  0  0 15  0  0  0  0  0  0
    5.9124    1.2097    1.0102 N   0  0  0  0  0 15  0  0  0  0  0  0
    7.3234    1.0232    1.5617 C   0  0  0  0  0 15  0  0  0  0  0  0
    7.6744   -0.4185    1.9168 C   0  0  0  0  0 15  0  0  0  0  0  0
    6.7994   -1.3010    1.7293 O   0  0  0  0  0 15  0  0  0  0  0  0
    7.3944    1.8511    2.8376 C   0  0  0  0  0 15  0  0  0  0  0  0
    5.9534    1.7081    3.3541 C   0  0  0  0  0 15  0  0  0  0  0  0
    5.1004    1.8264    2.0865 C   0  0  0  0  0 15  0  0  0  0  0  0
    8.0514    1.3506    0.8333 H   0  0  0  0  0 15  0  0  0  0  0  0
    8.0724    1.3583    3.5543 H   0  0  0  0  0 15  0  0  0  0  0  0
    7.5844    2.9004    2.5788 H   0  0  0  0  0 15  0  0  0  0  0  0
    5.6854    0.6855    3.6624 H   0  0  0  0  0 15  0  0  0  0  0  0
    5.7984    2.5247    4.0718 H   0  0  0  0  0 15  0  0  0  0  0  0
    4.1624    1.2590    2.2141 H   0  0  0  0  0 15  0  0  0  0  0  0
    4.9454    2.8907    1.8519 H   0  0  0  0  0 15  0  0  0  0  0  0
    7.3905   -1.2043    1.0166 N   0  0  0  0  0 15  0  0  0  0  0  0
    8.6365   -1.9008    0.7070 C   0  0  0  0  0 15  0  0  0  0  0  0
    8.9695   -1.7865   -0.7615 C   0  0  0  0  0 15  0  0  0  0  0  0
    8.2445   -1.1707   -1.5532 O   0  0  0  0  0 15  0  0  0  0  0  0
    8.5275   -3.4147    1.1433 C   0  0  0  0  0 15  0  0  0  0  0  0
    8.3805   -3.6183    2.6720 C   0  0  0  0  0 15  0  0  0  0  0  0
    9.6995   -4.3426    0.7145 C   0  0  0  0  0 15  0  0  0  0  0  0
    6.8185   -0.6903    0.2583 H   0  0  0  0  0 15  0  0  0  0  0  0
    9.4605   -1.4183    1.2643 H   0  0  0  0  0 15  0  0  0  0  0  0
    7.6105   -3.8270    0.6691 H   0  0  0  0  0 15  0  0  0  0  0  0
    9.2825   -3.2986    3.2248 H   0  0  0  0  0 15  0  0  0  0  0  0
    7.5255   -3.0530    3.0818 H   0  0  0  0  0 15  0  0  0  0  0  0
    8.1965   -4.6795    2.9278 H   0  0  0  0  0 15  0  0  0  0  0  0
   10.6725   -4.0068    1.1222 H   0  0  0  0  0 15  0  0  0  0  0  0
    9.5485   -5.3881    1.0478 H   0  0  0  0  0 15  0  0  0  0  0  0
    9.8095   -4.4043   -0.3838 H   0  0  0  0  0 15  0  0  0  0  0  0
    8.8686   -0.7928   -1.3621 N   0  0  0  0  0 15  0  0  0  0  0  0
   10.2796   -0.4295   -1.8169 C   0  0  0  0  0 15  0  0  0  0  0  0
   10.6306    1.0469   -1.6593 C   0  0  0  0  0 15  0  0  0  0  0  0
    9.7556    1.8126   -1.1822 O   0  0  0  0  0 15  0  0  0  0  0  0
   10.3506   -0.7728   -3.2987 C   0  0  0  0  0 15  0  0  0  0  0  0
    8.9096   -0.4623   -3.7355 C   0  0  0  0  0 15  0  0  0  0  0  0
    8.0566   -1.0057   -2.5842 C   0  0  0  0  0 15  0  0  0  0  0  0
   11.0076   -0.9857   -1.2438 H   0  0  0  0  0 15  0  0  0  0  0  0
   11.0286   -0.0652   -3.8044 H   0  0  0  0  0 15  0  0  0  0  0  0
   10.5406   -1.8475   -3.4131 H   0  0  0  0  0 15  0  0  0  0  0  0
    8.6416    0.6042   -3.6767 H   0  0  0  0  0 15  0  0  0  0  0  0
    8.7546   -0.9853   -4.6886 H   0  0  0  0  0 15  0  0  0  0  0  0
    7.1186   -0.4287   -2.5107 H   0  0  0  0  0 15  0  0  0  0  0  0
    7.9016   -2.0862   -2.7264 H   0  0  0  0  0 15  0  0  0  0  0  0
   10.3467    1.4787   -0.5451 N   0  0  0  0  0 15  0  0  0  0  0  0
   11.2937    2.2985    0.2093 C   0  0  0  0  0 15  0  0  0  0  0  0
   12.2637    1.3831    0.9197 C   0  0  0  0  0 15  0  0  0  0  0  0
   13.4487    1.6728    0.9178 O   0  0  0  0  0 15  0  0  0  0  0  0
   10.5887    3.2202    1.2409 C   0  0  0  0  0 15  0  0  0  0  0  0
    9.7017    4.2864    0.5378 C   0  0  0  0  0 15  0  0  0  0  0  0
    8.8367    5.0797    1.5536 C   0  0  0  0  0 15  0  0  0  0  0  0
    7.8757    6.0638    0.8348 C   0  0  0  0  0 15  0  0  0  0  0  0
    7.0127    6.7872    1.7969 N   0  0  0  0  0 15  0  0  0  0  0  0
   11.8527    2.9384   -0.4959 H   0  0  0  0  0 15  0  0  0  0  0  0
    9.3897    1.4485   -0.2564 H   0  0  0  0  0 15  0  0  0  0  0  0
   11.3477    3.7387    1.8514 H   0  0  0  0  0 15  0  0  0  0  0  0
    9.9777    2.5991    1.9143 H   0  0  0  0  0 15  0  0  0  0  0  0
    9.0297    3.7994   -0.1870 H   0  0  0  0  0 15  0  0  0  0  0  0
   10.3417    4.9879   -0.0259 H   0  0  0  0  0 15  0  0  0  0  0  0
    9.4957    5.6391    2.2380 H   0  0  0  0  0 15  0  0  0  0  0  0
    8.2347    4.3769    2.1512 H   0  0  0  0  0 15  0  0  0  0  0  0
    7.2397    5.4963    0.1364 H   0  0  0  0  0 15  0  0  0  0  0  0
    8.4647    6.7866    0.2431 H   0  0  0  0  0 15  0  0  0  0  0  0
    6.4107    6.1118    2.3833 H   0  0  0  0  0 15  0  0  0  0  0  0
    6.3277    7.4500    1.2850 H   0  0  0  0  0 15  0  0  0  0  0  0
    7.5957    7.3924    2.4728 H   0  0  0  0  0 15  0  0  0  0  0  0
   11.8248    0.2810    1.5507 N   0  0  0  0  0 15  0  0  0  0  0  0
   12.7718   -0.6039    2.2276 C   0  0  0  0  0 15  0  0  0  0  0  0
   13.7418   -1.1452    1.2031 C   0  0  0  0  0 15  0  0  0  0  0  0
   14.9268   -1.1934    1.4887 O   0  0  0  0  0 15  0  0  0  0  0  0
   12.0668   -1.7795    2.9568 C   0  0  0  0  0 15  0  0  0  0  0  0
   11.1798   -1.2715    4.1286 C   0  0  0  0  0 15  0  0  0  0  0  0
   10.3148   -2.4093    4.7342 C   0  0  0  0  0 15  0  0  0  0  0  0
    9.3538   -1.8717    5.8278 C   0  0  0  0  0 15  0  0  0  0  0  0
    8.4908   -2.9444    6.3738 N   0  0  0  0  0 15  0  0  0  0  0  0
   13.3308   -0.0201    2.9799 H   0  0  0  0  0 15  0  0  0  0  0  0
   10.8678    0.0018    1.4710 H   0  0  0  0  0 15  0  0  0  0  0  0
   12.8258   -2.4705    3.3618 H   0  0  0  0  0 15  0  0  0  0  0  0
   11.4558   -2.3352    2.2286 H   0  0  0  0  0 15  0  0  0  0  0  0
   10.5078   -0.4733    3.7744 H   0  0  0  0  0 15  0  0  0  0  0  0
   11.8198   -0.8378    4.9171 H   0  0  0  0  0 15  0  0  0  0  0  0
   10.9738   -3.1802    5.1667 H   0  0  0  0  0 15  0  0  0  0  0  0
    9.7128   -2.8762    3.9386 H   0  0  0  0  0 15  0  0  0  0  0  0
    8.7178   -1.0856    5.3898 H   0  0  0  0  0 15  0  0  0  0  0  0
    9.9428   -1.4140    6.6422 H   0  0  0  0  0 15  0  0  0  0  0  0
    7.8888   -3.4050    5.6071 H   0  0  0  0  0 15  0  0  0  0  0  0
    7.8058   -2.5550    7.1152 H   0  0  0  0  0 15  0  0  0  0  0  0
    9.0738   -3.7149    6.8529 H   0  0  0  0  0 15  0  0  0  0  0  0
   13.3029   -1.5760    0.0084 N   0  0  0  0  0 15  0  0  0  0  0  0
   14.2499   -2.0894   -0.9803 C   0  0  0  0  0 15  0  0  0  0  0  0
   15.2199   -0.9867   -1.3361 C   0  0  0  0  0 15  0  0  0  0  0  0
   16.4049   -1.2597   -1.4331 O   0  0  0  0  0 15  0  0  0  0  0  0
   13.5449   -2.6042   -2.2644 C   0  0  0  0  0 15  0  0  0  0  0  0
   12.6579   -3.8463   -1.9668 C   0  0  0  0  0 15  0  0  0  0  0  0
   11.7929   -4.2458   -3.1923 C   0  0  0  0  0 15  0  0  0  0  0  0
   10.8319   -5.4160   -2.8520 C   0  0  0  0  0 15  0  0  0  0  0  0
    9.9689   -5.7680   -4.0031 N   0  0  0  0  0 15  0  0  0  0  0  0
   14.8089   -2.9315   -0.5356 H   0  0  0  0  0 15  0  0  0  0  0  0
   12.3459   -1.4491   -0.2528 H   0  0  0  0  0 15  0  0  0  0  0  0
   14.3039   -2.8835   -3.0151 H   0  0  0  0  0 15  0  0  0  0  0  0
   12.9339   -1.7908   -2.6857 H   0  0  0  0  0 15  0  0  0  0  0  0
   11.9859   -3.6356   -1.1194 H   0  0  0  0  0 15  0  0  0  0  0  0
   13.2979   -4.6980   -1.6761 H   0  0  0  0  0 15  0  0  0  0  0  0
   12.4519   -4.5383   -4.0264 H   0  0  0  0  0 15  0  0  0  0  0  0
   11.1909   -3.3814   -3.5145 H   0  0  0  0  0 15  0  0  0  0  0  0
   10.1959   -5.1206   -2.0020 H   0  0  0  0  0 15  0  0  0  0  0  0
   11.4209   -6.2972   -2.5422 H   0  0  0  0  0 15  0  0  0  0  0  0
    9.3669   -4.9332   -4.3241 H   0  0  0  0  0 15  0  0  0  0  0  0
    9.2839   -6.5656   -3.7479 H   0  0  0  0  0 15  0  0  0  0  0  0
   10.5519   -6.1065   -4.8448 H   0  0  0  0  0 15  0  0  0  0  0  0
   14.7810    0.2645   -1.5536 N   0  0  0  0  0 15  0  0  0  0  0  0
   16.0090    1.0130   -1.8040 C   0  0  0  0  0 15  0  0  0  0  0  0
   16.4240    1.7962   -0.5816 C   0  0  0  0  0 15  0  0  0  0  0  0
   15.7810    1.7688    0.4495 O   0  0  0  0  0 15  0  0  0  0  0  0
   15.8320    1.9649   -3.0344 C   0  0  0  0  0 15  0  0  0  0  0  0
   15.5530    1.2134   -4.2096 O   0  0  0  0  0 15  0  0  0  0  0  0
   17.0540    2.8308   -3.4115 C   0  0  0  0  0 15  0  0  0  0  0  0
   14.2740    0.2989   -0.6008 H   0  0  0  0  0 15  0  0  0  0  0  0
   16.8180    0.2927   -2.0239 H   0  0  0  0  0 15  0  0  0  0  0  0
   14.9730    2.6396   -2.8355 H   0  0  0  0  0 15  0  0  0  0  0  0
   15.3870    1.8557   -4.9057 H   0  0  0  0  0 15  0  0  0  0  0  0
   16.8610    3.4565   -4.3038 H   0  0  0  0  0 15  0  0  0  0  0  0
   17.3380    3.5329   -2.6093 H   0  0  0  0  0 15  0  0  0  0  0  0
   17.9440    2.2108   -3.6332 H   0  0  0  0  0 15  0  0  0  0  0  0
   16.2591    1.4844    0.5294 N   0  0  0  0  0 15  0  0  0  0  0  0
   17.4841    1.6041    1.3147 C   0  0  0  0  0 15  0  0  0  0  0  0
   17.9091    0.2647    1.8623 C   0  0  0  0  0 15  0  0  0  0  0  0
   17.2671   -0.7637    1.6443 O   0  0  0  0  0 15  0  0  0  0  0  0
   17.3151    2.6542    2.4410 C   0  0  0  0  0 15  0  0  0  0  0  0
   16.4191    2.2262    3.4715 O   0  0  0  0  0 15  0  0  0  0  0  0
   15.7601    0.5379    0.3894 H   0  0  0  0  0 15  0  0  0  0  0  0
   18.2901    1.9443    0.6370 H   0  0  0  0  0 15  0  0  0  0  0  0
   18.3001    2.8671    2.9028 H   0  0  0  0  0 15  0  0  0  0  0  0
   16.9751    3.6265    2.0361 H   0  0  0  0  0 15  0  0  0  0  0  0
   15.5521    2.1154    3.0709 H   0  0  0  0  0 15  0  0  0  0  0  0
   17.7372   -0.7783    1.3704 N   0  0  0  0  0 15  0  0  0  0  0  0
   18.6842   -1.8914    1.3227 C   0  0  0  0  0 15  0  0  0  0  0  0
   19.6542   -1.6502    0.1894 C   0  0  0  0  0 15  0  0  0  0  0  0
   20.8392   -1.8702    0.3777 O   0  0  0  0  0 15  0  0  0  0  0  0
   17.9792   -3.2611    1.1289 C   0  0  0  0  0 15  0  0  0  0  0  0
   17.0922   -3.6223    2.3540 C   0  0  0  0  0 15  0  0  0  0  0  0
   16.2272   -4.8838    2.0895 C   0  0  0  0  0 15  0  0  0  0  0  0
   15.2662   -5.1721    3.2735 C   0  0  0  0  0 15  0  0  0  0  0  0
   14.4032   -6.3455    3.0049 N   0  0  0  0  0 15  0  0  0  0  0  0
   19.2432   -1.9255    2.2744 H   0  0  0  0  0 15  0  0  0  0  0  0
   16.7802   -0.9415    1.1303 H   0  0  0  0  0 15  0  0  0  0  0  0
   18.7382   -4.0512    0.9968 H   0  0  0  0  0 15  0  0  0  0  0  0
   17.3682   -3.2209    0.2138 H   0  0  0  0  0 15  0  0  0  0  0  0
   16.4202   -2.7826    2.5937 H   0  0  0  0  0 15  0  0  0  0  0  0
   17.7322   -3.7948    3.2372 H   0  0  0  0  0 15  0  0  0  0  0  0
   16.8862   -5.7527    1.9273 H   0  0  0  0  0 15  0  0  0  0  0  0
   15.6252   -4.7322    1.1795 H   0  0  0  0  0 15  0  0  0  0  0  0
   14.6302   -4.2880    3.4411 H   0  0  0  0  0 15  0  0  0  0  0  0
   15.8552   -5.3428    4.1919 H   0  0  0  0  0 15  0  0  0  0  0  0
   13.8012   -6.2076    2.1212 H   0  0  0  0  0 15  0  0  0  0  0  0
   13.7182   -6.5218    3.8236 H   0  0  0  0  0 15  0  0  0  0  0  0
   14.9862   -7.2439    2.8788 H   0  0  0  0  0 15  0  0  0  0  0  0
   19.2153   -1.2150   -1.0038 N   0  0  0  0  0 15  0  0  0  0  0  0
   20.4403   -1.0598   -1.7828 C   0  0  0  0  0 15  0  0  0  0  0  0
   20.8653    0.3860   -1.8410 C   0  0  0  0  0 15  0  0  0  0  0  0
   20.2233    1.2785   -1.2855 O   0  0  0  0  0 15  0  0  0  0  0  0
   20.2713   -1.6630   -3.1996 C   0  0  0  0  0 15  0  0  0  0  0  0
   19.3753   -0.9093   -4.0225 O   0  0  0  0  0 15  0  0  0  0  0  0
   18.7163   -0.3729   -0.5494 H   0  0  0  0  0 15  0  0  0  0  0  0
   21.2463   -1.6107   -1.2617 H   0  0  0  0  0 15  0  0  0  0  0  0
   21.2563   -1.7057   -3.7063 H   0  0  0  0  0 15  0  0  0  0  0  0
   19.9313   -2.7152   -3.1504 H   0  0  0  0  0 15  0  0  0  0  0  0
   18.5083   -0.9418   -3.6081 H   0  0  0  0  0 15  0  0  0  0  0  0
   20.6934    1.1989   -1.0230 N   0  0  0  0  0 15  0  0  0  0  0  0
   21.6404    2.2290   -0.5987 C   0  0  0  0  0 15  0  0  0  0  0  0
   22.6104    1.6159    0.3845 C   0  0  0  0  0 15  0  0  0  0  0  0
   23.7954    1.8870    0.2825 O   0  0  0  0  0 15  0  0  0  0  0  0
   20.9354    3.4506    0.0504 C   0  0  0  0  0 15  0  0  0  0  0  0
   20.0484    4.2078   -0.9781 C   0  0  0  0  0 15  0  0  0  0  0  0
   19.1834    5.3036   -0.2993 C   0  0  0  0  0 15  0  0  0  0  0  0
   18.2224    5.9783   -1.3142 C   0  0  0  0  0 15  0  0  0  0  0  0
   17.3594    6.9898   -0.6617 N   0  0  0  0  0 15  0  0  0  0  0  0
   22.1994    2.5855   -1.4817 H   0  0  0  0  0 15  0  0  0  0  0  0
   19.7364    1.2704   -0.7416 H   0  0  0  0  0 15  0  0  0  0  0  0
   21.6944    4.1483    0.4440 H   0  0  0  0  0 15  0  0  0  0  0  0
   20.3244    3.1008    0.8971 H   0  0  0  0  0 15  0  0  0  0  0  0
   19.3764    3.5002   -1.4897 H   0  0  0  0  0 15  0  0  0  0  0  0
   20.6884    4.6711   -1.7496 H   0  0  0  0  0 15  0  0  0  0  0  0
   19.8424    6.0652    0.1493 H   0  0  0  0  0 15  0  0  0  0  0  0
   18.5814    4.8508    0.5044 H   0  0  0  0  0 15  0  0  0  0  0  0
   17.5864    5.2042   -1.7732 H   0  0  0  0  0 15  0  0  0  0  0  0
   18.8114    6.4518   -2.1193 H   0  0  0  0  0 15  0  0  0  0  0  0
   16.7574    6.5589    0.1221 H   0  0  0  0  0 15  0  0  0  0  0  0
   16.6744    7.4346   -1.3712 H   0  0  0  0  0 15  0  0  0  0  0  0
   17.9424    7.7914   -0.2368 H   0  0  0  0  0 15  0  0  0  0  0  0
   22.1715    0.8000    1.3578 N   0  0  0  0  0 15  0  0  0  0  0  0
   23.5875    0.4830    1.5212 C   0  0  0  0  0 15  0  0  0  0  0  0
   23.7875   -0.9969    1.7511 C   0  0  0  0  0 15  0  0  0  0  0  0
   22.8435   -1.7822    1.7887 O   0  0  0  0  0 15  0  0  0  0  0  0
   24.1565    1.3226    2.7005 C   0  0  0  0  0 15  0  0  0  0  0  0
   25.7045    1.3174    2.8392 C   0  0  0  0  0 15  0  0  0  0  0  0
   26.1795    2.1411    4.0487 C   0  0  0  0  0 15  0  0  0  0  0  0
   27.6705    2.1161    4.1204 N   0  0  0  0  0 15  0  0  0  0  0  0
   28.4055    2.7210    5.0473 C   0  0  0  0  0 15  0  0  0  0  0  0
   27.9015    3.4149    6.0279 N   0  0  0  0  0 15  0  0  0  0  0  0
   29.6945    2.6178    4.9742 N   0  0  0  0  0 15  0  0  0  0  0  0
   21.8455    1.7586    1.1912 H   0  0  0  0  0 15  0  0  0  0  0  0
   24.1085    0.7481    0.5823 H   0  0  0  0  0 15  0  0  0  0  0  0
   23.8145    2.3726    2.5962 H   0  0  0  0  0 15  0  0  0  0  0  0
   23.6885    0.9713    3.6448 H   0  0  0  0  0 15  0  0  0  0  0  0
   26.0755    0.2753    2.9381 H   0  0  0  0  0 15  0  0  0  0  0  0
   26.1565    1.7086    1.9037 H   0  0  0  0  0 15  0  0  0  0  0  0
   25.8005    3.1835    3.9575 H   0  0  0  0  0 15  0  0  0  0  0  0
   25.7305    1.7235    4.9760 H   0  0  0  0  0 15  0  0  0  0  0  0
   28.2215    1.6111    3.4184 H   0  0  0  0  0 15  0  0  0  0  0  0
   28.5345    3.8495    6.7010 H   0  0  0  0  0 15  0  0  0  0  0  0
   26.8795    3.4560    6.0298 H   0  0  0  0  0 15  0  0  0  0  0  0
   30.0705    2.0716    4.1977 H   0  0  0  0  0 15  0  0  0  0  0  0
   30.2435    3.0921    5.6947 H   0  0  0  0  0 15  0  0  0  0  0  0
   23.6496   -1.4758    0.5530 N   0  0  0  0  0 15  0  0  0  0  0  0
   24.9266   -1.9556   -0.0382 C   0  0  0  0  0 15  0  0  0  0  0  0
   25.3066   -1.4955   -1.4899 C   0  0  0  0  0 15  0  0  0  0  0  0
   24.6546   -0.7324   -2.1644 O   0  0  0  0  0 15  0  0  0  0  0  0
   24.8646   -3.4885    0.1029 C   0  0  0  0  0 15  0  0  0  0  0  0
   26.2126   -4.2458   -0.0446 C   0  0  0  0  0 15  0  0  0  0  0  0
   27.2366   -3.5619    0.0303 O   0  0  0  0  0 15  0  0  0  0  0  0
   26.0956   -5.4612   -0.2049 O   0  0  0  0  0 15  0  0  0  0  0  0
   23.1896   -0.8243   -0.0665 H   0  0  0  0  0 15  0  0  0  0  0  0
   25.7356   -1.5800    0.6192 H   0  0  0  0  0 15  0  0  0  0  0  0
   24.5076   -3.7513    1.1133 H   0  0  0  0  0 15  0  0  0  0  0  0
   24.1306   -3.9316   -0.5922 H   0  0  0  0  0 15  0  0  0  0  0  0
   25.1277   -0.2892   -1.5492 N   0  0  0  0  0 15  0  0  0  0  0  0
   26.0607    0.6338   -2.1922 C   0  0  0  0  0 15  0  0  0  0  0  0
   27.0387    1.1417   -1.1577 C   0  0  0  0  0 15  0  0  0  0  0  0
   28.2227    1.2121   -1.4436 O   0  0  0  0  0 15  0  0  0  0  0  0
   25.3497    1.8659   -2.8267 C   0  0  0  0  0 15  0  0  0  0  0  0
   24.3957    1.4923   -3.9954 C   0  0  0  0  0 15  0  0  0  0  0  0
   25.2287    0.5583   -5.3258 S   0  0  0  0  0 15  0  0  0  0  0  0
   26.3847    1.7985   -5.9950 C   0  0  0  0  0 15  0  0  0  0  0  0
   26.6177    0.0875   -2.9717 H   0  0  0  0  0 15  0  0  0  0  0  0
   24.1507   -0.0734   -1.5423 H   0  0  0  0  0 15  0  0  0  0  0  0
   26.1087    2.5730   -3.1985 H   0  0  0  0  0 15  0  0  0  0  0  0
   24.7697    2.3834   -2.0459 H   0  0  0  0  0 15  0  0  0  0  0  0
   23.9627    2.4094   -4.4268 H   0  0  0  0  0 15  0  0  0  0  0  0
   23.5647    0.8652   -3.6385 H   0  0  0  0  0 15  0  0  0  0  0  0
   25.8567    2.7406   -6.1959 H   0  0  0  0  0 15  0  0  0  0  0  0
   26.7997    1.4099   -6.9392 H   0  0  0  0  0 15  0  0  0  0  0  0
   27.2077    1.9698   -5.2902 H   0  0  0  0  0 15  0  0  0  0  0  0
   26.6058    1.5759   -0.0167 N   0  0  0  0  0 15  0  0  0  0  0  0
   28.0218    1.5595    0.3396 C   0  0  0  0  0 15  0  0  0  0  0  0
   28.2218    1.0211    1.7371 C   0  0  0  0  0 15  0  0  0  0  0  0
   27.2778    0.6623    2.4366 O   0  0  0  0  0 15  0  0  0  0  0  0
   28.5908    3.0004    0.1995 C   0  0  0  0  0 15  0  0  0  0  0  0
   30.1388    3.1181    0.2732 C   0  0  0  0  0 15  0  0  0  0  0  0
   30.6138    4.5771    0.1621 C   0  0  0  0  0 15  0  0  0  0  0  0
   32.1048    4.6268    0.2194 N   0  0  0  0  0 15  0  0  0  0  0  0
   32.8398    5.7318    0.1571 C   0  0  0  0  0 15  0  0  0  0  0  0
   32.3358    6.9279    0.0443 N   0  0  0  0  0 15  0  0  0  0  0  0
   34.1288    5.6171    0.2101 N   0  0  0  0  0 15  0  0  0  0  0  0
   26.2798    1.9092   -0.9308 H   0  0  0  0  0 15  0  0  0  0  0  0
   28.5428    0.8777   -0.3583 H   0  0  0  0  0 15  0  0  0  0  0  0
   28.2488    3.4333   -0.7627 H   0  0  0  0  0 15  0  0  0  0  0  0
   28.1228    3.6439    0.9748 H   0  0  0  0  0 15  0  0  0  0  0  0
   30.5098    2.6843    1.2259 H   0  0  0  0  0 15  0  0  0  0  0  0
   30.5908    2.5020   -0.5323 H   0  0  0  0  0 15  0  0  0  0  0  0
   30.2348    5.0176   -0.7871 H   0  0  0  0  0 15  0  0  0  0  0  0
   30.1648    5.1728    0.9862 H   0  0  0  0  0 15  0  0  0  0  0  0
   32.6558    3.7665    0.3072 H   0  0  0  0  0 15  0  0  0  0  0  0
   32.9688    7.7280    0.0030 H   0  0  0  0  0 15  0  0  0  0  0  0
   31.3138    6.9500    0.0097 H   0  0  0  0  0 15  0  0  0  0  0  0
   34.5048    4.6716    0.2965 H   0  0  0  0  0 15  0  0  0  0  0  0
   34.6778    6.4781    0.1581 H   0  0  0  0  0 15  0  0  0  0  0  0
   28.0839   -0.2563    1.5550 N   0  0  0  0  0 15  0  0  0  0  0  0
   29.4999   -0.6043    1.4772 C   0  0  0  0  0 15  0  0  0  0  0  0
   29.6999   -1.8876    0.7050 C   0  0  0  0  0 15  0  0  0  0  0  0
   28.7559   -2.5144    0.2306 O   0  0  0  0  0 15  0  0  0  0  0  0
   30.0689   -0.7158    2.9206 C   0  0  0  0  0 15  0  0  0  0  0  0
   31.6169   -0.8087    3.0237 C   0  0  0  0  0 15  0  0  0  0  0  0
   32.0919   -0.9518    4.4800 C   0  0  0  0  0 15  0  0  0  0  0  0
   33.5829   -1.0169    4.5190 N   0  0  0  0  0 15  0  0  0  0  0  0
   34.3179   -1.1467    5.6182 C   0  0  0  0  0 15  0  0  0  0  0  0
   33.8139   -1.2426    6.8157 N   0  0  0  0  0 15  0  0  0  0  0  0
   35.6069   -1.1791    5.4959 N   0  0  0  0  0 15  0  0  0  0  0  0
   27.7579    0.5863    2.0415 H   0  0  0  0  0 15  0  0  0  0  0  0
   30.0209    0.2010    0.9264 H   0  0  0  0  0 15  0  0  0  0  0  0
   29.7269    0.1570    3.5135 H   0  0  0  0  0 15  0  0  0  0  0  0
   29.6009   -1.5907    3.4202 H   0  0  0  0  0 15  0  0  0  0  0  0
   31.9879   -1.6719    2.4317 H   0  0  0  0  0 15  0  0  0  0  0  0
   32.0689    0.0912    2.5564 H   0  0  0  0  0 15  0  0  0  0  0  0
   31.7129   -0.0931    5.0781 H   0  0  0  0  0 15  0  0  0  0  0  0
   31.6429   -1.8666    4.9241 H   0  0  0  0  0 15  0  0  0  0  0  0
   34.1339   -0.9545    3.6565 H   0  0  0  0  0 15  0  0  0  0  0  0
   34.4469   -1.3405    7.6109 H   0  0  0  0  0 15  0  0  0  0  0  0
   32.7919   -1.2124    6.8434 H   0  0  0  0  0 15  0  0  0  0  0  0
   35.9829   -1.1006    4.5498 H   0  0  0  0  0 15  0  0  0  0  0  0
   36.1559   -1.2768    6.3530 H   0  0  0  0  0 15  0  0  0  0  0  0
   29.5620   -1.4872   -0.5215 N   0  0  0  0  0 15  0  0  0  0  0  0
   30.7870   -1.6110   -1.3062 C   0  0  0  0  0 15  0  0  0  0  0  0
   31.2120   -0.2746   -1.8608 C   0  0  0  0  0 15  0  0  0  0  0  0
   30.5700    0.7549   -1.6483 O   0  0  0  0  0 15  0  0  0  0  0  0
   30.6180   -2.6671   -2.4269 C   0  0  0  0  0 15  0  0  0  0  0  0
   29.7220   -2.2446   -3.4597 O   0  0  0  0  0 15  0  0  0  0  0  0
   29.0630   -0.5399   -0.3865 H   0  0  0  0  0 15  0  0  0  0  0  0
   31.5930   -1.9477   -0.6266 H   0  0  0  0  0 15  0  0  0  0  0  0
   31.6030   -2.8824   -2.8875 H   0  0  0  0  0 15  0  0  0  0  0  0
   30.2780   -3.6373   -2.0168 H   0  0  0  0  0 15  0  0  0  0  0  0
   28.8550   -2.1317   -3.0596 H   0  0  0  0  0 15  0  0  0  0  0  0
   31.0401    0.7711   -1.3745 N   0  0  0  0  0 15  0  0  0  0  0  0
   31.9901    1.8746   -1.2978 C   0  0  0  0  0 15  0  0  0  0  0  0
   32.9741    1.5983   -0.1855 C   0  0  0  0  0 15  0  0  0  0  0  0
   34.1661    1.7194   -0.4200 O   0  0  0  0  0 15  0  0  0  0  0  0
   31.2951    3.2493   -1.1078 C   0  0  0  0  0 15  0  0  0  0  0  0
   30.3811    3.5851   -2.2656 C   0  0  0  0  0 15  0  0  0  0  0  0
   30.7721    3.6327   -3.5195 N   0  0  0  0  0 15  0  0  0  0  0  0
   29.0701    3.8868   -2.1873 C   0  0  0  0  0 15  0  0  0  0  0  0
   29.7711    3.9362   -4.2830 C   0  0  0  0  0 15  0  0  0  0  0  0
   28.7471    4.0955   -3.5745 N   0  0  0  0  0 15  0  0  0  0  0  0
   32.5491    1.8939   -2.2474 H   0  0  0  0  0 15  0  0  0  0  0  0
   30.0631    0.9675   -1.3043 H   0  0  0  0  0 15  0  0  0  0  0  0
   32.0601    4.0388   -1.0337 H   0  0  0  0  0 15  0  0  0  0  0  0
   30.7201    3.2427   -0.1674 H   0  0  0  0  0 15  0  0  0  0  0  0
   31.7311    3.4546   -3.8585 H   0  0  0  0  0 15  0  0  0  0  0  0
   28.4081    3.9583   -1.3275 H   0  0  0  0  0 15  0  0  0  0  0  0
   29.7981    4.0407   -5.3682 H   0  0  0  0  0 15  0  0  0  0  0  0
   32.5182    1.2203    0.9973 N   0  0  0  0  0 15  0  0  0  0  0  0
   33.4682    0.9538    2.0709 C   0  0  0  0  0 15  0  0  0  0  0  0
   34.4522   -0.0939    1.6063 C   0  0  0  0  0 15  0  0  0  0  0  0
   35.6442    0.1161    1.7662 O   0  0  0  0  0 15  0  0  0  0  0  0
   32.7732    0.5287    3.3920 C   0  0  0  0  0 15  0  0  0  0  0  0
   31.8592    1.6109    3.9231 C   0  0  0  0  0 15  0  0  0  0  0  0
   32.2502    2.8377    4.1870 N   0  0  0  0  0 15  0  0  0  0  0  0
   30.5482    1.4816    4.2067 C   0  0  0  0  0 15  0  0  0  0  0  0
   31.2492    3.5371    4.6180 C   0  0  0  0  0 15  0  0  0  0  0  0
   30.2252    2.8117    4.6523 N   0  0  0  0  0 15  0  0  0  0  0  0
   34.0272    1.8858    2.2542 H   0  0  0  0  0 15  0  0  0  0  0  0
   31.5412    1.1172    1.1787 H   0  0  0  0  0 15  0  0  0  0  0  0
   33.5382    0.3192    4.1568 H   0  0  0  0  0 15  0  0  0  0  0  0
   32.1982   -0.3964    3.2227 H   0  0  0  0  0 15  0  0  0  0  0  0
   33.2092    3.2024    4.0702 H   0  0  0  0  0 15  0  0  0  0  0  0
   29.8862    0.6224    4.1284 H   0  0  0  0  0 15  0  0  0  0  0  0
   31.2762    4.5879    4.9088 H   0  0  0  0  0 15  0  0  0  0  0  0
   33.9963   -1.1934    1.0293 N   0  0  0  0  0 15  0  0  0  0  0  0
   34.9593   -2.2079    0.6151 C   0  0  0  0  0 15  0  0  0  0  0  0
   35.9593   -1.5755   -0.3215 C   0  0  0  0  0 15  0  0  0  0  0  0
   37.1493   -1.7386   -0.1085 O   0  0  0  0  0 15  0  0  0  0  0  0
   34.2813   -3.4075   -0.0999 C   0  0  0  0  0 15  0  0  0  0  0  0
   35.4743   -2.5896    1.5127 H   0  0  0  0  0 15  0  0  0  0  0  0
   33.0273   -1.3303    0.8205 H   0  0  0  0  0 15  0  0  0  0  0  0
   33.7623   -3.0811   -1.0119 H   0  0  0  0  0 15  0  0  0  0  0  0
   33.5473   -3.8789    0.5731 H   0  0  0  0  0 15  0  0  0  0  0  0
   35.0373   -4.1590   -0.3766 H   0  0  0  0  0 15  0  0  0  0  0  0
   35.4744   -0.8072   -1.3536 N   0  0  0  0  0 15  0  0  0  0  0  0
   36.4044   -0.2325   -2.3234 C   0  0  0  0  0 15  0  0  0  0  0  0
   37.3854    0.6424   -1.5750 C   0  0  0  0  0 15  0  0  0  0  0  0
   38.5704    0.5725   -1.8557 O   0  0  0  0  0 15  0  0  0  0  0  0
   35.7004    0.6192   -3.4173 C   0  0  0  0  0 15  0  0  0  0  0  0
   34.6544   -0.1572   -4.2771 C   0  0  0  0  0 15  0  0  0  0  0  0
   33.9804    0.8163   -5.2843 C   0  0  0  0  0 15  0  0  0  0  0  0
   35.2804   -1.3566   -5.0438 C   0  0  0  0  0 15  0  0  0  0  0  0
   36.9744   -1.0428   -2.8065 H   0  0  0  0  0 15  0  0  0  0  0  0
   34.5204   -0.5029   -1.3493 H   0  0  0  0  0 15  0  0  0  0  0  0
   36.4734    1.0314   -4.0858 H   0  0  0  0  0 15  0  0  0  0  0  0
   35.1974    1.4624   -2.9203 H   0  0  0  0  0 15  0  0  0  0  0  0
   33.8564   -0.5505   -3.6244 H   0  0  0  0  0 15  0  0  0  0  0  0
   33.5044    1.6549   -4.7500 H   0  0  0  0  0 15  0  0  0  0  0  0
   33.2044    0.3011   -5.8683 H   0  0  0  0  0 15  0  0  0  0  0  0
   34.7284    1.2266   -5.9815 H   0  0  0  0  0 15  0  0  0  0  0  0
   36.1424   -1.0193   -5.6417 H   0  0  0  0  0 15  0  0  0  0  0  0
   34.5394   -1.8063   -5.7227 H   0  0  0  0  0 15  0  0  0  0  0  0
   35.6094   -2.1429   -4.3498 H   0  0  0  0  0 15  0  0  0  0  0  0
   36.9525    1.4729   -0.5608 N   0  0  0  0  0 15  0  0  0  0  0  0
   38.1805    2.0686   -0.0430 C   0  0  0  0  0 15  0  0  0  0  0  0
   38.5955    1.4129    1.2523 C   0  0  0  0  0 15  0  0  0  0  0  0
   37.9525    0.5106    1.7521 O   0  0  0  0  0 15  0  0  0  0  0  0
   38.0035    3.6118    0.1525 C   0  0  0  0  0 15  0  0  0  0  0  0
   37.7245    4.2429   -1.0915 O   0  0  0  0  0 15  0  0  0  0  0  0
   39.2255    4.3762    0.7071 C   0  0  0  0  0 15  0  0  0  0  0  0
   36.4455    0.6693   -0.0475 H   0  0  0  0  0 15  0  0  0  0  0  0
   38.9895    1.8924   -0.7752 H   0  0  0  0  0 15  0  0  0  0  0  0
   37.1445    3.7830    0.8348 H   0  0  0  0  0 15  0  0  0  0  0  0
   37.5585    5.1687   -0.8915 H   0  0  0  0  0 15  0  0  0  0  0  0
   39.0325    5.4627    0.7932 H   0  0  0  0  0 15  0  0  0  0  0  0
   39.5095    4.0415    1.7192 H   0  0  0  0  0 15  0  0  0  0  0  0
   40.1155    4.2526    0.0604 H   0  0  0  0  0 15  0  0  0  0  0  0
   38.4306    0.2974    1.5477 N   0  0  0  0  0 15  0  0  0  0  0  0
   39.3936   -0.5674    2.2207 C   0  0  0  0  0 15  0  0  0  0  0  0
   40.3936   -1.0641    1.2056 C   0  0  0  0  0 15  0  0  0  0  0  0
   41.5836   -0.9607    1.4531 O   0  0  0  0  0 15  0  0  0  0  0  0
   38.7156   -1.7852    2.9042 C   0  0  0  0  0 15  0  0  0  0  0  0
   39.9086    0.0206    2.9989 H   0  0  0  0  0 15  0  0  0  0  0  0
   37.4616    0.0482    1.5623 H   0  0  0  0  0 15  0  0  0  0  0  0
   38.1966   -2.4130    2.1666 H   0  0  0  0  0 15  0  0  0  0  0  0
   37.9816   -1.4367    3.6483 H   0  0  0  0  0 15  0  0  0  0  0  0
   39.4716   -2.3996    3.4177 H   0  0  0  0  0 15  0  0  0  0  0  0
   39.9087   -1.5758    0.0251 N   0  0  0  0  0 15  0  0  0  0  0  0
   41.3197   -1.7948   -0.5143 C   0  0  0  0  0 15  0  0  0  0  0  0
   41.6707   -0.9350   -1.7249 C   0  0  0  0  0 15  0  0  0  0  0  0
   40.7957   -0.1442   -2.1592 O   0  0  0  0  0 15  0  0  0  0  0  0
   41.3907   -3.2550   -0.9398 C   0  0  0  0  0 15  0  0  0  0  0  0
   39.9497   -3.4841   -1.4244 C   0  0  0  0  0 15  0  0  0  0  0  0
   39.0967   -2.7458   -0.3872 C   0  0  0  0  0 15  0  0  0  0  0  0
   42.0477   -1.5670    0.2511 H   0  0  0  0  0 15  0  0  0  0  0  0
   42.0687   -3.3499   -1.8044 H   0  0  0  0  0 15  0  0  0  0  0  0
   41.5807   -3.8806   -0.0586 H   0  0  0  0  0 15  0  0  0  0  0  0
   39.6817   -2.9110   -2.3257 H   0  0  0  0  0 15  0  0  0  0  0  0
   39.7947   -4.5712   -1.4345 H   0  0  0  0  0 15  0  0  0  0  0  0
   38.1587   -2.3994   -0.8544 H   0  0  0  0  0 15  0  0  0  0  0  0
   38.9417   -3.3985    0.4855 H   0  0  0  0  0 15  0  0  0  0  0  0
   41.3868    0.2480   -1.5564 N   0  0  0  0  0 15  0  0  0  0  0  0
   42.3348    1.3268   -1.9104 C   0  0  0  0  0 15  0  0  0  0  0  0
   43.3288    1.4988   -0.7894 C   0  0  0  0  0 15  0  0  0  0  0  0
   44.5348    1.5137   -0.9740 O   0  0  0  0  0 15  0  0  0  0  0  0
   40.9098    0.4443   -0.6067 H   0  0  0  0  0 15  0  0  0  0  0  0
   42.8808    1.0008   -2.8112 H   0  0  0  0  0 15  0  0  0  0  0  0
   41.6298    2.6755   -2.2206 C   0  0  0  0  0 15  0  0  0  0  0  0
   40.9528    2.5511   -3.0783 H   0  0  0  0  0 15  0  0  0  0  0  0
   42.3928    3.4191   -2.5074 H   0  0  0  0  0 15  0  0  0  0  0  0
   40.8518    3.2056   -1.0366 C   0  0  0  0  0 15  0  0  0  0  0  0
   41.3818    4.0069   -0.2840 O   0  0  0  0  0 15  0  0  0  0  0  0
   39.5878    2.7857   -0.8275 N   0  0  0  0  0 15  0  0  0  0  0  0
   39.1348    2.1351   -1.4412 H   0  0  0  0  0 15  0  0  0  0  0  0
   39.0928    3.1438   -0.0370 H   0  0  0  0  0 15  0  0  0  0  0  0
   42.8649    1.4899    0.5136 N   0  0  0  0  0 15  0  0  0  0  0  0
   43.7949    1.6764    1.6254 C   0  0  0  0  0 15  0  0  0  0  0  0
   44.7759    0.5251    1.6179 C   0  0  0  0  0 15  0  0  0  0  0  0
   45.9609    0.7595    1.7873 O   0  0  0  0  0 15  0  0  0  0  0  0
   43.0909    1.7311    3.0108 C   0  0  0  0  0 15  0  0  0  0  0  0
   42.0449    2.8791    3.1669 C   0  0  0  0  0 15  0  0  0  0  0  0
   41.3709    2.7849    4.5645 C   0  0  0  0  0 15  0  0  0  0  0  0
   42.6709    4.2900    2.9791 C   0  0  0  0  0 15  0  0  0  0  0  0
   44.3649    2.6072    1.4720 H   0  0  0  0  0 15  0  0  0  0  0  0
   41.9109    1.2547    0.7067 H   0  0  0  0  0 15  0  0  0  0  0  0
   43.8639    1.8474    3.7875 H   0  0  0  0  0 15  0  0  0  0  0  0
   42.5879    0.7662    3.1748 H   0  0  0  0  0 15  0  0  0  0  0  0
   41.2469    2.7586    2.4145 H   0  0  0  0  0 15  0  0  0  0  0  0
   40.8949    1.7993    4.6972 H   0  0  0  0  0 15  0  0  0  0  0  0
   40.5949    3.5552    4.6784 H   0  0  0  0  0 15  0  0  0  0  0  0
   42.1189    2.9210    5.3620 H   0  0  0  0  0 15  0  0  0  0  0  0
   43.5329    4.4180    3.6536 H   0  0  0  0  0 15  0  0  0  0  0  0
   41.9299    5.0717    3.2078 H   0  0  0  0  0 15  0  0  0  0  0  0
   42.9999    4.4433    1.9416 H   0  0  0  0  0 15  0  0  0  0  0  0
   44.3430   -0.7638    1.3786 N   0  0  0  0  0 15  0  0  0  0  0  0
   45.5710   -1.5529    1.3672 C   0  0  0  0  0 15  0  0  0  0  0  0
   45.9860   -1.8875   -0.0455 C   0  0  0  0  0 15  0  0  0  0  0  0
   45.3430   -1.5204   -1.0095 O   0  0  0  0  0 15  0  0  0  0  0  0
   45.3940   -2.8583    2.2132 C   0  0  0  0  0 15  0  0  0  0  0  0
   45.1150   -2.5381    3.5709 O   0  0  0  0  0 15  0  0  0  0  0  0
   46.6160   -3.8002    2.2825 C   0  0  0  0  0 15  0  0  0  0  0  0
   43.8360   -0.4808    0.4680 H   0  0  0  0  0 15  0  0  0  0  0  0
   46.3800   -0.9460    1.8130 H   0  0  0  0  0 15  0  0  0  0  0  0
   44.5350   -3.4293    1.8022 H   0  0  0  0  0 15  0  0  0  0  0  0
   44.9490   -3.3746    4.0152 H   0  0  0  0  0 15  0  0  0  0  0  0
   46.4230   -4.6860    2.9175 H   0  0  0  0  0 15  0  0  0  0  0  0
   46.9000   -4.1973    1.2932 H   0  0  0  0  0 15  0  0  0  0  0  0
   47.5060   -3.2886    2.6969 H   0  0  0  0  0 15  0  0  0  0  0  0
   45.8211   -1.2256   -0.9908 N   0  0  0  0  0 15  0  0  0  0  0  0
   46.7311   -1.0139   -2.1156 C   0  0  0  0  0 15  0  0  0  0  0  0
   47.7471    0.0384   -1.7396 C   0  0  0  0  0 15  0  0  0  0  0  0
   48.9231   -0.1548   -2.0080 O   0  0  0  0  0 15  0  0  0  0  0  0
   45.9881   -0.5966   -3.4153 C   0  0  0  0  0 15  0  0  0  0  0  0
   45.0491   -1.7228   -3.9322 C   0  0  0  0  0 15  0  0  0  0  0  0
   44.2821   -1.3252   -5.1699 C   0  0  0  0  0 15  0  0  0  0  0  0
   44.5051   -0.2049   -5.7003 O   0  0  0  0  0 15  0  0  0  0  0  0
   43.4391   -2.1425   -5.6248 O   0  0  0  0  0 15  0  0  0  0  0  0
   47.2651   -1.9563   -2.3230 H   0  0  0  0  0 15  0  0  0  0  0  0
   44.8501   -1.0117   -1.0993 H   0  0  0  0  0 15  0  0  0  0  0  0
   46.7321   -0.3743   -4.1973 H   0  0  0  0  0 15  0  0  0  0  0  0
   45.4071    0.3169   -3.2214 H   0  0  0  0  0 15  0  0  0  0  0  0
   44.3141   -1.9996   -3.1617 H   0  0  0  0  0 15  0  0  0  0  0  0
   45.6471   -2.6142   -4.1704 H   0  0  0  0  0 15  0  0  0  0  0  0
   47.2992    1.1880   -1.0356 N   0  0  0  0  0 15  0  0  0  0  0  0
   48.5392    1.9035   -0.7448 C   0  0  0  0  0 15  0  0  0  0  0  0
   48.9032    1.7823    0.7140 C   0  0  0  0  0 15  0  0  0  0  0  0
   50.1042    2.4444    1.1181 O   0  0  0  0  0 15  0  0  0  0  0  0
   48.3752    3.3694   -1.1918 C   0  0  0  0  0 15  0  0  0  0  0  0
   49.9342    4.2664   -1.0259 S   0  0  0  0  0 15  0  0  0  0  0  0
   46.7522    0.6573   -0.2710 H   0  0  0  0  0 15  0  0  0  0  0  0
   49.3542    1.4358   -1.3269 H   0  0  0  0  0 15  0  0  0  0  0  0
   48.0582    3.4329   -2.2490 H   0  0  0  0  0 15  0  0  0  0  0  0
   47.5892    3.8875   -0.6034 H   0  0  0  0  0 15  0  0  0  0  0  0
   49.6042    4.9616    0.0596 H   0  0  0  0  0 15  0  0  0  0  0  0
   48.7773    0.8144    1.3493 N   0  0  0  0  0 15  0  0  0  0  0  0
   50.1883    0.4584    1.8099 C   0  0  0  0  0 15  0  0  0  0  0  0
   50.5393   -1.0204    1.6758 C   0  0  0  0  0 15  0  0  0  0  0  0
   49.6643   -1.7935    1.2109 O   0  0  0  0  0 15  0  0  0  0  0  0
   50.2593    0.8252    3.2860 C   0  0  0  0  0 15  0  0  0  0  0  0
   48.8183    0.5217    3.7277 C   0  0  0  0  0 15  0  0  0  0  0  0
   47.9653    1.0467    2.5679 C   0  0  0  0  0 15  0  0  0  0  0  0
   50.9163    1.0053    1.2280 H   0  0  0  0  0 15  0  0  0  0  0  0
   50.9373    0.1257    3.8029 H   0  0  0  0  0 15  0  0  0  0  0  0
   50.4493    1.9015    3.3832 H   0  0  0  0  0 15  0  0  0  0  0  0
   48.5503   -0.5456    3.6858 H   0  0  0  0  0 15  0  0  0  0  0  0
   48.6633    1.0598    4.6723 H   0  0  0  0  0 15  0  0  0  0  0  0
   47.0273    0.4686    2.5035 H   0  0  0  0  0 15  0  0  0  0  0  0
   47.8103    2.1293    2.6929 H   0  0  0  0  0 15  0  0  0  0  0  0
   50.2554   -1.4699    0.5686 N   0  0  0  0  0 15  0  0  0  0  0  0
   51.1874   -2.2823   -0.2103 C   0  0  0  0  0 15  0  0  0  0  0  0
   52.2004   -1.3768   -0.8688 C   0  0  0  0  0 15  0  0  0  0  0  0
   53.3894   -1.6241   -0.7407 O   0  0  0  0  0 15  0  0  0  0  0  0
   50.4894   -3.1229   -1.3163 C   0  0  0  0  0 15  0  0  0  0  0  0
   49.6624   -4.3088   -0.7525 C   0  0  0  0  0 15  0  0  0  0  0  0
   48.7214   -4.9644   -1.7444 C   0  0  0  0  0 15  0  0  0  0  0  0
   47.7474   -5.5448   -1.2860 O   0  0  0  0  0 15  0  0  0  0  0  0
   48.9494   -4.9217   -3.0781 N   0  0  0  0  0 15  0  0  0  0  0  0
   51.7144   -2.9572    0.4866 H   0  0  0  0  0 15  0  0  0  0  0  0
   49.2754   -1.5674    0.4054 H   0  0  0  0  0 15  0  0  0  0  0  0
   51.2674   -3.5302   -1.9788 H   0  0  0  0  0 15  0  0  0  0  0  0
   49.8374   -2.4697   -1.9164 H   0  0  0  0  0 15  0  0  0  0  0  0
   49.0574   -3.9410    0.0871 H   0  0  0  0  0 15  0  0  0  0  0  0
   50.3454   -5.0756   -0.3554 H   0  0  0  0  0 15  0  0  0  0  0  0
   49.7434   -4.4624   -3.4769 H   0  0  0  0  0 15  0  0  0  0  0  0
   48.3004   -5.3688   -3.6959 H   0  0  0  0  0 15  0  0  0  0  0  0
   51.7335   -0.3056   -1.5461 N   0  0  0  0  0 15  0  0  0  0  0  0
   52.9735    0.3031   -2.0214 C   0  0  0  0  0 15  0  0  0  0  0  0
   53.3375    1.5074   -1.1892 C   0  0  0  0  0 15  0  0  0  0  0  0
   54.5385    2.1878   -1.5617 O   0  0  0  0  0 15  0  0  0  0  0  0
   52.8095    0.6463   -3.5151 C   0  0  0  0  0 15  0  0  0  0  0  0
   54.3685    1.2373   -4.2100 S   0  0  0  0  0 15  0  0  0  0  0  0
   51.1865    0.0928   -0.7049 H   0  0  0  0  0 15  0  0  0  0  0  0
   53.7885   -0.4346   -1.9061 H   0  0  0  0  0 15  0  0  0  0  0  0
   52.4925   -0.2385   -4.0971 H   0  0  0  0  0 15  0  0  0  0  0  0
   52.0235    1.4147   -3.6708 H   0  0  0  0  0 15  0  0  0  0  0  0
   54.0385    2.5249   -4.2716 H   0  0  0  0  0 15  0  0  0  0  0  0
   53.2116    1.5756   -0.0334 N   0  0  0  0  0 15  0  0  0  0  0  0
   54.1616    2.0698    0.9562 C   0  0  0  0  0 15  0  0  0  0  0  0
   55.1456    0.9712    1.2828 C   0  0  0  0  0 15  0  0  0  0  0  0
   56.3376    1.2347    1.2682 O   0  0  0  0  0 15  0  0  0  0  0  0
   53.4666    2.6039    2.2372 C   0  0  0  0  0 15  0  0  0  0  0  0
   52.5526    3.7719    1.9388 C   0  0  0  0  0 15  0  0  0  0  0  0
   52.9436    4.8764    1.3432 N   0  0  0  0  0 15  0  0  0  0  0  0
   51.2416    3.8576    2.2384 C   0  0  0  0  0 15  0  0  0  0  0  0
   51.9426    5.6882    1.2171 C   0  0  0  0  0 15  0  0  0  0  0  0
   50.9186    5.1587    1.7140 N   0  0  0  0  0 15  0  0  0  0  0  0
   54.7206    2.8977    0.4908 H   0  0  0  0  0 15  0  0  0  0  0  0
   52.2346    1.6149    0.1715 H   0  0  0  0  0 15  0  0  0  0  0  0
   54.2316    2.9409    2.9550 H   0  0  0  0  0 15  0  0  0  0  0  0
   52.8916    1.7903    2.7088 H   0  0  0  0  0 15  0  0  0  0  0  0
   53.9026    5.0780    1.0177 H   0  0  0  0  0 15  0  0  0  0  0  0
   50.5796    3.1531    2.7365 H   0  0  0  0  0 15  0  0  0  0  0  0
   51.9696    6.6763    0.7562 H   0  0  0  0  0 15  0  0  0  0  0  0
   54.6897   -0.2398    1.5577 N   0  0  0  0  0 15  0  0  0  0  0  0
   55.9377   -0.9649    1.7758 C   0  0  0  0  0 15  0  0  0  0  0  0
   56.2587   -1.8558    0.5987 C   0  0  0  0  0 15  0  0  0  0  0  0
   55.5287   -1.9208   -0.3852 O   0  0  0  0  0 15  0  0  0  0  0  0
   54.1087   -0.3593    0.6549 H   0  0  0  0  0 15  0  0  0  0  0  0
   56.7707   -0.2560    1.9321 H   0  0  0  0  0 15  0  0  0  0  0  0
   55.8667   -1.5824    2.6901 H   0  0  0  0  0 15  0  0  0  0  0  0
   56.1678   -1.4927   -0.5057 N   0  0  0  0  0 15  0  0  0  0  0  0
   57.1148   -1.6559   -1.6078 C   0  0  0  0  0 15  0  0  0  0  0  0
   58.0848   -0.4974   -1.5848 C   0  0  0  0  0 15  0  0  0  0  0  0
   59.2698   -0.7238   -1.7654 O   0  0  0  0  0 15  0  0  0  0  0  0
   56.4098   -1.7241   -2.9895 C   0  0  0  0  0 15  0  0  0  0  0  0
   55.5228   -2.9953   -3.1130 C   0  0  0  0  0 15  0  0  0  0  0  0
   54.6578   -2.9736   -4.4017 C   0  0  0  0  0 15  0  0  0  0  0  0
   53.6968   -4.1907   -4.4614 C   0  0  0  0  0 15  0  0  0  0  0  0
   52.8338   -4.1484   -5.6644 N   0  0  0  0  0 15  0  0  0  0  0  0
   57.6738   -2.5969   -1.4617 H   0  0  0  0  0 15  0  0  0  0  0  0
   55.2108   -1.2876   -0.7113 H   0  0  0  0  0 15  0  0  0  0  0  0
   57.1688   -1.7434   -3.7903 H   0  0  0  0  0 15  0  0  0  0  0  0
   55.7988   -0.8178   -3.1227 H   0  0  0  0  0 15  0  0  0  0  0  0
   54.8508   -3.0722   -2.2432 H   0  0  0  0  0 15  0  0  0  0  0  0
   56.1628   -3.8952   -3.1157 H   0  0  0  0  0 15  0  0  0  0  0  0
   55.3168   -2.9783   -5.2857 H   0  0  0  0  0 15  0  0  0  0  0  0
   54.0558   -2.0513   -4.4246 H   0  0  0  0  0 15  0  0  0  0  0  0
   53.0608   -4.1885   -3.5615 H   0  0  0  0  0 15  0  0  0  0  0  0
   54.2858   -5.1248   -4.4558 H   0  0  0  0  0 15  0  0  0  0  0  0
   52.2318   -3.2545   -5.6958 H   0  0  0  0  0 15  0  0  0  0  0  0
   52.1488   -4.9856   -5.6830 H   0  0  0  0  0 15  0  0  0  0  0  0
   53.4168   -4.1941   -6.5705 H   0  0  0  0  0 15  0  0  0  0  0  0
   57.6459    0.7564   -1.3826 N   0  0  0  0  0 15  0  0  0  0  0  0
   58.5929    1.8701   -1.3526 C   0  0  0  0  0 15  0  0  0  0  0  0
   59.5629    1.6469   -0.2156 C   0  0  0  0  0 15  0  0  0  0  0  0
   60.7479    1.8640   -0.4074 O   0  0  0  0  0 15  0  0  0  0  0  0
   57.8879    3.2427   -1.1807 C   0  0  0  0  0 15  0  0  0  0  0  0
   57.0009    3.5844   -2.4113 C   0  0  0  0  0 15  0  0  0  0  0  0
   56.1359    4.8499   -2.1669 C   0  0  0  0  0 15  0  0  0  0  0  0
   55.1749    5.1194   -3.3554 C   0  0  0  0  0 15  0  0  0  0  0  0
   54.3119    6.2969   -3.1055 N   0  0  0  0  0 15  0  0  0  0  0  0
   59.1519    1.8891   -2.3047 H   0  0  0  0  0 15  0  0  0  0  0  0
   56.6889    0.9234   -1.1451 H   0  0  0  0  0 15  0  0  0  0  0  0
   58.6469    4.0348   -1.0612 H   0  0  0  0  0 15  0  0  0  0  0  0
   57.2769    3.2171   -0.2650 H   0  0  0  0  0 15  0  0  0  0  0  0
   56.3289    2.7410   -2.6376 H   0  0  0  0  0 15  0  0  0  0  0  0
   57.6409    3.7428   -3.2972 H   0  0  0  0  0 15  0  0  0  0  0  0
   56.7949    5.7214   -2.0186 H   0  0  0  0  0 15  0  0  0  0  0  0
   55.5339    4.7129   -1.2546 H   0  0  0  0  0 15  0  0  0  0  0  0
   54.5389    4.2327   -3.5089 H   0  0  0  0  0 15  0  0  0  0  0  0
   55.7639    5.2755   -4.2764 H   0  0  0  0  0 15  0  0  0  0  0  0
   53.7099    6.1731   -2.2197 H   0  0  0  0  0 15  0  0  0  0  0  0
   53.6269    6.4601   -3.9269 H   0  0  0  0  0 15  0  0  0  0  0  0
   54.8949    7.1972   -2.9937 H   0  0  0  0  0 15  0  0  0  0  0  0
   59.1240    1.2308    0.9843 N   0  0  0  0  0 15  0  0  0  0  0  0
   60.0540    1.0329    2.0941 C   0  0  0  0  0 15  0  0  0  0  0  0
   61.0350   -0.0489    1.7003 C   0  0  0  0  0 15  0  0  0  0  0  0
   62.2200    0.1150    1.9386 O   0  0  0  0  0 15  0  0  0  0  0  0
   59.3500    0.6192    3.4174 C   0  0  0  0  0 15  0  0  0  0  0  0
   58.3040    1.6479    3.9500 C   0  0  0  0  0 15  0  0  0  0  0  0
   57.6300    1.0897    5.2348 C   0  0  0  0  0 15  0  0  0  0  0  0
   58.9300    3.0400    4.2471 C   0  0  0  0  0 15  0  0  0  0  0  0
   60.6240    1.9612    2.2623 H   0  0  0  0  0 15  0  0  0  0  0  0
   58.1700    0.9443    1.0871 H   0  0  0  0  0 15  0  0  0  0  0  0
   60.1230    0.4678    4.1880 H   0  0  0  0  0 15  0  0  0  0  0  0
   58.8470   -0.3448    3.2477 H   0  0  0  0  0 15  0  0  0  0  0  0
   57.5060    1.7872    3.2009 H   0  0  0  0  0 15  0  0  0  0  0  0
   57.1540    0.1169    5.0286 H   0  0  0  0  0 15  0  0  0  0  0  0
   56.8540    1.7770    5.6008 H   0  0  0  0  0 15  0  0  0  0  0  0
   58.3780    0.9501    6.0316 H   0  0  0  0  0 15  0  0  0  0  0  0
   59.7920    2.9339    4.9254 H   0  0  0  0  0 15  0  0  0  0  0  0
   58.1890    3.6994    4.7251 H   0  0  0  0  0 15  0  0  0  0  0  0
   59.2590    3.5328    3.3214 H   0  0  0  0  0 15  0  0  0  0  0  0
   60.6021   -1.1825    1.0419 N   0  0  0  0  0 15  0  0  0  0  0  0
   61.8271   -1.9274    0.7660 C   0  0  0  0  0 15  0  0  0  0  0  0
   62.2521   -1.7573   -0.6709 C   0  0  0  0  0 15  0  0  0  0  0  0
   61.6101   -1.0682   -1.4649 O   0  0  0  0  0 15  0  0  0  0  0  0
   61.6581   -3.4215    1.1387 C   0  0  0  0  0 15  0  0  0  0  0  0
   60.7621   -4.1155    0.2650 O   0  0  0  0  0 15  0  0  0  0  0  0
   60.1031   -0.6012    0.2818 H   0  0  0  0  0 15  0  0  0  0  0  0
   62.6331   -1.4994    1.3921 H   0  0  0  0  0 15  0  0  0  0  0  0
   62.6431   -3.9286    1.1012 H   0  0  0  0  0 15  0  0  0  0  0  0
   61.3181   -3.5385    2.1855 H   0  0  0  0  0 15  0  0  0  0  0  0
   59.8951   -3.7114    0.3622 H   0  0  0  0  0 15  0  0  0  0  0  0
   62.0802   -0.8215   -1.3449 N   0  0  0  0  0 15  0  0  0  0  0  0
   63.0302   -0.2148   -2.2699 C   0  0  0  0  0 15  0  0  0  0  0  0
   64.0142    0.6201   -1.4847 C   0  0  0  0  0 15  0  0  0  0  0  0
   65.2062    0.4749   -1.7051 O   0  0  0  0  0 15  0  0  0  0  0  0
   62.3352    0.6236   -3.3759 C   0  0  0  0  0 15  0  0  0  0  0  0
   61.4212   -0.2219   -4.2352 C   0  0  0  0  0 15  0  0  0  0  0  0
   61.8122   -1.2922   -4.8901 N   0  0  0  0  0 15  0  0  0  0  0  0
   60.1102   -0.0060   -4.4600 C   0  0  0  0  0 15  0  0  0  0  0  0
   60.8112   -1.8097   -5.5283 C   0  0  0  0  0 15  0  0  0  0  0  0
   59.7872   -1.1138   -5.3207 N   0  0  0  0  0 15  0  0  0  0  0  0
   63.5892   -1.0335   -2.7513 H   0  0  0  0  0 15  0  0  0  0  0  0
   61.1032   -0.6642   -1.4820 H   0  0  0  0  0 15  0  0  0  0  0  0
   63.1002    1.0744   -4.0282 H   0  0  0  0  0 15  0  0  0  0  0  0
   61.7602    1.4405   -2.9100 H   0  0  0  0  0 15  0  0  0  0  0  0
   62.7712   -1.6750   -4.9006 H   0  0  0  0  0 15  0  0  0  0  0  0
   59.4482    0.7789   -4.1017 H   0  0  0  0  0 15  0  0  0  0  0  0
   60.8382   -2.7050   -6.1504 H   0  0  0  0  0 15  0  0  0  0  0  0
   63.5583    1.4668   -0.5764 N   0  0  0  0  0 15  0  0  0  0  0  0
   64.5083    2.2728    0.1813 C   0  0  0  0  0 15  0  0  0  0  0  0
   65.4923    1.3550    0.8677 C   0  0  0  0  0 15  0  0  0  0  0  0
   66.6843    1.5972    0.7629 O   0  0  0  0  0 15  0  0  0  0  0  0
   63.8133    3.2170    1.1984 C   0  0  0  0  0 15  0  0  0  0  0  0
   62.8993    4.2097    0.5144 C   0  0  0  0  0 15  0  0  0  0  0  0
   63.2903    5.0400   -0.4264 N   0  0  0  0  0 15  0  0  0  0  0  0
   61.5883    4.3937    0.7660 C   0  0  0  0  0 15  0  0  0  0  0  0
   62.2893    5.7581   -0.8256 C   0  0  0  0  0 15  0  0  0  0  0  0
   61.2653    5.4331   -0.1761 N   0  0  0  0  0 15  0  0  0  0  0  0
   65.0673    2.8886   -0.5418 H   0  0  0  0  0 15  0  0  0  0  0  0
   62.5813    1.5746   -0.3977 H   0  0  0  0  0 15  0  0  0  0  0  0
   64.5783    3.7815    1.7553 H   0  0  0  0  0 15  0  0  0  0  0  0
   63.2383    2.6168    1.9224 H   0  0  0  0  0 15  0  0  0  0  0  0
   64.2493    5.1166   -0.8016 H   0  0  0  0  0 15  0  0  0  0  0  0
   60.9263    3.9050    1.4770 H   0  0  0  0  0 15  0  0  0  0  0  0
   62.3163    6.5258   -1.5998 H   0  0  0  0  0 15  0  0  0  0  0  0
   65.0364    0.3138    1.5444 N   0  0  0  0  0 15  0  0  0  0  0  0
   66.2854   -0.2925    1.9957 C   0  0  0  0  0 15  0  0  0  0  0  0
   66.5984   -1.5401    1.2058 C   0  0  0  0  0 15  0  0  0  0  0  0
   67.8044   -2.2218    1.5604 O   0  0  0  0  0 15  0  0  0  0  0  0
   66.2604   -0.5718    3.5533 C   0  0  0  0  0 15  0  0  0  0  0  0
   65.8684    0.6582    4.4314 C   0  0  0  0  0 15  0  0  0  0  0  0
   67.6124   -1.1386    4.0895 C   0  0  0  0  0 15  0  0  0  0  0  0
   65.5194    0.3514    5.9035 C   0  0  0  0  0 15  0  0  0  0  0  0
   64.4494   -0.1131    0.7455 H   0  0  0  0  0 15  0  0  0  0  0  0
   67.1004    0.4245    1.7852 H   0  0  0  0  0 15  0  0  0  0  0  0
   65.4824   -1.3487    3.7232 H   0  0  0  0  0 15  0  0  0  0  0  0
   66.6564    1.4340    4.3792 H   0  0  0  0  0 15  0  0  0  0  0  0
   64.9714    1.1446    4.0036 H   0  0  0  0  0 15  0  0  0  0  0  0
   67.5684   -1.3826    5.1652 H   0  0  0  0  0 15  0  0  0  0  0  0
   67.9114   -2.0849    3.6033 H   0  0  0  0  0 15  0  0  0  0  0  0
   68.4444   -0.4230    3.9554 H   0  0  0  0  0 15  0  0  0  0  0  0
   65.1834    1.2667    6.4315 H   0  0  0  0  0 15  0  0  0  0  0  0
   64.7034   -0.3868    5.9855 H   0  0  0  0  0 15  0  0  0  0  0  0
   66.3824   -0.0423    6.4699 H   0  0  0  0  0 15  0  0  0  0  0  0
   66.5145   -1.5754    0.0418 N   0  0  0  0  0 15  0  0  0  0  0  0
   67.7545   -1.9418   -0.6381 C   0  0  0  0  0 15  0  0  0  0  0  0
   68.1185   -0.9193   -1.6856 C   0  0  0  0  0 15  0  0  0  0  0  0
   69.3195   -1.1724   -2.4189 O   0  0  0  0  0 15  0  0  0  0  0  0
   67.5905   -3.3567   -1.2271 C   0  0  0  0  0 15  0  0  0  0  0  0
   69.1495   -3.9426   -1.9263 S   0  0  0  0  0 15  0  0  0  0  0  0
   65.9675   -0.6794   -0.2098 H   0  0  0  0  0 15  0  0  0  0  0  0
   68.5695   -1.9520    0.1085 H   0  0  0  0  0 15  0  0  0  0  0  0
   67.2735   -4.0790   -0.4525 H   0  0  0  0  0 15  0  0  0  0  0  0
   66.8045   -3.3813   -2.0107 H   0  0  0  0  0 15  0  0  0  0  0  0
   68.8195   -3.7872   -3.2060 H   0  0  0  0  0 15  0  0  0  0  0  0
   67.9926    0.2315   -1.5589 N   0  0  0  0  0 15  0  0  0  0  0  0
   69.4036    0.7993   -1.6872 C   0  0  0  0  0 15  0  0  0  0  0  0
   69.7546    1.8540   -0.6420 C   0  0  0  0  0 15  0  0  0  0  0  0
   68.8796    2.1539    0.2088 O   0  0  0  0  0 15  0  0  0  0  0  0
   69.4746    1.4566   -3.0589 C   0  0  0  0  0 15  0  0  0  0  0  0
   68.0336    1.9720   -3.2061 C   0  0  0  0  0 15  0  0  0  0  0  0
   67.1806    0.8286   -2.6463 C   0  0  0  0  0 15  0  0  0  0  0  0
   70.1316    0.0070   -1.5870 H   0  0  0  0  0 15  0  0  0  0  0  0
   70.1526    2.3252   -3.0119 H   0  0  0  0  0 15  0  0  0  0  0  0
   69.6646    0.6888   -3.8194 H   0  0  0  0  0 15  0  0  0  0  0  0
   67.7656    2.7681   -2.4941 H   0  0  0  0  0 15  0  0  0  0  0  0
   67.8786    2.1588   -4.2771 H   0  0  0  0  0 15  0  0  0  0  0  0
   66.2426    1.2332   -2.2285 H   0  0  0  0  0 15  0  0  0  0  0  0
   67.0256    0.0736   -3.4322 H   0  0  0  0  0 15  0  0  0  0  0  0
   69.4707    1.4953    0.4978 N   0  0  0  0  0 15  0  0  0  0  0  0
   70.4187    1.6693    1.6198 C   0  0  0  0  0 15  0  0  0  0  0  0
   71.4127    0.5352    1.6072 C   0  0  0  0  0 15  0  0  0  0  0  0
   72.6187    0.7149    1.6519 O   0  0  0  0  0 15  0  0  0  0  0  0
   68.9937    0.5264    0.5370 H   0  0  0  0  0 15  0  0  0  0  0  0
   70.9647    2.6110    1.4447 H   0  0  0  0  0 15  0  0  0  0  0  0
   69.7137    1.7560    3.0010 C   0  0  0  0  0 15  0  0  0  0  0  0
   69.0367    2.6224    3.0177 H   0  0  0  0  0 15  0  0  0  0  0  0
   70.4767    1.9181    3.7814 H   0  0  0  0  0 15  0  0  0  0  0  0
   68.9357    0.5015    3.3315 C   0  0  0  0  0 15  0  0  0  0  0  0
   69.4657   -0.3713    3.9998 O   0  0  0  0  0 15  0  0  0  0  0  0
   67.6717    0.3635    2.8832 N   0  0  0  0  0 15  0  0  0  0  0  0
   67.2187    1.0749    2.3410 H   0  0  0  0  0 15  0  0  0  0  0  0
   67.1767   -0.4747    3.1080 H   0  0  0  0  0 15  0  0  0  0  0  0
   70.9488   -0.7491    1.3866 N   0  0  0  0  0 15  0  0  0  0  0  0
   72.1888   -1.5211    1.3653 C   0  0  0  0  0 15  0  0  0  0  0  0
   72.5528   -1.9195   -0.0432 C   0  0  0  0  0 15  0  0  0  0  0  0
   73.7538   -2.6813   -0.1894 O   0  0  0  0  0 15  0  0  0  0  0  0
   72.0248   -2.7370    2.2983 C   0  0  0  0  0 15  0  0  0  0  0  0
   73.5838   -3.6352    2.4576 S   0  0  0  0  0 15  0  0  0  0  0  0
   70.4018   -0.5205    0.4844 H   0  0  0  0  0 15  0  0  0  0  0  0
   73.0038   -0.8790    1.7463 H   0  0  0  0  0 15  0  0  0  0  0  0
   71.7078   -2.4255    3.3105 H   0  0  0  0  0 15  0  0  0  0  0  0
   71.2388   -3.4286    1.9290 H   0  0  0  0  0 15  0  0  0  0  0  0
   73.2538   -4.6671    1.6850 H   0  0  0  0  0 15  0  0  0  0  0  0
   72.4269   -1.2360   -0.9778 N   0  0  0  0  0 15  0  0  0  0  0  0
   73.6749   -1.0676   -1.7160 C   0  0  0  0  0 15  0  0  0  0  0  0
   73.9959    0.3959   -1.9094 C   0  0  0  0  0 15  0  0  0  0  0  0
   73.2659    1.2836   -1.4799 O   0  0  0  0  0 15  0  0  0  0  0  0
   71.8459   -0.3921   -0.6358 H   0  0  0  0  0 15  0  0  0  0  0  0
   74.5079   -1.5536   -1.1768 H   0  0  0  0  0 15  0  0  0  0  0  0
   73.6039   -1.5576   -2.7045 H   0  0  0  0  0 15  0  0  0  0  0  0
   73.9050    1.1769   -1.0482 N   0  0  0  0  0 15  0  0  0  0  0  0
   75.1350    1.9151   -0.7751 C   0  0  0  0  0 15  0  0  0  0  0  0
   75.5430    1.7684    0.6725 C   0  0  0  0  0 15  0  0  0  0  0  0
   74.8860    1.1006    1.4708 O   0  0  0  0  0 15  0  0  0  0  0  0
   74.9480    3.4317   -1.0713 C   0  0  0  0  0 15  0  0  0  0  0  0
   74.6120    3.8161   -2.5144 C   0  0  0  0  0 15  0  0  0  0  0  0
   75.6090    3.8477   -3.4964 C   0  0  0  0  0 15  0  0  0  0  0  0
   73.2940    4.1269   -2.8635 C   0  0  0  0  0 15  0  0  0  0  0  0
   75.2880    4.1847   -4.8079 C   0  0  0  0  0 15  0  0  0  0  0  0
   72.9750    4.4605   -4.1771 C   0  0  0  0  0 15  0  0  0  0  0  0
   73.9730    4.4892   -5.1474 C   0  0  0  0  0 15  0  0  0  0  0  0
   73.6610    4.8150   -6.4375 O   0  0  0  0  0 15  0  0  0  0  0  0
   73.3930    0.6146   -0.2816 H   0  0  0  0  0 15  0  0  0  0  0  0
   75.9470    1.5021   -1.4010 H   0  0  0  0  0 15  0  0  0  0  0  0
   74.1770    3.8475   -0.3883 H   0  0  0  0  0 15  0  0  0  0  0  0
   75.8660    3.9824   -0.7849 H   0  0  0  0  0 15  0  0  0  0  0  0
   76.6320    3.6089   -3.2401 H   0  0  0  0  0 15  0  0  0  0  0  0
   72.5110    4.0963   -2.1149 H   0  0  0  0  0 15  0  0  0  0  0  0
   76.0550    4.2062   -5.5653 H   0  0  0  0  0 15  0  0  0  0  0  0
   71.9520    4.6939   -4.4310 H   0  0  0  0  0 15  0  0  0  0  0  0
   72.7200    4.9938   -6.4851 H   0  0  0  0  0 15  0  0  0  0  0  0
   75.3831    0.8287    1.3406 N   0  0  0  0  0 15  0  0  0  0  0  0
   76.6131    0.4320    2.0203 C   0  0  0  0  0 15  0  0  0  0  0  0
   77.0211   -0.9684    1.6254 C   0  0  0  0  0 15  0  0  0  0  0  0
   76.3641   -1.6391    0.8294 O   0  0  0  0  0 15  0  0  0  0  0  0
   76.4261    0.4612    3.5653 C   0  0  0  0  0 15  0  0  0  0  0  0
   76.0901    1.8160    4.1937 C   0  0  0  0  0 15  0  0  0  0  0  0
   77.0871    2.7777    4.3948 C   0  0  0  0  0 15  0  0  0  0  0  0
   74.7721    2.1060    4.5602 C   0  0  0  0  0 15  0  0  0  0  0  0
   76.7661    4.0112    4.9536 C   0  0  0  0  0 15  0  0  0  0  0  0
   74.4531    3.3421    5.1161 C   0  0  0  0  0 15  0  0  0  0  0  0
   75.4511    4.2928    5.3123 C   0  0  0  0  0 15  0  0  0  0  0  0
   75.1391    5.5070    5.8565 O   0  0  0  0  0 15  0  0  0  0  0  0
   74.8711    0.1709    0.6540 H   0  0  0  0  0 15  0  0  0  0  0  0
   77.4251    1.1199    1.7219 H   0  0  0  0  0 15  0  0  0  0  0  0
   75.6551   -0.2834    3.8566 H   0  0  0  0  0 15  0  0  0  0  0  0
   77.3441    0.0838    4.0581 H   0  0  0  0  0 15  0  0  0  0  0  0
   78.1101    2.5666    4.1152 H   0  0  0  0  0 15  0  0  0  0  0  0
   73.9891    1.3740    4.4005 H   0  0  0  0  0 15  0  0  0  0  0  0
   77.5331    4.7533    5.1059 H   0  0  0  0  0 15  0  0  0  0  0  0
   73.4301    3.5518    5.3900 H   0  0  0  0  0 15  0  0  0  0  0  0
   74.1981    5.5230    6.0408 H   0  0  0  0  0 15  0  0  0  0  0  0
   76.8612   -1.4637    0.5841 N   0  0  0  0  0 15  0  0  0  0  0  0
   78.1382   -1.9560    0.0033 C   0  0  0  0  0 15  0  0  0  0  0  0
   78.5182   -1.5268   -1.4578 C   0  0  0  0  0 15  0  0  0  0  0  0
   77.8662   -0.7782   -2.1484 O   0  0  0  0  0 15  0  0  0  0  0  0
   78.0762   -3.4855    0.1769 C   0  0  0  0  0 15  0  0  0  0  0  0
   79.4242   -4.2458    0.0455 C   0  0  0  0  0 15  0  0  0  0  0  0
   80.4482   -3.5604    0.1058 O   0  0  0  0  0 15  0  0  0  0  0  0
   79.3072   -5.4643   -0.0890 O   0  0  0  0  0 15  0  0  0  0  0  0
   76.4012   -0.8255   -0.0490 H   0  0  0  0  0 15  0  0  0  0  0  0
   78.9472   -1.5665    0.6526 H   0  0  0  0  0 15  0  0  0  0  0  0
   77.7192   -3.7268    1.1926 H   0  0  0  0  0 15  0  0  0  0  0  0
   77.3422   -3.9433   -0.5087 H   0  0  0  0  0 15  0  0  0  0  0  0
   78.3393   -0.3220   -1.5428 N   0  0  0  0  0 15  0  0  0  0  0  0
   79.5873    0.2805   -2.0014 C   0  0  0  0  0 15  0  0  0  0  0  0
   79.9083    1.5278   -1.2118 C   0  0  0  0  0 15  0  0  0  0  0  0
   79.1783    1.9338   -0.3132 O   0  0  0  0  0 15  0  0  0  0  0  0
   77.7583    0.1066   -0.7394 H   0  0  0  0  0 15  0  0  0  0  0  0
   80.4203   -0.4382   -1.8991 H   0  0  0  0  0 15  0  0  0  0  0  0
   79.5163    0.5380   -3.0743 H   0  0  0  0  0 15  0  0  0  0  0  0
   79.8174    1.5752   -0.0501 N   0  0  0  0  0 15  0  0  0  0  0  0
   81.2334    1.5663    0.3064 C   0  0  0  0  0 15  0  0  0  0  0  0
   81.4334    1.0577    1.7151 C   0  0  0  0  0 15  0  0  0  0  0  0
   80.4894    0.7138    2.4220 O   0  0  0  0  0 15  0  0  0  0  0  0
   81.8024    3.0039    0.1358 C   0  0  0  0  0 15  0  0  0  0  0  0
   83.3504    3.1231    0.2070 C   0  0  0  0  0 15  0  0  0  0  0  0
   83.8254    4.5795    0.0649 C   0  0  0  0  0 15  0  0  0  0  0  0
   85.3164    4.6304    0.1213 N   0  0  0  0  0 15  0  0  0  0  0  0
   86.0514    5.7339    0.0354 C   0  0  0  0  0 15  0  0  0  0  0  0
   85.5474    6.9272   -0.1027 N   0  0  0  0  0 15  0  0  0  0  0  0
   87.3404    5.6203    0.0909 N   0  0  0  0  0 15  0  0  0  0  0  0
   79.4914    1.8890   -0.9710 H   0  0  0  0  0 15  0  0  0  0  0  0
   81.7544    0.8699   -0.3769 H   0  0  0  0  0 15  0  0  0  0  0  0
   81.4604    3.4163   -0.8354 H   0  0  0  0  0 15  0  0  0  0  0  0
   81.3344    3.6637    0.8973 H   0  0  0  0  0 15  0  0  0  0  0  0
   83.7214    2.7097    1.1687 H   0  0  0  0  0 15  0  0  0  0  0  0
   83.8024    2.4902   -0.5852 H   0  0  0  0  0 15  0  0  0  0  0  0
   83.4464    4.9998   -0.8934 H   0  0  0  0  0 15  0  0  0  0  0  0
   83.3764    5.1926    0.8763 H   0  0  0  0  0 15  0  0  0  0  0  0
   85.8674    3.7722    0.2273 H   0  0  0  0  0 15  0  0  0  0  0  0
   86.1804    7.7263   -0.1609 H   0  0  0  0  0 15  0  0  0  0  0  0
   84.5254    6.9486   -0.1377 H   0  0  0  0  0 15  0  0  0  0  0  0
   87.7164    4.6768    0.1974 H   0  0  0  0  0 15  0  0  0  0  0  0
   87.8894    6.4800    0.0206 H   0  0  0  0  0 15  0  0  0  0  0  0
   81.2955   -0.2232    1.5601 N   0  0  0  0  0 15  0  0  0  0  0  0
   82.2275   -1.3001    1.8876 C   0  0  0  0  0 15  0  0  0  0  0  0
   83.2405   -1.4313    0.7757 C   0  0  0  0  0 15  0  0  0  0  0  0
   84.4295   -1.4406    1.0540 O   0  0  0  0  0 15  0  0  0  0  0  0
   81.5295   -2.6759    2.0797 C   0  0  0  0  0 15  0  0  0  0  0  0
   80.7025   -2.7643    3.3897 C   0  0  0  0  0 15  0  0  0  0  0  0
   79.7615   -3.9502    3.4763 C   0  0  0  0  0 15  0  0  0  0  0  0
   78.7875   -3.8344    4.2067 O   0  0  0  0  0 15  0  0  0  0  0  0
   79.9895   -5.0925    2.7865 N   0  0  0  0  0 15  0  0  0  0  0  0
   82.7545   -1.0224    2.8172 H   0  0  0  0  0 15  0  0  0  0  0  0
   80.3155   -0.4133    1.5654 H   0  0  0  0  0 15  0  0  0  0  0  0
   82.3075   -3.4530    2.1107 H   0  0  0  0  0 15  0  0  0  0  0  0
   80.8775   -2.8796    1.2164 H   0  0  0  0  0 15  0  0  0  0  0  0
   80.0975   -1.8522    3.4798 H   0  0  0  0  0 15  0  0  0  0  0  0
   81.3855   -2.7931    4.2528 H   0  0  0  0  0 15  0  0  0  0  0  0
   80.7835   -5.2156    2.1908 H   0  0  0  0  0 15  0  0  0  0  0  0
   79.3405   -5.8501    2.8742 H   0  0  0  0  0 15  0  0  0  0  0  0
   82.7736   -1.4979   -0.4899 N   0  0  0  0  0 15  0  0  0  0  0  0
   84.0196   -1.6008   -1.2451 C   0  0  0  0  0 15  0  0  0  0  0  0
   84.3526   -0.2916   -1.9200 C   0  0  0  0  0 15  0  0  0  0  0  0
   83.6276    0.7056   -1.8125 O   0  0  0  0  0 15  0  0  0  0  0  0
   83.9106   -2.7679   -2.3034 C   0  0  0  0  0 15  0  0  0  0  0  0
   83.7636   -4.1753   -1.6729 C   0  0  0  0  0 15  0  0  0  0  0  0
   85.0826   -2.8911   -3.3182 C   0  0  0  0  0 15  0  0  0  0  0  0
   82.2016   -0.5826   -0.4513 H   0  0  0  0  0 15  0  0  0  0  0  0
   84.8436   -1.8212   -0.5416 H   0  0  0  0  0 15  0  0  0  0  0  0
   82.9936   -2.5813   -2.9035 H   0  0  0  0  0 15  0  0  0  0  0  0
   84.6656   -4.4774   -1.1103 H   0  0  0  0  0 15  0  0  0  0  0  0
   82.9086   -4.2266   -0.9766 H   0  0  0  0  0 15  0  0  0  0  0  0
   83.5796   -4.9509   -2.4410 H   0  0  0  0  0 15  0  0  0  0  0  0
   86.0556   -3.0613   -2.8182 H   0  0  0  0  0 15  0  0  0  0  0  0
   84.9316   -3.7243   -4.0322 H   0  0  0  0  0 15  0  0  0  0  0  0
   85.1926   -1.9893   -3.9482 H   0  0  0  0  0 15  0  0  0  0  0  0
   84.2517    0.7417   -1.3905 N   0  0  0  0  0 15  0  0  0  0  0  0
   85.1817    1.8690   -1.3997 C   0  0  0  0  0 15  0  0  0  0  0  0
   86.1627    1.6804   -0.2639 C   0  0  0  0  0 15  0  0  0  0  0  0
   87.3477    1.8846   -0.4688 O   0  0  0  0  0 15  0  0  0  0  0  0
   84.4777    3.2457   -1.2357 C   0  0  0  0  0 15  0  0  0  0  0  0
   83.4317    3.5806   -2.3448 C   0  0  0  0  0 15  0  0  0  0  0  0
   82.7577    4.9459   -2.0318 C   0  0  0  0  0 15  0  0  0  0  0  0
   84.0577    3.6172   -3.7677 C   0  0  0  0  0 15  0  0  0  0  0  0
   85.7517    1.8639   -2.3430 H   0  0  0  0  0 15  0  0  0  0  0  0
   83.2977    0.8954   -1.1278 H   0  0  0  0  0 15  0  0  0  0  0  0
   85.2507    4.0310   -1.2283 H   0  0  0  0  0 15  0  0  0  0  0  0
   83.9747    3.2559   -0.2570 H   0  0  0  0  0 15  0  0  0  0  0  0
   82.6337    2.8185   -2.3442 H   0  0  0  0  0 15  0  0  0  0  0  0
   82.2817    4.9218   -1.0377 H   0  0  0  0  0 15  0  0  0  0  0  0
   81.9817    5.1796   -2.7746 H   0  0  0  0  0 15  0  0  0  0  0  0
   83.5057    5.7549   -2.0408 H   0  0  0  0  0 15  0  0  0  0  0  0
   84.9197    4.3033   -3.7879 H   0  0  0  0  0 15  0  0  0  0  0  0
   83.3167    3.9660   -4.5036 H   0  0  0  0  0 15  0  0  0  0  0  0
   84.3867    2.6167   -4.0823 H   0  0  0  0  0 15  0  0  0  0  0  0
   85.7298    1.2412    0.9712 N   0  0  0  0  0 15  0  0  0  0  0  0
   86.6928    1.0316    2.0467 C   0  0  0  0  0 15  0  0  0  0  0  0
   87.6928   -0.0099    1.6080 C   0  0  0  0  0 15  0  0  0  0  0  0
   88.8828    0.2307    1.7267 O   0  0  0  0  0 15  0  0  0  0  0  0
   86.0148    0.5628    3.3622 C   0  0  0  0  0 15  0  0  0  0  0  0
   87.2078    1.9861    2.2471 H   0  0  0  0  0 15  0  0  0  0  0  0
   84.7608    1.0629    1.1459 H   0  0  0  0  0 15  0  0  0  0  0  0
   85.4958   -0.3952    3.2188 H   0  0  0  0  0 15  0  0  0  0  0  0
   85.2808    1.3144    3.6941 H   0  0  0  0  0 15  0  0  0  0  0  0
   86.7708    0.4370    4.1531 H   0  0  0  0  0 15  0  0  0  0  0  0
   87.2079   -1.1713    1.0544 N   0  0  0  0  0 15  0  0  0  0  0  0
   88.4539   -1.8773    0.7671 C   0  0  0  0  0 15  0  0  0  0  0  0
   88.7869   -1.8098   -0.7043 C   0  0  0  0  0 15  0  0  0  0  0  0
   88.0619   -1.2195   -1.5152 O   0  0  0  0  0 15  0  0  0  0  0  0
   88.3449   -3.3766    1.2513 C   0  0  0  0  0 15  0  0  0  0  0  0
   88.1979   -3.5315    2.7858 C   0  0  0  0  0 15  0  0  0  0  0  0
   89.5169   -4.3177    0.8523 C   0  0  0  0  0 15  0  0  0  0  0  0
   86.6359   -0.6817    0.2801 H   0  0  0  0  0 15  0  0  0  0  0  0
   89.2779   -1.3773    1.3088 H   0  0  0  0  0 15  0  0  0  0  0  0
   87.4279   -3.8037    0.7905 H   0  0  0  0  0 15  0  0  0  0  0  0
   89.0999   -3.1943    3.3281 H   0  0  0  0  0 15  0  0  0  0  0  0
   87.3429   -2.9535    3.1773 H   0  0  0  0  0 15  0  0  0  0  0  0
   88.0139   -4.5840    3.0752 H   0  0  0  0  0 15  0  0  0  0  0  0
   90.4899   -3.9691    1.2491 H   0  0  0  0  0 15  0  0  0  0  0  0
   89.3659   -5.3520    1.2187 H   0  0  0  0  0 15  0  0  0  0  0  0
   89.6269   -4.4143   -0.2435 H   0  0  0  0  0 15  0  0  0  0  0  0
   88.7249   -0.9705   -1.2908 O   0  0  0  0  0 15  0  0  0  0  0  0
   89.4159   -0.6106   -1.8382 H   0  0  0  0  0 15  0  0  0  0  0  0
M  END
$$$$
