drugbank_target|P49354 Protein farnesyltransferase/geranylgeranyltransferase type-1 subunit alpha (DB04893; DB06448; DB06953; DB07216; DB07227; DB07771; DB07780; DB07841; DB07895; DB08180; DB08674; DB08676)
 OpenBabel12092120103D

  0  0  0     0  0            999 V3000
M  V30 BEGIN CTAB
M  V30 COUNTS 6147 6228 0 0 0
M  V30 BEGIN ATOM
M  V30 1 H -0.908 1.98254 -0.117106 0
M  V30 2 N 0 1.576 0 0
M  V30 3 C 0.933 2.03868 1.02534 0
M  V30 4 C 1.911 0.928543 1.3348 0
M  V30 5 O 3.095 1.19667 1.45644 0
M  V30 6 C 0.222 2.43627 2.35294 0
M  V30 7 C -0.732 3.65373 2.2001 0
M  V30 8 S 0.101 5.13292 1.52614 0
M  V30 9 C 1.257 5.56322 2.86805 0
M  V30 10 H 1.49 2.90518 0.631377 0
M  V30 11 H -0.977 1.52953 0.210867 0
M  V30 12 H 0.981 2.67203 3.11629 0
M  V30 13 H -0.358 1.57376 2.7183 0
M  V30 14 H -1.165 3.90944 3.18086 0
M  V30 15 H -1.563 3.418 1.51819 0
M  V30 16 H 0.729 5.58782 3.83104 0
M  V30 17 H 1.672 6.56266 2.65933 0
M  V30 18 H 2.08 4.83886 2.90714 0
M  V30 19 N 1.4781 -0.272755 1.55222 0
M  V30 20 C 2.4411 -1.32041 1.87344 0
M  V30 21 C 3.4411 -1.42342 0.74803 0
M  V30 22 O 4.6311 -1.41488 1.0162 0
M  V30 23 C 1.7631 -2.70173 2.07893 0
M  V30 24 H 2.9561 -1.04789 2.80997 0
M  V30 25 H 0.5091 -0.51083 1.47717 0
M  V30 26 H 1.2441 -3.02605 1.16622 0
M  V30 27 H 1.0291 -2.64082 2.89833 0
M  V30 28 H 2.5191 -3.45869 2.34017 0
M  V30 29 N 2.9562 -1.48159 -0.537278 0
M  V30 30 C 3.9192 -1.61665 -1.62472 0
M  V30 31 C 4.9192 -0.490395 -1.5314 0
M  V30 32 O 6.1092 -0.755998 -1.5694 0
M  V30 33 C 3.2412 -1.57997 -3.02076 0
M  V30 34 H 4.4342 -2.58621 -1.51839 0
M  V30 35 H 1.9872 -1.36647 -0.758771 0
M  V30 36 H 2.7222 -0.624913 -3.18222 0
M  V30 37 H 2.5072 -2.39755 -3.10258 0
M  V30 38 H 3.9972 -1.70627 -3.81151 0
M  V30 39 N 4.4343 0.785586 -1.36625 0
M  V30 40 C 5.6623 1.57448 -1.3423 0
M  V30 41 C 6.0773 1.88649 0.0755653 0
M  V30 42 O 5.4343 1.50414 1.03354 0
M  V30 43 C 5.4853 2.89316 -2.16745 0
M  V30 44 O 5.2063 2.59459 -3.53005 0
M  V30 45 C 6.7073 3.83606 -2.22174 0
M  V30 46 H 3.9273 0.488226 -0.4603 0
M  V30 47 H 6.4713 0.974733 -1.79775 0
M  V30 48 H 4.6263 3.4575 -1.74745 0
M  V30 49 H 5.0403 3.43804 -3.96105 0
M  V30 50 H 6.5143 4.73181 -2.8426 0
M  V30 51 H 6.9913 4.21734 -1.22627 0
M  V30 52 H 7.5973 3.33104 -2.64427 0
M  V30 53 N 5.9124 1.20967 1.01018 0
M  V30 54 C 6.8224 0.980157 2.13143 0
M  V30 55 C 7.8384 -0.0660665 1.73875 0
M  V30 56 O 9.0144 0.122821 2.01025 0
M  V30 57 C 6.0794 0.54216 3.42435 0
M  V30 58 C 5.1404 1.65999 3.95908 0
M  V30 59 C 4.3734 1.2428 5.19028 0
M  V30 60 O 4.5964 0.114196 5.70286 0
M  V30 61 O 3.5304 2.05271 5.65816 0
M  V30 62 H 7.3564 1.91913 2.35379 0
M  V30 63 H 4.9414 0.994099 1.11526 0
M  V30 64 H 6.8234 0.30744 4.20277 0
M  V30 65 H 5.4984 -0.36815 3.216 0
M  V30 66 H 4.4054 1.94906 3.19316 0
M  V30 67 H 5.7384 2.54753 4.21143 0
M  V30 68 N 7.3905 -1.2043 1.01659 0
M  V30 69 C 8.6385 -1.89423 0.704522 0
M  V30 70 C 8.9595 -1.79231 -0.768197 0
M  V30 71 O 8.2295 -1.1947 -1.55254 0
M  V30 72 H 6.8095 -0.701178 0.257602 0
M  V30 73 H 9.4715 -1.4626 1.28818 0
M  V30 74 H 8.5675 -2.96052 0.987916 0
M  V30 75 N 8.8686 -0.792821 -1.36206 0
M  V30 76 C 10.1146 -0.36733 -1.99446 0
M  V30 77 C 10.4476 1.05917 -1.62774 0
M  V30 78 O 9.7226 1.7324 -0.88421 0
M  V30 79 C 10.0056 -0.535044 -3.56103 0
M  V30 80 C 9.8586 -2.00548 -4.02617 0
M  V30 81 C 11.1776 0.0478191 -4.40074 0
M  V30 82 H 8.2966 -0.134941 -0.724541 0
M  V30 83 H 10.9386 -0.999794 -1.61568 0
M  V30 84 H 9.0886 0.00336329 -3.885 0
M  V30 85 H 10.7606 -2.60521 -3.80692 0
M  V30 86 H 9.0036 -2.50686 -3.54032 0
M  V30 87 H 9.6746 -2.07377 -5.11565 0
M  V30 88 H 12.1506 -0.411822 -4.14057 0
M  V30 89 H 11.0266 -0.0995336 -5.4881 0
M  V30 90 H 11.2876 1.14025 -4.27142 0
M  V30 91 N 10.3467 1.47872 -0.545128 0
M  V30 92 C 11.5947 2.02093 -0.016553 0
M  V30 93 C 11.9157 1.42305 1.3332 0
M  V30 94 O 11.1857 0.593853 1.86682 0
M  V30 95 H 9.7657 0.746993 -0.00313038 0
M  V30 96 H 12.4277 1.81414 -0.712397 0
M  V30 97 H 11.5237 3.11996 0.0805422 0
M  V30 98 N 11.8248 0.280983 1.55075 0
M  V30 99 C 12.7348 -0.61388 2.26426 0
M  V30 100 C 13.7508 -1.16521 1.29224 0
M  V30 101 O 14.9268 -1.19426 1.62171 0
M  V30 102 C 11.9918 -1.7788 2.9759 0
M  V30 103 C 11.0528 -1.26355 4.10284 0
M  V30 104 C 10.2858 -2.37295 4.78045 0
M  V30 105 O 10.5088 -3.56777 4.45047 0
M  V30 106 O 9.4428 -2.05119 5.65871 0
M  V30 107 H 13.2688 -0.0356932 3.03679 0
M  V30 108 H 10.8538 0.0481686 1.49322 0
M  V30 109 H 12.7358 -2.45791 3.42293 0
M  V30 110 H 11.4108 -2.34397 2.23249 0
M  V30 111 H 10.3178 -0.550735 3.70024 0
M  V30 112 H 11.6508 -0.744065 4.86543 0
M  V30 113 N 13.3029 -1.57598 0.00835791 0
M  V30 114 C 14.2659 -2.07884 -0.965242 0
M  V30 115 C 15.2659 -0.989825 -1.26725 0
M  V30 116 O 16.4559 -1.25218 -1.21104 0
M  V30 117 C 13.5879 -2.52731 -2.28779 0
M  V30 118 H 14.7809 -2.95178 -0.530112 0
M  V30 119 H 12.3339 -1.54458 -0.239283 0
M  V30 120 H 13.0689 -1.68705 -2.76964 0
M  V30 121 H 12.8539 -3.32272 -2.08177 0
M  V30 122 H 14.3439 -2.91933 -2.98605 0
M  V30 123 N 14.781 0.264519 -1.55364 0
M  V30 124 C 15.744 1.31046 -1.88042 0
M  V30 125 C 16.744 1.41943 -0.755569 0
M  V30 126 O 17.934 1.40947 -1.02369 0
M  V30 127 C 15.066 2.69067 -2.09323 0
M  V30 128 H 16.259 1.03297 -2.81549 0
M  V30 129 H 13.812 0.502989 -1.47986 0
M  V30 130 H 14.547 3.01982 -1.18226 0
M  V30 131 H 14.332 2.62542 -2.91229 0
M  V30 132 H 15.822 3.44623 -2.35848 0
M  V30 133 N 16.2591 1.48442 0.529413 0
M  V30 134 C 17.1911 1.59095 1.64989 0
M  V30 135 C 18.2041 0.475212 1.5571 0
M  V30 136 O 19.3931 0.746081 1.6216 0
M  V30 137 C 16.4931 1.50518 3.0364 0
M  V30 138 C 15.6661 2.77142 3.38395 0
M  V30 139 C 14.7251 2.62012 4.56329 0
M  V30 140 O 13.7511 3.35898 4.59522 0
M  V30 141 N 14.9531 1.71667 5.54536 0
M  V30 142 H 17.7181 2.55723 1.56287 0
M  V30 143 H 15.2791 1.45173 0.716697 0
M  V30 144 H 17.2711 1.38091 3.80412 0
M  V30 145 H 15.8411 0.618627 3.06418 0
M  V30 146 H 15.0611 3.0413 2.50796 0
M  V30 147 H 16.3491 3.61146 3.58401 0
M  V30 148 H 15.7471 1.10841 5.54735 0
M  V30 149 H 14.3041 1.65178 6.30523 0
M  V30 150 N 17.7372 -0.778329 1.37039 0
M  V30 151 C 18.9852 -1.53361 1.31623 0
M  V30 152 C 19.3062 -1.94739 -0.100831 0
M  V30 153 O 18.5762 -1.65797 -1.04347 0
M  V30 154 H 17.1562 -0.568794 0.484234 0
M  V30 155 H 19.8182 -0.926742 1.71457 0
M  V30 156 H 18.9142 -2.43606 1.95096 0
M  V30 157 N 19.2153 -1.21501 -1.00376 0
M  V30 158 C 20.4633 -1.03095 -1.73827 0
M  V30 159 C 20.7843 0.436341 -1.90055 0
M  V30 160 O 20.0543 1.31466 -1.45236 0
M  V30 161 H 18.6343 -0.378487 -0.644016 0
M  V30 162 H 21.2963 -1.52831 -1.20949 0
M  V30 163 H 20.3923 -1.49991 -2.73695 0
M  V30 164 N 20.6934 1.19889 -1.02296 0
M  V30 165 C 21.6034 2.26571 -0.608508 0
M  V30 166 C 22.6194 1.70299 0.356964 0
M  V30 167 O 23.7954 2.00235 0.216326 0
M  V30 168 C 20.8604 3.46677 0.0402814 0
M  V30 169 C 19.9214 4.18153 -0.97194 0
M  V30 170 C 19.1544 5.32525 -0.354016 0
M  V30 171 O 19.3774 5.64112 0.844604 0
M  V30 172 O 18.3114 5.92242 -1.07391 0
M  V30 173 H 22.1374 2.64251 -1.49684 0
M  V30 174 H 19.7224 1.26629 -0.792809 0
M  V30 175 H 21.6044 4.19475 0.402324 0
M  V30 176 H 20.2794 3.10858 0.902707 0
M  V30 177 H 19.1864 3.47499 -1.38546 0
M  V30 178 H 20.5194 4.57927 -1.80454 0
M  V30 179 N 22.1715 0.800033 1.35784 0
M  V30 180 C 23.5825 0.439142 1.81462 0
M  V30 181 C 23.9335 -1.03813 1.66485 0
M  V30 182 O 23.0585 -1.80626 1.19177 0
M  V30 183 C 23.6535 0.790314 3.29453 0
M  V30 184 C 22.2125 0.482111 3.733 0
M  V30 185 C 21.3595 1.01938 2.57883 0
M  V30 186 H 24.3105 0.992254 1.23855 0
M  V30 187 H 24.3315 0.0853677 3.80404 0
M  V30 188 H 23.8435 1.86554 3.40322 0
M  V30 189 H 21.9445 -0.584652 3.67984 0
M  V30 190 H 22.0575 1.01015 4.6833 0
M  V30 191 H 20.4215 0.442043 2.50835 0
M  V30 192 H 21.2045 2.10059 2.71533 0
M  V30 193 N 23.6496 -1.47581 0.552962 0
M  V30 194 C 24.8976 -2.02082 0.0272703 0
M  V30 195 C 25.2186 -1.4301 -1.32563 0
M  V30 196 O 24.4886 -0.603745 -1.86365 0
M  V30 197 H 23.0686 -0.746966 0.00709182 0
M  V30 198 H 25.7306 -1.81033 0.722008 0
M  V30 199 H 24.8266 -3.12034 -0.0639951 0
M  V30 200 N 25.1277 -0.289203 -1.54924 0
M  V30 201 C 26.0597 0.625583 -2.20497 0
M  V30 202 C 27.0727 1.10667 -1.19402 0
M  V30 203 O 28.2617 1.02615 -1.46056 0
M  V30 204 C 25.3617 1.86702 -2.82835 0
M  V30 205 C 24.5347 1.5304 -4.09753 0
M  V30 206 C 23.5937 2.62576 -4.56005 0
M  V30 207 O 22.6197 2.28167 -5.21468 0
M  V30 208 N 23.8217 3.92901 -4.27328 0
M  V30 209 H 26.5867 0.0642801 -2.99631 0
M  V30 210 H 24.1477 -0.110896 -1.6152 0
M  V30 211 H 26.1397 2.59304 -3.10715 0
M  V30 212 H 24.7097 2.33702 -2.07611 0
M  V30 213 H 23.9297 0.637564 -3.8901 0
M  V30 214 H 25.2177 1.28072 -4.92418 0
M  V30 215 H 24.6157 4.23671 -3.74859 0
M  V30 216 H 23.1727 4.61837 -4.59946 0
M  V30 217 N 26.6058 1.57591 -0.0167156 0
M  V30 218 C 28.0168 1.79201 0.523834 0
M  V30 219 C 28.3678 0.925796 1.72984 0
M  V30 220 O 27.4928 0.132792 2.15992 0
M  V30 221 C 28.0878 3.25 0.957091 0
M  V30 222 C 26.6468 3.47648 1.44283 0
M  V30 223 C 25.7938 2.74374 0.401757 0
M  V30 224 H 28.7448 1.56831 -0.242816 0
M  V30 225 H 28.7658 3.34031 1.82219 0
M  V30 226 H 28.2778 3.88019 0.0791415 0
M  V30 227 H 26.3788 2.89866 2.34113 0
M  V30 228 H 26.4918 4.56352 1.45877 0
M  V30 229 H 24.8558 2.39485 0.867121 0
M  V30 230 H 25.6388 3.40102 -0.467513 0
M  V30 231 N 28.0839 -0.256276 1.55502 0
M  V30 232 C 29.0469 -1.30047 1.88734 0
M  V30 233 C 30.0469 -1.4154 0.763086 0
M  V30 234 O 31.2369 -1.40403 1.03115 0
M  V30 235 C 28.3689 -2.67953 2.10747 0
M  V30 236 H 29.5619 -1.01802 2.82093 0
M  V30 237 H 27.1149 -0.495134 1.4825 0
M  V30 238 H 27.8499 -3.01351 1.19825 0
M  V30 239 H 27.6349 -2.60993 2.92617 0
M  V30 240 H 29.1249 -3.43368 2.37673 0
M  V30 241 N 29.562 -1.4872 -0.521534 0
M  V30 242 C 30.494 -1.59968 -1.64143 0
M  V30 243 C 31.507 -0.483463 -1.55456 0
M  V30 244 O 32.696 -0.75467 -1.61762 0
M  V30 245 C 29.796 -1.52127 -3.02838 0
M  V30 246 C 28.969 -2.78932 -3.36921 0
M  V30 247 C 28.028 -2.64428 -4.54933 0
M  V30 248 O 27.054 -3.38331 -4.57735 0
M  V30 249 N 28.256 -1.74606 -5.53618 0
M  V30 250 H 31.021 -2.56548 -1.54929 0
M  V30 251 H 28.582 -1.45551 -0.708988 0
M  V30 252 H 30.574 -1.40106 -3.79674 0
M  V30 253 H 29.144 -0.634868 -3.06085 0
M  V30 254 H 28.364 -3.05455 -2.4918 0
M  V30 255 H 29.652 -3.63041 -3.56481 0
M  V30 256 H 29.05 -1.13782 -5.54139 0
M  V30 257 H 27.607 -1.6852 -6.29638 0
M  V30 258 N 31.0401 0.771051 -1.3745 0
M  V30 259 C 32.4511 1.34737 -1.29239 0
M  V30 260 C 32.8021 1.96109 0.0596908 0
M  V30 261 O 31.9271 1.93865 0.961534 0
M  V30 262 C 32.5221 2.44973 -2.34037 0
M  V30 263 C 31.0811 2.98372 -2.29458 0
M  V30 264 C 30.2281 1.71595 -2.17831 0
M  V30 265 H 33.1791 0.571256 -1.48062 0
M  V30 266 H 33.2001 3.24471 -1.98744 0
M  V30 267 H 32.7121 2.00276 -3.32432 0
M  V30 268 H 30.8131 3.47443 -1.34589 0
M  V30 269 H 30.9261 3.53939 -3.229 0
M  V30 270 H 29.2901 1.94547 -1.64388 0
M  V30 271 H 30.0731 1.29001 -3.18141 0
M  V30 272 N 32.5182 1.22032 0.997298 0
M  V30 273 C 33.9292 1.0397 1.55071 0
M  V30 274 C 34.2802 -0.398192 1.92117 0
M  V30 275 O 33.4052 -1.28254 1.74298 0
M  V30 276 C 34.0002 1.88109 2.81781 0
M  V30 277 C 32.5592 1.74357 3.33581 0
M  V30 278 C 31.7062 1.84846 2.06706 0
M  V30 279 H 34.6572 1.35941 0.818883 0
M  V30 280 H 34.6782 1.39589 3.53971 0
M  V30 281 H 34.1902 2.92754 2.54787 0
M  V30 282 H 32.2912 0.72427 3.65493 0
M  V30 283 H 32.4042 2.56772 4.04481 0
M  V30 284 H 30.7682 1.28238 2.20062 0
M  V30 285 H 31.5512 2.91014 1.82114 0
M  V30 286 N 33.9963 -1.19345 1.0293 0
M  V30 287 C 35.4073 -1.70725 0.755633 0
M  V30 288 C 35.7583 -1.82326 -0.724676 0
M  V30 289 O 34.8833 -1.49471 -1.56484 0
M  V30 290 C 35.4783 -3.10084 1.36503 0
M  V30 291 C 34.0373 -3.58723 1.13994 0
M  V30 292 C 33.1843 -2.35577 1.46283 0
M  V30 293 H 36.1353 -1.0418 1.19718 0
M  V30 294 H 36.1563 -3.72787 0.762217 0
M  V30 295 H 35.6683 -3.01609 2.44241 0
M  V30 296 H 33.7693 -3.72512 0.0807901 0
M  V30 297 H 33.8823 -4.42816 1.82894 0
M  V30 298 H 32.2463 -2.38935 0.88217 0
M  V30 299 H 33.0293 -2.29731 2.55105 0
M  V30 300 N 35.4744 -0.807222 -1.35358 0
M  V30 301 C 36.4064 -0.175717 -2.28525 0
M  V30 302 C 37.4194 0.625354 -1.5031 0
M  V30 303 O 38.6084 0.457611 -1.72535 0
M  V30 304 C 35.7084 0.773471 -3.29956 0
M  V30 305 C 34.8814 0.0186296 -4.37396 0
M  V30 306 C 33.9404 0.886395 -5.18681 0
M  V30 307 O 32.9664 0.337106 -5.68201 0
M  V30 308 N 34.1684 2.20839 -5.36852 0
M  V30 309 H 36.9334 -0.976091 -2.83359 0
M  V30 310 H 34.4944 -0.662737 -1.47714 0
M  V30 311 H 36.4864 1.35824 -3.81227 0
M  V30 312 H 35.0564 1.47465 -2.75632 0
M  V30 313 H 34.2764 -0.747349 -3.87051 0
M  V30 314 H 35.5644 -0.501577 -5.06322 0
M  V30 315 H 34.9624 2.67858 -4.98265 0
M  V30 316 H 33.5194 2.74237 -5.91301 0
M  V30 317 N 36.9525 1.47285 -0.560781 0
M  V30 318 C 38.3635 1.86258 -0.128343 0
M  V30 319 C 38.7145 1.46699 1.30284 0
M  V30 320 O 37.8395 0.871698 1.98067 0
M  V30 321 C 38.4345 3.38044 -0.22614 0
M  V30 322 C 36.9935 3.76096 0.151283 0
M  V30 323 C 36.1405 2.71335 -0.572084 0
M  V30 324 H 39.0915 1.38752 -0.770297 0
M  V30 325 H 39.1125 3.76441 0.554322 0
M  V30 326 H 38.6245 3.66806 -1.26788 0
M  V30 327 H 36.7255 3.52951 1.19399 0
M  V30 328 H 36.8385 4.78641 -0.209765 0
M  V30 329 H 35.2025 2.54696 -0.0147653 0
M  V30 330 H 35.9855 3.02938 -1.61504 0
M  V30 331 N 38.4306 0.297415 1.54768 0
M  V30 332 C 39.3806 -0.595275 2.20092 0
M  V30 333 C 40.3646 -1.10163 1.17273 0
M  V30 334 O 41.5566 -1.043 1.43006 0
M  V30 335 C 38.6856 -1.7684 2.94249 0
M  V30 336 C 37.7716 -1.27818 4.0438 0
M  V30 337 N 38.1626 -0.505695 5.03266 0
M  V30 338 C 36.4606 -1.55923 4.17857 0
M  V30 339 C 37.1616 -0.245094 5.81183 0
M  V30 340 N 36.1376 -0.823881 5.3732 0
M  V30 341 H 39.9396 0.00250837 2.939 0
M  V30 342 H 37.4536 0.102007 1.62079 0
M  V30 343 H 39.4506 -2.41944 3.39513 0
M  V30 344 H 38.1106 -2.36992 2.21957 0
M  V30 345 H 39.1216 -0.150928 5.1768 0
M  V30 346 H 35.7986 -2.16849 3.56767 0
M  V30 347 H 37.1886 0.375084 6.70852 0
M  V30 348 N 39.9087 -1.5758 0.0250728 0
M  V30 349 C 41.3197 -1.79476 -0.514323 0
M  V30 350 C 41.6707 -0.934956 -1.72491 0
M  V30 351 O 40.7957 -0.144245 -2.15919 0
M  V30 352 C 41.3907 -3.25503 -0.939842 0
M  V30 353 C 39.9497 -3.48408 -1.42438 0
M  V30 354 C 39.0967 -2.74583 -0.387201 0
M  V30 355 H 42.0477 -1.567 0.25113 0
M  V30 356 H 42.0687 -3.34992 -1.80445 0
M  V30 357 H 41.5807 -3.88056 -0.0585628 0
M  V30 358 H 39.6817 -2.91103 -2.32572 0
M  V30 359 H 39.7947 -4.57119 -1.43455 0
M  V30 360 H 38.1587 -2.39942 -0.854409 0
M  V30 361 H 38.9417 -3.39849 0.485543 0
M  V30 362 N 41.3868 0.248026 -1.55636 0
M  V30 363 C 42.7978 0.817177 -1.67866 0
M  V30 364 C 43.1488 1.86069 -0.622322 0
M  V30 365 O 42.2738 2.15157 0.231618 0
M  V30 366 C 42.8688 1.489 -3.04326 0
M  V30 367 C 41.4278 2.00587 -3.185 0
M  V30 368 C 40.5748 0.856573 -2.63739 0
M  V30 369 H 43.5258 0.0238579 -1.58682 0
M  V30 370 H 43.5468 2.35698 -2.98708 0
M  V30 371 H 43.0588 0.729279 -3.81186 0
M  V30 372 H 41.1598 2.79443 -2.4646 0
M  V30 373 H 41.2728 2.20402 -4.25393 0
M  V30 374 H 39.6368 1.25678 -2.21534 0
M  V30 375 H 40.4198 0.109953 -3.43124 0
M  V30 376 N 42.8649 1.48995 0.513639 0
M  V30 377 C 44.2759 1.5119 1.09537 0
M  V30 378 C 44.6269 0.290906 1.94031 0
M  V30 379 O 43.7519 -0.60049 2.07902 0
M  V30 380 C 44.3469 2.73964 1.99322 0
M  V30 381 C 42.9059 2.78978 2.52682 0
M  V30 382 C 42.0529 2.44934 1.30009 0
M  V30 383 H 45.0039 1.55875 0.298125 0
M  V30 384 H 45.0249 2.53409 2.83838 0
M  V30 385 H 44.5369 3.62813 1.37799 0
M  V30 386 H 42.6379 1.94378 3.1788 0
M  V30 387 H 42.7509 3.8083 2.90698 0
M  V30 388 H 41.1149 1.9644 1.62122 0
M  V30 389 H 41.8979 3.36043 0.702131 0
M  V30 390 N 44.343 -0.763751 1.37857 0
M  V30 391 C 45.754 -1.3405 1.29952 0
M  V30 392 C 46.105 -1.96138 -0.0492898 0
M  V30 393 O 45.23 -1.94372 -0.951239 0
M  V30 394 C 45.825 -2.43729 2.35333 0
M  V30 395 C 44.384 -2.97151 2.31037 0
M  V30 396 C 43.531 -1.70438 2.18738 0
M  V30 397 H 46.482 -0.563396 1.48363 0
M  V30 398 H 46.503 -3.23412 2.00462 0
M  V30 399 H 46.015 -1.9851 3.33489 0
M  V30 400 H 44.116 -3.46724 1.3643 0
M  V30 401 H 44.229 -3.52221 3.24772 0
M  V30 402 H 42.593 -1.93673 1.65418 0
M  V30 403 H 43.376 -1.27312 3.18821 0
M  V30 404 N 45.8211 -1.22559 -0.990812 0
M  V30 405 C 46.7531 -0.955325 -2.08342 0
M  V30 406 C 47.7661 0.0668408 -1.62663 0
M  V30 407 O 48.9551 -0.167421 -1.77713 0
M  V30 408 C 46.0551 -0.415566 -3.36342 0
M  V30 409 C 45.2281 -1.49544 -4.11042 0
M  V30 410 C 44.2871 -0.962399 -5.17324 0
M  V30 411 O 43.3131 -1.64907 -5.44788 0
M  V30 412 N 44.5151 0.215134 -5.80101 0
M  V30 413 H 47.2801 -1.89596 -2.32106 0
M  V30 414 H 44.8411 -1.13276 -1.15673 0
M  V30 415 H 46.8331 -0.0442386 -4.04676 0
M  V30 416 H 45.4031 0.430232 -3.09625 0
M  V30 417 H 44.6231 -2.04 -3.37309 0
M  V30 418 H 45.9111 -2.22195 -4.57719 0
M  V30 419 H 45.3091 0.789779 -5.6016 0
M  V30 420 H 43.8661 0.527826 -6.49659 0
M  V30 421 N 47.2992 1.18797 -1.03562 0
M  V30 422 C 48.2312 2.21731 -0.580337 0
M  V30 423 C 49.2442 1.59051 0.347349 0
M  V30 424 O 50.4332 1.77929 0.142669 0
M  V30 425 C 47.5332 3.38459 0.172805 0
M  V30 426 C 46.7062 4.3072 -0.761496 0
M  V30 427 C 45.7652 5.26174 -0.0525547 0
M  V30 428 O 44.7912 5.65108 -0.681333 0
M  V30 429 N 45.9932 5.67624 1.21586 0
M  V30 430 H 48.7582 2.61417 -1.46565 0
M  V30 431 H 46.3192 1.33531 -0.915476 0
M  V30 432 H 48.3112 3.99335 0.656793 0
M  V30 433 H 46.8812 2.97507 0.959602 0
M  V30 434 H 46.1012 3.67525 -1.42544 0
M  V30 435 H 47.3892 4.89267 -1.39626 0
M  V30 436 H 46.7872 5.38038 1.74732 0
M  V30 437 H 45.3442 6.30721 1.64421 0
M  V30 438 N 48.7773 0.814389 1.34928 0
M  V30 439 C 49.7093 0.187834 2.28429 0
M  V30 440 C 50.7223 -0.617374 1.5064 0
M  V30 441 O 51.9113 -0.448454 1.72775 0
M  V30 442 C 49.0113 -0.755962 3.30361 0
M  V30 443 C 48.1843 0.00456686 4.374 0
M  V30 444 C 47.2433 -0.858876 5.19143 0
M  V30 445 O 46.2693 -0.306968 5.68372 0
M  V30 446 N 47.4713 -2.17988 5.38016 0
M  V30 447 H 50.2363 0.991105 2.82838 0
M  V30 448 H 47.7973 0.670561 1.4736 0
M  V30 449 H 49.7893 -1.338 3.81942 0
M  V30 450 H 48.3593 -1.46001 2.7641 0
M  V30 451 H 47.5793 0.767865 3.86649 0
M  V30 452 H 48.8673 0.528422 5.06049 0
M  V30 453 H 48.2653 -2.65212 4.99679 0
M  V30 454 H 46.8223 -2.71098 5.92747 0
M  V30 455 N 50.2554 -1.46986 0.568584 0
M  V30 456 C 51.2054 -2.27179 -0.193339 0
M  V30 457 C 52.1894 -1.35035 -0.874895 0
M  V30 458 O 53.3814 -1.5931 -0.771322 0
M  V30 459 C 50.5104 -3.21063 -1.21546 0
M  V30 460 C 49.5964 -4.2069 -0.536738 0
M  V30 461 N 49.9874 -5.04218 0.399673 0
M  V30 462 C 48.2854 -4.38961 -0.789254 0
M  V30 463 C 48.9864 -5.76242 0.795017 0
M  V30 464 N 47.9624 -5.434 0.1473 0
M  V30 465 H 51.7644 -2.89146 0.526458 0
M  V30 466 H 49.2784 -1.57664 0.389342 0
M  V30 467 H 51.2754 -3.77209 -1.77536 0
M  V30 468 H 49.9354 -2.60654 -1.93623 0
M  V30 469 H 50.9464 -5.12077 0.774454 0
M  V30 470 H 47.6234 -3.89713 -1.49767 0
M  V30 471 H 49.0134 -6.53417 1.56513 0
M  V30 472 N 51.7335 -0.305618 -1.54608 0
M  V30 473 C 52.6805 0.568421 -2.23691 0
M  V30 474 C 53.6505 1.12592 -1.22116 0
M  V30 475 O 54.8355 1.16959 -1.50749 0
M  V30 476 C 51.9755 1.7322 -2.98477 0
M  V30 477 C 51.0885 1.20566 -4.14835 0
M  V30 478 C 50.2235 2.33368 -4.77193 0
M  V30 479 C 49.2625 1.7787 -5.85686 0
M  V30 480 N 48.3995 2.84263 -6.4198 0
M  V30 481 H 53.2395 -0.0272867 -2.97988 0
M  V30 482 H 50.7765 -0.0252363 -1.47078 0
M  V30 483 H 52.7345 2.41675 -3.40072 0
M  V30 484 H 51.3645 2.29947 -2.26548 0
M  V30 485 H 50.4165 0.413223 -3.78149 0
M  V30 486 H 51.7285 0.759417 -4.92985 0
M  V30 487 H 50.8825 3.09761 -5.21664 0
M  V30 488 H 49.6215 2.8132 -3.98385 0
M  V30 489 H 48.6265 0.99968 -5.40635 0
M  V30 490 H 49.8515 1.30816 -6.66381 0
M  V30 491 H 47.7975 3.31541 -5.66053 0
M  V30 492 H 47.7145 2.44149 -7.15491 0
M  V30 493 H 48.9825 3.6054 -6.91109 0
M  V30 494 N 53.2116 1.57565 -0.0334293 0
M  V30 495 C 54.1216 2.13943 0.962572 0
M  V30 496 C 55.1376 1.09276 1.35406 0
M  V30 497 O 56.3136 1.41355 1.4346 0
M  V30 498 C 53.3786 2.65887 2.22497 0
M  V30 499 C 52.4396 3.85286 1.8935 0
M  V30 500 C 51.6726 4.34743 3.09571 0
M  V30 501 O 51.8956 3.83352 4.22371 0
M  V30 502 O 50.8296 5.26538 2.91618 0
M  V30 503 H 54.6556 2.99333 0.513169 0
M  V30 504 H 52.2406 1.4822 0.18743 0
M  V30 505 H 54.1226 2.99346 2.96598 0
M  V30 506 H 52.7976 1.83578 2.6661 0
M  V30 507 H 51.7046 3.56746 1.1262 0
M  V30 508 H 53.0376 4.68771 1.5005 0
M  V30 509 N 54.6897 -0.239769 1.55765 0
M  V30 510 C 55.5997 -1.31831 1.94056 0
M  V30 511 C 56.6157 -1.52275 0.841925 0
M  V30 512 O 57.7917 -1.65759 1.14394 0
M  V30 513 C 54.8567 -2.65156 2.23368 0
M  V30 514 C 53.9177 -2.53173 3.46701 0
M  V30 515 C 53.1507 -3.8014 3.74606 0
M  V30 516 O 53.3737 -4.82343 3.04469 0
M  V30 517 O 52.3077 -3.78344 4.68123 0
M  V30 518 H 56.1337 -1.02347 2.85935 0
M  V30 519 H 53.7187 -0.441123 1.42739 0
M  V30 520 H 55.6007 -3.43929 2.43497 0
M  V30 521 H 54.2757 -2.94358 1.34666 0
M  V30 522 H 53.1827 -1.72662 3.31871 0
M  V30 523 H 54.5157 -2.28915 4.35728 0
M  V30 524 N 56.1678 -1.49265 -0.50573 0
M  V30 525 C 57.1008 -1.60183 -1.62532 0
M  V30 526 C 58.0788 -0.451107 -1.56217 0
M  V30 527 O 59.2628 -0.666016 -1.76342 0
M  V30 528 C 56.3898 -1.55238 -3.01029 0
M  V30 529 C 55.4358 -2.7545 -3.25621 0
M  V30 530 S 56.2688 -4.37174 -3.09256 0
M  V30 531 C 57.4248 -4.34866 -4.50158 0
M  V30 532 H 57.6578 -2.54894 -1.53025 0
M  V30 533 H 55.1908 -1.38098 -0.690535 0
M  V30 534 H 57.1488 -1.53071 -3.80893 0
M  V30 535 H 55.8098 -0.618238 -3.07956 0
M  V30 536 H 55.0028 -2.68197 -4.26716 0
M  V30 537 H 54.6048 -2.75005 -2.53472 0
M  V30 538 H 56.8968 -4.06295 -5.42154 0
M  V30 539 H 57.8398 -5.36223 -4.62462 0
M  V30 540 H 58.2478 -3.65007 -4.30616 0
M  V30 541 N 57.6459 0.756429 -1.3826 0
M  V30 542 C 58.6089 1.85176 -1.35065 0
M  V30 543 C 59.6089 1.58818 -0.251703 0
M  V30 544 O 60.7989 1.66615 -0.508433 0
M  V30 545 C 57.9309 3.22596 -1.10201 0
M  V30 546 H 59.1239 1.89417 -2.3251 0
M  V30 547 H 56.6769 0.95783 -1.23512 0
M  V30 548 H 57.4119 3.24025 -0.133504 0
M  V30 549 H 57.1969 3.43122 -1.89762 0
M  V30 550 H 58.6869 4.02673 -1.10654 0
M  V30 551 N 59.124 1.23083 0.984299 0
M  V30 552 C 60.087 1.00979 2.05757 0
M  V30 553 C 61.087 -0.0269573 1.60777 0
M  V30 554 O 62.277 0.212403 1.729 0
M  V30 555 C 59.409 0.527072 3.36801 0
M  V30 556 H 60.602 1.9622 2.26799 0
M  V30 557 H 58.155 1.05072 1.15714 0
M  V30 558 H 58.89 -0.429294 3.21446 0
M  V30 559 H 58.675 1.27515 3.70786 0
M  V30 560 H 60.165 0.392942 4.15747 0
M  V30 561 N 60.6021 -1.18246 1.0419 0
M  V30 562 C 61.5121 -2.25574 0.644476 0
M  V30 563 C 62.5281 -1.70845 -0.329826 0
M  V30 564 O 63.7041 -2.00554 -0.184443 0
M  V30 565 C 60.7691 -3.46697 0.014877 0
M  V30 566 C 59.8301 -4.16554 1.03834 0
M  V30 567 C 59.0631 -5.31894 0.438692 0
M  V30 568 O 59.2861 -5.65385 -0.754752 0
M  V30 569 O 58.2201 -5.90459 1.168 0
M  V30 570 H 62.0461 -2.61836 1.53869 0
M  V30 571 H 59.6311 -1.25352 0.812854 0
M  V30 572 H 61.5131 -4.20062 -0.335538 0
M  V30 573 H 60.1881 -3.12255 -0.853138 0
M  V30 574 H 59.0951 -3.45251 1.44057 0
M  V30 575 H 60.4281 -4.54998 1.87716 0
M  V30 576 N 62.0802 -0.821533 -1.34494 0
M  V30 577 C 63.0432 -0.247847 -2.27856 0
M  V30 578 C 64.0432 0.573453 -1.50227 0
M  V30 579 O 65.2332 0.389759 -1.69784 0
M  V30 580 C 62.3652 0.652698 -3.34593 0
M  V30 581 H 63.5582 -1.07146 -2.80107 0
M  V30 582 H 61.1112 -0.593291 -1.44602 0
M  V30 583 H 61.8462 1.49943 -2.87555 0
M  V30 584 H 61.6312 0.065292 -3.92046 0
M  V30 585 H 63.1212 1.04793 -4.04238 0
M  V30 586 N 63.5583 1.46682 -0.576371 0
M  V30 587 C 64.8063 2.02013 -0.0594163 0
M  V30 588 C 65.1273 1.45101 1.30271 0
M  V30 589 O 64.3973 0.633317 1.8538 0
M  V30 590 H 62.9773 0.746759 -0.0189745 0
M  V30 591 H 65.6393 1.79862 -0.750717 0
M  V30 592 H 64.7353 3.12097 0.014345 0
M  V30 593 N 65.0364 0.313813 1.54444 0
M  V30 594 C 65.9464 -0.565714 2.27677 0
M  V30 595 C 66.9624 -1.13754 1.31666 0
M  V30 596 O 68.1384 -1.15959 1.64668 0
M  V30 597 C 65.2034 -1.71528 3.01296 0
M  V30 598 C 64.2644 -1.17624 4.12872 0
M  V30 599 C 63.4974 -2.27102 4.8297 0
M  V30 600 O 63.7204 -3.47256 4.52514 0
M  V30 601 O 62.6544 -1.9307 5.70094 0
M  V30 602 H 66.4804 0.0287296 3.03686 0
M  V30 603 H 64.0654 0.0798312 1.49187 0
M  V30 604 H 65.9474 -2.38476 3.4743 0
M  V30 605 H 64.6224 -2.29608 2.2817 0
M  V30 606 H 63.5294 -0.472124 3.71109 0
M  V30 607 H 64.8624 -0.640695 4.88012 0
M  V30 608 N 66.5145 -1.57545 0.0417849 0
M  V30 609 C 67.4775 -2.09885 -0.92093 0
M  V30 610 C 68.4775 -1.01648 -1.24596 0
M  V30 611 O 69.6675 -1.27759 -1.1842 0
M  V30 612 C 66.7995 -2.57527 -2.23367 0
M  V30 613 H 67.9925 -2.96236 -0.467382 0
M  V30 614 H 65.5455 -1.5493 -0.206467 0
M  V30 615 H 66.2805 -1.74542 -2.73323 0
M  V30 616 H 66.0655 -3.36613 -2.01083 0
M  V30 617 H 67.5555 -2.98201 -2.92346 0
M  V30 618 N 67.9926 0.231505 -1.5589 0
M  V30 619 C 69.2386 0.95877 -1.78705 0
M  V30 620 C 69.5716 1.8438 -0.609725 0
M  V30 621 O 68.8466 1.90521 0.391426 0
M  V30 622 C 69.1296 1.8062 -3.11526 0
M  V30 623 C 68.9826 0.948328 -4.39689 0
M  V30 624 C 70.3016 2.78585 -3.40703 0
M  V30 625 H 67.4206 0.347129 -0.650131 0
M  V30 626 H 70.0626 0.228259 -1.88624 0
M  V30 627 H 68.2126 2.42902 -3.03201 0
M  V30 628 H 69.8846 0.343016 -4.60023 0
M  V30 629 H 68.1276 0.253314 -4.3306 0
M  V30 630 H 68.7986 1.57543 -5.29041 0
M  V30 631 H 71.2746 2.26439 -3.49091 0
M  V30 632 H 70.1506 3.34988 -4.34826 0
M  V30 633 H 70.4116 3.55825 -2.62375 0
M  V30 634 N 69.4707 1.49531 0.497807 0
M  V30 635 C 70.4337 1.65916 1.58128 0
M  V30 636 C 71.4337 0.530825 1.51786 0
M  V30 637 O 72.6237 0.797342 1.54881 0
M  V30 638 C 69.7557 1.65951 2.9778 0
M  V30 639 H 70.9487 2.62556 1.44929 0
M  V30 640 H 68.5017 1.38611 0.722275 0
M  V30 641 H 69.2367 0.709065 3.16453 0
M  V30 642 H 69.0217 2.47897 3.03792 0
M  V30 643 H 70.5117 1.80673 3.76493 0
M  V30 644 N 70.9488 -0.749086 1.3866 0
M  V30 645 C 72.1738 -1.54344 1.38538 0
M  V30 646 C 72.5988 -1.88088 -0.0216655 0
M  V30 647 O 71.9568 -1.50899 -1.00494 0
M  V30 648 C 72.0048 -2.8164 2.25192 0
M  V30 649 O 71.1088 -3.7698 1.67212 0
M  V30 650 H 70.4498 -0.466654 0.472367 0
M  V30 651 H 72.9798 -0.925355 1.82478 0
M  V30 652 H 72.9898 -3.30519 2.3921 0
M  V30 653 H 71.6648 -2.56411 3.27454 0
M  V30 654 H 70.2418 -3.35699 1.6236 0
M  V30 655 N 72.4269 -1.23603 -0.977757 0
M  V30 656 C 73.8379 -1.06424 -1.53398 0
M  V30 657 C 74.1889 0.367578 -1.92726 0
M  V30 658 O 73.3139 1.25465 -1.76316 0
M  V30 659 C 73.9089 -1.92568 -2.78753 0
M  V30 660 C 72.4679 -1.79642 -3.30765 0
M  V30 661 C 71.6149 -1.88111 -2.03739 0
M  V30 662 H 74.5659 -1.37227 -0.797152 0
M  V30 663 H 74.5869 -1.45203 -3.51705 0
M  V30 664 H 74.0989 -2.96771 -2.50098 0
M  V30 665 H 72.1999 -0.782325 -3.64294 0
M  V30 666 H 72.3129 -2.63174 -4.00345 0
M  V30 667 H 70.6769 -1.31723 -2.17994 0
M  V30 668 H 71.4599 -2.93875 -1.77461 0
M  V30 669 N 73.905 1.17692 -1.04816 0
M  V30 670 C 74.838 2.20436 -0.590173 0
M  V30 671 C 75.816 1.58115 0.379244 0
M  V30 672 O 77 1.86228 0.291762 0
M  V30 673 C 74.127 3.38424 0.136817 0
M  V30 674 C 73.173 4.19176 -0.787023 0
M  V30 675 S 74.006 4.84815 -2.27409 0
M  V30 676 C 75.162 6.06195 -1.55817 0
M  V30 677 H 75.395 2.58944 -1.46067 0
M  V30 678 H 72.928 1.28246 -0.859784 0
M  V30 679 H 74.886 4.06798 0.550076 0
M  V30 680 H 73.547 2.98312 0.983299 0
M  V30 681 H 72.74 5.03499 -0.224681 0
M  V30 682 H 72.342 3.56219 -1.13947 0
M  V30 683 H 74.634 6.72078 -0.855387 0
M  V30 684 H 75.577 6.6695 -2.37873 0
M  V30 685 H 75.985 5.54701 -1.04722 0
M  V30 686 N 75.3831 0.828654 1.34056 0
M  V30 687 C 76.6601 0.341809 1.9259 0
M  V30 688 C 77.0401 -1.17158 1.75605 0
M  V30 689 O 76.3881 -1.98132 1.13824 0
M  V30 690 C 76.5981 0.777453 3.4023 0
M  V30 691 C 77.9461 0.779579 4.17382 0
M  V30 692 O 78.9701 0.7204 3.48839 0
M  V30 693 O 77.8291 0.857996 5.39723 0
M  V30 694 H 74.9231 0.0946085 0.821571 0
M  V30 695 H 77.4691 0.913827 1.42994 0
M  V30 696 H 76.2411 1.8196 3.46419 0
M  V30 697 H 75.8641 0.181444 3.97186 0
M  V30 698 N 76.8612 -1.46375 0.584142 0
M  V30 699 C 78.1382 -1.956 0.0033388 0
M  V30 700 C 78.5182 -1.52679 -1.45782 0
M  V30 701 O 77.8662 -0.77816 -2.14842 0
M  V30 702 C 78.0762 -3.48551 0.176891 0
M  V30 703 C 79.4242 -4.24576 0.0454609 0
M  V30 704 O 80.4482 -3.56043 0.105801 0
M  V30 705 O 79.3072 -5.46427 -0.0890376 0
M  V30 706 H 76.4012 -0.825547 -0.0490066 0
M  V30 707 H 78.9472 -1.56652 0.65256 0
M  V30 708 H 77.7192 -3.72683 1.1926 0
M  V30 709 H 77.3422 -3.94332 -0.508695 0
M  V30 710 N 78.3393 -0.321999 -1.54275 0
M  V30 711 C 79.5873 0.280489 -2.00144 0
M  V30 712 C 79.9083 1.52777 -1.21178 0
M  V30 713 O 79.1783 1.9338 -0.313187 0
M  V30 714 H 77.7583 0.106632 -0.73935 0
M  V30 715 H 80.4203 -0.438184 -1.8991 0
M  V30 716 H 79.5163 0.537972 -3.07428 0
M  V30 717 N 79.8174 1.5752 -0.0501392 0
M  V30 718 C 81.0644 1.9265 0.623874 0
M  V30 719 C 81.3924 0.928411 1.70912 0
M  V30 720 O 80.6474 -0.0594525 1.9561 0
M  V30 721 C 80.9464 3.34467 1.25963 0
M  V30 722 C 80.6124 4.49883 0.302689 0
M  V30 723 C 79.2744 4.81184 0.0393636 0
M  V30 724 C 81.6264 5.20002 -0.353205 0
M  V30 725 C 78.9544 5.79951 -0.887308 0
M  V30 726 C 81.3064 6.1976 -1.26806 0
M  V30 727 C 79.9704 6.49491 -1.54007 0
M  V30 728 H 79.2404 0.704957 0.228292 0
M  V30 729 H 81.8874 1.91146 -0.116398 0
M  V30 730 H 80.1924 3.32333 2.07514 0
M  V30 731 H 81.8894 3.58928 1.78806 0
M  V30 732 H 78.4794 4.25457 0.518109 0
M  V30 733 H 82.6634 4.96033 -0.162854 0
M  V30 734 H 77.9194 6.01322 -1.10553 0
M  V30 735 H 82.0934 6.73205 -1.78236 0
M  V30 736 H 79.7204 7.25837 -2.25976 0
M  V30 737 N 81.2955 -0.223234 1.56011 0
M  V30 738 C 82.5415 -0.949279 1.79211 0
M  V30 739 C 82.8745 -1.84054 0.619494 0
M  V30 740 O 82.1495 -1.90726 -0.381317 0
M  V30 741 C 82.4325 -1.78965 3.12479 0
M  V30 742 C 82.2855 -0.924997 4.40186 0
M  V30 743 C 83.6045 -2.76774 3.42175 0
M  V30 744 H 80.7235 -0.343676 0.651963 0
M  V30 745 H 83.3655 -0.218253 1.88742 0
M  V30 746 H 81.5155 -2.41291 3.04485 0
M  V30 747 H 83.1875 -0.318615 4.60198 0
M  V30 748 H 81.4305 -0.230344 4.33188 0
M  V30 749 H 82.1015 -1.54735 5.29869 0
M  V30 750 H 84.5775 -2.24584 3.50287 0
M  V30 751 H 83.4535 -3.32678 4.36597 0
M  V30 752 H 83.7145 -3.54429 2.64258 0
M  V30 753 N 82.7736 -1.49793 -0.48987 0
M  V30 754 C 83.9986 -1.63836 -1.27172 0
M  V30 755 C 84.4236 -0.31402 -1.8546 0
M  V30 756 O 83.7816 0.719803 -1.66399 0
M  V30 757 C 83.8296 -2.71797 -2.36978 0
M  V30 758 O 82.9336 -2.31744 -3.41128 0
M  V30 759 H 82.2746 -0.547997 -0.37496 0
M  V30 760 H 84.8046 -1.96053 -0.585191 0
M  V30 761 H 84.8146 -2.94305 -2.82575 0
M  V30 762 H 83.4896 -3.67923 -1.93921 0
M  V30 763 H 82.0666 -2.1961 -3.01373 0
M  V30 764 N 84.2517 0.741722 -1.39055 0
M  V30 765 C 85.1817 1.869 -1.39966 0
M  V30 766 C 86.1627 1.6804 -0.26392 0
M  V30 767 O 87.3477 1.88458 -0.468755 0
M  V30 768 C 84.4777 3.24572 -1.23574 0
M  V30 769 C 83.4317 3.58056 -2.34477 0
M  V30 770 C 82.7577 4.94593 -2.0318 0
M  V30 771 C 84.0577 3.61716 -3.76774 0
M  V30 772 H 85.7517 1.86395 -2.34302 0
M  V30 773 H 83.2977 0.895361 -1.1278 0
M  V30 774 H 85.2507 4.031 -1.22834 0
M  V30 775 H 83.9747 3.25587 -0.257045 0
M  V30 776 H 82.6337 2.81854 -2.34423 0
M  V30 777 H 82.2817 4.92181 -1.03765 0
M  V30 778 H 81.9817 5.17964 -2.77465 0
M  V30 779 H 83.5057 5.75486 -2.04079 0
M  V30 780 H 84.9197 4.30335 -3.78794 0
M  V30 781 H 83.3167 3.96603 -4.50362 0
M  V30 782 H 84.3867 2.61672 -4.08235 0
M  V30 783 N 85.7298 1.2412 0.971189 0
M  V30 784 C 87.0068 0.986867 1.6888 0
M  V30 785 C 87.3868 -0.491857 2.0529 0
M  V30 786 O 86.7348 -1.46531 1.75331 0
M  V30 787 C 86.9448 1.9063 2.92338 0
M  V30 788 C 88.2928 2.17515 3.64654 0
M  V30 789 O 89.3168 1.88254 3.02388 0
M  V30 790 O 88.1758 2.6719 4.7673 0
M  V30 791 H 85.2698 0.372944 0.738134 0
M  V30 792 H 87.8158 1.35203 1.02559 0
M  V30 793 H 86.5878 2.90552 2.62097 0
M  V30 794 H 86.2108 1.54408 3.66393 0
M  V30 795 N 87.2079 -1.17134 1.05439 0
M  V30 796 C 88.4329 -1.91913 0.786396 0
M  V30 797 C 88.8579 -1.7643 -0.652234 0
M  V30 798 O 88.2159 -1.08372 -1.45345 0
M  V30 799 C 88.2639 -3.40921 1.17497 0
M  V30 800 O 87.3679 -4.11244 0.308589 0
M  V30 801 H 86.7089 -0.598215 0.288158 0
M  V30 802 H 89.2389 -1.48457 1.4079 0
M  V30 803 H 89.2489 -3.91668 1.14281 0
M  V30 804 H 87.9239 -3.5151 2.22292 0
M  V30 805 H 86.5009 -3.70731 0.40157 0
M  V30 806 N 88.686 -0.835752 -1.33615 0
M  V30 807 C 90.097 -0.487099 -1.80234 0
M  V30 808 C 90.448 0.993627 -1.69179 0
M  V30 809 O 89.573 1.77403 -1.23924 0
M  V30 810 C 90.168 -0.877385 -3.27242 0
M  V30 811 C 88.727 -0.580915 -3.7189 0
M  V30 812 C 87.874 -1.0874 -2.5509 0
M  V30 813 H 90.825 -1.02474 -1.2118 0
M  V30 814 H 90.846 -0.186195 -3.80044 0
M  V30 815 H 90.358 -1.95512 -3.35256 0
M  V30 816 H 88.459 0.486881 -3.69405 0
M  V30 817 H 88.572 -1.13396 -4.65487 0
M  V30 818 H 86.936 -0.508392 -2.49575 0
M  V30 819 H 87.719 -2.17184 -2.65868 0
M  V30 820 N 90.1641 1.46063 -0.591896 0
M  V30 821 C 91.3891 2.07226 -0.0850314 0
M  V30 822 C 91.8141 1.43625 1.21463 0
M  V30 823 O 91.1721 0.523305 1.73583 0
M  V30 824 C 91.2201 3.60554 0.0576567 0
M  V30 825 O 90.3241 3.97128 1.11188 0
M  V30 826 H 89.6651 0.660615 -0.0669568 0
M  V30 827 H 92.1951 1.8756 -0.81745 0
M  V30 828 H 92.2051 4.07165 0.2609 0
M  V30 829 H 90.8801 4.06235 -0.891416 0
M  V30 830 H 89.4571 3.62213 0.886356 0
M  V30 831 N 91.6422 0.330177 1.54103 0
M  V30 832 C 92.8722 -0.271784 2.04805 0
M  V30 833 C 93.2802 -1.45816 1.20559 0
M  V30 834 O 92.6232 -1.82247 0.2306 0
M  V30 835 C 92.6852 -0.763238 3.51305 0
M  V30 836 C 92.3492 0.301705 4.56003 0
M  V30 837 C 93.3462 1.13999 5.07248 0
M  V30 838 C 91.0312 0.451793 5.00264 0
M  V30 839 C 93.0252 2.11402 6.01322 0
M  V30 840 C 90.7122 1.42924 5.94151 0
M  V30 841 C 91.7102 2.25882 6.44567 0
M  V30 842 O 91.3982 3.21965 7.3661 0
M  V30 843 H 91.1302 -0.058693 0.673447 0
M  V30 844 H 93.6842 0.476395 1.99799 0
M  V30 845 H 91.9142 -1.56244 3.5373 0
M  V30 846 H 93.6032 -1.28427 3.85047 0
M  V30 847 H 94.3692 1.03505 4.73827 0
M  V30 848 H 90.2482 -0.184044 4.60632 0
M  V30 849 H 93.7922 2.76192 6.40596 0
M  V30 850 H 89.6892 1.53479 6.26988 0
M  V30 851 H 90.4572 3.17281 7.54503 0
M  V30 852 N 93.1203 -1.57491 0.0584922 0
M  V30 853 C 94.3663 -1.93264 -0.614558 0
M  V30 854 C 94.6993 -0.937717 -1.7006 0
M  V30 855 O 93.9743 0.0351652 -1.94468 0
M  V30 856 C 94.2573 -3.3938 -1.20386 0
M  V30 857 C 94.1103 -4.49625 -0.125375 0
M  V30 858 C 95.4293 -3.86039 -2.11334 0
M  V30 859 H 92.5483 -0.702791 -0.221933 0
M  V30 860 H 95.1903 -1.8961 0.12175 0
M  V30 861 H 93.3403 -3.42626 -1.83139 0
M  V30 862 H 95.0123 -4.58506 0.506971 0
M  V30 863 H 93.2553 -4.30354 0.545672 0
M  V30 864 H 93.9263 -5.48967 -0.577861 0
M  V30 865 H 96.4023 -3.84716 -1.58534 0
M  V30 866 H 95.2783 -4.88914 -2.49507 0
M  V30 867 H 95.5393 -3.23215 -3.01636 0
M  V30 868 N 94.5984 0.214957 -1.56127 0
M  V30 869 C 95.5284 1.2695 -1.95974 0
M  V30 870 C 96.5094 1.48539 -0.828868 0
M  V30 871 O 97.6944 1.60611 -1.09168 0
M  V30 872 C 94.8244 2.61794 -2.28214 0
M  V30 873 C 93.7784 2.54851 -3.43853 0
M  V30 874 C 93.1044 3.93785 -3.61715 0
M  V30 875 C 94.4044 2.09065 -4.78632 0
M  V30 876 H 96.0984 0.93846 -2.84312 0
M  V30 877 H 93.6444 0.449996 -1.36788 0
M  V30 878 H 95.5974 3.35731 -2.54682 0
M  V30 879 H 94.3214 2.96599 -1.36736 0
M  V30 880 H 92.9804 1.8337 -3.17444 0
M  V30 881 H 92.6284 4.25908 -2.67602 0
M  V30 882 H 92.3284 3.90019 -4.39498 0
M  V30 883 H 93.8524 4.69374 -3.90539 0
M  V30 884 H 95.2664 2.7275 -5.04262 0
M  V30 885 H 93.6634 2.16346 -5.59745 0
M  V30 886 H 94.7334 1.04315 -4.73547 0
M  V30 887 N 96.0765 1.50051 0.48192 0
M  V30 888 C 97.3065 1.63999 1.2565 0
M  V30 889 C 97.7145 0.318288 1.86504 0
M  V30 890 O 97.0575 -0.708534 1.69486 0
M  V30 891 C 97.1195 2.66504 2.4128 0
M  V30 892 C 96.7835 4.10352 2.01148 0
M  V30 893 C 97.7805 4.96562 1.54021 0
M  V30 894 C 95.4655 4.56203 2.10199 0
M  V30 895 C 97.4595 6.26668 1.16473 0
M  V30 896 C 95.1465 5.86318 1.72264 0
M  V30 897 C 96.1445 6.71375 1.25477 0
M  V30 898 O 95.8325 7.99062 0.880626 0
M  V30 899 H 95.5645 0.55456 0.386574 0
M  V30 900 H 98.1185 1.96954 0.582944 0
M  V30 901 H 96.3485 2.28769 3.11772 0
M  V30 902 H 98.0375 2.69783 3.03268 0
M  V30 903 H 98.8035 4.62358 1.46458 0
M  V30 904 H 94.6825 3.90152 2.45566 0
M  V30 905 H 98.2265 6.93011 0.798841 0
M  V30 906 H 94.1235 6.20046 1.79482 0
M  V30 907 H 94.8915 8.12239 1.01043 0
M  V30 908 N 97.5546 -0.734337 1.39446 0
M  V30 909 C 98.9706 -1.03997 1.21065 0
M  V30 910 C 99.1706 -2.01369 0.0727019 0
M  V30 911 O 98.2266 -2.45856 -0.575426 0
M  V30 912 C 99.5396 -1.60163 2.54496 0
M  V30 913 C 101.088 -1.7224 2.61347 0
M  V30 914 C 101.563 -2.31814 3.95002 0
M  V30 915 N 103.054 -2.39223 3.96644 0
M  V30 916 C 103.789 -2.86258 4.96834 0
M  V30 917 N 103.285 -3.33184 6.07421 0
M  V30 918 N 105.078 -2.85473 4.84213 0
M  V30 919 H 97.2286 -0.0885624 2.12215 0
M  V30 920 H 99.4916 -0.10191 0.942506 0
M  V30 921 H 99.1976 -0.960811 3.38321 0
M  V30 922 H 99.0716 -2.5896 2.74262 0
M  V30 923 H 101.459 -2.35443 1.77906 0
M  V30 924 H 101.54 -0.720939 2.4543 0
M  V30 925 H 101.184 -1.69238 4.78875 0
M  V30 926 H 101.114 -3.32638 4.08239 0
M  V30 927 H 103.605 -2.06057 3.16779 0
M  V30 928 H 103.918 -3.67586 6.7978 0
M  V30 929 H 102.263 -3.31191 6.11013 0
M  V30 930 H 105.454 -2.48136 3.96921 0
M  V30 931 H 105.627 -3.21814 5.62441 0
M  V30 932 N 99.0327 -1.24633 -0.964593 0
M  V30 933 C 100.31 -0.995809 -1.68354 0
M  V30 934 C 100.69 0.480964 -2.05548 0
M  V30 935 O 100.038 1.45599 -1.76105 0
M  V30 936 C 100.248 -1.92177 -2.91323 0
M  V30 937 C 101.596 -2.19446 -3.63495 0
M  V30 938 O 102.62 -1.89855 -3.01386 0
M  V30 939 O 101.479 -2.69714 -4.75307 0
M  V30 940 H 98.5727 -0.376854 -0.736146 0
M  V30 941 H 101.119 -1.35745 -1.0184 0
M  V30 942 H 99.8907 -2.91938 -2.60553 0
M  V30 943 H 99.5137 -1.56349 -3.65569 0
M  V30 944 N 100.511 1.16574 -1.06058 0
M  V30 945 C 101.927 1.3904 -0.783585 0
M  V30 946 C 102.127 1.91784 0.618145 0
M  V30 947 O 101.183 2.11511 1.37911 0
M  V30 948 C 102.496 2.37329 -1.84649 0
M  V30 949 C 104.044 2.51018 -1.86973 0
M  V30 950 C 104.519 3.52588 -2.92311 0
M  V30 951 N 106.01 3.60113 -2.91329 0
M  V30 952 C 106.745 4.38486 -3.69482 0
M  V30 953 N 106.241 5.20302 -4.57447 0
M  V30 954 N 108.034 4.33446 -3.57885 0
M  V30 955 H 100.185 0.806725 -1.96483 0
M  V30 956 H 102.448 0.417117 -0.851303 0
M  V30 957 H 102.154 2.05663 -2.85299 0
M  V30 958 H 102.028 3.36946 -1.6955 0
M  V30 959 H 104.415 2.81989 -0.869827 0
M  V30 960 H 104.496 1.51445 -2.0615 0
M  V30 961 H 104.14 3.22354 -3.92492 0
M  V30 962 H 104.07 4.51886 -2.70383 0
M  V30 963 H 106.561 3.01707 -2.27555 0
M  V30 964 H 106.874 5.77311 -5.13743 0
M  V30 965 H 105.219 5.19653 -4.61503 0
M  V30 966 H 108.41 3.68586 -2.88551 0
M  V30 967 H 108.583 4.94279 -4.19037 0
M  V30 968 N 101.989 0.842826 1.3317 0
M  V30 969 C 102.952 0.284065 2.27433 0
M  V30 970 C 103.952 -0.54948 1.5112 0
M  V30 971 O 105.142 -0.362699 1.70382 0
M  V30 972 C 102.274 -0.599384 3.35589 0
M  V30 973 H 103.467 1.11589 2.78366 0
M  V30 974 H 101.02 0.616221 1.4364 0
M  V30 975 H 101.755 -1.45349 2.89904 0
M  V30 976 H 101.54 -0.00291266 3.921 0
M  V30 977 H 103.03 -0.983488 4.05854 0
M  V30 978 N 103.467 -1.45747 0.599634 0
M  V30 979 C 104.377 -2.34262 -0.125888 0
M  V30 980 C 105.393 -1.50768 -0.868625 0
M  V30 981 O 106.569 -1.83592 -0.828003 0
M  V30 982 C 103.634 -3.28252 -1.11587 0
M  V30 983 C 102.695 -4.27651 -0.375956 0
M  V30 984 C 101.928 -5.1715 -1.31877 0
M  V30 985 O 102.151 -5.09916 -2.55621 0
M  V30 986 O 101.085 -5.96286 -0.820157 0
M  V30 987 H 104.911 -2.97688 0.601315 0
M  V30 988 H 102.496 -1.44999 0.359934 0
M  V30 989 H 104.378 -3.86191 -1.68626 0
M  V30 990 H 103.053 -2.67401 -1.82424 0
M  V30 991 H 101.96 -3.7335 0.236698 0
M  V30 992 H 103.293 -4.91334 0.29177 0
M  V30 993 N 104.945 -0.338344 -1.53925 0
M  V30 994 C 106.191 0.252842 -2.01822 0
M  V30 995 C 106.546 1.48612 -1.22197 0
M  V30 996 O 105.839 1.89238 -0.299892 0
M  V30 997 C 106.033 0.62448 -3.51902 0
M  V30 998 C 105.862 -0.571235 -4.46057 0
M  V30 999 C 104.632 -1.07493 -4.93734 0
M  V30 1000 C 106.83 -1.42807 -4.94076 0
M  V30 1001 N 104.812 -2.23351 -5.71828 0
M  V30 1002 C 106.183 -2.43362 -5.70241 0
M  V30 1003 C 108.238 -1.45412 -4.76193 0
M  V30 1004 C 106.941 -3.46346 -6.30426 0
M  V30 1005 C 108.967 -2.47274 -5.37224 0
M  V30 1006 C 108.329 -3.46555 -6.13253 0
M  V30 1007 H 104.428 0.0559669 -0.779995 0
M  V30 1008 H 107.012 -0.476732 -1.88773 0
M  V30 1009 H 105.183 1.32317 -3.65167 0
M  V30 1010 H 106.915 1.19841 -3.86549 0
M  V30 1011 H 103.67 -0.643848 -4.69203 0
M  V30 1012 H 104.094 -2.81834 -6.15548 0
M  V30 1013 H 108.736 -0.700171 -4.16962 0
M  V30 1014 H 106.454 -4.22638 -6.88769 0
M  V30 1015 H 110.04 -2.50109 -5.25297 0
M  V30 1016 H 108.92 -4.24083 -6.59638 0
M  V30 1017 N 106.423 1.57458 -0.0668435 0
M  V30 1018 C 107.386 2.11323 0.887422 0
M  V30 1019 C 108.386 1.03618 1.22964 0
M  V30 1020 O 109.576 1.29626 1.16373 0
M  V30 1021 C 106.708 2.61048 2.19242 0
M  V30 1022 H 107.901 2.96942 0.420194 0
M  V30 1023 H 105.454 1.55239 0.181793 0
M  V30 1024 H 106.189 1.78868 2.70512 0
M  V30 1025 H 105.974 3.39769 1.95702 0
M  V30 1026 H 107.464 3.02814 2.87565 0
M  V30 1027 N 107.901 -0.206675 1.56239 0
M  V30 1028 C 109.178 -0.954051 1.70755 0
M  V30 1029 C 109.558 -2.01841 0.618353 0
M  V30 1030 O 108.906 -2.25444 -0.372434 0
M  V30 1031 C 109.116 -1.551 3.12642 0
M  V30 1032 C 110.464 -2.03757 3.72516 0
M  V30 1033 O 111.488 -1.64965 3.15698 0
M  V30 1034 O 110.347 -2.75103 4.72208 0
M  V30 1035 H 107.441 -0.446636 0.696021 0
M  V30 1036 H 109.987 -0.197283 1.68549 0
M  V30 1037 H 108.759 -0.783212 3.83382 0
M  V30 1038 H 108.382 -2.37291 3.19028 0
M  V30 1039 N 109.379 -1.50304 -0.473955 0
M  V30 1040 C 110.628 -1.60392 -1.22301 0
M  V30 1041 C 110.941 -0.308411 -1.93153 0
M  V30 1042 O 112.147 -0.288156 -2.69966 0
M  V30 1043 C 110.603 -2.83109 -2.2221 0
M  V30 1044 C 110.211 -4.19524 -1.57173 0
M  V30 1045 C 111.955 -3.0254 -2.97775 0
M  V30 1046 C 109.862 -5.33431 -2.55353 0
M  V30 1047 H 108.792 -0.597286 -0.460179 0
M  V30 1048 H 111.443 -1.76731 -0.493803 0
M  V30 1049 H 109.825 -2.60322 -2.9841 0
M  V30 1050 H 110.999 -4.52554 -0.867824 0
M  V30 1051 H 109.314 -4.05674 -0.939002 0
M  V30 1052 H 111.911 -3.84811 -3.71248 0
M  V30 1053 H 112.254 -2.14154 -3.56992 0
M  V30 1054 H 112.787 -3.25494 -2.28688 0
M  V30 1055 H 109.526 -6.23962 -2.00878 0
M  V30 1056 H 109.046 -5.04823 -3.23904 0
M  V30 1057 H 110.725 -5.63887 -3.17239 0
M  V30 1058 N 110.857 0.726932 -1.39834 0
M  V30 1059 C 112.134 1.47902 -1.28001 0
M  V30 1060 C 112.514 2.1083 0.106789 0
M  V30 1061 O 111.862 1.99242 1.11869 0
M  V30 1062 C 112.072 2.52392 -2.41038 0
M  V30 1063 C 113.42 3.18546 -2.80737 0
M  V30 1064 O 114.444 2.62708 -2.40547 0
M  V30 1065 O 113.303 4.19604 -3.50135 0
M  V30 1066 H 110.397 0.657163 -0.502062 0
M  V30 1067 H 112.943 0.760071 -1.51727 0
M  V30 1068 H 111.715 2.04329 -3.33715 0
M  V30 1069 H 111.338 3.31837 -2.19021 0
M  V30 1070 N 112.336 1.25143 0.95797 0
M  V30 1071 C 113.747 1.08851 1.51685 0
M  V30 1072 C 114.098 -0.33687 1.93286 0
M  V30 1073 O 113.223 -1.22644 1.7829 0
M  V30 1074 C 113.818 1.96978 2.75654 0
M  V30 1075 C 112.377 1.84881 3.27866 0
M  V30 1076 C 111.524 1.91329 2.0072 0
M  V30 1077 H 114.475 1.38478 0.77522 0
M  V30 1078 H 114.496 1.5078 3.4935 0
M  V30 1079 H 114.008 3.00712 2.45345 0
M  V30 1080 H 112.109 0.840182 3.63004 0
M  V30 1081 H 112.222 2.6951 3.96107 0
M  V30 1082 H 110.586 1.35174 2.15871 0
M  V30 1083 H 111.369 2.96661 1.72764 0
M  V30 1084 N 113.814 -1.1601 1.06675 0
M  V30 1085 C 115.06 -1.86909 0.786945 0
M  V30 1086 C 115.393 -1.81717 -0.685018 0
M  V30 1087 O 114.668 -1.23551 -1.50218 0
M  V30 1088 C 114.951 -3.36313 1.28707 0
M  V30 1089 C 114.804 -3.50175 2.82308 0
M  V30 1090 C 116.123 -4.3084 0.898071 0
M  V30 1091 H 113.242 -0.678677 0.287343 0
M  V30 1092 H 115.884 -1.36336 1.32334 0
M  V30 1093 H 114.034 -3.79513 0.830768 0
M  V30 1094 H 115.706 -3.15886 3.36175 0
M  V30 1095 H 113.949 -2.91959 3.20847 0
M  V30 1096 H 114.62 -4.55116 3.12368 0
M  V30 1097 H 117.096 -3.95561 1.29114 0
M  V30 1098 H 115.972 -5.33876 1.27543 0
M  V30 1099 H 116.233 -4.41662 -0.196651 0
M  V30 1100 N 115.292 -0.849877 -1.32721 0
M  V30 1101 C 116.703 -0.506188 -1.79707 0
M  V30 1102 C 117.054 0.975627 -1.70223 0
M  V30 1103 O 116.179 1.76078 -1.25799 0
M  V30 1104 C 116.774 -0.912044 -3.26293 0
M  V30 1105 C 115.333 -0.620326 -3.71253 0
M  V30 1106 C 114.48 -1.11439 -2.53922 0
M  V30 1107 H 117.431 -1.03754 -1.20087 0
M  V30 1108 H 117.452 -0.226493 -3.79825 0
M  V30 1109 H 116.964 -1.99057 -3.33164 0
M  V30 1110 H 115.065 0.447674 -3.69901 0
M  V30 1111 H 115.178 -1.18327 -4.64258 0
M  V30 1112 H 113.542 -0.534834 -2.49021 0
M  V30 1113 H 114.325 -2.19992 -2.6355 0
M  V30 1114 N 116.77 1.45427 -0.607355 0
M  V30 1115 C 117.702 2.2871 0.149752 0
M  V30 1116 C 118.715 1.39937 0.831958 0
M  V30 1117 O 119.904 1.64313 0.697385 0
M  V30 1118 C 117.004 3.15673 1.23304 0
M  V30 1119 C 116.177 4.32722 0.637996 0
M  V30 1120 C 115.236 5.00895 1.61215 0
M  V30 1121 O 114.262 5.57697 1.13854 0
M  V30 1122 N 115.464 5.00159 2.94655 0
M  V30 1123 H 118.229 2.94328 -0.564882 0
M  V30 1124 H 115.79 1.55612 -0.446823 0
M  V30 1125 H 117.782 3.58144 1.88454 0
M  V30 1126 H 116.352 2.51965 1.8502 0
M  V30 1127 H 115.572 3.93734 -0.191572 0
M  V30 1128 H 116.86 5.08321 0.220665 0
M  V30 1129 H 116.258 4.553 3.35735 0
M  V30 1130 H 114.815 5.46495 3.55228 0
M  V30 1131 N 118.248 0.346503 1.53744 0
M  V30 1132 C 119.196 -0.52422 2.26616 0
M  V30 1133 C 120.19 -1.09948 1.28871 0
M  V30 1134 O 121.396 -1.04488 1.46568 0
M  V30 1135 H 117.771 -0.187743 0.728187 0
M  V30 1136 H 119.742 0.11239 2.98188 0
M  V30 1137 C 118.491 -1.66186 3.05414 0
M  V30 1138 H 117.814 -1.22848 3.80458 0
M  V30 1139 H 119.254 -2.24622 3.59612 0
M  V30 1140 C 117.713 -2.59302 2.1509 0
M  V30 1141 O 118.243 -3.61628 1.74895 0
M  V30 1142 N 116.449 -2.28055 1.8011 0
M  V30 1143 H 115.996 -1.44883 2.12994 0
M  V30 1144 H 115.954 -2.90615 1.19958 0
M  V30 1145 N 119.726 -1.57421 0.075193 0
M  V30 1146 C 121.003 -1.85029 -0.634329 0
M  V30 1147 C 121.383 -0.968305 -1.87582 0
M  V30 1148 O 120.731 -0.0354749 -2.28472 0
M  V30 1149 C 120.941 -3.35286 -0.968742 0
M  V30 1150 C 122.289 -4.02875 -1.34077 0
M  V30 1151 O 123.313 -3.40051 -1.06037 0
M  V30 1152 O 122.172 -5.13691 -1.86506 0
M  V30 1153 H 119.266 -0.7645 -0.315387 0
M  V30 1154 H 121.812 -1.69366 0.106382 0
M  V30 1155 H 120.584 -3.91203 -0.0871376 0
M  V30 1156 H 120.207 -3.56223 -1.7661 0
M  V30 1157 N 121.204 0.198386 -1.56346 0
M  V30 1158 C 122.452 0.91747 -1.80075 0
M  V30 1159 C 122.773 1.83929 -0.647692 0
M  V30 1160 O 122.043 1.93029 0.334166 0
M  V30 1161 H 120.623 0.341774 -0.664228 0
M  V30 1162 H 123.285 0.204684 -1.93822 0
M  V30 1163 H 122.381 1.51055 -2.7311 0
M  V30 1164 N 122.682 1.50554 0.465978 0
M  V30 1165 C 124.093 1.54599 1.04671 0
M  V30 1166 C 124.444 0.352488 1.93008 0
M  V30 1167 O 123.569 -0.534044 2.09707 0
M  V30 1168 C 124.164 2.80166 1.90505 0
M  V30 1169 C 122.723 2.86876 2.43678 0
M  V30 1170 C 121.87 2.48947 1.22151 0
M  V30 1171 H 124.821 1.56744 0.248384 0
M  V30 1172 H 124.842 2.62311 2.75633 0
M  V30 1173 H 124.354 3.67013 1.26186 0
M  V30 1174 H 122.455 2.04393 3.11536 0
M  V30 1175 H 122.568 3.89885 2.78436 0
M  V30 1176 H 120.932 2.01498 1.5579 0
M  V30 1177 H 121.715 3.38107 0.594866 0
M  V30 1178 N 124.16 -0.719506 1.40217 0
M  V30 1179 C 125.108 -1.85493 1.40339 0
M  V30 1180 C 126.102 -1.66995 0.284415 0
M  V30 1181 O 127.308 -1.74148 0.455252 0
M  V30 1182 H 123.683 -0.610857 0.438586 0
M  V30 1183 H 125.654 -1.82506 2.36081 0
M  V30 1184 C 124.403 -3.23321 1.27901 0
M  V30 1185 H 123.726 -3.38159 2.1328 0
M  V30 1186 H 125.166 -4.02914 1.32045 0
M  V30 1187 C 123.625 -3.36898 -0.0111355 0
M  V30 1188 O 124.155 -3.89674 -0.975538 0
M  V30 1189 N 122.361 -2.90492 -0.0793393 0
M  V30 1190 H 121.908 -2.47731 0.706183 0
M  V30 1191 H 121.866 -2.99955 -0.942038 0
M  V30 1192 N 125.638 -1.25649 -0.95132 0
M  V30 1193 C 127.049 -1.09654 -1.51106 0
M  V30 1194 C 127.4 0.326615 -1.93462 0
M  V30 1195 O 126.525 1.21697 -1.78938 0
M  V30 1196 C 127.12 -1.98437 -2.74605 0
M  V30 1197 C 125.679 -1.86618 -3.2688 0
M  V30 1198 C 124.826 -1.9239 -1.99703 0
M  V30 1199 H 127.777 -1.38887 -0.767865 0
M  V30 1200 H 127.798 -1.5263 -3.48546 0
M  V30 1201 H 127.31 -3.02009 -2.43746 0
M  V30 1202 H 125.411 -0.859421 -3.62553 0
M  V30 1203 H 125.524 -2.71607 -3.94673 0
M  V30 1204 H 123.888 -1.36317 -2.15151 0
M  V30 1205 H 124.671 -2.97573 -1.71188 0
M  V30 1206 N 127.117 1.15442 -1.07289 0
M  V30 1207 C 128.363 1.86489 -0.796846 0
M  V30 1208 C 128.696 1.82078 0.675371 0
M  V30 1209 O 127.971 1.24346 1.4956 0
M  V30 1210 C 128.254 3.35626 -1.30489 0
M  V30 1211 C 128.107 3.48673 -2.84161 0
M  V30 1212 C 129.426 4.30357 -0.920907 0
M  V30 1213 H 126.545 0.677144 -0.290939 0
M  V30 1214 H 129.187 1.35633 -1.33056 0
M  V30 1215 H 127.337 3.79068 -0.850883 0
M  V30 1216 H 129.009 3.14099 -3.37846 0
M  V30 1217 H 127.252 2.90253 -3.22391 0
M  V30 1218 H 127.923 4.53453 -3.14777 0
M  V30 1219 H 130.399 3.94871 -1.3121 0
M  V30 1220 H 129.275 5.33193 -1.30372 0
M  V30 1221 H 129.536 4.4176 0.173226 0
M  V30 1222 N 128.595 0.856903 1.32268 0
M  V30 1223 C 129.841 0.462069 1.97466 0
M  V30 1224 C 130.174 -0.980298 1.67642 0
M  V30 1225 O 129.449 -1.68824 0.965858 0
M  V30 1226 C 129.732 0.704336 3.53145 0
M  V30 1227 C 129.585 2.19529 3.9259 0
M  V30 1228 C 130.904 0.1622 4.39801 0
M  V30 1229 H 128.023 0.169357 0.717278 0
M  V30 1230 H 130.665 1.07574 1.56614 0
M  V30 1231 H 128.815 0.181999 3.88073 0
M  V30 1232 H 130.487 2.78387 3.67829 0
M  V30 1233 H 128.73 2.67292 3.41668 0
M  V30 1234 H 129.401 2.31549 5.01088 0
M  V30 1235 H 131.877 0.608905 4.11621 0
M  V30 1236 H 130.753 0.361265 5.4771 0
M  V30 1237 H 131.014 -0.935158 4.32096 0
M  V30 1238 N 130.073 -1.45103 0.615059 0
M  V30 1239 C 131.005 -2.28786 -0.13762 0
M  V30 1240 C 132.018 -1.40376 -0.824525 0
M  V30 1241 O 133.207 -1.64681 -0.688662 0
M  V30 1242 C 130.307 -3.16322 -1.21628 0
M  V30 1243 C 129.48 -4.33054 -0.615039 0
M  V30 1244 C 128.539 -5.01743 -1.58556 0
M  V30 1245 O 127.565 -5.58293 -1.10895 0
M  V30 1246 N 128.767 -5.01714 -2.91998 0
M  V30 1247 H 131.532 -2.94025 0.580483 0
M  V30 1248 H 129.093 -1.55373 0.45507 0
M  V30 1249 H 131.085 -3.59139 -1.86552 0
M  V30 1250 H 129.655 -2.52943 -1.83681 0
M  V30 1251 H 128.875 -3.93627 0.21245 0
M  V30 1252 H 130.163 -5.08431 -0.193704 0
M  V30 1253 H 129.561 -4.57075 -3.33316 0
M  V30 1254 H 128.118 -5.48371 -3.52325 0
M  V30 1255 N 131.551 -0.354651 -1.53558 0
M  V30 1256 C 132.8 0.239504 -2.00273 0
M  V30 1257 C 133.113 1.50759 -1.24623 0
M  V30 1258 O 134.319 2.17968 -1.61871 0
M  V30 1259 C 132.775 0.477341 -3.5672 0
M  V30 1260 C 132.383 -0.775488 -4.41237 0
M  V30 1261 C 134.127 1.02975 -4.11821 0
M  V30 1262 C 132.034 -0.507838 -5.89216 0
M  V30 1263 H 130.964 0.0932743 -0.748208 0
M  V30 1264 H 133.615 -0.471701 -1.77334 0
M  V30 1265 H 131.997 1.24953 -3.7577 0
M  V30 1266 H 133.171 -1.54963 -4.33962 0
M  V30 1267 H 131.486 -1.25033 -3.97185 0
M  V30 1268 H 134.083 1.24513 -5.2 0
M  V30 1269 H 134.426 1.98862 -3.65731 0
M  V30 1270 H 134.959 0.317994 -3.96527 0
M  V30 1271 H 131.698 -1.43674 -6.39561 0
M  V30 1272 H 131.218 0.228011 -5.99366 0
M  V30 1273 H 132.897 -0.129238 -6.46871 0
M  V30 1274 N 133.029 1.57378 -0.0835403 0
M  V30 1275 C 134.278 1.93106 0.582498 0
M  V30 1276 C 134.591 0.96651 1.70053 0
M  V30 1277 O 135.797 1.21705 2.42693 0
M  V30 1278 C 134.253 3.43076 1.08751 0
M  V30 1279 C 133.861 4.48 -0.000146404 0
M  V30 1280 C 135.605 3.87785 1.72694 0
M  V30 1281 C 133.512 5.89113 0.519568 0
M  V30 1282 H 132.442 0.720775 0.221358 0
M  V30 1283 H 135.093 1.82821 -0.157675 0
M  V30 1284 H 133.475 3.48474 1.88101 0
M  V30 1285 H 134.649 4.54233 -0.775199 0
M  V30 1286 H 132.964 4.1283 -0.54406 0
M  V30 1287 H 135.561 4.90604 2.1263 0
M  V30 1288 H 135.904 3.25796 2.59158 0
M  V30 1289 H 136.437 3.8504 0.999457 0
M  V30 1290 H 133.176 6.54775 -0.308186 0
M  V30 1291 H 132.696 5.86376 1.26188 0
M  V30 1292 H 134.375 6.39346 0.992237 0
M  V30 1293 N 134.507 -0.190092 1.56449 0
M  V30 1294 C 135.737 -0.92443 1.84764 0
M  V30 1295 C 136.145 -1.77146 0.664529 0
M  V30 1296 O 135.488 -1.79812 -0.375957 0
M  V30 1297 C 135.55 -1.86651 3.07248 0
M  V30 1298 C 135.214 -1.20094 4.40938 0
M  V30 1299 C 136.211 -0.575445 5.16706 0
M  V30 1300 C 133.896 -1.2033 4.87674 0
M  V30 1301 C 135.89 0.0388111 6.37388 0
M  V30 1302 C 133.577 -0.585214 6.08291 0
M  V30 1303 C 134.575 0.0347578 6.82991 0
M  V30 1304 O 134.263 0.643147 8.01323 0
M  V30 1305 H 133.995 -0.274974 0.617548 0
M  V30 1306 H 136.549 -0.200788 2.04416 0
M  V30 1307 H 134.779 -2.62998 2.83494 0
M  V30 1308 H 136.468 -2.46907 3.22167 0
M  V30 1309 H 137.234 -0.565728 4.81689 0
M  V30 1310 H 133.113 -1.67526 4.29484 0
M  V30 1311 H 136.657 0.523329 6.95634 0
M  V30 1312 H 132.554 -0.592451 6.42775 0
M  V30 1313 H 133.322 0.540545 8.16713 0
M  V30 1314 N 135.985 -1.50799 -0.457987 0
M  V30 1315 C 137.21 -1.66496 -1.23668 0
M  V30 1316 C 137.635 -0.353288 -1.84752 0
M  V30 1317 O 136.993 0.684346 -1.67888 0
M  V30 1318 C 137.041 -2.76763 -2.3116 0
M  V30 1319 O 136.145 -2.38928 -3.36136 0
M  V30 1320 H 135.486 -0.555828 -0.363252 0
M  V30 1321 H 138.016 -1.9725 -0.543474 0
M  V30 1322 H 138.026 -3.00232 -2.76269 0
M  V30 1323 H 136.701 -3.71954 -1.86073 0
M  V30 1324 H 135.278 -2.25953 -2.96647 0
M  V30 1325 N 137.463 0.71206 -1.40597 0
M  V30 1326 C 138.74 1.46536 -1.29563 0
M  V30 1327 C 139.12 2.10931 0.0844217 0
M  V30 1328 O 138.468 2.00418 1.0975 0
M  V30 1329 C 138.678 2.49821 -2.43701 0
M  V30 1330 C 140.026 3.15551 -2.841 0
M  V30 1331 O 141.05 2.60142 -2.4332 0
M  V30 1332 O 139.909 4.15867 -3.54566 0
M  V30 1333 H 137.003 0.651801 -0.509004 0
M  V30 1334 H 139.549 0.743935 -1.52524 0
M  V30 1335 H 138.321 2.00778 -3.35863 0
M  V30 1336 H 137.944 3.29495 -2.22528 0
M  V30 1337 N 138.941 1.26152 0.944643 0
M  V30 1338 C 139.888 1.07408 2.04285 0
M  V30 1339 C 140.858 -0.0198413 1.66088 0
M  V30 1340 O 142.043 0.139264 1.90291 0
M  V30 1341 C 139.183 0.70945 3.37729 0
M  V30 1342 C 138.296 1.87926 3.88983 0
M  V30 1343 C 137.431 1.45807 5.10797 0
M  V30 1344 C 136.47 2.5964 5.54305 0
M  V30 1345 N 135.607 2.18226 6.67324 0
M  V30 1346 H 140.447 2.01389 2.1965 0
M  V30 1347 H 137.984 1.00275 1.07626 0
M  V30 1348 H 139.942 0.478948 4.14442 0
M  V30 1349 H 138.572 -0.193389 3.2222 0
M  V30 1350 H 137.624 2.22279 3.08701 0
M  V30 1351 H 138.936 2.73377 4.17213 0
M  V30 1352 H 138.09 1.18781 5.94959 0
M  V30 1353 H 136.829 0.574414 4.84305 0
M  V30 1354 H 135.834 2.87399 4.68702 0
M  V30 1355 H 137.059 3.48599 5.828 0
M  V30 1356 H 135.005 1.3229 6.42523 0
M  V30 1357 H 134.922 2.97221 6.95123 0
M  V30 1358 H 136.19 1.94403 7.54869 0
M  V30 1359 N 140.419 -1.14872 1.07899 0
M  V30 1360 C 141.666 -1.85789 0.805532 0
M  V30 1361 C 141.994 -1.82649 -0.668561 0
M  V30 1362 O 141.249 -1.24858 -1.50695 0
M  V30 1363 C 141.548 -3.34223 1.26609 0
M  V30 1364 C 141.214 -3.57555 2.74709 0
M  V30 1365 C 139.876 -3.63631 3.1516 0
M  V30 1366 C 142.228 -3.66803 3.70277 0
M  V30 1367 C 139.556 -3.76473 4.49983 0
M  V30 1368 C 141.908 -3.8117 5.04869 0
M  V30 1369 C 140.572 -3.85494 5.44932 0
M  V30 1370 H 139.842 -0.679849 0.294765 0
M  V30 1371 H 142.489 -1.3572 1.35101 0
M  V30 1372 H 140.794 -3.86536 0.640103 0
M  V30 1373 H 142.491 -3.87511 1.03132 0
M  V30 1374 H 139.081 -3.5347 2.42398 0
M  V30 1375 H 143.265 -3.61404 3.40149 0
M  V30 1376 H 138.521 -3.7808 4.80484 0
M  V30 1377 H 142.695 -3.87268 5.78789 0
M  V30 1378 H 140.322 -3.95197 6.49403 0
M  V30 1379 N 141.898 -0.863906 -1.31812 0
M  V30 1380 C 143.314 -0.555004 -1.49639 0
M  V30 1381 C 143.514 0.912266 -1.79666 0
M  V30 1382 O 142.57 1.69479 -1.87171 0
M  V30 1383 C 143.883 -1.44998 -2.63431 0
M  V30 1384 C 145.431 -1.45138 -2.77316 0
M  V30 1385 C 145.906 -2.33179 -3.94197 0
M  V30 1386 N 147.397 -2.31025 -4.01474 0
M  V30 1387 C 148.132 -2.95871 -4.9117 0
M  V30 1388 N 147.628 -3.69863 -5.8581 0
M  V30 1389 N 149.421 -2.85211 -4.84367 0
M  V30 1390 H 141.572 -1.81339 -1.10589 0
M  V30 1391 H 143.835 -0.77505 -0.545895 0
M  V30 1392 H 143.541 -2.49377 -2.48 0
M  V30 1393 H 143.415 -1.14409 -3.59431 0
M  V30 1394 H 145.802 -0.415201 -2.92164 0
M  V30 1395 H 145.883 -1.79747 -1.82001 0
M  V30 1396 H 145.527 -3.3687 -3.80107 0
M  V30 1397 H 145.457 -1.95897 -4.88807 0
M  V30 1398 H 147.948 -1.77238 -3.33759 0
M  V30 1399 H 148.261 -4.16486 -6.50968 0
M  V30 1400 H 146.606 -3.73971 -5.85808 0
M  V30 1401 H 149.797 -2.26948 -4.09405 0
M  V30 1402 H 149.97 -3.36027 -5.54066 0
M  V30 1403 N 143.376 1.44774 -0.622745 0
M  V30 1404 C 144.653 1.95522 -0.0551974 0
M  V30 1405 C 145.033 1.5649 1.41683 0
M  V30 1406 O 144.381 0.834848 2.12703 0
M  V30 1407 C 144.591 3.4796 -0.269242 0
M  V30 1408 C 145.939 4.24306 -0.158014 0
M  V30 1409 O 146.963 3.55637 -0.200162 0
M  V30 1410 O 145.822 5.46471 -0.0558693 0
M  V30 1411 H 142.916 0.826556 0.0271015 0
M  V30 1412 H 145.462 1.54866 -0.693864 0
M  V30 1413 H 144.234 3.6939 -1.29099 0
M  V30 1414 H 143.857 3.95543 0.403966 0
M  V30 1415 N 144.854 0.36279 1.53368 0
M  V30 1416 C 146.1 -0.228113 2.01513 0
M  V30 1417 C 146.433 -1.48648 1.2497 0
M  V30 1418 O 145.708 -1.91459 0.342616 0
M  V30 1419 C 145.991 -0.522884 3.56284 0
M  V30 1420 C 145.844 0.74892 4.43521 0
M  V30 1421 C 147.163 -1.32461 4.19693 0
M  V30 1422 H 144.282 -0.0814343 0.732487 0
M  V30 1423 H 146.924 0.48713 1.83649 0
M  V30 1424 H 145.074 -1.1322 3.71636 0
M  V30 1425 H 146.746 1.38648 4.39971 0
M  V30 1426 H 144.989 1.36986 4.11603 0
M  V30 1427 H 145.66 0.497667 5.49752 0
M  V30 1428 H 148.136 -0.809203 4.08156 0
M  V30 1429 H 147.012 -1.49961 5.28018 0
M  V30 1430 H 147.273 -2.33232 3.75573 0
M  V30 1431 N 146.332 -1.57332 0.0918853 0
M  V30 1432 C 147.562 -1.98286 -0.580205 0
M  V30 1433 C 147.97 -0.969713 -1.6246 0
M  V30 1434 O 147.313 0.0493501 -1.83634 0
M  V30 1435 C 147.375 -3.35603 -1.28882 0
M  V30 1436 C 147.039 -4.55285 -0.395559 0
M  V30 1437 C 148.036 -5.18687 0.355002 0
M  V30 1438 C 145.721 -5.01314 -0.314556 0
M  V30 1439 C 147.715 -6.26484 1.17458 0
M  V30 1440 C 145.402 -6.08979 0.508677 0
M  V30 1441 C 146.4 -6.71429 1.2519 0
M  V30 1442 O 146.088 -7.77018 2.06151 0
M  V30 1443 H 145.82 -0.656678 -0.160466 0
M  V30 1444 H 148.374 -2.04721 0.16688 0
M  V30 1445 H 146.604 -3.25842 -2.08241 0
M  V30 1446 H 148.293 -3.61026 -1.85512 0
M  V30 1447 H 149.059 -4.84058 0.302134 0
M  V30 1448 H 144.938 -4.5247 -0.882697 0
M  V30 1449 H 148.482 -6.75159 1.75518 0
M  V30 1450 H 144.379 -6.4304 0.563037 0
M  V30 1451 H 145.147 -7.93991 1.98799 0
M  V30 1452 N 147.81 0.181792 -1.56548 0
M  V30 1453 C 149.087 0.926765 -1.72251 0
M  V30 1454 C 149.467 2.00831 -0.650386 0
M  V30 1455 O 148.815 2.26008 0.336521 0
M  V30 1456 C 149.025 1.50106 -3.1507 0
M  V30 1457 C 150.373 1.97805 -3.75711 0
M  V30 1458 O 151.397 1.59922 -3.18282 0
M  V30 1459 O 150.256 2.67555 -4.76525 0
M  V30 1460 H 147.35 0.435506 -0.703039 0
M  V30 1461 H 149.896 0.170443 -1.68842 0
M  V30 1462 H 148.668 0.72212 -3.84579 0
M  V30 1463 H 148.291 2.32186 -3.22763 0
M  V30 1464 N 149.288 1.51039 0.449983 0
M  V30 1465 C 150.518 1.66627 1.22143 0
M  V30 1466 C 150.926 0.357776 1.85786 0
M  V30 1467 O 150.269 -0.672424 1.70951 0
M  V30 1468 C 150.331 2.71562 2.35573 0
M  V30 1469 C 149.995 4.14526 1.92399 0
M  V30 1470 C 150.992 4.99717 1.43453 0
M  V30 1471 C 148.677 4.60559 2.00475 0
M  V30 1472 C 150.671 6.28998 1.03155 0
M  V30 1473 C 148.358 5.8984 1.59788 0
M  V30 1474 C 149.356 6.73886 1.11208 0
M  V30 1475 O 149.044 8.0075 0.710935 0
M  V30 1476 H 148.776 0.562635 0.374724 0
M  V30 1477 H 151.33 1.98146 0.541036 0
M  V30 1478 H 149.56 2.3533 3.06849 0
M  V30 1479 H 151.249 2.76156 2.97478 0
M  V30 1480 H 152.015 4.65361 1.36618 0
M  V30 1481 H 147.894 3.95273 2.37235 0
M  V30 1482 H 151.438 6.9455 0.651663 0
M  V30 1483 H 147.335 6.23713 1.66289 0
M  V30 1484 H 148.103 8.142 0.837913 0
M  V30 1485 N 150.766 -0.704594 1.40972 0
M  V30 1486 C 152.013 -1.46458 1.39844 0
M  V30 1487 C 152.341 -1.94499 0.00447594 0
M  V30 1488 O 151.596 -1.69275 -0.982057 0
M  V30 1489 C 151.895 -2.698 2.34399 0
M  V30 1490 C 151.561 -2.40464 3.81429 0
M  V30 1491 C 150.223 -2.32174 4.21484 0
M  V30 1492 C 152.575 -2.16086 4.74296 0
M  V30 1493 C 149.903 -1.97589 5.52427 0
M  V30 1494 C 152.255 -1.83011 6.05549 0
M  V30 1495 C 150.919 -1.7321 6.44635 0
M  V30 1496 H 150.189 -0.535927 0.511725 0
M  V30 1497 H 152.836 -0.806124 1.73706 0
M  V30 1498 H 151.141 -3.40536 1.93759 0
M  V30 1499 H 152.838 -3.27919 2.30804 0
M  V30 1500 H 149.428 -2.47808 3.49699 0
M  V30 1501 H 153.612 -2.2144 4.4416 0
M  V30 1502 H 148.868 -1.88547 5.81601 0
M  V30 1503 H 153.042 -1.63164 6.77016 0
M  V30 1504 H 150.669 -1.46179 7.46013 0
M  V30 1505 N 152.244 -1.26651 -0.937939 0
M  V30 1506 C 153.66 -1.03834 -1.21205 0
M  V30 1507 C 153.86 0.234502 -2.00131 0
M  V30 1508 O 152.916 0.942767 -2.3424 0
M  V30 1509 C 154.229 -2.27167 -1.97017 0
M  V30 1510 C 155.777 -2.32101 -2.09996 0
M  V30 1511 C 156.252 -3.55136 -2.8921 0
M  V30 1512 N 157.743 -3.55632 -2.96783 0
M  V30 1513 C 158.478 -4.475 -3.58512 0
M  V30 1514 N 157.974 -5.4966 -4.21717 0
M  V30 1515 N 159.767 -4.35145 -3.55816 0
M  V30 1516 H 151.918 -2.08398 -0.410391 0
M  V30 1517 H 154.181 -0.916031 -0.244114 0
M  V30 1518 H 153.887 -3.19765 -1.46434 0
M  V30 1519 H 153.761 -2.31672 -2.97671 0
M  V30 1520 H 156.148 -1.40015 -2.59769 0
M  V30 1521 H 156.229 -2.31605 -1.08594 0
M  V30 1522 H 155.873 -4.47553 -2.40123 0
M  V30 1523 H 155.803 -3.5288 -3.90875 0
M  V30 1524 H 158.294 -2.81743 -2.51852 0
M  V30 1525 H 158.607 -6.15943 -4.66727 0
M  V30 1526 H 156.952 -5.53514 -4.20294 0
M  V30 1527 H 160.143 -3.5455 -3.05634 0
M  V30 1528 H 160.316 -5.06934 -4.03636 0
M  V30 1529 N 153.722 1.14298 -1.08507 0
M  V30 1530 C 154.685 2.17607 -0.719711 0
M  V30 1531 C 155.685 1.58907 0.245997 0
M  V30 1532 O 156.875 1.74181 0.0254081 0
M  V30 1533 C 154.007 3.40842 -0.0627695 0
M  V30 1534 H 155.2 2.51443 -1.63452 0
M  V30 1535 H 152.753 1.28963 -0.88307 0
M  V30 1536 H 153.488 3.12587 0.863716 0
M  V30 1537 H 153.273 3.84713 -0.757504 0
M  V30 1538 H 154.763 4.17221 0.177786 0
M  V30 1539 N 155.201 0.870884 1.31352 0
M  V30 1540 C 156.447 0.482987 1.96965 0
M  V30 1541 C 156.78 -0.962462 1.68672 0
M  V30 1542 O 156.055 -1.6779 0.98371 0
M  V30 1543 C 156.338 0.741752 3.52378 0
M  V30 1544 C 156.191 2.2368 3.9024 0
M  V30 1545 C 157.51 0.208838 4.39604 0
M  V30 1546 H 154.629 0.176955 0.715441 0
M  V30 1547 H 157.271 1.09229 1.55464 0
M  V30 1548 H 155.421 0.223149 3.87859 0
M  V30 1549 H 157.093 2.82273 3.64856 0
M  V30 1550 H 155.336 2.70901 3.38814 0
M  V30 1551 H 156.007 2.3685 4.98604 0
M  V30 1552 H 158.483 0.652529 4.10952 0
M  V30 1553 H 157.359 0.419336 5.47296 0
M  V30 1554 H 157.62 -0.889275 4.33064 0
M  V30 1555 N 156.679 -1.44442 0.630414 0
M  V30 1556 C 157.609 -2.33418 -0.0618083 0
M  V30 1557 C 158.59 -1.48165 -0.835541 0
M  V30 1558 O 159.775 -1.76886 -0.801564 0
M  V30 1559 C 156.905 -3.31222 -1.04449 0
M  V30 1560 C 155.859 -4.26288 -0.382436 0
M  V30 1561 C 155.185 -5.13954 -1.47497 0
M  V30 1562 C 156.485 -5.1744 0.710865 0
M  V30 1563 H 158.179 -2.91548 0.681184 0
M  V30 1564 H 155.725 -1.40191 0.329026 0
M  V30 1565 H 157.678 -3.92351 -1.53748 0
M  V30 1566 H 156.402 -2.71299 -1.81836 0
M  V30 1567 H 155.061 -3.6649 0.0899054 0
M  V30 1568 H 154.709 -4.50385 -2.2397 0
M  V30 1569 H 154.409 -5.7837 -1.03737 0
M  V30 1570 H 155.933 -5.77955 -1.96979 0
M  V30 1571 H 157.347 -5.72509 0.300996 0
M  V30 1572 H 155.744 -5.90455 1.07156 0
M  V30 1573 H 156.814 -4.58496 1.57829 0
M  V30 1574 N 158.157 -0.370918 -1.53173 0
M  V30 1575 C 159.089 0.507823 -2.23503 0
M  V30 1576 C 160.102 1.04182 -1.251 0
M  V30 1577 O 161.291 0.947286 -1.5129 0
M  V30 1578 C 158.391 1.71447 -2.92334 0
M  V30 1579 C 157.564 1.31105 -4.17289 0
M  V30 1580 C 156.623 2.38035 -4.69282 0
M  V30 1581 O 155.649 2.00204 -5.32829 0
M  V30 1582 N 156.851 3.69697 -4.47554 0
M  V30 1583 H 159.616 -0.0946382 -2.99551 0
M  V30 1584 H 157.177 -0.196358 -1.60705 0
M  V30 1585 H 159.169 2.42469 -3.24023 0
M  V30 1586 H 157.739 2.22368 -2.19707 0
M  V30 1587 H 156.959 0.430462 -3.91843 0
M  V30 1588 H 158.247 1.0179 -4.98514 0
M  V30 1589 H 157.645 4.03205 -3.9679 0
M  V30 1590 H 156.202 4.36807 -4.8378 0
M  V30 1591 N 159.635 1.57281 -0.100228 0
M  V30 1592 C 161.051 1.57527 0.256416 0
M  V30 1593 C 161.251 1.11173 1.68056 0
M  V30 1594 O 160.307 0.79053 2.39806 0
M  V30 1595 C 161.62 3.00673 0.0401747 0
M  V30 1596 C 163.168 3.12815 0.107528 0
M  V30 1597 C 163.643 4.57929 -0.0807834 0
M  V30 1598 N 165.134 4.63193 -0.0261207 0
M  V30 1599 C 165.869 5.73212 -0.146999 0
M  V30 1600 N 165.365 6.92047 -0.322999 0
M  V30 1601 N 167.158 5.62031 -0.0879044 0
M  V30 1602 H 159.309 1.85718 -1.03065 0
M  V30 1603 H 161.572 0.857446 -0.404339 0
M  V30 1604 H 161.278 3.38804 -0.943649 0
M  V30 1605 H 161.152 3.69042 0.780262 0
M  V30 1606 H 163.539 2.74554 1.08186 0
M  V30 1607 H 163.62 2.47028 -0.664134 0
M  V30 1608 H 163.264 4.96886 -1.05201 0
M  V30 1609 H 163.194 5.21783 0.710635 0
M  V30 1610 H 165.685 3.77748 0.107161 0
M  V30 1611 H 165.998 7.7173 -0.406608 0
M  V30 1612 H 164.343 6.94074 -0.358733 0
M  V30 1613 H 167.534 4.68075 0.048498 0
M  V30 1614 H 167.707 6.47734 -0.185557 0
M  V30 1615 N 161.113 -0.173488 1.56642 0
M  V30 1616 C 162.39 -0.917617 1.7274 0
M  V30 1617 C 162.77 -2.00484 0.661027 0
M  V30 1618 O 162.118 -2.26184 -0.32453 0
M  V30 1619 C 162.328 -1.48433 3.15862 0
M  V30 1620 C 163.676 -1.95809 3.76754 0
M  V30 1621 O 164.7 -1.58231 3.19126 0
M  V30 1622 O 163.559 -2.65024 4.77938 0
M  V30 1623 H 160.653 -0.431772 0.705338 0
M  V30 1624 H 163.199 -0.161487 1.6893 0
M  V30 1625 H 161.971 -0.701715 3.84957 0
M  V30 1626 H 161.594 -2.30471 3.23989 0
M  V30 1627 N 162.591 -1.51276 -0.441967 0
M  V30 1628 C 163.501 -1.75092 -1.56141 0
M  V30 1629 C 164.517 -0.634963 -1.62001 0
M  V30 1630 O 165.693 -0.916686 -1.79329 0
M  V30 1631 C 162.758 -1.86666 -2.92158 0
M  V30 1632 C 161.819 -3.10506 -2.96453 0
M  V30 1633 C 161.052 -3.21519 -4.25982 0
M  V30 1634 O 161.275 -2.38586 -5.18105 0
M  V30 1635 O 160.209 -4.14465 -4.36466 0
M  V30 1636 H 164.035 -2.70044 -1.38961 0
M  V30 1637 H 161.62 -1.35722 -0.624499 0
M  V30 1638 H 163.502 -1.96292 -3.72891 0
M  V30 1639 H 162.177 -0.949014 -3.09476 0
M  V30 1640 H 161.084 -3.06363 -2.14692 0
M  V30 1641 H 162.417 -4.01945 -2.84079 0
M  V30 1642 N 164.069 0.697108 -1.41344 0
M  V30 1643 C 165.485 1.00751 -1.2378 0
M  V30 1644 C 165.685 2.01105 -0.126066 0
M  V30 1645 O 164.741 2.47295 0.51004 0
M  V30 1646 C 166.054 1.53359 -2.58653 0
M  V30 1647 C 167.602 1.6525 -2.65822 0
M  V30 1648 C 168.077 2.2126 -4.01009 0
M  V30 1649 N 169.568 2.28622 -4.02847 0
M  V30 1650 C 170.303 2.72984 -5.04249 0
M  V30 1651 N 169.799 3.16962 -6.16041 0
M  V30 1652 N 171.592 2.72534 -4.91611 0
M  V30 1653 H 163.743 0.0322662 -2.12375 0
M  V30 1654 H 166.006 0.0768853 -0.944877 0
M  V30 1655 H 165.712 0.870773 -3.4075 0
M  V30 1656 H 165.586 2.51597 -2.81032 0
M  V30 1657 H 167.973 2.30644 -1.84086 0
M  V30 1658 H 168.054 0.655614 -2.47256 0
M  V30 1659 H 167.698 1.56482 -4.83193 0
M  V30 1660 H 167.628 3.21698 -4.16915 0
M  V30 1661 H 170.119 1.97585 -3.22131 0
M  V30 1662 H 170.432 3.49434 -6.89287 0
M  V30 1663 H 168.777 3.14875 -6.1958 0
M  V30 1664 H 171.968 2.37525 -4.0336 0
M  V30 1665 H 172.141 3.06789 -5.70775 0
M  V30 1666 N 165.547 1.27147 0.931209 0
M  V30 1667 C 166.772 1.16191 1.71797 0
M  V30 1668 C 167.197 -0.278004 1.86034 0
M  V30 1669 O 166.555 -1.20137 1.35782 0
M  V30 1670 C 166.603 1.84673 3.09723 0
M  V30 1671 O 165.707 1.14231 3.96264 0
M  V30 1672 H 165.048 0.404303 0.526721 0
M  V30 1673 H 167.578 1.68152 1.1656 0
M  V30 1674 H 167.588 1.91893 3.60057 0
M  V30 1675 H 166.263 2.89421 2.98677 0
M  V30 1676 H 164.84 1.15056 3.54706 0
M  V30 1677 N 167.025 -1.13721 1.09112 0
M  V30 1678 C 167.935 -2.22638 0.73957 0
M  V30 1679 C 168.951 -1.72091 -0.257068 0
M  V30 1680 O 170.127 -2.01155 -0.0992154 0
M  V30 1681 C 167.192 -3.46322 0.16191 0
M  V30 1682 C 166.253 -4.11775 1.21408 0
M  V30 1683 C 165.486 -5.29555 0.663891 0
M  V30 1684 O 165.709 -5.68077 -0.514274 0
M  V30 1685 O 164.643 -5.84973 1.41738 0
M  V30 1686 H 168.469 -2.55074 1.64836 0
M  V30 1687 H 166.054 -1.21791 0.865289 0
M  V30 1688 H 167.936 -4.21107 -0.157073 0
M  V30 1689 H 166.611 -3.15593 -0.719932 0
M  V30 1690 H 165.518 -3.3883 1.58571 0
M  V30 1691 H 166.851 -4.46627 2.06845 0
M  V30 1692 N 168.503 -0.877838 -1.30888 0
M  V30 1693 C 169.919 -0.570844 -1.49042 0
M  V30 1694 C 170.119 0.893159 -1.80624 0
M  V30 1695 O 169.175 1.67485 -1.88958 0
M  V30 1696 C 170.488 -1.47784 -2.61878 0
M  V30 1697 C 172.036 -1.48071 -2.75761 0
M  V30 1698 C 172.511 -2.37347 -3.91702 0
M  V30 1699 N 174.002 -2.35271 -3.99001 0
M  V30 1700 C 174.737 -3.01063 -4.88004 0
M  V30 1701 N 174.233 -3.76055 -5.81854 0
M  V30 1702 N 176.026 -2.90332 -4.81315 0
M  V30 1703 H 168.177 -1.82502 -1.0866 0
M  V30 1704 H 170.44 -0.780797 -0.537644 0
M  V30 1705 H 170.146 -2.51993 -2.45341 0
M  V30 1706 H 170.02 -1.18215 -3.58197 0
M  V30 1707 H 172.407 -0.446166 -2.91708 0
M  V30 1708 H 172.488 -1.81668 -1.80085 0
M  V30 1709 H 172.132 -3.40883 -3.76512 0
M  V30 1710 H 172.062 -2.01071 -4.86701 0
M  V30 1711 H 174.553 -1.80768 -3.3186 0
M  V30 1712 H 174.866 -4.23366 -6.46514 0
M  V30 1713 H 173.211 -3.80163 -5.81808 0
M  V30 1714 H 176.402 -2.31278 -4.06974 0
M  V30 1715 H 176.575 -3.41885 -5.50471 0
M  V30 1716 N 169.982 1.44106 -0.638065 0
M  V30 1717 C 170.945 2.29138 0.0531013 0
M  V30 1718 C 171.945 1.41409 0.765506 0
M  V30 1719 O 173.135 1.63206 0.609046 0
M  V30 1720 C 170.267 3.23144 1.08584 0
M  V30 1721 H 171.46 2.91739 -0.694883 0
M  V30 1722 H 169.013 1.51134 -0.398538 0
M  V30 1723 H 169.748 2.65408 1.86357 0
M  V30 1724 H 169.533 3.87804 0.578852 0
M  V30 1725 H 171.023 3.87004 1.56899 0
M  V30 1726 N 171.46 0.379036 1.52974 0
M  V30 1727 C 172.707 -0.206421 2.01445 0
M  V30 1728 C 173.035 -1.47668 1.26587 0
M  V30 1729 O 172.29 -1.92514 0.351675 0
M  V30 1730 C 172.589 -0.53096 3.53434 0
M  V30 1731 C 172.255 0.646546 4.46241 0
M  V30 1732 C 170.917 0.969604 4.7133 0
M  V30 1733 C 173.269 1.43479 5.01062 0
M  V30 1734 C 170.597 2.08263 5.48492 0
M  V30 1735 C 172.949 2.53834 5.7944 0
M  V30 1736 C 171.613 2.86659 6.02812 0
M  V30 1737 H 170.883 -0.0755349 0.73714 0
M  V30 1738 H 173.53 0.514271 1.84465 0
M  V30 1739 H 171.835 -1.33285 3.68432 0
M  V30 1740 H 173.532 -0.996417 3.88423 0
M  V30 1741 H 170.122 0.384734 4.2687 0
M  V30 1742 H 174.306 1.19844 4.81613 0
M  V30 1743 H 169.562 2.34078 5.64816 0
M  V30 1744 H 173.736 3.15319 6.20924 0
M  V30 1745 H 171.363 3.73026 6.62387 0
M  V30 1746 N 172.938 -1.57226 0.108567 0
M  V30 1747 C 173.885 -2.14756 -0.845481 0
M  V30 1748 C 174.855 -1.06971 -1.27068 0
M  V30 1749 O 176.04 -1.34827 -1.35005 0
M  V30 1750 C 173.18 -2.74298 -2.09415 0
M  V30 1751 C 172.293 -3.96358 -1.71826 0
M  V30 1752 C 171.428 -4.44021 -2.9158 0
M  V30 1753 C 170.467 -5.58637 -2.50181 0
M  V30 1754 N 169.604 -6.01091 -3.62814 0
M  V30 1755 H 174.444 -2.95961 -0.348035 0
M  V30 1756 H 171.981 -1.46226 -0.160106 0
M  V30 1757 H 173.939 -3.06945 -2.82561 0
M  V30 1758 H 172.569 -1.95801 -2.56636 0
M  V30 1759 H 171.621 -3.69939 -0.885947 0
M  V30 1760 H 172.933 -4.79504 -1.37394 0
M  V30 1761 H 172.087 -4.78522 -3.72963 0
M  V30 1762 H 170.826 -3.59803 -3.29231 0
M  V30 1763 H 169.831 -5.23751 -1.67228 0
M  V30 1764 H 171.056 -6.44613 -2.13659 0
M  V30 1765 H 169.002 -5.19817 -4.00158 0
M  V30 1766 H 168.919 -6.79066 -3.32273 0
M  V30 1767 H 170.187 -6.40227 -4.44668 0
M  V30 1768 N 174.416 0.165178 -1.56732 0
M  V30 1769 C 175.346 1.20651 -1.99914 0
M  V30 1770 C 176.327 1.45827 -0.875705 0
M  V30 1771 O 177.512 1.57057 -1.14223 0
M  V30 1772 C 174.642 2.54401 -2.36427 0
M  V30 1773 C 173.596 2.43782 -3.51787 0
M  V30 1774 C 172.922 3.82078 -3.7406 0
M  V30 1775 C 174.222 1.93732 -4.85041 0
M  V30 1776 H 175.916 0.847534 -2.87154 0
M  V30 1777 H 173.462 0.40625 -1.38151 0
M  V30 1778 H 175.415 3.27458 -2.65234 0
M  V30 1779 H 174.139 2.92098 -1.46103 0
M  V30 1780 H 172.798 1.73178 -3.23117 0
M  V30 1781 H 172.446 4.17179 -2.81017 0
M  V30 1782 H 172.146 3.7584 -4.51684 0
M  V30 1783 H 173.67 4.56712 -4.05274 0
M  V30 1784 H 175.084 2.56569 -5.12684 0
M  V30 1785 H 173.481 1.98428 -5.66345 0
M  V30 1786 H 174.551 0.891962 -4.76626 0
M  V30 1787 N 175.894 1.51508 0.433938 0
M  V30 1788 C 177.122 1.68157 1.20543 0
M  V30 1789 C 177.537 0.380362 1.84929 0
M  V30 1790 O 176.894 -0.641446 1.70856 0
M  V30 1791 C 176.945 2.79965 2.28696 0
M  V30 1792 O 176.666 4.05045 1.66943 0
M  V30 1793 C 178.167 3.07912 3.18912 0
M  V30 1794 H 175.387 0.56421 0.363191 0
M  V30 1795 H 177.931 1.97941 0.513754 0
M  V30 1796 H 176.086 2.5277 2.93574 0
M  V30 1797 H 176.5 4.67165 2.38448 0
M  V30 1798 H 177.974 3.89719 3.90926 0
M  V30 1799 H 178.451 2.20456 3.79863 0
M  V30 1800 H 179.057 3.36779 2.59731 0
M  V30 1801 N 177.372 -0.689602 1.41712 0
M  V30 1802 C 178.788 -1.00093 1.24312 0
M  V30 1803 C 178.988 -2.01036 0.136729 0
M  V30 1804 O 178.044 -2.47562 -0.496918 0
M  V30 1805 C 179.357 -1.51985 2.59463 0
M  V30 1806 C 180.905 -1.63838 2.66695 0
M  V30 1807 C 181.38 -2.1913 4.02177 0
M  V30 1808 N 182.871 -2.26483 4.04054 0
M  V30 1809 C 183.606 -2.70306 5.0569 0
M  V30 1810 N 183.102 -3.13691 6.17713 0
M  V30 1811 N 184.895 -2.69923 4.9305 0
M  V30 1812 H 177.046 -0.0210029 2.1239 0
M  V30 1813 H 179.309 -0.0718733 0.945272 0
M  V30 1814 H 179.015 -0.85269 3.41207 0
M  V30 1815 H 178.889 -2.50103 2.82362 0
M  V30 1816 H 181.276 -2.29664 1.85306 0
M  V30 1817 H 181.357 -0.642492 2.476 0
M  V30 1818 H 181.001 -1.53918 4.84016 0
M  V30 1819 H 180.931 -3.19482 4.18615 0
M  V30 1820 H 183.422 -1.95874 3.23174 0
M  V30 1821 H 183.735 -3.45773 6.9113 0
M  V30 1822 H 182.08 -3.11585 6.21241 0
M  V30 1823 H 185.271 -2.35382 4.04614 0
M  V30 1824 H 185.444 -3.03758 5.72394 0
M  V30 1825 N 178.85 -1.27639 -0.924453 0
M  V30 1826 C 180.127 -1.04887 -1.651 0
M  V30 1827 C 180.507 0.415327 -2.06974 0
M  V30 1828 O 179.855 1.39923 -1.80648 0
M  V30 1829 C 180.065 -2.01348 -2.85061 0
M  V30 1830 C 181.413 -2.30899 -3.56329 0
M  V30 1831 O 182.437 -1.99348 -2.95193 0
M  V30 1832 O 181.296 -2.84699 -4.66485 0
M  V30 1833 H 178.39 -0.400083 -0.723784 0
M  V30 1834 H 180.936 -1.38916 -0.974703 0
M  V30 1835 H 179.708 -3.0008 -2.51133 0
M  V30 1836 H 179.331 -1.679 -3.6041 0
M  V30 1837 N 180.328 1.1314 -1.09713 0
M  V30 1838 C 181.291 2.16831 -0.742751 0
M  V30 1839 C 182.291 1.59159 0.229129 0
M  V30 1840 O 183.481 1.74199 0.00693237 0
M  V30 1841 C 180.613 3.40756 -0.0989168 0
M  V30 1842 H 181.806 2.49695 -1.66109 0
M  V30 1843 H 179.359 1.2802 -0.896699 0
M  V30 1844 H 180.094 3.13485 0.830514 0
M  V30 1845 H 179.879 3.83888 -0.798265 0
M  V30 1846 H 181.369 4.17386 0.133524 0
M  V30 1847 N 181.806 0.884767 1.30421 0
M  V30 1848 C 183.055 0.499164 1.95426 0
M  V30 1849 C 183.368 -0.95645 1.70621 0
M  V30 1850 O 184.574 -1.44889 2.29607 0
M  V30 1851 C 183.03 0.84177 3.49917 0
M  V30 1852 C 182.638 2.31514 3.83543 0
M  V30 1853 C 184.382 0.525355 4.21237 0
M  V30 1854 C 182.289 2.59939 5.31212 0
M  V30 1855 H 181.219 0.182944 0.73147 0
M  V30 1856 H 183.87 1.07971 1.48373 0
M  V30 1857 H 182.252 0.190311 3.95542 0
M  V30 1858 H 183.426 3.0109 3.48829 0
M  V30 1859 H 181.741 2.59907 3.25326 0
M  V30 1860 H 184.338 0.714762 5.29901 0
M  V30 1861 H 184.681 -0.535222 4.12845 0
M  V30 1862 H 185.214 1.134 3.81294 0
M  V30 1863 H 181.953 3.64736 5.44654 0
M  V30 1864 H 181.473 1.94972 5.67227 0
M  V30 1865 H 183.152 2.45429 5.98643 0
M  V30 1866 N 183.284 -1.43765 0.645699 0
M  V30 1867 C 184.194 -2.34544 -0.0512957 0
M  V30 1868 C 185.21 -1.53455 -0.82022 0
M  V30 1869 O 186.386 -1.86133 -0.769176 0
M  V30 1870 C 183.451 -3.31636 -1.01087 0
M  V30 1871 C 182.512 -4.2863 -0.239712 0
M  V30 1872 C 181.745 -5.21084 -1.15358 0
M  V30 1873 O 181.968 -5.1779 -2.39269 0
M  V30 1874 O 180.902 -5.98593 -0.630038 0
M  V30 1875 H 184.728 -2.95624 0.695718 0
M  V30 1876 H 182.313 -1.43781 0.405882 0
M  V30 1877 H 184.195 -3.9136 -1.56254 0
M  V30 1878 H 182.87 -2.73069 -1.73824 0
M  V30 1879 H 181.777 -3.72408 0.355356 0
M  V30 1880 H 183.11 -4.90157 0.447936 0
M  V30 1881 N 184.763 -0.387143 -1.52771 0
M  V30 1882 C 185.693 0.440551 -2.29306 0
M  V30 1883 C 186.674 1.06535 -1.32606 0
M  V30 1884 O 187.859 1.07853 -1.61497 0
M  V30 1885 C 184.989 1.56919 -3.09829 0
M  V30 1886 C 183.943 1.07054 -4.14395 0
M  V30 1887 C 183.269 2.29109 -4.83129 0
M  V30 1888 C 184.569 0.140015 -5.22112 0
M  V30 1889 H 186.263 -0.198026 -2.98744 0
M  V30 1890 H 183.809 -0.09668 -1.43675 0
M  V30 1891 H 185.762 2.15503 -3.62128 0
M  V30 1892 H 184.486 2.23532 -2.3812 0
M  V30 1893 H 183.145 0.507247 -3.63074 0
M  V30 1894 H 182.793 2.94227 -4.0797 0
M  V30 1895 H 182.493 1.96406 -5.53804 0
M  V30 1896 H 184.017 2.88339 -5.38231 0
M  V30 1897 H 185.431 0.633978 -5.69784 0
M  V30 1898 H 183.828 -0.0971485 -6.00021 0
M  V30 1899 H 184.898 -0.811711 -4.78058 0
M  V30 1900 N 186.241 1.57166 -0.116904 0
M  V30 1901 C 187.189 2.16457 0.851418 0
M  V30 1902 C 188.183 1.11323 1.27686 0
M  V30 1903 O 189.389 1.2963 1.24884 0
M  V30 1904 H 185.764 0.69271 0.292672 0
M  V30 1905 H 187.735 2.96605 0.32685 0
M  V30 1906 C 186.484 2.77689 2.09246 0
M  V30 1907 H 185.807 3.58285 1.77402 0
M  V30 1908 H 187.247 3.22716 2.7501 0
M  V30 1909 C 185.706 1.74667 2.88085 0
M  V30 1910 O 186.236 1.19877 3.83396 0
M  V30 1911 N 184.442 1.44656 2.52038 0
M  V30 1912 H 183.989 1.89402 1.74599 0
M  V30 1913 H 183.947 0.759675 3.05084 0
M  V30 1914 N 187.719 -0.156864 1.56817 0
M  V30 1915 C 188.682 -1.17781 1.96622 0
M  V30 1916 C 189.682 -1.36401 0.851555 0
M  V30 1917 O 190.872 -1.33561 1.11836 0
M  V30 1918 C 188.004 -2.54008 2.27361 0
M  V30 1919 H 189.197 -0.836564 2.87996 0
M  V30 1920 H 186.75 -0.39985 1.51099 0
M  V30 1921 H 187.485 -2.9312 1.38748 0
M  V30 1922 H 187.27 -2.41856 3.08623 0
M  V30 1923 H 188.76 -3.27558 2.59029 0
M  V30 1924 N 189.197 -1.51736 -0.425897 0
M  V30 1925 C 190.16 -1.73271 -1.50032 0
M  V30 1926 C 191.16 -0.602639 -1.4908 0
M  V30 1927 O 192.35 -0.87033 -1.509 0
M  V30 1928 C 189.482 -1.79969 -2.89523 0
M  V30 1929 H 190.675 -2.69172 -1.32237 0
M  V30 1930 H 188.228 -1.41899 -0.65532 0
M  V30 1931 H 188.963 -0.859241 -3.1271 0
M  V30 1932 H 188.748 -2.62109 -2.91619 0
M  V30 1933 H 190.238 -1.9843 -3.67444 0
M  V30 1934 N 190.675 0.682077 -1.42076 0
M  V30 1935 C 191.623 1.81707 -1.45208 0
M  V30 1936 C 192.617 1.66183 -0.328591 0
M  V30 1937 O 193.823 1.7288 -0.501264 0
M  V30 1938 H 190.198 0.599014 -0.454628 0
M  V30 1939 H 192.169 1.76183 -2.40836 0
M  V30 1940 C 190.918 3.19816 -1.36428 0
M  V30 1941 H 190.241 3.32385 -2.22171 0
M  V30 1942 H 191.681 3.99272 -1.42681 0
M  V30 1943 C 190.14 3.36809 -0.078191 0
M  V30 1944 O 190.67 3.92124 0.87188 0
M  V30 1945 N 188.876 2.906 0.00229266 0
M  V30 1946 H 188.423 2.45772 -0.771616 0
M  V30 1947 H 188.381 3.02347 0.862179 0
M  V30 1948 N 192.153 1.28127 0.917671 0
M  V30 1949 C 193.383 1.17722 1.6978 0
M  V30 1950 C 193.791 -0.267261 1.87303 0
M  V30 1951 O 193.134 -1.19286 1.39702 0
M  V30 1952 C 193.196 1.79958 3.11216 0
M  V30 1953 C 192.86 3.29187 3.16993 0
M  V30 1954 C 193.857 4.25679 2.98485 0
M  V30 1955 C 191.542 3.70075 3.39632 0
M  V30 1956 C 193.536 5.61035 3.02521 0
M  V30 1957 C 191.223 5.05557 3.433 0
M  V30 1958 C 192.221 6.00847 3.24764 0
M  V30 1959 O 191.909 7.33859 3.28187 0
M  V30 1960 H 191.641 0.409788 0.537634 0
M  V30 1961 H 194.195 1.69694 1.15728 0
M  V30 1962 H 192.425 1.22475 3.66793 0
M  V30 1963 H 194.114 1.64125 3.71238 0
M  V30 1964 H 194.88 3.95426 2.80826 0
M  V30 1965 H 190.759 2.96373 3.53106 0
M  V30 1966 H 194.303 6.35388 2.87971 0
M  V30 1967 H 190.2 5.35462 3.60486 0
M  V30 1968 H 190.968 7.42436 3.44575 0
M  V30 1969 N 193.631 -1.12557 1.10312 0
M  V30 1970 C 194.859 -1.87864 0.866873 0
M  V30 1971 C 195.274 -1.79588 -0.582557 0
M  V30 1972 O 194.631 -1.16887 -1.40156 0
M  V30 1973 C 194.682 -3.37125 1.30496 0
M  V30 1974 O 194.403 -3.45201 2.69755 0
M  V30 1975 C 195.904 -4.29373 1.10243 0
M  V30 1976 H 193.124 -0.594452 0.311236 0
M  V30 1977 H 195.668 -1.42429 1.46745 0
M  V30 1978 H 193.823 -3.80109 0.748081 0
M  V30 1979 H 194.237 -4.38056 2.88457 0
M  V30 1980 H 195.711 -5.32394 1.45811 0
M  V30 1981 H 196.188 -4.39181 0.0409492 0
M  V30 1982 H 196.794 -3.92169 1.64571 0
M  V30 1983 N 195.109 -0.891671 -1.2995 0
M  V30 1984 C 196.355 -0.514261 -1.96171 0
M  V30 1985 C 196.688 0.935506 -1.70182 0
M  V30 1986 O 195.963 1.66204 -1.01028 0
M  V30 1987 C 196.246 -0.797719 -3.51153 0
M  V30 1988 C 196.099 -2.2986 -3.86632 0
M  V30 1989 C 197.418 -0.278749 -4.39216 0
M  V30 1990 H 194.537 -0.188314 -0.712535 0
M  V30 1991 H 197.179 -1.11689 -1.53706 0
M  V30 1992 H 195.329 -0.284826 -3.87455 0
M  V30 1993 H 197.001 -2.88042 -3.60319 0
M  V30 1994 H 195.244 -2.76257 -3.34462 0
M  V30 1995 H 195.915 -2.44753 -4.94773 0
M  V30 1996 H 198.391 -0.717825 -4.09862 0
M  V30 1997 H 197.267 -0.506353 -5.46559 0
M  V30 1998 H 197.528 0.820266 -4.34424 0
M  V30 1999 N 196.587 1.43421 -0.653314 0
M  V30 2000 C 197.833 2.02641 -0.175593 0
M  V30 2001 C 198.188 1.5062 1.19713 0
M  V30 2002 O 197.481 0.689697 1.78756 0
M  V30 2003 C 197.675 3.57176 -0.126623 0
M  V30 2004 C 197.504 4.24191 -1.49306 0
M  V30 2005 C 196.274 4.60257 -2.08547 0
M  V30 2006 C 198.472 4.53193 -2.43148 0
M  V30 2007 N 196.454 5.12345 -3.38194 0
M  V30 2008 C 197.825 5.06601 -3.57429 0
M  V30 2009 C 199.88 4.35161 -2.41949 0
M  V30 2010 C 198.583 5.43875 -4.70736 0
M  V30 2011 C 200.609 4.73498 -3.54336 0
M  V30 2012 C 199.971 5.27039 -4.67343 0
M  V30 2013 H 196.07 0.77441 -0.108686 0
M  V30 2014 H 198.654 1.74596 -0.861638 0
M  V30 2015 H 196.825 3.84784 0.528766 0
M  V30 2016 H 198.557 4.03078 0.36198 0
M  V30 2017 H 195.312 4.45302 -1.61255 0
M  V30 2018 H 195.736 5.42842 -4.04538 0
M  V30 2019 H 200.378 3.9304 -1.55818 0
M  V30 2020 H 198.096 5.8494 -5.57558 0
M  V30 2021 H 201.682 4.61241 -3.5461 0
M  V30 2022 H 200.562 5.56153 -5.52868 0
M  V30 2023 N 198.065 0.39524 1.52563 0
M  V30 2024 C 199.015 -0.4541 2.23432 0
M  V30 2025 C 199.999 -1.02482 1.24042 0
M  V30 2026 O 201.191 -0.949938 1.49349 0
M  V30 2027 C 198.32 -1.57769 3.049 0
M  V30 2028 C 197.406 -1.01842 4.1169 0
M  V30 2029 N 197.797 -0.184613 5.05463 0
M  V30 2030 C 196.095 -1.29033 4.26927 0
M  V30 2031 C 196.796 0.125013 5.81566 0
M  V30 2032 N 195.772 -0.480498 5.41472 0
M  V30 2033 H 199.574 0.189413 2.93289 0
M  V30 2034 H 197.088 0.204877 1.61102 0
M  V30 2035 H 199.085 -2.19862 3.54212 0
M  V30 2036 H 197.745 -2.22397 2.36579 0
M  V30 2037 H 198.756 0.178602 5.17592 0
M  V30 2038 H 195.433 -1.93721 3.69836 0
M  V30 2039 H 196.823 0.800962 6.67109 0
M  V30 2040 N 199.544 -1.57102 0.125237 0
M  V30 2041 C 200.791 -1.95407 -0.531248 0
M  V30 2042 C 201.119 -1.0089 -1.66287 0
M  V30 2043 O 200.374 -0.0339431 -1.95671 0
M  V30 2044 C 200.673 -3.40096 -1.09862 0
M  V30 2045 C 200.339 -4.50815 -0.0876989 0
M  V30 2046 C 199.001 -4.80824 0.19026 0
M  V30 2047 C 201.353 -5.17724 0.600902 0
M  V30 2048 C 198.681 -5.75058 1.163 0
M  V30 2049 C 201.033 -6.13005 1.56231 0
M  V30 2050 C 199.697 -6.41403 1.8482 0
M  V30 2051 H 198.967 -0.715046 -0.194397 0
M  V30 2052 H 201.614 -1.90373 0.207463 0
M  V30 2053 H 199.919 -3.41855 -1.91422 0
M  V30 2054 H 201.616 -3.6705 -1.61478 0
M  V30 2055 H 198.206 -4.27444 -0.314528 0
M  V30 2056 H 202.39 -4.94691 0.399333 0
M  V30 2057 H 197.646 -5.95362 1.39117 0
M  V30 2058 H 201.82 -6.63934 2.10153 0
M  V30 2059 H 199.447 -7.14229 2.60349 0
M  V30 2060 N 201.022 0.148545 -1.56898 0
M  V30 2061 C 202.438 0.501131 -1.51528 0
M  V30 2062 C 202.638 1.83458 -0.833399 0
M  V30 2063 O 201.694 2.49259 -0.40328 0
M  V30 2064 C 203.007 0.512864 -2.96294 0
M  V30 2065 C 204.555 0.598487 -3.07225 0
M  V30 2066 C 205.03 0.640897 -4.53494 0
M  V30 2067 N 206.521 0.703163 -4.57832 0
M  V30 2068 C 207.256 0.756935 -5.68382 0
M  V30 2069 N 206.752 0.770147 -6.88506 0
M  V30 2070 N 208.545 0.797698 -5.56411 0
M  V30 2071 H 200.696 -0.725532 -1.99624 0
M  V30 2072 H 202.959 -0.264358 -0.910395 0
M  V30 2073 H 202.665 -0.398691 -3.49433 0
M  V30 2074 H 202.539 1.35133 -3.52163 0
M  V30 2075 H 204.926 1.50046 -2.54106 0
M  V30 2076 H 205.007 -0.267093 -2.54402 0
M  V30 2077 H 204.651 -0.256915 -5.0725 0
M  V30 2078 H 204.581 1.52295 -5.04097 0
M  V30 2079 H 207.072 0.700314 -3.71354 0
M  V30 2080 H 207.385 0.812983 -7.68512 0
M  V30 2081 H 205.73 0.738049 -6.9107 0
M  V30 2082 H 208.921 0.784535 -4.61479 0
M  V30 2083 H 209.094 0.83614 -6.42583 0
M  V30 2084 N 202.5 1.5196 0.417844 0
M  V30 2085 C 203.916 1.40569 0.755816 0
M  V30 2086 C 204.116 0.503316 1.95113 0
M  V30 2087 O 203.172 -0.0341925 2.52477 0
M  V30 2088 C 204.485 2.82947 1.01791 0
M  V30 2089 C 206.033 2.92231 1.12116 0
M  V30 2090 C 206.508 4.35559 1.41608 0
M  V30 2091 N 207.999 4.38753 1.48491 0
M  V30 2092 C 208.734 5.46705 1.7292 0
M  V30 2093 N 208.23 6.64788 1.95011 0
M  V30 2094 N 210.023 5.34209 1.74863 0
M  V30 2095 H 202.174 2.09168 -0.369098 0
M  V30 2096 H 204.437 0.942409 -0.102809 0
M  V30 2097 H 204.143 3.5106 0.212081 0
M  V30 2098 H 204.017 3.23462 1.94042 0
M  V30 2099 H 206.404 2.24304 1.9176 0
M  V30 2100 H 206.485 2.55185 0.177225 0
M  V30 2101 H 206.129 5.04042 0.624848 0
M  V30 2102 H 206.059 4.70133 2.37239 0
M  V30 2103 H 208.55 3.5363 1.33244 0
M  V30 2104 H 208.863 7.42845 2.13076 0
M  V30 2105 H 207.208 6.67869 1.92293 0
M  V30 2106 H 210.399 4.40937 1.57137 0
M  V30 2107 H 210.572 6.18415 1.93563 0
M  V30 2108 N 203.978 -0.674533 1.42435 0
M  V30 2109 C 205.224 -1.43671 1.43131 0
M  V30 2110 C 205.557 -1.94142 0.0476021 0
M  V30 2111 O 204.832 -1.70924 -0.928188 0
M  V30 2112 C 205.115 -2.63355 2.45594 0
M  V30 2113 C 204.968 -2.18514 3.93156 0
M  V30 2114 C 206.287 -3.65571 2.45043 0
M  V30 2115 H 203.406 -0.521077 0.521198 0
M  V30 2116 H 206.048 -0.766551 1.7385 0
M  V30 2117 H 204.198 -3.2053 2.19528 0
M  V30 2118 H 205.87 -1.66504 4.30202 0
M  V30 2119 H 204.113 -1.50086 4.07009 0
M  V30 2120 H 204.784 -3.04484 4.60428 0
M  V30 2121 H 207.26 -3.18113 2.68223 0
M  V30 2122 H 206.136 -4.46893 3.18713 0
M  V30 2123 H 206.397 -4.16716 1.47649 0
M  V30 2124 N 205.456 -1.28612 -0.910864 0
M  V30 2125 C 206.386 -1.15326 -2.03032 0
M  V30 2126 C 207.367 -0.0502924 -1.70026 0
M  V30 2127 O 208.552 -0.227797 -1.92859 0
M  V30 2128 C 205.682 -0.817343 -3.37545 0
M  V30 2129 C 204.636 -1.8754 -3.84724 0
M  V30 2130 C 203.962 -1.39305 -5.16235 0
M  V30 2131 C 205.262 -3.28244 -4.06267 0
M  V30 2132 H 206.956 -2.08975 -2.14406 0
M  V30 2133 H 204.502 -1.00612 -1.03021 0
M  V30 2134 H 206.455 -0.711151 -4.15356 0
M  V30 2135 H 205.179 0.154846 -3.26233 0
M  V30 2136 H 203.838 -1.97079 -3.09121 0
M  V30 2137 H 203.486 -0.409846 -5.01328 0
M  V30 2138 H 203.186 -2.10057 -5.48771 0
M  V30 2139 H 204.71 -1.30014 -5.96598 0
M  V30 2140 H 206.124 -3.21611 -4.74594 0
M  V30 2141 H 204.521 -3.96855 -4.5014 0
M  V30 2142 H 205.591 -3.72048 -3.10979 0
M  V30 2143 N 206.934 1.1197 -1.10907 0
M  V30 2144 C 207.864 2.19928 -0.784473 0
M  V30 2145 C 208.845 1.6833 0.244726 0
M  V30 2146 O 210.03 1.93892 0.109418 0
M  V30 2147 C 207.16 3.46597 -0.220827 0
M  V30 2148 C 206.114 4.11376 -1.18127 0
M  V30 2149 C 205.44 5.32554 -0.478594 0
M  V30 2150 C 206.74 4.56945 -2.52979 0
M  V30 2151 H 208.434 2.47337 -1.68715 0
M  V30 2152 H 205.98 1.18879 -0.812642 0
M  V30 2153 H 207.933 4.21396 0.0184278 0
M  V30 2154 H 206.657 3.1863 0.717113 0
M  V30 2155 H 205.316 3.38564 -1.40606 0
M  V30 2156 H 204.964 5.00856 0.463976 0
M  V30 2157 H 204.664 5.76844 -1.11912 0
M  V30 2158 H 206.188 6.10096 -0.248 0
M  V30 2159 H 207.602 5.23093 -2.3462 0
M  V30 2160 H 205.999 5.1203 -3.12962 0
M  V30 2161 H 207.069 3.70676 -3.12614 0
M  V30 2162 N 208.412 0.89855 1.29475 0
M  V30 2163 C 209.359 0.373819 2.27753 0
M  V30 2164 C 210.329 -0.543444 1.56958 0
M  V30 2165 O 211.514 -0.468934 1.84948 0
M  V30 2166 C 208.654 -0.393648 3.42848 0
M  V30 2167 C 207.767 0.554379 4.28428 0
M  V30 2168 C 206.902 -0.230026 5.30702 0
M  V30 2169 C 205.941 0.712599 6.07938 0
M  V30 2170 N 205.078 -0.0373283 7.0209 0
M  V30 2171 H 209.918 1.21699 2.72017 0
M  V30 2172 H 207.455 0.611456 1.33789 0
M  V30 2173 H 209.413 -0.85466 4.08352 0
M  V30 2174 H 208.043 -1.20128 2.99615 0
M  V30 2175 H 207.095 1.13391 3.63107 0
M  V30 2176 H 208.407 1.27597 4.82204 0
M  V30 2177 H 207.561 -0.752288 6.02018 0
M  V30 2178 H 206.3 -0.984758 4.77654 0
M  V30 2179 H 205.305 1.24637 5.35486 0
M  V30 2180 H 206.53 1.46664 6.63074 0
M  V30 2181 H 204.476 -0.774348 6.51414 0
M  V30 2182 H 204.393 0.624374 7.53417 0
M  V30 2183 H 205.661 -0.539891 7.77628 0
M  V30 2184 N 209.89 -1.43072 0.660911 0
M  V30 2185 C 211.115 -2.06584 0.183805 0
M  V30 2186 C 211.54 -1.49257 -1.14472 0
M  V30 2187 O 210.898 -0.605528 -1.70889 0
M  V30 2188 C 210.946 -3.60418 0.114434 0
M  V30 2189 O 210.05 -4.01981 -0.921137 0
M  V30 2190 H 209.391 -0.656669 0.0983994 0
M  V30 2191 H 211.921 -1.83447 0.906006 0
M  V30 2192 H 211.931 -4.07946 -0.0663394 0
M  V30 2193 H 210.606 -4.01519 1.08422 0
M  V30 2194 H 209.183 -3.66029 -0.71253 0
M  V30 2195 N 211.368 -0.403325 -1.52352 0
M  V30 2196 C 212.298 0.416205 -2.29761 0
M  V30 2197 C 213.279 1.05123 -1.33728 0
M  V30 2198 O 214.464 1.06134 -1.62632 0
M  V30 2199 C 211.594 1.53624 -3.11475 0
M  V30 2200 C 210.548 1.02653 -4.15507 0
M  V30 2201 C 209.874 2.23971 -4.85532 0
M  V30 2202 C 211.174 0.08463 -5.22231 0
M  V30 2203 H 212.868 -0.229701 -2.98518 0
M  V30 2204 H 210.414 -0.111913 -1.43564 0
M  V30 2205 H 212.367 2.1165 -3.64393 0
M  V30 2206 H 211.091 2.20994 -2.40477 0
M  V30 2207 H 209.75 0.46871 -3.63591 0
M  V30 2208 H 209.398 2.89883 -4.11068 0
M  V30 2209 H 209.098 1.90521 -5.55856 0
M  V30 2210 H 210.622 2.82614 -5.41259 0
M  V30 2211 H 212.036 0.573509 -5.70424 0
M  V30 2212 H 210.433 -0.160783 -5.99885 0
M  V30 2213 H 211.503 -0.86237 -4.7717 0
M  V30 2214 N 212.846 1.57033 -0.133567 0
M  V30 2215 C 213.778 2.13176 0.841944 0
M  V30 2216 C 214.791 1.07794 1.22001 0
M  V30 2217 O 215.98 1.35117 1.16643 0
M  V30 2218 C 213.08 2.62847 2.13926 0
M  V30 2219 C 212.253 3.92486 1.93064 0
M  V30 2220 C 211.312 4.27605 3.0666 0
M  V30 2221 O 210.338 4.96168 2.78937 0
M  V30 2222 N 211.54 3.861 4.33483 0
M  V30 2223 H 214.305 2.97503 0.362192 0
M  V30 2224 H 211.866 1.61821 0.05042 0
M  V30 2225 H 213.858 2.83363 2.88942 0
M  V30 2226 H 212.428 1.83319 2.53205 0
M  V30 2227 H 211.648 3.80732 1.02159 0
M  V30 2228 H 212.936 4.77225 1.76447 0
M  V30 2229 H 212.334 3.30828 4.58878 0
M  V30 2230 H 210.891 4.11694 5.05323 0
M  V30 2231 N 214.325 -0.140222 1.56975 0
M  V30 2232 C 215.272 -1.17292 1.98774 0
M  V30 2233 C 216.242 -1.4232 0.856408 0
M  V30 2234 O 217.427 -1.54541 1.119 0
M  V30 2235 C 214.567 -2.49973 2.37923 0
M  V30 2236 C 213.68 -2.32062 3.64378 0
M  V30 2237 C 212.815 -3.57825 3.926 0
M  V30 2238 C 211.854 -3.3498 5.12303 0
M  V30 2239 N 210.991 -4.52891 5.36502 0
M  V30 2240 H 215.831 -0.809472 2.86795 0
M  V30 2241 H 213.368 -0.388237 1.41884 0
M  V30 2242 H 215.326 -3.27346 2.58652 0
M  V30 2243 H 213.956 -2.84252 1.52972 0
M  V30 2244 H 213.008 -1.45711 3.51387 0
M  V30 2245 H 214.32 -2.11145 4.51906 0
M  V30 2246 H 213.474 -4.43624 4.13863 0
M  V30 2247 H 212.213 -3.81753 3.03506 0
M  V30 2248 H 211.218 -2.4757 4.90906 0
M  V30 2249 H 212.443 -3.12444 6.02956 0
M  V30 2250 H 210.389 -4.76979 4.50363 0
M  V30 2251 H 210.306 -4.35001 6.18312 0
M  V30 2252 H 211.574 -5.39884 5.62268 0
M  V30 2253 N 215.803 -1.52179 -0.40978 0
M  V30 2254 C 217.08 -1.56769 -1.16974 0
M  V30 2255 C 217.46 -0.348322 -2.08206 0
M  V30 2256 O 216.808 0.664862 -2.18613 0
M  V30 2257 C 217.018 -2.89603 -1.9476 0
M  V30 2258 C 218.366 -3.42579 -2.50849 0
M  V30 2259 O 219.39 -2.91338 -2.04941 0
M  V30 2260 O 218.249 -4.32054 -3.34652 0
M  V30 2261 H 215.343 -0.631439 -0.534054 0
M  V30 2262 H 217.889 -1.64507 -0.416613 0
M  V30 2263 H 216.661 -3.698 -1.27921 0
M  V30 2264 H 216.284 -2.85155 -2.77079 0
M  V30 2265 N 217.281 0.66697 -1.42791 0
M  V30 2266 C 218.211 1.79218 -1.49677 0
M  V30 2267 C 219.192 1.66405 -0.352623 0
M  V30 2268 O 220.377 1.85708 -0.567993 0
M  V30 2269 C 217.507 3.17565 -1.40605 0
M  V30 2270 C 216.461 3.45124 -2.53127 0
M  V30 2271 C 215.787 4.83127 -2.29112 0
M  V30 2272 C 217.087 3.41236 -3.95418 0
M  V30 2273 H 218.781 1.73713 -2.43853 0
M  V30 2274 H 216.327 0.83432 -1.17367 0
M  V30 2275 H 218.28 3.96022 -1.44029 0
M  V30 2276 H 217.004 3.23767 -0.429271 0
M  V30 2277 H 215.663 2.69031 -2.49034 0
M  V30 2278 H 215.311 4.85988 -1.29709 0
M  V30 2279 H 215.011 5.02528 -3.04531 0
M  V30 2280 H 216.535 5.63859 -2.34297 0
M  V30 2281 H 217.949 4.09651 -4.01073 0
M  V30 2282 H 216.346 3.72173 -4.70752 0
M  V30 2283 H 217.416 2.39665 -4.21532 0
M  V30 2284 N 218.759 1.29093 0.90403 0
M  V30 2285 C 219.709 1.10482 1.99443 0
M  V30 2286 C 220.693 0.0255401 1.6088 0
M  V30 2287 O 221.885 0.24677 1.75271 0
M  V30 2288 C 219.014 0.778882 3.34348 0
M  V30 2289 C 218.1 1.89749 3.79284 0
M  V30 2290 N 218.491 3.14045 3.96497 0
M  V30 2291 C 216.789 1.78955 4.08523 0
M  V30 2292 C 217.49 3.86996 4.34292 0
M  V30 2293 N 216.466 3.14909 4.43095 0
M  V30 2294 H 220.268 2.04778 2.10815 0
M  V30 2295 H 217.782 1.20155 1.09255 0
M  V30 2296 H 219.779 0.62661 4.12164 0
M  V30 2297 H 218.439 -0.156205 3.24324 0
M  V30 2298 H 219.45 3.49548 3.82148 0
M  V30 2299 H 216.127 0.926886 4.07081 0
M  V30 2300 H 217.517 4.93941 4.55491 0
M  V30 2301 N 220.237 -1.11381 1.11499 0
M  V30 2302 C 221.147 -2.21019 0.786628 0
M  V30 2303 C 222.163 -1.72597 -0.220507 0
M  V30 2304 O 223.339 -2.01321 -0.0565251 0
M  V30 2305 C 220.404 -3.459 0.235333 0
M  V30 2306 C 219.465 -4.09107 1.30115 0
M  V30 2307 C 218.698 -5.28027 0.776068 0
M  V30 2308 O 218.921 -5.6904 -0.393661 0
M  V30 2309 O 217.855 -5.81835 1.54114 0
M  V30 2310 H 221.681 -2.51521 1.70209 0
M  V30 2311 H 219.266 -1.19928 0.890928 0
M  V30 2312 H 221.148 -4.21346 -0.067715 0
M  V30 2313 H 219.823 -3.17049 -0.652828 0
M  V30 2314 H 218.73 -3.35391 1.65722 0
M  V30 2315 H 220.063 -4.42139 2.16273 0
M  V30 2316 N 221.715 -0.905404 -1.28997 0
M  V30 2317 C 222.625 -0.392246 -2.31298 0
M  V30 2318 C 223.641 0.515889 -1.66176 0
M  V30 2319 O 224.817 0.404093 -1.97304 0
M  V30 2320 C 221.882 0.36686 -3.44754 0
M  V30 2321 C 220.943 -0.573485 -4.25452 0
M  V30 2322 C 220.176 0.149488 -5.33491 0
M  V30 2323 O 220.399 1.37255 -5.5364 0
M  V30 2324 O 219.333 -0.510919 -5.99728 0
M  V30 2325 H 223.159 -1.2411 -2.77183 0
M  V30 2326 H 220.744 -0.669926 -1.33538 0
M  V30 2327 H 222.626 0.795907 -4.13816 0
M  V30 2328 H 221.301 1.19169 -3.00966 0
M  V30 2329 H 220.208 -1.05176 -3.59011 0
M  V30 2330 H 221.541 -1.36489 -4.72897 0
M  V30 2331 N 223.193 1.4272 -0.668489 0
M  V30 2332 C 224.126 2.28111 0.0637898 0
M  V30 2333 C 225.104 1.40705 0.814912 0
M  V30 2334 O 226.288 1.70146 0.81134 0
M  V30 2335 C 223.415 3.20429 1.0974 0
M  V30 2336 C 222.461 4.24197 0.442579 0
M  V30 2337 S 223.294 5.29563 -0.795173 0
M  V30 2338 C 224.45 6.25449 0.237516 0
M  V30 2339 H 224.683 2.8987 -0.660521 0
M  V30 2340 H 222.216 1.47456 -0.457821 0
M  V30 2341 H 224.174 3.74158 1.68868 0
M  V30 2342 H 222.835 2.57818 1.79411 0
M  V30 2343 H 222.028 4.88954 1.22227 0
M  V30 2344 H 221.63 3.73925 -0.0749554 0
M  V30 2345 H 223.922 6.68524 1.09915 0
M  V30 2346 H 224.865 7.07104 -0.375421 0
M  V30 2347 H 225.273 5.61511 0.580167 0
M  V30 2348 N 224.671 0.411399 1.52136 0
M  V30 2349 C 225.619 -0.427633 2.28635 0
M  V30 2350 C 226.613 -1.04383 1.33419 0
M  V30 2351 O 227.819 -0.981772 1.50868 0
M  V30 2352 H 224.194 -0.156689 0.735495 0
M  V30 2353 H 226.165 0.238761 2.97443 0
M  V30 2354 C 224.914 -1.53082 3.12188 0
M  V30 2355 H 224.237 -1.06601 3.85326 0
M  V30 2356 H 225.677 -2.09167 3.68816 0
M  V30 2357 C 224.136 -2.49946 2.25895 0
M  V30 2358 O 224.666 -3.53884 1.90076 0
M  V30 2359 N 222.872 -2.2021 1.8962 0
M  V30 2360 H 222.419 -1.35719 2.18948 0
M  V30 2361 H 222.377 -2.85266 1.32176 0
M  V30 2362 N 226.149 -1.5696 0.141893 0
M  V30 2363 C 227.379 -2.00031 -0.516828 0
M  V30 2364 C 227.787 -1.02091 -1.59293 0
M  V30 2365 O 227.13 -0.00909657 -1.83698 0
M  V30 2366 C 227.192 -3.39534 -1.1814 0
M  V30 2367 C 226.856 -4.56313 -0.250513 0
M  V30 2368 C 227.853 -5.17295 0.519839 0
M  V30 2369 C 225.538 -5.02061 -0.154907 0
M  V30 2370 C 227.532 -6.2243 1.3733 0
M  V30 2371 C 225.219 -6.07053 0.702161 0
M  V30 2372 C 226.217 -6.67106 1.46487 0
M  V30 2373 O 225.905 -7.70066 2.30767 0
M  V30 2374 H 225.637 -0.661451 -0.139493 0
M  V30 2375 H 228.191 -2.04086 0.231926 0
M  V30 2376 H 226.421 -3.32302 -1.97769 0
M  V30 2377 H 228.11 -3.66745 -1.73933 0
M  V30 2378 H 228.876 -4.82852 0.45598 0
M  V30 2379 H 224.755 -4.5505 -0.7383 0
M  V30 2380 H 228.299 -6.69233 1.96909 0
M  V30 2381 H 224.196 -6.40923 0.76733 0
M  V30 2382 H 224.964 -7.87264 2.23959 0
M  V30 2383 N 227.627 0.131896 -1.57047 0
M  V30 2384 C 228.876 0.84044 -1.83356 0
M  V30 2385 C 229.189 1.81646 -0.725535 0
M  V30 2386 O 230.395 2.57025 -0.874659 0
M  V30 2387 C 228.851 1.54528 -3.25037 0
M  V30 2388 C 228.459 0.610902 -4.43815 0
M  V30 2389 C 230.203 2.23972 -3.60606 0
M  V30 2390 C 228.11 1.31823 -5.76521 0
M  V30 2391 H 227.04 0.317599 -0.683847 0
M  V30 2392 H 229.691 0.0931561 -1.83263 0
M  V30 2393 H 228.073 2.33873 -3.19561 0
M  V30 2394 H 229.247 -0.148407 -4.60561 0
M  V30 2395 H 227.562 0.0241016 -4.16393 0
M  V30 2396 H 230.159 2.77558 -4.57018 0
M  V30 2397 H 230.502 3.01173 -2.87403 0
M  V30 2398 H 231.035 1.51529 -3.6781 0
M  V30 2399 H 227.774 0.587771 -6.52859 0
M  V30 2400 H 227.294 2.04987 -5.63685 0
M  V30 2401 H 228.973 1.855 -6.19838 0
M  V30 2402 N 229.106 1.52395 0.401703 0
M  V30 2403 C 230.334 1.70676 1.16949 0
M  V30 2404 C 230.749 0.419503 1.8408 0
M  V30 2405 O 230.106 -0.605061 1.72178 0
M  V30 2406 C 230.157 2.84753 2.22706 0
M  V30 2407 O 229.878 4.08495 1.58314 0
M  V30 2408 C 231.379 3.14608 3.12309 0
M  V30 2409 H 228.599 0.571787 0.351142 0
M  V30 2410 H 231.143 1.98987 0.471652 0
M  V30 2411 H 229.298 2.58941 2.88147 0
M  V30 2412 H 229.712 4.72117 2.28485 0
M  V30 2413 H 231.186 3.97923 3.82572 0
M  V30 2414 H 231.663 2.28464 3.75101 0
M  V30 2415 H 232.269 3.42212 2.52529 0
M  V30 2416 N 230.584 -0.659388 1.43143 0
M  V30 2417 C 231.547 -1.75432 1.47501 0
M  V30 2418 C 232.547 -1.56707 0.360512 0
M  V30 2419 O 233.737 -1.62717 0.622002 0
M  V30 2420 C 230.869 -3.14239 1.32162 0
M  V30 2421 H 232.062 -1.7295 2.45006 0
M  V30 2422 H 229.615 -0.870469 1.29817 0
M  V30 2423 H 230.35 -3.22336 0.356401 0
M  V30 2424 H 230.135 -3.29235 2.12948 0
M  V30 2425 H 231.625 -3.94094 1.3813 0
M  V30 2426 N 232.062 -1.29571 -0.897171 0
M  V30 2427 C 233.311 -1.1706 -1.64256 0
M  V30 2428 C 233.624 0.276476 -1.93636 0
M  V30 2429 O 234.83 0.52294 -2.66416 0
M  V30 2430 C 233.286 -2.0475 -2.95982 0
M  V30 2431 C 232.894 -3.54295 -2.74187 0
M  V30 2432 C 234.638 -2.0097 -3.73914 0
M  V30 2433 C 232.545 -4.34081 -4.01656 0
M  V30 2434 H 231.475 -0.43452 -0.616205 0
M  V30 2435 H 234.126 -1.54229 -0.994268 0
M  V30 2436 H 232.508 -1.60452 -3.62038 0
M  V30 2437 H 233.682 -4.06662 -2.1671 0
M  V30 2438 H 231.997 -3.59773 -2.09648 0
M  V30 2439 H 234.594 -2.57838 -4.68427 0
M  V30 2440 H 234.937 -0.990273 -4.0435 0
M  V30 2441 H 235.47 -2.43325 -3.14703 0
M  V30 2442 H 232.209 -5.36671 -3.76384 0
M  V30 2443 H 231.729 -3.86483 -4.58684 0
M  V30 2444 H 233.408 -4.44877 -4.69781 0
M  V30 2445 N 233.54 1.10788 -1.12088 0
M  V30 2446 C 234.789 1.82036 -0.868659 0
M  V30 2447 C 235.102 1.85929 0.607426 0
M  V30 2448 O 236.308 2.53346 0.97613 0
M  V30 2449 C 234.764 3.26951 -1.50435 0
M  V30 2450 C 234.372 3.31367 -3.01496 0
M  V30 2451 C 236.116 4.03053 -1.33225 0
M  V30 2452 C 234.023 4.7072 -3.58017 0
M  V30 2453 H 232.953 0.682108 -0.321318 0
M  V30 2454 H 235.604 1.24618 -1.34694 0
M  V30 2455 H 233.986 3.84343 -0.953735 0
M  V30 2456 H 235.16 2.83819 -3.6302 0
M  V30 2457 H 233.475 2.6875 -3.18061 0
M  V30 2458 H 236.072 5.05981 -1.72878 0
M  V30 2459 H 236.415 4.15387 -0.275529 0
M  V30 2460 H 236.948 3.52066 -1.85188 0
M  V30 2461 H 233.687 4.63585 -4.63432 0
M  V30 2462 H 233.207 5.1865 -3.01268 0
M  V30 2463 H 234.886 5.39685 -3.56859 0
M  V30 2464 N 235.018 0.912232 1.28515 0
M  V30 2465 C 235.928 0.404506 2.31086 0
M  V30 2466 C 236.944 -0.50707 1.66448 0
M  V30 2467 O 238.12 -0.393624 1.97516 0
M  V30 2468 C 235.185 -0.348572 3.44943 0
M  V30 2469 C 234.246 0.59604 4.25142 0
M  V30 2470 C 233.479 -0.121194 5.33562 0
M  V30 2471 O 233.702 -1.34317 5.5436 0
M  V30 2472 O 232.636 0.542716 5.99448 0
M  V30 2473 H 236.462 1.25579 2.76521 0
M  V30 2474 H 234.047 0.676998 1.33181 0
M  V30 2475 H 235.929 -0.77395 4.14232 0
M  V30 2476 H 234.604 -1.17571 3.01594 0
M  V30 2477 H 233.511 1.07079 3.58448 0
M  V30 2478 H 234.844 1.38995 4.72167 0
M  V30 2479 N 236.496 -1.42363 0.676048 0
M  V30 2480 C 237.406 -2.346 -0.00153389 0
M  V30 2481 C 238.422 -1.5516 -0.787485 0
M  V30 2482 O 239.598 -1.87723 -0.729521 0
M  V30 2483 C 236.663 -3.33705 -0.940298 0
M  V30 2484 C 235.724 -4.29042 -0.148739 0
M  V30 2485 C 234.957 -5.23413 -1.04279 0
M  V30 2486 O 235.18 -5.22749 -2.28232 0
M  V30 2487 O 234.114 -5.99795 -0.502925 0
M  V30 2488 H 237.94 -2.94082 0.758268 0
M  V30 2489 H 235.525 -1.42888 0.436289 0
M  V30 2490 H 237.407 -3.94586 -1.47917 0
M  V30 2491 H 236.082 -2.76695 -1.67993 0
M  V30 2492 H 234.989 -3.71571 0.43427 0
M  V30 2493 H 236.322 -4.89097 0.551805 0
M  V30 2494 N 237.974 -0.419461 -1.51915 0
M  V30 2495 C 238.906 0.43646 -2.25006 0
M  V30 2496 C 239.919 1.00149 -1.28351 0
M  V30 2497 O 241.108 0.898674 -1.54227 0
M  V30 2498 C 238.208 1.6206 -2.9764 0
M  V30 2499 C 237.381 1.17763 -4.21249 0
M  V30 2500 C 236.44 2.22985 -4.76617 0
M  V30 2501 O 235.466 1.83151 -5.38929 0
M  V30 2502 N 236.668 3.55271 -4.59089 0
M  V30 2503 H 239.433 -0.18989 -2.99098 0
M  V30 2504 H 236.994 -0.247386 -1.59999 0
M  V30 2505 H 238.986 2.32038 -3.31573 0
M  V30 2506 H 237.556 2.15266 -2.2667 0
M  V30 2507 H 236.776 0.305582 -3.93014 0
M  V30 2508 H 238.064 0.858781 -5.015 0
M  V30 2509 H 237.462 3.90377 -4.09417 0
M  V30 2510 H 236.019 4.21195 -4.97432 0
M  V30 2511 N 239.452 1.56882 -0.150215 0
M  V30 2512 C 240.863 1.82995 0.370076 0
M  V30 2513 C 241.214 1.06907 1.64515 0
M  V30 2514 O 240.339 0.315369 2.1409 0
M  V30 2515 C 240.934 3.31942 0.678208 0
M  V30 2516 C 239.493 3.58625 1.14301 0
M  V30 2517 C 238.64 2.76792 0.167778 0
M  V30 2518 H 241.591 1.54209 -0.374858 0
M  V30 2519 H 241.612 3.48272 1.53254 0
M  V30 2520 H 241.124 3.87294 -0.249991 0
M  V30 2521 H 239.225 3.08664 2.08704 0
M  V30 2522 H 239.338 4.67073 1.06676 0
M  V30 2523 H 237.702 2.45972 0.661037 0
M  V30 2524 H 238.485 3.34916 -0.754069 0
M  V30 2525 N 240.93 -0.123565 1.57115 0
M  V30 2526 C 241.877 -1.15177 2.00007 0
M  V30 2527 C 242.847 -1.41403 0.871454 0
M  V30 2528 O 244.032 -1.53346 1.13533 0
M  V30 2529 C 241.172 -2.47436 2.40561 0
M  V30 2530 C 240.285 -2.28184 3.66819 0
M  V30 2531 C 239.42 -3.53641 3.96373 0
M  V30 2532 C 238.459 -3.29528 5.15827 0
M  V30 2533 N 237.596 -4.47175 5.41275 0
M  V30 2534 H 242.436 -0.779008 2.87638 0
M  V30 2535 H 239.973 -0.373166 1.42288 0
M  V30 2536 H 241.931 -3.24584 2.62109 0
M  V30 2537 H 240.561 -2.82614 1.55978 0
M  V30 2538 H 239.613 -1.41976 3.52912 0
M  V30 2539 H 240.925 -2.0634 4.5412 0
M  V30 2540 H 240.079 -4.39209 4.18545 0
M  V30 2541 H 238.818 -3.78512 3.07538 0
M  V30 2542 H 237.823 -2.42349 4.93505 0
M  V30 2543 H 239.048 -3.06031 6.06236 0
M  V30 2544 H 236.994 -4.72175 4.55397 0
M  V30 2545 H 236.911 -4.28419 6.22891 0
M  V30 2546 H 238.179 -5.3389 5.67963 0
M  V30 2547 N 242.408 -1.52605 -0.393616 0
M  V30 2548 C 243.356 -1.77688 -1.50099 0
M  V30 2549 C 244.35 -0.644615 -1.56656 0
M  V30 2550 O 245.556 -0.826997 -1.59877 0
M  V30 2551 H 241.931 -0.562159 -0.499481 0
M  V30 2552 H 243.902 -2.7043 -1.26135 0
M  V30 2553 C 242.651 -1.95858 -2.87289 0
M  V30 2554 H 241.974 -2.8241 -2.82992 0
M  V30 2555 H 243.414 -2.174 -3.64024 0
M  V30 2556 C 241.873 -0.729848 -3.28899 0
M  V30 2557 O 242.403 0.0949217 -4.01588 0
M  V30 2558 N 240.609 -0.561283 -2.85128 0
M  V30 2559 H 240.156 -1.23357 -2.26143 0
M  V30 2560 H 240.114 0.2595 -3.13327 0
M  V30 2561 N 243.887 0.651787 -1.4349 0
M  V30 2562 C 245.117 1.43728 -1.48411 0
M  V30 2563 C 245.525 1.8893 -0.10103 0
M  V30 2564 O 244.868 1.60182 0.899307 0
M  V30 2565 C 244.93 2.70411 -2.36893 0
M  V30 2566 C 244.594 2.4714 -3.8441 0
M  V30 2567 C 245.591 2.10271 -4.75481 0
M  V30 2568 C 243.276 2.6142 -4.28912 0
M  V30 2569 C 245.27 1.87982 -6.0905 0
M  V30 2570 C 242.957 2.38746 -5.62533 0
M  V30 2571 C 243.955 2.02083 -6.5242 0
M  V30 2572 O 243.643 1.79647 -7.8357 0
M  V30 2573 H 243.375 0.447962 -0.506267 0
M  V30 2574 H 245.929 0.80624 -1.88915 0
M  V30 2575 H 244.159 3.36079 -1.91278 0
M  V30 2576 H 245.848 3.32364 -2.33 0
M  V30 2577 H 246.614 1.98814 -4.42378 0
M  V30 2578 H 242.493 2.88931 -3.59222 0
M  V30 2579 H 246.037 1.5929 -6.7917 0
M  V30 2580 H 241.934 2.49806 -5.95203 0
M  V30 2581 H 242.702 1.9406 -7.95162 0
M  V30 2582 N 245.365 1.30045 0.890287 0
M  V30 2583 C 246.297 1.11786 2.00091 0
M  V30 2584 C 247.31 0.0626307 1.62679 0
M  V30 2585 O 248.499 0.308112 1.75821 0
M  V30 2586 C 245.599 0.681527 3.31977 0
M  V30 2587 C 244.772 1.81735 3.97858 0
M  V30 2588 C 243.831 1.37045 5.08041 0
M  V30 2589 O 242.857 2.07677 5.29961 0
M  V30 2590 N 244.059 0.246525 5.79976 0
M  V30 2591 H 246.824 2.07441 2.16306 0
M  V30 2592 H 244.385 1.2211 1.06305 0
M  V30 2593 H 246.377 0.365675 4.03045 0
M  V30 2594 H 244.947 -0.182828 3.12065 0
M  V30 2595 H 244.167 2.30159 3.20032 0
M  V30 2596 H 245.455 2.57865 4.38615 0
M  V30 2597 H 244.853 -0.34215 5.64664 0
M  V30 2598 H 243.41 -0.00990438 6.51799 0
M  V30 2599 N 246.843 -1.10192 1.12674 0
M  V30 2600 C 248.089 -1.82475 0.884915 0
M  V30 2601 C 248.422 -1.85093 -0.58773 0
M  V30 2602 O 247.697 -1.3134 -1.43457 0
M  V30 2603 C 247.98 -3.29018 1.46353 0
M  V30 2604 C 247.833 -3.34718 3.00473 0
M  V30 2605 C 249.152 -4.25473 1.12519 0
M  V30 2606 H 246.271 -0.662492 0.322915 0
M  V30 2607 H 248.913 -1.2913 1.39375 0
M  V30 2608 H 247.063 -3.74576 1.03077 0
M  V30 2609 H 248.735 -2.97622 3.52447 0
M  V30 2610 H 246.978 -2.74541 3.35872 0
M  V30 2611 H 247.649 -4.37918 3.36053 0
M  V30 2612 H 250.125 -3.88161 1.499 0
M  V30 2613 H 249.001 -5.26365 1.55663 0
M  V30 2614 H 249.262 -4.42084 0.0377407 0
M  V30 2615 N 248.321 -0.919034 -1.28029 0
M  V30 2616 C 249.567 -0.565221 -1.95389 0
M  V30 2617 C 249.922 0.882325 -1.70976 0
M  V30 2618 O 249.215 1.61988 -1.02325 0
M  V30 2619 C 249.409 -0.816855 -3.4794 0
M  V30 2620 C 249.238 -2.28731 -3.87185 0
M  V30 2621 C 248.008 -2.93841 -4.11079 0
M  V30 2622 C 250.206 -3.26415 -3.97439 0
M  V30 2623 N 248.188 -4.31129 -4.37037 0
M  V30 2624 C 249.559 -4.48884 -4.27672 0
M  V30 2625 C 251.614 -3.21742 -3.79982 0
M  V30 2626 C 250.317 -5.67268 -4.42266 0
M  V30 2627 C 252.343 -4.39431 -3.95796 0
M  V30 2628 C 251.705 -5.60675 -4.26407 0
M  V30 2629 H 247.804 -0.256797 -0.738633 0
M  V30 2630 H 250.388 -1.18386 -1.54573 0
M  V30 2631 H 248.559 -0.227445 -3.87733 0
M  V30 2632 H 250.291 -0.426542 -4.02446 0
M  V30 2633 H 247.046 -2.44547 -4.05578 0
M  V30 2634 H 247.47 -5.02127 -4.5409 0
M  V30 2635 H 252.112 -2.29079 -3.55363 0
M  V30 2636 H 249.83 -6.60406 -4.65714 0
M  V30 2637 H 253.416 -4.37323 -3.83719 0
M  V30 2638 H 252.296 -6.50223 -4.38383 0
M  V30 2639 N 249.799 1.42003 -0.683588 0
M  V30 2640 C 250.749 2.27997 0.0121992 0
M  V30 2641 C 251.733 1.4156 0.764822 0
M  V30 2642 O 252.925 1.64935 0.642287 0
M  V30 2643 C 250.054 3.29706 0.956482 0
M  V30 2644 C 249.14 4.23625 0.200739 0
M  V30 2645 N 249.531 4.99448 -0.799087 0
M  V30 2646 C 247.829 4.43845 0.437937 0
M  V30 2647 C 248.53 5.68102 -1.25041 0
M  V30 2648 N 247.506 5.40511 -0.578648 0
M  V30 2649 H 251.308 2.84048 -0.754564 0
M  V30 2650 H 248.822 1.54071 -0.513398 0
M  V30 2651 H 250.819 3.90124 1.47 0
M  V30 2652 H 249.479 2.75216 1.72297 0
M  V30 2653 H 250.49 5.04303 -1.17893 0
M  V30 2654 H 247.167 4.00382 1.18325 0
M  V30 2655 H 248.557 6.38913 -2.07942 0
M  V30 2656 N 251.277 0.427512 1.51691 0
M  V30 2657 C 252.227 -0.406604 2.24345 0
M  V30 2658 C 253.211 -0.998276 1.26187 0
M  V30 2659 O 254.403 -0.918045 1.51331 0
M  V30 2660 C 251.532 -1.51266 3.08177 0
M  V30 2661 C 250.618 -0.930868 4.13758 0
M  V30 2662 N 251.009 -0.0773552 5.05741 0
M  V30 2663 C 249.307 -1.19948 4.29568 0
M  V30 2664 C 250.008 0.248344 5.8117 0
M  V30 2665 N 248.984 -0.365535 5.4237 0
M  V30 2666 H 252.786 0.251581 2.92821 0
M  V30 2667 H 250.3 0.239003 1.60632 0
M  V30 2668 H 252.297 -2.123 3.58796 0
M  V30 2669 H 250.957 -2.17328 2.41244 0
M  V30 2670 H 251.968 0.288351 5.17097 0
M  V30 2671 H 248.645 -1.85832 3.73862 0
M  V30 2672 H 250.035 0.942286 6.6526 0
M  V30 2673 N 252.755 -1.56801 0.158532 0
M  V30 2674 C 254.171 -1.5837 -0.197774 0
M  V30 2675 C 254.371 -1.17334 -1.63814 0
M  V30 2676 O 253.427 -0.878988 -2.36707 0
M  V30 2677 C 254.74 -3.00615 0.0714459 0
M  V30 2678 C 256.288 -3.12999 0.00864533 0
M  V30 2679 C 256.763 -4.57313 0.250685 0
M  V30 2680 N 258.254 -4.62777 0.198014 0
M  V30 2681 C 258.989 -5.72271 0.359642 0
M  V30 2682 N 258.485 -6.90371 0.579625 0
M  V30 2683 N 260.278 -5.61318 0.296438 0
M  V30 2684 H 252.429 -1.81765 1.09887 0
M  V30 2685 H 254.692 -0.841849 0.435884 0
M  V30 2686 H 254.398 -3.35068 1.06874 0
M  V30 2687 H 254.272 -3.71683 -0.642757 0
M  V30 2688 H 256.659 -2.7838 -0.979217 0
M  V30 2689 H 256.74 -2.44393 0.755359 0
M  V30 2690 H 256.384 -4.92639 1.2357 0
M  V30 2691 H 256.314 -5.24061 -0.516489 0
M  V30 2692 H 258.805 -3.77885 0.0331115 0
M  V30 2693 H 259.118 -7.69689 0.69275 0
M  V30 2694 H 257.463 -6.92264 0.616087 0
M  V30 2695 H 260.654 -4.67932 0.125258 0
M  V30 2696 H 260.827 -6.46599 0.425831 0
M  V30 2697 N 254.233 0.115231 -1.57178 0
M  V30 2698 C 255.649 0.468877 -1.52557 0
M  V30 2699 C 255.849 1.81649 -0.872125 0
M  V30 2700 O 254.905 2.48347 -0.45606 0
M  V30 2701 C 256.218 0.4499 -2.97315 0
M  V30 2702 C 257.766 0.533185 -3.08425 0
M  V30 2703 C 258.241 0.54456 -4.54751 0
M  V30 2704 N 259.732 0.605892 -4.5922 0
M  V30 2705 C 260.467 0.636203 -5.6986 0
M  V30 2706 N 259.963 0.623931 -6.89985 0
M  V30 2707 N 261.756 0.679496 -5.57978 0
M  V30 2708 H 253.907 -0.767712 -1.9804 0
M  V30 2709 H 256.17 -0.283609 -0.904583 0
M  V30 2710 H 255.876 -0.472721 -3.48509 0
M  V30 2711 H 255.75 1.27632 -3.5495 0
M  V30 2712 H 258.137 1.44623 -2.57232 0
M  V30 2713 H 258.218 -0.320995 -2.53778 0
M  V30 2714 H 257.862 -0.364452 -5.06591 0
M  V30 2715 H 257.792 1.41568 -5.07214 0
M  V30 2716 H 260.283 0.621386 -3.72756 0
M  V30 2717 H 260.596 0.649787 -7.70063 0
M  V30 2718 H 258.941 0.591296 -6.9248 0
M  V30 2719 H 262.132 0.686472 -4.63039 0
M  V30 2720 H 262.305 0.69965 -6.44212 0
M  V30 2721 N 255.711 1.52812 0.385517 0
M  V30 2722 C 256.957 1.68275 1.13188 0
M  V30 2723 C 257.29 0.423179 1.89533 0
M  V30 2724 O 256.565 -0.579113 1.85679 0
M  V30 2725 C 256.848 2.92001 2.1073 0
M  V30 2726 C 256.701 4.28067 1.38125 0
M  V30 2727 C 258.02 3.11283 3.11113 0
M  V30 2728 H 255.139 0.612352 0.410115 0
M  V30 2729 H 257.781 1.85415 0.414869 0
M  V30 2730 H 255.931 2.77519 2.71874 0
M  V30 2731 H 257.603 4.54324 0.799187 0
M  V30 2732 H 255.846 4.28388 0.683092 0
M  V30 2733 H 256.517 5.10733 2.09417 0
M  V30 2734 H 258.993 3.2482 2.6006 0
M  V30 2735 H 257.869 3.99325 3.76605 0
M  V30 2736 H 258.13 2.25656 3.80173 0
M  V30 2737 N 257.189 -0.644168 1.43834 0
M  V30 2738 C 258.119 -1.76814 1.52509 0
M  V30 2739 C 259.1 -1.65823 0.379052 0
M  V30 2740 O 260.285 -1.84781 0.597466 0
M  V30 2741 C 257.415 -3.15288 1.4564 0
M  V30 2742 C 256.369 -3.41053 2.58586 0
M  V30 2743 C 255.695 -4.79421 2.36769 0
M  V30 2744 C 256.995 -3.34902 4.00797 0
M  V30 2745 H 258.689 -1.69812 2.46586 0
M  V30 2746 H 256.235 -0.815542 1.1868 0
M  V30 2747 H 258.188 -3.93681 1.50311 0
M  V30 2748 H 256.912 -3.23043 0.480725 0
M  V30 2749 H 255.571 -2.65035 2.53282 0
M  V30 2750 H 255.219 -4.83863 1.37424 0
M  V30 2751 H 254.919 -4.9762 3.12487 0
M  V30 2752 H 256.443 -5.6006 2.43238 0
M  V30 2753 H 257.857 -4.03218 4.07539 0
M  V30 2754 H 256.254 -3.64637 4.76613 0
M  V30 2755 H 257.324 -2.32928 4.25291 0
M  V30 2756 N 258.668 -1.30515 -0.883378 0
M  V30 2757 C 259.914 -1.19607 -1.63774 0
M  V30 2758 C 260.247 0.248314 -1.92606 0
M  V30 2759 O 259.522 1.17742 -1.54813 0
M  V30 2760 C 259.805 -2.02669 -2.97653 0
M  V30 2761 C 259.658 -3.55335 -2.75784 0
M  V30 2762 C 260.977 -1.86573 -3.98596 0
M  V30 2763 H 258.096 -0.435856 -0.594305 0
M  V30 2764 H 260.738 -1.60165 -1.02212 0
M  V30 2765 H 258.888 -1.68208 -3.50197 0
M  V30 2766 H 260.56 -3.99863 -2.30016 0
M  V30 2767 H 258.803 -3.79438 -2.1026 0
M  V30 2768 H 259.474 -4.08745 -3.70988 0
M  V30 2769 H 261.95 -2.16703 -3.55217 0
M  V30 2770 H 260.826 -2.47014 -4.90179 0
M  V30 2771 H 261.087 -0.825321 -4.34328 0
M  V30 2772 N 260.146 1.09593 -1.13257 0
M  V30 2773 C 261.056 2.19739 -0.821691 0
M  V30 2774 C 262.072 1.72926 0.19302 0
M  V30 2775 O 263.248 2.01385 0.0244895 0
M  V30 2776 C 260.313 3.45482 -0.290333 0
M  V30 2777 C 259.374 4.06985 -1.36607 0
M  V30 2778 C 258.607 5.26726 -0.859975 0
M  V30 2779 O 258.83 5.69594 0.303082 0
M  V30 2780 O 257.764 5.7931 -1.63351 0
M  V30 2781 H 261.59 2.48781 -1.74189 0
M  V30 2782 H 259.175 1.18496 -0.909894 0
M  V30 2783 H 261.057 4.214 0.000674022 0
M  V30 2784 H 259.732 3.18047 0.602306 0
M  V30 2785 H 258.639 3.32712 -1.71037 0
M  V30 2786 H 259.972 4.38643 -2.23279 0
M  V30 2787 N 261.624 0.925811 1.2754 0
M  V30 2788 C 262.87 0.575575 1.95086 0
M  V30 2789 C 263.225 -0.873246 1.71441 0
M  V30 2790 O 262.518 -1.61443 1.03183 0
M  V30 2791 C 262.712 0.835296 3.47502 0
M  V30 2792 C 262.541 2.30781 3.85967 0
M  V30 2793 C 261.311 2.96017 4.09514 0
M  V30 2794 C 263.509 3.28519 3.95702 0
M  V30 2795 N 261.491 4.3344 4.34744 0
M  V30 2796 C 262.862 4.51146 4.25285 0
M  V30 2797 C 264.917 3.23753 3.7827 0
M  V30 2798 C 263.62 5.69606 4.39251 0
M  V30 2799 C 265.646 4.41523 3.9346 0
M  V30 2800 C 265.008 5.62928 4.23428 0
M  V30 2801 H 261.107 0.260711 0.737261 0
M  V30 2802 H 263.691 1.19204 1.53943 0
M  V30 2803 H 261.862 0.248005 3.87607 0
M  V30 2804 H 263.594 0.447878 4.02214 0
M  V30 2805 H 260.349 2.46695 4.04275 0
M  V30 2806 H 260.773 5.04528 4.5142 0
M  V30 2807 H 265.415 2.3096 3.54143 0
M  V30 2808 H 263.133 6.62866 4.62205 0
M  V30 2809 H 266.719 4.39351 3.81394 0
M  V30 2810 H 265.599 6.52538 4.34929 0
M  V30 2811 N 263.102 -1.41638 0.69111 0
M  V30 2812 C 264.032 -2.3347 0.037248 0
M  V30 2813 C 265.013 -1.51575 -0.771947 0
M  V30 2814 O 266.198 -1.80126 -0.72582 0
M  V30 2815 C 263.328 -3.35354 -0.903064 0
M  V30 2816 C 262.282 -4.27526 -0.201288 0
M  V30 2817 C 261.608 -5.19747 -1.25565 0
M  V30 2818 C 262.908 -5.13959 0.929689 0
M  V30 2819 H 264.602 -2.88397 0.804227 0
M  V30 2820 H 262.148 -1.38669 0.388189 0
M  V30 2821 H 264.101 -3.98519 -1.36969 0
M  V30 2822 H 262.825 -2.78767 -1.70166 0
M  V30 2823 H 261.484 -3.65779 0.245265 0
M  V30 2824 H 261.132 -4.59479 -2.04666 0
M  V30 2825 H 260.832 -5.8225 -0.791128 0
M  V30 2826 H 262.356 -5.85789 -1.72288 0
M  V30 2827 H 263.77 -5.70718 0.543546 0
M  V30 2828 H 262.167 -5.85379 1.32103 0
M  V30 2829 H 263.237 -4.51389 1.77133 0
M  V30 2830 N 264.58 -0.43555 -1.51462 0
M  V30 2831 C 265.996 -0.0877501 -1.59359 0
M  V30 2832 C 266.196 1.4027 -1.4466 0
M  V30 2833 O 265.252 2.17243 -1.28693 0
M  V30 2834 C 266.565 -0.606264 -2.94525 0
M  V30 2835 C 268.113 -0.566548 -3.0783 0
M  V30 2836 C 268.588 -1.06201 -4.45517 0
M  V30 2837 N 270.079 -1.01992 -4.51832 0
M  V30 2838 C 270.814 -1.37417 -5.5669 0
M  V30 2839 N 270.31 -1.80119 -6.68976 0
M  V30 2840 N 272.103 -1.29245 -5.47039 0
M  V30 2841 H 264.254 -1.40533 -1.59261 0
M  V30 2842 H 266.517 -0.578992 -0.750648 0
M  V30 2843 H 266.223 -1.64901 -3.10645 0
M  V30 2844 H 266.097 -0.0302097 -3.77188 0
M  V30 2845 H 268.484 0.467208 -2.91378 0
M  V30 2846 H 268.565 -1.17898 -2.2701 0
M  V30 2847 H 268.209 -2.09422 -4.62715 0
M  V30 2848 H 268.139 -0.426127 -5.24873 0
M  V30 2849 H 270.63 -0.706308 -3.71241 0
M  V30 2850 H 270.943 -2.05392 -7.45006 0
M  V30 2851 H 269.288 -1.84044 -6.70189 0
M  V30 2852 H 272.479 -0.957522 -4.58202 0
M  V30 2853 H 272.652 -1.57182 -6.28648 0
M  V30 2854 N 266.058 1.56714 -0.166846 0
M  V30 2855 C 267.335 1.88412 0.525373 0
M  V30 2856 C 267.715 1.07602 1.81618 0
M  V30 2857 O 267.063 0.168621 2.27877 0
M  V30 2858 C 267.273 3.40363 0.771613 0
M  V30 2859 C 268.621 4.10007 1.1036 0
M  V30 2860 O 269.645 3.45655 0.860304 0
M  V30 2861 O 268.504 5.2369 1.56239 0
M  V30 2862 H 265.598 0.781587 0.270278 0
M  V30 2863 H 268.144 1.68458 -0.204946 0
M  V30 2864 H 266.916 3.91046 -0.141093 0
M  V30 2865 H 266.539 3.65914 1.55541 0
M  V30 2866 N 267.536 -0.106894 1.57237 0
M  V30 2867 C 268.947 -0.662723 1.74542 0
M  V30 2868 C 269.298 -1.7971 0.787319 0
M  V30 2869 O 268.423 -2.16368 -0.0369636 0
M  V30 2870 C 269.018 -1.20896 3.16496 0
M  V30 2871 C 267.577 -1.71096 3.35266 0
M  V30 2872 C 266.724 -0.615642 2.7038 0
M  V30 2873 H 269.675 0.119106 1.58252 0
M  V30 2874 H 269.696 -2.07847 3.18716 0
M  V30 2875 H 269.208 -0.383122 3.86204 0
M  V30 2876 H 267.309 -2.56119 2.70618 0
M  V30 2877 H 267.422 -1.81208 4.43509 0
M  V30 2878 H 265.786 -1.05222 2.31949 0
M  V30 2879 H 266.569 0.199419 3.4272 0
M  V30 2880 N 269.014 -1.53014 -0.377408 0
M  V30 2881 C 270.239 -1.72818 -1.14668 0
M  V30 2882 C 270.664 -0.450725 -1.8262 0
M  V30 2883 O 270.022 0.59439 -1.7128 0
M  V30 2884 C 270.07 -2.88627 -2.16164 0
M  V30 2885 O 269.174 -2.56409 -3.22998 0
M  V30 2886 H 268.515 -0.574301 -0.333278 0
M  V30 2887 H 271.045 -1.99853 -0.438152 0
M  V30 2888 H 271.055 -3.14455 -2.59966 0
M  V30 2889 H 269.73 -3.81294 -1.66095 0
M  V30 2890 H 268.307 -2.4136 -2.84253 0
M  V30 2891 N 270.492 0.636531 -1.44174 0
M  V30 2892 C 271.424 1.7618 -1.46606 0
M  V30 2893 C 272.437 1.58768 -0.360091 0
M  V30 2894 O 273.626 1.67181 -0.625518 0
M  V30 2895 C 270.726 3.13833 -1.27915 0
M  V30 2896 C 269.899 3.57753 -2.51658 0
M  V30 2897 C 268.958 4.74265 -2.27945 0
M  V30 2898 O 267.984 4.82852 -3.01401 0
M  V30 2899 N 269.186 5.65604 -1.30662 0
M  V30 2900 H 271.951 1.74567 -2.43612 0
M  V30 2901 H 269.512 0.820924 -1.39544 0
M  V30 2902 H 271.504 3.8949 -1.09907 0
M  V30 2903 H 270.074 3.10121 -0.39293 0
M  V30 2904 H 269.294 2.72362 -2.84978 0
M  V30 2905 H 270.582 3.83847 -3.33974 0
M  V30 2906 H 269.98 5.61354 -0.699844 0
M  V30 2907 H 268.537 6.40913 -1.18634 0
M  V30 2908 N 271.97 1.30982 0.876444 0
M  V30 2909 C 272.88 1.2003 2.01569 0
M  V30 2910 C 273.896 0.11838 1.73597 0
M  V30 2911 O 275.072 0.33495 1.98595 0
M  V30 2912 C 272.137 0.901637 3.34771 0
M  V30 2913 C 271.198 2.06979 3.76109 0
M  V30 2914 C 270.431 1.78529 5.02954 0
M  V30 2915 O 270.654 0.717296 5.65872 0
M  V30 2916 O 269.588 2.64019 5.40905 0
M  V30 2917 H 273.414 2.15753 2.13739 0
M  V30 2918 H 270.999 1.10658 1.00375 0
M  V30 2919 H 272.881 0.750645 4.1466 0
M  V30 2920 H 271.556 -0.0256141 3.2369 0
M  V30 2921 H 270.463 2.27616 2.96887 0
M  V30 2922 H 271.796 2.97907 3.91807 0
M  V30 2923 N 273.449 -1.08991 1.13837 0
M  V30 2924 C 274.379 -2.17771 0.842507 0
M  V30 2925 C 275.36 -1.6892 -0.20001 0
M  V30 2926 O 276.545 -1.94113 -0.0579731 0
M  V30 2927 C 273.675 -3.4589 0.312644 0
M  V30 2928 C 272.629 -4.08099 1.28992 0
M  V30 2929 C 271.955 -5.31098 0.619623 0
M  V30 2930 C 273.255 -4.50077 2.65005 0
M  V30 2931 H 274.949 -2.42777 1.75213 0
M  V30 2932 H 272.495 -1.16682 0.843875 0
M  V30 2933 H 274.448 -4.21297 0.0933043 0
M  V30 2934 H 273.172 -3.20419 -0.632382 0
M  V30 2935 H 271.831 -3.34717 1.49533 0
M  V30 2936 H 271.479 -5.0191 -0.33102 0
M  V30 2937 H 271.179 -5.73674 1.27167 0
M  V30 2938 H 272.703 -6.09224 0.409669 0
M  V30 2939 H 274.117 -5.16688 2.48407 0
M  V30 2940 H 272.514 -5.03553 3.26427 0
M  V30 2941 H 273.584 -3.62257 3.22332 0
M  V30 2942 N 274.927 -0.932562 -1.27047 0
M  V30 2943 C 275.837 -0.441219 -2.30414 0
M  V30 2944 C 276.853 0.480525 -1.67233 0
M  V30 2945 O 278.029 0.362151 -1.98117 0
M  V30 2946 C 275.094 0.293651 -3.45454 0
M  V30 2947 C 274.155 -0.663601 -4.2414 0
M  V30 2948 C 273.388 0.0362932 -5.33688 0
M  V30 2949 O 273.611 1.2548 -5.56427 0
M  V30 2950 O 272.545 -0.638015 -5.98509 0
M  V30 2951 H 276.371 -1.29962 -2.74488 0
M  V30 2952 H 273.956 -0.6981 -1.32087 0
M  V30 2953 H 275.838 0.707951 -4.15411 0
M  V30 2954 H 274.513 1.12758 -3.03426 0
M  V30 2955 H 273.42 -1.12768 -3.56699 0
M  V30 2956 H 274.753 -1.46489 -4.69896 0
M  V30 2957 N 276.405 1.4127 -0.698611 0
M  V30 2958 C 277.652 2.0118 -0.230865 0
M  V30 2959 C 277.98 1.55338 1.17049 0
M  V30 2960 O 277.235 0.756775 1.80475 0
M  V30 2961 C 277.534 3.56592 -0.240192 0
M  V30 2962 C 277.2 4.21955 -1.58948 0
M  V30 2963 C 275.862 4.39524 -1.95887 0
M  V30 2964 C 278.214 4.58576 -2.47704 0
M  V30 2965 C 275.542 4.90992 -3.2116 0
M  V30 2966 C 277.894 5.11435 -3.72313 0
M  V30 2967 C 276.558 5.27215 -4.0939 0
M  V30 2968 H 275.828 0.736169 -0.0844796 0
M  V30 2969 H 278.475 1.69124 -0.8983 0
M  V30 2970 H 276.78 3.88456 0.510797 0
M  V30 2971 H 278.477 4.00758 0.139296 0
M  V30 2972 H 275.067 4.08657 -1.29219 0
M  V30 2973 H 279.251 4.44654 -2.20445 0
M  V30 2974 H 274.507 5.01393 -3.49878 0
M  V30 2975 H 278.681 5.38752 -4.4127 0
M  V30 2976 H 276.308 5.66859 -5.06533 0
M  V30 2977 N 277.883 0.443576 1.51229 0
M  V30 2978 C 279.132 -0.122332 2.01329 0
M  V30 2979 C 279.445 -1.43237 1.33201 0
M  V30 2980 O 280.651 -2.0816 1.74304 0
M  V30 2981 C 279.107 -0.268551 3.58897 0
M  V30 2982 C 278.715 1.03142 4.35965 0
M  V30 2983 C 280.459 -0.787894 4.17124 0
M  V30 2984 C 278.366 0.850504 5.85252 0
M  V30 2985 H 277.296 -0.0494929 0.752374 0
M  V30 2986 H 279.947 0.574289 1.74282 0
M  V30 2987 H 278.329 -1.02832 3.82415 0
M  V30 2988 H 279.503 1.80001 4.24189 0
M  V30 2989 H 277.818 1.47977 3.89219 0
M  V30 2990 H 280.415 -0.939841 5.26375 0
M  V30 2991 H 280.758 -1.77201 3.76703 0
M  V30 2992 H 281.291 -0.0862669 3.97706 0
M  V30 2993 H 278.03 1.80718 6.30096 0
M  V30 2994 H 277.55 0.121825 5.99676 0
M  V30 2995 H 279.229 0.506163 6.45017 0
M  V30 2996 N 279.361 -1.56624 0.175154 0
M  V30 2997 C 280.324 -2.16934 -0.739738 0
M  V30 2998 C 281.324 -1.11842 -1.15533 0
M  V30 2999 O 282.514 -1.37335 -1.07167 0
M  V30 3000 C 279.646 -2.75531 -2.00738 0
M  V30 3001 H 280.839 -2.99131 -0.214639 0
M  V30 3002 H 278.392 -1.56123 -0.0744197 0
M  V30 3003 H 279.127 -1.97078 -2.57548 0
M  V30 3004 H 278.912 -3.52444 -1.71831 0
M  V30 3005 H 280.402 -3.21904 -2.66021 0
M  V30 3006 N 280.839 0.0985539 -1.57292 0
M  V30 3007 C 282.116 0.834155 -1.76921 0
M  V30 3008 C 282.496 1.97101 -0.755928 0
M  V30 3009 O 281.844 2.27474 0.216245 0
M  V30 3010 C 282.054 1.33194 -3.22584 0
M  V30 3011 C 283.402 1.77611 -3.85668 0
M  V30 3012 O 284.426 1.42825 -3.26312 0
M  V30 3013 O 283.285 2.4192 -4.90038 0
M  V30 3014 H 280.379 0.397628 -0.725135 0
M  V30 3015 H 282.925 0.0807044 -1.69508 0
M  V30 3016 H 281.697 0.517248 -3.87866 0
M  V30 3017 H 281.32 2.1475 -3.34616 0
M  V30 3018 N 282.317 1.53212 0.369288 0
M  V30 3019 C 283.566 1.68436 1.10961 0
M  V30 3020 C 283.879 0.440738 1.9057 0
M  V30 3021 O 285.085 0.473446 2.6734 0
M  V30 3022 C 283.541 2.97744 2.0218 0
M  V30 3023 C 283.149 4.29355 1.279 0
M  V30 3024 C 284.893 3.22334 2.76226 0
M  V30 3025 C 282.8 5.49755 2.17999 0
M  V30 3026 H 281.73 0.627568 0.41794 0
M  V30 3027 H 284.381 1.79713 0.370884 0
M  V30 3028 H 282.763 2.8026 2.79768 0
M  V30 3029 H 283.937 4.57458 0.554007 0
M  V30 3030 H 282.252 4.11179 0.657311 0
M  V30 3031 H 284.849 4.09471 3.43857 0
M  V30 3032 H 285.192 2.38238 3.41392 0
M  V30 3033 H 285.725 3.40475 2.05723 0
M  V30 3034 H 282.464 6.36318 1.57417 0
M  V30 3035 H 281.984 5.25937 2.88359 0
M  V30 3036 H 283.663 5.84401 2.77641 0
M  V30 3037 N 283.795 -0.628877 1.44509 0
M  V30 3038 C 284.725 -1.75187 1.54376 0
M  V30 3039 C 285.706 -1.65411 0.396618 0
M  V30 3040 O 286.891 -1.84137 0.617031 0
M  V30 3041 C 284.021 -3.13725 1.48976 0
M  V30 3042 C 282.975 -3.38291 2.62189 0
M  V30 3043 C 282.301 -4.76883 2.41841 0
M  V30 3044 C 283.601 -3.30632 4.04326 0
M  V30 3045 H 285.295 -1.67187 2.48373 0
M  V30 3046 H 282.841 -0.802909 1.19538 0
M  V30 3047 H 284.794 -3.92064 1.54478 0
M  V30 3048 H 283.518 -3.22515 0.514961 0
M  V30 3049 H 282.177 -2.62334 2.56079 0
M  V30 3050 H 281.825 -4.82378 1.42548 0
M  V30 3051 H 281.525 -4.94278 3.17747 0
M  V30 3052 H 283.049 -5.57449 2.49165 0
M  V30 3053 H 284.463 -3.98873 4.11793 0
M  V30 3054 H 282.86 -3.59561 4.80454 0
M  V30 3055 H 283.93 -2.28404 4.27738 0
M  V30 3056 N 285.273 -1.31445 -0.869486 0
M  V30 3057 C 286.221 -1.19067 -1.99814 0
M  V30 3058 C 287.215 -0.0988569 -1.69111 0
M  V30 3059 O 288.421 -0.260781 -1.78101 0
M  V30 3060 H 284.796 -0.368677 -0.655425 0
M  V30 3061 H 286.767 -2.14555 -2.07385 0
M  V30 3062 C 285.516 -0.915323 -3.35436 0
M  V30 3063 H 284.839 -1.74759 -3.59582 0
M  V30 3064 H 286.279 -0.868895 -4.15001 0
M  V30 3065 C 284.738 0.381928 -3.34728 0
M  V30 3066 O 285.268 1.39857 -3.76567 0
M  V30 3067 N 283.474 0.398633 -2.87853 0
M  V30 3068 H 283.021 -0.429186 -2.54 0
M  V30 3069 H 282.979 1.26651 -2.87762 0
M  V30 3070 N 286.751 1.08385 -1.14413 0
M  V30 3071 C 287.683 2.1519 -0.789036 0
M  V30 3072 C 288.696 1.61638 0.19417 0
M  V30 3073 O 289.885 1.78479 -0.0275711 0
M  V30 3074 C 286.985 3.38565 -0.15058 0
M  V30 3075 C 286.158 4.21501 -1.16857 0
M  V30 3076 C 285.217 5.23277 -0.553832 0
M  V30 3077 O 284.243 5.56041 -1.21686 0
M  V30 3078 N 285.445 5.76629 0.669296 0
M  V30 3079 H 288.21 2.46257 -1.70814 0
M  V30 3080 H 285.771 1.24198 -1.03858 0
M  V30 3081 H 287.763 4.03777 0.273181 0
M  V30 3082 H 286.333 3.05299 0.671667 0
M  V30 3083 H 285.553 3.52265 -1.76926 0
M  V30 3084 H 286.841 4.73731 -1.85624 0
M  V30 3085 H 286.239 5.52243 1.22654 0
M  V30 3086 H 284.796 6.43521 1.03556 0
M  V30 3087 N 288.23 0.939286 1.26551 0
M  V30 3088 C 289.507 0.5038 1.89001 0
M  V30 3089 C 289.887 -1.01854 1.84903 0
M  V30 3090 O 289.235 -1.87773 1.30206 0
M  V30 3091 C 289.445 1.063 3.32417 0
M  V30 3092 C 290.793 1.13051 4.09273 0
M  V30 3093 O 291.817 1.01345 3.41479 0
M  V30 3094 O 290.676 1.31233 5.30509 0
M  V30 3095 H 287.77 0.163897 0.810597 0
M  V30 3096 H 290.316 1.03173 1.34735 0
M  V30 3097 H 289.088 2.10665 3.29752 0
M  V30 3098 H 288.711 0.517408 3.94219 0
M  V30 3099 N 289.708 -1.40897 0.706093 0
M  V30 3100 C 290.671 -2.29131 0.0562841 0
M  V30 3101 C 291.671 -1.44901 -0.697166 0
M  V30 3102 O 292.861 -1.65926 -0.530484 0
M  V30 3103 C 289.993 -3.27957 -0.93043 0
M  V30 3104 H 291.186 -2.88091 0.833284 0
M  V30 3105 H 288.739 -1.4906 0.470192 0
M  V30 3106 H 289.474 -2.73997 -1.73482 0
M  V30 3107 H 289.259 -3.90124 -0.393166 0
M  V30 3108 H 290.749 -3.94049 -1.38256 0
M  V30 3109 N 291.186 -0.45159 -1.50991 0
M  V30 3110 C 292.133 0.352625 -2.2809 0
M  V30 3111 C 293.103 1.0044 -1.32291 0
M  V30 3112 O 294.288 1.02058 -1.6121 0
M  V30 3113 C 291.428 1.43983 -3.13629 0
M  V30 3114 C 290.541 0.804772 -4.24438 0
M  V30 3115 C 289.676 1.86822 -4.97263 0
M  V30 3116 C 288.715 1.21236 -5.99973 0
M  V30 3117 N 287.852 2.2178 -6.66152 0
M  V30 3118 H 292.692 -0.311186 -2.96371 0
M  V30 3119 H 290.229 -0.165308 -1.46168 0
M  V30 3120 H 292.187 2.08161 -3.61559 0
M  V30 3121 H 290.817 2.07307 -2.47434 0
M  V30 3122 H 289.869 0.0509129 -3.80366 0
M  V30 3123 H 291.181 0.286076 -4.97979 0
M  V30 3124 H 290.335 2.58628 -5.48813 0
M  V30 3125 H 289.074 2.42068 -4.23385 0
M  V30 3126 H 288.079 0.479828 -5.47702 0
M  V30 3127 H 289.304 0.667051 -6.75816 0
M  V30 3128 H 287.25 2.76079 -5.95077 0
M  V30 3129 H 287.167 1.74841 -7.35504 0
M  V30 3130 H 288.435 2.93026 -7.22327 0
M  V30 3131 N 292.664 1.56529 -0.183458 0
M  V30 3132 C 293.612 2.19873 0.758845 0
M  V30 3133 C 294.606 1.16638 1.22849 0
M  V30 3134 O 295.812 1.3481 1.19274 0
M  V30 3135 H 292.187 0.7045 0.263029 0
M  V30 3136 H 294.158 2.97724 0.200755 0
M  V30 3137 C 292.907 2.86314 1.9728 0
M  V30 3138 H 292.23 3.65487 1.62047 0
M  V30 3139 H 293.67 3.3409 2.61075 0
M  V30 3140 C 292.129 1.86729 2.80418 0
M  V30 3141 O 292.659 1.36031 3.77966 0
M  V30 3142 N 290.865 1.55216 2.45675 0
M  V30 3143 H 290.412 1.96636 1.66409 0
M  V30 3144 H 290.37 0.888388 3.01588 0
M  V30 3145 N 294.142 -0.090211 1.57342 0
M  V30 3146 C 295.372 -0.805055 1.90269 0
M  V30 3147 C 295.78 -1.72561 0.775842 0
M  V30 3148 O 295.123 -1.81839 -0.260843 0
M  V30 3149 C 295.185 -1.66734 3.18497 0
M  V30 3150 C 294.849 -0.918092 4.47683 0
M  V30 3151 C 295.846 -0.245674 5.19319 0
M  V30 3152 C 293.531 -0.890724 4.94339 0
M  V30 3153 C 295.525 0.444088 6.35851 0
M  V30 3154 C 293.212 -0.197179 6.10782 0
M  V30 3155 C 294.21 0.469044 6.81388 0
M  V30 3156 O 293.898 1.15146 7.95611 0
M  V30 3157 H 293.63 -0.235143 0.633785 0
M  V30 3158 H 296.184 -0.0703805 2.05279 0
M  V30 3159 H 294.414 -2.44437 2.99646 0
M  V30 3160 H 296.103 -2.25919 3.37217 0
M  V30 3161 H 296.869 -0.258246 4.84312 0
M  V30 3162 H 292.748 -1.39873 4.39268 0
M  V30 3163 H 296.292 0.964667 6.90898 0
M  V30 3164 H 292.189 -0.18247 6.45242 0
M  V30 3165 H 292.957 1.05885 8.11622 0
M  V30 3166 N 295.62 -1.53406 -0.361157 0
M  V30 3167 C 296.57 -1.76536 -1.44287 0
M  V30 3168 C 297.554 -0.620019 -1.48474 0
M  V30 3169 O 298.746 -0.878834 -1.53641 0
M  V30 3170 C 295.875 -1.96266 -2.81664 0
M  V30 3171 C 294.961 -3.16815 -2.81938 0
M  V30 3172 N 295.352 -4.38637 -2.51855 0
M  V30 3173 C 293.65 -3.17627 -3.13096 0
M  V30 3174 C 294.351 -5.20401 -2.59919 0
M  V30 3175 N 293.327 -4.56712 -2.94814 0
M  V30 3176 H 297.129 -2.68331 -1.19899 0
M  V30 3177 H 294.643 -1.52091 -0.56938 0
M  V30 3178 H 296.64 -2.10966 -3.59582 0
M  V30 3179 H 295.3 -1.05702 -3.07013 0
M  V30 3180 H 296.311 -4.66293 -2.25369 0
M  V30 3181 H 292.988 -2.36971 -3.43731 0
M  V30 3182 H 294.378 -6.27586 -2.39969 0
M  V30 3183 N 297.098 0.621204 -1.44841 0
M  V30 3184 C 298.061 1.71459 -1.521 0
M  V30 3185 C 299.061 1.55696 -0.401933 0
M  V30 3186 O 300.251 1.61011 -0.664925 0
M  V30 3187 C 297.383 3.10624 -1.40447 0
M  V30 3188 H 298.576 1.66394 -2.49506 0
M  V30 3189 H 296.129 0.835745 -1.3208 0
M  V30 3190 H 296.864 3.21277 -0.441737 0
M  V30 3191 H 296.649 3.23473 -2.21602 0
M  V30 3192 H 298.139 3.90293 -1.4853 0
M  V30 3193 N 298.576 1.31904 0.862503 0
M  V30 3194 C 299.822 1.23207 1.61838 0
M  V30 3195 C 300.177 -0.206062 1.91293 0
M  V30 3196 O 299.47 -1.14162 1.53875 0
M  V30 3197 C 299.664 2.01713 2.95037 0
M  V30 3198 C 299.493 3.53014 2.78588 0
M  V30 3199 C 298.263 4.22359 2.77382 0
M  V30 3200 C 300.461 4.47819 2.52909 0
M  V30 3201 N 298.443 5.59766 2.52062 0
M  V30 3202 C 299.814 5.72947 2.36922 0
M  V30 3203 C 301.869 4.37162 2.38314 0
M  V30 3204 C 300.572 6.88623 2.07823 0
M  V30 3205 C 302.598 5.5263 2.10604 0
M  V30 3206 C 301.96 6.76752 1.95411 0
M  V30 3207 H 298.059 0.505984 0.596242 0
M  V30 3208 H 300.643 1.66179 1.01452 0
M  V30 3209 H 298.814 1.61098 3.53415 0
M  V30 3210 H 300.546 1.84975 3.59953 0
M  V30 3211 H 297.301 3.74401 2.90036 0
M  V30 3212 H 297.725 6.32135 2.42352 0
M  V30 3213 H 302.367 3.41857 2.48784 0
M  V30 3214 H 300.085 7.83948 1.9609 0
M  V30 3215 H 303.671 5.46307 2.00101 0
M  V30 3216 H 302.551 7.6459 1.74274 0
M  V30 3217 N 300.054 -1.07777 1.14986 0
M  V30 3218 C 300.986 -2.14769 0.800436 0
M  V30 3219 C 301.999 -1.61739 -0.185595 0
M  V30 3220 O 303.188 -1.78462 0.0370358 0
M  V30 3221 C 300.288 -3.38481 0.168533 0
M  V30 3222 C 299.461 -4.20876 1.1909 0
M  V30 3223 C 298.52 -5.22976 0.581575 0
M  V30 3224 O 297.546 -5.55388 1.24633 0
M  V30 3225 N 298.748 -5.76976 -0.638706 0
M  V30 3226 H 301.513 -2.45348 1.72118 0
M  V30 3227 H 299.074 -1.23645 1.04515 0
M  V30 3228 H 301.066 -4.03916 -0.251764 0
M  V30 3229 H 299.636 -3.05651 -0.655467 0
M  V30 3230 H 298.856 -3.51322 1.78791 0
M  V30 3231 H 300.144 -4.7274 1.88133 0
M  V30 3232 H 299.542 -5.52886 -1.19723 0
M  V30 3233 H 298.099 -6.44061 -1.00142 0
M  V30 3234 N 301.532 -0.945985 -1.26051 0
M  V30 3235 C 302.482 -0.430164 -2.23905 0
M  V30 3236 C 303.466 0.47579 -1.53704 0
M  V30 3237 O 304.658 0.310252 -1.7426 0
M  V30 3238 C 301.787 0.298957 -3.41996 0
M  V30 3239 C 300.873 -0.624566 -4.19476 0
M  V30 3240 N 301.264 -1.75245 -4.74471 0
M  V30 3241 C 299.562 -0.431082 -4.43912 0
M  V30 3242 C 300.263 -2.32834 -5.3307 0
M  V30 3243 N 299.239 -1.61583 -5.1903 0
M  V30 3244 H 303.041 -1.29107 -2.64024 0
M  V30 3245 H 300.555 -0.802428 -1.41191 0
M  V30 3246 H 302.552 0.685565 -4.11225 0
M  V30 3247 H 301.212 1.15657 -3.03403 0
M  V30 3248 H 302.223 -2.13449 -4.71868 0
M  V30 3249 H 298.9 0.384364 -4.15727 0
M  V30 3250 H 300.29 -3.27893 -5.86461 0
M  V30 3251 N 303.011 1.40521 -0.713556 0
M  V30 3252 C 304.427 1.54839 -0.386907 0
M  V30 3253 C 304.627 1.68532 1.1045 0
M  V30 3254 O 303.683 1.67377 1.89053 0
M  V30 3255 C 304.996 2.77792 -1.15118 0
M  V30 3256 C 306.544 2.91607 -1.13729 0
M  V30 3257 C 307.019 4.1747 -1.88368 0
M  V30 3258 N 308.51 4.24466 -1.85427 0
M  V30 3259 C 309.245 5.20755 -2.40004 0
M  V30 3260 N 308.741 6.22965 -3.03129 0
M  V30 3261 N 310.534 5.1282 -2.30158 0
M  V30 3262 H 302.685 1.29879 -1.68063 0
M  V30 3263 H 304.948 0.627896 -0.710247 0
M  V30 3264 H 304.654 2.73944 -2.20561 0
M  V30 3265 H 304.528 3.6984 -0.741477 0
M  V30 3266 H 306.915 2.94959 -0.0910608 0
M  V30 3267 H 306.996 2.00682 -1.5862 0
M  V30 3268 H 306.64 4.1488 -2.9298 0
M  V30 3269 H 306.57 5.074 -1.40898 0
M  V30 3270 H 309.061 3.51241 -1.3942 0
M  V30 3271 H 309.374 6.92859 -3.42295 0
M  V30 3272 H 307.719 6.23415 -3.07212 0
M  V30 3273 H 310.91 4.31899 -1.80501 0
M  V30 3274 H 311.083 5.87689 -2.72993 0
M  V30 3275 N 304.489 0.459591 1.5075 0
M  V30 3276 C 305.421 -0.37665 2.26084 0
M  V30 3277 C 306.434 -0.967109 1.30961 0
M  V30 3278 O 307.623 -0.857468 1.56556 0
M  V30 3279 C 304.723 -1.54112 3.01832 0
M  V30 3280 C 303.896 -1.06553 4.24223 0
M  V30 3281 C 302.955 -2.1027 4.82362 0
M  V30 3282 O 301.981 -1.68798 5.43595 0
M  V30 3283 N 303.183 -3.42974 4.68347 0
M  V30 3284 H 305.948 0.269124 2.98489 0
M  V30 3285 H 303.509 0.28972 1.59287 0
M  V30 3286 H 305.501 -2.23165 3.37608 0
M  V30 3287 H 304.071 -2.0918 2.32298 0
M  V30 3288 H 303.291 -0.201274 3.93686 0
M  V30 3289 H 304.579 -0.725516 5.03601 0
M  V30 3290 H 303.977 -3.79385 4.19623 0
M  V30 3291 H 302.534 -4.07858 5.08424 0
M  V30 3292 N 305.967 -1.56429 0.191757 0
M  V30 3293 C 307.213 -1.98541 -0.441943 0
M  V30 3294 C 307.568 -1.07646 -1.59468 0
M  V30 3295 O 306.861 -0.120191 -1.91223 0
M  V30 3296 C 307.055 -3.44449 -0.953384 0
M  V30 3297 C 306.884 -4.49456 0.148262 0
M  V30 3298 C 305.654 -5.01668 0.604781 0
M  V30 3299 C 307.852 -5.05336 0.95602 0
M  V30 3300 N 305.834 -5.90334 1.6846 0
M  V30 3301 C 307.205 -5.9064 1.88531 0
M  V30 3302 C 309.26 -4.87779 0.998811 0
M  V30 3303 C 307.963 -6.60264 2.85383 0
M  V30 3304 C 309.989 -5.58139 1.95537 0
M  V30 3305 C 309.351 -6.43187 2.8721 0
M  V30 3306 H 305.45 -0.771247 -0.129236 0
M  V30 3307 H 308.034 -1.92426 0.296682 0
M  V30 3308 H 306.205 -3.5107 -1.66146 0
M  V30 3309 H 307.937 -3.73533 -1.55741 0
M  V30 3310 H 304.692 -4.73183 0.198736 0
M  V30 3311 H 305.116 -6.39371 2.22561 0
M  V30 3312 H 309.758 -4.21705 0.304048 0
M  V30 3313 H 307.476 -7.25538 3.55837 0
M  V30 3314 H 311.062 -5.46532 1.99484 0
M  V30 3315 H 309.942 -6.96674 3.60022 0
M  V30 3316 N 307.445 0.0818655 -1.57387 0
M  V30 3317 C 308.691 0.784074 -1.8703 0
M  V30 3318 C 309.024 1.77729 -0.782689 0
M  V30 3319 O 308.299 1.93384 0.208051 0
M  V30 3320 C 308.582 1.50105 -3.27323 0
M  V30 3321 C 308.435 0.524925 -4.46727 0
M  V30 3322 C 309.754 2.44843 -3.65705 0
M  V30 3323 H 306.873 0.283582 -0.680257 0
M  V30 3324 H 309.515 0.0474352 -1.89941 0
M  V30 3325 H 307.665 2.12897 -3.24972 0
M  V30 3326 H 309.337 -0.0970111 -4.61198 0
M  V30 3327 H 307.58 -0.160606 -4.33503 0
M  V30 3328 H 308.251 1.064 -5.41648 0
M  V30 3329 H 310.727 1.92135 -3.69085 0
M  V30 3330 H 309.603 2.92018 -4.64776 0
M  V30 3331 H 309.864 3.29197 -2.95096 0
M  V30 3332 N 308.923 1.53595 0.353017 0
M  V30 3333 C 310.172 1.69603 1.09168 0
M  V30 3334 C 310.485 0.460925 1.90092 0
M  V30 3335 O 311.691 0.501774 2.66823 0
M  V30 3336 C 310.147 2.99872 1.9901 0
M  V30 3337 C 309.755 4.30687 1.23339 0
M  V30 3338 C 311.499 3.25246 2.72792 0
M  V30 3339 C 309.406 5.52036 2.12156 0
M  V30 3340 H 308.336 0.631966 0.411261 0
M  V30 3341 H 310.987 1.80096 0.351802 0
M  V30 3342 H 309.369 2.83212 2.7678 0
M  V30 3343 H 310.543 4.58019 0.505456 0
M  V30 3344 H 308.858 4.11853 0.613663 0
M  V30 3345 H 311.455 4.13095 3.39495 0
M  V30 3346 H 311.798 2.41846 3.38846 0
M  V30 3347 H 312.331 3.42638 2.021 0
M  V30 3348 H 309.07 6.37951 1.50659 0
M  V30 3349 H 308.59 5.28966 2.82764 0
M  V30 3350 H 310.269 5.87313 2.71427 0
M  V30 3351 N 310.401 -0.613514 1.45168 0
M  V30 3352 C 311.333 -1.73825 1.4939 0
M  V30 3353 C 312.346 -1.58175 0.385304 0
M  V30 3354 O 313.535 -1.66165 0.652036 0
M  V30 3355 C 310.635 -3.11758 1.32891 0
M  V30 3356 C 309.808 -3.53704 2.57317 0
M  V30 3357 C 308.867 -4.70579 2.35462 0
M  V30 3358 O 307.893 -4.77996 3.09044 0
M  V30 3359 N 309.095 -5.63454 1.39644 0
M  V30 3360 H 311.86 -1.70669 2.46358 0
M  V30 3361 H 309.421 -0.79862 1.40832 0
M  V30 3362 H 311.413 -3.87692 1.1609 0
M  V30 3363 H 309.983 -3.09456 0.442218 0
M  V30 3364 H 309.203 -2.67794 2.89275 0
M  V30 3365 H 310.491 -3.78486 3.40038 0
M  V30 3366 H 309.889 -5.6017 0.789062 0
M  V30 3367 H 308.446 -6.38944 1.28816 0
M  V30 3368 N 311.879 -1.3236 -0.855495 0
M  V30 3369 C 312.789 -1.23221 -1.99634 0
M  V30 3370 C 313.805 -0.145983 -1.73387 0
M  V30 3371 O 314.981 -0.366502 -1.98037 0
M  V30 3372 C 312.046 -0.954782 -3.33294 0
M  V30 3373 C 311.107 -2.12937 -3.72769 0
M  V30 3374 C 310.34 -1.86508 -5.00051 0
M  V30 3375 O 310.563 -0.807231 -5.64659 0
M  V30 3376 O 309.497 -2.72591 -5.36636 0
M  V30 3377 H 313.323 -2.19126 -2.1028 0
M  V30 3378 H 310.908 -1.12241 -0.986018 0
M  V30 3379 H 312.79 -0.816519 -4.13414 0
M  V30 3380 H 311.465 -0.0258854 -3.2369 0
M  V30 3381 H 310.372 -2.3231 -2.93228 0
M  V30 3382 H 311.705 -3.04102 -3.87018 0
M  V30 3383 N 313.357 1.07166 -1.15556 0
M  V30 3384 C 314.604 1.79798 -0.931604 0
M  V30 3385 C 314.932 1.8682 0.54115 0
M  V30 3386 O 314.187 1.34942 1.41736 0
M  V30 3387 C 314.486 3.24707 -1.49332 0
M  V30 3388 C 314.152 3.37781 -2.98688 0
M  V30 3389 C 312.814 3.41057 -3.39461 0
M  V30 3390 C 315.166 3.40424 -3.94665 0
M  V30 3391 C 312.494 3.4458 -4.74849 0
M  V30 3392 C 314.846 3.45485 -5.29927 0
M  V30 3393 C 313.51 3.47039 -5.70193 0
M  V30 3394 H 312.78 0.657928 -0.340898 0
M  V30 3395 H 315.427 1.26091 -1.44129 0
M  V30 3396 H 313.732 3.81208 -0.904859 0
M  V30 3397 H 315.429 3.79486 -1.29582 0
M  V30 3398 H 312.019 3.35932 -2.66172 0
M  V30 3399 H 316.203 3.37113 -3.64237 0
M  V30 3400 H 311.459 3.44083 -5.05388 0
M  V30 3401 H 315.633 3.46476 -6.04092 0
M  V30 3402 H 313.26 3.49522 -6.75084 0
M  V30 3403 N 314.835 0.952656 1.25548 0
M  V30 3404 C 315.782 0.47008 2.25962 0
M  V30 3405 C 316.752 -0.476384 1.59122 0
M  V30 3406 O 317.937 -0.39007 1.8677 0
M  V30 3407 C 315.077 -0.247881 3.44209 0
M  V30 3408 C 314.19 0.735591 4.25691 0
M  V30 3409 C 313.325 -0.0047306 5.312 0
M  V30 3410 C 312.364 0.969805 6.04368 0
M  V30 3411 N 311.501 0.260486 7.01617 0
M  V30 3412 H 316.341 1.33126 2.66611 0
M  V30 3413 H 313.878 0.66765 1.31076 0
M  V30 3414 H 315.836 -0.680695 4.1161 0
M  V30 3415 H 314.466 -1.07312 3.0444 0
M  V30 3416 H 313.518 1.28689 3.57971 0
M  V30 3417 H 314.83 1.47934 4.76358 0
M  V30 3418 H 313.984 -0.496275 6.04667 0
M  V30 3419 H 312.723 -0.781282 4.81401 0
M  V30 3420 H 311.728 1.47237 5.29718 0
M  V30 3421 H 312.953 1.74655 6.56256 0
M  V30 3422 H 310.899 -0.497364 6.54112 0
M  V30 3423 H 310.816 0.943362 7.50091 0
M  V30 3424 H 312.084 -0.209587 7.79218 0
M  V30 3425 N 316.313 -1.40141 0.720998 0
M  V30 3426 C 317.243 -2.33339 0.0867621 0
M  V30 3427 C 318.224 -1.53178 -0.739622 0
M  V30 3428 O 319.409 -1.81625 -0.687449 0
M  V30 3429 C 316.539 -3.37194 -0.831728 0
M  V30 3430 C 315.493 -4.27857 -0.110558 0
M  V30 3431 C 314.819 -5.22294 -1.14513 0
M  V30 3432 C 316.119 -5.11872 1.0385 0
M  V30 3433 H 317.813 -2.86626 0.865219 0
M  V30 3434 H 315.359 -1.37814 0.417516 0
M  V30 3435 H 317.312 -4.01335 -1.28485 0
M  V30 3436 H 316.036 -2.82314 -1.64214 0
M  V30 3437 H 314.695 -3.65176 0.322797 0
M  V30 3438 H 314.343 -4.63717 -1.94874 0
M  V30 3439 H 314.043 -5.83797 -0.667446 0
M  V30 3440 H 315.567 -5.89312 -1.59824 0
M  V30 3441 H 316.981 -5.69436 0.664482 0
M  V30 3442 H 315.378 -5.82445 1.4449 0
M  V30 3443 H 316.448 -4.4753 1.86668 0
M  V30 3444 N 317.792 -0.46758 -1.50504 0
M  V30 3445 C 319.038 0.0808869 -2.03239 0
M  V30 3446 C 319.393 1.37721 -1.34353 0
M  V30 3447 O 318.686 1.86016 -0.459194 0
M  V30 3448 C 318.88 0.323995 -3.55928 0
M  V30 3449 C 318.709 -0.947215 -4.39611 0
M  V30 3450 C 317.479 -1.48951 -4.82848 0
M  V30 3451 C 319.677 -1.84166 -4.80195 0
M  V30 3452 N 317.659 -2.71011 -5.50842 0
M  V30 3453 C 319.03 -2.90815 -5.47564 0
M  V30 3454 C 321.085 -1.85246 -4.62156 0
M  V30 3455 C 319.788 -3.98529 -5.98805 0
M  V30 3456 C 321.814 -2.91914 -5.14335 0
M  V30 3457 C 321.176 -3.97282 -5.81676 0
M  V30 3458 H 317.275 -0.0103394 -0.781932 0
M  V30 3459 H 319.859 -0.635003 -1.84054 0
M  V30 3460 H 318.03 1.00892 -3.75067 0
M  V30 3461 H 319.762 0.866492 -3.95315 0
M  V30 3462 H 316.517 -1.03918 -4.62058 0
M  V30 3463 H 316.941 -3.32988 -5.89447 0
M  V30 3464 H 321.583 -1.05103 -4.09528 0
M  V30 3465 H 319.301 -4.79491 -6.50472 0
M  V30 3466 H 322.887 -2.93729 -5.0221 0
M  V30 3467 H 321.767 -4.78462 -6.21324 0
M  V30 3468 N 319.27 1.56325 -0.20005 0
M  V30 3469 C 320.547 1.89484 0.48529 0
M  V30 3470 C 320.927 1.1143 1.79294 0
M  V30 3471 O 320.275 0.216919 2.27468 0
M  V30 3472 C 320.485 3.41923 0.699243 0
M  V30 3473 C 321.833 4.12256 1.01638 0
M  V30 3474 O 322.857 3.47402 0.786792 0
M  V30 3475 O 321.716 5.26887 1.45095 0
M  V30 3476 H 318.81 0.787144 0.253639 0
M  V30 3477 H 321.356 1.67985 -0.240633 0
M  V30 3478 H 320.128 3.90658 -0.224008 0
M  V30 3479 H 319.751 3.69131 1.47744 0
M  V30 3480 N 320.748 -0.0735177 1.57428 0
M  V30 3481 C 321.696 -1.10628 2.04607 0
M  V30 3482 C 322.69 -1.40181 0.951088 0
M  V30 3483 O 323.896 -1.39608 1.1362 0
M  V30 3484 H 320.271 -0.374088 0.652351 0
M  V30 3485 H 322.242 -0.682218 2.90497 0
M  V30 3486 C 320.991 -2.41212 2.50423 0
M  V30 3487 H 320.314 -2.19322 3.34272 0
M  V30 3488 H 321.754 -3.11927 2.87189 0
M  V30 3489 C 320.213 -3.0705 1.38644 0
M  V30 3490 O 320.743 -3.95056 0.727582 0
M  V30 3491 N 318.949 -2.67645 1.132 0
M  V30 3492 H 318.496 -1.96169 1.66959 0
M  V30 3493 H 318.454 -3.1202 0.386147 0
M  V30 3494 N 322.226 -1.5378 -0.344866 0
M  V30 3495 C 323.136 -1.84667 -1.4469 0
M  V30 3496 C 324.152 -0.736704 -1.57635 0
M  V30 3497 O 325.328 -1.02888 -1.73136 0
M  V30 3498 C 322.393 -2.04869 -2.79696 0
M  V30 3499 C 321.454 -3.28731 -2.76106 0
M  V30 3500 C 320.687 -3.4796 -4.04673 0
M  V30 3501 O 320.91 -2.71052 -5.01883 0
M  V30 3502 O 319.844 -4.41383 -4.09224 0
M  V30 3503 H 323.67 -2.78334 -1.21506 0
M  V30 3504 H 321.255 -1.39418 -0.536921 0
M  V30 3505 H 323.137 -2.19609 -3.59652 0
M  V30 3506 H 321.812 -1.14391 -3.02814 0
M  V30 3507 H 320.719 -3.19396 -1.94774 0
M  V30 3508 H 322.052 -4.19198 -2.57941 0
M  V30 3509 N 323.704 0.605807 -1.45491 0
M  V30 3510 C 324.634 1.72709 -1.57143 0
M  V30 3511 C 325.615 1.6476 -0.422884 0
M  V30 3512 O 326.8 1.83132 -0.646247 0
M  V30 3513 C 323.93 3.11316 -1.53948 0
M  V30 3514 C 322.884 3.34077 -2.67537 0
M  V30 3515 C 322.21 4.72975 -2.49397 0
M  V30 3516 C 323.51 3.24158 -4.09535 0
M  V30 3517 H 325.204 1.63214 -2.51001 0
M  V30 3518 H 322.75 0.78379 -1.208 0
M  V30 3519 H 324.703 3.89557 -1.60696 0
M  V30 3520 H 323.427 3.21655 -0.566205 0
M  V30 3521 H 322.086 2.58227 -2.6022 0
M  V30 3522 H 321.734 4.8005 -1.50205 0
M  V30 3523 H 321.434 4.8916 -3.25571 0
M  V30 3524 H 322.958 5.53414 -2.58002 0
M  V30 3525 H 324.372 3.92271 -4.18086 0
M  V30 3526 H 322.769 3.51872 -4.86113 0
M  V30 3527 H 323.839 2.2157 -4.31317 0
M  V30 3528 N 325.182 1.32811 0.848464 0
M  V30 3529 C 326.114 1.18095 1.96433 0
M  V30 3530 C 327.127 0.114354 1.62398 0
M  V30 3531 O 328.316 0.363892 1.74751 0
M  V30 3532 C 325.416 0.786798 3.2964 0
M  V30 3533 C 324.589 1.943 3.91875 0
M  V30 3534 C 323.648 1.53138 5.03423 0
M  V30 3535 O 322.674 2.24432 5.23086 0
M  V30 3536 N 323.876 0.430915 5.78898 0
M  V30 3537 H 326.641 2.14218 2.09597 0
M  V30 3538 H 324.202 1.2543 1.02367 0
M  V30 3539 H 326.194 0.493715 4.01677 0
M  V30 3540 H 324.764 -0.0834541 3.12489 0
M  V30 3541 H 323.984 2.40224 3.12547 0
M  V30 3542 H 325.272 2.71689 4.30189 0
M  V30 3543 H 324.67 -0.162333 5.65467 0
M  V30 3544 H 323.227 0.197466 6.51501 0
M  V30 3545 N 326.66 -1.06551 1.16123 0
M  V30 3546 C 327.89 -1.8274 0.963838 0
M  V30 3547 C 328.298 -1.82712 -0.491228 0
M  V30 3548 O 327.641 -1.24294 -1.35265 0
M  V30 3549 C 327.703 -3.3065 1.41106 0
M  V30 3550 C 327.367 -3.54384 2.88549 0
M  V30 3551 C 328.364 -3.4765 3.86569 0
M  V30 3552 C 326.049 -3.81789 3.26408 0
M  V30 3553 C 328.043 -3.67982 5.2045 0
M  V30 3554 C 325.73 -4.01772 4.60459 0
M  V30 3555 C 326.728 -3.94866 5.57288 0
M  V30 3556 O 326.416 -4.14306 6.88916 0
M  V30 3557 H 326.148 -0.583136 0.341948 0
M  V30 3558 H 328.702 -1.35351 1.54497 0
M  V30 3559 H 326.932 -3.78887 0.773394 0
M  V30 3560 H 328.621 -3.88324 1.1815 0
M  V30 3561 H 329.387 -3.2647 3.58667 0
M  V30 3562 H 325.266 -3.86276 2.51619 0
M  V30 3563 H 328.81 -3.62507 5.96015 0
M  V30 3564 H 324.707 -4.2244 4.88072 0
M  V30 3565 H 325.475 -4.31609 6.95454 0
M  V30 3566 N 328.138 -0.959301 -1.25041 0
M  V30 3567 C 329.384 -0.617525 -1.9317 0
M  V30 3568 C 329.717 0.843981 -1.74902 0
M  V30 3569 O 328.992 1.60615 -1.09696 0
M  V30 3570 C 329.275 -0.982736 -3.46431 0
M  V30 3571 C 329.128 -2.50032 -3.73904 0
M  V30 3572 C 330.447 -0.511176 -4.37121 0
M  V30 3573 H 327.566 -0.22582 -0.701552 0
M  V30 3574 H 330.208 -1.19679 -1.4757 0
M  V30 3575 H 328.358 -0.489806 -3.854 0
M  V30 3576 H 330.03 -3.06737 -3.44544 0
M  V30 3577 H 328.273 -2.93598 -3.19348 0
M  V30 3578 H 328.944 -2.70635 -4.81103 0
M  V30 3579 H 331.42 -0.934075 -4.0548 0
M  V30 3580 H 330.296 -0.795361 -5.43107 0
M  V30 3581 H 330.557 0.588834 -4.38161 0
M  V30 3582 N 329.616 1.39756 -0.72842 0
M  V30 3583 C 330.893 1.94574 -0.200079 0
M  V30 3584 C 331.273 1.66569 1.29684 0
M  V30 3585 O 330.621 0.990326 2.05924 0
M  V30 3586 C 330.831 3.45004 -0.526608 0
M  V30 3587 C 332.179 4.21965 -0.472318 0
M  V30 3588 O 333.203 3.53173 -0.463413 0
M  V30 3589 O 332.062 5.44552 -0.461075 0
M  V30 3590 H 329.156 0.826289 -0.0342851 0
M  V30 3591 H 331.702 1.49293 -0.806829 0
M  V30 3592 H 330.474 3.58796 -1.56144 0
M  V30 3593 H 330.097 3.97449 0.109449 0
M  V30 3594 N 331.094 0.475555 1.50254 0
M  V30 3595 C 332.026 -0.352649 2.26471 0
M  V30 3596 C 333.039 -0.953165 1.3198 0
M  V30 3597 O 334.228 -0.840815 1.57457 0
M  V30 3598 C 331.328 -1.50902 3.0345 0
M  V30 3599 C 330.501 -1.02047 4.25329 0
M  V30 3600 C 329.56 -2.05142 4.84565 0
M  V30 3601 O 328.586 -1.63023 5.45355 0
M  V30 3602 N 329.788 -3.37987 4.71959 0
M  V30 3603 H 332.553 0.300767 2.98187 0
M  V30 3604 H 330.114 0.306598 1.5897 0
M  V30 3605 H 332.106 -2.19572 3.39956 0
M  V30 3606 H 330.676 -2.06705 2.34504 0
M  V30 3607 H 329.896 -0.159507 3.93877 0
M  V30 3608 H 331.184 -0.672061 5.04342 0
M  V30 3609 H 330.582 -3.74913 4.23623 0
M  V30 3610 H 329.139 -4.02443 5.12721 0
M  V30 3611 N 332.573 -1.56217 0.208337 0
M  V30 3612 C 333.503 -2.22694 -0.702116 0
M  V30 3613 C 334.484 -1.19432 -1.2112 0
M  V30 3614 O 335.669 -1.47978 -1.25762 0
M  V30 3615 C 332.799 -2.8966 -1.9161 0
M  V30 3616 C 331.753 -3.9928 -1.5414 0
M  V30 3617 C 331.079 -4.53476 -2.83308 0
M  V30 3618 C 332.379 -5.17012 -0.741339 0
M  V30 3619 H 334.073 -2.99034 -0.147898 0
M  V30 3620 H 331.619 -1.43831 -0.0696951 0
M  V30 3621 H 333.572 -3.34852 -2.55836 0
M  V30 3622 H 332.296 -2.10746 -2.49507 0
M  V30 3623 H 330.955 -3.54799 -0.922668 0
M  V30 3624 H 330.603 -3.71308 -3.39322 0
M  V30 3625 H 330.303 -5.27451 -2.58976 0
M  V30 3626 H 331.827 -5.01378 -3.485 0
M  V30 3627 H 333.241 -5.58667 -1.28699 0
M  V30 3628 H 331.638 -5.97137 -0.595627 0
M  V30 3629 H 332.708 -4.8423 0.254851 0
M  V30 3630 N 334.051 0.0651679 -1.57465 0
M  V30 3631 C 334.981 1.07693 -2.07182 0
M  V30 3632 C 335.962 1.39962 -0.966673 0
M  V30 3633 O 337.147 1.49475 -1.2398 0
M  V30 3634 C 334.277 2.3885 -2.52127 0
M  V30 3635 C 333.231 2.20917 -3.66579 0
M  V30 3636 C 332.557 3.57515 -3.97601 0
M  V30 3637 C 333.857 1.62493 -4.9638 0
M  V30 3638 H 335.551 0.663199 -2.91962 0
M  V30 3639 H 333.097 0.317569 -1.40455 0
M  V30 3640 H 335.05 3.09928 -2.85522 0
M  V30 3641 H 333.774 2.82215 -1.64384 0
M  V30 3642 H 332.433 1.52279 -3.33477 0
M  V30 3643 H 332.081 3.98463 -3.06979 0
M  V30 3644 H 331.781 3.46353 -4.74672 0
M  V30 3645 H 333.305 4.30013 -4.33499 0
M  V30 3646 H 334.719 2.23445 -5.27963 0
M  V30 3647 H 333.116 1.62009 -5.77818 0
M  V30 3648 H 334.186 0.587041 -4.81333 0
M  V30 3649 N 335.529 1.53961 0.336706 0
M  V30 3650 C 336.476 1.82428 1.41381 0
M  V30 3651 C 337.446 0.670444 1.51968 0
M  V30 3652 O 338.631 0.915565 1.67398 0
M  V30 3653 C 335.771 2.04564 2.77934 0
M  V30 3654 C 334.884 3.32267 2.76084 0
M  V30 3655 C 334.019 3.44434 4.04399 0
M  V30 3656 C 333.058 4.66061 3.96804 0
M  V30 3657 N 332.195 4.75224 5.16823 0
M  V30 3658 H 337.035 2.74324 1.16405 0
M  V30 3659 H 334.572 1.35869 0.563752 0
M  V30 3660 H 336.53 2.15388 3.57301 0
M  V30 3661 H 335.16 1.15974 3.01247 0
M  V30 3662 H 334.212 3.3025 1.88784 0
M  V30 3663 H 335.524 4.21733 2.66351 0
M  V30 3664 H 334.678 3.54728 4.92192 0
M  V30 3665 H 333.417 2.53037 4.16921 0
M  V30 3666 H 332.422 4.55838 3.07396 0
M  V30 3667 H 333.647 5.58829 3.85858 0
M  V30 3668 H 331.593 3.86739 5.29876 0
M  V30 3669 H 331.51 5.58636 5.09374 0
M  V30 3670 H 332.778 4.89835 6.06367 0
M  V30 3671 N 337.007 -0.598083 1.45811 0
M  V30 3672 C 337.917 -1.73632 1.57763 0
M  V30 3673 C 338.933 -1.67763 0.461676 0
M  V30 3674 O 340.109 -1.87949 0.723685 0
M  V30 3675 C 337.174 -3.10114 1.55018 0
M  V30 3676 C 336.235 -3.27364 2.77726 0
M  V30 3677 C 335.468 -4.57334 2.75102 0
M  V30 3678 O 335.691 -5.40258 1.8297 0
M  V30 3679 O 334.625 -4.77502 3.66437 0
M  V30 3680 H 338.451 -1.66498 2.53992 0
M  V30 3681 H 336.036 -0.763308 1.28429 0
M  V30 3682 H 337.918 -3.9141 1.56129 0
M  V30 3683 H 336.593 -3.17718 0.619431 0
M  V30 3684 H 335.5 -2.45619 2.82174 0
M  V30 3685 H 336.833 -3.24641 3.69958 0
M  V30 3686 N 338.485 -1.33259 -0.841409 0
M  V30 3687 C 339.762 -1.15174 -1.58096 0
M  V30 3688 C 340.142 0.282858 -2.09196 0
M  V30 3689 O 339.49 1.28151 -1.89181 0
M  V30 3690 C 339.7 -2.1907 -2.71679 0
M  V30 3691 C 341.048 -2.53093 -3.40924 0
M  V30 3692 O 342.072 -2.17717 -2.81918 0
M  V30 3693 O 340.931 -3.1379 -4.47435 0
M  V30 3694 H 338.025 -0.445303 -0.696875 0
M  V30 3695 H 340.571 -1.44833 -0.884385 0
M  V30 3696 H 339.343 -3.15443 -2.31541 0
M  V30 3697 H 338.966 -1.90481 -3.49002 0
M  V30 3698 N 339.963 1.05934 -1.16686 0
M  V30 3699 C 341.209 1.79065 -0.95203 0
M  V30 3700 C 341.542 1.87147 0.518629 0
M  V30 3701 O 340.817 1.36574 1.38484 0
M  V30 3702 C 341.1 3.23359 -1.58464 0
M  V30 3703 C 340.953 3.23336 -3.12689 0
M  V30 3704 C 342.272 4.21004 -1.28232 0
M  V30 3705 H 339.391 0.65005 -0.34728 0
M  V30 3706 H 342.033 1.23868 -1.44072 0
M  V30 3707 H 340.183 3.70493 -1.16908 0
M  V30 3708 H 341.855 2.84336 -3.6325 0
M  V30 3709 H 340.098 2.61886 -3.4583 0
M  V30 3710 H 340.769 4.25144 -3.52075 0
M  V30 3711 H 343.245 3.8233 -1.64203 0
M  V30 3712 H 342.121 5.20225 -1.75092 0
M  V30 3713 H 342.382 4.41639 -0.201791 0
M  V30 3714 N 341.441 0.965919 1.2453 0
M  V30 3715 C 342.857 0.67216 1.44756 0
M  V30 3716 C 343.057 -0.766609 1.86347 0
M  V30 3717 O 342.113 -1.5407 2.00047 0
M  V30 3718 C 343.426 1.65473 2.51076 0
M  V30 3719 C 344.974 1.66716 2.64905 0
M  V30 3720 C 345.449 2.63766 3.74421 0
M  V30 3721 N 346.94 2.62198 3.81846 0
M  V30 3722 C 347.675 3.33966 4.66106 0
M  V30 3723 N 347.171 4.15245 5.54566 0
M  V30 3724 N 348.964 3.22799 4.60171 0
M  V30 3725 H 341.115 1.89553 0.958293 0
M  V30 3726 H 343.378 0.815979 0.482579 0
M  V30 3727 H 343.084 2.68296 2.27399 0
M  V30 3728 H 342.958 1.4261 3.49202 0
M  V30 3729 H 345.345 0.646057 2.87941 0
M  V30 3730 H 345.426 1.93642 1.67142 0
M  V30 3731 H 345.07 3.6601 3.52135 0
M  V30 3732 H 345 2.34121 4.71694 0
M  V30 3733 H 347.491 2.032 3.18619 0
M  V30 3734 H 347.804 4.66898 6.15814 0
M  V30 3735 H 346.149 4.1934 5.54237 0
M  V30 3736 H 349.34 2.58764 3.90075 0
M  V30 3737 H 349.513 3.78994 5.25612 0
M  V30 3738 N 342.919 -1.39368 0.735821 0
M  V30 3739 C 343.867 -2.32443 0.0855131 0
M  V30 3740 C 344.861 -1.53104 -0.724954 0
M  V30 3741 O 346.067 -1.68762 -0.626047 0
M  V30 3742 H 342.442 -0.751948 0.00885257 0
M  V30 3743 H 344.413 -2.84916 0.886883 0
M  V30 3744 C 343.162 -3.38206 -0.806983 0
M  V30 3745 H 342.485 -3.99335 -0.19274 0
M  V30 3746 H 343.925 -4.05779 -1.2296 0
M  V30 3747 C 342.384 -2.75321 -1.94165 0
M  V30 3748 O 342.914 -2.63231 -3.03435 0
M  V30 3749 N 341.12 -2.33396 -1.73132 0
M  V30 3750 H 340.667 -2.4343 -0.842596 0
M  V30 3751 H 340.625 -1.91661 -2.49225 0
M  V30 3752 N 344.397 -0.483516 -1.5 0
M  V30 3753 C 345.345 0.318061 -2.30415 0
M  V30 3754 C 346.339 0.978988 -1.38247 0
M  V30 3755 O 347.545 0.908673 -1.55381 0
M  V30 3756 H 343.92 0.121419 -0.742133 0
M  V30 3757 H 345.891 -0.380403 -2.95965 0
M  V30 3758 C 344.64 1.38013 -3.19136 0
M  V30 3759 H 343.963 0.880952 -3.89973 0
M  V30 3760 H 345.403 1.91332 -3.78375 0
M  V30 3761 C 343.862 2.38884 -2.37563 0
M  V30 3762 O 344.392 3.44412 -2.06744 0
M  V30 3763 N 342.598 2.10912 -1.99911 0
M  V30 3764 H 342.145 1.25118 -2.25174 0
M  V30 3765 H 342.103 2.78635 -1.45636 0
M  V30 3766 N 345.875 1.56104 -0.216619 0
M  V30 3767 C 347.1 2.0301 0.424462 0
M  V30 3768 C 347.525 1.0955 1.52907 0
M  V30 3769 O 346.883 0.0827914 1.81111 0
M  V30 3770 C 346.931 3.4819 0.937883 0
M  V30 3771 O 346.035 3.57865 2.04955 0
M  V30 3772 H 345.376 0.656925 0.0966755 0
M  V30 3773 H 347.906 2.01859 -0.33381 0
M  V30 3774 H 347.916 3.88413 1.24897 0
M  V30 3775 H 346.591 4.15699 0.129387 0
M  V30 3776 H 345.168 3.29527 1.74546 0
M  V30 3777 N 347.353 -0.0568162 1.57498 0
M  V30 3778 C 348.599 -0.75422 1.88253 0
M  V30 3779 C 348.932 -1.76461 0.810865 0
M  V30 3780 O 348.207 -1.93691 -0.177259 0
M  V30 3781 C 348.49 -1.44878 3.2967 0
M  V30 3782 C 348.343 -0.453789 4.47505 0
M  V30 3783 C 349.662 -2.38994 3.69554 0
M  V30 3784 H 346.781 -0.272724 0.684683 0
M  V30 3785 H 349.423 -0.0172113 1.89992 0
M  V30 3786 H 347.573 -2.077 3.28318 0
M  V30 3787 H 349.245 0.170371 4.60985 0
M  V30 3788 H 347.488 0.229552 4.33192 0
M  V30 3789 H 348.159 -0.977699 5.43273 0
M  V30 3790 H 350.635 -1.86239 3.72095 0
M  V30 3791 H 349.511 -2.84587 4.69363 0
M  V30 3792 H 349.772 -3.24461 3.00296 0
M  V30 3793 N 348.832 -1.54138 -0.328536 0
M  V30 3794 C 350.078 -1.73297 -1.06488 0
M  V30 3795 C 350.433 -0.497958 -1.85844 0
M  V30 3796 O 349.726 0.509591 -1.84699 0
M  V30 3797 C 349.92 -2.9457 -2.02393 0
M  V30 3798 C 349.749 -4.29747 -1.32467 0
M  V30 3799 C 348.519 -4.93987 -1.06324 0
M  V30 3800 C 350.717 -5.08903 -0.743137 0
M  V30 3801 N 348.699 -6.13005 -0.331359 0
M  V30 3802 C 350.07 -6.19836 -0.142602 0
M  V30 3803 C 352.125 -4.93699 -0.64546 0
M  V30 3804 C 350.828 -7.17224 0.546125 0
M  V30 3805 C 352.854 -5.91393 0.0295558 0
M  V30 3806 C 352.216 -7.01674 0.619056 0
M  V30 3807 H 348.315 -0.687017 -0.373539 0
M  V30 3808 H 350.899 -1.91589 -0.346659 0
M  V30 3809 H 349.07 -2.77752 -2.71493 0
M  V30 3810 H 350.802 -3.0238 -2.68977 0
M  V30 3811 H 347.557 -4.53824 -1.35428 0
M  V30 3812 H 347.981 -6.76997 0.0202939 0
M  V30 3813 H 352.623 -4.08589 -1.08695 0
M  V30 3814 H 350.341 -8.01896 0.999459 0
M  V30 3815 H 353.927 -5.81706 0.104705 0
M  V30 3816 H 352.807 -7.75971 1.13309 0
M  V30 3817 N 350.31 0.590341 -1.46126 0
M  V30 3818 C 351.258 1.72105 -1.5647 0
M  V30 3819 C 352.252 1.63756 -0.433612 0
M  V30 3820 O 353.458 1.69342 -0.610194 0
M  V30 3821 H 349.833 0.568889 -0.491802 0
M  V30 3822 H 351.804 1.6051 -2.51553 0
M  V30 3823 C 350.553 3.10493 -1.56491 0
M  V30 3824 H 349.876 3.17583 -2.4286 0
M  V30 3825 H 351.316 3.8939 -1.67785 0
M  V30 3826 C 349.775 3.3563 -0.292231 0
M  V30 3827 O 350.305 3.96875 0.620739 0
M  V30 3828 N 348.511 2.90026 -0.182523 0
M  V30 3829 H 348.058 2.40367 -0.926356 0
M  V30 3830 H 348.016 3.07218 0.668152 0
M  V30 3831 N 351.788 1.33704 0.83433 0
M  V30 3832 C 352.72 1.20172 1.9517 0
M  V30 3833 C 353.733 0.131572 1.62267 0
M  V30 3834 O 354.922 0.382406 1.74356 0
M  V30 3835 C 352.022 0.821716 3.28787 0
M  V30 3836 C 351.195 1.98446 3.89792 0
M  V30 3837 C 350.254 1.58469 5.01771 0
M  V30 3838 O 349.28 2.29968 5.20676 0
M  V30 3839 N 350.482 0.492291 5.78409 0
M  V30 3840 H 353.247 2.16429 2.07313 0
M  V30 3841 H 350.808 1.26509 1.0103 0
M  V30 3842 H 352.8 0.536291 4.01131 0
M  V30 3843 H 351.37 -0.0503058 3.1256 0
M  V30 3844 H 350.59 2.43526 3.09982 0
M  V30 3845 H 351.878 2.76236 4.27283 0
M  V30 3846 H 351.276 -0.102349 5.65607 0
M  V30 3847 H 349.833 0.266555 6.51255 0
M  V30 3848 N 353.266 -1.05314 1.17247 0
M  V30 3849 C 354.682 -1.30452 0.919473 0
M  V30 3850 C 354.882 -1.9703 -0.42209 0
M  V30 3851 O 353.938 -2.24311 -1.15935 0
M  V30 3852 C 355.251 -2.17551 2.07586 0
M  V30 3853 C 356.799 -2.30937 2.11275 0
M  V30 3854 C 357.274 -3.21396 3.26296 0
M  V30 3855 N 358.765 -3.28981 3.26076 0
M  V30 3856 C 359.5 -3.99095 4.11716 0
M  V30 3857 N 358.996 -4.71648 5.07465 0
M  V30 3858 N 360.789 -3.95247 3.9967 0
M  V30 3859 H 352.94 -0.604988 2.03602 0
M  V30 3860 H 355.203 -0.329368 0.888944 0
M  V30 3861 H 354.909 -1.75921 3.0454 0
M  V30 3862 H 354.783 -3.18182 2.02584 0
M  V30 3863 H 357.17 -2.71809 1.14907 0
M  V30 3864 H 357.251 -1.2994 2.20339 0
M  V30 3865 H 356.895 -2.81238 4.22927 0
M  V30 3866 H 356.825 -4.22395 3.14467 0
M  V30 3867 H 359.316 -2.77286 2.5675 0
M  V30 3868 H 359.629 -5.22705 5.6921 0
M  V30 3869 H 357.974 -4.70594 5.11435 0
M  V30 3870 H 361.165 -3.37691 3.24164 0
M  V30 3871 H 361.338 -4.4962 4.66632 0
M  V30 3872 N 354.744 -0.972509 -1.24016 0
M  V30 3873 C 355.974 -0.653853 -1.9598 0
M  V30 3874 C 356.382 0.781801 -1.72292 0
M  V30 3875 O 355.725 1.53677 -1.00644 0
M  V30 3876 C 355.787 -0.854608 -3.49194 0
M  V30 3877 C 355.451 -2.27082 -3.96589 0
M  V30 3878 C 356.448 -3.24892 -4.05883 0
M  V30 3879 C 354.133 -2.5998 -4.29786 0
M  V30 3880 C 356.127 -4.53684 -4.47716 0
M  V30 3881 C 353.814 -3.88997 -4.71301 0
M  V30 3882 C 354.812 -4.85661 -4.80232 0
M  V30 3883 O 354.5 -6.12376 -5.20818 0
M  V30 3884 H 354.232 -0.242572 -0.630979 0
M  V30 3885 H 356.786 -1.30431 -1.58673 0
M  V30 3886 H 355.016 -0.146985 -3.86421 0
M  V30 3887 H 356.705 -0.534311 -4.02368 0
M  V30 3888 H 357.471 -3.00805 -3.80449 0
M  V30 3889 H 353.35 -1.85457 -4.22051 0
M  V30 3890 H 356.894 -5.29135 -4.54601 0
M  V30 3891 H 352.791 -4.12882 -4.96184 0
M  V30 3892 H 353.559 -6.16013 -5.38953 0
M  V30 3893 N 356.222 1.38976 -0.743202 0
M  V30 3894 C 357.469 2.00343 -0.294752 0
M  V30 3895 C 357.797 1.58983 1.12047 0
M  V30 3896 O 357.052 0.813809 1.77977 0
M  V30 3897 C 357.351 3.55647 -0.353517 0
M  V30 3898 C 357.017 4.16685 -1.72292 0
M  V30 3899 C 355.679 4.3307 -2.09771 0
M  V30 3900 C 358.031 4.50464 -2.62168 0
M  V30 3901 C 355.359 4.80526 -3.36618 0
M  V30 3902 C 357.711 4.99332 -3.88395 0
M  V30 3903 C 356.375 5.13924 -4.25956 0
M  V30 3904 H 355.645 0.733108 -0.107857 0
M  V30 3905 H 358.292 1.6618 -0.951651 0
M  V30 3906 H 356.597 3.89884 0.386954 0
M  V30 3907 H 358.294 4.00998 0.0117269 0
M  V30 3908 H 354.884 4.04339 -1.42155 0
M  V30 3909 H 359.068 4.37416 -2.3448 0
M  V30 3910 H 354.324 4.90008 -3.65653 0
M  V30 3911 H 358.498 5.2444 -4.58187 0
M  V30 3912 H 356.125 5.50457 -5.2431 0
M  V30 3913 N 357.7 0.491464 1.49741 0
M  V30 3914 C 358.946 -0.0565092 2.02721 0
M  V30 3915 C 359.279 -1.37522 1.37118 0
M  V30 3916 O 358.554 -1.87866 0.503645 0
M  V30 3917 C 358.837 -0.219051 3.59433 0
M  V30 3918 C 358.69 1.12211 4.35579 0
M  V30 3919 C 360.009 -0.964157 4.29409 0
M  V30 3920 H 357.128 -0.0190627 0.736753 0
M  V30 3921 H 359.77 0.641021 1.7886 0
M  V30 3922 H 357.92 -0.813165 3.79895 0
M  V30 3923 H 359.592 1.75437 4.26637 0
M  V30 3924 H 357.835 1.71377 3.98513 0
M  V30 3925 H 358.506 0.961794 5.43556 0
M  V30 3926 H 360.982 -0.460378 4.13545 0
M  V30 3927 H 359.858 -1.04671 5.38828 0
M  V30 3928 H 360.119 -2.00563 3.93988 0
M  V30 3929 N 359.178 -1.55987 0.224894 0
M  V30 3930 C 360.427 -1.97566 -0.406273 0
M  V30 3931 C 360.74 -1.11569 -1.6066 0
M  V30 3932 O 361.946 -1.43062 -2.3075 0
M  V30 3933 C 360.402 -3.51474 -0.774207 0
M  V30 3934 C 360.01 -4.46179 0.403496 0
M  V30 3935 C 361.754 -4.01758 -1.37079 0
M  V30 3936 C 359.661 -5.91399 0.0129412 0
M  V30 3937 H 358.591 -0.737777 -0.155565 0
M  V30 3938 H 361.242 -1.80659 0.321635 0
M  V30 3939 H 359.624 -3.63994 -1.55963 0
M  V30 3940 H 360.798 -4.45409 1.18101 0
M  V30 3941 H 359.113 -4.06255 0.913536 0
M  V30 3942 H 361.71 -5.07756 -1.67596 0
M  V30 3943 H 362.053 -3.47805 -2.28773 0
M  V30 3944 H 362.586 -3.92475 -0.648733 0
M  V30 3945 H 359.325 -6.49341 0.896451 0
M  V30 3946 H 358.845 -5.95356 -0.728821 0
M  V30 3947 H 360.524 -6.45683 -0.412582 0
M  V30 3948 N 360.656 0.0484629 -1.57525 0
M  V30 3949 C 361.881 0.759177 -1.93006 0
M  V30 3950 C 362.306 1.69125 -0.823317 0
M  V30 3951 O 361.664 1.79931 0.222364 0
M  V30 3952 C 361.712 1.50899 -3.27509 0
M  V30 3953 O 360.816 2.62112 -3.18388 0
M  V30 3954 H 360.157 0.205564 -0.631379 0
M  V30 3955 H 362.687 0.00972959 -2.04598 0
M  V30 3956 H 362.697 1.88317 -3.6194 0
M  V30 3957 H 361.372 0.825269 -4.0763 0
M  V30 3958 H 359.949 2.27379 -2.95556 0
M  V30 3959 N 362.134 1.5431 0.320358 0
M  V30 3960 C 363.082 1.84647 1.4145 0
M  V30 3961 C 364.076 0.718624 1.53402 0
M  V30 3962 O 365.282 0.902335 1.5575 0
M  V30 3963 H 361.657 0.585349 0.472091 0
M  V30 3964 H 363.628 2.7614 1.13089 0
M  V30 3965 C 362.377 2.09341 2.77617 0
M  V30 3966 H 361.7 2.9559 2.69196 0
M  V30 3967 H 363.14 2.3452 3.53237 0
M  V30 3968 C 361.599 0.885939 3.25043 0
M  V30 3969 O 362.129 0.0967891 4.01583 0
M  V30 3970 N 360.335 0.696682 2.82125 0
M  V30 3971 H 359.882 1.34006 2.2 0
M  V30 3972 H 359.84 -0.109712 3.14209 0
M  V30 3973 N 363.613 -0.582584 1.46437 0
M  V30 3974 C 364.841 -1.36682 1.55324 0
M  V30 3975 C 365.256 -1.87796 0.194409 0
M  V30 3976 O 364.613 -1.63623 -0.808318 0
M  V30 3977 C 364.664 -2.55426 2.55812 0
M  V30 3978 O 364.385 -2.0643 3.86417 0
M  V30 3979 C 365.886 -3.47976 2.74641 0
M  V30 3980 H 363.106 -0.417545 0.525259 0
M  V30 3981 H 365.65 -0.708219 1.91845 0
M  V30 3982 H 363.805 -3.17275 2.22295 0
M  V30 3983 H 364.219 -2.83762 4.41111 0
M  V30 3984 H 365.693 -4.27775 3.48874 0
M  V30 3985 H 366.17 -3.99919 1.81553 0
M  V30 3986 H 366.776 -2.91962 3.09255 0
M  V30 3987 N 365.091 -1.34144 -0.827227 0
M  V30 3988 C 366.319 -1.29325 -1.61501 0
M  V30 3989 C 366.734 0.13354 -1.88327 0
M  V30 3990 O 366.091 1.0793 -1.47164 0
M  V30 3991 C 366.142 -2.07746 -2.95844 0
M  V30 3992 O 365.863 -3.4486 -2.70191 0
M  V30 3993 C 367.364 -2.10273 -3.90256 0
M  V30 3994 H 364.584 -0.445069 -0.50215 0
M  V30 3995 H 367.128 -1.76693 -1.02955 0
M  V30 3996 H 365.283 -1.6403 -3.5096 0
M  V30 3997 H 365.697 -3.85345 -3.55822 0
M  V30 3998 H 367.171 -2.69575 -4.81698 0
M  V30 3999 H 367.648 -1.096 -4.25305 0
M  V30 4000 H 368.254 -2.54059 -3.41078 0
M  V30 4001 N 366.569 1.04691 -1.17803 0
M  V30 4002 C 367.817 1.7743 -0.967617 0
M  V30 4003 C 368.138 1.88359 0.504574 0
M  V30 4004 O 367.408 1.40402 1.36617 0
M  V30 4005 H 365.988 0.657242 -0.355024 0
M  V30 4006 H 368.65 1.2638 -1.48371 0
M  V30 4007 H 367.746 2.78924 -1.40027 0
M  V30 4008 N 368.047 0.979072 1.23499 0
M  V30 4009 C 369.277 0.664237 1.95631 0
M  V30 4010 C 369.685 -0.772653 1.72704 0
M  V30 4011 O 369.028 -1.53141 1.01457 0
M  V30 4012 C 369.09 0.873115 3.48736 0
M  V30 4013 C 368.754 2.29182 3.95379 0
M  V30 4014 C 369.751 3.2704 4.04155 0
M  V30 4015 C 367.436 2.62256 4.28401 0
M  V30 4016 C 369.43 4.56052 4.45304 0
M  V30 4017 C 367.117 3.91491 4.69231 0
M  V30 4018 C 368.115 4.88201 4.77649 0
M  V30 4019 O 367.803 6.15129 5.17563 0
M  V30 4020 H 367.535 0.245915 0.629684 0
M  V30 4021 H 370.089 1.3127 1.57979 0
M  V30 4022 H 368.319 0.167476 3.86337 0
M  V30 4023 H 370.008 0.555642 4.02079 0
M  V30 4024 H 370.774 3.02819 3.78848 0
M  V30 4025 H 366.653 1.87692 4.21061 0
M  V30 4026 H 370.197 5.31538 4.51789 0
M  V30 4027 H 366.094 4.15508 4.93987 0
M  V30 4028 H 366.862 6.18862 5.35679 0
M  V30 4029 N 369.525 -1.3858 0.750561 0
M  V30 4030 C 370.473 -2.32339 0.110162 0
M  V30 4031 C 371.467 -1.53864 -0.708674 0
M  V30 4032 O 372.673 -1.69417 -0.608112 0
M  V30 4033 H 369.048 -0.751812 0.0168275 0
M  V30 4034 H 371.019 -2.83959 0.917053 0
M  V30 4035 C 369.768 -3.39043 -0.771067 0
M  V30 4036 H 369.091 -3.99517 -0.150374 0
M  V30 4037 H 370.531 -4.07061 -1.1865 0
M  V30 4038 C 368.99 -2.77365 -1.91234 0
M  V30 4039 O 369.52 -2.66434 -3.00626 0
M  V30 4040 N 367.726 -2.35219 -1.70646 0
M  V30 4041 H 367.273 -2.4431 -0.81673 0
M  V30 4042 H 367.231 -1.94294 -2.47178 0
M  V30 4043 N 371.003 -0.499398 -1.49478 0
M  V30 4044 C 372.28 0.108629 -1.95298 0
M  V30 4045 C 372.66 1.54282 -1.44084 0
M  V30 4046 O 372.008 2.18944 -0.653908 0
M  V30 4047 C 372.218 0.0229111 -3.48992 0
M  V30 4048 C 373.566 0.197643 -4.2414 0
M  V30 4049 O 374.59 0.0981735 -3.56065 0
M  V30 4050 O 373.449 0.401669 -5.45022 0
M  V30 4051 H 370.543 0.096181 -0.821388 0
M  V30 4052 H 373.089 -0.561822 -1.6013 0
M  V30 4053 H 371.861 -0.977321 -3.78899 0
M  V30 4054 H 371.484 0.733579 -3.90774 0
M  V30 4055 N 372.481 1.55866 -0.233164 0
M  V30 4056 C 373.897 1.59133 0.121988 0
M  V30 4057 C 374.097 1.25016 1.58029 0
M  V30 4058 O 373.153 0.990922 2.32243 0
M  V30 4059 C 374.466 2.99932 -0.214792 0
M  V30 4060 C 376.014 3.12601 -0.157971 0
M  V30 4061 C 376.489 4.55597 -0.46859 0
M  V30 4062 N 377.98 4.61305 -0.418585 0
M  V30 4063 C 378.715 5.69903 -0.63227 0
M  V30 4064 N 378.211 6.86819 -0.90835 0
M  V30 4065 N 380.004 5.59264 -0.563913 0
M  V30 4066 H 372.155 1.76315 -1.18434 0
M  V30 4067 H 374.418 0.820093 -0.475553 0
M  V30 4068 H 374.124 3.29588 -1.22739 0
M  V30 4069 H 373.998 3.74327 0.464691 0
M  V30 4070 H 376.385 2.82735 0.845283 0
M  V30 4071 H 376.466 2.40511 -0.871102 0
M  V30 4072 H 376.11 4.86182 -1.46934 0
M  V30 4073 H 376.04 5.25928 0.265865 0
M  V30 4074 H 378.531 3.77297 -0.213368 0
M  V30 4075 H 378.844 7.65507 -1.05919 0
M  V30 4076 H 377.189 6.88536 -0.945673 0
M  V30 4077 H 380.38 4.66802 -0.348372 0
M  V30 4078 H 380.553 6.43831 -0.733847 0
M  V30 4079 N 373.959 -0.0401083 1.57549 0
M  V30 4080 C 374.922 -1.02871 2.04817 0
M  V30 4081 C 375.922 -1.29708 0.950388 0
M  V30 4082 O 377.112 -1.24897 1.21435 0
M  V30 4083 C 374.244 -2.36443 2.45576 0
M  V30 4084 H 375.437 -0.620631 2.93408 0
M  V30 4085 H 372.99 -0.286667 1.53649 0
M  V30 4086 H 373.725 -2.82021 1.60108 0
M  V30 4087 H 373.51 -2.18296 3.25713 0
M  V30 4088 H 375 -3.07441 2.82612 0
M  V30 4089 N 375.437 -1.54477 -0.31217 0
M  V30 4090 C 376.683 -1.73483 -1.0503 0
M  V30 4091 C 377.016 -0.513125 -1.87298 0
M  V30 4092 O 376.291 0.489864 -1.8823 0
M  V30 4093 C 376.574 -3.01723 -1.96558 0
M  V30 4094 C 376.427 -4.3417 -1.17545 0
M  V30 4095 C 377.746 -3.25772 -2.95907 0
M  V30 4096 H 374.865 -0.631222 -0.380432 0
M  V30 4097 H 377.507 -1.87184 -0.325932 0
M  V30 4098 H 375.657 -2.90174 -2.58324 0
M  V30 4099 H 377.329 -4.5762 -0.581513 0
M  V30 4100 H 375.572 -4.31159 -0.477925 0
M  V30 4101 H 376.243 -5.20143 -1.84811 0
M  V30 4102 H 378.719 -3.36857 -2.44267 0
M  V30 4103 H 377.595 -4.16838 -3.57123 0
M  V30 4104 H 377.856 -2.43537 -3.68974 0
M  V30 4105 N 376.915 0.57481 -1.46744 0
M  V30 4106 C 377.845 1.69337 -1.60771 0
M  V30 4107 C 378.826 1.63825 -0.457736 0
M  V30 4108 O 380.011 1.8172 -0.684947 0
M  V30 4109 C 377.141 3.0798 -1.60517 0
M  V30 4110 C 376.095 3.28327 -2.74564 0
M  V30 4111 C 375.421 4.67578 -2.59373 0
M  V30 4112 C 376.721 3.15398 -4.16319 0
M  V30 4113 H 378.415 1.57853 -2.54407 0
M  V30 4114 H 375.961 0.75799 -1.22436 0
M  V30 4115 H 377.914 3.86061 -1.68923 0
M  V30 4116 H 376.638 3.20381 -0.634305 0
M  V30 4117 H 375.297 2.52649 -2.65639 0
M  V30 4118 H 374.945 4.76755 -1.60353 0
M  V30 4119 H 374.645 4.82144 -3.35873 0
M  V30 4120 H 376.169 5.47817 -2.69682 0
M  V30 4121 H 377.583 3.83315 -4.26313 0
M  V30 4122 H 375.98 3.41482 -4.93468 0
M  V30 4123 H 377.05 2.12372 -4.3592 0
M  V30 4124 N 378.394 1.34581 0.820102 0
M  V30 4125 C 379.304 1.28471 1.96297 0
M  V30 4126 C 380.32 0.191902 1.72939 0
M  V30 4127 O 381.496 0.418879 1.96996 0
M  V30 4128 C 378.561 1.04281 3.30645 0
M  V30 4129 C 377.622 2.22745 3.66992 0
M  V30 4130 C 376.855 1.997 4.9493 0
M  V30 4131 O 377.078 0.956656 5.6232 0
M  V30 4132 O 376.012 2.86723 5.2922 0
M  V30 4133 H 379.838 2.24624 2.04396 0
M  V30 4134 H 377.423 1.14816 0.955913 0
M  V30 4135 H 379.305 0.925841 4.11104 0
M  V30 4136 H 377.98 0.111697 3.23507 0
M  V30 4137 H 376.887 2.40003 2.86966 0
M  V30 4138 H 378.22 3.14257 3.78819 0
M  V30 4139 N 379.872 -1.04064 1.18357 0
M  V30 4140 C 381.288 -1.2947 0.933258 0
M  V30 4141 C 381.488 -1.97466 -0.401169 0
M  V30 4142 O 380.544 -2.25528 -1.13549 0
M  V30 4143 C 381.857 -2.15337 2.09882 0
M  V30 4144 C 383.405 -2.28683 2.13712 0
M  V30 4145 C 383.88 -3.17917 3.29686 0
M  V30 4146 N 385.371 -3.25504 3.29547 0
M  V30 4147 C 386.106 -3.94706 4.15926 0
M  V30 4148 N 385.602 -4.66239 5.12439 0
M  V30 4149 N 387.395 -3.90986 4.0384 0
M  V30 4150 H 379.546 -0.583359 2.04232 0
M  V30 4151 H 381.809 -0.319921 0.892387 0
M  V30 4152 H 381.515 -1.72682 3.06389 0
M  V30 4153 H 381.389 -3.16015 2.05947 0
M  V30 4154 H 383.776 -2.70575 1.17784 0
M  V30 4155 H 383.857 -1.27596 2.21705 0
M  V30 4156 H 383.501 -2.76736 4.25887 0
M  V30 4157 H 383.431 -4.19036 3.1893 0
M  V30 4158 H 385.922 -2.74547 2.59677 0
M  V30 4159 H 386.235 -5.16638 5.74722 0
M  V30 4160 H 384.58 -4.65143 5.16398 0
M  V30 4161 H 387.771 -3.34234 3.27727 0
M  V30 4162 H 387.944 -4.44646 4.71375 0
M  V30 4163 N 381.35 -0.985608 -1.22978 0
M  V30 4164 C 382.26 -0.538548 -2.28335 0
M  V30 4165 C 383.276 0.409163 -1.69121 0
M  V30 4166 O 384.452 0.277797 -1.99475 0
M  V30 4167 C 381.517 0.146867 -3.46389 0
M  V30 4168 C 380.578 -0.842896 -4.20944 0
M  V30 4169 C 379.811 -0.190095 -5.33361 0
M  V30 4170 O 380.034 1.01767 -5.61248 0
M  V30 4171 O 378.968 -0.891289 -5.95264 0
M  V30 4172 H 382.794 -1.41487 -2.68729 0
M  V30 4173 H 380.379 -0.753495 -1.29007 0
M  V30 4174 H 382.261 0.531125 -4.1804 0
M  V30 4175 H 380.936 0.997871 -3.07935 0
M  V30 4176 H 379.843 -1.27795 -3.51595 0
M  V30 4177 H 381.176 -1.66287 -4.6326 0
M  V30 4178 N 382.828 1.3818 -0.7579 0
M  V30 4179 C 384.074 2.00316 -0.316453 0
M  V30 4180 C 384.407 1.60026 1.10025 0
M  V30 4181 O 383.682 0.839835 1.75434 0
M  V30 4182 C 383.965 3.57349 -0.444245 0
M  V30 4183 C 383.818 4.07591 -1.90236 0
M  V30 4184 C 385.137 4.3981 0.1598 0
M  V30 4185 H 382.256 0.727741 -0.116459 0
M  V30 4186 H 384.898 1.6406 -0.958352 0
M  V30 4187 H 383.048 3.88365 0.102233 0
M  V30 4188 H 384.72 3.87199 -2.50748 0
M  V30 4189 H 382.963 3.60297 -2.41595 0
M  V30 4190 H 383.634 5.16677 -1.94291 0
M  V30 4191 H 386.11 4.14971 -0.306314 0
M  V30 4192 H 384.986 5.48885 0.0401675 0
M  V30 4193 H 385.247 4.24102 1.24859 0
M  V30 4194 N 384.306 0.507319 1.49211 0
M  V30 4195 C 385.238 -0.304532 2.27168 0
M  V30 4196 C 386.251 -0.924956 1.33972 0
M  V30 4197 O 387.44 -0.807227 1.59205 0
M  V30 4198 C 384.54 -1.44431 3.06583 0
M  V30 4199 C 383.713 -0.930026 4.27398 0
M  V30 4200 C 382.772 -1.94817 4.88807 0
M  V30 4201 O 381.798 -1.51418 5.4869 0
M  V30 4202 N 383 -3.279 4.79022 0
M  V30 4203 H 385.765 0.36395 2.97482 0
M  V30 4204 H 383.326 0.340249 1.58284 0
M  V30 4205 H 385.318 -2.12311 3.44537 0
M  V30 4206 H 383.888 -2.01684 2.38835 0
M  V30 4207 H 383.108 -0.0759244 3.94127 0
M  V30 4208 H 384.396 -0.564932 5.05654 0
M  V30 4209 H 383.794 -3.65843 4.3148 0
M  V30 4210 H 382.351 -3.91476 5.21142 0
M  V30 4211 N 385.784 -1.5574 0.241426 0
M  V30 4212 C 387.014 -2.02913 -0.38857 0
M  V30 4213 C 387.422 -1.12014 -1.52478 0
M  V30 4214 O 386.765 -0.125903 -1.83268 0
M  V30 4215 C 386.827 -3.4636 -0.963075 0
M  V30 4216 C 386.491 -4.56982 0.0401916 0
M  V30 4217 C 387.488 -5.12941 0.847766 0
M  V30 4218 C 385.173 -5.0203 0.164699 0
M  V30 4219 C 387.167 -6.12437 1.76636 0
M  V30 4220 C 384.854 -6.01358 1.0868 0
M  V30 4221 C 385.852 -6.5644 1.88616 0
M  V30 4222 O 385.54 -7.53831 2.79273 0
M  V30 4223 H 385.272 -0.668983 -0.0971452 0
M  V30 4224 H 387.826 -2.02198 0.361248 0
M  V30 4225 H 386.056 -3.44206 -1.76235 0
M  V30 4226 H 387.745 -3.77065 -1.50257 0
M  V30 4227 H 388.511 -4.78974 0.762133 0
M  V30 4228 H 384.39 -4.58824 -0.447411 0
M  V30 4229 H 387.934 -6.55355 2.39071 0
M  V30 4230 H 383.831 -6.34746 1.17338 0
M  V30 4231 H 384.599 -7.71428 2.73572 0
M  V30 4232 N 387.262 0.0317525 -1.57568 0
M  V30 4233 C 388.49 0.734949 -1.93407 0
M  V30 4234 C 388.905 1.69036 -0.84096 0
M  V30 4235 O 388.262 1.81582 0.182836 0
M  V30 4236 C 388.313 1.49432 -3.29169 0
M  V30 4237 O 388.034 0.577261 -4.3428 0
M  V30 4238 C 389.535 2.29492 -3.79273 0
M  V30 4239 H 386.755 0.206706 -0.638368 0
M  V30 4240 H 389.299 -0.00992046 -2.04498 0
M  V30 4241 H 387.454 2.1911 -3.19483 0
M  V30 4242 H 387.868 1.10952 -5.1263 0
M  V30 4243 H 389.342 2.78172 -4.76785 0
M  V30 4244 H 389.819 3.10794 -3.10328 0
M  V30 4245 H 390.425 1.64894 -3.92033 0
M  V30 4246 N 388.74 1.54641 0.303973 0
M  V30 4247 C 389.67 1.88386 1.3796 0
M  V30 4248 C 390.651 0.742485 1.5304 0
M  V30 4249 O 391.836 0.997959 1.66597 0
M  V30 4250 C 388.966 2.12854 2.74427 0
M  V30 4251 C 387.92 3.28702 2.74115 0
M  V30 4252 C 387.246 3.38582 4.13844 0
M  V30 4253 C 388.546 4.65881 2.3612 0
M  V30 4254 H 390.24 2.78474 1.09966 0
M  V30 4255 H 387.786 1.33988 0.527556 0
M  V30 4256 H 389.739 2.35047 3.49758 0
M  V30 4257 H 388.463 1.19535 3.03939 0
M  V30 4258 H 387.122 3.06428 2.0124 0
M  V30 4259 H 386.77 2.42784 4.40528 0
M  V30 4260 H 386.47 4.16453 4.14537 0
M  V30 4261 H 387.994 3.63031 4.90959 0
M  V30 4262 H 389.408 4.87823 3.01167 0
M  V30 4263 H 387.805 5.46444 2.48031 0
M  V30 4264 H 388.875 4.66799 1.3125 0
M  V30 4265 N 390.218 -0.567019 1.47046 0
M  V30 4266 C 391.128 -1.70247 1.6141 0
M  V30 4267 C 392.144 -1.66746 0.497157 0
M  V30 4268 O 393.32 -1.86371 0.763389 0
M  V30 4269 C 390.385 -3.06756 1.61561 0
M  V30 4270 C 389.446 -3.21399 2.84607 0
M  V30 4271 C 388.679 -4.51396 2.84741 0
M  V30 4272 O 388.902 -5.36255 1.94388 0
M  V30 4273 O 387.836 -4.69621 3.76483 0
M  V30 4274 H 391.662 -1.61073 2.57467 0
M  V30 4275 H 389.247 -0.735894 1.30019 0
M  V30 4276 H 391.129 -3.8801 1.64396 0
M  V30 4277 H 389.804 -3.16333 0.686684 0
M  V30 4278 H 388.711 -2.39579 2.8732 0
M  V30 4279 H 390.044 -3.16721 3.76761 0
M  V30 4280 N 391.696 -1.35014 -0.812953 0
M  V30 4281 C 392.629 -1.21761 -1.93001 0
M  V30 4282 C 393.607 -0.10694 -1.62248 0
M  V30 4283 O 394.791 -0.273891 -1.865 0
M  V30 4284 C 391.918 -0.873404 -3.27245 0
M  V30 4285 C 390.964 -1.99523 -3.76952 0
M  V30 4286 S 391.797 -3.61009 -3.95516 0
M  V30 4287 C 392.953 -3.28651 -5.32672 0
M  V30 4288 H 393.186 -2.16315 -2.03948 0
M  V30 4289 H 390.719 -1.20156 -0.969631 0
M  V30 4290 H 392.677 -0.68161 -4.04802 0
M  V30 4291 H 391.338 0.053971 -3.14054 0
M  V30 4292 H 390.531 -1.70838 -4.74163 0
M  V30 4293 H 390.133 -2.14503 -3.06373 0
M  V30 4294 H 392.425 -2.81085 -6.1644 0
M  V30 4295 H 393.368 -4.25039 -5.66346 0
M  V30 4296 H 393.776 -2.6458 -4.98656 0
M  V30 4297 N 393.175 1.03435 -1.18907 0
M  V30 4298 C 394.424 1.76143 -0.982669 0
M  V30 4299 C 394.737 1.89416 0.487953 0
M  V30 4300 O 395.943 2.59041 0.813036 0
M  V30 4301 C 394.399 3.16722 -1.70924 0
M  V30 4302 C 394.007 3.11522 -3.21959 0
M  V30 4303 C 395.751 3.93764 -1.58588 0
M  V30 4304 C 393.658 4.46999 -3.87228 0
M  V30 4305 H 392.588 0.660292 -0.364047 0
M  V30 4306 H 395.239 1.158 -1.42347 0
M  V30 4307 H 393.621 3.775 -1.19623 0
M  V30 4308 H 394.795 2.60158 -3.80335 0
M  V30 4309 H 393.11 2.47978 -3.34508 0
M  V30 4310 H 395.707 4.93963 -2.04707 0
M  V30 4311 H 396.05 4.12794 -0.539142 0
M  V30 4312 H 396.583 3.39576 -2.07203 0
M  V30 4313 H 393.322 4.33174 -4.91976 0
M  V30 4314 H 392.842 4.98441 -3.33642 0
M  V30 4315 H 394.521 5.15898 -3.90459 0
M  V30 4316 N 394.653 0.992116 1.22453 0
M  V30 4317 C 395.6 0.541731 2.24352 0
M  V30 4318 C 396.57 -0.425519 1.60557 0
M  V30 4319 O 397.755 -0.330453 1.87917 0
M  V30 4320 C 394.895 -0.138248 3.44823 0
M  V30 4321 C 394.008 0.870649 4.23136 0
M  V30 4322 C 393.143 0.164269 5.30946 0
M  V30 4323 C 392.182 1.16159 6.00977 0
M  V30 4324 N 391.319 0.483568 7.00433 0
M  V30 4325 H 396.159 1.41541 2.62241 0
M  V30 4326 H 393.696 0.709013 1.28885 0
M  V30 4327 H 395.654 -0.5494 4.13567 0
M  V30 4328 H 394.284 -0.975721 3.077 0
M  V30 4329 H 393.336 1.40013 3.53696 0
M  V30 4330 H 394.648 1.63014 4.7141 0
M  V30 4331 H 393.802 -0.303653 6.0594 0
M  V30 4332 H 392.541 -0.627733 4.83643 0
M  V30 4333 H 391.546 1.64015 5.24766 0
M  V30 4334 H 392.771 1.95445 6.50368 0
M  V30 4335 H 390.717 -0.289012 6.55363 0
M  V30 4336 H 390.634 1.18152 7.4671 0
M  V30 4337 H 391.902 0.0384219 7.79491 0
M  V30 4338 N 396.131 -1.37776 0.765217 0
M  V30 4339 C 397.061 -2.32945 0.160953 0
M  V30 4340 C 398.042 -1.55454 -0.690516 0
M  V30 4341 O 399.227 -1.83721 -0.629318 0
M  V30 4342 C 396.357 -3.39669 -0.724031 0
M  V30 4343 C 395.311 -4.27992 0.0256173 0
M  V30 4344 C 394.637 -5.25673 -0.978383 0
M  V30 4345 C 395.937 -5.08309 1.20082 0
M  V30 4346 H 397.631 -2.83728 0.955969 0
M  V30 4347 H 395.177 -1.36416 0.461149 0
M  V30 4348 H 397.13 -4.05219 -1.15652 0
M  V30 4349 H 395.854 -2.87396 -1.5515 0
M  V30 4350 H 394.513 -3.63964 0.438812 0
M  V30 4351 H 394.161 -4.69682 -1.80022 0
M  V30 4352 H 393.861 -5.85625 -0.481378 0
M  V30 4353 H 395.385 -5.94098 -1.40995 0
M  V30 4354 H 396.799 -5.67034 0.845307 0
M  V30 4355 H 395.196 -5.77554 1.62947 0
M  V30 4356 H 396.266 -4.41365 2.00811 0
M  V30 4357 N 397.609 -0.515225 -1.4894 0
M  V30 4358 C 398.855 0.0242508 -2.02785 0
M  V30 4359 C 399.188 1.35323 -1.39289 0
M  V30 4360 O 398.463 1.87041 -0.533469 0
M  V30 4361 C 398.746 0.16184 -3.59736 0
M  V30 4362 C 398.599 -1.19127 -4.33738 0
M  V30 4363 C 399.918 0.895719 -4.30888 0
M  V30 4364 H 397.037 0.00733914 -0.736963 0
M  V30 4365 H 399.679 -0.669395 -1.77818 0
M  V30 4366 H 397.829 0.752624 -3.8114 0
M  V30 4367 H 399.501 -1.82202 -4.23792 0
M  V30 4368 H 397.744 -1.77695 -3.95736 0
M  V30 4369 H 398.415 -1.04815 -5.41957 0
M  V30 4370 H 400.891 0.394528 -4.14225 0
M  V30 4371 H 399.767 0.960859 -5.40425 0
M  V30 4372 H 400.028 1.9427 -3.97129 0
M  V30 4373 N 399.087 1.5561 -0.249682 0
M  V30 4374 C 400.498 1.84979 0.252949 0
M  V30 4375 C 400.849 1.17153 1.57384 0
M  V30 4376 O 399.974 0.450884 2.11651 0
M  V30 4377 C 400.569 3.35584 0.465732 0
M  V30 4378 C 399.128 3.65169 0.912624 0
M  V30 4379 C 398.275 2.77299 -0.00859085 0
M  V30 4380 H 401.226 1.51513 -0.47217 0
M  V30 4381 H 401.247 3.57313 1.30795 0
M  V30 4382 H 400.759 3.8492 -0.49579 0
M  V30 4383 H 398.86 3.21312 1.88652 0
M  V30 4384 H 398.973 4.72912 0.767559 0
M  V30 4385 H 397.337 2.49678 0.50327 0
M  V30 4386 H 398.12 3.29442 -0.965537 0
M  V30 4387 N 400.565 -0.0233959 1.57583 0
M  V30 4388 C 401.515 -1.03023 2.03397 0
M  V30 4389 C 402.499 -1.31701 0.924315 0
M  V30 4390 O 403.691 -1.31191 1.18819 0
M  V30 4391 C 400.82 -2.32961 2.52159 0
M  V30 4392 C 399.906 -2.07349 3.69956 0
M  V30 4393 N 400.297 -1.51814 4.82479 0
M  V30 4394 C 398.595 -2.37606 3.77438 0
M  V30 4395 C 399.296 -1.42136 5.64068 0
M  V30 4396 N 398.272 -1.89891 5.09355 0
M  V30 4397 H 402.074 -0.594962 2.87815 0
M  V30 4398 H 399.588 -0.229586 1.60769 0
M  V30 4399 H 401.585 -3.05906 2.83244 0
M  V30 4400 H 400.245 -2.77162 1.69149 0
M  V30 4401 H 401.256 -1.20008 5.03804 0
M  V30 4402 H 397.933 -2.84842 3.05239 0
M  V30 4403 H 399.323 -0.996405 6.64471 0
M  V30 4404 N 402.043 -1.548 -0.295768 0
M  V30 4405 C 402.991 -1.86874 -1.38495 0
M  V30 4406 C 403.985 -0.742938 -1.52239 0
M  V30 4407 O 405.191 -0.926999 -1.54294 0
M  V30 4408 H 401.566 -0.592786 -0.462719 0
M  V30 4409 H 403.537 -2.77904 -1.08682 0
M  V30 4410 C 402.286 -2.13732 -2.74252 0
M  V30 4411 H 401.609 -2.99835 -2.64459 0
M  V30 4412 H 403.049 -2.4011 -3.49461 0
M  V30 4413 C 401.508 -0.937539 -3.23592 0
M  V30 4414 O 402.038 -0.160665 -4.01379 0
M  V30 4415 N 400.244 -0.741478 -2.80981 0
M  V30 4416 H 399.791 -1.37489 -2.1784 0
M  V30 4417 H 399.749 0.0597103 -3.14343 0
M  V30 4418 N 403.521 0.559213 -1.47345 0
M  V30 4419 C 404.431 1.69388 -1.62311 0
M  V30 4420 C 405.447 1.6648 -0.505993 0
M  V30 4421 O 406.623 1.85964 -0.773262 0
M  V30 4422 C 403.688 3.05894 -1.63185 0
M  V30 4423 C 402.749 3.19885 -2.86307 0
M  V30 4424 C 401.982 4.49879 -2.87131 0
M  V30 4425 O 402.205 5.35217 -1.97229 0
M  V30 4426 O 401.139 4.67618 -3.78968 0
M  V30 4427 H 404.965 1.59706 -2.58317 0
M  V30 4428 H 402.55 0.728989 -1.30407 0
M  V30 4429 H 404.432 3.87133 -1.66451 0
M  V30 4430 H 403.107 3.15964 -0.70345 0
M  V30 4431 H 402.014 2.38052 -2.88587 0
M  V30 4432 H 403.347 3.14718 -3.78435 0
M  V30 4433 N 404.999 1.35443 0.805782 0
M  V30 4434 C 406.224 1.32037 1.59941 0
M  V30 4435 C 406.649 -0.0994215 1.87837 0
M  V30 4436 O 406.007 -1.06648 1.46615 0
M  V30 4437 C 406.055 2.13354 2.90711 0
M  V30 4438 O 405.159 1.5148 3.83572 0
M  V30 4439 H 404.5 0.452666 0.485787 0
M  V30 4440 H 407.03 1.78496 1.00002 0
M  V30 4441 H 407.04 2.25338 3.40128 0
M  V30 4442 H 405.715 3.16572 2.69732 0
M  V30 4443 H 404.292 1.4834 3.42125 0
M  V30 4444 N 406.477 -1.02803 1.19454 0
M  V30 4445 C 407.44 -2.09264 0.934955 0
M  V30 4446 C 408.44 -1.60576 -0.0849015 0
M  V30 4447 O 409.63 -1.73554 0.149933 0
M  V30 4448 C 406.762 -3.38482 0.40531 0
M  V30 4449 H 407.955 -2.33726 1.87916 0
M  V30 4450 H 405.508 -1.19426 1.00832 0
M  V30 4451 H 406.243 -3.19689 -0.544899 0
M  V30 4452 H 406.028 -3.75142 1.14065 0
M  V30 4453 H 407.518 -4.16894 0.242806 0
M  V30 4454 N 407.956 -0.998596 -1.21925 0
M  V30 4455 C 409.202 -0.688337 -1.91399 0
M  V30 4456 C 409.557 0.771805 -1.76241 0
M  V30 4457 O 408.85 1.55153 -1.1242 0
M  V30 4458 C 409.044 -1.03648 -3.42041 0
M  V30 4459 C 408.873 -2.52892 -3.71855 0
M  V30 4460 C 407.643 -3.19389 -3.91559 0
M  V30 4461 C 409.841 -3.5103 -3.75875 0
M  V30 4462 N 407.823 -4.5805 -4.08734 0
M  V30 4463 C 409.194 -4.75174 -3.98259 0
M  V30 4464 C 411.249 -3.45257 -3.58751 0
M  V30 4465 C 409.952 -5.94247 -4.05294 0
M  V30 4466 C 411.978 -4.63712 -3.67049 0
M  V30 4467 C 411.34 -5.86658 -3.89887 0
M  V30 4468 H 407.439 -0.303251 -0.720807 0
M  V30 4469 H 410.023 -1.27977 -1.46731 0
M  V30 4470 H 408.194 -0.473569 -3.85502 0
M  V30 4471 H 409.926 -0.681619 -3.98919 0
M  V30 4472 H 406.681 -2.69846 -3.89205 0
M  V30 4473 H 407.105 -5.29989 -4.21237 0
M  V30 4474 H 411.747 -2.51215 -3.40075 0
M  V30 4475 H 409.465 -6.88687 -4.22772 0
M  V30 4476 H 413.051 -4.6084 -3.5513 0
M  V30 4477 H 411.931 -6.76786 -3.96144 0
M  V30 4478 N 409.434 1.37368 -0.772513 0
M  V30 4479 C 410.382 2.32134 -0.147111 0
M  V30 4480 C 411.376 1.54972 0.684106 0
M  V30 4481 O 412.582 1.70363 0.581083 0
M  V30 4482 H 408.957 0.751449 -0.028786 0
M  V30 4483 H 410.928 2.82464 -0.962112 0
M  V30 4484 C 409.677 3.40226 0.71703 0
M  V30 4485 H 409 3.99706 0.0867951 0
M  V30 4486 H 410.44 4.08897 1.12159 0
M  V30 4487 C 408.899 2.80372 1.86797 0
M  V30 4488 O 409.429 2.71183 2.96349 0
M  V30 4489 N 407.635 2.37904 1.66883 0
M  V30 4490 H 407.182 2.45578 0.777759 0
M  V30 4491 H 407.14 1.98202 2.44056 0
M  V30 4492 N 410.912 0.523116 1.48665 0
M  V30 4493 C 412.142 -0.00961724 2.06598 0
M  V30 4494 C 412.55 -1.29333 1.38093 0
M  V30 4495 O 411.893 -1.77846 0.46007 0
M  V30 4496 C 411.955 -0.311135 3.58151 0
M  V30 4497 C 411.619 0.878092 4.48485 0
M  V30 4498 C 412.616 1.77464 4.88674 0
M  V30 4499 C 410.301 1.08315 4.90483 0
M  V30 4500 C 412.295 2.86021 5.69623 0
M  V30 4501 C 409.982 2.17187 5.71203 0
M  V30 4502 C 410.98 3.05873 6.10681 0
M  V30 4503 O 410.668 4.12862 6.89783 0
M  V30 4504 H 410.4 0.0272658 0.67545 0
M  V30 4505 H 412.954 0.726156 1.92136 0
M  V30 4506 H 411.184 -1.10079 3.70701 0
M  V30 4507 H 412.873 -0.785125 3.98234 0
M  V30 4508 H 413.639 1.62813 4.56855 0
M  V30 4509 H 409.518 0.402149 4.59243 0
M  V30 4510 H 413.062 3.55272 6.00356 0
M  V30 4511 H 408.959 2.31824 6.02435 0
M  V30 4512 H 409.727 4.10487 7.08126 0
M  V30 4513 N 412.39 -1.55475 0.257931 0
M  V30 4514 C 413.32 -2.24815 -0.630912 0
M  V30 4515 C 414.301 -1.23224 -1.17259 0
M  V30 4516 O 415.486 -1.51904 -1.20991 0
M  V30 4517 C 412.616 -2.95609 -1.82298 0
M  V30 4518 C 411.57 -4.03982 -1.41359 0
M  V30 4519 C 410.896 -4.6226 -2.68738 0
M  V30 4520 C 412.196 -5.19109 -0.57648 0
M  V30 4521 H 413.89 -2.99354 -0.0526878 0
M  V30 4522 H 411.436 -1.4398 -0.023901 0
M  V30 4523 H 413.389 -3.42822 -2.45054 0
M  V30 4524 H 412.113 -2.18577 -2.42676 0
M  V30 4525 H 410.772 -3.57555 -0.809324 0
M  V30 4526 H 410.42 -3.81915 -3.27338 0
M  V30 4527 H 410.12 -5.35424 -2.42065 0
M  V30 4528 H 411.644 -5.12212 -3.32372 0
M  V30 4529 H 413.058 -5.62479 -1.10861 0
M  V30 4530 H 411.455 -5.98729 -0.405351 0
M  V30 4531 H 412.525 -4.83174 0.408776 0
M  V30 4532 N 413.868 0.0150385 -1.57593 0
M  V30 4533 C 414.815 1.01126 -2.07466 0
M  V30 4534 C 415.785 1.35064 -0.966794 0
M  V30 4535 O 416.97 1.4516 -1.23827 0
M  V30 4536 C 414.11 2.30276 -2.57035 0
M  V30 4537 C 413.223 2.02373 -3.81666 0
M  V30 4538 C 412.358 3.25496 -4.19793 0
M  V30 4539 C 411.397 2.93211 -5.37303 0
M  V30 4540 N 410.534 4.08826 -5.70794 0
M  V30 4541 H 415.374 0.57901 -2.92321 0
M  V30 4542 H 412.911 0.27426 -1.44521 0
M  V30 4543 H 414.869 3.05757 -2.83846 0
M  V30 4544 H 413.499 2.71197 -1.75077 0
M  V30 4545 H 412.551 1.17327 -3.61854 0
M  V30 4546 H 413.863 1.74567 -4.67256 0
M  V30 4547 H 413.017 4.09333 -4.47807 0
M  V30 4548 H 411.756 3.56428 -3.32882 0
M  V30 4549 H 410.761 2.07777 -5.09027 0
M  V30 4550 H 411.986 2.63542 -6.25877 0
M  V30 4551 H 409.932 4.39682 -4.86842 0
M  V30 4552 H 409.849 3.84491 -6.50924 0
M  V30 4553 H 411.117 4.93496 -6.03392 0
M  V30 4554 N 415.346 1.54954 0.287554 0
M  V30 4555 C 416.594 1.74528 1.01904 0
M  V30 4556 C 416.915 0.541349 1.87335 0
M  V30 4557 O 416.185 -0.444108 1.908 0
M  V30 4558 H 414.765 0.643576 0.379235 0
M  V30 4559 H 417.427 1.92333 0.315294 0
M  V30 4560 H 416.523 2.64015 1.6644 0
M  V30 4561 N 416.824 -0.551391 1.4764 0
M  V30 4562 C 418.073 -1.30467 1.53822 0
M  V30 4563 C 418.386 -1.94495 0.207661 0
M  V30 4564 O 419.592 -2.71099 0.147533 0
M  V30 4565 C 418.048 -2.36616 2.71184 0
M  V30 4566 C 417.656 -1.78754 4.10793 0
M  V30 4567 C 419.4 -3.13088 2.86663 0
M  V30 4568 C 417.307 -2.82717 5.19447 0
M  V30 4569 H 416.237 -0.490584 0.572576 0
M  V30 4570 H 418.888 -0.58494 1.73927 0
M  V30 4571 H 417.27 -3.11529 2.4447 0
M  V30 4572 H 418.444 -1.10173 4.47435 0
M  V30 4573 H 416.759 -1.14846 4.00249 0
M  V30 4574 H 419.356 -3.90736 3.65007 0
M  V30 4575 H 419.699 -3.67635 1.95321 0
M  V30 4576 H 420.232 -2.45288 3.13175 0
M  V30 4577 H 416.971 -2.33018 6.12685 0
M  V30 4578 H 416.491 -3.4969 4.87316 0
M  V30 4579 H 418.17 -3.46102 5.46646 0
M  V30 4580 N 418.302 -1.35869 -0.798587 0
M  V30 4581 C 419.232 -1.32118 -1.92528 0
M  V30 4582 C 420.213 -0.194209 -1.68988 0
M  V30 4583 O 421.398 -0.390426 -1.90235 0
M  V30 4584 C 418.528 -1.10047 -3.29404 0
M  V30 4585 C 417.482 -2.19471 -3.67446 0
M  V30 4586 C 416.808 -1.82555 -5.02571 0
M  V30 4587 C 418.108 -3.61495 -3.76987 0
M  V30 4588 H 419.802 -2.26394 -1.95924 0
M  V30 4589 H 417.348 -1.08981 -0.94123 0
M  V30 4590 H 419.301 -1.06061 -4.07835 0
M  V30 4591 H 418.025 -0.122195 -3.26371 0
M  V30 4592 H 416.684 -2.22568 -2.91306 0
M  V30 4593 H 416.332 -0.833249 -4.9605 0
M  V30 4594 H 416.032 -2.5581 -5.28995 0
M  V30 4595 H 417.556 -1.80108 -5.83432 0
M  V30 4596 H 418.97 -3.60676 -4.4563 0
M  V30 4597 H 417.367 -4.33577 -4.14887 0
M  V30 4598 H 418.437 -3.97065 -2.78329 0
M  V30 4599 N 419.78 1.02168 -1.19998 0
M  V30 4600 C 420.712 2.10705 -0.901994 0
M  V30 4601 C 421.725 1.6244 0.108216 0
M  V30 4602 O 422.914 1.78082 -0.12214 0
M  V30 4603 C 420.014 3.37291 -0.329834 0
M  V30 4604 C 419.187 4.14714 -1.39035 0
M  V30 4605 C 418.246 5.19606 -0.830432 0
M  V30 4606 O 417.272 5.48809 -1.50989 0
M  V30 4607 N 418.474 5.79366 0.362696 0
M  V30 4608 H 421.239 2.36856 -1.83628 0
M  V30 4609 H 418.8 1.18518 -1.10296 0
M  V30 4610 H 420.792 4.04657 0.0587633 0
M  V30 4611 H 419.362 3.0843 0.508891 0
M  V30 4612 H 418.582 3.42392 -1.9535 0
M  V30 4613 H 419.87 4.63226 -2.10474 0
M  V30 4614 H 419.268 5.57968 0.932081 0
M  V30 4615 H 417.825 6.48106 0.69299 0
M  V30 4616 N 421.258 1.00505 1.21394 0
M  V30 4617 C 422.535 0.603277 1.86064 0
M  V30 4618 C 422.915 -0.919095 1.90042 0
M  V30 4619 O 422.263 -1.80607 1.39977 0
M  V30 4620 C 422.473 1.23772 3.26315 0
M  V30 4621 C 423.821 1.34586 4.02705 0
M  V30 4622 O 424.845 1.19304 3.35626 0
M  V30 4623 O 423.704 1.59169 5.22807 0
M  V30 4624 H 420.798 0.206634 0.800769 0
M  V30 4625 H 423.344 1.1017 1.29076 0
M  V30 4626 H 422.116 2.27848 3.18121 0
M  V30 4627 H 421.739 0.725648 3.90922 0
M  V30 4628 N 422.737 -1.36956 0.779787 0
M  V30 4629 C 424.153 -1.52817 0.460342 0
M  V30 4630 C 424.353 -1.7361 -1.02283 0
M  V30 4631 O 423.409 -1.76207 -1.80852 0
M  V30 4632 C 424.722 -2.71983 1.28241 0
M  V30 4633 C 426.27 -2.85849 1.27512 0
M  V30 4634 C 426.745 -4.08008 2.08072 0
M  V30 4635 N 428.236 -4.15135 2.05467 0
M  V30 4636 C 428.971 -5.08711 2.64577 0
M  V30 4637 N 428.467 -6.07792 3.32506 0
M  V30 4638 N 430.26 -5.01254 2.54363 0
M  V30 4639 H 422.411 -1.21713 1.74068 0
M  V30 4640 H 424.674 -0.593294 0.739396 0
M  V30 4641 H 424.38 -2.63109 2.33381 0
M  V30 4642 H 424.254 -3.65882 0.917088 0
M  V30 4643 H 426.641 -2.94189 0.231686 0
M  V30 4644 H 426.722 -1.92886 1.68014 0
M  V30 4645 H 426.366 -4.00429 3.12441 0
M  V30 4646 H 426.296 -5.001 1.64947 0
M  V30 4647 H 428.787 -3.44189 1.5602 0
M  V30 4648 H 429.1 -6.75739 3.74963 0
M  V30 4649 H 427.445 -6.08047 3.36606 0
M  V30 4650 H 430.636 -4.22795 2.00902 0
M  V30 4651 H 430.809 -5.73995 3.00722 0
M  V30 4652 N 424.215 -0.530993 -1.48385 0
M  V30 4653 C 425.463 0.00273189 -2.021 0
M  V30 4654 C 425.784 1.34672 -1.41027 0
M  V30 4655 O 425.054 1.8724 -0.576012 0
M  V30 4656 H 423.634 0.00399774 -0.746989 0
M  V30 4657 H 426.296 -0.695054 -1.82085 0
M  V30 4658 H 425.392 0.11031 -3.11905 0
M  V30 4659 N 425.693 1.55336 -0.266172 0
M  V30 4660 C 426.623 2.25146 0.618981 0
M  V30 4661 C 427.604 1.23845 1.16604 0
M  V30 4662 O 428.789 1.52544 1.20183 0
M  V30 4663 C 425.919 2.96572 1.80728 0
M  V30 4664 C 424.873 4.04726 1.39215 0
M  V30 4665 C 424.199 4.63678 2.66283 0
M  V30 4666 C 425.499 5.19407 0.548942 0
M  V30 4667 H 427.193 2.99377 0.0368116 0
M  V30 4668 H 424.739 1.43991 0.0162651 0
M  V30 4669 H 426.692 3.44116 2.43232 0
M  V30 4670 H 425.416 2.19861 2.41514 0
M  V30 4671 H 424.075 3.57979 0.790351 0
M  V30 4672 H 423.723 3.83646 3.25308 0
M  V30 4673 H 423.423 5.367 2.39222 0
M  V30 4674 H 424.947 5.13967 3.29651 0
M  V30 4675 H 426.361 5.63059 1.07876 0
M  V30 4676 H 424.758 5.98936 0.373593 0
M  V30 4677 H 425.828 4.8295 -0.434394 0
M  V30 4678 N 427.171 -0.0066808 1.57599 0
M  V30 4679 C 428.396 -0.707738 1.94951 0
M  V30 4680 C 428.821 -1.66882 0.867868 0
M  V30 4681 O 428.179 -1.80457 -0.17458 0
M  V30 4682 C 428.227 -1.42162 3.31394 0
M  V30 4683 O 427.331 -2.53578 3.25226 0
M  V30 4684 H 426.672 -0.188752 0.636607 0
M  V30 4685 H 429.202 0.0445193 2.04552 0
M  V30 4686 H 429.212 -1.78655 3.66806 0
M  V30 4687 H 427.887 -0.716903 4.09675 0
M  V30 4688 H 426.464 -2.19463 3.01481 0
M  V30 4689 N 428.649 -1.55105 -0.279332 0
M  V30 4690 C 429.596 -1.8755 -1.34513 0
M  V30 4691 C 430.566 -0.726384 -1.49375 0
M  V30 4692 O 431.751 -0.977063 -1.63884 0
M  V30 4693 C 428.891 -2.14738 -2.70151 0
M  V30 4694 C 428.004 -3.42285 -2.63562 0
M  V30 4695 C 427.139 -3.59206 -3.91337 0
M  V30 4696 C 426.178 -4.80467 -3.79233 0
M  V30 4697 N 425.315 -4.94079 -4.98829 0
M  V30 4698 H 430.155 -2.78456 -1.06143 0
M  V30 4699 H 427.692 -1.37867 -0.512936 0
M  V30 4700 H 429.65 -2.28501 -3.49061 0
M  V30 4701 H 428.28 -1.27075 -2.96735 0
M  V30 4702 H 427.332 -3.37029 -1.76397 0
M  V30 4703 H 428.644 -4.31328 -2.50515 0
M  V30 4704 H 427.798 -3.72751 -4.78687 0
M  V30 4705 H 426.537 -2.68337 -4.07243 0
M  V30 4706 H 425.542 -4.66932 -2.90266 0
M  V30 4707 H 426.767 -5.72765 -3.64852 0
M  V30 4708 H 424.713 -4.06139 -5.15158 0
M  V30 4709 H 424.63 -5.77156 -4.8829 0
M  V30 4710 H 425.898 -5.12003 -5.8777 0
M  V30 4711 N 430.127 0.543554 -1.4793 0
M  V30 4712 C 431.357 1.32324 -1.58663 0
M  V30 4713 C 431.765 1.8766 -0.240896 0
M  V30 4714 O 431.108 1.66411 0.778011 0
M  V30 4715 C 431.17 2.52094 -2.56299 0
M  V30 4716 C 430.834 2.17944 -4.01683 0
M  V30 4717 C 431.831 1.74422 -4.89768 0
M  V30 4718 C 429.516 2.28884 -4.47121 0
M  V30 4719 C 431.51 1.42287 -6.21316 0
M  V30 4720 C 429.197 1.96361 -5.78693 0
M  V30 4721 C 430.195 1.53132 -6.65612 0
M  V30 4722 O 429.883 1.21029 -7.94737 0
M  V30 4723 H 429.615 0.409174 -0.538101 0
M  V30 4724 H 432.169 0.663887 -1.94375 0
M  V30 4725 H 430.399 3.20965 -2.15681 0
M  V30 4726 H 432.088 3.14165 -2.57012 0
M  V30 4727 H 432.854 1.65452 -4.55907 0
M  V30 4728 H 428.733 2.61488 -3.79664 0
M  V30 4729 H 432.277 1.08472 -6.89115 0
M  V30 4730 H 428.174 2.04967 -6.12094 0
M  V30 4731 H 428.942 1.34543 -8.07366 0
M  V30 4732 N 431.605 1.3629 0.791371 0
M  V30 4733 C 433.016 1.27225 1.36641 0
M  V30 4734 C 433.367 -0.0887968 1.95999 0
M  V30 4735 O 432.492 -0.990207 1.92416 0
M  V30 4736 C 433.087 2.30375 2.48421 0
M  V30 4737 C 431.646 2.25004 3.01746 0
M  V30 4738 C 430.793 2.15259 1.7481 0
M  V30 4739 H 433.744 1.47198 0.593173 0
M  V30 4740 H 433.765 1.93905 3.27385 0
M  V30 4741 H 433.277 3.29422 2.05189 0
M  V30 4742 H 431.378 1.29417 3.49403 0
M  V30 4743 H 431.491 3.1761 3.58693 0
M  V30 4744 H 429.855 1.61482 1.96966 0
M  V30 4745 H 430.638 3.16191 1.33709 0
M  V30 4746 N 433.083 -1.0153 1.20538 0
M  V30 4747 C 434.031 -2.12215 0.952235 0
M  V30 4748 C 435.025 -1.69123 -0.0968735 0
M  V30 4749 O 436.231 -1.7992 0.0536006 0
M  V30 4750 H 432.606 -0.693576 0.290613 0
M  V30 4751 H 434.577 -2.3075 1.89201 0
M  V30 4752 C 433.326 -3.43755 0.522287 0
M  V30 4753 H 432.649 -3.7734 1.32115 0
M  V30 4754 H 434.089 -4.22254 0.384389 0
M  V30 4755 C 432.548 -3.28088 -0.765489 0
M  V30 4756 O 433.078 -3.57921 -1.8236 0
M  V30 4757 N 431.284 -2.81333 -0.728011 0
M  V30 4758 H 430.831 -2.57255 0.133332 0
M  V30 4759 H 430.789 -2.71232 -1.58999 0
M  V30 4760 N 434.561 -1.01147 -1.20859 0
M  V30 4761 C 435.491 -0.597663 -2.25722 0
M  V30 4762 C 436.472 0.384744 -1.65692 0
M  V30 4763 O 437.657 0.271303 -1.92296 0
M  V30 4764 C 434.787 0.0700149 -3.47229 0
M  V30 4765 C 433.741 -0.832843 -4.19819 0
M  V30 4766 C 433.067 -0.0312202 -5.34691 0
M  V30 4767 C 434.367 -2.1385 -4.76514 0
M  V30 4768 H 436.061 -1.47423 -2.60589 0
M  V30 4769 H 433.607 -0.710301 -1.25263 0
M  V30 4770 H 435.56 0.37103 -4.19763 0
M  V30 4771 H 434.284 0.981259 -3.11511 0
M  V30 4772 H 432.943 -1.11778 -3.49144 0
M  V30 4773 H 432.591 0.881515 -4.95215 0
M  V30 4774 H 432.291 -0.632434 -5.84187 0
M  V30 4775 H 433.815 0.26346 -6.10031 0
M  V30 4776 H 435.229 -1.9002 -5.40893 0
M  V30 4777 H 433.626 -2.69012 -5.36426 0
M  V30 4778 H 434.696 -2.80495 -3.95538 0
M  V30 4779 N 436.039 1.36541 -0.78704 0
M  V30 4780 C 436.969 2.32659 -0.197992 0
M  V30 4781 C 437.95 1.56533 0.665697 0
M  V30 4782 O 439.135 1.84698 0.60001 0
M  V30 4783 C 436.265 3.40778 0.669901 0
M  V30 4784 C 435.219 4.27897 -0.0937039 0
M  V30 4785 C 434.545 5.27163 0.894629 0
M  V30 4786 C 435.845 5.06334 -1.28154 0
M  V30 4787 H 437.539 2.82171 -1.00099 0
M  V30 4788 H 435.085 1.35665 -0.482793 0
M  V30 4789 H 437.038 4.07008 1.09191 0
M  V30 4790 H 435.762 2.89827 1.50558 0
M  V30 4791 H 434.421 3.6322 -0.49666 0
M  V30 4792 H 434.069 4.72486 1.72527 0
M  V30 4793 H 433.769 5.86317 0.388149 0
M  V30 4794 H 435.293 5.96266 1.31525 0
M  V30 4795 H 436.707 5.65617 -0.93541 0
M  V30 4796 H 435.104 5.74888 -1.72115 0
M  V30 4797 H 436.174 4.38114 -2.07807 0
M  V30 4798 N 437.518 0.538854 1.48102 0
M  V30 4799 C 438.466 -0.232325 2.31437 0
M  V30 4800 C 439.46 -0.927004 1.41785 0
M  V30 4801 O 440.666 -0.850378 1.58646 0
M  V30 4802 H 437.041 -0.0937916 0.746128 0
M  V30 4803 H 439.012 0.489986 2.9435 0
M  V30 4804 C 437.761 -1.26074 3.24038 0
M  V30 4805 H 437.084 -0.735609 3.92974 0
M  V30 4806 H 438.524 -1.77157 3.85216 0
M  V30 4807 C 436.983 -2.29902 2.46265 0
M  V30 4808 O 437.513 -3.36502 2.19384 0
M  V30 4809 N 435.719 -2.03348 2.07601 0
M  V30 4810 H 435.266 -1.16675 2.29662 0
M  V30 4811 H 435.224 -2.73038 1.55877 0
M  V30 4812 N 438.996 -1.55193 0.274407 0
M  V30 4813 C 439.928 -2.1989 -0.646595 0
M  V30 4814 C 440.941 -1.1834 -1.11801 0
M  V30 4815 O 442.13 -1.4507 -1.04004 0
M  V30 4816 C 439.23 -2.8104 -1.89393 0
M  V30 4817 C 438.403 -4.08274 -1.56943 0
M  V30 4818 C 437.462 -4.53478 -2.66916 0
M  V30 4819 O 436.488 -5.19267 -2.33132 0
M  V30 4820 N 437.69 -4.2356 -3.9696 0
M  V30 4821 H 440.455 -2.99556 -0.0928686 0
M  V30 4822 H 438.016 -1.61618 0.0954783 0
M  V30 4823 H 440.008 -3.08226 -2.62257 0
M  V30 4824 H 438.578 -2.05372 -2.35672 0
M  V30 4825 H 437.798 -3.88384 -0.674655 0
M  V30 4826 H 439.086 -4.91173 -1.32764 0
M  V30 4827 H 438.484 -3.70799 -4.27229 0
M  V30 4828 H 437.041 -4.55518 -4.66205 0
M  V30 4829 N 440.474 -0.00167713 -1.576 0
M  V30 4830 C 441.404 0.988091 -2.11563 0
M  V30 4831 C 442.385 1.35736 -1.02517 0
M  V30 4832 O 443.57 1.44082 -1.30208 0
M  V30 4833 C 440.7 2.27941 -2.62031 0
M  V30 4834 C 439.654 2.0517 -3.75619 0
M  V30 4835 C 438.98 3.4033 -4.12407 0
M  V30 4836 C 440.28 1.41294 -5.02825 0
M  V30 4837 H 441.974 0.538771 -2.94513 0
M  V30 4838 H 439.52 0.257712 -1.41675 0
M  V30 4839 H 441.473 2.97539 -2.9841 0
M  V30 4840 H 440.197 2.74989 -1.76205 0
M  V30 4841 H 438.856 1.37998 -3.39635 0
M  V30 4842 H 438.504 3.85085 -3.23603 0
M  V30 4843 H 438.204 3.25909 -4.88935 0
M  V30 4844 H 439.728 4.1124 -4.51347 0
M  V30 4845 H 441.142 2.00851 -5.36965 0
M  V30 4846 H 439.539 1.37356 -5.84169 0
M  V30 4847 H 440.609 0.382362 -4.8339 0
M  V30 4848 N 441.952 1.55251 0.271103 0
M  V30 4849 C 442.882 1.9127 1.33933 0
M  V30 4850 C 443.863 0.77478 1.5143 0
M  V30 4851 O 445.048 1.03307 1.64442 0
M  V30 4852 C 442.178 2.18627 2.69851 0
M  V30 4853 C 441.132 3.34442 2.67081 0
M  V30 4854 C 440.458 3.47284 4.06569 0
M  V30 4855 C 441.758 4.70784 2.26185 0
M  V30 4856 H 443.452 2.80744 1.04035 0
M  V30 4857 H 440.998 1.35077 0.499017 0
M  V30 4858 H 442.951 2.42413 3.44694 0
M  V30 4859 H 441.675 1.25955 3.01335 0
M  V30 4860 H 440.334 3.10627 1.94695 0
M  V30 4861 H 439.982 2.52074 4.35279 0
M  V30 4862 H 439.682 4.25152 4.0561 0
M  V30 4863 H 441.206 3.73363 4.83148 0
M  V30 4864 H 442.62 4.94102 2.90751 0
M  V30 4865 H 441.017 5.51582 2.36384 0
M  V30 4866 H 442.087 4.69478 1.21319 0
M  V30 4867 N 443.43 -0.535701 1.48216 0
M  V30 4868 C 444.707 -1.29683 1.46429 0
M  V30 4869 C 445.087 -2.10391 0.172852 0
M  V30 4870 O 444.435 -2.12282 -0.845488 0
M  V30 4871 C 444.645 -2.18313 2.72287 0
M  V30 4872 C 445.993 -2.78639 3.20383 0
M  V30 4873 O 447.017 -2.28604 2.73164 0
M  V30 4874 O 445.876 -3.69636 4.02531 0
M  V30 4875 H 442.97 -0.585026 0.584529 0
M  V30 4876 H 445.516 -0.552827 1.60443 0
M  V30 4877 H 444.288 -1.58421 3.57797 0
M  V30 4878 H 443.911 -2.99971 2.60966 0
M  V30 4879 N 444.908 -1.36708 -0.784132 0
M  V30 4880 C 445.838 -1.34153 -1.91116 0
M  V30 4881 C 446.819 -0.212121 -1.68772 0
M  V30 4882 O 448.004 -0.410581 -1.8981 0
M  V30 4883 C 445.134 -1.13535 -3.28218 0
M  V30 4884 C 444.088 -2.23356 -3.65097 0
M  V30 4885 C 443.414 -1.87875 -5.00607 0
M  V30 4886 C 444.714 -3.65473 -3.73131 0
M  V30 4887 H 446.408 -2.28459 -1.93512 0
M  V30 4888 H 443.954 -1.09973 -0.929618 0
M  V30 4889 H 445.907 -1.10381 -4.06687 0
M  V30 4890 H 444.631 -0.156804 -3.26223 0
M  V30 4891 H 443.29 -2.25645 -2.88929 0
M  V30 4892 H 442.938 -0.885814 -4.95139 0
M  V30 4893 H 442.638 -2.61406 -5.26252 0
M  V30 4894 H 444.162 -1.86286 -5.81489 0
M  V30 4895 H 445.576 -3.65382 -4.41779 0
M  V30 4896 H 443.973 -4.37953 -4.10265 0
M  V30 4897 H 445.043 -3.99995 -2.74102 0
M  V30 4898 N 446.386 1.0089 -1.21074 0
M  V30 4899 C 447.318 2.09737 -0.924291 0
M  V30 4900 C 448.331 1.62546 0.0909809 0
M  V30 4901 O 449.52 1.77942 -0.141021 0
M  V30 4902 C 446.62 3.36922 -0.36559 0
M  V30 4903 C 445.793 4.13216 -1.43426 0
M  V30 4904 C 444.852 5.18696 -0.885496 0
M  V30 4905 O 443.878 5.47176 -1.56801 0
M  V30 4906 N 445.08 5.79718 0.301227 0
M  V30 4907 H 447.845 2.34895 -1.8613 0
M  V30 4908 H 445.406 1.17341 -1.11546 0
M  V30 4909 H 447.398 4.04697 0.0158407 0
M  V30 4910 H 445.968 3.08952 0.476149 0
M  V30 4911 H 445.188 3.40301 -1.9897 0
M  V30 4912 H 446.476 4.60967 -2.15376 0
M  V30 4913 H 445.874 5.58926 0.872849 0
M  V30 4914 H 444.431 6.48804 0.624211 0
M  V30 4915 N 447.864 1.01787 1.20321 0
M  V30 4916 C 449.275 0.739307 1.71438 0
M  V30 4917 C 449.626 -0.742041 1.81627 0
M  V30 4918 O 448.751 -1.57903 1.47971 0
M  V30 4919 C 449.346 1.33538 3.11373 0
M  V30 4920 C 447.905 1.10566 3.59795 0
M  V30 4921 C 447.052 1.44028 2.36962 0
M  V30 4922 H 450.003 1.18718 1.05317 0
M  V30 4923 H 450.024 0.726611 3.73498 0
M  V30 4924 H 449.536 2.41352 3.03926 0
M  V30 4925 H 447.637 0.0452405 3.72573 0
M  V30 4926 H 447.75 1.78661 4.44542 0
M  V30 4927 H 446.114 0.85933 2.39766 0
M  V30 4928 H 446.897 2.52901 2.32155 0
M  V30 4929 N 449.342 -1.36122 0.79427 0
M  V30 4930 C 450.567 -2.03891 0.379871 0
M  V30 4931 C 450.992 -1.59488 -0.997251 0
M  V30 4932 O 450.35 -0.765652 -1.64339 0
M  V30 4933 C 450.398 -3.57687 0.457442 0
M  V30 4934 O 449.502 -4.08931 -0.5338 0
M  V30 4935 H 448.843 -0.6443 0.160541 0
M  V30 4936 H 451.373 -1.73976 1.07673 0
M  V30 4937 H 451.383 -4.06721 0.322792 0
M  V30 4938 H 450.058 -3.89357 1.46199 0
M  V30 4939 H 448.635 -3.71154 -0.360409 0
M  V30 4940 N 450.82 -0.546701 -1.47814 0
M  V30 4941 C 451.77 0.227042 -2.26867 0
M  V30 4942 C 452.754 0.894844 -1.33721 0
M  V30 4943 O 453.946 0.794887 -1.58147 0
M  V30 4944 C 451.075 1.26299 -3.19223 0
M  V30 4945 C 450.161 0.59913 -4.19847 0
M  V30 4946 N 450.552 -0.324777 -5.04756 0
M  V30 4947 C 448.85 0.854331 -4.37741 0
M  V30 4948 C 449.551 -0.709386 -5.77358 0
M  V30 4949 N 448.527 -0.0666153 -5.43559 0
M  V30 4950 H 452.329 -0.483476 -2.89896 0
M  V30 4951 H 449.843 -0.365893 -1.58224 0
M  V30 4952 H 451.84 1.83116 -3.74532 0
M  V30 4953 H 450.5 1.97471 -2.57751 0
M  V30 4954 H 451.511 -0.698351 -5.1317 0
M  V30 4955 H 448.188 1.55536 -3.87447 0
M  V30 4956 H 449.578 -1.46796 -6.55668 0
M  V30 4957 N 452.299 1.55045 -0.282633 0
M  V30 4958 C 453.524 2.04628 0.337977 0
M  V30 4959 C 453.949 1.15937 1.48123 0
M  V30 4960 O 453.307 0.159532 1.80597 0
M  V30 4961 C 453.355 3.51854 0.78936 0
M  V30 4962 O 452.459 3.66236 1.89592 0
M  V30 4963 H 451.8 0.660434 0.0687261 0
M  V30 4964 H 454.33 2.00261 -0.419124 0
M  V30 4965 H 454.34 3.93361 1.08311 0
M  V30 4966 H 453.015 4.15873 -0.0470419 0
M  V30 4967 H 451.592 3.36633 1.60413 0
M  V30 4968 N 453.777 0.010035 1.57597 0
M  V30 4969 C 455.002 -0.687021 1.95691 0
M  V30 4970 C 455.427 -1.65952 0.885519 0
M  V30 4971 O 454.785 -1.80633 -0.15543 0
M  V30 4972 C 454.833 -1.3864 3.32884 0
M  V30 4973 O 453.937 -2.50115 3.27897 0
M  V30 4974 H 453.278 -0.181989 0.638573 0
M  V30 4975 H 455.808 0.0662122 2.04493 0
M  V30 4976 H 455.818 -1.74754 3.6868 0
M  V30 4977 H 454.493 -0.673411 4.10412 0
M  V30 4978 H 453.07 -2.16253 3.03791 0
M  V30 4979 N 455.255 -1.55392 -0.262866 0
M  V30 4980 C 456.666 -1.67079 -0.833158 0
M  V30 4981 C 457.017 -0.604539 -1.86654 0
M  V30 4982 O 456.142 0.252138 -2.14926 0
M  V30 4983 C 456.737 -3.02891 -1.51797 0
M  V30 4984 C 455.296 -3.16571 -2.03617 0
M  V30 4985 C 454.443 -2.62909 -0.881701 0
M  V30 4986 H 457.394 -1.58652 -0.0389986 0
M  V30 4987 H 457.415 -2.96445 -2.38538 0
M  V30 4988 H 456.927 -3.80473 -0.765619 0
M  V30 4989 H 455.028 -2.43782 -2.81782 0
M  V30 4990 H 455.141 -4.23271 -2.24452 0
M  V30 4991 H 453.505 -2.20324 -1.27786 0
M  V30 4992 H 454.288 -3.43003 -0.14269 0
M  V30 4993 N 456.733 0.527833 -1.48498 0
M  V30 4994 C 457.963 1.30633 -1.60058 0
M  V30 4995 C 458.371 1.87394 -0.260786 0
M  V30 4996 O 457.714 1.67227 0.760317 0
M  V30 4997 C 457.776 2.49361 -2.58958 0
M  V30 4998 C 457.44 2.13671 -4.03972 0
M  V30 4999 C 458.437 1.69217 -4.91591 0
M  V30 5000 C 456.122 2.24129 -4.49524 0
M  V30 5001 C 458.116 1.35689 -6.2279 0
M  V30 5002 C 455.803 1.90212 -5.80743 0
M  V30 5003 C 456.801 1.46063 -6.67199 0
M  V30 5004 O 456.489 1.12593 -7.95976 0
M  V30 5005 H 456.221 0.403444 -0.54241 0
M  V30 5006 H 458.775 0.643233 -1.95068 0
M  V30 5007 H 457.005 3.18659 -2.19073 0
M  V30 5008 H 458.694 3.11421 -2.6033 0
M  V30 5009 H 459.46 1.60607 -4.57636 0
M  V30 5010 H 455.339 2.57447 -3.82416 0
M  V30 5011 H 458.883 1.01157 -6.90227 0
M  V30 5012 H 454.78 1.98464 -6.14233 0
M  V30 5013 H 455.548 1.25972 -8.08748 0
M  V30 5014 N 458.211 1.37122 0.776871 0
M  V30 5015 C 459.141 1.35164 1.90402 0
M  V30 5016 C 460.122 0.221069 1.68657 0
M  V30 5017 O 461.307 0.420642 1.8959 0
M  V30 5018 C 458.437 1.15274 3.27611 0
M  V30 5019 C 457.391 2.25289 3.63908 0
M  V30 5020 C 456.717 1.90527 4.99603 0
M  V30 5021 C 458.017 3.67446 3.71188 0
M  V30 5022 H 459.711 2.29482 1.92297 0
M  V30 5023 H 457.257 1.10465 0.923773 0
M  V30 5024 H 459.21 1.12536 4.06096 0
M  V30 5025 H 457.934 0.174102 3.26136 0
M  V30 5026 H 456.593 2.27174 2.87728 0
M  V30 5027 H 456.241 0.91206 4.94662 0
M  V30 5028 H 455.941 2.64193 5.24858 0
M  V30 5029 H 457.465 1.89367 5.80493 0
M  V30 5030 H 458.879 3.67719 4.39836 0
M  V30 5031 H 457.276 4.40123 4.07936 0
M  V30 5032 H 458.346 4.01443 2.71977 0
M  V30 5033 N 459.689 -1.00246 1.21608 0
M  V30 5034 C 460.938 -1.73476 1.02902 0
M  V30 5035 C 461.251 -1.90643 -0.437561 0
M  V30 5036 O 462.457 -2.61105 -0.74407 0
M  V30 5037 C 460.913 -3.12079 1.79261 0
M  V30 5038 C 460.521 -3.02877 3.30106 0
M  V30 5039 C 462.265 -3.89421 1.68972 0
M  V30 5040 C 460.172 -4.36575 3.98944 0
M  V30 5041 H 459.102 -0.650408 0.381425 0
M  V30 5042 H 461.753 -1.11985 1.45367 0
M  V30 5043 H 460.135 -3.74196 1.2959 0
M  V30 5044 H 461.309 -2.49983 3.87098 0
M  V30 5045 H 459.624 -2.39022 3.40965 0
M  V30 5046 H 462.221 -4.88362 2.17731 0
M  V30 5047 H 462.564 -4.1122 0.648397 0
M  V30 5048 H 463.097 -3.33963 2.16133 0
M  V30 5049 H 459.836 -4.19978 5.03288 0
M  V30 5050 H 459.356 -4.8942 3.4674 0
M  V30 5051 H 461.035 -5.05364 4.04 0
M  V30 5052 N 461.167 -1.02423 -1.1978 0
M  V30 5053 C 462.13 -0.605703 -2.21052 0
M  V30 5054 C 463.13 0.328209 -1.57415 0
M  V30 5055 O 464.32 0.115853 -1.73814 0
M  V30 5056 C 461.452 0.114366 -3.40708 0
M  V30 5057 H 462.645 -1.5017 -2.59594 0
M  V30 5058 H 460.198 -0.814888 -1.33376 0
M  V30 5059 H 460.933 1.02492 -3.07678 0
M  V30 5060 H 460.718 -0.556641 -3.88129 0
M  V30 5061 H 462.208 0.394272 -4.15735 0
M  V30 5062 N 462.645 1.35699 -0.801477 0
M  V30 5063 C 463.892 1.98913 -0.379459 0
M  V30 5064 C 464.22 1.63592 1.05204 0
M  V30 5065 O 463.475 0.888563 1.74365 0
M  V30 5066 C 463.774 3.53828 -0.504041 0
M  V30 5067 C 463.44 4.09002 -1.8981 0
M  V30 5068 C 462.102 4.23783 -2.27951 0
M  V30 5069 C 464.454 4.38939 -2.81038 0
M  V30 5070 C 461.782 4.65816 -3.56696 0
M  V30 5071 C 464.134 4.82409 -4.09224 0
M  V30 5072 C 462.798 4.95395 -4.4737 0
M  V30 5073 H 462.068 0.727874 -0.138854 0
M  V30 5074 H 464.715 1.61994 -1.02128 0
M  V30 5075 H 463.02 3.91175 0.221242 0
M  V30 5076 H 464.717 4.00687 -0.158361 0
M  V30 5077 H 461.307 3.97946 -1.59176 0
M  V30 5078 H 465.491 4.27077 -2.52821 0
M  V30 5079 H 460.747 4.74059 -3.86106 0
M  V30 5080 H 464.921 5.04535 -4.80018 0
M  V30 5081 H 462.548 5.27724 -5.47185 0
M  V30 5082 N 464.123 0.554532 1.47522 0
M  V30 5083 C 465.053 -0.182974 2.32782 0
M  V30 5084 C 466.034 -0.911377 1.43624 0
M  V30 5085 O 467.219 -0.892366 1.72483 0
M  V30 5086 C 464.349 -1.21513 3.25349 0
M  V30 5087 C 463.303 -0.603355 4.23726 0
M  V30 5088 C 462.629 -1.73995 5.05598 0
M  V30 5089 C 463.929 0.441121 5.20434 0
M  V30 5090 H 465.623 0.52882 2.94693 0
M  V30 5091 H 463.169 0.255759 1.41711 0
M  V30 5092 H 465.122 -1.73922 3.83835 0
M  V30 5093 H 463.846 -1.95683 2.61487 0
M  V30 5094 H 462.505 -0.10059 3.66462 0
M  V30 5095 H 462.153 -2.47063 4.38143 0
M  V30 5096 H 461.853 -1.3364 5.72201 0
M  V30 5097 H 463.377 -2.26735 5.66942 0
M  V30 5098 H 464.791 0.00319931 5.733 0
M  V30 5099 H 463.188 0.763402 5.95224 0
M  V30 5100 H 464.258 1.33799 4.66075 0
M  V30 5101 N 465.601 -1.54893 0.290851 0
M  V30 5102 C 466.847 -2.0023 -0.321867 0
M  V30 5103 C 467.18 -1.179 -1.54316 0
M  V30 5104 O 466.455 -0.25293 -1.92848 0
M  V30 5105 C 466.738 -3.53456 -0.688515 0
M  V30 5106 C 466.591 -4.46532 0.541209 0
M  V30 5107 C 467.91 -4.13057 -1.51895 0
M  V30 5108 H 465.029 -0.727891 -0.115515 0
M  V30 5109 H 467.671 -1.85722 0.400931 0
M  V30 5110 H 465.821 -3.6595 -1.30433 0
M  V30 5111 H 467.493 -4.4596 1.17973 0
M  V30 5112 H 465.736 -4.17545 1.17636 0
M  V30 5113 H 466.407 -5.51475 0.240675 0
M  V30 5114 H 468.883 -4.03937 -0.99872 0
M  V30 5115 H 467.759 -5.20448 -1.74429 0
M  V30 5116 H 468.02 -3.64284 -2.50498 0
M  V30 5117 N 467.08 -0.0183926 -1.57589 0
M  V30 5118 C 468.357 0.700621 -1.82622 0
M  V30 5119 C 468.737 1.90951 -0.90005 0
M  V30 5120 O 468.085 2.28452 0.0469145 0
M  V30 5121 C 468.295 1.08899 -3.31575 0
M  V30 5122 C 469.643 1.48514 -3.9778 0
M  V30 5123 O 470.667 1.18227 -3.36007 0
M  V30 5124 O 469.526 2.04903 -5.06633 0
M  V30 5125 H 466.62 0.342743 -0.752633 0
M  V30 5126 H 469.166 -0.0452548 -1.6964 0
M  V30 5127 H 467.938 0.228113 -3.90635 0
M  V30 5128 H 467.561 1.89338 -3.49624 0
M  V30 5129 N 468.558 1.5553 0.254621 0
M  V30 5130 C 469.807 1.76202 0.981612 0
M  V30 5131 C 470.12 0.580883 1.86776 0
M  V30 5132 O 471.326 0.670448 2.63092 0
M  V30 5133 C 469.782 3.11921 1.79537 0
M  V30 5134 C 469.39 4.37659 0.956991 0
M  V30 5135 C 471.134 3.41936 2.51555 0
M  V30 5136 C 469.041 5.64411 1.76619 0
M  V30 5137 H 467.971 0.656841 0.370237 0
M  V30 5138 H 470.622 1.81969 0.236556 0
M  V30 5139 H 469.004 3.00241 2.58208 0
M  V30 5140 H 470.178 4.60307 0.21315 0
M  V30 5141 H 468.493 4.14922 0.350497 0
M  V30 5142 H 471.09 4.33849 3.12536 0
M  V30 5143 H 471.433 2.62905 3.22779 0
M  V30 5144 H 471.966 3.54797 1.799 0
M  V30 5145 H 468.705 6.46241 1.09783 0
M  V30 5146 H 468.225 5.45877 2.48551 0
M  V30 5147 H 469.904 6.03386 2.33527 0
M  V30 5148 N 470.036 -0.519951 1.48776 0
M  V30 5149 C 471.266 -1.29783 1.60748 0
M  V30 5150 C 471.674 -1.87253 0.27072 0
M  V30 5151 O 471.017 -1.67628 -0.751438 0
M  V30 5152 C 471.079 -2.47984 2.60277 0
M  V30 5153 C 470.743 -2.11526 4.051 0
M  V30 5154 C 471.74 -1.66608 4.92481 0
M  V30 5155 C 469.425 -2.21742 4.50706 0
M  V30 5156 C 471.419 -1.32384 6.23501 0
M  V30 5157 C 469.106 -1.87129 5.81744 0
M  V30 5158 C 470.104 -1.42523 6.67964 0
M  V30 5159 O 469.792 -1.0837 7.96562 0
M  V30 5160 H 469.524 -0.400562 0.544542 0
M  V30 5161 H 472.078 -0.632879 1.95407 0
M  V30 5162 H 470.308 -3.17493 2.2076 0
M  V30 5163 H 471.997 -3.10036 2.61978 0
M  V30 5164 H 472.763 -1.58178 4.58481 0
M  V30 5165 H 468.642 -2.55415 3.83776 0
M  V30 5166 H 472.186 -0.974949 6.90754 0
M  V30 5167 H 468.083 -1.95204 6.15277 0
M  V30 5168 H 468.851 -1.21681 8.09405 0
M  V30 5169 N 471.514 -1.37532 -0.769588 0
M  V30 5170 C 472.424 -1.35668 -1.91393 0
M  V30 5171 C 473.44 -0.255954 -1.72107 0
M  V30 5172 O 474.616 -0.491704 -1.95305 0
M  V30 5173 C 471.681 -1.16481 -3.26547 0
M  V30 5174 C 470.742 -2.36212 -3.58472 0
M  V30 5175 C 469.975 -2.17932 -4.87177 0
M  V30 5176 O 470.198 -1.1647 -5.58382 0
M  V30 5177 O 469.132 -3.06167 -5.18214 0
M  V30 5178 H 472.958 -2.32055 -1.95918 0
M  V30 5179 H 470.543 -1.18284 -0.912641 0
M  V30 5180 H 472.425 -1.07778 -4.07384 0
M  V30 5181 H 471.1 -0.231687 -3.2287 0
M  V30 5182 H 470.007 -2.50488 -2.77861 0
M  V30 5183 H 471.34 -3.281 -3.66894 0
M  V30 5184 N 472.992 0.995999 -1.22138 0
M  V30 5185 C 474.269 1.70834 -0.952642 0
M  V30 5186 C 474.649 2.04257 0.533119 0
M  V30 5187 O 473.997 1.72343 1.50034 0
M  V30 5188 C 474.207 2.96119 -1.84701 0
M  V30 5189 C 475.555 3.68962 -2.10124 0
M  V30 5190 O 476.579 3.0612 -1.82124 0
M  V30 5191 O 475.438 4.82017 -2.57531 0
M  V30 5192 H 472.532 0.745498 -0.357997 0
M  V30 5193 H 475.078 1.05262 -1.33109 0
M  V30 5194 H 473.85 2.67898 -2.85213 0
M  V30 5195 H 473.473 3.6943 -1.46995 0
M  V30 5196 N 474.47 1.03057 1.19235 0
M  V30 5197 C 475.403 0.557384 2.21288 0
M  V30 5198 C 476.381 -0.402675 1.57535 0
M  V30 5199 O 477.565 -0.319376 1.85775 0
M  V30 5200 C 474.692 -0.187041 3.38183 0
M  V30 5201 C 473.738 0.72471 4.20298 0
M  V30 5202 S 474.571 2.20187 4.88137 0
M  V30 5203 C 475.727 1.46801 6.08441 0
M  V30 5204 H 475.96 1.42207 2.61083 0
M  V30 5205 H 473.493 0.840651 1.29508 0
M  V30 5206 H 475.451 -0.610405 4.05936 0
M  V30 5207 H 474.112 -1.02748 2.96819 0
M  V30 5208 H 473.305 0.149911 5.03777 0
M  V30 5209 H 472.907 1.08647 3.57871 0
M  V30 5210 H 475.199 0.755522 6.73274 0
M  V30 5211 H 476.142 2.27946 6.70407 0
M  V30 5212 H 476.55 0.964762 5.56195 0
M  V30 5213 N 475.948 -1.35272 0.808662 0
M  V30 5214 C 476.878 -2.32315 0.234981 0
M  V30 5215 C 477.859 -1.57572 -0.64071 0
M  V30 5216 O 479.044 -1.8563 -0.570551 0
M  V30 5217 C 476.174 -3.41801 -0.615601 0
M  V30 5218 C 475.128 -4.27694 0.161767 0
M  V30 5219 C 474.454 -5.28519 -0.810649 0
M  V30 5220 C 475.754 -5.04231 1.36193 0
M  V30 5221 H 477.448 -2.80543 1.04575 0
M  V30 5222 H 474.994 -1.3488 0.504315 0
M  V30 5223 H 476.947 -4.08693 -1.02702 0
M  V30 5224 H 475.671 -2.92186 -1.45928 0
M  V30 5225 H 474.33 -3.62384 0.554382 0
M  V30 5226 H 473.978 -4.75171 -1.64988 0
M  V30 5227 H 473.678 -5.8686 -0.294822 0
M  V30 5228 H 475.202 -5.98283 -1.22023 0
M  V30 5229 H 476.616 -5.64058 1.02528 0
M  V30 5230 H 475.013 -5.72077 1.81239 0
M  V30 5231 H 476.083 -4.34753 2.14751 0
M  V30 5232 N 477.426 -0.562348 -1.47226 0
M  V30 5233 C 478.336 0.185466 -2.33866 0
M  V30 5234 C 479.352 0.906713 -1.48508 0
M  V30 5235 O 480.528 0.874458 -1.81425 0
M  V30 5236 C 477.593 1.19904 -3.25306 0
M  V30 5237 C 476.654 0.484669 -4.26555 0
M  V30 5238 C 475.887 1.44996 -5.13626 0
M  V30 5239 O 476.11 2.68515 -5.03245 0
M  V30 5240 O 475.044 0.971642 -5.94006 0
M  V30 5241 H 478.87 -0.525361 -2.99121 0
M  V30 5242 H 476.455 -0.322916 -1.45868 0
M  V30 5243 H 478.337 1.78399 -3.81774 0
M  V30 5244 H 477.012 1.8917 -2.62672 0
M  V30 5245 H 475.919 -0.141605 -3.73832 0
M  V30 5246 H 477.252 -0.166634 -4.91918 0
M  V30 5247 N 478.904 1.54736 -0.299062 0
M  V30 5248 C 479.852 2.24897 0.593658 0
M  V30 5249 C 480.846 1.25429 1.13859 0
M  V30 5250 O 482.052 1.43286 1.08945 0
M  V30 5251 H 478.427 0.72207 0.210046 0
M  V30 5252 H 480.398 2.98393 -0.0206421 0
M  V30 5253 C 479.147 3.00159 1.75499 0
M  V30 5254 H 478.47 3.76501 1.34489 0
M  V30 5255 H 479.91 3.52535 2.35574 0
M  V30 5256 C 478.369 2.07015 2.65794 0
M  V30 5257 O 478.899 1.63692 3.66835 0
M  V30 5258 N 477.105 1.73012 2.33485 0
M  V30 5259 H 476.652 2.08439 1.51364 0
M  V30 5260 H 476.61 1.10965 2.94167 0
M  V30 5261 N 480.382 0.0267497 1.57577 0
M  V30 5262 C 481.314 -0.984594 2.06974 0
M  V30 5263 C 482.327 -1.29032 0.992705 0
M  V30 5264 O 483.516 -1.25539 1.26895 0
M  V30 5265 C 480.616 -2.31262 2.47732 0
M  V30 5266 C 479.789 -2.1924 3.78487 0
M  V30 5267 C 478.848 -3.34956 4.05821 0
M  V30 5268 O 477.874 -3.11948 4.76106 0
M  V30 5269 N 479.076 -4.58672 3.55809 0
M  V30 5270 H 481.841 -0.563143 2.94362 0
M  V30 5271 H 479.402 -0.160061 1.61107 0
M  V30 5272 H 481.394 -3.07496 2.63112 0
M  V30 5273 H 479.964 -2.65056 1.65723 0
M  V30 5274 H 479.184 -1.27747 3.72927 0
M  V30 5275 H 480.472 -2.08409 4.64158 0
M  V30 5276 H 479.87 -4.8026 2.98942 0
M  V30 5277 H 478.427 -5.32083 3.76472 0
M  V30 5278 N 481.861 -1.55662 -0.24637 0
M  V30 5279 C 483.101 -1.79283 -0.981685 0
M  V30 5280 C 483.465 -0.596356 -1.82504 0
M  V30 5281 O 484.666 -0.711342 -2.59217 0
M  V30 5282 C 482.937 -3.07648 -1.819 0
M  V30 5283 S 484.496 -3.52491 -2.61334 0
M  V30 5284 H 481.314 -0.629676 -0.330196 0
M  V30 5285 H 483.916 -1.93901 -0.249498 0
M  V30 5286 H 482.62 -3.92794 -1.18915 0
M  V30 5287 H 482.151 -2.95768 -2.59393 0
M  V30 5288 H 484.166 -3.13866 -3.84321 0
M  V30 5289 N 483.339 0.512053 -1.4905 0
M  V30 5290 C 484.616 1.27337 -1.48474 0
M  V30 5291 C 484.996 2.1009 -0.206301 0
M  V30 5292 O 484.344 2.136 0.811609 0
M  V30 5293 C 484.554 2.13954 -2.75726 0
M  V30 5294 C 485.902 2.73507 -3.24776 0
M  V30 5295 O 486.926 2.24229 -2.76767 0
M  V30 5296 O 485.785 3.63186 -4.08361 0
M  V30 5297 H 482.879 0.575652 -0.593762 0
M  V30 5298 H 485.425 0.527232 -1.61302 0
M  V30 5299 H 484.197 1.52709 -3.60272 0
M  V30 5300 H 483.82 2.95782 -2.65705 0
M  V30 5301 N 484.817 1.37938 0.762283 0
M  V30 5302 C 485.765 1.34569 1.89721 0
M  V30 5303 C 486.759 0.232929 1.67791 0
M  V30 5304 O 487.965 0.401485 1.75465 0
M  V30 5305 H 484.34 0.419594 0.624055 0
M  V30 5306 H 486.311 2.30357 1.8968 0
M  V30 5307 C 485.06 1.17898 3.27101 0
M  V30 5308 H 484.383 2.02781 3.44558 0
M  V30 5309 H 485.823 1.19593 4.06784 0
M  V30 5310 C 484.282 -0.114728 3.36705 0
M  V30 5311 O 484.812 -1.0949 3.8649 0
M  V30 5312 N 483.018 -0.16863 2.9011 0
M  V30 5313 H 482.565 0.62967 2.49786 0
M  V30 5314 H 482.523 -1.03383 2.96916 0
M  V30 5315 N 486.295 -0.989507 1.22664 0
M  V30 5316 C 487.242 -2.08024 0.999733 0
M  V30 5317 C 488.212 -1.65909 -0.0797047 0
M  V30 5318 O 489.397 -1.90669 0.0705715 0
M  V30 5319 C 486.537 -3.40067 0.587234 0
M  V30 5320 C 485.65 -3.95505 1.73781 0
M  V30 5321 C 484.785 -5.15722 1.27297 0
M  V30 5322 C 483.824 -5.63305 2.39488 0
M  V30 5323 N 482.961 -6.74758 1.94026 0
M  V30 5324 H 487.801 -2.26768 1.9334 0
M  V30 5325 H 485.338 -1.11171 0.963297 0
M  V30 5326 H 487.296 -4.15899 0.329227 0
M  V30 5327 H 485.926 -3.21314 -0.309426 0
M  V30 5328 H 484.978 -3.16513 2.11006 0
M  V30 5329 H 486.29 -4.26797 2.58158 0
M  V30 5330 H 485.444 -5.98854 0.972546 0
M  V30 5331 H 484.183 -4.86061 0.399445 0
M  V30 5332 H 483.188 -4.78759 2.70315 0
M  V30 5333 H 484.413 -5.94988 3.27362 0
M  V30 5334 H 482.359 -6.46874 1.09041 0
M  V30 5335 H 482.276 -7.05386 2.71968 0
M  V30 5336 H 483.544 -7.61387 1.67062 0
M  V30 5337 N 487.773 -1.03688 -1.18687 0
M  V30 5338 C 488.683 -0.634908 -2.25845 0
M  V30 5339 C 489.699 0.337065 -1.70704 0
M  V30 5340 O 490.875 0.192943 -2.00474 0
M  V30 5341 C 487.94 -0.000180054 -3.467 0
M  V30 5342 C 487.001 -1.02067 -4.1699 0
M  V30 5343 C 486.234 -0.41614 -5.32075 0
M  V30 5344 O 486.457 0.778712 -5.65059 0
M  V30 5345 O 485.391 -1.14296 -5.90948 0
M  V30 5346 H 489.217 -1.52757 -2.62486 0
M  V30 5347 H 486.802 -0.807533 -1.25695 0
M  V30 5348 H 488.684 0.353342 -4.19916 0
M  V30 5349 H 487.359 0.866367 -3.11891 0
M  V30 5350 H 486.266 -1.42592 -3.45859 0
M  V30 5351 H 487.599 -1.85786 -4.5579 0
M  V30 5352 N 489.251 1.34841 -0.815825 0
M  V30 5353 C 490.528 1.92908 -0.323416 0
M  V30 5354 C 490.908 1.74479 1.18828 0
M  V30 5355 O 490.256 1.11928 1.99209 0
M  V30 5356 C 490.466 3.40957 -0.744952 0
M  V30 5357 C 491.814 4.18107 -0.739716 0
M  V30 5358 O 492.838 3.49511 -0.68708 0
M  V30 5359 O 491.697 5.40517 -0.806456 0
M  V30 5360 H 488.791 0.822436 -0.0867646 0
M  V30 5361 H 491.337 1.4386 -0.90014 0
M  V30 5362 H 490.109 3.4814 -1.78646 0
M  V30 5363 H 489.732 3.97341 -0.143535 0
M  V30 5364 N 490.729 0.570148 1.46925 0
M  V30 5365 C 491.978 0.0487352 2.01641 0
M  V30 5366 C 492.291 -1.31433 1.44861 0
M  V30 5367 O 493.497 -1.92638 1.91318 0
M  V30 5368 C 491.953 0.0365817 3.59881 0
M  V30 5369 C 491.561 1.39719 4.25655 0
M  V30 5370 C 493.305 -0.431545 4.22301 0
M  V30 5371 C 491.212 1.34345 5.75939 0
M  V30 5372 H 490.142 0.0144492 0.753862 0
M  V30 5373 H 492.793 0.719928 1.68788 0
M  V30 5374 H 491.175 -0.700522 3.89755 0
M  V30 5375 H 492.349 2.15303 4.07408 0
M  V30 5376 H 490.664 1.80431 3.75278 0
M  V30 5377 H 493.261 -0.490354 5.32447 0
M  V30 5378 H 493.604 -1.44638 3.90366 0
M  V30 5379 H 494.137 0.251102 3.97007 0
M  V30 5380 H 490.876 2.33469 6.12513 0
M  V30 5381 H 490.396 0.629615 5.96486 0
M  V30 5382 H 492.075 1.051 6.38407 0
M  V30 5383 N 492.207 -1.54576 0.307264 0
M  V30 5384 C 493.137 -2.26708 -0.55907 0
M  V30 5385 C 494.118 -1.26893 -1.1328 0
M  V30 5386 O 495.303 -1.55677 -1.16097 0
M  V30 5387 C 492.433 -3.01259 -1.72801 0
M  V30 5388 C 491.387 -4.08275 -1.28435 0
M  V30 5389 C 490.713 -4.70575 -2.53895 0
M  V30 5390 C 492.013 -5.2068 -0.411038 0
M  V30 5391 H 493.707 -2.9937 0.042576 0
M  V30 5392 H 491.253 -1.43983 0.0219173 0
M  V30 5393 H 493.206 -3.50444 -2.34023 0
M  V30 5394 H 491.93 -2.26187 -2.356 0
M  V30 5395 H 490.589 -3.59949 -0.695161 0
M  V30 5396 H 490.237 -3.92136 -3.15021 0
M  V30 5397 H 489.937 -5.42854 -2.24908 0
M  V30 5398 H 491.461 -5.22527 -3.15908 0
M  V30 5399 H 492.875 -5.65721 -0.929097 0
M  V30 5400 H 491.272 -5.99716 -0.214664 0
M  V30 5401 H 492.342 -4.81629 0.562287 0
M  V30 5402 N 493.685 -0.035106 -1.57561 0
M  V30 5403 C 494.633 0.962707 -2.11742 0
M  V30 5404 C 495.627 1.33296 -1.0454 0
M  V30 5405 O 496.833 1.31449 -1.22968 0
M  V30 5406 H 493.208 0.32826 -0.676572 0
M  V30 5407 H 495.179 0.48048 -2.94506 0
M  V30 5408 C 493.928 2.23388 -2.66445 0
M  V30 5409 H 493.251 1.95774 -3.48587 0
M  V30 5410 H 494.691 2.91402 -3.07995 0
M  V30 5411 C 493.15 2.96769 -1.59467 0
M  V30 5412 O 493.68 3.89105 -0.998 0
M  V30 5413 N 491.886 2.59212 -1.31369 0
M  V30 5414 H 491.433 1.84202 -1.80076 0
M  V30 5415 H 491.391 3.08618 -0.600173 0
M  V30 5416 N 495.163 1.55791 0.238111 0
M  V30 5417 C 496.11 1.9105 1.29493 0
M  V30 5418 C 497.08 0.765733 1.47397 0
M  V30 5419 O 498.265 1.02017 1.61236 0
M  V30 5420 C 495.405 2.21826 2.64362 0
M  V30 5421 C 494.518 3.49153 2.54394 0
M  V30 5422 C 493.653 3.69455 3.81676 0
M  V30 5423 C 492.692 4.90353 3.66361 0
M  V30 5424 N 491.829 5.07131 4.85554 0
M  V30 5425 H 496.669 2.81172 0.987233 0
M  V30 5426 H 494.206 1.39179 0.476203 0
M  V30 5427 H 496.164 2.37675 3.4288 0
M  V30 5428 H 494.794 1.34897 2.93262 0
M  V30 5429 H 493.846 3.41587 1.67399 0
M  V30 5430 H 495.158 4.37818 2.38991 0
M  V30 5431 H 494.312 3.85311 4.68636 0
M  V30 5432 H 493.051 2.7904 3.99985 0
M  V30 5433 H 492.056 4.74464 2.77784 0
M  V30 5434 H 493.281 5.82237 3.49538 0
M  V30 5435 H 491.227 4.19654 5.04209 0
M  V30 5436 H 491.144 5.89899 4.72816 0
M  V30 5437 H 492.412 5.27407 5.73988 0
M  V30 5438 N 496.642 -0.504142 1.49319 0
M  V30 5439 C 497.605 -1.5883 1.65244 0
M  V30 5440 C 498.605 -1.52009 0.524386 0
M  V30 5441 O 499.795 -1.55218 0.79077 0
M  V30 5442 C 496.927 -2.98481 1.64687 0
M  V30 5443 H 498.12 -1.4604 2.61939 0
M  V30 5444 H 495.673 -0.728144 1.38303 0
M  V30 5445 H 496.408 -3.16751 0.695644 0
M  V30 5446 H 496.193 -3.0484 2.46607 0
M  V30 5447 H 497.683 -3.77256 1.79075 0
M  V30 5448 N 498.12 -1.38341 -0.754957 0
M  V30 5449 C 499.05 -1.38176 -1.88227 0
M  V30 5450 C 500.031 -0.247873 -1.68284 0
M  V30 5451 O 501.216 -0.45075 -1.88896 0
M  V30 5452 C 498.346 -1.20471 -3.25736 0
M  V30 5453 C 497.3 -2.3105 -3.60278 0
M  V30 5454 C 496.626 -1.98452 -4.96509 0
M  V30 5455 C 497.926 -3.73305 -3.65295 0
M  V30 5456 H 499.62 -2.32512 -1.88622 0
M  V30 5457 H 497.166 -1.1192 -0.906082 0
M  V30 5458 H 499.119 -1.18982 -4.04254 0
M  V30 5459 H 497.843 -0.225965 -3.25817 0
M  V30 5460 H 496.502 -2.31723 -2.84078 0
M  V30 5461 H 496.15 -0.990641 -4.93148 0
M  V30 5462 H 495.85 -2.7251 -5.20588 0
M  V30 5463 H 497.374 -1.98578 -5.77407 0
M  V30 5464 H 498.788 -3.7467 -4.3393 0
M  V30 5465 H 497.185 -4.46557 -4.00883 0
M  V30 5466 H 498.255 -4.05719 -2.65556 0
M  V30 5467 N 499.598 0.982988 -1.23187 0
M  V30 5468 C 500.508 2.10907 -1.02739 0
M  V30 5469 C 501.524 1.73979 0.0273188 0
M  V30 5470 O 502.7 2.00702 -0.16757 0
M  V30 5471 C 499.765 3.41142 -0.618304 0
M  V30 5472 C 498.826 3.92112 -1.74777 0
M  V30 5473 C 498.059 5.16131 -1.3581 0
M  V30 5474 O 498.282 5.6989 -0.241201 0
M  V30 5475 O 497.216 5.61103 -2.17824 0
M  V30 5476 H 501.042 2.31046 -1.97108 0
M  V30 5477 H 498.627 1.09284 -1.01869 0
M  V30 5478 H 500.509 4.19488 -0.400982 0
M  V30 5479 H 499.184 3.2234 0.296421 0
M  V30 5480 H 498.091 3.14895 -2.0197 0
M  V30 5481 H 499.424 4.15364 -2.64071 0
M  V30 5482 N 501.076 1.04316 1.18135 0
M  V30 5483 C 502.006 0.657299 2.24058 0
M  V30 5484 C 502.987 -0.340678 1.66654 0
M  V30 5485 O 504.172 -0.220223 1.92947 0
M  V30 5486 C 501.302 0.0220715 3.47293 0
M  V30 5487 C 500.256 0.943857 4.17463 0
M  V30 5488 C 499.582 0.172973 5.3442 0
M  V30 5489 C 500.882 2.26409 4.70677 0
M  V30 5490 H 502.576 1.5428 2.56589 0
M  V30 5491 H 500.122 0.743263 1.23335 0
M  V30 5492 H 502.075 -0.259607 4.206 0
M  V30 5493 H 500.799 -0.898323 3.14003 0
M  V30 5494 H 499.458 1.20996 3.46057 0
M  V30 5495 H 499.106 -0.749907 4.97379 0
M  V30 5496 H 498.806 0.787098 5.82304 0
M  V30 5497 H 500.33 -0.101628 6.10515 0
M  V30 5498 H 501.744 2.04294 5.35665 0
M  V30 5499 H 500.141 2.8314 5.29105 0
M  V30 5500 H 501.211 2.90883 3.87962 0
M  V30 5501 N 502.554 -1.34406 0.822964 0
M  V30 5502 C 503.794 -2.00103 0.416915 0
M  V30 5503 C 504.158 -1.63826 -1.00125 0
M  V30 5504 O 505.359 -2.22367 -1.51018 0
M  V30 5505 C 503.63 -3.52101 0.613151 0
M  V30 5506 S 505.189 -4.37774 0.299956 0
M  V30 5507 H 502.007 -0.69333 0.157527 0
M  V30 5508 H 504.609 -1.63698 1.06879 0
M  V30 5509 H 503.313 -3.75991 1.64496 0
M  V30 5510 H 502.844 -3.93364 -0.0534554 0
M  V30 5511 H 504.859 -4.8822 -0.886336 0
M  V30 5512 N 504.032 -0.577932 -1.46621 0
M  V30 5513 C 504.942 0.160651 -2.34049 0
M  V30 5514 C 505.958 0.890911 -1.49462 0
M  V30 5515 O 507.134 0.855166 -1.82343 0
M  V30 5516 C 504.199 1.16447 -3.26559 0
M  V30 5517 C 503.26 0.4394 -4.27045 0
M  V30 5518 C 502.493 1.3954 -5.15135 0
M  V30 5519 O 502.716 2.63162 -5.06065 0
M  V30 5520 O 501.65 0.908585 -5.95003 0
M  V30 5521 H 505.476 -0.557057 -2.98547 0
M  V30 5522 H 503.061 -0.338369 -1.45518 0
M  V30 5523 H 504.943 1.7434 -3.83645 0
M  V30 5524 H 503.618 1.86373 -2.64663 0
M  V30 5525 H 502.525 -0.181247 -3.73661 0
M  V30 5526 H 503.858 -0.218799 -4.91713 0
M  V30 5527 N 505.51 1.54411 -0.315457 0
M  V30 5528 C 506.759 1.99599 0.290395 0
M  V30 5529 C 507.072 1.20746 1.53882 0
M  V30 5530 O 508.278 1.56272 2.22017 0
M  V30 5531 C 506.734 3.5539 0.56797 0
M  V30 5532 C 506.342 4.43068 -0.662945 0
M  V30 5533 C 508.086 4.09067 1.13422 0
M  V30 5534 C 505.993 5.90317 -0.357722 0
M  V30 5535 H 504.923 0.745592 0.112286 0
M  V30 5536 H 507.574 1.78477 -0.426418 0
M  V30 5537 H 505.956 3.72468 1.34476 0
M  V30 5538 H 507.13 4.37765 -1.43869 0
M  V30 5539 H 505.445 4.00238 -1.14884 0
M  V30 5540 H 508.042 5.16663 1.37707 0
M  V30 5541 H 508.385 3.60552 2.08106 0
M  V30 5542 H 508.918 3.95589 0.418805 0
M  V30 5543 H 505.657 6.4301 -1.27351 0
M  V30 5544 H 505.177 5.98592 0.380472 0
M  V30 5545 H 506.856 6.4699 0.0354284 0
M  V30 5546 N 506.988 0.0434614 1.5754 0
M  V30 5547 C 507.918 -0.931651 2.14109 0
M  V30 5548 C 508.899 -1.32971 1.06079 0
M  V30 5549 O 510.084 -1.40579 1.33982 0
M  V30 5550 C 507.214 -2.20914 2.67982 0
M  V30 5551 C 506.168 -1.95139 3.80926 0
M  V30 5552 C 505.494 -3.29276 4.21285 0
M  V30 5553 C 506.794 -1.27913 5.06395 0
M  V30 5554 H 508.488 -0.460497 2.95837 0
M  V30 5555 H 506.034 -0.220058 1.42309 0
M  V30 5556 H 507.987 -2.89522 3.06194 0
M  V30 5557 H 506.711 -2.70221 1.83434 0
M  V30 5558 H 505.37 -1.28945 3.43175 0
M  V30 5559 H 505.018 -3.76369 3.33699 0
M  V30 5560 H 504.718 -3.12831 4.97404 0
M  V30 5561 H 506.242 -3.99129 4.62091 0
M  V30 5562 H 507.656 -1.86544 5.42102 0
M  V30 5563 H 506.053 -1.2182 5.87605 0
M  V30 5564 H 507.123 -0.254066 4.84234 0
M  V30 5565 N 508.466 -1.55915 -0.229846 0
M  V30 5566 C 509.429 -1.90914 -1.26824 0
M  V30 5567 C 510.429 -0.786999 -1.40225 0
M  V30 5568 O 511.619 -1.05484 -1.38632 0
M  V30 5569 C 508.751 -2.15264 -2.64337 0
M  V30 5570 H 509.944 -2.8378 -0.969998 0
M  V30 5571 H 507.497 -1.49069 -0.4699 0
M  V30 5572 H 508.232 -1.24923 -2.99274 0
M  V30 5573 H 508.017 -2.97005 -2.55989 0
M  V30 5574 H 509.507 -2.43467 -3.39284 0
M  V30 5575 N 509.944 0.496216 -1.49584 0
M  V30 5576 C 510.891 1.59722 -1.66606 0
M  V30 5577 C 511.861 1.58158 -0.507477 0
M  V30 5578 O 513.046 1.76072 -0.735076 0
M  V30 5579 C 510.186 2.97844 -1.74308 0
M  V30 5580 C 509.299 3.09388 -3.01502 0
M  V30 5581 C 508.434 4.38271 -3.00153 0
M  V30 5582 C 507.473 4.43466 -4.21906 0
M  V30 5583 N 506.61 5.63784 -4.1844 0
M  V30 5584 H 511.45 1.44515 -2.60613 0
M  V30 5585 H 508.987 0.703048 -1.29212 0
M  V30 5586 H 510.945 3.77907 -1.76754 0
M  V30 5587 H 509.575 3.11743 -0.837619 0
M  V30 5588 H 508.627 2.22357 -3.08645 0
M  V30 5589 H 509.939 3.09085 -3.91494 0
M  V30 5590 H 509.093 5.2666 -3.01188 0
M  V30 5591 H 507.832 4.41146 -2.07947 0
M  V30 5592 H 506.837 3.53478 -4.21109 0
M  V30 5593 H 508.062 4.42303 -5.1531 0
M  V30 5594 H 506.008 5.67491 -3.29074 0
M  V30 5595 H 505.925 5.65118 -5.02173 0
M  V30 5596 H 507.193 6.54367 -4.23585 0
M  V30 5597 N 511.423 1.38739 0.74761 0
M  V30 5598 C 512.333 1.38696 1.89211 0
M  V30 5599 C 513.349 0.283303 1.71678 0
M  V30 5600 O 514.525 0.522713 1.94498 0
M  V30 5601 C 511.59 1.21662 3.24653 0
M  V30 5602 C 510.651 2.41886 3.54669 0
M  V30 5603 C 509.884 2.25655 4.83648 0
M  V30 5604 O 510.107 1.25339 5.56459 0
M  V30 5605 O 509.041 3.14372 5.13277 0
M  V30 5606 H 512.867 2.35143 1.92202 0
M  V30 5607 H 510.452 1.19721 0.893708 0
M  V30 5608 H 512.334 1.14246 4.05618 0
M  V30 5609 H 511.009 0.283024 3.2246 0
M  V30 5610 H 509.916 2.54877 2.73841 0
M  V30 5611 H 511.249 3.33895 3.61628 0
M  V30 5612 N 512.901 -0.976442 1.23707 0
M  V30 5613 C 513.848 -2.06952 1.02174 0
M  V30 5614 C 514.818 -1.65984 -0.0621034 0
M  V30 5615 O 516.003 -1.90584 0.0907906 0
M  V30 5616 C 513.143 -3.39425 0.62327 0
M  V30 5617 C 512.256 -3.9364 1.77966 0
M  V30 5618 C 511.391 -5.14343 1.3276 0
M  V30 5619 C 510.43 -5.60733 2.45449 0
M  V30 5620 N 509.567 -6.72662 2.01172 0
M  V30 5621 H 514.407 -2.24704 1.95734 0
M  V30 5622 H 511.944 -1.10143 0.975034 0
M  V30 5623 H 513.902 -4.15526 0.37332 0
M  V30 5624 H 512.532 -3.21624 -0.275329 0
M  V30 5625 H 511.584 -3.14258 2.14351 0
M  V30 5626 H 512.896 -4.24035 2.62671 0
M  V30 5627 H 512.05 -5.97789 1.03601 0
M  V30 5628 H 510.789 -4.8561 0.450975 0
M  V30 5629 H 509.794 -4.75865 2.75378 0
M  V30 5630 H 511.019 -5.91483 3.33654 0
M  V30 5631 H 508.965 -6.45681 1.15895 0
M  V30 5632 H 508.882 -7.02462 2.79434 0
M  V30 5633 H 510.15 -7.59572 1.75129 0
M  V30 5634 N 514.379 -1.04941 -1.1758 0
M  V30 5635 C 515.656 -0.671918 -1.83697 0
M  V30 5636 C 516.036 0.847929 -1.93322 0
M  V30 5637 O 515.384 1.75287 -1.46583 0
M  V30 5638 C 515.594 -1.35797 -3.21497 0
M  V30 5639 C 516.942 -1.4944 -3.97433 0
M  V30 5640 O 517.966 -1.31678 -3.30967 0
M  V30 5641 O 516.825 -1.78463 -5.1654 0
M  V30 5642 H 513.919 -0.236212 -0.792548 0
M  V30 5643 H 516.465 -1.14884 -1.24899 0
M  V30 5644 H 515.237 -2.39498 -3.09446 0
M  V30 5645 H 514.86 -0.870236 -3.8796 0
M  V30 5646 N 515.857 1.33968 -0.830081 0
M  V30 5647 C 517.085 2.0228 -0.434773 0
M  V30 5648 C 517.5 1.62487 0.961419 0
M  V30 5649 O 516.857 0.833849 1.62337 0
M  V30 5650 C 516.908 3.5751 -0.535625 0
M  V30 5651 O 516.629 3.95864 -1.87679 0
M  V30 5652 C 518.13 4.43091 -0.136137 0
M  V30 5653 H 515.35 0.648151 -0.173613 0
M  V30 5654 H 517.894 1.71089 -1.12022 0
M  V30 5655 H 516.049 3.87266 0.101817 0
M  V30 5656 H 516.463 4.9056 -1.85609 0
M  V30 5657 H 517.937 5.51398 -0.257772 0
M  V30 5658 H 518.414 4.29433 0.921076 0
M  V30 5659 H 519.02 4.18677 -0.747662 0
M  V30 5660 N 517.335 0.585699 1.46312 0
M  V30 5661 C 518.584 0.0701192 2.01578 0
M  V30 5662 C 518.897 -1.29889 1.46247 0
M  V30 5663 O 520.103 -1.90598 1.93351 0
M  V30 5664 C 518.559 0.0747499 3.59822 0
M  V30 5665 C 518.167 1.44226 4.24149 0
M  V30 5666 C 519.911 -0.38673 4.22735 0
M  V30 5667 C 517.818 1.40446 5.74481 0
M  V30 5668 H 516.748 0.0224441 0.753666 0
M  V30 5669 H 519.399 0.737789 1.68015 0
M  V30 5670 H 517.781 -0.659144 3.90476 0
M  V30 5671 H 518.955 2.19612 4.05101 0
M  V30 5672 H 517.27 1.84401 3.73343 0
M  V30 5673 H 519.867 -0.433853 5.32937 0
M  V30 5674 H 520.21 -1.40489 3.91878 0
M  V30 5675 H 520.743 0.293195 3.96718 0
M  V30 5676 H 517.482 2.39952 6.10003 0
M  V30 5677 H 517.002 0.692845 5.95785 0
M  V30 5678 H 518.681 1.11865 6.37256 0
M  V30 5679 N 518.813 -1.54241 0.323641 0
M  V30 5680 C 520.229 -1.59574 -0.0290018 0
M  V30 5681 C 520.429 -1.34017 -1.50472 0
M  V30 5682 O 519.485 -1.12464 -2.26071 0
M  V30 5683 C 520.798 -2.98169 0.389295 0
M  V30 5684 C 522.346 -3.11148 0.339958 0
M  V30 5685 C 522.821 -4.5209 0.733418 0
M  V30 5686 N 524.312 -4.5808 0.686827 0
M  V30 5687 C 525.047 -5.65248 0.963464 0
M  V30 5688 N 524.543 -6.80355 1.30724 0
M  V30 5689 N 526.336 -5.55025 0.88902 0
M  V30 5690 H 518.487 -1.6911 1.28512 0
M  V30 5691 H 520.75 -0.790972 0.522558 0
M  V30 5692 H 520.456 -3.21871 1.41746 0
M  V30 5693 H 520.33 -3.76399 -0.245657 0
M  V30 5694 H 522.717 -2.87182 -0.679002 0
M  V30 5695 H 522.798 -2.35023 1.00985 0
M  V30 5696 H 522.442 -4.76788 1.75029 0
M  V30 5697 H 522.372 -5.26584 0.0412189 0
M  V30 5698 H 524.863 -3.75411 0.43298 0
M  V30 5699 H 525.176 -7.58029 1.5037 0
M  V30 5700 H 523.521 -6.81851 1.3455 0
M  V30 5701 H 526.712 -4.63977 0.619939 0
M  V30 5702 H 526.885 -6.38458 1.10797 0
M  V30 5703 N 520.291 -0.0518155 -1.57515 0
M  V30 5704 C 521.238 0.922352 -2.11569 0
M  V30 5705 C 522.208 1.30842 -1.02321 0
M  V30 5706 O 523.393 1.39778 -1.29872 0
M  V30 5707 C 520.533 2.19167 -2.6657 0
M  V30 5708 C 519.646 1.86003 -3.89906 0
M  V30 5709 C 518.781 3.07398 -4.33221 0
M  V30 5710 C 517.82 2.70158 -5.49255 0
M  V30 5711 N 516.957 3.84248 -5.8762 0
M  V30 5712 H 521.797 0.454506 -2.94514 0
M  V30 5713 H 519.334 0.212718 -1.45554 0
M  V30 5714 H 521.292 2.93443 -2.96559 0
M  V30 5715 H 519.922 2.63528 -1.86421 0
M  V30 5716 H 518.974 1.01874 -3.66505 0
M  V30 5717 H 520.286 1.54592 -4.74239 0
M  V30 5718 H 519.44 3.89972 -4.64765 0
M  V30 5719 H 518.179 3.41988 -3.477 0
M  V30 5720 H 517.184 1.86001 -5.17382 0
M  V30 5721 H 518.409 2.36759 -6.36492 0
M  V30 5722 H 516.355 4.18638 -5.05053 0
M  V30 5723 H 516.272 3.56538 -6.66646 0
M  V30 5724 H 517.54 4.6746 -6.2378 0
M  V30 5725 N 521.769 1.56035 0.221574 0
M  V30 5726 C 522.679 1.95581 1.29558 0
M  V30 5727 C 523.695 0.859639 1.51282 0
M  V30 5728 O 524.871 1.16321 1.64413 0
M  V30 5729 C 521.936 2.26447 2.62531 0
M  V30 5730 C 520.997 3.49632 2.4911 0
M  V30 5731 C 520.23 3.79017 3.75742 0
M  V30 5732 O 520.453 3.10077 4.78757 0
M  V30 5733 O 519.387 4.72507 3.72855 0
M  V30 5734 H 523.213 2.8711 0.990035 0
M  V30 5735 H 520.798 1.43244 0.424434 0
M  V30 5736 H 522.68 2.47494 3.41064 0
M  V30 5737 H 521.355 1.38092 2.92766 0
M  V30 5738 H 520.262 3.33864 1.68777 0
M  V30 5739 H 521.595 4.3837 2.23814 0
M  V30 5740 N 523.247 -0.488276 1.49845 0
M  V30 5741 C 524.477 -1.26344 1.63465 0
M  V30 5742 C 524.885 -1.86637 0.310379 0
M  V30 5743 O 524.228 -1.69184 -0.715712 0
M  V30 5744 C 524.29 -2.42407 2.65479 0
M  V30 5745 C 523.954 -2.02886 4.09495 0
M  V30 5746 C 524.951 -1.56124 4.95904 0
M  V30 5747 C 522.636 -2.12131 4.55308 0
M  V30 5748 C 524.63 -1.19129 6.26169 0
M  V30 5749 C 522.317 -1.74747 5.85582 0
M  V30 5750 C 523.315 -1.28322 6.70837 0
M  V30 5751 O 523.003 -0.914491 7.98682 0
M  V30 5752 H 522.735 -0.388921 0.552916 0
M  V30 5753 H 525.289 -0.591288 1.96705 0
M  V30 5754 H 523.519 -3.12739 2.27445 0
M  V30 5755 H 525.208 -3.04409 2.68495 0
M  V30 5756 H 525.974 -1.48417 4.61733 0
M  V30 5757 H 521.853 -2.47217 3.89107 0
M  V30 5758 H 525.397 -0.828211 6.92666 0
M  V30 5759 H 521.294 -1.82109 6.19279 0
M  V30 5760 H 522.062 -1.04485 8.11804 0
M  V30 5761 N 524.725 -1.39134 -0.740242 0
M  V30 5762 C 525.971 -1.37278 -1.50088 0
M  V30 5763 C 526.326 0.0329967 -1.92372 0
M  V30 5764 O 525.619 0.998447 -1.63529 0
M  V30 5765 C 525.813 -2.27457 -2.75678 0
M  V30 5766 C 525.642 -3.76662 -2.45674 0
M  V30 5767 C 524.412 -4.45617 -2.38229 0
M  V30 5768 C 526.61 -4.6877 -2.11563 0
M  V30 5769 N 524.592 -5.80187 -2.00641 0
M  V30 5770 C 525.963 -5.91951 -1.84376 0
M  V30 5771 C 528.018 -4.56843 -1.97987 0
M  V30 5772 C 526.721 -7.04538 -1.4498 0
M  V30 5773 C 528.747 -5.69347 -1.59994 0
M  V30 5774 C 528.109 -6.91597 -1.33687 0
M  V30 5775 H 524.208 -0.557611 -0.548265 0
M  V30 5776 H 526.792 -1.74638 -0.860784 0
M  V30 5777 H 524.963 -1.92263 -3.37475 0
M  V30 5778 H 526.695 -2.16631 -3.41838 0
M  V30 5779 H 523.45 -3.98993 -2.5515 0
M  V30 5780 H 523.874 -6.51387 -1.84454 0
M  V30 5781 H 528.516 -3.62868 -2.16995 0
M  V30 5782 H 526.234 -7.98419 -1.24712 0
M  V30 5783 H 529.82 -5.62104 -1.50102 0
M  V30 5784 H 528.7 -7.77176 -1.04728 0
M  V30 5785 N 526.204 0.969867 -1.24223 0
M  V30 5786 C 527.62 1.23809 -1.00716 0
M  V30 5787 C 527.82 1.99469 0.285358 0
M  V30 5788 O 526.876 2.31764 1.00207 0
M  V30 5789 C 528.189 2.02734 -2.2208 0
M  V30 5790 C 529.737 2.15834 -2.26681 0
M  V30 5791 C 530.212 2.98154 -3.47661 0
M  V30 5792 N 531.703 3.05737 -3.47964 0
M  V30 5793 C 532.438 3.69785 -4.38231 0
M  V30 5794 N 531.934 4.35569 -5.3875 0
M  V30 5795 N 533.727 3.66775 -4.25949 0
M  V30 5796 H 525.878 0.463294 -2.07286 0
M  V30 5797 H 528.141 0.267348 -0.909521 0
M  V30 5798 H 527.847 1.54524 -3.15935 0
M  V30 5799 H 527.721 3.0347 -2.24021 0
M  V30 5800 H 530.108 2.63248 -1.33359 0
M  V30 5801 H 530.189 1.14453 -2.28767 0
M  V30 5802 H 529.833 2.51435 -4.41297 0
M  V30 5803 H 529.763 3.99729 -3.42818 0
M  V30 5804 H 532.254 2.58941 -2.75242 0
M  V30 5805 H 532.567 4.82251 -6.03866 0
M  V30 5806 H 530.912 4.34244 -5.42639 0
M  V30 5807 H 534.103 3.14558 -3.46657 0
M  V30 5808 H 534.276 4.16407 -4.96497 0
M  V30 5809 N 527.682 1.05563 1.17022 0
M  V30 5810 C 528.912 0.787307 1.91011 0
M  V30 5811 C 529.32 -0.661256 1.77268 0
M  V30 5812 O 528.663 -1.46379 1.10991 0
M  V30 5813 C 528.725 1.09313 3.42478 0
M  V30 5814 C 528.389 2.53863 3.80004 0
M  V30 5815 C 529.386 3.52081 3.82538 0
M  V30 5816 C 527.071 2.88969 4.10855 0
M  V30 5817 C 529.065 4.83449 4.15399 0
M  V30 5818 C 526.752 4.2054 4.43384 0
M  V30 5819 C 527.75 5.17589 4.45635 0
M  V30 5820 O 527.438 6.46799 4.77395 0
M  V30 5821 H 527.17 0.285463 0.61277 0
M  V30 5822 H 529.724 1.41051 1.49311 0
M  V30 5823 H 527.954 0.412833 3.8449 0
M  V30 5824 H 529.643 0.810224 3.97731 0
M  V30 5825 H 530.409 3.26299 3.58823 0
M  V30 5826 H 526.288 2.1409 4.08272 0
M  V30 5827 H 529.832 5.59194 4.1707 0
M  V30 5828 H 525.729 4.46083 4.66563 0
M  V30 5829 H 526.497 6.51677 4.95237 0
M  V30 5830 N 529.16 -1.33526 0.837174 0
M  V30 5831 C 530.409 -1.97098 0.428387 0
M  V30 5832 C 530.722 -1.67062 -1.01734 0
M  V30 5833 O 531.928 -2.24235 -1.53072 0
M  V30 5834 C 530.384 -3.52725 0.715075 0
M  V30 5835 C 529.992 -3.9164 2.17537 0
M  V30 5836 C 531.736 -4.22857 0.373154 0
M  V30 5837 C 529.643 -5.40237 2.40619 0
M  V30 5838 H 528.573 -0.737589 0.156455 0
M  V30 5839 H 531.224 -1.52169 1.02552 0
M  V30 5840 H 529.606 -3.95971 0.0475904 0
M  V30 5841 H 530.78 -3.59456 2.88319 0
M  V30 5842 H 529.095 -3.34485 2.4801 0
M  V30 5843 H 531.692 -5.32133 0.523264 0
M  V30 5844 H 532.035 -4.10647 -0.683708 0
M  V30 5845 H 532.568 -3.85135 0.995801 0
M  V30 5846 H 529.307 -5.57449 3.44864 0
M  V30 5847 H 528.827 -5.73887 1.74396 0
M  V30 5848 H 530.506 -6.07102 2.23688 0
M  V30 5849 N 530.638 -0.59345 -1.46 0
M  V30 5850 C 531.886 -0.082988 -2.0193 0
M  V30 5851 C 532.207 1.28569 -1.46612 0
M  V30 5852 O 531.477 1.84629 -0.654909 0
M  V30 5853 H 530.057 -0.0276882 -0.746487 0
M  V30 5854 H 532.719 -0.771657 -1.78973 0
M  V30 5855 H 531.815 -0.022079 -3.12092 0
M  V30 5856 N 532.116 1.54067 -0.331816 0
M  V30 5857 C 533.532 1.59587 0.0205388 0
M  V30 5858 C 533.732 1.34813 1.49759 0
M  V30 5859 O 532.788 1.13661 2.25471 0
M  V30 5860 C 534.101 2.97959 -0.405103 0
M  V30 5861 C 535.649 3.10964 -0.356454 0
M  V30 5862 C 536.124 4.51694 -0.757384 0
M  V30 5863 N 537.615 4.57709 -0.71111 0
M  V30 5864 C 538.35 5.64729 -0.993427 0
M  V30 5865 N 537.846 6.79652 -1.3433 0
M  V30 5866 N 539.639 5.54546 -0.918442 0
M  V30 5867 H 531.79 1.68426 -1.29407 0
M  V30 5868 H 534.053 0.78819 -0.526745 0
M  V30 5869 H 533.759 3.21115 -1.43451 0
M  V30 5870 H 533.633 3.76524 0.225692 0
M  V30 5871 H 536.02 2.87538 0.663763 0
M  V30 5872 H 536.101 2.34484 -1.02229 0
M  V30 5873 H 535.745 4.75853 -1.77555 0
M  V30 5874 H 535.675 5.26555 -0.0691444 0
M  V30 5875 H 538.166 3.75176 -0.452883 0
M  V30 5876 H 538.479 7.57221 -1.54388 0
M  V30 5877 H 536.824 6.81128 -1.38164 0
M  V30 5878 H 540.015 4.63641 -0.644536 0
M  V30 5879 H 540.188 6.37861 -1.14181 0
M  V30 5880 N 533.594 0.0601682 1.57485 0
M  V30 5881 C 534.819 -0.624416 1.97777 0
M  V30 5882 C 535.244 -1.63051 0.937867 0
M  V30 5883 O 534.602 -1.81036 -0.0978845 0
M  V30 5884 C 534.65 -1.27979 3.37126 0
M  V30 5885 O 533.754 -2.39556 3.35688 0
M  V30 5886 H 533.095 -0.161581 0.64404 0
M  V30 5887 H 535.625 0.131237 2.04179 0
M  V30 5888 H 535.635 -1.62937 3.74053 0
M  V30 5889 H 534.31 -0.542501 4.12347 0
M  V30 5890 H 532.887 -2.06478 3.10517 0
M  V30 5891 N 535.072 -1.5615 -0.213296 0
M  V30 5892 C 536.002 -1.96109 -1.26742 0
M  V30 5893 C 536.983 -0.830448 -1.48451 0
M  V30 5894 O 538.168 -1.09339 -1.60495 0
M  V30 5895 C 535.298 -2.28492 -2.61551 0
M  V30 5896 C 534.252 -3.44124 -2.54485 0
M  V30 5897 C 533.578 -3.62134 -3.93399 0
M  V30 5898 C 534.878 -4.78855 -2.08556 0
M  V30 5899 H 536.572 -2.84412 -0.935434 0
M  V30 5900 H 534.118 -1.36836 -0.44854 0
M  V30 5901 H 536.071 -2.55039 -3.3546 0
M  V30 5902 H 534.795 -1.37052 -2.96453 0
M  V30 5903 H 533.454 -3.17639 -1.83033 0
M  V30 5904 H 533.102 -2.68055 -4.25623 0
M  V30 5905 H 532.802 -4.39913 -3.89551 0
M  V30 5906 H 534.326 -3.91038 -4.68958 0
M  V30 5907 H 535.74 -5.04552 -2.72213 0
M  V30 5908 H 534.137 -5.59975 -2.1575 0
M  V30 5909 H 535.207 -4.73657 -1.03811 0
M  V30 5910 N 536.55 0.480323 -1.50102 0
M  V30 5911 C 537.482 1.59669 -1.64433 0
M  V30 5912 C 538.495 1.54063 -0.52615 0
M  V30 5913 O 539.684 1.59619 -0.798992 0
M  V30 5914 C 536.784 2.98527 -1.6042 0
M  V30 5915 C 535.957 3.291 -2.88117 0
M  V30 5916 C 535.016 4.47468 -2.76873 0
M  V30 5917 O 534.042 4.4823 -3.50825 0
M  V30 5918 N 535.244 5.48593 -1.89806 0
M  V30 5919 H 538.009 1.47795 -2.60723 0
M  V30 5920 H 535.57 0.66858 -1.4745 0
M  V30 5921 H 537.562 3.75666 -1.50523 0
M  V30 5922 H 536.132 3.04218 -0.719036 0
M  V30 5923 H 535.352 2.40662 -3.12211 0
M  V30 5924 H 536.64 3.46334 -3.72734 0
M  V30 5925 H 536.038 5.50791 -1.2902 0
M  V30 5926 H 534.595 6.24752 -1.85819 0
M  V30 5927 N 538.028 1.39524 0.732853 0
M  V30 5928 C 539.253 1.40329 1.52717 0
M  V30 5929 C 539.678 0.000286574 1.881 0
M  V30 5930 O 539.036 -0.987262 1.52062 0
M  V30 5931 C 539.084 2.28464 2.78992 0
M  V30 5932 O 538.188 1.716 3.75003 0
M  V30 5933 H 537.529 0.47778 0.461109 0
M  V30 5934 H 540.059 1.83546 0.903996 0
M  V30 5935 H 540.069 2.43051 3.27705 0
M  V30 5936 H 538.744 3.30425 2.52572 0
M  V30 5937 H 537.321 1.66267 3.33781 0
M  V30 5938 N 539.506 -0.963266 1.24736 0
M  V30 5939 C 540.453 -2.05857 1.04363 0
M  V30 5940 C 541.423 -1.6604 -0.0444951 0
M  V30 5941 O 542.608 -1.90477 0.110999 0
M  V30 5942 C 539.748 -3.38745 0.659235 0
M  V30 5943 C 538.861 -3.9173 1.82131 0
M  V30 5944 C 537.996 -5.12906 1.38208 0
M  V30 5945 C 537.035 -5.58098 2.51382 0
M  V30 5946 N 536.172 -6.7049 2.08295 0
M  V30 5947 H 541.012 -2.22616 1.98107 0
M  V30 5948 H 538.549 -1.09103 0.986661 0
M  V30 5949 H 540.507 -4.15107 0.417371 0
M  V30 5950 H 539.137 -3.21898 -0.241201 0
M  V30 5951 H 538.189 -3.11966 2.17672 0
M  V30 5952 H 539.501 -4.21225 2.67153 0
M  V30 5953 H 538.655 -5.96657 1.09935 0
M  V30 5954 H 537.394 -4.85105 0.502456 0
M  V30 5955 H 536.399 -4.72917 2.80409 0
M  V30 5956 H 537.624 -5.87911 3.39909 0
M  V30 5957 H 535.57 -6.44416 1.22737 0
M  V30 5958 H 535.487 -6.99458 2.86869 0
M  V30 5959 H 536.755 -7.57672 1.83175 0
M  V30 5960 N 540.985 -1.06182 -1.16461 0
M  V30 5961 C 541.935 -0.641619 -2.18786 0
M  V30 5962 C 542.919 0.327122 -1.5754 0
M  V30 5963 O 544.111 0.142746 -1.76423 0
M  V30 5964 C 541.24 -0.0283734 -3.43288 0
M  V30 5965 C 540.326 -1.02154 -4.11613 0
M  V30 5966 N 540.717 -2.19671 -4.55608 0
M  V30 5967 C 539.015 -0.852229 -4.37782 0
M  V30 5968 C 539.716 -2.82583 -5.0845 0
M  V30 5969 N 538.692 -2.10318 -5.01266 0
M  V30 5970 H 542.494 -1.53684 -2.50516 0
M  V30 5971 H 540.008 -0.933349 -1.329 0
M  V30 5972 H 542.005 0.29049 -4.15887 0
M  V30 5973 H 540.665 0.862118 -3.13046 0
M  V30 5974 H 541.676 -2.57453 -4.49375 0
M  V30 5975 H 538.353 -0.0136314 -4.17498 0
M  V30 5976 H 539.743 -3.82298 -5.52538 0
M  V30 5977 N 542.463 1.3308 -0.844243 0
M  V30 5978 C 543.688 2.02341 -0.455282 0
M  V30 5979 C 544.113 1.6308 0.93737 0
M  V30 5980 O 543.471 0.826118 1.61385 0
M  V30 5981 C 543.519 3.55743 -0.58988 0
M  V30 5982 O 542.623 4.1063 0.38166 0
M  V30 5983 H 541.964 0.637898 -0.184343 0
M  V30 5984 H 544.494 1.6986 -1.14056 0
M  V30 5985 H 544.504 4.05243 -0.473522 0
M  V30 5986 H 543.179 3.83662 -1.60549 0
M  V30 5987 H 541.756 3.72236 0.22241 0
M  V30 5988 N 543.941 0.601185 1.45683 0
M  V30 5989 C 545.169 0.100054 2.06658 0
M  V30 5990 C 545.584 -1.21285 1.44691 0
M  V30 5991 O 544.941 -1.73735 0.558772 0
M  V30 5992 C 544.992 -0.0528579 3.61461 0
M  V30 5993 O 544.713 1.20809 4.21114 0
M  V30 5994 C 546.214 -0.586193 4.39407 0
M  V30 5995 H 543.434 0.065905 0.667756 0
M  V30 5996 H 545.978 0.827101 1.87028 0
M  V30 5997 H 544.133 -0.730203 3.80456 0
M  V30 5998 H 544.547 1.03368 5.14213 0
M  V30 5999 H 546.021 -0.642297 5.4825 0
M  V30 6000 H 546.498 -1.60713 4.0874 0
M  V30 6001 H 547.104 0.0568935 4.25262 0
M  V30 6002 N 545.419 -1.53889 0.339982 0
M  V30 6003 C 546.329 -2.28604 -0.526988 0
M  V30 6004 C 547.345 -1.33578 -1.11503 0
M  V30 6005 O 548.521 -1.66612 -1.13148 0
M  V30 6006 C 545.586 -3.04164 -1.66389 0
M  V30 6007 C 544.647 -4.14809 -1.10599 0
M  V30 6008 C 543.88 -4.86756 -2.18871 0
M  V30 6009 O 544.103 -4.58343 -3.39526 0
M  V30 6010 O 543.037 -5.73289 -1.83366 0
M  V30 6011 H 546.863 -3.03594 0.0802707 0
M  V30 6012 H 544.448 -1.4903 0.105141 0
M  V30 6013 H 546.33 -3.51427 -2.32544 0
M  V30 6014 H 545.005 -2.32035 -2.25703 0
M  V30 6015 H 543.912 -3.71857 -0.409067 0
M  V30 6016 H 545.245 -4.89029 -0.557771 0
M  V30 6017 N 546.897 -0.0685191 -1.57451 0
M  V30 6018 C 547.845 0.917577 -2.13736 0
M  V30 6019 C 548.839 1.31049 -1.07344 0
M  V30 6020 O 550.045 1.28811 -1.25728 0
M  V30 6021 H 546.42 0.313835 -0.683382 0
M  V30 6022 H 548.391 0.417903 -2.95459 0
M  V30 6023 C 547.14 2.17686 -2.71123 0
M  V30 6024 H 546.463 1.88336 -3.52661 0
M  V30 6025 H 547.903 2.84803 -3.14107 0
M  V30 6026 C 546.362 2.9332 -1.65726 0
M  V30 6027 O 546.892 3.86901 -1.08031 0
M  V30 6028 N 545.098 2.56367 -1.36837 0
M  V30 6029 H 544.645 1.80341 -1.83943 0
M  V30 6030 H 544.603 3.07276 -0.665501 0
M  V30 6031 N 548.375 1.56261 0.205012 0
M  V30 6032 C 549.652 1.70856 0.952233 0
M  V30 6033 C 550.032 0.620501 2.01775 0
M  V30 6034 O 549.38 -0.370035 2.25484 0
M  V30 6035 C 549.59 3.12807 1.54767 0
M  V30 6036 C 550.938 3.72733 2.0336 0
M  V30 6037 O 551.962 3.15873 1.64629 0
M  V30 6038 O 550.821 4.72501 2.746 0
M  V30 6039 H 547.915 0.696496 0.445895 0
M  V30 6040 H 550.461 1.6857 0.195489 0
M  V30 6041 H 549.233 3.83465 0.779132 0
M  V30 6042 H 548.856 3.1928 2.36951 0
M  V30 6043 N 549.853 -0.472356 1.50355 0
M  V30 6044 C 551.078 -1.25251 1.65309 0
M  V30 6045 C 551.503 -1.85081 0.335643 0
M  V30 6046 O 550.861 -1.67227 -0.700335 0
M  V30 6047 C 550.909 -2.3379 2.74544 0
M  V30 6048 O 550.013 -3.38401 2.35709 0
M  V30 6049 H 549.354 -0.368539 0.552336 0
M  V30 6050 H 551.884 -0.562271 1.96722 0
M  V30 6051 H 551.894 -2.79121 2.97583 0
M  V30 6052 H 550.569 -1.89614 3.70161 0
M  V30 6053 H 549.146 -2.9879 2.23112 0
M  V30 6054 N 551.331 -1.39911 -0.725443 0
M  V30 6055 C 552.742 -1.33599 -1.30415 0
M  V30 6056 C 553.093 -0.00481792 -1.96199 0
M  V30 6057 O 552.218 0.897275 -1.96921 0
M  V30 6058 C 552.813 -2.41965 -2.37146 0
M  V30 6059 C 551.372 -2.39144 -2.90667 0
M  V30 6060 C 550.519 -2.23355 -1.64341 0
M  V30 6061 H 553.47 -1.4986 -0.522267 0
M  V30 6062 H 553.491 -2.09304 -3.17761 0
M  V30 6063 H 553.003 -3.38837 -1.89238 0
M  V30 6064 H 551.104 -1.4594 -3.4283 0
M  V30 6065 H 551.217 -3.34362 -3.43131 0
M  V30 6066 H 549.581 -1.70696 -1.89037 0
M  V30 6067 H 550.364 -3.2221 -1.18471 0
M  V30 6068 N 552.809 0.956637 -1.25245 0
M  V30 6069 C 554.037 1.73571 -1.12608 0
M  V30 6070 C 554.452 1.86063 0.320324 0
M  V30 6071 O 553.809 1.35691 1.22042 0
M  V30 6072 C 553.86 3.15053 -1.77268 0
M  V30 6073 O 553.581 3.03174 -3.16255 0
M  V30 6074 C 555.082 4.09248 -1.70386 0
M  V30 6075 H 552.302 0.543955 -0.392879 0
M  V30 6076 H 554.846 1.20031 -1.65568 0
M  V30 6077 H 553.001 3.65543 -1.28284 0
M  V30 6078 H 553.415 3.9241 -3.48015 0
M  V30 6079 H 554.889 5.06138 -2.20291 0
M  V30 6080 H 555.366 4.34102 -0.667239 0
M  V30 6081 H 555.972 3.64672 -2.18849 0
M  V30 6082 N 554.287 1.06798 1.15896 0
M  V30 6083 C 555.235 0.677525 2.22514 0
M  V30 6084 C 556.229 -0.308994 1.66558 0
M  V30 6085 O 557.435 -0.173308 1.79164 0
M  V30 6086 H 553.81 0.200994 0.724642 0
M  V30 6087 H 555.781 1.5865 2.52731 0
M  V30 6088 C 554.53 0.0854153 3.47595 0
M  V30 6089 H 553.853 0.835645 3.90969 0
M  V30 6090 H 555.293 -0.150199 4.23734 0
M  V30 6091 C 553.752 -1.1724 3.15843 0
M  V30 6092 O 554.282 -2.25965 3.32119 0
M  V30 6093 N 552.488 -1.07636 2.69931 0
M  V30 6094 H 552.035 -0.191559 2.56887 0
M  V30 6095 H 551.993 -1.91876 2.4906 0
M  V30 6096 N 555.766 -1.3263 0.851289 0
M  V30 6097 C 557.012 -1.9766 0.453694 0
M  V30 6098 C 557.345 -1.67225 -0.987396 0
M  V30 6099 O 556.62 -0.958693 -1.69232 0
M  V30 6100 C 556.903 -3.5344 0.68936 0
M  V30 6101 C 556.756 -3.93517 2.17862 0
M  V30 6102 C 558.075 -4.39866 0.143555 0
M  V30 6103 H 555.194 -0.717989 0.166314 0
M  V30 6104 H 557.836 -1.57068 1.06909 0
M  V30 6105 H 555.986 -3.88147 0.165546 0
M  V30 6106 H 557.658 -3.69006 2.76826 0
M  V30 6107 H 555.901 -3.42798 2.65841 0
M  V30 6108 H 556.572 -5.02065 2.29422 0
M  V30 6109 H 559.048 -4.11875 0.591451 0
M  V30 6110 H 557.924 -5.47858 0.338043 0
M  V30 6111 H 558.185 -4.31696 -0.953466 0
M  V30 6112 N 557.244 -0.608902 -1.45362 0
M  V30 6113 C 558.176 0.147318 -2.28726 0
M  V30 6114 C 559.189 0.830468 -1.40025 0
M  V30 6115 O 560.378 0.695636 -1.64387 0
M  V30 6116 C 557.478 1.22968 -3.15804 0
M  V30 6117 C 556.651 0.633391 -4.3279 0
M  V30 6118 C 555.71 1.60682 -5.01067 0
M  V30 6119 O 554.736 1.13261 -5.57818 0
M  V30 6120 N 555.938 2.94123 -5.00472 0
M  V30 6121 H 558.703 -0.568014 -2.94268 0
M  V30 6122 H 556.264 -0.448479 -1.55564 0
M  V30 6123 H 558.256 1.88072 -3.58345 0
M  V30 6124 H 556.826 1.84752 -2.52162 0
M  V30 6125 H 556.046 -0.195762 -3.93714 0
M  V30 6126 H 557.334 0.215255 -5.08344 0
M  V30 6127 H 556.732 3.3525 -4.55657 0
M  V30 6128 H 555.289 3.54646 -5.46872 0
M  V30 6129 N 558.722 1.53707 -0.348139 0
M  V30 6130 C 559.654 2.22725 0.540946 0
M  V30 6131 C 560.667 1.2354 1.06027 0
M  V30 6132 O 561.856 1.49867 0.96964 0
M  V30 6133 C 558.956 2.89756 1.75768 0
M  V30 6134 C 558.129 4.15297 1.37285 0
M  V30 6135 C 557.188 4.65697 2.44976 0
M  V30 6136 O 556.214 5.29798 2.08092 0
M  V30 6137 N 557.416 4.42017 3.763 0
M  V30 6138 H 560.181 2.99658 -0.0501592 0
M  V30 6139 H 557.742 1.60979 -0.17248 0
M  V30 6140 H 559.734 3.20388 2.47252 0
M  V30 6141 H 558.304 2.16382 2.25605 0
M  V30 6142 H 557.524 3.9116 0.488584 0
M  V30 6143 H 558.812 4.96948 1.09179 0
M  V30 6144 H 558.21 3.9076 4.09051 0
M  V30 6145 H 556.767 4.77242 4.4394 0
M  V30 6146 O 560.239 0.216617 1.60041 0
M  V30 6147 H 560.93 -0.364805 1.90234 0
M  V30 END ATOM
M  V30 BEGIN BOND
M  V30 END BOND
M  V30 END CTAB
M  END
$$$$
