drugbank_target|P49366 Deoxyhypusine synthase (DB03639)
 OpenBabel12092119483D

  0  0  0     0  0            999 V3000
M  V30 BEGIN CTAB
M  V30 COUNTS 5720 5778 0 0 0
M  V30 BEGIN ATOM
M  V30 1 H -0.908 1.98254 -0.117106 0
M  V30 2 N 0 1.576 0 0
M  V30 3 C 0.933 2.03868 1.02534 0
M  V30 4 C 1.911 0.928543 1.3348 0
M  V30 5 O 3.095 1.19667 1.45644 0
M  V30 6 C 0.222 2.43627 2.35294 0
M  V30 7 C -0.732 3.65373 2.2001 0
M  V30 8 S 0.101 5.13292 1.52614 0
M  V30 9 C 1.257 5.56322 2.86805 0
M  V30 10 H 1.49 2.90518 0.631377 0
M  V30 11 H -0.977 1.52953 0.210867 0
M  V30 12 H 0.981 2.67203 3.11629 0
M  V30 13 H -0.358 1.57376 2.7183 0
M  V30 14 H -1.165 3.90944 3.18086 0
M  V30 15 H -1.563 3.418 1.51819 0
M  V30 16 H 0.729 5.58782 3.83104 0
M  V30 17 H 1.672 6.56266 2.65933 0
M  V30 18 H 2.08 4.83886 2.90714 0
M  V30 19 N 1.4781 -0.272755 1.55222 0
M  V30 20 C 2.3881 -1.35918 1.91216 0
M  V30 21 C 3.4041 -1.54026 0.809436 0
M  V30 22 O 4.5801 -1.68148 1.10852 0
M  V30 23 C 1.6451 -2.69834 2.17693 0
M  V30 24 C 0.7061 -2.6047 3.41253 0
M  V30 25 C -0.0609 -3.88 3.66458 0
M  V30 26 O 0.1621 -4.88693 2.94169 0
M  V30 27 O -0.9039 -3.88189 4.59992 0
M  V30 28 H 2.9221 -1.0839 2.83699 0
M  V30 29 H 0.5071 -0.471301 1.41771 0
M  V30 30 H 2.3891 -3.49017 2.36147 0
M  V30 31 H 1.0641 -2.97148 1.28392 0
M  V30 32 H -0.0289 -1.79663 3.28134 0
M  V30 33 H 1.3041 -2.38106 4.30774 0
M  V30 34 N 2.9562 -1.48159 -0.537278 0
M  V30 35 C 4.2042 -1.55497 -1.29094 0
M  V30 36 C 4.5252 -0.227454 -1.93669 0
M  V30 37 O 3.7952 0.750386 -1.80959 0
M  V30 38 H 2.3752 -0.572832 -0.47945 0
M  V30 39 H 5.0372 -1.84579 -0.625818 0
M  V30 40 H 4.1332 -2.33216 -2.07405 0
M  V30 41 N 4.4343 0.785586 -1.36625 0
M  V30 42 C 5.6593 1.57963 -1.34397 0
M  V30 43 C 6.0843 1.87964 0.071526 0
M  V30 44 O 5.4423 1.48182 1.0446 0
M  V30 45 C 5.4903 2.87511 -2.17646 0
M  V30 46 O 4.5943 3.81281 -1.57158 0
M  V30 47 H 3.9353 0.479014 -0.459828 0
M  V30 48 H 6.4653 0.973411 -1.79961 0
M  V30 49 H 6.4753 3.36745 -2.30362 0
M  V30 50 H 5.1503 2.65002 -3.20541 0
M  V30 51 H 3.7273 3.39885 -1.53403 0
M  V30 52 N 5.9124 1.20967 1.01018 0
M  V30 53 C 6.8424 0.988272 2.11555 0
M  V30 54 C 7.8234 -0.0849778 1.69888 0
M  V30 55 O 9.0084 0.0738202 1.9406 0
M  V30 56 C 6.1384 0.546528 3.42973 0
M  V30 57 C 5.0924 1.56375 3.9841 0
M  V30 58 C 4.4184 0.97842 5.25672 0
M  V30 59 C 5.7184 2.94922 4.31066 0
M  V30 60 H 7.4124 1.91276 2.30334 0
M  V30 61 H 4.9584 0.921073 1.1069 0
M  V30 62 H 6.9114 0.378839 4.19694 0
M  V30 63 H 5.6354 -0.413598 3.23971 0
M  V30 64 H 4.2944 1.71891 3.23804 0
M  V30 65 H 3.9424 0.0101688 5.02999 0
M  V30 66 H 3.6424 1.65784 5.63728 0
M  V30 67 H 5.1664 0.821939 6.05043 0
M  V30 68 H 6.5804 2.8288 4.9865 0
M  V30 69 H 4.9774 3.5983 4.80253 0
M  V30 70 H 6.0474 3.4616 3.39561 0
M  V30 71 N 7.3905 -1.2043 1.01659 0
M  V30 72 C 8.3005 -2.2689 0.596484 0
M  V30 73 C 9.3165 -1.70107 -0.36599 0
M  V30 74 O 10.4925 -2.00117 -0.226942 0
M  V30 75 C 7.5575 -3.4665 -0.0586659 0
M  V30 76 C 6.6185 -4.18662 0.949751 0
M  V30 77 C 5.8515 -5.32705 0.32577 0
M  V30 78 O 6.0745 -5.63656 -0.874509 0
M  V30 79 O 5.0085 -5.92803 1.04249 0
M  V30 80 H 8.8345 -2.65041 1.4828 0
M  V30 81 H 6.4195 -1.27048 0.786082 0
M  V30 82 H 8.3015 -4.19256 -0.424564 0
M  V30 83 H 6.9765 -3.10375 -0.91918 0
M  V30 84 H 5.8835 -3.48229 1.36702 0
M  V30 85 H 7.2165 -4.58878 1.78023 0
M  V30 86 N 8.8686 -0.792821 -1.36206 0
M  V30 87 C 10.2846 -0.474903 -1.52371 0
M  V30 88 C 10.4846 1.00622 -1.74578 0
M  V30 89 O 9.5406 1.79162 -1.77924 0
M  V30 90 C 10.8536 -1.3083 -2.70747 0
M  V30 91 C 12.4016 -1.30234 -2.84619 0
M  V30 92 C 12.8766 -2.11956 -4.06004 0
M  V30 93 N 14.3676 -2.09419 -4.13156 0
M  V30 94 C 15.1026 -2.69419 -5.06163 0
M  V30 95 N 14.5986 -3.3829 -6.04592 0
M  V30 96 N 16.3916 -2.59134 -4.98804 0
M  V30 97 H 8.5426 -1.75222 -1.20046 0
M  V30 98 H 10.8056 -0.745024 -0.586211 0
M  V30 99 H 10.5116 -2.35881 -2.6087 0
M  V30 100 H 10.3856 -0.95196 -3.6499 0
M  V30 101 H 12.7726 -0.259748 -2.93955 0
M  V30 102 H 12.8536 -1.69847 -1.91274 0
M  V30 103 H 12.4976 -3.16248 -3.97429 0
M  V30 104 H 12.4276 -1.69711 -4.98503 0
M  V30 105 H 14.9186 -1.59297 -3.42685 0
M  V30 106 H 15.2316 -3.81394 -6.7213 0
M  V30 107 H 13.5766 -3.42393 -6.04807 0
M  V30 108 H 16.7676 -2.04927 -4.20859 0
M  V30 109 H 16.9406 -3.06185 -5.711 0
M  V30 110 N 10.3467 1.47872 -0.545128 0
M  V30 111 C 11.2567 2.33633 0.212746 0
M  V30 112 C 12.2727 1.4744 0.923983 0
M  V30 113 O 13.4487 1.80393 0.895572 0
M  V30 114 C 10.5137 3.23884 1.23693 0
M  V30 115 C 9.5747 4.25961 0.534417 0
M  V30 116 C 8.8077 5.11899 1.5098 0
M  V30 117 O 9.0307 5.00077 2.7437 0
M  V30 118 O 7.9647 5.92831 1.0409 0
M  V30 119 H 11.7907 2.99714 -0.490416 0
M  V30 120 H 9.3757 1.46235 -0.305871 0
M  V30 121 H 11.2577 3.79666 1.82843 0
M  V30 122 H 9.9327 2.60446 1.92222 0
M  V30 123 H 8.8397 3.73972 -0.0979679 0
M  V30 124 H 10.1727 4.92079 -0.109213 0
M  V30 125 N 11.8248 0.280983 1.55075 0
M  V30 126 C 12.7878 -0.590896 2.21452 0
M  V30 127 C 13.7878 -1.07682 1.19421 0
M  V30 128 O 14.9778 -0.97605 1.44288 0
M  V30 129 C 12.1098 -1.81587 2.88511 0
M  V30 130 H 13.3028 -0.0112554 2.99898 0
M  V30 131 H 10.8558 0.0316438 1.56268 0
M  V30 132 H 11.5908 -2.43587 2.14093 0
M  V30 133 H 11.3758 -1.4753 3.63287 0
M  V30 134 H 12.8658 -2.43575 3.39206 0
M  V30 135 N 13.3029 -1.57598 0.00835791 0
M  V30 136 C 14.7139 -1.7892 -0.53333 0
M  V30 137 C 15.0649 -0.916609 -1.73473 0
M  V30 138 O 14.1899 -0.121336 -2.1606 0
M  V30 139 C 14.7849 -3.24488 -0.974313 0
M  V30 140 C 13.3439 -3.46878 -1.46125 0
M  V30 141 C 12.4909 -2.74157 -0.416302 0
M  V30 142 H 15.4419 -1.56958 0.234495 0
M  V30 143 H 15.4629 -3.3306 -1.83988 0
M  V30 144 H 14.9749 -3.87972 -0.099718 0
M  V30 145 H 13.0759 -2.8862 -2.35646 0
M  V30 146 H 13.1889 -4.55572 -1.48295 0
M  V30 147 H 11.5529 -2.39022 -0.87981 0
M  V30 148 H 12.3359 -3.40345 0.44947 0
M  V30 149 N 14.781 0.264519 -1.55364 0
M  V30 150 C 15.744 1.31046 -1.88042 0
M  V30 151 C 16.744 1.41943 -0.755569 0
M  V30 152 O 17.934 1.40947 -1.02369 0
M  V30 153 C 15.066 2.69067 -2.09323 0
M  V30 154 H 16.259 1.03297 -2.81549 0
M  V30 155 H 13.812 0.502989 -1.47986 0
M  V30 156 H 14.547 3.01982 -1.18226 0
M  V30 157 H 14.332 2.62542 -2.91229 0
M  V30 158 H 15.822 3.44623 -2.35848 0
M  V30 159 N 16.2591 1.48442 0.529413 0
M  V30 160 C 17.5071 1.56179 1.28267 0
M  V30 161 C 17.8281 0.237721 1.93546 0
M  V30 162 O 17.0981 -0.740779 1.81354 0
M  V30 163 H 15.6781 0.575367 0.476405 0
M  V30 164 H 18.3401 1.84909 0.61602 0
M  V30 165 H 17.4361 2.34312 2.06165 0
M  V30 166 N 17.7372 -0.778329 1.37039 0
M  V30 167 C 18.7002 -1.87301 1.32102 0
M  V30 168 C 19.7002 -1.59198 0.226405 0
M  V30 169 O 20.8902 -1.67403 0.481861 0
M  V30 170 C 18.0222 -3.24309 1.05055 0
M  V30 171 H 19.2152 -1.93093 2.29467 0
M  V30 172 H 16.7682 -0.977358 1.21973 0
M  V30 173 H 17.5032 -3.24196 0.0819373 0
M  V30 174 H 17.2882 -3.46098 1.84279 0
M  V30 175 H 18.7782 -4.04382 1.04234 0
M  V30 176 N 19.2153 -1.21501 -1.00376 0
M  V30 177 C 20.1453 -0.999478 -2.11028 0
M  V30 178 C 21.1263 0.0759671 -1.6993 0
M  V30 179 O 22.3113 -0.0841106 -1.94018 0
M  V30 180 C 19.4413 -0.564709 -3.42678 0
M  V30 181 C 18.3953 -1.58486 -3.97576 0
M  V30 182 C 17.7213 -1.00628 -5.25146 0
M  V30 183 C 19.0213 -2.97204 -4.29496 0
M  V30 184 H 20.7153 -1.92495 -2.29317 0
M  V30 185 H 18.2613 -0.92693 -1.102 0
M  V30 186 H 20.2143 -0.401091 -4.19487 0
M  V30 187 H 18.9383 0.396411 -3.24185 0
M  V30 188 H 17.5973 -1.73606 -3.22888 0
M  V30 189 H 17.2453 -0.0368439 -5.02987 0
M  V30 190 H 16.9453 -1.68771 -5.62841 0
M  V30 191 H 18.4693 -0.854015 -6.04598 0
M  V30 192 H 19.8833 -2.8552 -4.97143 0
M  V30 193 H 18.2803 -3.62372 -4.78338 0
M  V30 194 H 19.3503 -3.47956 -3.3772 0
M  V30 195 N 20.6934 1.19889 -1.02296 0
M  V30 196 C 21.6564 2.21116 -0.603351 0
M  V30 197 C 22.6564 1.5738 0.329884 0
M  V30 198 O 23.8464 1.73802 0.117702 0
M  V30 199 C 20.9784 3.40696 0.117992 0
M  V30 200 H 22.1714 2.59754 -1.49893 0
M  V30 201 H 19.7244 1.33463 -0.813468 0
M  V30 202 H 20.4594 3.07569 1.0282 0
M  V30 203 H 20.2444 3.88188 -0.552511 0
M  V30 204 H 21.7344 4.15692 0.398696 0
M  V30 205 N 22.1715 0.800033 1.35784 0
M  V30 206 C 23.1345 0.211565 2.28221 0
M  V30 207 C 24.1345 -0.59728 1.49296 0
M  V30 208 O 25.3245 -0.416721 1.69142 0
M  V30 209 C 22.4565 -0.705846 3.33513 0
M  V30 210 H 23.6495 1.02677 2.81776 0
M  V30 211 H 21.2025 0.570211 1.45528 0
M  V30 212 H 21.9375 -1.54498 2.85133 0
M  V30 213 H 21.7225 -0.127655 3.91892 0
M  V30 214 H 23.2125 -1.11211 4.02519 0
M  V30 215 N 23.6496 -1.47581 0.552962 0
M  V30 216 C 24.8956 -2.02782 0.0273648 0
M  V30 217 C 25.2286 -1.42687 -1.31734 0
M  V30 218 O 24.5036 -0.580897 -1.85623 0
M  V30 219 C 24.7866 -3.60031 -0.0702371 0
M  V30 220 C 24.6396 -4.30566 1.30126 0
M  V30 221 C 25.9586 -4.33028 -0.785771 0
M  V30 222 H 23.0776 -0.736912 0.0114185 0
M  V30 223 H 25.7196 -1.76056 0.714432 0
M  V30 224 H 23.8696 -3.82932 -0.655382 0
M  V30 225 H 25.5416 -4.19018 1.92929 0
M  V30 226 H 23.7846 -3.91086 1.87709 0
M  V30 227 H 24.4556 -5.39114 1.18573 0
M  V30 228 H 26.9316 -4.15095 -0.288982 0
M  V30 229 H 25.8076 -5.42695 -0.823013 0
M  V30 230 H 26.0686 -4.01945 -1.841 0
M  V30 231 N 25.1277 -0.289203 -1.54924 0
M  V30 232 C 26.0577 0.58549 -2.2604 0
M  V30 233 C 27.0387 1.14753 -1.25562 0
M  V30 234 O 28.2237 1.17906 -1.54311 0
M  V30 235 C 25.3537 1.76305 -2.99222 0
M  V30 236 C 24.3077 1.33191 -4.06748 0
M  V30 237 C 23.6337 2.5937 -4.6758 0
M  V30 238 C 24.9337 0.471775 -5.20165 0
M  V30 239 H 26.6277 -0.00763532 -2.99399 0
M  V30 240 H 24.1737 -0.00511229 -1.43999 0
M  V30 241 H 26.1267 2.38097 -3.47689 0
M  V30 242 H 24.8507 2.38223 -2.23422 0
M  V30 243 H 23.5097 0.737121 -3.59113 0
M  V30 244 H 23.1577 3.19576 -3.88433 0
M  V30 245 H 22.8577 2.31228 -5.40192 0
M  V30 246 H 24.3817 3.21985 -5.18804 0
M  V30 247 H 25.7957 0.995056 -5.64599 0
M  V30 248 H 24.1927 0.284639 -5.99425 0
M  V30 249 H 25.2627 -0.506041 -4.82252 0
M  V30 250 N 26.6058 1.57591 -0.0167156 0
M  V30 251 C 27.5528 2.09462 0.969251 0
M  V30 252 C 28.5228 0.99381 1.33089 0
M  V30 253 O 29.7078 1.26726 1.42636 0
M  V30 254 C 26.8478 2.61622 2.25051 0
M  V30 255 C 25.9608 3.85666 1.94642 0
M  V30 256 C 25.0958 4.26266 3.16972 0
M  V30 257 C 24.1348 5.43101 2.82326 0
M  V30 258 N 23.2718 5.78915 3.97243 0
M  V30 259 H 28.1118 2.93428 0.519997 0
M  V30 260 H 25.6488 1.45044 0.245087 0
M  V30 261 H 27.6068 2.89949 2.99976 0
M  V30 262 H 26.2368 1.80505 2.67615 0
M  V30 263 H 25.2888 3.64145 1.10013 0
M  V30 264 H 26.6008 4.70678 1.65117 0
M  V30 265 H 25.7548 4.55963 4.00228 0
M  V30 266 H 24.4938 3.39996 3.49648 0
M  V30 267 H 23.4988 5.1311 1.97479 0
M  V30 268 H 24.7238 6.3106 2.50879 0
M  V30 269 H 22.6698 4.95602 4.29785 0
M  V30 270 H 22.5868 6.58539 3.71299 0
M  V30 271 H 23.8548 6.13212 4.81239 0
M  V30 272 N 28.0839 -0.256276 1.55502 0
M  V30 273 C 29.0339 -1.31981 1.85916 0
M  V30 274 C 30.0179 -1.43927 0.719296 0
M  V30 275 O 31.2099 -1.47326 0.981019 0
M  V30 276 C 28.3389 -2.67703 2.14918 0
M  V30 277 C 27.4249 -2.59801 3.35208 0
M  V30 278 N 27.8159 -2.21524 4.54709 0
M  V30 279 C 26.1139 -2.90832 3.38131 0
M  V30 280 C 26.8149 -2.24024 5.36832 0
M  V30 281 N 25.7909 -2.63158 4.75656 0
M  V30 282 H 29.5929 -1.01423 2.75845 0
M  V30 283 H 27.1069 -0.464911 1.55603 0
M  V30 284 H 29.1039 -3.44445 2.34869 0
M  V30 285 H 27.7639 -2.99137 1.26282 0
M  V30 286 H 28.7749 -1.93223 4.80505 0
M  V30 287 H 25.4519 -3.26867 2.59739 0
M  V30 288 H 26.8419 -1.9685 6.42417 0
M  V30 289 N 29.562 -1.4872 -0.521534 0
M  V30 290 C 30.787 -1.61101 -1.30618 0
M  V30 291 C 31.212 -0.274611 -1.86085 0
M  V30 292 O 30.57 0.754937 -1.64834 0
M  V30 293 C 30.618 -2.66709 -2.4269 0
M  V30 294 O 29.722 -2.24456 -3.45967 0
M  V30 295 H 29.063 -0.539921 -0.386499 0
M  V30 296 H 31.593 -1.94767 -0.626645 0
M  V30 297 H 31.603 -2.88245 -2.88754 0
M  V30 298 H 30.278 -3.63727 -2.01682 0
M  V30 299 H 28.855 -2.13168 -3.05964 0
M  V30 300 N 31.0401 0.771051 -1.3745 0
M  V30 301 C 32.2651 1.56529 -1.36065 0
M  V30 302 C 32.6901 1.88029 0.0515859 0
M  V30 303 O 32.0481 1.49282 1.02882 0
M  V30 304 C 32.0961 2.85187 -2.20683 0
M  V30 305 O 31.2001 3.79593 -1.61193 0
M  V30 306 H 30.5411 0.47411 -0.464883 0
M  V30 307 H 33.0711 0.954269 -1.80983 0
M  V30 308 H 33.0811 3.34283 -2.33921 0
M  V30 309 H 31.7561 2.61588 -3.23334 0
M  V30 310 H 30.3331 3.38239 -1.56999 0
M  V30 311 N 32.5182 1.22032 0.997298 0
M  V30 312 C 33.7462 1.06841 1.7718 0
M  V30 313 C 34.1612 -0.381325 1.84909 0
M  V30 314 O 33.5182 -1.26437 1.31605 0
M  V30 315 C 33.5692 1.66814 3.20711 0
M  V30 316 O 33.2902 3.06116 3.13408 0
M  V30 317 C 34.7912 1.56838 4.14628 0
M  V30 318 H 32.0112 0.374782 0.556578 0
M  V30 319 H 34.5552 1.61532 1.2541 0
M  V30 320 H 32.7102 1.16196 3.69564 0
M  V30 321 H 33.1242 3.34926 4.0364 0
M  V30 322 H 34.5982 2.03532 5.13107 0
M  V30 323 H 35.0752 0.524155 4.36061 0
M  V30 324 H 35.6812 2.06741 3.7167 0
M  V30 325 N 33.9963 -1.19345 1.0293 0
M  V30 326 C 34.9263 -2.2481 0.631105 0
M  V30 327 C 35.9073 -1.66245 -0.360104 0
M  V30 328 O 37.0923 -1.92677 -0.242726 0
M  V30 329 C 34.2223 -3.47295 -0.0184607 0
M  V30 330 C 33.1763 -4.18536 0.895073 0
M  V30 331 C 32.5023 -5.34586 0.110592 0
M  V30 332 C 33.8023 -4.73287 2.209 0
M  V30 333 H 35.4963 -2.58372 1.51275 0
M  V30 334 H 33.0423 -1.24194 0.728818 0
M  V30 335 H 34.9953 -4.20268 -0.308675 0
M  V30 336 H 33.7193 -3.12933 -0.934907 0
M  V30 337 H 32.3783 -3.47446 1.16949 0
M  V30 338 H 32.0263 -4.96469 -0.807902 0
M  V30 339 H 31.7263 -5.83183 0.719087 0
M  V30 340 H 33.2503 -6.10355 -0.172871 0
M  V30 341 H 34.6643 -5.38013 1.98028 0
M  V30 342 H 33.0613 -5.32373 2.76946 0
M  V30 343 H 34.1313 -3.91331 2.86336 0
M  V30 344 N 35.4744 -0.807222 -1.35358 0
M  V30 345 C 36.8854 -0.44876 -1.81226 0
M  V30 346 C 37.2364 1.02929 -1.67033 0
M  V30 347 O 36.3614 1.79991 -1.20133 0
M  V30 348 C 36.9564 -0.807774 -3.2903 0
M  V30 349 C 35.5154 -0.501901 -3.73039 0
M  V30 350 C 34.6624 -1.03304 -2.57339 0
M  V30 351 H 37.6134 -0.998808 -1.23327 0
M  V30 352 H 37.6344 -0.10554 -3.80354 0
M  V30 353 H 37.1464 -1.88357 -3.39328 0
M  V30 354 H 35.2474 0.565128 -3.68289 0
M  V30 355 H 35.3604 -1.03497 -4.67787 0
M  V30 356 H 33.7244 -0.455339 -2.50597 0
M  V30 357 H 34.5074 -2.11496 -2.70415 0
M  V30 358 N 36.9525 1.47285 -0.560781 0
M  V30 359 C 38.3635 1.86258 -0.128343 0
M  V30 360 C 38.7145 1.46699 1.30284 0
M  V30 361 O 37.8395 0.871698 1.98067 0
M  V30 362 C 38.4345 3.38044 -0.22614 0
M  V30 363 C 36.9935 3.76096 0.151283 0
M  V30 364 C 36.1405 2.71335 -0.572084 0
M  V30 365 H 39.0915 1.38752 -0.770297 0
M  V30 366 H 39.1125 3.76441 0.554322 0
M  V30 367 H 38.6245 3.66806 -1.26788 0
M  V30 368 H 36.7255 3.52951 1.19399 0
M  V30 369 H 36.8385 4.78641 -0.209765 0
M  V30 370 H 35.2025 2.54696 -0.0147653 0
M  V30 371 H 35.9855 3.02938 -1.61504 0
M  V30 372 N 38.4306 0.297415 1.54768 0
M  V30 373 C 39.3406 -0.58983 2.27064 0
M  V30 374 C 40.3566 -1.15144 1.30453 0
M  V30 375 O 41.5326 -1.17699 1.63428 0
M  V30 376 C 38.5976 -1.74714 2.9946 0
M  V30 377 C 37.6586 -1.21997 4.11601 0
M  V30 378 C 36.8916 -2.32212 4.80535 0
M  V30 379 O 37.1146 -3.52036 4.48806 0
M  V30 380 O 36.0486 -1.99106 5.68014 0
M  V30 381 H 39.8746 -0.00348199 3.037 0
M  V30 382 H 37.4596 0.0640035 1.49263 0
M  V30 383 H 39.3416 -2.42147 3.44881 0
M  V30 384 H 38.0166 -2.32016 2.25722 0
M  V30 385 H 36.9236 -0.511458 3.70587 0
M  V30 386 H 38.2566 -0.692419 4.87305 0
M  V30 387 N 39.9087 -1.5758 0.0250728 0
M  V30 388 C 41.1337 -1.96337 -0.668317 0
M  V30 389 C 41.5587 -0.901314 -1.651 0
M  V30 390 O 40.9167 0.138187 -1.80773 0
M  V30 391 C 40.9647 -3.34191 -1.35457 0
M  V30 392 O 40.0687 -3.30269 -2.46974 0
M  V30 393 H 39.4097 -0.640281 -0.175887 0
M  V30 394 H 41.9397 -2.0442 0.0857224 0
M  V30 395 H 41.9497 -3.70331 -1.71228 0
M  V30 396 H 40.6247 -4.11036 -0.634218 0
M  V30 397 H 39.2017 -3.05841 -2.13344 0
M  V30 398 N 41.3868 0.248026 -1.55636 0
M  V30 399 C 42.6148 0.993808 -1.81469 0
M  V30 400 C 43.0298 1.78991 -0.60064 0
M  V30 401 O 42.3868 1.77345 0.430682 0
M  V30 402 C 42.4378 1.93258 -3.05506 0
M  V30 403 O 42.1588 1.16869 -4.22224 0
M  V30 404 C 43.6598 2.79444 -3.4413 0
M  V30 405 H 40.8798 0.292486 -0.603898 0
M  V30 406 H 43.4238 0.271253 -2.02693 0
M  V30 407 H 41.5788 2.60943 -2.86335 0
M  V30 408 H 41.9928 1.80359 -4.92515 0
M  V30 409 H 43.4668 3.41066 -4.34026 0
M  V30 410 H 43.9438 3.50499 -2.64665 0
M  V30 411 H 44.5498 2.17214 -3.65648 0
M  V30 412 N 42.8649 1.48995 0.513639 0
M  V30 413 C 43.7969 1.60836 1.63293 0
M  V30 414 C 44.8099 0.491701 1.55197 0
M  V30 415 O 45.9989 0.763238 1.6136 0
M  V30 416 C 43.0989 1.53731 3.02027 0
M  V30 417 C 42.2719 2.80715 3.35437 0
M  V30 418 C 41.3309 2.66837 4.53525 0
M  V30 419 O 40.3569 3.40753 4.55934 0
M  V30 420 N 41.5589 1.77539 5.52684 0
M  V30 421 H 44.3239 2.57366 1.53566 0
M  V30 422 H 41.8849 1.45925 0.701259 0
M  V30 423 H 43.8769 1.42118 3.78926 0
M  V30 424 H 42.4469 0.651092 3.05744 0
M  V30 425 H 41.6669 3.06772 2.47557 0
M  V30 426 H 42.9549 3.64927 3.54551 0
M  V30 427 H 42.3529 1.16719 5.53528 0
M  V30 428 H 40.9099 1.71856 6.28736 0
M  V30 429 N 44.343 -0.763751 1.37857 0
M  V30 430 C 45.589 -1.52483 1.33704 0
M  V30 431 C 45.922 -1.94051 -0.0759612 0
M  V30 432 O 45.197 -1.64675 -1.03501 0
M  V30 433 C 45.48 -2.78441 2.28348 0
M  V30 434 C 45.333 -2.43075 3.78463 0
M  V30 435 C 46.652 -3.80415 2.21298 0
M  V30 436 H 43.771 -0.553169 0.487005 0
M  V30 437 H 46.413 -0.875562 1.68624 0
M  V30 438 H 44.563 -3.33842 1.987 0
M  V30 439 H 46.235 -1.93527 4.18742 0
M  V30 440 H 44.478 -1.75666 3.96641 0
M  V30 441 H 45.149 -3.33149 4.40132 0
M  V30 442 H 47.625 -3.34527 2.47449 0
M  V30 443 H 46.501 -4.66257 2.89647 0
M  V30 444 H 46.762 -4.25262 1.20849 0
M  V30 445 N 45.8211 -1.22559 -0.990812 0
M  V30 446 C 47.2371 -0.985996 -1.255 0
M  V30 447 C 47.4371 0.319173 -1.98956 0
M  V30 448 O 46.4931 1.04127 -2.3003 0
M  V30 449 C 47.8061 -2.18607 -2.06474 0
M  V30 450 C 49.3541 -2.22985 -2.19651 0
M  V30 451 C 49.8291 -3.4255 -3.04012 0
M  V30 452 N 51.3201 -3.42725 -3.11599 0
M  V30 453 C 52.0551 -4.31892 -3.7717 0
M  V30 454 N 51.5511 -5.31279 -4.44651 0
M  V30 455 N 53.3441 -4.19662 -3.73952 0
M  V30 456 H 45.4951 -2.06469 -0.49841 0
M  V30 457 H 47.7581 -0.904853 -0.282747 0
M  V30 458 H 47.4641 -3.13267 -1.59865 0
M  V30 459 H 47.3381 -2.18838 -3.07229 0
M  V30 460 H 49.7251 -1.28871 -2.65474 0
M  V30 461 H 49.8061 -2.26791 -1.18319 0
M  V30 462 H 49.4501 -4.36965 -2.58889 0
M  V30 463 H 49.3801 -3.35984 -4.0549 0
M  V30 464 H 51.8711 -2.70807 -2.63575 0
M  V30 465 H 52.1841 -5.95593 -4.92431 0
M  V30 466 H 50.5291 -5.3519 -4.43392 0
M  V30 467 H 53.7201 -3.41268 -3.20396 0
M  V30 468 H 53.8931 -4.89358 -4.24774 0
M  V30 469 N 47.2992 1.18797 -1.03562 0
M  V30 470 C 48.5472 1.88278 -0.734569 0
M  V30 471 C 48.8682 1.8043 0.739586 0
M  V30 472 O 48.1382 1.21925 1.53333 0
M  V30 473 H 46.7182 0.696991 -0.268725 0
M  V30 474 H 49.3802 1.44192 -1.31129 0
M  V30 475 H 48.4762 2.94443 -1.03489 0
M  V30 476 N 48.7773 0.814389 1.34928 0
M  V30 477 C 50.0073 0.41054 2.0248 0
M  V30 478 C 50.4153 -0.985625 1.61499 0
M  V30 479 O 49.7583 -1.64781 0.811976 0
M  V30 480 C 49.8203 0.423384 3.56998 0
M  V30 481 C 49.4843 1.77141 4.21272 0
M  V30 482 C 50.4813 2.73093 4.42398 0
M  V30 483 C 48.1663 2.05755 4.58225 0
M  V30 484 C 50.1603 3.95838 4.9959 0
M  V30 485 C 47.8473 3.28762 5.1513 0
M  V30 486 C 48.8453 4.23621 5.35755 0
M  V30 487 O 48.5333 5.44456 5.91458 0
M  V30 488 H 48.2653 0.163997 0.655806 0
M  V30 489 H 50.8193 1.10155 1.73364 0
M  V30 490 H 49.0493 -0.324276 3.85338 0
M  V30 491 H 50.7383 0.0407683 4.0588 0
M  V30 492 H 51.5043 2.5228 4.14222 0
M  V30 493 H 47.3833 1.32727 4.4148 0
M  V30 494 H 50.9273 4.69891 5.15605 0
M  V30 495 H 46.8243 3.49443 5.42734 0
M  V30 496 H 47.5923 5.4586 6.09901 0
M  V30 497 N 50.2554 -1.46986 0.568584 0
M  V30 498 C 51.5324 -1.95592 -0.0174074 0
M  V30 499 C 51.9124 -1.51124 -1.47393 0
M  V30 500 O 51.2604 -0.755329 -2.15655 0
M  V30 501 C 51.4704 -3.48719 0.139913 0
M  V30 502 C 52.8184 -4.246 0.000426376 0
M  V30 503 O 53.8424 -3.56135 0.0680316 0
M  V30 504 O 52.7014 -5.46302 -0.146988 0
M  V30 505 H 49.7954 -0.82498 -0.0577599 0
M  V30 506 H 52.3414 -1.57335 0.635909 0
M  V30 507 H 51.1134 -3.73927 1.15301 0
M  V30 508 H 50.7364 -3.93771 -0.550491 0
M  V30 509 N 51.7335 -0.305618 -1.54608 0
M  V30 510 C 52.9805 0.302298 -2.00231 0
M  V30 511 C 53.3085 1.5354 -1.19398 0
M  V30 512 O 52.5635 1.93973 -0.259423 0
M  V30 513 C 52.8625 0.698983 -3.50498 0
M  V30 514 C 52.5285 -0.432903 -4.48817 0
M  V30 515 C 51.1905 -0.743622 -4.75419 0
M  V30 516 C 53.5425 -1.19409 -5.07337 0
M  V30 517 C 50.8705 -1.81857 -5.57804 0
M  V30 518 C 53.2225 -2.25899 -5.90891 0
M  V30 519 C 51.8865 -2.57572 -6.15803 0
M  V30 520 H 51.1565 0.110619 -0.732697 0
M  V30 521 H 53.8035 -0.425674 -1.86709 0
M  V30 522 H 52.1085 1.50711 -3.61654 0
M  V30 523 H 53.8055 1.1806 -3.83227 0
M  V30 524 H 50.3955 -0.18063 -4.28219 0
M  V30 525 H 54.5795 -0.967295 -4.86782 0
M  V30 526 H 49.8355 -2.06864 -5.75341 0
M  V30 527 H 54.0095 -2.85335 -6.35261 0
M  V30 528 H 51.6365 -3.40998 -6.7943 0
M  V30 529 N 53.2116 1.57565 -0.0334293 0
M  V30 530 C 54.1596 2.1164 0.96496 0
M  V30 531 C 55.1536 1.04398 1.33407 0
M  V30 532 O 56.3596 1.22828 1.3158 0
M  V30 533 H 52.7346 0.676222 0.32898 0
M  V30 534 H 54.7056 2.94455 0.483614 0
M  V30 535 C 53.4546 2.66207 2.23672 0
M  V30 536 H 52.7776 3.48378 1.96145 0
M  V30 537 H 54.2176 3.07685 2.9173 0
M  V30 538 C 52.6766 1.59151 2.96939 0
M  V30 539 O 53.2066 0.993858 3.89211 0
M  V30 540 N 51.4126 1.31093 2.59351 0
M  V30 541 H 50.9596 1.7988 1.84393 0
M  V30 542 H 50.9176 0.596889 3.08682 0
M  V30 543 N 54.6897 -0.239769 1.55765 0
M  V30 544 C 56.1057 -0.588624 1.48349 0
M  V30 545 C 56.3057 -1.88005 0.72502 0
M  V30 546 O 55.3617 -2.51186 0.257269 0
M  V30 547 C 56.6747 -0.68474 2.928 0
M  V30 548 C 58.2227 -0.77659 3.03213 0
M  V30 549 C 58.6977 -0.904207 4.48986 0
M  V30 550 N 60.1887 -0.968896 4.52953 0
M  V30 551 C 60.9237 -1.08703 5.63002 0
M  V30 552 N 60.4197 -1.17026 6.82845 0
M  V30 553 N 62.2127 -1.12074 5.50814 0
M  V30 554 H 54.3637 0.607911 2.03515 0
M  V30 555 H 56.6267 0.21083 0.924259 0
M  V30 556 H 56.3327 0.194284 3.51163 0
M  V30 557 H 56.2067 -1.55435 3.43686 0
M  V30 558 H 58.5937 -1.64606 2.44926 0
M  V30 559 H 58.6747 0.118315 2.55526 0
M  V30 560 H 58.3187 -0.0392633 5.07885 0
M  V30 561 H 58.2487 -1.81426 4.9436 0
M  V30 562 H 60.7397 -0.915633 3.6664 0
M  V30 563 H 61.0527 -1.25966 7.62465 0
M  V30 564 H 59.3977 -1.13971 6.85591 0
M  V30 565 H 62.5887 -1.05226 4.5612 0
M  V30 566 H 62.7617 -1.20936 6.36615 0
M  V30 567 N 56.1678 -1.49265 -0.50573 0
M  V30 568 C 57.4158 -1.582 -1.25766 0
M  V30 569 C 57.7368 -0.268482 -1.93143 0
M  V30 570 O 57.0068 0.711833 -1.8251 0
M  V30 571 H 55.5868 -0.582873 -0.467191 0
M  V30 572 H 58.2488 -1.85865 -0.586525 0
M  V30 573 H 57.3448 -2.37563 -2.02412 0
M  V30 574 N 57.6459 0.756429 -1.3826 0
M  V30 575 C 58.8919 1.51772 -1.34511 0
M  V30 576 C 59.2249 1.94089 0.0656691 0
M  V30 577 O 58.4999 1.65221 1.02626 0
M  V30 578 C 58.7829 2.77226 -2.29821 0
M  V30 579 C 58.6359 2.41065 -3.79747 0
M  V30 580 C 59.9549 3.79236 -2.23312 0
M  V30 581 H 57.0739 0.550578 -0.489931 0
M  V30 582 H 59.7159 0.866607 -1.69086 0
M  V30 583 H 57.8659 3.32784 -2.00467 0
M  V30 584 H 59.5379 1.91303 -4.19763 0
M  V30 585 H 57.7809 1.7356 -3.97567 0
M  V30 586 H 58.4519 3.3081 -4.41892 0
M  V30 587 H 60.9279 3.3321 -2.49219 0
M  V30 588 H 59.8039 4.64714 -2.92116 0
M  V30 589 H 60.0649 4.24615 -1.23102 0
M  V30 590 N 59.124 1.23083 0.984299 0
M  V30 591 C 60.072 1.00593 2.09723 0
M  V30 592 C 61.066 -0.0538014 1.69315 0
M  V30 593 O 62.272 0.0993719 1.79725 0
M  V30 594 H 58.647 0.30817 0.685956 0
M  V30 595 H 60.618 1.95012 2.2586 0
M  V30 596 C 59.367 0.609601 3.42314 0
M  V30 597 H 58.69 1.41675 3.73856 0
M  V30 598 H 60.13 0.491726 4.21139 0
M  V30 599 C 58.589 -0.681745 3.2993 0
M  V30 600 O 59.119 -1.73192 3.62446 0
M  V30 601 N 57.325 -0.656178 2.83095 0
M  V30 602 H 56.872 0.198759 2.56832 0
M  V30 603 H 56.83 -1.52044 2.75191 0
M  V30 604 N 60.6021 -1.18246 1.0419 0
M  V30 605 C 61.8321 -1.91916 0.764961 0
M  V30 606 C 62.2401 -1.76485 -0.681898 0
M  V30 607 O 61.5831 -1.09275 -1.47664 0
M  V30 608 C 61.6451 -3.4373 1.05309 0
M  V30 609 C 61.3091 -3.8294 2.4941 0
M  V30 610 C 62.3061 -3.86621 3.47592 0
M  V30 611 C 59.9911 -4.142 2.84155 0
M  V30 612 C 61.9851 -4.21013 4.78568 0
M  V30 613 C 59.6721 -4.48262 4.15337 0
M  V30 614 C 60.6701 -4.51645 5.12353 0
M  V30 615 O 60.3581 -4.84911 6.41183 0
M  V30 616 H 60.0901 -0.61606 0.278292 0
M  V30 617 H 62.6441 -1.50947 1.39299 0
M  V30 618 H 60.8741 -3.84946 0.367933 0
M  V30 619 H 62.5631 -3.9865 0.763752 0
M  V30 620 H 63.3291 -3.62607 3.22089 0
M  V30 621 H 59.2081 -4.10743 2.09311 0
M  V30 622 H 62.7521 -4.23568 5.54289 0
M  V30 623 H 58.6491 -4.71737 4.40607 0
M  V30 624 H 59.4171 -5.02809 6.45852 0
M  V30 625 N 62.0802 -0.821533 -1.34494 0
M  V30 626 C 63.4962 -0.507117 -1.51329 0
M  V30 627 C 63.6962 0.968964 -1.76673 0
M  V30 628 O 62.7522 1.75348 -1.81685 0
M  V30 629 C 64.0652 -1.36544 -2.67911 0
M  V30 630 C 65.6132 -1.36242 -2.81793 0
M  V30 631 C 66.0882 -2.2052 -4.01416 0
M  V30 632 N 67.5792 -2.18136 -4.08621 0
M  V30 633 C 68.3142 -2.80095 -5.00334 0
M  V30 634 N 67.8102 -3.51039 -5.9728 0
M  V30 635 N 69.6032 -2.69656 -4.93196 0
M  V30 636 H 61.7542 -1.77729 -1.16302 0
M  V30 637 H 64.0172 -0.757291 -0.570276 0
M  V30 638 H 63.7232 -2.41361 -2.55808 0
M  V30 639 H 63.5972 -1.02917 -3.62888 0
M  V30 640 H 65.9842 -0.322041 -2.93338 0
M  V30 641 H 66.0652 -1.73866 -1.87628 0
M  V30 642 H 65.7092 -3.24607 -3.90631 0
M  V30 643 H 65.6392 -1.80247 -4.94791 0
M  V30 644 H 68.1302 -1.6653 -3.39229 0
M  V30 645 H 68.4432 -3.95565 -6.63889 0
M  V30 646 H 66.7882 -3.55145 -5.97409 0
M  V30 647 H 69.9792 -2.13808 -4.16418 0
M  V30 648 H 70.1522 -3.1823 -5.64476 0
M  V30 649 N 63.5583 1.46682 -0.576371 0
M  V30 650 C 64.5213 2.28707 0.150239 0
M  V30 651 C 65.5213 1.38035 0.824794 0
M  V30 652 O 66.7113 1.60476 0.677719 0
M  V30 653 C 63.8433 3.18248 1.22192 0
M  V30 654 H 65.0363 2.94423 -0.570521 0
M  V30 655 H 62.5893 1.52688 -0.334078 0
M  V30 656 H 63.3243 2.57265 1.97447 0
M  V30 657 H 63.1093 3.85 0.742812 0
M  V30 658 H 64.5993 3.80001 1.73172 0
M  V30 659 N 65.0364 0.313813 1.54444 0
M  V30 660 C 65.9664 -0.549454 2.26943 0
M  V30 661 C 66.9474 -1.12741 1.27372 0
M  V30 662 O 68.1324 -1.15436 1.56167 0
M  V30 663 C 65.2624 -1.71523 3.01989 0
M  V30 664 C 64.2164 -1.26703 4.08816 0
M  V30 665 C 63.5424 -2.51898 4.71647 0
M  V30 666 C 64.8424 -0.388962 5.2085 0
M  V30 667 H 66.5364 0.0552661 2.99349 0
M  V30 668 H 64.0824 0.0280207 1.43973 0
M  V30 669 H 66.0354 -2.32535 3.51433 0
M  V30 670 H 64.7594 -2.34639 2.27183 0
M  V30 671 H 63.4184 -0.679896 3.6024 0
M  V30 672 H 63.0664 -3.13356 3.93468 0
M  V30 673 H 62.7664 -2.22605 5.43802 0
M  V30 674 H 64.2904 -3.1369 5.23861 0
M  V30 675 H 65.7044 -0.905107 5.6611 0
M  V30 676 H 64.1014 -0.18924 5.99802 0
M  V30 677 H 65.1714 0.582699 4.81386 0
M  V30 678 N 66.5145 -1.57545 0.0417849 0
M  V30 679 C 67.4445 -2.14009 -0.933929 0
M  V30 680 C 68.4255 -1.05938 -1.33083 0
M  V30 681 O 69.6105 -1.33833 -1.40721 0
M  V30 682 C 66.7405 -2.67747 -2.21199 0
M  V30 683 C 65.6945 -3.80718 -1.95544 0
M  V30 684 C 65.0205 -4.20935 -3.29724 0
M  V30 685 C 66.3205 -5.06258 -1.28452 0
M  V30 686 H 68.0145 -2.95788 -0.463645 0
M  V30 687 H 65.5605 -1.42285 -0.221573 0
M  V30 688 H 67.5135 -3.05886 -2.89848 0
M  V30 689 H 66.2375 -1.83147 -2.70416 0
M  V30 690 H 64.8965 -3.43037 -1.2931 0
M  V30 691 H 64.5445 -3.33298 -3.76724 0
M  V30 692 H 64.2445 -4.9707 -3.13361 0
M  V30 693 H 65.7685 -4.61666 -3.9962 0
M  V30 694 H 67.1825 -5.41903 -1.8712 0
M  V30 695 H 65.5795 -5.87475 -1.22445 0
M  V30 696 H 66.6495 -4.84207 -0.259219 0
M  V30 697 N 67.9926 0.231505 -1.5589 0
M  V30 698 C 68.9026 1.308 -1.94752 0
M  V30 699 C 69.9186 1.51826 -0.849989 0
M  V30 700 O 71.0946 1.6515 -1.15271 0
M  V30 701 C 68.1596 2.63968 -2.24771 0
M  V30 702 C 67.2206 2.51331 -3.48039 0
M  V30 703 C 66.4536 3.78148 -3.76616 0
M  V30 704 O 66.6766 4.80722 -3.07022 0
M  V30 705 O 65.6106 3.75857 -4.70123 0
M  V30 706 H 69.4366 1.0083 -2.86474 0
M  V30 707 H 67.0216 0.433547 -1.42971 0
M  V30 708 H 68.9036 3.42633 -2.45318 0
M  V30 709 H 67.5786 2.9364 -1.36225 0
M  V30 710 H 66.4856 1.709 -3.32782 0
M  V30 711 H 67.8186 2.26601 -4.36936 0
M  V30 712 N 69.4707 1.49531 0.497807 0
M  V30 713 C 70.4337 1.65916 1.58128 0
M  V30 714 C 71.4337 0.530825 1.51786 0
M  V30 715 O 72.6237 0.797342 1.54881 0
M  V30 716 C 69.7557 1.65951 2.9778 0
M  V30 717 H 70.9487 2.62556 1.44929 0
M  V30 718 H 68.5017 1.38611 0.722275 0
M  V30 719 H 69.2367 0.709065 3.16453 0
M  V30 720 H 69.0217 2.47897 3.03792 0
M  V30 721 H 70.5117 1.80673 3.76493 0
M  V30 722 N 70.9488 -0.749086 1.3866 0
M  V30 723 C 72.1958 -1.50833 1.35114 0
M  V30 724 C 72.5238 -1.94415 -0.0574049 0
M  V30 725 O 71.7788 -1.66065 -1.03541 0
M  V30 726 C 72.0778 -2.7712 2.25697 0
M  V30 727 C 71.7438 -2.52477 3.73585 0
M  V30 728 C 70.4058 -2.45466 4.13884 0
M  V30 729 C 72.7578 -2.31066 4.67181 0
M  V30 730 C 70.0858 -2.15064 5.45861 0
M  V30 731 C 72.4378 -2.02183 5.9942 0
M  V30 732 C 71.1018 -1.93631 6.38798 0
M  V30 733 H 70.3718 -0.551936 0.494416 0
M  V30 734 H 73.0188 -0.860979 1.71054 0
M  V30 735 H 71.3238 -3.46528 1.82827 0
M  V30 736 H 73.0208 -3.35096 2.20254 0
M  V30 737 H 69.6108 -2.58807 3.41638 0
M  V30 738 H 73.7948 -2.35459 4.3689 0
M  V30 739 H 69.0508 -2.06954 5.75308 0
M  V30 740 H 73.2248 -1.8462 6.71482 0
M  V30 741 H 70.8518 -1.69839 7.40985 0
M  V30 742 N 72.4269 -1.23603 -0.977757 0
M  V30 743 C 73.6749 -1.06759 -1.71601 0
M  V30 744 C 73.9959 0.395929 -1.90938 0
M  V30 745 O 73.2659 1.28356 -1.47992 0
M  V30 746 H 71.8459 -0.392062 -0.635843 0
M  V30 747 H 74.5079 -1.55362 -1.1768 0
M  V30 748 H 73.6039 -1.55763 -2.70452 0
M  V30 749 N 73.905 1.17692 -1.04816 0
M  V30 750 C 75.133 1.91786 -0.776254 0
M  V30 751 C 75.548 1.76604 0.667577 0
M  V30 752 O 74.905 1.10067 1.45573 0
M  V30 753 C 74.956 3.42967 -1.14263 0
M  V30 754 O 74.677 3.57678 -2.52978 0
M  V30 755 C 76.178 4.34144 -0.896311 0
M  V30 756 H 73.398 0.608624 -0.282519 0
M  V30 757 H 75.942 1.49268 -1.39783 0
M  V30 758 H 74.097 3.83245 -0.565874 0
M  V30 759 H 74.511 4.51319 -2.67229 0
M  V30 760 H 75.985 5.38744 -1.20244 0
M  V30 761 H 76.462 4.38876 0.168636 0
M  V30 762 H 77.068 3.99574 -1.45672 0
M  V30 763 N 75.3831 0.828654 1.34056 0
M  V30 764 C 76.6111 0.43262 2.02326 0
M  V30 765 C 77.0261 -0.963147 1.62385 0
M  V30 766 O 76.3831 -1.62425 0.832121 0
M  V30 767 C 76.4341 0.53182 3.57567 0
M  V30 768 O 76.1551 1.87258 3.96063 0
M  V30 769 C 77.6561 0.131422 4.43105 0
M  V30 770 H 74.8761 0.172923 0.648335 0
M  V30 771 H 77.4201 1.1184 1.71208 0
M  V30 772 H 75.5751 -0.105938 3.87255 0
M  V30 773 H 75.9891 1.85087 4.90758 0
M  V30 774 H 77.4631 0.251904 5.51425 0
M  V30 775 H 77.9401 -0.925645 4.29335 0
M  V30 776 H 78.5461 0.743207 4.18756 0
M  V30 777 N 76.8612 -1.46375 0.584142 0
M  V30 778 C 78.1092 -2.01978 0.0701287 0
M  V30 779 C 78.4302 -1.4579 -1.295 0
M  V30 780 O 77.7002 -0.64314 -1.85042 0
M  V30 781 H 76.2802 -0.746648 0.0229345 0
M  V30 782 H 78.9422 -1.79461 0.760245 0
M  V30 783 H 78.0382 -3.121 0.0022064 0
M  V30 784 N 78.3393 -0.321999 -1.54275 0
M  V30 785 C 79.5863 0.281044 -2.0054 0
M  V30 786 C 79.9143 1.52265 -1.21019 0
M  V30 787 O 79.1693 1.93687 -0.279982 0
M  V30 788 C 79.4683 0.661769 -3.5122 0
M  V30 789 C 79.1343 -0.480482 -4.48333 0
M  V30 790 C 77.7963 -0.794005 -4.74604 0
M  V30 791 C 80.1483 -1.24783 -5.06042 0
M  V30 792 C 77.4763 -1.87763 -5.55844 0
M  V30 793 C 79.8283 -2.32153 -5.88462 0
M  V30 794 C 78.4923 -2.64089 -6.13036 0
M  V30 795 H 77.7623 0.102841 -0.733829 0
M  V30 796 H 80.4093 -0.445453 -1.86247 0
M  V30 797 H 78.7143 1.46867 -3.63232 0
M  V30 798 H 80.4113 1.13989 -3.84457 0
M  V30 799 H 77.0013 -0.226039 -4.28004 0
M  V30 800 H 81.1853 -1.01887 -4.85729 0
M  V30 801 H 76.4413 -2.12954 -5.73115 0
M  V30 802 H 80.6153 -2.92057 -6.32199 0
M  V30 803 H 78.2423 -3.48185 -6.75775 0
M  V30 804 N 79.8174 1.5752 -0.0501392 0
M  V30 805 C 80.7494 2.08413 0.95376 0
M  V30 806 C 81.7624 1.01175 1.27544 0
M  V30 807 O 82.9514 1.28744 1.23641 0
M  V30 808 C 80.0514 2.51138 2.27559 0
M  V30 809 C 79.2244 3.817 2.13598 0
M  V30 810 C 78.2834 4.10749 3.28895 0
M  V30 811 O 77.3094 4.80685 3.04845 0
M  V30 812 N 78.5114 3.62579 4.5334 0
M  V30 813 H 81.2764 2.95165 0.519383 0
M  V30 814 H 78.8374 1.61327 0.136127 0
M  V30 815 H 80.8294 2.67648 3.03557 0
M  V30 816 H 79.3994 1.6964 2.62567 0
M  V30 817 H 78.6194 3.74782 1.22197 0
M  V30 818 H 79.9074 4.67201 2.01496 0
M  V30 819 H 79.3054 3.06039 4.75769 0
M  V30 820 H 77.8624 3.84329 5.26436 0
M  V30 821 N 81.2955 -0.223234 1.56011 0
M  V30 822 C 82.2585 -1.26014 1.9145 0
M  V30 823 C 83.2585 -1.3989 0.792937 0
M  V30 824 O 84.4485 -1.38184 1.0607 0
M  V30 825 C 81.5805 -2.63422 2.16383 0
M  V30 826 H 82.7735 -0.95796 2.84189 0
M  V30 827 H 80.3265 -0.463576 1.49267 0
M  V30 828 H 81.0615 -2.98741 1.2619 0
M  V30 829 H 80.8465 -2.54728 2.98088 0
M  V30 830 H 82.3365 -3.38249 2.44903 0
M  V30 831 N 82.7736 -1.49793 -0.48987 0
M  V30 832 C 84.0016 -1.63568 -1.26701 0
M  V30 833 C 84.4166 -0.311465 -1.86213 0
M  V30 834 O 83.7736 0.704416 -1.68357 0
M  V30 835 C 83.8246 -2.71284 -2.38929 0
M  V30 836 O 83.5456 -3.9857 -1.81861 0
M  V30 837 C 85.0466 -2.95864 -3.3012 0
M  V30 838 H 82.2666 -0.550342 -0.383881 0
M  V30 839 H 84.8106 -1.95898 -0.586864 0
M  V30 840 H 82.9656 -2.417 -3.02753 0
M  V30 841 H 83.3796 -4.57993 -2.55622 0
M  V30 842 H 84.8536 -3.74941 -4.05121 0
M  V30 843 H 85.3306 -2.06206 -3.87783 0
M  V30 844 H 85.9366 -3.26907 -2.72051 0
M  V30 845 N 84.2517 0.741722 -1.39055 0
M  V30 846 C 85.1997 1.87702 -1.3737 0
M  V30 847 C 86.1937 1.67427 -0.257812 0
M  V30 848 O 87.3997 1.7485 -0.427489 0
M  V30 849 H 83.7747 0.617757 -0.428812 0
M  V30 850 H 85.7457 1.86239 -2.33147 0
M  V30 851 C 84.4947 3.25315 -1.22741 0
M  V30 852 H 83.8177 3.41509 -2.07873 0
M  V30 853 H 85.2577 4.04964 -1.25618 0
M  V30 854 C 83.7167 3.36838 0.0647316 0
M  V30 855 O 84.2467 3.88073 1.03741 0
M  V30 856 N 82.4527 2.90329 0.125544 0
M  V30 857 H 81.9997 2.48823 -0.666682 0
M  V30 858 H 81.9577 2.98418 0.989639 0
M  V30 859 N 85.7298 1.2412 0.971189 0
M  V30 860 C 86.9768 1.07881 1.71371 0
M  V30 861 C 87.3048 -0.382901 1.90694 0
M  V30 862 O 86.5598 -1.29945 1.46331 0
M  V30 863 C 86.8588 1.75983 3.11071 0
M  V30 864 C 86.5248 3.25909 3.11599 0
M  V30 865 C 85.1868 3.66813 3.11451 0
M  V30 866 C 87.5388 4.21771 3.062 0
M  V30 867 C 84.8668 5.02021 3.03631 0
M  V30 868 C 87.2188 5.56982 2.99923 0
M  V30 869 C 85.8828 5.97237 2.98102 0
M  V30 870 H 85.1528 0.394764 0.62709 0
M  V30 871 H 87.7998 1.54176 1.13587 0
M  V30 872 H 86.1048 1.22072 3.72298 0
M  V30 873 H 87.8018 1.60887 3.6731 0
M  V30 874 H 84.3918 2.93353 3.12477 0
M  V30 875 H 88.5758 3.91172 3.05447 0
M  V30 876 H 83.8318 5.32411 3.0058 0
M  V30 877 H 88.0058 6.30969 2.94704 0
M  V30 878 H 85.6328 7.01967 2.91798 0
M  V30 879 N 87.2079 -1.17134 1.05439 0
M  V30 880 C 88.4559 -1.87085 0.764429 0
M  V30 881 C 88.7769 -1.81584 -0.710787 0
M  V30 882 O 88.0469 -1.24349 -1.51374 0
M  V30 883 H 86.6269 -0.692627 0.279779 0
M  V30 884 H 89.2889 -1.42087 1.33406 0
M  V30 885 H 88.3849 -2.92759 1.0816 0
M  V30 886 N 88.686 -0.835752 -1.33615 0
M  V30 887 C 90.102 -0.523139 -1.50783 0
M  V30 888 C 90.302 0.950171 -1.77691 0
M  V30 889 O 89.358 1.73411 -1.83534 0
M  V30 890 C 90.671 -1.39378 -2.66448 0
M  V30 891 C 92.219 -1.39223 -2.80332 0
M  V30 892 C 92.694 -2.24765 -3.99055 0
M  V30 893 N 94.185 -2.22458 -4.06284 0
M  V30 894 C 94.92 -2.85386 -4.97336 0
M  V30 895 N 94.416 -3.57354 -5.93523 0
M  V30 896 N 96.209 -2.74872 -4.90308 0
M  V30 897 H 88.36 -1.78952 -1.14411 0
M  V30 898 H 90.623 -0.763297 -0.562212 0
M  V30 899 H 90.329 -2.44061 -2.53234 0
M  V30 900 H 90.203 -1.0676 -3.61776 0
M  V30 901 H 92.59 -0.353136 -2.92979 0
M  V30 902 H 92.671 -1.75846 -1.85773 0
M  V30 903 H 92.315 -3.28732 -3.87167 0
M  V30 904 H 92.245 -1.85485 -4.92852 0
M  V30 905 H 94.736 -1.70119 -3.37443 0
M  V30 906 H 95.049 -4.02584 -6.59656 0
M  V30 907 H 93.394 -3.61461 -5.93608 0
M  V30 908 H 96.585 -2.18213 -4.14126 0
M  V30 909 H 96.758 -3.24199 -5.61069 0
M  V30 910 N 90.1641 1.46063 -0.591896 0
M  V30 911 C 91.1271 2.28854 0.125973 0
M  V30 912 C 92.1271 1.38903 0.810107 0
M  V30 913 O 93.3171 1.61186 0.66066 0
M  V30 914 C 90.4491 3.19526 1.1881 0
M  V30 915 H 91.6421 2.93802 -0.601717 0
M  V30 916 H 89.1951 1.52325 -0.350254 0
M  V30 917 H 89.9301 2.59345 1.94707 0
M  V30 918 H 89.7151 3.85766 0.701936 0
M  V30 919 H 91.2051 3.81817 1.69132 0
M  V30 920 N 91.6422 0.330177 1.54103 0
M  V30 921 C 92.8882 -0.270806 2.00984 0
M  V30 922 C 93.2212 -1.51265 1.21789 0
M  V30 923 O 92.4962 -1.92142 0.301927 0
M  V30 924 C 92.7792 -0.598339 3.55094 0
M  V30 925 C 92.6322 0.654674 4.4501 0
M  V30 926 C 93.9512 -1.41334 4.16789 0
M  V30 927 H 91.0702 -0.0969531 0.730595 0
M  V30 928 H 93.7122 0.448066 1.84641 0
M  V30 929 H 91.8622 -1.21078 3.69151 0
M  V30 930 H 93.5342 1.29285 4.42813 0
M  V30 931 H 91.7772 1.28224 4.14416 0
M  V30 932 H 92.4482 0.380944 5.50684 0
M  V30 933 H 94.9242 -0.895597 4.06347 0
M  V30 934 H 93.8002 -1.61127 5.24718 0
M  V30 935 H 94.0612 -2.41146 3.70541 0
M  V30 936 N 93.1203 -1.57491 0.0584922 0
M  V30 937 C 94.0523 -2.08916 -0.942694 0
M  V30 938 C 95.0653 -1.0185 -1.27006 0
M  V30 939 O 96.2543 -1.29398 -1.22957 0
M  V30 940 C 93.3543 -2.52341 -2.26224 0
M  V30 941 C 92.5273 -3.82827 -2.1157 0
M  V30 942 C 91.5863 -4.12487 -3.26712 0
M  V30 943 O 90.6123 -4.82295 -3.02292 0
M  V30 944 N 91.8143 -3.64978 -4.5141 0
M  V30 945 H 94.5793 -2.95437 -0.503722 0
M  V30 946 H 92.1403 -1.61397 -0.12757 0
M  V30 947 H 94.1323 -2.69254 -3.02133 0
M  V30 948 H 92.7023 -1.7103 -2.61663 0
M  V30 949 H 91.9223 -3.75425 -1.20208 0
M  V30 950 H 93.2103 -4.68263 -1.99015 0
M  V30 951 H 92.6083 -3.08558 -4.7414 0
M  V30 952 H 91.1653 -3.87115 -5.2439 0
M  V30 953 N 94.5984 0.214957 -1.56127 0
M  V30 954 C 95.5304 1.29004 -1.89448 0
M  V30 955 C 96.5434 1.42716 -0.783326 0
M  V30 956 O 97.7324 1.43496 -1.06166 0
M  V30 957 C 94.8324 2.66482 -2.09381 0
M  V30 958 C 94.0054 2.74633 -3.40434 0
M  V30 959 C 93.0644 3.9317 -3.49719 0
M  V30 960 O 92.0904 3.812 -4.227 0
M  V30 961 N 93.2924 5.07765 -2.81346 0
M  V30 962 H 96.0574 1.00743 -2.82261 0
M  V30 963 H 93.6184 0.40497 -1.56753 0
M  V30 964 H 95.6104 3.44173 -2.12901 0
M  V30 965 H 94.1804 2.87314 -1.23163 0
M  V30 966 H 93.4004 1.83368 -3.48955 0
M  V30 967 H 94.6884 2.77054 -4.26754 0
M  V30 968 H 94.0864 5.20386 -2.21843 0
M  V30 969 H 92.6434 5.83474 -2.90519 0
M  V30 970 N 96.0765 1.50051 0.48192 0
M  V30 971 C 97.3225 1.60736 1.2366 0
M  V30 972 C 97.6555 0.301786 1.91841 0
M  V30 973 O 96.9305 -0.696025 1.8162 0
M  V30 974 C 97.2135 2.78009 2.28874 0
M  V30 975 C 97.0665 4.18416 1.65069 0
M  V30 976 C 98.3855 2.90867 3.30279 0
M  V30 977 H 95.5045 0.585031 0.448228 0
M  V30 978 H 98.1465 1.82402 0.531946 0
M  V30 979 H 96.2965 2.59667 2.88973 0
M  V30 980 H 97.9685 4.48322 1.0865 0
M  V30 981 H 96.2115 4.23177 0.954148 0
M  V30 982 H 96.8825 4.96381 2.41474 0
M  V30 983 H 99.3585 3.07623 2.80191 0
M  V30 984 H 98.2345 3.74566 4.01238 0
M  V30 985 H 98.4955 2.01021 3.93755 0
M  V30 986 N 97.5546 -0.734337 1.39446 0
M  V30 987 C 98.5026 -1.86971 1.38364 0
M  V30 988 C 99.4966 -1.67288 0.266687 0
M  V30 989 O 100.703 -1.74621 0.436755 0
M  V30 990 H 97.0776 -0.615474 0.432082 0
M  V30 991 H 99.0486 -1.85 2.34132 0
M  V30 992 C 97.7976 -3.2466 1.24465 0
M  V30 993 H 97.1206 -3.40402 2.09682 0
M  V30 994 H 98.5606 -4.04292 1.27764 0
M  V30 995 C 97.0196 -3.36867 -0.0468674 0
M  V30 996 O 97.5496 -3.88618 -1.01681 0
M  V30 997 N 95.7556 -2.90391 -0.110145 0
M  V30 998 H 95.3026 -2.48466 0.679868 0
M  V30 999 H 95.2606 -2.98939 -0.973799 0
M  V30 1000 N 99.0327 -1.24633 -0.964593 0
M  V30 1001 C 99.9957 -1.0424 -2.04124 0
M  V30 1002 C 100.996 0.00137563 -1.608 0
M  V30 1003 O 102.186 -0.239883 -1.7254 0
M  V30 1004 C 99.3177 -0.580588 -3.3592 0
M  V30 1005 H 100.511 -1.99803 -2.23649 0
M  V30 1006 H 98.0637 -1.06899 -1.14027 0
M  V30 1007 H 98.7987 0.3781 -3.22088 0
M  V30 1008 H 98.5837 -1.33398 -3.6871 0
M  V30 1009 H 100.074 -0.459034 -4.15069 0
M  V30 1010 N 100.511 1.16574 -1.06058 0
M  V30 1011 C 101.444 2.19798 -0.61352 0
M  V30 1012 C 102.422 1.58509 0.362453 0
M  V30 1013 O 103.606 1.86527 0.271994 0
M  V30 1014 C 100.733 3.3855 0.100915 0
M  V30 1015 C 99.7788 4.18317 -0.831438 0
M  V30 1016 S 100.612 4.82375 -2.32539 0
M  V30 1017 C 101.768 6.04508 -1.62238 0
M  V30 1018 H 102.001 2.5738 -1.48805 0
M  V30 1019 H 99.5338 1.27327 -0.873338 0
M  V30 1020 H 101.492 4.07358 0.506898 0
M  V30 1021 H 100.153 2.99338 0.951604 0
M  V30 1022 H 99.3458 5.03232 -0.278071 0
M  V30 1023 H 98.9478 3.5499 -1.17719 0
M  V30 1024 H 101.24 6.71133 -0.926622 0
M  V30 1025 H 102.183 6.64389 -2.44934 0
M  V30 1026 H 102.591 5.53559 -1.106 0
M  V30 1027 N 101.989 0.842826 1.3317 0
M  V30 1028 C 103.238 0.436738 1.96915 0
M  V30 1029 C 103.551 -1.01025 1.67491 0
M  V30 1030 O 104.757 -1.5212 2.24881 0
M  V30 1031 C 103.213 0.730021 3.52418 0
M  V30 1032 C 102.821 2.19195 3.90714 0
M  V30 1033 C 104.565 0.391076 4.22695 0
M  V30 1034 C 102.472 2.42907 5.39212 0
M  V30 1035 H 101.402 0.15958 0.736919 0
M  V30 1036 H 104.053 1.03196 1.51733 0
M  V30 1037 H 102.435 0.0643755 3.95948 0
M  V30 1038 H 103.609 2.8984 3.58231 0
M  V30 1039 H 101.924 2.49425 3.33431 0
M  V30 1040 H 104.521 0.545817 5.31907 0
M  V30 1041 H 104.864 -0.666294 4.10933 0
M  V30 1042 H 105.397 1.01212 3.84709 0
M  V30 1043 H 102.136 3.47224 5.55982 0
M  V30 1044 H 101.656 1.76827 5.73142 0
M  V30 1045 H 103.335 2.2626 6.06148 0
M  V30 1046 N 103.467 -1.45747 0.599634 0
M  V30 1047 C 104.377 -2.34262 -0.125888 0
M  V30 1048 C 105.393 -1.50768 -0.868625 0
M  V30 1049 O 106.569 -1.83592 -0.828003 0
M  V30 1050 C 103.634 -3.28252 -1.11587 0
M  V30 1051 C 102.695 -4.27651 -0.375956 0
M  V30 1052 C 101.928 -5.1715 -1.31877 0
M  V30 1053 O 102.151 -5.09916 -2.55621 0
M  V30 1054 O 101.085 -5.96286 -0.820157 0
M  V30 1055 H 104.911 -2.97688 0.601315 0
M  V30 1056 H 102.496 -1.44999 0.359934 0
M  V30 1057 H 104.378 -3.86191 -1.68626 0
M  V30 1058 H 103.053 -2.67401 -1.82424 0
M  V30 1059 H 101.96 -3.7335 0.236698 0
M  V30 1060 H 103.293 -4.91334 0.29177 0
M  V30 1061 N 104.945 -0.338344 -1.53925 0
M  V30 1062 C 105.892 0.520845 -2.24846 0
M  V30 1063 C 106.862 1.09976 -1.24477 0
M  V30 1064 O 108.047 1.13735 -1.53196 0
M  V30 1065 C 105.187 1.6685 -3.02084 0
M  V30 1066 C 104.3 1.11739 -4.17299 0
M  V30 1067 C 103.435 2.23193 -4.82036 0
M  V30 1068 C 102.474 1.65407 -5.89328 0
M  V30 1069 N 101.611 2.70582 -6.47866 0
M  V30 1070 H 106.451 -0.0904881 -2.97863 0
M  V30 1071 H 103.988 -0.0564282 -1.46992 0
M  V30 1072 H 105.946 2.34407 -3.45122 0
M  V30 1073 H 104.576 2.2509 -2.31375 0
M  V30 1074 H 103.628 0.332919 -3.7894 0
M  V30 1075 H 104.94 0.654677 -4.94485 0
M  V30 1076 H 104.094 2.98626 -5.28117 0
M  V30 1077 H 102.833 2.72807 -4.04262 0
M  V30 1078 H 101.838 0.884779 -5.42634 0
M  V30 1079 H 103.063 1.16652 -6.69006 0
M  V30 1080 H 101.009 3.1946 -5.72959 0
M  V30 1081 H 100.926 2.28917 -7.20509 0
M  V30 1082 H 102.194 3.45799 -6.98601 0
M  V30 1083 N 106.423 1.57458 -0.0668435 0
M  V30 1084 C 107.37 2.12439 0.902122 0
M  V30 1085 C 108.34 1.03565 1.2986 0
M  V30 1086 O 109.525 1.312 1.38532 0
M  V30 1087 C 106.665 2.6865 2.16614 0
M  V30 1088 C 105.778 3.91663 1.82274 0
M  V30 1089 C 104.913 4.36134 3.0325 0
M  V30 1090 C 103.952 5.51808 2.64904 0
M  V30 1091 N 103.089 5.9126 3.78624 0
M  V30 1092 H 107.929 2.94934 0.426382 0
M  V30 1093 H 105.466 1.4575 0.198819 0
M  V30 1094 H 107.424 2.99346 2.90599 0
M  V30 1095 H 106.054 1.88928 2.61737 0
M  V30 1096 H 105.106 3.6746 0.983719 0
M  V30 1097 H 106.418 4.75693 1.50059 0
M  V30 1098 H 105.572 4.68465 3.85519 0
M  V30 1099 H 104.311 3.50948 3.38655 0
M  V30 1100 H 103.316 5.19133 1.81055 0
M  V30 1101 H 104.541 6.38722 2.30675 0
M  V30 1102 H 102.487 5.09024 4.138 0
M  V30 1103 H 102.404 6.70018 3.5016 0
M  V30 1104 H 103.672 6.28212 4.61486 0
M  V30 1105 N 107.901 -0.206675 1.56239 0
M  V30 1106 C 108.831 -1.25909 1.96645 0
M  V30 1107 C 109.812 -1.48097 0.836734 0
M  V30 1108 O 110.997 -1.6003 1.10019 0
M  V30 1109 C 108.127 -2.6058 2.29599 0
M  V30 1110 C 107.081 -2.53024 3.452 0
M  V30 1111 C 106.407 -3.91861 3.63798 0
M  V30 1112 C 107.707 -2.06524 4.79734 0
M  V30 1113 H 109.401 -0.923369 2.84806 0
M  V30 1114 H 106.947 -0.442735 1.37025 0
M  V30 1115 H 108.9 -3.34375 2.56459 0
M  V30 1116 H 107.624 -2.95869 1.38307 0
M  V30 1117 H 106.283 -1.81684 3.18412 0
M  V30 1118 H 105.931 -4.24483 2.69857 0
M  V30 1119 H 105.631 -3.87683 4.4156 0
M  V30 1120 H 107.155 -4.67296 3.93022 0
M  V30 1121 H 108.569 -2.70072 5.05702 0
M  V30 1122 H 106.966 -2.13374 5.60885 0
M  V30 1123 H 108.036 -1.01802 4.74093 0
M  V30 1124 N 109.379 -1.50304 -0.473955 0
M  V30 1125 C 110.289 -1.7174 -1.5982 0
M  V30 1126 C 111.305 -0.600457 -1.63311 0
M  V30 1127 O 112.481 -0.878441 -1.81233 0
M  V30 1128 C 109.546 -1.80427 -2.96052 0
M  V30 1129 C 108.607 -3.04148 -3.02972 0
M  V30 1130 C 107.84 -3.12411 -4.32706 0
M  V30 1131 O 108.063 -2.27542 -5.23049 0
M  V30 1132 O 106.997 -4.05113 -4.45159 0
M  V30 1133 H 110.823 -2.67035 -1.44657 0
M  V30 1134 H 108.408 -1.34366 -0.653148 0
M  V30 1135 H 110.29 -1.88338 -3.7697 0
M  V30 1136 H 108.965 -0.883156 -3.11419 0
M  V30 1137 H 107.872 -3.0174 -2.21142 0
M  V30 1138 H 109.205 -3.95829 -2.92541 0
M  V30 1139 N 110.857 0.726932 -1.39834 0
M  V30 1140 C 112.268 1.30558 -1.3346 0
M  V30 1141 C 112.619 1.962 -0.00273003 0
M  V30 1142 O 111.744 1.96826 0.899371 0
M  V30 1143 C 112.339 2.37404 -2.41713 0
M  V30 1144 C 110.898 2.90921 -2.38835 0
M  V30 1145 C 110.045 1.64578 -2.2318 0
M  V30 1146 H 112.996 0.523862 -1.49804 0
M  V30 1147 H 113.017 3.17984 -2.08966 0
M  V30 1148 H 112.529 1.89599 -3.38635 0
M  V30 1149 H 110.63 3.42985 -1.45575 0
M  V30 1150 H 110.743 3.43487 -3.33997 0
M  V30 1151 H 109.107 1.89219 -1.70494 0
M  V30 1152 H 109.89 1.18814 -3.22084 0
M  V30 1153 N 112.336 1.25143 0.95797 0
M  V30 1154 C 113.266 1.07711 2.07173 0
M  V30 1155 C 114.247 -0.0128462 1.70095 0
M  V30 1156 O 115.432 0.156061 1.93572 0
M  V30 1157 C 112.562 0.691503 3.40346 0
M  V30 1158 C 111.516 1.73132 3.9142 0
M  V30 1159 C 110.842 1.20049 5.21049 0
M  V30 1160 C 112.142 3.1294 4.1817 0
M  V30 1161 H 113.836 2.00873 2.22014 0
M  V30 1162 H 111.382 0.967191 1.06684 0
M  V30 1163 H 113.335 0.556505 4.17709 0
M  V30 1164 H 112.059 -0.275819 3.25433 0
M  V30 1165 H 110.718 1.8547 3.16222 0
M  V30 1166 H 110.366 0.223499 5.02503 0
M  V30 1167 H 110.066 1.89545 5.56189 0
M  V30 1168 H 111.59 1.07782 6.01012 0
M  V30 1169 H 113.004 3.03775 4.86203 0
M  V30 1170 H 111.401 3.79875 4.64559 0
M  V30 1171 H 112.471 3.6025 3.24573 0
M  V30 1172 N 113.814 -1.1601 1.06675 0
M  V30 1173 C 115.039 -1.91068 0.806706 0
M  V30 1174 C 115.464 -1.77112 -0.633485 0
M  V30 1175 O 114.822 -1.09908 -1.44187 0
M  V30 1176 C 114.87 -3.39655 1.21106 0
M  V30 1177 O 113.974 -4.10893 0.352189 0
M  V30 1178 H 113.315 -0.595125 0.294486 0
M  V30 1179 H 115.845 -1.46955 1.42356 0
M  V30 1180 H 115.855 -3.90434 1.18428 0
M  V30 1181 H 114.53 -3.49132 2.26008 0
M  V30 1182 H 113.107 -3.70285 0.440868 0
M  V30 1183 N 115.292 -0.849877 -1.32721 0
M  V30 1184 C 116.224 -0.248332 -2.27851 0
M  V30 1185 C 117.237 0.577218 -1.52224 0
M  V30 1186 O 118.426 0.402489 -1.73903 0
M  V30 1187 C 115.526 0.668107 -3.32249 0
M  V30 1188 C 114.699 -0.120534 -4.37234 0
M  V30 1189 C 113.758 0.720932 -5.21238 0
M  V30 1190 O 112.784 0.156166 -5.68986 0
M  V30 1191 N 113.986 2.03647 -5.43607 0
M  V30 1192 H 116.751 -1.06575 -2.80111 0
M  V30 1193 H 114.312 -0.709395 -1.45531 0
M  V30 1194 H 116.304 1.23627 -3.85355 0
M  V30 1195 H 114.874 1.38621 -2.80184 0
M  V30 1196 H 114.094 -0.870108 -3.84477 0
M  V30 1197 H 115.382 -0.662406 -5.0447 0
M  V30 1198 H 114.78 2.51871 -5.06535 0
M  V30 1199 H 113.337 2.55287 -5.99727 0
M  V30 1200 N 116.77 1.45427 -0.607355 0
M  V30 1201 C 118.047 1.9557 -0.0344566 0
M  V30 1202 C 118.427 1.54979 1.43334 0
M  V30 1203 O 117.775 0.812241 2.13576 0
M  V30 1204 C 117.985 3.48226 -0.232321 0
M  V30 1205 C 119.333 4.2445 -0.113001 0
M  V30 1206 O 120.357 3.55829 -0.162431 0
M  V30 1207 O 119.216 5.465 0.00209442 0
M  V30 1208 H 116.31 0.826222 0.0358667 0
M  V30 1209 H 118.856 1.55594 -0.6774 0
M  V30 1210 H 117.628 3.70739 -1.25174 0
M  V30 1211 H 117.251 3.95092 0.445896 0
M  V30 1212 N 118.248 0.346503 1.53744 0
M  V30 1213 C 119.158 -0.517293 2.28826 0
M  V30 1214 C 120.174 -1.10935 1.3405 0
M  V30 1215 O 121.35 -1.1244 1.6709 0
M  V30 1216 C 118.415 -1.65098 3.04866 0
M  V30 1217 C 117.476 -1.0884 4.15274 0
M  V30 1218 C 116.709 -2.16806 4.87679 0
M  V30 1219 O 116.932 -3.3758 4.59778 0
M  V30 1220 O 115.866 -1.80934 5.74061 0
M  V30 1221 H 119.692 0.0931396 3.03557 0
M  V30 1222 H 117.277 0.111458 1.48984 0
M  V30 1223 H 119.159 -2.31053 3.5241 0
M  V30 1224 H 117.834 -2.24717 2.32989 0
M  V30 1225 H 116.741 -0.3933 3.72027 0
M  V30 1226 H 118.074 -0.537036 4.89261 0
M  V30 1227 N 119.726 -1.57421 0.075193 0
M  V30 1228 C 121.003 -1.85029 -0.634329 0
M  V30 1229 C 121.383 -0.968305 -1.87582 0
M  V30 1230 O 120.731 -0.0354749 -2.28472 0
M  V30 1231 C 120.941 -3.35286 -0.968742 0
M  V30 1232 C 122.289 -4.02875 -1.34077 0
M  V30 1233 O 123.313 -3.40051 -1.06037 0
M  V30 1234 O 122.172 -5.13691 -1.86506 0
M  V30 1235 H 119.266 -0.7645 -0.315387 0
M  V30 1236 H 121.812 -1.69366 0.106382 0
M  V30 1237 H 120.584 -3.91203 -0.0871376 0
M  V30 1238 H 120.207 -3.56223 -1.7661 0
M  V30 1239 N 121.204 0.198386 -1.56346 0
M  V30 1240 C 122.136 1.26987 -1.90806 0
M  V30 1241 C 123.149 1.41877 -0.798419 0
M  V30 1242 O 124.338 1.42362 -1.07682 0
M  V30 1243 C 121.438 2.64246 -2.12196 0
M  V30 1244 C 120.611 2.71007 -3.43328 0
M  V30 1245 C 119.67 3.89439 -3.5387 0
M  V30 1246 O 118.696 3.76695 -4.26719 0
M  V30 1247 N 119.898 5.04752 -2.86715 0
M  V30 1248 H 122.663 0.977433 -2.83313 0
M  V30 1249 H 120.224 0.388322 -1.57174 0
M  V30 1250 H 122.216 3.41896 -2.1654 0
M  V30 1251 H 120.786 2.85992 -1.26204 0
M  V30 1252 H 120.006 1.79657 -3.50881 0
M  V30 1253 H 121.294 2.72512 -4.29668 0
M  V30 1254 H 120.692 5.18004 -2.2735 0
M  V30 1255 H 119.249 5.8036 -2.96691 0
M  V30 1256 N 122.682 1.50554 0.465978 0
M  V30 1257 C 123.632 1.66177 1.56106 0
M  V30 1258 C 124.616 0.516265 1.52393 0
M  V30 1259 O 125.808 0.770906 1.5933 0
M  V30 1260 C 122.937 1.76396 2.94515 0
M  V30 1261 C 122.023 2.9664 3.03093 0
M  V30 1262 N 122.414 4.20245 2.81474 0
M  V30 1263 C 120.712 2.95304 3.34233 0
M  V30 1264 C 121.413 5.01259 2.95151 0
M  V30 1265 N 120.389 4.35318 3.25576 0
M  V30 1266 H 124.191 2.59434 1.38099 0
M  V30 1267 H 121.705 1.47808 0.6728 0
M  V30 1268 H 123.702 1.85694 3.73261 0
M  V30 1269 H 122.362 0.843017 3.13565 0
M  V30 1270 H 123.373 4.4966 2.56956 0
M  V30 1271 H 120.05 2.12729 3.59239 0
M  V30 1272 H 121.44 6.09564 2.82632 0
M  V30 1273 N 124.16 -0.719506 1.40217 0
M  V30 1274 C 125.123 -1.8153 1.39927 0
M  V30 1275 C 126.123 -1.58095 0.293723 0
M  V30 1276 O 127.313 -1.65209 0.552429 0
M  V30 1277 C 124.445 -3.19561 1.18716 0
M  V30 1278 H 125.638 -1.83186 2.37451 0
M  V30 1279 H 123.191 -0.924746 1.26008 0
M  V30 1280 H 123.926 -3.23557 0.219366 0
M  V30 1281 H 123.711 -3.3797 1.98793 0
M  V30 1282 H 125.201 -3.99598 1.21291 0
M  V30 1283 N 125.638 -1.25649 -0.95132 0
M  V30 1284 C 126.915 -1.01361 -1.67288 0
M  V30 1285 C 127.295 0.459135 -2.06046 0
M  V30 1286 O 126.643 1.43723 -1.7764 0
M  V30 1287 C 126.853 -1.95256 -2.89268 0
M  V30 1288 C 128.201 -2.23289 -3.61147 0
M  V30 1289 O 129.225 -1.93041 -2.99355 0
M  V30 1290 O 128.084 -2.74741 -4.72419 0
M  V30 1291 H 125.178 -0.38464 -0.732107 0
M  V30 1292 H 127.724 -1.36817 -1.00395 0
M  V30 1293 H 126.496 -2.94685 -2.57442 0
M  V30 1294 H 126.119 -1.60218 -3.6389 0
M  V30 1295 N 127.117 1.15442 -1.07289 0
M  V30 1296 C 128.047 2.22312 -0.714107 0
M  V30 1297 C 129.028 1.67467 0.298155 0
M  V30 1298 O 130.213 1.93445 0.171048 0
M  V30 1299 C 127.343 3.47124 -0.110448 0
M  V30 1300 C 126.297 4.14926 -1.04979 0
M  V30 1301 C 125.623 5.33807 -0.308924 0
M  V30 1302 C 126.923 4.64762 -2.38314 0
M  V30 1303 H 128.617 2.5258 -1.6076 0
M  V30 1304 H 126.163 1.21404 -0.77441 0
M  V30 1305 H 128.116 4.21124 0.152482 0
M  V30 1306 H 126.84 3.16187 0.81812 0
M  V30 1307 H 125.499 3.42866 -1.29764 0
M  V30 1308 H 125.147 4.99126 0.623084 0
M  V30 1309 H 124.847 5.80113 -0.935036 0
M  V30 1310 H 126.371 6.10576 -0.0537771 0
M  V30 1311 H 127.785 5.30292 -2.1786 0
M  V30 1312 H 126.182 5.21728 -2.96514 0
M  V30 1313 H 127.252 3.80434 -3.00663 0
M  V30 1314 N 128.595 0.856903 1.32268 0
M  V30 1315 C 129.823 0.475439 2.01363 0
M  V30 1316 C 130.238 -0.928486 1.64392 0
M  V30 1317 O 129.595 -1.60624 0.866387 0
M  V30 1318 C 129.646 0.607545 3.56358 0
M  V30 1319 O 129.367 1.95617 3.92002 0
M  V30 1320 C 130.868 0.225382 4.42727 0
M  V30 1321 H 128.088 0.186636 0.644521 0
M  V30 1322 H 130.632 1.15446 1.68797 0
M  V30 1323 H 128.787 -0.0237719 3.87393 0
M  V30 1324 H 129.201 1.95455 4.86721 0
M  V30 1325 H 130.675 0.368813 5.50767 0
M  V30 1326 H 131.152 -0.834369 4.31202 0
M  V30 1327 H 131.758 0.831864 4.17085 0
M  V30 1328 N 130.073 -1.45103 0.615059 0
M  V30 1329 C 131.005 -2.28786 -0.13762 0
M  V30 1330 C 132.018 -1.40376 -0.824525 0
M  V30 1331 O 133.207 -1.64681 -0.688662 0
M  V30 1332 C 130.307 -3.16322 -1.21628 0
M  V30 1333 C 129.48 -4.33054 -0.615039 0
M  V30 1334 C 128.539 -5.01743 -1.58556 0
M  V30 1335 O 127.565 -5.58293 -1.10895 0
M  V30 1336 N 128.767 -5.01714 -2.91998 0
M  V30 1337 H 131.532 -2.94025 0.580483 0
M  V30 1338 H 129.093 -1.55373 0.45507 0
M  V30 1339 H 131.085 -3.59139 -1.86552 0
M  V30 1340 H 129.655 -2.52943 -1.83681 0
M  V30 1341 H 128.875 -3.93627 0.21245 0
M  V30 1342 H 130.163 -5.08431 -0.193704 0
M  V30 1343 H 129.561 -4.57075 -3.33316 0
M  V30 1344 H 128.118 -5.48371 -3.52325 0
M  V30 1345 N 131.551 -0.354651 -1.53558 0
M  V30 1346 C 132.776 0.242153 -2.05981 0
M  V30 1347 C 133.201 1.42553 -1.2272 0
M  V30 1348 O 132.559 1.79656 -0.243604 0
M  V30 1349 C 132.607 0.624367 -3.55154 0
M  V30 1350 O 131.711 1.72301 -3.74681 0
M  V30 1351 H 131.052 0.0378432 -0.662921 0
M  V30 1352 H 133.582 -0.512087 -1.98088 0
M  V30 1353 H 133.592 0.898433 -3.97985 0
M  V30 1354 H 132.267 -0.240989 -4.15201 0
M  V30 1355 H 130.844 1.44535 -3.4375 0
M  V30 1356 N 133.029 1.57378 -0.0835403 0
M  V30 1357 C 134.445 1.57246 0.273109 0
M  V30 1358 C 134.645 1.09385 1.69225 0
M  V30 1359 O 133.701 0.765051 2.40631 0
M  V30 1360 C 135.014 3.00614 0.0720628 0
M  V30 1361 C 136.562 3.12684 0.1407 0
M  V30 1362 C 137.037 4.57989 -0.0322094 0
M  V30 1363 N 138.528 4.63194 0.0230085 0
M  V30 1364 C 139.263 5.73335 -0.0861941 0
M  V30 1365 N 138.759 6.9235 -0.24958 0
M  V30 1366 N 140.552 5.62093 -0.0282886 0
M  V30 1367 H 132.703 1.86801 -1.0109 0
M  V30 1368 H 134.966 0.861687 -0.395222 0
M  V30 1369 H 134.672 3.39786 -0.907662 0
M  V30 1370 H 134.546 3.68193 0.81936 0
M  V30 1371 H 136.933 2.73391 1.11092 0
M  V30 1372 H 137.014 2.47719 -0.637896 0
M  V30 1373 H 136.658 4.97973 -0.999247 0
M  V30 1374 H 136.588 5.21 0.765937 0
M  V30 1375 H 139.079 3.77613 0.14722 0
M  V30 1376 H 139.392 7.72117 -0.324733 0
M  V30 1377 H 137.737 6.94415 -0.285097 0
M  V30 1378 H 140.928 4.67997 0.0981408 0
M  V30 1379 H 141.101 6.47895 -0.116845 0
M  V30 1380 N 134.507 -0.190092 1.56449 0
M  V30 1381 C 135.923 -0.54113 1.50146 0
M  V30 1382 C 136.123 -1.85603 0.784465 0
M  V30 1383 O 135.179 -2.5024 0.337051 0
M  V30 1384 C 136.492 -0.591241 2.9483 0
M  V30 1385 C 138.04 -0.679732 3.0553 0
M  V30 1386 C 138.515 -0.760908 4.51635 0
M  V30 1387 N 140.006 -0.824302 4.55806 0
M  V30 1388 C 140.741 -0.907365 5.66175 0
M  V30 1389 N 140.237 -0.952422 6.86222 0
M  V30 1390 N 142.03 -0.94494 5.541 0
M  V30 1391 H 134.181 0.67235 2.01478 0
M  V30 1392 H 136.444 0.240127 0.917084 0
M  V30 1393 H 136.15 0.305905 3.50367 0
M  V30 1394 H 136.024 -1.44422 3.48457 0
M  V30 1395 H 138.411 -1.56731 2.50039 0
M  V30 1396 H 138.492 0.199549 2.5502 0
M  V30 1397 H 138.136 0.122336 5.07753 0
M  V30 1398 H 138.066 -1.65606 4.99882 0
M  V30 1399 H 140.557 -0.798526 3.69367 0
M  V30 1400 H 140.87 -1.01645 7.66086 0
M  V30 1401 H 139.215 -0.921014 6.8887 0
M  V30 1402 H 142.406 -0.906612 4.59236 0
M  V30 1403 H 142.579 -1.00622 6.4014 0
M  V30 1404 N 135.985 -1.50799 -0.457987 0
M  V30 1405 C 137.396 -1.55152 -1.0385 0
M  V30 1406 C 137.747 -0.362719 -1.92818 0
M  V30 1407 O 136.872 0.522915 -2.09987 0
M  V30 1408 C 137.467 -2.81173 -1.89017 0
M  V30 1409 C 136.026 -2.88164 -2.42154 0
M  V30 1410 C 135.173 -2.49591 -1.20829 0
M  V30 1411 H 138.124 -1.56874 -0.240068 0
M  V30 1412 H 138.145 -2.63769 -2.74238 0
M  V30 1413 H 137.657 -3.67677 -1.24238 0
M  V30 1414 H 135.758 -2.06042 -3.10447 0
M  V30 1415 H 135.871 -3.91356 -2.76364 0
M  V30 1416 H 134.235 -2.02322 -1.54719 0
M  V30 1417 H 135.018 -3.38418 -0.576927 0
M  V30 1418 N 137.463 0.71206 -1.40597 0
M  V30 1419 C 138.393 1.83889 -1.43899 0
M  V30 1420 C 139.374 1.67442 -0.299504 0
M  V30 1421 O 140.559 1.87421 -0.508624 0
M  V30 1422 C 137.689 3.21877 -1.30431 0
M  V30 1423 C 136.643 3.53002 -2.42019 0
M  V30 1424 C 135.969 4.90172 -2.13626 0
M  V30 1425 C 137.269 3.53643 -3.84362 0
M  V30 1426 H 138.963 1.81383 -2.38203 0
M  V30 1427 H 136.509 0.871237 -1.14654 0
M  V30 1428 H 138.462 4.00404 -1.31357 0
M  V30 1429 H 137.186 3.24968 -0.326049 0
M  V30 1430 H 135.845 2.76818 -2.40349 0
M  V30 1431 H 135.493 4.89869 -1.14182 0
M  V30 1432 H 135.193 5.11962 -2.88389 0
M  V30 1433 H 136.717 5.71028 -2.1624 0
M  V30 1434 H 138.131 4.22203 -3.87837 0
M  V30 1435 H 136.528 3.86961 -4.58673 0
M  V30 1436 H 137.598 2.52954 -4.13693 0
M  V30 1437 N 138.941 1.26152 0.944643 0
M  V30 1438 C 140.169 1.14259 1.72489 0
M  V30 1439 C 140.584 -0.302555 1.8636 0
M  V30 1440 O 139.941 -1.20741 1.36849 0
M  V30 1441 C 139.992 1.80266 3.13347 0
M  V30 1442 O 139.713 3.19133 3.00143 0
M  V30 1443 C 141.214 1.74283 4.07603 0
M  V30 1444 H 138.434 0.398051 0.540181 0
M  V30 1445 H 140.978 1.66706 1.18446 0
M  V30 1446 H 139.133 1.31766 3.64303 0
M  V30 1447 H 139.547 3.51744 3.89071 0
M  V30 1448 H 141.021 2.25111 5.04013 0
M  V30 1449 H 141.498 0.708631 4.33446 0
M  V30 1450 H 142.104 2.22319 3.62567 0
M  V30 1451 N 140.419 -1.14872 1.07899 0
M  V30 1452 C 141.644 -1.90202 0.826926 0
M  V30 1453 C 142.069 -1.77774 -0.614664 0
M  V30 1454 O 141.427 -1.11431 -1.43013 0
M  V30 1455 C 141.475 -3.38352 1.24702 0
M  V30 1456 O 140.579 -4.10497 0.39575 0
M  V30 1457 H 139.92 -0.591968 0.300782 0
M  V30 1458 H 142.45 -1.45437 1.43907 0
M  V30 1459 H 142.46 -3.89156 1.22563 0
M  V30 1460 H 141.135 -3.46715 2.29698 0
M  V30 1461 H 139.712 -3.69796 0.480117 0
M  V30 1462 N 141.898 -0.863906 -1.31812 0
M  V30 1463 C 143.138 -0.47825 -1.98726 0
M  V30 1464 C 143.502 0.950397 -1.66828 0
M  V30 1465 O 144.703 1.44109 -2.26905 0
M  V30 1466 C 142.974 -0.721134 -3.50049 0
M  V30 1467 S 144.533 -0.434432 -4.36644 0
M  V30 1468 H 141.351 -0.178773 -0.688158 0
M  V30 1469 H 143.953 -1.11862 -1.60334 0
M  V30 1470 H 142.657 -1.75981 -3.70755 0
M  V30 1471 H 142.188 -0.0675315 -3.93342 0
M  V30 1472 H 144.203 0.735786 -4.90714 0
M  V30 1473 N 143.376 1.44774 -0.622745 0
M  V30 1474 C 144.604 2.06487 -0.130722 0
M  V30 1475 C 145.019 1.46476 1.19123 0
M  V30 1476 O 144.376 0.584502 1.72887 0
M  V30 1477 C 144.427 3.615 -0.000807207 0
M  V30 1478 O 144.148 4.19274 -1.27048 0
M  V30 1479 C 145.649 4.40229 0.520898 0
M  V30 1480 H 142.869 0.666704 -0.0758106 0
M  V30 1481 H 145.413 1.85779 -0.854774 0
M  V30 1482 H 143.568 3.81498 0.673643 0
M  V30 1483 H 143.982 5.12622 -1.1099 0
M  V30 1484 H 145.456 5.49144 0.560838 0
M  V30 1485 H 145.933 4.1108 1.54627 0
M  V30 1486 H 146.539 4.25131 -0.120018 0
M  V30 1487 N 144.854 0.36279 1.53368 0
M  V30 1488 C 146.103 -0.22888 2.00397 0
M  V30 1489 C 146.416 -1.50096 1.25421 0
M  V30 1490 O 147.622 -2.17106 1.63025 0
M  V30 1491 C 146.078 -0.458417 3.56969 0
M  V30 1492 C 145.686 0.798877 4.4082 0
M  V30 1493 C 147.43 -1.00789 4.12361 0
M  V30 1494 C 145.337 0.539078 5.88938 0
M  V30 1495 H 144.267 -0.089305 0.748693 0
M  V30 1496 H 146.918 0.481099 1.77081 0
M  V30 1497 H 145.3 -1.22959 3.76427 0
M  V30 1498 H 146.474 1.57262 4.33134 0
M  V30 1499 H 144.789 1.27137 3.96516 0
M  V30 1500 H 147.386 -1.21754 5.20653 0
M  V30 1501 H 147.729 -1.9692 3.66781 0
M  V30 1502 H 148.262 -0.296961 3.9669 0
M  V30 1503 H 145.001 1.47064 6.3879 0
M  V30 1504 H 144.521 -0.196222 5.99479 0
M  V30 1505 H 146.2 0.163542 6.46793 0
M  V30 1506 N 146.332 -1.57332 0.0918853 0
M  V30 1507 C 147.579 -1.94236 -0.572577 0
M  V30 1508 C 147.907 -0.973398 -1.6839 0
M  V30 1509 O 147.162 0.00756912 -1.95699 0
M  V30 1510 C 147.461 -3.37689 -1.17051 0
M  V30 1511 C 147.127 -4.50527 -0.183304 0
M  V30 1512 C 145.789 -4.81119 0.0882276 0
M  V30 1513 C 148.141 -5.18883 0.49095 0
M  V30 1514 C 145.469 -5.77395 1.04076 0
M  V30 1515 C 147.821 -6.1618 1.43193 0
M  V30 1516 C 146.485 -6.45179 1.71173 0
M  V30 1517 H 145.755 -0.710762 -0.209521 0
M  V30 1518 H 148.402 -1.9077 0.167036 0
M  V30 1519 H 146.707 -3.37718 -1.9863 0
M  V30 1520 H 148.404 -3.63543 -1.69227 0
M  V30 1521 H 144.994 -4.26681 -0.405124 0
M  V30 1522 H 149.178 -4.95427 0.294312 0
M  V30 1523 H 144.434 -5.98179 1.26457 0
M  V30 1524 H 148.608 -6.68243 1.96023 0
M  V30 1525 H 146.235 -7.1959 2.4514 0
M  V30 1526 N 147.81 0.181792 -1.56548 0
M  V30 1527 C 148.74 1.22765 -1.98623 0
M  V30 1528 C 149.721 1.46747 -0.860189 0
M  V30 1529 O 150.906 1.58259 -1.12551 0
M  V30 1530 C 148.036 2.56894 -2.33715 0
M  V30 1531 C 146.99 2.475 -3.49182 0
M  V30 1532 C 146.316 3.86023 -3.69986 0
M  V30 1533 C 147.616 1.98866 -4.82959 0
M  V30 1534 H 149.31 0.877942 -2.86239 0
M  V30 1535 H 146.856 0.42088 -1.37712 0
M  V30 1536 H 148.809 3.30253 -2.61746 0
M  V30 1537 H 147.533 2.93632 -1.42997 0
M  V30 1538 H 146.192 1.76596 -3.21262 0
M  V30 1539 H 145.84 4.20136 -2.76576 0
M  V30 1540 H 145.54 3.80609 -4.47672 0
M  V30 1541 H 147.064 4.60984 -4.00407 0
M  V30 1542 H 148.478 2.61992 -5.09934 0
M  V30 1543 H 146.875 2.04424 -5.64208 0
M  V30 1544 H 147.945 0.942465 -4.75653 0
M  V30 1545 N 149.288 1.51039 0.449983 0
M  V30 1546 C 150.536 1.62759 1.19808 0
M  V30 1547 C 150.857 0.339981 1.92013 0
M  V30 1548 O 150.127 -0.643606 1.85026 0
M  V30 1549 H 148.707 0.599811 0.445237 0
M  V30 1550 H 151.369 1.87914 0.517138 0
M  V30 1551 H 150.465 2.44911 1.93455 0
M  V30 1552 N 150.766 -0.704594 1.40972 0
M  V30 1553 C 151.996 -1.49138 1.42974 0
M  V30 1554 C 152.404 -1.89175 0.0308406 0
M  V30 1555 O 151.747 -1.56734 -0.958138 0
M  V30 1556 C 151.809 -2.79016 2.26694 0
M  V30 1557 C 151.473 -2.61236 3.74973 0
M  V30 1558 C 152.47 -2.27773 4.67349 0
M  V30 1559 C 150.155 -2.77158 4.18914 0
M  V30 1560 C 152.149 -2.10457 6.01653 0
M  V30 1561 C 149.836 -2.59459 5.53285 0
M  V30 1562 C 150.834 -2.26158 6.4447 0
M  V30 1563 O 150.522 -2.08605 7.76363 0
M  V30 1564 H 150.254 -0.466443 0.489292 0
M  V30 1565 H 152.808 -0.8758 1.85793 0
M  V30 1566 H 151.038 -3.42947 1.78673 0
M  V30 1567 H 152.727 -3.40782 2.20504 0
M  V30 1568 H 153.493 -2.15095 4.34694 0
M  V30 1569 H 149.372 -3.02064 3.48251 0
M  V30 1570 H 152.916 -1.84387 6.72791 0
M  V30 1571 H 148.813 -2.71725 5.85522 0
M  V30 1572 H 149.581 -2.23439 7.87412 0
M  V30 1573 N 152.244 -1.26651 -0.937939 0
M  V30 1574 C 153.472 -1.15173 -1.7188 0
M  V30 1575 C 153.887 0.292668 -1.86518 0
M  V30 1576 O 153.244 1.20014 -1.37488 0
M  V30 1577 C 153.295 -1.81925 -3.12387 0
M  V30 1578 O 153.016 -3.2072 -2.98446 0
M  V30 1579 C 154.517 -1.76442 -4.06673 0
M  V30 1580 H 151.737 -0.400911 -0.538063 0
M  V30 1581 H 154.281 -1.67332 -1.1756 0
M  V30 1582 H 152.436 -1.33696 -3.63599 0
M  V30 1583 H 152.85 -3.53802 -3.872 0
M  V30 1584 H 154.324 -2.27781 -5.02812 0
M  V30 1585 H 154.801 -0.731608 -4.33064 0
M  V30 1586 H 155.407 -2.24238 -3.61382 0
M  V30 1587 N 153.722 1.14298 -1.08507 0
M  V30 1588 C 154.947 1.8976 -0.837001 0
M  V30 1589 C 155.372 1.78097 0.605228 0
M  V30 1590 O 154.73 1.12188 1.4242 0
M  V30 1591 C 154.778 3.37685 -1.26495 0
M  V30 1592 O 153.882 4.10281 -0.417514 0
M  V30 1593 H 153.223 0.590365 -0.303917 0
M  V30 1594 H 155.753 1.44672 -1.44676 0
M  V30 1595 H 155.763 3.88501 -1.24625 0
M  V30 1596 H 154.438 3.45492 -2.31534 0
M  V30 1597 H 153.015 3.69536 -0.499722 0
M  V30 1598 N 155.201 0.870884 1.31352 0
M  V30 1599 C 156.149 0.316445 2.30437 0
M  V30 1600 C 157.143 -0.568965 1.59559 0
M  V30 1601 O 158.349 -0.454964 1.74155 0
M  V30 1602 H 154.724 0.0836521 0.747333 0
M  V30 1603 H 156.695 1.16606 2.74673 0
M  V30 1604 C 155.444 -0.46635 3.44558 0
M  V30 1605 H 154.767 0.205687 3.99271 0
M  V30 1606 H 156.207 -0.819614 4.16003 0
M  V30 1607 C 154.666 -1.65797 2.9328 0
M  V30 1608 O 155.196 -2.75728 2.92125 0
M  V30 1609 N 153.402 -1.49041 2.4947 0
M  V30 1610 H 152.949 -0.59612 2.50608 0
M  V30 1611 H 152.907 -2.28911 2.15516 0
M  V30 1612 N 156.679 -1.44442 0.630414 0
M  V30 1613 C 157.609 -2.33418 -0.0618083 0
M  V30 1614 C 158.59 -1.48165 -0.835541 0
M  V30 1615 O 159.775 -1.76886 -0.801564 0
M  V30 1616 C 156.905 -3.31222 -1.04449 0
M  V30 1617 C 155.859 -4.26288 -0.382436 0
M  V30 1618 C 155.185 -5.13954 -1.47497 0
M  V30 1619 C 156.485 -5.1744 0.710865 0
M  V30 1620 H 158.179 -2.91548 0.681184 0
M  V30 1621 H 155.725 -1.40191 0.329026 0
M  V30 1622 H 157.678 -3.92351 -1.53748 0
M  V30 1623 H 156.402 -2.71299 -1.81836 0
M  V30 1624 H 155.061 -3.6649 0.0899054 0
M  V30 1625 H 154.709 -4.50385 -2.2397 0
M  V30 1626 H 154.409 -5.7837 -1.03737 0
M  V30 1627 H 155.933 -5.77955 -1.96979 0
M  V30 1628 H 157.347 -5.72509 0.300996 0
M  V30 1629 H 155.744 -5.90455 1.07156 0
M  V30 1630 H 156.814 -4.58496 1.57829 0
M  V30 1631 N 158.157 -0.370918 -1.53173 0
M  V30 1632 C 159.406 0.218249 -2.00516 0
M  V30 1633 C 159.719 1.49429 -1.26215 0
M  V30 1634 O 160.925 2.16239 -1.64174 0
M  V30 1635 C 159.381 0.43948 -3.57207 0
M  V30 1636 C 158.989 -0.822244 -4.4039 0
M  V30 1637 C 160.733 0.986012 -4.1289 0
M  V30 1638 C 158.64 -0.570304 -5.88644 0
M  V30 1639 H 157.57 0.0853333 -0.749156 0
M  V30 1640 H 160.221 -0.490483 -1.76823 0
M  V30 1641 H 158.603 1.20961 -3.77074 0
M  V30 1642 H 159.777 -1.59557 -4.32294 0
M  V30 1643 H 158.092 -1.29238 -3.95836 0
M  V30 1644 H 160.689 1.18991 -5.21292 0
M  V30 1645 H 161.032 1.94972 -3.6782 0
M  V30 1646 H 161.565 0.27592 -3.96842 0
M  V30 1647 H 158.304 -1.50449 -6.38001 0
M  V30 1648 H 157.824 0.164427 -5.99575 0
M  V30 1649 H 159.503 -0.19784 -6.46697 0
M  V30 1650 N 159.635 1.57281 -0.100228 0
M  V30 1651 C 160.86 1.99302 0.573881 0
M  V30 1652 C 161.285 0.979059 1.60611 0
M  V30 1653 O 160.643 -0.0517803 1.81226 0
M  V30 1654 C 160.691 3.40274 1.19358 0
M  V30 1655 O 159.795 3.41676 2.30935 0
M  V30 1656 H 159.136 0.647944 0.145138 0
M  V30 1657 H 161.666 2.03779 -0.183156 0
M  V30 1658 H 161.676 3.78078 1.53365 0
M  V30 1659 H 160.351 4.13594 0.437385 0
M  V30 1660 H 158.928 3.15672 1.98509 0
M  V30 1661 N 161.113 -0.173488 1.56642 0
M  V30 1662 C 162.338 -0.910149 1.86363 0
M  V30 1663 C 162.763 -1.75132 0.686318 0
M  V30 1664 O 162.121 -1.77595 -0.364643 0
M  V30 1665 C 162.169 -1.76447 3.14482 0
M  V30 1666 O 161.273 -2.86584 2.96553 0
M  V30 1667 H 160.614 -0.255086 0.613047 0
M  V30 1668 H 163.144 -0.172283 2.03873 0
M  V30 1669 H 163.154 -2.16483 3.45831 0
M  V30 1670 H 161.829 -1.14658 3.99783 0
M  V30 1671 H 160.406 -2.50146 2.76553 0
M  V30 1672 N 162.591 -1.51276 -0.441967 0
M  V30 1673 C 163.839 -1.63392 -1.18943 0
M  V30 1674 C 164.16 -0.350159 -1.9183 0
M  V30 1675 O 163.43 0.633784 -1.85364 0
M  V30 1676 H 162.01 -0.602164 -0.442049 0
M  V30 1677 H 164.672 -1.88186 -0.507165 0
M  V30 1678 H 163.768 -2.45934 -1.92154 0
M  V30 1679 N 164.069 0.697108 -1.41344 0
M  V30 1680 C 165.318 1.45279 -1.39918 0
M  V30 1681 C 165.631 1.95597 -0.0109624 0
M  V30 1682 O 166.837 2.71208 0.125919 0
M  V30 1683 C 165.293 2.62695 -2.46007 0
M  V30 1684 C 164.901 2.19169 -3.90729 0
M  V30 1685 C 166.645 3.40336 -2.53715 0
M  V30 1686 C 164.552 3.33535 -4.88373 0
M  V30 1687 H 163.482 0.545692 -0.520323 0
M  V30 1688 H 166.133 0.756929 -1.67161 0
M  V30 1689 H 164.515 3.34541 -2.11892 0
M  V30 1690 H 165.689 1.54623 -4.34083 0
M  V30 1691 H 164.004 1.54525 -3.86666 0
M  V30 1692 H 166.601 4.2547 -3.2385 0
M  V30 1693 H 166.944 3.85418 -1.5735 0
M  V30 1694 H 167.477 2.75546 -2.86913 0
M  V30 1695 H 164.216 2.93468 -5.86137 0
M  V30 1696 H 163.736 3.96936 -4.49668 0
M  V30 1697 H 165.415 3.99335 -5.09059 0
M  V30 1698 N 165.547 1.27147 0.931209 0
M  V30 1699 C 166.963 1.04475 1.20653 0
M  V30 1700 C 167.163 -0.223885 2.00252 0
M  V30 1701 O 166.219 -0.930332 2.34736 0
M  V30 1702 C 167.532 2.28209 1.95809 0
M  V30 1703 C 169.08 2.33211 2.08762 0
M  V30 1704 C 169.555 3.56665 2.87323 0
M  V30 1705 N 171.046 3.57201 2.94892 0
M  V30 1706 C 171.781 4.49395 3.56134 0
M  V30 1707 N 171.277 5.51889 4.18796 0
M  V30 1708 N 173.07 4.37026 3.53504 0
M  V30 1709 H 165.221 2.08612 0.399333 0
M  V30 1710 H 167.484 0.917312 0.239253 0
M  V30 1711 H 167.19 3.20538 1.44736 0
M  V30 1712 H 167.064 2.33247 2.96438 0
M  V30 1713 H 169.451 1.41391 2.59023 0
M  V30 1714 H 169.532 2.32178 1.07364 0
M  V30 1715 H 169.176 4.4882 2.37746 0
M  V30 1716 H 169.106 3.54948 3.88998 0
M  V30 1717 H 171.597 2.83074 2.50354 0
M  V30 1718 H 171.91 6.18409 4.63454 0
M  V30 1719 H 170.255 5.55735 4.17353 0
M  V30 1720 H 173.446 3.56166 3.03749 0
M  V30 1721 H 173.619 5.09067 4.00942 0
M  V30 1722 N 167.025 -1.13721 1.09112 0
M  V30 1723 C 167.935 -2.22638 0.73957 0
M  V30 1724 C 168.951 -1.72091 -0.257068 0
M  V30 1725 O 170.127 -2.01155 -0.0992154 0
M  V30 1726 C 167.192 -3.46322 0.16191 0
M  V30 1727 C 166.253 -4.11775 1.21408 0
M  V30 1728 C 165.486 -5.29555 0.663891 0
M  V30 1729 O 165.709 -5.68077 -0.514274 0
M  V30 1730 O 164.643 -5.84973 1.41738 0
M  V30 1731 H 168.469 -2.55074 1.64836 0
M  V30 1732 H 166.054 -1.21791 0.865289 0
M  V30 1733 H 167.936 -4.21107 -0.157073 0
M  V30 1734 H 166.611 -3.15593 -0.719932 0
M  V30 1735 H 165.518 -3.3883 1.58571 0
M  V30 1736 H 166.851 -4.46627 2.06845 0
M  V30 1737 N 168.503 -0.877838 -1.30888 0
M  V30 1738 C 169.731 -0.507414 -2.00581 0
M  V30 1739 C 170.146 0.902216 -1.65848 0
M  V30 1740 O 169.503 1.59225 -0.891831 0
M  V30 1741 C 169.554 -0.664162 -3.55347 0
M  V30 1742 O 169.275 -2.01829 -3.8884 0
M  V30 1743 C 170.776 -0.295787 -4.42312 0
M  V30 1744 H 167.996 -0.196866 -0.641471 0
M  V30 1745 H 170.54 -1.18117 -1.66939 0
M  V30 1746 H 168.695 -0.0378619 -3.87381 0
M  V30 1747 H 169.109 -2.03174 -4.8355 0
M  V30 1748 H 170.583 -0.456388 -5.5011 0
M  V30 1749 H 171.06 0.765663 -4.32475 0
M  V30 1750 H 171.666 -0.898113 -4.15709 0
M  V30 1751 N 169.982 1.44106 -0.638065 0
M  V30 1752 C 171.231 2.01194 -0.142744 0
M  V30 1753 C 171.544 1.50835 1.24532 0
M  V30 1754 O 172.75 2.00096 1.83504 0
M  V30 1755 C 171.206 3.59319 -0.20442 0
M  V30 1756 C 170.814 4.18674 -1.59423 0
M  V30 1757 C 172.558 4.23854 0.234079 0
M  V30 1758 C 170.465 5.69045 -1.61065 0
M  V30 1759 H 169.395 0.752367 -0.0495998 0
M  V30 1760 H 172.046 1.65246 -0.797881 0
M  V30 1761 H 170.428 3.92598 0.517946 0
M  V30 1762 H 171.602 3.96921 -2.34074 0
M  V30 1763 H 169.917 3.66453 -1.97741 0
M  V30 1764 H 172.514 5.34155 0.241443 0
M  V30 1765 H 172.857 3.96688 1.2627 0
M  V30 1766 H 173.39 3.95403 -0.436025 0
M  V30 1767 H 170.129 6.00956 -2.61787 0
M  V30 1768 H 169.649 5.929 -0.90718 0
M  V30 1769 H 171.328 6.32809 -1.34766 0
M  V30 1770 N 171.46 0.379036 1.52974 0
M  V30 1771 C 172.876 0.0285448 1.59574 0
M  V30 1772 C 173.076 -1.45542 1.39355 0
M  V30 1773 O 172.132 -2.2187 1.20541 0
M  V30 1774 C 173.445 0.496535 2.96572 0
M  V30 1775 C 174.993 0.451909 3.0972 0
M  V30 1776 C 175.468 0.895924 4.49152 0
M  V30 1777 N 176.959 0.851522 4.55306 0
M  V30 1778 C 177.694 1.16661 5.61407 0
M  V30 1779 N 177.19 1.55166 6.752 0
M  V30 1780 N 178.983 1.08853 5.51459 0
M  V30 1781 H 171.134 1.34525 1.64367 0
M  V30 1782 H 173.397 0.550733 0.771619 0
M  V30 1783 H 173.103 1.53258 3.16552 0
M  V30 1784 H 172.977 -0.109802 3.7704 0
M  V30 1785 H 175.364 -0.575029 2.89443 0
M  V30 1786 H 175.445 1.09392 2.3123 0
M  V30 1787 H 175.089 1.92104 4.70168 0
M  V30 1788 H 175.019 0.23103 5.26093 0
M  V30 1789 H 177.51 0.568038 3.73606 0
M  V30 1790 H 177.823 1.776 7.52116 0
M  V30 1791 H 176.168 1.59044 6.76557 0
M  V30 1792 H 179.359 0.786803 4.6144 0
M  V30 1793 H 179.532 1.33742 6.34048 0
M  V30 1794 N 172.938 -1.57226 0.108567 0
M  V30 1795 C 174.168 -1.9889 -0.559142 0
M  V30 1796 C 174.576 -0.986889 -1.61422 0
M  V30 1797 O 173.919 0.0298705 -1.83676 0
M  V30 1798 C 173.981 -3.36952 -1.25315 0
M  V30 1799 C 173.645 -4.55679 -0.347248 0
M  V30 1800 C 174.642 -5.18281 0.409996 0
M  V30 1801 C 172.327 -5.0162 -0.261367 0
M  V30 1802 C 174.321 -6.25203 1.24096 0
M  V30 1803 C 172.008 -6.08405 0.573238 0
M  V30 1804 C 173.006 -6.70063 1.32304 0
M  V30 1805 O 172.694 -7.74788 2.14381 0
M  V30 1806 H 172.426 -0.658343 -0.153492 0
M  V30 1807 H 174.98 -2.04532 0.188584 0
M  V30 1808 H 173.21 -3.28032 -2.04773 0
M  V30 1809 H 174.899 -3.62974 -1.81673 0
M  V30 1810 H 175.665 -4.8371 0.353457 0
M  V30 1811 H 171.544 -4.53381 -0.834656 0
M  V30 1812 H 175.088 -6.73259 1.82669 0
M  V30 1813 H 170.985 -6.42406 0.631208 0
M  V30 1814 H 171.753 -7.91837 2.07209 0
M  V30 1815 N 174.416 0.165178 -1.56732 0
M  V30 1816 C 175.346 1.20651 -1.99914 0
M  V30 1817 C 176.327 1.45827 -0.875705 0
M  V30 1818 O 177.512 1.57057 -1.14223 0
M  V30 1819 C 174.642 2.54401 -2.36427 0
M  V30 1820 C 173.596 2.43782 -3.51787 0
M  V30 1821 C 172.922 3.82078 -3.7406 0
M  V30 1822 C 174.222 1.93732 -4.85041 0
M  V30 1823 H 175.916 0.847534 -2.87154 0
M  V30 1824 H 173.462 0.40625 -1.38151 0
M  V30 1825 H 175.415 3.27458 -2.65234 0
M  V30 1826 H 174.139 2.92098 -1.46103 0
M  V30 1827 H 172.798 1.73178 -3.23117 0
M  V30 1828 H 172.446 4.17179 -2.81017 0
M  V30 1829 H 172.146 3.7584 -4.51684 0
M  V30 1830 H 173.67 4.56712 -4.05274 0
M  V30 1831 H 175.084 2.56569 -5.12684 0
M  V30 1832 H 173.481 1.98428 -5.66345 0
M  V30 1833 H 174.551 0.891962 -4.76626 0
M  V30 1834 N 175.894 1.51508 0.433938 0
M  V30 1835 C 177.14 1.64588 1.18484 0
M  V30 1836 C 177.473 0.362666 1.90784 0
M  V30 1837 O 176.748 -0.637892 1.83742 0
M  V30 1838 C 177.031 2.85149 2.19913 0
M  V30 1839 C 176.884 4.23456 1.51674 0
M  V30 1840 C 178.203 3.01227 3.20858 0
M  V30 1841 H 175.322 0.598994 0.429389 0
M  V30 1842 H 177.964 1.84002 0.473647 0
M  V30 1843 H 176.114 2.68729 2.80566 0
M  V30 1844 H 177.786 4.51552 0.943322 0
M  V30 1845 H 176.029 4.25998 0.819035 0
M  V30 1846 H 176.7 5.03812 2.2556 0
M  V30 1847 H 179.176 3.16382 2.70263 0
M  V30 1848 H 178.052 3.87141 3.89118 0
M  V30 1849 H 178.313 2.13447 3.8716 0
M  V30 1850 N 177.372 -0.689602 1.41712 0
M  V30 1851 C 178.304 -1.815 1.39966 0
M  V30 1852 C 179.317 -1.59995 0.300917 0
M  V30 1853 O 180.506 -1.69387 0.563039 0
M  V30 1854 C 177.606 -3.18364 1.16179 0
M  V30 1855 C 176.779 -3.66847 2.38206 0
M  V30 1856 C 175.838 -4.82398 2.10186 0
M  V30 1857 O 174.864 -4.93706 2.83272 0
M  V30 1858 N 176.066 -5.70064 1.0958 0
M  V30 1859 H 178.831 -1.83488 2.36965 0
M  V30 1860 H 176.392 -0.872149 1.36401 0
M  V30 1861 H 178.384 -3.93301 0.953756 0
M  V30 1862 H 176.954 -3.11365 0.27756 0
M  V30 1863 H 176.174 -2.82751 2.74673 0
M  V30 1864 H 177.462 -3.95978 3.19498 0
M  V30 1865 H 176.86 -5.63565 0.491019 0
M  V30 1866 H 175.417 -6.44874 0.947656 0
M  V30 1867 N 178.85 -1.27639 -0.924453 0
M  V30 1868 C 179.8 -1.07295 -2.01176 0
M  V30 1869 C 180.784 5.77352e-05 -1.609 0
M  V30 1870 O 181.976 -0.218855 -1.75642 0
M  V30 1871 C 179.105 -0.725592 -3.35544 0
M  V30 1872 C 178.191 -1.83691 -3.82254 0
M  V30 1873 N 178.582 -3.07697 -4.01443 0
M  V30 1874 C 176.88 -1.72433 -4.11319 0
M  V30 1875 C 177.581 -3.80037 -4.40394 0
M  V30 1876 N 176.557 -3.0782 -4.48049 0
M  V30 1877 H 180.359 -2.01399 -2.14046 0
M  V30 1878 H 177.873 -1.18401 -1.11153 0
M  V30 1879 H 179.87 -0.560959 -4.13109 0
M  V30 1880 H 178.53 0.207782 -3.24034 0
M  V30 1881 H 179.541 -3.43424 -3.8766 0
M  V30 1882 H 176.218 -0.862005 -4.08504 0
M  V30 1883 H 177.608 -4.86632 -4.63291 0
M  V30 1884 N 180.328 1.1314 -1.09713 0
M  V30 1885 C 181.276 2.20717 -0.733934 0
M  V30 1886 C 182.27 1.6729 0.266506 0
M  V30 1887 O 183.476 1.79547 0.127656 0
M  V30 1888 H 179.851 0.719292 -0.21937 0
M  V30 1889 H 181.822 2.48611 -1.6503 0
M  V30 1890 C 180.571 3.47265 -0.173849 0
M  V30 1891 H 179.894 3.88716 -0.934873 0
M  V30 1892 H 181.334 4.23979 0.0423126 0
M  V30 1893 C 179.793 3.18724 1.09164 0
M  V30 1894 O 180.323 3.37762 2.17439 0
M  V30 1895 N 178.529 2.72583 1.00732 0
M  V30 1896 H 178.076 2.57291 0.126121 0
M  V30 1897 H 178.034 2.53862 1.85476 0
M  V30 1898 N 181.806 0.884767 1.30421 0
M  V30 1899 C 182.739 0.295999 2.26272 0
M  V30 1900 C 183.717 -0.58332 1.51777 0
M  V30 1901 O 184.901 -0.53346 1.80794 0
M  V30 1902 C 182.028 -0.57944 3.33707 0
M  V30 1903 C 181.074 0.230525 4.25877 0
M  V30 1904 S 181.907 1.61867 5.1045 0
M  V30 1905 C 183.063 0.749756 6.21393 0
M  V30 1906 H 183.296 1.10848 2.75862 0
M  V30 1907 H 180.829 0.684178 1.38414 0
M  V30 1908 H 182.787 -1.07879 3.96071 0
M  V30 1909 H 181.448 -1.36601 2.82841 0
M  V30 1910 H 180.641 -0.437542 5.02097 0
M  V30 1911 H 180.243 0.662493 3.68086 0
M  V30 1912 H 182.535 -0.0333547 6.77492 0
M  V30 1913 H 183.478 1.48356 6.92384 0
M  V30 1914 H 183.886 0.310751 5.63644 0
M  V30 1915 N 183.284 -1.43765 0.645699 0
M  V30 1916 C 184.53 -2.02197 0.156271 0
M  V30 1917 C 184.863 -1.50776 -1.22393 0
M  V30 1918 O 184.138 -0.697771 -1.81553 0
M  V30 1919 C 184.421 -3.59749 0.158872 0
M  V30 1920 C 184.274 -4.21419 1.57245 0
M  V30 1921 C 185.593 -4.37149 -0.50879 0
M  V30 1922 H 182.712 -0.734694 0.0582602 0
M  V30 1923 H 185.354 -1.71157 0.824951 0
M  V30 1924 H 183.504 -3.86325 -0.410525 0
M  V30 1925 H 185.176 -4.059 2.19186 0
M  V30 1926 H 183.419 -3.78356 2.122 0
M  V30 1927 H 184.09 -5.30482 1.52619 0
M  V30 1928 H 186.566 -4.16093 -0.024412 0
M  V30 1929 H 185.442 -5.4683 -0.476213 0
M  V30 1930 H 185.703 -4.12839 -1.58165 0
M  V30 1931 N 184.763 -0.387143 -1.52771 0
M  V30 1932 C 186.04 0.253197 -1.93954 0
M  V30 1933 C 186.42 1.64545 -1.32243 0
M  V30 1934 O 185.768 2.23191 -0.489699 0
M  V30 1935 C 185.978 0.281722 -3.47861 0
M  V30 1936 C 187.326 0.511715 -4.21505 0
M  V30 1937 O 188.35 0.362023 -3.54356 0
M  V30 1938 O 187.209 0.804847 -5.40541 0
M  V30 1939 H 184.303 0.156845 -0.811991 0
M  V30 1940 H 186.849 -0.441494 -1.63856 0
M  V30 1941 H 185.621 -0.693571 -3.85104 0
M  V30 1942 H 185.244 1.02142 -3.84256 0
M  V30 1943 N 186.241 1.57166 -0.116904 0
M  V30 1944 C 187.487 1.95412 0.542405 0
M  V30 1945 C 187.82 1.00019 1.66463 0
M  V30 1946 O 187.095 0.0370346 1.94465 0
M  V30 1947 C 187.378 3.43615 1.07708 0
M  V30 1948 C 187.231 4.49781 -0.0415868 0
M  V30 1949 C 188.55 3.93616 1.96861 0
M  V30 1950 H 185.669 0.710543 0.195696 0
M  V30 1951 H 188.311 1.89027 -0.192038 0
M  V30 1952 H 186.461 3.49187 1.70296 0
M  V30 1953 H 188.133 4.56308 -0.676793 0
M  V30 1954 H 186.376 4.28033 -0.705019 0
M  V30 1955 H 187.047 5.50733 0.373717 0
M  V30 1956 H 189.523 3.90335 1.44146 0
M  V30 1957 H 188.399 4.97838 2.3119 0
M  V30 1958 H 188.66 3.34188 2.89432 0
M  V30 1959 N 187.719 -0.156864 1.56817 0
M  V30 1960 C 188.649 -1.19589 2.00551 0
M  V30 1961 C 189.63 -1.4536 0.883426 0
M  V30 1962 O 190.815 -1.56449 1.15054 0
M  V30 1963 C 187.945 -2.53143 2.37773 0
M  V30 1964 C 186.899 -2.41913 3.53075 0
M  V30 1965 C 186.225 -3.80088 3.76081 0
M  V30 1966 C 187.525 -1.91157 4.86062 0
M  V30 1967 H 189.219 -0.832293 2.87599 0
M  V30 1968 H 186.765 -0.398918 1.38364 0
M  V30 1969 H 188.718 -3.26047 2.66967 0
M  V30 1970 H 187.442 -2.91319 1.4765 0
M  V30 1971 H 186.101 -1.71462 3.24031 0
M  V30 1972 H 185.749 -4.15683 2.83225 0
M  V30 1973 H 185.449 -3.73439 4.53671 0
M  V30 1974 H 186.973 -4.54556 4.0769 0
M  V30 1975 H 188.387 -2.53846 5.14038 0
M  V30 1976 H 186.784 -1.95422 5.67389 0
M  V30 1977 H 187.854 -0.866673 4.77092 0
M  V30 1978 N 189.197 -1.51736 -0.425897 0
M  V30 1979 C 190.443 -1.65214 -1.1761 0
M  V30 1980 C 190.776 -0.372778 -1.90589 0
M  V30 1981 O 190.051 0.628139 -1.84078 0
M  V30 1982 C 190.334 -2.86312 -2.18398 0
M  V30 1983 C 190.187 -4.24254 -1.49426 0
M  V30 1984 C 191.506 -3.02925 -3.19256 0
M  V30 1985 H 188.625 -0.601263 -0.426206 0
M  V30 1986 H 191.267 -1.8425 -0.463882 0
M  V30 1987 H 189.417 -2.70213 -2.79137 0
M  V30 1988 H 191.089 -4.52046 -0.919362 0
M  V30 1989 H 189.332 -4.26426 -0.796432 0
M  V30 1990 H 190.003 -5.05001 -2.22885 0
M  V30 1991 H 192.479 -3.1781 -2.68581 0
M  V30 1992 H 191.355 -3.89199 -3.8706 0
M  V30 1993 H 191.616 -2.15497 -3.86023 0
M  V30 1994 N 190.675 0.682077 -1.42076 0
M  V30 1995 C 191.903 1.47057 -1.4554 0
M  V30 1996 C 192.318 1.8869 -0.0645779 0
M  V30 1997 O 191.675 1.57666 0.919115 0
M  V30 1998 C 191.726 2.72442 -2.37609 0
M  V30 1999 O 191.447 2.32559 -3.71279 0
M  V30 2000 C 192.948 3.66069 -2.50017 0
M  V30 2001 H 190.168 0.452737 -0.495248 0
M  V30 2002 H 192.712 0.838695 -1.8651 0
M  V30 2003 H 190.867 3.31835 -1.9991 0
M  V30 2004 H 191.281 3.13475 -4.20516 0
M  V30 2005 H 192.755 4.50792 -3.18576 0
M  V30 2006 H 193.232 4.11476 -1.53572 0
M  V30 2007 H 193.838 3.12572 -2.88407 0
M  V30 2008 N 192.153 1.28127 0.917671 0
M  V30 2009 C 193.381 1.17892 1.70026 0
M  V30 2010 C 193.796 -0.262958 1.8696 0
M  V30 2011 O 193.153 -1.17811 1.3938 0
M  V30 2012 C 193.204 1.86872 3.09453 0
M  V30 2013 O 192.925 3.25428 2.93306 0
M  V30 2014 C 194.426 1.8289 4.03815 0
M  V30 2015 H 191.646 0.40942 0.531617 0
M  V30 2016 H 194.19 1.69181 1.14883 0
M  V30 2017 H 192.345 1.39464 3.61426 0
M  V30 2018 H 192.759 3.59918 3.81523 0
M  V30 2019 H 194.233 2.35751 4.99125 0
M  V30 2020 H 194.71 0.800412 4.31845 0
M  V30 2021 H 195.316 2.29959 3.57769 0
M  V30 2022 N 193.631 -1.12557 1.10312 0
M  V30 2023 C 194.594 -2.16434 0.75424 0
M  V30 2024 C 195.594 -1.59278 -0.220685 0
M  V30 2025 O 196.784 -1.742 0.00230591 0
M  V30 2026 C 193.916 -3.40699 0.116987 0
M  V30 2027 H 195.109 -2.48811 1.67431 0
M  V30 2028 H 192.662 -1.27542 0.903475 0
M  V30 2029 H 193.397 -3.13921 -0.813877 0
M  V30 2030 H 193.182 -3.83459 0.818613 0
M  V30 2031 H 194.672 -4.17451 -0.111387 0
M  V30 2032 N 195.109 -0.891671 -1.2995 0
M  V30 2033 C 196.357 -0.512486 -1.95494 0
M  V30 2034 C 196.678 0.942776 -1.70695 0
M  V30 2035 O 195.948 1.66374 -1.03424 0
M  V30 2036 H 194.528 -0.186533 -0.723336 0
M  V30 2037 H 197.19 -1.13621 -1.58355 0
M  V30 2038 H 196.286 -0.688342 -3.04415 0
M  V30 2039 N 196.587 1.43421 -0.653314 0
M  V30 2040 C 197.835 2.01414 -0.166415 0
M  V30 2041 C 198.156 1.51803 1.22397 0
M  V30 2042 O 197.426 0.730693 1.81763 0
M  V30 2043 H 196.006 0.744703 -0.0585319 0
M  V30 2044 H 198.668 1.75629 -0.845003 0
M  V30 2045 H 197.764 3.11734 -0.151111 0
M  V30 2046 N 198.065 0.39524 1.52563 0
M  V30 2047 C 199.311 -0.185318 2.01952 0
M  V30 2048 C 199.644 -1.45964 1.28095 0
M  V30 2049 O 198.919 -1.90689 0.38315 0
M  V30 2050 C 199.202 -0.447193 3.57312 0
M  V30 2051 C 199.055 0.842828 4.41833 0
M  V30 2052 C 200.374 -1.23529 4.22408 0
M  V30 2053 H 197.493 -0.0658788 0.73405 0
M  V30 2054 H 200.135 0.525975 1.82575 0
M  V30 2055 H 198.285 -1.05312 3.73954 0
M  V30 2056 H 199.957 1.4795 4.36931 0
M  V30 2057 H 198.2 1.45686 4.08605 0
M  V30 2058 H 198.871 0.614165 5.48573 0
M  V30 2059 H 201.347 -0.722445 4.0978 0
M  V30 2060 H 200.223 -1.38727 5.3108 0
M  V30 2061 H 200.484 -2.25213 3.80436 0
M  V30 2062 N 199.544 -1.57102 0.125237 0
M  V30 2063 C 200.454 -2.19191 -0.8362 0
M  V30 2064 C 201.47 -1.16985 -1.28805 0
M  V30 2065 O 202.646 -1.49479 -1.34974 0
M  V30 2066 C 199.711 -2.78407 -2.06617 0
M  V30 2067 C 198.772 -3.9567 -1.66565 0
M  V30 2068 C 198.005 -4.52052 -2.83698 0
M  V30 2069 O 198.228 -4.07326 -3.99302 0
M  V30 2070 O 197.162 -5.42645 -2.60423 0
M  V30 2071 H 200.988 -3.01816 -0.337776 0
M  V30 2072 H 198.573 -1.4906 -0.100695 0
M  V30 2073 H 200.455 -3.16129 -2.7864 0
M  V30 2074 H 199.13 -1.9881 -2.55453 0
M  V30 2075 H 198.037 -3.62705 -0.916296 0
M  V30 2076 H 199.37 -4.76722 -1.22464 0
M  V30 2077 N 201.022 0.148545 -1.56898 0
M  V30 2078 C 201.932 1.20293 -2.01412 0
M  V30 2079 C 202.948 1.47107 -0.929273 0
M  V30 2080 O 204.124 1.58807 -1.23863 0
M  V30 2081 C 201.189 2.51682 -2.38447 0
M  V30 2082 C 200.25 2.32529 -3.60872 0
M  V30 2083 C 199.483 3.57653 -3.96132 0
M  V30 2084 O 199.706 4.63771 -3.32073 0
M  V30 2085 O 198.64 3.50408 -4.89385 0
M  V30 2086 H 202.466 0.855025 -2.91416 0
M  V30 2087 H 200.051 0.357151 -1.45068 0
M  V30 2088 H 201.933 3.29147 -2.63135 0
M  V30 2089 H 200.608 2.86006 -1.51599 0
M  V30 2090 H 199.515 1.53019 -3.41373 0
M  V30 2091 H 200.848 2.03121 -4.48333 0
M  V30 2092 N 202.5 1.5196 0.417844 0
M  V30 2093 C 203.777 1.56146 1.17803 0
M  V30 2094 C 204.157 0.337275 2.08388 0
M  V30 2095 O 203.505 -0.676447 2.18258 0
M  V30 2096 C 203.715 2.88566 1.96293 0
M  V30 2097 C 205.063 3.41244 2.52662 0
M  V30 2098 O 206.087 2.90247 2.06483 0
M  V30 2099 O 204.946 4.30273 3.36938 0
M  V30 2100 H 202.04 0.628598 0.537395 0
M  V30 2101 H 204.586 1.64283 0.425331 0
M  V30 2102 H 203.358 3.69116 1.2988 0
M  V30 2103 H 202.981 2.83681 2.78587 0
M  V30 2104 N 203.978 -0.674533 1.42435 0
M  V30 2105 C 204.908 -1.80009 1.48724 0
M  V30 2106 C 205.889 -1.6659 0.343793 0
M  V30 2107 O 207.074 -1.86007 0.558137 0
M  V30 2108 C 204.204 -3.18306 1.38919 0
M  V30 2109 C 203.158 -3.46461 2.51294 0
M  V30 2110 C 202.484 -4.84335 2.26547 0
M  V30 2111 C 203.784 -3.43328 3.93603 0
M  V30 2112 H 205.478 -1.75004 2.42928 0
M  V30 2113 H 203.024 -0.840533 1.16923 0
M  V30 2114 H 204.977 -3.9678 1.41927 0
M  V30 2115 H 203.701 -3.2399 0.412094 0
M  V30 2116 H 202.36 -2.70348 2.47604 0
M  V30 2117 H 202.008 -4.86669 1.2713 0
M  V30 2118 H 201.708 -5.04136 3.01861 0
M  V30 2119 H 203.232 -5.65094 2.31304 0
M  V30 2120 H 204.646 -4.11772 3.98894 0
M  V30 2121 H 203.043 -3.74664 4.68771 0
M  V30 2122 H 204.113 -2.41897 4.20255 0
M  V30 2123 N 205.456 -1.28612 -0.910864 0
M  V30 2124 C 206.705 -1.15311 -1.65488 0
M  V30 2125 C 207.018 0.296999 -1.93332 0
M  V30 2126 O 208.224 0.551168 -2.65847 0
M  V30 2127 C 206.68 -2.01599 -2.98137 0
M  V30 2128 C 206.288 -3.51367 -2.7793 0
M  V30 2129 C 208.032 -1.96993 -3.76024 0
M  V30 2130 C 205.939 -4.29797 -4.06237 0
M  V30 2131 H 204.869 -0.42796 -0.620779 0
M  V30 2132 H 207.52 -1.53166 -1.01057 0
M  V30 2133 H 205.902 -1.56603 -3.63719 0
M  V30 2134 H 207.076 -4.0434 -2.21011 0
M  V30 2135 H 205.391 -3.57529 -2.13452 0
M  V30 2136 H 207.988 -2.52856 -4.71135 0
M  V30 2137 H 208.331 -0.94733 -4.05378 0
M  V30 2138 H 208.864 -2.39973 -3.17266 0
M  V30 2139 H 205.603 -5.32648 -3.82055 0
M  V30 2140 H 205.123 -3.81596 -4.62757 0
M  V30 2141 H 206.802 -4.39869 -4.74473 0
M  V30 2142 N 206.934 1.1197 -1.10907 0
M  V30 2143 C 207.881 2.17846 -0.762345 0
M  V30 2144 C 208.851 1.63995 0.263599 0
M  V30 2145 O 210.036 1.90273 0.141773 0
M  V30 2146 C 207.176 3.44487 -0.205651 0
M  V30 2147 C 206.289 4.12369 -1.28748 0
M  V30 2148 C 205.424 5.26674 -0.691919 0
M  V30 2149 C 204.463 5.86431 -1.75399 0
M  V30 2150 N 203.6 6.92142 -1.17833 0
M  V30 2151 H 208.44 2.46851 -1.6694 0
M  V30 2152 H 205.977 1.21188 -0.833776 0
M  V30 2153 H 207.935 4.16981 0.135037 0
M  V30 2154 H 206.565 3.15884 0.664613 0
M  V30 2155 H 205.617 3.38003 -1.74522 0
M  V30 2156 H 206.929 4.52844 -2.09125 0
M  V30 2157 H 206.083 6.05953 -0.300963 0
M  V30 2158 H 204.822 4.8749 0.143232 0
M  V30 2159 H 203.827 5.05835 -2.15432 0
M  V30 2160 H 205.052 6.27685 -2.59208 0
M  V30 2161 H 202.998 6.54985 -0.364725 0
M  V30 2162 H 202.915 7.31242 -1.91887 0
M  V30 2163 H 204.183 7.75237 -0.81408 0
M  V30 2164 N 208.412 0.89855 1.29475 0
M  V30 2165 C 209.652 0.530771 1.97388 0
M  V30 2166 C 210.016 -0.905832 1.69289 0
M  V30 2167 O 211.217 -1.38042 2.30646 0
M  V30 2168 C 209.488 0.81369 3.48014 0
M  V30 2169 S 211.047 0.550048 4.35339 0
M  V30 2170 H 207.865 0.196956 0.683176 0
M  V30 2171 H 210.467 1.16074 1.57312 0
M  V30 2172 H 209.171 1.85749 3.65958 0
M  V30 2173 H 208.702 0.171795 3.93025 0
M  V30 2174 H 210.717 -0.605423 4.92493 0
M  V30 2175 N 209.89 -1.43072 0.660911 0
M  V30 2176 C 210.82 -2.33497 -0.0122829 0
M  V30 2177 C 211.801 -1.49903 -0.803925 0
M  V30 2178 O 212.986 -1.78546 -0.763864 0
M  V30 2179 C 210.116 -3.33363 -0.973994 0
M  V30 2180 C 209.07 -4.27003 -0.291928 0
M  V30 2181 C 208.396 -5.16967 -1.36562 0
M  V30 2182 C 209.696 -5.15816 0.820462 0
M  V30 2183 H 211.39 -2.90038 0.742873 0
M  V30 2184 H 208.936 -1.39461 0.358688 0
M  V30 2185 H 210.889 -3.95524 -1.45392 0
M  V30 2186 H 209.613 -2.75095 -1.7604 0
M  V30 2187 H 208.272 -3.66217 0.167623 0
M  V30 2188 H 207.92 -4.55034 -2.14366 0
M  V30 2189 H 207.62 -5.80441 -0.914454 0
M  V30 2190 H 209.144 -5.82003 -1.84675 0
M  V30 2191 H 210.558 -5.71742 0.422366 0
M  V30 2192 H 208.955 -5.8805 1.19656 0
M  V30 2193 H 210.025 -4.55045 1.67518 0
M  V30 2194 N 211.368 -0.403325 -1.52352 0
M  V30 2195 C 212.331 0.413051 -2.25447 0
M  V30 2196 C 213.331 0.978513 -1.276 0
M  V30 2197 O 214.521 0.858305 -1.51587 0
M  V30 2198 C 211.653 1.58087 -3.02029 0
M  V30 2199 H 212.846 -0.227094 -2.99039 0
M  V30 2200 H 210.399 -0.155722 -1.55522 0
M  V30 2201 H 211.134 2.25804 -2.32772 0
M  V30 2202 H 210.919 1.18195 -3.73861 0
M  V30 2203 H 212.409 2.1585 -3.57489 0
M  V30 2204 N 212.846 1.57033 -0.133567 0
M  V30 2205 C 214.257 1.82593 0.389464 0
M  V30 2206 C 214.608 1.05156 1.6564 0
M  V30 2207 O 213.733 0.292644 2.14412 0
M  V30 2208 C 214.328 3.31204 0.713377 0
M  V30 2209 C 212.887 3.57393 1.18098 0
M  V30 2210 C 212.034 2.76598 0.197126 0
M  V30 2211 H 214.985 1.54598 -0.358481 0
M  V30 2212 H 215.006 3.46627 1.56939 0
M  V30 2213 H 214.518 3.87537 -0.2089 0
M  V30 2214 H 212.619 3.06433 2.11966 0
M  V30 2215 H 212.732 4.65915 1.11624 0
M  V30 2216 H 211.096 2.45257 0.687088 0
M  V30 2217 H 211.879 3.35697 -0.718504 0
M  V30 2218 N 214.325 -0.140222 1.56975 0
M  V30 2219 C 215.553 -0.866437 1.87884 0
M  V30 2220 C 215.968 -1.74428 0.722517 0
M  V30 2221 O 215.325 -1.79891 -0.30749 0
M  V30 2222 C 215.376 -1.71753 3.18093 0
M  V30 2223 O 215.097 -0.875056 4.29272 0
M  V30 2224 C 216.598 -2.55074 3.62563 0
M  V30 2225 H 213.818 -0.25019 0.622612 0
M  V30 2226 H 216.362 -0.130977 2.0408 0
M  V30 2227 H 214.517 -2.40598 3.03631 0
M  V30 2228 H 214.931 -1.46002 5.03769 0
M  V30 2229 H 216.405 -3.10356 4.5649 0
M  V30 2230 H 216.882 -3.31434 2.88181 0
M  V30 2231 H 217.488 -1.91509 3.79743 0
M  V30 2232 N 215.803 -1.52179 -0.40978 0
M  V30 2233 C 217.033 -1.69807 -1.17682 0
M  V30 2234 C 217.441 -0.406908 -1.84773 0
M  V30 2235 O 216.784 0.626863 -1.72673 0
M  V30 2236 C 216.846 -2.77712 -2.2829 0
M  V30 2237 C 216.51 -4.19481 -1.81341 0
M  V30 2238 C 217.507 -5.03345 -1.30154 0
M  V30 2239 C 215.192 -4.65713 -1.88194 0
M  V30 2240 C 217.186 -6.31511 -0.864416 0
M  V30 2241 C 214.873 -5.93869 -1.44093 0
M  V30 2242 C 215.871 -6.76597 -0.933023 0
M  V30 2243 O 215.559 -8.02354 -0.49838 0
M  V30 2244 H 215.291 -0.572372 -0.359675 0
M  V30 2245 H 217.845 -1.99511 -0.488311 0
M  V30 2246 H 216.075 -2.43383 -3.00502 0
M  V30 2247 H 217.764 -2.83946 -2.90051 0
M  V30 2248 H 218.53 -4.68819 -1.24232 0
M  V30 2249 H 214.409 -4.01424 -2.26671 0
M  V30 2250 H 217.953 -6.96033 -0.467286 0
M  V30 2251 H 213.85 -6.27903 -1.49694 0
M  V30 2252 H 214.618 -8.16135 -0.621747 0
M  V30 2253 N 217.281 0.66697 -1.42791 0
M  V30 2254 C 218.211 1.79218 -1.49677 0
M  V30 2255 C 219.192 1.66405 -0.352623 0
M  V30 2256 O 220.377 1.85708 -0.567993 0
M  V30 2257 C 217.507 3.17565 -1.40605 0
M  V30 2258 C 216.461 3.45124 -2.53127 0
M  V30 2259 C 215.787 4.83127 -2.29112 0
M  V30 2260 C 217.087 3.41236 -3.95418 0
M  V30 2261 H 218.781 1.73713 -2.43853 0
M  V30 2262 H 216.327 0.83432 -1.17367 0
M  V30 2263 H 218.28 3.96022 -1.44029 0
M  V30 2264 H 217.004 3.23767 -0.429271 0
M  V30 2265 H 215.663 2.69031 -2.49034 0
M  V30 2266 H 215.311 4.85988 -1.29709 0
M  V30 2267 H 215.011 5.02528 -3.04531 0
M  V30 2268 H 216.535 5.63859 -2.34297 0
M  V30 2269 H 217.949 4.09651 -4.01073 0
M  V30 2270 H 216.346 3.72173 -4.70752 0
M  V30 2271 H 217.416 2.39665 -4.21532 0
M  V30 2272 N 218.759 1.29093 0.90403 0
M  V30 2273 C 220.007 1.16583 1.65085 0
M  V30 2274 C 220.328 -0.283933 1.92922 0
M  V30 2275 O 219.598 -1.19509 1.55224 0
M  V30 2276 H 218.178 0.428467 0.611903 0
M  V30 2277 H 220.84 1.61959 1.08422 0
M  V30 2278 H 219.936 1.71266 2.6091 0
M  V30 2279 N 220.237 -1.11381 1.11499 0
M  V30 2280 C 221.147 -2.21019 0.786628 0
M  V30 2281 C 222.163 -1.72597 -0.220507 0
M  V30 2282 O 223.339 -2.01321 -0.0565251 0
M  V30 2283 C 220.404 -3.459 0.235333 0
M  V30 2284 C 219.465 -4.09107 1.30115 0
M  V30 2285 C 218.698 -5.28027 0.776068 0
M  V30 2286 O 218.921 -5.6904 -0.393661 0
M  V30 2287 O 217.855 -5.81835 1.54114 0
M  V30 2288 H 221.681 -2.51521 1.70209 0
M  V30 2289 H 219.266 -1.19928 0.890928 0
M  V30 2290 H 221.148 -4.21346 -0.067715 0
M  V30 2291 H 219.823 -3.17049 -0.652828 0
M  V30 2292 H 218.73 -3.35391 1.65722 0
M  V30 2293 H 220.063 -4.42139 2.16273 0
M  V30 2294 N 221.715 -0.905404 -1.28997 0
M  V30 2295 C 222.962 -0.534248 -1.95325 0
M  V30 2296 C 223.29 0.920535 -1.71337 0
M  V30 2297 O 222.545 1.66861 -1.02254 0
M  V30 2298 C 222.844 -0.779906 -3.48787 0
M  V30 2299 C 222.51 -2.21293 -3.92861 0
M  V30 2300 C 221.172 -2.60475 -4.04606 0
M  V30 2301 C 223.524 -3.14587 -4.15553 0
M  V30 2302 C 220.852 -3.9212 -4.36416 0
M  V30 2303 C 223.204 -4.45787 -4.48839 0
M  V30 2304 C 221.868 -4.84834 -4.58794 0
M  V30 2305 H 221.138 -0.195495 -0.714747 0
M  V30 2306 H 223.785 -1.14514 -1.53488 0
M  V30 2307 H 222.09 -0.0861365 -3.91705 0
M  V30 2308 H 223.787 -0.472029 -3.98212 0
M  V30 2309 H 220.377 -1.89887 -3.84241 0
M  V30 2310 H 224.561 -2.85528 -4.0594 0
M  V30 2311 H 219.817 -4.22086 -4.42327 0
M  V30 2312 H 223.991 -5.18098 -4.65346 0
M  V30 2313 H 221.618 -5.86877 -4.83197 0
M  V30 2314 N 223.193 1.4272 -0.668489 0
M  V30 2315 C 224.418 2.06484 -0.194758 0
M  V30 2316 C 224.843 1.49862 1.13679 0
M  V30 2317 O 224.201 0.614582 1.70565 0
M  V30 2318 C 224.249 3.60353 -0.133546 0
M  V30 2319 O 223.353 4.02464 0.899806 0
M  V30 2320 H 222.694 0.656137 -0.10188 0
M  V30 2321 H 225.224 1.82964 -0.915722 0
M  V30 2322 H 225.234 4.07976 0.0447041 0
M  V30 2323 H 223.909 4.00938 -1.1055 0
M  V30 2324 H 222.486 3.66402 0.693109 0
M  V30 2325 N 224.671 0.411399 1.52136 0
M  V30 2326 C 225.601 -0.404015 2.29978 0
M  V30 2327 C 226.582 -1.04412 1.34284 0
M  V30 2328 O 227.767 -1.0527 1.63192 0
M  V30 2329 C 224.897 -1.5197 3.12286 0
M  V30 2330 C 223.851 -1.00448 4.16046 0
M  V30 2331 C 223.177 -2.21393 4.86712 0
M  V30 2332 C 224.477 -0.0569336 5.22269 0
M  V30 2333 H 226.171 0.245529 2.98392 0
M  V30 2334 H 223.717 0.119525 1.43503 0
M  V30 2335 H 225.67 -2.09715 3.6551 0
M  V30 2336 H 224.394 -2.19716 2.41646 0
M  V30 2337 H 223.053 -0.449421 3.63835 0
M  V30 2338 H 222.701 -2.87699 4.12599 0
M  V30 2339 H 222.401 -1.87571 5.56858 0
M  V30 2340 H 223.925 -2.7974 5.4275 0
M  V30 2341 H 225.339 -0.54325 5.7072 0
M  V30 2342 H 223.736 0.192594 5.99791 0
M  V30 2343 H 224.806 0.887663 4.76706 0
M  V30 2344 N 226.149 -1.5696 0.141893 0
M  V30 2345 C 227.565 -1.58151 -0.21456 0
M  V30 2346 C 227.765 -1.1559 -1.65049 0
M  V30 2347 O 226.821 -0.853832 -2.37626 0
M  V30 2348 C 228.134 -3.00674 0.0395576 0
M  V30 2349 C 229.682 -3.1299 -0.0245529 0
M  V30 2350 C 230.157 -4.57554 0.202167 0
M  V30 2351 N 231.648 -4.62961 0.148919 0
M  V30 2352 C 232.383 -5.7262 0.298924 0
M  V30 2353 N 231.879 -6.90947 0.50637 0
M  V30 2354 N 233.672 -5.61601 0.236886 0
M  V30 2355 H 225.823 -1.8292 1.07953 0
M  V30 2356 H 228.086 -0.846425 0.42693 0
M  V30 2357 H 227.792 -3.36183 1.03315 0
M  V30 2358 H 227.666 -3.70981 -0.682143 0
M  V30 2359 H 230.053 -2.77326 -1.00869 0
M  V30 2360 H 230.134 -2.4518 0.729396 0
M  V30 2361 H 229.778 -4.93922 1.18338 0
M  V30 2362 H 229.708 -5.23484 -0.572044 0
M  V30 2363 H 232.199 -3.77899 -0.00697015 0
M  V30 2364 H 232.512 -7.7038 0.611076 0
M  V30 2365 H 230.857 -6.92878 0.542628 0
M  V30 2366 H 234.048 -4.68039 0.0756209 0
M  V30 2367 H 234.221 -6.47015 0.357227 0
M  V30 2368 N 227.627 0.131896 -1.57047 0
M  V30 2369 C 228.875 0.840269 -1.83804 0
M  V30 2370 C 229.196 1.81017 -0.72512 0
M  V30 2371 O 228.466 1.94272 0.251995 0
M  V30 2372 H 227.046 0.313294 -0.678127 0
M  V30 2373 H 229.708 0.122294 -1.94516 0
M  V30 2374 H 228.804 1.39335 -2.79271 0
M  V30 2375 N 229.106 1.52395 0.401703 0
M  V30 2376 C 230.053 1.76268 1.48991 0
M  V30 2377 C 231.023 0.605386 1.54675 0
M  V30 2378 O 232.208 0.843742 1.7113 0
M  V30 2379 C 229.348 1.92592 2.86361 0
M  V30 2380 C 228.461 3.20259 2.89928 0
M  V30 2381 C 227.596 3.26972 4.18644 0
M  V30 2382 C 226.635 4.48812 4.16214 0
M  V30 2383 N 225.772 4.52877 5.36514 0
M  V30 2384 H 230.612 2.6914 1.27935 0
M  V30 2385 H 228.149 1.33355 0.620871 0
M  V30 2386 H 230.107 2.0004 3.66115 0
M  V30 2387 H 228.737 1.03093 3.05895 0
M  V30 2388 H 227.789 3.21945 2.02621 0
M  V30 2389 H 229.101 4.10056 2.83999 0
M  V30 2390 H 228.255 3.33533 5.06794 0
M  V30 2391 H 226.994 2.35126 4.27278 0
M  V30 2392 H 225.999 4.4239 3.26453 0
M  V30 2393 H 227.224 5.41961 4.09213 0
M  V30 2394 H 225.17 3.63917 5.45802 0
M  V30 2395 H 225.087 5.36529 5.32609 0
M  V30 2396 H 226.355 4.63676 6.26597 0
M  V30 2397 N 230.584 -0.659388 1.43143 0
M  V30 2398 C 231.494 -1.80167 1.50256 0
M  V30 2399 C 232.51 -1.69571 0.390106 0
M  V30 2400 O 233.686 -1.90849 0.643319 0
M  V30 2401 C 230.751 -3.16409 1.41725 0
M  V30 2402 C 229.812 -3.38848 2.63591 0
M  V30 2403 C 229.045 -4.68591 2.55458 0
M  V30 2404 O 229.268 -5.47532 1.59891 0
M  V30 2405 O 228.202 -4.92614 3.45854 0
M  V30 2406 H 232.028 -1.77121 2.46702 0
M  V30 2407 H 229.613 -0.817092 1.25076 0
M  V30 2408 H 231.495 -3.9768 1.39387 0
M  V30 2409 H 230.17 -3.20059 0.484118 0
M  V30 2410 H 229.077 -2.57366 2.71502 0
M  V30 2411 H 230.41 -3.4004 3.55856 0
M  V30 2412 N 232.062 -1.29571 -0.897171 0
M  V30 2413 C 232.992 -1.17473 -2.01798 0
M  V30 2414 C 233.973 -0.068323 -1.69963 0
M  V30 2415 O 235.158 -0.248239 -1.92607 0
M  V30 2416 C 232.288 -0.853099 -3.36659 0
M  V30 2417 C 231.242 -1.9161 -3.82713 0
M  V30 2418 C 230.568 -1.44773 -5.14728 0
M  V30 2419 C 231.868 -3.32535 -4.02763 0
M  V30 2420 H 233.562 -2.11237 -2.12177 0
M  V30 2421 H 231.108 -1.01699 -1.01948 0
M  V30 2422 H 233.061 -0.755165 -4.14578 0
M  V30 2423 H 231.785 0.120236 -3.26379 0
M  V30 2424 H 230.444 -2.00346 -3.07013 0
M  V30 2425 H 230.092 -0.462995 -5.00865 0
M  V30 2426 H 229.792 -2.15865 -5.46513 0
M  V30 2427 H 231.316 -1.36334 -5.95185 0
M  V30 2428 H 232.73 -3.26626 -4.71156 0
M  V30 2429 H 231.127 -4.01607 -4.45905 0
M  V30 2430 H 232.197 -3.75326 -3.07016 0
M  V30 2431 N 233.54 1.10788 -1.12088 0
M  V30 2432 C 234.956 1.34691 -0.856186 0
M  V30 2433 C 235.156 1.94791 0.515615 0
M  V30 2434 O 234.212 2.18524 1.26505 0
M  V30 2435 C 235.525 2.27208 -1.9697 0
M  V30 2436 C 237.073 2.40755 -2.00016 0
M  V30 2437 C 237.548 3.36598 -3.1059 0
M  V30 2438 N 239.039 3.44164 -3.10008 0
M  V30 2439 C 239.774 4.18284 -3.92206 0
M  V30 2440 N 239.27 4.95322 -4.84384 0
M  V30 2441 N 241.063 4.13865 -3.80357 0
M  V30 2442 H 233.214 0.70144 -2.00483 0
M  V30 2443 H 235.477 0.371405 -0.872217 0
M  V30 2444 H 235.183 1.90251 -2.958 0
M  V30 2445 H 235.057 3.27485 -1.87172 0
M  V30 2446 H 237.444 2.76982 -1.01808 0
M  V30 2447 H 237.525 1.40305 -2.13888 0
M  V30 2448 H 237.169 3.01096 -4.09028 0
M  V30 2449 H 237.099 4.36918 -2.93956 0
M  V30 2450 H 239.59 2.8922 -2.43228 0
M  V30 2451 H 239.903 5.49267 -5.43623 0
M  V30 2452 H 238.248 4.94459 -4.884 0
M  V30 2453 H 241.439 3.52773 -3.07683 0
M  V30 2454 H 241.612 4.71372 -4.44649 0
M  V30 2455 N 235.018 0.912232 1.28515 0
M  V30 2456 C 235.928 0.404506 2.31086 0
M  V30 2457 C 236.944 -0.50707 1.66448 0
M  V30 2458 O 238.12 -0.393624 1.97516 0
M  V30 2459 C 235.185 -0.348572 3.44943 0
M  V30 2460 C 234.246 0.59604 4.25142 0
M  V30 2461 C 233.479 -0.121194 5.33562 0
M  V30 2462 O 233.702 -1.34317 5.5436 0
M  V30 2463 O 232.636 0.542716 5.99448 0
M  V30 2464 H 236.462 1.25579 2.76521 0
M  V30 2465 H 234.047 0.676998 1.33181 0
M  V30 2466 H 235.929 -0.77395 4.14232 0
M  V30 2467 H 234.604 -1.17571 3.01594 0
M  V30 2468 H 233.511 1.07079 3.58448 0
M  V30 2469 H 234.844 1.38995 4.72167 0
M  V30 2470 N 236.496 -1.42363 0.676048 0
M  V30 2471 C 237.444 -2.32596 -0.0131507 0
M  V30 2472 C 238.438 -1.49891 -0.789238 0
M  V30 2473 O 239.644 -1.65955 -0.697061 0
M  V30 2474 H 236.019 -0.751647 -0.0230481 0
M  V30 2475 H 237.99 -2.88421 0.765243 0
M  V30 2476 C 236.739 -3.34479 -0.949702 0
M  V30 2477 H 236.062 -3.98158 -0.361938 0
M  V30 2478 H 237.502 -4.00199 -1.4006 0
M  V30 2479 C 235.961 -2.66838 -2.05667 0
M  V30 2480 O 236.491 -2.50124 -3.14326 0
M  V30 2481 N 234.697 -2.25843 -1.82875 0
M  V30 2482 H 234.244 -2.39637 -0.945085 0
M  V30 2483 H 234.202 -1.80918 -2.5713 0
M  V30 2484 N 237.974 -0.419461 -1.51915 0
M  V30 2485 C 239.222 0.152637 -2.01523 0
M  V30 2486 C 239.543 1.44762 -1.30649 0
M  V30 2487 O 238.813 1.90997 -0.435535 0
M  V30 2488 H 237.393 0.0593966 -0.744635 0
M  V30 2489 H 240.055 -0.558073 -1.86739 0
M  V30 2490 H 239.151 0.341369 -3.10227 0
M  V30 2491 N 239.452 1.56882 -0.150215 0
M  V30 2492 C 240.701 1.95403 0.500071 0
M  V30 2493 C 241.014 1.03777 1.658 0
M  V30 2494 O 242.22 1.31889 2.37313 0
M  V30 2495 C 240.676 3.4738 0.941018 0
M  V30 2496 C 240.284 4.47596 -0.190158 0
M  V30 2497 C 242.028 3.9476 1.56091 0
M  V30 2498 C 239.935 5.90787 0.269237 0
M  V30 2499 H 238.865 0.729515 0.190588 0
M  V30 2500 H 241.516 1.81988 -0.235074 0
M  V30 2501 H 239.898 3.56138 1.73152 0
M  V30 2502 H 241.072 4.50536 -0.967157 0
M  V30 2503 H 239.387 4.10151 -0.718666 0
M  V30 2504 H 241.984 4.99181 1.9163 0
M  V30 2505 H 242.327 3.36494 2.45107 0
M  V30 2506 H 242.86 3.88932 0.835249 0
M  V30 2507 H 239.599 6.52879 -0.585621 0
M  V30 2508 H 239.119 5.912 1.01204 0
M  V30 2509 H 240.798 6.42979 0.720176 0
M  V30 2510 N 240.93 -0.123565 1.57115 0
M  V30 2511 C 241.878 -1.17082 2.00984 0
M  V30 2512 C 242.872 -1.43136 0.906009 0
M  V30 2513 O 244.078 -1.43152 1.09121 0
M  V30 2514 H 240.453 -0.394653 0.64012 0
M  V30 2515 H 242.424 -0.774292 2.88179 0
M  V30 2516 C 241.173 -2.49057 2.42623 0
M  V30 2517 H 240.496 -2.29846 3.27125 0
M  V30 2518 H 241.936 -3.20906 2.7712 0
M  V30 2519 C 240.395 -3.11305 1.28805 0
M  V30 2520 O 240.925 -3.97171 0.60153 0
M  V30 2521 N 239.131 -2.71111 1.04628 0
M  V30 2522 H 238.678 -2.01382 1.60634 0
M  V30 2523 H 238.636 -3.1309 0.286685 0
M  V30 2524 N 242.408 -1.52605 -0.393616 0
M  V30 2525 C 243.824 -1.41753 -0.733357 0
M  V30 2526 C 244.024 -0.534293 -1.94287 0
M  V30 2527 O 243.08 -0.0059787 -2.52499 0
M  V30 2528 C 244.393 -2.84531 -0.972772 0
M  V30 2529 C 245.941 -2.93978 -1.07453 0
M  V30 2530 C 246.416 -4.37756 -1.3466 0
M  V30 2531 N 247.907 -4.4106 -1.41492 0
M  V30 2532 C 248.642 -5.49387 -1.642 0
M  V30 2533 N 248.138 -6.67806 -1.8441 0
M  V30 2534 N 249.931 -5.36923 -1.66342 0
M  V30 2535 H 242.082 -2.08555 0.402328 0
M  V30 2536 H 244.345 -0.940654 0.117789 0
M  V30 2537 H 244.051 -3.51353 -0.156204 0
M  V30 2538 H 243.925 -3.26508 -1.88871 0
M  V30 2539 H 246.312 -2.27326 -1.88167 0
M  V30 2540 H 246.393 -2.55435 -0.136605 0
M  V30 2541 H 246.037 -5.04972 -0.544581 0
M  V30 2542 H 245.967 -4.73848 -2.2973 0
M  V30 2543 H 248.458 -3.55705 -1.27601 0
M  V30 2544 H 248.771 -7.46141 -2.01231 0
M  V30 2545 H 247.116 -6.70843 -1.81644 0
M  V30 2546 H 250.307 -4.43381 -1.50102 0
M  V30 2547 H 250.48 -6.21416 -1.837 0
M  V30 2548 N 243.887 0.651787 -1.4349 0
M  V30 2549 C 245.136 1.40754 -1.44469 0
M  V30 2550 C 245.449 1.95463 -0.0731845 0
M  V30 2551 O 246.655 2.71471 0.0395721 0
M  V30 2552 C 245.111 2.54735 -2.5424 0
M  V30 2553 C 244.719 2.06628 -3.97504 0
M  V30 2554 C 246.463 3.32092 -2.64414 0
M  V30 2555 C 244.37 3.17829 -4.98737 0
M  V30 2556 H 243.3 0.528862 -0.53742 0
M  V30 2557 H 245.951 0.703365 -1.69485 0
M  V30 2558 H 244.333 3.2763 -2.22428 0
M  V30 2559 H 245.507 1.40734 -4.38783 0
M  V30 2560 H 243.822 1.42146 -3.91387 0
M  V30 2561 H 246.419 4.14952 -3.37223 0
M  V30 2562 H 246.762 3.80217 -1.69532 0
M  V30 2563 H 247.295 2.66279 -2.95534 0
M  V30 2564 H 244.034 2.74671 -5.95177 0
M  V30 2565 H 243.554 3.82429 -4.62069 0
M  V30 2566 H 245.233 3.82937 -5.21505 0
M  V30 2567 N 245.365 1.30045 0.890287 0
M  V30 2568 C 246.613 1.18327 1.63839 0
M  V30 2569 C 246.934 -0.263455 1.93212 0
M  V30 2570 O 246.204 -1.17856 1.56482 0
M  V30 2571 H 244.784 0.434933 0.607324 0
M  V30 2572 H 247.446 1.631 1.06698 0
M  V30 2573 H 246.542 1.74024 2.59079 0
M  V30 2574 N 246.843 -1.10192 1.12674 0
M  V30 2575 C 247.791 -2.18694 0.792196 0
M  V30 2576 C 248.785 -1.67938 -0.222058 0
M  V30 2577 O 249.991 -1.79822 -0.0800074 0
M  V30 2578 H 246.366 -0.713223 0.238364 0
M  V30 2579 H 248.337 -2.44149 1.71564 0
M  V30 2580 C 247.086 -3.46682 0.265859 0
M  V30 2581 H 246.409 -3.86101 1.03761 0
M  V30 2582 H 247.849 -4.23942 0.0701128 0
M  V30 2583 C 246.308 -3.21506 -1.00675 0
M  V30 2584 O 246.838 -3.43408 -2.08408 0
M  V30 2585 N 245.044 -2.75158 -0.934692 0
M  V30 2586 H 244.591 -2.57535 -0.0578604 0
M  V30 2587 H 244.549 -2.58691 -1.7868 0
M  V30 2588 N 248.321 -0.919034 -1.28029 0
M  V30 2589 C 249.251 -0.428581 -2.29533 0
M  V30 2590 C 250.232 0.50659 -1.62381 0
M  V30 2591 O 251.417 0.413195 -1.89753 0
M  V30 2592 C 248.547 0.327388 -3.45753 0
M  V30 2593 C 247.501 -0.519137 -4.2484 0
M  V30 2594 C 246.827 0.365486 -5.33449 0
M  V30 2595 C 248.127 -1.77914 -4.91064 0
M  V30 2596 H 249.821 -1.27687 -2.70807 0
M  V30 2597 H 247.367 -0.615428 -1.30186 0
M  V30 2598 H 249.32 0.681378 -4.15855 0
M  V30 2599 H 248.044 1.20963 -3.03374 0
M  V30 2600 H 246.703 -0.855717 -3.56473 0
M  V30 2601 H 246.351 1.24642 -4.87312 0
M  V30 2602 H 246.051 -0.197356 -5.87268 0
M  V30 2603 H 247.575 0.715241 -6.06396 0
M  V30 2604 H 248.989 -1.49374 -5.53498 0
M  V30 2605 H 247.386 -2.2848 -5.54903 0
M  V30 2606 H 248.456 -2.50382 -4.15255 0
M  V30 2607 N 249.799 1.42003 -0.683588 0
M  V30 2608 C 250.729 2.33487 -0.024866 0
M  V30 2609 C 251.71 1.51163 0.779975 0
M  V30 2610 O 252.895 1.79739 0.735362 0
M  V30 2611 C 250.025 3.3487 0.920836 0
M  V30 2612 C 248.979 4.27414 0.223958 0
M  V30 2613 C 248.305 5.19074 1.2832 0
M  V30 2614 C 249.605 5.14445 -0.90242 0
M  V30 2615 H 251.299 2.88819 -0.788921 0
M  V30 2616 H 248.845 1.38873 -0.38083 0
M  V30 2617 H 250.798 3.97787 1.39081 0
M  V30 2618 H 249.522 2.77861 1.71642 0
M  V30 2619 H 248.181 3.65904 -0.225864 0
M  V30 2620 H 247.829 4.58387 2.071 0
M  V30 2621 H 247.529 5.81822 0.821995 0
M  V30 2622 H 249.053 5.84867 1.75392 0
M  V30 2623 H 250.467 5.70998 -0.513272 0
M  V30 2624 H 248.864 5.86072 -1.28997 0
M  V30 2625 H 249.934 4.52322 -1.74737 0
M  V30 2626 N 251.277 0.427512 1.51691 0
M  V30 2627 C 252.523 -0.142439 2.02299 0
M  V30 2628 C 252.856 -1.43214 1.31162 0
M  V30 2629 O 252.131 -1.89833 0.423511 0
M  V30 2630 C 252.414 -0.371301 3.58181 0
M  V30 2631 C 252.267 0.936358 4.39946 0
M  V30 2632 C 253.586 -1.14542 4.24933 0
M  V30 2633 H 250.705 -0.0502937 0.735282 0
M  V30 2634 H 253.347 0.564584 1.81418 0
M  V30 2635 H 251.497 -0.973559 3.76104 0
M  V30 2636 H 253.169 1.57184 4.33694 0
M  V30 2637 H 251.412 1.5432 4.05423 0
M  V30 2638 H 252.083 0.730388 5.47147 0
M  V30 2639 H 254.559 -0.635362 4.11221 0
M  V30 2640 H 253.435 -1.27431 5.33903 0
M  V30 2641 H 253.696 -2.17093 3.85127 0
M  V30 2642 N 252.755 -1.56801 0.158532 0
M  V30 2643 C 254.166 -1.83189 -0.360366 0
M  V30 2644 C 254.517 -1.07778 -1.63946 0
M  V30 2645 O 253.642 -0.326718 -2.13919 0
M  V30 2646 C 254.237 -3.32297 -0.660595 0
M  V30 2647 C 252.796 -3.59227 -1.12398 0
M  V30 2648 C 251.943 -2.76877 -0.153097 0
M  V30 2649 H 254.894 -1.54008 0.383031 0
M  V30 2650 H 254.915 -3.4908 -1.51405 0
M  V30 2651 H 254.427 -3.87156 0.270527 0
M  V30 2652 H 252.528 -3.09766 -2.07064 0
M  V30 2653 H 252.641 -4.67632 -1.04197 0
M  V30 2654 H 251.005 -2.46319 -0.647983 0
M  V30 2655 H 251.788 -3.34511 0.77182 0
M  V30 2656 N 254.233 0.115231 -1.57178 0
M  V30 2657 C 255.181 1.16014 -2.01602 0
M  V30 2658 C 256.175 1.42653 -0.913587 0
M  V30 2659 O 257.381 1.42571 -1.09879 0
M  V30 2660 H 253.756 0.391252 -0.642204 0
M  V30 2661 H 255.727 0.758998 -2.88586 0
M  V30 2662 C 254.476 2.47767 -2.4394 0
M  V30 2663 H 253.799 2.28108 -3.28339 0
M  V30 2664 H 255.239 3.19432 -2.78818 0
M  V30 2665 C 253.698 3.10617 -1.30455 0
M  V30 2666 O 254.228 3.96846 -0.622585 0
M  V30 2667 N 252.434 2.70553 -1.06064 0
M  V30 2668 H 251.981 2.00527 -1.61699 0
M  V30 2669 H 251.939 3.12934 -0.303284 0
M  V30 2670 N 255.711 1.52812 0.385517 0
M  V30 2671 C 256.621 1.80766 1.49535 0
M  V30 2672 C 257.637 0.694651 1.59532 0
M  V30 2673 O 258.813 0.982611 1.75803 0
M  V30 2674 C 255.878 1.97381 2.85029 0
M  V30 2675 C 254.939 3.21295 2.84724 0
M  V30 2676 C 254.172 3.37108 4.13756 0
M  V30 2677 O 254.395 2.5765 5.08893 0
M  V30 2678 O 253.329 4.30378 4.20783 0
M  V30 2679 H 257.155 2.75015 1.28842 0
M  V30 2680 H 254.74 1.37946 0.573697 0
M  V30 2681 H 256.622 2.09996 3.65349 0
M  V30 2682 H 255.297 1.06322 3.05741 0
M  V30 2683 H 254.204 3.1412 2.03174 0
M  V30 2684 H 255.537 4.12212 2.68965 0
M  V30 2685 N 257.189 -0.644168 1.43834 0
M  V30 2686 C 258.137 -1.77793 1.49974 0
M  V30 2687 C 259.131 -1.65253 0.372536 0
M  V30 2688 O 260.337 -1.7149 0.546924 0
M  V30 2689 H 256.712 -0.58675 0.47035 0
M  V30 2690 H 258.683 -1.69736 2.45423 0
M  V30 2691 C 257.432 -3.16087 1.4486 0
M  V30 2692 H 256.755 -3.26378 2.30905 0
M  V30 2693 H 258.195 -3.95349 1.53217 0
M  V30 2694 C 256.654 -3.36484 0.167463 0
M  V30 2695 O 257.184 -3.94298 -0.767609 0
M  V30 2696 N 255.39 -2.90504 0.0747556 0
M  V30 2697 H 254.937 -2.4364 0.836507 0
M  V30 2698 H 254.895 -3.04527 -0.781714 0
M  V30 2699 N 258.668 -1.30515 -0.883378 0
M  V30 2700 C 259.898 -1.22182 -1.66599 0
M  V30 2701 C 260.306 0.217507 -1.87946 0
M  V30 2702 O 259.649 1.1554 -1.42815 0
M  V30 2703 C 259.711 -1.88146 -3.06335 0
M  V30 2704 C 259.375 -3.37476 -3.08154 0
M  V30 2705 C 260.372 -4.33443 -2.87094 0
M  V30 2706 C 258.057 -3.7895 -3.29701 0
M  V30 2707 C 260.051 -5.68858 -2.8754 0
M  V30 2708 C 257.738 -5.14482 -3.29776 0
M  V30 2709 C 258.736 -6.09246 -3.0872 0
M  V30 2710 O 258.424 -7.42302 -3.08615 0
M  V30 2711 H 258.156 -0.423898 -0.52658 0
M  V30 2712 H 260.71 -1.72703 -1.11188 0
M  V30 2713 H 258.94 -1.32157 -3.63416 0
M  V30 2714 H 260.629 -1.7391 -3.66756 0
M  V30 2715 H 261.395 -4.02733 -2.70243 0
M  V30 2716 H 257.274 -3.05631 -3.45124 0
M  V30 2717 H 260.818 -6.428 -2.71024 0
M  V30 2718 H 256.715 -5.44832 -3.46163 0
M  V30 2719 H 257.483 -7.5131 -3.24769 0
M  V30 2720 N 260.146 1.09593 -1.13257 0
M  V30 2721 C 261.386 1.83349 -0.903472 0
M  V30 2722 C 261.75 1.83641 0.560351 0
M  V30 2723 O 262.951 2.53037 0.906947 0
M  V30 2724 C 261.222 3.25629 -1.47311 0
M  V30 2725 S 262.781 4.16408 -1.38382 0
M  V30 2726 H 259.599 0.632014 -0.325699 0
M  V30 2727 H 262.201 1.31817 -1.44376 0
M  V30 2728 H 260.905 3.22991 -2.53189 0
M  V30 2729 H 260.436 3.82233 -0.930689 0
M  V30 2730 H 262.451 4.94884 -0.361113 0
M  V30 2731 N 261.624 0.925811 1.2754 0
M  V30 2732 C 262.571 0.422045 2.26908 0
M  V30 2733 C 263.541 -0.510029 1.58076 0
M  V30 2734 O 264.726 -0.429599 1.85901 0
M  V30 2735 C 261.866 -0.320837 3.43605 0
M  V30 2736 C 260.979 0.64513 4.27156 0
M  V30 2737 C 260.114 -0.117405 5.3107 0
M  V30 2738 C 259.153 0.841391 6.0629 0
M  V30 2739 N 258.29 0.111604 7.02011 0
M  V30 2740 H 263.13 1.27441 2.69375 0
M  V30 2741 H 260.667 0.639697 1.32462 0
M  V30 2742 H 262.625 -0.76785 4.10073 0
M  V30 2743 H 261.255 -1.13745 3.02096 0
M  V30 2744 H 260.307 1.21067 3.6062 0
M  V30 2745 H 261.619 1.37797 4.79389 0
M  V30 2746 H 260.773 -0.624422 6.03478 0
M  V30 2747 H 259.512 -0.883219 4.79636 0
M  V30 2748 H 258.517 1.35967 5.32722 0
M  V30 2749 H 259.742 1.60696 6.59813 0
M  V30 2750 H 257.688 -0.635999 6.5291 0
M  V30 2751 H 257.605 0.784044 7.51923 0
M  V30 2752 H 258.873 -0.374823 7.78598 0
M  V30 2753 N 263.102 -1.41638 0.69111 0
M  V30 2754 C 264.349 -2.01299 0.220193 0
M  V30 2755 C 264.677 -1.54715 -1.17871 0
M  V30 2756 O 263.932 -0.747193 -1.80874 0
M  V30 2757 C 264.231 -3.56714 0.221277 0
M  V30 2758 C 263.897 -4.22792 1.56709 0
M  V30 2759 C 262.559 -4.40557 1.93554 0
M  V30 2760 C 264.911 -4.59883 2.45268 0
M  V30 2761 C 262.239 -4.92688 3.18552 0
M  V30 2762 C 264.591 -5.13403 3.69595 0
M  V30 2763 C 263.255 -5.29379 4.06589 0
M  V30 2764 H 262.525 -0.736606 0.0805743 0
M  V30 2765 H 265.172 -1.69598 0.889319 0
M  V30 2766 H 263.477 -3.8818 -0.531391 0
M  V30 2767 H 265.174 -4.00678 -0.160547 0
M  V30 2768 H 261.764 -4.09336 1.2705 0
M  V30 2769 H 265.948 -4.45817 2.18084 0
M  V30 2770 H 261.204 -5.03242 3.47214 0
M  V30 2771 H 265.378 -5.41084 4.38407 0
M  V30 2772 H 263.005 -5.69537 5.03519 0
M  V30 2773 N 264.58 -0.43555 -1.51462 0
M  V30 2774 C 265.49 0.383001 -2.31453 0
M  V30 2775 C 266.506 1.02931 -1.4029 0
M  V30 2776 O 267.682 1.02507 -1.73362 0
M  V30 2777 C 264.747 1.47043 -3.13973 0
M  V30 2778 C 263.808 0.844433 -4.20913 0
M  V30 2779 C 263.041 1.88004 -4.9949 0
M  V30 2780 O 263.264 3.10199 -4.78678 0
M  V30 2781 O 262.198 1.47157 -5.83634 0
M  V30 2782 H 266.024 -0.269964 -3.02498 0
M  V30 2783 H 263.609 -0.19813 -1.4808 0
M  V30 2784 H 265.491 2.10113 -3.65281 0
M  V30 2785 H 264.166 2.10751 -2.45695 0
M  V30 2786 H 263.073 0.175729 -3.73687 0
M  V30 2787 H 264.406 0.250869 -4.9156 0
M  V30 2788 N 266.058 1.56714 -0.166846 0
M  V30 2789 C 267.335 1.88412 0.525373 0
M  V30 2790 C 267.715 1.07602 1.81618 0
M  V30 2791 O 267.063 0.168621 2.27877 0
M  V30 2792 C 267.273 3.40363 0.771613 0
M  V30 2793 C 268.621 4.10007 1.1036 0
M  V30 2794 O 269.645 3.45655 0.860304 0
M  V30 2795 O 268.504 5.2369 1.56239 0
M  V30 2796 H 265.598 0.781587 0.270278 0
M  V30 2797 H 268.144 1.68458 -0.204946 0
M  V30 2798 H 266.916 3.91046 -0.141093 0
M  V30 2799 H 266.539 3.65914 1.55541 0
M  V30 2800 N 267.536 -0.106894 1.57237 0
M  V30 2801 C 268.782 -0.808678 1.86633 0
M  V30 2802 C 269.137 -1.76917 0.756178 0
M  V30 2803 O 268.43 -1.90055 -0.242834 0
M  V30 2804 C 268.624 -1.58628 3.20268 0
M  V30 2805 C 268.453 -0.702592 4.44178 0
M  V30 2806 C 267.223 -0.352808 5.04067 0
M  V30 2807 C 269.421 -0.0148031 5.14298 0
M  V30 2808 N 267.403 0.540279 6.11518 0
M  V30 2809 C 268.774 0.736809 6.15606 0
M  V30 2810 C 270.829 0.0603524 4.97863 0
M  V30 2811 C 269.532 1.55654 7.02257 0
M  V30 2812 C 271.558 0.866942 5.85011 0
M  V30 2813 C 270.92 1.60671 6.85831 0
M  V30 2814 H 267.019 -0.27246 0.733001 0
M  V30 2815 H 269.603 -0.0717858 1.94568 0
M  V30 2816 H 267.774 -2.29413 3.13408 0
M  V30 2817 H 269.506 -2.23434 3.3743 0
M  V30 2818 H 266.261 -0.697802 4.68431 0
M  V30 2819 H 266.685 0.979029 6.69884 0
M  V30 2820 H 271.327 -0.497236 4.19866 0
M  V30 2821 H 269.045 2.12524 7.79653 0
M  V30 2822 H 272.631 0.927612 5.74358 0
M  V30 2823 H 271.511 2.2208 7.52097 0
M  V30 2824 N 269.014 -1.53014 -0.377408 0
M  V30 2825 C 269.944 -1.81589 -1.46791 0
M  V30 2826 C 270.925 -0.668622 -1.56408 0
M  V30 2827 O 272.11 -0.917337 -1.71168 0
M  V30 2828 C 269.24 -1.99519 -2.8427 0
M  V30 2829 C 268.194 -3.15249 -2.89486 0
M  V30 2830 C 267.52 -3.18451 -4.29527 0
M  V30 2831 C 268.82 -4.54084 -2.58079 0
M  V30 2832 H 270.514 -2.7291 -1.23127 0
M  V30 2833 H 268.06 -1.31319 -0.590883 0
M  V30 2834 H 270.013 -2.18092 -3.60575 0
M  V30 2835 H 268.737 -1.04897 -3.09296 0
M  V30 2836 H 267.396 -2.96477 -2.15631 0
M  V30 2837 H 267.044 -2.2149 -4.5161 0
M  V30 2838 H 266.744 -3.962 -4.33934 0
M  V30 2839 H 268.268 -3.39193 -5.07721 0
M  V30 2840 H 269.682 -4.72899 -3.24098 0
M  V30 2841 H 268.079 -5.33987 -2.7382 0
M  V30 2842 H 269.149 -4.60006 -1.53372 0
M  V30 2843 N 270.492 0.636531 -1.44174 0
M  V30 2844 C 271.425 1.76139 -1.45087 0
M  V30 2845 C 272.403 1.59611 -0.310326 0
M  V30 2846 O 273.587 1.81568 -0.506477 0
M  V30 2847 C 270.714 3.13648 -1.27839 0
M  V30 2848 C 269.76 3.48838 -2.45386 0
M  V30 2849 S 270.593 3.46927 -4.07924 0
M  V30 2850 C 271.749 4.87064 -3.9309 0
M  V30 2851 H 271.982 1.75096 -2.40268 0
M  V30 2852 H 269.515 0.810666 -1.31406 0
M  V30 2853 H 271.473 3.93002 -1.18575 0
M  V30 2854 H 270.134 3.12235 -0.341787 0
M  V30 2855 H 269.327 4.48886 -2.29167 0
M  V30 2856 H 268.929 2.76935 -2.51362 0
M  V30 2857 H 271.221 5.76153 -3.56446 0
M  V30 2858 H 272.164 5.08337 -4.92949 0
M  V30 2859 H 272.572 4.61384 -3.25246 0
M  V30 2860 N 271.97 1.30982 0.876444 0
M  V30 2861 C 273.381 1.18277 1.44456 0
M  V30 2862 C 273.732 -0.213265 1.95037 0
M  V30 2863 O 272.857 -1.11057 1.85729 0
M  V30 2864 C 273.452 2.1411 2.62569 0
M  V30 2865 C 272.011 2.05358 3.15444 0
M  V30 2866 C 271.158 2.03706 1.88146 0
M  V30 2867 H 274.109 1.43127 0.685584 0
M  V30 2868 H 274.13 1.72692 3.39054 0
M  V30 2869 H 273.642 3.15706 2.25724 0
M  V30 2870 H 271.743 1.06934 3.56926 0
M  V30 2871 H 271.856 2.94156 3.78166 0
M  V30 2872 H 270.22 1.48629 2.06837 0
M  V30 2873 H 271.003 3.07047 1.53547 0
M  V30 2874 N 273.449 -1.08991 1.13837 0
M  V30 2875 C 274.698 -1.80631 0.897509 0
M  V30 2876 C 275.011 -1.86872 -0.57777 0
M  V30 2877 O 276.217 -2.54866 -0.935701 0
M  V30 2878 C 274.673 -3.24517 1.55618 0
M  V30 2879 C 274.281 -3.26529 3.0673 0
M  V30 2880 C 276.025 -4.00882 1.3962 0
M  V30 2881 C 273.932 -4.64965 3.65461 0
M  V30 2882 H 272.862 -0.67691 0.332129 0
M  V30 2883 H 275.513 -1.2246 1.3666 0
M  V30 2884 H 273.895 -3.82778 1.01476 0
M  V30 2885 H 275.069 -2.78008 3.67489 0
M  V30 2886 H 273.384 -2.63656 3.22296 0
M  V30 2887 H 275.981 -5.03167 1.80906 0
M  V30 2888 H 276.324 -4.14896 0.341578 0
M  V30 2889 H 276.857 -3.49075 1.90766 0
M  V30 2890 H 273.596 -4.56153 4.70749 0
M  V30 2891 H 273.116 -5.13792 3.09481 0
M  V30 2892 H 274.795 -5.3394 3.654 0
M  V30 2893 N 274.927 -0.932562 -1.27047 0
M  V30 2894 C 275.857 -0.452902 -2.29066 0
M  V30 2895 C 276.838 0.489338 -1.62909 0
M  V30 2896 O 278.023 0.393046 -1.90181 0
M  V30 2897 C 275.153 0.290698 -3.46081 0
M  V30 2898 C 274.107 -0.564168 -4.24265 0
M  V30 2899 C 273.433 0.308886 -5.33807 0
M  V30 2900 C 274.733 -1.83112 -4.89149 0
M  V30 2901 H 276.427 -1.30552 -2.69437 0
M  V30 2902 H 273.973 -0.629201 -1.29526 0
M  V30 2903 H 275.926 0.637233 -4.16554 0
M  V30 2904 H 274.65 1.17738 -3.0464 0
M  V30 2905 H 273.309 -0.893477 -3.55545 0
M  V30 2906 H 272.957 1.19467 -4.88607 0
M  V30 2907 H 272.657 -0.259633 -5.87026 0
M  V30 2908 H 274.181 0.650884 -6.07121 0
M  V30 2909 H 275.595 -1.55236 -5.51883 0
M  V30 2910 H 273.992 -2.34353 -5.52448 0
M  V30 2911 H 275.062 -2.54772 -4.12576 0
M  V30 2912 N 276.405 1.4127 -0.698611 0
M  V30 2913 C 277.682 1.94955 -0.158762 0
M  V30 2914 C 278.062 1.63781 1.33188 0
M  V30 2915 O 277.41 0.946423 2.07979 0
M  V30 2916 C 277.62 3.46044 -0.453309 0
M  V30 2917 C 278.968 4.22872 -0.382707 0
M  V30 2918 O 279.992 3.54076 -0.388396 0
M  V30 2919 O 278.851 5.45407 -0.345463 0
M  V30 2920 H 275.945 0.82683 -0.0167505 0
M  V30 2921 H 278.491 1.50971 -0.77498 0
M  V30 2922 H 277.263 3.62028 -1.48498 0
M  V30 2923 H 276.886 3.97128 0.19373 0
M  V30 2924 N 277.883 0.443576 1.51229 0
M  V30 2925 C 278.815 -0.400608 2.25672 0
M  V30 2926 C 279.828 -0.980945 1.29928 0
M  V30 2927 O 281.017 -0.874024 1.55638 0
M  V30 2928 C 278.117 -1.57304 3.00181 0
M  V30 2929 C 277.29 -1.11046 4.23069 0
M  V30 2930 C 276.349 -2.15374 4.80105 0
M  V30 2931 O 275.375 -1.74554 5.41774 0
M  V30 2932 N 276.577 -3.47922 4.64683 0
M  V30 2933 H 279.342 0.23745 2.98758 0
M  V30 2934 H 276.903 0.272809 1.59585 0
M  V30 2935 H 278.895 -2.26733 3.35223 0
M  V30 2936 H 277.465 -2.11632 2.30066 0
M  V30 2937 H 276.685 -0.243019 3.9345 0
M  V30 2938 H 277.973 -0.778888 5.02803 0
M  V30 2939 H 277.371 -3.83815 4.15575 0
M  V30 2940 H 275.928 -4.13228 5.0407 0
M  V30 2941 N 279.361 -1.56624 0.175154 0
M  V30 2942 C 280.294 -2.14 -0.792412 0
M  V30 2943 C 281.272 -1.07114 -1.22333 0
M  V30 2944 O 282.456 -1.35112 -1.31442 0
M  V30 2945 C 279.583 -2.68268 -2.0676 0
M  V30 2946 C 278.629 -3.87562 -1.7804 0
M  V30 2947 S 279.462 -5.27074 -0.946222 0
M  V30 2948 C 280.618 -5.8475 -2.23199 0
M  V30 2949 H 280.851 -2.95736 -0.304588 0
M  V30 2950 H 278.384 -1.54349 -0.0395705 0
M  V30 2951 H 280.342 -3.00182 -2.80002 0
M  V30 2952 H 279.003 -1.86612 -2.52656 0
M  V30 2953 H 278.196 -4.23874 -2.72666 0
M  V30 2954 H 277.798 -3.56555 -1.12891 0
M  V30 2955 H 280.09 -5.97898 -3.18629 0
M  V30 2956 H 281.033 -6.81756 -1.91349 0
M  V30 2957 H 281.441 -5.13198 -2.35134 0
M  V30 2958 N 280.839 0.0985539 -1.57292 0
M  V30 2959 C 282.085 0.803867 -1.86188 0
M  V30 2960 C 282.418 1.78549 -0.763794 0
M  V30 2961 O 281.693 1.93153 0.22855 0
M  V30 2962 C 281.976 1.53568 -3.25713 0
M  V30 2963 C 281.829 0.572277 -4.46145 0
M  V30 2964 C 283.148 2.48708 -3.63087 0
M  V30 2965 H 280.267 0.290781 -0.677211 0
M  V30 2966 H 282.909 0.0675783 -1.8988 0
M  V30 2967 H 281.059 2.16332 -3.22696 0
M  V30 2968 H 282.731 -0.0480894 -4.61275 0
M  V30 2969 H 280.974 -0.114618 -4.33649 0
M  V30 2970 H 281.645 1.12139 -5.40489 0
M  V30 2971 H 284.121 1.96039 -3.67026 0
M  V30 2972 H 282.997 2.96932 -4.61652 0
M  V30 2973 H 283.258 3.32309 -2.91588 0
M  V30 2974 N 282.317 1.53212 0.369288 0
M  V30 2975 C 283.25 1.74166 1.4745 0
M  V30 2976 C 284.228 0.589923 1.51521 0
M  V30 2977 O 285.412 0.822078 1.69629 0
M  V30 2978 C 282.539 1.81711 2.8583 0
M  V30 2979 C 281.585 3.03649 2.99499 0
M  V30 2980 S 282.418 4.63242 2.6864 0
M  V30 2981 C 283.574 4.7363 4.09177 0
M  V30 2982 H 283.807 2.67636 1.29454 0
M  V30 2983 H 281.34 1.43754 0.563396 0
M  V30 2984 H 283.298 1.86743 3.65564 0
M  V30 2985 H 281.959 0.89299 3.01139 0
M  V30 2986 H 281.152 3.05526 4.00836 0
M  V30 2987 H 280.754 2.9671 2.27683 0
M  V30 2988 H 283.046 4.53456 5.03372 0
M  V30 2989 H 283.989 5.75682 4.12306 0
M  V30 2990 H 284.397 4.02295 3.96004 0
M  V30 2991 N 283.795 -0.628877 1.44509 0
M  V30 2992 C 284.705 -1.7694 1.54044 0
M  V30 2993 C 285.721 -1.68705 0.425987 0
M  V30 2994 O 286.897 -1.89442 0.683656 0
M  V30 2995 C 283.962 -3.13332 1.48405 0
M  V30 2996 C 283.023 -3.33181 2.70719 0
M  V30 2997 C 282.256 -4.63067 2.6534 0
M  V30 2998 O 282.479 -5.44017 1.71469 0
M  V30 2999 O 281.413 -4.85167 3.56226 0
M  V30 3000 H 285.239 -1.71848 2.50403 0
M  V30 3001 H 282.824 -0.790378 1.26781 0
M  V30 3002 H 284.706 -3.94634 1.47791 0
M  V30 3003 H 283.381 -3.1896 0.551898 0
M  V30 3004 H 282.288 -2.51549 2.769 0
M  V30 3005 H 283.621 -3.32416 3.62988 0
M  V30 3006 N 285.273 -1.31445 -0.869486 0
M  V30 3007 C 286.205 -1.14955 -1.98287 0
M  V30 3008 C 287.218 -0.0885037 -1.62559 0
M  V30 3009 O 288.407 -0.336044 -1.75308 0
M  V30 3010 C 285.507 -0.734255 -3.3085 0
M  V30 3011 C 284.68 -1.88042 -3.94917 0
M  V30 3012 C 283.739 -1.4511 -5.05796 0
M  V30 3013 O 282.765 -2.16082 -5.2659 0
M  V30 3014 N 283.967 -0.338763 -5.79511 0
M  V30 3015 H 286.732 -2.10856 -2.12979 0
M  V30 3016 H 284.293 -1.23786 -1.04349 0
M  V30 3017 H 286.285 -0.42975 -4.02412 0
M  V30 3018 H 284.855 0.133158 -3.12316 0
M  V30 3019 H 284.075 -2.35222 -3.1633 0
M  V30 3020 H 285.363 -2.6481 -4.34457 0
M  V30 3021 H 284.761 0.252274 -5.65137 0
M  V30 3022 H 283.318 -0.0937925 -6.51733 0
M  V30 3023 N 286.751 1.08385 -1.14413 0
M  V30 3024 C 287.699 2.17406 -0.826888 0
M  V30 3025 C 288.693 1.6827 0.195312 0
M  V30 3026 O 289.899 1.79927 0.0513892 0
M  V30 3027 H 286.274 0.70934 -0.249681 0
M  V30 3028 H 288.245 2.41388 -1.75426 0
M  V30 3029 C 286.994 3.46215 -0.320979 0
M  V30 3030 H 286.317 3.84401 -1.0989 0
M  V30 3031 H 287.757 4.23777 -0.137549 0
M  V30 3032 C 286.216 3.23067 0.955472 0
M  V30 3033 O 286.746 3.4668 2.02918 0
M  V30 3034 N 284.952 2.7661 0.890798 0
M  V30 3035 H 284.499 2.57594 0.0168815 0
M  V30 3036 H 284.457 2.61501 1.74542 0
M  V30 3037 N 288.23 0.939286 1.26551 0
M  V30 3038 C 289.458 0.602536 1.97932 0
M  V30 3039 C 289.873 -0.82206 1.69964 0
M  V30 3040 O 289.23 -1.54789 0.966784 0
M  V30 3041 C 289.281 0.832946 3.51773 0
M  V30 3042 O 289.002 2.20151 3.78768 0
M  V30 3043 C 290.503 0.506483 4.40397 0
M  V30 3044 H 287.723 0.227248 0.631347 0
M  V30 3045 H 290.267 1.25948 1.61113 0
M  V30 3046 H 288.422 0.222644 3.8676 0
M  V30 3047 H 288.836 2.26013 4.73306 0
M  V30 3048 H 290.31 0.718333 5.47306 0
M  V30 3049 H 290.787 -0.558451 4.35635 0
M  V30 3050 H 291.393 1.09543 4.10951 0
M  V30 3051 N 289.708 -1.40897 0.706093 0
M  V30 3052 C 290.618 -2.3455 0.0482286 0
M  V30 3053 C 291.634 -1.56796 -0.754396 0
M  V30 3054 O 292.81 -1.89228 -0.689538 0
M  V30 3055 C 289.875 -3.35625 -0.869303 0
M  V30 3056 C 288.936 -4.29261 -0.0576994 0
M  V30 3057 C 288.169 -5.25508 -0.931531 0
M  V30 3058 O 288.392 -5.27472 -2.17092 0
M  V30 3059 O 287.326 -6.00727 -0.375587 0
M  V30 3060 H 291.152 -2.92407 0.820476 0
M  V30 3061 H 288.737 -1.4193 0.4665 0
M  V30 3062 H 290.619 -3.97635 -1.39514 0
M  V30 3063 H 289.294 -2.80196 -1.62086 0
M  V30 3064 H 288.201 -3.70566 0.512988 0
M  V30 3065 H 289.534 -4.87817 0.655426 0
M  V30 3066 N 291.186 -0.45159 -1.50991 0
M  V30 3067 C 292.434 0.109857 -2.01801 0
M  V30 3068 C 292.755 1.41958 -1.3369 0
M  V30 3069 O 292.025 1.9003 -0.475951 0
M  V30 3070 H 290.605 0.0435884 -0.745727 0
M  V30 3071 H 293.267 -0.597557 -1.85514 0
M  V30 3072 H 292.363 0.275489 -3.10882 0
M  V30 3073 N 292.664 1.56529 -0.183458 0
M  V30 3074 C 293.91 1.97537 0.459036 0
M  V30 3075 C 294.243 1.06989 1.62071 0
M  V30 3076 O 293.518 0.11948 1.94133 0
M  V30 3077 C 293.801 3.47874 0.930368 0
M  V30 3078 C 293.654 4.492 -0.232317 0
M  V30 3079 C 294.973 4.01612 1.79989 0
M  V30 3080 H 292.092 0.718204 0.165383 0
M  V30 3081 H 294.734 1.88042 -0.272038 0
M  V30 3082 H 292.884 3.56095 1.55333 0
M  V30 3083 H 294.556 4.53027 -0.86972 0
M  V30 3084 H 292.799 4.24657 -0.885928 0
M  V30 3085 H 293.47 5.51823 0.139796 0
M  V30 3086 H 295.946 3.96097 1.27461 0
M  V30 3087 H 294.822 5.07195 2.09867 0
M  V30 3088 H 295.083 3.46163 2.74998 0
M  V30 3089 N 294.142 -0.090211 1.57342 0
M  V30 3090 C 295.089 -1.10909 2.02405 0
M  V30 3091 C 296.059 -1.39523 0.901252 0
M  V30 3092 O 297.244 -1.50903 1.1676 0
M  V30 3093 C 294.384 -2.42277 2.45755 0
M  V30 3094 C 293.497 -2.20352 3.71576 0
M  V30 3095 C 292.632 -3.45154 4.03785 0
M  V30 3096 C 291.671 -3.18512 5.22701 0
M  V30 3097 N 290.808 -4.35593 5.50639 0
M  V30 3098 H 295.648 -0.71782 2.89225 0
M  V30 3099 H 293.185 -0.342901 1.43048 0
M  V30 3100 H 295.143 -3.18951 2.68935 0
M  V30 3101 H 293.773 -2.79242 1.61938 0
M  V30 3102 H 292.825 -1.34458 3.55844 0
M  V30 3103 H 294.137 -1.96661 4.58395 0
M  V30 3104 H 293.291 -4.30233 4.27767 0
M  V30 3105 H 292.03 -3.71904 3.15498 0
M  V30 3106 H 291.035 -2.31827 4.98534 0
M  V30 3107 H 292.26 -2.93103 6.12591 0
M  V30 3108 H 290.206 -4.6241 4.6531 0
M  V30 3109 H 290.123 -4.1511 6.31838 0
M  V30 3110 H 291.391 -5.21723 5.7916 0
M  V30 3111 N 295.62 -1.53406 -0.361157 0
M  V30 3112 C 296.866 -1.70999 -1.1014 0
M  V30 3113 C 297.221 -0.458425 -1.86859 0
M  V30 3114 O 296.514 0.548654 -1.83577 0
M  V30 3115 C 296.708 -2.90211 -2.08596 0
M  V30 3116 C 296.537 -4.26841 -1.41553 0
M  V30 3117 C 295.307 -4.91621 -1.16778 0
M  V30 3118 C 297.505 -5.07212 -0.850915 0
M  V30 3119 N 295.487 -6.12164 -0.461312 0
M  V30 3120 C 296.858 -6.19394 -0.274046 0
M  V30 3121 C 298.913 -4.92218 -0.750036 0
M  V30 3122 C 297.616 -7.18221 0.393868 0
M  V30 3123 C 299.642 -5.91322 -0.095894 0
M  V30 3124 C 299.004 -7.0283 0.470081 0
M  V30 3125 H 295.103 -0.678939 -0.388028 0
M  V30 3126 H 297.687 -1.90811 -0.38722 0
M  V30 3127 H 295.858 -2.71931 -2.77323 0
M  V30 3128 H 297.59 -2.96606 -2.7533 0
M  V30 3129 H 294.345 -4.50849 -1.45024 0
M  V30 3130 H 294.769 -6.76888 -0.123312 0
M  V30 3131 H 299.411 -4.06192 -1.17337 0
M  V30 3132 H 297.129 -8.03835 0.82914 0
M  V30 3133 H 300.715 -5.81797 -0.0187075 0
M  V30 3134 H 299.595 -7.782 0.968241 0
M  V30 3135 N 297.098 0.621204 -1.44841 0
M  V30 3136 C 298.326 1.40752 -1.51646 0
M  V30 3137 C 298.741 1.88246 -0.144549 0
M  V30 3138 O 298.098 1.61422 0.851416 0
M  V30 3139 C 298.149 2.62119 -2.4895 0
M  V30 3140 O 297.87 2.16602 -3.80808 0
M  V30 3141 C 299.371 3.55135 -2.65319 0
M  V30 3142 H 296.591 0.431325 -0.514004 0
M  V30 3143 H 299.135 0.758835 -1.899 0
M  V30 3144 H 297.29 3.23058 -2.13805 0
M  V30 3145 H 297.704 2.95358 -4.33433 0
M  V30 3146 H 299.178 4.36874 -3.37409 0
M  V30 3147 H 299.655 4.04592 -1.70886 0
M  V30 3148 H 300.261 3.00058 -3.01405 0
M  V30 3149 N 298.576 1.31904 0.862503 0
M  V30 3150 C 299.987 1.19803 1.43193 0
M  V30 3151 C 300.338 -0.192567 1.95253 0
M  V30 3152 O 299.463 -1.09081 1.86896 0
M  V30 3153 C 300.058 2.16883 2.60283 0
M  V30 3154 C 298.617 2.08692 3.13248 0
M  V30 3155 C 297.764 2.05691 1.85975 0
M  V30 3156 H 300.715 1.43846 0.670365 0
M  V30 3157 H 300.736 1.76278 3.37204 0
M  V30 3158 H 300.248 3.18083 2.22363 0
M  V30 3159 H 298.349 1.10713 3.55771 0
M  V30 3160 H 298.462 2.9815 3.75025 0
M  V30 3161 H 296.826 1.50814 2.05249 0
M  V30 3162 H 297.609 3.08659 1.50282 0
M  V30 3163 N 300.054 -1.07777 1.14986 0
M  V30 3164 C 301.279 -1.84558 0.946213 0
M  V30 3165 C 301.704 -1.81323 -0.500362 0
M  V30 3166 O 301.062 -1.20301 -1.35637 0
M  V30 3167 C 301.11 -3.29736 1.45968 0
M  V30 3168 O 300.214 -4.07149 0.65601 0
M  V30 3169 H 299.555 -0.571641 0.33782 0
M  V30 3170 H 302.085 -1.35991 1.52865 0
M  V30 3171 H 302.095 -3.80574 1.47063 0
M  V30 3172 H 300.77 -3.31406 2.51283 0
M  V30 3173 H 299.347 -3.65994 0.714322 0
M  V30 3174 N 301.532 -0.945985 -1.26051 0
M  V30 3175 C 302.479 -0.45809 -2.26208 0
M  V30 3176 C 303.449 0.484816 -1.58867 0
M  V30 3177 O 304.634 0.399969 -1.86561 0
M  V30 3178 C 301.774 0.266131 -3.44072 0
M  V30 3179 C 300.887 -0.713005 -4.26075 0
M  V30 3180 C 300.022 0.0329013 -5.3119 0
M  V30 3181 C 299.061 -0.93774 -6.04874 0
M  V30 3182 N 298.198 -0.223274 -7.01745 0
M  V30 3183 H 303.038 -1.3171 -2.67313 0
M  V30 3184 H 300.575 -0.66069 -1.31428 0
M  V30 3185 H 302.533 0.702514 -4.11243 0
M  V30 3186 H 301.163 1.08925 -3.03867 0
M  V30 3187 H 300.215 -1.26789 -3.58648 0
M  V30 3188 H 301.527 -1.45406 -4.77136 0
M  V30 3189 H 300.681 0.528335 -6.04395 0
M  V30 3190 H 299.42 0.806801 -4.8098 0
M  V30 3191 H 298.425 -1.44425 -5.30492 0
M  V30 3192 H 299.65 -1.71172 -6.57173 0
M  V30 3193 H 297.596 0.532046 -6.53839 0
M  V30 3194 H 297.513 -0.90357 -7.50581 0
M  V30 3195 H 298.781 0.250907 -7.79096 0
M  V30 3196 N 303.011 1.40521 -0.713556 0
M  V30 3197 C 303.944 2.28198 -0.00881422 0
M  V30 3198 C 304.922 1.43227 0.769735 0
M  V30 3199 O 306.106 1.72641 0.756799 0
M  V30 3200 C 303.233 3.23758 0.994899 0
M  V30 3201 C 302.279 4.25391 0.3074 0
M  V30 3202 S 303.112 5.26765 -0.963247 0
M  V30 3203 C 304.268 6.25888 0.0384143 0
M  V30 3204 H 304.501 2.87622 -0.752407 0
M  V30 3205 H 302.034 1.45925 -0.504502 0
M  V30 3206 H 303.992 3.79341 1.56879 0
M  V30 3207 H 302.653 2.63396 1.71118 0
M  V30 3208 H 301.846 4.92596 1.0661 0
M  V30 3209 H 301.448 3.73497 -0.193879 0
M  V30 3210 H 303.74 6.71683 0.885912 0
M  V30 3211 H 304.683 7.05552 -0.60019 0
M  V30 3212 H 305.091 5.63072 0.401233 0
M  V30 3213 N 304.489 0.459591 1.5075 0
M  V30 3214 C 305.738 -0.100971 2.01447 0
M  V30 3215 C 306.051 -1.41816 1.34713 0
M  V30 3216 O 307.257 -2.06299 1.76502 0
M  V30 3217 C 305.713 -0.23047 3.59161 0
M  V30 3218 C 305.321 1.0776 4.34847 0
M  V30 3219 C 307.065 -0.743608 4.17936 0
M  V30 3220 C 304.972 0.91253 5.84317 0
M  V30 3221 H 303.902 -0.0415102 0.752856 0
M  V30 3222 H 306.553 0.592742 1.73663 0
M  V30 3223 H 304.935 -0.987703 3.83485 0
M  V30 3224 H 306.109 1.8449 4.22256 0
M  V30 3225 H 304.424 1.52097 3.87628 0
M  V30 3226 H 307.021 -0.883959 5.27343 0
M  V30 3227 H 307.364 -1.73196 3.78562 0
M  V30 3228 H 307.897 -0.04408 3.97776 0
M  V30 3229 H 304.636 1.87391 6.28144 0
M  V30 3230 H 304.156 0.185422 5.99513 0
M  V30 3231 H 305.835 0.574547 6.44444 0
M  V30 3232 N 305.967 -1.56429 0.191757 0
M  V30 3233 C 306.93 -2.17707 -0.716688 0
M  V30 3234 C 307.93 -1.13061 -1.14341 0
M  V30 3235 O 309.12 -1.38464 -1.05704 0
M  V30 3236 C 306.252 -2.77644 -1.97804 0
M  V30 3237 H 307.445 -2.99342 -0.1829 0
M  V30 3238 H 304.998 -1.56193 -0.0578566 0
M  V30 3239 H 305.733 -1.99799 -2.55443 0
M  V30 3240 H 305.518 -3.54246 -1.68083 0
M  V30 3241 H 307.008 -3.24708 -2.62592 0
M  V30 3242 N 307.445 0.0818655 -1.57387 0
M  V30 3243 C 308.861 0.436412 -1.53517 0
M  V30 3244 C 309.061 1.79758 -0.910459 0
M  V30 3245 O 308.117 2.47324 -0.508636 0
M  V30 3246 C 309.43 0.386734 -2.98203 0
M  V30 3247 C 310.978 0.467644 -3.09487 0
M  V30 3248 C 311.453 0.447978 -4.55804 0
M  V30 3249 N 312.944 0.508348 -4.60402 0
M  V30 3250 C 313.679 0.515184 -5.71081 0
M  V30 3251 N 313.175 0.477435 -6.91153 0
M  V30 3252 N 314.968 0.560988 -5.59294 0
M  V30 3253 H 307.119 -0.809546 -1.96367 0
M  V30 3254 H 309.382 -0.302733 -0.898363 0
M  V30 3255 H 309.088 -0.546539 -3.47427 0
M  V30 3256 H 308.962 1.20075 -3.57578 0
M  V30 3257 H 311.349 1.39134 -2.60242 0
M  V30 3258 H 311.43 -0.374753 -2.5304 0
M  V30 3259 H 311.074 -0.471826 -5.05704 0
M  V30 3260 H 311.004 1.30777 -5.10103 0
M  V30 3261 H 313.495 0.54218 -3.7399 0
M  V30 3262 H 313.808 0.486299 -7.71268 0
M  V30 3263 H 312.153 0.444278 -6.93579 0
M  V30 3264 H 315.344 0.5881 -4.64391 0
M  V30 3265 H 315.517 0.562846 -6.45551 0
M  V30 3266 N 308.923 1.53595 0.353017 0
M  V30 3267 C 309.853 1.83902 1.43883 0
M  V30 3268 C 310.834 0.693421 1.55324 0
M  V30 3269 O 312.019 0.944452 1.69687 0
M  V30 3270 C 309.149 2.04016 2.8106 0
M  V30 3271 C 308.103 3.19814 2.84434 0
M  V30 3272 C 307.429 3.25244 4.24406 0
M  V30 3273 C 308.729 4.58133 2.50822 0
M  V30 3274 H 310.423 2.74835 1.1877 0
M  V30 3275 H 307.969 1.32242 0.569917 0
M  V30 3276 H 309.922 2.238 3.57059 0
M  V30 3277 H 308.646 1.09804 3.07588 0
M  V30 3278 H 307.305 2.9987 2.10887 0
M  V30 3279 H 306.953 2.28646 4.48029 0
M  V30 3280 H 306.653 4.03054 4.27576 0
M  V30 3281 H 308.177 3.47228 5.0226 0
M  V30 3282 H 309.591 4.77995 3.16534 0
M  V30 3283 H 307.988 5.38276 2.6529 0
M  V30 3284 H 309.058 4.62387 1.46034 0
M  V30 3285 N 310.401 -0.613514 1.45168 0
M  V30 3286 C 311.649 -1.36997 1.48581 0
M  V30 3287 C 311.97 -1.94589 0.126545 0
M  V30 3288 O 311.24 -1.76816 -0.843372 0
M  V30 3289 H 309.82 -0.508558 0.547154 0
M  V30 3290 H 312.482 -0.720853 1.81079 0
M  V30 3291 H 311.578 -2.1924 2.22127 0
M  V30 3292 N 311.879 -1.3236 -0.855495 0
M  V30 3293 C 312.826 -1.21225 -1.964 0
M  V30 3294 C 313.796 -0.0946204 -1.6583 0
M  V30 3295 O 314.981 -0.27002 -1.8888 0
M  V30 3296 C 312.121 -0.940419 -3.32039 0
M  V30 3297 C 311.234 -2.14276 -3.75113 0
M  V30 3298 C 310.369 -1.80648 -4.9954 0
M  V30 3299 C 309.408 -2.97208 -5.35102 0
M  V30 3300 N 308.545 -2.63678 -6.50706 0
M  V30 3301 H 313.385 -2.16042 -2.05255 0
M  V30 3302 H 310.922 -1.07451 -1.00463 0
M  V30 3303 H 312.88 -0.763311 -4.10158 0
M  V30 3304 H 311.51 -0.0290413 -3.22787 0
M  V30 3305 H 310.562 -2.43017 -2.92655 0
M  V30 3306 H 311.874 -3.01468 -3.97389 0
M  V30 3307 H 311.028 -1.59484 -5.85363 0
M  V30 3308 H 309.767 -0.906678 -4.79198 0
M  V30 3309 H 308.772 -3.19004 -4.47791 0
M  V30 3310 H 309.997 -3.87918 -5.57401 0
M  V30 3311 H 307.943 -1.76238 -6.31883 0
M  V30 3312 H 307.86 -3.444 -6.72997 0
M  V30 3313 H 309.128 -2.45942 -7.39684 0
M  V30 3314 N 313.357 1.07166 -1.15556 0
M  V30 3315 C 314.267 2.17947 -0.868116 0
M  V30 3316 C 315.283 1.73297 0.156297 0
M  V30 3317 O 316.459 2.01392 -0.0182327 0
M  V30 3318 C 313.524 3.44789 -0.36355 0
M  V30 3319 C 312.585 4.03996 -1.45209 0
M  V30 3320 C 311.818 5.24783 -0.971508 0
M  V30 3321 O 312.041 5.70109 0.182194 0
M  V30 3322 O 310.975 5.75715 -1.75603 0
M  V30 3323 H 314.801 2.4503 -1.79427 0
M  V30 3324 H 312.386 1.16539 -0.934824 0
M  V30 3325 H 314.268 4.21307 -0.0887113 0
M  V30 3326 H 312.943 3.19253 0.534708 0
M  V30 3327 H 311.85 3.29009 -1.78056 0
M  V30 3328 H 313.183 4.33808 -2.32533 0
M  V30 3329 N 314.835 0.952656 1.25548 0
M  V30 3330 C 316.084 0.602053 1.92505 0
M  V30 3331 C 316.397 -0.864663 1.75451 0
M  V30 3332 O 317.603 -1.32514 2.36965 0
M  V30 3333 C 316.059 1.02607 3.44963 0
M  V30 3334 C 315.667 2.51519 3.70732 0
M  V30 3335 C 317.411 0.747905 4.1786 0
M  V30 3336 C 315.318 2.87732 5.16686 0
M  V30 3337 H 314.248 0.22146 0.720744 0
M  V30 3338 H 316.899 1.15684 1.42441 0
M  V30 3339 H 315.281 0.399712 3.93978 0
M  V30 3340 H 316.455 3.19157 3.32378 0
M  V30 3341 H 314.77 2.76786 3.11092 0
M  V30 3342 H 317.367 0.994647 5.25367 0
M  V30 3343 H 317.71 -0.315629 4.15102 0
M  V30 3344 H 318.243 1.33452 3.74747 0
M  V30 3345 H 314.982 3.93095 5.24554 0
M  V30 3346 H 314.502 2.24765 5.56094 0
M  V30 3347 H 316.181 2.76817 5.84792 0
M  V30 3348 N 316.313 -1.40141 0.720998 0
M  V30 3349 C 317.261 -2.3252 0.0608547 0
M  V30 3350 C 318.255 -1.52326 -0.741152 0
M  V30 3351 O 319.461 -1.68089 -0.643911 0
M  V30 3352 H 315.836 -0.751999 0.000876664 0
M  V30 3353 H 317.807 -2.8584 0.856614 0
M  V30 3354 C 316.556 -3.37331 -0.842809 0
M  V30 3355 H 315.879 -3.99108 -0.235084 0
M  V30 3356 H 317.319 -4.04452 -1.27257 0
M  V30 3357 C 315.778 -2.73246 -1.97074 0
M  V30 3358 O 316.308 -2.59998 -3.06209 0
M  V30 3359 N 314.514 -2.31547 -1.75597 0
M  V30 3360 H 314.061 -2.42522 -0.868368 0
M  V30 3361 H 314.019 -1.89007 -2.51244 0
M  V30 3362 N 317.792 -0.46758 -1.50504 0
M  V30 3363 C 318.74 0.342482 -2.30065 0
M  V30 3364 C 319.734 0.993596 -1.37201 0
M  V30 3365 O 320.94 0.925102 -1.54408 0
M  V30 3366 H 317.315 0.129283 -0.740803 0
M  V30 3367 H 319.286 -0.34899 -2.96352 0
M  V30 3368 C 318.035 1.4139 -3.17654 0
M  V30 3369 H 317.358 0.922264 -3.89017 0
M  V30 3370 H 318.798 1.95335 -3.76325 0
M  V30 3371 C 317.257 2.4139 -2.35016 0
M  V30 3372 O 317.787 3.46586 -2.03079 0
M  V30 3373 N 315.993 2.13021 -1.97662 0
M  V30 3374 H 315.54 1.27499 -2.23834 0
M  V30 3375 H 315.498 2.80164 -1.42673 0
M  V30 3376 N 319.27 1.56325 -0.20005 0
M  V30 3377 C 320.681 1.8408 0.31167 0
M  V30 3378 C 321.032 1.12087 1.61031 0
M  V30 3379 O 320.157 0.38332 2.12978 0
M  V30 3380 C 320.752 3.33932 0.57226 0
M  V30 3381 C 319.311 3.6208 1.02834 0
M  V30 3382 C 318.458 2.77186 0.079634 0
M  V30 3383 H 321.409 1.52939 -0.423729 0
M  V30 3384 H 321.43 3.52971 1.42096 0
M  V30 3385 H 320.942 3.86303 -0.37308 0
M  V30 3386 H 319.043 3.15147 1.98778 0
M  V30 3387 H 319.156 4.7023 0.917624 0
M  V30 3388 H 317.52 2.47951 0.582448 0
M  V30 3389 H 318.303 3.32347 -0.860238 0
M  V30 3390 N 320.748 -0.0735177 1.57428 0
M  V30 3391 C 321.658 -1.10547 2.06922 0
M  V30 3392 C 322.674 -1.42506 0.998402 0
M  V30 3393 O 323.85 -1.52717 1.31299 0
M  V30 3394 C 320.915 -2.40019 2.50184 0
M  V30 3395 C 319.976 -2.15046 3.71556 0
M  V30 3396 C 319.209 -3.38345 4.12745 0
M  V30 3397 O 319.432 -4.47399 3.53822 0
M  V30 3398 O 318.366 -3.2666 5.05546 0
M  V30 3399 H 322.192 -0.715013 2.95163 0
M  V30 3400 H 319.777 -0.287531 1.46607 0
M  V30 3401 H 321.659 -3.16218 2.78539 0
M  V30 3402 H 320.334 -2.78447 1.65072 0
M  V30 3403 H 319.241 -1.36558 3.48285 0
M  V30 3404 H 320.574 -1.81499 4.57514 0
M  V30 3405 N 322.226 -1.5378 -0.344866 0
M  V30 3406 C 323.451 -1.75211 -1.10977 0
M  V30 3407 C 323.876 -0.48936 -1.81623 0
M  V30 3408 O 323.234 0.557925 -1.72502 0
M  V30 3409 C 323.282 -2.93147 -2.09993 0
M  V30 3410 O 322.386 -2.63203 -3.17487 0
M  V30 3411 H 321.727 -0.581241 -0.321021 0
M  V30 3412 H 324.257 -2.00738 -0.395661 0
M  V30 3413 H 324.267 -3.19898 -2.53237 0
M  V30 3414 H 322.942 -3.84731 -1.5797 0
M  V30 3415 H 321.519 -2.47336 -2.79069 0
M  V30 3416 N 323.704 0.605807 -1.45491 0
M  V30 3417 C 324.95 1.36679 -1.49823 0
M  V30 3418 C 325.283 1.93693 -0.140175 0
M  V30 3419 O 324.558 1.75158 0.845581 0
M  V30 3420 C 324.841 2.51337 -2.57879 0
M  V30 3421 C 324.694 1.99508 -4.03134 0
M  V30 3422 C 326.013 3.53463 -2.62205 0
M  V30 3423 H 323.132 0.495617 -0.545466 0
M  V30 3424 H 325.774 0.682732 -1.7731 0
M  V30 3425 H 323.924 3.09691 -2.34571 0
M  V30 3426 H 325.596 1.45789 -4.37656 0
M  V30 3427 H 323.839 1.30496 -4.13707 0
M  V30 3428 H 324.51 2.82169 -4.74431 0
M  V30 3429 H 326.986 3.04953 -2.83095 0
M  V30 3430 H 325.862 4.31178 -3.39672 0
M  V30 3431 H 326.123 4.09197 -1.67363 0
M  V30 3432 N 325.182 1.32811 0.848464 0
M  V30 3433 C 326.412 1.26556 1.63301 0
M  V30 3434 C 326.82 -0.1676 1.88456 0
M  V30 3435 O 326.163 -1.11713 1.45828 0
M  V30 3436 C 326.225 1.96202 3.01239 0
M  V30 3437 C 325.889 3.45528 2.99098 0
M  V30 3438 C 326.886 4.40903 2.75501 0
M  V30 3439 C 324.571 3.87558 3.19537 0
M  V30 3440 C 326.565 5.76282 2.72356 0
M  V30 3441 C 324.252 5.23044 3.16019 0
M  V30 3442 C 325.25 6.17217 2.92458 0
M  V30 3443 O 324.938 7.50223 2.88825 0
M  V30 3444 H 324.67 0.43771 0.515156 0
M  V30 3445 H 327.224 1.7559 1.0657 0
M  V30 3446 H 325.454 1.41746 3.59785 0
M  V30 3447 H 327.143 1.83573 3.62016 0
M  V30 3448 H 327.909 4.09756 2.5947 0
M  V30 3449 H 323.788 3.14674 3.369 0
M  V30 3450 H 327.332 6.4976 2.53886 0
M  V30 3451 H 323.229 5.53818 3.31596 0
M  V30 3452 H 323.997 7.59657 3.04735 0
M  V30 3453 N 326.66 -1.06551 1.16123 0
M  V30 3454 C 327.89 -1.8274 0.963838 0
M  V30 3455 C 328.298 -1.82712 -0.491228 0
M  V30 3456 O 327.641 -1.24294 -1.35265 0
M  V30 3457 C 327.703 -3.3065 1.41106 0
M  V30 3458 C 327.367 -3.54384 2.88549 0
M  V30 3459 C 328.364 -3.4765 3.86569 0
M  V30 3460 C 326.049 -3.81789 3.26408 0
M  V30 3461 C 328.043 -3.67982 5.2045 0
M  V30 3462 C 325.73 -4.01772 4.60459 0
M  V30 3463 C 326.728 -3.94866 5.57288 0
M  V30 3464 O 326.416 -4.14306 6.88916 0
M  V30 3465 H 326.148 -0.583136 0.341948 0
M  V30 3466 H 328.702 -1.35351 1.54497 0
M  V30 3467 H 326.932 -3.78887 0.773394 0
M  V30 3468 H 328.621 -3.88324 1.1815 0
M  V30 3469 H 329.387 -3.2647 3.58667 0
M  V30 3470 H 325.266 -3.86276 2.51619 0
M  V30 3471 H 328.81 -3.62507 5.96015 0
M  V30 3472 H 324.707 -4.2244 4.88072 0
M  V30 3473 H 325.475 -4.31609 6.95454 0
M  V30 3474 N 328.138 -0.959301 -1.25041 0
M  V30 3475 C 329.384 -0.627096 -1.93492 0
M  V30 3476 C 329.739 0.827484 -1.73696 0
M  V30 3477 O 329.032 1.58651 -1.07427 0
M  V30 3478 C 329.226 -0.927136 -3.45165 0
M  V30 3479 C 329.055 -2.40933 -3.79712 0
M  V30 3480 C 327.825 -3.0677 -4.01522 0
M  V30 3481 C 330.023 -3.38894 -3.86853 0
M  V30 3482 N 328.005 -4.44815 -4.231 0
M  V30 3483 C 329.376 -4.62263 -4.13174 0
M  V30 3484 C 331.431 -3.33668 -3.69554 0
M  V30 3485 C 330.134 -5.81052 -4.23995 0
M  V30 3486 C 332.16 -4.518 -3.81616 0
M  V30 3487 C 331.522 -5.73957 -4.08354 0
M  V30 3488 H 327.621 -0.280166 -0.73009 0
M  V30 3489 H 330.205 -1.23244 -1.50729 0
M  V30 3490 H 328.376 -0.350685 -3.86814 0
M  V30 3491 H 330.108 -0.554361 -4.00885 0
M  V30 3492 H 326.863 -2.57327 -3.97593 0
M  V30 3493 H 327.287 -5.16319 -4.37885 0
M  V30 3494 H 331.929 -2.40268 -3.47895 0
M  V30 3495 H 329.647 -6.74888 -4.44468 0
M  V30 3496 H 333.233 -4.49309 -3.69612 0
M  V30 3497 H 332.113 -6.6384 -4.17475 0
M  V30 3498 N 329.616 1.39756 -0.72842 0
M  V30 3499 C 330.579 2.29012 -0.0927297 0
M  V30 3500 C 331.579 1.45992 0.674025 0
M  V30 3501 O 332.769 1.66749 0.50402 0
M  V30 3502 C 329.901 3.29396 0.878137 0
M  V30 3503 H 331.094 2.86729 -0.879011 0
M  V30 3504 H 328.647 1.48293 -0.493847 0
M  V30 3505 H 329.382 2.76722 1.69101 0
M  V30 3506 H 329.167 3.907 0.331051 0
M  V30 3507 H 330.657 3.96199 1.3197 0
M  V30 3508 N 331.094 0.475555 1.50254 0
M  V30 3509 C 332.026 -0.352649 2.26471 0
M  V30 3510 C 333.039 -0.953165 1.3198 0
M  V30 3511 O 334.228 -0.840815 1.57457 0
M  V30 3512 C 331.328 -1.50902 3.0345 0
M  V30 3513 C 330.501 -1.02047 4.25329 0
M  V30 3514 C 329.56 -2.05142 4.84565 0
M  V30 3515 O 328.586 -1.63023 5.45355 0
M  V30 3516 N 329.788 -3.37987 4.71959 0
M  V30 3517 H 332.553 0.300767 2.98187 0
M  V30 3518 H 330.114 0.306598 1.5897 0
M  V30 3519 H 332.106 -2.19572 3.39956 0
M  V30 3520 H 330.676 -2.06705 2.34504 0
M  V30 3521 H 329.896 -0.159507 3.93877 0
M  V30 3522 H 331.184 -0.672061 5.04342 0
M  V30 3523 H 330.582 -3.74913 4.23623 0
M  V30 3524 H 329.139 -4.02443 5.12721 0
M  V30 3525 N 332.573 -1.56217 0.208337 0
M  V30 3526 C 333.52 -2.19699 -0.707192 0
M  V30 3527 C 334.49 -1.14836 -1.20008 0
M  V30 3528 O 335.675 -1.4314 -1.26157 0
M  V30 3529 C 332.815 -2.87061 -1.91546 0
M  V30 3530 C 331.928 -4.06483 -1.46271 0
M  V30 3531 C 331.063 -4.61665 -2.62752 0
M  V30 3532 C 330.102 -5.73417 -2.14147 0
M  V30 3533 N 329.239 -6.22948 -3.23853 0
M  V30 3534 H 334.079 -2.97575 -0.159111 0
M  V30 3535 H 331.616 -1.46948 -0.0667874 0
M  V30 3536 H 333.574 -3.24294 -2.62468 0
M  V30 3537 H 332.204 -2.11725 -2.43664 0
M  V30 3538 H 331.256 -3.74825 -0.648886 0
M  V30 3539 H 332.568 -4.87271 -1.06622 0
M  V30 3540 H 331.722 -5.01272 -3.41776 0
M  V30 3541 H 330.461 -3.80013 -3.05682 0
M  V30 3542 H 329.466 -5.33326 -1.33581 0
M  V30 3543 H 330.691 -6.56897 -1.72232 0
M  V30 3544 H 328.637 -5.44213 -3.6629 0
M  V30 3545 H 328.554 -6.98823 -2.88414 0
M  V30 3546 H 329.822 -6.6721 -4.03052 0
M  V30 3547 N 334.051 0.0651679 -1.57465 0
M  V30 3548 C 334.999 1.09542 -2.05191 0
M  V30 3549 C 335.993 1.39675 -0.958509 0
M  V30 3550 O 337.199 1.39003 -1.14359 0
M  V30 3551 H 333.574 0.370623 -0.654326 0
M  V30 3552 H 335.545 0.666802 -2.90854 0
M  V30 3553 C 334.294 2.39881 -2.51699 0
M  V30 3554 H 333.617 2.17547 -3.3543 0
M  V30 3555 H 335.057 3.104 -2.88839 0
M  V30 3556 C 333.516 3.0631 -1.40271 0
M  V30 3557 O 334.046 3.94664 -0.748523 0
M  V30 3558 N 332.252 2.67041 -1.14618 0
M  V30 3559 H 331.799 1.95281 -1.67997 0
M  V30 3560 H 331.757 3.1181 -0.402688 0
M  V30 3561 N 335.529 1.53961 0.336706 0
M  V30 3562 C 336.479 1.7881 1.41461 0
M  V30 3563 C 337.463 0.643561 1.47469 0
M  V30 3564 O 338.655 0.903166 1.52223 0
M  V30 3565 C 335.784 2.00722 2.78506 0
M  V30 3566 C 334.87 3.2126 2.76862 0
M  V30 3567 N 335.261 4.42588 2.44845 0
M  V30 3568 C 333.559 3.22568 3.08004 0
M  V30 3569 C 334.26 5.2447 2.51607 0
M  V30 3570 N 333.236 4.61344 2.87511 0
M  V30 3571 H 337.038 2.70205 1.15615 0
M  V30 3572 H 334.552 1.52978 0.545112 0
M  V30 3573 H 336.549 2.1666 3.5618 0
M  V30 3574 H 335.209 1.10573 3.05293 0
M  V30 3575 H 336.22 4.69819 2.17922 0
M  V30 3576 H 332.897 2.42409 3.39918 0
M  V30 3577 H 334.287 6.31324 2.29955 0
M  V30 3578 N 337.007 -0.598083 1.45811 0
M  V30 3579 C 338.256 -1.35295 1.49594 0
M  V30 3580 C 338.569 -1.95057 0.145679 0
M  V30 3581 O 339.775 -2.71431 0.0612099 0
M  V30 3582 C 338.231 -2.45124 2.63519 0
M  V30 3583 C 337.839 -1.91732 4.04899 0
M  V30 3584 C 339.583 -3.2205 2.76558 0
M  V30 3585 C 337.49 -2.991 5.1019 0
M  V30 3586 H 336.42 -0.508552 0.556679 0
M  V30 3587 H 339.071 -0.639977 1.71978 0
M  V30 3588 H 337.453 -3.19149 2.34435 0
M  V30 3589 H 338.627 -1.24352 4.43704 0
M  V30 3590 H 336.942 -1.27522 3.96393 0
M  V30 3591 H 339.539 -4.0215 3.52391 0
M  V30 3592 H 339.882 -3.73663 1.83526 0
M  V30 3593 H 340.415 -2.55127 3.05213 0
M  V30 3594 H 337.154 -2.52393 6.04961 0
M  V30 3595 H 336.674 -3.65017 4.75944 0
M  V30 3596 H 338.353 -3.63318 5.35359 0
M  V30 3597 N 338.485 -1.33259 -0.841409 0
M  V30 3598 C 339.896 -1.22066 -1.41269 0
M  V30 3599 C 340.247 0.161479 -1.95534 0
M  V30 3600 O 339.372 1.06094 -1.88608 0
M  V30 3601 C 339.967 -2.20996 -2.568 0
M  V30 3602 C 338.526 -2.13649 -3.09888 0
M  V30 3603 C 337.673 -2.08623 -1.82679 0
M  V30 3604 H 340.624 -1.44895 -0.647395 0
M  V30 3605 H 340.645 -1.81621 -3.34356 0
M  V30 3606 H 340.157 -3.2158 -2.17274 0
M  V30 3607 H 338.258 -1.16359 -3.53965 0
M  V30 3608 H 338.371 -3.04079 -3.70234 0
M  V30 3609 H 336.735 -1.54061 -2.02824 0
M  V30 3610 H 337.518 -3.1101 -1.45353 0
M  V30 3611 N 339.963 1.05934 -1.16686 0
M  V30 3612 C 341.209 1.79065 -0.95203 0
M  V30 3613 C 341.542 1.87147 0.518629 0
M  V30 3614 O 340.817 1.36574 1.38484 0
M  V30 3615 C 341.1 3.23359 -1.58464 0
M  V30 3616 C 340.953 3.23336 -3.12689 0
M  V30 3617 C 342.272 4.21004 -1.28232 0
M  V30 3618 H 339.391 0.65005 -0.34728 0
M  V30 3619 H 342.033 1.23868 -1.44072 0
M  V30 3620 H 340.183 3.70493 -1.16908 0
M  V30 3621 H 341.855 2.84336 -3.6325 0
M  V30 3622 H 340.098 2.61886 -3.4583 0
M  V30 3623 H 340.769 4.25144 -3.52075 0
M  V30 3624 H 343.245 3.8233 -1.64203 0
M  V30 3625 H 342.121 5.20225 -1.75092 0
M  V30 3626 H 342.382 4.41639 -0.201791 0
M  V30 3627 N 341.441 0.965919 1.2453 0
M  V30 3628 C 342.688 0.626831 1.92554 0
M  V30 3629 C 343.016 -0.837739 1.75534 0
M  V30 3630 O 342.271 -1.61793 1.10098 0
M  V30 3631 C 342.57 0.945428 3.44669 0
M  V30 3632 C 342.236 2.39785 3.81856 0
M  V30 3633 C 340.898 2.79483 3.91718 0
M  V30 3634 C 343.25 3.34055 4.00071 0
M  V30 3635 C 340.578 4.12496 4.1721 0
M  V30 3636 C 342.93 4.66694 4.27059 0
M  V30 3637 C 341.594 5.06172 4.3514 0
M  V30 3638 H 340.864 0.229374 0.704605 0
M  V30 3639 H 343.511 1.21707 1.4785 0
M  V30 3640 H 341.816 0.272926 3.90848 0
M  V30 3641 H 343.513 0.661484 3.95507 0
M  V30 3642 H 340.103 2.08003 3.74743 0
M  V30 3643 H 344.287 3.04571 3.91855 0
M  V30 3644 H 339.543 4.42709 4.21685 0
M  V30 3645 H 343.717 5.3971 4.40097 0
M  V30 3646 H 341.344 6.09262 4.54646 0
M  V30 3647 N 342.919 -1.39368 0.735821 0
M  V30 3648 C 344.144 -2.05319 0.293052 0
M  V30 3649 C 344.569 -1.55115 -1.064 0
M  V30 3650 O 343.927 -0.695261 -1.67439 0
M  V30 3651 C 343.975 -3.59305 0.305323 0
M  V30 3652 O 343.079 -4.06299 -0.706761 0
M  V30 3653 H 342.42 -0.650529 0.13307 0
M  V30 3654 H 344.95 -1.78386 1.00197 0
M  V30 3655 H 344.96 -4.07724 0.149997 0
M  V30 3656 H 343.635 -3.95207 1.29553 0
M  V30 3657 H 342.212 -3.69292 -0.517504 0
M  V30 3658 N 344.397 -0.483516 -1.5 0
M  V30 3659 C 345.808 -0.0314176 -1.86674 0
M  V30 3660 C 346.159 1.37728 -1.39733 0
M  V30 3661 O 345.284 2.02327 -0.767635 0
M  V30 3662 C 345.879 -0.0502376 -3.38763 0
M  V30 3663 C 344.438 0.346442 -3.74802 0
M  V30 3664 C 343.585 -0.430366 -2.7394 0
M  V30 3665 H 346.536 -0.697182 -1.42566 0
M  V30 3666 H 346.557 0.749116 -3.73053 0
M  V30 3667 H 346.069 -1.07563 -3.72897 0
M  V30 3668 H 344.17 1.37572 -3.46273 0
M  V30 3669 H 344.283 0.0391486 -4.79084 0
M  V30 3670 H 342.647 0.117557 -2.54429 0
M  V30 3671 H 343.43 -1.4555 -3.10918 0
M  V30 3672 N 345.875 1.56104 -0.216619 0
M  V30 3673 C 346.838 2.18819 0.681962 0
M  V30 3674 C 347.838 1.14866 1.12528 0
M  V30 3675 O 349.028 1.40128 1.03488 0
M  V30 3676 C 346.16 2.80756 1.93362 0
M  V30 3677 H 347.353 2.99595 0.135254 0
M  V30 3678 H 344.906 1.56265 0.0330003 0
M  V30 3679 H 345.641 2.03837 2.52232 0
M  V30 3680 H 345.426 3.56876 1.62426 0
M  V30 3681 H 346.916 3.28844 2.57393 0
M  V30 3682 N 347.353 -0.0568162 1.57498 0
M  V30 3683 C 348.283 -1.06593 2.0775 0
M  V30 3684 C 349.264 -1.39448 0.974082 0
M  V30 3685 O 350.449 -1.48815 1.24771 0
M  V30 3686 C 347.579 -2.37509 2.5339 0
M  V30 3687 C 346.533 -2.1897 3.67745 0
M  V30 3688 C 345.859 -3.55402 3.99492 0
M  V30 3689 C 347.159 -1.59859 4.97235 0
M  V30 3690 H 348.853 -0.647706 2.9231 0
M  V30 3691 H 346.399 -0.310116 1.40621 0
M  V30 3692 H 348.352 -3.08409 2.87162 0
M  V30 3693 H 347.076 -2.8134 1.65878 0
M  V30 3694 H 345.735 -1.50508 3.3428 0
M  V30 3695 H 345.383 -3.9683 3.09088 0
M  V30 3696 H 345.083 -3.43831 4.76502 0
M  V30 3697 H 346.607 -4.27708 4.35773 0
M  V30 3698 H 348.021 -2.20642 5.29141 0
M  V30 3699 H 346.418 -1.58942 5.78669 0
M  V30 3700 H 347.488 -0.561506 4.81638 0
M  V30 3701 N 348.832 -1.54138 -0.328536 0
M  V30 3702 C 350.06 -1.76062 -1.08673 0
M  V30 3703 C 350.475 -0.506852 -1.81869 0
M  V30 3704 O 349.832 0.522223 -1.74869 0
M  V30 3705 C 349.883 -2.95054 -2.08866 0
M  V30 3706 O 349.604 -4.15583 -1.38644 0
M  V30 3707 C 351.105 -3.2915 -2.96943 0
M  V30 3708 H 348.325 -0.587889 -0.323461 0
M  V30 3709 H 350.869 -2.0101 -0.376175 0
M  V30 3710 H 349.024 -2.72394 -2.75464 0
M  V30 3711 H 349.438 -4.82481 -2.05699 0
M  V30 3712 H 350.912 -4.15723 -3.63151 0
M  V30 3713 H 351.389 -2.461 -3.63774 0
M  V30 3714 H 351.995 -3.53871 -2.35914 0
M  V30 3715 N 350.31 0.590341 -1.46126 0
M  V30 3716 C 351.587 1.35029 -1.41515 0
M  V30 3717 C 351.967 2.10888 -0.0946472 0
M  V30 3718 O 351.315 2.08998 0.923693 0
M  V30 3719 C 351.525 2.28269 -2.63997 0
M  V30 3720 C 352.873 2.90338 -3.09821 0
M  V30 3721 O 353.897 2.38585 -2.64492 0
M  V30 3722 O 352.756 3.84321 -3.88535 0
M  V30 3723 H 349.85 0.606317 -0.562413 0
M  V30 3724 H 352.396 0.611994 -1.58281 0
M  V30 3725 H 351.168 1.71591 -3.51671 0
M  V30 3726 H 350.791 3.0945 -2.49652 0
M  V30 3727 N 351.788 1.33704 0.83433 0
M  V30 3728 C 353.036 1.25169 1.58673 0
M  V30 3729 C 353.357 -0.18127 1.94156 0
M  V30 3730 O 352.627 -1.11113 1.6134 0
M  V30 3731 H 351.207 0.4603 0.58833 0
M  V30 3732 H 353.869 1.67478 0.996847 0
M  V30 3733 H 352.965 1.84856 2.51465 0
M  V30 3734 N 353.266 -1.05314 1.17247 0
M  V30 3735 C 354.491 -1.82509 0.985148 0
M  V30 3736 C 354.916 -1.82343 -0.461788 0
M  V30 3737 O 354.274 -1.23151 -1.33055 0
M  V30 3738 C 354.322 -3.26566 1.52929 0
M  V30 3739 O 353.426 -4.05666 0.742225 0
M  V30 3740 H 352.767 -0.564347 0.349869 0
M  V30 3741 H 355.297 -1.32718 1.55715 0
M  V30 3742 H 355.307 -3.77369 1.55103 0
M  V30 3743 H 353.982 -3.26001 2.58256 0
M  V30 3744 H 352.559 -3.64397 0.791794 0
M  V30 3745 N 354.744 -0.972509 -1.24016 0
M  V30 3746 C 355.674 -0.525548 -2.27509 0
M  V30 3747 C 356.655 0.437262 -1.64384 0
M  V30 3748 O 357.84 0.332343 -1.91335 0
M  V30 3749 C 354.97 0.180448 -3.46831 0
M  V30 3750 C 353.924 -0.698859 -4.22256 0
M  V30 3751 C 353.25 0.138903 -5.3452 0
M  V30 3752 C 354.55 -1.98582 -4.83076 0
M  V30 3753 H 356.244 -1.39058 -2.65148 0
M  V30 3754 H 353.79 -0.67009 -1.27459 0
M  V30 3755 H 355.743 0.504387 -4.18371 0
M  V30 3756 H 354.467 1.07987 -3.08231 0
M  V30 3757 H 353.126 -1.00614 -3.52523 0
M  V30 3758 H 352.774 1.03862 -4.9216 0
M  V30 3759 H 352.474 -0.446259 -5.85903 0
M  V30 3760 H 353.998 0.457404 -6.08884 0
M  V30 3761 H 355.412 -1.72715 -5.46665 0
M  V30 3762 H 353.809 -2.5181 -5.44713 0
M  V30 3763 H 354.879 -2.67769 -4.04262 0
M  V30 3764 N 356.222 1.38976 -0.743202 0
M  V30 3765 C 357.47 1.99948 -0.29417 0
M  V30 3766 C 357.791 1.59279 1.12495 0
M  V30 3767 O 357.061 0.844808 1.76748 0
M  V30 3768 H 355.641 0.739473 -0.105774 0
M  V30 3769 H 358.303 1.699 -0.954986 0
M  V30 3770 H 357.399 3.10142 -0.349056 0
M  V30 3771 N 357.7 0.491464 1.49741 0
M  V30 3772 C 358.977 -0.118984 1.95238 0
M  V30 3773 C 359.357 -1.55044 1.43264 0
M  V30 3774 O 358.705 -2.19287 0.642287 0
M  V30 3775 C 358.915 -0.0414187 3.48975 0
M  V30 3776 C 360.263 -0.220133 4.24029 0
M  V30 3777 O 361.287 -0.117055 3.56008 0
M  V30 3778 O 360.146 -0.430567 5.44801 0
M  V30 3779 H 357.24 -0.100536 0.820866 0
M  V30 3780 H 359.786 0.553322 1.60426 0
M  V30 3781 H 358.558 0.957214 3.79412 0
M  V30 3782 H 358.181 -0.754292 3.9038 0
M  V30 3783 N 359.178 -1.55987 0.224894 0
M  V30 3784 C 360.111 -2.16413 -0.723929 0
M  V30 3785 C 361.089 -1.10952 -1.18863 0
M  V30 3786 O 362.273 -1.39225 -1.27077 0
M  V30 3787 C 359.4 -2.74711 -1.98121 0
M  V30 3788 C 358.446 -3.9303 -1.6562 0
M  V30 3789 S 359.279 -5.29817 -0.778058 0
M  V30 3790 C 360.435 -5.91555 -2.04483 0
M  V30 3791 H 360.668 -2.96555 -0.210347 0
M  V30 3792 H 358.201 -1.54397 0.00955457 0
M  V30 3793 H 360.159 -3.08938 -2.70311 0
M  V30 3794 H 358.82 -1.94555 -2.46591 0
M  V30 3795 H 358.013 -4.32334 -2.59043 0
M  V30 3796 H 357.615 -3.59966 -1.01491 0
M  V30 3797 H 359.907 -6.07732 -2.99446 0
M  V30 3798 H 360.85 -6.87498 -1.69563 0
M  V30 3799 H 361.258 -5.20419 -2.18688 0
M  V30 3800 N 360.656 0.0484629 -1.57525 0
M  V30 3801 C 361.905 0.742065 -1.87553 0
M  V30 3802 C 362.218 1.77545 -0.820802 0
M  V30 3803 O 363.424 2.52027 -1.00967 0
M  V30 3804 C 361.88 1.37081 -3.32771 0
M  V30 3805 C 361.488 0.374786 -4.4643 0
M  V30 3806 C 363.232 2.04542 -3.71972 0
M  V30 3807 C 361.139 1.01077 -5.82698 0
M  V30 3808 H 360.069 0.280903 -0.699721 0
M  V30 3809 H 362.72 -0.00411877 -1.835 0
M  V30 3810 H 361.102 2.16605 -3.31509 0
M  V30 3811 H 362.276 -0.392331 -4.59127 0
M  V30 3812 H 360.591 -0.196653 -4.15935 0
M  V30 3813 H 363.188 2.52943 -4.71088 0
M  V30 3814 H 363.531 2.85515 -3.02964 0
M  V30 3815 H 364.064 1.31819 -3.75325 0
M  V30 3816 H 360.803 0.240878 -6.55057 0
M  V30 3817 H 360.323 1.74819 -5.73758 0
M  V30 3818 H 362.002 1.52383 -6.28799 0
M  V30 3819 N 362.134 1.5431 0.320358 0
M  V30 3820 C 363.381 1.72668 1.05792 0
M  V30 3821 C 363.709 0.502084 1.87908 0
M  V30 3822 O 362.964 -0.516149 1.88771 0
M  V30 3823 C 363.263 2.95639 2.00828 0
M  V30 3824 C 362.929 4.30265 1.34843 0
M  V30 3825 C 361.591 4.66865 1.16578 0
M  V30 3826 C 363.943 5.13801 0.875095 0
M  V30 3827 C 361.271 5.84597 0.496336 0
M  V30 3828 C 363.623 6.32219 0.219463 0
M  V30 3829 C 362.287 6.67495 0.0246915 0
M  V30 3830 H 361.557 0.631837 0.387121 0
M  V30 3831 H 364.204 1.88552 0.334735 0
M  V30 3832 H 362.509 2.74456 2.79609 0
M  V30 3833 H 364.206 3.07038 2.57932 0
M  V30 3834 H 360.796 4.01472 1.50061 0
M  V30 3835 H 364.98 4.86039 1.00398 0
M  V30 3836 H 360.236 6.10486 0.334264 0
M  V30 3837 H 364.41 6.96227 -0.155291 0
M  V30 3838 H 362.037 7.5858 -0.496065 0
M  V30 3839 N 363.613 -0.582584 1.46437 0
M  V30 3840 C 364.86 -1.34079 1.51753 0
M  V30 3841 C 365.188 -1.93762 0.169299 0
M  V30 3842 O 364.443 -1.76989 -0.835062 0
M  V30 3843 C 364.742 -2.48964 2.56421 0
M  V30 3844 C 364.408 -2.07273 4.00436 0
M  V30 3845 C 363.07 -1.95618 4.39644 0
M  V30 3846 C 365.422 -1.75111 4.90903 0
M  V30 3847 C 362.75 -1.5006 5.67185 0
M  V30 3848 C 365.102 -1.31032 6.18881 0
M  V30 3849 C 363.766 -1.17954 6.56996 0
M  V30 3850 H 363.036 -0.49063 0.555304 0
M  V30 3851 H 365.683 -0.656007 1.79913 0
M  V30 3852 H 363.988 -3.22889 2.21923 0
M  V30 3853 H 365.685 -3.07178 2.57765 0
M  V30 3854 H 362.275 -2.17279 3.69443 0
M  V30 3855 H 366.459 -1.83001 4.61329 0
M  V30 3856 H 361.715 -1.38577 5.95488 0
M  V30 3857 H 365.889 -1.052 6.88408 0
M  V30 3858 H 363.516 -0.824279 7.55718 0
M  V30 3859 N 365.091 -1.34144 -0.827227 0
M  V30 3860 C 366.041 -1.21923 -1.92663 0
M  V30 3861 C 367.025 -0.119294 -1.60457 0
M  V30 3862 O 368.217 -0.348539 -1.73534 0
M  V30 3863 C 365.346 -0.972492 -3.29238 0
M  V30 3864 C 364.432 -2.1154 -3.67576 0
M  V30 3865 N 364.823 -3.36627 -3.77512 0
M  V30 3866 C 363.121 -2.02468 -3.97395 0
M  V30 3867 C 363.822 -4.11658 -4.1099 0
M  V30 3868 N 362.798 -3.40207 -4.23981 0
M  V30 3869 H 366.6 -2.16721 -1.98517 0
M  V30 3870 H 364.114 -1.2632 -1.02064 0
M  V30 3871 H 366.111 -0.865847 -4.0781 0
M  V30 3872 H 364.771 -0.0331509 -3.24683 0
M  V30 3873 H 365.782 -3.71234 -3.61118 0
M  V30 3874 H 362.459 -1.16265 -4.00985 0
M  V30 3875 H 363.849 -5.19657 -4.25918 0
M  V30 3876 N 366.569 1.04691 -1.17803 0
M  V30 3877 C 367.794 1.81984 -0.994813 0
M  V30 3878 C 368.219 1.82586 0.452112 0
M  V30 3879 O 367.577 1.23854 1.324 0
M  V30 3880 C 367.625 3.2575 -1.54659 0
M  V30 3881 O 366.729 4.05267 -0.763728 0
M  V30 3882 H 366.07 0.562483 -0.352857 0
M  V30 3883 H 368.6 1.3189 -1.56417 0
M  V30 3884 H 368.61 3.76541 -1.57102 0
M  V30 3885 H 367.285 3.24627 -2.59981 0
M  V30 3886 H 365.862 3.63972 -0.811108 0
M  V30 3887 N 368.047 0.979072 1.23499 0
M  V30 3888 C 369.277 0.664237 1.95631 0
M  V30 3889 C 369.685 -0.772653 1.72704 0
M  V30 3890 O 369.028 -1.53141 1.01457 0
M  V30 3891 C 369.09 0.873115 3.48736 0
M  V30 3892 C 368.754 2.29182 3.95379 0
M  V30 3893 C 369.751 3.2704 4.04155 0
M  V30 3894 C 367.436 2.62256 4.28401 0
M  V30 3895 C 369.43 4.56052 4.45304 0
M  V30 3896 C 367.117 3.91491 4.69231 0
M  V30 3897 C 368.115 4.88201 4.77649 0
M  V30 3898 O 367.803 6.15129 5.17563 0
M  V30 3899 H 367.535 0.245915 0.629684 0
M  V30 3900 H 370.089 1.3127 1.57979 0
M  V30 3901 H 368.319 0.167476 3.86337 0
M  V30 3902 H 370.008 0.555642 4.02079 0
M  V30 3903 H 370.774 3.02819 3.78848 0
M  V30 3904 H 366.653 1.87692 4.21061 0
M  V30 3905 H 370.197 5.31538 4.51789 0
M  V30 3906 H 366.094 4.15508 4.93987 0
M  V30 3907 H 366.862 6.18862 5.35679 0
M  V30 3908 N 369.525 -1.3858 0.750561 0
M  V30 3909 C 370.472 -2.30483 0.120835 0
M  V30 3910 C 371.442 -1.50022 -0.712923 0
M  V30 3911 O 372.627 -1.78662 -0.669676 0
M  V30 3912 C 369.767 -3.36431 -0.768666 0
M  V30 3913 C 368.88 -4.31927 0.0793922 0
M  V30 3914 C 368.015 -5.24944 -0.81283 0
M  V30 3915 C 367.054 -6.12088 0.0390447 0
M  V30 3916 N 366.191 -6.97412 -0.809969 0
M  V30 3917 H 371.031 -2.83761 0.91015 0
M  V30 3918 H 368.568 -1.39707 0.460463 0
M  V30 3919 H 370.526 -3.96462 -1.29898 0
M  V30 3920 H 369.156 -2.8457 -1.5238 0
M  V30 3921 H 368.208 -3.73382 0.727303 0
M  V30 3922 H 369.52 -4.93319 0.737401 0
M  V30 3923 H 368.674 -5.90078 -1.41042 0
M  V30 3924 H 367.413 -4.63911 -1.50458 0
M  V30 3925 H 366.418 -5.45952 0.649328 0
M  V30 3926 H 367.643 -6.75189 0.727809 0
M  V30 3927 H 365.589 -6.38931 -1.48672 0
M  V30 3928 H 365.506 -7.55712 -0.208789 0
M  V30 3929 H 366.774 -7.66959 -1.39263 0
M  V30 3930 N 371.003 -0.499398 -1.49478 0
M  V30 3931 C 371.951 0.293604 -2.3074 0
M  V30 3932 C 372.945 0.96427 -1.39277 0
M  V30 3933 O 374.151 0.892141 -1.56336 0
M  V30 3934 H 370.526 0.113541 -0.743379 0
M  V30 3935 H 372.497 -0.411772 -2.95545 0
M  V30 3936 C 371.246 1.3462 -3.20582 0
M  V30 3937 H 370.569 0.83954 -3.90886 0
M  V30 3938 H 372.009 1.87308 -3.80384 0
M  V30 3939 C 370.468 2.36351 -2.40083 0
M  V30 3940 O 370.998 3.422 -2.10385 0
M  V30 3941 N 369.204 2.0878 -2.02137 0
M  V30 3942 H 368.751 1.22723 -2.26488 0
M  V30 3943 H 368.709 2.77075 -1.48583 0
M  V30 3944 N 372.481 1.55866 -0.233164 0
M  V30 3945 C 373.892 1.847 0.272554 0
M  V30 3946 C 374.243 1.15477 1.58617 0
M  V30 3947 O 373.368 0.42841 2.12117 0
M  V30 3948 C 373.963 3.35071 0.501299 0
M  V30 3949 C 372.522 3.6418 0.951304 0
M  V30 3950 C 371.669 2.77292 0.0208209 0
M  V30 3951 H 374.62 1.52005 -0.456074 0
M  V30 3952 H 374.641 3.55906 1.34577 0
M  V30 3953 H 374.153 3.85424 -0.454936 0
M  V30 3954 H 372.254 3.19293 1.92049 0
M  V30 3955 H 372.367 4.72071 0.817675 0
M  V30 3956 H 370.731 2.49131 0.529723 0
M  V30 3957 H 371.514 3.30448 -0.93054 0
M  V30 3958 N 373.959 -0.0401083 1.57549 0
M  V30 3959 C 375.207 -0.731677 1.8839 0
M  V30 3960 C 375.528 -1.76481 0.829425 0
M  V30 3961 O 374.798 -1.95411 -0.1383 0
M  V30 3962 H 373.378 -0.273225 0.695239 0
M  V30 3963 H 376.04 -0.00867725 1.94898 0
M  V30 3964 H 375.136 -1.22816 2.86919 0
M  V30 3965 N 375.437 -1.54477 -0.31217 0
M  V30 3966 C 376.367 -1.87652 -1.38957 0
M  V30 3967 C 377.348 -0.734358 -1.53431 0
M  V30 3968 O 378.533 -0.98911 -1.67123 0
M  V30 3969 C 375.663 -2.11396 -2.75552 0
M  V30 3970 C 374.617 -3.27243 -2.75855 0
M  V30 3971 C 373.943 -3.36382 -4.15633 0
M  V30 3972 C 375.243 -4.64622 -2.38587 0
M  V30 3973 H 376.937 -2.77887 -1.11442 0
M  V30 3974 H 374.483 -1.33707 -0.534655 0
M  V30 3975 H 376.436 -2.33189 -3.51 0
M  V30 3976 H 375.16 -1.17921 -3.04569 0
M  V30 3977 H 373.819 -3.05356 -2.02863 0
M  V30 3978 H 373.467 -2.40445 -4.41809 0
M  V30 3979 H 373.167 -4.14249 -4.1674 0
M  V30 3980 H 374.691 -3.60422 -4.92877 0
M  V30 3981 H 376.105 -4.86219 -3.03749 0
M  V30 3982 H 374.502 -5.45121 -2.50925 0
M  V30 3983 H 375.572 -4.66097 -1.33723 0
M  V30 3984 N 376.915 0.57481 -1.46744 0
M  V30 3985 C 378.161 1.3347 -1.52688 0
M  V30 3986 C 378.494 1.93353 -0.181229 0
M  V30 3987 O 377.769 1.76912 0.808237 0
M  V30 3988 C 378.052 2.45811 -2.63152 0
M  V30 3989 C 377.905 1.90912 -4.07275 0
M  V30 3990 C 379.224 3.47822 -2.69644 0
M  V30 3991 H 376.343 0.483935 -0.555856 0
M  V30 3992 H 378.985 0.644968 -1.78718 0
M  V30 3993 H 377.135 3.04646 -2.41088 0
M  V30 3994 H 378.807 1.36473 -4.4065 0
M  V30 3995 H 377.05 1.21691 -4.16382 0
M  V30 3996 H 377.721 2.72042 -4.80309 0
M  V30 3997 H 380.197 2.9888 -2.895 0
M  V30 3998 H 379.073 4.23876 -3.48742 0
M  V30 3999 H 379.334 4.05555 -1.76005 0
M  V30 4000 N 378.394 1.34581 0.820102 0
M  V30 4001 C 379.324 1.29038 1.94606 0
M  V30 4002 C 380.305 0.1673 1.69275 0
M  V30 4003 O 381.49 0.360112 1.90832 0
M  V30 4004 C 378.62 1.04793 3.31113 0
M  V30 4005 C 377.574 2.13597 3.70891 0
M  V30 4006 C 376.9 1.74537 5.05412 0
M  V30 4007 C 378.2 3.55451 3.8269 0
M  V30 4008 H 379.894 2.23248 1.99501 0
M  V30 4009 H 377.44 1.0747 0.958449 0
M  V30 4010 H 379.393 0.995592 4.0947 0
M  V30 4011 H 378.117 0.0702565 3.26524 0
M  V30 4012 H 376.776 2.17905 2.9481 0
M  V30 4013 H 376.424 0.754226 4.97313 0
M  V30 4014 H 376.124 2.47361 5.32997 0
M  V30 4015 H 377.648 1.70803 5.86224 0
M  V30 4016 H 379.062 3.5354 4.51312 0
M  V30 4017 H 377.459 4.26922 4.21732 0
M  V30 4018 H 378.529 3.92587 2.84611 0
M  V30 4019 N 379.872 -1.04064 1.18357 0
M  V30 4020 C 381.149 -1.74252 0.888581 0
M  V30 4021 C 381.529 -2.02138 -0.60856 0
M  V30 4022 O 380.877 -1.66656 -1.56327 0
M  V30 4023 C 381.087 -3.0277 1.73584 0
M  V30 4024 C 382.435 -3.76506 1.96286 0
M  V30 4025 O 383.459 -3.12668 1.70637 0
M  V30 4026 O 382.318 -4.91243 2.39464 0
M  V30 4027 H 379.412 -0.758271 0.330082 0
M  V30 4028 H 381.958 -1.1013 1.2911 0
M  V30 4029 H 380.73 -2.78299 2.75073 0
M  V30 4030 H 380.353 -3.74631 1.33183 0
M  V30 4031 N 381.35 -0.985608 -1.22978 0
M  V30 4032 C 382.599 -0.652881 -1.90841 0
M  V30 4033 C 382.912 0.817842 -1.77681 0
M  V30 4034 O 384.118 1.26185 -2.40395 0
M  V30 4035 C 382.574 -1.11717 -3.42122 0
M  V30 4036 C 382.182 -2.6126 -3.63933 0
M  V30 4037 C 383.926 -0.85843 -4.1573 0
M  V30 4038 C 381.833 -3.0133 -5.08876 0
M  V30 4039 H 380.763 -0.240491 -0.714619 0
M  V30 4040 H 383.414 -1.1942 -1.39324 0
M  V30 4041 H 381.796 -0.504027 -3.92779 0
M  V30 4042 H 382.97 -3.27858 -3.23799 0
M  V30 4043 H 381.285 -2.84937 -3.03644 0
M  V30 4044 H 383.882 -1.13359 -5.22546 0
M  V30 4045 H 384.225 0.205461 -4.15793 0
M  V30 4046 H 384.758 -1.43341 -3.71077 0
M  V30 4047 H 381.497 -4.06864 -5.13947 0
M  V30 4048 H 381.017 -2.3943 -5.49939 0
M  V30 4049 H 382.696 -2.92224 -5.77247 0
M  V30 4050 N 382.828 1.3818 -0.7579 0
M  V30 4051 C 384.074 2.00316 -0.316453 0
M  V30 4052 C 384.407 1.60026 1.10025 0
M  V30 4053 O 383.682 0.839835 1.75434 0
M  V30 4054 C 383.965 3.57349 -0.444245 0
M  V30 4055 C 383.818 4.07591 -1.90236 0
M  V30 4056 C 385.137 4.3981 0.1598 0
M  V30 4057 H 382.256 0.727741 -0.116459 0
M  V30 4058 H 384.898 1.6406 -0.958352 0
M  V30 4059 H 383.048 3.88365 0.102233 0
M  V30 4060 H 384.72 3.87199 -2.50748 0
M  V30 4061 H 382.963 3.60297 -2.41595 0
M  V30 4062 H 383.634 5.16677 -1.94291 0
M  V30 4063 H 386.11 4.14971 -0.306314 0
M  V30 4064 H 384.986 5.48885 0.0401675 0
M  V30 4065 H 385.247 4.24102 1.24859 0
M  V30 4066 N 384.306 0.507319 1.49211 0
M  V30 4067 C 385.216 -0.272136 2.33016 0
M  V30 4068 C 386.232 -0.961206 1.45041 0
M  V30 4069 O 387.408 -0.941191 1.78055 0
M  V30 4070 C 384.473 -1.31895 3.20631 0
M  V30 4071 C 383.534 -0.642648 4.24463 0
M  V30 4072 C 382.767 -1.63959 5.07891 0
M  V30 4073 O 382.99 -2.87007 4.92933 0
M  V30 4074 O 381.924 -1.19143 5.8999 0
M  V30 4075 H 385.75 0.413982 3.00865 0
M  V30 4076 H 383.335 0.268556 1.46966 0
M  V30 4077 H 385.217 -1.92446 3.7489 0
M  V30 4078 H 383.892 -1.98788 2.5547 0
M  V30 4079 H 382.799 0.00276252 3.741 0
M  V30 4080 H 384.132 -0.0160534 4.92197 0
M  V30 4081 N 385.784 -1.5574 0.241426 0
M  V30 4082 C 387.061 -1.90704 -0.434881 0
M  V30 4083 C 387.441 -1.16145 -1.76277 0
M  V30 4084 O 386.789 -0.277152 -2.26813 0
M  V30 4085 C 386.999 -3.43657 -0.608343 0
M  V30 4086 C 388.347 -4.14806 -0.906725 0
M  V30 4087 O 389.371 -3.49366 -0.694408 0
M  V30 4088 O 388.23 -5.30548 -1.31075 0
M  V30 4089 H 385.324 -0.793592 -0.23268 0
M  V30 4090 H 387.87 -1.67288 0.285086 0
M  V30 4091 H 386.642 -3.89927 0.327505 0
M  V30 4092 H 386.265 -3.72918 -1.37906 0
M  V30 4093 N 387.262 0.0317525 -1.57568 0
M  V30 4094 C 388.192 1.03274 -2.0942 0
M  V30 4095 C 389.173 1.3788 -0.996143 0
M  V30 4096 O 390.358 1.46811 -1.27122 0
M  V30 4097 C 387.488 2.33448 -2.57137 0
M  V30 4098 C 386.442 2.13091 -3.71182 0
M  V30 4099 C 385.768 3.49001 -4.05095 0
M  V30 4100 C 387.068 1.51928 -4.99715 0
M  V30 4101 H 388.762 0.60112 -2.93303 0
M  V30 4102 H 386.308 0.287705 -1.41097 0
M  V30 4103 H 388.261 3.03802 -2.92032 0
M  V30 4104 H 386.985 2.78665 -1.70333 0
M  V30 4105 H 385.644 1.45171 -3.36632 0
M  V30 4106 H 385.292 3.91862 -3.15362 0
M  V30 4107 H 384.992 3.36207 -4.81911 0
M  V30 4108 H 386.516 4.20721 -4.42522 0
M  V30 4109 H 387.93 2.12196 -5.32584 0
M  V30 4110 H 386.327 1.49716 -5.81124 0
M  V30 4111 H 387.397 0.484811 -4.8247 0
M  V30 4112 N 388.74 1.54641 0.303973 0
M  V30 4113 C 390.156 1.45788 0.649463 0
M  V30 4114 C 390.356 0.64666 1.90842 0
M  V30 4115 O 389.412 0.153183 2.52035 0
M  V30 4116 C 390.725 2.89718 0.805227 0
M  V30 4117 C 392.273 2.99742 0.901305 0
M  V30 4118 C 392.748 4.44863 1.08909 0
M  V30 4119 N 394.239 4.48559 1.15536 0
M  V30 4120 C 394.974 5.58026 1.3189 0
M  V30 4121 N 394.47 6.77422 1.45161 0
M  V30 4122 N 396.263 5.45708 1.34755 0
M  V30 4123 H 388.414 2.05854 -0.523237 0
M  V30 4124 H 390.677 0.932186 -0.172431 0
M  V30 4125 H 390.383 3.51666 -0.0489108 0
M  V30 4126 H 390.257 3.36964 1.69513 0
M  V30 4127 H 392.644 2.3791 1.74593 0
M  V30 4128 H 392.725 2.55797 -0.0125531 0
M  V30 4129 H 392.369 5.07288 0.249241 0
M  V30 4130 H 392.299 4.86436 2.01713 0
M  V30 4131 H 394.79 3.6254 1.06646 0
M  V30 4132 H 395.103 7.56604 1.57387 0
M  V30 4133 H 393.448 6.80292 1.42223 0
M  V30 4134 H 396.639 4.51378 1.23996 0
M  V30 4135 H 396.812 6.3107 1.47157 0
M  V30 4136 N 390.218 -0.567019 1.47046 0
M  V30 4137 C 391.148 -1.68482 1.61667 0
M  V30 4138 C 392.129 -1.6358 0.466418 0
M  V30 4139 O 393.314 -1.81354 0.694574 0
M  V30 4140 C 390.444 -3.07124 1.62148 0
M  V30 4141 C 389.398 -3.26867 2.76301 0
M  V30 4142 C 388.724 -4.66196 2.61849 0
M  V30 4143 C 390.024 -3.13186 4.17986 0
M  V30 4144 H 391.718 -1.56502 2.5524 0
M  V30 4145 H 389.264 -0.751486 1.22836 0
M  V30 4146 H 391.217 -3.8516 1.70968 0
M  V30 4147 H 389.941 -3.2004 0.651287 0
M  V30 4148 H 388.6 -2.51237 2.66975 0
M  V30 4149 H 388.248 -4.75898 1.62879 0
M  V30 4150 H 387.948 -4.80356 3.38425 0
M  V30 4151 H 389.472 -5.46379 2.72584 0
M  V30 4152 H 390.886 -3.81049 4.2834 0
M  V30 4153 H 389.283 -3.3886 4.95272 0
M  V30 4154 H 390.353 -2.10057 4.3704 0
M  V30 4155 N 391.696 -1.35014 -0.812953 0
M  V30 4156 C 392.945 -1.27269 -1.56479 0
M  V30 4157 C 393.258 0.152771 -1.95002 0
M  V30 4158 O 394.464 0.352451 -2.69203 0
M  V30 4159 C 392.92 -2.23159 -2.82362 0
M  V30 4160 C 392.528 -3.71016 -2.511 0
M  V30 4161 C 394.272 -2.24342 -3.60376 0
M  V30 4162 C 392.179 -4.58746 -3.73237 0
M  V30 4163 H 391.109 -0.472829 -0.587324 0
M  V30 4164 H 393.76 -1.6024 -0.894171 0
M  V30 4165 H 392.142 -1.83151 -3.51101 0
M  V30 4166 H 393.316 -4.1962 -1.90409 0
M  V30 4167 H 391.631 -3.72378 -1.86343 0
M  V30 4168 H 394.228 -2.87107 -4.51081 0
M  V30 4169 H 394.571 -1.24542 -3.97234 0
M  V30 4170 H 395.104 -2.62846 -2.98591 0
M  V30 4171 H 391.843 -5.59521 -3.41492 0
M  V30 4172 H 391.363 -4.14871 -4.33176 0
M  V30 4173 H 393.042 -4.73852 -4.40537 0
M  V30 4174 N 393.175 1.03435 -1.18907 0
M  V30 4175 C 394.123 2.13703 -0.918353 0
M  V30 4176 C 395.117 1.68947 0.123767 0
M  V30 4177 O 396.323 1.79983 -0.0249701 0
M  V30 4178 H 392.698 0.698112 -0.279542 0
M  V30 4179 H 394.669 2.33731 -1.85506 0
M  V30 4180 C 393.418 3.44542 -0.467532 0
M  V30 4181 H 392.741 3.79394 -1.26095 0
M  V30 4182 H 394.181 4.22812 -0.317164 0
M  V30 4183 C 392.64 3.26829 0.817588 0
M  V30 4184 O 393.17 3.54975 1.88031 0
M  V30 4185 N 391.376 2.80139 0.772677 0
M  V30 4186 H 390.923 2.57434 -0.0923883 0
M  V30 4187 H 390.881 2.68668 1.63294 0
M  V30 4188 N 394.653 0.992116 1.22453 0
M  V30 4189 C 395.881 0.685944 1.95198 0
M  V30 4190 C 396.296 -0.749233 1.73297 0
M  V30 4191 O 395.653 -1.50549 1.03156 0
M  V30 4192 C 395.704 0.981395 3.47924 0
M  V30 4193 O 395.425 2.36018 3.6909 0
M  V30 4194 C 396.926 0.692815 4.37853 0
M  V30 4195 H 394.146 0.253821 0.621141 0
M  V30 4196 H 396.69 1.32668 1.55626 0
M  V30 4197 H 394.845 0.386481 3.85467 0
M  V30 4198 H 395.259 2.45884 4.63294 0
M  V30 4199 H 396.733 0.949818 5.43767 0
M  V30 4200 H 397.21 -0.373181 4.37612 0
M  V30 4201 H 397.816 1.26874 4.05935 0
M  V30 4202 N 396.131 -1.37776 0.765217 0
M  V30 4203 C 397.063 -2.28958 0.105361 0
M  V30 4204 C 398.076 -1.48316 -0.67128 0
M  V30 4205 O 399.265 -1.71046 -0.51045 0
M  V30 4206 C 396.365 -3.27421 -0.874569 0
M  V30 4207 C 395.538 -4.37132 -0.153123 0
M  V30 4208 C 394.597 -5.1571 -1.04547 0
M  V30 4209 O 393.623 -5.66896 -0.511672 0
M  V30 4210 N 394.825 -5.29808 -2.37243 0
M  V30 4211 H 397.59 -2.86227 0.888495 0
M  V30 4212 H 395.151 -1.49682 0.617 0
M  V30 4213 H 397.143 -3.7687 -1.47483 0
M  V30 4214 H 395.713 -2.70967 -1.55871 0
M  V30 4215 H 394.933 -3.89166 0.627975 0
M  V30 4216 H 396.221 -5.07625 0.345643 0
M  V30 4217 H 395.619 -4.89793 -2.83054 0
M  V30 4218 H 394.176 -5.82589 -2.9229 0
M  V30 4219 N 397.609 -0.515225 -1.4894 0
M  V30 4220 C 398.572 0.244681 -2.2789 0
M  V30 4221 C 399.572 0.881166 -1.34507 0
M  V30 4222 O 400.762 0.743497 -1.57537 0
M  V30 4223 C 397.894 1.35247 -3.12923 0
M  V30 4224 H 399.087 -0.448289 -2.96531 0
M  V30 4225 H 396.64 -0.270656 -1.53939 0
M  V30 4226 H 397.375 2.07916 -2.48881 0
M  V30 4227 H 397.16 0.901374 -3.81599 0
M  V30 4228 H 398.65 1.88737 -3.72516 0
M  V30 4229 N 399.087 1.5561 -0.249682 0
M  V30 4230 C 400.336 1.98187 0.37479 0
M  V30 4231 C 400.649 1.14111 1.58865 0
M  V30 4232 O 401.855 1.46714 2.28445 0
M  V30 4233 C 400.311 3.52661 0.718192 0
M  V30 4234 C 399.919 4.45481 -0.474428 0
M  V30 4235 C 401.663 4.03888 1.3067 0
M  V30 4236 C 399.57 5.91303 -0.107026 0
M  V30 4237 H 398.5 0.740159 0.143808 0
M  V30 4238 H 401.151 1.80125 -0.350336 0
M  V30 4239 H 399.533 3.66429 1.50152 0
M  V30 4240 H 400.707 4.43473 -1.25172 0
M  V30 4241 H 399.022 4.04751 -0.978052 0
M  V30 4242 H 401.619 5.10358 1.59496 0
M  V30 4243 H 401.962 3.51401 2.23211 0
M  V30 4244 H 402.495 3.93457 0.586211 0
M  V30 4245 H 399.234 6.47833 -0.999642 0
M  V30 4246 H 398.754 5.9644 0.634013 0
M  V30 4247 H 400.433 6.46258 0.309807 0
M  V30 4248 N 400.565 -0.0233959 1.57583 0
M  V30 4249 C 401.812 -0.713063 1.8953 0
M  V30 4250 C 402.14 -1.75056 0.847673 0
M  V30 4251 O 401.395 -1.95119 -0.150636 0
M  V30 4252 C 401.694 -1.41428 3.28227 0
M  V30 4253 C 401.36 -0.512222 4.47981 0
M  V30 4254 C 400.022 -0.263785 4.80476 0
M  V30 4255 C 402.374 0.110248 5.21083 0
M  V30 4256 C 399.702 0.615804 5.83459 0
M  V30 4257 C 402.054 0.977573 6.25001 0
M  V30 4258 C 400.718 1.23542 6.55968 0
M  V30 4259 H 399.988 -0.260928 0.69354 0
M  V30 4260 H 402.635 0.0271047 1.91481 0
M  V30 4261 H 400.94 -2.22791 3.22291 0
M  V30 4262 H 402.637 -1.95355 3.50196 0
M  V30 4263 H 399.227 -0.716013 4.22577 0
M  V30 4264 H 403.411 -0.0687137 4.96252 0
M  V30 4265 H 398.667 0.82382 6.05824 0
M  V30 4266 H 402.841 1.46638 6.80786 0
M  V30 4267 H 400.468 1.91871 7.35588 0
M  V30 4268 N 402.043 -1.548 -0.295768 0
M  V30 4269 C 403.006 -1.85363 -1.34808 0
M  V30 4270 C 404.006 -0.726817 -1.43436 0
M  V30 4271 O 405.196 -0.995088 -1.42981 0
M  V30 4272 C 402.328 -2.03859 -2.73229 0
M  V30 4273 H 403.521 -2.7941 -1.08949 0
M  V30 4274 H 401.074 -1.46942 -0.532702 0
M  V30 4275 H 401.809 -1.12117 -3.04303 0
M  V30 4276 H 401.594 -2.8588 -2.68356 0
M  V30 4277 H 403.084 -2.28857 -3.49305 0
M  V30 4278 N 403.521 0.559213 -1.47345 0
M  V30 4279 C 404.468 1.66645 -1.59682 0
M  V30 4280 C 405.438 1.60168 -0.43994 0
M  V30 4281 O 406.623 1.79031 -0.659736 0
M  V30 4282 C 403.763 3.04969 -1.61518 0
M  V30 4283 C 402.876 3.21897 -2.88108 0
M  V30 4284 C 402.011 4.50608 -2.81294 0
M  V30 4285 C 401.05 4.60961 -4.02717 0
M  V30 4286 N 400.187 5.81024 -3.94151 0
M  V30 4287 H 405.027 1.55439 -2.54249 0
M  V30 4288 H 402.564 0.757219 -1.26113 0
M  V30 4289 H 404.522 3.85064 -1.60566 0
M  V30 4290 H 403.152 3.15015 -0.704645 0
M  V30 4291 H 402.204 2.35248 -2.98936 0
M  V30 4292 H 403.516 3.25412 -3.78032 0
M  V30 4293 H 402.67 5.3896 -2.7858 0
M  V30 4294 H 401.409 4.49568 -1.89049 0
M  V30 4295 H 400.414 3.71021 -4.05738 0
M  V30 4296 H 401.639 4.63761 -4.96087 0
M  V30 4297 H 399.585 5.80938 -3.04708 0
M  V30 4298 H 399.502 5.85909 -4.77752 0
M  V30 4299 H 400.77 6.71744 -3.9545 0
M  V30 4300 N 404.999 1.35443 0.805782 0
M  V30 4301 C 406.239 1.30127 1.57627 0
M  V30 4302 C 406.603 -0.122567 1.91608 0
M  V30 4303 O 407.804 -0.300107 2.67119 0
M  V30 4304 C 406.075 2.18314 2.82973 0
M  V30 4305 S 407.634 2.30521 3.7337 0
M  V30 4306 H 404.452 0.462439 0.540066 0
M  V30 4307 H 407.054 1.70843 0.95042 0
M  V30 4308 H 405.758 3.20741 2.56034 0
M  V30 4309 H 405.289 1.78558 3.50543 0
M  V30 4310 H 407.304 1.49062 4.73281 0
M  V30 4311 N 406.477 -1.02803 1.19454 0
M  V30 4312 C 407.705 -1.79841 1.02297 0
M  V30 4313 C 408.12 -1.83879 -0.428259 0
M  V30 4314 O 407.477 -1.28345 -1.29745 0
M  V30 4315 C 407.528 -3.24852 1.58598 0
M  V30 4316 O 407.249 -3.21097 2.98041 0
M  V30 4317 C 408.75 -4.18485 1.46236 0
M  V30 4318 H 405.97 -0.565936 0.360496 0
M  V30 4319 H 408.514 -1.2948 1.58288 0
M  V30 4320 H 406.669 -3.72401 1.06753 0
M  V30 4321 H 407.083 -4.12033 3.24545 0
M  V30 4322 H 408.557 -5.18121 1.90407 0
M  V30 4323 H 409.034 -4.37254 0.41301 0
M  V30 4324 H 409.64 -3.76811 1.97215 0
M  V30 4325 N 407.956 -0.998596 -1.21925 0
M  V30 4326 C 409.204 -0.676325 -1.90448 0
M  V30 4327 C 409.525 0.794719 -1.78071 0
M  V30 4328 O 408.795 1.5701 -1.17152 0
M  V30 4329 H 407.375 -0.247165 -0.704925 0
M  V30 4330 H 410.037 -1.26633 -1.48156 0
M  V30 4331 H 409.133 -0.943858 -2.97486 0
M  V30 4332 N 409.434 1.37368 -0.772513 0
M  V30 4333 C 410.367 2.27956 -0.105593 0
M  V30 4334 C 411.345 1.46362 0.708295 0
M  V30 4335 O 412.529 1.75695 0.682895 0
M  V30 4336 C 409.656 3.27687 0.856686 0
M  V30 4337 C 408.702 4.26312 0.1267 0
M  V30 4338 S 409.535 5.22206 -1.1858 0
M  V30 4339 C 410.691 6.25488 -0.227081 0
M  V30 4340 H 410.924 2.84171 -0.87372 0
M  V30 4341 H 408.457 1.43654 -0.565939 0
M  V30 4342 H 410.415 3.85653 1.40648 0
M  V30 4343 H 409.076 2.70417 1.59793 0
M  V30 4344 H 408.269 4.96674 0.856212 0
M  V30 4345 H 407.871 3.72339 -0.352117 0
M  V30 4346 H 410.163 6.74836 0.600231 0
M  V30 4347 H 411.106 7.02371 -0.898899 0
M  V30 4348 H 411.514 5.64267 0.162053 0
M  V30 4349 N 410.912 0.523116 1.48665 0
M  V30 4350 C 412.161 -0.01544 2.01694 0
M  V30 4351 C 412.474 -1.35975 1.40606 0
M  V30 4352 O 413.68 -1.98627 1.85093 0
M  V30 4353 C 412.136 -0.0779303 3.59816 0
M  V30 4354 C 411.744 1.26107 4.29885 0
M  V30 4355 C 413.488 -0.565678 4.20714 0
M  V30 4356 C 411.395 1.15954 5.79921 0
M  V30 4357 H 410.325 -0.00954163 0.75394 0
M  V30 4358 H 412.976 0.665865 1.70993 0
M  V30 4359 H 411.358 -0.824165 3.87329 0
M  V30 4360 H 412.532 2.02233 4.14051 0
M  V30 4361 H 410.847 1.68401 3.80828 0
M  V30 4362 H 413.444 -0.6595 5.30617 0
M  V30 4363 H 413.787 -1.56984 3.85567 0
M  V30 4364 H 414.32 0.12467 3.97605 0
M  V30 4365 H 411.059 2.13864 6.19631 0
M  V30 4366 H 410.579 0.439529 5.98187 0
M  V30 4367 H 412.258 0.847361 6.41427 0
M  V30 4368 N 412.39 -1.55475 0.257931 0
M  V30 4369 C 413.639 -1.98383 -0.364275 0
M  V30 4370 C 413.952 -1.14952 -1.58258 0
M  V30 4371 O 415.158 -1.47924 -2.27664 0
M  V30 4372 C 413.614 -3.53037 -0.699479 0
M  V30 4373 C 413.222 -4.45223 0.498046 0
M  V30 4374 C 414.966 -4.04575 -1.28526 0
M  V30 4375 C 412.873 -5.91238 0.138383 0
M  V30 4376 H 411.803 -0.740911 -0.13988 0
M  V30 4377 H 414.454 -1.79936 0.359883 0
M  V30 4378 H 412.836 -3.6722 -1.48207 0
M  V30 4379 H 414.01 -4.42803 1.27522 0
M  V30 4380 H 412.325 -4.04226 0.999503 0
M  V30 4381 H 414.922 -5.11196 -1.56788 0
M  V30 4382 H 415.265 -3.5258 -2.21344 0
M  V30 4383 H 415.798 -3.93762 -0.565337 0
M  V30 4384 H 412.537 -6.47294 1.03398 0
M  V30 4385 H 412.057 -5.96768 -0.602374 0
M  V30 4386 H 413.736 -6.46413 -0.27553 0
M  V30 4387 N 413.868 0.0150385 -1.57593 0
M  V30 4388 C 414.798 1.01047 -2.10503 0
M  V30 4389 C 415.779 1.36816 -1.01071 0
M  V30 4390 O 416.964 1.45455 -1.28672 0
M  V30 4391 C 414.094 2.30708 -2.59598 0
M  V30 4392 C 413.048 2.09142 -3.73421 0
M  V30 4393 C 412.374 3.44685 -4.08774 0
M  V30 4394 C 413.674 1.46619 -5.01298 0
M  V30 4395 H 415.368 0.569978 -2.93925 0
M  V30 4396 H 412.914 0.272724 -1.41394 0
M  V30 4397 H 414.867 3.00687 -2.95238 0
M  V30 4398 H 413.591 2.76843 -1.73279 0
M  V30 4399 H 412.25 1.41592 -3.38153 0
M  V30 4400 H 411.898 3.88495 -3.195 0
M  V30 4401 H 411.598 3.31077 -4.8545 0
M  V30 4402 H 413.122 4.16004 -4.4696 0
M  V30 4403 H 414.536 2.06535 -5.34805 0
M  V30 4404 H 412.933 1.43544 -5.82679 0
M  V30 4405 H 414.003 0.433611 -4.82957 0
M  V30 4406 N 415.346 1.54954 0.287554 0
M  V30 4407 C 416.594 1.74528 1.01904 0
M  V30 4408 C 416.915 0.541349 1.87335 0
M  V30 4409 O 416.185 -0.444108 1.908 0
M  V30 4410 H 414.765 0.643576 0.379235 0
M  V30 4411 H 417.427 1.92333 0.315294 0
M  V30 4412 H 416.523 2.64015 1.6644 0
M  V30 4413 N 416.824 -0.551391 1.4764 0
M  V30 4414 C 418.072 -1.30572 1.54258 0
M  V30 4415 C 418.393 -1.93877 0.208963 0
M  V30 4416 O 417.663 -1.80234 -0.767619 0
M  V30 4417 H 416.243 -0.484894 0.568231 0
M  V30 4418 H 418.905 -0.643402 1.83974 0
M  V30 4419 H 418.001 -2.09621 2.31226 0
M  V30 4420 N 418.302 -1.35869 -0.798587 0
M  V30 4421 C 419.55 -1.29332 -1.55298 0
M  V30 4422 C 419.871 0.129729 -1.94568 0
M  V30 4423 O 419.141 1.06796 -1.6423 0
M  V30 4424 H 417.721 -0.475737 -0.57592 0
M  V30 4425 H 420.383 -1.70062 -0.952093 0
M  V30 4426 H 419.479 -1.91458 -2.46476 0
M  V30 4427 N 419.78 1.02168 -1.19998 0
M  V30 4428 C 421.026 1.75945 -1.00852 0
M  V30 4429 C 421.359 1.88702 0.458828 0
M  V30 4430 O 420.634 1.40911 1.34069 0
M  V30 4431 C 420.917 3.18154 -1.68671 0
M  V30 4432 C 420.77 3.13224 -3.22817 0
M  V30 4433 C 422.089 4.16711 -1.41561 0
M  V30 4434 H 419.208 0.638673 -0.367785 0
M  V30 4435 H 421.85 1.19222 -1.4794 0
M  V30 4436 H 420 3.66586 -1.28636 0
M  V30 4437 H 421.672 2.72635 -3.72112 0
M  V30 4438 H 419.915 2.50751 -3.53986 0
M  V30 4439 H 420.586 4.13728 -3.65422 0
M  V30 4440 H 423.062 3.76913 -1.76284 0
M  V30 4441 H 421.938 5.14391 -1.91553 0
M  V30 4442 H 422.199 4.40774 -0.342193 0
M  V30 4443 N 421.258 1.00505 1.21394 0
M  V30 4444 C 422.504 0.688793 1.90745 0
M  V30 4445 C 422.837 -0.778486 1.77914 0
M  V30 4446 O 422.112 -1.56433 1.15581 0
M  V30 4447 C 422.395 1.11063 3.42545 0
M  V30 4448 C 422.248 2.63737 3.64367 0
M  V30 4449 C 423.567 0.673059 4.34923 0
M  V30 4450 H 420.686 0.251702 0.692687 0
M  V30 4451 H 423.328 1.25074 1.43026 0
M  V30 4452 H 421.478 0.632508 3.83317 0
M  V30 4453 H 423.15 3.19313 3.32922 0
M  V30 4454 H 421.393 3.05248 3.08231 0
M  V30 4455 H 422.064 2.88305 4.70727 0
M  V30 4456 H 424.54 1.08392 4.01734 0
M  V30 4457 H 423.416 0.996383 5.39781 0
M  V30 4458 H 423.677 -0.425808 4.40045 0
M  V30 4459 N 422.737 -1.36956 0.779787 0
M  V30 4460 C 423.684 -2.30175 0.169697 0
M  V30 4461 C 424.654 -1.51501 -0.68094 0
M  V30 4462 O 425.839 -1.80042 -0.631629 0
M  V30 4463 C 422.979 -3.37985 -0.697131 0
M  V30 4464 C 422.092 -4.31661 0.170992 0
M  V30 4465 C 421.227 -5.2655 -0.701298 0
M  V30 4466 C 420.266 -6.11867 0.168869 0
M  V30 4467 N 419.403 -6.98973 -0.661855 0
M  V30 4468 H 424.243 -2.81767 0.970135 0
M  V30 4469 H 421.78 -1.38699 0.489994 0
M  V30 4470 H 423.738 -3.99128 -1.2146 0
M  V30 4471 H 422.368 -2.87739 -1.46309 0
M  V30 4472 H 421.42 -3.71756 0.80634 0
M  V30 4473 H 422.732 -4.91644 0.841875 0
M  V30 4474 H 421.886 -5.92937 -1.28494 0
M  V30 4475 H 420.625 -4.66998 -1.40584 0
M  V30 4476 H 419.63 -5.44452 0.764986 0
M  V30 4477 H 420.855 -6.73493 0.870863 0
M  V30 4478 H 418.801 -6.41941 -1.35086 0
M  V30 4479 H 418.718 -7.55984 -0.0484447 0
M  V30 4480 H 419.986 -7.6974 -1.22963 0
M  V30 4481 N 424.215 -0.530993 -1.48385 0
M  V30 4482 C 425.165 0.251092 -2.26613 0
M  V30 4483 C 426.149 0.908977 -1.32765 0
M  V30 4484 O 427.341 0.811616 -1.57295 0
M  V30 4485 C 424.47 1.29677 -3.17866 0
M  V30 4486 C 423.556 0.643627 -4.19188 0
M  V30 4487 N 423.947 -0.271223 -5.05072 0
M  V30 4488 C 422.245 0.900711 -4.3681 0
M  V30 4489 C 422.946 -0.648109 -5.78078 0
M  V30 4490 N 421.922 -0.00895987 -5.43599 0
M  V30 4491 H 425.724 -0.452702 -2.90393 0
M  V30 4492 H 423.238 -0.349091 -1.58604 0
M  V30 4493 H 425.235 1.87079 -3.72568 0
M  V30 4494 H 423.895 2.00193 -2.55642 0
M  V30 4495 H 424.906 -0.643883 -5.13882 0
M  V30 4496 H 421.583 1.59636 -3.85775 0
M  V30 4497 H 422.973 -1.39833 -6.57188 0
M  V30 4498 N 425.693 1.55336 -0.266172 0
M  V30 4499 C 426.643 2.18848 0.639497 0
M  V30 4500 C 427.627 1.1503 1.12503 0
M  V30 4501 O 428.819 1.40875 1.0716 0
M  V30 4502 C 425.948 2.90626 1.82733 0
M  V30 4503 C 425.034 4.01723 1.35939 0
M  V30 4504 N 425.425 5.02145 0.606988 0
M  V30 4505 C 423.723 4.1463 1.6431 0
M  V30 4506 C 424.424 5.80572 0.362138 0
M  V30 4507 N 423.4 5.35551 0.931971 0
M  V30 4508 H 427.202 2.93845 0.0567057 0
M  V30 4509 H 424.716 1.62252 -0.0693312 0
M  V30 4510 H 426.713 3.34569 2.48735 0
M  V30 4511 H 425.373 2.17137 2.41416 0
M  V30 4512 H 426.384 5.17271 0.255198 0
M  V30 4513 H 423.061 3.52326 2.23993 0
M  V30 4514 H 424.451 6.71472 -0.239848 0
M  V30 4515 N 427.171 -0.0066808 1.57599 0
M  V30 4516 C 428.42 -0.692078 1.89455 0
M  V30 4517 C 428.733 -1.75306 0.867586 0
M  V30 4518 O 429.939 -2.49262 1.07614 0
M  V30 4519 C 428.395 -1.2821 3.36289 0
M  V30 4520 C 428.003 -0.256291 4.47266 0
M  V30 4521 C 429.747 -1.94608 3.77264 0
M  V30 4522 C 427.654 -0.855927 5.85173 0
M  V30 4523 H 426.584 -0.262252 0.706923 0
M  V30 4524 H 429.235 0.052769 1.83424 0
M  V30 4525 H 427.617 -2.0774 3.37135 0
M  V30 4526 H 428.791 0.513923 4.57925 0
M  V30 4527 H 427.106 0.306862 4.15268 0
M  V30 4528 H 429.703 -2.40364 4.77629 0
M  V30 4529 H 430.046 -2.77382 3.10427 0
M  V30 4530 H 430.579 -1.21822 3.78688 0
M  V30 4531 H 427.318 -0.0671161 6.55466 0
M  V30 4532 H 426.838 -1.59546 5.78191 0
M  V30 4533 H 428.517 -1.35658 6.32618 0
M  V30 4534 N 428.649 -1.55105 -0.279332 0
M  V30 4535 C 429.612 -1.86783 -1.32834 0
M  V30 4536 C 430.612 -0.74199 -1.42657 0
M  V30 4537 O 431.802 -1.0102 -1.41918 0
M  V30 4538 C 428.934 -2.06746 -2.71052 0
M  V30 4539 H 430.127 -2.8055 -1.05979 0
M  V30 4540 H 427.68 -1.47499 -0.517087 0
M  V30 4541 H 428.415 -1.15339 -3.03097 0
M  V30 4542 H 428.2 -2.88711 -2.65309 0
M  V30 4543 H 429.69 -2.32549 -3.46858 0
M  V30 4544 N 430.127 0.543554 -1.4793 0
M  V30 4545 C 431.075 1.67039 -1.61866 0
M  V30 4546 C 432.069 1.62294 -0.48549 0
M  V30 4547 O 433.275 1.67315 -0.66376 0
M  V30 4548 H 429.65 0.552954 -0.509652 0
M  V30 4549 H 431.621 1.52426 -2.56533 0
M  V30 4550 C 430.37 3.05357 -1.6629 0
M  V30 4551 H 429.693 3.09696 -2.5284 0
M  V30 4552 H 431.133 3.83855 -1.80088 0
M  V30 4553 C 429.592 3.34531 -0.398861 0
M  V30 4554 O 430.122 3.98649 0.494162 0
M  V30 4555 N 428.328 2.89299 -0.2747 0
M  V30 4556 H 427.875 2.37298 -1.00236 0
M  V30 4557 H 427.833 3.09188 0.570075 0
M  V30 4558 N 431.605 1.3629 0.791371 0
M  V30 4559 C 432.568 1.30309 1.88553 0
M  V30 4560 C 433.568 0.211204 1.59407 0
M  V30 4561 O 434.758 0.465865 1.67855 0
M  V30 4562 C 431.89 1.01956 3.25297 0
M  V30 4563 H 433.083 2.27614 1.95273 0
M  V30 4564 H 430.636 1.21035 0.988953 0
M  V30 4565 H 431.371 0.050998 3.2426 0
M  V30 4566 H 431.156 1.80968 3.4784 0
M  V30 4567 H 432.646 1.0037 4.05359 0
M  V30 4568 N 433.083 -1.0153 1.20538 0
M  V30 4569 C 434.031 -2.12215 0.952235 0
M  V30 4570 C 435.025 -1.69123 -0.0968735 0
M  V30 4571 O 436.231 -1.7992 0.0536006 0
M  V30 4572 H 432.606 -0.693576 0.290613 0
M  V30 4573 H 434.577 -2.3075 1.89201 0
M  V30 4574 C 433.326 -3.43755 0.522287 0
M  V30 4575 H 432.649 -3.7734 1.32115 0
M  V30 4576 H 434.089 -4.22254 0.384389 0
M  V30 4577 C 432.548 -3.28088 -0.765489 0
M  V30 4578 O 433.078 -3.57921 -1.8236 0
M  V30 4579 N 431.284 -2.81333 -0.728011 0
M  V30 4580 H 430.831 -2.57255 0.133332 0
M  V30 4581 H 430.789 -2.71232 -1.58999 0
M  V30 4582 N 434.561 -1.01147 -1.20859 0
M  V30 4583 C 435.491 -0.597663 -2.25722 0
M  V30 4584 C 436.472 0.384744 -1.65692 0
M  V30 4585 O 437.657 0.271303 -1.92296 0
M  V30 4586 C 434.787 0.0700149 -3.47229 0
M  V30 4587 C 433.741 -0.832843 -4.19819 0
M  V30 4588 C 433.067 -0.0312202 -5.34691 0
M  V30 4589 C 434.367 -2.1385 -4.76514 0
M  V30 4590 H 436.061 -1.47423 -2.60589 0
M  V30 4591 H 433.607 -0.710301 -1.25263 0
M  V30 4592 H 435.56 0.37103 -4.19763 0
M  V30 4593 H 434.284 0.981259 -3.11511 0
M  V30 4594 H 432.943 -1.11778 -3.49144 0
M  V30 4595 H 432.591 0.881515 -4.95215 0
M  V30 4596 H 432.291 -0.632434 -5.84187 0
M  V30 4597 H 433.815 0.26346 -6.10031 0
M  V30 4598 H 435.229 -1.9002 -5.40893 0
M  V30 4599 H 433.626 -2.69012 -5.36426 0
M  V30 4600 H 434.696 -2.80495 -3.95538 0
M  V30 4601 N 436.039 1.36541 -0.78704 0
M  V30 4602 C 436.972 2.27831 -0.129765 0
M  V30 4603 C 437.95 1.47105 0.692732 0
M  V30 4604 O 439.134 1.7641 0.664222 0
M  V30 4605 C 436.261 3.28577 0.821883 0
M  V30 4606 C 435.307 4.26422 0.0814771 0
M  V30 4607 S 436.14 5.20919 -1.24112 0
M  V30 4608 C 437.296 6.25212 -0.293409 0
M  V30 4609 H 437.529 2.83229 -0.903811 0
M  V30 4610 H 435.062 1.43046 -0.581144 0
M  V30 4611 H 437.02 3.87123 1.3655 0
M  V30 4612 H 435.681 2.72096 1.56916 0
M  V30 4613 H 434.874 4.97554 0.803485 0
M  V30 4614 H 434.476 3.71944 -0.391589 0
M  V30 4615 H 436.768 6.75435 0.528622 0
M  V30 4616 H 437.711 7.01378 -0.973344 0
M  V30 4617 H 438.119 5.64407 0.102196 0
M  V30 4618 N 437.518 0.538854 1.48102 0
M  V30 4619 C 438.934 0.19732 1.58376 0
M  V30 4620 C 439.134 -1.29971 1.5398 0
M  V30 4621 O 438.19 -2.07861 1.43352 0
M  V30 4622 C 439.503 0.807716 2.89649 0
M  V30 4623 C 441.051 0.77726 3.03196 0
M  V30 4624 C 441.526 1.36639 4.37143 0
M  V30 4625 N 443.017 1.32875 4.43732 0
M  V30 4626 C 443.752 1.7544 5.45901 0
M  V30 4627 N 443.248 2.25776 6.54979 0
M  V30 4628 N 445.041 1.66623 5.36836 0
M  V30 4629 H 437.192 1.5117 1.49202 0
M  V30 4630 H 439.455 0.629327 0.708979 0
M  V30 4631 H 439.161 1.85909 2.98548 0
M  V30 4632 H 439.035 0.289975 3.76084 0
M  V30 4633 H 441.422 -0.265374 2.93904 0
M  V30 4634 H 441.503 1.33256 2.18349 0
M  V30 4635 H 441.147 2.408 4.47189 0
M  V30 4636 H 441.077 0.786689 5.20691 0
M  V30 4637 H 443.568 0.96037 3.65493 0
M  V30 4638 H 443.881 2.56226 7.29087 0
M  V30 4639 H 442.226 2.29775 6.55918 0
M  V30 4640 H 445.417 1.27089 4.50517 0
M  V30 4641 H 445.59 2.00115 6.16326 0
M  V30 4642 N 438.996 -1.55193 0.274407 0
M  V30 4643 C 439.944 -2.23924 -0.629362 0
M  V30 4644 C 440.938 -1.23602 -1.1584 0
M  V30 4645 O 442.144 -1.41535 -1.11211 0
M  V30 4646 H 438.519 -0.718637 -0.221507 0
M  V30 4647 H 440.49 -2.98388 -0.0268322 0
M  V30 4648 C 439.239 -2.97329 -1.80252 0
M  V30 4649 H 438.562 -3.74313 -1.40462 0
M  V30 4650 H 440.002 -3.48743 -2.41152 0
M  V30 4651 C 438.461 -2.0276 -2.69054 0
M  V30 4652 O 438.991 -1.57836 -3.69392 0
M  V30 4653 N 437.197 -1.69275 -2.36208 0
M  V30 4654 H 436.744 -2.06004 -1.54661 0
M  V30 4655 H 436.702 -1.06271 -2.95895 0
M  V30 4656 N 440.474 -0.00167713 -1.576 0
M  V30 4657 C 441.722 0.681471 -1.90264 0
M  V30 4658 C 442.043 1.7422 -0.875924 0
M  V30 4659 O 441.313 1.95709 0.0864412 0
M  V30 4660 H 439.893 0.254696 -0.702239 0
M  V30 4661 H 442.555 -0.0429996 -1.94853 0
M  V30 4662 H 441.651 1.15166 -2.90075 0
M  V30 4663 N 441.952 1.55251 0.271103 0
M  V30 4664 C 442.915 1.87484 1.31842 0
M  V30 4665 C 443.915 0.749545 1.42262 0
M  V30 4666 O 445.105 1.01771 1.4138 0
M  V30 4667 C 442.237 2.0818 2.69951 0
M  V30 4668 H 443.43 2.81108 1.0449 0
M  V30 4669 H 440.983 1.47771 0.509258 0
M  V30 4670 H 441.718 1.16944 3.02481 0
M  V30 4671 H 441.503 2.90114 2.63774 0
M  V30 4672 H 442.993 2.34385 3.4562 0
M  V30 4673 N 443.43 -0.535701 1.48216 0
M  V30 4674 C 444.707 -1.29683 1.46429 0
M  V30 4675 C 445.087 -2.10391 0.172852 0
M  V30 4676 O 444.435 -2.12282 -0.845488 0
M  V30 4677 C 444.645 -2.18313 2.72287 0
M  V30 4678 C 445.993 -2.78639 3.20383 0
M  V30 4679 O 447.017 -2.28604 2.73164 0
M  V30 4680 O 445.876 -3.69636 4.02531 0
M  V30 4681 H 442.97 -0.585026 0.584529 0
M  V30 4682 H 445.516 -0.552827 1.60443 0
M  V30 4683 H 444.288 -1.58421 3.57797 0
M  V30 4684 H 443.911 -2.99971 2.60966 0
M  V30 4685 N 444.908 -1.36708 -0.784132 0
M  V30 4686 C 446.138 -1.34203 -1.57077 0
M  V30 4687 C 446.546 0.0774945 -1.89041 0
M  V30 4688 O 445.889 1.04628 -1.50992 0
M  V30 4689 C 445.951 -2.10351 -2.91535 0
M  V30 4690 C 445.615 -3.59405 -2.82272 0
M  V30 4691 C 446.612 -4.53545 -2.54151 0
M  V30 4692 C 444.297 -4.02362 -3.00683 0
M  V30 4693 C 446.291 -5.8862 -2.44551 0
M  V30 4694 C 443.978 -5.37526 -2.90704 0
M  V30 4695 C 444.976 -6.30468 -2.62677 0
M  V30 4696 O 444.664 -7.63149 -2.52702 0
M  V30 4697 H 444.396 -0.461791 -0.493685 0
M  V30 4698 H 446.95 -1.80475 -0.980712 0
M  V30 4699 H 445.18 -1.5875 -3.52612 0
M  V30 4700 H 446.869 -2.00636 -3.52845 0
M  V30 4701 H 447.635 -4.21669 -2.39625 0
M  V30 4702 H 443.514 -3.30389 -3.21503 0
M  V30 4703 H 447.058 -6.61133 -2.22596 0
M  V30 4704 H 442.955 -5.69008 -3.04795 0
M  V30 4705 H 443.723 -7.73331 -2.68144 0
M  V30 4706 N 446.386 1.0089 -1.21074 0
M  V30 4707 C 447.349 2.0775 -0.968129 0
M  V30 4708 C 448.349 1.6069 0.0593445 0
M  V30 4709 O 449.539 1.73293 -0.177525 0
M  V30 4710 C 446.671 3.37794 -0.459108 0
M  V30 4711 H 447.864 2.30707 -1.9161 0
M  V30 4712 H 445.417 1.17807 -1.02719 0
M  V30 4713 H 446.152 3.20516 0.49397 0
M  V30 4714 H 445.937 3.7328 -1.20019 0
M  V30 4715 H 447.427 4.16454 -0.309099 0
M  V30 4716 N 447.864 1.01787 1.20321 0
M  V30 4717 C 449.11 0.708985 1.90003 0
M  V30 4718 C 449.443 -0.759572 1.78729 0
M  V30 4719 O 448.718 -1.55198 1.17234 0
M  V30 4720 C 449.001 1.1469 3.41348 0
M  V30 4721 C 448.854 2.67586 3.61549 0
M  V30 4722 C 450.173 0.71915 4.34185 0
M  V30 4723 H 447.292 0.259034 0.689978 0
M  V30 4724 H 449.934 1.26584 1.41692 0
M  V30 4725 H 448.084 0.673128 3.82624 0
M  V30 4726 H 449.756 3.22826 3.29517 0
M  V30 4727 H 447.999 3.085 3.04976 0
M  V30 4728 H 448.67 2.93281 4.67643 0
M  V30 4729 H 451.146 1.12647 4.00562 0
M  V30 4730 H 450.022 1.05358 5.38694 0
M  V30 4731 H 450.283 -0.379111 4.40472 0
M  V30 4732 N 449.342 -1.36122 0.79427 0
M  V30 4733 C 450.572 -2.03067 0.380437 0
M  V30 4734 C 450.98 -1.60018 -1.00949 0
M  V30 4735 O 450.323 -0.787425 -1.65968 0
M  V30 4736 C 450.385 -3.57587 0.37034 0
M  V30 4737 C 450.049 -4.23855 1.70867 0
M  V30 4738 C 451.046 -4.46404 2.66496 0
M  V30 4739 C 448.731 -4.61229 1.9893 0
M  V30 4740 C 450.725 -5.05412 3.88378 0
M  V30 4741 C 448.412 -5.19953 3.21079 0
M  V30 4742 C 449.41 -5.41985 4.15621 0
M  V30 4743 O 449.098 -5.99475 5.35616 0
M  V30 4744 H 448.83 -0.658168 0.154243 0
M  V30 4745 H 451.384 -1.7498 1.0757 0
M  V30 4746 H 449.614 -3.84814 -0.381444 0
M  V30 4747 H 451.303 -4.05895 -0.0194894 0
M  V30 4748 H 452.069 -4.17921 2.46103 0
M  V30 4749 H 447.948 -4.43402 1.26158 0
M  V30 4750 H 451.492 -5.22524 4.62185 0
M  V30 4751 H 447.389 -5.47862 3.41347 0
M  V30 4752 H 448.157 -6.17937 5.36745 0
M  V30 4753 N 450.82 -0.546701 -1.47814 0
M  V30 4754 C 452.069 -0.0166497 -2.01693 0
M  V30 4755 C 452.382 1.33721 -1.42752 0
M  V30 4756 O 453.588 1.95658 -1.8823 0
M  V30 4757 C 452.044 0.0206769 -3.59894 0
M  V30 4758 C 451.652 -1.3293 -4.27824 0
M  V30 4759 C 453.396 0.498674 -4.21561 0
M  V30 4760 C 451.303 -1.25165 -5.78003 0
M  V30 4761 H 450.233 -0.0024541 -0.753996 0
M  V30 4762 H 452.884 -0.692984 -1.69912 0
M  V30 4763 H 451.266 0.76244 -3.88591 0
M  V30 4764 H 452.44 -2.08795 -4.10781 0
M  V30 4765 H 450.755 -1.74438 -3.78101 0
M  V30 4766 H 453.352 0.575 -5.31599 0
M  V30 4767 H 453.695 1.5083 -3.88016 0
M  V30 4768 H 454.228 -0.18791 -3.97356 0
M  V30 4769 H 450.967 -2.23695 -6.1615 0
M  V30 4770 H 450.487 -0.53464 -5.97412 0
M  V30 4771 H 452.166 -0.949299 -6.39998 0
M  V30 4772 N 452.299 1.55045 -0.282633 0
M  V30 4773 C 453.247 2.24254 0.617478 0
M  V30 4774 C 454.241 1.24215 1.15183 0
M  V30 4775 O 455.447 1.42123 1.10459 0
M  V30 4776 H 451.822 0.719801 0.217693 0
M  V30 4777 H 453.793 2.98398 0.0110076 0
M  V30 4778 C 452.542 2.98281 1.78672 0
M  V30 4779 H 451.865 3.75053 1.38475 0
M  V30 4780 H 453.305 3.50017 2.393 0
M  V30 4781 C 451.764 2.04184 2.67975 0
M  V30 4782 O 452.294 1.59792 3.6855 0
M  V30 4783 N 450.5 1.70526 2.35307 0
M  V30 4784 H 450.047 2.06821 1.53567 0
M  V30 4785 H 450.005 1.07839 2.95327 0
M  V30 4786 N 453.777 0.010035 1.57597 0
M  V30 4787 C 455.005 -0.683413 1.95287 0
M  V30 4788 C 455.42 -1.66747 0.885481 0
M  V30 4789 O 454.777 -1.82003 -0.134629 0
M  V30 4790 C 454.828 -1.40652 3.33015 0
M  V30 4791 O 454.549 -0.461916 4.35658 0
M  V30 4792 C 456.05 -2.19356 3.85225 0
M  V30 4793 H 453.27 -0.189708 0.643624 0
M  V30 4794 H 455.814 0.0641359 2.04399 0
M  V30 4795 H 453.969 -2.10562 3.2518 0
M  V30 4796 H 454.383 -0.973215 5.15392 0
M  V30 4797 H 455.857 -2.65433 4.83993 0
M  V30 4798 H 456.334 -3.02457 3.18459 0
M  V30 4799 H 456.94 -1.54442 3.96267 0
M  V30 4800 N 455.255 -1.55392 -0.262866 0
M  V30 4801 C 456.218 -1.88181 -1.30846 0
M  V30 4802 C 457.218 -0.757079 -1.41862 0
M  V30 4803 O 458.408 -1.02519 -1.40838 0
M  V30 4804 C 455.54 -2.09609 -2.68844 0
M  V30 4805 H 456.733 -2.81659 -1.02997 0
M  V30 4806 H 454.286 -1.48039 -0.501414 0
M  V30 4807 H 455.021 -1.18547 -3.01856 0
M  V30 4808 H 454.806 -2.91508 -2.62231 0
M  V30 4809 H 456.296 -2.36215 -3.44372 0
M  V30 4810 N 456.733 0.527833 -1.48498 0
M  V30 4811 C 457.665 1.6482 -1.5927 0
M  V30 4812 C 458.678 1.55659 -0.476869 0
M  V30 4813 O 459.867 1.62081 -0.747806 0
M  V30 4814 C 456.967 3.0348 -1.50842 0
M  V30 4815 C 456.14 3.381 -2.77502 0
M  V30 4816 C 455.199 4.5605 -2.62497 0
M  V30 4817 O 454.225 4.59165 -3.36387 0
M  V30 4818 N 455.427 5.54353 -1.72257 0
M  V30 4819 H 458.192 1.56015 -2.55889 0
M  V30 4820 H 455.753 0.715152 -1.45249 0
M  V30 4821 H 457.745 3.80264 -1.38496 0
M  V30 4822 H 456.315 3.06352 -0.621887 0
M  V30 4823 H 455.535 2.50473 -3.04396 0
M  V30 4824 H 456.823 3.58017 -3.61527 0
M  V30 4825 H 456.221 5.54617 -1.11431 0
M  V30 4826 H 454.778 6.30347 -1.65849 0
M  V30 4827 N 458.211 1.37122 0.776871 0
M  V30 4828 C 459.121 1.34651 1.9211 0
M  V30 4829 C 460.137 0.246824 1.7224 0
M  V30 4830 O 461.313 0.48134 1.95563 0
M  V30 4831 C 458.378 1.14748 3.2716 0
M  V30 4832 C 457.439 2.34308 3.5972 0
M  V30 4833 C 456.672 2.15345 4.88326 0
M  V30 4834 O 456.895 1.13507 5.58992 0
M  V30 4835 O 455.829 3.03414 5.1983 0
M  V30 4836 H 459.655 2.31013 1.97146 0
M  V30 4837 H 457.24 1.17799 0.918901 0
M  V30 4838 H 459.122 1.05616 4.0795 0
M  V30 4839 H 457.797 0.214562 3.22988 0
M  V30 4840 H 456.704 2.49011 2.79185 0
M  V30 4841 H 458.037 3.26149 3.68629 0
M  V30 4842 N 459.689 -1.00246 1.21608 0
M  V30 4843 C 460.936 -1.74061 1.03485 0
M  V30 4844 C 461.264 -1.89658 -0.431308 0
M  V30 4845 O 460.519 -1.42976 -1.33627 0
M  V30 4846 C 460.818 -3.15448 1.68009 0
M  V30 4847 C 460.484 -3.19792 3.17874 0
M  V30 4848 C 459.146 -3.20685 3.58768 0
M  V30 4849 C 461.498 -3.16835 4.13842 0
M  V30 4850 C 458.826 -3.16309 4.94131 0
M  V30 4851 C 461.178 -3.14001 5.49169 0
M  V30 4852 C 459.842 -3.13204 5.89457 0
M  V30 4853 H 459.112 -0.636934 0.378677 0
M  V30 4854 H 461.759 -1.17473 1.51236 0
M  V30 4855 H 460.064 -3.75284 1.12557 0
M  V30 4856 H 461.761 -3.71285 1.51487 0
M  V30 4857 H 458.351 -3.19842 2.85305 0
M  V30 4858 H 462.535 -3.15303 3.83272 0
M  V30 4859 H 457.791 -3.14032 5.24589 0
M  V30 4860 H 461.965 -3.10667 6.23265 0
M  V30 4861 H 459.592 -3.09568 6.94314 0
M  V30 4862 N 461.167 -1.02423 -1.1978 0
M  V30 4863 C 462.444 -0.632802 -1.85081 0
M  V30 4864 C 462.824 0.888745 -1.9148 0
M  V30 4865 O 462.172 1.78357 -1.42832 0
M  V30 4866 C 462.382 -1.28947 -3.24305 0
M  V30 4867 C 463.73 -1.40976 -4.00513 0
M  V30 4868 O 464.754 -1.24628 -3.33686 0
M  V30 4869 O 463.613 -1.67467 -5.20209 0
M  V30 4870 H 460.707 -0.219348 -0.79738 0
M  V30 4871 H 463.253 -1.12209 -1.27307 0
M  V30 4872 H 462.025 -2.3288 -3.14456 0
M  V30 4873 H 461.648 -0.787748 -3.89718 0
M  V30 4874 N 462.645 1.35699 -0.801477 0
M  V30 4875 C 463.893 1.9852 -0.37871 0
M  V30 4876 C 464.214 1.63907 1.05638 0
M  V30 4877 O 463.484 0.919013 1.73006 0
M  V30 4878 H 462.064 0.734322 -0.137042 0
M  V30 4879 H 464.726 1.65697 -1.02619 0
M  V30 4880 H 463.822 3.08382 -0.480284 0
M  V30 4881 N 464.123 0.554532 1.47522 0
M  V30 4882 C 465.348 0.0322661 2.07375 0
M  V30 4883 C 465.773 -1.25079 1.40488 0
M  V30 4884 O 465.131 -1.74859 0.47896 0
M  V30 4885 C 465.179 -0.149397 3.6029 0
M  V30 4886 O 464.283 -1.21259 3.9417 0
M  V30 4887 H 463.624 0.0501228 0.662106 0
M  V30 4888 H 466.154 0.769452 1.8958 0
M  V30 4889 H 466.164 -0.364437 4.06369 0
M  V30 4890 H 464.839 0.787743 4.08372 0
M  V30 4891 H 463.416 -0.97825 3.5984 0
M  V30 4892 N 465.601 -1.54893 0.290851 0
M  V30 4893 C 466.878 -1.91991 -0.373989 0
M  V30 4894 C 467.258 -1.21694 -1.72493 0
M  V30 4895 O 466.606 -0.34917 -2.25816 0
M  V30 4896 C 466.816 -3.45419 -0.498703 0
M  V30 4897 C 468.164 -4.1748 -0.774298 0
M  V30 4898 O 469.188 -3.51398 -0.582908 0
M  V30 4899 O 468.047 -5.3445 -1.14129 0
M  V30 4900 H 465.141 -0.800593 -0.207315 0
M  V30 4901 H 467.687 -1.66297 0.338164 0
M  V30 4902 H 466.459 -3.88688 0.451392 0
M  V30 4903 H 466.082 -3.77117 -1.25972 0
M  V30 4904 N 467.08 -0.0183926 -1.57589 0
M  V30 4905 C 468.305 0.676634 -1.96052 0
M  V30 4906 C 468.73 1.6548 -0.894307 0
M  V30 4907 O 468.088 1.80712 0.145849 0
M  V30 4908 C 468.136 1.36872 -3.33614 0
M  V30 4909 O 467.24 2.48372 -3.29219 0
M  V30 4910 H 466.581 0.1786 -0.63953 0
M  V30 4911 H 469.111 -0.077056 -2.04455 0
M  V30 4912 H 469.121 1.72797 -3.69601 0
M  V30 4913 H 467.796 0.651636 -4.10763 0
M  V30 4914 H 466.373 2.14639 -3.04934 0
M  V30 4915 N 468.558 1.5553 0.254621 0
M  V30 4916 C 469.806 1.7665 0.981793 0
M  V30 4917 C 470.127 0.580963 1.86145 0
M  V30 4918 O 469.397 -0.403537 1.91699 0
M  V30 4919 H 467.977 0.651475 0.365498 0
M  V30 4920 H 470.639 1.92958 0.274426 0
M  V30 4921 H 469.735 2.67486 1.60802 0
M  V30 4922 N 470.036 -0.519951 1.48776 0
M  V30 4923 C 470.999 -1.60574 1.6355 0
M  V30 4924 C 471.999 -1.52557 0.508234 0
M  V30 4925 O 473.189 -1.56047 0.774262 0
M  V30 4926 C 470.321 -3.00211 1.61512 0
M  V30 4927 H 471.514 -1.4881 2.60376 0
M  V30 4928 H 469.067 -0.742772 1.37523 0
M  V30 4929 H 469.802 -3.17471 0.662009 0
M  V30 4930 H 469.587 -3.07439 2.43359 0
M  V30 4931 H 471.077 -3.79134 1.75064 0
M  V30 4932 N 471.514 -1.37532 -0.769588 0
M  V30 4933 C 472.93 -1.18379 -1.07045 0
M  V30 4934 C 473.13 -0.0214312 -2.01489 0
M  V30 4935 O 472.186 0.637809 -2.44312 0
M  V30 4936 C 473.499 -2.50338 -1.66588 0
M  V30 4937 C 475.047 -2.56879 -1.78835 0
M  V30 4938 C 475.522 -3.88974 -2.41792 0
M  V30 4939 N 477.013 -3.90428 -2.4924 0
M  V30 4940 C 477.748 -4.89388 -2.98809 0
M  V30 4941 N 477.244 -5.98745 -3.48535 0
M  V30 4942 N 479.037 -4.76791 -2.97703 0
M  V30 4943 H 471.188 -2.11921 -0.142541 0
M  V30 4944 H 473.451 -0.939608 -0.125863 0
M  V30 4945 H 473.157 -3.35767 -1.0466 0
M  V30 4946 H 473.031 -2.67583 -2.65856 0
M  V30 4947 H 475.418 -1.71856 -2.39895 0
M  V30 4948 H 475.499 -2.43516 -0.783166 0
M  V30 4949 H 475.143 -4.74412 -1.81371 0
M  V30 4950 H 475.073 -3.99641 -3.4292 0
M  V30 4951 H 477.564 -3.11433 -2.14052 0
M  V30 4952 H 477.877 -6.70205 -3.84767 0
M  V30 4953 H 476.222 -6.02387 -3.46634 0
M  V30 4954 H 479.413 -3.90478 -2.58157 0
M  V30 4955 H 479.586 -5.54069 -3.36024 0
M  V30 4956 N 472.992 0.995999 -1.22138 0
M  V30 4957 C 474.403 1.54961 -1.04135 0
M  V30 4958 C 474.754 1.92159 0.396147 0
M  V30 4959 O 473.879 1.74435 1.28069 0
M  V30 4960 C 474.474 2.81581 -1.88408 0
M  V30 4961 C 473.033 3.33396 -1.74712 0
M  V30 4962 C 472.18 2.06509 -1.85066 0
M  V30 4963 H 475.131 0.817436 -1.36028 0
M  V30 4964 H 475.152 3.53822 -1.39966 0
M  V30 4965 H 474.664 2.54476 -2.93025 0
M  V30 4966 H 472.765 3.65416 -0.728159 0
M  V30 4967 H 472.878 4.04208 -2.57202 0
M  V30 4968 H 471.242 2.19925 -1.28472 0
M  V30 4969 H 472.025 1.81804 -2.91208 0
M  V30 4970 N 474.47 1.03057 1.19235 0
M  V30 4971 C 475.747 0.642608 1.84743 0
M  V30 4972 C 476.127 -0.878577 1.91948 0
M  V30 4973 O 475.475 -1.77597 1.43776 0
M  V30 4974 C 475.685 1.30665 3.23616 0
M  V30 4975 C 477.033 1.43098 3.9976 0
M  V30 4976 O 478.057 1.26396 3.3302 0
M  V30 4977 O 476.916 1.70223 5.19313 0
M  V30 4978 H 474.01 0.223573 0.796206 0
M  V30 4979 H 476.556 1.12883 1.26711 0
M  V30 4980 H 475.328 2.34544 3.13217 0
M  V30 4981 H 474.951 0.808405 3.89295 0
M  V30 4982 N 475.948 -1.35272 0.808662 0
M  V30 4983 C 476.858 -2.33546 0.222079 0
M  V30 4984 C 477.874 -1.6196 -0.636011 0
M  V30 4985 O 479.05 -1.93822 -0.547274 0
M  V30 4986 C 476.115 -3.41148 -0.61795 0
M  V30 4987 C 475.176 -4.28507 0.260875 0
M  V30 4988 C 474.409 -5.3097 -0.539156 0
M  V30 4989 O 474.632 -5.42123 -1.77367 0
M  V30 4990 O 473.566 -6.01858 0.0710526 0
M  V30 4991 H 477.392 -2.85515 1.03512 0
M  V30 4992 H 474.977 -1.38079 0.570495 0
M  V30 4993 H 476.859 -4.06889 -1.09634 0
M  V30 4994 H 475.534 -2.91447 -1.40855 0
M  V30 4995 H 474.441 -3.6574 0.786451 0
M  V30 4996 H 475.774 -4.81611 1.01547 0
M  V30 4997 N 477.426 -0.562348 -1.47226 0
M  V30 4998 C 478.389 0.172056 -2.28553 0
M  V30 4999 C 479.389 0.837928 -1.37242 0
M  V30 5000 O 480.579 0.693001 -1.59822 0
M  V30 5001 C 477.711 1.25223 -3.17068 0
M  V30 5002 H 478.904 -0.542401 -2.94954 0
M  V30 5003 H 476.457 -0.319493 -1.53 0
M  V30 5004 H 477.192 1.99892 -2.55369 0
M  V30 5005 H 476.977 0.779515 -3.84273 0
M  V30 5006 H 478.467 1.76791 -3.78332 0
M  V30 5007 N 478.904 1.54736 -0.299062 0
M  V30 5008 C 480.15 2.00397 0.311244 0
M  V30 5009 C 480.483 1.18716 1.53688 0
M  V30 5010 O 479.758 0.263154 1.92712 0
M  V30 5011 C 480.041 3.53817 0.669761 0
M  V30 5012 C 479.894 4.46239 -0.564882 0
M  V30 5013 C 481.213 4.13856 1.49702 0
M  V30 5014 H 478.332 0.728493 0.111653 0
M  V30 5015 H 480.974 1.85506 -0.410774 0
M  V30 5016 H 479.124 3.66637 1.28491 0
M  V30 5017 H 480.796 4.45328 -1.20337 0
M  V30 5018 H 479.039 4.16916 -1.19849 0
M  V30 5019 H 479.71 5.5134 -0.269918 0
M  V30 5020 H 482.186 4.04461 0.977284 0
M  V30 5021 H 481.062 5.21365 1.71666 0
M  V30 5022 H 481.323 3.65608 2.48563 0
M  V30 5023 N 480.382 0.0267497 1.57577 0
M  V30 5024 C 481.607 -0.666227 1.96408 0
M  V30 5025 C 482.032 -1.65004 0.903071 0
M  V30 5026 O 481.39 -1.80787 -0.136263 0
M  V30 5027 C 481.438 -1.35101 3.34335 0
M  V30 5028 O 480.542 -2.46623 3.30531 0
M  V30 5029 H 479.883 -0.175206 0.640468 0
M  V30 5030 H 482.413 0.0878977 2.04411 0
M  V30 5031 H 482.423 -1.70834 3.70513 0
M  V30 5032 H 481.098 -0.629844 4.11103 0
M  V30 5033 H 479.675 -2.13019 3.06068 0
M  V30 5034 N 481.861 -1.55662 -0.24637 0
M  V30 5035 C 483.107 -1.78698 -0.971525 0
M  V30 5036 C 483.462 -0.59577 -1.82944 0
M  V30 5037 O 482.755 0.41097 -1.87141 0
M  V30 5038 C 482.949 -3.04885 -1.86494 0
M  V30 5039 C 482.778 -4.36165 -1.09501 0
M  V30 5040 C 481.548 -4.98929 -0.799895 0
M  V30 5041 C 483.746 -5.12126 -0.472334 0
M  V30 5042 N 481.728 -6.139 -0.00595299 0
M  V30 5043 C 483.099 -6.1972 0.18616 0
M  V30 5044 C 485.154 -4.96426 -0.382854 0
M  V30 5045 C 483.857 -7.13321 0.925542 0
M  V30 5046 C 485.883 -5.90405 0.342999 0
M  V30 5047 C 485.245 -6.97407 0.990128 0
M  V30 5048 H 481.344 -0.705852 -0.336597 0
M  V30 5049 H 483.928 -1.93157 -0.244615 0
M  V30 5050 H 482.099 -2.91753 -2.56388 0
M  V30 5051 H 483.831 -3.16212 -2.5257 0
M  V30 5052 H 480.586 -4.60365 -1.11181 0
M  V30 5053 H 481.01 -6.75938 0.379127 0
M  V30 5054 H 485.652 -4.13777 -0.868834 0
M  V30 5055 H 483.37 -7.9547 1.42312 0
M  V30 5056 H 486.956 -5.80333 0.412907 0
M  V30 5057 H 485.836 -7.68874 1.54282 0
M  V30 5058 N 483.339 0.512053 -1.4905 0
M  V30 5059 C 484.587 1.26436 -1.57665 0
M  V30 5060 C 484.908 1.93255 -0.260293 0
M  V30 5061 O 484.178 1.82206 0.719564 0
M  V30 5062 H 482.758 0.469658 -0.580888 0
M  V30 5063 H 485.42 0.594398 -1.85615 0
M  V30 5064 H 484.516 2.03417 -2.36702 0
M  V30 5065 N 484.817 1.37938 0.762283 0
M  V30 5066 C 485.764 1.34467 1.87583 0
M  V30 5067 C 486.734 0.208633 1.64785 0
M  V30 5068 O 487.919 0.399494 1.86571 0
M  V30 5069 C 485.059 1.16692 3.24772 0
M  V30 5070 C 484.172 2.39608 3.59461 0
M  V30 5071 C 483.307 2.14631 4.85908 0
M  V30 5072 C 482.346 3.33364 5.13357 0
M  V30 5073 N 481.483 3.07877 6.30996 0
M  V30 5074 H 486.323 2.29669 1.89885 0
M  V30 5075 H 483.86 1.14116 0.928219 0
M  V30 5076 H 485.818 1.04405 4.03925 0
M  V30 5077 H 484.448 0.251333 3.2182 0
M  V30 5078 H 483.5 2.626 2.75219 0
M  V30 5079 H 484.812 3.28128 3.75678 0
M  V30 5080 H 483.966 1.99429 5.72986 0
M  V30 5081 H 482.705 1.23463 4.71814 0
M  V30 5082 H 481.71 3.49094 4.24751 0
M  V30 5083 H 482.935 4.25395 5.29354 0
M  V30 5084 H 480.881 2.19348 6.18241 0
M  V30 5085 H 480.798 3.89944 6.47673 0
M  V30 5086 H 482.066 2.96313 7.20985 0
M  V30 5087 N 486.295 -0.989507 1.22664 0
M  V30 5088 C 487.544 -1.72375 1.04737 0
M  V30 5089 C 487.857 -1.91096 -0.417316 0
M  V30 5090 O 489.063 -2.6188 -0.716334 0
M  V30 5091 C 487.519 -3.10161 1.82561 0
M  V30 5092 C 487.127 -2.99358 3.333 0
M  V30 5093 C 488.871 -3.87607 1.73093 0
M  V30 5094 C 486.778 -4.32319 4.03552 0
M  V30 5095 H 485.708 -0.646326 0.388302 0
M  V30 5096 H 488.359 -1.10437 1.46546 0
M  V30 5097 H 486.741 -3.728 1.33552 0
M  V30 5098 H 487.915 -2.45863 3.89728 0
M  V30 5099 H 486.23 -2.35392 3.43481 0
M  V30 5100 H 488.827 -4.86025 2.22899 0
M  V30 5101 H 489.17 -4.10509 0.691976 0
M  V30 5102 H 489.703 -3.31652 2.19663 0
M  V30 5103 H 486.442 -4.14616 5.07714 0
M  V30 5104 H 485.962 -4.85714 3.51911 0
M  V30 5105 H 487.641 -5.01051 4.09337 0
M  V30 5106 N 487.773 -1.03688 -1.18687 0
M  V30 5107 C 489.189 -0.755413 -1.4059 0
M  V30 5108 C 489.389 0.656659 -1.905 0
M  V30 5109 O 488.445 1.42144 -2.08689 0
M  V30 5110 C 489.758 -1.7983 -2.41001 0
M  V30 5111 C 491.306 -1.81877 -2.54735 0
M  V30 5112 C 491.781 -2.85148 -3.58406 0
M  V30 5113 N 493.272 -2.84015 -3.6591 0
M  V30 5114 C 494.007 -3.60573 -4.45841 0
M  V30 5115 N 493.503 -4.46871 -5.29413 0
M  V30 5116 N 495.296 -3.49079 -4.40568 0
M  V30 5117 H 487.447 -1.94818 -0.846148 0
M  V30 5118 H 489.71 -0.842727 -0.434184 0
M  V30 5119 H 489.416 -2.81097 -2.1137 0
M  V30 5120 H 489.29 -1.62727 -3.40294 0
M  V30 5121 H 491.677 -0.812836 -2.83685 0
M  V30 5122 H 491.758 -2.03057 -1.55568 0
M  V30 5123 H 491.402 -3.85918 -3.30197 0
M  V30 5124 H 491.332 -2.61224 -4.57241 0
M  V30 5125 H 493.823 -2.21431 -3.0623 0
M  V30 5126 H 494.136 -5.02007 -5.87545 0
M  V30 5127 H 492.481 -4.5094 -5.28846 0
M  V30 5128 H 495.672 -2.81066 -3.74325 0
M  V30 5129 H 495.845 -4.08994 -5.02621 0
M  V30 5130 N 489.251 1.34841 -0.815825 0
M  V30 5131 C 490.497 1.98793 -0.401129 0
M  V30 5132 C 490.83 1.64548 1.03139 0
M  V30 5133 O 490.105 0.913487 1.71714 0
M  V30 5134 C 490.388 3.55143 -0.595409 0
M  V30 5135 C 490.241 3.99155 -2.07352 0
M  V30 5136 C 491.56 4.40092 -0.0268823 0
M  V30 5137 H 488.679 0.722146 -0.14722 0
M  V30 5138 H 491.321 1.59847 -1.02707 0
M  V30 5139 H 489.471 3.8845 -0.0625779 0
M  V30 5140 H 491.143 3.76216 -2.66945 0
M  V30 5141 H 489.386 3.49726 -2.56659 0
M  V30 5142 H 490.057 5.07971 -2.1603 0
M  V30 5143 H 492.533 4.13298 -0.482042 0
M  V30 5144 H 491.409 5.48562 -0.19267 0
M  V30 5145 H 491.67 4.29016 1.06759 0
M  V30 5146 N 490.729 0.570148 1.46925 0
M  V30 5147 C 492.006 -0.0153259 1.95594 0
M  V30 5148 C 492.386 -1.47232 1.51281 0
M  V30 5149 O 491.734 -2.15574 0.757624 0
M  V30 5150 C 491.944 0.143624 3.48704 0
M  V30 5151 C 493.292 0.00494484 4.246 0
M  V30 5152 O 494.316 0.0718214 3.56128 0
M  V30 5153 O 493.175 -0.141175 5.46318 0
M  V30 5154 H 490.269 -0.0568819 0.825041 0
M  V30 5155 H 492.815 0.637583 1.57267 0
M  V30 5156 H 491.587 1.15699 3.73804 0
M  V30 5157 H 491.21 -0.5463 3.93829 0
M  V30 5158 N 492.207 -1.54576 0.307264 0
M  V30 5159 C 493.17 -2.22423 -0.553224 0
M  V30 5160 C 494.17 -1.21231 -1.05639 0
M  V30 5161 O 495.36 -1.45923 -0.951419 0
M  V30 5162 C 492.492 -2.91552 -1.76664 0
M  V30 5163 H 493.685 -2.99874 0.0396484 0
M  V30 5164 H 491.238 -1.56192 0.0581629 0
M  V30 5165 H 491.973 -2.18196 -2.39918 0
M  V30 5166 H 491.758 -3.65738 -1.41343 0
M  V30 5167 H 493.248 -3.43292 -2.37783 0
M  V30 5168 N 493.685 -0.035106 -1.57561 0
M  V30 5169 C 494.617 0.973604 -2.07494 0
M  V30 5170 C 495.63 1.28504 -0.999534 0
M  V30 5171 O 496.819 1.24864 -1.27559 0
M  V30 5172 C 493.919 2.29945 -2.48955 0
M  V30 5173 C 493.092 2.1723 -3.79644 0
M  V30 5174 C 492.151 3.328 -4.07592 0
M  V30 5175 O 491.177 3.09418 -4.77754 0
M  V30 5176 N 492.379 4.56779 -3.58236 0
M  V30 5177 H 495.144 0.547525 -2.94656 0
M  V30 5178 H 492.705 0.151515 -1.61189 0
M  V30 5179 H 494.697 3.06097 -2.64739 0
M  V30 5180 H 493.267 2.64173 -1.67126 0
M  V30 5181 H 492.487 1.25768 -3.73599 0
M  V30 5182 H 493.775 2.05945 -4.65257 0
M  V30 5183 H 493.173 4.78668 -3.01485 0
M  V30 5184 H 491.73 5.30079 -3.79288 0
M  V30 5185 N 495.163 1.55791 0.238111 0
M  V30 5186 C 496.574 1.68383 0.806472 0
M  V30 5187 C 496.925 0.634157 1.85669 0
M  V30 5188 O 496.05 -0.217913 2.153 0
M  V30 5189 C 496.645 3.05268 1.46959 0
M  V30 5190 C 495.204 3.1977 1.98555 0
M  V30 5191 C 494.351 2.64279 0.839763 0
M  V30 5192 H 497.302 1.58694 0.0137535 0
M  V30 5193 H 497.323 3.00203 2.33792 0
M  V30 5194 H 496.835 3.81643 0.704993 0
M  V30 5195 H 494.936 2.48234 2.77868 0
M  V30 5196 H 495.049 4.26788 2.17689 0
M  V30 5197 H 493.413 2.22329 1.24265 0
M  V30 5198 H 494.196 3.43187 0.0881032 0
M  V30 5199 N 496.642 -0.504142 1.49319 0
M  V30 5200 C 497.888 -1.26033 1.58882 0
M  V30 5201 C 498.221 -1.92268 0.273274 0
M  V30 5202 O 497.496 -1.80567 -0.72291 0
M  V30 5203 C 497.779 -2.32976 2.7458 0
M  V30 5204 C 497.632 -1.71263 4.1592 0
M  V30 5205 C 498.951 -3.34561 2.85932 0
M  V30 5206 H 496.07 -0.456863 0.578312 0
M  V30 5207 H 498.712 -0.558965 1.81592 0
M  V30 5208 H 496.862 -2.92796 2.55348 0
M  V30 5209 H 498.534 -1.15294 4.4666 0
M  V30 5210 H 496.777 -1.01686 4.21714 0
M  V30 5211 H 497.448 -2.48816 4.92742 0
M  V30 5212 H 499.924 -2.84727 3.0343 0
M  V30 5213 H 498.8 -4.06754 3.68568 0
M  V30 5214 H 499.061 -3.96695 1.95154 0
M  V30 5215 N 498.12 -1.38341 -0.754957 0
M  V30 5216 C 499.067 -1.3546 -1.86867 0
M  V30 5217 C 500.037 -0.217369 -1.64672 0
M  V30 5218 O 501.222 -0.409383 -1.86356 0
M  V30 5219 C 498.362 -1.18413 -3.24149 0
M  V30 5220 C 497.475 -2.41511 -3.58185 0
M  V30 5221 C 496.61 -2.17205 -4.84763 0
M  V30 5222 C 495.649 -3.36081 -5.11582 0
M  V30 5223 N 494.786 -3.11219 -6.29354 0
M  V30 5224 H 499.626 -2.30672 -1.88664 0
M  V30 5225 H 497.163 -1.14607 -0.922154 0
M  V30 5226 H 499.121 -1.06545 -4.03366 0
M  V30 5227 H 497.751 -0.268397 -3.21682 0
M  V30 5228 H 496.803 -2.64056 -2.73822 0
M  V30 5229 H 498.115 -3.30115 -3.73932 0
M  V30 5230 H 497.269 -2.02465 -5.7192 0
M  V30 5231 H 496.008 -1.25964 -4.71152 0
M  V30 5232 H 495.013 -3.51341 -4.22894 0
M  V30 5233 H 496.238 -4.28196 -5.27091 0
M  V30 5234 H 494.184 -2.22624 -6.17069 0
M  V30 5235 H 494.101 -3.93373 -6.45596 0
M  V30 5236 H 495.369 -3.00132 -7.19403 0
M  V30 5237 N 499.598 0.982988 -1.23187 0
M  V30 5238 C 500.844 1.72648 -1.06398 0
M  V30 5239 C 501.177 1.90066 0.398561 0
M  V30 5240 O 500.452 1.45105 1.29518 0
M  V30 5241 C 500.735 3.12627 -1.78707 0
M  V30 5242 C 500.588 3.02795 -3.32618 0
M  V30 5243 C 501.907 4.11997 -1.54747 0
M  V30 5244 H 499.026 0.626649 -0.387918 0
M  V30 5245 H 501.668 1.14455 -1.51658 0
M  V30 5246 H 499.818 3.62308 -1.40234 0
M  V30 5247 H 501.49 2.60659 -3.80598 0
M  V30 5248 H 499.733 2.39362 -3.61785 0
M  V30 5249 H 500.404 4.01893 -3.78399 0
M  V30 5250 H 502.88 3.71114 -1.88186 0
M  V30 5251 H 501.756 5.08037 -2.07821 0
M  V30 5252 H 502.017 4.39462 -0.482249 0
M  V30 5253 N 501.076 1.04316 1.18135 0
M  V30 5254 C 502.306 0.767003 1.91835 0
M  V30 5255 C 502.714 -0.68002 1.76557 0
M  V30 5256 O 502.057 -1.47548 1.09432 0
M  V30 5257 C 502.119 1.05674 3.43618 0
M  V30 5258 C 501.783 2.49818 3.82675 0
M  V30 5259 C 502.78 3.48003 3.86251 0
M  V30 5260 C 500.465 2.84596 4.13897 0
M  V30 5261 C 502.459 4.79016 4.20503 0
M  V30 5262 C 500.146 4.15813 4.4782 0
M  V30 5263 C 501.144 5.12834 4.51099 0
M  V30 5264 O 500.832 6.41699 4.84229 0
M  V30 5265 H 500.564 0.278948 0.615763 0
M  V30 5266 H 503.118 1.3946 1.50798 0
M  V30 5267 H 501.348 0.372029 3.84906 0
M  V30 5268 H 503.037 0.767994 3.98568 0
M  V30 5269 H 503.803 3.22475 3.62264 0
M  V30 5270 H 499.682 2.09748 4.1052 0
M  V30 5271 H 503.226 5.54739 4.22978 0
M  V30 5272 H 499.123 4.41109 4.71268 0
M  V30 5273 H 499.891 6.46387 5.02121 0
M  V30 5274 N 502.554 -1.34406 0.822964 0
M  V30 5275 C 503.517 -2.2783 0.250271 0
M  V30 5276 C 504.517 -1.50288 -0.571854 0
M  V30 5277 O 505.707 -1.69825 -0.387952 0
M  V30 5278 C 502.839 -3.34663 -0.649137 0
M  V30 5279 H 504.032 -2.79992 1.07444 0
M  V30 5280 H 501.585 -1.44539 0.594829 0
M  V30 5281 H 502.32 -2.87714 -1.49637 0
M  V30 5282 H 502.105 -3.92052 -0.0611199 0
M  V30 5283 H 503.595 -4.04349 -1.04363 0
M  V30 5284 N 504.032 -0.577932 -1.46621 0
M  V30 5285 C 505.309 0.00495287 -1.95599 0
M  V30 5286 C 505.689 1.46428 -1.5206 0
M  V30 5287 O 505.037 2.1517 -0.769046 0
M  V30 5288 C 505.247 -0.162114 -3.48623 0
M  V30 5289 C 506.595 -0.0274623 -4.24591 0
M  V30 5290 O 507.619 -0.0907067 -3.56084 0
M  V30 5291 O 506.478 0.1122 -5.46385 0
M  V30 5292 H 503.572 0.0525057 -0.825332 0
M  V30 5293 H 506.118 -0.645914 -1.56927 0
M  V30 5294 H 504.89 -1.17679 -3.73185 0
M  V30 5295 H 504.513 0.525407 -3.94113 0
M  V30 5296 N 505.51 1.54411 -0.315457 0
M  V30 5297 C 506.473 2.22713 0.54142 0
M  V30 5298 C 507.473 1.2179 1.04995 0
M  V30 5299 O 508.663 1.46426 0.943667 0
M  V30 5300 C 505.795 2.92485 1.75116 0
M  V30 5301 H 506.988 2.99849 -0.0555508 0
M  V30 5302 H 504.541 1.56159 -0.0664453 0
M  V30 5303 H 505.276 2.19466 2.38758 0
M  V30 5304 H 505.061 3.66483 1.39401 0
M  V30 5305 H 506.551 3.44548 2.35959 0
M  V30 5306 N 506.988 0.0434614 1.5754 0
M  V30 5307 C 508.213 -0.645358 1.97104 0
M  V30 5308 C 508.638 -1.64037 0.920521 0
M  V30 5309 O 507.996 -1.80922 -0.11708 0
M  V30 5310 C 508.044 -1.31547 3.35749 0
M  V30 5311 O 507.148 -2.43103 3.33129 0
M  V30 5312 H 506.489 -0.168403 0.64229 0
M  V30 5313 H 509.019 0.109573 2.04306 0
M  V30 5314 H 509.029 -1.66895 3.72304 0
M  V30 5315 H 507.704 -0.586205 4.11748 0
M  V30 5316 H 506.281 -2.0976 3.0831 0
M  V30 5317 N 508.466 -1.55915 -0.229846 0
M  V30 5318 C 509.396 -1.94754 -1.28815 0
M  V30 5319 C 510.377 -0.814657 -1.49323 0
M  V30 5320 O 511.562 -1.07631 -1.61645 0
M  V30 5321 C 508.692 -2.25705 -2.63959 0
M  V30 5322 C 507.646 -3.41406 -2.5812 0
M  V30 5323 C 506.972 -3.57941 -3.97218 0
M  V30 5324 C 508.272 -4.76616 -2.13623 0
M  V30 5325 H 509.966 -2.83404 -0.965547 0
M  V30 5326 H 507.512 -1.36353 -0.463028 0
M  V30 5327 H 509.465 -2.51467 -3.38146 0
M  V30 5328 H 508.189 -1.339 -2.9789 0
M  V30 5329 H 506.848 -3.1568 -1.86391 0
M  V30 5330 H 506.496 -2.63526 -4.28443 0
M  V30 5331 H 506.196 -4.35757 -3.94195 0
M  V30 5332 H 507.72 -3.86042 -4.73079 0
M  V30 5333 H 509.134 -5.01637 -2.77549 0
M  V30 5334 H 507.531 -5.57655 -2.21677 0
M  V30 5335 H 508.601 -4.7253 -1.08829 0
M  V30 5336 N 509.944 0.496216 -1.49584 0
M  V30 5337 C 511.19 1.25189 -1.59548 0
M  V30 5338 C 511.523 1.9212 -0.283466 0
M  V30 5339 O 510.798 1.80947 0.713324 0
M  V30 5340 C 511.081 2.31516 -2.75812 0
M  V30 5341 C 510.934 1.69054 -4.16822 0
M  V30 5342 C 512.253 3.3304 -2.87702 0
M  V30 5343 H 509.372 0.45379 -0.580727 0
M  V30 5344 H 512.014 0.549327 -1.81886 0
M  V30 5345 H 510.164 2.91438 -2.56897 0
M  V30 5346 H 511.836 1.12923 -4.47265 0
M  V30 5347 H 510.079 0.994485 -4.22247 0
M  V30 5348 H 510.75 2.462 -4.94054 0
M  V30 5349 H 513.226 2.83114 -3.04936 0
M  V30 5350 H 512.102 4.04794 -3.7072 0
M  V30 5351 H 512.363 3.95655 -1.97255 0
M  V30 5352 N 511.423 1.38739 0.74761 0
M  V30 5353 C 512.67 1.35274 1.50689 0
M  V30 5354 C 512.998 -0.0553359 1.94421 0
M  V30 5355 O 512.253 -1.03365 1.66175 0
M  V30 5356 C 512.552 2.25992 2.7688 0
M  V30 5357 C 512.218 3.73854 2.5208 0
M  V30 5358 C 510.88 4.14145 2.45025 0
M  V30 5359 C 513.232 4.67427 2.30568 0
M  V30 5360 C 510.56 5.4609 2.14483 0
M  V30 5361 C 512.912 5.99635 2.01545 0
M  V30 5362 C 511.576 6.39004 1.92951 0
M  V30 5363 H 510.846 0.495003 0.55141 0
M  V30 5364 H 513.493 1.71145 0.859158 0
M  V30 5365 H 511.798 1.83196 3.46333 0
M  V30 5366 H 513.495 2.20611 3.34861 0
M  V30 5367 H 510.085 3.41913 2.58444 0
M  V30 5368 H 514.269 4.3714 2.34994 0
M  V30 5369 H 509.525 5.75528 2.06342 0
M  V30 5370 H 513.699 6.71678 1.83906 0
M  V30 5371 H 511.326 7.41165 1.6905 0
M  V30 5372 N 512.901 -0.976442 1.23707 0
M  V30 5373 C 514.312 -1.53284 1.06587 0
M  V30 5374 C 514.663 -1.92765 -0.365526 0
M  V30 5375 O 513.788 -1.7645 -1.25277 0
M  V30 5376 C 514.383 -2.78548 1.92864 0
M  V30 5377 C 512.942 -3.30574 1.79994 0
M  V30 5378 C 512.089 -2.03538 1.88328 0
M  V30 5379 H 515.04 -0.795692 1.37311 0
M  V30 5380 H 515.061 -3.5155 1.45577 0
M  V30 5381 H 514.573 -2.49782 2.97037 0
M  V30 5382 H 512.674 -3.64211 0.786202 0
M  V30 5383 H 512.787 -4.00065 2.636 0
M  V30 5384 H 511.151 -2.17853 1.31954 0
M  V30 5385 H 511.934 -1.77149 2.94063 0
M  V30 5386 N 514.379 -1.04941 -1.1758 0
M  V30 5387 C 515.309 -0.669172 -2.23706 0
M  V30 5388 C 516.29 0.331835 -1.66832 0
M  V30 5389 O 517.475 0.209988 -1.93061 0
M  V30 5390 C 514.605 -0.0404889 -3.47276 0
M  V30 5391 C 513.559 -0.965983 -4.16957 0
M  V30 5392 C 512.885 -0.201312 -5.34321 0
M  V30 5393 C 514.185 -2.28902 -4.69469 0
M  V30 5394 H 515.879 -1.55639 -2.55767 0
M  V30 5395 H 513.425 -0.749793 -1.22939 0
M  V30 5396 H 515.378 0.237298 -4.20731 0
M  V30 5397 H 514.102 0.881658 -3.14475 0
M  V30 5398 H 512.761 -1.22829 -3.45411 0
M  V30 5399 H 512.409 0.723519 -4.97769 0
M  V30 5400 H 512.109 -0.817968 -5.81879 0
M  V30 5401 H 513.633 0.0692499 -6.10561 0
M  V30 5402 H 515.047 -2.07132 -5.34574 0
M  V30 5403 H 513.444 -2.85942 -5.27596 0
M  V30 5404 H 514.514 -2.92937 -3.86414 0
M  V30 5405 N 515.857 1.33968 -0.830081 0
M  V30 5406 C 516.787 2.31911 -0.271911 0
M  V30 5407 C 517.768 1.58571 0.61556 0
M  V30 5408 O 518.953 1.86514 0.540946 0
M  V30 5409 C 516.083 3.42737 0.561146 0
M  V30 5410 C 515.037 4.27383 -0.229789 0
M  V30 5411 C 514.363 5.29742 0.726463 0
M  V30 5412 C 515.663 5.02 -1.44197 0
M  V30 5413 H 517.357 2.78844 -1.09025 0
M  V30 5414 H 514.903 1.34061 -0.52571 0
M  V30 5415 H 516.856 4.10276 0.961867 0
M  V30 5416 H 515.58 2.94471 1.41261 0
M  V30 5417 H 514.239 3.61456 -0.611964 0
M  V30 5418 H 513.887 4.77736 1.57408 0
M  V30 5419 H 513.587 5.87255 0.20142 0
M  V30 5420 H 515.111 6.00149 1.12489 0
M  V30 5421 H 516.525 5.62355 -1.11488 0
M  V30 5422 H 514.922 5.69122 -1.90317 0
M  V30 5423 H 515.992 4.31281 -2.2164 0
M  V30 5424 N 517.335 0.585699 1.46312 0
M  V30 5425 C 518.581 0.0725284 2.0267 0
M  V30 5426 C 518.914 -1.28523 1.45586 0
M  V30 5427 O 518.189 -1.84283 0.622101 0
M  V30 5428 C 518.472 0.0099788 3.60099 0
M  V30 5429 C 518.325 1.39685 4.27561 0
M  V30 5430 C 519.644 -0.689117 4.34671 0
M  V30 5431 H 516.763 0.0278307 0.736474 0
M  V30 5432 H 519.405 0.753472 1.74421 0
M  V30 5433 H 517.555 -0.56992 3.84297 0
M  V30 5434 H 519.227 2.02215 4.14617 0
M  V30 5435 H 517.47 1.96374 3.86807 0
M  V30 5436 H 518.141 1.30553 5.36339 0
M  V30 5437 H 520.617 -0.196446 4.15636 0
M  V30 5438 H 519.493 -0.701921 5.44393 0
M  V30 5439 H 519.754 -1.75101 4.05946 0
M  V30 5440 N 518.813 -1.54241 0.323641 0
M  V30 5441 C 519.776 -2.22997 -0.529602 0
M  V30 5442 C 520.776 -1.22345 -1.04347 0
M  V30 5443 O 521.966 -1.46924 -0.935889 0
M  V30 5444 C 519.098 -2.93409 -1.73562 0
M  V30 5445 H 520.291 -2.99815 0.0714518 0
M  V30 5446 H 517.844 -1.56121 0.0747258 0
M  V30 5447 H 518.579 -2.20729 -2.37591 0
M  V30 5448 H 518.364 -3.67217 -1.37456 0
M  V30 5449 H 519.854 -3.45794 -2.34128 0
M  V30 5450 N 520.291 -0.0518155 -1.57515 0
M  V30 5451 C 521.201 0.937539 -2.15052 0
M  V30 5452 C 522.217 1.34121 -1.10849 0
M  V30 5453 O 523.393 1.418 -1.4302 0
M  V30 5454 C 520.458 2.19379 -2.68466 0
M  V30 5455 C 519.519 1.84841 -3.87469 0
M  V30 5456 C 518.752 3.04477 -4.38326 0
M  V30 5457 O 518.975 4.17868 -3.88256 0
M  V30 5458 O 517.909 2.85453 -5.29906 0
M  V30 5459 H 521.735 0.478201 -2.99912 0
M  V30 5460 H 519.32 0.17012 -1.48428 0
M  V30 5461 H 521.202 2.93084 -3.02787 0
M  V30 5462 H 519.877 2.64449 -1.86677 0
M  V30 5463 H 518.784 1.08449 -3.58036 0
M  V30 5464 H 520.117 1.44569 -4.7049 0
M  V30 5465 N 521.769 1.56035 0.221574 0
M  V30 5466 C 522.997 1.8313 0.962864 0
M  V30 5467 C 523.412 0.630934 1.77946 0
M  V30 5468 O 522.769 -0.400519 1.78051 0
M  V30 5469 C 522.82 3.08742 1.88045 0
M  V30 5470 O 522.541 4.24147 1.09686 0
M  V30 5471 C 524.042 3.48824 2.73563 0
M  V30 5472 H 521.262 0.608775 0.282194 0
M  V30 5473 H 523.806 2.03124 0.23681 0
M  V30 5474 H 521.961 2.90723 2.56045 0
M  V30 5475 H 522.375 4.95505 1.71974 0
M  V30 5476 H 523.849 4.39752 3.3365 0
M  V30 5477 H 524.326 2.70575 3.45956 0
M  V30 5478 H 524.932 3.69282 2.10976 0
M  V30 5479 N 523.247 -0.488276 1.49845 0
M  V30 5480 C 524.494 -1.24157 1.59973 0
M  V30 5481 C 524.822 -1.92293 0.292182 0
M  V30 5482 O 524.077 -1.81942 -0.720813 0
M  V30 5483 C 524.376 -2.32152 2.71735 0
M  V30 5484 C 524.042 -1.81387 4.12807 0
M  V30 5485 C 522.704 -1.67262 4.51195 0
M  V30 5486 C 525.056 -1.43537 5.01045 0
M  V30 5487 C 522.384 -1.13685 5.7558 0
M  V30 5488 C 524.736 -0.914081 6.25961 0
M  V30 5489 C 523.4 -0.759327 6.63167 0
M  V30 5490 H 522.67 -0.454322 0.585383 0
M  V30 5491 H 525.317 -0.540261 1.83721 0
M  V30 5492 H 523.622 -3.08122 2.42008 0
M  V30 5493 H 525.319 -2.90164 2.76778 0
M  V30 5494 H 521.909 -1.93344 3.82513 0
M  V30 5495 H 526.093 -1.53292 4.72033 0
M  V30 5496 H 521.349 -1.00426 6.03096 0
M  V30 5497 H 525.523 -0.612066 6.93705 0
M  V30 5498 H 523.15 -0.342002 7.5943 0
M  V30 5499 N 524.725 -1.39134 -0.740242 0
M  V30 5500 C 525.688 -1.37217 -1.83587 0
M  V30 5501 C 526.688 -0.270221 -1.58513 0
M  V30 5502 O 527.878 -0.527843 -1.6601 0
M  V30 5503 C 525.01 -1.13959 -3.21288 0
M  V30 5504 H 526.203 -2.34705 -1.86691 0
M  V30 5505 H 523.756 -1.24622 -0.94335 0
M  V30 5506 H 524.491 -0.17131 -3.23847 0
M  V30 5507 H 524.276 -1.93754 -3.40884 0
M  V30 5508 H 525.766 -1.15346 -4.01354 0
M  V30 5509 N 526.204 0.969867 -1.24223 0
M  V30 5510 C 527.136 2.0669 -0.99055 0
M  V30 5511 C 528.149 1.62753 0.0392222 0
M  V30 5512 O 529.338 1.77403 -0.197561 0
M  V30 5513 C 526.438 3.35589 -0.472594 0
M  V30 5514 C 525.611 4.08444 -1.56499 0
M  V30 5515 C 524.67 5.15616 -1.05007 0
M  V30 5516 O 523.696 5.41911 -1.7413 0
M  V30 5517 N 524.898 5.80383 0.116641 0
M  V30 5518 H 527.663 2.28855 -1.93508 0
M  V30 5519 H 525.224 1.13733 -1.15223 0
M  V30 5520 H 527.216 4.04542 -0.112919 0
M  V30 5521 H 525.786 3.10311 0.377617 0
M  V30 5522 H 525.006 3.33798 -2.09696 0
M  V30 5523 H 526.294 4.53882 -2.29932 0
M  V30 5524 H 525.692 5.6142 0.694589 0
M  V30 5525 H 524.249 6.50462 0.417483 0
M  V30 5526 N 527.682 1.05563 1.17022 0
M  V30 5527 C 528.629 0.659893 2.21165 0
M  V30 5528 C 529.599 -0.339813 1.62587 0
M  V30 5529 O 530.784 -0.230378 1.89404 0
M  V30 5530 C 527.924 0.0447297 3.45071 0
M  V30 5531 C 527.037 1.09372 4.17926 0
M  V30 5532 C 526.172 0.445481 5.29329 0
M  V30 5533 C 525.211 1.47852 5.93975 0
M  V30 5534 N 524.348 0.854172 6.96885 0
M  V30 5535 H 529.188 1.55243 2.54369 0
M  V30 5536 H 526.725 0.776336 1.24946 0
M  V30 5537 H 528.683 -0.329404 4.15898 0
M  V30 5538 H 527.313 -0.811244 3.1244 0
M  V30 5539 H 526.365 1.58564 3.45777 0
M  V30 5540 H 527.677 1.87773 4.62107 0
M  V30 5541 H 526.831 0.0179688 6.06697 0
M  V30 5542 H 525.57 -0.370481 4.86291 0
M  V30 5543 H 524.575 1.91601 5.15334 0
M  V30 5544 H 525.8 2.29645 6.39093 0
M  V30 5545 H 523.746 0.0587882 6.55974 0
M  V30 5546 H 523.663 1.57567 7.39397 0
M  V30 5547 H 524.931 0.451559 7.78191 0
M  V30 5548 N 529.16 -1.33526 0.837174 0
M  V30 5549 C 530.093 -2.27192 0.214233 0
M  V30 5550 C 531.071 -1.49575 -0.637657 0
M  V30 5551 O 532.255 -1.78753 -0.598291 0
M  V30 5552 C 529.382 -3.31401 -0.699367 0
M  V30 5553 C 528.428 -4.26431 0.0768429 0
M  V30 5554 S 529.261 -5.15954 1.4336 0
M  V30 5555 C 530.417 -6.23692 0.525251 0
M  V30 5556 H 530.65 -2.79679 1.00831 0
M  V30 5557 H 528.183 -1.4079 0.633834 0
M  V30 5558 H 530.141 -3.91924 -1.22088 0
M  V30 5559 H 528.802 -2.77732 -1.46709 0
M  V30 5560 H 527.995 -5.00193 -0.618268 0
M  V30 5561 H 527.597 -3.70235 0.529364 0
M  V30 5562 H 529.889 -6.76931 -0.277575 0
M  V30 5563 H 530.832 -6.97283 1.23299 0
M  V30 5564 H 531.24 -5.64398 0.107351 0
M  V30 5565 N 530.638 -0.59345 -1.46 0
M  V30 5566 C 531.915 -0.0157933 -1.95594 0
M  V30 5567 C 532.295 1.44807 -1.53604 0
M  V30 5568 O 531.643 2.14342 -0.791824 0
M  V30 5569 C 531.853 -0.199081 -3.48432 0
M  V30 5570 C 533.201 -0.0724943 -4.24538 0
M  V30 5571 O 534.225 -0.128469 -3.55968 0
M  V30 5572 O 533.084 0.0542426 -5.46473 0
M  V30 5573 H 530.178 0.043749 -0.825842 0
M  V30 5574 H 532.724 -0.662522 -1.56233 0
M  V30 5575 H 531.496 -1.21631 -3.71916 0
M  V30 5576 H 531.119 0.483576 -3.94648 0
M  V30 5577 N 532.116 1.54067 -0.331816 0
M  V30 5578 C 533.079 2.23275 0.517768 0
M  V30 5579 C 534.079 1.22897 1.03697 0
M  V30 5580 O 535.269 1.47419 0.928084 0
M  V30 5581 C 532.401 2.94326 1.72004 0
M  V30 5582 H 533.594 2.99773 -0.0873507 0
M  V30 5583 H 531.147 1.56079 -0.0830042 0
M  V30 5584 H 531.882 2.21986 2.36417 0
M  V30 5585 H 531.667 3.67941 1.35507 0
M  V30 5586 H 533.157 3.47031 2.32291 0
M  V30 5587 N 533.594 0.0601682 1.57485 0
M  V30 5588 C 534.841 -0.611594 1.93043 0
M  V30 5589 C 535.169 -1.70317 0.939274 0
M  V30 5590 O 534.424 -1.95644 -0.046996 0
M  V30 5591 C 534.723 -1.23831 3.35262 0
M  V30 5592 C 534.389 -0.274037 4.50066 0
M  V30 5593 C 533.051 -0.00872394 4.81199 0
M  V30 5594 C 535.403 0.386308 5.19766 0
M  V30 5595 C 532.731 0.924218 5.79375 0
M  V30 5596 C 535.083 1.3075 6.1894 0
M  V30 5597 C 533.747 1.58139 6.48497 0
M  V30 5598 H 533.017 -0.223798 0.706396 0
M  V30 5599 H 535.664 0.128566 1.91068 0
M  V30 5600 H 533.969 -2.05394 3.33647 0
M  V30 5601 H 535.666 -1.76517 3.60059 0
M  V30 5602 H 532.256 -0.491008 4.25778 0
M  V30 5603 H 536.44 0.194436 4.95919 0
M  V30 5604 H 531.696 1.1438 6.00606 0
M  V30 5605 H 535.87 1.82519 6.72056 0
M  V30 5606 H 533.497 2.30593 7.24383 0
M  V30 5607 N 535.072 -1.5615 -0.213296 0
M  V30 5608 C 536.005 -1.88115 -1.29182 0
M  V30 5609 C 536.983 -0.739348 -1.44819 0
M  V30 5610 O 538.167 -0.988541 -1.605 0
M  V30 5611 C 535.294 -2.09541 -2.66102 0
M  V30 5612 C 534.34 -3.32236 -2.67436 0
M  V30 5613 S 535.173 -4.87915 -2.20679 0
M  V30 5614 C 536.329 -5.12387 -3.59458 0
M  V30 5615 H 536.562 -2.793 -1.01876 0
M  V30 5616 H 534.095 -1.48692 -0.415934 0
M  V30 5617 H 536.053 -2.22568 -3.44925 0
M  V30 5618 H 534.714 -1.19138 -2.90628 0
M  V30 5619 H 533.907 -3.44297 -3.6807 0
M  V30 5620 H 533.509 -3.18108 -1.96681 0
M  V30 5621 H 535.801 -5.01791 -4.55205 0
M  V30 5622 H 536.744 -6.14236 -3.52306 0
M  V30 5623 H 537.152 -4.40089 -3.53528 0
M  V30 5624 N 536.55 0.480323 -1.50102 0
M  V30 5625 C 537.5 1.57685 -1.6468 0
M  V30 5626 C 538.484 1.52878 -0.5017 0
M  V30 5627 O 539.676 1.60058 -0.755668 0
M  V30 5628 C 536.805 2.96185 -1.73578 0
M  V30 5629 C 535.891 3.0591 -2.93734 0
M  V30 5630 N 536.282 2.85471 -4.1754 0
M  V30 5631 C 534.58 3.37036 -2.92101 0
M  V30 5632 C 535.281 2.99921 -4.9842 0
M  V30 5633 N 534.257 3.29715 -4.32191 0
M  V30 5634 H 538.059 1.40568 -2.58104 0
M  V30 5635 H 535.573 0.686874 -1.47159 0
M  V30 5636 H 537.57 3.75015 -1.82124 0
M  V30 5637 H 536.23 3.14356 -0.813057 0
M  V30 5638 H 537.241 2.61235 -4.47188 0
M  V30 5639 H 533.918 3.61253 -2.09291 0
M  V30 5640 H 535.308 2.88436 -6.06839 0
M  V30 5641 N 538.028 1.39524 0.732853 0
M  V30 5642 C 538.938 1.40695 1.87729 0
M  V30 5643 C 539.954 0.301496 1.71368 0
M  V30 5644 O 541.13 0.543313 1.93933 0
M  V30 5645 C 538.195 1.25098 3.23344 0
M  V30 5646 C 537.256 2.45634 3.52083 0
M  V30 5647 C 536.489 2.30772 4.81228 0
M  V30 5648 O 536.712 1.31233 5.55098 0
M  V30 5649 O 535.646 3.19799 5.09914 0
M  V30 5650 H 539.472 2.37168 1.89697 0
M  V30 5651 H 537.057 1.20663 0.880959 0
M  V30 5652 H 538.939 1.18541 4.04383 0
M  V30 5653 H 537.614 0.317209 3.22142 0
M  V30 5654 H 536.521 2.57767 2.71122 0
M  V30 5655 H 537.854 3.37712 3.58066 0
M  V30 5656 N 539.506 -0.963266 1.24736 0
M  V30 5657 C 540.453 -2.05857 1.04363 0
M  V30 5658 C 541.423 -1.6604 -0.0444951 0
M  V30 5659 O 542.608 -1.90477 0.110999 0
M  V30 5660 C 539.748 -3.38745 0.659235 0
M  V30 5661 C 538.861 -3.9173 1.82131 0
M  V30 5662 C 537.996 -5.12906 1.38208 0
M  V30 5663 C 537.035 -5.58098 2.51382 0
M  V30 5664 N 536.172 -6.7049 2.08295 0
M  V30 5665 H 541.012 -2.22616 1.98107 0
M  V30 5666 H 538.549 -1.09103 0.986661 0
M  V30 5667 H 540.507 -4.15107 0.417371 0
M  V30 5668 H 539.137 -3.21898 -0.241201 0
M  V30 5669 H 538.189 -3.11966 2.17672 0
M  V30 5670 H 539.501 -4.21225 2.67153 0
M  V30 5671 H 538.655 -5.96657 1.09935 0
M  V30 5672 H 537.394 -4.85105 0.502456 0
M  V30 5673 H 536.399 -4.72917 2.80409 0
M  V30 5674 H 537.624 -5.87911 3.39909 0
M  V30 5675 H 535.57 -6.44416 1.22737 0
M  V30 5676 H 535.487 -6.99458 2.86869 0
M  V30 5677 H 536.755 -7.57672 1.83175 0
M  V30 5678 N 540.985 -1.06182 -1.16461 0
M  V30 5679 C 541.933 -0.665716 -2.2287 0
M  V30 5680 C 542.927 0.317822 -1.66392 0
M  V30 5681 O 544.133 0.182807 -1.79069 0
M  V30 5682 H 540.508 -0.197148 -0.725697 0
M  V30 5683 H 542.479 -1.57307 -2.53569 0
M  V30 5684 C 541.228 -0.0669803 -3.47635 0
M  V30 5685 H 540.551 -0.814899 -3.91407 0
M  V30 5686 H 541.991 0.172669 -4.23648 0
M  V30 5687 C 540.45 1.18913 -3.15216 0
M  V30 5688 O 540.98 2.27723 -3.30916 0
M  V30 5689 N 539.186 1.09066 -2.69357 0
M  V30 5690 H 538.733 0.20518 -2.56782 0
M  V30 5691 H 538.691 1.93195 -2.48039 0
M  V30 5692 N 542.463 1.3308 -0.844243 0
M  V30 5693 C 543.373 2.32876 -0.283922 0
M  V30 5694 C 544.389 1.63589 0.592846 0
M  V30 5695 O 545.565 1.95205 0.495693 0
M  V30 5696 C 542.63 3.42667 0.527283 0
M  V30 5697 C 541.691 4.27664 -0.374394 0
M  V30 5698 C 540.924 5.32212 0.39819 0
M  V30 5699 O 541.147 5.46635 1.62932 0
M  V30 5700 O 540.081 6.01458 -0.2306 0
M  V30 5701 H 543.907 2.82671 -1.11045 0
M  V30 5702 H 541.492 1.36518 -0.606903 0
M  V30 5703 H 543.374 4.09652 0.988078 0
M  V30 5704 H 542.049 2.95079 1.33078 0
M  V30 5705 H 540.956 3.63526 -0.883144 0
M  V30 5706 H 542.289 4.78749 -1.1428 0
M  V30 5707 N 543.941 0.601185 1.45683 0
M  V30 5708 C 545.218 0.0261659 1.95582 0
M  V30 5709 C 545.598 -1.4399 1.5437 0
M  V30 5710 O 544.946 -2.13919 0.80318 0
M  V30 5711 C 545.156 0.217557 3.48321 0
M  V30 5712 C 546.504 0.0950076 4.24494 0
M  V30 5713 O 547.528 0.147345 3.55895 0
M  V30 5714 O 546.387 -0.025261 5.46494 0
M  V30 5715 H 543.481 -0.0393688 0.826062 0
M  V30 5716 H 546.027 0.670798 1.55879 0
M  V30 5717 H 544.799 1.23601 3.71266 0
M  V30 5718 H 544.422 -0.46264 3.94899 0
M  V30 5719 O 545.458 -1.54135 0.48216 0
M  V30 5720 H 546.149 -1.93658 -0.0403371 0
M  V30 END ATOM
M  V30 BEGIN BOND
M  V30 END BOND
M  V30 END CTAB
M  END
$$$$
