drugbank_target|P49368 T-complex protein 1 subunit gamma (DB04395; DB11638)
 OpenBabel12092120553D

  0  0  0     0  0            999 V3000
M  V30 BEGIN CTAB
M  V30 COUNTS 8572 8620 0 0 0
M  V30 BEGIN ATOM
M  V30 1 H -0.908 1.98254 -0.117106 0
M  V30 2 N 0 1.576 0 0
M  V30 3 C 0.933 2.03868 1.02534 0
M  V30 4 C 1.911 0.928543 1.3348 0
M  V30 5 O 3.095 1.19667 1.45644 0
M  V30 6 C 0.222 2.43627 2.35294 0
M  V30 7 C -0.732 3.65373 2.2001 0
M  V30 8 S 0.101 5.13292 1.52614 0
M  V30 9 C 1.257 5.56322 2.86805 0
M  V30 10 H 1.49 2.90518 0.631377 0
M  V30 11 H -0.977 1.52953 0.210867 0
M  V30 12 H 0.981 2.67203 3.11629 0
M  V30 13 H -0.358 1.57376 2.7183 0
M  V30 14 H -1.165 3.90944 3.18086 0
M  V30 15 H -1.563 3.418 1.51819 0
M  V30 16 H 0.729 5.58782 3.83104 0
M  V30 17 H 1.672 6.56266 2.65933 0
M  V30 18 H 2.08 4.83886 2.90714 0
M  V30 19 N 1.4781 -0.272755 1.55222 0
M  V30 20 C 2.4111 -1.3627 1.83046 0
M  V30 21 C 3.3891 -1.47536 0.683521 0
M  V30 22 O 4.5731 -1.64157 0.926545 0
M  V30 23 C 1.7001 -2.73908 1.99229 0
M  V30 24 C 0.7461 -2.79925 3.21783 0
M  V30 25 S 1.5791 -2.39146 4.79134 0
M  V30 26 C 2.7351 -3.78758 4.9829 0
M  V30 27 H 2.9681 -1.12464 2.75207 0
M  V30 28 H 0.5011 -0.472398 1.46996 0
M  V30 29 H 2.4591 -3.53171 2.09238 0
M  V30 30 H 1.1201 -2.94965 1.07956 0
M  V30 31 H 0.3131 -3.80946 3.29994 0
M  V30 32 H -0.0849 -2.08683 3.10367 0
M  V30 33 H 2.2071 -4.7403 4.84047 0
M  V30 34 H 3.1501 -3.75499 6.00338 0
M  V30 35 H 3.5581 -3.70072 4.26271 0
M  V30 36 N 2.9562 -1.48159 -0.537278 0
M  V30 37 C 4.2042 -1.55497 -1.29094 0
M  V30 38 C 4.5252 -0.227454 -1.93669 0
M  V30 39 O 3.7952 0.750386 -1.80959 0
M  V30 40 H 2.3752 -0.572832 -0.47945 0
M  V30 41 H 5.0372 -1.84579 -0.625818 0
M  V30 42 H 4.1332 -2.33216 -2.07405 0
M  V30 43 N 4.4343 0.785586 -1.36625 0
M  V30 44 C 5.3843 1.88822 -1.27789 0
M  V30 45 C 6.3683 1.60014 -0.168579 0
M  V30 46 O 7.5603 1.72381 -0.401737 0
M  V30 47 C 4.6893 3.26092 -1.07327 0
M  V30 48 C 3.7753 3.60897 -2.22743 0
M  V30 49 N 4.1663 3.66982 -3.48077 0
M  V30 50 C 2.4643 3.90981 -2.14593 0
M  V30 51 C 3.1653 3.98137 -4.24101 0
M  V30 52 N 2.1413 4.13319 -3.53084 0
M  V30 53 H 5.9433 1.91759 -2.22723 0
M  V30 54 H 3.4573 0.981311 -1.29399 0
M  V30 55 H 5.4543 4.04954 -0.990842 0
M  V30 56 H 4.1143 3.24428 -0.132977 0
M  V30 57 H 5.1253 3.49531 -3.82163 0
M  V30 58 H 1.8023 3.9722 -1.2854 0
M  V30 59 H 3.1923 4.09737 -5.32509 0
M  V30 60 N 5.9124 1.20967 1.01018 0
M  V30 61 C 7.3284 0.965905 1.27053 0
M  V30 62 C 7.5284 -0.350785 1.98423 0
M  V30 63 O 6.5844 -1.07773 2.28344 0
M  V30 64 C 7.8974 2.15294 2.09926 0
M  V30 65 C 9.4454 2.19463 2.23171 0
M  V30 66 C 9.9204 3.3767 3.09424 0
M  V30 67 N 11.4114 3.37724 3.17012 0
M  V30 68 C 12.1464 4.25837 3.83993 0
M  V30 69 N 11.6424 5.24138 4.53047 0
M  V30 70 N 13.4354 4.1366 3.80581 0
M  V30 71 H 5.5864 2.0565 0.531194 0
M  V30 72 H 7.8494 0.90024 0.297106 0
M  V30 73 H 7.5554 3.10684 1.64828 0
M  V30 74 H 7.4294 2.13923 3.10672 0
M  V30 75 H 9.8164 1.24632 2.6749 0
M  V30 76 H 9.8974 2.2488 1.21912 0
M  V30 77 H 9.5414 4.32791 2.65808 0
M  V30 78 H 9.4714 3.29491 4.10784 0
M  V30 79 H 11.9624 2.6658 2.6785 0
M  V30 80 H 12.2754 5.87684 5.01844 0
M  V30 81 H 10.6204 5.28068 4.5185 0
M  V30 82 H 13.8114 3.36127 3.25785 0
M  V30 83 H 13.9844 4.82538 4.32505 0
M  V30 84 N 7.3905 -1.2043 1.01659 0
M  V30 85 C 8.8015 -1.71517 0.737482 0
M  V30 86 C 9.1525 -1.81547 -0.743973 0
M  V30 87 O 8.2775 -1.47803 -1.58061 0
M  V30 88 C 8.8725 -3.11515 1.33206 0
M  V30 89 C 7.4315 -3.59912 1.10183 0
M  V30 90 C 6.5785 -2.37116 1.43776 0
M  V30 91 H 9.5295 -1.05444 1.18606 0
M  V30 92 H 9.5505 -3.73575 0.722636 0
M  V30 93 H 9.0625 -3.04182 2.41028 0
M  V30 94 H 7.1635 -3.72577 0.0412756 0
M  V30 95 H 7.2765 -4.44731 1.78188 0
M  V30 96 H 5.6405 -2.39857 0.856778 0
M  V30 97 H 6.4235 -2.32424 2.52654 0
M  V30 98 N 8.8686 -0.792821 -1.36206 0
M  V30 99 C 10.1146 -0.36733 -1.99446 0
M  V30 100 C 10.4476 1.05917 -1.62774 0
M  V30 101 O 9.7226 1.7324 -0.88421 0
M  V30 102 C 10.0056 -0.535044 -3.56103 0
M  V30 103 C 9.8586 -2.00548 -4.02617 0
M  V30 104 C 11.1776 0.0478191 -4.40074 0
M  V30 105 H 8.2966 -0.134941 -0.724541 0
M  V30 106 H 10.9386 -0.999794 -1.61568 0
M  V30 107 H 9.0886 0.00336329 -3.885 0
M  V30 108 H 10.7606 -2.60521 -3.80692 0
M  V30 109 H 9.0036 -2.50686 -3.54032 0
M  V30 110 H 9.6746 -2.07377 -5.11565 0
M  V30 111 H 12.1506 -0.411822 -4.14057 0
M  V30 112 H 11.0266 -0.0995336 -5.4881 0
M  V30 113 H 11.2876 1.14025 -4.27142 0
M  V30 114 N 10.3467 1.47872 -0.545128 0
M  V30 115 C 11.2767 2.32661 0.197793 0
M  V30 116 C 12.2577 1.43041 0.920504 0
M  V30 117 O 13.4427 1.71912 0.90333 0
M  V30 118 C 10.5727 3.24569 1.23582 0
M  V30 119 C 9.5267 4.23333 0.630323 0
M  V30 120 C 8.8527 5.0448 1.77211 0
M  V30 121 C 10.1527 5.20704 -0.407974 0
M  V30 122 H 11.8467 2.95024 -0.510045 0
M  V30 123 H 9.3927 1.4187 -0.246731 0
M  V30 124 H 11.3457 3.8272 1.76362 0
M  V30 125 H 10.0697 2.60236 1.97344 0
M  V30 126 H 8.7287 3.6639 0.123922 0
M  V30 127 H 8.3767 4.36561 2.49847 0
M  V30 128 H 8.0767 5.71339 1.37281 0
M  V30 129 H 9.6007 5.65487 2.3034 0
M  V30 130 H 11.0147 5.7329 0.033305 0
M  V30 131 H 9.4117 5.95699 -0.725486 0
M  V30 132 H 10.4817 4.66917 -1.30828 0
M  V30 133 N 11.8248 0.280983 1.55075 0
M  V30 134 C 13.0708 -0.33461 2.00021 0
M  V30 135 C 13.4038 -1.55063 1.16915 0
M  V30 136 O 12.6788 -1.93006 0.240646 0
M  V30 137 C 12.9618 -0.711007 3.53011 0
M  V30 138 C 12.8148 0.512766 4.46868 0
M  V30 139 C 14.1338 -1.54522 4.12081 0
M  V30 140 H 11.2528 -0.120147 0.727141 0
M  V30 141 H 13.8948 0.389097 1.85973 0
M  V30 142 H 12.0448 -1.32761 3.65112 0
M  V30 143 H 13.7168 1.15131 4.46702 0
M  V30 144 H 11.9598 1.14975 4.18286 0
M  V30 145 H 12.6308 0.205556 5.51617 0
M  V30 146 H 15.1068 -1.02442 4.03293 0
M  V30 147 H 13.9828 -1.77739 5.19327 0
M  V30 148 H 14.2438 -2.52813 3.62682 0
M  V30 149 N 13.3029 -1.57598 0.00835791 0
M  V30 150 C 14.2329 -2.1198 -0.979113 0
M  V30 151 C 15.2139 -1.03091 -1.35301 0
M  V30 152 O 16.3989 -1.30818 -1.43528 0
M  V30 153 C 13.5289 -2.62995 -2.26828 0
M  V30 154 C 12.4829 -3.76485 -2.03576 0
M  V30 155 C 11.8089 -4.13846 -3.38579 0
M  V30 156 C 13.1089 -5.0342 -1.39161 0
M  V30 157 H 14.8029 -2.94738 -0.526281 0
M  V30 158 H 12.3489 -1.41783 -0.251704 0
M  V30 159 H 14.3019 -2.99669 -2.96271 0
M  V30 160 H 13.0259 -1.7737 -2.7424 0
M  V30 161 H 11.6849 -3.40217 -1.36557 0
M  V30 162 H 11.3329 -3.25232 -3.83709 0
M  V30 163 H 11.0329 -4.90312 -3.23834 0
M  V30 164 H 12.5569 -4.53086 -4.09323 0
M  V30 165 H 13.9709 -5.37812 -1.98573 0
M  V30 166 H 12.3679 -5.84746 -1.34878 0
M  V30 167 H 13.4379 -4.83548 -0.361868 0
M  V30 168 N 14.781 0.264519 -1.55364 0
M  V30 169 C 16.006 1.01726 -1.80739 0
M  V30 170 C 16.431 1.78836 -0.583044 0
M  V30 171 O 15.789 1.75167 0.467566 0
M  V30 172 C 15.837 1.94482 -3.03659 0
M  V30 173 O 14.941 3.03386 -2.7934 0
M  V30 174 H 14.282 0.290395 -0.597132 0
M  V30 175 H 16.812 0.290854 -2.02522 0
M  V30 176 H 16.822 2.36278 -3.32621 0
M  V30 177 H 15.497 1.37772 -3.92418 0
M  V30 178 H 14.074 2.65844 -2.61498 0
M  V30 179 N 16.2591 1.48442 0.529413 0
M  V30 180 C 17.1911 1.59095 1.64989 0
M  V30 181 C 18.2041 0.475212 1.5571 0
M  V30 182 O 19.3931 0.746081 1.6216 0
M  V30 183 C 16.4931 1.50518 3.0364 0
M  V30 184 C 15.6661 2.77142 3.38395 0
M  V30 185 C 14.7251 2.62012 4.56329 0
M  V30 186 O 13.7511 3.35898 4.59522 0
M  V30 187 N 14.9531 1.71667 5.54536 0
M  V30 188 H 17.7181 2.55723 1.56287 0
M  V30 189 H 15.2791 1.45173 0.716697 0
M  V30 190 H 17.2711 1.38091 3.80412 0
M  V30 191 H 15.8411 0.618627 3.06418 0
M  V30 192 H 15.0611 3.0413 2.50796 0
M  V30 193 H 16.3491 3.61146 3.58401 0
M  V30 194 H 15.7471 1.10841 5.54735 0
M  V30 195 H 14.3041 1.65178 6.30523 0
M  V30 196 N 17.7372 -0.778329 1.37039 0
M  V30 197 C 18.6852 -1.91278 1.32345 0
M  V30 198 C 19.6792 -1.68051 0.213331 0
M  V30 199 O 20.8852 -1.75922 0.38098 0
M  V30 200 H 17.2602 -0.628909 0.412283 0
M  V30 201 H 19.2312 -1.92355 2.28127 0
M  V30 202 C 17.9802 -3.28455 1.14073 0
M  V30 203 H 17.3032 -3.46901 1.98746 0
M  V30 204 H 18.7432 -4.08152 1.14837 0
M  V30 205 C 17.2022 -3.36548 -0.154015 0
M  V30 206 O 17.7322 -3.85186 -1.13993 0
M  V30 207 N 15.9382 -2.89894 -0.202475 0
M  V30 208 H 15.4852 -2.50504 0.600476 0
M  V30 209 H 15.4432 -2.9569 -1.06841 0
M  V30 210 N 19.2153 -1.21501 -1.00376 0
M  V30 211 C 20.4433 -1.059 -1.77744 0
M  V30 212 C 20.8583 0.391125 -1.84704 0
M  V30 213 O 20.2153 1.27133 -1.30933 0
M  V30 214 C 20.2663 -1.65111 -3.21591 0
M  V30 215 O 19.9873 -3.0445 -3.15027 0
M  V30 216 C 21.4883 -1.54637 -4.15454 0
M  V30 217 H 18.7083 -0.371825 -0.558558 0
M  V30 218 H 21.2523 -1.60865 -1.26264 0
M  V30 219 H 19.4073 -1.14235 -3.70175 0
M  V30 220 H 19.8213 -3.3278 -4.0541 0
M  V30 221 H 21.2953 -2.00808 -5.14179 0
M  V30 222 H 21.7723 -0.501022 -4.36333 0
M  V30 223 H 22.3783 -2.04767 -3.72761 0
M  V30 224 N 20.6934 1.19889 -1.02296 0
M  V30 225 C 21.6404 2.22901 -0.598651 0
M  V30 226 C 22.6104 1.61588 0.384521 0
M  V30 227 O 23.7954 1.88697 0.282522 0
M  V30 228 C 20.9354 3.45063 0.0504476 0
M  V30 229 C 20.0484 4.20783 -0.978053 0
M  V30 230 C 19.1834 5.30356 -0.299338 0
M  V30 231 C 18.2224 5.97826 -1.31416 0
M  V30 232 N 17.3594 6.98975 -0.661667 0
M  V30 233 H 22.1994 2.58554 -1.48169 0
M  V30 234 H 19.7364 1.27039 -0.741584 0
M  V30 235 H 21.6944 4.14831 0.443971 0
M  V30 236 H 20.3244 3.10084 0.897097 0
M  V30 237 H 19.3764 3.50018 -1.48969 0
M  V30 238 H 20.6884 4.67109 -1.74958 0
M  V30 239 H 19.8424 6.06516 0.149347 0
M  V30 240 H 18.5814 4.85084 0.504445 0
M  V30 241 H 17.5864 5.20422 -1.77317 0
M  V30 242 H 18.8114 6.45183 -2.11933 0
M  V30 243 H 16.7574 6.55886 0.122132 0
M  V30 244 H 16.6744 7.43461 -1.37117 0
M  V30 245 H 17.9424 7.7914 -0.236785 0
M  V30 246 N 22.1715 0.800033 1.35784 0
M  V30 247 C 23.5875 0.482977 1.52117 0
M  V30 248 C 23.7875 -0.996948 1.75109 0
M  V30 249 O 22.8435 -1.78216 1.78872 0
M  V30 250 C 24.1565 1.32264 2.70049 0
M  V30 251 C 25.7045 1.31742 2.83924 0
M  V30 252 C 26.1795 2.14106 4.04874 0
M  V30 253 N 27.6705 2.11607 4.12039 0
M  V30 254 C 28.4055 2.72099 5.04727 0
M  V30 255 N 27.9015 3.41492 6.02789 0
M  V30 256 N 29.6945 2.61776 4.97423 0
M  V30 257 H 21.8455 1.75856 1.19115 0
M  V30 258 H 24.1085 0.748122 0.582252 0
M  V30 259 H 23.8145 2.37261 2.59616 0
M  V30 260 H 23.6885 0.971303 3.6448 0
M  V30 261 H 26.0755 0.275333 2.93813 0
M  V30 262 H 26.1565 1.70859 1.9037 0
M  V30 263 H 25.8005 3.18351 3.95746 0
M  V30 264 H 25.7305 1.72353 4.97596 0
M  V30 265 H 28.2215 1.61112 3.41835 0
M  V30 266 H 28.5345 3.84953 6.70098 0
M  V30 267 H 26.8795 3.45596 6.02983 0
M  V30 268 H 30.0705 2.07157 4.19766 0
M  V30 269 H 30.2435 3.0921 5.69468 0
M  V30 270 N 23.6496 -1.47581 0.552962 0
M  V30 271 C 24.5596 -2.33743 -0.200353 0
M  V30 272 C 25.5756 -1.47928 -0.916151 0
M  V30 273 O 26.7516 -1.80865 -0.885993 0
M  V30 274 C 23.8166 -3.24536 -1.21973 0
M  V30 275 C 22.8776 -4.26238 -0.511819 0
M  V30 276 C 22.1106 -5.12693 -1.48263 0
M  V30 277 O 22.3336 -5.01525 -2.71714 0
M  V30 278 O 21.2676 -5.93375 -1.00945 0
M  V30 279 H 25.0936 -2.9945 0.506304 0
M  V30 280 H 22.6786 -1.46071 0.313622 0
M  V30 281 H 24.5606 -3.80631 -1.80827 0
M  V30 282 H 23.2356 -2.61462 -1.90839 0
M  V30 283 H 22.1426 -3.73914 0.117799 0
M  V30 284 H 23.4756 -4.92014 0.135308 0
M  V30 285 N 25.1277 -0.289203 -1.54924 0
M  V30 286 C 26.3527 0.329299 -2.04769 0
M  V30 287 C 26.7777 1.4763 -1.16564 0
M  V30 288 O 26.1357 1.80527 -0.167186 0
M  V30 289 C 26.1837 0.774438 -3.52186 0
M  V30 290 O 25.2877 1.88038 -3.67036 0
M  V30 291 H 24.6287 0.0659259 -0.660719 0
M  V30 292 H 27.1587 -0.42761 -2.00082 0
M  V30 293 H 27.1687 1.06642 -3.93816 0
M  V30 294 H 25.8437 -0.0646707 -4.1585 0
M  V30 295 H 24.4207 1.58985 -3.3731 0
M  V30 296 N 26.6058 1.57591 -0.0167156 0
M  V30 297 C 27.8538 1.90906 0.663285 0
M  V30 298 C 28.1748 0.892509 1.73376 0
M  V30 299 O 27.4448 -0.0677623 1.95783 0
M  V30 300 H 26.0248 0.704637 0.247983 0
M  V30 301 H 28.6868 1.94803 -0.0615909 0
M  V30 302 H 27.7828 2.9116 1.12393 0
M  V30 303 N 28.0839 -0.256276 1.55502 0
M  V30 304 C 29.4999 -0.604325 1.47716 0
M  V30 305 C 29.6999 -1.88763 0.705039 0
M  V30 306 O 28.7559 -2.51445 0.230613 0
M  V30 307 C 30.0689 -0.715756 2.92057 0
M  V30 308 C 31.6169 -0.808706 3.02372 0
M  V30 309 C 32.0919 -0.951777 4.48001 0
M  V30 310 N 33.5829 -1.01688 4.519 0
M  V30 311 C 34.3179 -1.14668 5.61817 0
M  V30 312 N 33.8139 -1.24261 6.81565 0
M  V30 313 N 35.6069 -1.1791 5.49594 0
M  V30 314 H 27.7579 0.586291 2.04148 0
M  V30 315 H 30.0209 0.201015 0.926443 0
M  V30 316 H 29.7269 0.157027 3.51349 0
M  V30 317 H 29.6009 -1.59071 3.42018 0
M  V30 318 H 31.9879 -1.67195 2.43166 0
M  V30 319 H 32.0689 0.0912063 2.55637 0
M  V30 320 H 31.7129 -0.0931291 5.07815 0
M  V30 321 H 31.6429 -1.86659 4.92408 0
M  V30 322 H 34.1339 -0.954468 3.65648 0
M  V30 323 H 34.4469 -1.34046 7.61086 0
M  V30 324 H 32.7919 -1.21236 6.84344 0
M  V30 325 H 35.9829 -1.10057 4.54978 0
M  V30 326 H 36.1559 -1.27681 6.35296 0
M  V30 327 N 29.562 -1.4872 -0.521534 0
M  V30 328 C 30.509 -1.63871 -1.62527 0
M  V30 329 C 31.479 -0.480559 -1.58996 0
M  V30 330 O 32.664 -0.705085 -1.77294 0
M  V30 331 C 29.804 -1.69227 -3.00759 0
M  V30 332 C 28.917 -2.96207 -3.14461 0
M  V30 333 C 28.052 -2.92671 -4.43303 0
M  V30 334 C 27.091 -4.14318 -4.50563 0
M  V30 335 N 26.228 -4.0881 -5.70805 0
M  V30 336 H 31.068 -2.58123 -1.48918 0
M  V30 337 H 28.605 -1.28 -0.724878 0
M  V30 338 H 30.563 -1.70314 -3.80853 0
M  V30 339 H 29.193 -0.784586 -3.1312 0
M  V30 340 H 28.245 -3.04826 -2.27564 0
M  V30 341 H 29.557 -3.86192 -3.15686 0
M  V30 342 H 28.711 -2.92206 -5.31696 0
M  V30 343 H 27.45 -2.00429 -4.44612 0
M  V30 344 H 26.455 -4.15049 -3.60575 0
M  V30 345 H 27.68 -5.07729 -4.50986 0
M  V30 346 H 25.626 -3.19394 -5.72995 0
M  V30 347 H 25.543 -4.92509 -5.7356 0
M  V30 348 H 26.811 -4.12418 -6.61462 0
M  V30 349 N 31.0401 0.771051 -1.3745 0
M  V30 350 C 32.2861 1.5319 -1.32894 0
M  V30 351 C 32.6191 1.94008 0.0862511 0
M  V30 352 O 31.8941 1.64124 1.04373 0
M  V30 353 C 32.1771 2.79648 -2.26868 0
M  V30 354 C 32.0301 2.45079 -3.77169 0
M  V30 355 C 33.3491 3.81583 -2.19277 0
M  V30 356 H 30.4681 0.555744 -0.484064 0
M  V30 357 H 33.1101 0.884492 -1.68157 0
M  V30 358 H 31.2601 3.34891 -1.96926 0
M  V30 359 H 32.9321 1.95745 -4.1771 0
M  V30 360 H 31.1751 1.77767 -3.95704 0
M  V30 361 H 31.8461 3.35478 -4.38359 0
M  V30 362 H 34.3221 3.35835 -2.45671 0
M  V30 363 H 33.1981 4.67787 -2.87171 0
M  V30 364 H 33.4591 4.25897 -1.18592 0
M  V30 365 N 32.5182 1.22032 0.997298 0
M  V30 366 C 33.4502 0.944263 2.08845 0
M  V30 367 C 34.4632 -0.0754663 1.62625 0
M  V30 368 O 35.6522 0.157994 1.77799 0
M  V30 369 C 32.7522 0.397723 3.36558 0
M  V30 370 C 31.9252 1.47362 4.11829 0
M  V30 371 C 30.9842 0.934951 5.17827 0
M  V30 372 O 30.0102 1.62016 5.45655 0
M  V30 373 N 31.2122 -0.245895 5.79979 0
M  V30 374 H 33.9772 1.88363 2.33109 0
M  V30 375 H 31.5382 1.12661 1.16272 0
M  V30 376 H 33.5302 0.0227771 4.04694 0
M  V30 377 H 32.1002 -0.446646 3.09393 0
M  V30 378 H 31.3202 2.02208 3.38386 0
M  V30 379 H 32.6082 2.19764 4.58891 0
M  V30 380 H 32.0062 -0.819475 5.59733 0
M  V30 381 H 30.5632 -0.562272 6.4937 0
M  V30 382 N 33.9963 -1.19345 1.0293 0
M  V30 383 C 35.2213 -1.93538 0.745511 0
M  V30 384 C 35.6463 -1.75007 -0.689511 0
M  V30 385 O 35.0043 -1.05265 -1.47611 0
M  V30 386 C 35.0523 -3.43336 1.10239 0
M  V30 387 O 34.1563 -4.11806 0.221289 0
M  V30 388 H 33.4973 -0.604193 0.275404 0
M  V30 389 H 36.0273 -1.5141 1.37609 0
M  V30 390 H 36.0373 -3.94004 1.05947 0
M  V30 391 H 34.7123 -3.56146 2.14786 0
M  V30 392 H 33.2893 -3.715 0.322842 0
M  V30 393 N 35.4744 -0.807222 -1.35358 0
M  V30 394 C 36.7224 -0.387122 -1.98358 0
M  V30 395 C 37.0434 1.04942 -1.64354 0
M  V30 396 O 36.3134 1.72615 -0.926339 0
M  V30 397 H 34.8934 -0.140154 -0.733734 0
M  V30 398 H 37.5554 -1.0332 -1.6526 0
M  V30 399 H 36.6514 -0.493352 -3.08176 0
M  V30 400 N 36.9525 1.47285 -0.560781 0
M  V30 401 C 37.9005 2.31756 0.197942 0
M  V30 402 C 38.8945 1.43146 0.905854 0
M  V30 403 O 40.1005 1.59891 0.826733 0
M  V30 404 H 36.4755 0.747438 0.0827049 0
M  V30 405 H 38.4465 2.9359 -0.533629 0
M  V30 406 C 37.1955 3.25874 1.21249 0
M  V30 407 H 36.5185 3.94023 0.67719 0
M  V30 408 H 37.9585 3.87803 1.71419 0
M  V30 409 C 36.4175 2.49651 2.26221 0
M  V30 410 O 36.9475 2.24355 3.33208 0
M  V30 411 N 35.1535 2.10597 2.00243 0
M  V30 412 H 34.7005 2.31369 1.13252 0
M  V30 413 H 34.6585 1.59913 2.70694 0
M  V30 414 N 38.4306 0.297415 1.54768 0
M  V30 415 C 39.6796 -0.313669 1.99246 0
M  V30 416 C 39.9926 -1.55281 1.18942 0
M  V30 417 O 41.1986 -2.23825 1.5367 0
M  V30 418 C 39.6546 -0.609407 3.54703 0
M  V30 419 C 39.2626 0.611192 4.43811 0
M  V30 420 C 41.0066 -1.18188 4.07715 0
M  V30 421 C 38.9136 0.288805 5.90694 0
M  V30 422 H 37.8436 -0.120979 0.744231 0
M  V30 423 H 40.4946 0.40556 1.78962 0
M  V30 424 H 38.8766 -1.38813 3.70873 0
M  V30 425 H 40.0506 1.3875 4.39414 0
M  V30 426 H 38.3656 1.10205 4.01552 0
M  V30 427 H 40.9626 -1.43727 5.15021 0
M  V30 428 H 41.3056 -2.12299 3.58099 0
M  V30 429 H 41.8386 -0.464944 3.95074 0
M  V30 430 H 38.5776 1.19838 6.44453 0
M  V30 431 H 38.0976 -0.450305 5.98107 0
M  V30 432 H 39.7766 -0.110933 6.46905 0
M  V30 433 N 39.9087 -1.5758 0.0250728 0
M  V30 434 C 40.8567 -2.11125 -0.97617 0
M  V30 435 C 41.8507 -1.03689 -1.33959 0
M  V30 436 O 43.0567 -1.22128 -1.3223 0
M  V30 437 H 39.4317 -0.674468 -0.332561 0
M  V30 438 H 41.4027 -2.94194 -0.499223 0
M  V30 439 C 40.1517 -2.65017 -2.2508 0
M  V30 440 H 39.4747 -3.47333 -1.9799 0
M  V30 441 H 40.9147 -3.06133 -2.93357 0
M  V30 442 C 39.3737 -1.57574 -2.97779 0
M  V30 443 O 39.9037 -0.973203 -3.89733 0
M  V30 444 N 38.1097 -1.29716 -2.60043 0
M  V30 445 H 37.6567 -1.789 -1.85345 0
M  V30 446 H 37.6147 -0.58051 -3.08994 0
M  V30 447 N 41.3868 0.248026 -1.55636 0
M  V30 448 C 42.3498 1.29044 -1.89421 0
M  V30 449 C 43.3498 1.41134 -0.770581 0
M  V30 450 O 44.5398 1.39854 -1.03858 0
M  V30 451 C 41.6718 2.66831 -2.12165 0
M  V30 452 H 42.8648 1.00305 -2.82629 0
M  V30 453 H 40.4178 0.487265 -1.48511 0
M  V30 454 H 41.1528 3.00711 -1.21422 0
M  V30 455 H 40.9378 2.59438 -2.93997 0
M  V30 456 H 42.4278 3.42103 -2.3949 0
M  V30 457 N 42.8649 1.48995 0.513639 0
M  V30 458 C 43.8279 1.64229 1.59879 0
M  V30 459 C 44.8279 0.514696 1.5234 0
M  V30 460 O 46.0179 0.78087 1.55718 0
M  V30 461 C 43.1499 1.62783 2.99524 0
M  V30 462 H 44.3429 2.61004 1.47705 0
M  V30 463 H 41.8959 1.37837 0.736936 0
M  V30 464 H 42.6309 0.675461 3.17188 0
M  V30 465 H 42.4159 2.4466 3.06404 0
M  V30 466 H 43.9059 1.76669 3.78388 0
M  V30 467 N 44.343 -0.763751 1.37857 0
M  V30 468 C 45.29 -1.87726 1.34267 0
M  V30 469 C 46.26 -1.64807 0.206879 0
M  V30 470 O 47.445 -1.86613 0.397508 0
M  V30 471 C 44.585 -3.24896 1.16346 0
M  V30 472 C 43.698 -3.59716 2.39225 0
M  V30 473 C 42.833 -4.86137 2.14114 0
M  V30 474 C 41.872 -5.13711 3.32817 0
M  V30 475 N 41.009 -6.31323 3.07206 0
M  V30 476 H 45.849 -1.90129 2.29466 0
M  V30 477 H 43.386 -0.929433 1.14017 0
M  V30 478 H 45.344 -4.04036 1.03975 0
M  V30 479 H 43.974 -3.21847 0.247909 0
M  V30 480 H 43.026 -2.75498 2.62307 0
M  V30 481 H 44.338 -3.76027 3.27728 0
M  V30 482 H 43.492 -5.73198 1.9882 0
M  V30 483 H 42.231 -4.71945 1.22961 0
M  V30 484 H 41.236 -4.25123 3.48641 0
M  V30 485 H 42.461 -5.29807 4.24832 0
M  V30 486 H 40.407 -6.18474 2.1869 0
M  V30 487 H 40.324 -6.48087 3.89254 0
M  V30 488 H 41.592 -7.213 2.95546 0
M  V30 489 N 45.8211 -1.22559 -0.990812 0
M  V30 490 C 47.0491 -1.07779 -1.76611 0
M  V30 491 C 47.4641 0.371513 -1.85109 0
M  V30 492 O 46.8211 1.25737 -1.32274 0
M  V30 493 C 46.8721 -1.68512 -3.19822 0
M  V30 494 O 46.5931 -3.07774 -3.1178 0
M  V30 495 C 48.0941 -1.59035 -4.13791 0
M  V30 496 H 45.3141 -0.377729 -0.554583 0
M  V30 497 H 47.8581 -1.62195 -1.24551 0
M  V30 498 H 46.0131 -1.18154 -3.68942 0
M  V30 499 H 46.4271 -3.37062 -4.01858 0
M  V30 500 H 47.9011 -2.0625 -5.1202 0
M  V30 501 H 48.3781 -0.547273 -4.35777 0
M  V30 502 H 48.9841 -2.08709 -3.70568 0
M  V30 503 N 47.2992 1.18797 -1.03562 0
M  V30 504 C 48.5482 1.87978 -0.731235 0
M  V30 505 C 48.8612 1.80911 0.743671 0
M  V30 506 O 50.0672 2.45407 1.16137 0
M  V30 507 C 48.5232 3.3721 -1.25768 0
M  V30 508 C 48.1312 3.52818 -2.76085 0
M  V30 509 C 49.8752 4.11825 -1.0296 0
M  V30 510 C 47.7822 4.9598 -3.22114 0
M  V30 511 H 46.7122 0.704063 -0.269835 0
M  V30 512 H 49.3632 1.34266 -1.25079 0
M  V30 513 H 47.7452 3.90359 -0.666011 0
M  V30 514 H 48.9192 3.09965 -3.40966 0
M  V30 515 H 47.2342 2.91602 -2.97249 0
M  V30 516 H 49.8312 5.17411 -1.34869 0
M  V30 517 H 50.1742 4.16287 0.0333546 0
M  V30 518 H 50.7072 3.64833 -1.58562 0
M  V30 519 H 47.4462 4.96684 -4.27768 0
M  V30 520 H 46.9662 5.39569 -2.61965 0
M  V30 521 H 48.6452 5.6467 -3.15844 0
M  V30 522 N 48.7773 0.814389 1.34928 0
M  V30 523 C 49.7403 0.235759 2.27984 0
M  V30 524 C 50.7403 -0.581412 1.49921 0
M  V30 525 O 51.9303 -0.398758 1.69575 0
M  V30 526 C 49.0623 -0.670433 3.34242 0
M  V30 527 H 50.2553 1.05659 2.80671 0
M  V30 528 H 47.8083 0.585614 1.44915 0
M  V30 529 H 48.5433 -1.51466 2.86755 0
M  V30 530 H 48.3283 -0.0860822 3.92005 0
M  V30 531 H 49.8183 -1.06935 4.03676 0
M  V30 532 N 50.2554 -1.46986 0.568584 0
M  V30 533 C 51.5324 -1.95592 -0.0174074 0
M  V30 534 C 51.9124 -1.51124 -1.47393 0
M  V30 535 O 51.2604 -0.755329 -2.15655 0
M  V30 536 C 51.4704 -3.48719 0.139913 0
M  V30 537 C 52.8184 -4.246 0.000426376 0
M  V30 538 O 53.8424 -3.56135 0.0680316 0
M  V30 539 O 52.7014 -5.46302 -0.146988 0
M  V30 540 H 49.7954 -0.82498 -0.0577599 0
M  V30 541 H 52.3414 -1.57335 0.635909 0
M  V30 542 H 51.1134 -3.73927 1.15301 0
M  V30 543 H 50.7364 -3.93771 -0.550491 0
M  V30 544 N 51.7335 -0.305618 -1.54608 0
M  V30 545 C 52.9825 0.303098 -1.9941 0
M  V30 546 C 53.2955 1.54648 -1.19764 0
M  V30 547 O 54.5015 2.23007 -1.54855 0
M  V30 548 C 52.9575 0.590588 -3.55021 0
M  V30 549 C 52.5655 -0.634719 -4.43481 0
M  V30 550 C 54.3095 1.16025 -4.08336 0
M  V30 551 C 52.2165 -0.320126 -5.90533 0
M  V30 552 H 51.1465 0.117031 -0.744862 0
M  V30 553 H 53.7975 -0.415045 -1.78745 0
M  V30 554 H 52.1795 1.36845 -3.71604 0
M  V30 555 H 53.3535 -1.41079 -4.38672 0
M  V30 556 H 51.6685 -1.12333 -4.00962 0
M  V30 557 H 54.2655 1.40994 -5.15776 0
M  V30 558 H 54.6085 2.10397 -3.5922 0
M  V30 559 H 55.1415 0.443985 -3.95315 0
M  V30 560 H 51.8805 -1.23254 -6.43808 0
M  V30 561 H 51.4005 0.418579 -5.98338 0
M  V30 562 H 53.0795 0.0766241 -6.46955 0
M  V30 563 N 53.2116 1.57565 -0.0334293 0
M  V30 564 C 54.4606 1.91155 0.643639 0
M  V30 565 C 54.7736 0.91192 1.73042 0
M  V30 566 O 55.9796 1.13923 2.46442 0
M  V30 567 C 54.4356 3.39443 1.1961 0
M  V30 568 C 54.0436 4.47774 0.142381 0
M  V30 569 C 55.7876 3.82094 1.84944 0
M  V30 570 C 53.6946 5.87162 0.706727 0
M  V30 571 H 52.6246 0.713368 0.244176 0
M  V30 572 H 55.2756 1.8323 -0.0994323 0
M  V30 573 H 53.6576 3.42313 1.99092 0
M  V30 574 H 54.8316 4.56469 -0.630296 0
M  V30 575 H 53.1466 4.14352 -0.412446 0
M  V30 576 H 55.7436 4.83591 2.2813 0
M  V30 577 H 56.0866 3.17386 2.69392 0
M  V30 578 H 56.6196 3.81665 1.12145 0
M  V30 579 H 53.3586 6.55424 -0.0997178 0
M  V30 580 H 52.8786 5.82064 1.44779 0
M  V30 581 H 54.5576 6.35866 1.19514 0
M  V30 582 N 54.6897 -0.239769 1.55765 0
M  V30 583 C 56.1057 -0.588624 1.48349 0
M  V30 584 C 56.3057 -1.88005 0.72502 0
M  V30 585 O 55.3617 -2.51186 0.257269 0
M  V30 586 C 56.6747 -0.68474 2.928 0
M  V30 587 C 58.2227 -0.77659 3.03213 0
M  V30 588 C 58.6977 -0.904207 4.48986 0
M  V30 589 N 60.1887 -0.968896 4.52953 0
M  V30 590 C 60.9237 -1.08703 5.63002 0
M  V30 591 N 60.4197 -1.17026 6.82845 0
M  V30 592 N 62.2127 -1.12074 5.50814 0
M  V30 593 H 54.3637 0.607911 2.03515 0
M  V30 594 H 56.6267 0.21083 0.924259 0
M  V30 595 H 56.3327 0.194284 3.51163 0
M  V30 596 H 56.2067 -1.55435 3.43686 0
M  V30 597 H 58.5937 -1.64606 2.44926 0
M  V30 598 H 58.6747 0.118315 2.55526 0
M  V30 599 H 58.3187 -0.0392633 5.07885 0
M  V30 600 H 58.2487 -1.81426 4.9436 0
M  V30 601 H 60.7397 -0.915633 3.6664 0
M  V30 602 H 61.0527 -1.25966 7.62465 0
M  V30 603 H 59.3977 -1.13971 6.85591 0
M  V30 604 H 62.5887 -1.05226 4.5612 0
M  V30 605 H 62.7617 -1.20936 6.36615 0
M  V30 606 N 56.1678 -1.49265 -0.50573 0
M  V30 607 C 57.3958 -1.62215 -1.28429 0
M  V30 608 C 57.8108 -0.291697 -1.86533 0
M  V30 609 O 57.1678 0.722233 -1.67601 0
M  V30 610 C 57.2188 -2.68735 -2.41793 0
M  V30 611 O 56.9398 -3.96619 -1.86078 0
M  V30 612 C 58.4408 -2.92346 -3.3324 0
M  V30 613 H 55.6608 -0.546239 -0.389697 0
M  V30 614 H 58.2048 -1.95265 -0.607609 0
M  V30 615 H 56.3598 -2.38476 -3.053 0
M  V30 616 H 56.7738 -4.55256 -2.60465 0
M  V30 617 H 58.2478 -3.70623 -4.09075 0
M  V30 618 H 58.7248 -2.02081 -3.89948 0
M  V30 619 H 59.3308 -3.24003 -2.75503 0
M  V30 620 N 57.6459 0.756429 -1.3826 0
M  V30 621 C 58.8859 1.52833 -1.35725 0
M  V30 622 C 59.2499 1.91926 0.0534106 0
M  V30 623 O 60.4509 2.68028 0.203613 0
M  V30 624 C 58.7219 2.74919 -2.28373 0
M  V30 625 S 60.2809 3.64817 -2.43832 0
M  V30 626 H 57.0989 0.523043 -0.481608 0
M  V30 627 H 59.7009 0.888212 -1.74158 0
M  V30 628 H 58.4049 2.44304 -3.29763 0
M  V30 629 H 57.9359 3.43878 -1.91079 0
M  V30 630 H 59.9509 4.676 -1.66027 0
M  V30 631 N 59.124 1.23083 0.984299 0
M  V30 632 C 60.054 1.03292 2.09411 0
M  V30 633 C 61.035 -0.048923 1.7003 0
M  V30 634 O 62.22 0.114967 1.93859 0
M  V30 635 C 59.35 0.619155 3.41736 0
M  V30 636 C 58.304 1.64791 3.95004 0
M  V30 637 C 57.63 1.0897 5.23478 0
M  V30 638 C 58.93 3.03999 4.24714 0
M  V30 639 H 60.624 1.96119 2.26225 0
M  V30 640 H 58.17 0.944344 1.08711 0
M  V30 641 H 60.123 0.467777 4.18796 0
M  V30 642 H 58.847 -0.344786 3.24775 0
M  V30 643 H 57.506 1.78721 3.20085 0
M  V30 644 H 57.154 0.11686 5.02864 0
M  V30 645 H 56.854 1.77704 5.60085 0
M  V30 646 H 58.378 0.950093 6.03163 0
M  V30 647 H 59.792 2.93393 4.92538 0
M  V30 648 H 58.189 3.69936 4.72512 0
M  V30 649 H 59.259 3.53285 3.32142 0
M  V30 650 N 60.6021 -1.18246 1.0419 0
M  V30 651 C 61.8501 -1.87886 0.744543 0
M  V30 652 C 62.1711 -1.8082 -0.730006 0
M  V30 653 O 61.4411 -1.22736 -1.52685 0
M  V30 654 H 60.0211 -0.695556 0.272417 0
M  V30 655 H 62.6831 -1.43494 1.31892 0
M  V30 656 H 61.7791 -2.9389 1.05049 0
M  V30 657 N 62.0802 -0.821533 -1.34494 0
M  V30 658 C 63.4912 -0.467956 -1.8074 0
M  V30 659 C 63.8422 1.01151 -1.68116 0
M  V30 660 O 62.9672 1.78707 -1.22036 0
M  V30 661 C 63.5622 -0.842627 -3.28154 0
M  V30 662 C 62.1212 -0.541439 -3.72485 0
M  V30 663 C 61.2682 -1.06028 -2.56229 0
M  V30 664 H 64.2192 -1.01183 -1.22261 0
M  V30 665 H 64.2402 -0.145876 -3.8022 0
M  V30 666 H 63.7522 -1.91945 -3.37311 0
M  V30 667 H 61.8532 0.526034 -3.68868 0
M  V30 668 H 61.9662 -1.08453 -4.66663 0
M  V30 669 H 60.3302 -0.481892 -2.501 0
M  V30 670 H 61.1132 -2.14352 -2.68157 0
M  V30 671 N 63.5583 1.46682 -0.576371 0
M  V30 672 C 64.5053 2.30241 0.160499 0
M  V30 673 C 65.4753 1.40233 0.890162 0
M  V30 674 O 66.6603 1.69186 0.882084 0
M  V30 675 C 63.8003 3.24578 1.1723 0
M  V30 676 C 62.9133 4.29684 0.446736 0
M  V30 677 C 62.0483 5.11154 1.44551 0
M  V30 678 C 61.0873 6.08015 0.70599 0
M  V30 679 N 60.2243 6.82376 1.65251 0
M  V30 680 H 65.0643 2.92727 -0.558127 0
M  V30 681 H 62.6013 1.44272 -0.287056 0
M  V30 682 H 64.5593 3.77711 1.77172 0
M  V30 683 H 63.1893 2.63916 1.85872 0
M  V30 684 H 62.2413 3.79458 -0.267594 0
M  V30 685 H 63.5533 4.98626 -0.131686 0
M  V30 686 H 62.7073 5.68533 2.11791 0
M  V30 687 H 61.4463 4.42158 2.05786 0
M  V30 688 H 60.4513 5.49796 0.0197725 0
M  V30 689 H 61.6763 6.79028 0.09912 0
M  V30 690 H 59.6223 6.16094 2.25308 0
M  V30 691 H 59.5393 7.47556 1.12673 0
M  V30 692 H 60.8073 7.44316 2.31546 0
M  V30 693 N 65.0364 0.313813 1.54444 0
M  V30 694 C 66.2614 -0.296681 2.05267 0
M  V30 695 C 66.6864 -1.45757 1.18897 0
M  V30 696 O 66.0444 -1.80239 0.195886 0
M  V30 697 C 66.0924 -0.71831 3.53373 0
M  V30 698 O 65.1964 -1.82175 3.69981 0
M  V30 699 H 64.5374 -0.0554061 0.661684 0
M  V30 700 H 67.0674 0.459387 1.99376 0
M  V30 701 H 67.0774 -1.00364 3.95463 0
M  V30 702 H 65.7524 0.130821 4.15694 0
M  V30 703 H 64.3294 -1.53598 3.39797 0
M  V30 704 N 66.5145 -1.57545 0.0417849 0
M  V30 705 C 67.4475 -2.06514 -0.970928 0
M  V30 706 C 68.4255 -0.963607 -1.30971 0
M  V30 707 O 69.6095 -1.23486 -1.4242 0
M  V30 708 C 66.7365 -2.4978 -2.28752 0
M  V30 709 C 65.7825 -3.71078 -2.10246 0
M  V30 710 S 66.6155 -5.17158 -1.38952 0
M  V30 711 C 67.7715 -5.6373 -2.71954 0
M  V30 712 H 68.0045 -2.9209 -0.554129 0
M  V30 713 H 65.5375 -1.53459 -0.17024 0
M  V30 714 H 67.4955 -2.75371 -3.04435 0
M  V30 715 H 66.1565 -1.64527 -2.67562 0
M  V30 716 H 65.3495 -3.9924 -3.07609 0
M  V30 717 H 64.9515 -3.45705 -1.42704 0
M  V30 718 H 67.2435 -5.68743 -3.68154 0
M  V30 719 H 68.1865 -6.63086 -2.4844 0
M  V30 720 H 68.5945 -4.91424 -2.77782 0
M  V30 721 N 67.9926 0.231505 -1.5589 0
M  V30 722 C 68.9256 1.31369 -1.86595 0
M  V30 723 C 69.9036 1.45671 -0.722397 0
M  V30 724 O 71.0876 1.61642 -0.969743 0
M  V30 725 C 68.2146 2.68529 -2.06421 0
M  V30 726 C 67.2606 2.71295 -3.29092 0
M  V30 727 S 68.0936 2.26358 -4.85306 0
M  V30 728 C 69.2496 3.65414 -5.08157 0
M  V30 729 H 69.4826 1.05128 -2.78092 0
M  V30 730 H 67.0156 0.433259 -1.48197 0
M  V30 731 H 68.9736 3.47499 -2.18528 0
M  V30 732 H 67.6346 2.91999 -1.15738 0
M  V30 733 H 66.8276 3.72063 -3.39978 0
M  V30 734 H 66.4296 2.0038 -3.15791 0
M  V30 735 H 68.7216 4.6103 -4.96445 0
M  V30 736 H 69.6646 3.5945 -6.10083 0
M  V30 737 H 70.0726 3.5864 -4.35933 0
M  V30 738 N 69.4707 1.49531 0.497807 0
M  V30 739 C 70.4177 1.66436 1.59899 0
M  V30 740 C 71.3877 0.505793 1.58212 0
M  V30 741 O 72.5727 0.733202 1.7615 0
M  V30 742 C 69.7127 1.7399 2.98029 0
M  V30 743 C 68.8257 3.01172 3.09708 0
M  V30 744 C 67.9607 2.99686 4.38591 0
M  V30 745 C 66.9997 4.21434 4.43914 0
M  V30 746 N 66.1367 4.1784 5.64229 0
M  V30 747 H 70.9767 2.60459 1.44793 0
M  V30 748 H 68.5137 1.29137 0.704423 0
M  V30 749 H 70.4717 1.76352 3.78095 0
M  V30 750 H 69.1017 0.834301 3.11832 0
M  V30 751 H 68.1537 3.08408 2.22685 0
M  V30 752 H 69.4657 3.91165 3.09502 0
M  V30 753 H 68.6197 3.00628 5.2698 0
M  V30 754 H 67.3587 2.07477 4.41367 0
M  V30 755 H 66.3637 4.20733 3.53926 0
M  V30 756 H 67.5887 5.14839 4.42851 0
M  V30 757 H 65.5347 3.28469 5.67841 0
M  V30 758 H 65.4517 5.01571 5.65652 0
M  V30 759 H 66.7197 4.22889 6.54817 0
M  V30 760 N 70.9488 -0.749086 1.3866 0
M  V30 761 C 71.8818 -1.87111 1.30631 0
M  V30 762 C 72.8598 -1.61572 0.18251 0
M  V30 763 O 74.0438 -1.85019 0.360592 0
M  V30 764 C 71.1708 -3.22815 1.02511 0
M  V30 765 C 70.2168 -3.67234 2.1689 0
M  V30 766 S 71.0498 -3.78245 3.79066 0
M  V30 767 C 72.2058 -5.16761 3.53142 0
M  V30 768 H 72.4388 -1.93636 2.25594 0
M  V30 769 H 69.9718 -0.912525 1.24549 0
M  V30 770 H 71.9298 -4.01181 0.869701 0
M  V30 771 H 70.5908 -3.13964 0.0925884 0
M  V30 772 H 69.7838 -4.65677 1.92771 0
M  V30 773 H 69.3858 -2.96034 2.28561 0
M  V30 774 H 71.6778 -6.02656 3.09534 0
M  V30 775 H 72.6208 -5.45902 4.50995 0
M  V30 776 H 73.0288 -4.85771 2.87554 0
M  V30 777 N 72.4269 -1.23603 -0.977757 0
M  V30 778 C 73.3569 -1.04401 -2.0886 0
M  V30 779 C 74.3379 0.0399052 -1.70053 0
M  V30 780 O 75.5229 -0.125246 -1.93796 0
M  V30 781 C 72.6529 -0.637269 -3.41403 0
M  V30 782 C 71.6069 -1.66883 -3.94124 0
M  V30 783 C 70.9329 -1.11745 -5.22893 0
M  V30 784 C 72.2329 -3.06247 -4.23096 0
M  V30 785 H 73.9269 -1.97316 -2.25182 0
M  V30 786 H 71.4729 -0.950096 -1.08209 0
M  V30 787 H 73.4259 -0.48998 -4.18542 0
M  V30 788 H 72.1499 0.327557 -3.24953 0
M  V30 789 H 70.8089 -1.80416 -3.19133 0
M  V30 790 H 70.4569 -0.143527 -5.02795 0
M  V30 791 H 70.1569 -1.80672 -5.59134 0
M  V30 792 H 71.6809 -0.982067 -6.02651 0
M  V30 793 H 73.0949 -2.96001 -4.90975 0
M  V30 794 H 71.4919 -3.72436 -4.70544 0
M  V30 795 H 72.5619 -3.55041 -3.30263 0
M  V30 796 N 73.905 1.17692 -1.04816 0
M  V30 797 C 74.835 2.23777 -0.666791 0
M  V30 798 C 75.816 1.66796 0.33361 0
M  V30 799 O 77.001 1.93039 0.212042 0
M  V30 800 C 74.131 3.47281 -0.0367933 0
M  V30 801 C 73.085 4.17059 -0.961546 0
M  V30 802 C 72.411 5.34342 -0.195626 0
M  V30 803 C 73.711 4.69713 -2.28402 0
M  V30 804 H 75.405 2.55933 -1.55367 0
M  V30 805 H 72.951 1.23019 -0.748484 0
M  V30 806 H 74.904 4.20706 0.241775 0
M  V30 807 H 73.628 3.14381 0.885004 0
M  V30 808 H 72.287 3.45541 -1.22462 0
M  V30 809 H 71.935 4.97692 0.728816 0
M  V30 810 H 71.635 5.81966 -0.811775 0
M  V30 811 H 73.159 6.10553 0.0757473 0
M  V30 812 H 74.573 5.34794 -2.06563 0
M  V30 813 H 72.97 5.279 -2.8538 0
M  V30 814 H 74.04 3.86726 -2.92525 0
M  V30 815 N 75.3831 0.828654 1.34056 0
M  V30 816 C 76.6601 0.341809 1.9259 0
M  V30 817 C 77.0401 -1.17158 1.75605 0
M  V30 818 O 76.3881 -1.98132 1.13824 0
M  V30 819 C 76.5981 0.777453 3.4023 0
M  V30 820 C 77.9461 0.779579 4.17382 0
M  V30 821 O 78.9701 0.7204 3.48839 0
M  V30 822 O 77.8291 0.857996 5.39723 0
M  V30 823 H 74.9231 0.0946085 0.821571 0
M  V30 824 H 77.4691 0.913827 1.42994 0
M  V30 825 H 76.2411 1.8196 3.46419 0
M  V30 826 H 75.8641 0.181444 3.97186 0
M  V30 827 N 76.8612 -1.46375 0.584142 0
M  V30 828 C 78.2722 -1.86031 0.157959 0
M  V30 829 C 78.6232 -1.48753 -1.27933 0
M  V30 830 O 77.7482 -0.903098 -1.96655 0
M  V30 831 C 78.3432 -3.37642 0.279892 0
M  V30 832 C 76.9022 -3.76289 -0.09143 0
M  V30 833 C 76.0492 -2.7039 0.615178 0
M  V30 834 H 79.0002 -1.37509 0.792274 0
M  V30 835 H 79.0212 -3.77275 -0.494364 0
M  V30 836 H 78.5332 -3.64742 1.32607 0
M  V30 837 H 76.6342 -3.54806 -1.13769 0
M  V30 838 H 76.7472 -4.78246 0.285886 0
M  V30 839 H 75.1112 -2.5464 0.0552833 0
M  V30 840 H 75.8942 -3.0033 1.66303 0
M  V30 841 N 78.3393 -0.321999 -1.54275 0
M  V30 842 C 79.2723 0.58718 -2.20516 0
M  V30 843 C 80.2503 1.11693 -1.18167 0
M  V30 844 O 81.4343 1.18122 -1.46899 0
M  V30 845 C 78.5613 1.80554 -2.86562 0
M  V30 846 C 77.6073 1.40718 -4.02617 0
M  V30 847 S 78.4403 0.445218 -5.33646 0
M  V30 848 C 79.5963 1.6709 -6.03185 0
M  V30 849 H 79.8293 0.0244875 -2.9729 0
M  V30 850 H 77.3623 -0.106087 -1.54035 0
M  V30 851 H 79.3203 2.50462 -3.25237 0
M  V30 852 H 77.9813 2.33942 -2.09595 0
M  V30 853 H 77.1743 2.31501 -4.47687 0
M  V30 854 H 76.7763 0.78782 -3.65608 0
M  V30 855 H 79.0683 2.60856 -6.25268 0
M  V30 856 H 80.0113 1.26239 -6.96756 0
M  V30 857 H 80.4193 1.85716 -5.33076 0
M  V30 858 N 79.8174 1.5752 -0.0501392 0
M  V30 859 C 81.0654 1.9227 0.622642 0
M  V30 860 C 81.3864 0.929083 1.71444 0
M  V30 861 O 80.6564 -0.0262186 1.95882 0
M  V30 862 H 79.2364 0.709739 0.232981 0
M  V30 863 H 81.8984 1.94628 -0.102898 0
M  V30 864 H 80.9944 2.93479 1.06191 0
M  V30 865 N 81.2955 -0.223234 1.56011 0
M  V30 866 C 82.5435 -0.946003 1.78592 0
M  V30 867 C 82.8645 -1.84936 0.618349 0
M  V30 868 O 82.1345 -1.92473 -0.364833 0
M  V30 869 H 80.7145 -0.352298 0.658707 0
M  V30 870 H 83.3765 -0.235494 1.93472 0
M  V30 871 H 82.4725 -1.55381 2.70672 0
M  V30 872 N 82.7736 -1.49793 -0.48987 0
M  V30 873 C 84.0226 -1.59085 -1.23995 0
M  V30 874 C 84.3356 -0.287907 -1.9347 0
M  V30 875 O 85.5416 -0.259506 -2.70257 0
M  V30 876 C 83.9976 -2.80736 -2.252 0
M  V30 877 C 83.6056 -4.17833 -1.61614 0
M  V30 878 C 85.3496 -2.99364 -3.00967 0
M  V30 879 C 83.2566 -5.30693 -2.60996 0
M  V30 880 H 82.1866 -0.592372 -0.466488 0
M  V30 881 H 84.8376 -1.76197 -0.51252 0
M  V30 882 H 83.2196 -2.57142 -3.01154 0
M  V30 883 H 84.3936 -4.51608 -0.915774 0
M  V30 884 H 82.7086 -4.04656 -0.981977 0
M  V30 885 H 85.3056 -3.80851 -3.75308 0
M  V30 886 H 85.6486 -2.10356 -3.59244 0
M  V30 887 H 86.1816 -3.2305 -2.32128 0
M  V30 888 H 82.9206 -6.21796 -2.07485 0
M  V30 889 H 82.4406 -5.01359 -3.2924 0
M  V30 890 H 84.1196 -5.6049 -3.23202 0
M  V30 891 N 84.2517 0.741722 -1.39055 0
M  V30 892 C 85.4977 1.50336 -1.36113 0
M  V30 893 C 85.8307 1.94148 0.0450796 0
M  V30 894 O 85.1057 1.66301 1.00868 0
M  V30 895 C 85.3887 2.74773 -2.32749 0
M  V30 896 C 85.2417 2.37023 -3.82283 0
M  V30 897 C 86.5607 3.76846 -2.27322 0
M  V30 898 H 83.6797 0.545351 -0.495743 0
M  V30 899 H 86.3217 0.848624 -1.69995 0
M  V30 900 H 84.4717 3.30639 -2.03986 0
M  V30 901 H 86.1437 1.8684 -4.21768 0
M  V30 902 H 84.3867 1.69334 -3.99385 0
M  V30 903 H 85.0577 3.26104 -4.45376 0
M  V30 904 H 87.5337 3.30548 -2.5274 0
M  V30 905 H 86.4097 4.6159 -2.97028 0
M  V30 906 H 86.6707 4.23286 -1.27599 0
M  V30 907 N 85.7298 1.2412 0.971189 0
M  V30 908 C 86.6628 0.97373 2.06382 0
M  V30 909 C 87.6408 -0.0912662 1.62344 0
M  V30 910 O 88.8248 0.0449365 1.88446 0
M  V30 911 C 85.9518 0.468746 3.35441 0
M  V30 912 C 84.9978 1.52176 3.98428 0
M  V30 913 S 85.8308 3.10203 4.36503 0
M  V30 914 C 86.9868 2.61398 5.68702 0
M  V30 915 H 87.2198 1.89893 2.28753 0
M  V30 916 H 84.7528 1.07466 1.10862 0
M  V30 917 H 86.7108 0.184012 4.10087 0
M  V30 918 H 85.3718 -0.435688 3.11064 0
M  V30 919 H 84.5648 1.11876 4.91426 0
M  V30 920 H 84.1668 1.75632 3.30196 0
M  V30 921 H 86.4588 2.03992 6.4606 0
M  V30 922 H 87.4018 3.52972 6.13854 0
M  V30 923 H 87.8098 2.01941 5.27143 0
M  V30 924 N 87.2079 -1.17134 1.05439 0
M  V30 925 C 88.4359 -1.91372 0.786414 0
M  V30 926 C 88.8509 -1.76955 -0.658202 0
M  V30 927 O 88.2079 -1.10838 -1.44987 0
M  V30 928 C 88.2589 -3.42356 1.1608 0
M  V30 929 O 87.9799 -3.56332 2.54871 0
M  V30 930 C 89.4809 -4.33663 0.919322 0
M  V30 931 H 86.7009 -0.607118 0.285743 0
M  V30 932 H 89.2449 -1.48525 1.40572 0
M  V30 933 H 87.3999 -3.82939 0.586191 0
M  V30 934 H 87.8139 -4.49896 2.69618 0
M  V30 935 H 89.2879 -5.38099 1.231 0
M  V30 936 H 89.7649 -4.38959 -0.145359 0
M  V30 937 H 90.3709 -3.98796 1.47789 0
M  V30 938 N 88.686 -0.835752 -1.33615 0
M  V30 939 C 89.634 -0.255238 -2.31195 0
M  V30 940 C 90.628 0.61107 -1.57995 0
M  V30 941 O 91.834 0.500979 -1.72888 0
M  V30 942 H 88.209 -0.0638085 -0.749288 0
M  V30 943 H 90.18 -1.09283 -2.77669 0
M  V30 944 C 88.929 0.55754 -3.43201 0
M  V30 945 H 88.252 -0.0997553 -3.99676 0
M  V30 946 H 89.692 0.929622 -4.13683 0
M  V30 947 C 88.151 1.73515 -2.88781 0
M  V30 948 O 88.681 2.83376 -2.84712 0
M  V30 949 N 86.887 1.55603 -2.4543 0
M  V30 950 H 86.434 0.662354 -2.48939 0
M  V30 951 H 86.392 2.34545 -2.09371 0
M  V30 952 N 90.1641 1.46063 -0.591896 0
M  V30 953 C 91.4411 1.95595 -0.0137119 0
M  V30 954 C 91.8211 1.5345 1.4497 0
M  V30 955 O 91.1691 0.789543 2.14426 0
M  V30 956 C 91.3791 3.48453 -0.195373 0
M  V30 957 C 92.7271 4.24546 -0.0679765 0
M  V30 958 O 93.7511 3.55982 -0.124681 0
M  V30 959 O 92.6101 5.46467 0.0600579 0
M  V30 960 H 89.7041 0.825795 0.0446279 0
M  V30 961 H 92.2501 1.56303 -0.660859 0
M  V30 962 H 91.0221 3.72045 -1.21235 0
M  V30 963 H 90.6451 3.94597 0.487775 0
M  V30 964 N 91.6422 0.330177 1.54103 0
M  V30 965 C 92.8902 -0.269871 2.0029 0
M  V30 966 C 93.2112 -1.52133 1.21986 0
M  V30 967 O 92.4812 -1.93212 0.323438 0
M  V30 968 H 91.0612 -0.10271 0.739905 0
M  V30 969 H 93.7232 0.448249 1.89675 0
M  V30 970 H 92.8192 -0.52166 3.07709 0
M  V30 971 N 93.1203 -1.57491 0.0584922 0
M  V30 972 C 94.0683 -2.13148 -0.931168 0
M  V30 973 C 95.0623 -1.06507 -1.31729 0
M  V30 974 O 96.2683 -1.24906 -1.29609 0
M  V30 975 H 92.6433 -0.68137 -0.31818 0
M  V30 976 H 94.6143 -2.95187 -0.436707 0
M  V30 977 C 93.3633 -2.69732 -2.19408 0
M  V30 978 H 92.6863 -3.51454 -1.90578 0
M  V30 979 H 94.1263 -3.12287 -2.86798 0
M  V30 980 C 92.5853 -1.63855 -2.94369 0
M  V30 981 O 93.1153 -1.05565 -3.87581 0
M  V30 982 N 91.3213 -1.35202 -2.57233 0
M  V30 983 H 90.8683 -1.82791 -1.81508 0
M  V30 984 H 90.8263 -0.645922 -3.07693 0
M  V30 985 N 94.5984 0.214957 -1.56127 0
M  V30 986 C 95.5614 1.24997 -1.92116 0
M  V30 987 C 96.5614 1.39467 -0.800344 0
M  V30 988 O 97.7514 1.37619 -1.06802 0
M  V30 989 C 94.8834 2.62271 -2.17777 0
M  V30 990 H 96.0764 0.942875 -2.84693 0
M  V30 991 H 93.6294 0.455654 -1.49511 0
M  V30 992 H 94.3644 2.98068 -1.27773 0
M  V30 993 H 94.1494 2.53143 -2.99434 0
M  V30 994 H 95.6394 3.36946 -2.46693 0
M  V30 995 N 96.0765 1.50051 0.48192 0
M  V30 996 C 97.3255 1.59741 1.23149 0
M  V30 997 C 97.6385 0.298163 1.93314 0
M  V30 998 O 98.8445 0.273835 2.70116 0
M  V30 999 C 97.3005 2.81926 2.23708 0
M  V30 1000 C 96.9085 4.18685 1.59396 0
M  V30 1001 C 98.6525 3.00956 2.99375 0
M  V30 1002 C 96.5595 5.3207 2.58178 0
M  V30 1003 H 95.4895 0.594838 0.46334 0
M  V30 1004 H 98.1405 1.76467 0.503169 0
M  V30 1005 H 96.5225 2.58736 2.99786 0
M  V30 1006 H 97.6965 4.52088 0.891811 0
M  V30 1007 H 96.0115 4.05171 0.960503 0
M  V30 1008 H 98.6085 3.82836 3.73283 0
M  V30 1009 H 98.9515 2.12258 3.58123 0
M  V30 1010 H 99.4845 3.24277 2.30411 0
M  V30 1011 H 96.2235 6.22888 2.04184 0
M  V30 1012 H 95.7435 5.03098 3.26577 0
M  V30 1013 H 97.4225 5.62196 3.20225 0
M  V30 1014 N 97.5546 -0.734337 1.39446 0
M  V30 1015 C 98.4846 -1.86155 1.40955 0
M  V30 1016 C 99.4656 -1.67898 0.272827 0
M  V30 1017 O 100.651 -1.88207 0.478743 0
M  V30 1018 C 97.7806 -3.23912 1.25294 0
M  V30 1019 C 96.7346 -3.56808 2.36373 0
M  V30 1020 C 96.0606 -4.93508 2.058 0
M  V30 1021 C 97.3606 -3.59713 3.78687 0
M  V30 1022 H 99.0546 -1.8515 2.35287 0
M  V30 1023 H 96.6006 -0.889367 1.13253 0
M  V30 1024 H 98.5536 -4.02443 1.2497 0
M  V30 1025 H 97.2776 -3.25446 0.274308 0
M  V30 1026 H 95.9366 -2.80606 2.35914 0
M  V30 1027 H 95.5846 -4.91623 1.06374 0
M  V30 1028 H 95.2846 -5.16486 2.80208 0
M  V30 1029 H 96.8086 -5.74396 2.07128 0
M  V30 1030 H 98.2226 -4.2832 3.81071 0
M  V30 1031 H 96.6196 -3.94209 4.52459 0
M  V30 1032 H 97.6896 -2.59504 4.09617 0
M  V30 1033 N 99.0327 -1.24633 -0.964593 0
M  V30 1034 C 100.449 -1.01239 -1.2338 0
M  V30 1035 C 100.649 0.2769 -1.99588 0
M  V30 1036 O 99.7047 0.992241 -2.32187 0
M  V30 1037 C 101.018 -2.22937 -2.01791 0
M  V30 1038 C 102.566 -2.27594 -2.14872 0
M  V30 1039 C 103.041 -3.48921 -2.96678 0
M  V30 1040 N 104.532 -3.49257 -3.04259 0
M  V30 1041 C 105.267 -4.39795 -3.67924 0
M  V30 1042 N 104.763 -5.40591 -4.33281 0
M  V30 1043 N 106.556 -4.275 -3.64966 0
M  V30 1044 H 98.7067 -2.0748 -0.454502 0
M  V30 1045 H 100.97 -0.910647 -0.26349 0
M  V30 1046 H 100.676 -3.16587 -1.53184 0
M  V30 1047 H 100.55 -2.25306 -3.02518 0
M  V30 1048 H 102.937 -1.34473 -2.6268 0
M  V30 1049 H 103.018 -2.2925 -1.13482 0
M  V30 1050 H 102.662 -4.42359 -2.49562 0
M  V30 1051 H 102.592 -3.4451 -3.98272 0
M  V30 1052 H 105.083 -2.76337 -2.57771 0
M  V30 1053 H 105.396 -6.05904 -4.79687 0
M  V30 1054 H 103.741 -5.44475 -4.3194 0
M  V30 1055 H 106.932 -3.47987 -3.13086 0
M  V30 1056 H 107.105 -4.98258 -4.14298 0
M  V30 1057 N 100.511 1.16574 -1.06058 0
M  V30 1058 C 101.421 2.2452 -0.680282 0
M  V30 1059 C 102.437 1.71348 0.302604 0
M  V30 1060 O 103.613 2.00822 0.152513 0
M  V30 1061 C 100.678 3.46629 -0.0700315 0
M  V30 1062 C 99.7388 4.14849 -1.10448 0
M  V30 1063 C 98.9718 5.31129 -0.523256 0
M  V30 1064 O 99.1948 5.66514 0.664709 0
M  V30 1065 O 98.1288 5.88526 -1.26179 0
M  V30 1066 H 101.955 2.59355 -1.58015 0
M  V30 1067 H 99.5398 1.24043 -0.832694 0
M  V30 1068 H 101.422 4.20543 0.268667 0
M  V30 1069 H 100.097 3.13573 0.803353 0
M  V30 1070 H 99.0038 3.42916 -1.49532 0
M  V30 1071 H 100.337 4.51954 -1.94931 0
M  V30 1072 N 101.989 0.842826 1.3317 0
M  V30 1073 C 103.238 0.436738 1.96915 0
M  V30 1074 C 103.551 -1.01025 1.67491 0
M  V30 1075 O 104.757 -1.5212 2.24881 0
M  V30 1076 C 103.213 0.730021 3.52418 0
M  V30 1077 C 102.821 2.19195 3.90714 0
M  V30 1078 C 104.565 0.391076 4.22695 0
M  V30 1079 C 102.472 2.42907 5.39212 0
M  V30 1080 H 101.402 0.15958 0.736919 0
M  V30 1081 H 104.053 1.03196 1.51733 0
M  V30 1082 H 102.435 0.0643755 3.95948 0
M  V30 1083 H 103.609 2.8984 3.58231 0
M  V30 1084 H 101.924 2.49425 3.33431 0
M  V30 1085 H 104.521 0.545817 5.31907 0
M  V30 1086 H 104.864 -0.666294 4.10933 0
M  V30 1087 H 105.397 1.01212 3.84709 0
M  V30 1088 H 102.136 3.47224 5.55982 0
M  V30 1089 H 101.656 1.76827 5.73142 0
M  V30 1090 H 103.335 2.2626 6.06148 0
M  V30 1091 N 103.467 -1.45747 0.599634 0
M  V30 1092 C 104.399 -2.28628 -0.161879 0
M  V30 1093 C 105.412 -1.39494 -0.839367 0
M  V30 1094 O 106.601 -1.63941 -0.706089 0
M  V30 1095 C 103.701 -3.15014 -1.24976 0
M  V30 1096 C 102.874 -4.32378 -0.660935 0
M  V30 1097 C 101.933 -5.00033 -1.63869 0
M  V30 1098 O 100.959 -5.57085 -1.1681 0
M  V30 1099 N 102.161 -4.98589 -2.97303 0
M  V30 1100 H 104.926 -2.94624 0.549265 0
M  V30 1101 H 102.487 -1.55847 0.438565 0
M  V30 1102 H 104.479 -3.5714 -1.9035 0
M  V30 1103 H 103.049 -2.5098 -1.86354 0
M  V30 1104 H 102.269 -3.9383 0.170688 0
M  V30 1105 H 103.557 -5.08197 -0.247619 0
M  V30 1106 H 102.955 -4.53514 -3.38145 0
M  V30 1107 H 101.512 -5.44603 -3.58121 0
M  V30 1108 N 104.945 -0.338344 -1.53925 0
M  V30 1109 C 106.191 0.260143 -2.01125 0
M  V30 1110 C 106.524 1.50617 -1.22589 0
M  V30 1111 O 105.799 1.91979 -0.312113 0
M  V30 1112 C 106.082 0.579499 -3.55407 0
M  V30 1113 C 105.935 -0.678264 -4.44657 0
M  V30 1114 C 107.254 1.39122 -4.17532 0
M  V30 1115 H 104.373 0.0930772 -0.731099 0
M  V30 1116 H 107.015 -0.457852 -1.84401 0
M  V30 1117 H 105.165 1.19118 -3.69788 0
M  V30 1118 H 106.837 -1.31631 -4.42121 0
M  V30 1119 H 105.08 -1.3042 -4.13731 0
M  V30 1120 H 105.751 -0.410143 -5.50474 0
M  V30 1121 H 108.227 0.874035 -4.06817 0
M  V30 1122 H 107.103 1.58342 -5.25565 0
M  V30 1123 H 107.364 2.39178 -3.71815 0
M  V30 1124 N 106.423 1.57458 -0.0668435 0
M  V30 1125 C 107.355 2.09413 0.931601 0
M  V30 1126 C 108.368 1.02522 1.26464 0
M  V30 1127 O 109.557 1.30049 1.22269 0
M  V30 1128 C 106.657 2.53537 2.24882 0
M  V30 1129 C 105.83 3.83944 2.09537 0
M  V30 1130 C 104.889 4.14214 3.2452 0
M  V30 1131 O 103.915 4.83891 2.9973 0
M  V30 1132 N 105.117 3.67367 4.49469 0
M  V30 1133 H 107.882 2.95699 0.488048 0
M  V30 1134 H 105.443 1.61462 0.119009 0
M  V30 1135 H 107.435 2.70853 3.00701 0
M  V30 1136 H 106.005 1.72415 2.60753 0
M  V30 1137 H 105.225 3.76057 1.18215 0
M  V30 1138 H 106.513 4.69312 1.96529 0
M  V30 1139 H 105.911 3.11068 4.72497 0
M  V30 1140 H 104.468 3.89891 5.2233 0
M  V30 1141 N 107.901 -0.206675 1.56239 0
M  V30 1142 C 108.851 -1.26 1.90021 0
M  V30 1143 C 109.835 -1.41566 0.764721 0
M  V30 1144 O 111.027 -1.44131 1.02739 0
M  V30 1145 C 108.156 -2.6073 2.23326 0
M  V30 1146 C 107.242 -2.49005 3.43304 0
M  V30 1147 N 107.633 -2.06946 4.61527 0
M  V30 1148 C 105.931 -2.79927 3.47213 0
M  V30 1149 C 106.632 -2.06832 5.43687 0
M  V30 1150 N 105.608 -2.47892 4.83788 0
M  V30 1151 H 109.41 -0.925955 2.78932 0
M  V30 1152 H 106.924 -0.415172 1.57003 0
M  V30 1153 H 108.921 -3.36798 2.45708 0
M  V30 1154 H 107.581 -2.94968 1.35735 0
M  V30 1155 H 108.592 -1.77839 4.86409 0
M  V30 1156 H 105.269 -3.18438 2.70006 0
M  V30 1157 H 106.659 -1.76312 6.48354 0
M  V30 1158 N 109.379 -1.50304 -0.473955 0
M  V30 1159 C 110.79 -1.54042 -1.0549 0
M  V30 1160 C 111.141 -0.342248 -1.93192 0
M  V30 1161 O 110.266 0.545157 -2.09421 0
M  V30 1162 C 110.861 -2.79152 -1.91989 0
M  V30 1163 C 109.42 -2.8558 -2.45196 0
M  V30 1164 C 108.567 -2.48295 -1.2347 0
M  V30 1165 H 111.518 -1.5661 -0.256693 0
M  V30 1166 H 111.539 -2.60845 -2.7702 0
M  V30 1167 H 111.051 -3.66339 -1.28131 0
M  V30 1168 H 109.152 -2.02738 -3.12615 0
M  V30 1169 H 109.265 -3.88403 -2.80499 0
M  V30 1170 H 107.629 -2.00669 -1.56856 0
M  V30 1171 H 108.412 -3.37787 -0.612789 0
M  V30 1172 N 110.857 0.726932 -1.39834 0
M  V30 1173 C 111.82 1.82269 -1.38962 0
M  V30 1174 C 112.82 1.58248 -0.285334 0
M  V30 1175 O 114.01 1.65499 -0.54366 0
M  V30 1176 C 111.142 3.20186 -1.17019 0
M  V30 1177 H 112.335 1.84443 -2.36476 0
M  V30 1178 H 109.888 0.931416 -1.25516 0
M  V30 1179 H 110.623 3.23669 -0.202204 0
M  V30 1180 H 110.408 3.3902 -1.96998 0
M  V30 1181 H 111.898 4.00235 -1.1917 0
M  V30 1182 N 112.336 1.25143 0.95797 0
M  V30 1183 C 113.299 1.05321 2.03569 0
M  V30 1184 C 114.299 0.007152 1.60798 0
M  V30 1185 O 115.489 0.24903 1.72411 0
M  V30 1186 C 112.621 0.598394 3.35607 0
M  V30 1187 H 113.814 2.00986 2.22586 0
M  V30 1188 H 111.367 1.07502 1.13459 0
M  V30 1189 H 112.102 -0.361014 3.22284 0
M  V30 1190 H 111.887 1.35351 3.67998 0
M  V30 1191 H 113.377 0.48104 4.1482 0
M  V30 1192 N 113.814 -1.1601 1.06675 0
M  V30 1193 C 114.761 -2.20525 0.680967 0
M  V30 1194 C 115.731 -1.62904 -0.324283 0
M  V30 1195 O 116.916 -1.89615 -0.212294 0
M  V30 1196 C 114.056 -3.45013 0.0776551 0
M  V30 1197 C 113.169 -4.16863 1.13355 0
M  V30 1198 C 112.304 -5.2888 0.49597 0
M  V30 1199 C 111.343 -5.92537 1.53513 0
M  V30 1200 N 110.48 -6.96038 0.920631 0
M  V30 1201 H 115.32 -2.52876 1.57663 0
M  V30 1202 H 112.857 -1.24199 0.788223 0
M  V30 1203 H 114.815 -4.16193 -0.289704 0
M  V30 1204 H 113.445 -3.132 -0.781393 0
M  V30 1205 H 112.497 -3.44248 1.61857 0
M  V30 1206 H 113.809 -4.60294 1.92174 0
M  V30 1207 H 112.963 -6.06653 0.0758604 0
M  V30 1208 H 111.702 -4.86622 -0.324062 0
M  V30 1209 H 110.707 -5.13482 1.9651 0
M  V30 1210 H 111.932 -6.36873 2.35733 0
M  V30 1211 H 109.878 -6.55888 0.12138 0
M  V30 1212 H 109.795 -7.3786 1.64616 0
M  V30 1213 H 111.063 -7.77725 0.525795 0
M  V30 1214 N 115.292 -0.849877 -1.32721 0
M  V30 1215 C 116.517 -0.463856 -2.02146 0
M  V30 1216 C 116.942 0.930449 -1.63476 0
M  V30 1217 O 116.3 1.61033 -0.832952 0
M  V30 1218 C 116.348 -0.604955 -3.55489 0
M  V30 1219 O 115.452 0.36425 -4.10788 0
M  V30 1220 H 114.793 -0.187046 -0.637111 0
M  V30 1221 H 117.323 -1.14775 -1.69375 0
M  V30 1222 H 117.333 -0.490696 -4.05038 0
M  V30 1223 H 116.008 -1.62174 -3.82978 0
M  V30 1224 H 114.585 0.206628 -3.72327 0
M  V30 1225 N 116.77 1.45427 -0.607355 0
M  V30 1226 C 117.703 2.27635 0.160482 0
M  V30 1227 C 118.681 1.37122 0.873857 0
M  V30 1228 O 119.865 1.66551 0.882775 0
M  V30 1229 C 116.992 3.15486 1.23231 0
M  V30 1230 C 116.038 4.21939 0.622097 0
M  V30 1231 S 116.871 5.32459 -0.569852 0
M  V30 1232 C 118.027 6.23879 0.502577 0
M  V30 1233 H 118.26 2.9241 -0.536983 0
M  V30 1234 H 115.793 1.49265 -0.394868 0
M  V30 1235 H 117.751 3.66659 1.84585 0
M  V30 1236 H 116.412 2.49977 1.90185 0
M  V30 1237 H 115.605 4.8333 1.42856 0
M  V30 1238 H 115.207 3.73906 0.0837063 0
M  V30 1239 H 117.499 6.63261 1.38171 0
M  V30 1240 H 118.442 7.0806 -0.0751759 0
M  V30 1241 H 118.85 5.58545 0.8178 0
M  V30 1242 N 118.248 0.346503 1.53744 0
M  V30 1243 C 119.497 -0.250122 2.00143 0
M  V30 1244 C 119.81 -1.51418 1.23822 0
M  V30 1245 O 121.016 -2.18823 1.60713 0
M  V30 1246 C 119.472 -0.496252 3.56462 0
M  V30 1247 C 119.08 0.752077 4.41642 0
M  V30 1248 C 120.824 -1.05157 4.11269 0
M  V30 1249 C 118.731 0.476583 5.89477 0
M  V30 1250 H 117.661 -0.0972409 0.747703 0
M  V30 1251 H 120.312 0.46229 1.77581 0
M  V30 1252 H 118.694 -1.26944 3.75102 0
M  V30 1253 H 119.868 1.5266 4.34778 0
M  V30 1254 H 118.183 1.22925 3.97842 0
M  V30 1255 H 120.78 -1.27269 5.19333 0
M  V30 1256 H 121.123 -2.00799 3.64672 0
M  V30 1257 H 121.656 -0.339019 3.96353 0
M  V30 1258 H 118.395 1.4028 6.40314 0
M  V30 1259 H 117.915 -0.259794 5.99237 0
M  V30 1260 H 119.594 0.0949315 6.4693 0
M  V30 1261 N 119.726 -1.57421 0.075193 0
M  V30 1262 C 120.636 -2.1642 -0.905511 0
M  V30 1263 C 121.652 -1.12828 -1.32461 0
M  V30 1264 O 122.828 -1.45109 -1.39661 0
M  V30 1265 C 119.893 -2.71693 -2.15369 0
M  V30 1266 C 118.954 -3.90171 -1.79068 0
M  V30 1267 C 118.187 -4.42798 -2.97936 0
M  V30 1268 O 118.41 -3.94416 -4.12058 0
M  V30 1269 O 117.344 -5.34085 -2.77555 0
M  V30 1270 H 121.17 -3.00588 -0.433626 0
M  V30 1271 H 118.755 -1.48664 -0.148067 0
M  V30 1272 H 120.637 -3.07104 -2.88557 0
M  V30 1273 H 119.312 -1.90582 -2.61649 0
M  V30 1274 H 118.219 -3.59606 -1.03122 0
M  V30 1275 H 119.552 -4.72584 -1.37569 0
M  V30 1276 N 121.204 0.198386 -1.56346 0
M  V30 1277 C 122.453 0.917451 -1.79627 0
M  V30 1278 C 122.766 1.8456 -0.64784 0
M  V30 1279 O 123.972 2.60504 -0.764859 0
M  V30 1280 C 122.428 1.68175 -3.18191 0
M  V30 1281 C 122.036 0.798589 -4.40825 0
M  V30 1282 C 123.78 2.39065 -3.50782 0
M  V30 1283 C 121.687 1.56157 -5.70411 0
M  V30 1284 H 120.617 0.346317 -0.669762 0
M  V30 1285 H 123.268 0.170801 -1.82703 0
M  V30 1286 H 121.65 2.47216 -3.09354 0
M  V30 1287 H 122.824 0.0470665 -4.60776 0
M  V30 1288 H 121.139 0.200686 -4.15916 0
M  V30 1289 H 123.736 2.96692 -4.44835 0
M  V30 1290 H 124.079 3.13091 -2.74371 0
M  V30 1291 H 124.612 1.66993 -3.61052 0
M  V30 1292 H 121.351 0.864142 -6.49779 0
M  V30 1293 H 120.871 2.2871 -5.54483 0
M  V30 1294 H 122.55 2.11622 -6.11412 0
M  V30 1295 N 122.682 1.50554 0.465978 0
M  V30 1296 C 123.907 1.65838 1.24549 0
M  V30 1297 C 124.332 0.343486 1.84937 0
M  V30 1298 O 123.69 -0.69324 1.67523 0
M  V30 1299 C 123.738 2.75533 2.32624 0
M  V30 1300 O 122.842 2.37142 3.37398 0
M  V30 1301 H 122.183 0.553893 0.366194 0
M  V30 1302 H 124.713 1.96959 0.553927 0
M  V30 1303 H 124.723 2.98763 2.77857 0
M  V30 1304 H 123.398 3.70962 1.88043 0
M  V30 1305 H 121.975 2.24377 2.97841 0
M  V30 1306 N 124.16 -0.719506 1.40217 0
M  V30 1307 C 125.576 -1.02707 1.22161 0
M  V30 1308 C 125.776 -2.0128 0.0940557 0
M  V30 1309 O 124.832 -2.46452 -0.549318 0
M  V30 1310 C 126.145 -1.57454 2.56181 0
M  V30 1311 C 127.693 -1.69458 2.63159 0
M  V30 1312 C 128.168 -2.27611 3.97438 0
M  V30 1313 N 129.659 -2.35002 3.99159 0
M  V30 1314 C 130.394 -2.80972 4.99842 0
M  V30 1315 N 129.89 -3.26723 6.10921 0
M  V30 1316 N 131.683 -2.80321 4.87213 0
M  V30 1317 H 123.834 -0.0660492 2.12297 0
M  V30 1318 H 126.097 -0.0919077 0.943534 0
M  V30 1319 H 125.803 -0.924873 3.39321 0
M  V30 1320 H 125.677 -2.56036 2.76993 0
M  V30 1321 H 128.064 -2.33543 1.80393 0
M  V30 1322 H 128.145 -0.694867 2.46181 0
M  V30 1323 H 127.789 -1.6415 4.80643 0
M  V30 1324 H 127.719 -3.2829 4.11744 0
M  V30 1325 H 130.21 -2.02685 3.18947 0
M  V30 1326 H 130.523 -3.60355 6.8364 0
M  V30 1327 H 128.868 -3.24692 6.14492 0
M  V30 1328 H 132.059 -2.43912 3.9953 0
M  V30 1329 H 132.232 -3.15831 5.65822 0
M  V30 1330 N 125.638 -1.25649 -0.95132 0
M  V30 1331 C 126.866 -1.13343 -1.73092 0
M  V30 1332 C 127.281 0.312434 -1.86197 0
M  V30 1333 O 126.638 1.21465 -1.36207 0
M  V30 1334 C 126.689 -1.78602 -3.14299 0
M  V30 1335 O 126.41 -3.17537 -3.01831 0
M  V30 1336 C 127.911 -1.72119 -4.08522 0
M  V30 1337 H 125.131 -0.395181 -0.542285 0
M  V30 1338 H 127.675 -1.66076 -1.19328 0
M  V30 1339 H 125.83 -1.29832 -3.64996 0
M  V30 1340 H 126.244 -3.49676 -3.90931 0
M  V30 1341 H 127.718 -2.22435 -5.052 0
M  V30 1342 H 128.195 -0.685635 -4.33815 0
M  V30 1343 H 128.801 -2.20393 -3.63741 0
M  V30 1344 N 127.117 1.15442 -1.07289 0
M  V30 1345 C 128.049 2.19773 -0.650585 0
M  V30 1346 C 129.062 1.60076 0.296572 0
M  V30 1347 O 130.251 1.78293 0.0859905 0
M  V30 1348 C 127.351 3.38838 0.0650398 0
M  V30 1349 C 126.524 4.2808 -0.898141 0
M  V30 1350 C 125.583 5.2574 -0.219926 0
M  V30 1351 O 124.609 5.62654 -0.860773 0
M  V30 1352 N 125.811 5.71205 1.03466 0
M  V30 1353 H 128.576 2.56622 -1.54808 0
M  V30 1354 H 126.137 1.30551 -0.957494 0
M  V30 1355 H 128.129 4.01222 0.529415 0
M  V30 1356 H 126.699 3.00409 0.864466 0
M  V30 1357 H 125.919 3.62804 -1.54165 0
M  V30 1358 H 127.207 4.84577 -1.5512 0
M  V30 1359 H 126.605 5.43325 1.57526 0
M  V30 1360 H 125.162 6.35633 1.44272 0
M  V30 1361 N 128.595 0.856903 1.32268 0
M  V30 1362 C 129.872 0.382583 1.91822 0
M  V30 1363 C 130.252 -1.13407 1.78051 0
M  V30 1364 O 129.6 -1.95673 1.18001 0
M  V30 1365 C 129.81 0.849446 3.38505 0
M  V30 1366 C 131.158 0.867936 4.15634 0
M  V30 1367 O 132.182 0.794232 3.47232 0
M  V30 1368 O 131.041 0.972286 5.37781 0
M  V30 1369 H 128.135 0.112014 0.819379 0
M  V30 1370 H 130.681 0.943952 1.41024 0
M  V30 1371 H 129.453 1.89267 3.42482 0
M  V30 1372 H 129.076 0.265652 3.96712 0
M  V30 1373 N 130.073 -1.45103 0.615059 0
M  V30 1374 C 130.983 -2.34382 -0.101034 0
M  V30 1375 C 131.999 -1.51681 -0.852585 0
M  V30 1376 O 133.175 -1.8446 -0.808484 0
M  V30 1377 C 130.24 -3.29417 -1.08099 0
M  V30 1378 C 129.301 -4.28025 -0.330577 0
M  V30 1379 C 128.534 -5.1852 -1.26385 0
M  V30 1380 O 128.757 -5.12598 -2.50198 0
M  V30 1381 O 127.691 -5.97122 -0.756866 0
M  V30 1382 H 131.517 -2.97033 0.632855 0
M  V30 1383 H 129.102 -1.4461 0.375293 0
M  V30 1384 H 130.984 -3.87958 -1.6452 0
M  V30 1385 H 129.659 -2.69321 -1.79577 0
M  V30 1386 H 128.566 -3.73078 0.276283 0
M  V30 1387 H 129.899 -4.90997 0.343866 0
M  V30 1388 N 131.551 -0.354651 -1.53558 0
M  V30 1389 C 132.461 0.50515 -2.29097 0
M  V30 1390 C 133.477 1.10223 -1.34636 0
M  V30 1391 O 134.653 1.11553 -1.67684 0
M  V30 1392 C 131.718 1.63479 -3.05738 0
M  V30 1393 C 130.779 1.06636 -4.15845 0
M  V30 1394 C 130.012 2.14217 -4.88822 0
M  V30 1395 O 130.235 3.35137 -4.61562 0
M  V30 1396 O 129.169 1.77887 -5.75013 0
M  V30 1397 H 132.995 -0.109237 -3.03503 0
M  V30 1398 H 130.58 -0.119357 -1.48922 0
M  V30 1399 H 132.462 2.2918 -3.5363 0
M  V30 1400 H 131.137 2.23478 -2.34178 0
M  V30 1401 H 130.044 0.373565 -3.7223 0
M  V30 1402 H 131.377 0.511081 -4.89539 0
M  V30 1403 N 133.029 1.57378 -0.0835403 0
M  V30 1404 C 134.275 1.94217 0.583733 0
M  V30 1405 C 134.608 0.964653 1.68547 0
M  V30 1406 O 133.883 -0.00422258 1.945 0
M  V30 1407 C 134.166 3.41253 1.14972 0
M  V30 1408 C 134.019 4.49768 0.0538277 0
M  V30 1409 C 135.338 3.89352 2.05166 0
M  V30 1410 H 132.457 0.706233 0.210724 0
M  V30 1411 H 135.099 1.89392 -0.1519 0
M  V30 1412 H 133.249 3.45496 1.77665 0
M  V30 1413 H 134.921 4.57641 -0.579851 0
M  V30 1414 H 133.164 4.29432 -0.614068 0
M  V30 1415 H 133.835 5.49817 0.490452 0
M  V30 1416 H 136.311 3.87189 1.52393 0
M  V30 1417 H 135.187 4.92822 2.41698 0
M  V30 1418 H 135.448 3.27973 2.96456 0
M  V30 1419 N 134.507 -0.190092 1.56449 0
M  V30 1420 C 135.755 -0.907908 1.80559 0
M  V30 1421 C 136.076 -1.83583 0.657438 0
M  V30 1422 O 135.346 -1.93203 -0.323924 0
M  V30 1423 H 133.926 -0.338247 0.666032 0
M  V30 1424 H 136.588 -0.194403 1.93928 0
M  V30 1425 H 135.684 -1.49604 2.73907 0
M  V30 1426 N 135.985 -1.50799 -0.457987 0
M  V30 1427 C 137.262 -1.52968 -1.21902 0
M  V30 1428 C 137.642 -0.281906 -2.09209 0
M  V30 1429 O 136.99 0.734076 -2.16388 0
M  V30 1430 C 137.2 -2.8326 -2.03875 0
M  V30 1431 C 138.548 -3.34425 -2.6162 0
M  V30 1432 O 139.572 -2.8467 -2.14106 0
M  V30 1433 O 138.431 -4.21188 -3.48228 0
M  V30 1434 H 135.525 -0.614129 -0.553873 0
M  V30 1435 H 138.071 -1.63098 -0.468739 0
M  V30 1436 H 136.843 -3.65543 -1.39621 0
M  V30 1437 H 136.466 -2.76195 -2.8601 0
M  V30 1438 N 137.463 0.71206 -1.40597 0
M  V30 1439 C 138.711 1.46907 -1.38791 0
M  V30 1440 C 139.032 1.94998 0.00780391 0
M  V30 1441 O 138.302 1.70587 0.963174 0
M  V30 1442 H 136.882 0.545043 -0.51082 0
M  V30 1443 H 139.544 0.843882 -1.75683 0
M  V30 1444 H 138.64 2.34021 -2.06496 0
M  V30 1445 N 138.941 1.26152 0.944643 0
M  V30 1446 C 140.169 1.14259 1.72489 0
M  V30 1447 C 140.584 -0.302555 1.8636 0
M  V30 1448 O 139.941 -1.20741 1.36849 0
M  V30 1449 C 139.992 1.80266 3.13347 0
M  V30 1450 O 139.713 3.19133 3.00143 0
M  V30 1451 C 141.214 1.74283 4.07603 0
M  V30 1452 H 138.434 0.398051 0.540181 0
M  V30 1453 H 140.978 1.66706 1.18446 0
M  V30 1454 H 139.133 1.31766 3.64303 0
M  V30 1455 H 139.547 3.51744 3.89071 0
M  V30 1456 H 141.021 2.25111 5.04013 0
M  V30 1457 H 141.498 0.708631 4.33446 0
M  V30 1458 H 142.104 2.22319 3.62567 0
M  V30 1459 N 140.419 -1.14872 1.07899 0
M  V30 1460 C 141.647 -1.89661 0.82683 0
M  V30 1461 C 142.062 -1.78312 -0.620519 0
M  V30 1462 O 141.419 -1.13888 -1.42604 0
M  V30 1463 C 141.47 -3.39817 1.23316 0
M  V30 1464 O 141.191 -3.50845 2.62372 0
M  V30 1465 C 142.692 -4.31615 1.0111 0
M  V30 1466 H 139.912 -0.60092 0.298557 0
M  V30 1467 H 142.456 -1.4551 1.43691 0
M  V30 1468 H 140.611 -3.8161 0.667286 0
M  V30 1469 H 141.025 -4.44076 2.79101 0
M  V30 1470 H 142.499 -5.35367 1.34486 0
M  V30 1471 H 142.976 -4.39169 -0.0522168 0
M  V30 1472 H 143.582 -3.95572 1.56215 0
M  V30 1473 N 141.898 -0.863906 -1.31812 0
M  V30 1474 C 143.123 -0.48527 -2.01643 0
M  V30 1475 C 143.548 0.913058 -1.64453 0
M  V30 1476 O 142.906 1.6014 -0.849985 0
M  V30 1477 C 142.954 -0.642625 -3.54828 0
M  V30 1478 O 142.058 0.320659 -4.11151 0
M  V30 1479 H 141.399 -0.193793 -0.635091 0
M  V30 1480 H 143.929 -1.16565 -1.68148 0
M  V30 1481 H 143.939 -0.533628 -4.04495 0
M  V30 1482 H 142.614 -1.66227 -3.81237 0
M  V30 1483 H 141.191 0.167126 -3.72525 0
M  V30 1484 N 143.376 1.44774 -0.622745 0
M  V30 1485 C 144.622 2.0242 -0.124083 0
M  V30 1486 C 144.955 1.4881 1.24777 0
M  V30 1487 O 144.23 0.668799 1.8264 0
M  V30 1488 C 144.513 3.59957 -0.101619 0
M  V30 1489 C 144.366 4.23867 -1.50521 0
M  V30 1490 C 145.685 4.36284 0.578272 0
M  V30 1491 H 142.804 0.735528 -0.0465645 0
M  V30 1492 H 145.446 1.72447 -0.797617 0
M  V30 1493 H 143.596 3.85623 0.471934 0
M  V30 1494 H 145.268 4.09336 -2.12701 0
M  V30 1495 H 143.511 3.81684 -2.06154 0
M  V30 1496 H 144.182 5.32843 -1.4416 0
M  V30 1497 H 146.658 4.16001 0.0906057 0
M  V30 1498 H 145.534 5.46004 0.563149 0
M  V30 1499 H 145.795 4.10271 1.64713 0
M  V30 1500 N 144.854 0.36279 1.53368 0
M  V30 1501 C 146.103 -0.22888 2.00397 0
M  V30 1502 C 146.416 -1.50096 1.25421 0
M  V30 1503 O 147.622 -2.17106 1.63025 0
M  V30 1504 C 146.078 -0.458417 3.56969 0
M  V30 1505 C 145.686 0.798877 4.4082 0
M  V30 1506 C 147.43 -1.00789 4.12361 0
M  V30 1507 C 145.337 0.539078 5.88938 0
M  V30 1508 H 144.267 -0.089305 0.748693 0
M  V30 1509 H 146.918 0.481099 1.77081 0
M  V30 1510 H 145.3 -1.22959 3.76427 0
M  V30 1511 H 146.474 1.57262 4.33134 0
M  V30 1512 H 144.789 1.27137 3.96516 0
M  V30 1513 H 147.386 -1.21754 5.20653 0
M  V30 1514 H 147.729 -1.9692 3.66781 0
M  V30 1515 H 148.262 -0.296961 3.9669 0
M  V30 1516 H 145.001 1.47064 6.3879 0
M  V30 1517 H 144.521 -0.196222 5.99479 0
M  V30 1518 H 146.2 0.163542 6.46793 0
M  V30 1519 N 146.332 -1.57332 0.0918853 0
M  V30 1520 C 147.581 -1.93412 -0.572249 0
M  V30 1521 C 147.894 -0.975515 -1.69538 0
M  V30 1522 O 149.1 -1.22991 -2.42045 0
M  V30 1523 C 147.556 -3.43648 -1.0693 0
M  V30 1524 C 147.164 -4.47994 0.0239049 0
M  V30 1525 C 148.908 -3.88695 -1.70635 0
M  V30 1526 C 146.815 -5.89381 -0.488319 0
M  V30 1527 H 145.745 -0.721939 -0.217532 0
M  V30 1528 H 148.396 -1.82735 0.167369 0
M  V30 1529 H 146.778 -3.49466 -1.8625 0
M  V30 1530 H 147.952 -4.53815 0.799277 0
M  V30 1531 H 146.267 -4.12536 0.565946 0
M  V30 1532 H 148.864 -4.91725 -2.10025 0
M  V30 1533 H 149.207 -3.27166 -2.57426 0
M  V30 1534 H 149.74 -3.85564 -0.979023 0
M  V30 1535 H 146.479 -6.54602 0.342906 0
M  V30 1536 H 145.999 -5.87037 -1.23077 0
M  V30 1537 H 147.678 -6.39863 -0.958317 0
M  V30 1538 N 147.81 0.181792 -1.56548 0
M  V30 1539 C 148.74 1.22765 -1.98623 0
M  V30 1540 C 149.721 1.46747 -0.860189 0
M  V30 1541 O 150.906 1.58259 -1.12551 0
M  V30 1542 C 148.036 2.56894 -2.33715 0
M  V30 1543 C 146.99 2.475 -3.49182 0
M  V30 1544 C 146.316 3.86023 -3.69986 0
M  V30 1545 C 147.616 1.98866 -4.82959 0
M  V30 1546 H 149.31 0.877942 -2.86239 0
M  V30 1547 H 146.856 0.42088 -1.37712 0
M  V30 1548 H 148.809 3.30253 -2.61746 0
M  V30 1549 H 147.533 2.93632 -1.42997 0
M  V30 1550 H 146.192 1.76596 -3.21262 0
M  V30 1551 H 145.84 4.20136 -2.76576 0
M  V30 1552 H 145.54 3.80609 -4.47672 0
M  V30 1553 H 147.064 4.60984 -4.00407 0
M  V30 1554 H 148.478 2.61992 -5.09934 0
M  V30 1555 H 146.875 2.04424 -5.64208 0
M  V30 1556 H 147.945 0.942465 -4.75653 0
M  V30 1557 N 149.288 1.51039 0.449983 0
M  V30 1558 C 150.251 1.70863 1.5277 0
M  V30 1559 C 151.251 0.578846 1.5002 0
M  V30 1560 O 152.441 0.846213 1.52266 0
M  V30 1561 C 149.573 1.75341 2.9235 0
M  V30 1562 H 150.766 2.67034 1.36502 0
M  V30 1563 H 148.319 1.40838 0.677812 0
M  V30 1564 H 149.054 0.809383 3.14037 0
M  V30 1565 H 148.839 2.57436 2.95752 0
M  V30 1566 H 150.329 1.92559 3.70555 0
M  V30 1567 N 150.766 -0.704594 1.40972 0
M  V30 1568 C 152.014 -1.46169 1.39568 0
M  V30 1569 C 152.335 -1.95 0.00253745 0
M  V30 1570 O 151.605 -1.71095 -0.954114 0
M  V30 1571 H 150.185 -0.542326 0.513704 0
M  V30 1572 H 152.847 -0.834553 1.76128 0
M  V30 1573 H 151.943 -2.32922 2.07735 0
M  V30 1574 N 152.244 -1.26651 -0.937939 0
M  V30 1575 C 153.154 -1.10276 -2.07066 0
M  V30 1576 C 154.17 -0.0354197 -1.73964 0
M  V30 1577 O 155.346 -0.239816 -1.99967 0
M  V30 1578 C 152.411 -0.740887 -3.38691 0
M  V30 1579 C 151.472 -1.88799 -3.85556 0
M  V30 1580 C 150.705 -1.54329 -5.10899 0
M  V30 1581 O 150.928 -0.446494 -5.6865 0
M  V30 1582 O 149.862 -2.37911 -5.52885 0
M  V30 1583 H 153.688 -2.05309 -2.23789 0
M  V30 1584 H 151.273 -1.05743 -1.0554 0
M  V30 1585 H 153.155 -0.55195 -4.1777 0
M  V30 1586 H 151.83 0.180022 -3.23199 0
M  V30 1587 H 150.737 -2.13191 -3.07409 0
M  V30 1588 H 152.07 -2.78874 -4.05574 0
M  V30 1589 N 153.722 1.14298 -1.08507 0
M  V30 1590 C 154.655 2.18447 -0.660004 0
M  V30 1591 C 155.633 1.59242 0.328749 0
M  V30 1592 O 156.817 1.87062 0.232367 0
M  V30 1593 C 153.944 3.38688 0.0290807 0
M  V30 1594 C 152.99 4.1646 -0.919982 0
M  V30 1595 S 153.823 4.77334 -2.42718 0
M  V30 1596 C 154.979 6.00931 -1.75024 0
M  V30 1597 H 155.212 2.54166 -1.54231 0
M  V30 1598 H 152.745 1.25446 -0.900149 0
M  V30 1599 H 154.703 4.08342 0.420378 0
M  V30 1600 H 153.364 3.01289 0.887895 0
M  V30 1601 H 152.557 5.02529 -0.384751 0
M  V30 1602 H 152.159 3.52414 -1.25223 0
M  V30 1603 H 154.451 6.69017 -1.06877 0
M  V30 1604 H 155.394 6.59044 -2.58971 0
M  V30 1605 H 155.802 5.51089 -1.22317 0
M  V30 1606 N 155.201 0.870884 1.31352 0
M  V30 1607 C 156.131 0.343096 2.30966 0
M  V30 1608 C 157.112 -0.566507 1.60389 0
M  V30 1609 O 158.297 -0.483336 1.88089 0
M  V30 1610 C 155.427 -0.455487 3.443 0
M  V30 1611 C 154.381 0.361103 4.26474 0
M  V30 1612 C 153.707 -0.563221 5.31725 0
M  V30 1613 C 155.007 1.59566 4.97329 0
M  V30 1614 H 156.701 1.17548 2.75359 0
M  V30 1615 H 154.247 0.566686 1.32381 0
M  V30 1616 H 156.2 -0.83525 4.13039 0
M  V30 1617 H 154.924 -1.32139 2.98675 0
M  V30 1618 H 153.583 0.722825 3.59403 0
M  V30 1619 H 153.231 -1.42643 4.82351 0
M  V30 1620 H 152.931 -0.0207409 5.87596 0
M  V30 1621 H 154.455 -0.939808 6.03324 0
M  V30 1622 H 155.869 1.28728 5.58661 0
M  V30 1623 H 154.266 2.07728 5.63 0
M  V30 1624 H 155.336 2.34798 4.24262 0
M  V30 1625 N 156.679 -1.44442 0.630414 0
M  V30 1626 C 157.904 -2.06927 0.139944 0
M  V30 1627 C 158.329 -1.46795 -1.17613 0
M  V30 1628 O 157.687 -0.569144 -1.72135 0
M  V30 1629 C 157.735 -3.6058 0.0379581 0
M  V30 1630 O 156.839 -3.99937 -1.0062 0
M  V30 1631 H 156.18 -0.658608 0.0844483 0
M  V30 1632 H 158.71 -1.85327 0.866891 0
M  V30 1633 H 158.72 -4.07714 -0.152856 0
M  V30 1634 H 157.395 -4.03728 0.998809 0
M  V30 1635 H 155.972 -3.64436 -0.79001 0
M  V30 1636 N 158.157 -0.370918 -1.53173 0
M  V30 1637 C 159.403 0.217423 -2.01631 0
M  V30 1638 C 159.736 1.47983 -1.25756 0
M  V30 1639 O 159.011 1.91274 -0.352764 0
M  V30 1640 C 159.294 0.503982 -3.56556 0
M  V30 1641 C 159.147 -0.77243 -4.43118 0
M  V30 1642 C 160.466 1.30234 -4.20389 0
M  V30 1643 H 157.585 0.0775486 -0.732909 0
M  V30 1644 H 160.227 -0.496863 -1.83388 0
M  V30 1645 H 158.377 1.11248 -3.72231 0
M  V30 1646 H 160.049 -1.4098 -4.39229 0
M  V30 1647 H 158.292 -1.39167 -4.10871 0
M  V30 1648 H 158.963 -0.526815 -5.4948 0
M  V30 1649 H 161.439 0.787546 -4.08579 0
M  V30 1650 H 160.315 1.47158 -5.28806 0
M  V30 1651 H 160.576 2.31237 -3.76805 0
M  V30 1652 N 159.635 1.57281 -0.100228 0
M  V30 1653 C 160.598 2.13158 0.842398 0
M  V30 1654 C 161.598 1.06202 1.20738 0
M  V30 1655 O 162.788 1.32066 1.13597 0
M  V30 1656 C 159.92 2.65639 2.13655 0
M  V30 1657 H 161.113 2.97766 0.357114 0
M  V30 1658 H 158.666 1.5559 0.148823 0
M  V30 1659 H 159.401 1.84566 2.66657 0
M  V30 1660 H 159.186 3.43844 1.88451 0
M  V30 1661 H 160.676 3.08846 2.81077 0
M  V30 1662 N 161.113 -0.173488 1.56642 0
M  V30 1663 C 162.023 -1.23482 1.99473 0
M  V30 1664 C 163.039 -1.48567 0.905752 0
M  V30 1665 O 164.215 -1.60758 1.21321 0
M  V30 1666 C 161.28 -2.55444 2.34413 0
M  V30 1667 C 160.341 -2.38241 3.57127 0
M  V30 1668 C 159.574 -3.63909 3.90392 0
M  V30 1669 O 159.797 -4.68996 3.24653 0
M  V30 1670 O 158.731 -3.58149 4.83749 0
M  V30 1671 H 162.557 -0.901279 2.90018 0
M  V30 1672 H 160.142 -0.380185 1.44482 0
M  V30 1673 H 162.024 -3.33292 2.57865 0
M  V30 1674 H 160.699 -2.88382 1.4703 0
M  V30 1675 H 159.606 -1.58431 3.38896 0
M  V30 1676 H 160.939 -2.10228 4.45045 0
M  V30 1677 N 162.591 -1.51276 -0.441967 0
M  V30 1678 C 163.541 -1.6864 -1.53442 0
M  V30 1679 C 164.525 -0.540444 -1.51552 0
M  V30 1680 O 165.717 -0.796157 -1.58083 0
M  V30 1681 C 162.846 -1.8106 -2.91672 0
M  V30 1682 C 161.932 -3.01424 -2.98336 0
M  V30 1683 N 162.323 -4.2467 -2.74752 0
M  V30 1684 C 160.621 -3.00584 -3.29493 0
M  V30 1685 C 161.322 -5.05891 -2.87139 0
M  V30 1686 N 160.298 -4.40442 -3.18609 0
M  V30 1687 H 164.1 -2.61598 -1.33954 0
M  V30 1688 H 161.614 -1.4886 -0.6492 0
M  V30 1689 H 163.611 -1.91609 -3.70259 0
M  V30 1690 H 162.271 -0.892795 -3.12185 0
M  V30 1691 H 163.282 -4.53691 -2.49769 0
M  V30 1692 H 159.959 -2.18417 -3.55809 0
M  V30 1693 H 161.349 -6.13983 -2.72899 0
M  V30 1694 N 164.069 0.697108 -1.41344 0
M  V30 1695 C 165.316 1.45714 -1.40619 0
M  V30 1696 C 165.644 1.94494 -0.0147907 0
M  V30 1697 O 164.899 1.69794 0.973066 0
M  V30 1698 C 165.198 2.68553 -2.35826 0
M  V30 1699 C 164.864 2.38438 -3.82698 0
M  V30 1700 C 163.526 2.29936 -4.22709 0
M  V30 1701 C 165.878 2.13567 -4.75435 0
M  V30 1702 C 163.206 1.94656 -5.53467 0
M  V30 1703 C 165.558 1.79797 -6.06511 0
M  V30 1704 C 164.222 1.69789 -6.45545 0
M  V30 1705 H 163.492 0.533206 -0.51456 0
M  V30 1706 H 166.139 0.796901 -1.74131 0
M  V30 1707 H 164.444 3.39503 -1.95563 0
M  V30 1708 H 166.141 3.2669 -2.32539 0
M  V30 1709 H 162.731 2.4595 -3.51008 0
M  V30 1710 H 166.915 2.19082 -4.45328 0
M  V30 1711 H 162.171 1.8546 -5.82593 0
M  V30 1712 H 166.345 1.59572 -6.77872 0
M  V30 1713 H 163.972 1.4222 -7.46778 0
M  V30 1714 N 165.547 1.27147 0.931209 0
M  V30 1715 C 166.477 1.12081 2.04842 0
M  V30 1716 C 167.458 0.0232364 1.70084 0
M  V30 1717 O 168.643 0.197085 1.93197 0
M  V30 1718 C 165.773 0.76354 3.38803 0
M  V30 1719 C 164.727 1.81396 3.87659 0
M  V30 1720 C 164.053 1.31075 5.18385 0
M  V30 1721 C 165.353 3.21739 4.11438 0
M  V30 1722 H 167.047 2.05537 2.17703 0
M  V30 1723 H 164.593 0.989603 1.04608 0
M  V30 1724 H 166.546 0.644982 4.16435 0
M  V30 1725 H 165.27 -0.206727 3.25945 0
M  V30 1726 H 163.929 1.92136 3.12217 0
M  V30 1727 H 163.577 0.330037 5.01916 0
M  V30 1728 H 163.277 2.013 5.52044 0
M  V30 1729 H 164.801 1.20506 5.98591 0
M  V30 1730 H 166.215 3.14019 4.79651 0
M  V30 1731 H 164.612 3.89644 4.56397 0
M  V30 1732 H 165.682 3.67054 3.16859 0
M  V30 1733 N 167.025 -1.13721 1.09112 0
M  V30 1734 C 167.935 -2.22638 0.73957 0
M  V30 1735 C 168.951 -1.72091 -0.257068 0
M  V30 1736 O 170.127 -2.01155 -0.0992154 0
M  V30 1737 C 167.192 -3.46322 0.16191 0
M  V30 1738 C 166.253 -4.11775 1.21408 0
M  V30 1739 C 165.486 -5.29555 0.663891 0
M  V30 1740 O 165.709 -5.68077 -0.514274 0
M  V30 1741 O 164.643 -5.84973 1.41738 0
M  V30 1742 H 168.469 -2.55074 1.64836 0
M  V30 1743 H 166.054 -1.21791 0.865289 0
M  V30 1744 H 167.936 -4.21107 -0.157073 0
M  V30 1745 H 166.611 -3.15593 -0.719932 0
M  V30 1746 H 165.518 -3.3883 1.58571 0
M  V30 1747 H 166.851 -4.46627 2.06845 0
M  V30 1748 N 168.503 -0.877838 -1.30888 0
M  V30 1749 C 169.435 -0.296607 -2.27273 0
M  V30 1750 C 170.448 0.544799 -1.53414 0
M  V30 1751 O 171.637 0.365511 -1.74718 0
M  V30 1752 C 168.737 0.597481 -3.33592 0
M  V30 1753 C 167.91 -0.213251 -4.3688 0
M  V30 1754 C 166.969 0.610208 -5.2265 0
M  V30 1755 O 165.995 0.035441 -5.69189 0
M  V30 1756 N 167.197 1.92071 -5.47804 0
M  V30 1757 H 169.962 -1.12492 -2.77787 0
M  V30 1758 H 167.523 -0.740105 -1.43993 0
M  V30 1759 H 169.515 1.15425 -3.87891 0
M  V30 1760 H 168.085 1.32647 -2.83061 0
M  V30 1761 H 167.305 -0.951466 -3.82545 0
M  V30 1762 H 168.593 -0.769262 -5.02951 0
M  V30 1763 H 167.991 2.4107 -5.11763 0
M  V30 1764 H 166.548 2.42508 -6.05007 0
M  V30 1765 N 169.982 1.44106 -0.638065 0
M  V30 1766 C 170.914 2.28976 0.101205 0
M  V30 1767 C 171.927 1.4167 0.802088 0
M  V30 1768 O 173.116 1.65755 0.662375 0
M  V30 1769 C 170.216 3.18217 1.16581 0
M  V30 1770 C 169.389 4.33978 0.546066 0
M  V30 1771 C 168.448 5.04202 1.50554 0
M  V30 1772 O 167.474 5.59986 1.01999 0
M  V30 1773 N 168.676 5.06296 2.8398 0
M  V30 1774 H 171.441 2.93064 -0.627186 0
M  V30 1775 H 169.002 1.54629 -0.479731 0
M  V30 1776 H 170.994 3.62061 1.80815 0
M  V30 1777 H 169.564 2.55833 1.79634 0
M  V30 1778 H 168.784 3.93239 -0.275046 0
M  V30 1779 H 170.072 5.08675 0.112793 0
M  V30 1780 H 169.47 4.62319 3.26002 0
M  V30 1781 H 168.027 5.53907 3.43556 0
M  V30 1782 N 171.46 0.379036 1.52974 0
M  V30 1783 C 172.393 -0.504932 2.22544 0
M  V30 1784 C 173.371 -1.0723 1.22231 0
M  V30 1785 O 174.555 -1.12589 1.51182 0
M  V30 1786 C 171.682 -1.69794 2.93066 0
M  V30 1787 C 170.728 -1.25678 4.07563 0
M  V30 1788 S 171.561 -0.246852 5.34931 0
M  V30 1789 C 172.717 -1.44588 6.08971 0
M  V30 1790 H 172.95 0.0858666 2.97176 0
M  V30 1791 H 170.483 0.163183 1.53535 0
M  V30 1792 H 172.441 -2.38219 3.34308 0
M  V30 1793 H 171.102 -2.26002 2.18133 0
M  V30 1794 H 170.295 -2.14725 4.5597 0
M  V30 1795 H 169.897 -0.651584 3.6828 0
M  V30 1796 H 172.189 -2.37469 6.34519 0
M  V30 1797 H 173.132 -1.00292 7.00962 0
M  V30 1798 H 173.54 -1.65804 5.39601 0
M  V30 1799 N 172.938 -1.57226 0.108567 0
M  V30 1800 C 173.888 -2.11305 -0.856396 0
M  V30 1801 C 174.872 -1.03129 -1.23504 0
M  V30 1802 O 176.064 -1.29381 -1.20787 0
M  V30 1803 C 173.193 -2.70771 -2.11041 0
M  V30 1804 C 172.279 -3.86011 -1.7566 0
M  V30 1805 N 172.67 -4.93492 -1.10902 0
M  V30 1806 C 170.968 -3.95999 -2.05185 0
M  V30 1807 C 171.669 -5.73984 -0.944308 0
M  V30 1808 N 170.645 -5.2346 -1.46596 0
M  V30 1809 H 174.447 -2.91784 -0.352002 0
M  V30 1810 H 171.961 -1.62126 -0.0942324 0
M  V30 1811 H 173.958 -3.07851 -2.81128 0
M  V30 1812 H 172.618 -1.91751 -2.62034 0
M  V30 1813 H 173.629 -5.1208 -0.774235 0
M  V30 1814 H 170.306 -3.28007 -2.58298 0
M  V30 1815 H 171.696 -6.70479 -0.436813 0
M  V30 1816 N 174.416 0.165178 -1.56732 0
M  V30 1817 C 175.827 0.727046 -1.71962 0
M  V30 1818 C 176.178 1.82508 -0.720078 0
M  V30 1819 O 175.303 2.16082 0.117242 0
M  V30 1820 C 175.898 1.32559 -3.11791 0
M  V30 1821 C 174.457 1.83422 -3.28684 0
M  V30 1822 C 173.604 0.715567 -2.67908 0
M  V30 1823 H 176.555 -0.0602896 -1.58585 0
M  V30 1824 H 176.576 2.19533 -3.10782 0
M  V30 1825 H 176.088 0.526195 -3.84516 0
M  V30 1826 H 174.189 2.65986 -2.60926 0
M  V30 1827 H 174.302 1.97543 -4.36478 0
M  V30 1828 H 172.666 1.13758 -2.27884 0
M  V30 1829 H 173.449 -0.0720836 -3.43224 0
M  V30 1830 N 175.894 1.51508 0.433938 0
M  V30 1831 C 177.122 1.68157 1.20543 0
M  V30 1832 C 177.537 0.380362 1.84929 0
M  V30 1833 O 176.894 -0.641446 1.70856 0
M  V30 1834 C 176.945 2.79965 2.28696 0
M  V30 1835 O 176.666 4.05045 1.66943 0
M  V30 1836 C 178.167 3.07912 3.18912 0
M  V30 1837 H 175.387 0.56421 0.363191 0
M  V30 1838 H 177.931 1.97941 0.513754 0
M  V30 1839 H 176.086 2.5277 2.93574 0
M  V30 1840 H 176.5 4.67165 2.38448 0
M  V30 1841 H 177.974 3.89719 3.90926 0
M  V30 1842 H 178.451 2.20456 3.79863 0
M  V30 1843 H 179.057 3.36779 2.59731 0
M  V30 1844 N 177.372 -0.689602 1.41712 0
M  V30 1845 C 178.618 -1.45181 1.41599 0
M  V30 1846 C 178.951 -1.94181 0.0270081 0
M  V30 1847 O 178.226 -1.6993 -0.946265 0
M  V30 1848 C 178.509 -2.65945 2.42787 0
M  V30 1849 C 178.362 -2.22672 3.90816 0
M  V30 1850 C 179.681 -3.68149 2.41151 0
M  V30 1851 H 176.8 -0.526576 0.515642 0
M  V30 1852 H 179.442 -0.784947 1.73028 0
M  V30 1853 H 177.592 -3.2284 2.16116 0
M  V30 1854 H 179.264 -1.71058 4.28412 0
M  V30 1855 H 177.507 -1.54394 4.05395 0
M  V30 1856 H 178.178 -3.0935 4.57172 0
M  V30 1857 H 180.654 -3.2094 2.64834 0
M  V30 1858 H 179.53 -4.50248 3.13955 0
M  V30 1859 H 179.791 -4.18259 1.43221 0
M  V30 1860 N 178.85 -1.27639 -0.924453 0
M  V30 1861 C 180.096 -1.14336 -1.67497 0
M  V30 1862 C 180.429 0.309465 -1.91718 0
M  V30 1863 O 179.704 1.22608 -1.50989 0
M  V30 1864 C 179.987 -1.93096 -3.0395 0
M  V30 1865 C 179.84 -3.46381 -2.8695 0
M  V30 1866 C 181.159 -1.73798 -4.0433 0
M  V30 1867 H 178.278 -0.416728 -0.607871 0
M  V30 1868 H 180.92 -1.56832 -1.07256 0
M  V30 1869 H 179.07 -1.56982 -3.55372 0
M  V30 1870 H 180.742 -3.92343 -2.42621 0
M  V30 1871 H 178.985 -3.72557 -2.22225 0
M  V30 1872 H 179.656 -3.96735 -3.83804 0
M  V30 1873 H 182.132 -2.05293 -3.61931 0
M  V30 1874 H 181.008 -2.31294 -4.97789 0
M  V30 1875 H 181.269 -0.686725 -4.36734 0
M  V30 1876 N 180.328 1.1314 -1.09713 0
M  V30 1877 C 181.577 1.83838 -0.829851 0
M  V30 1878 C 181.89 1.84599 0.646728 0
M  V30 1879 O 183.096 2.51218 1.02965 0
M  V30 1880 C 181.552 3.30069 -1.43466 0
M  V30 1881 C 181.16 3.37688 -2.94399 0
M  V30 1882 C 182.904 4.05788 -1.24645 0
M  V30 1883 C 180.811 4.78209 -3.47952 0
M  V30 1884 H 179.741 0.68877 -0.306777 0
M  V30 1885 H 182.392 1.27448 -1.3202 0
M  V30 1886 H 180.774 3.8628 -0.871996 0
M  V30 1887 H 181.948 2.91456 -3.56918 0
M  V30 1888 H 180.263 2.75436 -3.12289 0
M  V30 1889 H 182.86 5.09535 -1.62107 0
M  V30 1890 H 183.203 4.15878 -0.187357 0
M  V30 1891 H 183.736 3.55915 -1.77678 0
M  V30 1892 H 180.475 4.73311 -4.53495 0
M  V30 1893 H 179.995 5.24924 -2.90198 0
M  V30 1894 H 181.674 5.47133 -3.45332 0
M  V30 1895 N 181.806 0.884767 1.30421 0
M  V30 1896 C 183.031 0.517288 2.00845 0
M  V30 1897 C 183.456 -0.886779 1.65885 0
M  V30 1898 O 182.814 -1.58768 0.875354 0
M  V30 1899 C 182.862 0.698994 3.5376 0
M  V30 1900 O 181.966 -0.255208 4.1161 0
M  V30 1901 H 181.307 0.203872 0.631927 0
M  V30 1902 H 183.837 1.19225 1.66272 0
M  V30 1903 H 183.847 0.597912 4.03595 0
M  V30 1904 H 182.522 1.72271 3.78544 0
M  V30 1905 H 181.099 -0.10784 3.72744 0
M  V30 1906 N 183.284 -1.43765 0.645699 0
M  V30 1907 C 184.247 -2.29163 -0.0409488 0
M  V30 1908 C 185.247 -1.41813 -0.757996 0
M  V30 1909 O 186.437 -1.63527 -0.600382 0
M  V30 1910 C 183.569 -3.23716 -1.06869 0
M  V30 1911 H 184.762 -2.91366 0.710345 0
M  V30 1912 H 182.315 -1.5092 0.406547 0
M  V30 1913 H 183.05 -2.66393 -1.84947 0
M  V30 1914 H 182.835 -3.88105 -0.558277 0
M  V30 1915 H 184.325 -3.87831 -1.54845 0
M  V30 1916 N 184.763 -0.387143 -1.52771 0
M  V30 1917 C 185.993 0.195585 -2.05672 0
M  V30 1918 C 186.401 1.41241 -1.25887 0
M  V30 1919 O 185.744 1.81265 -0.298081 0
M  V30 1920 C 185.806 0.632327 -3.53895 0
M  V30 1921 C 185.47 -0.470739 -4.54569 0
M  V30 1922 C 186.467 -1.32746 -5.02667 0
M  V30 1923 C 184.152 -0.637151 -4.98243 0
M  V30 1924 C 186.146 -2.33574 -5.93061 0
M  V30 1925 C 183.833 -1.64877 -5.88438 0
M  V30 1926 C 184.831 -2.49649 -6.35739 0
M  V30 1927 O 184.519 -3.49082 -7.24153 0
M  V30 1928 H 184.251 0.033658 -0.675162 0
M  V30 1929 H 186.805 -0.550221 -1.97893 0
M  V30 1930 H 185.035 1.43008 -3.59285 0
M  V30 1931 H 186.724 1.14048 -3.89548 0
M  V30 1932 H 187.49 -1.21019 -4.69659 0
M  V30 1933 H 183.369 0.0129567 -4.60998 0
M  V30 1934 H 186.913 -2.99777 -6.29904 0
M  V30 1935 H 182.81 -1.76643 -6.2086 0
M  V30 1936 H 183.578 -3.45065 -7.42208 0
M  V30 1937 N 186.241 1.57166 -0.116904 0
M  V30 1938 C 187.657 1.5779 0.239693 0
M  V30 1939 C 187.857 1.1295 1.66867 0
M  V30 1940 O 186.913 0.81592 2.38954 0
M  V30 1941 C 188.226 3.00699 0.00828202 0
M  V30 1942 C 189.774 3.12912 0.0743438 0
M  V30 1943 C 190.249 4.57817 -0.129348 0
M  V30 1944 N 191.74 4.63139 -0.075247 0
M  V30 1945 C 192.475 5.73023 -0.207788 0
M  V30 1946 N 191.971 6.91665 -0.396382 0
M  V30 1947 N 193.764 5.61906 -0.14751 0
M  V30 1948 H 185.915 1.84615 -1.05029 0
M  V30 1949 H 188.178 0.85311 -0.41341 0
M  V30 1950 H 187.884 3.37784 -0.979531 0
M  V30 1951 H 187.758 3.69848 0.741077 0
M  V30 1952 H 190.145 2.75686 1.05268 0
M  V30 1953 H 190.226 2.4631 -0.690297 0
M  V30 1954 H 189.87 4.95742 -1.10465 0
M  V30 1955 H 189.8 5.22507 0.655253 0
M  V30 1956 H 192.291 3.7784 0.0670898 0
M  V30 1957 H 192.604 7.71255 -0.488437 0
M  V30 1958 H 190.949 6.93654 -0.432329 0
M  V30 1959 H 194.14 4.681 -0.00115036 0
M  V30 1960 H 194.313 6.47501 -0.254247 0
M  V30 1961 N 187.719 -0.156864 1.56817 0
M  V30 1962 C 188.666 -1.19394 1.97519 0
M  V30 1963 C 189.636 -1.4322 0.841265 0
M  V30 1964 O 190.821 -1.55719 1.10255 0
M  V30 1965 C 187.961 -2.52483 2.35258 0
M  V30 1966 C 187.074 -2.35914 3.61896 0
M  V30 1967 C 186.209 -3.61969 3.88782 0
M  V30 1968 C 185.248 -3.40395 5.08722 0
M  V30 1969 N 184.385 -4.58556 5.31668 0
M  V30 1970 H 189.225 -0.839845 2.85921 0
M  V30 1971 H 186.762 -0.403264 1.41464 0
M  V30 1972 H 188.72 -3.30071 2.55165 0
M  V30 1973 H 187.35 -2.85859 1.49949 0
M  V30 1974 H 186.402 -1.49429 3.49821 0
M  V30 1975 H 187.714 -2.15926 4.49641 0
M  V30 1976 H 186.868 -4.47989 4.09135 0
M  V30 1977 H 185.607 -3.84951 2.9944 0
M  V30 1978 H 184.612 -2.52763 4.88253 0
M  V30 1979 H 185.837 -3.18822 5.99608 0
M  V30 1980 H 183.783 -4.81729 4.45279 0
M  V30 1981 H 183.7 -4.41535 6.13664 0
M  V30 1982 H 184.968 -5.45817 5.5651 0
M  V30 1983 N 189.197 -1.51736 -0.425897 0
M  V30 1984 C 190.16 -1.73271 -1.50032 0
M  V30 1985 C 191.16 -0.602639 -1.4908 0
M  V30 1986 O 192.35 -0.87033 -1.509 0
M  V30 1987 C 189.482 -1.79969 -2.89523 0
M  V30 1988 H 190.675 -2.69172 -1.32237 0
M  V30 1989 H 188.228 -1.41899 -0.65532 0
M  V30 1990 H 188.963 -0.859241 -3.1271 0
M  V30 1991 H 188.748 -2.62109 -2.91619 0
M  V30 1992 H 190.238 -1.9843 -3.67444 0
M  V30 1993 N 190.675 0.682077 -1.42076 0
M  V30 1994 C 191.605 1.80796 -1.47767 0
M  V30 1995 C 192.586 1.6677 -0.334954 0
M  V30 1996 O 193.771 1.863 -0.548264 0
M  V30 1997 C 190.901 3.19038 -1.37229 0
M  V30 1998 C 189.855 3.47789 -2.49453 0
M  V30 1999 C 189.181 4.8553 -2.23975 0
M  V30 2000 C 190.481 3.45411 -3.91776 0
M  V30 2001 H 192.175 1.7629 -2.41997 0
M  V30 2002 H 189.721 0.846721 -1.16476 0
M  V30 2003 H 191.674 3.97528 -1.39821 0
M  V30 2004 H 190.398 3.24204 -0.394907 0
M  V30 2005 H 189.057 2.71657 -2.46166 0
M  V30 2006 H 188.705 4.87337 -1.24547 0
M  V30 2007 H 188.405 5.0573 -2.99184 0
M  V30 2008 H 189.929 5.66312 -2.28304 0
M  V30 2009 H 191.343 4.13882 -3.96705 0
M  V30 2010 H 189.74 3.77145 -4.66778 0
M  V30 2011 H 190.81 2.44122 -4.18966 0
M  V30 2012 N 192.153 1.28127 0.917671 0
M  V30 2013 C 193.43 1.05761 1.64542 0
M  V30 2014 C 193.81 -0.404344 2.07191 0
M  V30 2015 O 193.158 -1.38963 1.81388 0
M  V30 2016 C 193.368 2.02857 2.83989 0
M  V30 2017 C 194.716 2.32786 3.551 0
M  V30 2018 O 195.74 2.0091 2.94132 0
M  V30 2019 O 194.599 2.87169 4.64969 0
M  V30 2020 H 191.693 0.403916 0.721652 0
M  V30 2021 H 194.239 1.39431 0.967322 0
M  V30 2022 H 193.011 3.01407 2.49538 0
M  V30 2023 H 192.634 1.69809 3.59514 0
M  V30 2024 N 193.631 -1.12557 1.10312 0
M  V30 2025 C 194.908 -1.80363 0.756878 0
M  V30 2026 C 195.288 -1.97067 -0.756824 0
M  V30 2027 O 194.636 -1.54601 -1.68259 0
M  V30 2028 C 194.846 -3.14812 1.50647 0
M  V30 2029 C 196.194 -3.90029 1.67817 0
M  V30 2030 O 197.218 -3.24464 1.46974 0
M  V30 2031 O 196.077 -5.07652 2.02365 0
M  V30 2032 H 193.171 -0.780667 0.272926 0
M  V30 2033 H 195.717 -1.19404 1.20586 0
M  V30 2034 H 194.489 -2.97936 2.53672 0
M  V30 2035 H 194.112 -3.83478 1.05026 0
M  V30 2036 N 195.109 -0.891671 -1.2995 0
M  V30 2037 C 196.042 -0.307994 -2.26112 0
M  V30 2038 C 197.02 0.575262 -1.52084 0
M  V30 2039 O 198.204 0.523864 -1.81074 0
M  V30 2040 C 195.331 0.561734 -3.34009 0
M  V30 2041 C 194.377 -0.253107 -4.25748 0
M  V30 2042 S 195.21 -1.64572 -5.09584 0
M  V30 2043 C 196.366 -0.782699 -6.20987 0
M  V30 2044 H 196.599 -1.12309 -2.75271 0
M  V30 2045 H 194.132 -0.691509 -1.38049 0
M  V30 2046 H 196.09 1.05777 -3.96638 0
M  V30 2047 H 194.751 1.35099 -2.83561 0
M  V30 2048 H 193.944 0.410908 -5.02322 0
M  V30 2049 H 193.546 -0.682004 -3.67729 0
M  V30 2050 H 195.838 -0.00257476 -6.775 0
M  V30 2051 H 196.781 -1.52026 -6.91588 0
M  V30 2052 H 197.189 -0.340638 -5.63471 0
M  V30 2053 N 196.587 1.43421 -0.653314 0
M  V30 2054 C 197.836 2.01032 -0.164076 0
M  V30 2055 C 198.149 1.52147 1.22926 0
M  V30 2056 O 199.355 2.02031 1.81371 0
M  V30 2057 C 197.811 3.59082 -0.24252 0
M  V30 2058 C 197.419 4.1696 -1.63855 0
M  V30 2059 C 199.163 4.24079 0.18911 0
M  V30 2060 C 197.07 5.67304 -1.67092 0
M  V30 2061 H 196 0.751798 -0.0575769 0
M  V30 2062 H 198.651 1.6439 -0.815362 0
M  V30 2063 H 197.033 3.93125 0.476276 0
M  V30 2064 H 198.207 3.94416 -2.38271 0
M  V30 2065 H 196.522 3.64335 -2.01616 0
M  V30 2066 H 199.119 5.34381 0.184775 0
M  V30 2067 H 199.462 3.98005 1.22056 0
M  V30 2068 H 199.995 3.94918 -0.477938 0
M  V30 2069 H 196.734 5.98145 -2.68146 0
M  V30 2070 H 196.254 5.91904 -0.970014 0
M  V30 2071 H 197.933 6.31344 -1.4147 0
M  V30 2072 N 198.065 0.39524 1.52563 0
M  V30 2073 C 199.29 -0.187456 2.06551 0
M  V30 2074 C 199.715 -1.39249 1.26457 0
M  V30 2075 O 199.073 -1.78947 0.291151 0
M  V30 2076 C 199.121 -0.529985 3.56684 0
M  V30 2077 O 198.225 -1.62307 3.79118 0
M  V30 2078 H 197.566 -0.0202537 0.663691 0
M  V30 2079 H 200.096 0.564426 1.96661 0
M  V30 2080 H 200.106 -0.792598 4.00227 0
M  V30 2081 H 198.781 0.350987 4.14416 0
M  V30 2082 H 197.358 -1.3537 3.47461 0
M  V30 2083 N 199.544 -1.57102 0.125237 0
M  V30 2084 C 200.772 -1.99761 -0.538797 0
M  V30 2085 C 201.187 -1.00503 -1.59827 0
M  V30 2086 O 200.544 0.00119474 -1.825 0
M  V30 2087 C 200.595 -3.42408 -1.15927 0
M  V30 2088 O 200.316 -4.37869 -0.142143 0
M  V30 2089 C 201.817 -4.00232 -1.90602 0
M  V30 2090 H 199.037 -0.655772 -0.14214 0
M  V30 2091 H 201.581 -2.03383 0.213413 0
M  V30 2092 H 199.736 -3.39706 -1.86223 0
M  V30 2093 H 200.15 -5.21128 -0.593775 0
M  V30 2094 H 201.624 -5.02105 -2.29335 0
M  V30 2095 H 202.101 -3.39721 -2.78363 0
M  V30 2096 H 202.707 -4.06499 -1.25055 0
M  V30 2097 N 201.022 0.148545 -1.56898 0
M  V30 2098 C 201.952 1.18524 -2.01182 0
M  V30 2099 C 202.933 1.4489 -0.891123 0
M  V30 2100 O 204.118 1.55836 -1.15882 0
M  V30 2101 C 201.248 2.51879 -2.39112 0
M  V30 2102 C 200.202 2.40038 -3.54353 0
M  V30 2103 C 199.528 3.78089 -3.78091 0
M  V30 2104 C 200.828 1.88577 -4.87069 0
M  V30 2105 H 202.522 0.817029 -2.88036 0
M  V30 2106 H 200.068 0.391575 -1.38574 0
M  V30 2107 H 202.021 3.24627 -2.68692 0
M  V30 2108 H 200.745 2.90532 -1.49193 0
M  V30 2109 H 199.404 1.69742 -3.24936 0
M  V30 2110 H 199.052 4.14175 -2.85426 0
M  V30 2111 H 198.752 3.71028 -4.55645 0
M  V30 2112 H 200.276 4.52387 -4.10095 0
M  V30 2113 H 201.69 2.51117 -5.15377 0
M  V30 2114 H 200.087 1.9241 -5.68417 0
M  V30 2115 H 201.157 0.84136 -4.77545 0
M  V30 2116 N 202.5 1.5196 0.417844 0
M  V30 2117 C 203.447 1.74678 1.50852 0
M  V30 2118 C 204.417 0.588947 1.55308 0
M  V30 2119 O 205.602 0.825544 1.72016 0
M  V30 2120 C 202.742 1.89544 2.88387 0
M  V30 2121 C 201.855 3.17166 2.93309 0
M  V30 2122 C 200.99 3.22513 4.22088 0
M  V30 2123 C 200.029 4.44372 4.20951 0
M  V30 2124 N 199.166 4.47161 5.41287 0
M  V30 2125 H 204.006 2.67768 1.30783 0
M  V30 2126 H 201.543 1.32689 0.63498 0
M  V30 2127 H 203.501 1.96146 3.68216 0
M  V30 2128 H 202.131 0.998424 3.06971 0
M  V30 2129 H 201.183 3.19778 2.06024 0
M  V30 2130 H 202.495 4.07021 2.88332 0
M  V30 2131 H 201.649 3.28139 5.10303 0
M  V30 2132 H 200.388 2.30581 4.29748 0
M  V30 2133 H 199.393 4.38902 3.31127 0
M  V30 2134 H 200.618 5.3759 4.14938 0
M  V30 2135 H 198.564 3.58108 5.49632 0
M  V30 2136 H 198.481 5.3085 5.3827 0
M  V30 2137 H 199.749 4.57005 6.3148 0
M  V30 2138 N 203.978 -0.674533 1.42435 0
M  V30 2139 C 204.925 -1.78807 1.45934 0
M  V30 2140 C 205.895 -1.63157 0.311271 0
M  V30 2141 O 207.08 -1.83707 0.515383 0
M  V30 2142 C 204.22 -3.16839 1.36773 0
M  V30 2143 C 203.333 -3.43774 2.61617 0
M  V30 2144 C 202.468 -4.71536 2.44597 0
M  V30 2145 C 201.507 -4.91505 3.64814 0
M  V30 2146 N 200.644 -6.10508 3.46734 0
M  V30 2147 H 205.484 -1.75151 2.41093 0
M  V30 2148 H 203.021 -0.85504 1.19697 0
M  V30 2149 H 204.979 -3.96606 1.29459 0
M  V30 2150 H 203.609 -3.19619 0.452089 0
M  V30 2151 H 202.661 -2.58259 2.79297 0
M  V30 2152 H 203.973 -3.54423 3.50978 0
M  V30 2153 H 203.127 -5.59393 2.3487 0
M  V30 2154 H 201.866 -4.6317 1.52726 0
M  V30 2155 H 200.871 -4.0209 3.74972 0
M  V30 2156 H 202.096 -5.01716 4.57665 0
M  V30 2157 H 200.042 -6.03315 2.5758 0
M  V30 2158 H 199.959 -6.2202 4.29682 0
M  V30 2159 H 201.227 -7.01044 3.40819 0
M  V30 2160 N 205.456 -1.28612 -0.910864 0
M  V30 2161 C 206.705 -1.15311 -1.65488 0
M  V30 2162 C 207.018 0.296999 -1.93332 0
M  V30 2163 O 208.224 0.551168 -2.65847 0
M  V30 2164 C 206.68 -2.01599 -2.98137 0
M  V30 2165 C 206.288 -3.51367 -2.7793 0
M  V30 2166 C 208.032 -1.96993 -3.76024 0
M  V30 2167 C 205.939 -4.29797 -4.06237 0
M  V30 2168 H 204.869 -0.42796 -0.620779 0
M  V30 2169 H 207.52 -1.53166 -1.01057 0
M  V30 2170 H 205.902 -1.56603 -3.63719 0
M  V30 2171 H 207.076 -4.0434 -2.21011 0
M  V30 2172 H 205.391 -3.57529 -2.13452 0
M  V30 2173 H 207.988 -2.52856 -4.71135 0
M  V30 2174 H 208.331 -0.94733 -4.05378 0
M  V30 2175 H 208.864 -2.39973 -3.17266 0
M  V30 2176 H 205.603 -5.32648 -3.82055 0
M  V30 2177 H 205.123 -3.81596 -4.62757 0
M  V30 2178 H 206.802 -4.39869 -4.74473 0
M  V30 2179 N 206.934 1.1197 -1.10907 0
M  V30 2180 C 208.159 1.87942 -0.877064 0
M  V30 2181 C 208.584 1.79341 0.567314 0
M  V30 2182 O 207.942 1.15184 1.40009 0
M  V30 2183 C 207.99 3.34926 -1.33629 0
M  V30 2184 O 207.094 4.09303 -0.504447 0
M  V30 2185 H 206.435 0.583785 -0.316371 0
M  V30 2186 H 208.965 1.4157 -1.47712 0
M  V30 2187 H 208.975 3.8577 -1.32837 0
M  V30 2188 H 207.65 3.40504 -2.3881 0
M  V30 2189 H 206.227 3.68393 -0.577993 0
M  V30 2190 N 208.412 0.89855 1.29475 0
M  V30 2191 C 209.661 0.519863 1.94885 0
M  V30 2192 C 209.974 -0.9383 1.71625 0
M  V30 2193 O 211.18 -1.42445 2.31131 0
M  V30 2194 C 209.636 0.878836 3.49005 0
M  V30 2195 C 209.244 2.35569 3.81066 0
M  V30 2196 C 210.988 0.570004 4.20656 0
M  V30 2197 C 208.895 2.65558 5.28425 0
M  V30 2198 H 207.825 0.190692 0.729488 0
M  V30 2199 H 210.476 1.09539 1.47219 0
M  V30 2200 H 208.858 0.232253 3.95318 0
M  V30 2201 H 210.032 3.04773 3.45616 0
M  V30 2202 H 208.347 2.63343 3.22552 0
M  V30 2203 H 210.944 0.770925 5.29113 0
M  V30 2204 H 211.287 -0.491404 4.1339 0
M  V30 2205 H 211.82 1.17438 3.8007 0
M  V30 2206 H 208.559 3.70493 5.40754 0
M  V30 2207 H 208.079 2.00977 5.65127 0
M  V30 2208 H 209.758 2.51765 5.96006 0
M  V30 2209 N 209.89 -1.43072 0.660911 0
M  V30 2210 C 211.301 -1.84932 0.256348 0
M  V30 2211 C 211.652 -1.55325 -1.19868 0
M  V30 2212 O 210.777 -1.00607 -1.91591 0
M  V30 2213 C 211.372 -3.35684 0.458475 0
M  V30 2214 C 209.931 -3.76245 0.108161 0
M  V30 2215 C 209.078 -2.66749 0.757641 0
M  V30 2216 H 212.029 -1.33116 0.864051 0
M  V30 2217 H 212.05 -3.79365 -0.293683 0
M  V30 2218 H 211.562 -3.572 1.51755 0
M  V30 2219 H 209.663 -3.60338 -0.948014 0
M  V30 2220 H 209.776 -4.76058 0.538992 0
M  V30 2221 H 208.14 -2.53989 0.190185 0
M  V30 2222 H 208.923 -2.91092 1.81989 0
M  V30 2223 N 211.368 -0.403325 -1.52352 0
M  V30 2224 C 212.614 0.174605 -2.02047 0
M  V30 2225 C 212.947 1.45282 -1.28867 0
M  V30 2226 O 212.222 1.90483 -0.393257 0
M  V30 2227 C 212.505 0.428238 -3.57545 0
M  V30 2228 C 212.358 -0.866248 -4.4138 0
M  V30 2229 C 213.677 1.21287 -4.23057 0
M  V30 2230 H 210.796 0.0619851 -0.734389 0
M  V30 2231 H 213.438 -0.53565 -1.82293 0
M  V30 2232 H 211.588 1.03327 -3.74507 0
M  V30 2233 H 213.26 -1.50265 -4.3614 0
M  V30 2234 H 211.503 -1.47851 -4.07827 0
M  V30 2235 H 212.174 -0.643249 -5.48239 0
M  V30 2236 H 214.65 0.700703 -4.10158 0
M  V30 2237 H 213.526 1.35909 -5.31808 0
M  V30 2238 H 213.787 2.23193 -3.81625 0
M  V30 2239 N 212.846 1.57033 -0.133567 0
M  V30 2240 C 214.123 1.87256 0.56522 0
M  V30 2241 C 214.503 1.03726 1.83859 0
M  V30 2242 O 213.851 0.120247 2.28183 0
M  V30 2243 C 214.061 3.3865 0.843636 0
M  V30 2244 C 215.409 4.07574 1.19032 0
M  V30 2245 O 216.433 3.43752 0.933429 0
M  V30 2246 O 215.292 5.20259 1.67312 0
M  V30 2247 H 212.386 0.775678 0.286796 0
M  V30 2248 H 214.932 1.68855 -0.169168 0
M  V30 2249 H 213.704 3.91257 -0.0581149 0
M  V30 2250 H 213.327 3.62532 1.63268 0
M  V30 2251 N 214.325 -0.140222 1.56975 0
M  V30 2252 C 215.574 -0.850152 1.82908 0
M  V30 2253 C 215.887 -1.82028 0.715892 0
M  V30 2254 O 217.093 -2.57485 0.861016 0
M  V30 2255 C 215.549 -1.5625 3.24213 0
M  V30 2256 C 215.157 -0.63443 4.43485 0
M  V30 2257 C 216.901 -2.25881 3.59413 0
M  V30 2258 C 214.808 -1.34879 5.75814 0
M  V30 2259 H 213.738 -0.321221 0.682153 0
M  V30 2260 H 216.389 -0.102874 1.83211 0
M  V30 2261 H 214.771 -2.35565 3.18316 0
M  V30 2262 H 215.945 0.12398 4.60633 0
M  V30 2263 H 214.26 -0.0461836 4.16374 0
M  V30 2264 H 216.857 -2.79978 4.5554 0
M  V30 2265 H 217.2 -3.02693 2.85802 0
M  V30 2266 H 217.733 -1.53477 3.67001 0
M  V30 2267 H 214.472 -0.622385 6.52539 0
M  V30 2268 H 213.992 -2.07974 5.6259 0
M  V30 2269 H 215.671 -1.88784 6.18845 0
M  V30 2270 N 215.803 -1.52179 -0.40978 0
M  V30 2271 C 217.028 -1.70347 -1.18308 0
M  V30 2272 C 217.453 -0.411887 -1.83535 0
M  V30 2273 O 216.811 0.630587 -1.6998 0
M  V30 2274 C 216.859 -2.83977 -2.22238 0
M  V30 2275 O 215.963 -2.495 -3.28365 0
M  V30 2276 H 215.304 -0.567103 -0.345384 0
M  V30 2277 H 217.834 -1.98879 -0.480445 0
M  V30 2278 H 217.844 -3.0887 -2.66577 0
M  V30 2279 H 216.519 -3.77685 -1.74146 0
M  V30 2280 H 215.096 -2.35277 -2.89308 0
M  V30 2281 N 217.281 0.66697 -1.42791 0
M  V30 2282 C 218.558 1.4234 -1.34159 0
M  V30 2283 C 218.938 2.11093 0.0172729 0
M  V30 2284 O 218.286 2.03808 1.03318 0
M  V30 2285 C 218.496 2.41942 -2.51526 0
M  V30 2286 C 219.844 3.06353 -2.93995 0
M  V30 2287 O 220.868 2.52269 -2.51473 0
M  V30 2288 O 219.727 4.04376 -3.67617 0
M  V30 2289 H 216.821 0.635277 -0.529483 0
M  V30 2290 H 219.367 0.695034 -1.54814 0
M  V30 2291 H 218.139 1.89991 -3.42081 0
M  V30 2292 H 217.762 3.22249 -2.32898 0
M  V30 2293 N 218.759 1.29093 0.90403 0
M  V30 2294 C 219.984 1.19809 1.69294 0
M  V30 2295 C 220.409 -0.238481 1.86582 0
M  V30 2296 O 219.767 -1.1723 1.383 0
M  V30 2297 C 219.815 1.91202 3.05736 0
M  V30 2298 O 218.919 1.22611 3.93752 0
M  V30 2299 H 218.26 0.415385 0.518027 0
M  V30 2300 H 220.79 1.70586 1.12967 0
M  V30 2301 H 220.8 1.99487 3.55906 0
M  V30 2302 H 219.475 2.95692 2.92471 0
M  V30 2303 H 218.052 1.22554 3.52186 0
M  V30 2304 N 220.237 -1.11381 1.11499 0
M  V30 2305 C 221.514 -1.7955 0.775965 0
M  V30 2306 C 221.894 -1.97859 -0.73588 0
M  V30 2307 O 221.242 -1.56376 -1.66609 0
M  V30 2308 C 221.452 -3.13196 1.53977 0
M  V30 2309 C 222.8 -3.88227 1.71944 0
M  V30 2310 O 223.824 -3.22887 1.50407 0
M  V30 2311 O 222.683 -5.05477 2.07738 0
M  V30 2312 H 219.777 -0.777728 0.28119 0
M  V30 2313 H 222.323 -1.18118 1.21845 0
M  V30 2314 H 221.095 -2.95229 2.56818 0
M  V30 2315 H 220.718 -3.82342 1.09088 0
M  V30 2316 N 221.715 -0.905404 -1.28997 0
M  V30 2317 C 222.648 -0.331959 -2.25773 0
M  V30 2318 C 223.626 0.559099 -1.52685 0
M  V30 2319 O 224.81 0.50463 -1.8162 0
M  V30 2320 C 221.937 0.526276 -3.34586 0
M  V30 2321 C 220.983 -0.298249 -4.25456 0
M  V30 2322 S 221.816 -1.69968 -5.0781 0
M  V30 2323 C 222.972 -0.848519 -6.20122 0
M  V30 2324 H 223.205 -1.15222 -2.74064 0
M  V30 2325 H 220.738 -0.706112 -1.37308 0
M  V30 2326 H 222.696 1.01565 -3.97737 0
M  V30 2327 H 221.357 1.32084 -2.84978 0
M  V30 2328 H 220.55 0.357607 -5.0273 0
M  V30 2329 H 220.152 -0.720968 -3.66985 0
M  V30 2330 H 222.444 -0.0744325 -6.77459 0
M  V30 2331 H 223.387 -1.59353 -6.89937 0
M  V30 2332 H 223.795 -0.400383 -5.63078 0
M  V30 2333 N 223.193 1.4272 -0.668489 0
M  V30 2334 C 224.126 2.28111 0.0637898 0
M  V30 2335 C 225.104 1.40705 0.814912 0
M  V30 2336 O 226.288 1.70146 0.81134 0
M  V30 2337 C 223.415 3.20429 1.0974 0
M  V30 2338 C 222.461 4.24197 0.442579 0
M  V30 2339 S 223.294 5.29563 -0.795173 0
M  V30 2340 C 224.45 6.25449 0.237516 0
M  V30 2341 H 224.683 2.8987 -0.660521 0
M  V30 2342 H 222.216 1.47456 -0.457821 0
M  V30 2343 H 224.174 3.74158 1.68868 0
M  V30 2344 H 222.835 2.57818 1.79411 0
M  V30 2345 H 222.028 4.88954 1.22227 0
M  V30 2346 H 221.63 3.73925 -0.0749554 0
M  V30 2347 H 223.922 6.68524 1.09915 0
M  V30 2348 H 224.865 7.07104 -0.375421 0
M  V30 2349 H 225.273 5.61511 0.580167 0
M  V30 2350 N 224.671 0.411399 1.52136 0
M  V30 2351 C 225.601 -0.404015 2.29978 0
M  V30 2352 C 226.582 -1.04412 1.34284 0
M  V30 2353 O 227.767 -1.0527 1.63192 0
M  V30 2354 C 224.897 -1.5197 3.12286 0
M  V30 2355 C 223.851 -1.00448 4.16046 0
M  V30 2356 C 223.177 -2.21393 4.86712 0
M  V30 2357 C 224.477 -0.0569336 5.22269 0
M  V30 2358 H 226.171 0.245529 2.98392 0
M  V30 2359 H 223.717 0.119525 1.43503 0
M  V30 2360 H 225.67 -2.09715 3.6551 0
M  V30 2361 H 224.394 -2.19716 2.41646 0
M  V30 2362 H 223.053 -0.449421 3.63835 0
M  V30 2363 H 222.701 -2.87699 4.12599 0
M  V30 2364 H 222.401 -1.87571 5.56858 0
M  V30 2365 H 223.925 -2.7974 5.4275 0
M  V30 2366 H 225.339 -0.54325 5.7072 0
M  V30 2367 H 223.736 0.192594 5.99791 0
M  V30 2368 H 224.806 0.887663 4.76706 0
M  V30 2369 N 226.149 -1.5696 0.141893 0
M  V30 2370 C 227.097 -2.17784 -0.816874 0
M  V30 2371 C 228.091 -1.1334 -1.25899 0
M  V30 2372 O 229.297 -1.316 -1.22806 0
M  V30 2373 H 225.672 -0.697278 -0.281615 0
M  V30 2374 H 227.643 -2.97087 -0.279621 0
M  V30 2375 C 226.392 -2.80983 -2.04802 0
M  V30 2376 H 225.715 -3.61062 -1.7168 0
M  V30 2377 H 227.155 -3.2705 -2.69841 0
M  V30 2378 C 225.614 -1.79228 -2.8527 0
M  V30 2379 O 226.144 -1.25962 -3.8144 0
M  V30 2380 N 224.35 -1.48647 -2.49704 0
M  V30 2381 H 223.897 -1.92155 -1.71564 0
M  V30 2382 H 223.855 -0.808115 -3.03837 0
M  V30 2383 N 227.627 0.131896 -1.57047 0
M  V30 2384 C 228.876 0.84044 -1.83356 0
M  V30 2385 C 229.189 1.81646 -0.725535 0
M  V30 2386 O 230.395 2.57025 -0.874659 0
M  V30 2387 C 228.851 1.54528 -3.25037 0
M  V30 2388 C 228.459 0.610902 -4.43815 0
M  V30 2389 C 230.203 2.23972 -3.60606 0
M  V30 2390 C 228.11 1.31823 -5.76521 0
M  V30 2391 H 227.04 0.317599 -0.683847 0
M  V30 2392 H 229.691 0.0931561 -1.83263 0
M  V30 2393 H 228.073 2.33873 -3.19561 0
M  V30 2394 H 229.247 -0.148407 -4.60561 0
M  V30 2395 H 227.562 0.0241016 -4.16393 0
M  V30 2396 H 230.159 2.77558 -4.57018 0
M  V30 2397 H 230.502 3.01173 -2.87403 0
M  V30 2398 H 231.035 1.51529 -3.6781 0
M  V30 2399 H 227.774 0.587771 -6.52859 0
M  V30 2400 H 227.294 2.04987 -5.63685 0
M  V30 2401 H 228.973 1.855 -6.19838 0
M  V30 2402 N 229.106 1.52395 0.401703 0
M  V30 2403 C 230.355 1.66044 1.14509 0
M  V30 2404 C 230.668 0.400216 1.91462 0
M  V30 2405 O 231.874 0.416632 2.68284 0
M  V30 2406 C 230.33 2.93388 2.0845 0
M  V30 2407 C 229.938 4.26545 1.36978 0
M  V30 2408 C 231.682 3.16402 2.83001 0
M  V30 2409 C 229.589 5.45007 2.29611 0
M  V30 2410 H 228.519 0.618562 0.431158 0
M  V30 2411 H 231.17 1.78886 0.40892 0
M  V30 2412 H 229.552 2.74263 2.8565 0
M  V30 2413 H 230.726 4.56179 0.650916 0
M  V30 2414 H 229.041 4.09692 0.74438 0
M  V30 2415 H 231.638 4.02085 3.52465 0
M  V30 2416 H 231.981 2.30943 3.46368 0
M  V30 2417 H 232.514 3.36034 2.12898 0
M  V30 2418 H 229.253 6.32835 1.70879 0
M  V30 2419 H 228.773 5.19702 2.9945 0
M  V30 2420 H 230.452 5.7838 2.89974 0
M  V30 2421 N 230.584 -0.659388 1.43143 0
M  V30 2422 C 231.532 -1.79374 1.4808 0
M  V30 2423 C 232.526 -1.65639 0.354988 0
M  V30 2424 O 233.732 -1.7206 0.528704 0
M  V30 2425 H 230.107 -0.591705 0.4641 0
M  V30 2426 H 232.078 -1.72329 2.43609 0
M  V30 2427 C 230.827 -3.17606 1.41499 0
M  V30 2428 H 230.15 -3.28809 2.27431 0
M  V30 2429 H 231.59 -3.96951 1.49015 0
M  V30 2430 C 230.049 -3.36642 0.131765 0
M  V30 2431 O 230.579 -3.93461 -0.809386 0
M  V30 2432 N 228.785 -2.90567 0.0439396 0
M  V30 2433 H 228.332 -2.44513 0.810619 0
M  V30 2434 H 228.29 -3.03681 -0.813969 0
M  V30 2435 N 232.062 -1.29571 -0.897171 0
M  V30 2436 C 233.287 -1.20705 -1.68656 0
M  V30 2437 C 233.712 0.228582 -1.86706 0
M  V30 2438 O 233.07 1.16494 -1.3892 0
M  V30 2439 C 233.118 -1.9282 -3.04717 0
M  V30 2440 O 232.222 -1.24697 -3.93096 0
M  V30 2441 H 231.563 -0.418126 -0.515816 0
M  V30 2442 H 234.093 -1.71183 -1.12061 0
M  V30 2443 H 234.103 -2.01372 -3.54843 0
M  V30 2444 H 232.778 -2.97239 -2.90899 0
M  V30 2445 H 231.355 -1.2442 -3.51531 0
M  V30 2446 N 233.54 1.10788 -1.12088 0
M  V30 2447 C 234.765 1.87002 -0.896949 0
M  V30 2448 C 235.19 1.79933 0.548261 0
M  V30 2449 O 234.548 1.16662 1.38779 0
M  V30 2450 C 234.596 3.3349 -1.37174 0
M  V30 2451 O 233.7 4.08745 -0.547831 0
M  V30 2452 H 233.041 0.580397 -0.322545 0
M  V30 2453 H 235.571 1.39996 -1.49206 0
M  V30 2454 H 235.581 3.84339 -1.36922 0
M  V30 2455 H 234.256 3.37951 -2.42408 0
M  V30 2456 H 232.833 3.6776 -0.617034 0
M  V30 2457 N 235.018 0.912232 1.28515 0
M  V30 2458 C 236.267 0.540504 1.94323 0
M  V30 2459 C 236.58 -0.920044 1.72611 0
M  V30 2460 O 237.786 -1.39986 2.32629 0
M  V30 2461 C 236.242 0.915803 3.48053 0
M  V30 2462 C 235.85 2.39598 3.78546 0
M  V30 2463 C 237.594 0.614588 4.20027 0
M  V30 2464 C 235.501 2.71148 5.25578 0
M  V30 2465 H 234.431 0.198418 0.727424 0
M  V30 2466 H 237.082 1.11094 1.46049 0
M  V30 2467 H 235.464 0.274168 3.9505 0
M  V30 2468 H 236.638 3.08422 3.42364 0
M  V30 2469 H 234.953 2.66749 3.1974 0
M  V30 2470 H 237.55 0.827002 5.28266 0
M  V30 2471 H 237.893 -0.447531 4.13887 0
M  V30 2472 H 238.426 1.21462 3.78803 0
M  V30 2473 H 235.165 3.76207 5.36794 0
M  V30 2474 H 234.685 2.0696 5.62963 0
M  V30 2475 H 236.364 2.58072 5.93302 0
M  V30 2476 N 236.496 -1.42363 0.676048 0
M  V30 2477 C 237.724 -2.05859 0.207268 0
M  V30 2478 C 238.139 -1.50796 -1.13605 0
M  V30 2479 O 237.496 -0.648265 -1.70598 0
M  V30 2480 C 237.547 -3.61248 0.134975 0
M  V30 2481 O 237.268 -4.1427 1.42521 0
M  V30 2482 C 238.769 -4.41859 -0.357151 0
M  V30 2483 H 235.989 -0.663431 0.100503 0
M  V30 2484 H 238.533 -1.82479 0.923136 0
M  V30 2485 H 236.688 -3.83735 -0.531588 0
M  V30 2486 H 237.102 -5.0815 1.29939 0
M  V30 2487 H 238.576 -5.50847 -0.356641 0
M  V30 2488 H 239.053 -4.16536 -1.39264 0
M  V30 2489 H 239.659 -4.24392 0.27772 0
M  V30 2490 N 237.974 -0.419461 -1.51915 0
M  V30 2491 C 239.202 0.152136 -2.0634 0
M  V30 2492 C 239.617 1.37988 -1.28859 0
M  V30 2493 O 238.974 1.79243 -0.343232 0
M  V30 2494 C 239.025 0.492266 -3.58133 0
M  V30 2495 O 238.746 -0.686736 -4.32684 0
M  V30 2496 C 240.247 1.11648 -4.2901 0
M  V30 2497 H 237.467 0.0158325 -0.670813 0
M  V30 2498 H 240.011 -0.593394 -1.95702 0
M  V30 2499 H 238.166 1.18769 -3.68745 0
M  V30 2500 H 238.58 -0.400341 -5.2297 0
M  V30 2501 H 240.054 1.3046 -5.36362 0
M  V30 2502 H 240.531 2.09251 -3.86148 0
M  V30 2503 H 241.137 0.460958 -4.22795 0
M  V30 2504 N 239.452 1.56882 -0.150215 0
M  V30 2505 C 240.399 2.16922 0.788244 0
M  V30 2506 C 241.369 1.10303 1.24187 0
M  V30 2507 O 242.554 1.38359 1.31383 0
M  V30 2508 C 239.694 2.79754 2.02068 0
M  V30 2509 C 238.807 4.00775 1.61257 0
M  V30 2510 C 237.942 4.51595 2.79705 0
M  V30 2511 C 236.981 5.65074 2.35282 0
M  V30 2512 N 236.118 6.10499 3.4675 0
M  V30 2513 H 240.958 2.96779 0.269444 0
M  V30 2514 H 238.495 1.46599 0.12128 0
M  V30 2515 H 240.453 3.14329 2.74323 0
M  V30 2516 H 239.083 2.02536 2.51354 0
M  V30 2517 H 238.135 3.72158 0.787553 0
M  V30 2518 H 239.447 4.82978 1.24633 0
M  V30 2519 H 238.601 4.88242 3.60145 0
M  V30 2520 H 237.34 3.68406 3.19576 0
M  V30 2521 H 236.345 5.28 1.53283 0
M  V30 2522 H 237.57 6.50052 1.96493 0
M  V30 2523 H 235.516 5.30243 3.86236 0
M  V30 2524 H 235.433 6.87637 3.14152 0
M  V30 2525 H 236.701 6.51791 4.27537 0
M  V30 2526 N 240.93 -0.123565 1.57115 0
M  V30 2527 C 241.893 -1.13583 1.99076 0
M  V30 2528 C 242.893 -1.34564 0.880296 0
M  V30 2529 O 244.083 -1.31158 1.14644 0
M  V30 2530 C 241.215 -2.49128 2.32698 0
M  V30 2531 H 242.408 -0.775287 2.89706 0
M  V30 2532 H 239.961 -0.36771 1.51913 0
M  V30 2533 H 240.696 -2.90111 1.44934 0
M  V30 2534 H 240.481 -2.35255 3.13684 0
M  V30 2535 H 241.971 -3.2199 2.65918 0
M  V30 2536 N 242.408 -1.52605 -0.393616 0
M  V30 2537 C 243.657 -1.66649 -1.13627 0
M  V30 2538 C 243.97 -0.410364 -1.91247 0
M  V30 2539 O 245.176 -0.430854 -2.68059 0
M  V30 2540 C 243.632 -2.9449 -2.06891 0
M  V30 2541 C 243.24 -4.27266 -1.34714 0
M  V30 2542 C 244.984 -3.17899 -2.81319 0
M  V30 2543 C 242.891 -5.46217 -2.26717 0
M  V30 2544 H 241.821 -0.62084 -0.427871 0
M  V30 2545 H 244.472 -1.791 -0.399428 0
M  V30 2546 H 242.854 -2.75774 -2.84191 0
M  V30 2547 H 244.028 -4.56518 -0.626714 0
M  V30 2548 H 242.343 -4.10081 -0.722643 0
M  V30 2549 H 244.94 -4.03949 -3.50328 0
M  V30 2550 H 245.283 -2.32777 -3.45139 0
M  V30 2551 H 245.816 -3.37159 -2.11113 0
M  V30 2552 H 242.555 -6.33733 -1.67521 0
M  V30 2553 H 242.075 -5.21283 -2.96689 0
M  V30 2554 H 243.754 -5.7991 -2.86903 0
M  V30 2555 N 243.887 0.651787 -1.4349 0
M  V30 2556 C 245.112 1.44434 -1.48841 0
M  V30 2557 C 245.537 1.8779 -0.107955 0
M  V30 2558 O 244.895 1.57464 0.898602 0
M  V30 2559 C 244.943 2.65458 -2.44059 0
M  V30 2560 O 244.047 3.64566 -1.92784 0
M  V30 2561 H 243.388 0.433005 -0.503391 0
M  V30 2562 H 245.918 0.797451 -1.88419 0
M  V30 2563 H 245.928 3.13255 -2.6141 0
M  V30 2564 H 244.603 2.33244 -3.4434 0
M  V30 2565 H 243.18 3.23716 -1.851 0
M  V30 2566 N 245.365 1.30045 0.890287 0
M  V30 2567 C 246.781 1.08261 1.17268 0
M  V30 2568 C 246.981 -0.160063 2.00863 0
M  V30 2569 O 246.037 -0.855181 2.37577 0
M  V30 2570 C 247.35 2.34323 1.8845 0
M  V30 2571 C 248.898 2.39735 2.01237 0
M  V30 2572 C 249.373 3.65625 2.7583 0
M  V30 2573 N 250.864 3.66402 2.83379 0
M  V30 2574 C 251.599 4.60498 3.41657 0
M  V30 2575 N 251.095 5.64933 4.01026 0
M  V30 2576 N 252.888 4.48051 3.39421 0
M  V30 2577 H 245.039 2.09777 0.332762 0
M  V30 2578 H 247.302 0.92446 0.209948 0
M  V30 2579 H 247.008 3.2498 1.34465 0
M  V30 2580 H 246.882 2.4256 2.88867 0
M  V30 2581 H 249.269 1.4956 2.54393 0
M  V30 2582 H 249.35 2.35476 0.999232 0
M  V30 2583 H 248.994 4.56156 2.23347 0
M  V30 2584 H 248.924 3.67144 3.77509 0
M  V30 2585 H 251.415 2.90896 2.41222 0
M  V30 2586 H 251.728 6.32841 4.43545 0
M  V30 2587 H 250.073 5.68732 3.99461 0
M  V30 2588 H 253.264 3.65649 2.92264 0
M  V30 2589 H 253.437 5.21565 3.84544 0
M  V30 2590 N 246.843 -1.10192 1.12674 0
M  V30 2591 C 248.089 -1.82658 0.894847 0
M  V30 2592 C 248.444 -1.83666 -0.573107 0
M  V30 2593 O 247.737 -1.28816 -1.41835 0
M  V30 2594 C 247.931 -3.28552 1.4067 0
M  V30 2595 C 247.76 -3.41756 2.92289 0
M  V30 2596 C 246.53 -3.54021 3.60551 0
M  V30 2597 C 248.728 -3.34949 3.90274 0
M  V30 2598 N 246.71 -3.55827 5.0026 0
M  V30 2599 C 248.081 -3.43531 5.16127 0
M  V30 2600 C 250.136 -3.18565 3.8265 0
M  V30 2601 C 248.839 -3.37416 6.3525 0
M  V30 2602 C 250.865 -3.13772 5.01299 0
M  V30 2603 C 250.227 -3.22938 6.26012 0
M  V30 2604 H 246.326 -0.683044 0.380756 0
M  V30 2605 H 248.91 -1.31752 1.43351 0
M  V30 2606 H 247.081 -3.77946 0.895055 0
M  V30 2607 H 248.813 -3.88991 1.11661 0
M  V30 2608 H 245.568 -3.57135 3.1105 0
M  V30 2609 H 245.992 -3.60335 5.73138 0
M  V30 2610 H 250.634 -3.10354 2.87124 0
M  V30 2611 H 248.352 -3.44391 7.3104 0
M  V30 2612 H 251.938 -3.02242 4.97133 0
M  V30 2613 H 250.818 -3.19235 7.16281 0
M  V30 2614 N 248.321 -0.919034 -1.28029 0
M  V30 2615 C 249.546 -0.570357 -1.99403 0
M  V30 2616 C 249.971 0.842486 -1.68178 0
M  V30 2617 O 249.329 1.56391 -0.917141 0
M  V30 2618 C 249.377 -0.792541 -3.51783 0
M  V30 2619 O 248.481 0.145988 -4.12142 0
M  V30 2620 H 247.822 -0.220555 -0.6263 0
M  V30 2621 H 250.352 -1.23592 -1.63053 0
M  V30 2622 H 250.362 -0.704708 -4.01868 0
M  V30 2623 H 249.037 -1.82247 -3.73844 0
M  V30 2624 H 247.614 0.00897528 -3.72899 0
M  V30 2625 N 249.799 1.42003 -0.683588 0
M  V30 2626 C 251.024 2.06265 -0.216647 0
M  V30 2627 C 251.449 1.51059 1.12083 0
M  V30 2628 O 250.807 0.632638 1.69904 0
M  V30 2629 C 250.855 3.60191 -0.171759 0
M  V30 2630 O 249.959 4.03396 0.857069 0
M  V30 2631 H 249.3 0.65502 -0.108834 0
M  V30 2632 H 251.83 1.81982 -0.935077 0
M  V30 2633 H 251.84 4.08 0.0014303 0
M  V30 2634 H 250.515 3.99743 -1.14796 0
M  V30 2635 H 249.092 3.67117 0.654208 0
M  V30 2636 N 251.277 0.427512 1.51691 0
M  V30 2637 C 252.207 -0.3796 2.30394 0
M  V30 2638 C 253.188 -1.02982 1.35384 0
M  V30 2639 O 254.373 -1.03534 1.643 0
M  V30 2640 C 251.503 -1.48649 3.1388 0
M  V30 2641 C 250.457 -0.960294 4.17088 0
M  V30 2642 C 249.783 -2.16219 4.89033 0
M  V30 2643 C 251.083 -0.00153679 5.223 0
M  V30 2644 H 252.777 0.277164 2.98114 0
M  V30 2645 H 250.323 0.134739 1.43368 0
M  V30 2646 H 252.276 -2.05826 3.67714 0
M  V30 2647 H 251 -2.1714 2.43962 0
M  V30 2648 H 249.659 -0.410806 3.64291 0
M  V30 2649 H 249.307 -2.83307 4.15628 0
M  V30 2650 H 249.007 -1.81654 5.58816 0
M  V30 2651 H 250.531 -2.73968 5.45687 0
M  V30 2652 H 251.945 -0.482687 5.71264 0
M  V30 2653 H 250.342 0.256199 5.99553 0
M  V30 2654 H 251.412 0.938174 4.75738 0
M  V30 2655 N 252.755 -1.56801 0.158532 0
M  V30 2656 C 253.718 -2.16138 -0.762705 0
M  V30 2657 C 254.718 -1.1061 -1.16713 0
M  V30 2658 O 255.908 -1.36191 -1.08617 0
M  V30 2659 C 253.04 -2.73386 -2.03649 0
M  V30 2660 H 254.233 -2.98886 -0.246354 0
M  V30 2661 H 251.786 -1.56035 -0.0909744 0
M  V30 2662 H 252.521 -1.94335 -2.59623 0
M  V30 2663 H 252.306 -3.50601 -1.75559 0
M  V30 2664 H 253.796 -3.19065 -2.6942 0
M  V30 2665 N 254.233 0.115231 -1.57178 0
M  V30 2666 C 255.473 0.828199 -1.8687 0
M  V30 2667 C 255.837 1.76873 -0.747002 0
M  V30 2668 O 257.038 2.52354 -0.925785 0
M  V30 2669 C 255.309 1.55515 -3.21792 0
M  V30 2670 S 256.868 2.30917 -3.73125 0
M  V30 2671 H 253.686 0.27634 -0.655101 0
M  V30 2672 H 256.288 0.0863469 -1.95309 0
M  V30 2673 H 254.992 0.856248 -4.01368 0
M  V30 2674 H 254.523 2.3373 -3.16439 0
M  V30 2675 H 256.538 3.56705 -3.44929 0
M  V30 2676 N 255.711 1.52812 0.385517 0
M  V30 2677 C 256.659 1.78482 1.49155 0
M  V30 2678 C 257.653 0.652914 1.56312 0
M  V30 2679 O 258.859 0.835464 1.59436 0
M  V30 2680 H 255.234 0.5648 0.496493 0
M  V30 2681 H 257.205 2.71095 1.24699 0
M  V30 2682 C 255.954 1.97378 2.86247 0
M  V30 2683 H 255.277 2.83907 2.81491 0
M  V30 2684 H 256.717 2.19327 3.62866 0
M  V30 2685 C 255.176 0.74728 3.28508 0
M  V30 2686 O 255.706 -0.0736232 4.01633 0
M  V30 2687 N 253.912 0.576396 2.84826 0
M  V30 2688 H 253.459 1.24555 2.25486 0
M  V30 2689 H 253.417 -0.24288 3.1346 0
M  V30 2690 N 257.189 -0.644168 1.43834 0
M  V30 2691 C 258.438 -1.39985 1.45214 0
M  V30 2692 C 258.751 -1.95421 0.0835494 0
M  V30 2693 O 259.957 -2.71488 -0.0251748 0
M  V30 2694 C 258.413 -2.53384 2.55587 0
M  V30 2695 C 258.021 -2.04517 3.98594 0
M  V30 2696 C 259.765 -3.30685 2.66172 0
M  V30 2697 C 257.672 -3.1518 5.00416 0
M  V30 2698 H 256.602 -0.526005 0.540218 0
M  V30 2699 H 259.253 -0.694367 1.69855 0
M  V30 2700 H 257.635 -3.26446 2.24163 0
M  V30 2701 H 258.809 -1.38405 4.39523 0
M  V30 2702 H 257.124 -1.40068 3.92135 0
M  V30 2703 H 259.721 -4.13158 3.39418 0
M  V30 2704 H 260.064 -3.79312 1.71546 0
M  V30 2705 H 260.597 -2.64708 2.96942 0
M  V30 2706 H 257.336 -2.71511 5.96625 0
M  V30 2707 H 256.856 -3.79974 4.64091 0
M  V30 2708 H 258.535 -3.80166 5.23529 0
M  V30 2709 N 258.668 -1.30515 -0.883378 0
M  V30 2710 C 259.631 -1.1701 -1.97082 0
M  V30 2711 C 260.631 -0.10089 -1.60483 0
M  V30 2712 O 261.821 -0.349127 -1.70666 0
M  V30 2713 C 258.953 -0.793045 -3.31547 0
M  V30 2714 H 260.146 -2.13622 -2.10489 0
M  V30 2715 H 257.699 -1.13935 -1.06998 0
M  V30 2716 H 258.434 0.172499 -3.23841 0
M  V30 2717 H 258.219 -1.56576 -3.5948 0
M  V30 2718 H 259.709 -0.722073 -4.1131 0
M  V30 2719 N 260.146 1.09593 -1.13257 0
M  V30 2720 C 261.076 2.18214 -0.830946 0
M  V30 2721 C 262.057 1.68812 0.208966 0
M  V30 2722 O 263.242 1.9408 0.0682666 0
M  V30 2723 C 260.372 3.46051 -0.294296 0
M  V30 2724 C 259.326 4.08778 -1.26826 0
M  V30 2725 C 258.652 5.31419 -0.591449 0
M  V30 2726 C 259.952 4.51476 -2.62615 0
M  V30 2727 H 261.646 2.43703 -1.73923 0
M  V30 2728 H 259.192 1.17128 -0.837675 0
M  V30 2729 H 261.145 4.2134 -0.0709606 0
M  V30 2730 H 259.869 3.20079 0.649366 0
M  V30 2731 H 258.528 3.35505 -1.47756 0
M  V30 2732 H 258.176 5.01727 0.357633 0
M  V30 2733 H 257.876 5.74341 -1.24123 0
M  V30 2734 H 259.4 6.09433 -0.377355 0
M  V30 2735 H 260.814 5.17999 -2.45663 0
M  V30 2736 H 259.211 5.05277 -3.23752 0
M  V30 2737 H 260.281 3.63962 -3.20406 0
M  V30 2738 N 261.624 0.925811 1.2754 0
M  V30 2739 C 262.901 0.483726 1.89524 0
M  V30 2740 C 263.281 -1.03809 1.83812 0
M  V30 2741 O 262.629 -1.89143 1.28207 0
M  V30 2742 C 262.839 1.02769 3.33526 0
M  V30 2743 C 264.187 1.08703 4.10449 0
M  V30 2744 O 265.211 0.977175 3.42534 0
M  V30 2745 O 264.07 1.25599 5.31871 0
M  V30 2746 H 261.164 0.15529 0.812289 0
M  V30 2747 H 263.71 1.01738 1.35822 0
M  V30 2748 H 262.482 2.07155 3.31967 0
M  V30 2749 H 262.105 0.475567 3.94746 0
M  V30 2750 N 263.102 -1.41638 0.69111 0
M  V30 2751 C 264.065 -2.29178 0.0319786 0
M  V30 2752 C 265.065 -1.44153 -0.712496 0
M  V30 2753 O 266.255 -1.65354 -0.548053 0
M  V30 2754 C 263.387 -3.26952 -0.965161 0
M  V30 2755 H 264.58 -2.88959 0.802681 0
M  V30 2756 H 262.133 -1.4955 0.454356 0
M  V30 2757 H 262.868 -2.72142 -1.76378 0
M  V30 2758 H 262.653 -3.89685 -0.434522 0
M  V30 2759 H 264.143 -3.92561 -1.42428 0
M  V30 2760 N 264.58 -0.43555 -1.51462 0
M  V30 2761 C 265.826 0.131709 -2.02372 0
M  V30 2762 C 266.159 1.42516 -1.3192 0
M  V30 2763 O 265.434 1.89606 -0.433573 0
M  V30 2764 C 265.717 0.352301 -3.58373 0
M  V30 2765 C 265.57 -0.959676 -4.39443 0
M  V30 2766 C 266.889 1.12286 -4.25535 0
M  V30 2767 H 264.008 0.0463936 -0.735538 0
M  V30 2768 H 266.65 -0.574197 -1.81116 0
M  V30 2769 H 264.8 0.9536 -3.76615 0
M  V30 2770 H 266.472 -1.59482 -4.32855 0
M  V30 2771 H 264.715 -1.56468 -4.04599 0
M  V30 2772 H 265.386 -0.759394 -5.46752 0
M  V30 2773 H 267.862 0.613545 -4.11552 0
M  V30 2774 H 266.738 1.24598 -5.34571 0
M  V30 2775 H 266.999 2.15048 -3.86273 0
M  V30 2776 N 266.058 1.56714 -0.166846 0
M  V30 2777 C 267.005 2.17746 0.765193 0
M  V30 2778 C 267.975 1.11614 1.23011 0
M  V30 2779 O 269.16 1.39745 1.29908 0
M  V30 2780 C 266.3 2.81882 1.9909 0
M  V30 2781 C 265.413 4.02462 1.56997 0
M  V30 2782 C 264.548 4.54537 2.749 0
M  V30 2783 C 263.587 5.67538 2.29275 0
M  V30 2784 N 262.724 6.14142 3.40255 0
M  V30 2785 H 267.564 2.97048 0.237952 0
M  V30 2786 H 265.101 1.4672 0.105725 0
M  V30 2787 H 267.059 3.17221 2.70974 0
M  V30 2788 H 265.689 2.05191 2.49192 0
M  V30 2789 H 264.741 3.72973 0.748037 0
M  V30 2790 H 266.053 4.84273 1.19503 0
M  V30 2791 H 265.207 4.92035 3.54946 0
M  V30 2792 H 263.946 3.71774 3.1565 0
M  V30 2793 H 262.951 5.29597 1.47674 0
M  V30 2794 H 264.176 6.52099 1.89588 0
M  V30 2795 H 262.122 5.3431 3.8059 0
M  V30 2796 H 262.039 6.9093 3.06841 0
M  V30 2797 H 263.307 6.56289 4.206 0
M  V30 2798 N 267.536 -0.106894 1.57237 0
M  V30 2799 C 268.469 -1.16125 1.96444 0
M  V30 2800 C 269.447 -1.3947 0.835871 0
M  V30 2801 O 270.631 -1.53425 1.09513 0
M  V30 2802 C 267.758 -2.51277 2.27107 0
M  V30 2803 C 266.804 -2.44285 3.4961 0
M  V30 2804 S 267.637 -1.87077 5.01759 0
M  V30 2805 C 268.793 -3.23877 5.35588 0
M  V30 2806 H 269.026 -0.826971 2.85567 0
M  V30 2807 H 266.559 -0.314124 1.51171 0
M  V30 2808 H 268.517 -3.29035 2.45451 0
M  V30 2809 H 267.178 -2.81879 1.38576 0
M  V30 2810 H 266.371 -3.4387 3.68469 0
M  V30 2811 H 265.973 -1.74652 3.30715 0
M  V30 2812 H 268.265 -4.20122 5.31511 0
M  V30 2813 H 269.208 -3.09833 6.36717 0
M  V30 2814 H 269.616 -3.22864 4.63054 0
M  V30 2815 N 269.014 -1.53014 -0.377408 0
M  V30 2816 C 270.26 -1.68872 -1.12294 0
M  V30 2817 C 270.593 -0.433224 -1.89306 0
M  V30 2818 O 269.868 0.569258 -1.85983 0
M  V30 2819 C 270.151 -2.93115 -2.09179 0
M  V30 2820 C 270.004 -4.28794 -1.35853 0
M  V30 2821 C 271.323 -3.12928 -3.09458 0
M  V30 2822 H 268.442 -0.614518 -0.406862 0
M  V30 2823 H 271.084 -1.85633 -0.40503 0
M  V30 2824 H 269.234 -2.78956 -2.70399 0
M  V30 2825 H 270.906 -4.54742 -0.775082 0
M  V30 2826 H 269.149 -4.28744 -0.660364 0
M  V30 2827 H 269.82 -5.11837 -2.06706 0
M  V30 2828 H 272.296 -3.26194 -2.58334 0
M  V30 2829 H 271.172 -4.01316 -3.74482 0
M  V30 2830 H 271.433 -2.27669 -3.78971 0
M  V30 2831 N 270.492 0.636531 -1.44174 0
M  V30 2832 C 271.424 1.7618 -1.46606 0
M  V30 2833 C 272.437 1.58768 -0.360091 0
M  V30 2834 O 273.626 1.67181 -0.625518 0
M  V30 2835 C 270.726 3.13833 -1.27915 0
M  V30 2836 C 269.899 3.57753 -2.51658 0
M  V30 2837 C 268.958 4.74265 -2.27945 0
M  V30 2838 O 267.984 4.82852 -3.01401 0
M  V30 2839 N 269.186 5.65604 -1.30662 0
M  V30 2840 H 271.951 1.74567 -2.43612 0
M  V30 2841 H 269.512 0.820924 -1.39544 0
M  V30 2842 H 271.504 3.8949 -1.09907 0
M  V30 2843 H 270.074 3.10121 -0.39293 0
M  V30 2844 H 269.294 2.72362 -2.84978 0
M  V30 2845 H 270.582 3.83847 -3.33974 0
M  V30 2846 H 269.98 5.61354 -0.699844 0
M  V30 2847 H 268.537 6.40913 -1.18634 0
M  V30 2848 N 271.97 1.30982 0.876444 0
M  V30 2849 C 273.217 1.20296 1.62896 0
M  V30 2850 C 273.545 -0.240395 1.93009 0
M  V30 2851 O 272.8 -1.18733 1.55567 0
M  V30 2852 C 273.099 1.98572 2.9716 0
M  V30 2853 C 272.765 3.48125 2.86566 0
M  V30 2854 C 271.427 3.88905 2.83383 0
M  V30 2855 C 273.779 4.43322 2.74071 0
M  V30 2856 C 271.107 5.2316 2.65556 0
M  V30 2857 C 273.459 5.77695 2.57781 0
M  V30 2858 C 272.123 6.17704 2.52979 0
M  V30 2859 H 271.393 0.440193 0.59608 0
M  V30 2860 H 274.04 1.62177 1.01837 0
M  V30 2861 H 272.345 1.49352 3.62217 0
M  V30 2862 H 274.042 1.8769 3.54364 0
M  V30 2863 H 270.632 3.15723 2.89856 0
M  V30 2864 H 274.816 4.12752 2.75589 0
M  V30 2865 H 270.072 5.53241 2.60259 0
M  V30 2866 H 274.246 6.51091 2.47089 0
M  V30 2867 H 271.873 7.21678 2.38924 0
M  V30 2868 N 273.449 -1.08991 1.13837 0
M  V30 2869 C 274.359 -2.19301 0.833333 0
M  V30 2870 C 275.375 -1.73026 -0.183847 0
M  V30 2871 O 276.551 -2.01395 -0.0138092 0
M  V30 2872 C 273.616 -3.45323 0.308651 0
M  V30 2873 C 272.677 -4.06255 1.38764 0
M  V30 2874 C 271.91 -5.26262 0.887896 0
M  V30 2875 O 272.133 -5.69747 -0.27287 0
M  V30 2876 O 271.067 -5.78435 1.66421 0
M  V30 2877 H 274.893 -2.47854 1.75506 0
M  V30 2878 H 272.478 -1.18012 0.916166 0
M  V30 2879 H 274.36 -4.21394 0.0216739 0
M  V30 2880 H 273.035 -3.18362 -0.585431 0
M  V30 2881 H 271.942 -3.318 1.72799 0
M  V30 2882 H 273.275 -4.37452 2.25602 0
M  V30 2883 N 274.927 -0.932562 -1.27047 0
M  V30 2884 C 275.837 -0.441219 -2.30414 0
M  V30 2885 C 276.853 0.480525 -1.67233 0
M  V30 2886 O 278.029 0.362151 -1.98117 0
M  V30 2887 C 275.094 0.293651 -3.45454 0
M  V30 2888 C 274.155 -0.663601 -4.2414 0
M  V30 2889 C 273.388 0.0362932 -5.33688 0
M  V30 2890 O 273.611 1.2548 -5.56427 0
M  V30 2891 O 272.545 -0.638015 -5.98509 0
M  V30 2892 H 276.371 -1.29962 -2.74488 0
M  V30 2893 H 273.956 -0.6981 -1.32087 0
M  V30 2894 H 275.838 0.707951 -4.15411 0
M  V30 2895 H 274.513 1.12758 -3.03426 0
M  V30 2896 H 273.42 -1.12768 -3.56699 0
M  V30 2897 H 274.753 -1.46489 -4.69896 0
M  V30 2898 N 276.405 1.4127 -0.698611 0
M  V30 2899 C 277.353 2.32588 -0.023855 0
M  V30 2900 C 278.347 1.51128 0.765292 0
M  V30 2901 O 279.553 1.67043 0.670571 0
M  V30 2902 H 275.928 0.751918 0.0110871 0
M  V30 2903 H 277.899 2.87167 -0.811031 0
M  V30 2904 C 276.648 3.35947 0.896369 0
M  V30 2905 H 275.971 3.98684 0.298548 0
M  V30 2906 H 277.411 4.02376 1.33676 0
M  V30 2907 C 275.87 2.70076 2.01396 0
M  V30 2908 O 276.4 2.55093 3.10307 0
M  V30 2909 N 274.606 2.28724 1.79259 0
M  V30 2910 H 274.153 2.4111 0.906841 0
M  V30 2911 H 274.111 1.84986 2.54219 0
M  V30 2912 N 277.883 0.443576 1.51229 0
M  V30 2913 C 279.131 -0.120557 2.0174 0
M  V30 2914 C 279.452 -1.42665 1.32935 0
M  V30 2915 O 278.722 -1.9028 0.465866 0
M  V30 2916 H 277.302 -0.0475426 0.745486 0
M  V30 2917 H 279.964 0.587711 1.85828 0
M  V30 2918 H 279.06 -0.291972 3.10731 0
M  V30 2919 N 279.361 -1.56624 0.175154 0
M  V30 2920 C 280.777 -1.58571 -0.180966 0
M  V30 2921 C 280.977 -1.19065 -1.6256 0
M  V30 2922 O 280.033 -0.904044 -2.35761 0
M  V30 2923 C 281.346 -3.00522 0.103326 0
M  V30 2924 C 282.894 -3.12972 0.0418426 0
M  V30 2925 C 283.369 -4.57022 0.299175 0
M  V30 2926 N 284.86 -4.62541 0.247086 0
M  V30 2927 C 285.595 -5.71857 0.420318 0
M  V30 2928 N 285.091 -6.89717 0.652816 0
M  V30 2929 N 286.884 -5.60972 0.355957 0
M  V30 2930 H 279.035 -1.80589 1.11809 0
M  V30 2931 H 281.298 -0.837178 0.444788 0
M  V30 2932 H 281.004 -3.33916 1.10422 0
M  V30 2933 H 280.878 -3.72344 -0.603299 0
M  V30 2934 H 283.265 -2.79403 -0.949636 0
M  V30 2935 H 283.346 -2.43578 0.781238 0
M  V30 2936 H 282.99 -4.913 1.28788 0
M  V30 2937 H 282.92 -5.24579 -0.460876 0
M  V30 2938 H 285.411 -3.77829 0.0731895 0
M  V30 2939 H 285.724 -7.68911 0.774347 0
M  V30 2940 H 284.069 -6.91572 0.689476 0
M  V30 2941 H 287.26 -4.67773 0.174882 0
M  V30 2942 H 287.433 -6.46111 0.494388 0
M  V30 2943 N 280.839 0.0985539 -1.57292 0
M  V30 2944 C 281.786 1.11981 -2.01814 0
M  V30 2945 C 282.756 1.39999 -0.89384 0
M  V30 2946 O 283.941 1.5152 -1.15958 0
M  V30 2947 C 281.081 2.43577 -2.44467 0
M  V30 2948 C 280.194 2.2232 -3.70402 0
M  V30 2949 C 279.329 3.4729 -4.01949 0
M  V30 2950 C 278.368 3.2128 -5.21005 0
M  V30 2951 N 277.505 4.38507 -5.48321 0
M  V30 2952 H 282.345 0.733149 -2.88841 0
M  V30 2953 H 279.882 0.350482 -1.42864 0
M  V30 2954 H 281.84 3.20373 -2.6724 0
M  V30 2955 H 280.47 2.80097 -1.60455 0
M  V30 2956 H 279.522 1.36343 -3.55126 0
M  V30 2957 H 280.834 1.99089 -4.57345 0
M  V30 2958 H 279.988 4.32495 -4.25479 0
M  V30 2959 H 278.727 3.73572 -3.13521 0
M  V30 2960 H 277.732 2.34468 -4.97298 0
M  V30 2961 H 278.957 2.96348 -6.11028 0
M  V30 2962 H 276.903 4.64871 -4.62851 0
M  V30 2963 H 276.82 4.18455 -6.29628 0
M  V30 2964 H 278.088 5.24787 -5.76385 0
M  V30 2965 N 282.317 1.53212 0.369288 0
M  V30 2966 C 283.227 1.82342 1.47609 0
M  V30 2967 C 284.243 0.711532 1.58787 0
M  V30 2968 O 285.419 1.0012 1.74751 0
M  V30 2969 C 282.484 2.00393 2.8292 0
M  V30 2970 C 281.545 3.24297 2.81301 0
M  V30 2971 C 280.778 3.41478 4.10157 0
M  V30 2972 O 281.001 2.63033 5.06132 0
M  V30 2973 O 279.935 4.34817 4.16194 0
M  V30 2974 H 283.761 2.76366 1.25918 0
M  V30 2975 H 281.346 1.38547 0.559034 0
M  V30 2976 H 283.228 2.13859 3.63101 0
M  V30 2977 H 281.903 1.09559 3.04596 0
M  V30 2978 H 280.81 3.16257 1.99831 0
M  V30 2979 H 282.143 4.15041 2.64578 0
M  V30 2980 N 283.795 -0.628877 1.44509 0
M  V30 2981 C 285.044 -1.38437 1.4669 0
M  V30 2982 C 285.357 -1.95322 0.104272 0
M  V30 2983 O 286.563 -2.715 0.00362163 0
M  V30 2984 C 285.019 -2.50659 2.5826 0
M  V30 2985 C 284.627 -2.00277 4.0074 0
M  V30 2986 C 286.371 -3.27844 2.69664 0
M  V30 2987 C 284.278 -3.09854 5.0373 0
M  V30 2988 H 283.208 -0.520245 0.545766 0
M  V30 2989 H 285.859 -0.676313 1.70582 0
M  V30 2990 H 284.241 -3.2405 2.27612 0
M  V30 2991 H 285.415 -1.33736 4.40966 0
M  V30 2992 H 283.73 -1.35901 3.93599 0
M  V30 2993 H 286.327 -4.09534 3.43781 0
M  V30 2994 H 286.67 -3.77471 1.75559 0
M  V30 2995 H 287.203 -2.61543 2.99733 0
M  V30 2996 H 283.942 -2.65168 5.99472 0
M  V30 2997 H 283.462 -3.7503 4.68095 0
M  V30 2998 H 285.141 -3.74592 5.27532 0
M  V30 2999 N 285.273 -1.31445 -0.869486 0
M  V30 3000 C 286.55 -1.11795 -1.60503 0
M  V30 3001 C 286.93 0.327168 -2.08549 0
M  V30 3002 O 286.278 1.32135 -1.8642 0
M  V30 3003 C 286.488 -2.13258 -2.76265 0
M  V30 3004 C 287.836 -2.45805 -3.46215 0
M  V30 3005 O 288.86 -2.11688 -2.86473 0
M  V30 3006 O 287.719 -3.04228 -4.5399 0
M  V30 3007 H 284.813 -0.430421 -0.706163 0
M  V30 3008 H 287.359 -1.42925 -0.914907 0
M  V30 3009 H 286.131 -3.10461 -2.3818 0
M  V30 3010 H 285.754 -1.83035 -3.52964 0
M  V30 3011 N 286.751 1.08385 -1.14413 0
M  V30 3012 C 288 1.80153 -0.907076 0
M  V30 3013 C 288.313 1.87176 0.567851 0
M  V30 3014 O 289.519 2.55359 0.922172 0
M  V30 3015 C 287.975 3.23687 -1.57336 0
M  V30 3016 C 287.583 3.24897 -3.08457 0
M  V30 3017 C 289.327 4.00136 -1.41744 0
M  V30 3018 C 287.234 4.6302 -3.67921 0
M  V30 3019 H 286.164 0.675139 -0.335714 0
M  V30 3020 H 288.815 1.21733 -1.37307 0
M  V30 3021 H 287.197 3.82234 -1.03505 0
M  V30 3022 H 288.371 2.76055 -3.68958 0
M  V30 3023 H 286.686 2.61943 -3.2369 0
M  V30 3024 H 289.283 5.02201 -1.83572 0
M  V30 3025 H 289.626 4.14709 -0.363576 0
M  V30 3026 H 290.159 3.48058 -1.92614 0
M  V30 3027 H 286.898 4.5365 -4.73161 0
M  V30 3028 H 286.418 5.12143 -3.12201 0
M  V30 3029 H 288.097 5.31994 -3.68227 0
M  V30 3030 N 288.23 0.939286 1.26551 0
M  V30 3031 C 289.177 0.446088 2.26448 0
M  V30 3032 C 290.147 -0.493234 1.58608 0
M  V30 3033 O 291.332 -0.409857 1.86346 0
M  V30 3034 C 288.472 -0.284375 3.43926 0
M  V30 3035 C 287.585 0.690399 4.26448 0
M  V30 3036 C 286.72 -0.0610712 5.31165 0
M  V30 3037 C 285.759 0.905649 6.05363 0
M  V30 3038 N 284.896 0.186055 7.01853 0
M  V30 3039 H 289.736 1.30291 2.68008 0
M  V30 3040 H 287.273 0.65371 1.31776 0
M  V30 3041 H 289.231 -0.724313 4.10864 0
M  V30 3042 H 287.861 -1.10535 3.03285 0
M  V30 3043 H 286.913 1.24885 3.59316 0
M  V30 3044 H 288.225 1.42873 4.779 0
M  V30 3045 H 287.379 -0.56038 6.04106 0
M  V30 3046 H 286.118 -0.832297 4.80546 0
M  V30 3047 H 285.123 1.4161 5.3125 0
M  V30 3048 H 286.348 1.67685 6.58072 0
M  V30 3049 H 284.294 -0.566714 6.53548 0
M  V30 3050 H 284.211 0.863752 7.51049 0
M  V30 3051 H 285.479 -0.292221 7.78952 0
M  V30 3052 N 289.708 -1.40897 0.706093 0
M  V30 3053 C 290.655 -2.30751 0.0474474 0
M  V30 3054 C 291.625 -1.47678 -0.76029 0
M  V30 3055 O 292.81 -1.76441 -0.726177 0
M  V30 3056 C 289.95 -3.33815 -0.875309 0
M  V30 3057 C 289.063 -4.31961 -0.0580623 0
M  V30 3058 C 288.198 -5.22093 -0.979425 0
M  V30 3059 C 287.237 -6.11902 -0.155706 0
M  V30 3060 N 286.374 -6.94482 -1.03144 0
M  V30 3061 H 291.214 -2.86513 0.819413 0
M  V30 3062 H 288.751 -1.41102 0.415783 0
M  V30 3063 H 290.709 -3.92129 -1.42446 0
M  V30 3064 H 289.339 -2.79579 -1.61356 0
M  V30 3065 H 288.391 -3.75507 0.608147 0
M  V30 3066 H 289.703 -4.95415 0.580082 0
M  V30 3067 H 288.857 -5.85292 -1.59744 0
M  V30 3068 H 287.596 -4.5889 -1.65141 0
M  V30 3069 H 286.601 -5.47742 0.475309 0
M  V30 3070 H 287.826 -6.77162 0.512635 0
M  V30 3071 H 285.772 -6.33877 -1.68924 0
M  V30 3072 H 285.689 -7.54665 -0.449108 0
M  V30 3073 H 286.957 -7.6214 -1.63593 0
M  V30 3074 N 291.186 -0.45159 -1.50991 0
M  V30 3075 C 292.416 0.108177 -2.06317 0
M  V30 3076 C 292.824 1.35774 -1.31765 0
M  V30 3077 O 292.167 1.79838 -0.374694 0
M  V30 3078 C 292.229 0.481659 -3.56259 0
M  V30 3079 C 291.893 -0.663114 -4.52163 0
M  V30 3080 C 292.89 -1.53947 -4.96585 0
M  V30 3081 C 290.575 -0.8479 -4.95092 0
M  V30 3082 C 292.569 -2.58518 -5.82621 0
M  V30 3083 C 290.256 -1.89686 -5.80915 0
M  V30 3084 C 291.254 -2.76388 -6.24579 0
M  V30 3085 O 290.942 -3.79482 -7.08695 0
M  V30 3086 H 290.674 0.00499183 -0.675982 0
M  V30 3087 H 293.228 -0.633659 -1.95381 0
M  V30 3088 H 291.458 1.27641 -3.65027 0
M  V30 3089 H 293.147 0.974233 -3.94035 0
M  V30 3090 H 293.913 -1.4083 -4.64103 0
M  V30 3091 H 289.792 -0.18258 -4.60638 0
M  V30 3092 H 293.336 -3.26224 -6.16623 0
M  V30 3093 H 289.233 -2.02817 -6.12809 0
M  V30 3094 H 290.001 -3.76234 -7.26905 0
M  V30 3095 N 292.664 1.56529 -0.183458 0
M  V30 3096 C 293.627 2.17324 0.728223 0
M  V30 3097 C 294.627 1.12453 1.14939 0
M  V30 3098 O 295.817 1.37902 1.06437 0
M  V30 3099 C 292.949 2.76591 1.99274 0
M  V30 3100 H 294.142 2.99241 0.198772 0
M  V30 3101 H 291.695 1.5616 0.0661391 0
M  V30 3102 H 292.43 1.98441 2.56499 0
M  V30 3103 H 292.215 3.5335 1.69959 0
M  V30 3104 H 293.705 3.23311 2.6431 0
M  V30 3105 N 294.142 -0.090211 1.57342 0
M  V30 3106 C 295.558 -0.444547 1.53284 0
M  V30 3107 C 295.758 -1.80238 0.900914 0
M  V30 3108 O 294.814 -2.4759 0.495513 0
M  V30 3109 C 296.127 -0.402543 2.97993 0
M  V30 3110 C 297.675 -0.48405 3.09234 0
M  V30 3111 C 298.15 -0.472144 4.5556 0
M  V30 3112 N 299.641 -0.532757 4.60126 0
M  V30 3113 C 300.376 -0.545462 5.708 0
M  V30 3114 N 299.872 -0.514082 6.9089 0
M  V30 3115 N 301.665 -0.59064 5.58988 0
M  V30 3116 H 293.816 0.799121 1.96794 0
M  V30 3117 H 296.079 0.297965 0.899956 0
M  V30 3118 H 295.785 0.528106 3.47712 0
M  V30 3119 H 295.659 -1.21969 3.56936 0
M  V30 3120 H 298.046 -1.40512 2.595 0
M  V30 3121 H 298.127 0.361328 2.53235 0
M  V30 3122 H 297.771 0.445 5.05947 0
M  V30 3123 H 297.701 -1.3348 5.09402 0
M  V30 3124 H 300.192 -0.562006 3.73698 0
M  V30 3125 H 300.505 -0.527195 7.71 0
M  V30 3126 H 298.85 -0.481054 6.93333 0
M  V30 3127 H 302.041 -0.61272 4.64073 0
M  V30 3128 H 302.214 -0.597073 6.45243 0
M  V30 3129 N 295.62 -1.53406 -0.361157 0
M  V30 3130 C 296.866 -1.70054 -1.10496 0
M  V30 3131 C 297.199 -0.453278 -1.88836 0
M  V30 3132 O 296.474 0.5495 -1.86576 0
M  V30 3133 C 296.757 -2.95317 -2.06058 0
M  V30 3134 C 296.61 -4.3021 -1.31298 0
M  V30 3135 C 297.929 -3.16193 -3.06121 0
M  V30 3136 H 295.048 -0.618799 -0.400321 0
M  V30 3137 H 297.69 -1.86052 -0.385318 0
M  V30 3138 H 295.84 -2.81809 -2.67425 0
M  V30 3139 H 297.512 -4.55538 -0.726807 0
M  V30 3140 H 295.755 -4.29421 -0.614853 0
M  V30 3141 H 296.426 -5.14 -2.01265 0
M  V30 3142 H 298.902 -3.28916 -2.5486 0
M  V30 3143 H 297.778 -4.05266 -3.70204 0
M  V30 3144 H 298.039 -2.31676 -3.76535 0
M  V30 3145 N 297.098 0.621204 -1.44841 0
M  V30 3146 C 298.008 1.7612 -1.5498 0
M  V30 3147 C 299.024 1.68477 -0.434927 0
M  V30 3148 O 300.2 1.89076 -0.693693 0
M  V30 3149 C 297.265 3.1254 -1.50065 0
M  V30 3150 C 296.326 3.31741 -2.72482 0
M  V30 3151 C 295.559 4.61653 -2.67792 0
M  V30 3152 O 295.782 5.431 -1.74352 0
M  V30 3153 O 294.716 4.83271 -3.58794 0
M  V30 3154 H 298.542 1.70518 -2.51311 0
M  V30 3155 H 296.127 0.783643 -1.27198 0
M  V30 3156 H 298.009 3.93844 -1.49882 0
M  V30 3157 H 296.684 3.18663 -0.568806 0
M  V30 3158 H 295.591 2.50077 -2.7823 0
M  V30 3159 H 296.924 3.30486 -3.64746 0
M  V30 3160 N 298.576 1.31904 0.862503 0
M  V30 3161 C 299.523 1.20182 1.9704 0
M  V30 3162 C 300.493 0.0858247 1.65878 0
M  V30 3163 O 301.678 0.26 1.8902 0
M  V30 3164 C 298.818 0.922797 3.32533 0
M  V30 3165 C 297.931 2.12284 3.76244 0
M  V30 3166 C 297.066 1.77996 5.00491 0
M  V30 3167 C 296.105 2.94366 5.36671 0
M  V30 3168 N 295.242 2.60223 6.52095 0
M  V30 3169 H 300.082 2.14951 2.06398 0
M  V30 3170 H 297.619 1.06917 1.01031 0
M  V30 3171 H 299.577 0.741548 4.10557 0
M  V30 3172 H 298.207 0.0119227 3.22798 0
M  V30 3173 H 297.259 2.41461 2.9394 0
M  V30 3174 H 298.571 2.99357 3.98982 0
M  V30 3175 H 297.725 1.56377 5.862 0
M  V30 3176 H 296.464 0.881252 4.79672 0
M  V30 3177 H 295.469 3.16625 4.49476 0
M  V30 3178 H 296.694 3.84957 5.59451 0
M  V30 3179 H 294.64 1.72884 6.32809 0
M  V30 3180 H 294.557 3.40827 6.74814 0
M  V30 3181 H 295.825 2.42016 7.40978 0
M  V30 3182 N 300.054 -1.07777 1.14986 0
M  V30 3183 C 301.303 -1.79669 0.916617 0
M  V30 3184 C 301.616 -1.87474 -0.557917 0
M  V30 3185 O 302.822 -2.55845 -0.908617 0
M  V30 3186 C 301.278 -3.22848 1.59051 0
M  V30 3187 C 300.886 -3.23257 3.10176 0
M  V30 3188 C 302.63 -3.99379 1.43864 0
M  V30 3189 C 300.537 -4.61063 3.70372 0
M  V30 3190 H 299.467 -0.673349 0.33929 0
M  V30 3191 H 302.118 -1.21003 1.37951 0
M  V30 3192 H 300.5 -3.8168 1.0553 0
M  V30 3193 H 301.674 -2.74095 3.70417 0
M  V30 3194 H 299.989 -2.60222 3.25074 0
M  V30 3195 H 302.586 -5.0122 1.86232 0
M  V30 3196 H 302.929 -4.14511 0.385564 0
M  V30 3197 H 303.462 -3.47032 1.94457 0
M  V30 3198 H 300.201 -4.51135 4.7556 0
M  V30 3199 H 299.721 -5.1048 3.14913 0
M  V30 3200 H 301.4 -5.30034 3.71043 0
M  V30 3201 N 301.532 -0.945985 -1.26051 0
M  V30 3202 C 302.943 -0.638096 -1.75457 0
M  V30 3203 C 303.294 0.846672 -1.76991 0
M  V30 3204 O 302.419 1.66262 -1.38513 0
M  V30 3205 C 303.014 -1.15157 -3.18629 0
M  V30 3206 C 301.573 -0.894004 -3.65629 0
M  V30 3207 C 300.72 -1.29967 -2.44957 0
M  V30 3208 H 303.671 -1.12376 -1.1206 0
M  V30 3209 H 303.692 -0.507615 -3.77099 0
M  V30 3210 H 303.204 -2.23222 -3.1748 0
M  V30 3211 H 301.305 0.172057 -3.72203 0
M  V30 3212 H 301.418 -1.52439 -4.54202 0
M  V30 3213 H 299.782 -0.718078 -2.44368 0
M  V30 3214 H 300.565 -2.38935 -2.46505 0
M  V30 3215 N 303.011 1.40521 -0.713556 0
M  V30 3216 C 304.259 2.00527 -0.251692 0
M  V30 3217 C 304.58 1.56857 1.15848 0
M  V30 3218 O 303.85 0.807127 1.785 0
M  V30 3219 H 302.43 0.741551 -0.0900646 0
M  V30 3220 H 305.092 1.71887 -0.918733 0
M  V30 3221 H 304.188 3.10813 -0.283192 0
M  V30 3222 N 304.489 0.459591 1.5075 0
M  V30 3223 C 305.737 -0.0991532 2.01857 0
M  V30 3224 C 306.058 -1.41247 1.34441 0
M  V30 3225 O 305.328 -1.89775 0.486022 0
M  V30 3226 H 303.908 -0.039633 0.745948 0
M  V30 3227 H 306.57 0.607387 1.85194 0
M  V30 3228 H 305.666 -0.258998 3.11023 0
M  V30 3229 N 305.967 -1.56429 0.191757 0
M  V30 3230 C 307.216 -1.9666 -0.448088 0
M  V30 3231 C 307.529 -1.08136 -1.62991 0
M  V30 3232 O 308.735 -1.38135 -2.33733 0
M  V30 3233 C 307.191 -3.49753 -0.848585 0
M  V30 3234 C 306.799 -4.46935 0.308764 0
M  V30 3235 C 308.543 -3.9876 -1.4557 0
M  V30 3236 C 306.45 -5.91293 -0.112506 0
M  V30 3237 H 305.38 -0.734312 -0.171179 0
M  V30 3238 H 308.031 -1.81301 0.283242 0
M  V30 3239 H 306.413 -3.60604 -1.63649 0
M  V30 3240 H 307.587 -4.47813 1.08627 0
M  V30 3241 H 305.902 -4.08102 0.827158 0
M  V30 3242 H 308.499 -5.04086 -1.78328 0
M  V30 3243 H 308.842 -3.42875 -2.36099 0
M  V30 3244 H 309.375 -3.9101 -0.731836 0
M  V30 3245 H 306.114 -6.51097 0.758514 0
M  V30 3246 H 305.634 -5.93676 -0.854941 0
M  V30 3247 H 307.313 -6.44663 -0.549448 0
M  V30 3248 N 307.445 0.0818655 -1.57387 0
M  V30 3249 C 308.694 0.781681 -1.85937 0
M  V30 3250 C 309.007 1.79246 -0.782957 0
M  V30 3251 O 310.213 2.54112 -0.955987 0
M  V30 3252 C 308.669 1.44109 -3.29789 0
M  V30 3253 C 308.277 0.469396 -4.45534 0
M  V30 3254 C 310.021 2.12386 -3.67549 0
M  V30 3255 C 307.928 1.13415 -5.80423 0
M  V30 3256 H 306.858 0.295682 -0.693605 0
M  V30 3257 H 309.509 0.0348051 -1.83467 0
M  V30 3258 H 307.891 2.23588 -3.2684 0
M  V30 3259 H 309.065 -0.294856 -4.59856 0
M  V30 3260 H 307.38 -0.108383 -4.16259 0
M  V30 3261 H 309.977 2.62878 -4.65617 0
M  V30 3262 H 310.32 2.91877 -2.96839 0
M  V30 3263 H 310.853 1.39751 -3.72444 0
M  V30 3264 H 307.592 0.379771 -6.54399 0
M  V30 3265 H 307.112 1.8695 -5.69921 0
M  V30 3266 H 308.791 1.65686 -6.25426 0
M  V30 3267 N 308.923 1.53595 0.353017 0
M  V30 3268 C 309.833 1.83897 1.45667 0
M  V30 3269 C 310.849 0.728334 1.58023 0
M  V30 3270 O 312.025 1.01968 1.73679 0
M  V30 3271 C 309.09 2.03383 2.80778 0
M  V30 3272 C 308.151 3.27262 2.77845 0
M  V30 3273 C 307.384 3.45809 4.06512 0
M  V30 3274 O 307.607 2.68387 5.03314 0
M  V30 3275 O 306.541 4.39207 4.11559 0
M  V30 3276 H 310.367 2.77686 1.2298 0
M  V30 3277 H 307.952 1.39132 0.544308 0
M  V30 3278 H 309.834 2.17698 3.60812 0
M  V30 3279 H 308.509 1.12783 3.03417 0
M  V30 3280 H 307.416 3.18359 1.96465 0
M  V30 3281 H 308.749 4.17824 2.60161 0
M  V30 3282 N 310.401 -0.613514 1.45168 0
M  V30 3283 C 311.678 -1.37263 1.39349 0
M  V30 3284 C 312.058 -2.11012 0.0610848 0
M  V30 3285 O 311.406 -2.07502 -0.956825 0
M  V30 3286 C 311.616 -2.3244 2.60332 0
M  V30 3287 C 312.964 -2.9523 3.05163 0
M  V30 3288 O 313.988 -2.42762 2.60663 0
M  V30 3289 O 312.847 -3.90454 3.82372 0
M  V30 3290 H 309.941 -0.615188 0.552696 0
M  V30 3291 H 312.487 -0.637097 1.57287 0
M  V30 3292 H 311.259 -1.77164 3.48896 0
M  V30 3293 H 310.882 -3.13383 2.44698 0
M  V30 3294 N 311.879 -1.3236 -0.855495 0
M  V30 3295 C 313.104 -1.2601 -1.64731 0
M  V30 3296 C 313.529 0.169068 -1.87339 0
M  V30 3297 O 312.887 1.12016 -1.42556 0
M  V30 3298 C 312.935 -2.02417 -2.98429 0
M  V30 3299 O 312.039 -1.3714 -3.8893 0
M  V30 3300 H 311.38 -0.434325 -0.502253 0
M  V30 3301 H 313.91 -1.74661 -1.06558 0
M  V30 3302 H 313.92 -2.12559 -3.48257 0
M  V30 3303 H 312.595 -3.06343 -2.81295 0
M  V30 3304 H 311.172 -1.3554 -3.47395 0
M  V30 3305 N 313.357 1.07166 -1.15556 0
M  V30 3306 C 314.597 1.81391 -0.94216 0
M  V30 3307 C 314.961 1.84788 0.521272 0
M  V30 3308 O 316.162 2.54904 0.85307 0
M  V30 3309 C 314.433 3.22431 -1.54185 0
M  V30 3310 S 315.992 4.13379 -1.47183 0
M  V30 3311 H 312.81 0.624963 -0.339031 0
M  V30 3312 H 315.412 1.28725 -1.4714 0
M  V30 3313 H 314.116 3.17548 -2.59984 0
M  V30 3314 H 313.647 3.80172 -1.01156 0
M  V30 3315 H 315.662 4.94007 -0.466004 0
M  V30 3316 N 314.835 0.952656 1.25548 0
M  V30 3317 C 316.081 0.607272 1.93494 0
M  V30 3318 C 316.414 -0.853245 1.74452 0
M  V30 3319 O 315.689 -1.61194 1.08843 0
M  V30 3320 C 315.972 0.96435 3.46947 0
M  V30 3321 C 315.825 2.48045 3.75225 0
M  V30 3322 C 317.144 0.487987 4.37386 0
M  V30 3323 H 314.263 0.222096 0.702739 0
M  V30 3324 H 316.905 1.18895 1.48203 0
M  V30 3325 H 315.055 0.469361 3.85654 0
M  V30 3326 H 316.727 3.04905 3.46166 0
M  V30 3327 H 314.97 2.919 3.209 0
M  V30 3328 H 315.641 2.6808 4.82532 0
M  V30 3329 H 318.117 0.912558 4.0597 0
M  V30 3330 H 316.993 0.766547 5.43521 0
M  V30 3331 H 317.254 -0.612063 4.37843 0
M  V30 3332 N 316.313 -1.40141 0.720998 0
M  V30 3333 C 317.243 -2.33339 0.0867621 0
M  V30 3334 C 318.224 -1.53178 -0.739622 0
M  V30 3335 O 319.409 -1.81625 -0.687449 0
M  V30 3336 C 316.539 -3.37194 -0.831728 0
M  V30 3337 C 315.493 -4.27857 -0.110558 0
M  V30 3338 C 314.819 -5.22294 -1.14513 0
M  V30 3339 C 316.119 -5.11872 1.0385 0
M  V30 3340 H 317.813 -2.86626 0.865219 0
M  V30 3341 H 315.359 -1.37814 0.417516 0
M  V30 3342 H 317.312 -4.01335 -1.28485 0
M  V30 3343 H 316.036 -2.82314 -1.64214 0
M  V30 3344 H 314.695 -3.65176 0.322797 0
M  V30 3345 H 314.343 -4.63717 -1.94874 0
M  V30 3346 H 314.043 -5.83797 -0.667446 0
M  V30 3347 H 315.567 -5.89312 -1.59824 0
M  V30 3348 H 316.981 -5.69436 0.664482 0
M  V30 3349 H 315.378 -5.82445 1.4449 0
M  V30 3350 H 316.448 -4.4753 1.86668 0
M  V30 3351 N 317.792 -0.46758 -1.50504 0
M  V30 3352 C 319.208 -0.121533 -1.59137 0
M  V30 3353 C 319.408 1.3717 -1.47603 0
M  V30 3354 O 318.464 2.14464 -1.33272 0
M  V30 3355 C 319.777 -0.6686 -2.93173 0
M  V30 3356 C 321.325 -0.631716 -3.06559 0
M  V30 3357 C 321.8 -1.15627 -4.43164 0
M  V30 3358 N 323.291 -1.11553 -4.49567 0
M  V30 3359 C 324.026 -1.49195 -5.5365 0
M  V30 3360 N 323.522 -1.94269 -6.65005 0
M  V30 3361 N 325.315 -1.4082 -5.44175 0
M  V30 3362 H 317.466 -1.4388 -1.56245 0
M  V30 3363 H 319.729 -0.594784 -0.738198 0
M  V30 3364 H 319.435 -1.71453 -3.07078 0
M  V30 3365 H 319.309 -0.11021 -3.77039 0
M  V30 3366 H 321.696 0.405297 -2.92304 0
M  V30 3367 H 321.777 -1.22687 -2.24458 0
M  V30 3368 H 321.421 -2.1919 -4.58168 0
M  V30 3369 H 321.351 -0.537365 -5.23851 0
M  V30 3370 H 323.842 -0.784895 -3.69659 0
M  V30 3371 H 324.155 -2.21148 -7.40482 0
M  V30 3372 H 322.5 -1.98219 -6.66134 0
M  V30 3373 H 325.691 -1.0545 -4.56068 0
M  V30 3374 H 325.864 -1.70481 -6.25172 0
M  V30 3375 N 319.27 1.56325 -0.20005 0
M  V30 3376 C 320.518 1.97329 0.436547 0
M  V30 3377 C 320.839 1.08826 1.61808 0
M  V30 3378 O 320.109 0.160604 1.95241 0
M  V30 3379 H 318.689 0.728714 0.164272 0
M  V30 3380 H 321.351 1.92761 -0.287937 0
M  V30 3381 H 320.447 3.02264 0.777353 0
M  V30 3382 N 320.748 -0.0735177 1.57428 0
M  V30 3383 C 321.994 -0.774145 1.87443 0
M  V30 3384 C 322.327 -1.77311 0.792103 0
M  V30 3385 O 321.602 -1.93492 -0.197793 0
M  V30 3386 C 321.885 -1.48367 3.28115 0
M  V30 3387 C 321.738 -0.501227 4.46999 0
M  V30 3388 C 323.057 -2.429 3.66998 0
M  V30 3389 H 320.176 -0.279971 0.681752 0
M  V30 3390 H 322.818 -0.0373616 1.89963 0
M  V30 3391 H 320.968 -2.11171 3.26097 0
M  V30 3392 H 322.64 0.121468 4.6114 0
M  V30 3393 H 320.883 0.183593 4.33411 0
M  V30 3394 H 321.554 -1.03526 5.42205 0
M  V30 3395 H 324.03 -1.90175 3.70098 0
M  V30 3396 H 322.906 -2.89549 4.66318 0
M  V30 3397 H 323.167 -3.27628 2.96837 0
M  V30 3398 N 322.226 -1.5378 -0.344866 0
M  V30 3399 C 323.159 -1.7649 -1.4466 0
M  V30 3400 C 324.137 -0.613954 -1.50563 0
M  V30 3401 O 325.321 -0.84896 -1.683 0
M  V30 3402 C 322.448 -1.86235 -2.82903 0
M  V30 3403 C 321.494 -3.08375 -2.94631 0
M  V30 3404 S 322.327 -4.67457 -2.61236 0
M  V30 3405 C 323.483 -4.80079 -4.0159 0
M  V30 3406 H 323.716 -2.69661 -1.2518 0
M  V30 3407 H 321.249 -1.44632 -0.540455 0
M  V30 3408 H 323.207 -1.92535 -3.62547 0
M  V30 3409 H 321.868 -0.940786 -2.9968 0
M  V30 3410 H 321.061 -3.11865 -3.95925 0
M  V30 3411 H 320.663 -3.00294 -2.22934 0
M  V30 3412 H 322.955 -4.61407 -4.96094 0
M  V30 3413 H 323.898 -5.82168 -4.03095 0
M  V30 3414 H 324.306 -4.08544 -3.89554 0
M  V30 3415 N 323.704 0.605807 -1.45491 0
M  V30 3416 C 324.953 1.36086 -1.48874 0
M  V30 3417 C 325.266 1.95131 -0.135333 0
M  V30 3418 O 326.472 2.7146 -0.0468144 0
M  V30 3419 C 324.928 2.46518 -2.62215 0
M  V30 3420 C 324.536 1.93877 -4.03876 0
M  V30 3421 C 326.28 3.23512 -2.74846 0
M  V30 3422 C 324.187 3.01801 -5.08596 0
M  V30 3423 H 323.117 0.511497 -0.553974 0
M  V30 3424 H 325.768 0.649089 -1.71636 0
M  V30 3425 H 324.15 3.20388 -2.32739 0
M  V30 3426 H 325.324 1.26704 -4.43038 0
M  V30 3427 H 323.639 1.29622 -3.95711 0
M  V30 3428 H 326.236 4.04013 -3.50253 0
M  V30 3429 H 326.579 3.74631 -1.81542 0
M  V30 3430 H 327.112 2.56742 -3.03856 0
M  V30 3431 H 323.851 2.55597 -6.03614 0
M  V30 3432 H 323.371 3.67535 -4.74002 0
M  V30 3433 H 325.05 3.66152 -5.33424 0
M  V30 3434 N 325.182 1.32811 0.848464 0
M  V30 3435 C 326.13 1.22231 1.97895 0
M  V30 3436 C 327.124 0.125749 1.68933 0
M  V30 3437 O 328.33 0.289083 1.77663 0
M  V30 3438 H 324.705 0.379058 0.649476 0
M  V30 3439 H 326.676 2.17828 2.03945 0
M  V30 3440 C 325.425 0.968572 3.33937 0
M  V30 3441 H 324.748 1.80458 3.56756 0
M  V30 3442 H 326.188 0.934808 4.13567 0
M  V30 3443 C 324.647 -0.328628 3.35293 0
M  V30 3444 O 325.177 -1.33848 3.78745 0
M  V30 3445 N 323.383 -0.352788 2.88451 0
M  V30 3446 H 322.93 0.469541 2.53285 0
M  V30 3447 H 322.888 -1.22057 2.89741 0
M  V30 3448 N 326.66 -1.06551 1.16123 0
M  V30 3449 C 327.607 -2.13961 0.865414 0
M  V30 3450 C 328.577 -1.65066 -0.185055 0
M  V30 3451 O 329.762 -1.90732 -0.05083 0
M  V30 3452 C 326.902 -3.43113 0.369776 0
M  V30 3453 C 326.015 -4.05756 1.48276 0
M  V30 3454 C 325.15 -5.22773 0.942414 0
M  V30 3455 C 324.189 -5.77395 2.03179 0
M  V30 3456 N 323.326 -6.85731 1.50721 0
M  V30 3457 H 328.166 -2.38605 1.78527 0
M  V30 3458 H 325.703 -1.17072 0.890646 0
M  V30 3459 H 327.661 -4.17151 0.0640643 0
M  V30 3460 H 326.291 -3.18695 -0.513143 0
M  V30 3461 H 325.343 -3.29292 1.9045 0
M  V30 3462 H 326.655 -4.42351 2.30493 0
M  V30 3463 H 325.809 -6.03827 0.589729 0
M  V30 3464 H 324.548 -4.87618 0.0895191 0
M  V30 3465 H 323.553 -4.94981 2.3932 0
M  V30 3466 H 324.778 -6.14603 2.8886 0
M  V30 3467 H 322.724 -6.52499 0.676811 0
M  V30 3468 H 322.641 -7.21254 2.26557 0
M  V30 3469 H 323.909 -7.7047 1.18303 0
M  V30 3470 N 328.138 -0.959301 -1.25041 0
M  V30 3471 C 329.415 -0.533805 -1.88175 0
M  V30 3472 C 329.795 0.988994 -1.865 0
M  V30 3473 O 329.143 1.85677 -1.33177 0
M  V30 3474 C 329.353 -1.11575 -3.30684 0
M  V30 3475 C 330.701 -1.19548 -4.07423 0
M  V30 3476 O 331.725 -1.06765 -3.39823 0
M  V30 3477 O 330.584 -1.39656 -5.28354 0
M  V30 3478 H 327.678 -0.176772 -0.807887 0
M  V30 3479 H 330.224 -1.05303 -1.33076 0
M  V30 3480 H 328.996 -2.15884 -3.26358 0
M  V30 3481 H 328.619 -0.580059 -3.93346 0
M  V30 3482 N 329.616 1.39756 -0.72842 0
M  V30 3483 C 330.862 2.00942 -0.273892 0
M  V30 3484 C 331.195 1.57656 1.13394 0
M  V30 3485 O 330.47 0.802434 1.77176 0
M  V30 3486 C 330.753 3.58211 -0.368346 0
M  V30 3487 C 330.606 4.11534 -1.81548 0
M  V30 3488 C 331.925 4.39372 0.253054 0
M  V30 3489 H 329.044 0.730047 -0.100996 0
M  V30 3490 H 331.686 1.66056 -0.923337 0
M  V30 3491 H 329.836 3.88061 0.184588 0
M  V30 3492 H 331.508 3.92431 -2.42478 0
M  V30 3493 H 329.751 3.65341 -2.33898 0
M  V30 3494 H 330.422 5.20682 -1.83288 0
M  V30 3495 H 332.898 4.15527 -0.218224 0
M  V30 3496 H 331.774 5.48677 0.156585 0
M  V30 3497 H 332.035 4.21358 1.33826 0
M  V30 3498 N 331.094 0.475555 1.50254 0
M  V30 3499 C 332.322 -0.0754493 2.06762 0
M  V30 3500 C 332.737 -1.33111 1.33891 0
M  V30 3501 O 332.094 -1.77846 0.40952 0
M  V30 3502 C 332.145 -0.359008 3.59713 0
M  V30 3503 O 331.866 0.846851 4.29837 0
M  V30 3504 C 333.367 -0.956484 4.32858 0
M  V30 3505 H 330.587 0.00907525 0.670939 0
M  V30 3506 H 333.131 0.665618 1.93364 0
M  V30 3507 H 331.286 -1.05001 3.72899 0
M  V30 3508 H 331.7 0.594162 5.21124 0
M  V30 3509 H 333.174 -1.10463 5.40834 0
M  V30 3510 H 333.651 -1.94775 3.93649 0
M  V30 3511 H 334.257 -0.303723 4.24214 0
M  V30 3512 N 332.573 -1.56217 0.208337 0
M  V30 3513 C 333.523 -2.16324 -0.720281 0
M  V30 3514 C 334.507 -1.10775 -1.16695 0
M  V30 3515 O 335.699 -1.36801 -1.12314 0
M  V30 3516 C 332.828 -2.83644 -1.93393 0
M  V30 3517 C 331.914 -3.96401 -1.50755 0
M  V30 3518 N 332.305 -4.99546 -0.792937 0
M  V30 3519 C 330.603 -4.08246 -1.79585 0
M  V30 3520 C 331.304 -5.78828 -0.577364 0
M  V30 3521 N 330.28 -5.31723 -1.1301 0
M  V30 3522 H 334.082 -2.93432 -0.165725 0
M  V30 3523 H 331.596 -1.62397 0.00906463 0
M  V30 3524 H 333.593 -3.25107 -2.60981 0
M  V30 3525 H 332.253 -2.08027 -2.49308 0
M  V30 3526 H 333.264 -5.15967 -0.447004 0
M  V30 3527 H 329.941 -3.4377 -2.36915 0
M  V30 3528 H 331.331 -6.71899 -0.00952956 0
M  V30 3529 N 334.051 0.0651679 -1.57465 0
M  V30 3530 C 335.462 0.616213 -1.76238 0
M  V30 3531 C 335.813 1.7756 -0.834689 0
M  V30 3532 O 334.938 2.1639 -0.0204156 0
M  V30 3533 C 335.533 1.12462 -3.1959 0
M  V30 3534 C 334.092 1.62147 -3.39684 0
M  V30 3535 C 333.239 0.543739 -2.71917 0
M  V30 3536 H 336.19 -0.161022 -1.57881 0
M  V30 3537 H 336.211 1.99324 -3.24114 0
M  V30 3538 H 335.723 0.280592 -3.87084 0
M  V30 3539 H 333.824 2.48854 -2.77313 0
M  V30 3540 H 333.937 1.69385 -4.48158 0
M  V30 3541 H 332.301 0.990352 -2.34657 0
M  V30 3542 H 333.084 -0.290216 -3.42071 0
M  V30 3543 N 335.529 1.53961 0.336706 0
M  V30 3544 C 336.945 1.44378 0.680241 0
M  V30 3545 C 337.145 0.606034 1.9217 0
M  V30 3546 O 336.201 0.099688 2.52303 0
M  V30 3547 C 337.514 2.87945 0.8665 0
M  V30 3548 C 339.062 2.97763 0.964682 0
M  V30 3549 C 339.537 4.42453 1.18321 0
M  V30 3550 N 341.028 4.46008 1.25025 0
M  V30 3551 C 341.763 5.55102 1.43697 0
M  V30 3552 N 341.259 6.7419 1.59498 0
M  V30 3553 N 343.052 5.42727 1.463 0
M  V30 3554 H 335.203 2.06918 -0.479455 0
M  V30 3555 H 337.466 0.935634 -0.152619 0
M  V30 3556 H 337.172 3.51691 0.0256937 0
M  V30 3557 H 337.046 3.33293 1.76623 0
M  V30 3558 H 339.433 2.34153 1.796 0
M  V30 3559 H 339.514 2.55766 0.041708 0
M  V30 3560 H 339.158 5.06645 0.356788 0
M  V30 3561 H 339.088 4.82048 2.11985 0
M  V30 3562 H 341.579 3.60196 1.14312 0
M  V30 3563 H 341.892 7.53095 1.734 0
M  V30 3564 H 340.237 6.77123 1.56621 0
M  V30 3565 H 343.428 4.48647 1.33543 0
M  V30 3566 H 343.601 6.27806 1.6051 0
M  V30 3567 N 337.007 -0.598083 1.45811 0
M  V30 3568 C 337.94 -1.7223 1.49706 0
M  V30 3569 C 338.918 -1.58732 0.352535 0
M  V30 3570 O 340.102 -1.80162 0.554438 0
M  V30 3571 C 337.229 -3.10148 1.3611 0
M  V30 3572 C 336.275 -3.42209 2.54549 0
M  V30 3573 S 337.108 -3.35989 4.16979 0
M  V30 3574 C 338.264 -4.76471 4.05865 0
M  V30 3575 H 338.497 -1.68665 2.44826 0
M  V30 3576 H 336.03 -0.775541 1.33509 0
M  V30 3577 H 337.988 -3.8972 1.28953 0
M  V30 3578 H 336.649 -3.11219 0.424451 0
M  V30 3579 H 335.842 -4.42652 2.40988 0
M  V30 3580 H 335.444 -2.70173 2.58617 0
M  V30 3581 H 337.736 -5.665 3.71596 0
M  V30 3582 H 338.679 -4.95089 5.06253 0
M  V30 3583 H 339.087 -4.52599 3.37364 0
M  V30 3584 N 338.485 -1.33259 -0.841409 0
M  V30 3585 C 339.901 -1.12538 -1.13169 0
M  V30 3586 C 340.101 0.0854037 -2.01319 0
M  V30 3587 O 339.157 0.766417 -2.40587 0
M  V30 3588 C 340.47 -2.41156 -1.79623 0
M  V30 3589 C 342.018 -2.47038 -1.922 0
M  V30 3590 C 342.493 -3.7561 -2.6207 0
M  V30 3591 N 343.984 -3.76667 -2.69585 0
M  V30 3592 C 344.719 -4.72861 -3.2433 0
M  V30 3593 N 344.215 -5.79428 -3.79783 0
M  V30 3594 N 346.008 -4.6034 -3.22558 0
M  V30 3595 H 338.159 -2.10868 -0.254676 0
M  V30 3596 H 340.422 -0.931615 -0.175493 0
M  V30 3597 H 340.128 -3.29747 -1.22311 0
M  V30 3598 H 340.002 -2.53114 -2.79666 0
M  V30 3599 H 342.389 -1.58898 -2.48667 0
M  V30 3600 H 342.47 -2.39022 -0.911148 0
M  V30 3601 H 342.114 -4.64131 -2.06263 0
M  V30 3602 H 342.044 -3.80902 -3.63622 0
M  V30 3603 H 344.535 -2.99648 -2.30259 0
M  V30 3604 H 344.848 -6.48867 -4.19752 0
M  V30 3605 H 343.193 -5.83166 -3.78078 0
M  V30 3606 H 346.384 -3.76244 -2.78492 0
M  V30 3607 H 346.557 -5.35478 -3.64921 0
M  V30 3608 N 339.963 1.05934 -1.16686 0
M  V30 3609 C 341.379 1.30938 -0.912542 0
M  V30 3610 C 341.579 1.96803 0.432533 0
M  V30 3611 O 340.635 2.23693 1.17123 0
M  V30 3612 C 341.948 2.18649 -2.06429 0
M  V30 3613 C 343.496 2.32055 -2.10047 0
M  V30 3614 C 343.971 3.23122 -3.24586 0
M  V30 3615 N 345.462 3.30706 -3.24327 0
M  V30 3616 C 346.197 4.01273 -4.09594 0
M  V30 3617 N 345.693 4.74332 -5.04956 0
M  V30 3618 N 347.486 3.97361 -3.97569 0
M  V30 3619 H 339.637 0.615777 -2.03278 0
M  V30 3620 H 341.9 0.334077 -0.887185 0
M  V30 3621 H 341.606 1.77534 -3.03603 0
M  V30 3622 H 341.48 3.19252 -2.00894 0
M  V30 3623 H 343.867 2.72415 -1.13464 0
M  V30 3624 H 343.948 1.31107 -2.19647 0
M  V30 3625 H 343.592 2.83477 -4.2143 0
M  V30 3626 H 343.522 4.24057 -3.12223 0
M  V30 3627 H 346.013 2.78644 -2.55276 0
M  V30 3628 H 346.326 5.25716 -5.6643 0
M  V30 3629 H 344.671 4.733 -5.08933 0
M  V30 3630 H 347.862 3.39405 -3.22369 0
M  V30 3631 H 348.035 4.52089 -4.64241 0
M  V30 3632 N 341.441 0.965919 1.2453 0
M  V30 3633 C 342.671 0.643451 1.96324 0
M  V30 3634 C 343.079 -0.790927 1.71875 0
M  V30 3635 O 342.422 -1.54208 0.998273 0
M  V30 3636 C 342.484 0.836078 3.49643 0
M  V30 3637 C 342.148 2.24975 3.97788 0
M  V30 3638 C 343.145 3.22735 4.07601 0
M  V30 3639 C 340.83 2.57697 4.31158 0
M  V30 3640 C 342.824 4.51303 4.50116 0
M  V30 3641 C 340.511 3.86492 4.73357 0
M  V30 3642 C 341.509 4.83107 4.828 0
M  V30 3643 O 341.197 6.09605 5.24058 0
M  V30 3644 H 340.929 0.239223 0.632257 0
M  V30 3645 H 343.483 1.29587 1.59362 0
M  V30 3646 H 341.713 0.12649 3.86493 0
M  V30 3647 H 343.402 0.512965 4.02646 0
M  V30 3648 H 344.168 2.98783 3.82039 0
M  V30 3649 H 340.047 1.83216 4.23028 0
M  V30 3650 H 343.591 5.26716 4.57401 0
M  V30 3651 H 339.488 4.10245 4.98366 0
M  V30 3652 H 340.256 6.13146 5.42213 0
M  V30 3653 N 342.919 -1.39368 0.735821 0
M  V30 3654 C 344.168 -1.99733 0.281004 0
M  V30 3655 C 344.481 -1.59055 -1.13846 0
M  V30 3656 O 345.687 -2.12262 -1.69284 0
M  V30 3657 C 344.143 -3.57057 0.451462 0
M  V30 3658 C 343.751 -4.06697 1.87886 0
M  V30 3659 C 345.495 -4.2446 0.0584616 0
M  V30 3660 C 343.402 -5.56598 1.99883 0
M  V30 3661 H 342.332 -0.747163 0.101311 0
M  V30 3662 H 344.983 -1.59357 0.909819 0
M  V30 3663 H 343.365 -3.95234 -0.246263 0
M  V30 3664 H 344.539 -3.79853 2.60861 0
M  V30 3665 H 342.854 -3.5196 2.22515 0
M  V30 3666 H 345.451 -5.34549 0.127099 0
M  V30 3667 H 345.794 -4.04444 -0.986433 0
M  V30 3668 H 346.327 -3.9146 0.707374 0
M  V30 3669 H 343.066 -5.81494 3.02564 0
M  V30 3670 H 342.586 -5.85242 1.31346 0
M  V30 3671 H 344.265 -6.22022 1.78039 0
M  V30 3672 N 344.397 -0.483516 -1.5 0
M  V30 3673 C 345.344 0.304164 -2.28787 0
M  V30 3674 C 346.314 0.976114 -1.34392 0
M  V30 3675 O 347.499 0.986156 -1.63339 0
M  V30 3676 C 344.639 1.37298 -3.16612 0
M  V30 3677 C 343.752 0.714561 -4.26049 0
M  V30 3678 C 342.887 1.76232 -5.01114 0
M  V30 3679 C 341.926 1.08483 -6.0241 0
M  V30 3680 N 341.063 2.076 -6.70706 0
M  V30 3681 H 345.903 -0.373981 -2.95644 0
M  V30 3682 H 343.44 -0.196275 -1.45785 0
M  V30 3683 H 345.398 2.00445 -3.65893 0
M  V30 3684 H 344.028 2.02012 -2.51776 0
M  V30 3685 H 343.08 -0.0297798 -3.80388 0
M  V30 3686 H 344.392 0.180383 -4.98474 0
M  V30 3687 H 343.546 2.46929 -5.54176 0
M  V30 3688 H 342.285 2.33033 -4.28424 0
M  V30 3689 H 341.29 0.363545 -5.48597 0
M  V30 3690 H 342.515 0.523551 -6.77079 0
M  V30 3691 H 340.461 2.63394 -6.00799 0
M  V30 3692 H 340.378 1.59201 -7.39047 0
M  V30 3693 H 341.646 2.77639 -7.2838 0
M  V30 3694 N 345.875 1.56104 -0.216619 0
M  V30 3695 C 346.823 2.21434 0.712036 0
M  V30 3696 C 347.817 1.19218 1.20348 0
M  V30 3697 O 349.023 1.3731 1.16387 0
M  V30 3698 H 345.398 0.70992 0.248026 0
M  V30 3699 H 347.369 2.98083 0.137558 0
M  V30 3700 C 346.118 2.90434 1.91163 0
M  V30 3701 H 345.441 3.68842 1.54258 0
M  V30 3702 H 346.881 3.39552 2.5393 0
M  V30 3703 C 345.34 1.92635 2.76394 0
M  V30 3704 O 345.87 1.44017 3.74996 0
M  V30 3705 N 344.076 1.60392 2.42328 0
M  V30 3706 H 343.623 2.00122 1.622 0
M  V30 3707 H 343.581 0.952159 2.99635 0
M  V30 3708 N 347.353 -0.0568162 1.57498 0
M  V30 3709 C 348.764 -0.606858 1.76562 0
M  V30 3710 C 349.115 -1.77114 0.844094 0
M  V30 3711 O 348.24 -2.16376 0.0318911 0
M  V30 3712 C 348.835 -1.10766 3.20182 0
M  V30 3713 C 347.394 -1.60344 3.40539 0
M  V30 3714 C 346.541 -0.529311 2.72201 0
M  V30 3715 H 349.492 0.169393 1.57793 0
M  V30 3716 H 349.513 -1.97602 3.25167 0
M  V30 3717 H 349.025 -0.26006 3.87228 0
M  V30 3718 H 347.126 -2.47379 2.78629 0
M  V30 3719 H 347.239 -1.67006 4.4905 0
M  V30 3720 H 345.603 -0.977893 2.35179 0
M  V30 3721 H 346.386 0.308352 3.41912 0
M  V30 3722 N 348.832 -1.54138 -0.328536 0
M  V30 3723 C 350.248 -1.44736 -0.672574 0
M  V30 3724 C 350.448 -0.616217 -1.91846 0
M  V30 3725 O 349.504 -0.113067 -2.52247 0
M  V30 3726 C 350.817 -2.884 -0.851217 0
M  V30 3727 C 352.365 -2.98271 -0.948877 0
M  V30 3728 C 352.84 -4.43074 -1.15973 0
M  V30 3729 N 354.331 -4.46665 -1.22658 0
M  V30 3730 C 355.066 -5.55857 -1.40751 0
M  V30 3731 N 354.562 -6.75026 -1.5592 0
M  V30 3732 N 356.355 -5.43495 -1.4342 0
M  V30 3733 H 348.506 -2.06661 0.490421 0
M  V30 3734 H 350.769 -0.934812 0.157579 0
M  V30 3735 H 350.475 -3.51699 -0.00704236 0
M  V30 3736 H 350.349 -3.34225 -1.74853 0
M  V30 3737 H 352.736 -2.35102 -1.78356 0
M  V30 3738 H 352.817 -2.55785 -0.0281435 0
M  V30 3739 H 352.461 -5.06827 -0.329915 0
M  V30 3740 H 352.391 -4.83165 -2.09426 0
M  V30 3741 H 354.882 -3.60797 -1.124 0
M  V30 3742 H 355.195 -7.54004 -1.69404 0
M  V30 3743 H 353.54 -6.77944 -1.53027 0
M  V30 3744 H 356.731 -4.49349 -1.31162 0
M  V30 3745 H 356.904 -6.28649 -1.57178 0
M  V30 3746 N 350.31 0.590341 -1.46126 0
M  V30 3747 C 351.559 1.34499 -1.50309 0
M  V30 3748 C 351.872 1.94977 -0.156021 0
M  V30 3749 O 353.078 2.71395 -0.0756037 0
M  V30 3750 C 351.534 2.43723 -2.64815 0
M  V30 3751 C 351.142 1.89582 -4.0591 0
M  V30 3752 C 352.886 3.20579 -2.78262 0
M  V30 3753 C 350.793 2.9639 -5.11769 0
M  V30 3754 H 349.723 0.505593 -0.559368 0
M  V30 3755 H 352.374 0.630848 -1.72315 0
M  V30 3756 H 350.756 3.17902 -2.36124 0
M  V30 3757 H 351.93 1.21997 -4.44357 0
M  V30 3758 H 350.245 1.25418 -3.97063 0
M  V30 3759 H 352.842 4.00276 -3.54519 0
M  V30 3760 H 353.185 3.72684 -1.85505 0
M  V30 3761 H 353.718 2.53505 -3.06562 0
M  V30 3762 H 350.457 2.49181 -6.06291 0
M  V30 3763 H 349.977 3.62487 -4.77873 0
M  V30 3764 H 351.656 3.60474 -5.37278 0
M  V30 3765 N 351.788 1.33704 0.83433 0
M  V30 3766 C 353.034 1.25603 1.59222 0
M  V30 3767 C 353.367 -0.176659 1.93395 0
M  V30 3768 O 352.642 -1.11915 1.59076 0
M  V30 3769 C 352.925 2.13576 2.89926 0
M  V30 3770 C 352.778 3.65326 2.62406 0
M  V30 3771 C 354.097 2.01238 3.91397 0
M  V30 3772 H 351.216 0.457613 0.577719 0
M  V30 3773 H 353.858 1.63848 0.961972 0
M  V30 3774 H 352.008 1.8109 3.43713 0
M  V30 3775 H 353.68 4.08124 2.15017 0
M  V30 3776 H 351.923 3.8698 1.96033 0
M  V30 3777 H 352.594 4.22232 3.55562 0
M  V30 3778 H 355.07 2.29738 3.46929 0
M  V30 3779 H 353.946 2.65036 4.80673 0
M  V30 3780 H 354.207 0.985951 4.30966 0
M  V30 3781 N 353.266 -1.05314 1.17247 0
M  V30 3782 C 354.196 -2.1498 0.911362 0
M  V30 3783 C 355.177 -1.69471 -0.146169 0
M  V30 3784 O 356.362 -1.942 0.003812 0
M  V30 3785 C 353.492 -3.4472 0.422528 0
M  V30 3786 C 352.446 -4.03789 1.4191 0
M  V30 3787 C 351.772 -5.28858 0.788274 0
M  V30 3788 C 353.072 -4.41418 2.7919 0
M  V30 3789 H 354.766 -2.3708 1.82848 0
M  V30 3790 H 352.312 -1.13938 0.880569 0
M  V30 3791 H 354.265 -4.20787 0.227289 0
M  V30 3792 H 352.989 -3.22269 -0.530123 0
M  V30 3793 H 351.648 -3.2979 1.60106 0
M  V30 3794 H 351.296 -5.02709 -0.171173 0
M  V30 3795 H 350.996 -5.69338 1.45353 0
M  V30 3796 H 352.52 -6.07612 0.603282 0
M  V30 3797 H 353.934 -5.08524 2.64719 0
M  V30 3798 H 352.331 -4.92913 3.42282 0
M  V30 3799 H 353.401 -3.51819 3.33693 0
M  V30 3800 N 354.744 -0.972509 -1.24016 0
M  V30 3801 C 355.674 -0.525548 -2.27509 0
M  V30 3802 C 356.655 0.437262 -1.64384 0
M  V30 3803 O 357.84 0.332343 -1.91335 0
M  V30 3804 C 354.97 0.180448 -3.46831 0
M  V30 3805 C 353.924 -0.698859 -4.22256 0
M  V30 3806 C 353.25 0.138903 -5.3452 0
M  V30 3807 C 354.55 -1.98582 -4.83076 0
M  V30 3808 H 356.244 -1.39058 -2.65148 0
M  V30 3809 H 353.79 -0.67009 -1.27459 0
M  V30 3810 H 355.743 0.504387 -4.18371 0
M  V30 3811 H 354.467 1.07987 -3.08231 0
M  V30 3812 H 353.126 -1.00614 -3.52523 0
M  V30 3813 H 352.774 1.03862 -4.9216 0
M  V30 3814 H 352.474 -0.446259 -5.85903 0
M  V30 3815 H 353.998 0.457404 -6.08884 0
M  V30 3816 H 355.412 -1.72715 -5.46665 0
M  V30 3817 H 353.809 -2.5181 -5.44713 0
M  V30 3818 H 354.879 -2.67769 -4.04262 0
M  V30 3819 N 356.222 1.38976 -0.743202 0
M  V30 3820 C 357.499 1.94351 -0.220705 0
M  V30 3821 C 357.879 1.67935 1.2791 0
M  V30 3822 O 357.227 1.01211 2.04862 0
M  V30 3823 C 357.437 3.44426 -0.563171 0
M  V30 3824 C 358.785 4.2144 -0.517046 0
M  V30 3825 O 359.809 3.52661 -0.500846 0
M  V30 3826 O 358.668 5.44032 -0.518806 0
M  V30 3827 H 355.762 0.825879 -0.043047 0
M  V30 3828 H 358.308 1.48429 -0.822618 0
M  V30 3829 H 357.08 3.5712 -1.59941 0
M  V30 3830 H 356.703 3.97543 0.0672883 0
M  V30 3831 N 357.7 0.491464 1.49741 0
M  V30 3832 C 358.925 -0.0557177 2.07325 0
M  V30 3833 C 359.35 -1.30925 1.35056 0
M  V30 3834 O 358.708 -1.76733 0.404365 0
M  V30 3835 C 358.756 -0.302074 3.59333 0
M  V30 3836 O 357.86 -1.37868 3.88672 0
M  V30 3837 H 357.201 0.0219956 0.663636 0
M  V30 3838 H 359.731 0.688352 1.92673 0
M  V30 3839 H 359.741 -0.536464 4.04458 0
M  V30 3840 H 358.416 0.61383 4.11345 0
M  V30 3841 H 356.993 -1.12999 3.55367 0
M  V30 3842 N 359.178 -1.55987 0.224894 0
M  V30 3843 C 360.403 -2.03232 -0.41369 0
M  V30 3844 C 360.828 -1.10359 -1.52323 0
M  V30 3845 O 360.186 -0.092395 -1.81064 0
M  V30 3846 C 360.234 -3.48682 -0.919405 0
M  V30 3847 O 359.338 -3.58947 -2.03054 0
M  V30 3848 H 358.679 -0.657428 -0.0931903 0
M  V30 3849 H 361.209 -2.01679 0.34451 0
M  V30 3850 H 361.219 -3.8907 -1.22835 0
M  V30 3851 H 359.894 -4.15761 -0.107339 0
M  V30 3852 H 358.471 -3.30448 -1.72796 0
M  V30 3853 N 360.656 0.0484629 -1.57525 0
M  V30 3854 C 361.586 1.0549 -2.08313 0
M  V30 3855 C 362.567 1.38929 -0.981463 0
M  V30 3856 O 363.752 1.48151 -1.25558 0
M  V30 3857 C 360.882 2.36162 -2.54646 0
M  V30 3858 C 359.836 2.17016 -3.68901 0
M  V30 3859 C 359.162 3.53278 -4.01371 0
M  V30 3860 C 360.462 1.57219 -4.98076 0
M  V30 3861 H 362.156 0.632195 -2.92649 0
M  V30 3862 H 359.702 0.302654 -1.40784 0
M  V30 3863 H 361.655 3.06882 -2.88793 0
M  V30 3864 H 360.379 2.80456 -1.67368 0
M  V30 3865 H 359.038 1.48733 -3.35073 0
M  V30 3866 H 358.686 3.95185 -3.11188 0
M  V30 3867 H 358.386 3.41299 -4.78318 0
M  V30 3868 H 359.91 4.25391 -4.38035 0
M  V30 3869 H 361.324 2.17832 -5.30304 0
M  V30 3870 H 359.721 1.55871 -5.79503 0
M  V30 3871 H 360.791 0.535956 -4.81929 0
M  V30 3872 N 362.134 1.5431 0.320358 0
M  V30 3873 C 363.044 1.86946 1.41734 0
M  V30 3874 C 364.06 0.761689 1.56443 0
M  V30 3875 O 365.236 1.05629 1.71477 0
M  V30 3876 C 362.301 2.09293 2.76401 0
M  V30 3877 C 361.362 3.33082 2.70841 0
M  V30 3878 C 360.595 3.54353 3.99086 0
M  V30 3879 O 360.818 2.79002 4.97508 0
M  V30 3880 O 359.752 4.47838 4.0215 0
M  V30 3881 H 363.578 2.80232 1.17062 0
M  V30 3882 H 361.163 1.40255 0.514673 0
M  V30 3883 H 363.045 2.25303 3.56113 0
M  V30 3884 H 361.72 1.19194 3.00956 0
M  V30 3885 H 360.627 3.22454 1.89668 0
M  V30 3886 H 361.96 4.23249 2.5124 0
M  V30 3887 N 363.613 -0.582584 1.46437 0
M  V30 3888 C 364.843 -1.36484 1.55099 0
M  V30 3889 C 365.251 -1.88233 0.191056 0
M  V30 3890 O 364.594 -1.6429 -0.821858 0
M  V30 3891 C 364.656 -2.588 2.49525 0
M  V30 3892 C 364.32 -2.28517 3.95764 0
M  V30 3893 C 365.317 -1.87346 4.84972 0
M  V30 3894 C 363.002 -2.40658 4.40896 0
M  V30 3895 C 364.996 -1.5871 6.17325 0
M  V30 3896 C 362.683 -2.11635 5.73284 0
M  V30 3897 C 363.681 -1.70725 6.61318 0
M  V30 3898 O 363.369 -1.42057 7.91249 0
M  V30 3899 H 363.101 -0.423297 0.527063 0
M  V30 3900 H 365.655 -0.715188 1.92547 0
M  V30 3901 H 363.885 -3.26571 2.07095 0
M  V30 3902 H 365.574 -3.20868 2.48593 0
M  V30 3903 H 366.34 -1.77481 4.5136 0
M  V30 3904 H 362.219 -2.71463 3.72598 0
M  V30 3905 H 365.763 -1.26704 6.85997 0
M  V30 3906 H 361.66 -2.21124 6.06444 0
M  V30 3907 H 362.428 -1.55901 8.03515 0
M  V30 3908 N 365.091 -1.34144 -0.827227 0
M  V30 3909 C 366.038 -1.25364 -1.93785 0
M  V30 3910 C 367.008 -0.129774 -1.65592 0
M  V30 3911 O 368.193 -0.310024 -1.88264 0
M  V30 3912 C 365.333 -1.01064 -3.2997 0
M  V30 3913 C 364.446 -2.22185 -3.70484 0
M  V30 3914 C 363.581 -1.91203 -4.95595 0
M  V30 3915 C 362.62 -3.08491 -5.28677 0
M  V30 3916 N 361.757 -2.77421 -6.44967 0
M  V30 3917 H 366.597 -2.20347 -2.00627 0
M  V30 3918 H 364.134 -1.09558 -0.981608 0
M  V30 3919 H 366.092 -0.850139 -4.08446 0
M  V30 3920 H 364.722 -0.0975026 -3.22653 0
M  V30 3921 H 363.774 -2.4917 -2.87434 0
M  V30 3922 H 365.086 -3.0983 -3.90905 0
M  V30 3923 H 364.24 -1.71864 -5.81848 0
M  V30 3924 H 362.979 -1.00812 -4.77167 0
M  V30 3925 H 361.984 -3.28431 -4.40923 0
M  V30 3926 H 363.209 -3.99655 -5.49047 0
M  V30 3927 H 361.155 -1.89601 -6.28003 0
M  V30 3928 H 361.072 -3.58598 -6.6554 0
M  V30 3929 H 362.34 -2.61577 -7.34301 0
M  V30 3930 N 366.569 1.04691 -1.17803 0
M  V30 3931 C 367.516 2.12557 -0.899343 0
M  V30 3932 C 368.486 1.65339 0.158771 0
M  V30 3933 O 369.671 1.90789 0.0204797 0
M  V30 3934 C 366.811 3.42481 -0.424315 0
M  V30 3935 C 365.924 4.03346 -1.54713 0
M  V30 3936 C 365.059 5.21208 -1.02546 0
M  V30 3937 C 364.098 5.74089 -2.12339 0
M  V30 3938 N 363.235 6.83247 -1.61612 0
M  V30 3939 H 368.075 2.35734 -1.823 0
M  V30 3940 H 365.612 1.1564 -0.909159 0
M  V30 3941 H 367.57 4.16996 -0.130421 0
M  V30 3942 H 366.2 3.19471 0.462377 0
M  V30 3943 H 365.252 3.2622 -1.95664 0
M  V30 3944 H 366.564 4.38628 -2.37501 0
M  V30 3945 H 365.718 6.02812 -0.685718 0
M  V30 3946 H 364.457 4.87414 -0.167084 0
M  V30 3947 H 363.462 4.91111 -2.47165 0
M  V30 3948 H 364.687 6.0993 -2.98601 0
M  V30 3949 H 362.633 6.5134 -0.780533 0
M  V30 3950 H 362.55 7.17559 -2.38003 0
M  V30 3951 H 363.818 7.68491 -1.30545 0
M  V30 3952 N 368.047 0.979072 1.23499 0
M  V30 3953 C 369.295 0.645941 1.91499 0
M  V30 3954 C 369.616 -0.822948 1.76784 0
M  V30 3955 O 368.886 -1.58854 1.14639 0
M  V30 3956 H 367.466 0.235919 0.708767 0
M  V30 3957 H 370.128 1.2426 1.50152 0
M  V30 3958 H 369.224 0.896411 2.9895 0
M  V30 3959 N 369.525 -1.3858 0.750561 0
M  V30 3960 C 370.435 -2.34278 0.122825 0
M  V30 3961 C 371.451 -1.59116 -0.704131 0
M  V30 3962 O 372.627 -1.91326 -0.628987 0
M  V30 3963 C 369.692 -3.38221 -0.762086 0
M  V30 3964 C 368.753 -4.29227 0.078896 0
M  V30 3965 C 367.986 -5.28205 -0.763874 0
M  V30 3966 O 368.209 -5.34112 -2.00201 0
M  V30 3967 O 367.143 -6.01618 -0.18428 0
M  V30 3968 H 370.969 -2.89649 0.913088 0
M  V30 3969 H 368.554 -1.40374 0.511417 0
M  V30 3970 H 370.436 -4.01872 -1.26793 0
M  V30 3971 H 369.111 -2.85211 -1.5309 0
M  V30 3972 H 368.018 -3.68747 0.630621 0
M  V30 3973 H 369.351 -4.85484 0.810289 0
M  V30 3974 N 371.003 -0.499398 -1.49478 0
M  V30 3975 C 372.228 0.044722 -2.07352 0
M  V30 3976 C 372.653 1.30207 -1.35749 0
M  V30 3977 O 372.011 1.76516 -0.413732 0
M  V30 3978 C 372.059 0.283013 -3.59488 0
M  V30 3979 O 371.163 1.35804 -3.89398 0
M  V30 3980 H 370.504 -0.0255147 -0.66351 0
M  V30 3981 H 373.034 -0.698561 -1.92305 0
M  V30 3982 H 373.044 0.515007 -4.04737 0
M  V30 3983 H 371.719 -0.635636 -4.11014 0
M  V30 3984 H 370.296 1.11113 -3.55961 0
M  V30 3985 N 372.481 1.55866 -0.233164 0
M  V30 3986 C 373.413 2.18099 0.704668 0
M  V30 3987 C 374.426 1.15334 1.14899 0
M  V30 3988 O 375.615 1.42262 1.07814 0
M  V30 3989 C 372.715 2.7592 1.96777 0
M  V30 3990 C 371.888 4.03969 1.67713 0
M  V30 3991 C 370.947 4.46242 2.78845 0
M  V30 3992 O 369.973 5.12903 2.46818 0
M  V30 3993 N 371.175 4.12886 4.08051 0
M  V30 3994 H 373.94 2.99205 0.172258 0
M  V30 3995 H 371.501 1.61815 -0.0525945 0
M  V30 3996 H 373.493 3.01165 2.70337 0
M  V30 3997 H 372.063 1.99051 2.41034 0
M  V30 3998 H 371.283 3.86459 0.777391 0
M  V30 3999 H 372.571 4.8748 1.4574 0
M  V30 4000 H 371.969 3.59342 4.3691 0
M  V30 4001 H 370.526 4.42997 4.78118 0
M  V30 4002 N 373.959 -0.0401083 1.57549 0
M  V30 4003 C 375.187 -0.745196 1.93014 0
M  V30 4004 C 375.602 -1.6948 0.831984 0
M  V30 4005 O 374.959 -1.81482 -0.192463 0
M  V30 4006 C 375.01 -1.51176 3.28372 0
M  V30 4007 O 374.731 -0.600284 4.33968 0
M  V30 4008 C 376.232 -2.315 3.78051 0
M  V30 4009 H 373.452 -0.210088 0.637263 0
M  V30 4010 H 375.996 -0.000924689 2.045 0
M  V30 4011 H 374.151 -2.20801 3.18317 0
M  V30 4012 H 374.565 -1.13669 5.12035 0
M  V30 4013 H 376.039 -2.80697 4.75303 0
M  V30 4014 H 376.516 -3.12436 3.08675 0
M  V30 4015 H 377.122 -1.66971 3.91153 0
M  V30 4016 N 375.437 -1.54477 -0.31217 0
M  V30 4017 C 376.714 -1.63891 -1.06767 0
M  V30 4018 C 377.094 -0.480028 -2.0557 0
M  V30 4019 O 376.442 0.524487 -2.22399 0
M  V30 4020 C 376.652 -3.01402 -1.75948 0
M  V30 4021 C 378 -3.57838 -2.28554 0
M  V30 4022 O 379.024 -3.03782 -1.85998 0
M  V30 4023 O 377.883 -4.52462 -3.06497 0
M  V30 4024 H 374.977 -0.664125 -0.492816 0
M  V30 4025 H 377.523 -1.66823 -0.311149 0
M  V30 4026 H 376.295 -3.77187 -1.04144 0
M  V30 4027 H 375.918 -3.02199 -2.58383 0
M  V30 4028 N 376.915 0.57481 -1.46744 0
M  V30 4029 C 378.164 1.32898 -1.51727 0
M  V30 4030 C 378.477 1.948 -0.176692 0
M  V30 4031 O 379.683 2.71299 -0.104385 0
M  V30 4032 C 378.139 2.40901 -2.67385 0
M  V30 4033 C 377.747 1.85266 -4.07898 0
M  V30 4034 C 379.491 3.17609 -2.81646 0
M  V30 4035 C 377.398 2.90945 -5.14883 0
M  V30 4036 H 376.328 0.499631 -0.564699 0
M  V30 4037 H 378.979 0.612536 -1.72975 0
M  V30 4038 H 377.361 3.15379 -2.39483 0
M  V30 4039 H 378.535 1.17278 -4.45626 0
M  V30 4040 H 376.85 1.21199 -3.98371 0
M  V30 4041 H 379.447 3.96493 -3.58744 0
M  V30 4042 H 379.79 3.70696 -1.89448 0
M  V30 4043 H 380.323 2.50239 -3.09233 0
M  V30 4044 H 377.062 2.42736 -6.089 0
M  V30 4045 H 376.582 3.57398 -4.81691 0
M  V30 4046 H 378.261 3.54755 -5.41071 0
M  V30 4047 N 378.394 1.34581 0.820102 0
M  V30 4048 C 379.304 1.28471 1.96297 0
M  V30 4049 C 380.32 0.191902 1.72939 0
M  V30 4050 O 381.496 0.418879 1.96996 0
M  V30 4051 C 378.561 1.04281 3.30645 0
M  V30 4052 C 377.622 2.22745 3.66992 0
M  V30 4053 C 376.855 1.997 4.9493 0
M  V30 4054 O 377.078 0.956656 5.6232 0
M  V30 4055 O 376.012 2.86723 5.2922 0
M  V30 4056 H 379.838 2.24624 2.04396 0
M  V30 4057 H 377.423 1.14816 0.955913 0
M  V30 4058 H 379.305 0.925841 4.11104 0
M  V30 4059 H 377.98 0.111697 3.23507 0
M  V30 4060 H 376.887 2.40003 2.86966 0
M  V30 4061 H 378.22 3.14257 3.78819 0
M  V30 4062 N 379.872 -1.04064 1.18357 0
M  V30 4063 C 381.121 -1.76662 0.973313 0
M  V30 4064 C 381.434 -1.89154 -0.497991 0
M  V30 4065 O 382.64 -2.58606 -0.826762 0
M  V30 4066 C 381.096 -3.17624 1.69242 0
M  V30 4067 C 380.704 -3.13225 3.20303 0
M  V30 4068 C 382.448 -3.946 1.56497 0
M  V30 4069 C 380.355 -4.49046 3.84853 0
M  V30 4070 H 379.285 -0.662214 0.36054 0
M  V30 4071 H 381.936 -1.16553 1.41731 0
M  V30 4072 H 380.318 -3.78129 1.1762 0
M  V30 4073 H 381.492 -2.62172 3.78949 0
M  V30 4074 H 379.807 -2.49749 3.33189 0
M  V30 4075 H 382.404 -4.95042 2.02084 0
M  V30 4076 H 382.747 -4.13074 0.517243 0
M  V30 4077 H 383.28 -3.4067 2.05399 0
M  V30 4078 H 380.019 -4.35777 4.89672 0
M  V30 4079 H 379.539 -5.00203 3.30994 0
M  V30 4080 H 381.218 -5.17961 3.87718 0
M  V30 4081 N 381.35 -0.985608 -1.22978 0
M  V30 4082 C 382.578 -0.675582 -1.95559 0
M  V30 4083 C 382.993 0.758413 -1.72897 0
M  V30 4084 O 382.35 1.51094 -1.02357 0
M  V30 4085 C 382.401 -0.96293 -3.48439 0
M  V30 4086 O 382.122 -2.34057 -3.70336 0
M  V30 4087 C 383.623 -0.669585 -4.38214 0
M  V30 4088 H 380.843 -0.250523 -0.622478 0
M  V30 4089 H 383.387 -1.3184 -1.56328 0
M  V30 4090 H 381.542 -0.366033 -3.85667 0
M  V30 4091 H 381.956 -2.43424 -4.64591 0
M  V30 4092 H 383.43 -0.920967 -5.44263 0
M  V30 4093 H 383.907 0.396383 -4.37408 0
M  V30 4094 H 384.513 -1.2472 -4.06602 0
M  V30 4095 N 382.828 1.3818 -0.7579 0
M  V30 4096 C 384.244 1.5353 -0.435972 0
M  V30 4097 C 384.444 1.71961 1.05032 0
M  V30 4098 O 383.5 1.73307 1.83633 0
M  V30 4099 C 384.813 2.73989 -1.23898 0
M  V30 4100 C 386.361 2.87841 -1.22949 0
M  V30 4101 C 386.836 4.11266 -2.01554 0
M  V30 4102 N 388.327 4.18352 -1.98837 0
M  V30 4103 C 389.062 5.12856 -2.5645 0
M  V30 4104 N 388.558 6.13005 -3.22794 0
M  V30 4105 N 390.351 5.05238 -2.46356 0
M  V30 4106 H 382.502 1.24467 -1.7211 0
M  V30 4107 H 384.765 0.604982 -0.729864 0
M  V30 4108 H 384.471 2.66789 -2.29165 0
M  V30 4109 H 384.345 3.67294 -0.858764 0
M  V30 4110 H 386.732 2.9452 -0.184854 0
M  V30 4111 H 386.813 1.95534 -1.64924 0
M  V30 4112 H 386.457 4.05349 -3.06031 0
M  V30 4113 H 386.387 5.02661 -1.5697 0
M  V30 4114 H 388.878 3.46628 -1.50524 0
M  V30 4115 H 389.191 6.81619 -3.64165 0
M  V30 4116 H 387.536 6.13325 -3.2689 0
M  V30 4117 H 390.727 4.25938 -1.9415 0
M  V30 4118 H 390.9 5.78707 -2.91552 0
M  V30 4119 N 384.306 0.507319 1.49211 0
M  V30 4120 C 385.216 -0.272136 2.33016 0
M  V30 4121 C 386.232 -0.961206 1.45041 0
M  V30 4122 O 387.408 -0.941191 1.78055 0
M  V30 4123 C 384.473 -1.31895 3.20631 0
M  V30 4124 C 383.534 -0.642648 4.24463 0
M  V30 4125 C 382.767 -1.63959 5.07891 0
M  V30 4126 O 382.99 -2.87007 4.92933 0
M  V30 4127 O 381.924 -1.19143 5.8999 0
M  V30 4128 H 385.75 0.413982 3.00865 0
M  V30 4129 H 383.335 0.268556 1.46966 0
M  V30 4130 H 385.217 -1.92446 3.7489 0
M  V30 4131 H 383.892 -1.98788 2.5547 0
M  V30 4132 H 382.799 0.00276252 3.741 0
M  V30 4133 H 384.132 -0.0160534 4.92197 0
M  V30 4134 N 385.784 -1.5574 0.241426 0
M  V30 4135 C 386.694 -2.2479 -0.671305 0
M  V30 4136 C 387.71 -1.26217 -1.19772 0
M  V30 4137 O 388.886 -1.59079 -1.23514 0
M  V30 4138 C 385.951 -2.92966 -1.85396 0
M  V30 4139 C 385.012 -4.06935 -1.36756 0
M  V30 4140 C 384.245 -4.71851 -2.49384 0
M  V30 4141 O 384.468 -4.35823 -3.67987 0
M  V30 4142 O 383.402 -5.60467 -2.19454 0
M  V30 4143 H 387.228 -3.0349 -0.112966 0
M  V30 4144 H 384.813 -1.49397 0.0101513 0
M  V30 4145 H 386.695 -3.35927 -2.54423 0
M  V30 4146 H 385.37 -2.17211 -2.40002 0
M  V30 4147 H 384.277 -3.68503 -0.644726 0
M  V30 4148 H 385.61 -4.84492 -0.867647 0
M  V30 4149 N 387.262 0.0317525 -1.57568 0
M  V30 4150 C 388.539 0.758366 -1.803 0
M  V30 4151 C 388.919 1.93718 -0.838845 0
M  V30 4152 O 388.267 2.28187 0.119571 0
M  V30 4153 C 388.477 1.19392 -3.27943 0
M  V30 4154 C 389.825 1.61094 -3.92854 0
M  V30 4155 O 390.849 1.28857 -3.32076 0
M  V30 4156 O 389.708 2.20918 -4.99858 0
M  V30 4157 H 386.802 0.366514 -0.741348 0
M  V30 4158 H 389.348 0.00873765 -1.69698 0
M  V30 4159 H 388.12 0.352275 -3.89711 0
M  V30 4160 H 387.743 2.00365 -3.43424 0
M  V30 4161 N 388.74 1.54641 0.303973 0
M  V30 4162 C 389.987 1.7378 1.03955 0
M  V30 4163 C 390.315 0.521986 1.87365 0
M  V30 4164 O 389.57 -0.496099 1.89308 0
M  V30 4165 C 389.869 2.97753 1.97681 0
M  V30 4166 C 389.535 4.31671 1.30271 0
M  V30 4167 C 388.197 4.68075 1.11619 0
M  V30 4168 C 390.549 5.147 0.82055 0
M  V30 4169 C 387.877 5.8509 0.434304 0
M  V30 4170 C 390.229 6.32416 0.152395 0
M  V30 4171 C 388.893 6.67484 -0.0461067 0
M  V30 4172 H 388.163 0.635908 0.380398 0
M  V30 4173 H 390.81 1.88896 0.314718 0
M  V30 4174 H 389.115 2.77406 2.76682 0
M  V30 4175 H 390.812 3.09756 2.54661 0
M  V30 4176 H 387.402 4.03041 1.45795 0
M  V30 4177 H 391.586 4.87077 0.952374 0
M  V30 4178 H 386.842 6.10806 0.269495 0
M  V30 4179 H 391.016 6.96023 -0.229126 0
M  V30 4180 H 388.643 7.58011 -0.576494 0
M  V30 4181 N 390.218 -0.567019 1.47046 0
M  V30 4182 C 391.446 -1.35027 1.56765 0
M  V30 4183 C 391.861 -1.8758 0.214316 0
M  V30 4184 O 391.218 -1.64471 -0.790919 0
M  V30 4185 C 391.269 -2.52698 2.58507 0
M  V30 4186 O 390.99 -2.0232 3.88585 0
M  V30 4187 C 392.491 -3.45043 2.78316 0
M  V30 4188 H 389.711 -0.41195 0.529658 0
M  V30 4189 H 392.255 -0.687832 1.92585 0
M  V30 4190 H 390.41 -3.149 2.25648 0
M  V30 4191 H 390.824 -2.79068 4.44096 0
M  V30 4192 H 392.298 -4.2405 3.53391 0
M  V30 4193 H 392.775 -3.97971 1.85784 0
M  V30 4194 H 393.381 -2.88665 3.12334 0
M  V30 4195 N 391.696 -1.35014 -0.812953 0
M  V30 4196 C 393.112 -1.14914 -1.10757 0
M  V30 4197 C 393.312 0.0426818 -2.01455 0
M  V30 4198 O 392.368 0.715212 -2.42159 0
M  V30 4199 C 393.681 -2.44911 -1.74468 0
M  V30 4200 C 395.229 -2.5106 -1.86917 0
M  V30 4201 C 395.704 -3.81085 -2.54044 0
M  V30 4202 N 397.195 -3.82301 -2.61535 0
M  V30 4203 C 397.93 -4.79634 -3.14227 0
M  V30 4204 N 397.426 -5.87353 -3.67407 0
M  V30 4205 N 399.219 -4.67078 -3.12721 0
M  V30 4206 H 391.37 -2.1136 -0.20989 0
M  V30 4207 H 393.633 -0.935128 -0.155692 0
M  V30 4208 H 393.339 -3.32267 -1.15289 0
M  V30 4209 H 393.213 -2.58989 -2.74234 0
M  V30 4210 H 395.6 -1.64137 -2.45241 0
M  V30 4211 H 395.681 -2.40901 -0.860242 0
M  V30 4212 H 395.325 -4.68402 -1.96372 0
M  V30 4213 H 395.255 -3.88529 -3.55461 0
M  V30 4214 H 397.746 -3.04465 -2.23851 0
M  V30 4215 H 398.059 -6.57624 -4.05894 0
M  V30 4216 H 396.404 -5.91054 -3.65623 0
M  V30 4217 H 399.595 -3.82067 -2.70449 0
M  V30 4218 H 399.768 -5.43098 -3.53481 0
M  V30 4219 N 393.175 1.03435 -1.18907 0
M  V30 4220 C 394.424 1.76143 -0.982669 0
M  V30 4221 C 394.737 1.89416 0.487953 0
M  V30 4222 O 395.943 2.59041 0.813036 0
M  V30 4223 C 394.399 3.16722 -1.70924 0
M  V30 4224 C 394.007 3.11522 -3.21959 0
M  V30 4225 C 395.751 3.93764 -1.58588 0
M  V30 4226 C 393.658 4.46999 -3.87228 0
M  V30 4227 H 392.588 0.660292 -0.364047 0
M  V30 4228 H 395.239 1.158 -1.42347 0
M  V30 4229 H 393.621 3.775 -1.19623 0
M  V30 4230 H 394.795 2.60158 -3.80335 0
M  V30 4231 H 393.11 2.47978 -3.34508 0
M  V30 4232 H 395.707 4.93963 -2.04707 0
M  V30 4233 H 396.05 4.12794 -0.539142 0
M  V30 4234 H 396.583 3.39576 -2.07203 0
M  V30 4235 H 393.322 4.33174 -4.91976 0
M  V30 4236 H 392.842 4.98441 -3.33642 0
M  V30 4237 H 394.521 5.15898 -3.90459 0
M  V30 4238 N 394.653 0.992116 1.22453 0
M  V30 4239 C 395.583 0.561677 2.26644 0
M  V30 4240 C 396.564 -0.411055 1.65059 0
M  V30 4241 O 397.749 -0.301861 1.9184 0
M  V30 4242 C 394.879 -0.125247 3.47074 0
M  V30 4243 C 393.833 0.765948 4.21091 0
M  V30 4244 C 393.159 -0.0538484 5.34673 0
M  V30 4245 C 394.459 2.06242 4.79856 0
M  V30 4246 H 396.153 1.43259 2.62902 0
M  V30 4247 H 393.699 0.690283 1.26377 0
M  V30 4248 H 395.652 -0.437764 4.1912 0
M  V30 4249 H 394.376 -1.03069 3.0991 0
M  V30 4250 H 393.035 1.0621 3.50878 0
M  V30 4251 H 392.683 -0.960188 4.9375 0
M  V30 4252 H 392.383 0.539415 5.85119 0
M  V30 4253 H 393.907 -0.360477 6.09535 0
M  V30 4254 H 395.321 1.8139 5.43848 0
M  V30 4255 H 393.718 2.60444 5.40638 0
M  V30 4256 H 394.788 2.74167 3.99951 0
M  V30 4257 N 396.131 -1.37776 0.765217 0
M  V30 4258 C 397.063 -2.28958 0.105361 0
M  V30 4259 C 398.076 -1.48316 -0.67128 0
M  V30 4260 O 399.265 -1.71046 -0.51045 0
M  V30 4261 C 396.365 -3.27421 -0.874569 0
M  V30 4262 C 395.538 -4.37132 -0.153123 0
M  V30 4263 C 394.597 -5.1571 -1.04547 0
M  V30 4264 O 393.623 -5.66896 -0.511672 0
M  V30 4265 N 394.825 -5.29808 -2.37243 0
M  V30 4266 H 397.59 -2.86227 0.888495 0
M  V30 4267 H 395.151 -1.49682 0.617 0
M  V30 4268 H 397.143 -3.7687 -1.47483 0
M  V30 4269 H 395.713 -2.70967 -1.55871 0
M  V30 4270 H 394.933 -3.89166 0.627975 0
M  V30 4271 H 396.221 -5.07625 0.345643 0
M  V30 4272 H 395.619 -4.89793 -2.83054 0
M  V30 4273 H 394.176 -5.82589 -2.9229 0
M  V30 4274 N 397.609 -0.515225 -1.4894 0
M  V30 4275 C 398.542 0.302518 -2.26186 0
M  V30 4276 C 399.52 0.957895 -1.31389 0
M  V30 4277 O 400.704 0.985198 -1.60705 0
M  V30 4278 C 397.831 1.42719 -3.07163 0
M  V30 4279 C 396.877 0.884736 -4.17223 0
M  V30 4280 S 397.71 -0.235767 -5.34981 0
M  V30 4281 C 398.866 0.891731 -6.19515 0
M  V30 4282 H 399.099 -0.353076 -2.95196 0
M  V30 4283 H 396.632 -0.300753 -1.51443 0
M  V30 4284 H 398.59 2.07152 -3.54398 0
M  V30 4285 H 397.251 2.05445 -2.37595 0
M  V30 4286 H 396.444 1.72801 -4.73451 0
M  V30 4287 H 396.046 0.317362 -3.72651 0
M  V30 4288 H 398.338 1.79377 -6.53322 0
M  V30 4289 H 399.281 0.367751 -7.07144 0
M  V30 4290 H 399.689 1.16548 -5.52338 0
M  V30 4291 N 399.087 1.5561 -0.249682 0
M  V30 4292 C 399.997 2.25143 0.659375 0
M  V30 4293 C 401.013 1.2685 1.19101 0
M  V30 4294 O 402.189 1.59732 1.22669 0
M  V30 4295 C 399.254 2.93945 1.8384 0
M  V30 4296 C 398.315 4.07655 1.34596 0
M  V30 4297 C 397.548 4.73167 2.46878 0
M  V30 4298 O 397.771 4.37768 3.65671 0
M  V30 4299 O 396.705 5.61623 2.16478 0
M  V30 4300 H 400.531 3.03545 0.0968698 0
M  V30 4301 H 398.116 1.49389 -0.018074 0
M  V30 4302 H 399.998 3.37271 2.52638 0
M  V30 4303 H 398.673 2.18481 2.38847 0
M  V30 4304 H 397.58 3.68839 0.625174 0
M  V30 4305 H 398.913 4.84946 0.841941 0
M  V30 4306 N 400.565 -0.0233959 1.57583 0
M  V30 4307 C 401.475 -1.03907 2.10334 0
M  V30 4308 C 402.491 -1.39257 1.04323 0
M  V30 4309 O 403.667 -1.48462 1.36091 0
M  V30 4310 C 400.732 -2.31938 2.57693 0
M  V30 4311 C 399.793 -2.03117 3.78209 0
M  V30 4312 C 399.026 -3.25043 4.233 0
M  V30 4313 O 399.249 -4.35916 3.67876 0
M  V30 4314 O 398.183 -3.10411 5.15683 0
M  V30 4315 H 402.009 -0.620748 2.97288 0
M  V30 4316 H 399.594 -0.240743 1.47448 0
M  V30 4317 H 401.476 -3.07196 2.88458 0
M  V30 4318 H 400.151 -2.73055 1.73847 0
M  V30 4319 H 399.058 -1.25408 3.52454 0
M  V30 4320 H 400.391 -1.66852 4.63056 0
M  V30 4321 N 402.043 -1.548 -0.295768 0
M  V30 4322 C 402.953 -1.89177 -1.38742 0
M  V30 4323 C 403.969 -0.786481 -1.55211 0
M  V30 4324 O 405.145 -1.08344 -1.69775 0
M  V30 4325 C 402.21 -2.13663 -2.73036 0
M  V30 4326 C 401.271 -3.37349 -2.65508 0
M  V30 4327 C 400.504 -3.60658 -3.93398 0
M  V30 4328 O 400.727 -2.86882 -4.93006 0
M  V30 4329 O 399.661 -4.54179 -3.94975 0
M  V30 4330 H 403.487 -2.82059 -1.12589 0
M  V30 4331 H 401.072 -1.41056 -0.492295 0
M  V30 4332 H 402.954 -2.3094 -3.52484 0
M  V30 4333 H 401.629 -1.23967 -2.99022 0
M  V30 4334 H 400.536 -3.25431 -1.84514 0
M  V30 4335 H 401.869 -4.27192 -2.44474 0
M  V30 4336 N 403.521 0.559213 -1.47345 0
M  V30 4337 C 404.751 1.33999 -1.57251 0
M  V30 4338 C 405.159 1.87905 -0.220978 0
M  V30 4339 O 404.502 1.65577 0.795617 0
M  V30 4340 C 404.564 2.54798 -2.53611 0
M  V30 4341 C 404.228 2.22192 -3.99349 0
M  V30 4342 C 405.225 1.79607 -4.87891 0
M  V30 4343 C 402.91 2.33613 -4.44669 0
M  V30 4344 C 404.904 1.48868 -6.19772 0
M  V30 4345 C 402.591 2.02487 -5.76578 0
M  V30 4346 C 403.589 1.60183 -6.63951 0
M  V30 4347 O 403.277 1.29451 -7.93409 0
M  V30 4348 H 403.009 0.414858 -0.533731 0
M  V30 4349 H 405.563 0.684465 -1.9366 0
M  V30 4350 H 403.793 3.23235 -2.12265 0
M  V30 4351 H 405.482 3.16873 -2.53666 0
M  V30 4352 H 406.248 1.70278 -4.54126 0
M  V30 4353 H 402.127 2.65501 -3.76869 0
M  V30 4354 H 405.671 1.15775 -6.87926 0
M  V30 4355 H 401.568 2.11448 -6.09885 0
M  V30 4356 H 402.336 1.43098 -8.05894 0
M  V30 4357 N 404.999 1.35443 0.805782 0
M  V30 4358 C 406.248 1.28097 1.55801 0
M  V30 4359 C 406.561 -0.142428 1.95081 0
M  V30 4360 O 407.767 -0.33817 2.69386 0
M  V30 4361 C 406.223 2.24653 2.81174 0
M  V30 4362 C 405.831 3.72342 2.49129 0
M  V30 4363 C 407.575 2.2625 3.59181 0
M  V30 4364 C 405.482 4.60719 3.70799 0
M  V30 4365 H 404.412 0.475937 0.584808 0
M  V30 4366 H 407.063 1.60712 0.885661 0
M  V30 4367 H 405.445 1.85011 3.50124 0
M  V30 4368 H 406.619 4.20624 1.88181 0
M  V30 4369 H 404.934 3.73361 1.84366 0
M  V30 4370 H 407.531 2.89495 4.49552 0
M  V30 4371 H 407.874 1.26647 3.96568 0
M  V30 4372 H 408.407 2.64426 2.97193 0
M  V30 4373 H 405.146 5.61324 3.3852 0
M  V30 4374 H 404.666 4.17163 4.3097 0
M  V30 4375 H 406.345 4.76182 4.38018 0
M  V30 4376 N 406.477 -1.02803 1.19454 0
M  V30 4377 C 407.409 -2.11181 0.890807 0
M  V30 4378 C 408.422 -1.6238 -0.116829 0
M  V30 4379 O 409.611 -1.78144 0.112694 0
M  V30 4380 C 406.711 -3.37461 0.311942 0
M  V30 4381 C 405.884 -4.15446 1.36834 0
M  V30 4382 C 404.943 -5.20039 0.802864 0
M  V30 4383 O 403.969 -5.49602 1.48077 0
M  V30 4384 N 405.171 -5.79165 -0.393417 0
M  V30 4385 H 407.936 -2.37827 1.82369 0
M  V30 4386 H 405.497 -1.19101 1.09666 0
M  V30 4387 H 407.489 -4.0462 -0.0802225 0
M  V30 4388 H 406.059 -3.08156 -0.52524 0
M  V30 4389 H 405.279 -3.43423 1.93531 0
M  V30 4390 H 406.567 -4.64335 2.08015 0
M  V30 4391 H 405.965 -5.57466 -0.961658 0
M  V30 4392 H 404.522 -6.47729 -0.727351 0
M  V30 4393 N 407.956 -0.998596 -1.21925 0
M  V30 4394 C 408.888 -0.511879 -2.23411 0
M  V30 4395 C 409.901 0.396094 -1.57908 0
M  V30 4396 O 411.09 0.197316 -1.77406 0
M  V30 4397 C 408.19 0.276802 -3.37768 0
M  V30 4398 C 407.363 -0.628687 -4.32858 0
M  V30 4399 C 406.422 0.109272 -5.26087 0
M  V30 4400 O 405.448 -0.507237 -5.66935 0
M  V30 4401 N 406.65 1.38983 -5.63617 0
M  V30 4402 H 409.415 -1.38457 -2.658 0
M  V30 4403 H 406.976 -0.873981 -1.36283 0
M  V30 4404 H 408.968 0.77928 -3.97126 0
M  V30 4405 H 407.538 1.05063 -2.94415 0
M  V30 4406 H 406.758 -1.31175 -3.71735 0
M  V30 4407 H 408.046 -1.24514 -4.93329 0
M  V30 4408 H 407.444 1.91194 -5.32411 0
M  V30 4409 H 406.001 1.83739 -6.25367 0
M  V30 4410 N 409.434 1.37368 -0.772513 0
M  V30 4411 C 410.364 2.32856 -0.173304 0
M  V30 4412 C 411.345 1.55818 0.682262 0
M  V30 4413 O 412.53 1.84052 0.619566 0
M  V30 4414 C 409.66 3.40048 0.706007 0
M  V30 4415 C 408.614 4.27973 -0.0483144 0
M  V30 4416 C 407.94 5.26184 0.950491 0
M  V30 4417 C 409.24 5.07665 -1.22776 0
M  V30 4418 H 410.934 2.83217 -0.971002 0
M  V30 4419 H 408.48 1.3617 -0.468377 0
M  V30 4420 H 410.433 4.05827 1.13501 0
M  V30 4421 H 409.157 2.88214 1.53623 0
M  V30 4422 H 407.816 3.63726 -0.458107 0
M  V30 4423 H 407.464 4.7063 1.77529 0
M  V30 4424 H 407.164 5.85872 0.450314 0
M  V30 4425 H 408.688 5.94838 1.37842 0
M  V30 4426 H 410.102 5.66578 -0.875366 0
M  V30 4427 H 408.499 5.76681 -1.66007 0
M  V30 4428 H 409.569 4.40294 -2.03149 0
M  V30 4429 N 410.912 0.523116 1.48665 0
M  V30 4430 C 412.152 -0.0115588 2.04397 0
M  V30 4431 C 412.516 -1.32225 1.39214 0
M  V30 4432 O 413.717 -1.94253 1.85793 0
M  V30 4433 C 411.988 -0.138119 3.57133 0
M  V30 4434 S 413.547 -0.623849 4.34343 0
M  V30 4435 H 410.365 0.00877706 0.710946 0
M  V30 4436 H 412.967 0.702116 1.82457 0
M  V30 4437 H 411.671 0.820748 4.02109 0
M  V30 4438 H 411.202 -0.876377 3.83514 0
M  V30 4439 H 413.217 -1.8895 4.58816 0
M  V30 4440 N 412.39 -1.55475 0.257931 0
M  V30 4441 C 413.3 -2.2549 -0.647425 0
M  V30 4442 C 414.316 -1.2748 -1.18427 0
M  V30 4443 O 415.492 -1.6038 -1.2182 0
M  V30 4444 C 412.557 -2.94916 -1.82278 0
M  V30 4445 C 411.618 -4.08363 -1.32432 0
M  V30 4446 C 410.851 -4.74469 -2.44366 0
M  V30 4447 O 411.074 -4.39701 -3.63344 0
M  V30 4448 O 410.008 -5.62763 -2.13497 0
M  V30 4449 H 413.834 -3.03593 -0.0807707 0
M  V30 4450 H 411.419 -1.49377 0.0259962 0
M  V30 4451 H 413.301 -3.38606 -2.50846 0
M  V30 4452 H 411.976 -2.19744 -2.37685 0
M  V30 4453 H 410.883 -3.69166 -0.605605 0
M  V30 4454 H 412.216 -4.85385 -0.816211 0
M  V30 4455 N 413.868 0.0150385 -1.57593 0
M  V30 4456 C 415.145 0.7392 -1.81094 0
M  V30 4457 C 415.525 1.92817 -0.859344 0
M  V30 4458 O 414.873 2.28301 0.095362 0
M  V30 4459 C 415.083 1.15907 -3.29191 0
M  V30 4460 C 416.431 1.56918 -3.9454 0
M  V30 4461 O 417.455 1.25328 -3.33424 0
M  V30 4462 O 416.314 2.15604 -5.02173 0
M  V30 4463 H 413.408 0.358631 -0.745193 0
M  V30 4464 H 415.954 -0.00926156 -1.69697 0
M  V30 4465 H 414.726 0.310921 -3.90063 0
M  V30 4466 H 414.349 1.96711 -3.45529 0
M  V30 4467 N 415.346 1.54954 0.287554 0
M  V30 4468 C 416.595 1.74081 1.01877 0
M  V30 4469 C 416.908 0.541135 1.87966 0
M  V30 4470 O 418.114 0.614491 2.64455 0
M  V30 4471 C 416.57 3.08042 1.86113 0
M  V30 4472 C 416.178 4.35531 1.04961 0
M  V30 4473 C 417.922 3.36523 2.58752 0
M  V30 4474 C 415.829 5.60538 1.88551 0
M  V30 4475 H 414.759 0.64884 0.384087 0
M  V30 4476 H 417.41 1.81426 0.275101 0
M  V30 4477 H 415.792 2.94696 2.64519 0
M  V30 4478 H 416.966 4.59751 0.31074 0
M  V30 4479 H 415.281 4.14085 0.43843 0
M  V30 4480 H 417.878 4.27122 3.21668 0
M  V30 4481 H 418.221 2.56 3.28283 0
M  V30 4482 H 418.754 3.50901 1.87386 0
M  V30 4483 H 415.493 6.43767 1.23466 0
M  V30 4484 H 415.013 5.40483 2.60074 0
M  V30 4485 H 416.692 5.98297 2.46273 0
M  V30 4486 N 416.824 -0.551391 1.4764 0
M  V30 4487 C 418.073 -1.30467 1.53822 0
M  V30 4488 C 418.386 -1.94495 0.207661 0
M  V30 4489 O 419.592 -2.71099 0.147533 0
M  V30 4490 C 418.048 -2.36616 2.71184 0
M  V30 4491 C 417.656 -1.78754 4.10793 0
M  V30 4492 C 419.4 -3.13088 2.86663 0
M  V30 4493 C 417.307 -2.82717 5.19447 0
M  V30 4494 H 416.237 -0.490584 0.572576 0
M  V30 4495 H 418.888 -0.58494 1.73927 0
M  V30 4496 H 417.27 -3.11529 2.4447 0
M  V30 4497 H 418.444 -1.10173 4.47435 0
M  V30 4498 H 416.759 -1.14846 4.00249 0
M  V30 4499 H 419.356 -3.90736 3.65007 0
M  V30 4500 H 419.699 -3.67635 1.95321 0
M  V30 4501 H 420.232 -2.45288 3.13175 0
M  V30 4502 H 416.971 -2.33018 6.12685 0
M  V30 4503 H 416.491 -3.4969 4.87316 0
M  V30 4504 H 418.17 -3.46102 5.46646 0
M  V30 4505 N 418.302 -1.35869 -0.798587 0
M  V30 4506 C 419.234 -1.25305 -1.91915 0
M  V30 4507 C 420.247 -0.174548 -1.61862 0
M  V30 4508 O 421.436 -0.428499 -1.73281 0
M  V30 4509 C 418.536 -0.9086 -3.26493 0
M  V30 4510 C 417.709 -2.08711 -3.84394 0
M  V30 4511 C 416.768 -1.71717 -4.97393 0
M  V30 4512 O 415.794 -2.43692 -5.14396 0
M  V30 4513 N 416.996 -0.645473 -5.769 0
M  V30 4514 H 419.761 -2.21849 -2.01502 0
M  V30 4515 H 417.322 -1.29143 -0.976408 0
M  V30 4516 H 419.314 -0.642455 -3.99568 0
M  V30 4517 H 417.884 -0.0325815 -3.12583 0
M  V30 4518 H 417.104 -2.51659 -3.03416 0
M  V30 4519 H 418.392 -2.87468 -4.19809 0
M  V30 4520 H 417.79 -0.047648 -5.6568 0
M  V30 4521 H 416.347 -0.43913 -6.50319 0
M  V30 4522 N 419.78 1.02168 -1.19998 0
M  V30 4523 C 420.71 2.12488 -0.96804 0
M  V30 4524 C 421.691 1.69799 0.101185 0
M  V30 4525 O 422.876 1.94121 -0.0552993 0
M  V30 4526 C 420.006 3.43479 -0.513776 0
M  V30 4527 C 418.96 3.99884 -1.52566 0
M  V30 4528 C 418.286 5.26582 -0.928214 0
M  V30 4529 C 419.586 4.33861 -2.90795 0
M  V30 4530 H 421.28 2.32149 -1.89069 0
M  V30 4531 H 418.826 1.11564 -0.910468 0
M  V30 4532 H 420.779 4.20036 -0.338774 0
M  V30 4533 H 419.503 3.23561 0.444493 0
M  V30 4534 H 418.162 3.25429 -1.68794 0
M  V30 4535 H 417.81 5.02986 0.0378289 0
M  V30 4536 H 417.51 5.65284 -1.60397 0
M  V30 4537 H 419.034 6.05799 -0.764167 0
M  V30 4538 H 420.448 5.01327 -2.78109 0
M  V30 4539 H 418.845 4.83664 -3.55231 0
M  V30 4540 H 419.915 3.42848 -3.42904 0
M  V30 4541 N 421.258 1.00505 1.21394 0
M  V30 4542 C 422.205 0.565496 2.23765 0
M  V30 4543 C 423.175 -0.408466 1.60999 0
M  V30 4544 O 424.36 -0.310503 1.88257 0
M  V30 4545 C 421.5 -0.101667 3.4495 0
M  V30 4546 C 420.613 0.915479 4.22188 0
M  V30 4547 C 419.748 0.220574 5.30742 0
M  V30 4548 C 418.787 1.22527 5.99711 0
M  V30 4549 N 417.924 0.557831 6.9988 0
M  V30 4550 H 422.764 1.44314 2.60725 0
M  V30 4551 H 420.301 0.722643 1.28126 0
M  V30 4552 H 422.259 -0.505504 4.14126 0
M  V30 4553 H 420.889 -0.94303 3.08718 0
M  V30 4554 H 419.941 1.43756 3.52191 0
M  V30 4555 H 421.253 1.68005 4.69655 0
M  V30 4556 H 420.407 -0.239368 6.06228 0
M  V30 4557 H 419.146 -0.576401 4.84282 0
M  V30 4558 H 418.151 1.69571 5.22997 0
M  V30 4559 H 419.376 2.02332 6.48258 0
M  V30 4560 H 417.322 -0.219486 6.55633 0
M  V30 4561 H 417.239 1.26065 7.45415 0
M  V30 4562 H 418.507 0.121095 7.79406 0
M  V30 4563 N 422.737 -1.36956 0.779787 0
M  V30 4564 C 424.148 -1.82094 0.412156 0
M  V30 4565 C 424.499 -1.64926 -1.06273 0
M  V30 4566 O 423.624 -1.16483 -1.82375 0
M  V30 4567 C 424.219 -3.3059 0.741319 0
M  V30 4568 C 422.778 -3.73974 0.426641 0
M  V30 4569 C 421.925 -2.59368 0.980987 0
M  V30 4570 H 424.876 -1.25314 0.973758 0
M  V30 4571 H 424.897 -3.80489 0.028887 0
M  V30 4572 H 424.409 -3.43054 1.81482 0
M  V30 4573 H 422.51 -3.67076 -0.639215 0
M  V30 4574 H 422.623 -4.69778 0.940515 0
M  V30 4575 H 420.987 -2.51463 0.404757 0
M  V30 4576 H 421.77 -2.74621 2.06005 0
M  V30 4577 N 424.215 -0.530993 -1.48385 0
M  V30 4578 C 425.492 0.0671788 -1.95485 0
M  V30 4579 C 425.872 1.51191 -1.47324 0
M  V30 4580 O 425.22 2.17507 -0.700202 0
M  V30 4581 C 425.43 -0.0511206 -3.48963 0
M  V30 4582 C 426.778 0.107632 -4.24464 0
M  V30 4583 O 427.802 0.0226248 -3.56193 0
M  V30 4584 O 426.661 0.285972 -5.45751 0
M  V30 4585 H 423.755 0.0787365 -0.823243 0
M  V30 4586 H 426.301 -0.595662 -1.58902 0
M  V30 4587 H 425.073 -1.05747 -3.7674 0
M  V30 4588 H 424.696 0.650525 -3.92242 0
M  V30 4589 N 425.693 1.55336 -0.266172 0
M  V30 4590 C 426.939 1.99692 0.353681 0
M  V30 4591 C 427.272 1.1543 1.56172 0
M  V30 4592 O 426.547 0.222218 1.93226 0
M  V30 4593 C 426.83 3.52316 0.74466 0
M  V30 4594 C 426.683 4.47337 -0.470101 0
M  V30 4595 C 428.002 4.10588 1.58447 0
M  V30 4596 H 425.121 0.725961 0.12708 0
M  V30 4597 H 427.763 1.86336 -0.371333 0
M  V30 4598 H 425.913 3.63829 1.36239 0
M  V30 4599 H 427.585 4.4778 -1.10864 0
M  V30 4600 H 425.828 4.19364 -1.10978 0
M  V30 4601 H 426.499 5.51788 -0.15291 0
M  V30 4602 H 428.975 4.02297 1.06286 0
M  V30 4603 H 427.851 5.17607 1.82686 0
M  V30 4604 H 428.112 3.60253 2.56262 0
M  V30 4605 N 427.171 -0.0066808 1.57599 0
M  V30 4606 C 428.417 -0.693947 1.90558 0
M  V30 4607 C 428.75 -1.73792 0.866594 0
M  V30 4608 O 428.025 -1.94156 -0.115548 0
M  V30 4609 C 428.308 -1.34317 3.34112 0
M  V30 4610 C 428.161 -0.311189 4.48722 0
M  V30 4611 C 429.48 -2.27116 3.7697 0
M  V30 4612 H 426.599 -0.250803 0.693013 0
M  V30 4613 H 429.241 0.043242 1.89951 0
M  V30 4614 H 427.391 -1.9715 3.3476 0
M  V30 4615 H 429.063 0.316944 4.6021 0
M  V30 4616 H 427.306 0.367253 4.32243 0
M  V30 4617 H 427.977 -0.804366 5.46108 0
M  V30 4618 H 430.453 -1.74306 3.77831 0
M  V30 4619 H 429.329 -2.69511 4.78179 0
M  V30 4620 H 429.59 -3.14743 3.10466 0
M  V30 4621 N 428.649 -1.55105 -0.279332 0
M  V30 4622 C 429.898 -1.74618 -1.00952 0
M  V30 4623 C 430.211 -0.551096 -1.87676 0
M  V30 4624 O 431.417 -0.628507 -2.64125 0
M  V30 4625 C 429.873 -3.09025 -1.84476 0
M  V30 4626 C 429.481 -4.36081 -1.0265 0
M  V30 4627 C 431.225 -3.37891 -2.56963 0
M  V30 4628 C 429.132 -5.6153 -1.85576 0
M  V30 4629 H 428.062 -0.650868 -0.38064 0
M  V30 4630 H 430.713 -1.81569 -0.265475 0
M  V30 4631 H 429.095 -2.96095 -2.62952 0
M  V30 4632 H 430.269 -4.59909 -0.286354 0
M  V30 4633 H 428.584 -4.14312 -0.416464 0
M  V30 4634 H 431.181 -4.28822 -3.19399 0
M  V30 4635 H 431.524 -2.57737 -3.26921 0
M  V30 4636 H 432.057 -3.5189 -1.85522 0
M  V30 4637 H 428.796 -6.44413 -1.2005 0
M  V30 4638 H 428.316 -5.41854 -2.57204 0
M  V30 4639 H 429.995 -5.99594 -2.43096 0
M  V30 4640 N 430.127 0.543554 -1.4793 0
M  V30 4641 C 431.355 1.32516 -1.58894 0
M  V30 4642 C 431.77 1.87215 -0.244131 0
M  V30 4643 O 431.127 1.65709 0.764652 0
M  V30 4644 C 431.178 2.48554 -2.62494 0
M  V30 4645 O 430.899 1.96112 -3.91755 0
M  V30 4646 C 432.4 3.40572 -2.8377 0
M  V30 4647 H 429.62 0.403472 -0.536145 0
M  V30 4648 H 432.164 0.657106 -1.93655 0
M  V30 4649 H 430.319 3.1127 -2.30629 0
M  V30 4650 H 430.733 2.71967 -4.4848 0
M  V30 4651 H 432.207 4.18375 -3.60093 0
M  V30 4652 H 432.684 3.94965 -1.92092 0
M  V30 4653 H 433.29 2.8366 -3.16887 0
M  V30 4654 N 431.605 1.3629 0.791371 0
M  V30 4655 C 432.515 1.32606 1.93527 0
M  V30 4656 C 433.531 0.228541 1.72493 0
M  V30 4657 O 434.707 0.460571 1.96063 0
M  V30 4658 C 431.772 1.11271 3.28359 0
M  V30 4659 C 430.833 2.3048 3.62185 0
M  V30 4660 C 430.066 2.10154 4.90583 0
M  V30 4661 O 430.289 1.07572 5.60165 0
M  V30 4662 O 429.223 2.97884 5.23019 0
M  V30 4663 H 433.049 2.28909 1.99585 0
M  V30 4664 H 430.634 1.16818 0.931344 0
M  V30 4665 H 432.516 1.01283 4.09047 0
M  V30 4666 H 431.191 0.180292 3.23198 0
M  V30 4667 H 430.098 2.46036 2.81811 0
M  V30 4668 H 431.431 3.22221 3.72068 0
M  V30 4669 N 433.083 -1.0153 1.20538 0
M  V30 4670 C 434.03 -2.10098 0.955383 0
M  V30 4671 C 435 -1.65702 -0.114878 0
M  V30 4672 O 436.185 -1.90776 0.0301118 0
M  V30 4673 C 433.325 -3.41236 0.514969 0
M  V30 4674 C 432.438 -3.99102 1.65353 0
M  V30 4675 C 431.573 -5.18306 1.16329 0
M  V30 4676 C 430.612 -5.68258 2.27485 0
M  V30 4677 N 429.749 -6.78722 1.7967 0
M  V30 4678 H 434.589 -2.30818 1.88486 0
M  V30 4679 H 432.126 -1.13189 0.939499 0
M  V30 4680 H 434.084 -4.16504 0.240935 0
M  V30 4681 H 432.714 -3.20585 -0.377512 0
M  V30 4682 H 431.766 -3.20918 2.04245 0
M  V30 4683 H 433.078 -4.32177 2.49047 0
M  V30 4684 H 432.232 -6.00782 0.845302 0
M  V30 4685 H 430.971 -4.86799 0.296254 0
M  V30 4686 H 429.976 -4.84385 2.60099 0
M  V30 4687 H 431.201 -6.01798 3.14667 0
M  V30 4688 H 429.147 -6.49042 0.95295 0
M  V30 4689 H 429.064 -7.10996 2.56944 0
M  V30 4690 H 430.332 -7.64759 1.50875 0
M  V30 4691 N 434.561 -1.01147 -1.20859 0
M  V30 4692 C 435.809 -0.696486 -1.89719 0
M  V30 4693 C 436.13 0.775788 -1.78904 0
M  V30 4694 O 435.4 1.55759 -1.18811 0
M  V30 4695 H 433.98 -0.254628 -0.702263 0
M  V30 4696 H 436.642 -1.28197 -1.46804 0
M  V30 4697 H 435.738 -0.975357 -2.96468 0
M  V30 4698 N 436.039 1.36541 -0.78704 0
M  V30 4699 C 437.288 1.98552 -0.35494 0
M  V30 4700 C 437.601 1.63171 1.07864 0
M  V30 4701 O 438.807 2.18399 1.61289 0
M  V30 4702 C 437.263 3.55136 -0.583671 0
M  V30 4703 C 436.871 3.99444 -2.02851 0
M  V30 4704 C 438.615 4.2395 -0.215957 0
M  V30 4705 C 436.522 5.48796 -2.20403 0
M  V30 4706 H 435.452 0.742888 -0.128972 0
M  V30 4707 H 438.103 1.5587 -0.968337 0
M  V30 4708 H 436.485 3.95875 0.0994046 0
M  V30 4709 H 437.659 3.6991 -2.74779 0
M  V30 4710 H 435.974 3.43459 -2.35425 0
M  V30 4711 H 438.571 5.33709 -0.325405 0
M  V30 4712 H 438.914 4.07827 0.835646 0
M  V30 4713 H 439.447 3.88565 -0.852175 0
M  V30 4714 H 436.186 5.69864 -3.23937 0
M  V30 4715 H 435.706 5.79964 -1.52977 0
M  V30 4716 H 437.385 6.14986 -2.01002 0
M  V30 4717 N 437.518 0.538854 1.48102 0
M  V30 4718 C 438.743 0.0102694 2.07397 0
M  V30 4719 C 439.168 -1.26562 1.39153 0
M  V30 4720 O 438.526 -1.75357 0.460387 0
M  V30 4721 C 438.574 -0.187602 3.60112 0
M  V30 4722 O 437.678 -1.25432 3.92862 0
M  V30 4723 H 437.019 0.0430975 0.6626 0
M  V30 4724 H 439.549 0.749301 1.90385 0
M  V30 4725 H 439.559 -0.407517 4.0596 0
M  V30 4726 H 438.234 0.744386 4.09184 0
M  V30 4727 H 436.811 -1.01636 3.58782 0
M  V30 4728 N 438.996 -1.55193 0.274407 0
M  V30 4729 C 440.273 -1.91584 -0.394331 0
M  V30 4730 C 440.653 -1.19858 -1.73774 0
M  V30 4731 O 440.001 -0.3252 -2.26174 0
M  V30 4732 C 440.211 -3.4487 -0.535311 0
M  V30 4733 C 441.559 -4.16636 -0.818534 0
M  V30 4734 O 442.583 -3.5076 -0.620146 0
M  V30 4735 O 441.442 -5.33209 -1.19792 0
M  V30 4736 H 438.536 -0.798349 -0.215794 0
M  V30 4737 H 441.082 -1.66646 0.320507 0
M  V30 4738 H 439.854 -3.89145 0.410141 0
M  V30 4739 H 439.477 -3.75759 -1.29964 0
M  V30 4740 N 440.474 -0.00167713 -1.576 0
M  V30 4741 C 441.404 0.988091 -2.11563 0
M  V30 4742 C 442.385 1.35736 -1.02517 0
M  V30 4743 O 443.57 1.44082 -1.30208 0
M  V30 4744 C 440.7 2.27941 -2.62031 0
M  V30 4745 C 439.654 2.0517 -3.75619 0
M  V30 4746 C 438.98 3.4033 -4.12407 0
M  V30 4747 C 440.28 1.41294 -5.02825 0
M  V30 4748 H 441.974 0.538771 -2.94513 0
M  V30 4749 H 439.52 0.257712 -1.41675 0
M  V30 4750 H 441.473 2.97539 -2.9841 0
M  V30 4751 H 440.197 2.74989 -1.76205 0
M  V30 4752 H 438.856 1.37998 -3.39635 0
M  V30 4753 H 438.504 3.85085 -3.23603 0
M  V30 4754 H 438.204 3.25909 -4.88935 0
M  V30 4755 H 439.728 4.1124 -4.51347 0
M  V30 4756 H 441.142 2.00851 -5.36965 0
M  V30 4757 H 439.539 1.37356 -5.84169 0
M  V30 4758 H 440.609 0.382362 -4.8339 0
M  V30 4759 N 441.952 1.55251 0.271103 0
M  V30 4760 C 442.915 1.87484 1.31842 0
M  V30 4761 C 443.915 0.749545 1.42262 0
M  V30 4762 O 445.105 1.01771 1.4138 0
M  V30 4763 C 442.237 2.0818 2.69951 0
M  V30 4764 H 443.43 2.81108 1.0449 0
M  V30 4765 H 440.983 1.47771 0.509258 0
M  V30 4766 H 441.718 1.16944 3.02481 0
M  V30 4767 H 441.503 2.90114 2.63774 0
M  V30 4768 H 442.993 2.34385 3.4562 0
M  V30 4769 N 443.43 -0.535701 1.48216 0
M  V30 4770 C 444.362 -1.65662 1.58394 0
M  V30 4771 C 445.375 -1.5591 0.468607 0
M  V30 4772 O 446.564 -1.62475 0.7392 0
M  V30 4773 C 443.664 -3.04276 1.4923 0
M  V30 4774 C 442.837 -3.39567 2.75705 0
M  V30 4775 C 441.896 -4.57436 2.60075 0
M  V30 4776 O 440.922 -4.60942 3.33948 0
M  V30 4777 N 442.124 -5.55259 1.69315 0
M  V30 4778 H 444.889 -1.5737 2.55058 0
M  V30 4779 H 442.45 -0.722845 1.44867 0
M  V30 4780 H 444.442 -3.80994 1.36477 0
M  V30 4781 H 443.012 -3.06677 0.605632 0
M  V30 4782 H 442.232 -2.52083 3.03064 0
M  V30 4783 H 443.52 -3.59929 3.59623 0
M  V30 4784 H 442.918 -5.552 1.08489 0
M  V30 4785 H 441.475 -6.31218 1.62504 0
M  V30 4786 N 444.908 -1.36708 -0.784132 0
M  V30 4787 C 445.858 -1.2799 -1.88686 0
M  V30 4788 C 446.842 -0.170282 -1.59996 0
M  V30 4789 O 448.034 -0.403571 -1.72338 0
M  V30 4790 C 445.163 -1.07674 -3.25977 0
M  V30 4791 C 444.249 -2.23127 -3.60659 0
M  V30 4792 N 444.64 -3.48467 -3.66612 0
M  V30 4793 C 442.938 -2.15009 -3.90752 0
M  V30 4794 C 443.639 -4.24525 -3.97685 0
M  V30 4795 N 442.615 -3.53524 -4.12943 0
M  V30 4796 H 446.417 -2.22927 -1.91522 0
M  V30 4797 H 443.931 -1.29503 -0.979933 0
M  V30 4798 H 445.928 -0.995151 -4.04849 0
M  V30 4799 H 444.588 -0.13643 -3.24413 0
M  V30 4800 H 445.599 -3.82534 -3.49125 0
M  V30 4801 H 442.276 -1.28963 -3.97083 0
M  V30 4802 H 443.666 -5.32944 -4.0917 0
M  V30 4803 N 446.386 1.0089 -1.21074 0
M  V30 4804 C 447.616 1.77933 -1.04993 0
M  V30 4805 C 448.024 1.84847 0.403495 0
M  V30 4806 O 447.367 1.30606 1.29181 0
M  V30 4807 C 447.429 3.23541 -1.56722 0
M  V30 4808 C 447.093 3.40214 -3.05129 0
M  V30 4809 C 448.09 3.2881 -4.02716 0
M  V30 4810 C 445.775 3.65781 -3.44252 0
M  V30 4811 C 447.769 3.42732 -5.37414 0
M  V30 4812 C 445.456 3.79346 -4.79103 0
M  V30 4813 C 446.454 3.67827 -5.75493 0
M  V30 4814 O 446.142 3.80965 -7.07899 0
M  V30 4815 H 445.874 0.566157 -0.369381 0
M  V30 4816 H 448.428 1.27826 -1.60779 0
M  V30 4817 H 446.658 3.74766 -0.953285 0
M  V30 4818 H 448.347 3.82245 -1.36543 0
M  V30 4819 H 449.113 3.08986 -3.73835 0
M  V30 4820 H 444.992 3.73831 -2.69762 0
M  V30 4821 H 448.536 3.33658 -6.12632 0
M  V30 4822 H 444.433 3.98672 -5.07672 0
M  V30 4823 H 445.201 3.97937 -7.15254 0
M  V30 4824 N 447.864 1.01787 1.20321 0
M  V30 4825 C 448.794 0.609625 2.25401 0
M  V30 4826 C 449.775 -0.375951 1.65893 0
M  V30 4827 O 450.96 -0.261101 1.92437 0
M  V30 4828 C 448.09 -0.0515995 3.47262 0
M  V30 4829 C 447.044 0.855095 4.19371 0
M  V30 4830 C 446.37 0.0595757 5.34667 0
M  V30 4831 C 447.67 2.16374 4.75373 0
M  V30 4832 H 449.364 1.48803 2.59804 0
M  V30 4833 H 446.91 0.716934 1.24884 0
M  V30 4834 H 448.863 -0.348764 4.19954 0
M  V30 4835 H 447.587 -0.964726 3.12027 0
M  V30 4836 H 446.246 1.13628 3.48546 0
M  V30 4837 H 445.894 -0.85524 4.95676 0
M  V30 4838 H 445.594 0.663406 5.83843 0
M  V30 4839 H 447.118 -0.231105 6.10162 0
M  V30 4840 H 448.532 1.92885 5.39878 0
M  V30 4841 H 446.929 2.71853 5.34991 0
M  V30 4842 H 447.999 2.82589 3.94045 0
M  V30 4843 N 449.342 -1.36122 0.79427 0
M  V30 4844 C 450.275 -2.27759 0.141845 0
M  V30 4845 C 451.253 -1.47471 -0.684921 0
M  V30 4846 O 452.437 -1.76759 -0.654857 0
M  V30 4847 C 449.564 -3.29008 -0.804446 0
M  V30 4848 C 448.61 -4.26459 -0.0588617 0
M  V30 4849 S 449.443 -5.20253 1.26873 0
M  V30 4850 C 450.599 -6.25048 0.326562 0
M  V30 4851 H 450.832 -2.82746 0.918818 0
M  V30 4852 H 448.365 -1.42736 0.588722 0
M  V30 4853 H 450.323 -3.87842 -1.34495 0
M  V30 4854 H 448.984 -2.72924 -1.5547 0
M  V30 4855 H 448.177 -4.97973 -0.777087 0
M  V30 4856 H 447.779 -3.71731 0.411309 0
M  V30 4857 H 450.071 -6.75705 -0.492795 0
M  V30 4858 H 451.014 -7.00852 1.01053 0
M  V30 4859 H 451.422 -5.64454 -0.0722627 0
M  V30 4860 N 450.82 -0.546701 -1.47814 0
M  V30 4861 C 452.236 -0.205717 -1.58269 0
M  V30 4862 C 452.436 1.29153 -1.54667 0
M  V30 4863 O 451.492 2.07098 -1.44453 0
M  V30 4864 C 452.805 -0.823065 -2.89216 0
M  V30 4865 C 454.353 -0.793328 -3.02779 0
M  V30 4866 C 454.828 -1.38955 -4.36412 0
M  V30 4867 N 456.319 -1.35227 -4.43021 0
M  V30 4868 C 457.054 -1.78333 -5.44963 0
M  V30 4869 N 456.55 -2.29246 -6.53772 0
M  V30 4870 N 458.343 -1.69467 -5.35945 0
M  V30 4871 H 450.494 -1.5196 -1.48398 0
M  V30 4872 H 452.757 -0.633078 -0.705632 0
M  V30 4873 H 452.463 -1.8749 -2.97558 0
M  V30 4874 H 452.337 -0.309915 -3.75925 0
M  V30 4875 H 454.724 0.249784 -2.94041 0
M  V30 4876 H 454.805 -1.34412 -2.17639 0
M  V30 4877 H 454.449 -2.43168 -4.45906 0
M  V30 4878 H 454.379 -0.814291 -5.20266 0
M  V30 4879 H 456.87 -0.979739 -3.64979 0
M  V30 4880 H 457.183 -2.60089 -7.27718 0
M  V30 4881 H 455.528 -2.3325 -6.5469 0
M  V30 4882 H 458.719 -1.29477 -4.49837 0
M  V30 4883 H 458.892 -2.03381 -6.15256 0
M  V30 4884 N 452.299 1.55045 -0.282633 0
M  V30 4885 C 453.262 2.21515 0.588539 0
M  V30 4886 C 454.262 1.19535 1.07554 0
M  V30 4887 O 455.452 1.44391 0.974514 0
M  V30 4888 C 452.584 2.88704 1.8128 0
M  V30 4889 H 453.777 2.99899 0.00806397 0
M  V30 4890 H 451.33 1.56265 -0.0333067 0
M  V30 4891 H 452.065 2.14352 2.43359 0
M  V30 4892 H 451.85 3.63443 1.47144 0
M  V30 4893 H 453.34 3.39465 2.43214 0
M  V30 4894 N 453.777 0.010035 1.57597 0
M  V30 4895 C 454.725 -0.996272 2.10184 0
M  V30 4896 C 455.719 -1.34942 1.02406 0
M  V30 4897 O 456.925 -1.33389 1.20861 0
M  V30 4898 H 453.3 -0.338982 0.671264 0
M  V30 4899 H 455.271 -0.527272 2.93705 0
M  V30 4900 C 454.02 -2.27599 2.62857 0
M  V30 4901 H 453.343 -2.01295 3.45428 0
M  V30 4902 H 454.783 -2.96265 3.0332 0
M  V30 4903 C 453.242 -2.99269 1.54725 0
M  V30 4904 O 453.772 -3.90644 0.93597 0
M  V30 4905 N 451.978 -2.61269 1.27228 0
M  V30 4906 H 451.525 -1.87043 1.77123 0
M  V30 4907 H 451.483 -3.09534 0.550999 0
M  V30 4908 N 455.255 -1.55392 -0.262866 0
M  V30 4909 C 456.504 -1.75679 -0.990943 0
M  V30 4910 C 456.817 -0.57097 -1.87081 0
M  V30 4911 O 458.023 -0.656486 -2.63444 0
M  V30 4912 C 456.479 -3.10964 -1.81188 0
M  V30 4913 C 456.087 -4.37146 -0.980188 0
M  V30 4914 C 457.831 -3.40597 -2.53365 0
M  V30 4915 C 455.738 -5.63466 -1.7961 0
M  V30 4916 H 454.668 -0.654868 -0.373716 0
M  V30 4917 H 457.319 -1.81841 -0.246203 0
M  V30 4918 H 455.701 -2.98867 -2.59797 0
M  V30 4919 H 456.875 -4.60187 -0.237558 0
M  V30 4920 H 455.19 -4.14731 -0.372497 0
M  V30 4921 H 457.787 -4.32186 -3.14833 0
M  V30 4922 H 458.13 -2.6119 -3.24169 0
M  V30 4923 H 458.663 -3.53838 -1.81779 0
M  V30 4924 H 455.402 -6.4565 -1.13209 0
M  V30 4925 H 454.922 -5.44552 -2.51443 0
M  V30 4926 H 456.601 -6.02139 -2.36723 0
M  V30 4927 N 456.733 0.527833 -1.48498 0
M  V30 4928 C 457.961 1.30823 -1.6029 0
M  V30 4929 C 458.376 1.86945 -0.263974 0
M  V30 4930 O 457.733 1.6651 0.747034 0
M  V30 4931 C 457.784 2.45756 -2.65116 0
M  V30 4932 O 457.505 1.91946 -3.93813 0
M  V30 4933 C 459.006 3.37543 -2.87367 0
M  V30 4934 H 456.226 0.397763 -0.540394 0
M  V30 4935 H 458.77 0.636529 -1.94341 0
M  V30 4936 H 456.925 3.08806 -2.33917 0
M  V30 4937 H 457.339 2.67195 -4.51339 0
M  V30 4938 H 458.813 4.14532 -3.6451 0
M  V30 4939 H 459.29 3.92905 -1.9627 0
M  V30 4940 H 459.896 2.80283 -3.19878 0
M  V30 4941 N 458.211 1.37122 0.776871 0
M  V30 4942 C 459.174 1.32301 1.8716 0
M  V30 4943 C 460.174 0.228099 1.59174 0
M  V30 4944 O 461.364 0.483642 1.67352 0
M  V30 4945 C 458.496 1.054 3.24197 0
M  V30 4946 H 459.689 2.29673 1.92848 0
M  V30 4947 H 457.242 1.22077 0.97606 0
M  V30 4948 H 457.977 0.0853872 3.24188 0
M  V30 4949 H 457.762 1.84648 3.45901 0
M  V30 4950 H 459.252 1.04664 4.04271 0
M  V30 4951 N 459.689 -1.00246 1.21608 0
M  V30 4952 C 460.938 -1.73476 1.02902 0
M  V30 4953 C 461.251 -1.90643 -0.437561 0
M  V30 4954 O 462.457 -2.61105 -0.74407 0
M  V30 4955 C 460.913 -3.12079 1.79261 0
M  V30 4956 C 460.521 -3.02877 3.30106 0
M  V30 4957 C 462.265 -3.89421 1.68972 0
M  V30 4958 C 460.172 -4.36575 3.98944 0
M  V30 4959 H 459.102 -0.650408 0.381425 0
M  V30 4960 H 461.753 -1.11985 1.45367 0
M  V30 4961 H 460.135 -3.74196 1.2959 0
M  V30 4962 H 461.309 -2.49983 3.87098 0
M  V30 4963 H 459.624 -2.39022 3.40965 0
M  V30 4964 H 462.221 -4.88362 2.17731 0
M  V30 4965 H 462.564 -4.1122 0.648397 0
M  V30 4966 H 463.097 -3.33963 2.16133 0
M  V30 4967 H 459.836 -4.19978 5.03288 0
M  V30 4968 H 459.356 -4.8942 3.4674 0
M  V30 4969 H 461.035 -5.05364 4.04 0
M  V30 4970 N 461.167 -1.02423 -1.1978 0
M  V30 4971 C 462.583 -0.740459 -1.41384 0
M  V30 4972 C 462.783 0.676827 -1.89793 0
M  V30 4973 O 461.839 1.4435 -2.0717 0
M  V30 4974 C 463.152 -1.77264 -2.42895 0
M  V30 4975 C 464.7 -1.79165 -2.56649 0
M  V30 4976 C 465.175 -2.8133 -3.6141 0
M  V30 4977 N 466.666 -2.80118 -3.68901 0
M  V30 4978 C 467.401 -3.55824 -4.49641 0
M  V30 4979 N 466.897 -4.41231 -5.34123 0
M  V30 4980 N 468.69 -3.44387 -4.44246 0
M  V30 4981 H 460.841 -1.9391 -0.866764 0
M  V30 4982 H 463.104 -0.838074 -0.443098 0
M  V30 4983 H 462.81 -2.7884 -2.14339 0
M  V30 4984 H 462.684 -1.59108 -3.42001 0
M  V30 4985 H 465.071 -0.782702 -2.84531 0
M  V30 4986 H 465.152 -2.01396 -1.57713 0
M  V30 4987 H 464.796 -3.82394 -3.34271 0
M  V30 4988 H 464.726 -2.56359 -4.59986 0
M  V30 4989 H 467.217 -2.1817 -3.08562 0
M  V30 4990 H 467.53 -4.95747 -5.92836 0
M  V30 4991 H 465.875 -4.45306 -5.33599 0
M  V30 4992 H 469.066 -2.7708 -3.77285 0
M  V30 4993 H 469.239 -4.0364 -5.06931 0
M  V30 4994 N 462.645 1.35699 -0.801477 0
M  V30 4995 C 464.061 1.52065 -0.484596 0
M  V30 4996 C 464.261 1.75215 0.995084 0
M  V30 4997 O 463.317 1.79061 1.78026 0
M  V30 4998 C 464.63 2.69908 -1.32552 0
M  V30 4999 C 466.178 2.83784 -1.32044 0
M  V30 5000 C 466.653 4.04646 -2.14536 0
M  V30 5001 N 468.144 4.11814 -2.12046 0
M  V30 5002 C 468.879 5.04437 -2.72636 0
M  V30 5003 N 468.375 6.02426 -3.42133 0
M  V30 5004 N 470.168 4.97144 -2.62305 0
M  V30 5005 H 462.319 1.18928 -1.75983 0
M  V30 5006 H 464.582 0.581455 -0.748741 0
M  V30 5007 H 464.288 2.59363 -2.37537 0
M  V30 5008 H 464.162 3.64376 -0.975181 0
M  V30 5009 H 466.549 2.93783 -0.27846 0
M  V30 5010 H 466.63 1.90188 -1.71062 0
M  V30 5011 H 466.274 3.95407 -3.18772 0
M  V30 5012 H 466.204 4.97413 -1.72882 0
M  V30 5013 H 468.695 3.41664 -1.61476 0
M  V30 5014 H 469.008 6.69688 -3.85666 0
M  V30 5015 H 467.353 6.02615 -3.46237 0
M  V30 5016 H 470.544 4.19546 -2.07603 0
M  V30 5017 H 470.717 5.69138 -3.09815 0
M  V30 5018 N 464.123 0.554532 1.47522 0
M  V30 5019 C 465.369 0.0295227 2.02779 0
M  V30 5020 C 465.702 -1.31582 1.42828 0
M  V30 5021 O 464.977 -1.85561 0.582872 0
M  V30 5022 C 465.26 -0.0664057 3.60039 0
M  V30 5023 C 465.113 1.30585 4.30427 0
M  V30 5024 C 466.432 -0.781162 4.33112 0
M  V30 5025 H 463.551 0.0122027 0.736899 0
M  V30 5026 H 466.193 0.716305 1.7598 0
M  V30 5027 H 464.343 -0.651307 3.83002 0
M  V30 5028 H 466.015 1.93374 4.18813 0
M  V30 5029 H 464.258 1.88125 3.90886 0
M  V30 5030 H 464.929 1.19147 5.38988 0
M  V30 5031 H 467.405 -0.284565 4.15126 0
M  V30 5032 H 466.281 -0.817237 5.42782 0
M  V30 5033 H 466.542 -1.83672 4.0214 0
M  V30 5034 N 465.601 -1.54893 0.290851 0
M  V30 5035 C 467.017 -1.59476 -0.0628432 0
M  V30 5036 C 467.217 -1.30795 -1.5328 0
M  V30 5037 O 466.273 -1.07644 -2.28406 0
M  V30 5038 C 467.586 -2.98928 0.325962 0
M  V30 5039 C 469.134 -3.11799 0.273882 0
M  V30 5040 C 469.609 -4.53544 0.637359 0
M  V30 5041 N 471.1 -4.59433 0.589507 0
M  V30 5042 C 471.835 -5.67164 0.84335 0
M  V30 5043 N 471.331 -6.82975 1.16263 0
M  V30 5044 N 473.124 -5.56786 0.771091 0
M  V30 5045 H 465.275 -1.71798 1.24896 0
M  V30 5046 H 467.538 -0.801879 0.505663 0
M  V30 5047 H 467.244 -3.24805 1.34887 0
M  V30 5048 H 467.118 -3.75793 -0.325441 0
M  V30 5049 H 469.505 -2.85677 -0.739765 0
M  V30 5050 H 469.586 -2.37112 0.959766 0
M  V30 5051 H 469.23 -4.80394 1.64877 0
M  V30 5052 H 469.16 -5.26553 -0.0704866 0
M  V30 5053 H 471.651 -3.76245 0.353252 0
M  V30 5054 H 471.964 -7.61048 1.34257 0
M  V30 5055 H 470.309 -6.84552 1.20057 0
M  V30 5056 H 473.5 -4.65187 0.521383 0
M  V30 5057 H 473.673 -6.40664 0.972295 0
M  V30 5058 N 467.08 -0.0183926 -1.57589 0
M  V30 5059 C 468.027 0.967022 -2.09565 0
M  V30 5060 C 468.997 1.32983 -0.995225 0
M  V30 5061 O 470.182 1.42501 -1.26878 0
M  V30 5062 C 467.322 2.24772 -2.61861 0
M  V30 5063 C 466.435 1.94232 -3.85873 0
M  V30 5064 C 465.57 3.16518 -4.26603 0
M  V30 5065 C 464.609 2.81748 -5.43401 0
M  V30 5066 N 463.746 3.96626 -5.79338 0
M  V30 5067 H 468.586 0.516874 -2.93483 0
M  V30 5068 H 466.123 0.243544 -1.4507 0
M  V30 5069 H 468.081 2.99667 -2.90268 0
M  V30 5070 H 466.711 2.67423 -1.8079 0
M  V30 5071 H 465.763 1.09625 -3.64262 0
M  V30 5072 H 467.075 1.64616 -4.70853 0
M  V30 5073 H 466.229 3.99743 -4.56389 0
M  V30 5074 H 464.968 3.49286 -3.40368 0
M  V30 5075 H 463.973 1.96933 -5.1332 0
M  V30 5076 H 465.198 2.50207 -6.31327 0
M  V30 5077 H 463.144 4.29257 -4.96059 0
M  V30 5078 H 463.061 3.70598 -6.58933 0
M  V30 5079 H 464.329 4.80586 -6.13724 0
M  V30 5080 N 468.558 1.5553 0.254621 0
M  V30 5081 C 469.786 1.81046 1.00149 0
M  V30 5082 C 470.201 0.593047 1.79244 0
M  V30 5083 O 469.558 -0.438196 1.77161 0
M  V30 5084 C 469.609 3.04684 1.94551 0
M  V30 5085 O 469.33 4.21725 1.18658 0
M  V30 5086 C 470.831 3.42943 2.80901 0
M  V30 5087 H 468.051 0.602653 0.295044 0
M  V30 5088 H 470.595 2.02576 0.279842 0
M  V30 5089 H 468.75 2.85226 2.62154 0
M  V30 5090 H 469.164 4.91746 1.82445 0
M  V30 5091 H 470.638 4.32576 3.42902 0
M  V30 5092 H 471.115 2.63176 3.51617 0
M  V30 5093 H 471.721 3.64724 2.18762 0
M  V30 5094 N 470.036 -0.519951 1.48776 0
M  V30 5095 C 471.313 -1.28123 1.47797 0
M  V30 5096 C 471.693 -2.10196 0.195157 0
M  V30 5097 O 471.041 -2.13167 -0.822925 0
M  V30 5098 C 471.251 -2.15413 2.74587 0
M  V30 5099 C 472.599 -2.75225 3.23321 0
M  V30 5100 O 473.623 -2.25694 2.75574 0
M  V30 5101 O 472.482 -3.65346 4.06429 0
M  V30 5102 H 469.576 -0.578793 0.590701 0
M  V30 5103 H 472.122 -0.535779 1.6102 0
M  V30 5104 H 470.894 -1.54617 3.59457 0
M  V30 5105 H 470.517 -2.97186 2.64132 0
M  V30 5106 N 471.514 -1.37532 -0.769588 0
M  V30 5107 C 472.462 -1.33561 -1.90432 0
M  V30 5108 C 473.456 -0.224027 -1.67912 0
M  V30 5109 O 474.662 -0.392174 -1.75676 0
M  V30 5110 H 471.037 -0.416279 -0.626271 0
M  V30 5111 H 473.008 -2.29348 -1.90899 0
M  V30 5112 C 471.757 -1.16162 -3.27722 0
M  V30 5113 H 471.08 -2.00951 -3.45628 0
M  V30 5114 H 472.52 -1.17434 -4.07413 0
M  V30 5115 C 470.979 0.132583 -3.36639 0
M  V30 5116 O 471.509 1.11539 -3.85904 0
M  V30 5117 N 469.715 0.184013 -2.90017 0
M  V30 5118 H 469.262 -0.616415 -2.50116 0
M  V30 5119 H 469.22 1.04956 -2.96364 0
M  V30 5120 N 472.992 0.995999 -1.22138 0
M  V30 5121 C 473.94 2.10673 -0.985876 0
M  V30 5122 C 474.934 1.69255 0.0699553 0
M  V30 5123 O 476.14 1.79812 -0.0822176 0
M  V30 5124 H 472.515 0.688865 -0.30161 0
M  V30 5125 H 474.486 2.27711 -1.92848 0
M  V30 5126 C 473.235 3.42881 -0.576909 0
M  V30 5127 H 472.558 3.75191 -1.38101 0
M  V30 5128 H 473.998 4.21589 -0.451518 0
M  V30 5129 C 472.457 3.29265 0.713196 0
M  V30 5130 O 472.987 3.60777 1.76643 0
M  V30 5131 N 471.193 2.82456 0.683162 0
M  V30 5132 H 470.74 2.5701 -0.174242 0
M  V30 5133 H 470.698 2.73727 1.54663 0
M  V30 5134 N 474.47 1.03057 1.19235 0
M  V30 5135 C 475.886 0.747947 1.40989 0
M  V30 5136 C 476.086 -0.666752 1.90149 0
M  V30 5137 O 475.142 -1.43249 2.07933 0
M  V30 5138 C 476.455 1.7855 2.41951 0
M  V30 5139 C 478.003 1.80524 2.55695 0
M  V30 5140 C 478.478 2.83243 3.59913 0
M  V30 5141 N 479.969 2.8207 3.67411 0
M  V30 5142 C 480.704 3.58204 4.47747 0
M  V30 5143 N 480.2 4.44057 5.31775 0
M  V30 5144 N 481.993 3.46738 4.42413 0
M  V30 5145 H 474.144 1.94367 0.856468 0
M  V30 5146 H 476.407 0.840412 0.438647 0
M  V30 5147 H 476.113 2.79973 2.12857 0
M  V30 5148 H 475.987 1.6092 3.41152 0
M  V30 5149 H 478.374 0.79778 2.84112 0
M  V30 5150 H 478.455 2.02229 1.56643 0
M  V30 5151 H 478.099 3.84161 3.32239 0
M  V30 5152 H 478.029 2.58795 4.5862 0
M  V30 5153 H 480.52 2.19803 3.074 0
M  V30 5154 H 480.833 4.98884 5.90199 0
M  V30 5155 H 479.178 4.48129 5.3123 0
M  V30 5156 H 482.369 2.79077 3.75811 0
M  V30 5157 H 482.542 4.06322 5.04783 0
M  V30 5158 N 475.948 -1.35272 0.808662 0
M  V30 5159 C 477.197 -1.97963 0.386483 0
M  V30 5160 C 477.51 -1.64866 -1.05255 0
M  V30 5161 O 478.716 -2.20937 -1.57794 0
M  V30 5162 C 477.172 -3.54162 0.640096 0
M  V30 5163 C 476.78 -3.96166 2.0918 0
M  V30 5164 C 478.524 -4.23553 0.283376 0
M  V30 5165 C 476.431 -5.4522 2.29106 0
M  V30 5166 H 475.361 -0.740742 0.140774 0
M  V30 5167 H 478.012 -1.5431 0.993012 0
M  V30 5168 H 476.394 -3.95983 -0.0364117 0
M  V30 5169 H 477.568 -3.65491 2.80629 0
M  V30 5170 H 475.883 -3.3967 2.40859 0
M  V30 5171 H 478.48 -5.33124 0.410273 0
M  V30 5172 H 478.823 -4.09105 -0.770659 0
M  V30 5173 H 479.356 -3.8716 0.913884 0
M  V30 5174 H 476.095 -5.64638 3.32962 0
M  V30 5175 H 475.615 -5.77457 1.62184 0
M  V30 5176 H 477.294 -6.1171 2.1076 0
M  V30 5177 N 477.426 -0.562348 -1.47226 0
M  V30 5178 C 478.389 0.172056 -2.28553 0
M  V30 5179 C 479.389 0.837928 -1.37242 0
M  V30 5180 O 480.579 0.693001 -1.59822 0
M  V30 5181 C 477.711 1.25223 -3.17068 0
M  V30 5182 H 478.904 -0.542401 -2.94954 0
M  V30 5183 H 476.457 -0.319493 -1.53 0
M  V30 5184 H 477.192 1.99892 -2.55369 0
M  V30 5185 H 476.977 0.779515 -3.84273 0
M  V30 5186 H 478.467 1.76791 -3.78332 0
M  V30 5187 N 478.904 1.54736 -0.299062 0
M  V30 5188 C 480.32 1.59507 0.0543849 0
M  V30 5189 C 480.52 1.31606 1.52585 0
M  V30 5190 O 479.576 1.08853 2.27832 0
M  V30 5191 C 480.889 2.98751 -0.34181 0
M  V30 5192 C 482.437 3.1165 -0.290414 0
M  V30 5193 C 482.912 4.53199 -0.661402 0
M  V30 5194 N 484.403 4.59114 -0.613863 0
M  V30 5195 C 485.138 5.66709 -0.873417 0
M  V30 5196 N 484.634 6.82349 -1.19884 0
M  V30 5197 N 486.427 5.56369 -0.800608 0
M  V30 5198 H 478.578 1.71133 -1.25806 0
M  V30 5199 H 480.841 0.799186 -0.509908 0
M  V30 5200 H 480.547 3.24085 -1.36608 0
M  V30 5201 H 480.421 3.75961 0.305508 0
M  V30 5202 H 482.808 2.86066 0.724605 0
M  V30 5203 H 482.889 2.366 -0.972327 0
M  V30 5204 H 482.533 4.79513 -1.67422 0
M  V30 5205 H 482.463 5.26583 0.0425612 0
M  V30 5206 H 484.954 3.76053 -0.3732 0
M  V30 5207 H 485.267 7.60326 -1.38291 0
M  V30 5208 H 483.612 6.83906 -1.23685 0
M  V30 5209 H 486.803 4.64904 -0.546045 0
M  V30 5210 H 486.976 6.40139 -1.00626 0
M  V30 5211 N 480.382 0.0267497 1.57577 0
M  V30 5212 C 481.345 -0.940916 2.08996 0
M  V30 5213 C 482.345 -1.25561 1.00455 0
M  V30 5214 O 483.535 -1.19634 1.26623 0
M  V30 5215 C 480.667 -2.25814 2.55384 0
M  V30 5216 H 481.86 -0.495628 2.95776 0
M  V30 5217 H 479.413 -0.221241 1.54726 0
M  V30 5218 H 480.148 -2.74976 1.71926 0
M  V30 5219 H 479.933 -2.04285 3.34679 0
M  V30 5220 H 481.423 -2.95178 2.95398 0
M  V30 5221 N 481.861 -1.55662 -0.24637 0
M  V30 5222 C 483.101 -1.79283 -0.981685 0
M  V30 5223 C 483.465 -0.596356 -1.82504 0
M  V30 5224 O 484.666 -0.711342 -2.59217 0
M  V30 5225 C 482.937 -3.07648 -1.819 0
M  V30 5226 S 484.496 -3.52491 -2.61334 0
M  V30 5227 H 481.314 -0.629676 -0.330196 0
M  V30 5228 H 483.916 -1.93901 -0.249498 0
M  V30 5229 H 482.62 -3.92794 -1.18915 0
M  V30 5230 H 482.151 -2.95768 -2.59393 0
M  V30 5231 H 484.166 -3.13866 -3.84321 0
M  V30 5232 N 483.339 0.512053 -1.4905 0
M  V30 5233 C 484.587 1.26436 -1.57665 0
M  V30 5234 C 484.908 1.93255 -0.260293 0
M  V30 5235 O 484.178 1.82206 0.719564 0
M  V30 5236 H 482.758 0.469658 -0.580888 0
M  V30 5237 H 485.42 0.594398 -1.85615 0
M  V30 5238 H 484.516 2.03417 -2.36702 0
M  V30 5239 N 484.817 1.37938 0.762283 0
M  V30 5240 C 485.78 1.34279 1.85747 0
M  V30 5241 C 486.78 0.244969 1.58923 0
M  V30 5242 O 487.97 0.501365 1.66829 0
M  V30 5243 C 485.102 1.08833 3.23061 0
M  V30 5244 H 486.295 2.31705 1.90401 0
M  V30 5245 H 483.848 1.23105 0.963057 0
M  V30 5246 H 484.583 0.119767 3.24079 0
M  V30 5247 H 484.368 1.88306 3.43923 0
M  V30 5248 H 485.858 1.08946 4.03138 0
M  V30 5249 N 486.295 -0.989507 1.22664 0
M  V30 5250 C 487.711 -1.25395 0.987331 0
M  V30 5251 C 487.911 -1.9899 -0.317056 0
M  V30 5252 O 486.967 -2.30141 -1.03882 0
M  V30 5253 C 488.28 -2.06242 2.18826 0
M  V30 5254 C 489.828 -2.19413 2.23219 0
M  V30 5255 C 490.303 -3.03648 3.42873 0
M  V30 5256 N 491.794 -3.11234 3.43056 0
M  V30 5257 C 492.529 -3.7671 4.32293 0
M  V30 5258 N 492.025 -4.44085 5.31752 0
M  V30 5259 N 493.818 -3.73505 4.2006 0
M  V30 5260 H 485.969 -0.496212 2.06522 0
M  V30 5261 H 488.232 -0.281784 0.905153 0
M  V30 5262 H 487.938 -1.59531 3.13437 0
M  V30 5263 H 487.812 -3.06996 2.19165 0
M  V30 5264 H 490.199 -2.65336 1.29154 0
M  V30 5265 H 490.28 -1.18078 2.26917 0
M  V30 5266 H 489.924 -2.58424 4.37241 0
M  V30 5267 H 489.854 -4.05132 3.36416 0
M  V30 5268 H 492.345 -2.63287 2.71088 0
M  V30 5269 H 492.658 -4.91797 5.96117 0
M  V30 5270 H 491.003 -4.42822 5.35662 0
M  V30 5271 H 494.194 -3.20033 3.41609 0
M  V30 5272 H 494.367 -4.24253 4.8981 0
M  V30 5273 N 487.773 -1.03688 -1.18687 0
M  V30 5274 C 489.022 -0.733235 -1.879 0
M  V30 5275 C 489.335 0.741745 -1.8099 0
M  V30 5276 O 490.541 1.15875 -2.4553 0
M  V30 5277 C 488.997 -1.26127 -3.37076 0
M  V30 5278 C 488.605 -2.76461 -3.52524 0
M  V30 5279 C 490.349 -1.03398 -4.11715 0
M  V30 5280 C 488.256 -3.22642 -4.95637 0
M  V30 5281 H 487.186 -0.270584 -0.703776 0
M  V30 5282 H 489.837 -1.25222 -1.34133 0
M  V30 5283 H 488.219 -0.670165 -3.90288 0
M  V30 5284 H 489.393 -3.41296 -3.09602 0
M  V30 5285 H 487.708 -2.97559 -2.91286 0
M  V30 5286 H 490.305 -1.3542 -5.17267 0
M  V30 5287 H 490.648 0.0289246 -4.1629 0
M  V30 5288 H 491.181 -1.5895 -3.64664 0
M  V30 5289 H 487.92 -4.28296 -4.96228 0
M  V30 5290 H 487.44 -2.62539 -5.39289 0
M  V30 5291 H 489.119 -3.16444 -5.64333 0
M  V30 5292 N 489.251 1.34841 -0.815825 0
M  V30 5293 C 490.497 1.98793 -0.401129 0
M  V30 5294 C 490.83 1.64548 1.03139 0
M  V30 5295 O 490.105 0.913487 1.71714 0
M  V30 5296 C 490.388 3.55143 -0.595409 0
M  V30 5297 C 490.241 3.99155 -2.07352 0
M  V30 5298 C 491.56 4.40092 -0.0268823 0
M  V30 5299 H 488.679 0.722146 -0.14722 0
M  V30 5300 H 491.321 1.59847 -1.02707 0
M  V30 5301 H 489.471 3.8845 -0.0625779 0
M  V30 5302 H 491.143 3.76216 -2.66945 0
M  V30 5303 H 489.386 3.49726 -2.56659 0
M  V30 5304 H 490.057 5.07971 -2.1603 0
M  V30 5305 H 492.533 4.13298 -0.482042 0
M  V30 5306 H 491.409 5.48562 -0.19267 0
M  V30 5307 H 491.67 4.29016 1.06759 0
M  V30 5308 N 490.729 0.570148 1.46925 0
M  V30 5309 C 491.954 0.0542592 2.07329 0
M  V30 5310 C 492.379 -1.23582 1.41806 0
M  V30 5311 O 491.737 -1.74341 0.497479 0
M  V30 5312 C 491.785 -0.111175 3.60429 0
M  V30 5313 O 490.889 -1.17071 3.95434 0
M  V30 5314 H 490.23 0.0571425 0.661537 0
M  V30 5315 H 492.76 0.789516 1.88753 0
M  V30 5316 H 492.77 -0.321315 4.06733 0
M  V30 5317 H 491.445 0.831012 4.07513 0
M  V30 5318 H 490.022 -0.940029 3.60857 0
M  V30 5319 N 492.207 -1.54576 0.307264 0
M  V30 5320 C 493.623 -1.59534 -0.0459251 0
M  V30 5321 C 493.823 -1.32414 -1.51884 0
M  V30 5322 O 492.879 -1.1006 -2.27251 0
M  V30 5323 C 494.192 -2.98566 0.357649 0
M  V30 5324 C 495.74 -3.11491 0.306937 0
M  V30 5325 C 496.215 -4.52842 0.685427 0
M  V30 5326 N 497.706 -4.58782 0.638203 0
M  V30 5327 C 498.441 -5.66238 0.903458 0
M  V30 5328 N 497.937 -6.81703 1.23501 0
M  V30 5329 N 499.73 -5.55937 0.830102 0
M  V30 5330 H 491.881 -1.70464 1.26712 0
M  V30 5331 H 494.144 -0.79647 0.514139 0
M  V30 5332 H 493.85 -3.23356 1.38325 0
M  V30 5333 H 493.724 -3.76117 -0.285565 0
M  V30 5334 H 496.111 -2.86446 -0.709424 0
M  V30 5335 H 496.192 -2.36081 0.984861 0
M  V30 5336 H 495.836 -4.78618 1.69963 0
M  V30 5337 H 495.766 -5.26598 -0.0146346 0
M  V30 5338 H 498.257 -3.75849 0.393138 0
M  V30 5339 H 498.57 -7.59582 1.42322 0
M  V30 5340 H 496.915 -6.8324 1.27311 0
M  V30 5341 H 500.106 -4.64608 0.570693 0
M  V30 5342 H 500.279 -6.39597 1.04019 0
M  V30 5343 N 493.685 -0.035106 -1.57561 0
M  V30 5344 C 495.096 0.502885 -1.798 0
M  V30 5345 C 495.447 1.71892 -0.945921 0
M  V30 5346 O 494.572 2.15822 -0.157991 0
M  V30 5347 C 495.167 0.919097 -3.26095 0
M  V30 5348 C 493.726 1.40216 -3.49308 0
M  V30 5349 C 492.873 0.369709 -2.74824 0
M  V30 5350 H 495.824 -0.261102 -1.56537 0
M  V30 5351 H 495.845 1.78308 -3.36135 0
M  V30 5352 H 495.357 0.0338526 -3.88085 0
M  V30 5353 H 493.458 2.30714 -2.92578 0
M  V30 5354 H 493.571 1.40541 -4.58023 0
M  V30 5355 H 491.935 0.839113 -2.40481 0
M  V30 5356 H 492.718 -0.507173 -3.39533 0
M  V30 5357 N 495.163 1.55791 0.238111 0
M  V30 5358 C 496.073 1.94196 1.31625 0
M  V30 5359 C 497.089 0.843545 1.52185 0
M  V30 5360 O 498.265 1.1457 1.65637 0
M  V30 5361 C 495.33 2.2365 2.64918 0
M  V30 5362 C 494.391 3.46971 2.52804 0
M  V30 5363 C 493.624 3.7501 3.79741 0
M  V30 5364 O 493.847 3.04982 4.82019 0
M  V30 5365 O 492.781 4.68525 3.77846 0
M  V30 5366 H 496.607 2.86044 1.02043 0
M  V30 5367 H 494.192 1.42786 0.439603 0
M  V30 5368 H 496.074 2.43863 3.4367 0
M  V30 5369 H 494.749 1.34979 2.94215 0
M  V30 5370 H 493.656 3.32055 1.72309 0
M  V30 5371 H 494.989 4.35971 2.28451 0
M  V30 5372 N 496.642 -0.504142 1.49319 0
M  V30 5373 C 497.552 -1.63248 1.68486 0
M  V30 5374 C 498.568 -1.64488 0.567432 0
M  V30 5375 O 499.744 -1.82966 0.841749 0
M  V30 5376 C 496.809 -2.99627 1.74426 0
M  V30 5377 C 495.87 -3.09039 2.97982 0
M  V30 5378 C 495.103 -4.38913 3.0363 0
M  V30 5379 O 495.326 -5.27528 2.16958 0
M  V30 5380 O 494.26 -4.53231 3.96062 0
M  V30 5381 H 498.086 -1.50008 2.64067 0
M  V30 5382 H 495.671 -0.680086 1.33023 0
M  V30 5383 H 497.553 -3.80689 1.80705 0
M  V30 5384 H 496.228 -3.13136 0.820233 0
M  V30 5385 H 495.135 -2.27177 2.97223 0
M  V30 5386 H 496.468 -3.00456 3.89855 0
M  V30 5387 N 498.12 -1.38341 -0.754957 0
M  V30 5388 C 499.05 -1.38176 -1.88227 0
M  V30 5389 C 500.031 -0.247873 -1.68284 0
M  V30 5390 O 501.216 -0.45075 -1.88896 0
M  V30 5391 C 498.346 -1.20471 -3.25736 0
M  V30 5392 C 497.3 -2.3105 -3.60278 0
M  V30 5393 C 496.626 -1.98452 -4.96509 0
M  V30 5394 C 497.926 -3.73305 -3.65295 0
M  V30 5395 H 499.62 -2.32512 -1.88622 0
M  V30 5396 H 497.166 -1.1192 -0.906082 0
M  V30 5397 H 499.119 -1.18982 -4.04254 0
M  V30 5398 H 497.843 -0.225965 -3.25817 0
M  V30 5399 H 496.502 -2.31723 -2.84078 0
M  V30 5400 H 496.15 -0.990641 -4.93148 0
M  V30 5401 H 495.85 -2.7251 -5.20588 0
M  V30 5402 H 497.374 -1.98578 -5.77407 0
M  V30 5403 H 498.788 -3.7467 -4.3393 0
M  V30 5404 H 497.185 -4.46557 -4.00883 0
M  V30 5405 H 498.255 -4.05719 -2.65556 0
M  V30 5406 N 499.598 0.982988 -1.23187 0
M  V30 5407 C 501.014 1.2487 -0.993967 0
M  V30 5408 C 501.214 1.99155 0.306498 0
M  V30 5409 O 500.27 2.30688 1.0266 0
M  V30 5410 C 501.583 2.05078 -2.19917 0
M  V30 5411 C 503.131 2.18227 -2.2438 0
M  V30 5412 C 503.606 3.01825 -3.44479 0
M  V30 5413 N 505.097 3.09411 -3.44702 0
M  V30 5414 C 505.832 3.74412 -4.34285 0
M  V30 5415 N 505.328 4.41259 -5.341 0
M  V30 5416 N 507.121 3.71273 -4.22035 0
M  V30 5417 H 499.272 0.485253 -2.06783 0
M  V30 5418 H 501.535 0.276979 -0.906635 0
M  V30 5419 H 501.241 1.57867 -3.14279 0
M  V30 5420 H 501.115 3.05829 -2.2079 0
M  V30 5421 H 503.502 2.64648 -1.30559 0
M  V30 5422 H 503.583 1.16873 -2.2754 0
M  V30 5423 H 503.227 2.56102 -4.38605 0
M  V30 5424 H 503.157 4.03342 -3.38559 0
M  V30 5425 H 505.648 2.61845 -2.7248 0
M  V30 5426 H 505.961 4.88629 -5.98717 0
M  V30 5427 H 504.306 4.39975 -5.38002 0
M  V30 5428 H 507.497 3.18217 -3.43301 0
M  V30 5429 H 507.67 4.21649 -4.92053 0
M  V30 5430 N 501.076 1.04316 1.18135 0
M  V30 5431 C 501.986 0.646876 2.25505 0
M  V30 5432 C 503.002 -0.328008 1.7088 0
M  V30 5433 O 504.178 -0.182309 2.00573 0
M  V30 5434 C 501.243 0.0185664 3.46695 0
M  V30 5435 C 500.304 1.04277 4.16443 0
M  V30 5436 C 499.537 0.444352 5.31847 0
M  V30 5437 O 499.76 -0.748735 5.65465 0
M  V30 5438 O 498.694 1.17428 5.90334 0
M  V30 5439 H 502.52 1.54147 2.61672 0
M  V30 5440 H 500.105 0.814188 1.25265 0
M  V30 5441 H 501.987 -0.331068 4.20097 0
M  V30 5442 H 500.662 -0.849814 3.12346 0
M  V30 5443 H 499.569 1.44425 3.45098 0
M  V30 5444 H 500.902 1.882 4.54798 0
M  V30 5445 N 502.554 -1.34406 0.822964 0
M  V30 5446 C 503.831 -1.92733 0.333641 0
M  V30 5447 C 504.211 -1.75107 -1.17901 0
M  V30 5448 O 503.559 -1.12983 -1.98613 0
M  V30 5449 C 503.769 -3.40557 0.763023 0
M  V30 5450 C 505.117 -4.17709 0.761879 0
M  V30 5451 O 506.141 -3.49141 0.705606 0
M  V30 5452 O 505 -5.40082 0.835109 0
M  V30 5453 H 502.094 -0.821964 0.0911249 0
M  V30 5454 H 504.64 -1.4338 0.907757 0
M  V30 5455 H 503.412 -3.47187 1.8049 0
M  V30 5456 H 503.035 -3.97259 0.164605 0
M  V30 5457 N 504.032 -0.577932 -1.46621 0
M  V30 5458 C 505.309 0.00495287 -1.95599 0
M  V30 5459 C 505.689 1.46428 -1.5206 0
M  V30 5460 O 505.037 2.1517 -0.769046 0
M  V30 5461 C 505.247 -0.162114 -3.48623 0
M  V30 5462 C 506.595 -0.0274623 -4.24591 0
M  V30 5463 O 507.619 -0.0907067 -3.56084 0
M  V30 5464 O 506.478 0.1122 -5.46385 0
M  V30 5465 H 503.572 0.0525057 -0.825332 0
M  V30 5466 H 506.118 -0.645914 -1.56927 0
M  V30 5467 H 504.89 -1.17679 -3.73185 0
M  V30 5468 H 504.513 0.525407 -3.94113 0
M  V30 5469 N 505.51 1.54411 -0.315457 0
M  V30 5470 C 506.756 2.00716 0.289972 0
M  V30 5471 C 507.089 1.2034 1.5242 0
M  V30 5472 O 506.364 0.283579 1.92422 0
M  V30 5473 C 506.647 3.54507 0.632196 0
M  V30 5474 C 506.5 4.45615 -0.61218 0
M  V30 5475 C 507.819 4.15421 1.45305 0
M  V30 5476 H 504.938 0.729637 0.10392 0
M  V30 5477 H 507.58 1.8506 -0.430427 0
M  V30 5478 H 505.73 3.67979 1.24595 0
M  V30 5479 H 507.402 4.44026 -1.25053 0
M  V30 5480 H 505.645 4.15621 -1.24264 0
M  V30 5481 H 506.316 5.51022 -0.328379 0
M  V30 5482 H 508.792 4.05474 0.934331 0
M  V30 5483 H 507.668 5.23157 1.66127 0
M  V30 5484 H 507.929 3.68223 2.44671 0
M  V30 5485 N 506.988 0.0434614 1.5754 0
M  V30 5486 C 508.236 -0.630786 1.92004 0
M  V30 5487 C 508.557 -1.71836 0.921807 0
M  V30 5488 O 507.827 -1.9587 -0.034522 0
M  V30 5489 H 506.407 -0.235988 0.708745 0
M  V30 5490 H 509.069 0.0946462 1.9467 0
M  V30 5491 H 508.165 -1.07434 2.93026 0
M  V30 5492 N 508.466 -1.55915 -0.229846 0
M  V30 5493 C 509.694 -1.82617 -0.972562 0
M  V30 5494 C 510.109 -0.621488 -1.78278 0
M  V30 5495 O 509.466 0.409956 -1.77836 0
M  V30 5496 C 509.517 -3.0774 -1.89679 0
M  V30 5497 O 509.238 -4.23559 -1.11934 0
M  V30 5498 C 510.739 -3.47368 -2.75409 0
M  V30 5499 H 507.959 -0.60727 -0.285419 0
M  V30 5500 H 510.503 -2.02996 -0.247579 0
M  V30 5501 H 508.658 -2.89361 -2.57583 0
M  V30 5502 H 509.072 -4.94586 -1.74599 0
M  V30 5503 H 510.546 -4.37977 -3.35977 0
M  V30 5504 H 511.023 -2.68737 -3.47386 0
M  V30 5505 H 511.629 -3.68158 -2.12931 0
M  V30 5506 N 509.944 0.496216 -1.49584 0
M  V30 5507 C 511.192 1.24756 -1.58998 0
M  V30 5508 C 511.513 1.92968 -0.280775 0
M  V30 5509 O 510.783 1.82959 0.700198 0
M  V30 5510 H 509.363 0.463471 -0.585836 0
M  V30 5511 H 512.025 0.574678 -1.86235 0
M  V30 5512 H 511.121 2.00895 -2.38847 0
M  V30 5513 N 511.423 1.38739 0.74761 0
M  V30 5514 C 512.386 1.36241 1.84312 0
M  V30 5515 C 513.386 0.261811 1.58654 0
M  V30 5516 O 514.576 0.519031 1.66288 0
M  V30 5517 C 511.708 1.12253 3.21888 0
M  V30 5518 H 512.901 2.33712 1.87933 0
M  V30 5519 H 510.454 1.2412 0.949946 0
M  V30 5520 H 511.189 0.154133 3.23934 0
M  V30 5521 H 510.974 1.91943 3.41907 0
M  V30 5522 H 512.464 1.13215 4.0196 0
M  V30 5523 N 512.901 -0.976442 1.23707 0
M  V30 5524 C 514.149 -1.71487 1.06942 0
M  V30 5525 C 514.47 -1.9098 -0.393897 0
M  V30 5526 O 513.74 -1.48128 -1.28198 0
M  V30 5527 H 512.32 -0.635425 0.392739 0
M  V30 5528 H 514.982 -1.17515 1.55487 0
M  V30 5529 H 514.078 -2.70286 1.56051 0
M  V30 5530 N 514.379 -1.04941 -1.1758 0
M  V30 5531 C 515.309 -0.669172 -2.23706 0
M  V30 5532 C 516.29 0.331835 -1.66832 0
M  V30 5533 O 517.475 0.209988 -1.93061 0
M  V30 5534 C 514.605 -0.0404889 -3.47276 0
M  V30 5535 C 513.559 -0.965983 -4.16957 0
M  V30 5536 C 512.885 -0.201312 -5.34321 0
M  V30 5537 C 514.185 -2.28902 -4.69469 0
M  V30 5538 H 515.879 -1.55639 -2.55767 0
M  V30 5539 H 513.425 -0.749793 -1.22939 0
M  V30 5540 H 515.378 0.237298 -4.20731 0
M  V30 5541 H 514.102 0.881658 -3.14475 0
M  V30 5542 H 512.761 -1.22829 -3.45411 0
M  V30 5543 H 512.409 0.723519 -4.97769 0
M  V30 5544 H 512.109 -0.817968 -5.81879 0
M  V30 5545 H 513.633 0.0692499 -6.10561 0
M  V30 5546 H 515.047 -2.07132 -5.34574 0
M  V30 5547 H 513.444 -2.85942 -5.27596 0
M  V30 5548 H 514.514 -2.92937 -3.86414 0
M  V30 5549 N 515.857 1.33968 -0.830081 0
M  V30 5550 C 516.787 2.31911 -0.271911 0
M  V30 5551 C 517.768 1.58571 0.61556 0
M  V30 5552 O 518.953 1.86514 0.540946 0
M  V30 5553 C 516.083 3.42737 0.561146 0
M  V30 5554 C 515.037 4.27383 -0.229789 0
M  V30 5555 C 514.363 5.29742 0.726463 0
M  V30 5556 C 515.663 5.02 -1.44197 0
M  V30 5557 H 517.357 2.78844 -1.09025 0
M  V30 5558 H 514.903 1.34061 -0.52571 0
M  V30 5559 H 516.856 4.10276 0.961867 0
M  V30 5560 H 515.58 2.94471 1.41261 0
M  V30 5561 H 514.239 3.61456 -0.611964 0
M  V30 5562 H 513.887 4.77736 1.57408 0
M  V30 5563 H 513.587 5.87255 0.20142 0
M  V30 5564 H 515.111 6.00149 1.12489 0
M  V30 5565 H 516.525 5.62355 -1.11488 0
M  V30 5566 H 514.922 5.69122 -1.90317 0
M  V30 5567 H 515.992 4.31281 -2.2164 0
M  V30 5568 N 517.335 0.585699 1.46312 0
M  V30 5569 C 518.245 -0.148236 2.34131 0
M  V30 5570 C 519.261 -0.882972 1.49932 0
M  V30 5571 O 520.437 -0.845484 1.82794 0
M  V30 5572 C 517.502 -1.14714 3.27172 0
M  V30 5573 C 516.563 -0.416746 4.27272 0
M  V30 5574 C 515.796 -1.36806 5.15868 0
M  V30 5575 O 516.019 -2.60475 5.07454 0
M  V30 5576 O 514.953 -0.877018 5.95476 0
M  V30 5577 H 518.779 0.572882 2.98248 0
M  V30 5578 H 516.364 0.346082 1.45336 0
M  V30 5579 H 518.246 -1.72303 3.84564 0
M  V30 5580 H 516.921 -1.84967 2.65648 0
M  V30 5581 H 515.828 0.201061 3.73559 0
M  V30 5582 H 517.161 0.244872 4.9159 0
M  V30 5583 N 518.813 -1.54241 0.323641 0
M  V30 5584 C 520.062 -1.9975 -0.279806 0
M  V30 5585 C 520.375 -1.2156 -1.5324 0
M  V30 5586 O 521.581 -1.57447 -2.21185 0
M  V30 5587 C 520.037 -3.55686 -0.549115 0
M  V30 5588 C 519.645 -4.4271 0.686432 0
M  V30 5589 C 521.389 -4.09663 -1.11251 0
M  V30 5590 C 519.296 -5.90119 0.389022 0
M  V30 5591 H 518.226 -0.746177 -0.10833 0
M  V30 5592 H 520.877 -1.78248 0.435877 0
M  V30 5593 H 519.259 -3.73176 -1.32499 0
M  V30 5594 H 520.433 -4.36996 1.46188 0
M  V30 5595 H 518.748 -3.99623 1.17005 0
M  V30 5596 H 521.345 -5.17386 -1.34965 0
M  V30 5597 H 521.688 -3.61651 -2.06191 0
M  V30 5598 H 522.221 -3.95806 -0.39782 0
M  V30 5599 H 518.96 -6.42326 1.30759 0
M  V30 5600 H 518.48 -5.98785 -0.348722 0
M  V30 5601 H 520.159 -6.47 -0.0011164 0
M  V30 5602 N 520.291 -0.0518155 -1.57515 0
M  V30 5603 C 521.238 0.922352 -2.11569 0
M  V30 5604 C 522.208 1.30842 -1.02321 0
M  V30 5605 O 523.393 1.39778 -1.29872 0
M  V30 5606 C 520.533 2.19167 -2.6657 0
M  V30 5607 C 519.646 1.86003 -3.89906 0
M  V30 5608 C 518.781 3.07398 -4.33221 0
M  V30 5609 C 517.82 2.70158 -5.49255 0
M  V30 5610 N 516.957 3.84248 -5.8762 0
M  V30 5611 H 521.797 0.454506 -2.94514 0
M  V30 5612 H 519.334 0.212718 -1.45554 0
M  V30 5613 H 521.292 2.93443 -2.96559 0
M  V30 5614 H 519.922 2.63528 -1.86421 0
M  V30 5615 H 518.974 1.01874 -3.66505 0
M  V30 5616 H 520.286 1.54592 -4.74239 0
M  V30 5617 H 519.44 3.89972 -4.64765 0
M  V30 5618 H 518.179 3.41988 -3.477 0
M  V30 5619 H 517.184 1.86001 -5.17382 0
M  V30 5620 H 518.409 2.36759 -6.36492 0
M  V30 5621 H 516.355 4.18638 -5.05053 0
M  V30 5622 H 516.272 3.56538 -6.66646 0
M  V30 5623 H 517.54 4.6746 -6.2378 0
M  V30 5624 N 521.769 1.56035 0.221574 0
M  V30 5625 C 522.716 1.92413 1.27459 0
M  V30 5626 C 523.686 0.781323 1.46576 0
M  V30 5627 O 524.871 1.03721 1.60145 0
M  V30 5628 C 522.011 2.24617 2.61995 0
M  V30 5629 C 521.124 3.51831 2.50677 0
M  V30 5630 C 520.259 3.73482 3.77736 0
M  V30 5631 C 519.298 4.94211 3.6114 0
M  V30 5632 N 518.435 5.12252 4.80148 0
M  V30 5633 H 523.275 2.82203 0.957355 0
M  V30 5634 H 520.812 1.39676 0.461415 0
M  V30 5635 H 522.77 2.41298 3.40339 0
M  V30 5636 H 521.4 1.38 2.91815 0
M  V30 5637 H 520.452 3.43343 1.63767 0
M  V30 5638 H 521.764 4.40328 2.34334 0
M  V30 5639 H 520.918 3.9026 4.64523 0
M  V30 5640 H 519.657 2.83266 3.97003 0
M  V30 5641 H 518.662 4.77384 2.72736 0
M  V30 5642 H 519.887 5.85912 3.43343 0
M  V30 5643 H 517.833 4.24978 4.99729 0
M  V30 5644 H 517.75 5.94881 4.66532 0
M  V30 5645 H 519.018 5.33465 5.68362 0
M  V30 5646 N 523.247 -0.488276 1.49845 0
M  V30 5647 C 524.496 -1.23826 1.59217 0
M  V30 5648 C 524.809 -1.93439 0.289966 0
M  V30 5649 O 526.015 -2.70229 0.262382 0
M  V30 5650 C 524.471 -2.24902 2.80976 0
M  V30 5651 C 524.079 -1.6117 4.18005 0
M  V30 5652 C 525.823 -3.00648 2.99685 0
M  V30 5653 C 523.73 -2.60431 5.3097 0
M  V30 5654 H 522.66 -0.465858 0.592868 0
M  V30 5655 H 525.311 -0.510645 1.76252 0
M  V30 5656 H 523.693 -3.0088 2.57463 0
M  V30 5657 H 524.867 -0.910968 4.51706 0
M  V30 5658 H 523.182 -0.97767 4.0476 0
M  V30 5659 H 525.779 -3.74903 3.81251 0
M  V30 5660 H 526.122 -3.5902 2.10738 0
M  V30 5661 H 526.655 -2.31784 3.23297 0
M  V30 5662 H 523.394 -2.06823 6.22017 0
M  V30 5663 H 522.914 -3.28707 5.01709 0
M  V30 5664 H 524.593 -3.22606 5.60834 0
M  V30 5665 N 524.725 -1.39134 -0.740242 0
M  V30 5666 C 525.973 -1.35803 -1.49673 0
M  V30 5667 C 526.294 0.0470897 -1.94943 0
M  V30 5668 O 525.564 0.997347 -1.68611 0
M  V30 5669 H 524.144 -0.499736 -0.555224 0
M  V30 5670 H 526.806 -1.73947 -0.879107 0
M  V30 5671 H 525.902 -2.0174 -2.38133 0
M  V30 5672 N 526.204 0.969867 -1.24223 0
M  V30 5673 C 527.481 1.68774 -0.988664 0
M  V30 5674 C 527.861 2.05342 0.489673 0
M  V30 5675 O 527.209 1.75486 1.46345 0
M  V30 5676 C 527.419 2.92135 -1.90941 0
M  V30 5677 C 528.767 3.64422 -2.17903 0
M  V30 5678 O 529.791 3.02188 -1.88576 0
M  V30 5679 O 528.65 4.76446 -2.67697 0
M  V30 5680 H 525.744 0.737736 -0.37373 0
M  V30 5681 H 528.29 1.02415 -1.35312 0
M  V30 5682 H 527.062 2.61788 -2.90831 0
M  V30 5683 H 526.685 3.66228 -1.54798 0
M  V30 5684 N 527.682 1.05563 1.17022 0
M  V30 5685 C 528.592 0.670758 2.24807 0
M  V30 5686 C 529.608 -0.309865 1.71219 0
M  V30 5687 O 530.784 -0.161025 2.00755 0
M  V30 5688 C 527.849 0.055337 3.46656 0
M  V30 5689 C 526.91 1.08688 4.15314 0
M  V30 5690 C 526.143 0.500736 5.31346 0
M  V30 5691 O 526.366 -0.688718 5.66227 0
M  V30 5692 O 525.3 1.23683 5.89055 0
M  V30 5693 H 529.126 1.56914 2.60023 0
M  V30 5694 H 526.711 0.827428 1.24395 0
M  V30 5695 H 528.593 -0.286492 4.20425 0
M  V30 5696 H 527.268 -0.816638 3.13229 0
M  V30 5697 H 526.175 1.48077 3.43546 0
M  V30 5698 H 527.508 1.93014 4.52777 0
M  V30 5699 N 529.16 -1.33526 0.837174 0
M  V30 5700 C 530.39 -2.01754 0.444848 0
M  V30 5701 C 530.798 -1.63149 -0.958072 0
M  V30 5702 O 530.141 -0.839827 -1.63379 0
M  V30 5703 C 530.203 -3.56228 0.483917 0
M  V30 5704 C 529.867 -4.18205 1.84265 0
M  V30 5705 C 530.864 -4.37699 2.80563 0
M  V30 5706 C 528.549 -4.54667 2.13503 0
M  V30 5707 C 530.543 -4.928 4.04261 0
M  V30 5708 C 528.23 -5.09475 3.37458 0
M  V30 5709 C 529.228 -5.28488 4.32654 0
M  V30 5710 O 528.916 -5.82132 5.54417 0
M  V30 5711 H 528.648 -0.652928 0.175104 0
M  V30 5712 H 531.202 -1.71469 1.13082 0
M  V30 5713 H 529.432 -3.85833 -0.258826 0
M  V30 5714 H 531.121 -4.05752 0.109653 0
M  V30 5715 H 531.887 -4.0988 2.59274 0
M  V30 5716 H 527.766 -4.39164 1.40201 0
M  V30 5717 H 531.31 -5.07555 4.78574 0
M  V30 5718 H 527.207 -5.36725 3.58604 0
M  V30 5719 H 527.975 -6.00548 5.56133 0
M  V30 5720 N 530.638 -0.59345 -1.46 0
M  V30 5721 C 531.885 -0.0831523 -2.02329 0
M  V30 5722 C 532.213 1.28093 -1.46364 0
M  V30 5723 O 531.468 1.85526 -0.622793 0
M  V30 5724 C 531.767 0.021178 -3.57394 0
M  V30 5725 C 531.433 -1.27671 -4.32448 0
M  V30 5726 C 530.095 -1.63227 -4.5267 0
M  V30 5727 C 532.447 -2.13511 -4.7546 0
M  V30 5728 C 529.775 -2.84401 -5.1316 0
M  V30 5729 C 532.127 -3.33922 -5.37289 0
M  V30 5730 C 530.791 -3.69747 -5.55737 0
M  V30 5731 H 530.061 -0.0304276 -0.740375 0
M  V30 5732 H 532.708 -0.772239 -1.75239 0
M  V30 5733 H 531.013 0.793454 -3.83682 0
M  V30 5734 H 532.71 0.431942 -3.98667 0
M  V30 5735 H 529.3 -0.989937 -4.17011 0
M  V30 5736 H 533.484 -1.87344 -4.59582 0
M  V30 5737 H 528.74 -3.12282 -5.25633 0
M  V30 5738 H 532.914 -4.00698 -5.69574 0
M  V30 5739 H 530.541 -4.6373 -6.02377 0
M  V30 5740 N 532.116 1.54067 -0.331816 0
M  V30 5741 C 533.344 2.05131 0.269996 0
M  V30 5742 C 533.759 1.20749 1.45138 0
M  V30 5743 O 533.116 0.240069 1.80914 0
M  V30 5744 C 533.167 3.54728 0.696456 0
M  V30 5745 O 532.888 4.35906 -0.43794 0
M  V30 5746 C 534.389 4.21916 1.36021 0
M  V30 5747 H 531.609 0.668807 0.0542042 0
M  V30 5748 H 534.153 1.98777 -0.4804 0
M  V30 5749 H 532.308 3.61342 1.39681 0
M  V30 5750 H 532.722 5.24404 -0.100334 0
M  V30 5751 H 534.196 5.28015 1.60947 0
M  V30 5752 H 534.673 3.73538 2.31011 0
M  V30 5753 H 535.279 4.19463 0.702212 0
M  V30 5754 N 533.594 0.0601682 1.57485 0
M  V30 5755 C 534.841 -0.611594 1.93043 0
M  V30 5756 C 535.169 -1.70317 0.939274 0
M  V30 5757 O 534.424 -1.95644 -0.046996 0
M  V30 5758 C 534.723 -1.23831 3.35262 0
M  V30 5759 C 534.389 -0.274037 4.50066 0
M  V30 5760 C 533.051 -0.00872394 4.81199 0
M  V30 5761 C 535.403 0.386308 5.19766 0
M  V30 5762 C 532.731 0.924218 5.79375 0
M  V30 5763 C 535.083 1.3075 6.1894 0
M  V30 5764 C 533.747 1.58139 6.48497 0
M  V30 5765 H 533.017 -0.223798 0.706396 0
M  V30 5766 H 535.664 0.128566 1.91068 0
M  V30 5767 H 533.969 -2.05394 3.33647 0
M  V30 5768 H 535.666 -1.76517 3.60059 0
M  V30 5769 H 532.256 -0.491008 4.25778 0
M  V30 5770 H 536.44 0.194436 4.95919 0
M  V30 5771 H 531.696 1.1438 6.00606 0
M  V30 5772 H 535.87 1.82519 6.72056 0
M  V30 5773 H 533.497 2.30593 7.24383 0
M  V30 5774 N 535.072 -1.5615 -0.213296 0
M  V30 5775 C 536.321 -1.78743 -0.93455 0
M  V30 5776 C 536.634 -0.630199 -1.8517 0
M  V30 5777 O 537.84 -0.739966 -2.61222 0
M  V30 5778 C 536.296 -3.16571 -1.71203 0
M  V30 5779 C 535.904 -4.40043 -0.840617 0
M  V30 5780 C 537.648 -3.48485 -2.42401 0
M  V30 5781 C 535.555 -5.68895 -1.61592 0
M  V30 5782 H 534.485 -0.666426 -0.352692 0
M  V30 5783 H 537.136 -1.82532 -0.188227 0
M  V30 5784 H 535.518 -3.06981 -2.50157 0
M  V30 5785 H 536.692 -4.6071 -0.0910326 0
M  V30 5786 H 535.007 -4.15706 -0.240365 0
M  V30 5787 H 537.604 -4.41983 -3.00924 0
M  V30 5788 H 537.947 -2.71371 -3.15695 0
M  V30 5789 H 538.48 -3.59442 -1.7043 0
M  V30 5790 H 535.219 -6.48925 -0.926106 0
M  V30 5791 H 534.739 -5.52275 -2.33991 0
M  V30 5792 H 536.418 -6.09365 -2.17447 0
M  V30 5793 N 536.55 0.480323 -1.50102 0
M  V30 5794 C 537.778 1.25657 -1.64371 0
M  V30 5795 C 538.193 1.86011 -0.323316 0
M  V30 5796 O 537.55 1.68803 0.693682 0
M  V30 5797 C 537.601 2.37197 -2.728 0
M  V30 5798 O 537.322 1.7932 -3.9972 0
M  V30 5799 C 538.823 3.2823 -2.9796 0
M  V30 5800 H 536.043 0.380369 -0.552775 0
M  V30 5801 H 538.587 0.574379 -1.96268 0
M  V30 5802 H 536.742 3.01208 -2.43623 0
M  V30 5803 H 537.156 2.52701 -4.59611 0
M  V30 5804 H 538.63 4.02725 -3.77513 0
M  V30 5805 H 539.107 3.86462 -2.08671 0
M  V30 5806 H 539.713 2.69964 -3.28633 0
M  V30 5807 N 538.028 1.39524 0.732853 0
M  V30 5808 C 539.305 1.27373 1.48444 0
M  V30 5809 C 539.685 -0.115725 2.10783 0
M  V30 5810 O 539.033 -1.12713 1.98766 0
M  V30 5811 C 539.243 2.39966 2.53412 0
M  V30 5812 C 540.591 2.79384 3.19733 0
M  V30 5813 O 541.615 2.39431 2.63725 0
M  V30 5814 O 540.474 3.48353 4.21085 0
M  V30 5815 H 537.568 0.499272 0.659285 0
M  V30 5816 H 540.114 1.51403 0.766496 0
M  V30 5817 H 538.886 3.32845 2.05742 0
M  V30 5818 H 538.509 2.17612 3.32762 0
M  V30 5819 N 539.506 -0.963266 1.24736 0
M  V30 5820 C 540.746 -1.72172 1.10165 0
M  V30 5821 C 541.11 -1.88731 -0.352784 0
M  V30 5822 O 542.311 -2.61549 -0.620107 0
M  V30 5823 C 540.582 -3.0724 1.82589 0
M  V30 5824 S 542.141 -3.98449 1.83803 0
M  V30 5825 H 538.959 -0.591901 0.393922 0
M  V30 5826 H 541.561 -1.14955 1.58132 0
M  V30 5827 H 540.265 -2.92851 2.87518 0
M  V30 5828 H 539.796 -3.69521 1.34973 0
M  V30 5829 H 541.811 -4.87805 0.908883 0
M  V30 5830 N 540.985 -1.06182 -1.16461 0
M  V30 5831 C 541.932 -0.671613 -2.20812 0
M  V30 5832 C 542.902 0.331186 -1.62765 0
M  V30 5833 O 544.087 0.22033 -1.89524 0
M  V30 5834 C 541.227 -0.063029 -3.45042 0
M  V30 5835 C 540.34 -1.11587 -4.1734 0
M  V30 5836 C 539.475 -0.473546 -5.29085 0
M  V30 5837 C 538.514 -1.51 -5.93182 0
M  V30 5838 N 537.651 -0.891118 -6.96422 0
M  V30 5839 H 542.491 -1.56589 -2.53542 0
M  V30 5840 H 540.028 -0.782951 -1.24532 0
M  V30 5841 H 541.986 0.307344 -4.16066 0
M  V30 5842 H 540.616 0.794663 -3.12866 0
M  V30 5843 H 539.668 -1.60396 -3.44931 0
M  V30 5844 H 540.98 -1.90221 -4.61104 0
M  V30 5845 H 540.134 -0.0501432 -6.06679 0
M  V30 5846 H 538.873 0.344687 -4.8648 0
M  V30 5847 H 537.878 -1.94331 -5.14311 0
M  V30 5848 H 539.103 -2.33031 -6.37866 0
M  V30 5849 H 537.049 -0.0935753 -6.55933 0
M  V30 5850 H 536.966 -1.61486 -7.38551 0
M  V30 5851 H 538.234 -0.492822 -7.77941 0
M  V30 5852 N 542.463 1.3308 -0.844243 0
M  V30 5853 C 543.74 1.92178 -0.364261 0
M  V30 5854 C 544.12 1.76961 1.15101 0
M  V30 5855 O 543.468 1.16128 1.9679 0
M  V30 5856 C 543.678 3.393 -0.817106 0
M  V30 5857 C 545.026 4.16444 -0.828236 0
M  V30 5858 O 546.05 3.47975 -0.761062 0
M  V30 5859 O 544.909 5.38685 -0.920926 0
M  V30 5860 H 542.003 0.820411 -0.10419 0
M  V30 5861 H 544.549 1.41918 -0.930453 0
M  V30 5862 H 543.321 3.44272 -1.85991 0
M  V30 5863 H 542.944 3.96947 -0.227785 0
M  V30 5864 N 543.941 0.601185 1.45683 0
M  V30 5865 C 545.352 0.179659 1.85834 0
M  V30 5866 C 545.703 -1.26189 1.50236 0
M  V30 5867 O 544.828 -1.95587 0.925987 0
M  V30 5868 C 545.423 0.319277 3.37292 0
M  V30 5869 C 543.982 -0.0475092 3.7637 0
M  V30 5870 C 543.129 0.646692 2.69654 0
M  V30 5871 H 546.08 0.808268 1.36575 0
M  V30 5872 H 546.101 -0.4503 3.77826 0
M  V30 5873 H 545.613 1.36855 3.6317 0
M  V30 5874 H 543.714 -1.0962 3.5611 0
M  V30 5875 H 543.827 0.34168 4.7788 0
M  V30 5876 H 542.191 0.0849971 2.54558 0
M  V30 5877 H 542.974 1.69797 2.98369 0
M  V30 5878 N 545.419 -1.53889 0.339982 0
M  V30 5879 C 546.366 -2.24902 -0.518452 0
M  V30 5880 C 547.336 -1.24593 -1.09844 0
M  V30 5881 O 548.521 -1.53317 -1.13572 0
M  V30 5882 C 545.661 -3.02262 -1.66529 0
M  V30 5883 C 544.774 -4.17418 -1.11295 0
M  V30 5884 C 543.909 -4.82273 -2.2268 0
M  V30 5885 C 542.948 -5.89503 -1.6478 0
M  V30 5886 N 542.085 -6.48153 -2.69893 0
M  V30 5887 H 546.925 -2.97853 0.0936579 0
M  V30 5888 H 544.462 -1.46986 0.0579924 0
M  V30 5889 H 546.42 -3.45371 -2.3404 0
M  V30 5890 H 545.05 -2.31614 -2.24844 0
M  V30 5891 H 544.102 -3.78976 -0.328886 0
M  V30 5892 H 545.414 -4.94554 -0.649414 0
M  V30 5893 H 544.568 -5.28435 -2.98063 0
M  V30 5894 H 543.307 -4.04552 -2.72376 0
M  V30 5895 H 542.312 -5.42728 -0.879004 0
M  V30 5896 H 543.537 -6.6913 -1.1594 0
M  V30 5897 H 541.483 -5.73298 -3.1885 0
M  V30 5898 H 541.4 -7.20752 -2.28151 0
M  V30 5899 H 542.668 -6.98968 -3.45056 0
M  V30 5900 N 546.897 -0.0685191 -1.57451 0
M  V30 5901 C 547.86 0.885173 -2.11417 0
M  V30 5902 C 548.86 1.22853 -1.03748 0
M  V30 5903 O 550.05 1.16235 -1.2975 0
M  V30 5904 C 547.182 2.18964 -2.61281 0
M  V30 5905 H 548.375 0.417034 -2.96986 0
M  V30 5906 H 545.928 0.18014 -1.55258 0
M  V30 5907 H 546.663 2.70321 -1.79156 0
M  V30 5908 H 546.448 1.9534 -3.39977 0
M  V30 5909 H 547.938 2.87242 -3.0312 0
M  V30 5910 N 548.375 1.56261 0.205012 0
M  V30 5911 C 549.615 1.81823 0.933806 0
M  V30 5912 C 549.979 0.644534 1.80858 0
M  V30 5913 O 551.18 0.779819 2.5724 0
M  V30 5914 C 549.451 3.12362 1.7368 0
M  V30 5915 S 551.01 3.59296 2.51897 0
M  V30 5916 H 547.828 0.638209 0.313386 0
M  V30 5917 H 550.43 1.94495 0.198001 0
M  V30 5918 H 549.134 3.95809 1.08459 0
M  V30 5919 H 548.665 3.02542 2.5146 0
M  V30 5920 H 550.68 3.23945 3.75864 0
M  V30 5921 N 549.853 -0.472356 1.50355 0
M  V30 5922 C 551.081 -1.24784 1.65035 0
M  V30 5923 C 551.496 -1.85837 0.333176 0
M  V30 5924 O 550.853 -1.69168 -0.68472 0
M  V30 5925 C 550.904 -2.35747 2.74054 0
M  V30 5926 O 550.625 -1.77197 4.00665 0
M  V30 5927 C 552.126 -3.26645 2.99696 0
M  V30 5928 H 549.346 -0.377432 0.554785 0
M  V30 5929 H 551.89 -0.563962 1.9657 0
M  V30 5930 H 550.045 -2.99912 2.45217 0
M  V30 5931 H 550.459 -2.5026 4.60945 0
M  V30 5932 H 551.933 -4.00718 3.79644 0
M  V30 5933 H 552.41 -3.8535 2.10718 0
M  V30 5934 H 553.016 -2.68218 3.3006 0
M  V30 5935 N 551.331 -1.39911 -0.725443 0
M  V30 5936 C 552.58 -1.36963 -1.48068 0
M  V30 5937 C 552.893 0.0284478 -1.95579 0
M  V30 5938 O 554.099 0.180535 -2.70899 0
M  V30 5939 C 552.555 -2.40664 -2.67598 0
M  V30 5940 C 552.163 -3.86234 -2.26997 0
M  V30 5941 C 553.907 -2.46807 -3.45379 0
M  V30 5942 C 551.814 -4.81554 -3.43307 0
M  V30 5943 H 550.744 -0.509223 -0.556065 0
M  V30 5944 H 553.395 -1.65602 -0.790454 0
M  V30 5945 H 551.777 -2.05109 -3.38742 0
M  V30 5946 H 552.951 -4.3088 -1.63337 0
M  V30 5947 H 551.266 -3.83475 -1.62284 0
M  V30 5948 H 553.863 -3.15213 -4.31909 0
M  V30 5949 H 554.206 -1.49552 -3.8851 0
M  V30 5950 H 554.739 -2.81303 -2.81271 0
M  V30 5951 H 551.478 -5.80106 -3.05217 0
M  V30 5952 H 550.998 -4.4158 -4.05915 0
M  V30 5953 H 552.677 -5.0091 -4.0951 0
M  V30 5954 N 552.809 0.956637 -1.25245 0
M  V30 5955 C 553.739 2.07058 -1.07931 0
M  V30 5956 C 554.72 1.70096 0.0110361 0
M  V30 5957 O 555.905 1.93555 -0.158121 0
M  V30 5958 C 553.035 3.40272 -0.695124 0
M  V30 5959 C 551.989 3.91235 -1.73549 0
M  V30 5960 C 551.315 5.20921 -1.20604 0
M  V30 5961 C 552.615 4.17837 -3.13385 0
M  V30 5962 H 554.309 2.218 -2.01109 0
M  V30 5963 H 551.855 1.06581 -0.968326 0
M  V30 5964 H 553.808 4.1765 -0.560949 0
M  V30 5965 H 552.532 3.25462 0.272355 0
M  V30 5966 H 551.191 3.16025 -1.85807 0
M  V30 5967 H 550.839 5.02479 -0.228846 0
M  V30 5968 H 550.539 5.55987 -1.90136 0
M  V30 5969 H 552.063 6.00897 -1.08421 0
M  V30 5970 H 553.477 4.8588 -3.04292 0
M  V30 5971 H 551.874 4.64154 -3.80369 0
M  V30 5972 H 552.944 3.2419 -3.60595 0
M  V30 5973 N 554.287 1.06798 1.15896 0
M  V30 5974 C 555.217 0.704677 2.22613 0
M  V30 5975 C 556.198 -0.305252 1.67339 0
M  V30 5976 O 557.383 -0.179247 1.93371 0
M  V30 5977 C 554.513 0.0957325 3.47168 0
M  V30 5978 C 553.467 1.0322 4.15367 0
M  V30 5979 C 552.793 0.286293 5.33933 0
M  V30 5980 C 554.093 2.36341 4.65768 0
M  V30 5981 H 555.787 1.59688 2.53259 0
M  V30 5982 H 553.333 0.769257 1.21731 0
M  V30 5983 H 555.286 -0.170333 4.21056 0
M  V30 5984 H 554.01 -0.831516 3.15838 0
M  V30 5985 H 552.669 1.28309 3.43413 0
M  V30 5986 H 552.317 -0.644237 4.98857 0
M  V30 5987 H 552.017 0.910436 5.80504 0
M  V30 5988 H 553.541 0.0278938 6.10594 0
M  V30 5989 H 554.955 2.1561 5.31211 0
M  V30 5990 H 553.352 2.94299 5.2298 0
M  V30 5991 H 554.422 2.99047 3.81705 0
M  V30 5992 N 555.766 -1.3263 0.851289 0
M  V30 5993 C 557.182 -1.50162 0.5407 0
M  V30 5994 C 557.382 -1.78788 -0.929369 0
M  V30 5995 O 556.438 -1.85545 -1.71258 0
M  V30 5996 C 557.751 -2.64803 1.42478 0
M  V30 5997 C 559.299 -2.78688 1.42485 0
M  V30 5998 C 559.774 -3.96405 2.29407 0
M  V30 5999 N 561.265 -4.0366 2.27184 0
M  V30 6000 C 562 -4.93971 2.9117 0
M  V30 6001 N 561.496 -5.89313 3.64256 0
M  V30 6002 N 563.289 -4.87066 2.80576 0
M  V30 6003 H 555.44 -1.12315 1.80275 0
M  V30 6004 H 557.703 -0.553266 0.769806 0
M  V30 6005 H 557.409 -2.50368 2.46999 0
M  V30 6006 H 557.283 -3.60506 1.10974 0
M  V30 6007 H 559.67 -2.92547 0.387304 0
M  V30 6008 H 559.751 -1.83708 1.78002 0
M  V30 6009 H 559.395 -3.83304 3.33228 0
M  V30 6010 H 559.325 -4.90654 1.91224 0
M  V30 6011 H 561.816 -3.35435 1.74045 0
M  V30 6012 H 562.129 -6.54913 4.10255 0
M  V30 6013 H 560.474 -5.8935 3.68364 0
M  V30 6014 H 563.665 -4.11552 2.23031 0
M  V30 6015 H 563.838 -5.57248 3.30725 0
M  V30 6016 N 557.244 -0.608902 -1.45362 0
M  V30 6017 C 558.492 -0.104401 -2.0183 0
M  V30 6018 C 558.813 1.27007 -1.47967 0
M  V30 6019 O 558.083 1.83924 -0.674455 0
M  V30 6020 H 556.663 -0.0356042 -0.746151 0
M  V30 6021 H 559.325 -0.790596 -1.78145 0
M  V30 6022 H 558.421 -0.0551793 -3.12051 0
M  V30 6023 N 558.722 1.53707 -0.348139 0
M  V30 6024 C 559.685 2.23812 0.494058 0
M  V30 6025 C 560.685 1.23989 1.02388 0
M  V30 6026 O 561.875 1.48395 0.912396 0
M  V30 6027 C 559.007 2.96133 1.68872 0
M  V30 6028 H 560.2 2.99663 -0.119141 0
M  V30 6029 H 557.753 1.55983 -0.0995539 0
M  V30 6030 H 558.488 2.24481 2.34049 0
M  V30 6031 H 558.273 3.69357 1.31596 0
M  V30 6032 H 559.763 3.49475 2.28597 0
M  V30 6033 N 560.2 0.0768682 1.57412 0
M  V30 6034 C 561.425 -0.603404 1.98428 0
M  V30 6035 C 561.85 -1.62047 0.955108 0
M  V30 6036 O 561.208 -1.81129 -0.0786778 0
M  V30 6037 C 561.256 -1.24396 3.38464 0
M  V30 6038 O 560.36 -2.35982 3.3821 0
M  V30 6039 H 559.701 -0.154741 0.645718 0
M  V30 6040 H 562.231 0.152885 2.04028 0
M  V30 6041 H 562.241 -1.5896 3.7576 0
M  V30 6042 H 560.916 -0.498735 4.12899 0
M  V30 6043 H 559.493 -2.03173 3.1269 0
M  V30 6044 N 561.678 -1.56367 -0.196722 0
M  V30 6045 C 562.625 -1.94417 -1.24382 0
M  V30 6046 C 563.595 -0.804543 -1.45315 0
M  V30 6047 O 564.78 -1.06256 -1.58475 0
M  V30 6048 C 561.92 -2.28757 -2.58388 0
M  V30 6049 C 561.033 -3.55775 -2.45047 0
M  V30 6050 C 560.168 -3.79445 -3.71746 0
M  V30 6051 C 559.207 -4.99894 -3.53231 0
M  V30 6052 N 558.344 -5.19826 -4.71938 0
M  V30 6053 H 563.184 -2.83691 -0.912338 0
M  V30 6054 H 560.721 -1.40392 -0.439135 0
M  V30 6055 H 562.679 -2.46682 -3.36457 0
M  V30 6056 H 561.309 -1.42625 -2.89582 0
M  V30 6057 H 560.361 -3.45905 -1.58284 0
M  V30 6058 H 561.673 -4.44 -2.27299 0
M  V30 6059 H 560.827 -3.97601 -4.58256 0
M  V30 6060 H 559.566 -2.89546 -3.92446 0
M  V30 6061 H 558.571 -4.81662 -2.65107 0
M  V30 6062 H 559.796 -5.913 -3.33978 0
M  V30 6063 H 557.742 -4.32875 -4.92905 0
M  V30 6064 H 557.659 -6.02228 -4.57009 0
M  V30 6065 H 558.927 -5.42439 -5.59803 0
M  V30 6066 N 563.156 0.464375 -1.50603 0
M  V30 6067 C 564.066 1.58723 -1.72754 0
M  V30 6068 C 565.082 1.62925 -0.610844 0
M  V30 6069 O 566.258 1.8067 -0.889963 0
M  V30 6070 C 563.323 2.94897 -1.82309 0
M  V30 6071 C 562.384 3.0103 -3.06071 0
M  V30 6072 C 561.617 4.30708 -3.1516 0
M  V30 6073 O 561.84 5.2159 -2.30868 0
M  V30 6074 O 560.774 4.42571 -4.0794 0
M  V30 6075 H 564.6 1.42954 -2.67951 0
M  V30 6076 H 562.185 0.644579 -1.3478 0
M  V30 6077 H 564.067 3.75764 -1.90735 0
M  V30 6078 H 562.742 3.10851 -0.902967 0
M  V30 6079 H 561.649 2.19217 -3.03142 0
M  V30 6080 H 562.982 2.90014 -3.97684 0
M  V30 6081 N 564.634 1.40294 0.718013 0
M  V30 6082 C 565.883 1.37746 1.4734 0
M  V30 6083 C 566.196 -0.0180754 1.95592 0
M  V30 6084 O 567.402 -0.166166 2.70991 0
M  V30 6085 C 565.858 2.4208 2.66318 0
M  V30 6086 C 565.466 3.87432 2.24945 0
M  V30 6087 C 567.21 2.48635 3.44065 0
M  V30 6088 C 565.117 4.83368 3.40748 0
M  V30 6089 H 564.047 0.512165 0.553356 0
M  V30 6090 H 566.698 1.66019 0.781661 0
M  V30 6091 H 565.08 2.06903 3.3765 0
M  V30 6092 H 566.254 4.3174 1.6105 0
M  V30 6093 H 564.569 3.8433 1.60249 0
M  V30 6094 H 567.166 3.17499 4.30231 0
M  V30 6095 H 567.509 1.51611 3.87711 0
M  V30 6096 H 568.042 2.82791 2.79775 0
M  V30 6097 H 564.781 5.81716 3.02136 0
M  V30 6098 H 564.301 4.43726 4.03568 0
M  V30 6099 H 565.98 5.03074 4.06848 0
M  V30 6100 N 566.112 -0.949982 1.2575 0
M  V30 6101 C 567.042 -2.06483 1.09028 0
M  V30 6102 C 568.023 -1.701 -0.00201532 0
M  V30 6103 O 569.208 -1.93469 0.168383 0
M  V30 6104 C 566.338 -3.39899 0.71316 0
M  V30 6105 C 565.292 -3.90309 1.75621 0
M  V30 6106 C 564.618 -5.20274 1.23365 0
M  V30 6107 C 565.918 -4.16169 3.15596 0
M  V30 6108 H 567.612 -2.20731 2.02283 0
M  V30 6109 H 565.158 -1.06066 0.973964 0
M  V30 6110 H 567.111 -4.17346 0.58309 0
M  V30 6111 H 565.835 -3.25602 -0.255091 0
M  V30 6112 H 564.494 -3.15035 1.8748 0
M  V30 6113 H 564.142 -5.02351 0.255491 0
M  V30 6114 H 563.842 -5.54971 1.93082 0
M  V30 6115 H 565.366 -6.00314 1.11607 0
M  V30 6116 H 566.78 -4.84259 3.06864 0
M  V30 6117 H 565.177 -4.62131 3.82825 0
M  V30 6118 H 566.247 -3.22273 3.6231 0
M  V30 6119 N 567.59 -1.07411 -1.15328 0
M  V30 6120 C 568.815 -0.818856 -1.90551 0
M  V30 6121 C 569.24 0.622194 -1.77512 0
M  V30 6122 O 568.598 1.43484 -1.10824 0
M  V30 6123 C 568.646 -1.23267 -3.38877 0
M  V30 6124 O 567.75 -0.378345 -4.10661 0
M  V30 6125 H 567.091 -0.29827 -0.593238 0
M  V30 6126 H 569.621 -1.43289 -1.46046 0
M  V30 6127 H 569.631 -1.20912 -3.89672 0
M  V30 6128 H 568.306 -2.28226 -3.47686 0
M  V30 6129 H 566.883 -0.464437 -3.69996 0
M  V30 6130 N 569.068 1.32177 -0.85831 0
M  V30 6131 C 569.978 2.32561 -0.308606 0
M  V30 6132 C 570.994 1.64209 0.575462 0
M  V30 6133 O 572.17 1.95719 0.474961 0
M  V30 6134 C 569.235 3.43207 0.490909 0
M  V30 6135 C 568.296 4.27243 -0.419733 0
M  V30 6136 C 567.529 5.32605 0.341719 0
M  V30 6137 O 567.752 5.48332 1.57125 0
M  V30 6138 O 566.686 6.0118 -0.294379 0
M  V30 6139 H 570.512 2.81477 -1.14037 0
M  V30 6140 H 568.097 1.35866 -0.621349 0
M  V30 6141 H 569.979 4.10677 0.944574 0
M  V30 6142 H 568.654 2.96474 1.29941 0
M  V30 6143 H 567.561 3.62569 -0.921652 0
M  V30 6144 H 568.894 4.7751 -1.19352 0
M  V30 6145 N 570.547 0.616602 1.45037 0
M  V30 6146 C 571.793 0.115501 2.02471 0
M  V30 6147 C 572.126 -1.25406 1.4828 0
M  V30 6148 O 571.401 -1.82922 0.661051 0
M  V30 6149 C 571.684 0.0863588 3.59996 0
M  V30 6150 C 571.537 1.48723 4.24501 0
M  V30 6151 C 572.856 -0.596762 4.36035 0
M  V30 6152 H 569.975 0.0434461 0.735718 0
M  V30 6153 H 572.617 0.7903 1.72784 0
M  V30 6154 H 570.767 -0.488277 3.85419 0
M  V30 6155 H 572.439 2.10964 4.10234 0
M  V30 6156 H 570.682 2.04534 3.82555 0
M  V30 6157 H 571.353 1.419 5.3345 0
M  V30 6158 H 573.829 -0.10824 4.15959 0
M  V30 6159 H 572.705 -0.586289 5.4576 0
M  V30 6160 H 572.966 -1.66451 4.09569 0
M  V30 6161 N 572.025 -1.5352 0.356285 0
M  V30 6162 C 572.935 -2.29151 -0.502712 0
M  V30 6163 C 573.951 -1.34753 -1.1008 0
M  V30 6164 O 575.127 -1.67803 -1.11374 0
M  V30 6165 C 572.192 -3.05911 -1.63154 0
M  V30 6166 C 571.253 -4.15958 -1.06194 0
M  V30 6167 C 570.486 -4.8905 -2.13696 0
M  V30 6168 O 570.709 -4.61919 -3.34645 0
M  V30 6169 O 569.643 -5.75202 -1.77275 0
M  V30 6170 H 573.469 -3.03492 0.112466 0
M  V30 6171 H 571.054 -1.4891 0.120942 0
M  V30 6172 H 572.936 -3.53874 -2.28804 0
M  V30 6173 H 571.611 -2.34415 -2.23229 0
M  V30 6174 H 570.518 -3.7227 -0.369603 0
M  V30 6175 H 571.851 -4.89593 -0.505872 0
M  V30 6176 N 573.503 -0.0852151 -1.57369 0
M  V30 6177 C 574.919 0.271436 -1.57275 0
M  V30 6178 C 575.119 1.69109 -1.09565 0
M  V30 6179 O 574.175 2.40549 -0.767611 0
M  V30 6180 C 575.488 0.0688638 -3.00621 0
M  V30 6181 C 577.036 0.137373 -3.12698 0
M  V30 6182 C 577.511 -0.0370832 -4.57985 0
M  V30 6183 N 579.002 0.0180794 -4.63196 0
M  V30 6184 C 579.737 -0.0922953 -5.73326 0
M  V30 6185 N 579.233 -0.256948 -6.92323 0
M  V30 6186 N 581.026 -0.0342702 -5.6209 0
M  V30 6187 H 573.177 -1.01288 -1.86693 0
M  V30 6188 H 575.44 -0.396138 -0.861266 0
M  V30 6189 H 575.146 -0.911277 -3.39689 0
M  V30 6190 H 575.02 0.815442 -3.6828 0
M  V30 6191 H 577.407 1.10801 -2.73509 0
M  V30 6192 H 577.488 -0.640532 -2.47651 0
M  V30 6193 H 577.132 -1.00455 -4.97867 0
M  V30 6194 H 577.062 0.760392 -5.21081 0
M  V30 6195 H 579.553 0.143202 -3.77629 0
M  V30 6196 H 579.866 -0.332949 -7.72082 0
M  V30 6197 H 578.211 -0.292487 -6.94384 0
M  V30 6198 H 581.402 0.0931605 -4.68007 0
M  V30 6199 H 581.575 -0.12374 -6.47882 0
M  V30 6200 N 574.981 1.5647 0.188427 0
M  V30 6201 C 575.929 1.95971 1.25293 0
M  V30 6202 C 576.923 0.846047 1.4676 0
M  V30 6203 O 578.129 1.03109 1.47542 0
M  V30 6204 H 574.504 0.623253 0.420784 0
M  V30 6205 H 576.475 2.84731 0.892792 0
M  V30 6206 C 575.224 2.32116 2.58877 0
M  V30 6207 H 574.547 3.17341 2.43176 0
M  V30 6208 H 575.987 2.63613 3.3209 0
M  V30 6209 C 574.446 1.15823 3.16365 0
M  V30 6210 O 574.976 0.436785 3.99318 0
M  V30 6211 N 573.182 0.933278 2.75206 0
M  V30 6212 H 572.729 1.52169 2.07852 0
M  V30 6213 H 572.687 0.156976 3.14008 0
M  V30 6214 N 576.459 -0.456382 1.50847 0
M  V30 6215 C 577.389 -1.56025 1.73719 0
M  V30 6216 C 578.37 -1.5967 0.586473 0
M  V30 6217 O 579.555 -1.75702 0.827185 0
M  V30 6218 C 576.685 -2.94251 1.84483 0
M  V30 6219 C 575.639 -3.05471 2.99786 0
M  V30 6220 C 574.965 -4.45489 2.95709 0
M  V30 6221 C 576.265 -2.81318 4.40065 0
M  V30 6222 H 577.959 -1.37138 2.66146 0
M  V30 6223 H 575.505 -0.658299 1.28072 0
M  V30 6224 H 577.458 -3.71417 1.99067 0
M  V30 6225 H 576.182 -3.14328 0.886891 0
M  V30 6226 H 574.841 -2.30741 2.84876 0
M  V30 6227 H 574.489 -4.62505 1.97732 0
M  V30 6228 H 574.189 -4.53929 3.73125 0
M  V30 6229 H 575.713 -5.24655 3.12362 0
M  V30 6230 H 577.127 -3.48226 4.55425 0
M  V30 6231 H 575.524 -3.01188 5.19043 0
M  V30 6232 H 576.594 -1.7706 4.51418 0
M  V30 6233 N 577.937 -1.40673 -0.710563 0
M  V30 6234 C 578.869 -1.37256 -1.83558 0
M  V30 6235 C 579.882 -0.277133 -1.60424 0
M  V30 6236 O 581.071 -0.537831 -1.70205 0
M  V30 6237 C 578.171 -1.1144 -3.20054 0
M  V30 6238 C 577.344 -2.32734 -3.70342 0
M  V30 6239 C 576.403 -2.03002 -4.85465 0
M  V30 6240 O 575.429 -2.75912 -4.97857 0
M  V30 6241 N 576.631 -1.01105 -5.71627 0
M  V30 6242 H 579.396 -2.34215 -1.86985 0
M  V30 6243 H 576.957 -1.35091 -0.892301 0
M  V30 6244 H 578.949 -0.895265 -3.94673 0
M  V30 6245 H 577.519 -0.231307 -3.11743 0
M  V30 6246 H 576.739 -2.70446 -2.86798 0
M  V30 6247 H 578.027 -3.13584 -4.00678 0
M  V30 6248 H 577.425 -0.407303 -5.64232 0
M  V30 6249 H 575.982 -0.85182 -6.4621 0
M  V30 6250 N 579.415 0.9433 -1.26252 0
M  V30 6251 C 580.692 1.66639 -1.02424 0
M  V30 6252 C 581.072 2.06335 0.446006 0
M  V30 6253 O 580.42 1.78551 1.42589 0
M  V30 6254 C 580.63 2.88019 -1.97094 0
M  V30 6255 C 581.978 3.59718 -2.25584 0
M  V30 6256 O 583.002 2.9812 -1.94943 0
M  V30 6257 O 581.861 4.7066 -2.77743 0
M  V30 6258 H 578.955 0.729643 -0.389294 0
M  V30 6259 H 581.501 0.995218 -1.37454 0
M  V30 6260 H 580.273 2.5556 -2.96319 0
M  V30 6261 H 579.896 3.62863 -1.62532 0
M  V30 6262 N 580.893 1.08022 1.14757 0
M  V30 6263 C 581.856 0.71048 2.1791 0
M  V30 6264 C 582.856 -0.252731 1.58801 0
M  V30 6265 O 584.046 -0.0327915 1.74169 0
M  V30 6266 C 581.178 0.0483203 3.40866 0
M  V30 6267 H 582.371 1.62384 2.52134 0
M  V30 6268 H 579.924 0.877595 1.29337 0
M  V30 6269 H 580.659 -0.876959 3.12218 0
M  V30 6270 H 580.444 0.741189 3.85031 0
M  V30 6271 H 581.934 -0.195471 4.17142 0
M  V30 6272 N 582.371 -1.3172 0.865308 0
M  V30 6273 C 583.304 -2.26687 0.262376 0
M  V30 6274 C 584.282 -1.50894 -0.605787 0
M  V30 6275 O 585.466 -1.79982 -0.56024 0
M  V30 6276 C 582.593 -3.3281 -0.628915 0
M  V30 6277 C 581.639 -4.26172 0.167278 0
M  V30 6278 S 582.472 -5.12797 1.54272 0
M  V30 6279 C 583.628 -6.22438 0.657427 0
M  V30 6280 H 583.861 -2.77478 1.0674 0
M  V30 6281 H 581.394 -1.39414 0.663555 0
M  V30 6282 H 583.352 -3.94426 -1.13747 0
M  V30 6283 H 582.013 -2.80782 -1.40785 0
M  V30 6284 H 581.206 -5.01392 -0.51203 0
M  V30 6285 H 580.808 -3.69029 0.607777 0
M  V30 6286 H 583.1 -6.77368 -0.133925 0
M  V30 6287 H 584.043 -6.9451 1.38061 0
M  V30 6288 H 584.451 -5.64043 0.227044 0
M  V30 6289 N 583.85 -0.624285 -1.44708 0
M  V30 6290 C 584.782 0.12305 -2.28869 0
M  V30 6291 C 585.795 0.81557 -1.40898 0
M  V30 6292 O 586.984 0.678162 -1.65116 0
M  V30 6293 C 584.084 1.19612 -3.1709 0
M  V30 6294 C 583.257 0.587452 -4.33437 0
M  V30 6295 C 582.316 1.55358 -5.02743 0
M  V30 6296 O 581.341 1.07338 -5.58988 0
M  V30 6297 N 582.543 2.88798 -5.03563 0
M  V30 6298 H 585.308 -0.599193 -2.93649 0
M  V30 6299 H 582.87 -0.464954 -1.5508 0
M  V30 6300 H 584.861 1.84261 -3.60319 0
M  V30 6301 H 583.432 1.82067 -2.54107 0
M  V30 6302 H 582.652 -0.237509 -3.93484 0
M  V30 6303 H 583.94 0.161326 -5.08544 0
M  V30 6304 H 583.338 3.30399 -4.59188 0
M  V30 6305 H 581.894 3.48826 -5.50603 0
M  V30 6306 N 585.328 1.53329 -0.364422 0
M  V30 6307 C 586.574 2.01537 0.225969 0
M  V30 6308 C 586.907 1.25128 1.48515 0
M  V30 6309 O 586.182 0.344653 1.91422 0
M  V30 6310 C 586.465 3.56339 0.519092 0
M  V30 6311 C 586.318 4.43441 -0.753639 0
M  V30 6312 C 587.637 4.19833 1.32015 0
M  V30 6313 H 584.756 0.732573 0.0806548 0
M  V30 6314 H 587.398 1.83597 -0.489084 0
M  V30 6315 H 585.548 3.71756 1.12825 0
M  V30 6316 H 587.22 4.39823 -1.39116 0
M  V30 6317 H 585.463 4.11457 -1.37424 0
M  V30 6318 H 586.134 5.49699 -0.503517 0
M  V30 6319 H 588.61 4.08242 0.804859 0
M  V30 6320 H 587.486 5.28177 1.49399 0
M  V30 6321 H 587.747 3.75821 2.32832 0
M  V30 6322 N 586.806 0.0935595 1.57322 0
M  V30 6323 C 588.046 -0.573901 1.96178 0
M  V30 6324 C 588.41 -1.65445 0.97426 0
M  V30 6325 O 589.611 -2.37901 1.25126 0
M  V30 6326 C 587.882 -1.11612 3.39526 0
M  V30 6327 S 589.441 -1.79566 4.00377 0
M  V30 6328 H 586.259 -0.187315 0.685882 0
M  V30 6329 H 588.861 0.172597 1.94737 0
M  V30 6330 H 587.565 -0.31815 4.09165 0
M  V30 6331 H 587.096 -1.89848 3.4456 0
M  V30 6332 H 589.111 -3.07978 3.89056 0
M  V30 6333 N 588.284 -1.56567 -0.180126 0
M  V30 6334 C 589.7 -1.50488 -0.531559 0
M  V30 6335 C 589.9 -0.796267 -1.851 0
M  V30 6336 O 588.956 -0.352978 -2.50021 0
M  V30 6337 C 590.269 -2.95201 -0.572456 0
M  V30 6338 C 591.817 -3.05957 -0.660264 0
M  V30 6339 C 592.292 -4.5211 -0.732135 0
M  V30 6340 N 593.783 -4.56322 -0.795262 0
M  V30 6341 C 594.518 -5.66742 -0.871296 0
M  V30 6342 N 594.014 -6.86815 -0.908708 0
M  V30 6343 N 595.807 -5.54691 -0.909639 0
M  V30 6344 H 587.958 -2.01045 0.685165 0
M  V30 6345 H 590.221 -0.915536 0.245962 0
M  V30 6346 H 589.927 -3.50165 0.328208 0
M  V30 6347 H 589.801 -3.49369 -1.422 0
M  V30 6348 H 592.188 -2.51032 -1.55136 0
M  V30 6349 H 592.269 -2.54888 0.215783 0
M  V30 6350 H 591.913 -5.07664 0.154664 0
M  V30 6351 H 591.843 -5.00926 -1.6242 0
M  V30 6352 H 594.334 -3.69868 -0.77499 0
M  V30 6353 H 594.647 -7.66718 -0.967654 0
M  V30 6354 H 592.992 -6.89443 -0.877132 0
M  V30 6355 H 596.183 -4.59804 -0.877353 0
M  V30 6356 H 596.356 -6.40768 -0.965434 0
M  V30 6357 N 589.762 0.448376 -1.51087 0
M  V30 6358 C 590.71 1.56407 -1.72161 0
M  V30 6359 C 591.704 1.58878 -0.587721 0
M  V30 6360 O 592.91 1.62755 -0.768822 0
M  V30 6361 H 589.285 0.519423 -0.543786 0
M  V30 6362 H 591.256 1.35803 -2.65707 0
M  V30 6363 C 590.005 2.94163 -1.85373 0
M  V30 6364 H 589.328 2.9299 -2.72024 0
M  V30 6365 H 590.768 3.71625 -2.04135 0
M  V30 6366 C 589.227 3.31317 -0.610803 0
M  V30 6367 O 589.757 4.00985 0.239636 0
M  V30 6368 N 587.963 2.86966 -0.458127 0
M  V30 6369 H 587.51 2.30443 -1.15124 0
M  V30 6370 H 587.468 3.12188 0.372289 0
M  V30 6371 N 591.24 1.41047 0.703093 0
M  V30 6372 C 592.486 1.40207 1.46526 0
M  V30 6373 C 592.819 0.00847763 1.94198 0
M  V30 6374 O 592.094 -0.962437 1.69019 0
M  V30 6375 C 592.377 2.40238 2.6825 0
M  V30 6376 C 592.23 3.88674 2.26391 0
M  V30 6377 C 593.549 2.37627 3.70434 0
M  V30 6378 H 590.668 0.510594 0.531472 0
M  V30 6379 H 593.31 1.72271 0.801422 0
M  V30 6380 H 591.46 2.13026 3.24888 0
M  V30 6381 H 593.132 4.2676 1.75138 0
M  V30 6382 H 591.375 4.03903 1.58255 0
M  V30 6383 H 592.046 4.542 3.13698 0
M  V30 6384 H 594.522 2.61759 3.23452 0
M  V30 6385 H 593.398 3.09645 4.53223 0
M  V30 6386 H 593.659 1.39223 4.19606 0
M  V30 6387 N 592.718 -0.936591 1.26751 0
M  V30 6388 C 593.648 -2.05315 1.11212 0
M  V30 6389 C 594.629 -1.70092 0.0160262 0
M  V30 6390 O 595.814 -1.93279 0.188894 0
M  V30 6391 C 592.944 -3.39123 0.749171 0
M  V30 6392 C 591.898 -3.88425 1.79751 0
M  V30 6393 C 591.224 -5.18936 1.28876 0
M  V30 6394 C 592.524 -4.12798 3.19992 0
M  V30 6395 H 594.218 -2.18573 2.04613 0
M  V30 6396 H 591.764 -1.05027 0.985159 0
M  V30 6397 H 593.717 -4.16704 0.627323 0
M  V30 6398 H 592.441 -3.25855 -0.220543 0
M  V30 6399 H 591.1 -3.13028 1.90811 0
M  V30 6400 H 590.748 -5.02051 0.308757 0
M  V30 6401 H 590.448 -5.52892 1.98958 0
M  V30 6402 H 591.972 -5.99096 1.17967 0
M  V30 6403 H 593.386 -4.80977 3.11983 0
M  V30 6404 H 591.783 -4.58044 3.87705 0
M  V30 6405 H 592.853 -3.18412 3.65707 0
M  V30 6406 N 594.196 -1.08629 -1.14182 0
M  V30 6407 C 595.126 -0.740003 -2.21464 0
M  V30 6408 C 596.107 0.278591 -1.67803 0
M  V30 6409 O 597.292 0.148461 -1.93632 0
M  V30 6410 C 594.422 -0.150952 -3.46972 0
M  V30 6411 C 593.376 -1.09815 -4.13672 0
M  V30 6412 C 592.702 -0.3712 -5.3341 0
M  V30 6413 C 594.002 -2.43722 -4.61949 0
M  V30 6414 H 595.696 -1.63697 -2.50686 0
M  V30 6415 H 593.242 -0.788526 -1.20492 0
M  V30 6416 H 595.195 0.103325 -4.21273 0
M  V30 6417 H 593.919 0.781164 -3.1712 0
M  V30 6418 H 592.578 -1.33756 -3.41328 0
M  V30 6419 H 592.226 0.564792 -4.99819 0
M  V30 6420 H 591.926 -1.00267 -5.78982 0
M  V30 6421 H 593.45 -0.12503 -6.10472 0
M  V30 6422 H 594.864 -2.24034 -5.27714 0
M  V30 6423 H 593.261 -3.02582 -5.18232 0
M  V30 6424 H 594.331 -3.05082 -3.76899 0
M  V30 6425 N 595.674 1.31259 -0.872281 0
M  V30 6426 C 596.951 1.91362 -0.404943 0
M  V30 6427 C 597.331 1.79362 1.11321 0
M  V30 6428 O 596.679 1.20277 1.94283 0
M  V30 6429 C 596.889 3.3749 -0.888893 0
M  V30 6430 C 598.237 4.14593 -0.916384 0
M  V30 6431 O 599.261 3.46282 -0.834701 0
M  V30 6432 O 598.12 5.3661 -1.03498 0
M  V30 6433 H 595.214 0.818016 -0.121569 0
M  V30 6434 H 597.76 1.39912 -0.960346 0
M  V30 6435 H 596.532 3.40249 -1.93251 0
M  V30 6436 H 596.155 3.96375 -0.311932 0
M  V30 6437 N 597.152 0.631951 1.44375 0
M  V30 6438 C 598.563 0.219036 1.85411 0
M  V30 6439 C 598.914 -1.22974 1.52879 0
M  V30 6440 O 598.039 -1.93579 0.967266 0
M  V30 6441 C 598.634 0.39075 3.36539 0
M  V30 6442 C 597.193 0.0323351 3.76386 0
M  V30 6443 C 596.34 0.703744 2.68221 0
M  V30 6444 H 599.291 0.837056 1.3483 0
M  V30 6445 H 599.312 -0.370056 3.78696 0
M  V30 6446 H 598.824 1.44527 3.60185 0
M  V30 6447 H 596.925 -1.02042 3.58355 0
M  V30 6448 H 597.038 0.442969 4.77048 0
M  V30 6449 H 595.402 0.138974 2.54321 0
M  V30 6450 H 596.185 1.76088 2.947 0
M  V30 6451 N 598.631 -1.53133 0.372548 0
M  V30 6452 C 599.563 -2.23557 -0.505444 0
M  V30 6453 C 600.576 -1.25211 -1.04049 0
M  V30 6454 O 601.765 -1.51391 -0.945675 0
M  V30 6455 C 598.865 -2.92516 -1.71136 0
M  V30 6456 C 598.038 -4.17428 -1.30661 0
M  V30 6457 C 597.097 -4.69535 -2.37536 0
M  V30 6458 O 596.123 -5.33042 -1.99637 0
M  V30 6459 N 597.325 -4.47947 -3.6922 0
M  V30 6460 H 600.09 -2.9954 0.0978259 0
M  V30 6461 H 597.651 -1.60684 0.198068 0
M  V30 6462 H 599.643 -3.24281 -2.42124 0
M  V30 6463 H 598.213 -2.19944 -2.22134 0
M  V30 6464 H 597.433 -3.91888 -0.426292 0
M  V30 6465 H 598.721 -4.98622 -1.01259 0
M  V30 6466 H 598.119 -3.97219 -4.02783 0
M  V30 6467 H 596.676 -4.84245 -4.36292 0
M  V30 6468 N 600.109 -0.101901 -1.5727 0
M  V30 6469 C 601.039 0.851544 -2.17419 0
M  V30 6470 C 602.02 1.28942 -1.10941 0
M  V30 6471 O 603.205 1.35509 -1.39107 0
M  V30 6472 C 600.335 2.10816 -2.75996 0
M  V30 6473 C 599.289 1.80867 -3.87906 0
M  V30 6474 C 598.615 3.13413 -4.33216 0
M  V30 6475 C 599.915 1.0903 -5.10793 0
M  V30 6476 H 601.609 0.350381 -2.97343 0
M  V30 6477 H 599.155 0.16709 -1.43027 0
M  V30 6478 H 601.108 2.77959 -3.16729 0
M  V30 6479 H 599.832 2.63227 -1.93337 0
M  V30 6480 H 598.491 1.16119 -3.47724 0
M  V30 6481 H 598.139 3.63725 -3.47438 0
M  V30 6482 H 597.839 2.94155 -5.08671 0
M  V30 6483 H 599.363 3.81704 -4.76586 0
M  V30 6484 H 600.777 1.66295 -5.48652 0
M  V30 6485 H 599.174 0.99927 -5.91722 0
M  V30 6486 H 600.244 0.0741704 -4.84843 0
M  V30 6487 N 601.587 1.56661 0.17182 0
M  V30 6488 C 602.833 1.82235 0.889845 0
M  V30 6489 C 603.166 0.679673 1.81918 0
M  V30 6490 O 602.441 -0.318404 1.91876 0
M  V30 6491 C 602.724 3.18195 1.68595 0
M  V30 6492 C 602.577 4.42989 0.779773 0
M  V30 6493 C 603.896 3.5109 2.65375 0
M  V30 6494 H 601.015 0.66291 0.322056 0
M  V30 6495 H 603.657 1.89358 0.15608 0
M  V30 6496 H 601.807 3.12253 2.3115 0
M  V30 6497 H 603.479 4.60997 0.16714 0
M  V30 6498 H 601.722 4.33711 0.0877964 0
M  V30 6499 H 602.393 5.3467 1.3723 0
M  V30 6500 H 604.869 3.57482 2.12946 0
M  V30 6501 H 603.745 4.47298 3.18144 0
M  V30 6502 H 604.006 2.75768 3.45549 0
M  V30 6503 N 603.065 -0.440357 1.51323 0
M  V30 6504 C 604.476 -1.02032 1.56353 0
M  V30 6505 C 604.827 -1.92382 0.385197 0
M  V30 6506 O 603.952 -2.10583 -0.498373 0
M  V30 6507 C 604.547 -1.85723 2.83359 0
M  V30 6508 C 603.106 -2.38774 2.90971 0
M  V30 6509 C 602.253 -1.17908 2.50984 0
M  V30 6510 H 605.204 -0.221744 1.57143 0
M  V30 6511 H 605.225 -2.71141 2.66951 0
M  V30 6512 H 604.737 -1.19939 3.69102 0
M  V30 6513 H 602.838 -3.08021 2.09651 0
M  V30 6514 H 602.951 -2.71778 3.94555 0
M  V30 6515 H 601.315 -1.52347 2.04114 0
M  V30 6516 H 602.098 -0.537393 3.39068 0
M  V30 6517 N 604.543 -1.41418 -0.695603 0
M  V30 6518 C 605.791 -1.40496 -1.45277 0
M  V30 6519 C 606.112 -0.0149538 -1.94994 0
M  V30 6520 O 605.382 0.9432 -1.71699 0
M  V30 6521 H 603.962 -0.517147 -0.539044 0
M  V30 6522 H 606.624 -1.76656 -0.823321 0
M  V30 6523 H 605.72 -2.09214 -2.31595 0
M  V30 6524 N 606.021 0.929856 -1.27246 0
M  V30 6525 C 607.269 1.674 -1.13233 0
M  V30 6526 C 607.59 1.92311 0.322744 0
M  V30 6527 O 606.86 1.52784 1.22612 0
M  V30 6528 H 605.44 0.620411 -0.416052 0
M  V30 6529 H 608.102 1.11663 -1.59741 0
M  V30 6530 H 607.198 2.64308 -1.65975 0
M  V30 6531 N 607.499 1.09233 1.13605 0
M  V30 6532 C 608.747 0.825525 1.84471 0
M  V30 6533 C 609.068 -0.650702 1.83823 0
M  V30 6534 O 608.338 -1.47204 1.29259 0
M  V30 6535 H 606.918 0.3024 0.683054 0
M  V30 6536 H 609.58 1.38006 1.37624 0
M  V30 6537 H 608.676 1.17727 2.89045 0
M  V30 6538 N 608.977 -1.30795 0.87923 0
M  V30 6539 C 609.94 -2.26563 0.346676 0
M  V30 6540 C 610.94 -1.52578 -0.507597 0
M  V30 6541 O 612.13 -1.71318 -0.315575 0
M  V30 6542 C 609.262 -3.37115 -0.506611 0
M  V30 6543 H 610.455 -2.75183 1.19223 0
M  V30 6544 H 608.008 -1.41886 0.655598 0
M  V30 6545 H 608.743 -2.93802 -1.37299 0
M  V30 6546 H 608.528 -3.91959 0.105218 0
M  V30 6547 H 610.018 -4.08412 -0.871192 0
M  V30 6548 N 610.455 -0.639598 -1.44038 0
M  V30 6549 C 611.68 -0.153117 -2.06834 0
M  V30 6550 C 612.105 1.16676 -1.47541 0
M  V30 6551 O 611.463 1.71769 -0.580093 0
M  V30 6552 C 611.511 -0.0609169 -3.60549 0
M  V30 6553 O 610.615 0.98071 -4.00569 0
M  V30 6554 H 609.956 -0.0886402 -0.658057 0
M  V30 6555 H 612.486 -0.878674 -1.84771 0
M  V30 6556 H 612.496 0.126892 -4.07803 0
M  V30 6557 H 611.171 -1.0245 -4.03084 0
M  V30 6558 H 609.748 0.766789 -3.64931 0
M  V30 6559 N 611.933 1.52934 -0.380664 0
M  V30 6560 C 612.843 2.29921 0.466192 0
M  V30 6561 C 613.859 1.36488 1.07922 0
M  V30 6562 O 615.035 1.69553 1.0869 0
M  V30 6563 C 612.1 3.08468 1.58266 0
M  V30 6564 C 611.161 4.17595 0.995627 0
M  V30 6565 C 610.394 4.92387 2.05889 0
M  V30 6566 O 610.617 4.67184 3.27254 0
M  V30 6567 O 609.551 5.77949 1.68102 0
M  V30 6568 H 613.377 3.03274 -0.160735 0
M  V30 6569 H 610.962 1.48698 -0.144617 0
M  V30 6570 H 612.844 3.57469 2.23145 0
M  V30 6571 H 611.519 2.37937 2.19471 0
M  V30 6572 H 610.426 3.72811 0.310332 0
M  V30 6573 H 611.759 4.90336 0.427918 0
M  V30 6574 N 613.412 0.11024 1.57214 0
M  V30 6575 C 614.345 -0.880224 2.1054 0
M  V30 6576 C 615.323 -1.26658 1.01964 0
M  V30 6577 O 616.507 -1.36917 1.29561 0
M  V30 6578 C 613.634 -2.17676 2.59489 0
M  V30 6579 C 612.68 -1.93914 3.79868 0
M  V30 6580 S 613.513 -1.16336 5.2271 0
M  V30 6581 C 614.669 -2.47188 5.75021 0
M  V30 6582 H 614.902 -0.426614 2.94223 0
M  V30 6583 H 612.435 -0.10336 1.54054 0
M  V30 6584 H 614.393 -2.92175 2.88347 0
M  V30 6585 H 613.054 -2.60156 1.76005 0
M  V30 6586 H 612.247 -2.8996 4.12236 0
M  V30 6587 H 611.849 -1.27539 3.51582 0
M  V30 6588 H 614.141 -3.43079 5.84211 0
M  V30 6589 H 615.084 -2.19377 6.7326 0
M  V30 6590 H 615.492 -2.56154 5.03036 0
M  V30 6591 N 614.89 -1.56749 -0.16351 0
M  V30 6592 C 615.853 -1.96121 -1.18613 0
M  V30 6593 C 616.853 -0.845765 -1.36761 0
M  V30 6594 O 618.043 -1.11268 -1.34033 0
M  V30 6595 C 615.175 -2.26282 -2.54969 0
M  V30 6596 H 616.368 -2.87639 -0.848764 0
M  V30 6597 H 613.921 -1.50928 -0.406251 0
M  V30 6598 H 614.656 -1.37504 -2.93706 0
M  V30 6599 H 614.441 -3.07595 -2.43162 0
M  V30 6600 H 615.931 -2.57638 -3.28653 0
M  V30 6601 N 616.368 0.432326 -1.51554 0
M  V30 6602 C 617.614 1.18309 -1.64714 0
M  V30 6603 C 617.947 1.90745 -0.364696 0
M  V30 6604 O 617.222 1.8381 0.635936 0
M  V30 6605 C 617.505 2.1961 -2.85383 0
M  V30 6606 C 617.358 1.51223 -4.23617 0
M  V30 6607 C 618.677 3.20538 -3.01569 0
M  V30 6608 H 615.796 0.428751 -0.599451 0
M  V30 6609 H 618.438 0.471689 -1.84052 0
M  V30 6610 H 616.588 2.8028 -2.69027 0
M  V30 6611 H 618.26 0.938516 -4.51652 0
M  V30 6612 H 616.503 0.814501 -4.26085 0
M  V30 6613 H 617.174 2.25024 -5.04052 0
M  V30 6614 H 619.65 2.69926 -3.16669 0
M  V30 6615 H 618.526 3.88706 -3.87555 0
M  V30 6616 H 618.787 3.86933 -2.13859 0
M  V30 6617 N 617.846 1.41785 0.688094 0
M  V30 6618 C 618.809 1.43936 1.78368 0
M  V30 6619 C 619.809 0.328866 1.57401 0
M  V30 6620 O 620.999 0.589093 1.63937 0
M  V30 6621 C 618.131 1.25804 3.16838 0
M  V30 6622 H 619.324 2.41472 1.77852 0
M  V30 6623 H 616.877 1.28037 0.896448 0
M  V30 6624 H 617.612 0.291386 3.22988 0
M  V30 6625 H 617.397 2.06272 3.33458 0
M  V30 6626 H 618.887 1.30162 3.96797 0
M  V30 6627 N 619.324 -0.923095 1.27737 0
M  V30 6628 C 620.274 -2.01061 1.0751 0
M  V30 6629 C 621.258 -1.609 0.00165451 0
M  V30 6630 O 622.45 -1.75618 0.220724 0
M  V30 6631 C 619.579 -3.35467 0.729162 0
M  V30 6632 C 618.665 -3.82059 1.84098 0
M  V30 6633 N 619.056 -4.01115 3.08124 0
M  V30 6634 C 617.354 -4.11135 1.7287 0
M  V30 6635 C 618.055 -4.39989 3.80506 0
M  V30 6636 N 617.031 -4.47721 3.08297 0
M  V30 6637 H 620.833 -2.13832 2.01626 0
M  V30 6638 H 618.347 -1.11027 1.18519 0
M  V30 6639 H 620.344 -4.13049 0.565355 0
M  V30 6640 H 619.004 -3.24056 -0.204334 0
M  V30 6641 H 620.015 -3.87294 3.43836 0
M  V30 6642 H 616.692 -4.08412 0.866352 0
M  V30 6643 H 618.082 -4.62773 4.87125 0
M  V30 6644 N 620.802 -1.09834 -1.13024 0
M  V30 6645 C 621.765 -0.745058 -2.16752 0
M  V30 6646 C 622.765 0.227435 -1.59183 0
M  V30 6647 O 623.955 0.0050786 -1.74199 0
M  V30 6648 C 621.087 -0.102543 -3.40746 0
M  V30 6649 H 622.28 -1.66375 -2.49518 0
M  V30 6650 H 619.833 -0.898061 -1.27924 0
M  V30 6651 H 620.568 0.827177 -3.13573 0
M  V30 6652 H 620.353 -0.80235 -3.83803 0
M  V30 6653 H 621.843 0.129082 -4.174 0
M  V30 6654 N 622.28 1.30327 -0.886154 0
M  V30 6655 C 623.21 2.30549 -0.370028 0
M  V30 6656 C 624.191 1.61039 0.547751 0
M  V30 6657 O 625.376 1.8864 0.461353 0
M  V30 6658 C 622.506 3.44808 0.415275 0
M  V30 6659 C 621.46 4.26024 -0.41085 0
M  V30 6660 C 620.786 5.32347 0.501128 0
M  V30 6661 C 622.086 4.95433 -1.65359 0
M  V30 6662 H 623.78 2.73969 -1.20754 0
M  V30 6663 H 621.326 1.3171 -0.582097 0
M  V30 6664 H 623.279 4.13986 0.78699 0
M  V30 6665 H 622.003 3.00197 1.28644 0
M  V30 6666 H 620.662 3.58535 -0.764719 0
M  V30 6667 H 620.31 4.83982 1.37004 0
M  V30 6668 H 620.01 5.87581 -0.0478356 0
M  V30 6669 H 621.534 6.0438 0.869333 0
M  V30 6670 H 622.948 5.5712 -1.35239 0
M  V30 6671 H 621.345 5.60537 -2.14284 0
M  V30 6672 H 622.415 4.21493 -2.39733 0
M  V30 6673 N 623.758 0.647228 1.43697 0
M  V30 6674 C 624.986 0.16575 2.06235 0
M  V30 6675 C 625.401 -1.1662 1.48476 0
M  V30 6676 O 624.758 -1.7187 0.613762 0
M  V30 6677 C 624.809 0.0621651 3.61447 0
M  V30 6678 O 624.53 1.34146 4.17057 0
M  V30 6679 C 626.031 -0.446102 4.4105 0
M  V30 6680 H 623.251 0.0871158 0.665321 0
M  V30 6681 H 625.795 0.886183 1.84301 0
M  V30 6682 H 623.95 -0.608794 3.82587 0
M  V30 6683 H 624.364 1.19675 5.10664 0
M  V30 6684 H 625.838 -0.46755 5.50016 0
M  V30 6685 H 626.315 -1.47627 4.13646 0
M  V30 6686 H 626.921 0.192159 4.24866 0
M  V30 6687 N 625.236 -1.5273 0.388769 0
M  V30 6688 C 626.146 -2.30165 -0.453993 0
M  V30 6689 C 627.162 -1.37058 -1.07197 0
M  V30 6690 O 628.338 -1.70127 -1.0779 0
M  V30 6691 C 625.403 -3.09303 -1.56628 0
M  V30 6692 C 624.464 -4.18117 -0.973467 0
M  V30 6693 C 623.697 -4.93472 -2.03275 0
M  V30 6694 O 623.92 -4.68913 -3.24772 0
M  V30 6695 O 622.854 -5.78833 -1.65034 0
M  V30 6696 H 626.68 -3.03185 0.176816 0
M  V30 6697 H 624.265 -1.4862 0.152501 0
M  V30 6698 H 626.147 -3.58648 -2.21246 0
M  V30 6699 H 624.822 -2.39098 -2.18206 0
M  V30 6700 H 623.729 -3.7297 -0.290556 0
M  V30 6701 H 625.062 -4.90556 -0.401908 0
M  V30 6702 N 626.714 -0.118576 -1.57153 0
M  V30 6703 C 627.661 0.831789 -2.1529 0
M  V30 6704 C 628.631 1.26385 -1.07778 0
M  V30 6705 O 629.816 1.34144 -1.35684 0
M  V30 6706 C 626.956 2.07664 -2.75626 0
M  V30 6707 C 626.069 1.69298 -3.97444 0
M  V30 6708 C 625.204 2.88747 -4.45868 0
M  V30 6709 C 624.243 2.46619 -5.60219 0
M  V30 6710 N 623.38 3.5898 -6.03389 0
M  V30 6711 H 628.22 0.329183 -2.96176 0
M  V30 6712 H 625.757 0.150792 -1.46325 0
M  V30 6713 H 627.715 2.80601 -3.08738 0
M  V30 6714 H 626.345 2.55384 -1.97431 0
M  V30 6715 H 625.397 0.862374 -3.70496 0
M  V30 6716 H 626.709 1.34338 -4.80369 0
M  V30 6717 H 625.863 3.69909 -4.80887 0
M  V30 6718 H 624.602 3.26933 -3.61892 0
M  V30 6719 H 623.607 1.63889 -5.24805 0
M  V30 6720 H 624.832 2.0955 -6.45961 0
M  V30 6721 H 622.778 3.9684 -5.22354 0
M  V30 6722 H 622.695 3.27942 -6.81168 0
M  V30 6723 H 623.963 4.40583 -6.43045 0
M  V30 6724 N 628.193 1.56834 0.155195 0
M  V30 6725 C 629.418 1.87412 0.888337 0
M  V30 6726 C 629.843 0.70671 1.74319 0
M  V30 6727 O 629.201 -0.343892 1.78009 0
M  V30 6728 C 629.249 3.1652 1.72765 0
M  V30 6729 O 628.353 2.99877 2.83103 0
M  V30 6730 H 627.694 0.615983 0.247914 0
M  V30 6731 H 630.224 2.04061 0.148478 0
M  V30 6732 H 630.234 3.48334 2.12433 0
M  V30 6733 H 628.909 4.01094 1.09985 0
M  V30 6734 H 627.486 2.79453 2.46902 0
M  V30 6735 N 629.671 -0.424282 1.51781 0
M  V30 6736 C 630.618 -1.51591 1.74037 0
M  V30 6737 C 631.588 -1.55556 0.582358 0
M  V30 6738 O 632.773 -1.72364 0.818245 0
M  V30 6739 C 629.913 -2.89188 1.8832 0
M  V30 6740 C 629.026 -2.9465 3.1592 0
M  V30 6741 C 628.161 -4.23452 3.20721 0
M  V30 6742 C 627.2 -4.22831 4.42584 0
M  V30 6743 N 626.337 -5.43178 4.44862 0
M  V30 6744 H 631.177 -1.31917 2.67212 0
M  V30 6745 H 628.714 -0.640599 1.32419 0
M  V30 6746 H 630.672 -3.69044 1.94583 0
M  V30 6747 H 629.302 -3.07392 0.985402 0
M  V30 6748 H 628.354 -2.07378 3.18902 0
M  V30 6749 H 629.666 -2.90055 4.05795 0
M  V30 6750 H 628.82 -5.1169 3.25973 0
M  V30 6751 H 627.559 -4.30722 2.28757 0
M  V30 6752 H 626.564 -3.32984 4.37495 0
M  V30 6753 H 627.789 -4.17213 5.35826 0
M  V30 6754 H 625.735 -5.51145 3.55775 0
M  V30 6755 H 625.652 -5.40515 5.28563 0
M  V30 6756 H 626.92 -6.33412 4.54324 0
M  V30 6757 N 631.149 -1.42148 -0.680565 0
M  V30 6758 C 632.112 -1.4488 -1.77602 0
M  V30 6759 C 633.112 -0.337209 -1.57224 0
M  V30 6760 O 634.302 -0.597778 -1.63622 0
M  V30 6761 C 631.434 -1.27483 -3.16166 0
M  V30 6762 H 632.627 -2.42412 -1.76568 0
M  V30 6763 H 630.18 -1.28511 -0.889645 0
M  V30 6764 H 630.915 -0.30851 -3.22829 0
M  V30 6765 H 630.7 -2.08037 -3.3236 0
M  V30 6766 H 632.19 -1.32265 -3.96101 0
M  V30 6767 N 632.627 0.916307 -1.28225 0
M  V30 6768 C 633.56 2.01954 -1.06254 0
M  V30 6769 C 634.538 1.62587 0.0205983 0
M  V30 6770 O 635.722 1.88073 -0.126824 0
M  V30 6771 C 632.849 3.33086 -0.614141 0
M  V30 6772 C 631.895 3.91435 -1.69354 0
M  V30 6773 S 632.728 4.22603 -3.28887 0
M  V30 6774 C 633.884 5.568 -2.85876 0
M  V30 6775 H 634.117 2.20281 -1.99659 0
M  V30 6776 H 631.65 1.06085 -1.12184 0
M  V30 6777 H 633.608 4.089 -0.36213 0
M  V30 6778 H 632.269 3.12664 0.300036 0
M  V30 6779 H 631.462 4.86098 -1.33136 0
M  V30 6780 H 631.064 3.22248 -1.89821 0
M  V30 6781 H 633.356 6.3658 -2.31888 0
M  V30 6782 H 634.299 5.97927 -3.79326 0
M  V30 6783 H 634.707 5.17865 -2.24669 0
M  V30 6784 N 634.105 1.10431 1.1244 0
M  V30 6785 C 635.333 0.868872 1.87772 0
M  V30 6786 C 635.748 -0.580645 1.7965 0
M  V30 6787 O 635.105 -1.40031 1.17036 0
M  V30 6788 C 635.156 1.30855 3.36986 0
M  V30 6789 O 634.877 2.70123 3.44914 0
M  V30 6790 C 636.378 1.107 4.29256 0
M  V30 6791 H 633.598 0.311868 0.59412 0
M  V30 6792 H 636.142 1.46897 1.42273 0
M  V30 6793 H 634.297 0.752126 3.80029 0
M  V30 6794 H 634.711 2.88923 4.37748 0
M  V30 6795 H 636.185 1.46378 5.32238 0
M  V30 6796 H 636.662 0.0456228 4.39176 0
M  V30 6797 H 637.268 1.64988 3.91994 0
M  V30 6798 N 635.583 -1.29855 0.893053 0
M  V30 6799 C 636.831 -1.9544 0.514566 0
M  V30 6800 C 637.152 -1.70795 -0.940959 0
M  V30 6801 O 636.422 -1.03601 -1.66264 0
M  V30 6802 H 635.002 -0.723137 0.187302 0
M  V30 6803 H 637.664 -1.58234 1.13789 0
M  V30 6804 H 636.76 -3.04341 0.691581 0
M  V30 6805 N 637.061 -0.65484 -1.43351 0
M  V30 6806 C 638.307 -0.169142 -2.02093 0
M  V30 6807 C 638.64 1.21431 -1.51553 0
M  V30 6808 O 637.915 1.81105 -0.709317 0
M  V30 6809 C 638.198 -0.181775 -3.59641 0
M  V30 6810 C 638.051 -1.59926 -4.20409 0
M  V30 6811 C 639.37 0.480945 -4.37464 0
M  V30 6812 H 636.489 -0.0629371 -0.734308 0
M  V30 6813 H 639.131 -0.835833 -1.70628 0
M  V30 6814 H 637.281 0.385918 -3.86578 0
M  V30 6815 H 638.953 -2.21766 -4.04497 0
M  V30 6816 H 637.196 -2.14605 -3.76998 0
M  V30 6817 H 637.867 -1.55994 -5.295 0
M  V30 6818 H 640.343 -0.00208273 -4.161 0
M  V30 6819 H 639.219 0.441384 -5.47122 0
M  V30 6820 H 639.48 1.55533 -4.13838 0
M  V30 6821 N 638.539 1.52521 -0.396863 0
M  V30 6822 C 639.449 2.30403 0.44178 0
M  V30 6823 C 640.465 1.37625 1.06468 0
M  V30 6824 O 641.641 1.70697 1.06886 0
M  V30 6825 C 638.706 3.1013 1.54986 0
M  V30 6826 C 637.767 4.18628 0.951279 0
M  V30 6827 C 637 4.94543 2.00655 0
M  V30 6828 O 637.223 4.70629 3.22281 0
M  V30 6829 O 636.157 5.797 1.61962 0
M  V30 6830 H 639.983 3.03087 -0.192892 0
M  V30 6831 H 637.568 1.48537 -0.16038 0
M  V30 6832 H 639.45 3.59816 2.19341 0
M  V30 6833 H 638.125 2.40251 2.16935 0
M  V30 6834 H 637.032 3.73119 0.270773 0
M  V30 6835 H 638.365 4.90763 0.375887 0
M  V30 6836 N 640.017 0.126909 1.57088 0
M  V30 6837 C 640.949 -0.850973 2.12817 0
M  V30 6838 C 641.962 -1.22457 1.07276 0
M  V30 6839 O 643.151 -1.17215 1.34622 0
M  V30 6840 C 640.251 -2.15039 2.61938 0
M  V30 6841 C 639.424 -1.94726 3.91664 0
M  V30 6842 C 638.483 -3.0847 4.26301 0
M  V30 6843 O 637.509 -2.81038 4.94981 0
M  V30 6844 N 638.711 -4.35116 3.84259 0
M  V30 6845 H 641.476 -0.3748 2.97347 0
M  V30 6846 H 639.037 -0.0572793 1.61799 0
M  V30 6847 H 641.029 -2.90141 2.82135 0
M  V30 6848 H 639.599 -2.5398 1.82244 0
M  V30 6849 H 638.819 -1.03772 3.80296 0
M  V30 6850 H 640.107 -1.78469 4.76473 0
M  V30 6851 H 639.505 -4.60276 3.2888 0
M  V30 6852 H 638.062 -5.07064 4.09548 0
M  V30 6853 N 641.495 -1.56914 -0.146875 0
M  V30 6854 C 642.741 -1.84515 -0.855914 0
M  V30 6855 C 643.096 -0.710909 -1.78784 0
M  V30 6856 O 642.389 0.291123 -1.89375 0
M  V30 6857 C 642.583 -3.16128 -1.66727 0
M  V30 6858 C 642.412 -4.42246 -0.815405 0
M  V30 6859 C 641.182 -5.03006 -0.480976 0
M  V30 6860 C 643.38 -5.14094 -0.145684 0
M  V30 6861 N 641.362 -6.12695 0.384476 0
M  V30 6862 C 642.733 -6.17282 0.579902 0
M  V30 6863 C 644.788 -4.97856 -0.0663705 0
M  V30 6864 C 643.491 -7.0599 1.37731 0
M  V30 6865 C 645.517 -5.87028 0.71778 0
M  V30 6866 C 644.879 -6.89698 1.43165 0
M  V30 6867 H 640.978 -0.725829 -0.291026 0
M  V30 6868 H 643.562 -1.94322 -0.121279 0
M  V30 6869 H 641.733 -3.07468 -2.37315 0
M  V30 6870 H 643.465 -3.31635 -2.31949 0
M  V30 6871 H 640.22 -4.66504 -0.816789 0
M  V30 6872 H 640.644 -6.72158 0.80823 0
M  V30 6873 H 645.286 -4.18465 -0.603929 0
M  V30 6874 H 643.004 -7.84809 1.92613 0
M  V30 6875 H 646.59 -5.76532 0.781141 0
M  V30 6876 H 645.47 -7.57505 2.02868 0
M  V30 6877 N 642.974 0.416227 -1.52004 0
M  V30 6878 C 644.385 0.995319 -1.57957 0
M  V30 6879 C 644.736 1.91744 -0.415754 0
M  V30 6880 O 643.861 2.11349 0.464808 0
M  V30 6881 C 644.456 1.81191 -2.86278 0
M  V30 6882 C 643.015 2.34115 -2.94732 0
M  V30 6883 C 642.162 1.139 -2.52828 0
M  V30 6884 H 645.113 0.196716 -1.57476 0
M  V30 6885 H 645.134 2.66859 -2.71231 0
M  V30 6886 H 644.646 1.14051 -3.70963 0
M  V30 6887 H 642.747 3.04647 -2.14525 0
M  V30 6888 H 642.86 2.65466 -3.98829 0
M  V30 6889 H 641.224 1.49081 -2.06511 0
M  V30 6890 H 642.007 0.483383 -3.3988 0
M  V30 6891 N 644.452 1.42507 0.673017 0
M  V30 6892 C 645.682 1.46261 1.45916 0
M  V30 6893 C 646.09 0.0729724 1.89059 0
M  V30 6894 O 645.433 -0.922987 1.58829 0
M  V30 6895 C 645.495 2.32853 2.73898 0
M  V30 6896 C 645.159 3.80699 2.52819 0
M  V30 6897 C 646.156 4.72307 2.17306 0
M  V30 6898 C 643.841 4.24983 2.67758 0
M  V30 6899 C 645.835 6.06192 1.97003 0
M  V30 6900 C 643.522 5.58927 2.4707 0
M  V30 6901 C 644.52 6.49348 2.11746 0
M  V30 6902 O 644.208 7.80817 1.91259 0
M  V30 6903 H 643.94 0.499561 0.455428 0
M  V30 6904 H 646.494 1.87697 0.834196 0
M  V30 6905 H 644.724 1.86268 3.38882 0
M  V30 6906 H 646.413 2.28041 3.35786 0
M  V30 6907 H 647.179 4.39378 2.05359 0
M  V30 6908 H 643.058 3.54893 2.94231 0
M  V30 6909 H 646.602 6.76731 1.69355 0
M  V30 6910 H 642.499 5.91429 2.58615 0
M  V30 6911 H 643.267 7.92194 2.05843 0
M  V30 6912 N 645.93 -0.909495 1.28709 0
M  V30 6913 C 647.346 -1.18862 1.06508 0
M  V30 6914 C 647.546 -2.00604 -0.189864 0
M  V30 6915 O 646.602 -2.36281 -0.890355 0
M  V30 6916 C 647.915 -1.91908 2.31499 0
M  V30 6917 C 649.463 -2.04773 2.36721 0
M  V30 6918 C 649.938 -2.81228 3.6149 0
M  V30 6919 N 651.429 -2.88787 3.62155 0
M  V30 6920 C 652.164 -3.48455 4.55375 0
M  V30 6921 N 651.66 -4.09369 5.58918 0
M  V30 6922 N 653.453 -3.46035 4.42963 0
M  V30 6923 H 645.604 -0.363867 2.0926 0
M  V30 6924 H 647.867 -0.223649 0.921241 0
M  V30 6925 H 647.573 -1.39275 3.22948 0
M  V30 6926 H 647.447 -2.92436 2.38245 0
M  V30 6927 H 649.834 -2.56585 1.45767 0
M  V30 6928 H 649.915 -1.03408 2.33967 0
M  V30 6929 H 649.559 -2.30094 4.5279 0
M  V30 6930 H 649.489 -3.82917 3.61499 0
M  V30 6931 H 651.98 -2.45514 2.87283 0
M  V30 6932 H 652.293 -4.52891 6.26187 0
M  V30 6933 H 650.638 -4.0786 5.62739 0
M  V30 6934 H 653.829 -2.9766 3.6127 0
M  V30 6935 H 654.002 -3.92244 5.15799 0
M  V30 6936 N 647.408 -1.11026 -1.11852 0
M  V30 6937 C 648.371 -0.768006 -2.1595 0
M  V30 6938 C 649.371 0.210538 -1.59416 0
M  V30 6939 O 650.561 -0.0133978 -1.74195 0
M  V30 6940 C 647.693 -0.138678 -3.40618 0
M  V30 6941 H 648.886 -1.69012 -2.4774 0
M  V30 6942 H 646.439 -0.911578 -1.26964 0
M  V30 6943 H 647.174 0.793872 -3.14433 0
M  V30 6944 H 646.959 -0.843012 -3.8293 0
M  V30 6945 H 648.449 0.0848039 -4.17514 0
M  V30 6946 N 648.886 1.2938 -0.899927 0
M  V30 6947 C 650.132 1.9584 -0.526742 0
M  V30 6948 C 650.465 1.70774 0.924651 0
M  V30 6949 O 649.74 1.02084 1.65557 0
M  V30 6950 C 650.023 3.50638 -0.820062 0
M  V30 6951 C 649.876 3.85161 -2.32317 0
M  V30 6952 C 651.195 4.3903 -0.30671 0
M  V30 6953 H 648.314 0.711322 -0.192848 0
M  V30 6954 H 650.956 1.52992 -1.12665 0
M  V30 6955 H 649.106 3.87265 -0.309491 0
M  V30 6956 H 650.778 3.58477 -2.9033 0
M  V30 6957 H 649.021 3.32696 -2.78381 0
M  V30 6958 H 649.692 4.93204 -2.47898 0
M  V30 6959 H 652.168 4.09396 -0.743908 0
M  V30 6960 H 651.044 5.46226 -0.541144 0
M  V30 6961 H 651.305 4.34937 0.792588 0
M  V30 6962 N 650.364 0.662433 1.43002 0
M  V30 6963 C 651.327 -0.0142016 2.29196 0
M  V30 6964 C 652.327 -0.741394 1.42688 0
M  V30 6965 O 653.517 -0.581257 1.64216 0
M  V30 6966 C 650.649 -1.03084 3.24941 0
M  V30 6967 H 651.842 0.7443 2.90517 0
M  V30 6968 H 649.395 0.424133 1.50435 0
M  V30 6969 H 650.13 -1.81826 2.68533 0
M  V30 6970 H 649.915 -0.512946 3.8873 0
M  V30 6971 H 651.405 -1.50308 3.89612 0
M  V30 6972 N 651.842 -1.52309 0.404946 0
M  V30 6973 C 652.774 -2.24579 -0.45791 0
M  V30 6974 C 653.787 -1.2739 -1.01369 0
M  V30 6975 O 654.976 -1.53363 -0.91335 0
M  V30 6976 C 652.076 -2.9608 -1.64893 0
M  V30 6977 C 651.249 -4.20106 -1.21777 0
M  V30 6978 C 650.308 -4.74468 -2.27523 0
M  V30 6979 O 649.334 -5.37157 -1.88285 0
M  V30 6980 N 650.536 -4.55678 -3.59635 0
M  V30 6981 H 653.301 -2.99265 0.161341 0
M  V30 6982 H 650.862 -1.60228 0.232107 0
M  V30 6983 H 652.854 -3.29344 -2.35191 0
M  V30 6984 H 651.424 -2.24606 -2.17419 0
M  V30 6985 H 650.644 -3.92704 -0.343071 0
M  V30 6986 H 651.932 -5.00658 -0.906596 0
M  V30 6987 H 651.33 -4.05673 -3.94266 0
M  V30 6988 H 649.887 -4.9339 -4.25922 0
M  V30 6989 N 653.32 -0.135238 -1.57019 0
M  V30 6990 C 654.283 0.794707 -2.14981 0
M  V30 6991 C 655.283 1.18342 -1.08866 0
M  V30 6992 O 656.473 1.10627 -1.34563 0
M  V30 6993 C 653.605 2.07685 -2.70333 0
M  V30 6994 H 654.798 0.290696 -2.98488 0
M  V30 6995 H 652.351 0.114128 -1.55883 0
M  V30 6996 H 653.086 2.6248 -1.9046 0
M  V30 6997 H 652.871 1.80745 -3.47957 0
M  V30 6998 H 654.361 2.74127 -3.1503 0
M  V30 6999 N 654.798 1.5699 0.138552 0
M  V30 7000 C 655.728 2.01933 1.17241 0
M  V30 7001 C 656.709 0.90033 1.44319 0
M  V30 7002 O 657.894 1.16872 1.55095 0
M  V30 7003 C 655.024 2.40711 2.50351 0
M  V30 7004 C 653.978 3.55874 2.37776 0
M  V30 7005 C 653.304 3.80491 3.75674 0
M  V30 7006 C 654.604 4.8826 1.85472 0
M  V30 7007 H 656.298 2.88551 0.798672 0
M  V30 7008 H 653.844 1.3882 0.382743 0
M  V30 7009 H 655.797 2.70754 3.22909 0
M  V30 7010 H 654.521 1.5104 2.89576 0
M  V30 7011 H 653.18 3.2601 1.67669 0
M  V30 7012 H 652.828 2.88057 4.12349 0
M  V30 7013 H 652.528 4.57998 3.68119 0
M  V30 7014 H 654.052 4.12967 4.49767 0
M  V30 7015 H 655.466 5.16965 2.4783 0
M  V30 7016 H 653.863 5.69631 1.88787 0
M  V30 7017 H 654.933 4.78071 0.810935 0
M  V30 7018 N 656.276 -0.40816 1.52223 0
M  V30 7019 C 657.186 -1.52202 1.78526 0
M  V30 7020 C 658.202 -1.60546 0.670892 0
M  V30 7021 O 659.378 -1.77242 0.956404 0
M  V30 7022 C 656.443 -2.87928 1.93128 0
M  V30 7023 C 655.504 -2.89463 3.17033 0
M  V30 7024 C 654.737 -4.18715 3.30929 0
M  V30 7025 O 654.96 -5.12662 2.50067 0
M  V30 7026 O 653.894 -4.27125 4.24084 0
M  V30 7027 H 657.72 -1.32911 2.73072 0
M  V30 7028 H 655.305 -0.594112 1.37079 0
M  V30 7029 H 657.187 -3.68426 2.04549 0
M  V30 7030 H 655.862 -3.07285 1.01772 0
M  V30 7031 H 654.769 -2.07815 3.11069 0
M  V30 7032 H 656.102 -2.75055 4.08174 0
M  V30 7033 N 657.755 -1.42862 -0.66545 0
M  V30 7034 C 659.001 -1.44043 -1.42757 0
M  V30 7035 C 659.334 -0.0599629 -1.94107 0
M  V30 7036 O 658.609 0.917286 -1.71511 0
M  V30 7037 C 658.892 -2.47266 -2.61786 0
M  V30 7038 C 658.745 -3.94539 -2.16007 0
M  V30 7039 C 660.064 -2.47365 -3.64003 0
M  V30 7040 H 657.183 -0.524506 -0.517748 0
M  V30 7041 H 659.825 -1.74335 -0.755466 0
M  V30 7042 H 657.975 -2.21565 -3.19126 0
M  V30 7043 H 659.647 -4.31254 -1.63762 0
M  V30 7044 H 657.89 -4.07957 -1.47491 0
M  V30 7045 H 658.561 -4.62357 -3.01546 0
M  V30 7046 H 661.037 -2.70243 -3.16399 0
M  V30 7047 H 659.913 -3.21552 -4.44854 0
M  V30 7048 H 660.174 -1.50299 -4.15767 0
M  V30 7049 N 659.233 0.902656 -1.29189 0
M  V30 7050 C 660.482 1.6475 -1.16362 0
M  V30 7051 C 660.795 1.93517 0.284682 0
M  V30 7052 O 662.001 2.66192 0.534229 0
M  V30 7053 C 660.457 2.96848 -2.03493 0
M  V30 7054 C 660.065 2.75687 -3.5313 0
M  V30 7055 C 661.809 3.74762 -1.99383 0
M  V30 7056 C 659.716 4.03492 -4.32375 0
M  V30 7057 H 658.646 0.618041 -0.431904 0
M  V30 7058 H 661.297 1.0008 -1.53806 0
M  V30 7059 H 659.679 3.62715 -1.58916 0
M  V30 7060 H 660.853 2.18431 -4.05739 0
M  V30 7061 H 659.168 2.11171 -3.58881 0
M  V30 7062 H 661.765 4.69515 -2.5585 0
M  V30 7063 H 662.108 4.04767 -0.973123 0
M  V30 7064 H 662.641 3.15732 -2.41988 0
M  V30 7065 H 659.38 3.78656 -5.3507 0
M  V30 7066 H 658.9 4.60318 -3.84535 0
M  V30 7067 H 660.579 4.71662 -4.42881 0
M  V30 7068 N 660.711 1.11618 1.11262 0
M  V30 7069 C 662.122 0.881942 1.64556 0
M  V30 7070 C 662.473 -0.585442 1.87262 0
M  V30 7071 O 661.598 -1.44795 1.60821 0
M  V30 7072 C 662.193 1.59446 2.98935 0
M  V30 7073 C 660.752 1.40661 3.4913 0
M  V30 7074 C 659.899 1.63593 2.23903 0
M  V30 7075 H 662.85 1.27217 0.94877 0
M  V30 7076 H 662.871 1.04054 3.65996 0
M  V30 7077 H 662.383 2.66241 2.82378 0
M  V30 7078 H 660.484 0.360835 3.70849 0
M  V30 7079 H 660.597 2.15693 4.27801 0
M  V30 7080 H 658.961 1.05944 2.3162 0
M  V30 7081 H 659.744 2.71666 2.09886 0
M  V30 7082 N 662.189 -1.289 0.906776 0
M  V30 7083 C 663.605 -1.47733 0.603902 0
M  V30 7084 C 663.805 -1.82568 -0.852702 0
M  V30 7085 O 662.861 -1.92642 -1.63234 0
M  V30 7086 C 664.174 -2.58522 1.53581 0
M  V30 7087 C 665.722 -2.72394 1.54177 0
M  V30 7088 C 666.197 -3.86318 2.46013 0
M  V30 7089 N 667.688 -3.93661 2.441 0
M  V30 7090 C 668.423 -4.81177 3.11859 0
M  V30 7091 N 667.919 -5.73333 3.88923 0
M  V30 7092 N 669.712 -4.74728 3.00981 0
M  V30 7093 H 661.863 -1.04567 1.84877 0
M  V30 7094 H 664.126 -0.520118 0.792579 0
M  V30 7095 H 663.832 -2.39667 2.57396 0
M  V30 7096 H 663.706 -3.55475 1.26165 0
M  V30 7097 H 666.093 -2.90641 0.511034 0
M  V30 7098 H 666.174 -1.75993 1.85634 0
M  V30 7099 H 665.818 -3.68826 3.49185 0
M  V30 7100 H 665.748 -4.82102 2.11862 0
M  V30 7101 H 668.239 -3.27751 1.88115 0
M  V30 7102 H 668.552 -6.36923 4.37663 0
M  V30 7103 H 666.897 -5.73196 3.93029 0
M  V30 7104 H 670.088 -4.01722 2.40286 0
M  V30 7105 H 670.261 -5.42719 3.54062 0
M  V30 7106 N 663.667 -0.670007 -1.42649 0
M  V30 7107 C 664.895 -0.19854 -2.05945 0
M  V30 7108 C 665.31 1.14243 -1.50313 0
M  V30 7109 O 664.667 1.70872 -0.641027 0
M  V30 7110 C 664.718 -0.11966 -3.61302 0
M  V30 7111 O 664.439 -1.40764 -4.1487 0
M  V30 7112 C 665.94 0.375878 -4.41704 0
M  V30 7113 H 663.16 -0.0976894 -0.663851 0
M  V30 7114 H 665.704 -0.915392 -1.82868 0
M  V30 7115 H 663.859 0.547851 -3.83507 0
M  V30 7116 H 664.273 -1.27784 -5.08696 0
M  V30 7117 H 665.747 0.379988 -5.50691 0
M  V30 7118 H 666.224 1.41028 -4.15942 0
M  V30 7119 H 666.83 -0.259727 -4.24506 0
M  V30 7120 N 665.145 1.52092 -0.413018 0
M  V30 7121 C 666.075 2.30021 0.401567 0
M  V30 7122 C 667.056 1.34395 1.04269 0
M  V30 7123 O 668.241 1.63304 1.05097 0
M  V30 7124 C 665.371 3.12447 1.51638 0
M  V30 7125 C 664.325 4.16153 1.00005 0
M  V30 7126 C 663.651 4.86948 2.20875 0
M  V30 7127 C 664.951 5.22275 0.0513757 0
M  V30 7128 H 666.645 2.98365 -0.248704 0
M  V30 7129 H 664.191 1.4349 -0.121052 0
M  V30 7130 H 666.144 3.65733 2.09326 0
M  V30 7131 H 664.868 2.41879 2.19458 0
M  V30 7132 H 663.527 3.63882 0.445549 0
M  V30 7133 H 663.175 4.12905 2.8726 0
M  V30 7134 H 662.875 5.57057 1.86978 0
M  V30 7135 H 664.399 5.43048 2.79162 0
M  V30 7136 H 665.813 5.70778 0.537176 0
M  V30 7137 H 664.21 5.9977 -0.198977 0
M  V30 7138 H 665.28 4.76611 -0.892736 0
M  V30 7139 N 666.623 0.143563 1.56945 0
M  V30 7140 C 667.872 -0.50835 1.95189 0
M  V30 7141 C 668.185 -1.66239 1.03073 0
M  V30 7142 O 669.391 -2.3787 1.30882 0
M  V30 7143 C 667.847 -0.955735 3.46978 0
M  V30 7144 C 667.455 0.171183 4.47673 0
M  V30 7145 C 669.199 -1.57763 3.94095 0
M  V30 7146 C 667.106 -0.294279 5.90667 0
M  V30 7147 H 666.036 -0.193679 0.728701 0
M  V30 7148 H 668.687 0.227357 1.82086 0
M  V30 7149 H 667.069 -1.7466 3.55401 0
M  V30 7150 H 668.243 0.948049 4.50942 0
M  V30 7151 H 666.558 0.701273 4.10452 0
M  V30 7152 H 669.155 -1.93745 4.98364 0
M  V30 7153 H 669.498 -2.46531 3.35452 0
M  V30 7154 H 670.031 -0.851728 3.88575 0
M  V30 7155 H 666.77 0.557939 6.53121 0
M  V30 7156 H 666.29 -1.0371 5.90766 0
M  V30 7157 H 667.969 -0.747426 6.42668 0
M  V30 7158 N 668.101 -1.57061 -0.130224 0
M  V30 7159 C 669.033 -1.96147 -1.18571 0
M  V30 7160 C 670.046 -0.859347 -1.38272 0
M  V30 7161 O 671.235 -1.13769 -1.37545 0
M  V30 7162 C 668.335 -2.23484 -2.54771 0
M  V30 7163 C 667.508 -3.54786 -2.55824 0
M  V30 7164 C 666.567 -3.70467 -3.73686 0
M  V30 7165 O 665.593 -4.42693 -3.57787 0
M  V30 7166 N 666.795 -3.08389 -4.91809 0
M  V30 7167 H 669.56 -2.87295 -0.853333 0
M  V30 7168 H 667.121 -1.58714 -0.319621 0
M  V30 7169 H 669.113 -2.312 -3.32158 0
M  V30 7170 H 667.683 -1.38518 -2.80235 0
M  V30 7171 H 666.903 -3.5836 -1.64232 0
M  V30 7172 H 668.191 -4.4111 -2.53573 0
M  V30 7173 H 667.589 -2.49656 -5.0763 0
M  V30 7174 H 666.146 -3.21642 -5.66912 0
M  V30 7175 N 669.579 0.400081 -1.52437 0
M  V30 7176 C 670.527 1.50851 -1.7705 0
M  V30 7177 C 671.521 1.56928 -0.637969 0
M  V30 7178 O 672.727 1.60226 -0.820212 0
M  V30 7179 H 669.102 0.50186 -0.560036 0
M  V30 7180 H 671.073 1.27281 -2.69893 0
M  V30 7181 C 669.822 2.88117 -1.94638 0
M  V30 7182 H 669.145 2.84187 -2.81208 0
M  V30 7183 H 670.585 3.64942 -2.15855 0
M  V30 7184 C 669.044 3.29206 -0.715899 0
M  V30 7185 O 669.574 4.01544 0.111944 0
M  V30 7186 N 667.78 2.85363 -0.549191 0
M  V30 7187 H 667.327 2.26664 -1.22397 0
M  V30 7188 H 667.285 3.13214 0.27278 0
M  V30 7189 N 671.057 1.43213 0.657864 0
M  V30 7190 C 672.297 1.46083 1.42965 0
M  V30 7191 C 672.661 0.0809712 1.91829 0
M  V30 7192 O 673.862 -0.0156305 2.68795 0
M  V30 7193 C 672.133 2.47044 2.58271 0
M  V30 7194 S 673.692 2.68753 3.46868 0
M  V30 7195 H 670.51 0.517015 0.488074 0
M  V30 7196 H 673.112 1.79945 0.764213 0
M  V30 7197 H 671.816 3.46044 2.20639 0
M  V30 7198 H 671.347 2.14665 3.2967 0
M  V30 7199 H 673.362 1.98329 4.54841 0
M  V30 7200 N 672.536 -0.895792 1.29666 0
M  V30 7201 C 673.784 -1.64339 1.17631 0
M  V30 7202 C 674.105 -1.93099 -0.271643 0
M  V30 7203 O 673.375 -1.55981 -1.18518 0
M  V30 7204 H 671.955 -0.609162 0.432354 0
M  V30 7205 H 674.617 -1.07389 1.62646 0
M  V30 7206 H 673.713 -2.59815 1.72924 0
M  V30 7207 N 674.014 -1.12206 -1.10668 0
M  V30 7208 C 674.977 -0.790867 -2.15123 0
M  V30 7209 C 675.977 0.193618 -1.5963 0
M  V30 7210 O 677.167 -0.0318728 -1.74171 0
M  V30 7211 C 674.299 -0.174797 -3.40452 0
M  V30 7212 H 675.492 -1.7163 -2.45933 0
M  V30 7213 H 673.045 -0.924993 -1.2599 0
M  V30 7214 H 673.78 0.760478 -3.15257 0
M  V30 7215 H 673.565 -0.88358 -3.82015 0
M  V30 7216 H 675.055 0.0405162 -4.1758 0
M  V30 7217 N 675.492 1.28418 -0.913599 0
M  V30 7218 C 676.717 1.99643 -0.561899 0
M  V30 7219 C 677.142 1.67819 0.849608 0
M  V30 7220 O 676.5 0.910503 1.56779 0
M  V30 7221 C 676.548 3.52116 -0.777622 0
M  V30 7222 O 675.652 4.12076 0.163457 0
M  V30 7223 H 674.993 0.627229 -0.217898 0
M  V30 7224 H 677.523 1.63575 -1.229 0
M  V30 7225 H 677.533 4.02163 -0.687666 0
M  V30 7226 H 676.208 3.74613 -1.8066 0
M  V30 7227 H 674.785 3.72892 0.0247827 0
M  V30 7228 N 676.97 0.677563 1.42291 0
M  V30 7229 C 678.198 0.209459 2.05837 0
M  V30 7230 C 678.613 -1.13444 1.50917 0
M  V30 7231 O 677.97 -1.70529 0.65008 0
M  V30 7232 C 678.021 0.138819 3.61233 0
M  V30 7233 O 677.742 1.42962 4.14118 0
M  V30 7234 C 679.243 -0.352449 4.41897 0
M  V30 7235 H 676.463 0.101209 0.663323 0
M  V30 7236 H 679.007 0.925077 1.8238 0
M  V30 7237 H 677.162 -0.527505 3.83792 0
M  V30 7238 H 677.576 1.3048 5.08011 0
M  V30 7239 H 679.05 -0.350778 5.50884 0
M  V30 7240 H 679.527 -1.3882 4.16684 0
M  V30 7241 H 680.133 0.282236 4.24362 0
M  V30 7242 N 678.448 -1.51871 0.421078 0
M  V30 7243 C 679.697 -2.01125 -0.152206 0
M  V30 7244 C 680.01 -1.3106 -1.45199 0
M  V30 7245 O 681.216 -1.71195 -2.10724 0
M  V30 7246 C 679.672 -3.58458 -0.3218 0
M  V30 7247 C 679.28 -4.37448 0.96659 0
M  V30 7248 C 681.024 -4.15908 -0.84973 0
M  V30 7249 C 678.931 -5.86451 0.763529 0
M  V30 7250 H 677.861 -0.751556 -0.0606565 0
M  V30 7251 H 680.512 -1.75115 0.548354 0
M  V30 7252 H 678.894 -3.80847 -1.08498 0
M  V30 7253 H 680.068 -4.26814 1.73684 0
M  V30 7254 H 678.383 -3.91373 1.42183 0
M  V30 7255 H 680.98 -5.24922 -1.01788 0
M  V30 7256 H 681.323 -3.74031 -1.82774 0
M  V30 7257 H 681.856 -3.97535 -0.145297 0
M  V30 7258 H 678.595 -6.3271 1.71344 0
M  V30 7259 H 678.115 -5.99791 0.0327889 0
M  V30 7260 H 679.794 -6.45697 0.410354 0
M  V30 7261 N 679.926 -0.151884 -1.56866 0
M  V30 7262 C 681.342 0.204486 -1.58285 0
M  V30 7263 C 681.542 1.6431 -1.16639 0
M  V30 7264 O 680.598 2.37077 -0.868946 0
M  V30 7265 C 681.911 -0.0587019 -3.00643 0
M  V30 7266 C 683.459 0.00462303 -3.13 0
M  V30 7267 C 683.934 -0.231297 -4.57416 0
M  V30 7268 N 685.425 -0.178394 -4.62856 0
M  V30 7269 C 686.16 -0.335379 -5.72418 0
M  V30 7270 N 685.656 -0.550355 -6.90611 0
M  V30 7271 N 687.449 -0.272641 -5.61438 0
M  V30 7272 H 679.6 -1.09116 -1.82229 0
M  V30 7273 H 681.863 -0.432311 -0.843689 0
M  V30 7274 H 681.569 -1.05453 -3.35518 0
M  V30 7275 H 681.443 0.658508 -3.71407 0
M  V30 7276 H 683.83 0.991009 -2.77962 0
M  V30 7277 H 683.911 -0.744992 -2.44711 0
M  V30 7278 H 683.555 -1.2148 -4.93158 0
M  V30 7279 H 683.485 0.5387 -5.23837 0
M  V30 7280 H 685.976 -0.0170923 -3.77896 0
M  V30 7281 H 686.289 -0.660116 -7.69976 0
M  V30 7282 H 684.634 -0.586736 -6.92519 0
M  V30 7283 H 687.825 -0.105421 -4.67981 0
M  V30 7284 H 687.998 -0.398418 -6.46774 0
M  V30 7285 N 681.404 1.57128 0.121893 0
M  V30 7286 C 682.334 2.03165 1.15092 0
M  V30 7287 C 683.315 0.915587 1.43356 0
M  V30 7288 O 684.5 1.1851 1.53847 0
M  V30 7289 C 681.63 2.43352 2.47784 0
M  V30 7290 C 680.584 3.58376 2.33989 0
M  V30 7291 C 679.91 3.84454 3.71617 0
M  V30 7292 C 681.21 4.90199 1.80283 0
M  V30 7293 H 682.904 2.89382 0.768023 0
M  V30 7294 H 680.45 1.39218 0.367998 0
M  V30 7295 H 682.403 2.74163 3.20019 0
M  V30 7296 H 681.127 1.54103 2.87958 0
M  V30 7297 H 679.786 3.2777 1.64202 0
M  V30 7298 H 679.434 2.92414 4.09271 0
M  V30 7299 H 679.134 4.61877 3.6324 0
M  V30 7300 H 680.658 4.17714 4.45362 0
M  V30 7301 H 682.072 5.19565 2.42333 0
M  V30 7302 H 680.469 5.71601 1.82735 0
M  V30 7303 H 681.539 4.78904 0.760184 0
M  V30 7304 N 682.882 -0.391992 1.52647 0
M  V30 7305 C 683.812 -1.48517 1.8018 0
M  V30 7306 C 684.793 -1.57039 0.653667 0
M  V30 7307 O 685.978 -1.72036 0.900962 0
M  V30 7308 C 683.108 -2.86161 1.96797 0
M  V30 7309 C 682.062 -2.92481 3.12472 0
M  V30 7310 C 681.388 -4.32546 3.14338 0
M  V30 7311 C 682.688 -2.624 4.51601 0
M  V30 7312 H 684.382 -1.25726 2.71723 0
M  V30 7313 H 681.928 -0.603387 1.30749 0
M  V30 7314 H 683.881 -3.62639 2.14641 0
M  V30 7315 H 682.605 -3.10283 1.01941 0
M  V30 7316 H 681.264 -2.18451 2.94406 0
M  V30 7317 H 680.912 -4.53703 2.1717 0
M  V30 7318 H 680.612 -4.37695 3.92042 0
M  V30 7319 H 682.136 -5.10934 3.34333 0
M  V30 7320 H 683.55 -3.28596 4.69785 0
M  V30 7321 H 681.947 -2.78903 5.3135 0
M  V30 7322 H 683.017 -1.57754 4.58521 0
M  V30 7323 N 684.36 -1.4356 -0.65026 0
M  V30 7324 C 685.588 -1.48779 -1.43779 0
M  V30 7325 C 686.003 -0.106593 -1.88499 0
M  V30 7326 O 685.36 0.883766 -1.59674 0
M  V30 7327 C 685.411 -2.43618 -2.67081 0
M  V30 7328 O 685.132 -3.76367 -2.24231 0
M  V30 7329 C 686.633 -2.5811 -3.60409 0
M  V30 7330 H 683.853 -0.50521 -0.441593 0
M  V30 7331 H 686.397 -1.88332 -0.796941 0
M  V30 7332 H 684.552 -2.07253 -3.273 0
M  V30 7333 H 684.966 -4.27394 -3.0403 0
M  V30 7334 H 686.44 -3.28539 -4.43583 0
M  V30 7335 H 686.917 -1.627 -4.07953 0
M  V30 7336 H 687.523 -2.95298 -3.0607 0
M  V30 7337 N 685.838 0.888903 -1.30139 0
M  V30 7338 C 687.063 1.67884 -1.21777 0
M  V30 7339 C 687.488 1.86848 0.216689 0
M  V30 7340 O 686.846 1.39659 1.15608 0
M  V30 7341 C 686.894 3.03483 -1.94757 0
M  V30 7342 O 685.998 3.92294 -1.27198 0
M  V30 7343 H 685.339 0.513144 -0.421402 0
M  V30 7344 H 687.869 1.10968 -1.71893 0
M  V30 7345 H 687.879 3.53553 -2.03627 0
M  V30 7346 H 686.554 2.89 -2.99085 0
M  V30 7347 H 685.131 3.50732 -1.26655 0
M  V30 7348 N 687.317 1.12792 1.10072 0
M  V30 7349 C 688.247 0.821688 2.18565 0
M  V30 7350 C 689.228 -0.21612 1.68721 0
M  V30 7351 O 690.413 -0.0764932 1.94049 0
M  V30 7352 C 687.543 0.279624 3.46172 0
M  V30 7353 C 686.497 1.25092 4.09312 0
M  V30 7354 C 685.823 0.568916 5.31665 0
M  V30 7355 C 687.123 2.60699 4.52585 0
M  V30 7356 H 688.817 1.72888 2.44438 0
M  V30 7357 H 686.363 0.832702 1.17482 0
M  V30 7358 H 688.316 0.053099 4.21367 0
M  V30 7359 H 687.04 -0.662929 3.19801 0
M  V30 7360 H 685.699 1.46332 3.36129 0
M  V30 7361 H 685.347 -0.378898 5.01571 0
M  V30 7362 H 685.047 1.21687 5.74862 0
M  V30 7363 H 686.571 0.351517 6.09587 0
M  V30 7364 H 687.985 2.43465 5.19035 0
M  V30 7365 H 686.382 3.21608 5.06644 0
M  V30 7366 H 687.452 3.1886 3.65317 0
M  V30 7367 N 688.795 -1.27931 0.920396 0
M  V30 7368 C 690.211 -1.47085 0.619537 0
M  V30 7369 C 690.411 -1.83463 -0.833291 0
M  V30 7370 O 689.467 -1.94363 -1.61181 0
M  V30 7371 C 690.78 -2.56878 1.56314 0
M  V30 7372 C 692.328 -2.70743 1.57058 0
M  V30 7373 C 692.803 -3.83687 2.50097 0
M  V30 7374 N 694.294 -3.9105 2.48262 0
M  V30 7375 C 695.029 -4.77842 3.16945 0
M  V30 7376 N 694.525 -5.69176 3.94982 0
M  V30 7377 N 696.318 -4.71509 3.06 0
M  V30 7378 H 688.469 -1.02601 1.85975 0
M  V30 7379 H 690.732 -0.511682 0.798051 0
M  V30 7380 H 690.438 -2.36923 2.59923 0
M  V30 7381 H 690.312 -3.54117 1.29928 0
M  V30 7382 H 692.699 -2.90083 0.541832 0
M  V30 7383 H 692.78 -1.74015 1.8749 0
M  V30 7384 H 692.424 -3.65101 3.53077 0
M  V30 7385 H 692.354 -4.79827 2.16964 0
M  V30 7386 H 694.845 -3.25738 1.91581 0
M  V30 7387 H 695.158 -6.32245 4.44394 0
M  V30 7388 H 693.503 -5.68995 3.99086 0
M  V30 7389 H 696.694 -3.99151 2.44533 0
M  V30 7390 H 696.867 -5.38933 3.59799 0
M  V30 7391 N 690.273 -0.685099 -1.4193 0
M  V30 7392 C 691.236 -0.0222632 -2.29189 0
M  V30 7393 C 692.236 0.7186 -1.4385 0
M  V30 7394 O 693.426 0.555058 -1.6512 0
M  V30 7395 C 690.558 0.979013 -3.2654 0
M  V30 7396 H 691.751 -0.790424 -2.89296 0
M  V30 7397 H 689.304 -0.448012 -1.49742 0
M  V30 7398 H 690.039 1.77531 -2.71392 0
M  V30 7399 H 689.824 0.451037 -3.89497 0
M  V30 7400 H 691.314 1.44091 -3.91954 0
M  V30 7401 N 691.751 1.51645 -0.429126 0
M  V30 7402 C 692.698 2.27542 0.386446 0
M  V30 7403 C 693.668 1.30786 1.02393 0
M  V30 7404 O 694.853 1.59678 1.0444 0
M  V30 7405 C 691.993 3.11457 1.48623 0
M  V30 7406 C 691.106 4.23196 0.867691 0
M  V30 7407 C 690.241 4.94435 1.94183 0
M  V30 7408 C 689.28 5.98108 1.30129 0
M  V30 7409 N 688.417 6.62786 2.31644 0
M  V30 7410 H 693.257 2.968 -0.267155 0
M  V30 7411 H 690.794 1.46397 -0.143591 0
M  V30 7412 H 692.752 3.58429 2.13506 0
M  V30 7413 H 691.382 2.44329 2.10957 0
M  V30 7414 H 690.434 3.80248 0.107373 0
M  V30 7415 H 691.746 4.97499 0.35997 0
M  V30 7416 H 690.9 5.44914 2.66747 0
M  V30 7417 H 689.639 4.19744 2.48326 0
M  V30 7418 H 688.644 5.4693 0.561082 0
M  V30 7419 H 689.869 6.74751 0.767303 0
M  V30 7420 H 687.815 5.90913 2.84883 0
M  V30 7421 H 687.732 7.32828 1.85741 0
M  V30 7422 H 689 7.17897 3.03717 0
M  V30 7423 N 693.229 0.160201 1.56784 0
M  V30 7424 C 694.179 -0.786461 2.14007 0
M  V30 7425 C 695.163 -1.20046 1.07134 0
M  V30 7426 O 696.355 -1.16468 1.33283 0
M  V30 7427 C 693.484 -2.02024 2.77563 0
M  V30 7428 C 692.57 -1.62874 3.91578 0
M  V30 7429 N 692.961 -0.946176 4.96871 0
M  V30 7430 C 691.259 -1.92054 4.02531 0
M  V30 7431 C 691.96 -0.755084 5.76778 0
M  V30 7432 N 690.936 -1.29307 5.27997 0
M  V30 7433 H 694.738 -0.255879 2.92784 0
M  V30 7434 H 692.252 -0.0408778 1.62349 0
M  V30 7435 H 694.249 -2.70855 3.16928 0
M  V30 7436 H 692.909 -2.55587 2.00263 0
M  V30 7437 H 693.92 -0.605455 5.14349 0
M  V30 7438 H 690.597 -2.47374 3.36322 0
M  V30 7439 H 691.987 -0.216138 6.71552 0
M  V30 7440 N 694.707 -1.5719 -0.113559 0
M  V30 7441 C 695.935 -1.89328 -0.834422 0
M  V30 7442 C 696.35 -0.752018 -1.73177 0
M  V30 7443 O 695.707 0.276912 -1.80387 0
M  V30 7444 C 695.758 -3.20962 -1.66329 0
M  V30 7445 O 695.479 -4.30695 -0.802069 0
M  V30 7446 C 696.98 -3.6684 -2.48884 0
M  V30 7447 H 694.2 -0.626769 -0.239587 0
M  V30 7448 H 696.744 -2.04273 -0.0963195 0
M  V30 7449 H 694.899 -3.0767 -2.35409 0
M  V30 7450 H 695.313 -5.06175 -1.37431 0
M  V30 7451 H 696.787 -4.61692 -3.02563 0
M  V30 7452 H 697.264 -2.93765 -3.26495 0
M  V30 7453 H 697.87 -3.82938 -1.85036 0
M  V30 7454 N 696.185 0.383891 -1.52853 0
M  V30 7455 C 697.117 1.48889 -1.74255 0
M  V30 7456 C 698.13 1.50405 -0.623063 0
M  V30 7457 O 699.319 1.54215 -0.898887 0
M  V30 7458 C 696.419 2.87721 -1.79081 0
M  V30 7459 C 695.592 3.10111 -3.08464 0
M  V30 7460 C 694.651 4.28954 -3.0477 0
M  V30 7461 O 693.677 4.25012 -3.78621 0
M  V30 7462 N 694.879 5.35411 -2.24311 0
M  V30 7463 H 697.644 1.30915 -2.69595 0
M  V30 7464 H 695.205 0.573454 -1.51404 0
M  V30 7465 H 697.197 3.65333 -1.7411 0
M  V30 7466 H 695.767 2.99029 -0.911052 0
M  V30 7467 H 694.987 2.20319 -3.26884 0
M  V30 7468 H 696.275 3.21928 -3.94005 0
M  V30 7469 H 695.673 5.41471 -1.63787 0
M  V30 7470 H 694.23 6.1167 -2.25175 0
M  V30 7471 N 697.663 1.43903 0.642637 0
M  V30 7472 C 698.573 1.52349 1.78401 0
M  V30 7473 C 699.589 0.409869 1.69104 0
M  V30 7474 O 700.765 0.665548 1.90085 0
M  V30 7475 C 697.83 1.45408 3.14734 0
M  V30 7476 C 696.891 2.67528 3.35749 0
M  V30 7477 C 696.124 2.60909 4.65577 0
M  V30 7478 O 696.347 1.6627 5.45628 0
M  V30 7479 O 695.281 3.5158 4.88544 0
M  V30 7480 H 699.107 2.48752 1.7423 0
M  V30 7481 H 696.692 1.26021 0.802439 0
M  V30 7482 H 698.574 1.44019 3.96026 0
M  V30 7483 H 697.249 0.521437 3.19473 0
M  V30 7484 H 696.156 2.74487 2.5418 0
M  V30 7485 H 697.489 3.598 3.35864 0
M  V30 7486 N 699.141 -0.881989 1.30609 0
M  V30 7487 C 700.089 -2.00942 1.17155 0
M  V30 7488 C 701.083 -1.69198 0.0827154 0
M  V30 7489 O 702.289 -1.78342 0.243775 0
M  V30 7490 H 698.664 -0.658913 0.362406 0
M  V30 7491 H 700.635 -2.09423 2.12567 0
M  V30 7492 C 699.384 -3.36294 0.883273 0
M  V30 7493 H 698.707 -3.61233 1.7132 0
M  V30 7494 H 700.147 -4.15812 0.829255 0
M  V30 7495 C 698.606 -3.34348 -0.413851 0
M  V30 7496 O 699.136 -3.75216 -1.43444 0
M  V30 7497 N 697.342 -2.87459 -0.426082 0
M  V30 7498 H 696.889 -2.54397 0.40493 0
M  V30 7499 H 696.847 -2.8654 -1.29391 0
M  V30 7500 N 700.619 -1.13374 -1.09472 0
M  V30 7501 C 701.859 -0.905422 -1.83252 0
M  V30 7502 C 702.223 0.558396 -1.83701 0
M  V30 7503 O 703.424 0.904254 -2.53134 0
M  V30 7504 C 701.695 -1.47658 -3.25472 0
M  V30 7505 S 703.254 -1.38825 -4.16261 0
M  V30 7506 H 700.072 -0.326371 -0.631667 0
M  V30 7507 H 702.674 -1.44517 -1.31663 0
M  V30 7508 H 701.378 -2.53533 -3.22722 0
M  V30 7509 H 700.909 -0.934756 -3.82133 0
M  V30 7510 H 702.924 -0.366379 -4.94846 0
M  V30 7511 N 702.098 1.27442 -0.927168 0
M  V30 7512 C 703.008 2.30599 -0.431448 0
M  V30 7513 C 704.024 1.67028 0.48761 0
M  V30 7514 O 705.2 1.97962 0.370546 0
M  V30 7515 C 702.265 3.45327 0.308292 0
M  V30 7516 C 701.326 4.24418 -0.645615 0
M  V30 7517 C 700.559 5.33667 0.0589164 0
M  V30 7518 O 700.782 5.5589 1.27838 0
M  V30 7519 O 699.716 5.98774 -0.612638 0
M  V30 7520 H 703.542 2.75036 -1.28797 0
M  V30 7521 H 701.127 1.32382 -0.692495 0
M  V30 7522 H 703.009 4.15107 0.725555 0
M  V30 7523 H 701.684 3.02945 1.14043 0
M  V30 7524 H 700.591 3.57174 -1.11255 0
M  V30 7525 H 701.924 4.70512 -1.44496 0
M  V30 7526 N 703.576 0.692616 1.41565 0
M  V30 7527 C 704.804 0.231279 2.05603 0
M  V30 7528 C 705.219 -1.11837 1.52111 0
M  V30 7529 O 704.576 -1.6983 0.66813 0
M  V30 7530 C 704.627 0.177125 3.61066 0
M  V30 7531 O 704.348 1.47346 4.12578 0
M  V30 7532 C 705.849 -0.30556 4.42246 0
M  V30 7533 H 703.069 0.108238 0.662213 0
M  V30 7534 H 705.613 0.944369 1.81389 0
M  V30 7535 H 703.768 -0.486769 3.8433 0
M  V30 7536 H 704.182 1.35861 5.06599 0
M  V30 7537 H 705.656 -0.29233 5.51225 0
M  V30 7538 H 706.133 -1.34393 4.18133 0
M  V30 7539 H 706.739 0.327229 4.24039 0
M  V30 7540 N 705.054 -1.51416 0.437162 0
M  V30 7541 C 706.3 -2.03035 -0.121818 0
M  V30 7542 C 706.655 -1.31551 -1.404 0
M  V30 7543 O 705.948 -0.421623 -1.86903 0
M  V30 7544 C 706.142 -3.55203 -0.39564 0
M  V30 7545 C 705.971 -4.4143 0.858452 0
M  V30 7546 C 704.741 -4.85751 1.39192 0
M  V30 7547 C 706.939 -4.83808 1.74454 0
M  V30 7548 N 704.921 -5.5619 2.59857 0
M  V30 7549 C 706.292 -5.53312 2.79724 0
M  V30 7550 C 708.347 -4.65795 1.75897 0
M  V30 7551 C 707.05 -6.06713 3.86383 0
M  V30 7552 C 709.076 -5.20112 2.81492 0
M  V30 7553 C 708.438 -5.89562 3.85482 0
M  V30 7554 H 704.537 -0.781981 -0.00541671 0
M  V30 7555 H 707.121 -1.85296 0.597792 0
M  V30 7556 H 705.292 -3.72958 -1.08429 0
M  V30 7557 H 707.024 -3.93489 -0.945963 0
M  V30 7558 H 703.779 -4.64058 0.945879 0
M  V30 7559 H 704.203 -5.96037 3.21044 0
M  V30 7560 H 708.845 -4.11562 0.968306 0
M  V30 7561 H 706.563 -6.6 4.66288 0
M  V30 7562 H 710.149 -5.08026 2.83551 0
M  V30 7563 H 709.029 -6.30838 4.65847 0
M  V30 7564 N 706.532 -0.168513 -1.56696 0
M  V30 7565 C 707.78 0.476216 -1.96409 0
M  V30 7566 C 708.101 1.63968 -1.05544 0
M  V30 7567 O 707.371 1.95525 -0.121235 0
M  V30 7568 H 705.951 0.178921 -0.725256 0
M  V30 7569 H 708.613 -0.249042 -1.93302 0
M  V30 7570 H 707.709 0.838094 -3.00637 0
M  V30 7571 N 708.01 1.57248 0.105221 0
M  V30 7572 C 709.256 1.85845 0.811753 0
M  V30 7573 C 709.589 0.756219 1.78871 0
M  V30 7574 O 708.864 -0.236736 1.93054 0
M  V30 7575 C 709.147 3.25059 1.54947 0
M  V30 7576 C 709 4.45898 0.591185 0
M  V30 7577 C 710.319 3.6203 2.50245 0
M  V30 7578 H 707.438 0.675973 0.293649 0
M  V30 7579 H 710.08 1.89849 0.0756269 0
M  V30 7580 H 708.23 3.21776 2.17698 0
M  V30 7581 H 709.902 4.61291 -0.0285352 0
M  V30 7582 H 708.145 4.33693 -0.0962343 0
M  V30 7583 H 708.816 5.40009 1.1443 0
M  V30 7584 H 711.292 3.66192 1.97593 0
M  V30 7585 H 710.168 4.60389 2.98886 0
M  V30 7586 H 710.429 2.90176 3.33542 0
M  V30 7587 N 709.488 -0.375779 1.53054 0
M  V30 7588 C 710.436 -1.48015 1.79428 0
M  V30 7589 C 711.43 -1.55893 0.662854 0
M  V30 7590 O 712.636 -1.58901 0.845599 0
M  V30 7591 H 709.011 -0.492887 0.56795 0
M  V30 7592 H 710.982 -1.22971 2.71884 0
M  V30 7593 C 709.731 -2.84984 1.99197 0
M  V30 7594 H 709.054 -2.79677 2.85693 0
M  V30 7595 H 710.494 -3.61462 2.21633 0
M  V30 7596 C 708.953 -3.28025 0.768183 0
M  V30 7597 O 709.483 -4.01671 -0.0480482 0
M  V30 7598 N 707.689 -2.84454 0.594521 0
M  V30 7599 H 707.236 -2.24688 1.25988 0
M  V30 7600 H 707.194 -3.13609 -0.222916 0
M  V30 7601 N 710.966 -1.44241 -0.634997 0
M  V30 7602 C 712.214 -1.46531 -1.39187 0
M  V30 7603 C 712.535 -0.0976441 -1.94755 0
M  V30 7604 O 711.805 0.869528 -1.75545 0
M  V30 7605 H 710.385 -0.539544 -0.516625 0
M  V30 7606 H 713.047 -1.79989 -0.747655 0
M  V30 7607 H 712.143 -2.18848 -2.22513 0
M  V30 7608 N 712.444 0.87505 -1.31075 0
M  V30 7609 C 713.354 2.01441 -1.20244 0
M  V30 7610 C 714.37 1.73584 -0.120227 0
M  V30 7611 O 715.546 1.98559 -0.337063 0
M  V30 7612 C 712.611 3.34675 -0.905199 0
M  V30 7613 C 711.672 3.75889 -2.0738 0
M  V30 7614 C 710.905 5.02764 -1.79064 0
M  V30 7615 O 711.128 5.65795 -0.723318 0
M  V30 7616 O 710.062 5.40623 -2.64594 0
M  V30 7617 H 713.888 2.13509 -2.1598 0
M  V30 7618 H 711.473 1.00257 -1.10765 0
M  V30 7619 H 713.355 4.1458 -0.755057 0
M  V30 7620 H 712.03 3.23692 0.0221695 0
M  V30 7621 H 710.937 2.96645 -2.27931 0
M  V30 7622 H 712.27 3.91489 -2.98324 0
M  V30 7623 N 713.922 1.13953 1.08869 0
M  V30 7624 C 715.15 0.92817 1.84912 0
M  V30 7625 C 715.565 -0.523197 1.81406 0
M  V30 7626 O 714.922 -1.36237 1.21432 0
M  V30 7627 C 714.973 1.41509 3.32652 0
M  V30 7628 O 714.694 2.80959 3.36145 0
M  V30 7629 C 716.195 1.243 4.25517 0
M  V30 7630 H 713.415 0.330612 0.583898 0
M  V30 7631 H 715.959 1.51349 1.37527 0
M  V30 7632 H 714.114 0.872648 3.77444 0
M  V30 7633 H 714.528 3.02704 4.28335 0
M  V30 7634 H 716.002 1.63237 5.27312 0
M  V30 7635 H 716.479 0.18532 4.38809 0
M  V30 7636 H 717.085 1.77375 3.86546 0
M  V30 7637 N 715.4 -1.26948 0.933913 0
M  V30 7638 C 716.648 -1.93704 0.576484 0
M  V30 7639 C 716.969 -1.73702 -0.886145 0
M  V30 7640 O 716.239 -1.08838 -1.62884 0
M  V30 7641 H 714.819 -0.716812 0.210214 0
M  V30 7642 H 717.481 -1.54534 1.18766 0
M  V30 7643 H 716.577 -3.01987 0.788055 0
M  V30 7644 N 716.879 -0.700114 -1.41195 0
M  V30 7645 C 718.107 -0.242179 -2.05478 0
M  V30 7646 C 718.522 1.11029 -1.52702 0
M  V30 7647 O 717.879 1.69473 -0.677127 0
M  V30 7648 C 717.93 -0.196271 -3.60967 0
M  V30 7649 O 717.651 -1.49532 -4.11791 0
M  V30 7650 C 719.152 0.282102 -4.42401 0
M  V30 7651 H 716.372 -0.111749 -0.661629 0
M  V30 7652 H 718.916 -0.953975 -1.80885 0
M  V30 7653 H 717.071 0.46638 -3.84582 0
M  V30 7654 H 717.485 -1.38545 -5.05871 0
M  V30 7655 H 718.959 0.263093 -5.51373 0
M  V30 7656 H 719.436 1.32174 -4.1884 0
M  V30 7657 H 720.042 -0.349712 -4.2386 0
M  V30 7658 N 718.357 1.51182 -0.445186 0
M  V30 7659 C 719.287 2.30821 0.352686 0
M  V30 7660 C 720.268 1.36576 1.01395 0
M  V30 7661 O 721.453 1.65497 1.01609 0
M  V30 7662 C 718.583 3.15593 1.44976 0
M  V30 7663 C 717.537 4.1818 0.911553 0
M  V30 7664 C 716.863 4.91523 2.10497 0
M  V30 7665 C 718.163 5.22266 -0.059418 0
M  V30 7666 H 719.857 2.97771 -0.311936 0
M  V30 7667 H 717.403 1.43201 -0.151461 0
M  V30 7668 H 719.356 3.70091 2.01521 0
M  V30 7669 H 718.08 2.4648 2.14278 0
M  V30 7670 H 716.739 3.64746 0.368264 0
M  V30 7671 H 716.387 4.18906 2.78437 0
M  V30 7672 H 716.087 5.60898 1.7512 0
M  V30 7673 H 717.611 5.48847 2.6758 0
M  V30 7674 H 719.025 5.71789 0.415985 0
M  V30 7675 H 717.422 5.99213 -0.326152 0
M  V30 7676 H 718.492 4.7461 -0.993631 0
M  V30 7677 N 719.835 0.176821 1.56605 0
M  V30 7678 C 721.081 -0.467406 1.9734 0
M  V30 7679 C 721.414 -1.62523 1.06301 0
M  V30 7680 O 720.689 -1.94182 0.11125 0
M  V30 7681 C 720.972 -0.945106 3.47476 0
M  V30 7682 C 720.825 0.213273 4.49294 0
M  V30 7683 C 722.144 -1.8169 4.00845 0
M  V30 7684 H 719.263 -0.168426 0.717497 0
M  V30 7685 H 721.905 0.264065 1.88156 0
M  V30 7686 H 720.055 -1.56841 3.55434 0
M  V30 7687 H 721.727 0.850508 4.53392 0
M  V30 7688 H 719.97 0.867918 4.25029 0
M  V30 7689 H 720.641 -0.163187 5.51759 0
M  V30 7690 H 723.117 -1.29139 3.95553 0
M  V30 7691 H 721.993 -2.12015 5.06301 0
M  V30 7692 H 722.254 -2.76463 3.44994 0
M  V30 7693 N 721.313 -1.57302 -0.09688 0
M  V30 7694 C 722.59 -1.7701 -0.832272 0
M  V30 7695 C 722.97 -0.758025 -1.97021 0
M  V30 7696 O 722.318 0.213824 -2.27497 0
M  V30 7697 C 722.528 -3.22725 -1.32851 0
M  V30 7698 C 723.876 -3.85856 -1.772 0
M  V30 7699 O 724.9 -3.26464 -1.42478 0
M  V30 7700 O 723.759 -4.90295 -2.41398 0
M  V30 7701 H 720.853 -0.725558 -0.396856 0
M  V30 7702 H 723.399 -1.69516 -0.0789005 0
M  V30 7703 H 722.171 -3.87921 -0.51312 0
M  V30 7704 H 721.794 -3.34845 -2.14394 0
M  V30 7705 N 722.791 0.367657 -1.53252 0
M  V30 7706 C 723.724 1.47264 -1.74323 0
M  V30 7707 C 724.702 1.51458 -0.591535 0
M  V30 7708 O 725.886 1.69542 -0.823883 0
M  V30 7709 C 723.013 2.85637 -1.82015 0
M  V30 7710 C 722.059 2.99176 -3.03967 0
M  V30 7711 S 722.892 2.68147 -4.63527 0
M  V30 7712 C 724.048 4.08673 -4.74065 0
M  V30 7713 H 724.281 1.29169 -2.67773 0
M  V30 7714 H 721.814 0.561866 -1.43814 0
M  V30 7715 H 723.772 3.65365 -1.87132 0
M  V30 7716 H 722.433 3.01043 -0.896195 0
M  V30 7717 H 721.626 4.00511 -3.05953 0
M  V30 7718 H 721.228 2.27367 -2.96952 0
M  V30 7719 H 723.52 5.02889 -4.53992 0
M  V30 7720 H 724.463 4.11693 -5.7612 0
M  V30 7721 H 724.871 3.95576 -4.02716 0
M  V30 7722 N 724.269 1.44576 0.627338 0
M  V30 7723 C 725.216 1.51734 1.73912 0
M  V30 7724 C 726.186 0.364745 1.62046 0
M  V30 7725 O 727.371 0.575503 1.81914 0
M  V30 7726 C 724.511 1.47116 3.12171 0
M  V30 7727 C 723.624 2.72778 3.34986 0
M  V30 7728 C 722.759 2.59968 4.63239 0
M  V30 7729 C 721.798 3.80776 4.79245 0
M  V30 7730 N 720.935 3.66618 5.98778 0
M  V30 7731 H 725.775 2.46722 1.6713 0
M  V30 7732 H 723.312 1.22444 0.815224 0
M  V30 7733 H 725.27 1.42429 3.92135 0
M  V30 7734 H 723.9 0.556928 3.17959 0
M  V30 7735 H 722.952 2.87637 2.48936 0
M  V30 7736 H 724.264 3.62441 3.42692 0
M  V30 7737 H 723.418 2.53135 5.51369 0
M  V30 7738 H 722.157 1.67872 4.57898 0
M  V30 7739 H 721.162 3.87989 3.89544 0
M  V30 7740 H 722.387 4.73913 4.86398 0
M  V30 7741 H 720.333 2.77277 5.9452 0
M  V30 7742 H 720.25 4.499 6.07557 0
M  V30 7743 H 721.518 3.63684 6.89459 0
M  V30 7744 N 725.747 -0.868086 1.31537 0
M  V30 7745 C 726.657 -2.00801 1.21311 0
M  V30 7746 C 727.673 -1.73518 0.129431 0
M  V30 7747 O 728.849 -1.98378 0.347588 0
M  V30 7748 C 725.914 -3.3419 0.922935 0
M  V30 7749 C 724.975 -3.74783 2.0937 0
M  V30 7750 C 724.208 -5.01807 1.81728 0
M  V30 7751 O 724.431 -5.65404 0.753313 0
M  V30 7752 O 723.365 -5.39213 2.67457 0
M  V30 7753 H 727.191 -2.12361 2.17109 0
M  V30 7754 H 724.776 -0.996684 1.11295 0
M  V30 7755 H 726.658 -4.14174 0.777033 0
M  V30 7756 H 725.333 -3.237 -0.00500301 0
M  V30 7757 H 724.24 -2.95432 2.29501 0
M  V30 7758 H 725.573 -3.89902 3.00396 0
M  V30 7759 N 727.225 -1.14528 -1.08264 0
M  V30 7760 C 728.155 -0.856356 -2.1723 0
M  V30 7761 C 729.136 0.189251 -1.69044 0
M  V30 7762 O 730.321 0.0456119 -1.94146 0
M  V30 7763 C 727.451 -0.334662 -3.45684 0
M  V30 7764 C 726.405 -1.31588 -4.0727 0
M  V30 7765 C 725.731 -0.653428 -5.30692 0
M  V30 7766 C 727.031 -2.67866 -4.48381 0
M  V30 7767 H 728.725 -1.76755 -2.41657 0
M  V30 7768 H 726.271 -0.851287 -1.16143 0
M  V30 7769 H 728.224 -0.120128 -4.21229 0
M  V30 7770 H 726.948 0.611967 -3.20815 0
M  V30 7771 H 725.607 -1.51661 -3.33758 0
M  V30 7772 H 725.255 0.299054 -5.0211 0
M  V30 7773 H 724.955 -1.30817 -5.72853 0
M  V30 7774 H 726.479 -0.448453 -6.08951 0
M  V30 7775 H 727.893 -2.51692 -5.15096 0
M  V30 7776 H 726.29 -3.29627 -5.01464 0
M  V30 7777 H 727.36 -3.24632 -3.60198 0
M  V30 7778 N 728.703 1.26451 -0.940633 0
M  V30 7779 C 729.951 1.93395 -0.586748 0
M  V30 7780 C 730.272 1.7417 0.876921 0
M  V30 7781 O 729.542 1.097 1.62304 0
M  V30 7782 H 728.122 0.715687 -0.214012 0
M  V30 7783 H 730.784 1.53902 -1.19584 0
M  V30 7784 H 729.88 3.01565 -0.804059 0
M  V30 7785 N 730.181 0.707592 1.40822 0
M  V30 7786 C 731.43 0.240705 2.00259 0
M  V30 7787 C 731.743 -1.17027 1.56729 0
M  V30 7788 O 732.949 -1.73526 2.08809 0
M  V30 7789 C 731.405 0.379432 3.57894 0
M  V30 7790 C 731.013 1.79654 4.104 0
M  V30 7791 C 732.757 -0.0270684 4.24491 0
M  V30 7792 C 730.664 1.88628 5.60512 0
M  V30 7793 H 729.594 0.0862369 0.749052 0
M  V30 7794 H 732.245 0.877528 1.61157 0
M  V30 7795 H 730.627 -0.325842 3.94657 0
M  V30 7796 H 731.801 2.53155 3.85032 0
M  V30 7797 H 730.116 2.15379 3.56372 0
M  V30 7798 H 732.713 0.0193743 5.34696 0
M  V30 7799 H 733.056 -1.06772 4.02375 0
M  V30 7800 H 733.589 0.628361 3.92806 0
M  V30 7801 H 730.328 2.90787 5.87472 0
M  V30 7802 H 729.848 1.19528 5.8777 0
M  V30 7803 H 731.527 1.6547 6.25483 0
M  V30 7804 N 731.66 -1.50943 0.453197 0
M  V30 7805 C 732.906 -2.03153 -0.100277 0
M  V30 7806 C 733.261 -1.33032 -1.38997 0
M  V30 7807 O 732.554 -0.441423 -1.86446 0
M  V30 7808 C 732.748 -3.55603 -0.357944 0
M  V30 7809 C 732.577 -4.40495 0.905223 0
M  V30 7810 C 731.347 -4.84247 1.44337 0
M  V30 7811 C 733.545 -4.81931 1.79575 0
M  V30 7812 N 731.527 -5.53403 2.65742 0
M  V30 7813 C 732.898 -5.50314 2.85577 0
M  V30 7814 C 734.953 -4.63903 1.80828 0
M  V30 7815 C 733.656 -6.02581 3.92797 0
M  V30 7816 C 735.682 -5.17097 2.86993 0
M  V30 7817 C 735.044 -5.8544 3.91713 0
M  V30 7818 H 731.143 -0.781995 0.00287755 0
M  V30 7819 H 733.727 -1.84651 0.617411 0
M  V30 7820 H 731.898 -3.74087 -1.04467 0
M  V30 7821 H 733.63 -3.9447 -0.904175 0
M  V30 7822 H 730.385 -4.63029 0.995045 0
M  V30 7823 H 730.809 -5.92598 3.27348 0
M  V30 7824 H 735.451 -4.10512 1.0119 0
M  V30 7825 H 733.169 -6.55018 4.73262 0
M  V30 7826 H 736.755 -5.0499 2.88923 0
M  V30 7827 H 735.635 -6.25861 4.72512 0
M  V30 7828 N 733.138 -0.185124 -1.56509 0
M  V30 7829 C 734.048 0.751908 -2.22224 0
M  V30 7830 C 735.064 1.24244 -1.21817 0
M  V30 7831 O 736.24 1.29169 -1.54523 0
M  V30 7832 C 733.305 1.95837 -2.86092 0
M  V30 7833 C 732.366 1.51337 -4.01741 0
M  V30 7834 C 731.599 2.66233 -4.62554 0
M  V30 7835 O 731.822 3.8346 -4.22273 0
M  V30 7836 O 730.756 2.39517 -5.52191 0
M  V30 7837 H 734.582 0.222304 -3.02885 0
M  V30 7838 H 732.167 0.0437141 -1.49336 0
M  V30 7839 H 734.049 2.66368 -3.26536 0
M  V30 7840 H 732.724 2.47677 -2.08417 0
M  V30 7841 H 731.631 0.777155 -3.65939 0
M  V30 7842 H 732.964 1.04175 -4.81049 0
M  V30 7843 N 734.616 1.57351 0.0885366 0
M  V30 7844 C 736.027 1.75303 0.642308 0
M  V30 7845 C 736.378 0.808238 1.78779 0
M  V30 7846 O 735.503 -0.01171 2.16397 0
M  V30 7847 C 736.098 3.17885 1.17194 0
M  V30 7848 C 734.657 3.37239 1.67172 0
M  V30 7849 C 733.804 2.7108 0.584045 0
M  V30 7850 H 736.755 1.58103 -0.137567 0
M  V30 7851 H 736.776 3.2112 2.04114 0
M  V30 7852 H 736.288 3.86625 0.338024 0
M  V30 7853 H 734.389 2.73588 2.52943 0
M  V30 7854 H 734.502 4.45594 1.76019 0
M  V30 7855 H 732.866 2.33161 1.02508 0
M  V30 7856 H 733.649 3.42464 -0.239403 0
M  V30 7857 N 736.094 -0.359525 1.53444 0
M  V30 7858 C 737.024 -1.44662 1.8329 0
M  V30 7859 C 738.005 -1.55617 0.68683 0
M  V30 7860 O 739.19 -1.70086 0.93725 0
M  V30 7861 C 736.32 -2.81923 2.02822 0
M  V30 7862 C 735.274 -2.85787 3.18606 0
M  V30 7863 C 734.6 -4.25781 3.23442 0
M  V30 7864 C 735.9 -2.52762 4.57065 0
M  V30 7865 H 737.594 -1.19934 2.74329 0
M  V30 7866 H 735.14 -0.575517 1.31999 0
M  V30 7867 H 737.093 -3.58005 2.22285 0
M  V30 7868 H 735.817 -3.08051 1.085 0
M  V30 7869 H 734.476 -2.12157 2.98973 0
M  V30 7870 H 734.124 -4.48994 2.26745 0
M  V30 7871 H 733.824 -4.29281 4.01238 0
M  V30 7872 H 735.348 -5.03727 3.45096 0
M  V30 7873 H 736.762 -3.18557 4.76649 0
M  V30 7874 H 735.159 -2.67569 5.37147 0
M  V30 7875 H 736.229 -1.47993 4.61764 0
M  V30 7876 N 737.572 -1.44907 -0.619662 0
M  V30 7877 C 738.535 -1.52282 -1.71297 0
M  V30 7878 C 739.535 -0.40359 -1.55653 0
M  V30 7879 O 740.725 -0.666638 -1.6094 0
M  V30 7880 C 737.857 -1.40778 -3.10474 0
M  V30 7881 H 739.05 -2.49683 -1.66128 0
M  V30 7882 H 736.603 -1.32168 -0.834339 0
M  V30 7883 H 737.338 -0.445156 -3.2123 0
M  V30 7884 H 737.123 -2.21947 -3.23237 0
M  V30 7885 H 738.613 -1.48946 -3.90135 0
M  V30 7886 N 739.05 0.861098 -1.31996 0
M  V30 7887 C 740.296 1.61721 -1.22369 0
M  V30 7888 C 740.629 1.93 0.215587 0
M  V30 7889 O 739.904 1.56789 1.15098 0
M  V30 7890 C 740.187 2.9417 -2.07691 0
M  V30 7891 C 740.04 2.69714 -3.59965 0
M  V30 7892 C 741.359 3.95372 -1.93312 0
M  V30 7893 H 738.478 0.586822 -0.44588 0
M  V30 7894 H 741.12 0.994788 -1.61876 0
M  V30 7895 H 739.27 3.47292 -1.74128 0
M  V30 7896 H 740.942 2.23196 -4.03709 0
M  V30 7897 H 739.185 2.03789 -3.82952 0
M  V30 7898 H 739.856 3.63996 -4.14983 0
M  V30 7899 H 742.332 3.51487 -2.22701 0
M  V30 7900 H 741.208 4.85916 -2.55298 0
M  V30 7901 H 741.469 4.32865 -0.898922 0
M  V30 7902 N 740.528 1.15101 1.07655 0
M  V30 7903 C 741.475 0.844958 2.14777 0
M  V30 7904 C 742.445 -0.200798 1.64882 0
M  V30 7905 O 743.63 -0.0690278 1.90675 0
M  V30 7906 C 740.77 0.337018 3.4345 0
M  V30 7907 C 739.883 1.44398 4.07153 0
M  V30 7908 C 739.018 0.892487 5.23649 0
M  V30 7909 C 738.057 1.9766 5.79307 0
M  V30 7910 N 737.194 1.44171 6.87138 0
M  V30 7911 H 742.034 1.76242 2.40297 0
M  V30 7912 H 739.571 0.879435 1.17917 0
M  V30 7913 H 741.529 0.024256 4.17193 0
M  V30 7914 H 740.159 -0.543531 3.18191 0
M  V30 7915 H 739.211 1.87299 3.31094 0
M  V30 7916 H 740.523 2.26262 4.4453 0
M  V30 7917 H 739.677 0.532083 6.04362 0
M  V30 7918 H 738.416 0.0429854 4.87681 0
M  V30 7919 H 737.421 2.34586 4.97242 0
M  V30 7920 H 738.646 2.82982 6.17331 0
M  V30 7921 H 736.592 0.614518 6.53115 0
M  V30 7922 H 736.509 2.19665 7.23383 0
M  V30 7923 H 737.777 1.10945 7.71564 0
M  V30 7924 N 742.006 -1.2595 0.947325 0
M  V30 7925 C 742.936 -2.28521 0.479604 0
M  V30 7926 C 743.917 -1.63469 -0.470293 0
M  V30 7927 O 745.102 -1.90627 -0.370824 0
M  V30 7928 C 742.232 -3.46397 -0.250289 0
M  V30 7929 C 741.186 -4.23578 0.613643 0
M  V30 7930 C 740.512 -5.34131 -0.246568 0
M  V30 7931 C 741.812 -4.86979 1.88809 0
M  V30 7932 H 743.506 -2.67895 1.33688 0
M  V30 7933 H 741.052 -1.28783 0.644274 0
M  V30 7934 H 743.005 -4.17269 -0.588576 0
M  V30 7935 H 741.729 -3.05993 -1.14175 0
M  V30 7936 H 740.388 -3.54478 0.93491 0
M  V30 7937 H 740.036 -4.89968 -1.13756 0
M  V30 7938 H 739.736 -5.86683 0.328123 0
M  V30 7939 H 741.26 -6.07839 -0.579986 0
M  V30 7940 H 742.674 -5.50034 1.61666 0
M  V30 7941 H 741.071 -5.49675 2.40784 0
M  V30 7942 H 742.141 -4.09575 2.5957 0
M  V30 7943 N 743.484 -0.715051 -1.40445 0
M  V30 7944 C 744.416 -0.0227516 -2.29189 0
M  V30 7945 C 745.429 0.724313 -1.458 0
M  V30 7946 O 746.618 0.571781 -1.69094 0
M  V30 7947 C 743.718 0.992038 -3.24055 0
M  V30 7948 C 742.891 0.310613 -4.36296 0
M  V30 7949 C 741.95 1.23071 -5.11605 0
M  V30 7950 O 740.976 0.71571 -5.64682 0
M  V30 7951 N 742.178 2.56188 -5.2091 0
M  V30 7952 H 744.943 -0.78473 -2.89244 0
M  V30 7953 H 742.504 -0.562637 -1.51809 0
M  V30 7954 H 744.496 1.60973 -3.71308 0
M  V30 7955 H 743.066 1.65538 -2.65171 0
M  V30 7956 H 742.286 -0.487269 -3.91177 0
M  V30 7957 H 743.574 -0.162415 -5.08541 0
M  V30 7958 H 742.972 3.00527 -4.7927 0
M  V30 7959 H 741.529 3.13103 -5.71673 0
M  V30 7960 N 744.962 1.50701 -0.461195 0
M  V30 7961 C 746.19 2.06681 0.0951756 0
M  V30 7962 C 746.605 1.32615 1.34382 0
M  V30 7963 O 745.962 0.392531 1.78229 0
M  V30 7964 C 746.013 3.59354 0.393316 0
M  V30 7965 O 745.734 4.30626 -0.805797 0
M  V30 7966 C 747.235 4.31926 0.997744 0
M  V30 7967 H 744.455 0.670995 -0.00267259 0
M  V30 7968 H 746.999 1.93991 -0.647137 0
M  V30 7969 H 745.154 3.7188 1.08555 0
M  V30 7970 H 745.568 5.21667 -0.544409 0
M  V30 7971 H 747.042 5.39756 1.15619 0
M  V30 7972 H 747.519 3.91772 1.98523 0
M  V30 7973 H 748.125 4.23905 0.344188 0
M  V30 7974 N 746.441 0.193421 1.56409 0
M  V30 7975 C 747.671 -0.450783 2.01622 0
M  V30 7976 C 748.079 -1.5585 1.07273 0
M  V30 7977 O 747.422 -1.83569 0.0694875 0
M  V30 7978 C 747.484 -1.06913 3.43235 0
M  V30 7979 C 747.148 -0.100352 4.5689 0
M  V30 7980 C 748.145 0.689633 5.15306 0
M  V30 7981 C 745.83 0.0102436 5.02299 0
M  V30 7982 C 747.824 1.5772 6.17579 0
M  V30 7983 C 745.511 0.901368 6.04416 0
M  V30 7984 C 746.509 1.68341 6.61929 0
M  V30 7985 O 746.197 2.5596 7.62063 0
M  V30 7986 H 745.929 -0.117671 0.66568 0
M  V30 7987 H 748.483 0.2989 2.03214 0
M  V30 7988 H 746.713 -1.86736 3.38624 0
M  V30 7989 H 748.402 -1.61781 3.72266 0
M  V30 7990 H 749.168 0.614485 4.81092 0
M  V30 7991 H 745.047 -0.58829 4.57231 0
M  V30 7992 H 748.591 2.18805 6.62397 0
M  V30 7993 H 744.488 0.977637 6.38054 0
M  V30 7994 H 745.256 2.49721 7.79475 0
M  V30 7995 N 747.919 -1.57396 -0.0801906 0
M  V30 7996 C 748.866 -2.03107 -1.09618 0
M  V30 7997 C 749.836 -0.910118 -1.38946 0
M  V30 7998 O 751.021 -1.17719 -1.50156 0
M  V30 7999 C 748.161 -2.47293 -2.40708 0
M  V30 8000 C 747.274 -3.72972 -2.17982 0
M  V30 8001 C 746.409 -4.05975 -3.42576 0
M  V30 8002 C 745.448 -5.24719 -3.15177 0
M  V30 8003 N 744.585 -5.53401 -4.32078 0
M  V30 8004 H 749.425 -2.89677 -0.69939 0
M  V30 8005 H 746.962 -1.43263 -0.333785 0
M  V30 8006 H 748.92 -2.7096 -3.17232 0
M  V30 8007 H 747.55 -1.63713 -2.78205 0
M  V30 8008 H 746.602 -3.56693 -1.32189 0
M  V30 8009 H 747.914 -4.59638 -1.93738 0
M  V30 8010 H 747.068 -4.30498 -4.275 0
M  V30 8011 H 745.807 -3.17859 -3.69887 0
M  V30 8012 H 744.812 -5 -2.28648 0
M  V30 8013 H 746.037 -6.14445 -2.89197 0
M  V30 8014 H 743.983 -4.68245 -4.59437 0
M  V30 8015 H 743.9 -6.34469 -4.11078 0
M  V30 8016 H 745.168 -5.8247 -5.18024 0
M  V30 8017 N 749.397 0.351382 -1.53633 0
M  V30 8018 C 750.625 1.11275 -1.74429 0
M  V30 8019 C 751.04 1.82602 -0.479798 0
M  V30 8020 O 750.397 1.74074 0.548125 0
M  V30 8021 C 750.448 2.13223 -2.91921 0
M  V30 8022 O 750.169 1.44798 -4.13479 0
M  V30 8023 C 751.67 3.01797 -3.24706 0
M  V30 8024 H 748.89 0.332153 -0.583023 0
M  V30 8025 H 751.434 0.405974 -2.0043 0
M  V30 8026 H 749.589 2.79477 -2.68274 0
M  V30 8027 H 750.003 2.12839 -4.79374 0
M  V30 8028 H 751.477 3.69282 -4.10286 0
M  V30 8029 H 751.954 3.67387 -2.40673 0
M  V30 8030 H 752.56 2.41141 -3.5033 0
M  V30 8031 N 750.875 1.45233 0.611969 0
M  V30 8032 C 751.838 1.53189 1.70487 0
M  V30 8033 C 752.838 0.411839 1.55437 0
M  V30 8034 O 754.028 0.675164 1.60584 0
M  V30 8035 C 751.16 1.42422 3.09723 0
M  V30 8036 H 752.353 2.5056 1.64802 0
M  V30 8037 H 749.906 1.32609 0.827318 0
M  V30 8038 H 750.641 0.462185 3.2099 0
M  V30 8039 H 750.426 2.23658 3.22055 0
M  V30 8040 H 751.916 1.51012 3.89339 0
M  V30 8041 N 752.353 -0.854086 1.3245 0
M  V30 8042 C 753.599 -1.61069 1.23225 0
M  V30 8043 C 753.932 -1.93111 -0.205349 0
M  V30 8044 O 753.207 -1.57397 -1.14265 0
M  V30 8045 C 753.49 -2.93065 2.09249 0
M  V30 8046 C 753.343 -2.67801 3.6139 0
M  V30 8047 C 754.662 -3.94341 1.95406 0
M  V30 8048 H 751.781 -0.584449 0.448986 0
M  V30 8049 H 754.423 -0.986189 1.62402 0
M  V30 8050 H 752.573 -3.46364 1.75967 0
M  V30 8051 H 754.245 -2.21052 4.04887 0
M  V30 8052 H 752.488 -2.01756 3.84027 0
M  V30 8053 H 753.159 -3.6179 4.16907 0
M  V30 8054 H 755.635 -3.50301 2.24562 0
M  V30 8055 H 754.511 -4.84555 2.57872 0
M  V30 8056 H 754.772 -4.32382 0.921865 0
M  V30 8057 N 753.831 -1.1567 -1.07043 0
M  V30 8058 C 754.741 -0.870435 -2.17855 0
M  V30 8059 C 755.757 0.154452 -1.73313 0
M  V30 8060 O 756.933 -0.0203759 -2.0139 0
M  V30 8061 C 753.998 -0.367219 -3.4475 0
M  V30 8062 C 753.059 -1.45639 -4.03841 0
M  V30 8063 C 752.292 -0.977092 -5.2468 0
M  V30 8064 O 752.515 0.176127 -5.70128 0
M  V30 8065 O 751.449 -1.76215 -5.75527 0
M  V30 8066 H 755.275 -1.79687 -2.44839 0
M  V30 8067 H 752.86 -0.936064 -1.1644 0
M  V30 8068 H 754.742 -0.0931947 -4.21297 0
M  V30 8069 H 753.417 0.53131 -3.1931 0
M  V30 8070 H 752.324 -1.78406 -3.28819 0
M  V30 8071 H 753.657 -2.32995 -4.3356 0
M  V30 8072 N 755.309 1.25446 -0.953992 0
M  V30 8073 C 756.537 1.97215 -0.625595 0
M  V30 8074 C 756.952 1.70911 0.802168 0
M  V30 8075 O 756.309 0.984782 1.5365 0
M  V30 8076 C 756.36 3.50777 -0.873943 0
M  V30 8077 O 756.081 3.76173 -2.24556 0
M  V30 8078 C 757.582 4.39776 -0.557845 0
M  V30 8079 H 754.802 0.628652 -0.2346 0
M  V30 8080 H 757.346 1.59632 -1.27819 0
M  V30 8081 H 755.501 3.86474 -0.267765 0
M  V30 8082 H 755.915 4.70636 -2.31522 0
M  V30 8083 H 757.389 5.46431 -0.782157 0
M  V30 8084 H 757.866 4.36257 0.507573 0
M  V30 8085 H 758.472 4.09644 -1.14332 0
M  V30 8086 N 756.787 0.722489 1.40064 0
M  V30 8087 C 757.75 0.0830209 2.2905 0
M  V30 8088 C 758.75 -0.680208 1.45705 0
M  V30 8089 O 759.94 -0.511084 1.66534 0
M  V30 8090 C 757.072 -0.892092 3.29021 0
M  V30 8091 H 758.265 0.866848 2.87099 0
M  V30 8092 H 755.818 0.487556 1.48501 0
M  V30 8093 H 756.553 -1.70273 2.76003 0
M  V30 8094 H 756.338 -0.34761 3.90556 0
M  V30 8095 H 757.828 -1.33648 3.95636 0
M  V30 8096 N 758.265 -1.50454 0.469181 0
M  V30 8097 C 759.511 -2.02615 -0.0865971 0
M  V30 8098 C 759.844 -1.35062 -1.39542 0
M  V30 8099 O 759.119 -0.475701 -1.88593 0
M  V30 8100 C 759.402 -3.59068 -0.272385 0
M  V30 8101 C 759.255 -4.37196 1.05733 0
M  V30 8102 C 760.574 -4.2793 -1.0278 0
M  V30 8103 H 757.693 -0.736389 -0.0299977 0
M  V30 8104 H 760.335 -1.79792 0.614399 0
M  V30 8105 H 758.485 -3.78646 -0.869471 0
M  V30 8106 H 760.157 -4.29195 1.69084 0
M  V30 8107 H 758.4 -4.01013 1.65442 0
M  V30 8108 H 759.071 -5.44924 0.880997 0
M  V30 8109 H 761.547 -4.12816 -0.521718 0
M  V30 8110 H 760.423 -5.37214 -1.12659 0
M  V30 8111 H 760.684 -3.90968 -2.0639 0
M  V30 8112 N 759.743 -0.201713 -1.56304 0
M  V30 8113 C 760.673 0.71155 -2.22394 0
M  V30 8114 C 761.654 1.21625 -1.18917 0
M  V30 8115 O 762.839 1.26388 -1.47444 0
M  V30 8116 C 759.969 1.92837 -2.88845 0
M  V30 8117 C 758.923 1.55831 -3.98623 0
M  V30 8118 C 758.249 2.85228 -4.52271 0
M  V30 8119 C 759.549 0.763249 -5.16693 0
M  V30 8120 H 761.243 0.160573 -2.98969 0
M  V30 8121 H 758.789 0.0757916 -1.438 0
M  V30 8122 H 760.742 2.57253 -3.33764 0
M  V30 8123 H 759.466 2.50398 -2.09686 0
M  V30 8124 H 758.125 0.9377 -3.54405 0
M  V30 8125 H 757.773 3.40893 -3.69866 0
M  V30 8126 H 757.473 2.6121 -5.26349 0
M  V30 8127 H 758.997 3.50622 -4.99897 0
M  V30 8128 H 760.411 1.31066 -5.58117 0
M  V30 8129 H 758.808 0.620935 -5.96879 0
M  V30 8130 H 759.878 -0.234322 -4.84334 0
M  V30 8131 N 761.222 1.57436 0.0718424 0
M  V30 8132 C 762.152 2.06724 1.08571 0
M  V30 8133 C 763.133 0.960731 1.40371 0
M  V30 8134 O 764.318 1.23345 1.49999 0
M  V30 8135 C 761.448 2.51112 2.39916 0
M  V30 8136 C 760.402 3.65639 2.22469 0
M  V30 8137 C 759.728 3.96082 3.59198 0
M  V30 8138 C 761.028 4.95687 1.64596 0
M  V30 8139 H 762.722 2.91679 0.675569 0
M  V30 8140 H 760.268 1.40319 0.32352 0
M  V30 8141 H 762.221 2.84206 3.11135 0
M  V30 8142 H 760.945 1.63186 2.8291 0
M  V30 8143 H 759.604 3.32828 1.53691 0
M  V30 8144 H 759.252 3.05287 3.99761 0
M  V30 8145 H 758.952 4.73199 3.48362 0
M  V30 8146 H 760.476 4.31672 4.31847 0
M  V30 8147 H 761.89 5.27011 2.25681 0
M  V30 8148 H 760.287 5.77126 1.64457 0
M  V30 8149 H 761.357 4.8108 0.60744 0
M  V30 8150 N 762.7 -0.34323 1.53817 0
M  V30 8151 C 763.63 -1.42709 1.84814 0
M  V30 8152 C 764.611 -1.5488 0.703297 0
M  V30 8153 O 765.796 -1.69082 0.955237 0
M  V30 8154 C 762.926 -2.79756 2.05801 0
M  V30 8155 C 761.88 -2.82392 3.21619 0
M  V30 8156 C 761.206 -4.22326 3.2794 0
M  V30 8157 C 762.506 -2.479 4.59721 0
M  V30 8158 H 764.2 -1.17018 2.75585 0
M  V30 8159 H 761.746 -0.561485 1.32602 0
M  V30 8160 H 763.699 -3.55627 2.26069 0
M  V30 8161 H 762.423 -3.06883 1.11761 0
M  V30 8162 H 761.082 -2.08974 3.01207 0
M  V30 8163 H 760.73 -4.46564 2.31494 0
M  V30 8164 H 760.43 -4.25001 4.05768 0
M  V30 8165 H 761.954 -5.00039 3.50419 0
M  V30 8166 H 763.368 -3.13484 4.80001 0
M  V30 8167 H 761.765 -2.61857 5.39954 0
M  V30 8168 H 762.835 -1.43087 4.63308 0
M  V30 8169 N 764.178 -1.45556 -0.604258 0
M  V30 8170 C 765.594 -1.30035 -0.925368 0
M  V30 8171 C 765.794 -0.255833 -1.99869 0
M  V30 8172 O 764.85 0.349076 -2.50075 0
M  V30 8173 C 766.163 -2.68028 -1.36314 0
M  V30 8174 C 767.711 -2.75951 -1.47717 0
M  V30 8175 C 768.186 -4.14476 -1.94868 0
M  V30 8176 N 769.677 -4.16787 -2.02097 0
M  V30 8177 C 770.412 -5.20845 -2.39809 0
M  V30 8178 N 769.908 -6.35246 -2.76467 0
M  V30 8179 N 771.701 -5.08204 -2.40177 0
M  V30 8180 H 763.852 -2.1214 0.10512 0
M  V30 8181 H 766.115 -0.947871 -0.0156303 0
M  V30 8182 H 765.821 -3.45667 -0.648628 0
M  V30 8183 H 765.695 -2.96711 -2.329 0
M  V30 8184 H 768.082 -1.98613 -2.18258 0
M  V30 8185 H 768.163 -2.50977 -0.494371 0
M  V30 8186 H 767.807 -4.923 -1.24912 0
M  V30 8187 H 767.737 -4.36843 -2.94068 0
M  V30 8188 H 770.228 -3.34233 -1.76343 0
M  V30 8189 H 770.541 -7.10438 -3.04134 0
M  V30 8190 H 768.886 -6.38642 -2.74155 0
M  V30 8191 H 772.077 -4.17874 -2.10947 0
M  V30 8192 H 772.25 -5.89417 -2.69242 0
M  V30 8193 N 765.656 0.84705 -1.32902 0
M  V30 8194 C 766.905 1.59667 -1.23245 0
M  V30 8195 C 767.218 1.94551 0.202349 0
M  V30 8196 O 768.424 2.68218 0.420847 0
M  V30 8197 C 766.88 2.8795 -2.15901 0
M  V30 8198 C 766.488 2.60461 -3.64505 0
M  V30 8199 C 768.232 3.65968 -2.15098 0
M  V30 8200 C 766.139 3.84791 -4.49099 0
M  V30 8201 H 765.069 0.599167 -0.457728 0
M  V30 8202 H 767.72 0.934662 -1.57912 0
M  V30 8203 H 766.102 3.55648 -1.74157 0
M  V30 8204 H 767.276 2.01026 -4.14639 0
M  V30 8205 H 765.591 1.9576 -3.67515 0
M  V30 8206 H 768.188 4.58241 -2.75534 0
M  V30 8207 H 768.531 4.00275 -1.14392 0
M  V30 8208 H 769.064 3.05184 -2.55162 0
M  V30 8209 H 765.803 3.55621 -5.50649 0
M  V30 8210 H 765.323 4.43594 -4.03713 0
M  V30 8211 H 767.002 4.52454 -4.62487 0
M  V30 8212 N 767.134 1.16236 1.06428 0
M  V30 8213 C 768.411 0.853294 1.76006 0
M  V30 8214 C 768.791 -0.649162 2.00871 0
M  V30 8215 O 768.139 -1.59653 1.63472 0
M  V30 8216 C 768.349 1.67448 3.06206 0
M  V30 8217 C 769.697 1.8866 3.80385 0
M  V30 8218 O 770.721 1.64303 3.16043 0
M  V30 8219 O 769.58 2.29518 4.95968 0
M  V30 8220 H 766.674 0.314737 0.764767 0
M  V30 8221 H 769.22 1.26865 1.12709 0
M  V30 8222 H 767.992 2.69411 2.83784 0
M  V30 8223 H 767.615 1.25608 3.77238 0
M  V30 8224 N 768.612 -1.24939 0.960631 0
M  V30 8225 C 769.889 -1.88118 0.535807 0
M  V30 8226 C 770.269 -1.86605 -0.987009 0
M  V30 8227 O 769.617 -1.33375 -1.85536 0
M  V30 8228 C 769.827 -3.30565 1.11927 0
M  V30 8229 C 771.175 -4.07296 1.19981 0
M  V30 8230 O 772.199 -3.39709 1.07126 0
M  V30 8231 O 771.058 -5.28206 1.40218 0
M  V30 8232 H 768.152 -0.807698 0.177631 0
M  V30 8233 H 770.698 -1.32964 1.05445 0
M  V30 8234 H 769.47 -3.26128 2.16231 0
M  V30 8235 H 769.093 -3.93284 0.584245 0
M  V30 8236 N 770.09 -0.729906 -1.39679 0
M  V30 8237 C 771.339 -0.272534 -1.9985 0
M  V30 8238 C 771.652 1.14519 -1.58571 0
M  V30 8239 O 772.858 1.70182 -2.11543 0
M  V30 8240 C 771.314 -0.436322 -3.57245 0
M  V30 8241 C 770.922 -1.86161 -4.0749 0
M  V30 8242 C 772.666 -0.0404679 -4.24481 0
M  V30 8243 C 770.573 -1.97522 -5.5744 0
M  V30 8244 H 769.503 -0.0981428 -0.747585 0
M  V30 8245 H 772.154 -0.903056 -1.59741 0
M  V30 8246 H 770.536 0.263015 -3.95126 0
M  V30 8247 H 771.71 -2.59248 -3.80955 0
M  V30 8248 H 770.025 -2.21021 -3.529 0
M  V30 8249 H 772.622 -0.104437 -5.34598 0
M  V30 8250 H 772.965 1.00357 -4.04023 0
M  V30 8251 H 773.498 -0.690774 -3.91757 0
M  V30 8252 H 770.237 -3.00096 -5.82771 0
M  V30 8253 H 769.757 -1.28864 -5.85794 0
M  V30 8254 H 771.436 -1.754 -6.22771 0
M  V30 8255 N 771.568 1.50203 -0.477153 0
M  V30 8256 C 772.814 2.02658 0.0758507 0
M  V30 8257 C 773.147 1.358 1.38824 0
M  V30 8258 O 772.422 0.485696 1.88338 0
M  V30 8259 C 772.705 3.59208 0.253339 0
M  V30 8260 C 772.558 4.36629 -1.0805 0
M  V30 8261 C 773.877 4.28469 1.00509 0
M  V30 8262 H 770.996 0.736538 0.0260921 0
M  V30 8263 H 773.638 1.79464 -0.623925 0
M  V30 8264 H 771.788 3.79101 0.849378 0
M  V30 8265 H 773.46 4.28292 -1.71358 0
M  V30 8266 H 771.703 4.0013 -1.67566 0
M  V30 8267 H 772.374 5.44449 -0.909883 0
M  V30 8268 H 774.85 4.13087 0.499818 0
M  V30 8269 H 773.726 5.37804 1.09808 0
M  V30 8270 H 773.987 3.92057 2.04314 0
M  V30 8271 N 773.046 0.209999 1.56195 0
M  V30 8272 C 774.271 -0.433064 2.02828 0
M  V30 8273 C 774.696 -1.5337 1.08901 0
M  V30 8274 O 774.054 -1.81144 0.0751132 0
M  V30 8275 C 774.102 -0.952635 3.47789 0
M  V30 8276 O 773.206 -2.0647 3.56993 0
M  V30 8277 H 772.547 -0.0994594 0.656509 0
M  V30 8278 H 775.077 0.32525 2.01998 0
M  V30 8279 H 775.087 -1.26542 3.8788 0
M  V30 8280 H 773.762 -0.147007 4.1564 0
M  V30 8281 H 772.339 -1.75942 3.28784 0
M  V30 8282 N 774.524 -1.57472 -0.0634922 0
M  V30 8283 C 775.772 -1.87283 -0.759563 0
M  V30 8284 C 776.093 -0.803135 -1.77693 0
M  V30 8285 O 775.363 0.167293 -1.95184 0
M  V30 8286 H 773.943 -0.691106 -0.283516 0
M  V30 8287 H 776.605 -1.94864 -0.0376091 0
M  V30 8288 H 775.701 -2.85064 -1.27062 0
M  V30 8289 N 776.003 0.335068 -1.53997 0
M  V30 8290 C 776.953 1.4127 -1.7896 0
M  V30 8291 C 777.937 1.474 -0.64513 0
M  V30 8292 O 779.129 1.52127 -0.904785 0
M  V30 8293 C 776.258 2.78292 -2.01018 0
M  V30 8294 C 775.344 2.7652 -3.21555 0
M  V30 8295 N 775.735 2.44374 -4.42849 0
M  V30 8296 C 774.033 3.0766 -3.22895 0
M  V30 8297 C 774.734 2.51049 -5.24737 0
M  V30 8298 N 773.71 2.8702 -4.6165 0
M  V30 8299 H 777.512 1.15327 -2.70327 0
M  V30 8300 H 775.026 0.543483 -1.53036 0
M  V30 8301 H 777.023 3.55949 -2.17039 0
M  V30 8302 H 775.683 3.05175 -1.10898 0
M  V30 8303 H 776.694 2.17422 -4.70051 0
M  V30 8304 H 773.371 3.3966 -2.42771 0
M  V30 8305 H 774.761 2.29283 -6.31569 0
M  V30 8306 N 777.481 1.45874 0.596531 0
M  V30 8307 C 778.428 1.55389 1.70655 0
M  V30 8308 C 779.398 0.399036 1.61236 0
M  V30 8309 O 780.583 0.61396 1.80652 0
M  V30 8310 C 777.723 1.53705 3.0898 0
M  V30 8311 C 776.836 2.79823 3.29125 0
M  V30 8312 C 775.971 2.69735 4.5762 0
M  V30 8313 C 775.01 3.90856 4.71061 0
M  V30 8314 N 774.147 3.79237 5.90867 0
M  V30 8315 H 778.987 2.50211 1.61859 0
M  V30 8316 H 776.524 1.24146 0.789069 0
M  V30 8317 H 778.482 1.50715 3.89026 0
M  V30 8318 H 777.112 0.624247 3.16706 0
M  V30 8319 H 776.164 2.92852 2.42779 0
M  V30 8320 H 777.476 3.69628 3.34927 0
M  V30 8321 H 776.63 2.64773 5.45875 0
M  V30 8322 H 775.369 1.77547 4.54234 0
M  V30 8323 H 774.374 3.96164 3.81227 0
M  V30 8324 H 775.599 4.84124 4.76236 0
M  V30 8325 H 773.545 2.89825 5.88504 0
M  V30 8326 H 773.462 4.62686 5.97877 0
M  V30 8327 H 774.73 3.78227 6.8159 0
M  V30 8328 N 778.959 -0.83999 1.33349 0
M  V30 8329 C 779.906 -1.94972 1.23509 0
M  V30 8330 C 780.876 -1.65709 0.113967 0
M  V30 8331 O 782.061 -1.88552 0.292045 0
M  V30 8332 C 779.201 -3.30919 0.979105 0
M  V30 8333 C 778.314 -3.72587 2.18639 0
M  V30 8334 C 777.449 -4.97397 1.86465 0
M  V30 8335 C 776.488 -5.31597 3.03432 0
M  V30 8336 N 775.625 -6.47584 2.71254 0
M  V30 8337 H 780.465 -2.0272 2.18423 0
M  V30 8338 H 778.002 -0.992017 1.08616 0
M  V30 8339 H 779.96 -4.09239 0.811126 0
M  V30 8340 H 778.59 -3.22731 0.0667099 0
M  V30 8341 H 777.642 -2.89799 2.46416 0
M  V30 8342 H 778.954 -3.93844 3.06086 0
M  V30 8343 H 778.108 -5.83462 1.66305 0
M  V30 8344 H 776.847 -4.78107 0.96254 0
M  V30 8345 H 775.852 -4.44037 3.24208 0
M  V30 8346 H 777.077 -5.52836 3.94397 0
M  V30 8347 H 775.023 -6.29783 1.836 0
M  V30 8348 H 774.94 -6.68931 3.52231 0
M  V30 8349 H 776.208 -7.36764 2.54558 0
M  V30 8350 N 780.437 -1.16799 -1.0581 0
M  V30 8351 C 781.384 -0.87902 -2.13405 0
M  V30 8352 C 782.354 0.174541 -1.6518 0
M  V30 8353 O 783.539 0.0386843 -1.90761 0
M  V30 8354 C 780.679 -0.391616 -3.42871 0
M  V30 8355 C 779.792 -1.50857 -4.04804 0
M  V30 8356 C 778.927 -0.975682 -5.22163 0
M  V30 8357 C 777.966 -2.06851 -5.76089 0
M  V30 8358 N 777.103 -1.55085 -6.84758 0
M  V30 8359 H 781.943 -1.80043 -2.37463 0
M  V30 8360 H 779.48 -0.898083 -1.16503 0
M  V30 8361 H 781.438 -0.0906247 -4.17102 0
M  V30 8362 H 780.068 0.49284 -3.19016 0
M  V30 8363 H 779.12 -1.92542 -3.28073 0
M  V30 8364 H 780.432 -2.33305 -4.40874 0
M  V30 8365 H 779.586 -0.628165 -6.03439 0
M  V30 8366 H 778.325 -0.120566 -4.87551 0
M  V30 8367 H 777.33 -2.42467 -4.93447 0
M  V30 8368 H 778.555 -2.92768 -6.12751 0
M  V30 8369 H 776.501 -0.718345 -6.52055 0
M  V30 8370 H 776.418 -2.31145 -7.19797 0
M  V30 8371 H 777.686 -1.23206 -7.69702 0
M  V30 8372 N 781.915 1.24427 -0.967243 0
M  V30 8373 C 783.163 1.92107 -0.627638 0
M  V30 8374 C 783.484 1.75991 0.83978 0
M  V30 8375 O 782.754 1.13118 1.59941 0
M  V30 8376 H 781.334 0.710986 -0.229145 0
M  V30 8377 H 783.996 1.51331 -1.22821 0
M  V30 8378 H 783.092 2.99791 -0.867844 0
M  V30 8379 N 783.393 0.737304 1.3929 0
M  V30 8380 C 784.67 0.212464 1.94443 0
M  V30 8381 C 785.05 -1.28621 1.67391 0
M  V30 8382 O 784.398 -2.0529 1.00342 0
M  V30 8383 C 784.608 0.548565 3.44662 0
M  V30 8384 C 785.956 0.499177 4.21656 0
M  V30 8385 O 786.98 0.485892 3.5287 0
M  V30 8386 O 785.839 0.495739 5.44247 0
M  V30 8387 H 782.933 0.0395457 0.826054 0
M  V30 8388 H 785.479 0.816319 1.48776 0
M  V30 8389 H 784.251 1.58426 3.57795 0
M  V30 8390 H 783.874 -0.0841399 3.97511 0
M  V30 8391 N 784.871 -1.49948 0.485112 0
M  V30 8392 C 786.148 -1.95186 -0.12726 0
M  V30 8393 C 786.528 -1.42605 -1.5565 0
M  V30 8394 O 785.876 -0.632986 -2.19558 0
M  V30 8395 C 786.086 -3.48955 -0.0562117 0
M  V30 8396 C 787.434 -4.23932 -0.238106 0
M  V30 8397 O 788.458 -3.55955 -0.132145 0
M  V30 8398 O 787.317 -5.44614 -0.453658 0
M  V30 8399 H 784.411 -0.820433 -0.104014 0
M  V30 8400 H 786.957 -1.60659 0.546517 0
M  V30 8401 H 785.729 -3.79814 0.941122 0
M  V30 8402 H 785.352 -3.90056 -0.770834 0
M  V30 8403 N 786.349 -0.21828 -1.56081 0
M  V30 8404 C 787.281 0.725447 -2.17416 0
M  V30 8405 C 788.294 1.15995 -1.14233 0
M  V30 8406 O 789.483 1.09166 -1.41227 0
M  V30 8407 C 786.583 1.99401 -2.7403 0
M  V30 8408 C 785.756 1.7156 -4.02351 0
M  V30 8409 C 784.815 2.8309 -4.43561 0
M  V30 8410 O 783.841 2.51701 -5.10525 0
M  V30 8411 N 785.043 4.11972 -4.08973 0
M  V30 8412 H 787.808 0.200801 -2.99027 0
M  V30 8413 H 785.369 -0.0371514 -1.61857 0
M  V30 8414 H 787.361 2.73198 -2.98571 0
M  V30 8415 H 785.931 2.42923 -1.96742 0
M  V30 8416 H 785.151 0.814233 -3.85699 0
M  V30 8417 H 786.439 1.50385 -4.86068 0
M  V30 8418 H 785.837 4.40319 -3.55156 0
M  V30 8419 H 784.394 4.82323 -4.38415 0
M  V30 8420 N 787.827 1.57504 0.0551401 0
M  V30 8421 C 789.052 1.92682 0.767352 0
M  V30 8422 C 789.477 0.81614 1.69472 0
M  V30 8423 O 788.835 -0.229989 1.79835 0
M  V30 8424 C 788.883 3.26866 1.52286 0
M  V30 8425 O 787.987 3.17274 2.63459 0
M  V30 8426 H 787.328 0.630502 0.208238 0
M  V30 8427 H 789.858 2.04592 0.0184026 0
M  V30 8428 H 789.868 3.61138 1.8985 0
M  V30 8429 H 788.543 4.07276 0.842541 0
M  V30 8430 H 787.12 2.94589 2.2863 0
M  V30 8431 N 789.305 -0.326896 1.54172 0
M  V30 8432 C 790.721 -0.671034 1.44808 0
M  V30 8433 C 790.921 -1.91781 0.618258 0
M  V30 8434 O 789.977 -2.52235 0.115751 0
M  V30 8435 C 791.29 -0.848147 2.88491 0
M  V30 8436 C 792.838 -0.945702 2.98371 0
M  V30 8437 C 793.313 -1.15501 4.43197 0
M  V30 8438 N 794.804 -1.22183 4.46795 0
M  V30 8439 C 795.539 -1.4016 5.56006 0
M  V30 8440 N 795.035 -1.55202 6.75192 0
M  V30 8441 N 796.828 -1.42841 5.43648 0
M  V30 8442 H 788.979 0.49262 2.06608 0
M  V30 8443 H 791.242 0.158574 0.934643 0
M  V30 8444 H 790.948 -0.00329969 3.517 0
M  V30 8445 H 790.822 -1.74497 3.34411 0
M  V30 8446 H 793.209 -1.78106 2.35292 0
M  V30 8447 H 793.29 -0.0254215 2.55787 0
M  V30 8448 H 792.934 -0.324521 5.06862 0
M  V30 8449 H 792.864 -2.08911 4.83388 0
M  V30 8450 H 795.355 -1.12016 3.60917 0
M  V30 8451 H 795.668 -1.68601 7.54184 0
M  V30 8452 H 794.013 -1.52306 6.78106 0
M  V30 8453 H 797.204 -1.30683 4.49488 0
M  V30 8454 H 797.377 -1.56509 6.28816 0
M  V30 8455 N 790.784 -1.46188 -0.588786 0
M  V30 8456 C 791.716 -1.52319 -1.71265 0
M  V30 8457 C 792.729 -0.412096 -1.57498 0
M  V30 8458 O 793.918 -0.680146 -1.65034 0
M  V30 8459 C 791.018 -1.38164 -3.09458 0
M  V30 8460 C 790.191 -2.63284 -3.49286 0
M  V30 8461 C 789.25 -2.43415 -4.66514 0
M  V30 8462 O 788.276 -3.17113 -4.72682 0
M  V30 8463 N 789.478 -1.49187 -5.61002 0
M  V30 8464 H 792.243 -2.49219 -1.66463 0
M  V30 8465 H 789.804 -1.42167 -0.774601 0
M  V30 8466 H 791.796 -1.22653 -3.85666 0
M  V30 8467 H 790.366 -0.494678 -3.08661 0
M  V30 8468 H 789.586 -2.93779 -2.62845 0
M  V30 8469 H 790.874 -3.46413 -3.7266 0
M  V30 8470 H 790.272 -0.884027 -5.5875 0
M  V30 8471 H 788.829 -1.39642 -6.36666 0
M  V30 8472 N 792.262 0.832906 -1.33792 0
M  V30 8473 C 793.51 1.58539 -1.25338 0
M  V30 8474 C 793.831 1.94175 0.179204 0
M  V30 8475 O 793.101 1.61458 1.10941 0
M  V30 8476 H 791.681 0.58784 -0.460926 0
M  V30 8477 H 794.343 0.995064 -1.67584 0
M  V30 8478 H 793.439 2.51268 -1.85123 0
M  V30 8479 N 793.74 1.17359 1.05189 0
M  V30 8480 C 794.988 0.960087 1.77839 0
M  V30 8481 C 795.309 -0.512554 1.88143 0
M  V30 8482 O 794.579 -1.3721 1.39822 0
M  V30 8483 H 793.159 0.352234 0.658741 0
M  V30 8484 H 795.821 1.47834 1.27008 0
M  V30 8485 H 794.917 1.38843 2.79516 0
M  V30 8486 N 795.218 -1.23913 0.973828 0
M  V30 8487 C 796.181 -2.23367 0.51378 0
M  V30 8488 C 797.181 -1.55923 -0.39302 0
M  V30 8489 O 798.371 -1.73187 -0.187626 0
M  V30 8490 C 795.503 -3.39944 -0.255152 0
M  V30 8491 H 796.696 -2.65581 1.39307 0
M  V30 8492 H 794.249 -1.36632 0.759039 0
M  V30 8493 H 794.984 -3.03177 -1.15127 0
M  V30 8494 H 794.769 -3.90098 0.395673 0
M  V30 8495 H 796.259 -4.13749 -0.565842 0
M  V30 8496 N 796.696 -0.74468 -1.38897 0
M  V30 8497 C 798.107 -0.36568 -1.83084 0
M  V30 8498 C 798.458 1.10436 -1.62168 0
M  V30 8499 O 797.583 1.85281 -1.11804 0
M  V30 8500 C 798.178 -0.656946 -3.3237 0
M  V30 8501 C 796.737 -0.331329 -3.74939 0
M  V30 8502 C 795.884 -0.914661 -2.61781 0
M  V30 8503 H 798.835 -0.941551 -1.27752 0
M  V30 8504 H 798.856 0.0679546 -3.80439 0
M  V30 8505 H 798.368 -1.72693 -3.47561 0
M  V30 8506 H 796.469 0.732426 -3.6533 0
M  V30 8507 H 796.582 -0.820655 -4.72019 0
M  V30 8508 H 794.946 -0.34063 -2.52412 0
M  V30 8509 H 795.729 -1.98949 -2.79775 0
M  V30 8510 N 798.174 1.49689 -0.493057 0
M  V30 8511 C 799.451 1.9525 0.116907 0
M  V30 8512 C 799.831 1.43429 1.54892 0
M  V30 8513 O 799.179 0.644621 2.19219 0
M  V30 8514 C 799.389 3.4898 0.037705 0
M  V30 8515 C 800.737 4.24052 0.215621 0
M  V30 8516 O 801.761 3.5602 0.113266 0
M  V30 8517 O 800.62 5.44847 0.42477 0
M  V30 8518 H 797.714 0.820973 0.099662 0
M  V30 8519 H 800.26 1.60367 -0.555029 0
M  V30 8520 H 799.032 3.79309 -0.961251 0
M  V30 8521 H 798.655 3.9046 0.750137 0
M  V30 8522 N 799.652 0.226554 1.55963 0
M  V30 8523 C 800.615 -0.668015 2.19249 0
M  V30 8524 C 801.615 -1.11794 1.1558 0
M  V30 8525 O 802.805 -1.02593 1.40784 0
M  V30 8526 C 799.937 -1.91571 2.81981 0
M  V30 8527 H 801.13 -0.116175 2.99675 0
M  V30 8528 H 798.683 -0.0230497 1.56283 0
M  V30 8529 H 799.418 -2.50929 2.05439 0
M  V30 8530 H 799.203 -1.6015 3.57903 0
M  V30 8531 H 800.693 -2.55294 3.30477 0
M  V30 8532 N 801.13 -1.57531 -0.0467866 0
M  V30 8533 C 802.378 -1.88078 -0.739656 0
M  V30 8534 C 802.699 -0.821936 -1.76831 0
M  V30 8535 O 801.969 0.146582 -1.95351 0
M  V30 8536 H 800.549 -0.694075 -0.276169 0
M  V30 8537 H 803.211 -1.94893 -0.0169391 0
M  V30 8538 H 802.307 -2.86396 -1.24031 0
M  V30 8539 N 802.608 0.318715 -1.54344 0
M  V30 8540 C 803.54 1.41364 -1.80413 0
M  V30 8541 C 804.553 1.47627 -0.686294 0
M  V30 8542 O 805.742 1.50264 -0.963486 0
M  V30 8543 C 802.842 2.79867 -1.91123 0
M  V30 8544 C 802.015 2.96749 -3.21339 0
M  V30 8545 C 801.074 4.15642 -3.22689 0
M  V30 8546 O 800.1 4.08571 -3.96306 0
M  V30 8547 N 801.302 5.25416 -2.46817 0
M  V30 8548 H 804.067 1.19363 -2.74905 0
M  V30 8549 H 801.628 0.508722 -1.537 0
M  V30 8550 H 803.62 3.57619 -1.89448 0
M  V30 8551 H 802.19 2.94896 -1.03706 0
M  V30 8552 H 801.41 2.06257 -3.35934 0
M  V30 8553 H 802.698 3.04927 -4.07304 0
M  V30 8554 H 802.096 5.34037 -1.86605 0
M  V30 8555 H 800.653 6.01569 -2.50915 0
M  V30 8556 N 804.086 1.46499 0.581025 0
M  V30 8557 C 804.996 1.59778 1.71779 0
M  V30 8558 C 806.012 0.481223 1.67213 0
M  V30 8559 O 807.188 0.74557 1.87091 0
M  V30 8560 C 804.253 1.58626 3.08283 0
M  V30 8561 C 803.314 2.81527 3.241 0
M  V30 8562 C 802.547 2.80421 4.54092 0
M  V30 8563 O 802.77 1.89262 5.38085 0
M  V30 8564 O 801.704 3.71984 4.73193 0
M  V30 8565 H 805.53 2.55918 1.63523 0
M  V30 8566 H 803.115 1.29311 0.748267 0
M  V30 8567 H 804.997 1.60686 3.89561 0
M  V30 8568 H 803.672 0.656467 3.16973 0
M  V30 8569 H 802.579 2.85021 2.42309 0
M  V30 8570 H 803.912 3.73721 3.20302 0
M  V30 8571 O 805.603 -0.725332 1.44295 0
M  V30 8572 H 806.294 -1.37566 1.36365 0
M  V30 END ATOM
M  V30 BEGIN BOND
M  V30 END BOND
M  V30 END CTAB
M  END
$$$$
