drugbank_target|P49419 Alpha-aminoadipic semialdehyde dehydrogenase (DB00157; DB11638)
 OpenBabel12092119253D

  0  0  0     0  0            999 V3000
M  V30 BEGIN CTAB
M  V30 COUNTS 8252 8340 0 0 0
M  V30 BEGIN ATOM
M  V30 1 H -0.908 1.98254 -0.117106 0
M  V30 2 N 0 1.576 0 0
M  V30 3 C 0.933 2.03868 1.02534 0
M  V30 4 C 1.911 0.928543 1.3348 0
M  V30 5 O 3.095 1.19667 1.45644 0
M  V30 6 C 0.222 2.43627 2.35294 0
M  V30 7 C -0.732 3.65373 2.2001 0
M  V30 8 S 0.101 5.13292 1.52614 0
M  V30 9 C 1.257 5.56322 2.86805 0
M  V30 10 H 1.49 2.90518 0.631377 0
M  V30 11 H -0.977 1.52953 0.210867 0
M  V30 12 H 0.981 2.67203 3.11629 0
M  V30 13 H -0.358 1.57376 2.7183 0
M  V30 14 H -1.165 3.90944 3.18086 0
M  V30 15 H -1.563 3.418 1.51819 0
M  V30 16 H 0.729 5.58782 3.83104 0
M  V30 17 H 1.672 6.56266 2.65933 0
M  V30 18 H 2.08 4.83886 2.90714 0
M  V30 19 N 1.4781 -0.272755 1.55222 0
M  V30 20 C 2.7241 -1.00172 1.77023 0
M  V30 21 C 3.0791 -1.83928 0.564633 0
M  V30 22 O 2.3721 -1.86416 -0.442674 0
M  V30 23 C 2.5661 -1.91642 3.01675 0
M  V30 24 C 2.3951 -1.16888 4.34243 0
M  V30 25 C 1.1651 -0.884464 4.97499 0
M  V30 26 C 3.3631 -0.55919 5.11251 0
M  V30 27 N 1.3451 -0.11015 6.13801 0
M  V30 28 C 2.7161 0.0809469 6.19947 0
M  V30 29 C 4.7711 -0.467058 4.95705 0
M  V30 30 C 3.4741 0.804335 7.14789 0
M  V30 31 C 5.5001 0.242739 5.90902 0
M  V30 32 C 4.8621 0.871613 6.98987 0
M  V30 33 H 0.9611 -0.348529 0.700037 0
M  V30 34 H 3.5451 -0.277365 1.92714 0
M  V30 35 H 1.7161 -2.61303 2.87359 0
M  V30 36 H 3.4481 -2.57901 3.1188 0
M  V30 37 H 0.2031 -1.18979 4.58411 0
M  V30 38 H 0.6271 0.264344 6.76484 0
M  V30 39 H 5.2691 -0.93894 4.12242 0
M  V30 40 H 2.9871 1.2879 7.97771 0
M  V30 41 H 6.5731 0.314347 5.8095 0
M  V30 42 H 5.4531 1.4121 7.71381 0
M  V30 43 N 2.9562 -1.48159 -0.537278 0
M  V30 44 C 4.3722 -1.34118 -0.865129 0
M  V30 45 C 4.5722 -0.346678 -1.98495 0
M  V30 46 O 3.6282 0.234715 -2.51407 0
M  V30 47 C 4.9412 -2.73963 -1.23954 0
M  V30 48 C 6.4892 -2.82397 -1.34984 0
M  V30 49 C 6.9642 -4.22928 -1.75772 0
M  V30 50 N 8.4552 -4.25566 -1.82887 0
M  V30 51 C 9.1902 -5.31235 -2.15817 0
M  V30 52 N 8.6862 -6.47189 -2.47222 0
M  V30 53 N 10.4792 -5.18624 -2.16761 0
M  V30 54 H 2.6302 -2.1144 0.201715 0
M  V30 55 H 4.8932 -0.947598 0.0275949 0
M  V30 56 H 4.5992 -3.48264 -0.490381 0
M  V30 57 H 4.4732 -3.0702 -2.19132 0
M  V30 58 H 6.8602 -2.08356 -2.08978 0
M  V30 59 H 6.9412 -2.5297 -0.379448 0
M  V30 60 H 6.5852 -4.97482 -1.02341 0
M  V30 61 H 6.5152 -4.49794 -2.73848 0
M  V30 62 H 9.0062 -3.41924 -1.60924 0
M  V30 63 H 9.3192 -7.23564 -2.71433 0
M  V30 64 H 7.6642 -6.50476 -2.44757 0
M  V30 65 H 10.8552 -4.27056 -1.91679 0
M  V30 66 H 11.0282 -6.01078 -2.42093 0
M  V30 67 N 4.4343 0.785586 -1.36625 0
M  V30 68 C 5.3643 1.91259 -1.33949 0
M  V30 69 C 6.3453 1.68795 -0.210325 0
M  V30 70 O 7.5303 1.89854 -0.408561 0
M  V30 71 C 4.6603 3.28339 -1.13186 0
M  V30 72 C 3.6143 3.65335 -2.22967 0
M  V30 73 C 2.9403 5.00806 -1.87342 0
M  V30 74 C 4.2403 3.7352 -3.65075 0
M  V30 75 H 5.9343 1.93755 -2.28253 0
M  V30 76 H 3.4803 0.930788 -1.09874 0
M  V30 77 H 5.4333 4.06804 -1.09948 0
M  V30 78 H 4.1573 3.2624 -0.153332 0
M  V30 79 H 2.8163 2.89169 -2.25337 0
M  V30 80 H 2.4643 4.95233 -0.880545 0
M  V30 81 H 2.1643 5.26529 -2.60846 0
M  V30 82 H 3.6883 5.81687 -1.85667 0
M  V30 83 H 5.1023 4.42168 -3.64911 0
M  V30 84 H 3.4993 4.10731 -4.37516 0
M  V30 85 H 4.5693 2.74527 -3.99703 0
M  V30 86 N 5.9124 1.20967 1.01018 0
M  V30 87 C 7.3234 1.02319 1.56165 0
M  V30 88 C 7.6744 -0.418546 1.91684 0
M  V30 89 O 6.7994 -1.30096 1.72928 0
M  V30 90 C 7.3944 1.85109 2.8376 0
M  V30 91 C 5.9534 1.70809 3.35412 0
M  V30 92 C 5.1004 1.82643 2.08655 0
M  V30 93 H 8.0514 1.35065 0.833255 0
M  V30 94 H 8.0724 1.35827 3.55431 0
M  V30 95 H 7.5844 2.90035 2.57878 0
M  V30 96 H 5.6854 0.685464 3.66241 0
M  V30 97 H 5.7984 2.52467 4.07182 0
M  V30 98 H 4.1624 1.25896 2.21409 0
M  V30 99 H 4.9454 2.89066 1.85191 0
M  V30 100 N 7.3905 -1.2043 1.01659 0
M  V30 101 C 8.8065 -1.41852 0.731442 0
M  V30 102 C 9.0065 -1.89358 -0.688898 0
M  V30 103 O 8.0625 -2.06247 -1.45666 0
M  V30 104 C 9.3755 -2.44019 1.75714 0
M  V30 105 C 10.9235 -2.57785 1.77527 0
M  V30 106 C 11.3985 -3.63194 2.79023 0
M  V30 107 N 12.8895 -3.70678 2.77763 0
M  V30 108 C 13.6245 -4.51897 3.52954 0
M  V30 109 N 13.1205 -5.36921 4.37821 0
M  V30 110 N 14.9135 -4.4643 3.41551 0
M  V30 111 H 7.0645 -0.879093 1.93354 0
M  V30 112 H 9.3275 -0.448425 0.835236 0
M  V30 113 H 9.0335 -2.1611 2.77469 0
M  V30 114 H 8.9075 -3.43007 1.56927 0
M  V30 115 H 11.2945 -2.85023 0.764569 0
M  V30 116 H 11.3755 -1.58992 2.00387 0
M  V30 117 H 11.0195 -3.36699 3.80258 0
M  V30 118 H 10.9495 -4.61609 2.53425 0
M  V30 119 H 13.4405 -3.09944 2.16201 0
M  V30 120 H 13.7535 -5.95981 4.91962 0
M  V30 121 H 12.0985 -5.36424 4.41899 0
M  V30 122 H 15.2895 -3.79042 2.74672 0
M  V30 123 H 15.4625 -5.09491 4.00404 0
M  V30 124 N 8.8686 -0.792821 -1.36206 0
M  V30 125 C 9.8316 -0.199459 -2.2833 0
M  V30 126 C 10.8316 0.605189 -1.48977 0
M  V30 127 O 12.0216 0.425685 -1.68919 0
M  V30 128 C 9.1536 0.723523 -3.33134 0
M  V30 129 H 10.3466 -1.01181 -2.82316 0
M  V30 130 H 7.8996 -0.562485 -1.45828 0
M  V30 131 H 8.6346 1.56008 -2.84309 0
M  V30 132 H 8.4196 0.148436 -3.91819 0
M  V30 133 H 9.9096 1.13344 -4.01924 0
M  V30 134 N 10.3467 1.47872 -0.545128 0
M  V30 135 C 11.2767 2.32661 0.197793 0
M  V30 136 C 12.2577 1.43041 0.920504 0
M  V30 137 O 13.4427 1.71912 0.90333 0
M  V30 138 C 10.5727 3.24569 1.23582 0
M  V30 139 C 9.5267 4.23333 0.630323 0
M  V30 140 C 8.8527 5.0448 1.77211 0
M  V30 141 C 10.1527 5.20704 -0.407974 0
M  V30 142 H 11.8467 2.95024 -0.510045 0
M  V30 143 H 9.3927 1.4187 -0.246731 0
M  V30 144 H 11.3457 3.8272 1.76362 0
M  V30 145 H 10.0697 2.60236 1.97344 0
M  V30 146 H 8.7287 3.6639 0.123922 0
M  V30 147 H 8.3767 4.36561 2.49847 0
M  V30 148 H 8.0767 5.71339 1.37281 0
M  V30 149 H 9.6007 5.65487 2.3034 0
M  V30 150 H 11.0147 5.7329 0.033305 0
M  V30 151 H 9.4117 5.95699 -0.725486 0
M  V30 152 H 10.4817 4.66917 -1.30828 0
M  V30 153 N 11.8248 0.280983 1.55075 0
M  V30 154 C 13.0648 -0.335234 2.01632 0
M  V30 155 C 13.4288 -1.5261 1.16508 0
M  V30 156 O 14.6298 -2.21235 1.52672 0
M  V30 157 C 12.9008 -0.702172 3.50434 0
M  V30 158 S 14.4598 -1.30409 4.18974 0
M  V30 159 H 11.2778 -0.103967 0.703358 0
M  V30 160 H 13.8798 0.404187 1.91276 0
M  V30 161 H 12.5838 0.17333 4.10034 0
M  V30 162 H 12.1148 -1.4729 3.64786 0
M  V30 163 H 14.1298 -2.59253 4.23087 0
M  V30 164 N 13.3029 -1.57598 0.00835791 0
M  V30 165 C 14.5489 -1.91211 -0.675732 0
M  V30 166 C 14.8819 -0.883139 -1.72958 0
M  V30 167 O 14.1569 0.097016 -1.94258 0
M  V30 168 C 14.4399 -3.35379 -1.31123 0
M  V30 169 C 14.2929 -4.48999 -0.268356 0
M  V30 170 C 15.6119 -3.7912 -2.23508 0
M  V30 171 H 12.7309 -0.695374 -0.244179 0
M  V30 172 H 15.3729 -1.89901 0.0613655 0
M  V30 173 H 13.5229 -3.36626 -1.93946 0
M  V30 174 H 15.1949 -4.59887 0.360844 0
M  V30 175 H 13.4379 -4.31873 0.408482 0
M  V30 176 H 14.1089 -5.46851 -0.752218 0
M  V30 177 H 16.5849 -3.79477 -1.70693 0
M  V30 178 H 15.4609 -4.80729 -2.64936 0
M  V30 179 H 15.7219 -3.13455 -3.11766 0
M  V30 180 N 14.781 0.264519 -1.55364 0
M  V30 181 C 15.731 1.32966 -1.85214 0
M  V30 182 C 16.715 1.44306 -0.711653 0
M  V30 183 O 17.907 1.47844 -0.973192 0
M  V30 184 C 15.036 2.68839 -2.13495 0
M  V30 185 C 14.122 2.61575 -3.33825 0
M  V30 186 N 14.513 2.23933 -4.53528 0
M  V30 187 C 12.811 2.92621 -3.36584 0
M  V30 188 C 13.512 2.26868 -5.35636 0
M  V30 189 N 12.488 2.65677 -4.74254 0
M  V30 190 H 16.29 1.02884 -2.75304 0
M  V30 191 H 13.804 0.473157 -1.55354 0
M  V30 192 H 15.801 3.45685 -2.33039 0
M  V30 193 H 14.461 2.99802 -1.24694 0
M  V30 194 H 15.472 1.95769 -4.79474 0
M  V30 195 H 12.149 3.2824 -2.58002 0
M  V30 196 H 13.539 2.00254 -6.41364 0
M  V30 197 N 16.2591 1.48442 0.529413 0
M  V30 198 C 17.2221 1.62524 1.61612 0
M  V30 199 C 18.2221 0.498509 1.52877 0
M  V30 200 O 19.4121 0.76431 1.56537 0
M  V30 201 C 16.5441 1.59597 3.01233 0
M  V30 202 H 17.7371 2.59423 1.50465 0
M  V30 203 H 15.2901 1.37047 0.751514 0
M  V30 204 H 16.0251 0.641781 3.17886 0
M  V30 205 H 15.8101 2.41397 3.08982 0
M  V30 206 H 17.3001 1.72646 3.80241 0
M  V30 207 N 17.7372 -0.778329 1.37039 0
M  V30 208 C 18.7002 -1.87301 1.32102 0
M  V30 209 C 19.7002 -1.59198 0.226405 0
M  V30 210 O 20.8902 -1.67403 0.481861 0
M  V30 211 C 18.0222 -3.24309 1.05055 0
M  V30 212 H 19.2152 -1.93093 2.29467 0
M  V30 213 H 16.7682 -0.977358 1.21973 0
M  V30 214 H 17.5032 -3.24196 0.0819373 0
M  V30 215 H 17.2882 -3.46098 1.84279 0
M  V30 216 H 18.7782 -4.04382 1.04234 0
M  V30 217 N 19.2153 -1.21501 -1.00376 0
M  V30 218 C 20.1623 -0.975387 -2.09177 0
M  V30 219 C 21.1323 0.0990615 -1.65804 0
M  V30 220 O 22.3173 -0.0483147 -1.90739 0
M  V30 221 C 19.4573 -0.547507 -3.40729 0
M  V30 222 C 18.5703 -1.69153 -3.97506 0
M  V30 223 C 17.7053 -1.2127 -5.17172 0
M  V30 224 C 16.7443 -2.32897 -5.66061 0
M  V30 225 N 15.8813 -1.86138 -6.76976 0
M  V30 226 H 20.7213 -1.9068 -2.29009 0
M  V30 227 H 18.2583 -0.950257 -1.12288 0
M  V30 228 H 20.2163 -0.280667 -4.16255 0
M  V30 229 H 18.8463 0.346904 -3.20931 0
M  V30 230 H 17.8983 -2.07298 -3.18954 0
M  V30 231 H 19.2103 -2.5316 -4.29781 0
M  V30 232 H 18.3643 -0.902591 -5.99948 0
M  V30 233 H 17.1033 -0.342692 -4.86495 0
M  V30 234 H 16.1083 -2.64709 -4.81881 0
M  V30 235 H 17.3333 -3.20396 -5.98768 0
M  V30 236 H 15.2793 -1.01484 -6.48103 0
M  V30 237 H 15.1963 -2.63717 -7.08512 0
M  V30 238 H 16.4643 -1.58165 -7.63285 0
M  V30 239 N 20.6934 1.19889 -1.02296 0
M  V30 240 C 21.9214 1.9339 -0.735399 0
M  V30 241 C 22.3364 1.75148 0.704887 0
M  V30 242 O 21.6934 1.06954 1.47875 0
M  V30 243 C 21.7444 3.45313 -1.06962 0
M  V30 244 O 21.4654 3.62964 -2.45334 0
M  V30 245 C 22.9664 4.35948 -0.804021 0
M  V30 246 H 20.1864 0.61448 -0.269546 0
M  V30 247 H 22.7304 1.522 -1.36585 0
M  V30 248 H 20.8854 3.84359 -0.484455 0
M  V30 249 H 21.2994 4.56886 -2.57595 0
M  V30 250 H 22.7734 5.41174 -1.0879 0
M  V30 251 H 23.2504 4.3842 0.261691 0
M  V30 252 H 23.8564 4.02574 -1.37164 0
M  V30 253 N 22.1715 0.800033 1.35784 0
M  V30 254 C 23.3965 0.388511 2.03729 0
M  V30 255 C 23.8215 -0.990481 1.5991 0
M  V30 256 O 23.1795 -1.64013 0.772612 0
M  V30 257 C 23.2275 0.4726 3.5749 0
M  V30 258 O 22.3315 -0.51646 4.09153 0
M  V30 259 H 21.6725 0.163271 0.643614 0
M  V30 260 H 24.2025 1.0841 1.73518 0
M  V30 261 H 24.2125 0.34003 4.06581 0
M  V30 262 H 22.8875 1.47848 3.88734 0
M  V30 263 H 21.4645 -0.344673 3.71304 0
M  V30 264 N 23.6496 -1.47581 0.552962 0
M  V30 265 C 24.5966 -2.29957 -0.197108 0
M  V30 266 C 25.5666 -1.38799 -0.912359 0
M  V30 267 O 26.7516 -1.67761 -0.908888 0
M  V30 268 C 23.8916 -3.22672 -1.22379 0
M  V30 269 C 23.0046 -4.28919 -0.515038 0
M  V30 270 C 22.1396 -5.0879 -1.52664 0
M  V30 271 C 21.1786 -6.06815 -0.802631 0
M  V30 272 N 20.3156 -6.7966 -1.76086 0
M  V30 273 H 25.1556 -2.93578 0.511486 0
M  V30 274 H 22.6926 -1.4471 0.264067 0
M  V30 275 H 24.6506 -3.74845 -1.83159 0
M  V30 276 H 23.2806 -2.60925 -1.90047 0
M  V30 277 H 22.3326 -3.79835 0.207192 0
M  V30 278 H 23.6446 -4.98773 0.0523425 0
M  V30 279 H 22.7986 -5.65091 -2.20809 0
M  V30 280 H 21.5376 -4.38828 -2.12794 0
M  V30 281 H 20.5426 -5.49695 -0.107238 0
M  V30 282 H 21.7676 -6.78784 -0.207135 0
M  V30 283 H 19.7136 -6.12432 -2.35081 0
M  V30 284 H 19.6306 -7.45669 -1.24552 0
M  V30 285 H 20.8986 -7.40538 -2.43359 0
M  V30 286 N 25.1277 -0.289203 -1.54924 0
M  V30 287 C 26.0577 0.58549 -2.2604 0
M  V30 288 C 27.0387 1.14753 -1.25562 0
M  V30 289 O 28.2237 1.17906 -1.54311 0
M  V30 290 C 25.3537 1.76305 -2.99222 0
M  V30 291 C 24.3077 1.33191 -4.06748 0
M  V30 292 C 23.6337 2.5937 -4.6758 0
M  V30 293 C 24.9337 0.471775 -5.20165 0
M  V30 294 H 26.6277 -0.00763532 -2.99399 0
M  V30 295 H 24.1737 -0.00511229 -1.43999 0
M  V30 296 H 26.1267 2.38097 -3.47689 0
M  V30 297 H 24.8507 2.38223 -2.23422 0
M  V30 298 H 23.5097 0.737121 -3.59113 0
M  V30 299 H 23.1577 3.19576 -3.88433 0
M  V30 300 H 22.8577 2.31228 -5.40192 0
M  V30 301 H 24.3817 3.21985 -5.18804 0
M  V30 302 H 25.7957 0.995056 -5.64599 0
M  V30 303 H 24.1927 0.284639 -5.99425 0
M  V30 304 H 25.2627 -0.506041 -4.82252 0
M  V30 305 N 26.6058 1.57591 -0.0167156 0
M  V30 306 C 27.8308 1.9598 0.67872 0
M  V30 307 C 28.2558 0.892546 1.65575 0
M  V30 308 O 27.6138 -0.147772 1.80697 0
M  V30 309 C 27.6618 3.33468 1.37227 0
M  V30 310 O 26.7658 3.28954 2.48722 0
M  V30 311 H 26.1068 0.639339 0.17928 0
M  V30 312 H 28.6368 2.04463 -0.0748802 0
M  V30 313 H 28.6468 3.69417 1.7319 0
M  V30 314 H 27.3218 4.10694 0.656007 0
M  V30 315 H 25.8988 3.04705 2.14963 0
M  V30 316 N 28.0839 -0.256276 1.55502 0
M  V30 317 C 29.3319 -0.983672 1.76545 0
M  V30 318 C 29.6529 -1.86206 0.578982 0
M  V30 319 O 28.9229 -1.91656 -0.405577 0
M  V30 320 H 27.5029 -0.366191 0.651086 0
M  V30 321 H 30.1649 -0.276479 1.92929 0
M  V30 322 H 29.2609 -1.61087 2.67315 0
M  V30 323 N 29.562 -1.4872 -0.521534 0
M  V30 324 C 30.973 -1.50607 -1.10337 0
M  V30 325 C 31.324 -0.280612 -1.94183 0
M  V30 326 O 30.449 0.611507 -2.0758 0
M  V30 327 C 31.044 -2.72903 -2.00772 0
M  V30 328 C 29.603 -2.77634 -2.54158 0
M  V30 329 C 28.75 -2.44241 -1.31307 0
M  V30 330 H 31.701 -1.55714 -0.306388 0
M  V30 331 H 31.722 -2.519 -2.85178 0
M  V30 332 H 31.234 -3.62077 -1.39721 0
M  V30 333 H 29.335 -1.92689 -3.18907 0
M  V30 334 H 29.448 -3.79283 -2.92714 0
M  V30 335 H 27.812 -1.95577 -1.63161 0
M  V30 336 H 28.595 -3.35666 -0.719943 0
M  V30 337 N 31.0401 0.771051 -1.3745 0
M  V30 338 C 32.2861 1.53109 -1.339 0
M  V30 339 C 32.6411 1.9225 0.0758401 0
M  V30 340 O 31.9341 1.61264 1.03463 0
M  V30 341 C 32.1281 2.80676 -2.2126 0
M  V30 342 C 31.9571 2.54003 -3.71096 0
M  V30 343 C 30.7271 2.48097 -4.402 0
M  V30 344 C 32.9251 2.21953 -4.63941 0
M  V30 345 N 30.9071 2.13515 -5.75573 0
M  V30 346 C 32.2781 1.97516 -5.87697 0
M  V30 347 C 34.3331 2.08114 -4.5232 0
M  V30 348 C 33.0361 1.60638 -7.01133 0
M  V30 349 C 35.0621 1.72636 -5.65642 0
M  V30 350 C 34.4241 1.4906 -6.88448 0
M  V30 351 H 30.5231 0.56055 -0.54526 0
M  V30 352 H 33.1071 0.899472 -1.72678 0
M  V30 353 H 31.2781 3.41674 -1.84698 0
M  V30 354 H 33.0101 3.46578 -2.08963 0
M  V30 355 H 29.7651 2.63974 -3.93211 0
M  V30 356 H 30.1891 1.98919 -6.47117 0
M  V30 357 H 34.8311 2.25024 -3.57944 0
M  V30 358 H 32.5491 1.42467 -7.95443 0
M  V30 359 H 36.1351 1.62586 -5.58621 0
M  V30 360 H 35.0151 1.22014 -7.7465 0
M  V30 361 N 32.5182 1.22032 0.997298 0
M  V30 362 C 33.7432 1.06921 1.77715 0
M  V30 363 C 34.1682 -0.376226 1.84299 0
M  V30 364 O 33.5262 -1.27165 1.29223 0
M  V30 365 C 33.5742 1.67996 3.19076 0
M  V30 366 O 32.6782 0.930653 4.01762 0
M  V30 367 H 32.0192 0.375814 0.547412 0
M  V30 368 H 34.5492 1.61737 1.25309 0
M  V30 369 H 34.5592 1.72538 3.69723 0
M  V30 370 H 33.2342 2.73182 3.13599 0
M  V30 371 H 31.8112 0.960917 3.60307 0
M  V30 372 N 33.9963 -1.19345 1.0293 0
M  V30 373 C 35.4123 -1.41069 0.746446 0
M  V30 374 C 35.6123 -1.90078 -0.668776 0
M  V30 375 O 34.6683 -2.0778 -1.4347 0
M  V30 376 C 35.9813 -2.42141 1.78292 0
M  V30 377 C 37.5293 -2.55887 1.80252 0
M  V30 378 C 38.0043 -3.60214 2.8286 0
M  V30 379 N 39.4953 -3.67711 2.81679 0
M  V30 380 C 40.2303 -4.48128 3.57727 0
M  V30 381 N 39.7263 -5.32248 4.43491 0
M  V30 382 N 41.5193 -4.42782 3.46267 0
M  V30 383 H 33.6703 -0.858536 1.94275 0
M  V30 384 H 35.9333 -0.439541 0.839945 0
M  V30 385 H 35.6393 -2.13155 2.79746 0
M  V30 386 H 35.5133 -3.41323 1.60557 0
M  V30 387 H 37.9003 -2.84196 0.794757 0
M  V30 388 H 37.9813 -1.56858 2.02062 0
M  V30 389 H 37.6253 -3.32647 3.83807 0
M  V30 390 H 37.5553 -4.58895 2.58307 0
M  V30 391 H 40.0463 -3.07634 2.19476 0
M  V30 392 H 40.3593 -5.90729 4.98256 0
M  V30 393 H 38.7043 -5.31707 4.47564 0
M  V30 394 H 41.8953 -3.76107 2.78677 0
M  V30 395 H 42.0683 -5.05215 4.05785 0
M  V30 396 N 35.4744 -0.807222 -1.35358 0
M  V30 397 C 36.8854 -0.44876 -1.81226 0
M  V30 398 C 37.2364 1.02929 -1.67033 0
M  V30 399 O 36.3614 1.79991 -1.20133 0
M  V30 400 C 36.9564 -0.807774 -3.2903 0
M  V30 401 C 35.5154 -0.501901 -3.73039 0
M  V30 402 C 34.6624 -1.03304 -2.57339 0
M  V30 403 H 37.6134 -0.998808 -1.23327 0
M  V30 404 H 37.6344 -0.10554 -3.80354 0
M  V30 405 H 37.1464 -1.88357 -3.39328 0
M  V30 406 H 35.2474 0.565128 -3.68289 0
M  V30 407 H 35.3604 -1.03497 -4.67787 0
M  V30 408 H 33.7244 -0.455339 -2.50597 0
M  V30 409 H 34.5074 -2.11496 -2.70415 0
M  V30 410 N 36.9525 1.47285 -0.560781 0
M  V30 411 C 37.9155 2.28535 0.174488 0
M  V30 412 C 38.9155 1.37153 0.839388 0
M  V30 413 O 40.1055 1.59748 0.694702 0
M  V30 414 C 37.2375 3.16934 1.25561 0
M  V30 415 H 38.4305 2.95012 -0.539262 0
M  V30 416 H 35.9835 1.53034 -0.317865 0
M  V30 417 H 36.7185 2.55157 2.00164 0
M  V30 418 H 36.5035 3.8419 0.783604 0
M  V30 419 H 37.9935 3.78143 1.77193 0
M  V30 420 N 38.4306 0.297415 1.54768 0
M  V30 421 C 39.3936 -0.567375 2.22066 0
M  V30 422 C 40.3936 -1.06409 1.20556 0
M  V30 423 O 41.5836 -0.960691 1.45315 0
M  V30 424 C 38.7156 -1.78517 2.90421 0
M  V30 425 H 39.9086 0.0205534 2.99893 0
M  V30 426 H 37.4616 0.0482163 1.56226 0
M  V30 427 H 38.1966 -2.41303 2.16664 0
M  V30 428 H 37.9816 -1.43669 3.64831 0
M  V30 429 H 39.4716 -2.39964 3.41771 0
M  V30 430 N 39.9087 -1.5758 0.0250728 0
M  V30 431 C 41.1557 -1.91633 -0.654444 0
M  V30 432 C 41.4837 -0.901103 -1.72367 0
M  V30 433 O 40.7387 0.0905647 -1.9549 0
M  V30 434 C 41.0377 -3.32421 -1.31268 0
M  V30 435 C 40.7037 -4.49344 -0.374223 0
M  V30 436 C 39.3657 -4.8106 -0.115911 0
M  V30 437 C 41.7177 -5.20498 0.270432 0
M  V30 438 C 39.0457 -5.8129 0.79493 0
M  V30 439 C 41.3977 -6.21699 1.1693 0
M  V30 440 C 40.0617 -6.51859 1.43655 0
M  V30 441 H 39.3317 -0.701236 -0.239478 0
M  V30 442 H 41.9787 -1.91307 0.0859734 0
M  V30 443 H 40.2837 -3.28989 -2.12775 0
M  V30 444 H 41.9807 -3.56038 -1.84494 0
M  V30 445 H 38.5707 -4.24579 -0.58573 0
M  V30 446 H 42.7547 -4.96229 0.0839194 0
M  V30 447 H 38.0107 -6.03005 1.00973 0
M  V30 448 H 42.1847 -6.75955 1.67504 0
M  V30 449 H 39.8117 -7.2934 2.144 0
M  V30 450 N 41.3868 0.248026 -1.55636 0
M  V30 451 C 42.3198 1.3334 -1.85191 0
M  V30 452 C 43.2978 1.46429 -0.706906 0
M  V30 453 O 44.4818 1.62662 -0.952544 0
M  V30 454 C 41.6088 2.70703 -2.03562 0
M  V30 455 C 40.6548 2.7477 -3.26196 0
M  V30 456 S 41.4878 2.31493 -4.82878 0
M  V30 457 C 42.6438 3.70783 -5.04253 0
M  V30 458 H 42.8768 1.08072 -2.76962 0
M  V30 459 H 40.4098 0.448952 -1.47729 0
M  V30 460 H 42.3678 3.49798 -2.1483 0
M  V30 461 H 41.0288 2.9321 -1.12635 0
M  V30 462 H 40.2218 3.75648 -3.36013 0
M  V30 463 H 39.8238 2.03719 -3.13647 0
M  V30 464 H 42.1158 4.6627 -4.91527 0
M  V30 465 H 43.0588 3.65901 -6.06236 0
M  V30 466 H 43.4668 3.63244 -4.32105 0
M  V30 467 N 42.8649 1.48995 0.513639 0
M  V30 468 C 44.0899 1.61792 1.29762 0
M  V30 469 C 44.5149 0.284475 1.85936 0
M  V30 470 O 43.8729 -0.746185 1.65232 0
M  V30 471 C 43.9209 2.67993 2.41272 0
M  V30 472 O 43.0249 2.26287 3.44772 0
M  V30 473 H 42.3659 0.541963 0.38363 0
M  V30 474 H 44.8959 1.95097 0.616307 0
M  V30 475 H 44.9059 2.89772 2.87221 0
M  V30 476 H 43.5809 3.64791 1.9975 0
M  V30 477 H 42.1579 2.14788 3.04829 0
M  V30 478 N 44.343 -0.763751 1.37857 0
M  V30 479 C 45.571 -1.55293 1.36718 0
M  V30 480 C 45.986 -1.88745 -0.0455434 0
M  V30 481 O 45.343 -1.52039 -1.00947 0
M  V30 482 C 45.394 -2.85831 2.2132 0
M  V30 483 O 45.115 -2.5381 3.57089 0
M  V30 484 C 46.616 -3.80023 2.28249 0
M  V30 485 H 43.836 -0.480841 0.468009 0
M  V30 486 H 46.38 -0.946009 1.81303 0
M  V30 487 H 44.535 -3.42926 1.80223 0
M  V30 488 H 44.949 -3.37459 4.01524 0
M  V30 489 H 46.423 -4.68599 2.91752 0
M  V30 490 H 46.9 -4.1973 1.2932 0
M  V30 491 H 47.506 -3.28855 2.69693 0
M  V30 492 N 45.8211 -1.22559 -0.990812 0
M  V30 493 C 46.7511 -1.0218 -2.09956 0
M  V30 494 C 47.7321 0.0579394 -1.70001 0
M  V30 495 O 48.9171 -0.104684 -1.93918 0
M  V30 496 C 46.0471 -0.601023 -3.4206 0
M  V30 497 C 45.0011 -1.62694 -3.95872 0
M  V30 498 C 44.3271 -1.06193 -5.24049 0
M  V30 499 C 45.6271 -3.01743 -4.2632 0
M  V30 500 H 47.3211 -1.94916 -2.27262 0
M  V30 501 H 44.8671 -0.938566 -1.09211 0
M  V30 502 H 46.8201 -0.445561 -4.19038 0
M  V30 503 H 45.5441 0.362005 -3.24588 0
M  V30 504 H 44.2031 -1.77021 -3.21028 0
M  V30 505 H 43.8511 -0.0901903 -5.02919 0
M  V30 506 H 43.5511 -1.74732 -5.61019 0
M  V30 507 H 45.0751 -0.918092 -6.03658 0
M  V30 508 H 46.4891 -2.90777 -4.94087 0
M  V30 509 H 44.8861 -3.67425 -4.74467 0
M  V30 510 H 45.9561 -3.51518 -3.34011 0
M  V30 511 N 47.2992 1.18797 -1.03562 0
M  V30 512 C 48.2292 2.24472 -0.643019 0
M  V30 513 C 49.2102 1.66433 0.351283 0
M  V30 514 O 50.3952 1.92803 0.232505 0
M  V30 515 C 47.5252 3.473 4.24935e-05 0
M  V30 516 C 46.4792 4.18055 -0.917257 0
M  V30 517 C 45.8052 5.34519 -0.138941 0
M  V30 518 C 47.1052 4.72109 -2.23407 0
M  V30 519 H 48.7992 2.57566 -1.52643 0
M  V30 520 H 46.3452 1.23806 -0.735394 0
M  V30 521 H 48.2982 4.20426 0.286383 0
M  V30 522 H 47.0222 3.13424 0.918299 0
M  V30 523 H 45.6812 3.46821 -1.1879 0
M  V30 524 H 45.3292 4.96891 0.781562 0
M  V30 525 H 45.0292 5.82794 -0.750005 0
M  V30 526 H 46.5532 6.10438 0.1405 0
M  V30 527 H 47.9672 5.36955 -2.00879 0
M  V30 528 H 46.3642 5.30897 -2.79765 0
M  V30 529 H 47.4342 3.89807 -2.88407 0
M  V30 530 N 48.7773 0.814389 1.34928 0
M  V30 531 C 50.0263 0.394871 1.97797 0
M  V30 532 C 50.3393 -1.04555 1.65311 0
M  V30 533 O 51.5453 -1.56856 2.21604 0
M  V30 534 C 50.0013 0.655103 3.53888 0
M  V30 535 C 49.6093 2.10858 3.95276 0
M  V30 536 C 51.3533 0.301329 4.23429 0
M  V30 537 C 49.2603 2.31415 5.44244 0
M  V30 538 H 48.1903 0.143913 0.740139 0
M  V30 539 H 50.8413 0.999544 1.53888 0
M  V30 540 H 49.2233 -0.0196253 3.95995 0
M  V30 541 H 50.3973 2.82176 3.64298 0
M  V30 542 H 48.7123 2.42297 3.38646 0
M  V30 543 H 51.3093 0.432869 5.32945 0
M  V30 544 H 51.6523 -0.75331 4.09428 0
M  V30 545 H 52.1853 0.930288 3.86769 0
M  V30 546 H 48.9243 3.35353 5.63222 0
M  V30 547 H 48.4443 1.6463 5.76764 0
M  V30 548 H 50.1233 2.13352 6.10811 0
M  V30 549 N 50.2554 -1.46986 0.568584 0
M  V30 550 C 51.2034 -2.31858 -0.185649 0
M  V30 551 C 52.1974 -1.43624 -0.898249 0
M  V30 552 O 53.4034 -1.60327 -0.818242 0
M  V30 553 H 49.7784 -0.747866 -0.0787399 0
M  V30 554 H 51.7494 -2.93303 0.549191 0
M  V30 555 C 50.4984 -3.26513 -1.19519 0
M  V30 556 H 49.8214 -3.94377 -0.656285 0
M  V30 557 H 51.2614 -3.88707 -1.6936 0
M  V30 558 C 49.7204 -2.50847 -2.24894 0
M  V30 559 O 50.2504 -2.26119 -3.32014 0
M  V30 560 N 48.4564 -2.11656 -1.99124 0
M  V30 561 H 48.0034 -2.31966 -1.12024 0
M  V30 562 H 47.9614 -1.61347 -2.69842 0
M  V30 563 N 51.7335 -0.305618 -1.54608 0
M  V30 564 C 52.6655 0.602161 -2.21149 0
M  V30 565 C 53.6785 1.09394 -1.20569 0
M  V30 566 O 54.8675 1.0106 -1.47136 0
M  V30 567 C 51.9675 1.83692 -2.84799 0
M  V30 568 C 51.1405 1.48686 -4.11353 0
M  V30 569 C 50.1995 2.57725 -4.58764 0
M  V30 570 O 49.2255 2.22623 -5.23858 0
M  V30 571 N 50.4275 3.88346 -4.31471 0
M  V30 572 H 53.1925 0.0324966 -2.99682 0
M  V30 573 H 50.7535 -0.128021 -1.61393 0
M  V30 574 H 52.7455 2.55994 -3.13448 0
M  V30 575 H 51.3155 2.31486 -2.10078 0
M  V30 576 H 50.5355 0.596269 -3.89664 0
M  V30 577 H 51.8235 1.22842 -4.93748 0
M  V30 578 H 51.2215 4.19671 -3.79331 0
M  V30 579 H 49.7785 4.56932 -4.64818 0
M  V30 580 N 53.2116 1.57565 -0.0334293 0
M  V30 581 C 54.6226 1.79746 0.504798 0
M  V30 582 C 54.9736 0.944091 1.71992 0
M  V30 583 O 54.0986 0.155694 2.15839 0
M  V30 584 C 54.6936 3.25997 0.922567 0
M  V30 585 C 53.2526 3.49159 1.40588 0
M  V30 586 C 52.3996 2.74785 0.372633 0
M  V30 587 H 55.3506 1.56565 -0.259436 0
M  V30 588 H 55.3716 3.35945 1.78666 0
M  V30 589 H 54.8836 3.88081 0.0379825 0
M  V30 590 H 52.9846 2.92332 2.31025 0
M  V30 591 H 53.0976 4.57873 1.41028 0
M  V30 592 H 51.4616 2.40391 0.841672 0
M  V30 593 H 52.2446 3.39587 -0.503559 0
M  V30 594 N 54.6897 -0.239769 1.55765 0
M  V30 595 C 55.6217 -1.32001 1.87372 0
M  V30 596 C 56.6347 -1.43944 0.760522 0
M  V30 597 O 57.8237 -1.45167 1.0387 0
M  V30 598 C 54.9237 -2.69779 2.05115 0
M  V30 599 C 54.0967 -2.80014 3.36022 0
M  V30 600 C 53.1557 -3.98684 3.4342 0
M  V30 601 O 52.1817 -3.87877 4.16582 0
M  V30 602 N 53.3837 -5.12176 2.73232 0
M  V30 603 H 56.1487 -1.0522 2.80622 0
M  V30 604 H 53.7097 -0.429857 1.56089 0
M  V30 605 H 55.7017 -3.47517 2.07399 0
M  V30 606 H 54.2717 -2.89237 1.18577 0
M  V30 607 H 53.4917 -1.88896 3.45994 0
M  V30 608 H 54.7797 -2.83808 4.22292 0
M  V30 609 H 54.1777 -5.2385 2.13536 0
M  V30 610 H 52.7347 -5.88022 2.81199 0
M  V30 611 N 56.1678 -1.49265 -0.50573 0
M  V30 612 C 57.3978 -1.61979 -1.28243 0
M  V30 613 C 57.8058 -0.288576 -1.86986 0
M  V30 614 O 57.1488 0.735408 -1.68337 0
M  V30 615 C 57.2108 -2.62632 -2.45489 0
M  V30 616 C 56.8748 -4.071 -2.07651 0
M  V30 617 C 57.8718 -4.94049 -1.61901 0
M  V30 618 C 55.5568 -4.52801 -2.17431 0
M  V30 619 C 57.5508 -6.24736 -1.26428 0
M  V30 620 C 55.2378 -5.83503 -1.8157 0
M  V30 621 C 56.2358 -6.69294 -1.36142 0
M  V30 622 O 55.9238 -7.9756 -1.00764 0
M  V30 623 H 55.6558 -0.54834 -0.395347 0
M  V30 624 H 58.2098 -1.96002 -0.614204 0
M  V30 625 H 56.4398 -2.2378 -3.15372 0
M  V30 626 H 58.1288 -2.64925 -3.07522 0
M  V30 627 H 58.8948 -4.5997 -1.53795 0
M  V30 628 H 54.7738 -3.86196 -2.51742 0
M  V30 629 H 58.3178 -6.91652 -0.908992 0
M  V30 630 H 54.2148 -6.17112 -1.89324 0
M  V30 631 H 54.9828 -8.10529 -1.13952 0
M  V30 632 N 57.6459 0.756429 -1.3826 0
M  V30 633 C 58.6089 1.85176 -1.35065 0
M  V30 634 C 59.6089 1.58818 -0.251703 0
M  V30 635 O 60.7989 1.66615 -0.508433 0
M  V30 636 C 57.9309 3.22596 -1.10201 0
M  V30 637 H 59.1239 1.89417 -2.3251 0
M  V30 638 H 56.6769 0.95783 -1.23512 0
M  V30 639 H 57.4119 3.24025 -0.133504 0
M  V30 640 H 57.1969 3.43122 -1.89762 0
M  V30 641 H 58.6869 4.02673 -1.10654 0
M  V30 642 N 59.124 1.23083 0.984299 0
M  V30 643 C 60.37 1.07221 1.72845 0
M  V30 644 C 60.725 -0.387453 1.88458 0
M  V30 645 O 60.018 -1.28309 1.42293 0
M  V30 646 C 60.212 1.72673 3.1292 0
M  V30 647 C 60.041 3.24853 3.10967 0
M  V30 648 C 58.811 3.93998 3.16376 0
M  V30 649 C 61.009 4.21674 2.94441 0
M  V30 650 N 58.991 5.33192 3.04268 0
M  V30 651 C 60.362 5.47756 2.90453 0
M  V30 652 C 62.417 4.12457 2.78897 0
M  V30 653 C 61.12 6.6568 2.72512 0
M  V30 654 C 63.146 5.3004 2.62319 0
M  V30 655 C 62.508 6.55046 2.59026 0
M  V30 656 H 58.607 0.44685 0.641755 0
M  V30 657 H 61.191 1.55753 1.16829 0
M  V30 658 H 59.362 1.26679 3.67161 0
M  V30 659 H 61.094 1.49824 3.75945 0
M  V30 660 H 57.849 3.45052 3.24401 0
M  V30 661 H 58.273 6.06157 3.015 0
M  V30 662 H 62.915 3.16588 2.80235 0
M  V30 663 H 60.633 7.61689 2.69919 0
M  V30 664 H 64.219 5.24747 2.5126 0
M  V30 665 H 63.099 7.44498 2.46357 0
M  V30 666 N 60.6021 -1.18246 1.0419 0
M  V30 667 C 61.5321 -2.24127 0.654914 0
M  V30 668 C 62.5131 -1.66617 -0.342451 0
M  V30 669 O 63.6981 -1.92924 -0.222277 0
M  V30 670 C 60.8281 -3.47295 0.0183757 0
M  V30 671 C 59.7821 -4.17563 0.939414 0
M  V30 672 C 59.1081 -5.34438 0.167286 0
M  V30 673 C 60.4081 -4.70917 2.25908 0
M  V30 674 H 62.1021 -2.56753 1.54007 0
M  V30 675 H 59.6481 -1.23414 0.74195 0
M  V30 676 H 61.6011 -4.20572 -0.264082 0
M  V30 677 H 60.3251 -3.13907 -0.901664 0
M  V30 678 H 58.9841 -3.46186 1.20628 0
M  V30 679 H 58.6321 -4.97298 -0.7552 0
M  V30 680 H 58.3321 -5.82388 0.780901 0
M  V30 681 H 59.8561 -6.10504 -0.108125 0
M  V30 682 H 61.2701 -5.35882 2.03724 0
M  V30 683 H 59.6671 -5.29406 2.82577 0
M  V30 684 H 60.7371 -3.88272 2.9047 0
M  V30 685 N 62.0802 -0.821533 -1.34494 0
M  V30 686 C 63.0272 -0.240397 -2.29545 0
M  V30 687 C 63.9972 0.634031 -1.53523 0
M  V30 688 O 65.1822 0.575966 -1.81899 0
M  V30 689 C 62.3222 0.592869 -3.39969 0
M  V30 690 C 61.4352 -0.30365 -4.30932 0
M  V30 691 C 60.5702 0.539049 -5.28458 0
M  V30 692 C 59.6092 -0.356942 -6.11058 0
M  V30 693 N 58.7462 0.446603 -7.00678 0
M  V30 694 H 63.5862 -1.05632 -2.7865 0
M  V30 695 H 61.1232 -0.532413 -1.37127 0
M  V30 696 H 63.0812 1.09129 -4.02675 0
M  V30 697 H 61.7112 1.37392 -2.92102 0
M  V30 698 H 60.7632 -0.920276 -3.691 0
M  V30 699 H 62.0752 -0.992661 -4.88823 0
M  V30 700 H 61.2292 1.102 -5.96608 0
M  V30 701 H 59.9682 1.26157 -4.71101 0
M  V30 702 H 58.9732 -0.932047 -5.41842 0
M  V30 703 H 60.1982 -1.07755 -6.70497 0
M  V30 704 H 58.1442 1.15282 -6.45791 0
M  V30 705 H 58.0612 -0.184048 -7.55776 0
M  V30 706 H 59.3292 0.992352 -7.73158 0
M  V30 707 N 63.5583 1.46682 -0.576371 0
M  V30 708 C 64.4683 2.34032 0.163141 0
M  V30 709 C 65.4843 1.49367 0.892501 0
M  V30 710 O 66.6603 1.82252 0.857106 0
M  V30 711 C 63.7253 3.26435 1.16795 0
M  V30 712 C 62.7863 4.26998 0.443944 0
M  V30 713 C 62.0193 5.14986 1.40088 0
M  V30 714 O 62.2423 5.05785 2.637 0
M  V30 715 O 61.1763 5.94906 0.914917 0
M  V30 716 H 65.0023 2.98607 -0.55388 0
M  V30 717 H 62.5873 1.45554 -0.336821 0
M  V30 718 H 64.4693 3.83459 1.74748 0
M  V30 719 H 63.1443 2.64465 1.86655 0
M  V30 720 H 62.0513 3.7368 -0.177271 0
M  V30 721 H 63.3843 4.91736 -0.213566 0
M  V30 722 N 65.0364 0.313813 1.54444 0
M  V30 723 C 65.9664 -0.549454 2.26943 0
M  V30 724 C 66.9474 -1.12741 1.27372 0
M  V30 725 O 68.1324 -1.15436 1.56167 0
M  V30 726 C 65.2624 -1.71523 3.01989 0
M  V30 727 C 64.2164 -1.26703 4.08816 0
M  V30 728 C 63.5424 -2.51898 4.71647 0
M  V30 729 C 64.8424 -0.388962 5.2085 0
M  V30 730 H 66.5364 0.0552661 2.99349 0
M  V30 731 H 64.0824 0.0280207 1.43973 0
M  V30 732 H 66.0354 -2.32535 3.51433 0
M  V30 733 H 64.7594 -2.34639 2.27183 0
M  V30 734 H 63.4184 -0.679896 3.6024 0
M  V30 735 H 63.0664 -3.13356 3.93468 0
M  V30 736 H 62.7664 -2.22605 5.43802 0
M  V30 737 H 64.2904 -3.1369 5.23861 0
M  V30 738 H 65.7044 -0.905107 5.6611 0
M  V30 739 H 64.1014 -0.18924 5.99802 0
M  V30 740 H 65.1714 0.582699 4.81386 0
M  V30 741 N 66.5145 -1.57545 0.0417849 0
M  V30 742 C 67.7625 -1.91937 -0.632829 0
M  V30 743 C 68.0835 -0.919978 -1.71934 0
M  V30 744 O 67.3535 0.0366064 -1.95866 0
M  V30 745 H 65.9335 -0.708493 -0.236742 0
M  V30 746 H 68.5955 -1.9468 0.0925745 0
M  V30 747 H 67.6915 -2.92912 -1.07746 0
M  V30 748 N 67.9926 0.231505 -1.5589 0
M  V30 749 C 68.9226 1.29022 -1.94617 0
M  V30 750 C 69.9036 1.4941 -0.813067 0
M  V30 751 O 71.0886 1.6176 -1.07459 0
M  V30 752 C 68.2186 2.64199 -2.25424 0
M  V30 753 C 67.1726 2.58484 -3.41131 0
M  V30 754 C 66.4986 3.97599 -3.57518 0
M  V30 755 C 67.7986 2.1413 -4.76388 0
M  V30 756 H 69.4926 0.968563 -2.83301 0
M  V30 757 H 67.0386 0.464479 -1.36303 0
M  V30 758 H 68.9916 3.38413 -2.51107 0
M  V30 759 H 67.7156 2.98032 -1.33583 0
M  V30 760 H 66.3746 1.86727 -3.15481 0
M  V30 761 H 66.0226 4.28723 -2.6307 0
M  V30 762 H 65.7226 3.94659 -4.35337 0
M  V30 763 H 67.2466 4.7349 -3.85538 0
M  V30 764 H 68.6606 2.78083 -5.01341 0
M  V30 765 H 67.0576 2.2227 -5.57419 0
M  V30 766 H 68.1276 1.09331 -4.72414 0
M  V30 767 N 69.4707 1.49531 0.497807 0
M  V30 768 C 70.8867 1.36365 0.829266 0
M  V30 769 C 71.0867 0.399184 1.97506 0
M  V30 770 O 70.1427 -0.167977 2.51941 0
M  V30 771 C 71.4557 2.77153 1.16647 0
M  V30 772 C 73.0037 2.85877 1.27449 0
M  V30 773 C 73.4787 4.2744 1.64497 0
M  V30 774 N 74.9697 4.30265 1.7154 0
M  V30 775 C 75.7047 5.3677 2.01656 0
M  V30 776 N 75.2007 6.53516 2.29976 0
M  V30 777 N 76.9937 5.24189 2.02934 0
M  V30 778 H 69.1447 2.10831 -0.257703 0
M  V30 779 H 71.4077 0.946534 -0.0527091 0
M  V30 780 H 71.1137 3.49442 0.397872 0
M  V30 781 H 70.9877 3.12722 2.10915 0
M  V30 782 H 73.3747 2.13824 2.0338 0
M  V30 783 H 73.4557 2.53887 0.312244 0
M  V30 784 H 73.0997 5.00021 0.891151 0
M  V30 785 H 73.0297 4.56896 2.61827 0
M  V30 786 H 75.5207 3.4607 1.51802 0
M  V30 787 H 75.8337 7.30506 2.52153 0
M  V30 788 H 74.1787 6.56737 2.27425 0
M  V30 789 H 77.3697 4.31988 1.80289 0
M  V30 790 H 77.5427 6.07286 2.26071 0
M  V30 791 N 70.9488 -0.749086 1.3866 0
M  V30 792 C 71.8588 -1.89358 1.38494 0
M  V30 793 C 72.8748 -1.71708 0.281476 0
M  V30 794 O 74.0508 -1.94554 0.520643 0
M  V30 795 C 71.1158 -3.24782 1.21316 0
M  V30 796 C 70.1768 -3.54926 2.41508 0
M  V30 797 C 69.4098 -4.83888 2.2514 0
M  V30 798 O 69.6328 -5.56592 1.24746 0
M  V30 799 O 68.5668 -5.13612 3.13826 0
M  V30 800 H 72.3928 -1.92452 2.34938 0
M  V30 801 H 69.9778 -0.894981 1.19626 0
M  V30 802 H 71.8598 -4.05739 1.13814 0
M  V30 803 H 70.5348 -3.2249 0.279592 0
M  V30 804 H 69.4418 -2.74112 2.54585 0
M  V30 805 H 70.7748 -3.61983 3.3351 0
M  V30 806 N 72.4269 -1.23603 -0.977757 0
M  V30 807 C 73.3369 -1.03632 -2.1047 0
M  V30 808 C 74.3529 0.0199435 -1.73989 0
M  V30 809 O 75.5289 -0.176076 -2.00629 0
M  V30 810 C 72.5939 -0.63276 -3.40877 0
M  V30 811 C 71.6549 -1.76437 -3.91367 0
M  V30 812 C 70.8879 -1.37997 -5.15551 0
M  V30 813 O 71.1109 -0.265357 -5.69782 0
M  V30 814 O 70.0449 -2.20201 -5.60174 0
M  V30 815 H 73.8709 -1.98086 -2.30208 0
M  V30 816 H 71.4559 -1.02332 -1.08851 0
M  V30 817 H 73.3379 -0.418761 -4.19314 0
M  V30 818 H 72.0129 0.282754 -3.22463 0
M  V30 819 H 70.9199 -2.03304 -3.14036 0
M  V30 820 H 72.2529 -2.6583 -4.14241 0
M  V30 821 N 73.905 1.17692 -1.04816 0
M  V30 822 C 74.853 2.23632 -0.63966 0
M  V30 823 C 75.847 1.6601 0.337219 0
M  V30 824 O 77.053 1.78844 0.203693 0
M  V30 825 H 73.428 0.727949 -0.188665 0
M  V30 826 H 75.399 2.55387 -1.54337 0
M  V30 827 C 74.148 3.4769 -0.0264051 0
M  V30 828 H 73.471 3.92331 -0.769164 0
M  V30 829 H 74.911 4.23418 0.222098 0
M  V30 830 C 73.37 3.13807 1.22584 0
M  V30 831 O 73.9 3.28236 2.31569 0
M  V30 832 N 72.106 2.68065 1.12202 0
M  V30 833 H 71.653 2.56525 0.235133 0
M  V30 834 H 71.611 2.45767 1.96076 0
M  V30 835 N 75.3831 0.828654 1.34056 0
M  V30 836 C 76.2931 0.256725 2.33191 0
M  V30 837 C 77.3091 -0.611898 1.62886 0
M  V30 838 O 78.4851 -0.51844 1.94613 0
M  V30 839 C 75.5501 -0.567238 3.42028 0
M  V30 840 C 74.6111 0.324458 4.28072 0
M  V30 841 C 73.8441 -0.460274 5.31712 0
M  V30 842 O 74.0671 -1.693 5.44696 0
M  V30 843 O 73.0011 0.160391 6.01686 0
M  V30 844 H 76.8271 1.07739 2.83947 0
M  V30 845 H 74.4121 0.59093 1.37217 0
M  V30 846 H 76.2941 -1.03582 4.08471 0
M  V30 847 H 74.9691 -1.36513 2.93506 0
M  V30 848 H 73.8761 0.840659 3.64532 0
M  V30 849 H 75.2091 1.08685 4.8005 0
M  V30 850 N 76.8612 -1.46375 0.584142 0
M  V30 851 C 78.1092 -2.01978 0.0701287 0
M  V30 852 C 78.4302 -1.4579 -1.295 0
M  V30 853 O 77.7002 -0.64314 -1.85042 0
M  V30 854 H 76.2802 -0.746648 0.0229345 0
M  V30 855 H 78.9422 -1.79461 0.760245 0
M  V30 856 H 78.0382 -3.121 0.0022064 0
M  V30 857 N 78.3393 -0.321999 -1.54275 0
M  V30 858 C 79.5853 0.281461 -2.00837 0
M  V30 859 C 79.9183 1.51909 -1.20985 0
M  V30 860 O 79.1933 1.923 -0.291733 0
M  V30 861 C 79.4763 0.617162 -3.54772 0
M  V30 862 C 79.3293 -0.631064 -4.45351 0
M  V30 863 C 80.6483 1.43542 -4.16033 0
M  V30 864 H 77.7673 0.100826 -0.730071 0
M  V30 865 H 80.4093 -0.438268 -1.84876 0
M  V30 866 H 78.5593 1.23034 -3.68504 0
M  V30 867 H 80.2313 -1.26934 -4.43492 0
M  V30 868 H 78.4743 -1.26025 -4.15091 0
M  V30 869 H 79.1453 -0.351735 -5.50878 0
M  V30 870 H 81.6213 0.917134 -4.05867 0
M  V30 871 H 80.4973 1.63907 -5.23856 0
M  V30 872 H 80.7583 2.43108 -3.69257 0
M  V30 873 N 79.8174 1.5752 -0.0501392 0
M  V30 874 C 81.0474 1.96678 0.632573 0
M  V30 875 C 81.4554 0.926298 1.64974 0
M  V30 876 O 80.7984 -0.09802 1.83438 0
M  V30 877 C 80.8604 3.32068 1.37735 0
M  V30 878 C 80.5244 4.54076 0.516131 0
M  V30 879 C 81.5214 5.19445 -0.217357 0
M  V30 880 C 79.2064 5.00304 0.44736 0
M  V30 881 C 81.2004 6.29378 -1.00807 0
M  V30 882 C 78.8874 6.10114 -0.347038 0
M  V30 883 C 79.8854 6.74512 -1.07344 0
M  V30 884 O 79.5734 7.82211 -1.85477 0
M  V30 885 H 79.3054 0.652193 0.177821 0
M  V30 886 H 81.8594 2.05091 -0.112543 0
M  V30 887 H 80.0894 3.20206 2.16807 0
M  V30 888 H 81.7784 3.55981 1.95019 0
M  V30 889 H 82.5444 4.84689 -0.173688 0
M  V30 890 H 78.4234 4.49971 1.00235 0
M  V30 891 H 81.9674 6.79575 -1.57556 0
M  V30 892 H 77.8644 6.44307 -0.392349 0
M  V30 893 H 78.6324 7.98982 -1.77678 0
M  V30 894 N 81.2955 -0.223234 1.56011 0
M  V30 895 C 82.2435 -1.29627 1.93131 0
M  V30 896 C 83.2375 -1.48608 0.813146 0
M  V30 897 O 84.4435 -1.49802 0.997966 0
M  V30 898 H 80.8185 -0.434563 0.613726 0
M  V30 899 H 82.7895 -0.955995 2.82672 0
M  V30 900 C 81.5385 -2.63983 2.26292 0
M  V30 901 H 80.8615 -2.50185 3.11846 0
M  V30 902 H 82.3015 -3.3788 2.56151 0
M  V30 903 C 80.7605 -3.18866 1.08747 0
M  V30 904 O 81.2905 -4.00192 0.347727 0
M  V30 905 N 79.4965 -2.77217 0.871743 0
M  V30 906 H 79.0435 -2.1119 1.47501 0
M  V30 907 H 79.0015 -3.1428 0.0869905 0
M  V30 908 N 82.7736 -1.49793 -0.48987 0
M  V30 909 C 84.0216 -1.59525 -1.24081 0
M  V30 910 C 84.3426 -0.288953 -1.92847 0
M  V30 911 O 83.6126 0.692436 -1.83254 0
M  V30 912 H 82.1926 -0.587796 -0.460983 0
M  V30 913 H 84.8546 -1.86477 -0.566778 0
M  V30 914 H 83.9506 -2.39696 -1.99881 0
M  V30 915 N 84.2517 0.741722 -1.39055 0
M  V30 916 C 85.4767 1.53607 -1.39354 0
M  V30 917 C 85.9017 1.88096 0.0116905 0
M  V30 918 O 85.2597 1.5143 0.996924 0
M  V30 919 C 85.3077 2.80441 -2.26682 0
M  V30 920 O 84.4117 3.76088 -1.69208 0
M  V30 921 H 83.7527 0.464142 -0.474835 0
M  V30 922 H 86.2827 0.915665 -1.82967 0
M  V30 923 H 86.2927 3.29246 -2.40959 0
M  V30 924 H 84.9677 2.5467 -3.2881 0
M  V30 925 H 83.5447 3.34833 -1.64138 0
M  V30 926 N 85.7298 1.2412 0.971189 0
M  V30 927 C 86.9758 1.09048 1.71698 0
M  V30 928 C 87.3308 -0.367442 1.88859 0
M  V30 929 O 86.6238 -1.26792 1.43646 0
M  V30 930 C 86.8178 1.75983 3.11071 0
M  V30 931 C 86.6468 3.28133 3.07504 0
M  V30 932 C 85.4168 3.97331 3.1218 0
M  V30 933 C 87.6148 4.24773 2.89952 0
M  V30 934 N 85.5968 5.3639 2.98596 0
M  V30 935 C 86.9678 5.50806 2.84627 0
M  V30 936 C 89.0228 4.15392 2.74506 0
M  V30 937 C 87.7258 6.68533 2.65437 0
M  V30 938 C 89.7518 5.32793 2.56682 0
M  V30 939 C 89.1138 6.57756 2.52063 0
M  V30 940 H 85.2128 0.453632 0.636979 0
M  V30 941 H 87.7968 1.56983 1.15171 0
M  V30 942 H 85.9678 1.30566 3.65796 0
M  V30 943 H 87.6998 1.53803 3.74335 0
M  V30 944 H 84.4548 3.48473 3.20724 0
M  V30 945 H 84.8788 6.09321 2.95054 0
M  V30 946 H 89.5208 3.19543 2.76861 0
M  V30 947 H 87.2388 7.64509 2.61825 0
M  V30 948 H 90.8248 5.27383 2.4568 0
M  V30 949 H 89.7048 7.4707 2.38446 0
M  V30 950 N 87.2079 -1.17134 1.05439 0
M  V30 951 C 88.4559 -1.87085 0.764429 0
M  V30 952 C 88.7769 -1.81584 -0.710787 0
M  V30 953 O 88.0469 -1.24349 -1.51374 0
M  V30 954 H 86.6269 -0.692627 0.279779 0
M  V30 955 H 89.2889 -1.42087 1.33406 0
M  V30 956 H 88.3849 -2.92759 1.0816 0
M  V30 957 N 88.686 -0.835752 -1.33615 0
M  V30 958 C 89.934 -0.429109 -1.97492 0
M  V30 959 C 90.255 1.01433 -1.66543 0
M  V30 960 O 89.525 1.70611 -0.962744 0
M  V30 961 H 88.105 -0.155686 -0.730596 0
M  V30 962 H 90.767 -1.06802 -1.63031 0
M  V30 963 H 89.863 -0.55861 -3.0706 0
M  V30 964 N 90.1641 1.46063 -0.591896 0
M  V30 965 C 91.5801 1.57561 -0.254288 0
M  V30 966 C 91.7801 1.58565 1.24336 0
M  V30 967 O 90.8361 1.50753 2.02558 0
M  V30 968 C 92.1491 2.86549 -0.911611 0
M  V30 969 C 93.6971 3.00197 -0.886059 0
M  V30 970 C 94.1721 4.31933 -1.5231 0
M  V30 971 N 95.6631 4.38654 -1.48786 0
M  V30 972 C 96.3981 5.39222 -1.95006 0
M  V30 973 N 95.8941 6.46414 -2.49241 0
M  V30 974 N 97.6871 5.3048 -1.85868 0
M  V30 975 H 89.8381 1.43655 -1.56451 0
M  V30 976 H 92.1011 0.68583 -0.654478 0
M  V30 977 H 91.8071 2.91651 -1.96551 0
M  V30 978 H 91.6811 3.74794 -0.425368 0
M  V30 979 H 94.0681 2.9467 0.159246 0
M  V30 980 H 94.1491 2.13403 -1.41041 0
M  V30 981 H 93.7931 4.38217 -2.56765 0
M  V30 982 H 93.7231 5.17516 -0.973891 0
M  V30 983 H 96.2141 3.61793 -1.09151 0
M  V30 984 H 96.5271 7.19376 -2.82344 0
M  V30 985 H 94.8721 6.47208 -2.53272 0
M  V30 986 H 98.0631 4.45643 -1.43248 0
M  V30 987 H 98.2361 6.08711 -2.22204 0
M  V30 988 N 91.6422 0.330177 1.54103 0
M  V30 989 C 92.8902 -0.269871 2.0029 0
M  V30 990 C 93.2112 -1.52133 1.21986 0
M  V30 991 O 92.4812 -1.93212 0.323438 0
M  V30 992 H 91.0612 -0.10271 0.739905 0
M  V30 993 H 93.7232 0.448249 1.89675 0
M  V30 994 H 92.8192 -0.52166 3.07709 0
M  V30 995 N 93.1203 -1.57491 0.0584922 0
M  V30 996 C 94.0303 -2.15448 -0.928414 0
M  V30 997 C 95.0463 -1.11416 -1.3365 0
M  V30 998 O 96.2223 -1.4362 -1.41193 0
M  V30 999 C 93.2873 -2.69393 -2.18239 0
M  V30 1000 C 92.3483 -3.88249 -1.83196 0
M  V30 1001 C 91.5813 -4.39613 -3.02616 0
M  V30 1002 O 91.8043 -3.90023 -4.16219 0
M  V30 1003 O 90.7383 -5.31111 -2.83204 0
M  V30 1004 H 94.5643 -3.00112 -0.465483 0
M  V30 1005 H 92.1493 -1.48499 -0.163826 0
M  V30 1006 H 94.0313 -3.04026 -2.91798 0
M  V30 1007 H 92.7063 -1.87796 -2.63656 0
M  V30 1008 H 91.6133 -3.58492 -1.06931 0
M  V30 1009 H 92.9463 -4.71098 -1.42573 0
M  V30 1010 N 94.5984 0.214957 -1.56127 0
M  V30 1011 C 95.8444 0.939762 -1.79712 0
M  V30 1012 C 96.1774 1.83723 -0.629247 0
M  V30 1013 O 95.4524 1.90925 0.371197 0
M  V30 1014 C 95.7354 1.77306 -3.13424 0
M  V30 1015 C 95.5884 0.90164 -4.40671 0
M  V30 1016 C 96.9074 2.74956 -3.43638 0
M  V30 1017 H 94.0264 0.340214 -0.653776 0
M  V30 1018 H 96.6684 0.20824 -1.88855 0
M  V30 1019 H 94.8184 2.39673 -3.0576 0
M  V30 1020 H 96.4904 0.294206 -4.60361 0
M  V30 1021 H 94.7334 0.207368 -4.33304 0
M  V30 1022 H 95.4044 1.51923 -5.30682 0
M  V30 1023 H 97.8804 2.22724 -3.51473 0
M  V30 1024 H 96.7564 3.30358 -4.38355 0
M  V30 1025 H 97.0174 3.53023 -2.66134 0
M  V30 1026 N 96.0765 1.50051 0.48192 0
M  V30 1027 C 97.3255 1.59741 1.23149 0
M  V30 1028 C 97.6385 0.298163 1.93314 0
M  V30 1029 O 98.8445 0.273835 2.70116 0
M  V30 1030 C 97.3005 2.81926 2.23708 0
M  V30 1031 C 96.9085 4.18685 1.59396 0
M  V30 1032 C 98.6525 3.00956 2.99375 0
M  V30 1033 C 96.5595 5.3207 2.58178 0
M  V30 1034 H 95.4895 0.594838 0.46334 0
M  V30 1035 H 98.1405 1.76467 0.503169 0
M  V30 1036 H 96.5225 2.58736 2.99786 0
M  V30 1037 H 97.6965 4.52088 0.891811 0
M  V30 1038 H 96.0115 4.05171 0.960503 0
M  V30 1039 H 98.6085 3.82836 3.73283 0
M  V30 1040 H 98.9515 2.12258 3.58123 0
M  V30 1041 H 99.4845 3.24277 2.30411 0
M  V30 1042 H 96.2235 6.22888 2.04184 0
M  V30 1043 H 95.7435 5.03098 3.26577 0
M  V30 1044 H 97.4225 5.62196 3.20225 0
M  V30 1045 N 97.5546 -0.734337 1.39446 0
M  V30 1046 C 98.7826 -1.52358 1.39981 0
M  V30 1047 C 99.1976 -1.88799 -0.0054975 0
M  V30 1048 O 98.5546 -1.54146 -0.976998 0
M  V30 1049 C 98.6056 -2.81072 2.27333 0
M  V30 1050 O 98.3266 -2.46178 3.62392 0
M  V30 1051 C 99.8276 -3.75096 2.36259 0
M  V30 1052 H 97.0476 -0.470806 0.478103 0
M  V30 1053 H 99.5916 -0.907339 1.83269 0
M  V30 1054 H 97.7466 -3.39026 1.87457 0
M  V30 1055 H 98.1606 -3.28866 4.08592 0
M  V30 1056 H 99.6346 -4.62305 3.01626 0
M  V30 1057 H 100.112 -4.16892 1.38194 0
M  V30 1058 H 100.718 -3.23061 2.76608 0
M  V30 1059 N 99.0327 -1.24633 -0.964593 0
M  V30 1060 C 100.261 -1.11501 -1.74285 0
M  V30 1061 C 100.676 0.332165 -1.85855 0
M  V30 1062 O 100.033 1.22903 -1.34911 0
M  V30 1063 C 100.084 -1.75258 -3.16175 0
M  V30 1064 O 99.8047 -3.14318 -3.05182 0
M  V30 1065 C 101.306 -1.67776 -4.10324 0
M  V30 1066 H 98.5257 -0.389407 -0.546446 0
M  V30 1067 H 101.07 -1.64801 -1.21083 0
M  V30 1068 H 99.2247 -1.25954 -3.66353 0
M  V30 1069 H 99.6387 -3.4551 -3.94618 0
M  V30 1070 H 101.113 -2.17064 -5.0753 0
M  V30 1071 H 101.59 -0.639584 -4.34518 0
M  V30 1072 H 102.196 -2.16522 -3.66058 0
M  V30 1073 N 100.511 1.16574 -1.06058 0
M  V30 1074 C 101.741 1.90675 -0.795397 0
M  V30 1075 C 102.149 1.77547 0.653735 0
M  V30 1076 O 101.492 1.11611 1.45907 0
M  V30 1077 C 101.554 3.42011 -1.10764 0
M  V30 1078 C 101.218 3.78924 -2.55471 0
M  V30 1079 C 102.215 3.81042 -3.53699 0
M  V30 1080 C 99.8998 4.09626 -2.90708 0
M  V30 1081 C 101.894 4.13346 -4.85205 0
M  V30 1082 C 99.5808 4.41597 -4.22416 0
M  V30 1083 C 100.579 4.43436 -5.19474 0
M  V30 1084 O 100.267 4.74649 -6.48817 0
M  V30 1085 H 99.9988 0.611554 -0.288058 0
M  V30 1086 H 102.553 1.48711 -1.41683 0
M  V30 1087 H 100.783 3.84312 -0.429128 0
M  V30 1088 H 102.472 3.97384 -0.827077 0
M  V30 1089 H 103.238 3.57437 -3.27817 0
M  V30 1090 H 99.1168 4.07361 -2.15819 0
M  V30 1091 H 102.661 4.14696 -5.60957 0
M  V30 1092 H 98.5578 4.64667 -4.48056 0
M  V30 1093 H 99.3258 4.9247 -6.5377 0
M  V30 1094 N 101.989 0.842826 1.3317 0
M  V30 1095 C 103.229 0.446574 1.99462 0
M  V30 1096 C 103.593 -0.976818 1.65295 0
M  V30 1097 O 104.794 -1.477 2.24584 0
M  V30 1098 C 103.065 0.665353 3.51152 0
M  V30 1099 S 104.624 0.364911 4.3728 0
M  V30 1100 H 101.442 0.167803 0.690915 0
M  V30 1101 H 104.044 1.09297 1.62094 0
M  V30 1102 H 102.748 1.7006 3.73507 0
M  V30 1103 H 102.279 0.00494568 3.934 0
M  V30 1104 H 104.294 -0.813761 4.89482 0
M  V30 1105 N 103.467 -1.45747 0.599634 0
M  V30 1106 C 104.878 -1.85853 0.177681 0
M  V30 1107 C 105.229 -1.50102 -1.26348 0
M  V30 1108 O 104.354 -0.923905 -1.95686 0
M  V30 1109 C 104.949 -3.37326 0.315688 0
M  V30 1110 C 103.508 -3.76365 -0.0515144 0
M  V30 1111 C 102.655 -2.69722 0.643822 0
M  V30 1112 H 105.606 -1.36661 0.806814 0
M  V30 1113 H 105.627 -3.77778 -0.454321 0
M  V30 1114 H 105.139 -3.63315 1.36468 0
M  V30 1115 H 103.24 -3.55993 -1.09999 0
M  V30 1116 H 103.353 -4.77916 0.336594 0
M  V30 1117 H 101.717 -2.54567 0.0822881 0
M  V30 1118 H 102.5 -2.98549 1.6948 0
M  V30 1119 N 104.945 -0.338344 -1.53925 0
M  V30 1120 C 105.908 0.508299 -2.23493 0
M  V30 1121 C 106.908 1.03175 -1.23335 0
M  V30 1122 O 108.098 0.921826 -1.47811 0
M  V30 1123 C 105.23 1.70754 -2.95052 0
M  V30 1124 H 106.423 -0.100058 -2.99733 0
M  V30 1125 H 103.976 -0.0896198 -1.56043 0
M  V30 1126 H 104.711 2.35474 -2.22986 0
M  V30 1127 H 104.496 1.33946 -3.68512 0
M  V30 1128 H 105.986 2.30818 -3.48013 0
M  V30 1129 N 106.423 1.57458 -0.0668435 0
M  V30 1130 C 107.371 2.13639 0.919851 0
M  V30 1131 C 108.365 1.07204 1.31163 0
M  V30 1132 O 109.571 1.25591 1.28945 0
M  V30 1133 H 105.946 0.683048 0.314562 0
M  V30 1134 H 107.917 2.95415 0.421047 0
M  V30 1135 C 106.666 2.70892 2.17975 0
M  V30 1136 H 105.989 3.5246 1.88711 0
M  V30 1137 H 107.429 3.13803 2.85138 0
M  V30 1138 C 105.888 1.65414 2.93496 0
M  V30 1139 O 106.418 1.07619 3.87015 0
M  V30 1140 N 104.624 1.36564 2.56512 0
M  V30 1141 H 104.171 1.83751 1.80536 0
M  V30 1142 H 104.129 0.66223 3.07347 0
M  V30 1143 N 107.901 -0.206675 1.56239 0
M  V30 1144 C 108.849 -1.27571 1.94495 0
M  V30 1145 C 109.843 -1.47737 0.828862 0
M  V30 1146 O 111.049 -1.48735 1.0138 0
M  V30 1147 H 107.424 -0.428029 0.6183 0
M  V30 1148 H 109.395 -0.925961 2.8367 0
M  V30 1149 C 108.144 -2.61568 2.29079 0
M  V30 1150 H 107.467 -2.46863 3.14482 0
M  V30 1151 H 108.907 -3.35144 2.5972 0
M  V30 1152 C 107.366 -3.17695 1.12123 0
M  V30 1153 O 107.896 -3.99801 0.390153 0
M  V30 1154 N 106.102 -2.76276 0.901097 0
M  V30 1155 H 105.649 -2.09613 1.49733 0
M  V30 1156 H 105.607 -3.1417 0.120319 0
M  V30 1157 N 109.379 -1.50304 -0.473955 0
M  V30 1158 C 110.289 -1.7174 -1.5982 0
M  V30 1159 C 111.305 -0.600457 -1.63311 0
M  V30 1160 O 112.481 -0.878441 -1.81233 0
M  V30 1161 C 109.546 -1.80427 -2.96052 0
M  V30 1162 C 108.607 -3.04148 -3.02972 0
M  V30 1163 C 107.84 -3.12411 -4.32706 0
M  V30 1164 O 108.063 -2.27542 -5.23049 0
M  V30 1165 O 106.997 -4.05113 -4.45159 0
M  V30 1166 H 110.823 -2.67035 -1.44657 0
M  V30 1167 H 108.408 -1.34366 -0.653148 0
M  V30 1168 H 110.29 -1.88338 -3.7697 0
M  V30 1169 H 108.965 -0.883156 -3.11419 0
M  V30 1170 H 107.872 -3.0174 -2.21142 0
M  V30 1171 H 109.205 -3.95829 -2.92541 0
M  V30 1172 N 110.857 0.726932 -1.39834 0
M  V30 1173 C 112.268 1.30558 -1.3346 0
M  V30 1174 C 112.619 1.962 -0.00273003 0
M  V30 1175 O 111.744 1.96826 0.899371 0
M  V30 1176 C 112.339 2.37404 -2.41713 0
M  V30 1177 C 110.898 2.90921 -2.38835 0
M  V30 1178 C 110.045 1.64578 -2.2318 0
M  V30 1179 H 112.996 0.523862 -1.49804 0
M  V30 1180 H 113.017 3.17984 -2.08966 0
M  V30 1181 H 112.529 1.89599 -3.38635 0
M  V30 1182 H 110.63 3.42985 -1.45575 0
M  V30 1183 H 110.743 3.43487 -3.33997 0
M  V30 1184 H 109.107 1.89219 -1.70494 0
M  V30 1185 H 109.89 1.18814 -3.22084 0
M  V30 1186 N 112.336 1.25143 0.95797 0
M  V30 1187 C 113.585 1.0909 1.69654 0
M  V30 1188 C 113.898 -0.368548 1.92097 0
M  V30 1189 O 115.104 -0.649455 2.63618 0
M  V30 1190 C 113.56 1.90395 3.05414 0
M  V30 1191 C 113.168 3.4081 2.90779 0
M  V30 1192 C 114.912 1.82901 3.83076 0
M  V30 1193 C 112.819 4.14423 4.21909 0
M  V30 1194 H 111.749 0.404625 0.636235 0
M  V30 1195 H 114.4 1.4931 1.06672 0
M  V30 1196 H 112.782 1.42996 3.69281 0
M  V30 1197 H 113.956 3.95859 2.35865 0
M  V30 1198 H 112.271 3.49361 2.26575 0
M  V30 1199 H 114.868 2.35196 4.80195 0
M  V30 1200 H 115.211 0.796224 4.08615 0
M  V30 1201 H 115.744 2.28033 3.25954 0
M  V30 1202 H 112.483 5.18102 4.01561 0
M  V30 1203 H 112.003 3.64159 4.76601 0
M  V30 1204 H 113.682 4.21956 4.90471 0
M  V30 1205 N 113.814 -1.1601 1.06675 0
M  V30 1206 C 114.777 -2.18724 0.685001 0
M  V30 1207 C 115.777 -1.58496 -0.271246 0
M  V30 1208 O 116.967 -1.74119 -0.0531156 0
M  V30 1209 C 114.099 -3.40899 0.00853648 0
M  V30 1210 H 115.292 -2.54011 1.59431 0
M  V30 1211 H 112.845 -1.30352 0.862441 0
M  V30 1212 H 113.58 -3.11173 -0.913337 0
M  V30 1213 H 113.365 -3.8587 0.696204 0
M  V30 1214 H 114.855 -4.16886 -0.24414 0
M  V30 1215 N 115.292 -0.849877 -1.32721 0
M  V30 1216 C 116.708 -0.539102 -1.50219 0
M  V30 1217 C 116.908 0.931271 -1.78689 0
M  V30 1218 O 115.964 1.71455 -1.85363 0
M  V30 1219 C 117.277 -1.42196 -2.64954 0
M  V30 1220 C 118.825 -1.42189 -2.78839 0
M  V30 1221 C 119.3 -2.28985 -3.96648 0
M  V30 1222 N 120.791 -2.26754 -4.03902 0
M  V30 1223 C 121.526 -2.90644 -4.94281 0
M  V30 1224 N 121.022 -3.63629 -5.897 0
M  V30 1225 N 122.815 -2.80057 -4.87365 0
M  V30 1226 H 114.966 -1.80156 -1.12506 0
M  V30 1227 H 117.229 -0.769217 -0.554085 0
M  V30 1228 H 116.935 -2.46733 -2.50631 0
M  V30 1229 H 116.809 -1.10591 -3.60624 0
M  V30 1230 H 119.196 -0.38419 -2.92588 0
M  V30 1231 H 119.277 -1.77807 -1.83898 0
M  V30 1232 H 118.921 -3.32819 -3.83658 0
M  V30 1233 H 118.851 -1.90702 -4.90857 0
M  V30 1234 H 121.342 -1.73688 -3.3562 0
M  V30 1235 H 121.655 -4.09558 -6.55349 0
M  V30 1236 H 120 -3.67737 -5.89741 0
M  V30 1237 H 123.191 -2.22593 -4.11789 0
M  V30 1238 H 123.364 -3.30132 -5.57599 0
M  V30 1239 N 116.77 1.45427 -0.607355 0
M  V30 1240 C 118.016 2.0254 -0.102607 0
M  V30 1241 C 118.349 1.47478 1.26348 0
M  V30 1242 O 117.624 0.64939 1.83339 0
M  V30 1243 C 117.907 3.60044 -0.0634347 0
M  V30 1244 C 117.76 4.2544 -1.46017 0
M  V30 1245 C 119.079 4.35646 0.624514 0
M  V30 1246 H 116.198 0.73598 -0.0387607 0
M  V30 1247 H 118.84 1.73284 -0.779282 0
M  V30 1248 H 116.99 3.85101 0.512808 0
M  V30 1249 H 118.662 4.11569 -2.08347 0
M  V30 1250 H 116.905 3.83849 -2.02094 0
M  V30 1251 H 117.576 5.34342 -1.385 0
M  V30 1252 H 120.052 4.15882 0.134723 0
M  V30 1253 H 118.928 5.45376 0.621028 0
M  V30 1254 H 119.189 4.08501 1.69055 0
M  V30 1255 N 118.248 0.346503 1.53744 0
M  V30 1256 C 119.664 -0.00530975 1.59599 0
M  V30 1257 C 119.864 -1.48465 1.36236 0
M  V30 1258 O 118.92 -2.24376 1.15808 0
M  V30 1259 C 120.233 0.433516 2.97559 0
M  V30 1260 C 121.781 0.386111 3.10609 0
M  V30 1261 C 122.256 0.800451 4.50951 0
M  V30 1262 N 123.747 0.754753 4.5701 0
M  V30 1263 C 124.482 1.04727 5.63755 0
M  V30 1264 N 123.978 1.4081 6.7834 0
M  V30 1265 N 125.771 0.971316 5.53644 0
M  V30 1266 H 117.922 1.31009 1.67184 0
M  V30 1267 H 120.185 0.534242 0.783128 0
M  V30 1268 H 119.891 1.46509 3.19731 0
M  V30 1269 H 119.765 -0.189753 3.76722 0
M  V30 1270 H 122.152 -0.636295 2.88158 0
M  V30 1271 H 122.233 1.04462 2.33498 0
M  V30 1272 H 121.877 1.82088 4.74137 0
M  V30 1273 H 121.807 0.119386 5.26465 0
M  V30 1274 H 124.298 0.488662 3.74727 0
M  V30 1275 H 124.611 1.61607 7.55714 0
M  V30 1276 H 122.956 1.44657 6.79779 0
M  V30 1277 H 126.147 0.688748 4.63005 0
M  V30 1278 H 126.32 1.20263 6.36742 0
M  V30 1279 N 119.726 -1.57421 0.075193 0
M  V30 1280 C 120.658 -2.09904 -0.920483 0
M  V30 1281 C 121.671 -1.03191 -1.25918 0
M  V30 1282 O 122.86 -1.30695 -1.21577 0
M  V30 1283 C 119.96 -2.54726 -2.23534 0
M  V30 1284 C 119.133 -3.8505 -2.07498 0
M  V30 1285 C 118.192 -4.15929 -3.22319 0
M  V30 1286 O 117.218 -4.85474 -2.9716 0
M  V30 1287 N 118.42 -3.69745 -4.47514 0
M  V30 1288 H 121.185 -2.95954 -0.472359 0
M  V30 1289 H 118.746 -1.61523 -0.110444 0
M  V30 1290 H 120.738 -2.72443 -2.9926 0
M  V30 1291 H 119.308 -1.73795 -2.59835 0
M  V30 1292 H 118.528 -3.76679 -1.16219 0
M  V30 1293 H 119.816 -4.70348 -1.94038 0
M  V30 1294 H 119.214 -3.13569 -4.7084 0
M  V30 1295 H 117.771 -3.92655 -5.20255 0
M  V30 1296 N 121.204 0.198386 -1.56346 0
M  V30 1297 C 122.167 1.22952 -1.93431 0
M  V30 1298 C 123.167 1.38611 -0.815092 0
M  V30 1299 O 124.357 1.36479 -1.08255 0
M  V30 1300 C 121.489 2.59946 -2.20546 0
M  V30 1301 H 122.682 0.912626 -2.85677 0
M  V30 1302 H 120.235 0.43977 -1.49986 0
M  V30 1303 H 120.97 2.96696 -1.30927 0
M  V30 1304 H 120.755 2.49953 -3.02102 0
M  V30 1305 H 122.245 3.3431 -2.50253 0
M  V30 1306 N 122.682 1.50554 0.465978 0
M  V30 1307 C 123.907 1.65838 1.24549 0
M  V30 1308 C 124.332 0.343486 1.84937 0
M  V30 1309 O 123.69 -0.69324 1.67523 0
M  V30 1310 C 123.738 2.75533 2.32624 0
M  V30 1311 O 122.842 2.37142 3.37398 0
M  V30 1312 H 122.183 0.553893 0.366194 0
M  V30 1313 H 124.713 1.96959 0.553927 0
M  V30 1314 H 124.723 2.98763 2.77857 0
M  V30 1315 H 123.398 3.70962 1.88043 0
M  V30 1316 H 121.975 2.24377 2.97841 0
M  V30 1317 N 124.16 -0.719506 1.40217 0
M  V30 1318 C 125.406 -1.48152 1.38488 0
M  V30 1319 C 125.739 -1.94195 -0.0141867 0
M  V30 1320 O 125.014 -1.67884 -0.982096 0
M  V30 1321 C 125.297 -2.71035 2.37091 0
M  V30 1322 C 125.15 -2.30912 3.86005 0
M  V30 1323 C 126.469 -3.73182 2.33288 0
M  V30 1324 H 123.588 -0.537395 0.504357 0
M  V30 1325 H 126.23 -0.821472 1.71324 0
M  V30 1326 H 124.38 -3.27352 2.0922 0
M  V30 1327 H 126.052 -1.80107 4.24687 0
M  V30 1328 H 124.295 -1.62958 4.02029 0
M  V30 1329 H 124.966 -3.18978 4.50508 0
M  V30 1330 H 127.442 -3.26485 2.57966 0
M  V30 1331 H 126.318 -4.56806 3.04334 0
M  V30 1332 H 126.579 -4.21202 1.34317 0
M  V30 1333 N 125.638 -1.25649 -0.95132 0
M  V30 1334 C 126.601 -1.06399 -2.03007 0
M  V30 1335 C 127.601 -0.0156794 -1.60792 0
M  V30 1336 O 128.791 -0.25817 -1.72276 0
M  V30 1337 C 125.923 -0.616184 -3.35285 0
M  V30 1338 H 127.116 -2.02164 -2.21517 0
M  V30 1339 H 124.669 -1.08103 -1.12887 0
M  V30 1340 H 125.404 0.343917 -3.22471 0
M  V30 1341 H 125.189 -1.37301 -3.67275 0
M  V30 1342 H 126.679 -0.503032 -4.14559 0
M  V30 1343 N 127.117 1.15442 -1.07289 0
M  V30 1344 C 128.394 1.82306 -0.708792 0
M  V30 1345 C 128.774 1.94991 0.808807 0
M  V30 1346 O 128.122 1.50085 1.72298 0
M  V30 1347 C 128.332 3.18695 -1.42247 0
M  V30 1348 C 129.68 3.94341 -1.57417 0
M  V30 1349 O 130.704 3.28247 -1.38319 0
M  V30 1350 O 129.563 5.12839 -1.88834 0
M  V30 1351 H 126.657 0.787628 -0.252132 0
M  V30 1352 H 129.203 1.22559 -1.17377 0
M  V30 1353 H 127.975 3.04557 -2.45684 0
M  V30 1354 H 127.598 3.86128 -0.948223 0
M  V30 1355 N 128.595 0.856903 1.32268 0
M  V30 1356 C 129.825 0.47475 2.01071 0
M  V30 1357 C 130.233 -0.933746 1.64553 0
M  V30 1358 O 129.576 -1.62114 0.863989 0
M  V30 1359 C 129.638 0.536746 3.55471 0
M  V30 1360 C 129.302 1.90453 4.15423 0
M  V30 1361 C 130.299 2.87029 4.33486 0
M  V30 1362 C 127.984 2.20229 4.51447 0
M  V30 1363 C 129.978 4.11532 4.86744 0
M  V30 1364 C 127.665 3.44984 5.0441 0
M  V30 1365 C 128.663 4.40452 5.22007 0
M  V30 1366 O 128.351 5.62998 5.73837 0
M  V30 1367 H 128.083 0.184778 0.650256 0
M  V30 1368 H 130.637 1.15615 1.69771 0
M  V30 1369 H 128.867 -0.20152 3.86175 0
M  V30 1370 H 130.556 0.169875 4.05544 0
M  V30 1371 H 131.322 2.6533 4.05986 0
M  V30 1372 H 127.201 1.46705 4.37034 0
M  V30 1373 H 130.745 4.86056 5.00395 0
M  V30 1374 H 126.642 3.66532 5.31342 0
M  V30 1375 H 127.41 5.64987 5.92226 0
M  V30 1376 N 130.073 -1.45103 0.615059 0
M  V30 1377 C 130.983 -2.34382 -0.101034 0
M  V30 1378 C 131.999 -1.51681 -0.852585 0
M  V30 1379 O 133.175 -1.8446 -0.808484 0
M  V30 1380 C 130.24 -3.29417 -1.08099 0
M  V30 1381 C 129.301 -4.28025 -0.330577 0
M  V30 1382 C 128.534 -5.1852 -1.26385 0
M  V30 1383 O 128.757 -5.12598 -2.50198 0
M  V30 1384 O 127.691 -5.97122 -0.756866 0
M  V30 1385 H 131.517 -2.97033 0.632855 0
M  V30 1386 H 129.102 -1.4461 0.375293 0
M  V30 1387 H 130.984 -3.87958 -1.6452 0
M  V30 1388 H 129.659 -2.69321 -1.79577 0
M  V30 1389 H 128.566 -3.73078 0.276283 0
M  V30 1390 H 129.899 -4.90997 0.343866 0
M  V30 1391 N 131.551 -0.354651 -1.53558 0
M  V30 1392 C 132.461 0.50515 -2.29097 0
M  V30 1393 C 133.477 1.10223 -1.34636 0
M  V30 1394 O 134.653 1.11553 -1.67684 0
M  V30 1395 C 131.718 1.63479 -3.05738 0
M  V30 1396 C 130.779 1.06636 -4.15845 0
M  V30 1397 C 130.012 2.14217 -4.88822 0
M  V30 1398 O 130.235 3.35137 -4.61562 0
M  V30 1399 O 129.169 1.77887 -5.75013 0
M  V30 1400 H 132.995 -0.109237 -3.03503 0
M  V30 1401 H 130.58 -0.119357 -1.48922 0
M  V30 1402 H 132.462 2.2918 -3.5363 0
M  V30 1403 H 131.137 2.23478 -2.34178 0
M  V30 1404 H 130.044 0.373565 -3.7223 0
M  V30 1405 H 131.377 0.511081 -4.89539 0
M  V30 1406 N 133.029 1.57378 -0.0835403 0
M  V30 1407 C 134.257 1.98263 0.59157 0
M  V30 1408 C 134.672 0.962302 1.62435 0
M  V30 1409 O 134.029 -0.049581 1.82433 0
M  V30 1410 C 134.08 3.39214 1.24965 0
M  V30 1411 O 133.801 4.37339 0.258186 0
M  V30 1412 C 135.302 3.95038 2.01147 0
M  V30 1413 H 132.522 0.651773 0.159477 0
M  V30 1414 H 135.066 2.03878 -0.159415 0
M  V30 1415 H 133.221 3.34649 1.95164 0
M  V30 1416 H 133.635 5.19371 0.731734 0
M  V30 1417 H 135.109 4.95848 2.42567 0
M  V30 1418 H 135.586 3.32222 2.87272 0
M  V30 1419 H 136.192 4.0304 1.35789 0
M  V30 1420 N 134.507 -0.190092 1.56449 0
M  V30 1421 C 135.753 -0.911052 1.81184 0
M  V30 1422 C 136.086 -1.82699 0.658396 0
M  V30 1423 O 135.361 -1.91491 -0.340775 0
M  V30 1424 C 135.644 -1.72297 3.16205 0
M  V30 1425 C 135.497 -0.831419 4.42049 0
M  V30 1426 C 136.816 -2.69454 3.47969 0
M  V30 1427 H 133.935 -0.32977 0.659106 0
M  V30 1428 H 136.577 -0.178169 1.89163 0
M  V30 1429 H 134.727 -2.34778 3.09534 0
M  V30 1430 H 136.399 -0.220929 4.60771 0
M  V30 1431 H 134.642 -0.138406 4.33579 0
M  V30 1432 H 135.313 -1.43461 5.33032 0
M  V30 1433 H 137.789 -2.17104 3.54972 0
M  V30 1434 H 136.665 -3.23342 4.43555 0
M  V30 1435 H 136.926 -3.48744 2.71717 0
M  V30 1436 N 135.985 -1.50799 -0.457987 0
M  V30 1437 C 136.932 -1.70617 -1.5543 0
M  V30 1438 C 137.902 -0.547562 -1.56815 0
M  V30 1439 O 139.087 -0.779647 -1.74144 0
M  V30 1440 C 136.227 -1.81831 -2.93311 0
M  V30 1441 C 135.34 -3.09278 -3.01615 0
M  V30 1442 C 134.475 -3.11209 -4.30491 0
M  V30 1443 C 133.514 -4.33055 -4.32585 0
M  V30 1444 N 132.651 -4.32652 -5.52952 0
M  V30 1445 H 137.491 -2.64207 -1.37836 0
M  V30 1446 H 135.028 -1.30959 -0.669937 0
M  V30 1447 H 136.986 -1.86314 -3.73287 0
M  V30 1448 H 135.616 -0.916685 -3.0951 0
M  V30 1449 H 134.668 -3.14203 -2.1443 0
M  V30 1450 H 135.98 -3.99233 -2.99022 0
M  V30 1451 H 135.134 -3.14494 -5.18824 0
M  V30 1452 H 133.873 -2.19106 -4.35711 0
M  V30 1453 H 132.878 -4.29969 -3.42647 0
M  V30 1454 H 134.103 -5.264 -4.29046 0
M  V30 1455 H 132.049 -3.43409 -5.58933 0
M  V30 1456 H 131.966 -5.16392 -5.52155 0
M  V30 1457 H 133.234 -4.40101 -6.43375 0
M  V30 1458 N 137.463 0.71206 -1.40597 0
M  V30 1459 C 138.41 1.82613 -1.41142 0
M  V30 1460 C 139.38 1.63925 -0.267903 0
M  V30 1461 O 140.565 1.85009 -0.466495 0
M  V30 1462 C 137.705 3.20354 -1.28324 0
M  V30 1463 C 136.818 3.50589 -2.52411 0
M  V30 1464 C 135.953 4.77855 -2.32009 0
M  V30 1465 C 134.992 5.01005 -3.51654 0
M  V30 1466 N 134.129 6.19487 -3.30425 0
M  V30 1467 H 138.969 1.81482 -2.36365 0
M  V30 1468 H 136.506 0.886475 -1.17388 0
M  V30 1469 H 138.464 3.99899 -1.18899 0
M  V30 1470 H 137.094 3.20705 -0.367189 0
M  V30 1471 H 136.146 2.65573 -2.72351 0
M  V30 1472 H 137.458 3.63604 -3.41458 0
M  V30 1473 H 136.612 5.65424 -2.19956 0
M  V30 1474 H 135.351 4.67056 -1.40392 0
M  V30 1475 H 134.356 4.1189 -3.64179 0
M  V30 1476 H 135.581 5.13674 -4.44202 0
M  V30 1477 H 133.527 6.09932 -2.41494 0
M  V30 1478 H 133.444 6.33194 -4.13039 0
M  V30 1479 H 134.712 7.09834 -3.22113 0
M  V30 1480 N 138.941 1.26152 0.944643 0
M  V30 1481 C 139.904 1.07474 2.0244 0
M  V30 1482 C 140.904 0.0242064 1.60782 0
M  V30 1483 O 142.094 0.267302 1.72137 0
M  V30 1484 C 139.226 0.633956 3.34953 0
M  V30 1485 H 140.419 2.03336 2.20442 0
M  V30 1486 H 137.972 1.087 1.12312 0
M  V30 1487 H 138.707 -0.326811 3.22649 0
M  V30 1488 H 138.492 1.39247 3.66542 0
M  V30 1489 H 139.982 0.52501 4.14287 0
M  V30 1490 N 140.419 -1.14872 1.07899 0
M  V30 1491 C 141.835 -1.37776 0.805606 0
M  V30 1492 C 142.035 -1.92743 -0.587555 0
M  V30 1493 O 141.091 -2.13678 -1.34528 0
M  V30 1494 C 142.404 -2.34361 1.88402 0
M  V30 1495 C 143.952 -2.48012 1.90942 0
M  V30 1496 C 144.427 -3.47893 2.97883 0
M  V30 1497 N 145.918 -3.55433 2.97021 0
M  V30 1498 C 146.653 -4.32553 3.76412 0
M  V30 1499 N 146.149 -5.12959 4.65666 0
M  V30 1500 N 147.942 -4.27697 3.64735 0
M  V30 1501 H 140.093 -0.775365 1.97742 0
M  V30 1502 H 142.356 -0.403521 0.857831 0
M  V30 1503 H 142.062 -2.01098 2.88535 0
M  V30 1504 H 141.936 -3.34206 1.74889 0
M  V30 1505 H 144.323 -2.8057 0.914579 0
M  V30 1506 H 144.404 -1.48147 2.08534 0
M  V30 1507 H 144.048 -3.16069 3.97571 0
M  V30 1508 H 143.978 -4.47527 2.77538 0
M  V30 1509 H 146.469 -2.98048 2.32326 0
M  V30 1510 H 146.782 -5.69065 5.22862 0
M  V30 1511 H 145.127 -5.12245 4.69712 0
M  V30 1512 H 148.318 -3.63949 2.94378 0
M  V30 1513 H 148.491 -4.8755 4.26848 0
M  V30 1514 N 141.898 -0.863906 -1.31812 0
M  V30 1515 C 142.808 -0.318461 -2.32428 0
M  V30 1516 C 143.824 0.568496 -1.64451 0
M  V30 1517 O 145 0.46666 -1.95919 0
M  V30 1518 C 142.065 0.476355 -3.43412 0
M  V30 1519 C 141.126 -0.43784 -4.27061 0
M  V30 1520 C 140.359 0.319138 -5.32745 0
M  V30 1521 O 140.582 1.54799 -5.48993 0
M  V30 1522 O 139.516 -0.319861 -6.01049 0
M  V30 1523 H 143.342 -1.15229 -2.80991 0
M  V30 1524 H 140.927 -0.627103 -1.35602 0
M  V30 1525 H 142.809 0.927156 -4.11074 0
M  V30 1526 H 141.484 1.28683 -2.97022 0
M  V30 1527 H 140.391 -0.937013 -3.62175 0
M  V30 1528 H 141.724 -1.21375 -4.77 0
M  V30 1529 N 143.376 1.44774 -0.622745 0
M  V30 1530 C 144.339 2.29069 0.0774015 0
M  V30 1531 C 145.339 1.4059 0.780461 0
M  V30 1532 O 146.529 1.62551 0.626322 0
M  V30 1533 C 143.661 3.21974 1.12006 0
M  V30 1534 H 144.854 2.92459 -0.663901 0
M  V30 1535 H 142.407 1.51548 -0.382486 0
M  V30 1536 H 143.142 2.63417 1.89162 0
M  V30 1537 H 142.927 3.87168 0.619951 0
M  V30 1538 H 144.417 3.85318 1.60995 0
M  V30 1539 N 144.854 0.36279 1.53368 0
M  V30 1540 C 146.1 -0.220702 2.02199 0
M  V30 1541 C 146.455 -1.46649 1.24546 0
M  V30 1542 O 145.748 -1.88737 0.32996 0
M  V30 1543 C 145.942 -0.568417 3.52851 0
M  V30 1544 C 145.771 0.642126 4.45092 0
M  V30 1545 C 144.541 1.15335 4.91961 0
M  V30 1546 C 146.739 1.50649 4.91741 0
M  V30 1547 N 144.721 2.3242 5.68202 0
M  V30 1548 C 146.092 2.52404 5.66297 0
M  V30 1549 C 148.147 1.52969 4.73819 0
M  V30 1550 C 146.85 3.56331 6.24836 0
M  V30 1551 C 148.876 2.55789 5.33222 0
M  V30 1552 C 148.238 3.56268 6.07662 0
M  V30 1553 H 144.337 -0.0435508 0.780786 0
M  V30 1554 H 146.921 0.506704 1.87991 0
M  V30 1555 H 145.092 -1.2649 3.67226 0
M  V30 1556 H 146.824 -1.13676 3.88407 0
M  V30 1557 H 143.579 0.718412 4.68119 0
M  V30 1558 H 144.003 2.91591 6.10986 0
M  V30 1559 H 148.645 0.766418 4.15795 0
M  V30 1560 H 146.363 4.33543 6.81958 0
M  V30 1561 H 149.949 2.58435 5.21251 0
M  V30 1562 H 148.829 4.34524 6.52808 0
M  V30 1563 N 146.332 -1.57332 0.0918853 0
M  V30 1564 C 147.279 -2.13847 -0.868211 0
M  V30 1565 C 148.249 -1.05618 -1.28196 0
M  V30 1566 O 149.434 -1.33387 -1.36427 0
M  V30 1567 C 146.574 -2.72062 -2.12312 0
M  V30 1568 C 145.687 -3.94514 -1.7602 0
M  V30 1569 C 144.822 -4.40903 -2.96273 0
M  V30 1570 C 143.861 -5.55953 -2.56092 0
M  V30 1571 N 142.998 -5.97209 -3.69169 0
M  V30 1572 H 147.838 -2.95575 -0.379406 0
M  V30 1573 H 145.375 -1.46048 -0.175606 0
M  V30 1574 H 147.333 -3.03931 -2.858 0
M  V30 1575 H 145.963 -1.93068 -2.58698 0
M  V30 1576 H 145.015 -3.68979 -0.925135 0
M  V30 1577 H 146.327 -4.7802 -1.42472 0
M  V30 1578 H 145.481 -4.74539 -3.78018 0
M  V30 1579 H 144.22 -3.56291 -3.33029 0
M  V30 1580 H 143.225 -5.21948 -1.72773 0
M  V30 1581 H 144.45 -6.42311 -2.20484 0
M  V30 1582 H 142.396 -5.15543 -4.05649 0
M  V30 1583 H 142.313 -6.75504 -3.39456 0
M  V30 1584 H 143.581 -6.35475 -4.51434 0
M  V30 1585 N 147.81 0.181792 -1.56548 0
M  V30 1586 C 149.059 0.898348 -1.8059 0
M  V30 1587 C 149.372 1.83862 -0.667379 0
M  V30 1588 O 150.578 2.59678 -0.792446 0
M  V30 1589 C 149.034 1.64791 -3.19956 0
M  V30 1590 C 148.642 0.751789 -4.41647 0
M  V30 1591 C 150.386 2.35331 -3.53298 0
M  V30 1592 C 148.293 1.50098 -5.72035 0
M  V30 1593 H 147.223 0.339194 -0.673397 0
M  V30 1594 H 149.874 0.151413 -1.82874 0
M  V30 1595 H 148.256 2.43921 -3.11959 0
M  V30 1596 H 149.43 -0.0018076 -4.608 0
M  V30 1597 H 147.745 0.156562 -4.16106 0
M  V30 1598 H 150.342 2.91958 -4.47956 0
M  V30 1599 H 150.685 3.10164 -2.77676 0
M  V30 1600 H 151.218 1.63154 -3.62803 0
M  V30 1601 H 147.957 0.795175 -6.50659 0
M  V30 1602 H 147.477 2.22817 -5.56878 0
M  V30 1603 H 149.156 2.05125 -6.13622 0
M  V30 1604 N 149.288 1.51039 0.449983 0
M  V30 1605 C 150.534 1.64287 1.19923 0
M  V30 1606 C 150.889 0.348701 1.89214 0
M  V30 1607 O 150.182 -0.654751 1.80065 0
M  V30 1608 C 150.376 2.77556 2.25161 0
M  V30 1609 C 150.205 4.17862 1.66198 0
M  V30 1610 C 148.975 4.83976 1.45243 0
M  V30 1611 C 151.173 5.01388 1.14519 0
M  V30 1612 N 149.155 6.08433 0.817437 0
M  V30 1613 C 150.526 6.16743 0.634705 0
M  V30 1614 C 152.581 4.87008 1.03574 0
M  V30 1615 C 151.284 7.19295 0.0255452 0
M  V30 1616 C 153.31 5.89757 0.440489 0
M  V30 1617 C 152.672 7.04375 -0.0595112 0
M  V30 1618 H 148.771 0.655161 0.426952 0
M  V30 1619 H 151.355 1.88228 0.49781 0
M  V30 1620 H 149.526 2.553 2.92706 0
M  V30 1621 H 151.258 2.80049 2.92155 0
M  V30 1622 H 148.013 4.41627 1.71063 0
M  V30 1623 H 148.437 6.75017 0.517747 0
M  V30 1624 H 153.079 3.9866 1.4082 0
M  V30 1625 H 150.797 8.07302 -0.359071 0
M  V30 1626 H 154.383 5.80698 0.35788 0
M  V30 1627 H 153.263 7.82521 -0.512882 0
M  V30 1628 N 150.766 -0.704594 1.40972 0
M  V30 1629 C 151.729 -1.80035 1.41845 0
M  V30 1630 C 152.729 -1.57774 0.310474 0
M  V30 1631 O 153.919 -1.64613 0.56992 0
M  V30 1632 C 151.051 -3.18284 1.22098 0
M  V30 1633 H 152.244 -1.80658 2.3938 0
M  V30 1634 H 149.797 -0.911329 1.26982 0
M  V30 1635 H 150.532 -3.23306 0.253672 0
M  V30 1636 H 150.317 -3.35843 2.02366 0
M  V30 1637 H 151.807 -3.98289 1.25522 0
M  V30 1638 N 152.244 -1.26651 -0.937939 0
M  V30 1639 C 153.521 -1.0313 -1.66204 0
M  V30 1640 C 153.901 0.437256 -2.06522 0
M  V30 1641 O 153.249 1.41831 -1.79154 0
M  V30 1642 C 153.459 -1.98314 -2.87181 0
M  V30 1643 C 154.807 -2.27107 -3.58758 0
M  V30 1644 O 155.831 -1.96205 -2.97291 0
M  V30 1645 O 154.69 -2.79736 -4.69479 0
M  V30 1646 H 151.784 -0.392384 -0.727986 0
M  V30 1647 H 154.33 -1.37874 -0.989382 0
M  V30 1648 H 153.102 -2.97399 -2.54302 0
M  V30 1649 H 152.725 -1.64068 -3.6217 0
M  V30 1650 N 153.722 1.14298 -1.08507 0
M  V30 1651 C 154.971 1.84708 -0.810305 0
M  V30 1652 C 155.284 1.83903 0.666271 0
M  V30 1653 O 156.49 2.50112 1.05624 0
M  V30 1654 C 154.946 3.31572 -1.39957 0
M  V30 1655 C 154.554 3.40791 -2.90801 0
M  V30 1656 C 156.298 4.07087 -1.20334 0
M  V30 1657 C 154.205 4.81872 -3.4286 0
M  V30 1658 H 153.135 0.691985 -0.299454 0
M  V30 1659 H 155.786 1.28841 -1.30661 0
M  V30 1660 H 154.168 3.87183 -0.830976 0
M  V30 1661 H 155.342 2.95225 -3.53806 0
M  V30 1662 H 153.657 2.78732 -3.0935 0
M  V30 1663 H 156.254 5.11225 -1.56693 0
M  V30 1664 H 156.597 4.16054 -0.143237 0
M  V30 1665 H 157.13 3.57779 -1.73893 0
M  V30 1666 H 153.869 4.78094 -4.48449 0
M  V30 1667 H 153.389 5.27972 -2.84615 0
M  V30 1668 H 155.068 5.50765 -3.39509 0
M  V30 1669 N 155.201 0.870884 1.31352 0
M  V30 1670 C 156.612 0.534714 1.78879 0
M  V30 1671 C 156.963 -0.948423 1.71754 0
M  V30 1672 O 156.088 -1.74055 1.28584 0
M  V30 1673 C 156.683 0.963839 3.24801 0
M  V30 1674 C 155.242 0.679311 3.70219 0
M  V30 1675 C 154.389 1.15465 2.52117 0
M  V30 1676 H 157.34 1.05651 1.18421 0
M  V30 1677 H 157.361 0.286892 3.79417 0
M  V30 1678 H 156.873 2.04332 3.29955 0
M  V30 1679 H 154.974 -0.388769 3.70566 0
M  V30 1680 H 155.087 1.25698 4.62317 0
M  V30 1681 H 153.451 0.574383 2.48139 0
M  V30 1682 H 154.234 2.24157 2.60016 0
M  V30 1683 N 156.679 -1.44442 0.630414 0
M  V30 1684 C 157.642 -2.29107 -0.0652523 0
M  V30 1685 C 158.642 -1.41002 -0.772995 0
M  V30 1686 O 159.832 -1.62881 -0.617692 0
M  V30 1687 C 156.964 -3.22564 -1.10296 0
M  V30 1688 H 158.157 -2.92103 0.679401 0
M  V30 1689 H 155.71 -1.51343 0.390517 0
M  V30 1690 H 156.445 -2.64416 -1.87762 0
M  V30 1691 H 156.23 -3.87491 -0.59941 0
M  V30 1692 H 157.72 -3.86167 -1.5895 0
M  V30 1693 N 158.157 -0.370918 -1.53173 0
M  V30 1694 C 159.568 0.107139 -1.86392 0
M  V30 1695 C 159.919 1.47714 -1.29132 0
M  V30 1696 O 159.044 2.07464 -0.615439 0
M  V30 1697 C 159.639 0.201187 -3.38202 0
M  V30 1698 C 158.198 0.623507 -3.712 0
M  V30 1699 C 157.345 -0.225978 -2.76378 0
M  V30 1700 H 160.296 -0.58951 -1.47345 0
M  V30 1701 H 160.317 1.02377 -3.66468 0
M  V30 1702 H 159.829 -0.796058 -3.79848 0
M  V30 1703 H 157.93 1.62879 -3.35114 0
M  V30 1704 H 158.043 0.394414 -4.77474 0
M  V30 1705 H 156.407 0.305962 -2.52856 0
M  V30 1706 H 157.19 -1.22086 -3.20858 0
M  V30 1707 N 159.635 1.57281 -0.100228 0
M  V30 1708 C 160.582 2.14305 0.856858 0
M  V30 1709 C 161.552 1.06296 1.27634 0
M  V30 1710 O 162.737 1.34109 1.35718 0
M  V30 1711 C 159.877 2.73184 2.10866 0
M  V30 1712 C 158.99 3.95442 1.73925 0
M  V30 1713 C 158.125 4.42468 2.93931 0
M  V30 1714 C 157.164 5.57303 2.5314 0
M  V30 1715 N 156.301 5.99158 3.65997 0
M  V30 1716 H 161.141 2.95772 0.363726 0
M  V30 1717 H 158.678 1.46139 0.167858 0
M  V30 1718 H 160.636 3.05442 2.84185 0
M  V30 1719 H 159.266 1.94437 2.57671 0
M  V30 1720 H 158.318 3.69464 0.905554 0
M  V30 1721 H 159.63 4.78769 1.39935 0
M  V30 1722 H 158.784 4.76537 3.75496 0
M  V30 1723 H 157.523 3.58052 3.31134 0
M  V30 1724 H 156.528 5.22857 1.70003 0
M  V30 1725 H 157.753 6.43471 2.17075 0
M  V30 1726 H 155.699 5.17687 4.02909 0
M  V30 1727 H 155.616 6.77295 3.35869 0
M  V30 1728 H 156.884 6.3786 4.48057 0
M  V30 1729 N 161.113 -0.173488 1.56642 0
M  V30 1730 C 162.529 -0.525174 1.50712 0
M  V30 1731 C 162.729 -1.8476 0.804107 0
M  V30 1732 O 161.785 -2.49869 0.363574 0
M  V30 1733 C 163.098 -0.559937 2.95441 0
M  V30 1734 C 164.646 -0.647288 3.06234 0
M  V30 1735 C 165.121 -0.712963 4.52417 0
M  V30 1736 N 166.612 -0.775911 4.56655 0
M  V30 1737 C 167.347 -0.847264 5.67106 0
M  V30 1738 N 166.843 -0.879585 6.87194 0
M  V30 1739 N 168.636 -0.886117 5.55071 0
M  V30 1740 H 160.787 0.693681 2.00753 0
M  V30 1741 H 163.05 0.249841 0.914485 0
M  V30 1742 H 162.756 0.343049 3.50023 0
M  V30 1743 H 162.63 -1.40718 3.49969 0
M  V30 1744 H 165.017 -1.5407 2.51687 0
M  V30 1745 H 165.098 0.226586 2.54794 0
M  V30 1746 H 164.742 0.176183 5.07594 0
M  V30 1747 H 164.672 -1.60295 5.0161 0
M  V30 1748 H 167.163 -0.759304 3.70193 0
M  V30 1749 H 167.476 -0.935144 7.67121 0
M  V30 1750 H 165.821 -0.847898 6.89808 0
M  V30 1751 H 169.012 -0.857853 4.60172 0
M  V30 1752 H 169.185 -0.938263 6.41171 0
M  V30 1753 N 162.591 -1.51276 -0.441967 0
M  V30 1754 C 163.839 -1.63392 -1.18943 0
M  V30 1755 C 164.16 -0.350159 -1.9183 0
M  V30 1756 O 163.43 0.633784 -1.85364 0
M  V30 1757 H 162.01 -0.602164 -0.442049 0
M  V30 1758 H 164.672 -1.88186 -0.507165 0
M  V30 1759 H 163.768 -2.45934 -1.92154 0
M  V30 1760 N 164.069 0.697108 -1.41344 0
M  V30 1761 C 164.979 1.84088 -1.45427 0
M  V30 1762 C 165.995 1.70545 -0.34501 0
M  V30 1763 O 167.171 1.92488 -0.592492 0
M  V30 1764 C 164.236 3.20056 -1.33286 0
M  V30 1765 C 163.297 3.45718 -2.54514 0
M  V30 1766 C 162.53 4.75199 -2.42944 0
M  V30 1767 O 162.753 5.51579 -1.45318 0
M  V30 1768 O 161.687 5.0161 -3.32672 0
M  V30 1769 H 165.513 1.836 -2.41919 0
M  V30 1770 H 163.098 0.849966 -1.22866 0
M  V30 1771 H 164.98 4.01236 -1.28794 0
M  V30 1772 H 163.655 3.2123 -0.39909 0
M  V30 1773 H 162.562 2.64474 -2.64583 0
M  V30 1774 H 163.895 3.49356 -3.46715 0
M  V30 1775 N 165.547 1.27147 0.931209 0
M  V30 1776 C 166.796 1.12664 1.67302 0
M  V30 1777 C 167.109 -0.327718 1.92835 0
M  V30 1778 O 168.315 -0.593392 2.64936 0
M  V30 1779 C 166.771 1.9683 3.01307 0
M  V30 1780 C 166.379 3.46901 2.83485 0
M  V30 1781 C 168.123 1.90985 3.79111 0
M  V30 1782 C 166.03 4.23279 4.13024 0
M  V30 1783 H 164.96 0.41803 0.627509 0
M  V30 1784 H 167.611 1.51539 1.03481 0
M  V30 1785 H 165.993 1.50797 3.66164 0
M  V30 1786 H 167.167 4.00773 2.27415 0
M  V30 1787 H 165.482 3.54088 2.19113 0
M  V30 1788 H 168.079 2.45328 4.75098 0
M  V30 1789 H 168.422 0.882718 4.06834 0
M  V30 1790 H 168.955 2.34895 3.21044 0
M  V30 1791 H 165.694 5.26503 3.90481 0
M  V30 1792 H 165.214 3.74186 4.6877 0
M  V30 1793 H 166.893 4.32265 4.81411 0
M  V30 1794 N 167.025 -1.13721 1.09112 0
M  V30 1795 C 168.271 -1.85198 0.826414 0
M  V30 1796 C 168.604 -1.83129 -0.646319 0
M  V30 1797 O 167.879 -1.2671 -1.47563 0
M  V30 1798 C 168.162 -3.33507 1.35812 0
M  V30 1799 C 168.015 -3.44108 2.89672 0
M  V30 1800 C 169.334 -4.28838 0.989256 0
M  V30 1801 H 166.453 -0.67243 0.301675 0
M  V30 1802 H 169.095 -1.33499 1.35197 0
M  V30 1803 H 167.245 -3.77666 0.911082 0
M  V30 1804 H 168.917 -3.08684 3.428 0
M  V30 1805 H 167.16 -2.85087 3.26967 0
M  V30 1806 H 167.831 -4.48388 3.21951 0
M  V30 1807 H 170.307 -3.92734 1.37475 0
M  V30 1808 H 169.183 -5.31051 1.38838 0
M  V30 1809 H 169.444 -4.4198 -0.102924 0
M  V30 1810 N 168.503 -0.877838 -1.30888 0
M  V30 1811 C 169.919 -0.570844 -1.49042 0
M  V30 1812 C 170.119 0.893159 -1.80624 0
M  V30 1813 O 169.175 1.67485 -1.88958 0
M  V30 1814 C 170.488 -1.47784 -2.61878 0
M  V30 1815 C 172.036 -1.48071 -2.75761 0
M  V30 1816 C 172.511 -2.37347 -3.91702 0
M  V30 1817 N 174.002 -2.35271 -3.99001 0
M  V30 1818 C 174.737 -3.01063 -4.88004 0
M  V30 1819 N 174.233 -3.76055 -5.81854 0
M  V30 1820 N 176.026 -2.90332 -4.81315 0
M  V30 1821 H 168.177 -1.82502 -1.0866 0
M  V30 1822 H 170.44 -0.780797 -0.537644 0
M  V30 1823 H 170.146 -2.51993 -2.45341 0
M  V30 1824 H 170.02 -1.18215 -3.58197 0
M  V30 1825 H 172.407 -0.446166 -2.91708 0
M  V30 1826 H 172.488 -1.81668 -1.80085 0
M  V30 1827 H 172.132 -3.40883 -3.76512 0
M  V30 1828 H 172.062 -2.01071 -4.86701 0
M  V30 1829 H 174.553 -1.80768 -3.3186 0
M  V30 1830 H 174.866 -4.23366 -6.46514 0
M  V30 1831 H 173.211 -3.80163 -5.81808 0
M  V30 1832 H 176.402 -2.31278 -4.06974 0
M  V30 1833 H 176.575 -3.41885 -5.50471 0
M  V30 1834 N 169.982 1.44106 -0.638065 0
M  V30 1835 C 170.914 2.28976 0.101205 0
M  V30 1836 C 171.927 1.4167 0.802088 0
M  V30 1837 O 173.116 1.65755 0.662375 0
M  V30 1838 C 170.216 3.18217 1.16581 0
M  V30 1839 C 169.389 4.33978 0.546066 0
M  V30 1840 C 168.448 5.04202 1.50554 0
M  V30 1841 O 167.474 5.59986 1.01999 0
M  V30 1842 N 168.676 5.06296 2.8398 0
M  V30 1843 H 171.441 2.93064 -0.627186 0
M  V30 1844 H 169.002 1.54629 -0.479731 0
M  V30 1845 H 170.994 3.62061 1.80815 0
M  V30 1846 H 169.564 2.55833 1.79634 0
M  V30 1847 H 168.784 3.93239 -0.275046 0
M  V30 1848 H 170.072 5.08675 0.112793 0
M  V30 1849 H 169.47 4.62319 3.26002 0
M  V30 1850 H 168.027 5.53907 3.43556 0
M  V30 1851 N 171.46 0.379036 1.52974 0
M  V30 1852 C 172.709 -0.207612 2.00629 0
M  V30 1853 C 173.022 -1.48758 1.27006 0
M  V30 1854 O 174.228 -2.15365 1.65318 0
M  V30 1855 C 172.684 -0.42053 3.57435 0
M  V30 1856 C 172.292 0.845587 4.39948 0
M  V30 1857 C 174.036 -0.964102 4.13407 0
M  V30 1858 C 171.943 0.601513 5.88333 0
M  V30 1859 H 170.873 -0.0813591 0.749598 0
M  V30 1860 H 173.524 0.499853 1.76561 0
M  V30 1861 H 171.906 -1.18959 3.7771 0
M  V30 1862 H 173.08 1.61848 4.31442 0
M  V30 1863 H 171.395 1.31336 3.95145 0
M  V30 1864 H 173.992 -1.16225 5.21916 0
M  V30 1865 H 174.335 -1.93019 3.68849 0
M  V30 1866 H 174.868 -0.25487 3.96983 0
M  V30 1867 H 171.607 1.53831 6.37194 0
M  V30 1868 H 171.127 -0.132628 5.99653 0
M  V30 1869 H 172.806 0.232134 6.46583 0
M  V30 1870 N 172.938 -1.57226 0.108567 0
M  V30 1871 C 174.186 -1.94448 -0.550853 0
M  V30 1872 C 174.507 -0.992074 -1.67878 0
M  V30 1873 O 173.777 -0.0465 -1.95845 0
M  V30 1874 H 172.357 -0.717897 -0.206479 0
M  V30 1875 H 175.019 -1.94112 0.175062 0
M  V30 1876 H 174.115 -2.97218 -0.952259 0
M  V30 1877 N 174.416 0.165178 -1.56732 0
M  V30 1878 C 175.693 0.908443 -1.73224 0
M  V30 1879 C 176.073 2.0013 -0.67165 0
M  V30 1880 O 175.421 2.26353 0.31253 0
M  V30 1881 C 175.631 1.46756 -3.16644 0
M  V30 1882 C 176.979 1.93809 -3.77787 0
M  V30 1883 O 178.003 1.56537 -3.1996 0
M  V30 1884 O 176.862 2.62486 -4.79336 0
M  V30 1885 H 173.956 0.428025 -0.707618 0
M  V30 1886 H 176.502 0.152526 -1.69013 0
M  V30 1887 H 175.274 0.68129 -3.85323 0
M  V30 1888 H 174.897 2.28749 -3.25207 0
M  V30 1889 N 175.894 1.51508 0.433938 0
M  V30 1890 C 176.857 1.72473 1.50949 0
M  V30 1891 C 177.857 0.594725 1.49398 0
M  V30 1892 O 179.047 0.862315 1.5136 0
M  V30 1893 C 176.179 1.78431 2.90474 0
M  V30 1894 H 177.372 2.68467 1.33662 0
M  V30 1895 H 174.925 1.41549 0.662836 0
M  V30 1896 H 175.66 0.842645 3.13161 0
M  V30 1897 H 175.445 2.60558 2.93005 0
M  V30 1898 H 176.935 1.96479 3.68491 0
M  V30 1899 N 177.372 -0.689602 1.41712 0
M  V30 1900 C 178.302 -1.81577 1.46806 0
M  V30 1901 C 179.283 -1.66945 0.326105 0
M  V30 1902 O 180.468 -1.86588 0.538377 0
M  V30 1903 C 177.598 -3.19762 1.35535 0
M  V30 1904 C 176.552 -3.49107 2.47605 0
M  V30 1905 C 175.878 -4.86711 2.21397 0
M  V30 1906 C 177.178 -3.47483 3.89939 0
M  V30 1907 H 178.872 -1.7757 2.41058 0
M  V30 1908 H 176.418 -0.852887 1.16025 0
M  V30 1909 H 178.371 -3.98263 1.3771 0
M  V30 1910 H 177.095 -3.24409 0.377708 0
M  V30 1911 H 175.754 -2.72959 2.44722 0
M  V30 1912 H 175.402 -4.8799 1.21961 0
M  V30 1913 H 175.102 -5.0731 2.96497 0
M  V30 1914 H 176.626 -5.67515 2.25297 0
M  V30 1915 H 178.04 -4.1598 3.94505 0
M  V30 1916 H 176.437 -3.79615 4.64771 0
M  V30 1917 H 177.507 -2.46341 4.17665 0
M  V30 1918 N 178.85 -1.27639 -0.924453 0
M  V30 1919 C 180.266 -1.05113 -1.20097 0
M  V30 1920 C 180.466 0.213262 -2.00368 0
M  V30 1921 O 179.522 0.91787 -2.35226 0
M  V30 1922 C 180.835 -2.29244 -1.94596 0
M  V30 1923 C 182.383 -2.34315 -2.07522 0
M  V30 1924 C 182.858 -3.58183 -2.85427 0
M  V30 1925 N 184.349 -3.5876 -2.92994 0
M  V30 1926 C 185.084 -4.51277 -3.53746 0
M  V30 1927 N 184.58 -5.54102 -4.15863 0
M  V30 1928 N 186.373 -4.38894 -3.51181 0
M  V30 1929 H 178.524 -2.08821 -0.388264 0
M  V30 1930 H 180.787 -0.918568 -0.234385 0
M  V30 1931 H 180.493 -3.21301 -1.43034 0
M  V30 1932 H 180.367 -2.34816 -2.95197 0
M  V30 1933 H 182.754 -1.42762 -2.58269 0
M  V30 1934 H 182.835 -2.32744 -1.06131 0
M  V30 1935 H 182.479 -4.50074 -2.35363 0
M  V30 1936 H 182.409 -3.57006 -3.8711 0
M  V30 1937 H 184.9 -2.84398 -2.4885 0
M  V30 1938 H 185.213 -6.20859 -4.60168 0
M  V30 1939 H 183.558 -5.57941 -4.144 0
M  V30 1940 H 186.749 -3.57772 -3.01856 0
M  V30 1941 H 186.922 -5.11186 -3.98237 0
M  V30 1942 N 180.328 1.1314 -1.09713 0
M  V30 1943 C 181.238 2.22242 -0.751367 0
M  V30 1944 C 182.254 1.72224 0.247938 0
M  V30 1945 O 183.43 2.01205 0.0885463 0
M  V30 1946 C 180.495 3.46231 -0.180274 0
M  V30 1947 C 179.556 4.11125 -1.2359 0
M  V30 1948 C 178.789 5.29195 -0.691966 0
M  V30 1949 O 179.012 5.68342 0.48414 0
M  V30 1950 O 177.946 5.84214 -1.44838 0
M  V30 1951 H 181.772 2.54197 -1.66186 0
M  V30 1952 H 179.357 1.21331 -0.871735 0
M  V30 1953 H 181.239 4.21185 0.134739 0
M  V30 1954 H 179.914 3.1597 0.703185 0
M  V30 1955 H 178.821 3.37985 -1.60366 0
M  V30 1956 H 180.154 4.45524 -2.09211 0
M  V30 1957 N 181.806 0.884767 1.30421 0
M  V30 1958 C 182.753 0.349642 2.28136 0
M  V30 1959 C 183.723 -0.560061 1.56373 0
M  V30 1960 O 184.908 -0.488524 1.8444 0
M  V30 1961 C 182.048 -0.42999 3.42411 0
M  V30 1962 C 181.161 0.508907 4.28992 0
M  V30 1963 C 180.296 -0.286301 5.30428 0
M  V30 1964 C 179.335 0.648079 6.08659 0
M  V30 1965 N 178.472 -0.111792 7.02011 0
M  V30 1966 H 183.312 1.18807 2.73293 0
M  V30 1967 H 180.849 0.597231 1.3443 0
M  V30 1968 H 182.807 -0.897923 4.07423 0
M  V30 1969 H 181.437 -1.23299 2.98324 0
M  V30 1970 H 180.489 1.09533 3.64289 0
M  V30 1971 H 181.801 1.22475 4.8353 0
M  V30 1972 H 180.955 -0.816098 6.01186 0
M  V30 1973 H 179.694 -1.03536 4.76583 0
M  V30 1974 H 178.699 1.18951 5.36778 0
M  V30 1975 H 179.924 1.39623 6.64592 0
M  V30 1976 H 177.87 -0.843395 6.50556 0
M  V30 1977 H 177.787 0.544429 7.54037 0
M  V30 1978 H 179.055 -0.622339 7.77012 0
M  V30 1979 N 183.284 -1.43765 0.645699 0
M  V30 1980 C 184.533 -2.01116 0.153412 0
M  V30 1981 C 184.846 -1.51493 -1.23731 0
M  V30 1982 O 186.052 -2.01067 -1.8244 0
M  V30 1983 C 184.508 -3.59206 0.223473 0
M  V30 1984 C 184.116 -4.17823 1.61642 0
M  V30 1985 C 185.86 -4.23972 -0.211597 0
M  V30 1986 C 183.767 -5.68183 1.64081 0
M  V30 1987 H 182.697 -0.752093 0.0535891 0
M  V30 1988 H 185.348 -1.6482 0.806633 0
M  V30 1989 H 183.73 -3.92867 -0.497118 0
M  V30 1990 H 184.904 -3.95674 2.36176 0
M  V30 1991 H 183.219 -3.65399 1.99681 0
M  V30 1992 H 185.816 -5.34275 -0.213112 0
M  V30 1993 H 186.159 -3.97352 -1.24165 0
M  V30 1994 H 186.692 -3.95166 0.456988 0
M  V30 1995 H 183.431 -5.99559 2.64971 0
M  V30 1996 H 182.951 -5.9241 0.938611 0
M  V30 1997 H 184.63 -6.32085 1.3812 0
M  V30 1998 N 184.763 -0.387143 -1.52771 0
M  V30 1999 C 185.695 0.484089 -2.2403 0
M  V30 2000 C 186.708 1.02849 -1.26198 0
M  V30 2001 O 187.897 0.931186 -1.52286 0
M  V30 2002 C 184.997 1.68337 -2.94136 0
M  V30 2003 C 184.17 1.26672 -4.18656 0
M  V30 2004 C 183.229 2.33045 -4.7178 0
M  V30 2005 O 182.255 1.94541 -5.34923 0
M  V30 2006 N 183.457 3.64929 -4.5145 0
M  V30 2007 H 186.222 -0.126404 -2.99433 0
M  V30 2008 H 183.783 -0.213392 -1.60488 0
M  V30 2009 H 185.775 2.39019 -3.26577 0
M  V30 2010 H 184.345 2.20025 -2.22053 0
M  V30 2011 H 183.565 0.388878 -3.92277 0
M  V30 2012 H 184.853 0.964964 -4.99566 0
M  V30 2013 H 184.251 3.98974 -4.01044 0
M  V30 2014 H 182.808 4.31651 -4.88386 0
M  V30 2015 N 186.241 1.57166 -0.116904 0
M  V30 2016 C 187.487 1.95412 0.542405 0
M  V30 2017 C 187.82 1.00019 1.66463 0
M  V30 2018 O 187.095 0.0370346 1.94465 0
M  V30 2019 C 187.378 3.43615 1.07708 0
M  V30 2020 C 187.231 4.49781 -0.0415868 0
M  V30 2021 C 188.55 3.93616 1.96861 0
M  V30 2022 H 185.669 0.710543 0.195696 0
M  V30 2023 H 188.311 1.89027 -0.192038 0
M  V30 2024 H 186.461 3.49187 1.70296 0
M  V30 2025 H 188.133 4.56308 -0.676793 0
M  V30 2026 H 186.376 4.28033 -0.705019 0
M  V30 2027 H 187.047 5.50733 0.373717 0
M  V30 2028 H 189.523 3.90335 1.44146 0
M  V30 2029 H 188.399 4.97838 2.3119 0
M  V30 2030 H 188.66 3.34188 2.89432 0
M  V30 2031 N 187.719 -0.156864 1.56817 0
M  V30 2032 C 188.649 -1.19589 2.00551 0
M  V30 2033 C 189.63 -1.4536 0.883426 0
M  V30 2034 O 190.815 -1.56449 1.15054 0
M  V30 2035 C 187.945 -2.53143 2.37773 0
M  V30 2036 C 186.899 -2.41913 3.53075 0
M  V30 2037 C 186.225 -3.80088 3.76081 0
M  V30 2038 C 187.525 -1.91157 4.86062 0
M  V30 2039 H 189.219 -0.832293 2.87599 0
M  V30 2040 H 186.765 -0.398918 1.38364 0
M  V30 2041 H 188.718 -3.26047 2.66967 0
M  V30 2042 H 187.442 -2.91319 1.4765 0
M  V30 2043 H 186.101 -1.71462 3.24031 0
M  V30 2044 H 185.749 -4.15683 2.83225 0
M  V30 2045 H 185.449 -3.73439 4.53671 0
M  V30 2046 H 186.973 -4.54556 4.0769 0
M  V30 2047 H 188.387 -2.53846 5.14038 0
M  V30 2048 H 186.784 -1.95422 5.67389 0
M  V30 2049 H 187.854 -0.866673 4.77092 0
M  V30 2050 N 189.197 -1.51736 -0.425897 0
M  V30 2051 C 190.445 -1.64644 -1.17204 0
M  V30 2052 C 190.766 -0.370486 -1.91448 0
M  V30 2053 O 190.036 0.614088 -1.86026 0
M  V30 2054 H 188.616 -0.606819 -0.435638 0
M  V30 2055 H 191.278 -1.88713 -0.487177 0
M  V30 2056 H 190.374 -2.47958 -1.89534 0
M  V30 2057 N 190.675 0.682077 -1.42076 0
M  V30 2058 C 191.9 1.47558 -1.45744 0
M  V30 2059 C 192.325 1.87977 -0.0680981 0
M  V30 2060 O 191.683 1.55522 0.9318 0
M  V30 2061 C 191.731 2.70575 -2.38373 0
M  V30 2062 O 190.835 3.68573 -1.85007 0
M  V30 2063 H 190.176 0.443585 -0.494093 0
M  V30 2064 H 192.706 0.837238 -1.86686 0
M  V30 2065 H 192.716 3.18729 -2.54707 0
M  V30 2066 H 191.391 2.40495 -3.39315 0
M  V30 2067 H 189.968 3.2757 -1.78192 0
M  V30 2068 N 192.153 1.28127 0.917671 0
M  V30 2069 C 193.083 1.14248 2.03641 0
M  V30 2070 C 194.064 0.0412748 1.7005 0
M  V30 2071 O 195.249 0.217566 1.92977 0
M  V30 2072 C 192.379 0.799431 3.37974 0
M  V30 2073 C 191.333 1.85497 3.85713 0
M  V30 2074 C 190.659 1.36565 5.16966 0
M  V30 2075 C 191.959 3.26085 4.08002 0
M  V30 2076 H 193.653 2.07835 2.15511 0
M  V30 2077 H 191.199 1.00064 1.03553 0
M  V30 2078 H 193.152 0.689114 4.15727 0
M  V30 2079 H 191.876 -0.172145 3.26146 0
M  V30 2080 H 190.535 1.95437 3.10161 0
M  V30 2081 H 190.183 0.383253 5.01538 0
M  V30 2082 H 189.883 2.07143 5.49878 0
M  V30 2083 H 191.407 1.26848 5.97279 0
M  V30 2084 H 192.821 3.19089 4.76293 0
M  V30 2085 H 191.218 3.94462 4.52238 0
M  V30 2086 H 192.288 3.70394 3.12948 0
M  V30 2087 N 193.631 -1.12557 1.10312 0
M  V30 2088 C 194.877 -1.84311 0.846011 0
M  V30 2089 C 195.21 -1.83805 -0.626859 0
M  V30 2090 O 194.485 -1.28268 -1.46211 0
M  V30 2091 C 194.768 -3.32048 1.39341 0
M  V30 2092 C 194.621 -3.41016 2.93305 0
M  V30 2093 C 195.94 -4.27764 1.03468 0
M  V30 2094 H 193.059 -0.669192 0.30879 0
M  V30 2095 H 195.701 -1.32057 1.36605 0
M  V30 2096 H 193.851 -3.76678 0.951087 0
M  V30 2097 H 195.523 -3.05031 3.46055 0
M  V30 2098 H 193.766 -2.81603 3.29973 0
M  V30 2099 H 194.437 -4.44948 3.26689 0
M  V30 2100 H 196.913 -3.91253 1.41633 0
M  V30 2101 H 195.789 -5.29549 1.44463 0
M  V30 2102 H 196.05 -4.42064 -0.0560404 0
M  V30 2103 N 195.109 -0.891671 -1.2995 0
M  V30 2104 C 196.334 -0.527932 -2.00568 0
M  V30 2105 C 196.759 0.877969 -1.66353 0
M  V30 2106 O 196.117 1.58301 -0.883762 0
M  V30 2107 C 196.165 -0.717745 -3.53385 0
M  V30 2108 O 195.269 0.233376 -4.11739 0
M  V30 2109 H 194.61 -0.20722 -0.630837 0
M  V30 2110 H 197.14 -1.20105 -1.65638 0
M  V30 2111 H 197.15 -0.619307 -4.03272 0
M  V30 2112 H 195.825 -1.74276 -3.77625 0
M  V30 2113 H 194.402 0.0880706 -3.72796 0
M  V30 2114 N 196.587 1.43421 -0.653314 0
M  V30 2115 C 197.517 2.33487 0.0246656 0
M  V30 2116 C 198.498 1.49475 0.811863 0
M  V30 2117 O 199.683 1.78139 0.773322 0
M  V30 2118 C 196.813 3.32841 0.99166 0
M  V30 2119 C 195.767 4.26842 0.314568 0
M  V30 2120 C 195.093 5.16236 1.39302 0
M  V30 2121 C 196.393 5.16243 -0.793095 0
M  V30 2122 H 198.087 2.90427 -0.727481 0
M  V30 2123 H 195.633 1.39649 -0.351287 0
M  V30 2124 H 197.586 3.94747 1.47487 0
M  V30 2125 H 196.31 2.74158 1.77497 0
M  V30 2126 H 194.969 3.663 -0.148199 0
M  V30 2127 H 194.617 4.53891 2.16776 0
M  V30 2128 H 194.317 5.79948 0.945223 0
M  V30 2129 H 195.841 5.81015 1.87759 0
M  V30 2130 H 197.255 5.71958 -0.392039 0
M  V30 2131 H 195.652 5.88676 -1.16536 0
M  V30 2132 H 196.722 4.55927 -1.65103 0
M  V30 2133 N 198.065 0.39524 1.52563 0
M  V30 2134 C 198.975 -0.444232 2.30356 0
M  V30 2135 C 199.991 -1.06615 1.37511 0
M  V30 2136 O 201.167 -1.07067 1.70583 0
M  V30 2137 C 198.232 -1.55315 3.09964 0
M  V30 2138 C 197.293 -0.955734 4.18526 0
M  V30 2139 C 196.526 -2.01181 4.9433 0
M  V30 2140 O 196.749 -3.22781 4.70285 0
M  V30 2141 O 195.683 -1.62579 5.79527 0
M  V30 2142 H 199.509 0.189667 3.03107 0
M  V30 2143 H 197.094 0.1588 1.48554 0
M  V30 2144 H 198.976 -2.19724 3.59582 0
M  V30 2145 H 197.651 -2.17191 2.4002 0
M  V30 2146 H 196.558 -0.274743 3.7309 0
M  V30 2147 H 197.891 -0.381109 4.90722 0
M  V30 2148 N 199.544 -1.57102 0.125237 0
M  V30 2149 C 200.477 -2.11371 -0.860094 0
M  V30 2150 C 201.455 -1.03168 -1.25679 0
M  V30 2151 O 202.639 -1.30862 -1.35674 0
M  V30 2152 C 199.766 -2.61555 -2.1519 0
M  V30 2153 C 198.812 -3.81701 -1.9028 0
M  V30 2154 S 199.645 -5.23797 -1.11343 0
M  V30 2155 C 200.801 -5.77353 -2.41689 0
M  V30 2156 H 201.034 -2.94617 -0.39852 0
M  V30 2157 H 198.567 -1.54145 -0.0886555 0
M  V30 2158 H 200.525 -2.91122 -2.89411 0
M  V30 2159 H 199.186 -1.78479 -2.58465 0
M  V30 2160 H 198.379 -4.14985 -2.86014 0
M  V30 2161 H 197.981 -3.52783 -1.24178 0
M  V30 2162 H 200.273 -5.87458 -3.37489 0
M  V30 2163 H 201.216 -6.75323 -2.12942 0
M  V30 2164 H 201.624 -5.05457 -2.51342 0
M  V30 2165 N 201.022 0.148545 -1.56898 0
M  V30 2166 C 202.27 0.859717 -1.82902 0
M  V30 2167 C 202.591 1.81775 -0.70588 0
M  V30 2168 O 201.861 1.93994 0.272586 0
M  V30 2169 H 200.441 0.320469 -0.674766 0
M  V30 2170 H 203.103 0.142918 -1.94375 0
M  V30 2171 H 202.199 1.4229 -2.77777 0
M  V30 2172 N 202.5 1.5196 0.417844 0
M  V30 2173 C 203.447 1.74678 1.50852 0
M  V30 2174 C 204.417 0.588947 1.55308 0
M  V30 2175 O 205.602 0.825544 1.72016 0
M  V30 2176 C 202.742 1.89544 2.88387 0
M  V30 2177 C 201.855 3.17166 2.93309 0
M  V30 2178 C 200.99 3.22513 4.22088 0
M  V30 2179 C 200.029 4.44372 4.20951 0
M  V30 2180 N 199.166 4.47161 5.41287 0
M  V30 2181 H 204.006 2.67768 1.30783 0
M  V30 2182 H 201.543 1.32689 0.63498 0
M  V30 2183 H 203.501 1.96146 3.68216 0
M  V30 2184 H 202.131 0.998424 3.06971 0
M  V30 2185 H 201.183 3.19778 2.06024 0
M  V30 2186 H 202.495 4.07021 2.88332 0
M  V30 2187 H 201.649 3.28139 5.10303 0
M  V30 2188 H 200.388 2.30581 4.29748 0
M  V30 2189 H 199.393 4.38902 3.31127 0
M  V30 2190 H 200.618 5.3759 4.14938 0
M  V30 2191 H 198.564 3.58108 5.49632 0
M  V30 2192 H 198.481 5.3085 5.3827 0
M  V30 2193 H 199.749 4.57005 6.3148 0
M  V30 2194 N 203.978 -0.674533 1.42435 0
M  V30 2195 C 205.227 -1.43034 1.42212 0
M  V30 2196 C 205.54 -1.95555 0.0420788 0
M  V30 2197 O 206.746 -2.71374 -0.0827558 0
M  V30 2198 C 205.202 -2.58748 2.50155 0
M  V30 2199 C 204.81 -2.12925 3.94166 0
M  V30 2200 C 206.554 -3.36257 2.59098 0
M  V30 2201 C 204.461 -3.25723 4.93618 0
M  V30 2202 H 203.391 -0.537345 0.528939 0
M  V30 2203 H 206.042 -0.73024 1.68344 0
M  V30 2204 H 204.424 -3.31128 2.17188 0
M  V30 2205 H 205.598 -1.47697 4.36488 0
M  V30 2206 H 203.913 -1.48354 3.89076 0
M  V30 2207 H 206.51 -4.20264 3.30578 0
M  V30 2208 H 206.853 -3.82866 1.63461 0
M  V30 2209 H 207.386 -2.70947 2.9126 0
M  V30 2210 H 204.125 -2.84105 5.90732 0
M  V30 2211 H 203.645 -3.89732 4.55926 0
M  V30 2212 H 205.324 -3.91186 5.15347 0
M  V30 2213 N 205.456 -1.28612 -0.910864 0
M  V30 2214 C 206.386 -1.15326 -2.03032 0
M  V30 2215 C 207.367 -0.0502924 -1.70026 0
M  V30 2216 O 208.552 -0.227797 -1.92859 0
M  V30 2217 C 205.682 -0.817343 -3.37545 0
M  V30 2218 C 204.636 -1.8754 -3.84724 0
M  V30 2219 C 203.962 -1.39305 -5.16235 0
M  V30 2220 C 205.262 -3.28244 -4.06267 0
M  V30 2221 H 206.956 -2.08975 -2.14406 0
M  V30 2222 H 204.502 -1.00612 -1.03021 0
M  V30 2223 H 206.455 -0.711151 -4.15356 0
M  V30 2224 H 205.179 0.154846 -3.26233 0
M  V30 2225 H 203.838 -1.97079 -3.09121 0
M  V30 2226 H 203.486 -0.409846 -5.01328 0
M  V30 2227 H 203.186 -2.10057 -5.48771 0
M  V30 2228 H 204.71 -1.30014 -5.96598 0
M  V30 2229 H 206.124 -3.21611 -4.74594 0
M  V30 2230 H 204.521 -3.96855 -4.5014 0
M  V30 2231 H 205.591 -3.72048 -3.10979 0
M  V30 2232 N 206.934 1.1197 -1.10907 0
M  V30 2233 C 208.18 1.8386 -0.855773 0
M  V30 2234 C 208.513 1.84134 0.617103 0
M  V30 2235 O 207.788 1.29041 1.45529 0
M  V30 2236 C 208.071 3.31305 -1.411 0
M  V30 2237 C 207.924 3.39456 -2.9511 0
M  V30 2238 C 209.243 4.2721 -1.05736 0
M  V30 2239 H 206.362 0.667545 -0.312334 0
M  V30 2240 H 209.004 1.31331 -1.37303 0
M  V30 2241 H 207.154 3.76169 -0.97105 0
M  V30 2242 H 208.826 3.03191 -3.47668 0
M  V30 2243 H 207.069 2.79849 -3.31462 0
M  V30 2244 H 207.74 4.43209 -3.29044 0
M  V30 2245 H 210.216 3.90497 -1.43706 0
M  V30 2246 H 209.092 5.28775 -1.47269 0
M  V30 2247 H 209.353 4.42088 0.0325958 0
M  V30 2248 N 208.412 0.89855 1.29475 0
M  V30 2249 C 209.322 0.379974 2.31502 0
M  V30 2250 C 210.338 -0.524695 1.659 0
M  V30 2251 O 211.514 -0.414551 1.97087 0
M  V30 2252 C 208.579 -0.385138 3.44554 0
M  V30 2253 C 207.64 0.550914 4.2575 0
M  V30 2254 C 206.873 -0.177778 5.33404 0
M  V30 2255 O 207.096 -1.40189 5.52904 0
M  V30 2256 O 206.03 0.479106 5.9999 0
M  V30 2257 H 209.856 1.22639 2.77837 0
M  V30 2258 H 207.441 0.662834 1.33891 0
M  V30 2259 H 209.323 -0.817841 4.13388 0
M  V30 2260 H 207.998 -1.20763 3.0033 0
M  V30 2261 H 206.905 1.03271 3.59564 0
M  V30 2262 H 208.238 1.33979 4.73614 0
M  V30 2263 N 209.89 -1.43072 0.660911 0
M  V30 2264 C 211.138 -2.01323 0.177094 0
M  V30 2265 C 211.459 -1.5245 -1.2159 0
M  V30 2266 O 210.729 -0.740322 -1.81373 0
M  V30 2267 H 209.309 -0.744382 0.0624804 0
M  V30 2268 H 211.971 -1.75179 0.854305 0
M  V30 2269 H 211.067 -3.11649 0.167641 0
M  V30 2270 N 211.368 -0.403325 -1.52352 0
M  V30 2271 C 212.614 0.174605 -2.02047 0
M  V30 2272 C 212.947 1.45282 -1.28867 0
M  V30 2273 O 212.222 1.90483 -0.393257 0
M  V30 2274 C 212.505 0.428238 -3.57545 0
M  V30 2275 C 212.358 -0.866248 -4.4138 0
M  V30 2276 C 213.677 1.21287 -4.23057 0
M  V30 2277 H 210.796 0.0619851 -0.734389 0
M  V30 2278 H 213.438 -0.53565 -1.82293 0
M  V30 2279 H 211.588 1.03327 -3.74507 0
M  V30 2280 H 213.26 -1.50265 -4.3614 0
M  V30 2281 H 211.503 -1.47851 -4.07827 0
M  V30 2282 H 212.174 -0.643249 -5.48239 0
M  V30 2283 H 214.65 0.700703 -4.10158 0
M  V30 2284 H 213.526 1.35909 -5.31808 0
M  V30 2285 H 213.787 2.23193 -3.81625 0
M  V30 2286 N 212.846 1.57033 -0.133567 0
M  V30 2287 C 214.094 1.953 0.519848 0
M  V30 2288 C 214.415 1.01866 1.66278 0
M  V30 2289 O 213.685 0.0776513 1.95746 0
M  V30 2290 H 212.265 0.721091 0.195032 0
M  V30 2291 H 214.927 1.93809 -0.205921 0
M  V30 2292 H 214.023 2.98695 0.904854 0
M  V30 2293 N 214.325 -0.140222 1.56975 0
M  V30 2294 C 215.235 -1.19223 2.02047 0
M  V30 2295 C 216.251 -1.46612 0.937062 0
M  V30 2296 O 217.427 -1.58148 1.24704 0
M  V30 2297 C 214.492 -2.50414 2.39778 0
M  V30 2298 C 213.553 -2.30612 3.621 0
M  V30 2299 C 212.786 -3.55547 3.98023 0
M  V30 2300 O 213.009 -4.62004 3.34528 0
M  V30 2301 O 211.943 -3.47808 4.91237 0
M  V30 2302 H 215.769 -0.839559 2.91865 0
M  V30 2303 H 213.354 -0.349453 1.45256 0
M  V30 2304 H 215.236 -3.27747 2.64877 0
M  V30 2305 H 213.911 -2.85198 1.53114 0
M  V30 2306 H 212.818 -1.51207 3.4218 0
M  V30 2307 H 214.151 -2.00741 4.49404 0
M  V30 2308 N 215.803 -1.52179 -0.40978 0
M  V30 2309 C 217.049 -1.66453 -1.15851 0
M  V30 2310 C 217.382 -0.392972 -1.90182 0
M  V30 2311 O 216.657 0.608579 -1.84734 0
M  V30 2312 C 216.94 -2.88612 -2.15349 0
M  V30 2313 C 216.793 -4.25815 -1.44918 0
M  V30 2314 C 218.112 -3.06294 -3.16026 0
M  V30 2315 H 215.231 -0.60575 -0.419805 0
M  V30 2316 H 217.873 -1.84732 -0.444314 0
M  V30 2317 H 216.023 -2.73158 -2.76255 0
M  V30 2318 H 217.695 -4.52995 -0.871365 0
M  V30 2319 H 215.938 -4.27247 -0.751159 0
M  V30 2320 H 216.609 -5.07337 -2.17516 0
M  V30 2321 H 219.085 -3.20641 -2.65195 0
M  V30 2322 H 217.961 -3.93283 -3.8291 0
M  V30 2323 H 218.222 -2.19579 -3.83715 0
M  V30 2324 N 217.281 0.66697 -1.42791 0
M  V30 2325 C 218.213 1.7925 -1.42836 0
M  V30 2326 C 219.226 1.59496 -0.326333 0
M  V30 2327 O 220.415 1.6847 -0.589916 0
M  V30 2328 C 217.515 3.16476 -1.21229 0
M  V30 2329 C 216.688 3.63011 -2.44013 0
M  V30 2330 C 215.747 4.78993 -2.17834 0
M  V30 2331 O 214.773 4.89137 -2.91091 0
M  V30 2332 N 215.975 5.68248 -1.18635 0
M  V30 2333 H 218.74 1.79695 -2.39854 0
M  V30 2334 H 216.301 0.850338 -1.37771 0
M  V30 2335 H 218.293 3.91734 -1.01621 0
M  V30 2336 H 216.863 3.10884 -0.32706 0
M  V30 2337 H 216.083 2.78346 -2.79137 0
M  V30 2338 H 217.371 3.90845 -3.25757 0
M  V30 2339 H 216.769 5.62712 -0.580615 0
M  V30 2340 H 215.326 6.43285 -1.05013 0
M  V30 2341 N 218.759 1.29093 0.90403 0
M  V30 2342 C 219.669 1.15727 2.0407 0
M  V30 2343 C 220.685 0.0815308 1.73809 0
M  V30 2344 O 221.861 0.292749 1.99261 0
M  V30 2345 C 218.926 0.830424 3.36608 0
M  V30 2346 C 217.987 1.98955 3.80415 0
M  V30 2347 C 217.22 1.6782 5.06628 0
M  V30 2348 O 217.443 0.597105 5.67266 0
M  V30 2349 O 216.377 2.52486 5.46383 0
M  V30 2350 H 220.203 2.11171 2.18267 0
M  V30 2351 H 217.788 1.08504 1.027 0
M  V30 2352 H 219.67 0.662521 4.16159 0
M  V30 2353 H 218.345 -0.0942678 3.23563 0
M  V30 2354 H 217.252 2.21267 3.01648 0
M  V30 2355 H 218.585 2.89529 3.98037 0
M  V30 2356 N 220.237 -1.11381 1.11499 0
M  V30 2357 C 221.467 -1.86663 0.885464 0
M  V30 2358 C 221.875 -1.80464 -0.568281 0
M  V30 2359 O 221.218 -1.18445 -1.40415 0
M  V30 2360 C 221.28 -3.36337 1.26956 0
M  V30 2361 C 220.944 -3.66304 2.73259 0
M  V30 2362 C 221.941 -3.63733 3.71476 0
M  V30 2363 C 219.626 -3.9529 3.09921 0
M  V30 2364 C 221.62 -3.89725 5.04374 0
M  V30 2365 C 219.307 -4.20941 4.43004 0
M  V30 2366 C 220.305 -4.18147 5.40039 0
M  V30 2367 O 219.993 -4.43153 6.70724 0
M  V30 2368 H 219.725 -0.597114 0.316908 0
M  V30 2369 H 222.279 -1.41782 1.48617 0
M  V30 2370 H 220.509 -3.81826 0.611999 0
M  V30 2371 H 222.198 -3.92986 1.01573 0
M  V30 2372 H 222.964 -3.41389 3.44498 0
M  V30 2373 H 218.843 -3.966 2.35009 0
M  V30 2374 H 222.387 -3.8746 5.80104 0
M  V30 2375 H 218.284 -4.42761 4.69716 0
M  V30 2376 H 219.052 -4.60717 6.76522 0
M  V30 2377 N 221.715 -0.905404 -1.28997 0
M  V30 2378 C 222.961 -0.535039 -1.95615 0
M  V30 2379 C 223.294 0.917404 -1.71165 0
M  V30 2380 O 222.569 1.65123 -1.02785 0
M  V30 2381 C 222.852 -0.834918 -3.50287 0
M  V30 2382 C 222.705 -2.33948 -3.84172 0
M  V30 2383 C 224.024 -0.325318 -4.38896 0
M  V30 2384 H 221.143 -0.195861 -0.710498 0
M  V30 2385 H 223.785 -1.13313 -1.52513 0
M  V30 2386 H 221.935 -0.325904 -3.87131 0
M  V30 2387 H 223.607 -2.91847 -3.57243 0
M  V30 2388 H 221.85 -2.79789 -3.31513 0
M  V30 2389 H 222.521 -2.49987 -4.92149 0
M  V30 2390 H 224.997 -0.761256 -4.09077 0
M  V30 2391 H 223.873 -0.564295 -5.45992 0
M  V30 2392 H 224.134 0.774144 -4.35269 0
M  V30 2393 N 223.193 1.4272 -0.668489 0
M  V30 2394 C 224.47 1.95248 -0.117373 0
M  V30 2395 C 224.85 1.60919 1.36632 0
M  V30 2396 O 224.198 0.902095 2.09939 0
M  V30 2397 C 224.408 3.46927 -0.379806 0
M  V30 2398 C 225.756 4.23588 -0.292923 0
M  V30 2399 O 226.78 3.5482 -0.313204 0
M  V30 2400 O 225.639 5.46017 -0.229697 0
M  V30 2401 H 222.733 0.827 0.00079152 0
M  V30 2402 H 225.279 1.52581 -0.742783 0
M  V30 2403 H 224.051 3.65096 -1.40786 0
M  V30 2404 H 223.674 3.96627 0.277923 0
M  V30 2405 N 224.671 0.411399 1.52136 0
M  V30 2406 C 225.92 -0.165009 2.01024 0
M  V30 2407 C 226.233 -1.4603 1.30133 0
M  V30 2408 O 227.439 -2.1181 1.69849 0
M  V30 2409 C 225.895 -0.344618 3.58246 0
M  V30 2410 C 225.503 0.938716 4.38055 0
M  V30 2411 C 227.247 -0.876195 4.15359 0
M  V30 2412 C 225.154 0.726172 5.86925 0
M  V30 2413 H 224.084 -0.0654407 0.751155 0
M  V30 2414 H 226.735 0.537192 1.75461 0
M  V30 2415 H 225.117 -1.10921 3.80148 0
M  V30 2416 H 226.291 1.70963 4.27912 0
M  V30 2417 H 224.606 1.39688 3.92271 0
M  V30 2418 H 227.203 -1.05128 5.24263 0
M  V30 2419 H 227.546 -1.85152 3.7286 0
M  V30 2420 H 228.079 -0.170607 3.97434 0
M  V30 2421 H 224.818 1.67312 6.33788 0
M  V30 2422 H 224.338 -0.00540283 5.998 0
M  V30 2423 H 226.017 0.369231 6.45946 0
M  V30 2424 N 226.149 -1.5696 0.141893 0
M  V30 2425 C 227.389 -1.9785 -0.513304 0
M  V30 2426 C 227.753 -1.02467 -1.62371 0
M  V30 2427 O 228.954 -1.32382 -2.33941 0
M  V30 2428 C 227.225 -3.42797 -1.01118 0
M  V30 2429 S 228.784 -4.05709 -1.67169 0
M  V30 2430 H 225.602 -0.691318 -0.166135 0
M  V30 2431 H 228.204 -1.94114 0.232398 0
M  V30 2432 H 226.908 -4.0995 -0.192179 0
M  V30 2433 H 226.439 -3.50235 -1.79162 0
M  V30 2434 H 228.454 -3.98342 -2.95868 0
M  V30 2435 N 227.627 0.131896 -1.57047 0
M  V30 2436 C 228.904 0.871495 -1.75112 0
M  V30 2437 C 229.284 1.9866 -0.713949 0
M  V30 2438 O 228.632 2.26965 0.264447 0
M  V30 2439 C 228.842 1.40007 -3.19686 0
M  V30 2440 C 230.19 1.85752 -3.81813 0
M  V30 2441 O 231.214 1.49715 -3.23209 0
M  V30 2442 O 230.073 2.5226 -4.84796 0
M  V30 2443 H 227.167 0.412919 -0.716538 0
M  V30 2444 H 229.713 0.116641 -1.69299 0
M  V30 2445 H 228.485 0.599404 -3.86682 0
M  V30 2446 H 228.108 2.218 -3.29986 0
M  V30 2447 N 229.106 1.52395 0.401703 0
M  V30 2448 C 230.336 1.70429 1.1678 0
M  V30 2449 C 230.744 0.416702 1.84554 0
M  V30 2450 O 230.087 -0.617697 1.73003 0
M  V30 2451 C 230.149 2.78919 2.26814 0
M  V30 2452 C 229.813 4.20437 1.79113 0
M  V30 2453 C 230.81 5.04028 1.27482 0
M  V30 2454 C 228.495 4.66704 1.85722 0
M  V30 2455 C 230.489 6.31961 0.830913 0
M  V30 2456 C 228.176 5.94625 1.40942 0
M  V30 2457 C 229.174 6.77082 0.897128 0
M  V30 2458 O 228.862 8.02607 0.455822 0
M  V30 2459 H 228.594 0.574272 0.356634 0
M  V30 2460 H 231.148 1.99767 0.477724 0
M  V30 2461 H 229.378 2.44973 2.99207 0
M  V30 2462 H 231.067 2.8548 2.88541 0
M  V30 2463 H 231.833 4.69471 1.21744 0
M  V30 2464 H 227.712 4.0262 2.24539 0
M  V30 2465 H 231.256 6.96271 0.430368 0
M  V30 2466 H 227.153 6.28688 1.46362 0
M  V30 2467 H 227.921 8.16453 0.578457 0
M  V30 2468 N 230.584 -0.659388 1.43143 0
M  V30 2469 C 231.547 -1.75432 1.47501 0
M  V30 2470 C 232.547 -1.56707 0.360512 0
M  V30 2471 O 233.737 -1.62717 0.622002 0
M  V30 2472 C 230.869 -3.14239 1.32162 0
M  V30 2473 H 232.062 -1.7295 2.45006 0
M  V30 2474 H 229.615 -0.870469 1.29817 0
M  V30 2475 H 230.35 -3.22336 0.356401 0
M  V30 2476 H 230.135 -3.29235 2.12948 0
M  V30 2477 H 231.625 -3.94094 1.3813 0
M  V30 2478 N 232.062 -1.29571 -0.897171 0
M  V30 2479 C 233.308 -1.17863 -1.65034 0
M  V30 2480 C 233.641 0.268729 -1.92332 0
M  V30 2481 O 232.916 1.19378 -1.53555 0
M  V30 2482 C 233.199 -1.995 -2.99786 0
M  V30 2483 C 233.052 -3.5239 -2.79538 0
M  V30 2484 C 234.371 -1.82335 -4.00552 0
M  V30 2485 H 231.49 -0.429528 -0.598895 0
M  V30 2486 H 234.132 -1.59072 -1.03905 0
M  V30 2487 H 232.282 -1.64485 -3.51962 0
M  V30 2488 H 233.954 -3.97401 -2.34244 0
M  V30 2489 H 232.197 -3.77187 -2.14273 0
M  V30 2490 H 232.868 -4.04787 -3.75302 0
M  V30 2491 H 235.344 -2.12924 -3.57495 0
M  V30 2492 H 234.22 -2.41801 -4.92771 0
M  V30 2493 H 234.481 -0.779209 -4.35179 0
M  V30 2494 N 233.54 1.10788 -1.12088 0
M  V30 2495 C 234.788 1.8231 -0.872205 0
M  V30 2496 C 235.109 1.85419 0.603709 0
M  V30 2497 O 234.379 1.32963 1.43867 0
M  V30 2498 H 232.959 0.675137 -0.319686 0
M  V30 2499 H 235.621 1.34068 -1.41463 0
M  V30 2500 H 234.717 2.85955 -1.25045 0
M  V30 2501 N 235.018 0.912232 1.28515 0
M  V30 2502 C 235.948 0.416403 2.29757 0
M  V30 2503 C 236.929 -0.515194 1.6211 0
M  V30 2504 O 238.114 -0.423253 1.89532 0
M  V30 2505 C 235.244 -0.34572 3.45575 0
M  V30 2506 C 234.198 0.496599 4.25109 0
M  V30 2507 C 233.524 -0.393771 5.33248 0
M  V30 2508 C 234.824 1.75307 4.92001 0
M  V30 2509 H 236.518 1.26249 2.7148 0
M  V30 2510 H 234.064 0.608515 1.30511 0
M  V30 2511 H 236.017 -0.703422 4.15488 0
M  V30 2512 H 234.741 -1.2257 3.02728 0
M  V30 2513 H 233.4 0.8368 3.56922 0
M  V30 2514 H 233.048 -1.27225 4.86644 0
M  V30 2515 H 232.748 0.166209 5.87365 0
M  V30 2516 H 234.272 -0.747389 6.06009 0
M  V30 2517 H 235.686 1.46437 5.54283 0
M  V30 2518 H 234.083 2.25534 5.56106 0
M  V30 2519 H 235.153 2.48176 4.16577 0
M  V30 2520 N 236.496 -1.42363 0.676048 0
M  V30 2521 C 237.721 -2.06377 0.205705 0
M  V30 2522 C 238.146 -1.50463 -1.12883 0
M  V30 2523 O 237.504 -0.623619 -1.70237 0
M  V30 2524 C 237.552 -3.60277 0.152655 0
M  V30 2525 O 236.656 -4.02935 -0.87845 0
M  V30 2526 H 235.997 -0.655588 0.105359 0
M  V30 2527 H 238.527 -1.82475 0.925412 0
M  V30 2528 H 238.537 -4.07993 -0.0230675 0
M  V30 2529 H 237.212 -4.00346 1.12675 0
M  V30 2530 H 235.789 -3.66764 -0.673668 0
M  V30 2531 N 237.974 -0.419461 -1.51915 0
M  V30 2532 C 239.39 -0.0708431 -1.59443 0
M  V30 2533 C 239.59 1.41796 -1.43164 0
M  V30 2534 O 238.646 2.18596 -1.26381 0
M  V30 2535 C 239.959 -0.574991 -2.95151 0
M  V30 2536 C 241.507 -0.533867 -3.08413 0
M  V30 2537 C 241.982 -1.01469 -4.46618 0
M  V30 2538 N 243.473 -0.971939 -4.52888 0
M  V30 2539 C 244.208 -1.31505 -5.58116 0
M  V30 2540 N 243.704 -1.73014 -6.70849 0
M  V30 2541 N 245.497 -1.23436 -5.48379 0
M  V30 2542 H 237.648 -1.38836 -1.60743 0
M  V30 2543 H 239.911 -0.570998 -0.756747 0
M  V30 2544 H 239.617 -1.61597 -3.12377 0
M  V30 2545 H 239.491 0.00979777 -3.77199 0
M  V30 2546 H 241.878 0.498086 -2.90866 0
M  V30 2547 H 241.959 -1.15484 -2.28248 0
M  V30 2548 H 241.603 -2.04502 -4.6491 0
M  V30 2549 H 241.533 -0.370433 -5.25295 0
M  V30 2550 H 244.024 -0.666893 -3.71969 0
M  V30 2551 H 244.337 -1.97479 -7.47143 0
M  V30 2552 H 242.682 -1.76926 -6.72103 0
M  V30 2553 H 245.873 -0.908869 -4.59192 0
M  V30 2554 H 246.046 -1.50506 -6.30279 0
M  V30 2555 N 239.452 1.56882 -0.150215 0
M  V30 2556 C 240.385 2.12712 0.826358 0
M  V30 2557 C 241.363 1.05154 1.24022 0
M  V30 2558 O 242.547 1.33004 1.33575 0
M  V30 2559 C 239.674 2.64945 2.11002 0
M  V30 2560 C 238.72 3.8468 1.84183 0
M  V30 2561 S 239.553 5.25502 1.02995 0
M  V30 2562 C 240.709 5.81125 2.32474 0
M  V30 2563 H 240.942 2.95214 0.351598 0
M  V30 2564 H 238.475 1.54267 0.0641211 0
M  V30 2565 H 240.433 2.95689 2.84742 0
M  V30 2566 H 239.094 1.82568 2.55593 0
M  V30 2567 H 238.287 4.19482 2.79375 0
M  V30 2568 H 237.889 3.54714 1.1855 0
M  V30 2569 H 240.181 5.92753 3.281 0
M  V30 2570 H 241.124 6.78625 2.02171 0
M  V30 2571 H 241.532 5.09392 2.43269 0
M  V30 2572 N 240.93 -0.123565 1.57115 0
M  V30 2573 C 242.179 -0.830704 1.83799 0
M  V30 2574 C 242.492 -1.81259 0.735158 0
M  V30 2575 O 243.698 -2.56558 0.888278 0
M  V30 2576 C 242.154 -1.52802 3.25852 0
M  V30 2577 C 241.762 -0.587356 4.44133 0
M  V30 2578 C 243.506 -2.22056 3.61789 0
M  V30 2579 C 241.413 -1.28764 5.77212 0
M  V30 2580 H 240.343 -0.313967 0.685522 0
M  V30 2581 H 242.994 -0.0834359 1.8331 0
M  V30 2582 H 241.376 -2.32175 3.20797 0
M  V30 2583 H 242.55 0.172829 4.60476 0
M  V30 2584 H 240.865 -0.00201892 4.164 0
M  V30 2585 H 243.462 -2.75131 4.58483 0
M  V30 2586 H 243.805 -2.99644 2.88997 0
M  V30 2587 H 244.338 -1.49576 3.68608 0
M  V30 2588 H 241.077 -0.55314 6.53162 0
M  V30 2589 H 240.597 -2.01995 5.64764 0
M  V30 2590 H 242.276 -1.8221 6.20813 0
M  V30 2591 N 242.408 -1.52605 -0.393616 0
M  V30 2592 C 243.656 -1.67093 -1.13685 0
M  V30 2593 C 243.977 -0.411011 -1.90619 0
M  V30 2594 O 243.247 0.574491 -1.87287 0
M  V30 2595 H 241.827 -0.615923 -0.422668 0
M  V30 2596 H 244.489 -1.89704 -0.447039 0
M  V30 2597 H 243.585 -2.51922 -1.84232 0
M  V30 2598 N 243.887 0.651787 -1.4349 0
M  V30 2599 C 245.135 1.40888 -1.44897 0
M  V30 2600 C 245.456 1.94856 -0.0749086 0
M  V30 2601 O 244.726 1.74518 0.889956 0
M  V30 2602 H 243.306 0.522887 -0.533478 0
M  V30 2603 H 245.968 0.768609 -1.79104 0
M  V30 2604 H 245.064 2.25052 -2.16236 0
M  V30 2605 N 245.365 1.30045 0.890287 0
M  V30 2606 C 246.776 1.16738 1.45702 0
M  V30 2607 C 247.127 -0.233939 1.948 0
M  V30 2608 O 246.252 -1.13021 1.84541 0
M  V30 2609 C 246.847 2.11313 2.64825 0
M  V30 2610 C 245.406 2.02001 3.17604 0
M  V30 2611 C 244.553 2.01699 1.90296 0
M  V30 2612 H 247.504 1.42392 0.700726 0
M  V30 2613 H 247.525 1.69086 3.40867 0
M  V30 2614 H 247.037 3.13294 2.2906 0
M  V30 2615 H 245.138 1.03142 3.5804 0
M  V30 2616 H 245.251 2.90128 3.81264 0
M  V30 2617 H 243.615 1.46427 2.08402 0
M  V30 2618 H 244.398 3.05402 1.56795 0
M  V30 2619 N 246.843 -1.10192 1.12674 0
M  V30 2620 C 248.092 -1.81573 0.8783 0
M  V30 2621 C 248.405 -1.86249 -0.597557 0
M  V30 2622 O 249.611 -2.5386 -0.962681 0
M  V30 2623 C 248.067 -3.26149 1.52167 0
M  V30 2624 C 247.675 -3.29763 3.03249 0
M  V30 2625 C 249.419 -4.0234 1.3536 0
M  V30 2626 C 247.326 -4.68815 3.60508 0
M  V30 2627 H 246.256 -0.680394 0.324931 0
M  V30 2628 H 248.907 -1.23902 1.35353 0
M  V30 2629 H 247.289 -3.83832 0.974104 0
M  V30 2630 H 248.463 -2.8189 3.6452 0
M  V30 2631 H 246.778 -2.67059 3.19481 0
M  V30 2632 H 249.375 -5.05058 1.75559 0
M  V30 2633 H 249.718 -4.15235 0.297554 0
M  V30 2634 H 250.251 -3.51079 1.87052 0
M  V30 2635 H 246.99 -4.61121 4.65884 0
M  V30 2636 H 246.51 -5.17045 3.04014 0
M  V30 2637 H 248.189 -5.37785 3.59717 0
M  V30 2638 N 248.321 -0.919034 -1.28029 0
M  V30 2639 C 249.251 -0.428581 -2.29533 0
M  V30 2640 C 250.232 0.50659 -1.62381 0
M  V30 2641 O 251.417 0.413195 -1.89753 0
M  V30 2642 C 248.547 0.327388 -3.45753 0
M  V30 2643 C 247.501 -0.519137 -4.2484 0
M  V30 2644 C 246.827 0.365486 -5.33449 0
M  V30 2645 C 248.127 -1.77914 -4.91064 0
M  V30 2646 H 249.821 -1.27687 -2.70807 0
M  V30 2647 H 247.367 -0.615428 -1.30186 0
M  V30 2648 H 249.32 0.681378 -4.15855 0
M  V30 2649 H 248.044 1.20963 -3.03374 0
M  V30 2650 H 246.703 -0.855717 -3.56473 0
M  V30 2651 H 246.351 1.24642 -4.87312 0
M  V30 2652 H 246.051 -0.197356 -5.87268 0
M  V30 2653 H 247.575 0.715241 -6.06396 0
M  V30 2654 H 248.989 -1.49374 -5.53498 0
M  V30 2655 H 247.386 -2.2848 -5.54903 0
M  V30 2656 H 248.456 -2.50382 -4.15255 0
M  V30 2657 N 249.799 1.42003 -0.683588 0
M  V30 2658 C 251.21 1.84501 -0.285736 0
M  V30 2659 C 251.561 1.57213 1.17382 0
M  V30 2660 O 250.686 1.03642 1.89966 0
M  V30 2661 C 251.281 3.34912 -0.511821 0
M  V30 2662 C 249.84 3.76025 -0.168005 0
M  V30 2663 C 248.987 2.6551 -0.799983 0
M  V30 2664 H 251.938 1.31724 -0.885119 0
M  V30 2665 H 251.959 3.79784 0.233292 0
M  V30 2666 H 251.471 3.54741 -1.57418 0
M  V30 2667 H 249.572 3.61801 0.890567 0
M  V30 2668 H 249.685 4.75141 -0.614661 0
M  V30 2669 H 248.049 2.53654 -0.230568 0
M  V30 2670 H 248.832 2.8816 -1.86597 0
M  V30 2671 N 251.277 0.427512 1.51691 0
M  V30 2672 C 252.502 -0.143601 2.06902 0
M  V30 2673 C 252.927 -1.36536 1.29382 0
M  V30 2674 O 252.285 -1.78289 0.329043 0
M  V30 2675 C 252.333 -0.454207 3.57728 0
M  V30 2676 O 251.437 -1.54228 3.82475 0
M  V30 2677 H 250.778 -0.00617128 0.663971 0
M  V30 2678 H 253.308 0.606014 1.95419 0
M  V30 2679 H 253.318 -0.707525 4.01818 0
M  V30 2680 H 251.993 0.438812 4.13579 0
M  V30 2681 H 250.57 -1.2797 3.50254 0
M  V30 2682 N 252.755 -1.56801 0.158532 0
M  V30 2683 C 253.665 -2.20916 -0.789518 0
M  V30 2684 C 254.681 -1.1969 -1.26294 0
M  V30 2685 O 255.857 -1.52308 -1.31773 0
M  V30 2686 C 252.922 -2.82727 -2.00665 0
M  V30 2687 C 251.983 -3.99114 -1.58134 0
M  V30 2688 C 251.216 -4.57968 -2.74045 0
M  V30 2689 O 251.439 -4.15704 -3.90572 0
M  V30 2690 O 250.373 -5.48047 -2.48855 0
M  V30 2691 H 254.199 -3.02464 -0.273681 0
M  V30 2692 H 251.784 -1.4924 -0.0690548 0
M  V30 2693 H 253.666 -3.21968 -2.71872 0
M  V30 2694 H 252.341 -2.04184 -2.51179 0
M  V30 2695 H 251.248 -3.64567 -0.839155 0
M  V30 2696 H 252.581 -4.79212 -1.12325 0
M  V30 2697 N 254.233 0.115231 -1.57178 0
M  V30 2698 C 255.649 0.468877 -1.52557 0
M  V30 2699 C 255.849 1.81649 -0.872125 0
M  V30 2700 O 254.905 2.48347 -0.45606 0
M  V30 2701 C 256.218 0.4499 -2.97315 0
M  V30 2702 C 257.766 0.533185 -3.08425 0
M  V30 2703 C 258.241 0.54456 -4.54751 0
M  V30 2704 N 259.732 0.605892 -4.5922 0
M  V30 2705 C 260.467 0.636203 -5.6986 0
M  V30 2706 N 259.963 0.623931 -6.89985 0
M  V30 2707 N 261.756 0.679496 -5.57978 0
M  V30 2708 H 253.907 -0.767712 -1.9804 0
M  V30 2709 H 256.17 -0.283609 -0.904583 0
M  V30 2710 H 255.876 -0.472721 -3.48509 0
M  V30 2711 H 255.75 1.27632 -3.5495 0
M  V30 2712 H 258.137 1.44623 -2.57232 0
M  V30 2713 H 258.218 -0.320995 -2.53778 0
M  V30 2714 H 257.862 -0.364452 -5.06591 0
M  V30 2715 H 257.792 1.41568 -5.07214 0
M  V30 2716 H 260.283 0.621386 -3.72756 0
M  V30 2717 H 260.596 0.649787 -7.70063 0
M  V30 2718 H 258.941 0.591296 -6.9248 0
M  V30 2719 H 262.132 0.686472 -4.63039 0
M  V30 2720 H 262.305 0.69965 -6.44212 0
M  V30 2721 N 255.711 1.52812 0.385517 0
M  V30 2722 C 256.936 1.72207 1.15583 0
M  V30 2723 C 257.361 0.441034 1.82857 0
M  V30 2724 O 256.719 -0.603465 1.70962 0
M  V30 2725 C 256.767 2.87476 2.17692 0
M  V30 2726 O 255.871 2.54693 3.24354 0
M  V30 2727 H 255.212 0.572526 0.336319 0
M  V30 2728 H 257.742 1.99618 0.448744 0
M  V30 2729 H 257.752 3.13072 2.6163 0
M  V30 2730 H 256.427 3.80408 1.68115 0
M  V30 2731 H 255.004 2.3985 2.85529 0
M  V30 2732 N 257.189 -0.644168 1.43834 0
M  V30 2733 C 258.437 -1.40117 1.45642 0
M  V30 2734 C 258.758 -1.94814 0.0852413 0
M  V30 2735 O 258.028 -1.74988 -0.880688 0
M  V30 2736 H 256.608 -0.52005 0.536243 0
M  V30 2737 H 259.27 -0.7591 1.7951 0
M  V30 2738 H 258.366 -2.23902 2.17427 0
M  V30 2739 N 258.668 -1.30515 -0.883378 0
M  V30 2740 C 259.618 -1.13641 -1.9766 0
M  V30 2741 C 260.602 -0.0511314 -1.60819 0
M  V30 2742 O 261.794 -0.274623 -1.74857 0
M  V30 2743 C 258.923 -0.831976 -3.33066 0
M  V30 2744 C 258.009 -1.95759 -3.76217 0
M  V30 2745 N 258.4 -3.20313 -3.9145 0
M  V30 2746 C 256.698 -1.85431 -4.05625 0
M  V30 2747 C 257.399 -3.93856 -4.2808 0
M  V30 2748 N 256.375 -3.21919 -4.38029 0
M  V30 2749 H 260.177 -2.08106 -2.07531 0
M  V30 2750 H 257.691 -1.21877 -1.0733 0
M  V30 2751 H 259.688 -0.692102 -4.11115 0
M  V30 2752 H 258.348 0.104588 -3.24532 0
M  V30 2753 H 259.359 -3.55583 -3.76538 0
M  V30 2754 H 256.036 -0.991531 -4.05555 0
M  V30 2755 H 257.426 -5.01125 -4.47575 0
M  V30 2756 N 260.146 1.09593 -1.13257 0
M  V30 2757 C 261.109 2.14359 -0.811358 0
M  V30 2758 C 262.109 1.59808 0.178377 0
M  V30 2759 O 263.299 1.74132 -0.0484911 0
M  V30 2760 C 260.431 3.40269 -0.207276 0
M  V30 2761 H 261.624 2.44284 -1.73969 0
M  V30 2762 H 259.177 1.25102 -0.936973 0
M  V30 2763 H 259.912 3.15969 0.73036 0
M  V30 2764 H 259.697 3.81154 -0.919992 0
M  V30 2765 H 261.187 4.176 0.000667944 0
M  V30 2766 N 261.624 0.925811 1.2754 0
M  V30 2767 C 262.554 0.440748 2.29303 0
M  V30 2768 C 263.535 -0.497971 1.62648 0
M  V30 2769 O 264.72 -0.403126 1.8997 0
M  V30 2770 C 261.85 -0.309048 3.45922 0
M  V30 2771 C 260.804 0.54166 4.24559 0
M  V30 2772 C 260.13 -0.337191 5.33636 0
M  V30 2773 C 261.43 1.80516 4.90114 0
M  V30 2774 H 263.124 1.29121 2.70126 0
M  V30 2775 H 260.67 0.622323 1.29858 0
M  V30 2776 H 262.623 -0.659315 4.1621 0
M  V30 2777 H 261.347 -1.19352 3.04011 0
M  V30 2778 H 260.006 0.874609 3.56014 0
M  V30 2779 H 259.654 -1.22056 4.87966 0
M  V30 2780 H 259.354 0.228497 5.87156 0
M  V30 2781 H 260.878 -0.683072 6.06767 0
M  V30 2782 H 262.292 1.52307 5.52698 0
M  V30 2783 H 260.689 2.3142 5.53683 0
M  V30 2784 H 261.759 2.52581 4.13921 0
M  V30 2785 N 263.102 -1.41638 0.69111 0
M  V30 2786 C 264.351 -2.00526 0.217318 0
M  V30 2787 C 264.664 -1.55353 -1.18848 0
M  V30 2788 O 265.87 -2.06769 -1.75951 0
M  V30 2789 C 264.326 -3.58313 0.337639 0
M  V30 2790 C 263.934 -4.12469 1.74852 0
M  V30 2791 C 265.678 -4.24431 -0.0766066 0
M  V30 2792 C 263.585 -5.62675 1.82074 0
M  V30 2793 H 262.515 -0.750008 0.0774893 0
M  V30 2794 H 265.166 -1.6217 0.858661 0
M  V30 2795 H 263.548 -3.9425 -0.371879 0
M  V30 2796 H 264.722 -3.8796 2.48644 0
M  V30 2797 H 263.037 -3.58861 2.11205 0
M  V30 2798 H 265.634 -5.34683 -0.0430284 0
M  V30 2799 H 265.977 -4.01101 -1.1146 0
M  V30 2800 H 266.51 -3.93512 0.582476 0
M  V30 2801 H 263.249 -5.90826 2.83911 0
M  V30 2802 H 262.769 -5.89124 1.12661 0
M  V30 2803 H 264.448 -6.27371 1.58159 0
M  V30 2804 N 264.58 -0.43555 -1.51462 0
M  V30 2805 C 265.49 0.383001 -2.31453 0
M  V30 2806 C 266.506 1.02931 -1.4029 0
M  V30 2807 O 267.682 1.02507 -1.73362 0
M  V30 2808 C 264.747 1.47043 -3.13973 0
M  V30 2809 C 263.808 0.844433 -4.20913 0
M  V30 2810 C 263.041 1.88004 -4.9949 0
M  V30 2811 O 263.264 3.10199 -4.78678 0
M  V30 2812 O 262.198 1.47157 -5.83634 0
M  V30 2813 H 266.024 -0.269964 -3.02498 0
M  V30 2814 H 263.609 -0.19813 -1.4808 0
M  V30 2815 H 265.491 2.10113 -3.65281 0
M  V30 2816 H 264.166 2.10751 -2.45695 0
M  V30 2817 H 263.073 0.175729 -3.73687 0
M  V30 2818 H 264.406 0.250869 -4.9156 0
M  V30 2819 N 266.058 1.56714 -0.166846 0
M  V30 2820 C 266.99 2.14914 0.796537 0
M  V30 2821 C 268.003 1.10357 1.19688 0
M  V30 2822 O 269.192 1.37561 1.13751 0
M  V30 2823 C 266.292 2.67326 2.08303 0
M  V30 2824 C 265.465 3.96493 1.84696 0
M  V30 2825 C 264.524 4.34014 2.97521 0
M  V30 2826 O 263.55 5.01973 2.6835 0
M  V30 2827 N 264.752 3.95208 4.25196 0
M  V30 2828 H 267.517 2.98205 0.299006 0
M  V30 2829 H 265.078 1.61892 0.0160839 0
M  V30 2830 H 267.07 2.89428 2.82867 0
M  V30 2831 H 265.64 1.88649 2.4926 0
M  V30 2832 H 264.86 3.82814 0.940602 0
M  V30 2833 H 266.148 4.8086 1.66285 0
M  V30 2834 H 265.546 3.40487 4.51758 0
M  V30 2835 H 264.103 4.2232 4.96477 0
M  V30 2836 N 267.536 -0.106894 1.57237 0
M  V30 2837 C 268.782 -0.808678 1.86633 0
M  V30 2838 C 269.137 -1.76917 0.756178 0
M  V30 2839 O 268.43 -1.90055 -0.242834 0
M  V30 2840 C 268.624 -1.58628 3.20268 0
M  V30 2841 C 268.453 -0.702592 4.44178 0
M  V30 2842 C 267.223 -0.352808 5.04067 0
M  V30 2843 C 269.421 -0.0148031 5.14298 0
M  V30 2844 N 267.403 0.540279 6.11518 0
M  V30 2845 C 268.774 0.736809 6.15606 0
M  V30 2846 C 270.829 0.0603524 4.97863 0
M  V30 2847 C 269.532 1.55654 7.02257 0
M  V30 2848 C 271.558 0.866942 5.85011 0
M  V30 2849 C 270.92 1.60671 6.85831 0
M  V30 2850 H 267.019 -0.27246 0.733001 0
M  V30 2851 H 269.603 -0.0717858 1.94568 0
M  V30 2852 H 267.774 -2.29413 3.13408 0
M  V30 2853 H 269.506 -2.23434 3.3743 0
M  V30 2854 H 266.261 -0.697802 4.68431 0
M  V30 2855 H 266.685 0.979029 6.69884 0
M  V30 2856 H 271.327 -0.497236 4.19866 0
M  V30 2857 H 269.045 2.12524 7.79653 0
M  V30 2858 H 272.631 0.927612 5.74358 0
M  V30 2859 H 271.511 2.2208 7.52097 0
M  V30 2860 N 269.014 -1.53014 -0.377408 0
M  V30 2861 C 269.962 -1.7927 -1.48206 0
M  V30 2862 C 270.956 -0.661195 -1.55963 0
M  V30 2863 O 272.162 -0.843908 -1.58991 0
M  V30 2864 H 268.537 -0.567425 -0.493491 0
M  V30 2865 H 270.508 -2.71753 -1.2326 0
M  V30 2866 C 269.257 -1.98894 -2.85196 0
M  V30 2867 H 268.58 -2.85395 -2.79981 0
M  V30 2868 H 270.02 -2.21249 -3.61698 0
M  V30 2869 C 268.479 -0.764691 -3.28107 0
M  V30 2870 O 269.009 0.0523226 -4.01666 0
M  V30 2871 N 267.215 -0.591493 -2.84517 0
M  V30 2872 H 266.762 -1.25749 -2.24822 0
M  V30 2873 H 266.72 0.226253 -3.13585 0
M  V30 2874 N 270.492 0.636531 -1.44174 0
M  V30 2875 C 271.903 1.21806 -1.41493 0
M  V30 2876 C 272.254 1.95785 -0.1275 0
M  V30 2877 O 271.379 2.02147 0.772376 0
M  V30 2878 C 271.974 2.21551 -2.56321 0
M  V30 2879 C 270.533 2.75143 -2.56853 0
M  V30 2880 C 269.68 1.50052 -2.33195 0
M  V30 2881 H 272.631 0.427531 -1.52833 0
M  V30 2882 H 272.652 3.0405 -2.28765 0
M  V30 2883 H 272.164 1.67679 -3.50008 0
M  V30 2884 H 270.265 3.33033 -1.67093 0
M  V30 2885 H 270.378 3.2155 -3.55165 0
M  V30 2886 H 268.742 1.77993 -1.82183 0
M  V30 2887 H 269.525 0.980903 -3.28988 0
M  V30 2888 N 271.97 1.30982 0.876444 0
M  V30 2889 C 273.216 1.20474 1.63138 0
M  V30 2890 C 273.549 -0.238096 1.92735 0
M  V30 2891 O 272.824 -1.1692 1.55435 0
M  V30 2892 C 273.107 2.04244 2.96574 0
M  V30 2893 C 272.96 3.56793 2.73896 0
M  V30 2894 C 274.279 1.88684 3.97601 0
M  V30 2895 H 271.398 0.439001 0.591985 0
M  V30 2896 H 274.04 1.60704 1.01361 0
M  V30 2897 H 272.19 1.70063 3.493 0
M  V30 2898 H 273.862 4.01077 2.27892 0
M  V30 2899 H 272.105 3.80548 2.08245 0
M  V30 2900 H 272.776 4.10706 3.68815 0
M  V30 2901 H 275.252 2.18584 3.54062 0
M  V30 2902 H 274.128 2.4961 4.88862 0
M  V30 2903 H 274.389 0.848343 4.33884 0
M  V30 2904 N 273.449 -1.08991 1.13837 0
M  V30 2905 C 274.697 -1.80899 0.901098 0
M  V30 2906 C 275.018 -1.86356 -0.574134 0
M  V30 2907 O 274.288 -1.35235 -1.41733 0
M  V30 2908 H 272.868 -0.669966 0.330386 0
M  V30 2909 H 275.53 -1.318 1.43578 0
M  V30 2910 H 274.626 -2.83929 1.29578 0
M  V30 2911 N 274.927 -0.932562 -1.27047 0
M  V30 2912 C 275.857 -0.452902 -2.29066 0
M  V30 2913 C 276.838 0.489338 -1.62909 0
M  V30 2914 O 278.023 0.393046 -1.90181 0
M  V30 2915 C 275.153 0.290698 -3.46081 0
M  V30 2916 C 274.107 -0.564168 -4.24265 0
M  V30 2917 C 273.433 0.308886 -5.33807 0
M  V30 2918 C 274.733 -1.83112 -4.89149 0
M  V30 2919 H 276.427 -1.30552 -2.69437 0
M  V30 2920 H 273.973 -0.629201 -1.29526 0
M  V30 2921 H 275.926 0.637233 -4.16554 0
M  V30 2922 H 274.65 1.17738 -3.0464 0
M  V30 2923 H 273.309 -0.893477 -3.55545 0
M  V30 2924 H 272.957 1.19467 -4.88607 0
M  V30 2925 H 272.657 -0.259633 -5.87026 0
M  V30 2926 H 274.181 0.650884 -6.07121 0
M  V30 2927 H 275.595 -1.55236 -5.51883 0
M  V30 2928 H 273.992 -2.34353 -5.52448 0
M  V30 2929 H 275.062 -2.54772 -4.12576 0
M  V30 2930 N 276.405 1.4127 -0.698611 0
M  V30 2931 C 277.651 2.01478 -0.231207 0
M  V30 2932 C 277.984 1.55215 1.16713 0
M  V30 2933 O 277.259 0.764672 1.78838 0
M  V30 2934 C 277.542 3.58912 -0.292281 0
M  V30 2935 C 277.395 4.15293 -1.72778 0
M  V30 2936 C 278.714 4.38736 0.346194 0
M  V30 2937 H 275.833 0.732025 -0.0854878 0
M  V30 2938 H 278.475 1.67977 -0.887906 0
M  V30 2939 H 276.625 3.87582 0.26686 0
M  V30 2940 H 278.297 3.97486 -2.341 0
M  V30 2941 H 276.54 3.7022 -2.26096 0
M  V30 2942 H 277.211 5.24452 -1.72202 0
M  V30 2943 H 279.687 4.15897 -0.130035 0
M  V30 2944 H 278.563 5.48221 0.272932 0
M  V30 2945 H 278.824 4.18425 1.42734 0
M  V30 2946 N 277.883 0.443576 1.51229 0
M  V30 2947 C 279.131 -0.120557 2.0174 0
M  V30 2948 C 279.452 -1.42665 1.32935 0
M  V30 2949 O 278.722 -1.9028 0.465866 0
M  V30 2950 H 277.302 -0.0475426 0.745486 0
M  V30 2951 H 279.964 0.587711 1.85828 0
M  V30 2952 H 279.06 -0.291972 3.10731 0
M  V30 2953 N 279.361 -1.56624 0.175154 0
M  V30 2954 C 280.61 -1.96173 -0.468921 0
M  V30 2955 C 280.923 -1.06401 -1.64128 0
M  V30 2956 O 282.129 -1.35648 -2.35185 0
M  V30 2957 C 280.585 -3.48833 -0.885633 0
M  V30 2958 C 280.193 -4.47237 0.261343 0
M  V30 2959 C 281.937 -3.97194 -1.49791 0
M  V30 2960 C 279.844 -5.9114 -0.175214 0
M  V30 2961 H 278.774 -0.732455 -0.178958 0
M  V30 2962 H 281.425 -1.81591 0.263997 0
M  V30 2963 H 279.807 -3.58848 -1.67464 0
M  V30 2964 H 280.981 -4.4894 1.03871 0
M  V30 2965 H 279.296 -4.08956 0.783827 0
M  V30 2966 H 281.893 -5.02167 -1.83665 0
M  V30 2967 H 282.236 -3.40351 -2.39722 0
M  V30 2968 H 282.769 -3.90212 -0.773267 0
M  V30 2969 H 279.508 -6.51865 0.689414 0
M  V30 2970 H 279.028 -5.92735 -0.91786 0
M  V30 2971 H 280.707 -6.44044 -0.617792 0
M  V30 2972 N 280.839 0.0985539 -1.57292 0
M  V30 2973 C 282.088 0.801358 -1.85098 0
M  V30 2974 C 282.401 1.80066 -0.763902 0
M  V30 2975 O 283.607 2.55112 -0.928981 0
M  V30 2976 C 282.063 1.47599 -3.28242 0
M  V30 2977 C 281.671 0.516624 -4.45011 0
M  V30 2978 C 283.415 2.16272 -3.65276 0
M  V30 2979 C 281.322 1.19564 -5.79188 0
M  V30 2980 H 280.252 0.303022 -0.69043 0
M  V30 2981 H 282.903 0.0542623 -1.8342 0
M  V30 2982 H 281.285 2.27042 -3.2445 0
M  V30 2983 H 282.459 -0.246065 -4.60143 0
M  V30 2984 H 280.774 -0.064227 -4.1635 0
M  V30 2985 H 283.371 2.67802 -4.62803 0
M  V30 2986 H 283.714 2.95009 -2.93727 0
M  V30 2987 H 284.247 1.43693 -3.70941 0
M  V30 2988 H 280.986 0.449157 -6.53959 0
M  V30 2989 H 280.506 1.92984 -5.67906 0
M  V30 2990 H 282.185 1.7231 -6.23633 0
M  V30 2991 N 282.317 1.53212 0.369288 0
M  V30 2992 C 283.545 1.73119 1.13303 0
M  V30 2993 C 283.96 0.458455 1.83149 0
M  V30 2994 O 283.317 -0.568403 1.73423 0
M  V30 2995 C 283.368 2.89413 2.16616 0
M  V30 2996 O 283.089 4.11761 1.49614 0
M  V30 2997 C 284.59 3.21161 3.05566 0
M  V30 2998 H 281.81 0.579107 0.338934 0
M  V30 2999 H 284.354 1.99942 0.429338 0
M  V30 3000 H 282.509 2.64994 2.82589 0
M  V30 3001 H 282.923 4.76858 2.18419 0
M  V30 3002 H 284.397 4.05949 3.74045 0
M  V30 3003 H 284.874 2.36369 3.70171 0
M  V30 3004 H 285.48 3.47492 2.45213 0
M  V30 3005 N 283.795 -0.628877 1.44509 0
M  V30 3006 C 284.758 -1.72263 1.51188 0
M  V30 3007 C 285.758 -1.55907 0.39367 0
M  V30 3008 O 286.948 -1.61361 0.656377 0
M  V30 3009 C 284.08 -3.11365 1.38798 0
M  V30 3010 H 285.273 -1.67714 2.4862 0
M  V30 3011 H 282.826 -0.842737 1.31634 0
M  V30 3012 H 283.561 -3.21507 0.424693 0
M  V30 3013 H 283.346 -3.24644 2.19884 0
M  V30 3014 H 284.836 -3.91075 1.46458 0
M  V30 3015 N 285.273 -1.31445 -0.869486 0
M  V30 3016 C 286.52 -1.21158 -1.62256 0
M  V30 3017 C 286.848 0.230155 -1.93133 0
M  V30 3018 O 286.103 1.17906 -1.56194 0
M  V30 3019 C 286.402 -2.00145 -2.96102 0
M  V30 3020 C 286.068 -3.4964 -2.84715 0
M  V30 3021 C 284.73 -3.90403 -2.81317 0
M  V30 3022 C 287.082 -4.44769 -2.71716 0
M  V30 3023 C 284.41 -5.24561 -2.62778 0
M  V30 3024 C 286.762 -5.79054 -2.54714 0
M  V30 3025 C 285.426 -6.19037 -2.49699 0
M  V30 3026 H 284.696 -0.443348 -0.593737 0
M  V30 3027 H 287.343 -1.62715 -1.00976 0
M  V30 3028 H 285.648 -1.5127 -3.6142 0
M  V30 3029 H 287.345 -1.89566 -3.53363 0
M  V30 3030 H 283.935 -3.17256 -2.88178 0
M  V30 3031 H 288.119 -4.14208 -2.73397 0
M  V30 3032 H 283.375 -5.54613 -2.57321 0
M  V30 3033 H 287.549 -6.52393 -2.43632 0
M  V30 3034 H 285.176 -7.22935 -2.35093 0
M  V30 3035 N 286.751 1.08385 -1.14413 0
M  V30 3036 C 287.699 2.17406 -0.826888 0
M  V30 3037 C 288.693 1.6827 0.195312 0
M  V30 3038 O 289.899 1.79927 0.0513892 0
M  V30 3039 H 286.274 0.70934 -0.249681 0
M  V30 3040 H 288.245 2.41388 -1.75426 0
M  V30 3041 C 286.994 3.46215 -0.320979 0
M  V30 3042 H 286.317 3.84401 -1.0989 0
M  V30 3043 H 287.757 4.23777 -0.137549 0
M  V30 3044 C 286.216 3.23067 0.955472 0
M  V30 3045 O 286.746 3.4668 2.02918 0
M  V30 3046 N 284.952 2.7661 0.890798 0
M  V30 3047 H 284.499 2.57594 0.0168815 0
M  V30 3048 H 284.457 2.61501 1.74542 0
M  V30 3049 N 288.23 0.939286 1.26551 0
M  V30 3050 C 289.477 0.585847 1.9384 0
M  V30 3051 C 289.805 -0.874784 1.73718 0
M  V30 3052 O 289.06 -1.64092 1.06642 0
M  V30 3053 C 289.359 0.872106 3.46596 0
M  V30 3054 C 289.025 2.31632 3.86856 0
M  V30 3055 C 287.687 2.71111 3.97558 0
M  V30 3056 C 290.039 3.25494 4.07066 0
M  V30 3057 C 287.367 4.03553 4.25866 0
M  V30 3058 C 289.719 4.57531 4.36862 0
M  V30 3059 C 288.383 4.96828 4.45778 0
M  V30 3060 H 287.653 0.214377 0.709312 0
M  V30 3061 H 290.3 1.18544 1.50398 0
M  V30 3062 H 288.605 0.18996 3.91339 0
M  V30 3063 H 290.302 0.577442 3.96821 0
M  V30 3064 H 286.892 2.00008 3.79071 0
M  V30 3065 H 291.076 2.9619 3.98227 0
M  V30 3066 H 286.332 4.33665 4.30981 0
M  V30 3067 H 290.506 5.30254 4.51446 0
M  V30 3068 H 288.133 5.99482 4.67468 0
M  V30 3069 N 289.708 -1.40897 0.706093 0
M  V30 3070 C 291.119 -1.84023 0.315052 0
M  V30 3071 C 291.47 -1.5906 -1.14866 0
M  V30 3072 O 290.595 -1.06651 -1.88293 0
M  V30 3073 C 291.19 -3.34055 0.565038 0
M  V30 3074 C 289.749 -3.7571 0.227806 0
M  V30 3075 C 288.896 -2.64204 0.842122 0
M  V30 3076 H 291.847 -1.303 0.905963 0
M  V30 3077 H 291.868 -3.80107 -0.172843 0
M  V30 3078 H 291.38 -3.52192 1.63042 0
M  V30 3079 H 289.481 -3.63172 -0.832895 0
M  V30 3080 H 289.594 -4.74103 0.690174 0
M  V30 3081 H 287.958 -2.53255 0.270893 0
M  V30 3082 H 288.741 -2.85155 1.91158 0
M  V30 3083 N 291.186 -0.45159 -1.50991 0
M  V30 3084 C 292.432 0.110237 -2.025 0
M  V30 3085 C 292.765 1.41109 -1.33424 0
M  V30 3086 O 292.04 1.89135 -0.453659 0
M  V30 3087 C 292.323 0.314271 -3.58726 0
M  V30 3088 C 292.176 -1.00623 -4.38401 0
M  V30 3089 C 293.495 1.07767 -4.26702 0
M  V30 3090 H 290.614 0.0385897 -0.735989 0
M  V30 3091 H 293.256 -0.593374 -1.80497 0
M  V30 3092 H 291.406 0.913601 -3.77605 0
M  V30 3093 H 293.078 -1.64064 -4.31139 0
M  V30 3094 H 291.321 -1.6075 -4.02917 0
M  V30 3095 H 291.992 -0.817341 -5.45915 0
M  V30 3096 H 294.468 0.56986 -4.12179 0
M  V30 3097 H 293.344 1.18921 -5.35863 0
M  V30 3098 H 293.605 2.10939 -3.88532 0
M  V30 3099 N 292.664 1.56529 -0.183458 0
M  V30 3100 C 293.627 2.17324 0.728223 0
M  V30 3101 C 294.627 1.12453 1.14939 0
M  V30 3102 O 295.817 1.37902 1.06437 0
M  V30 3103 C 292.949 2.76591 1.99274 0
M  V30 3104 H 294.142 2.99241 0.198772 0
M  V30 3105 H 291.695 1.5616 0.0661391 0
M  V30 3106 H 292.43 1.98441 2.56499 0
M  V30 3107 H 292.215 3.5335 1.69959 0
M  V30 3108 H 293.705 3.23311 2.6431 0
M  V30 3109 N 294.142 -0.090211 1.57342 0
M  V30 3110 C 295.388 -0.793982 1.86611 0
M  V30 3111 C 295.721 -1.78142 0.773252 0
M  V30 3112 O 294.996 -1.93271 -0.218304 0
M  V30 3113 C 295.279 -1.51839 3.26523 0
M  V30 3114 C 295.132 -0.548609 4.46442 0
M  V30 3115 C 296.451 -2.46779 3.64401 0
M  V30 3116 H 293.57 -0.287186 0.678744 0
M  V30 3117 H 296.212 -0.0575076 1.89913 0
M  V30 3118 H 294.362 -2.14617 3.23839 0
M  V30 3119 H 296.034 0.0725513 4.61243 0
M  V30 3120 H 294.277 0.137614 4.33582 0
M  V30 3121 H 294.948 -1.09271 5.41076 0
M  V30 3122 H 297.424 -1.94089 3.68061 0
M  V30 3123 H 296.3 -2.94479 4.63221 0
M  V30 3124 H 296.561 -3.30758 2.93346 0
M  V30 3125 N 295.62 -1.53406 -0.361157 0
M  V30 3126 C 296.85 -1.73465 -1.1222 0
M  V30 3127 C 297.258 -0.465486 -1.83384 0
M  V30 3128 O 296.601 0.571611 -1.7458 0
M  V30 3129 C 296.663 -2.84834 -2.19339 0
M  V30 3130 C 296.327 -4.25038 -1.67903 0
M  V30 3131 C 297.324 -5.07231 -1.14074 0
M  V30 3132 C 295.009 -4.71464 -1.73282 0
M  V30 3133 C 297.003 -6.33942 -0.663068 0
M  V30 3134 C 294.69 -5.98153 -1.25127 0
M  V30 3135 C 295.688 -6.79223 -0.717296 0
M  V30 3136 O 295.376 -8.03533 -0.242865 0
M  V30 3137 H 295.108 -0.583526 -0.341283 0
M  V30 3138 H 297.662 -2.00964 -0.424591 0
M  V30 3139 H 295.892 -2.5282 -2.92607 0
M  V30 3140 H 297.581 -2.9303 -2.80871 0
M  V30 3141 H 298.347 -4.72534 -1.09254 0
M  V30 3142 H 294.226 -4.08432 -2.13786 0
M  V30 3143 H 297.77 -6.97167 -0.245612 0
M  V30 3144 H 293.667 -6.32347 -1.29642 0
M  V30 3145 H 294.435 -8.177 -0.361786 0
M  V30 3146 N 297.098 0.621204 -1.44841 0
M  V30 3147 C 298.346 1.37783 -1.47852 0
M  V30 3148 C 298.667 1.94653 -0.116224 0
M  V30 3149 O 297.937 1.76367 0.852737 0
M  V30 3150 H 296.517 0.511453 -0.544449 0
M  V30 3151 H 299.179 0.730446 -1.80694 0
M  V30 3152 H 298.275 2.20414 -2.20961 0
M  V30 3153 N 298.576 1.31904 0.862503 0
M  V30 3154 C 299.822 1.23207 1.61838 0
M  V30 3155 C 300.177 -0.206062 1.91293 0
M  V30 3156 O 299.47 -1.14162 1.53875 0
M  V30 3157 C 299.664 2.01713 2.95037 0
M  V30 3158 C 299.493 3.53014 2.78588 0
M  V30 3159 C 298.263 4.22359 2.77382 0
M  V30 3160 C 300.461 4.47819 2.52909 0
M  V30 3161 N 298.443 5.59766 2.52062 0
M  V30 3162 C 299.814 5.72947 2.36922 0
M  V30 3163 C 301.869 4.37162 2.38314 0
M  V30 3164 C 300.572 6.88623 2.07823 0
M  V30 3165 C 302.598 5.5263 2.10604 0
M  V30 3166 C 301.96 6.76752 1.95411 0
M  V30 3167 H 298.059 0.505984 0.596242 0
M  V30 3168 H 300.643 1.66179 1.01452 0
M  V30 3169 H 298.814 1.61098 3.53415 0
M  V30 3170 H 300.546 1.84975 3.59953 0
M  V30 3171 H 297.301 3.74401 2.90036 0
M  V30 3172 H 297.725 6.32135 2.42352 0
M  V30 3173 H 302.367 3.41857 2.48784 0
M  V30 3174 H 300.085 7.83948 1.9609 0
M  V30 3175 H 303.671 5.46307 2.00101 0
M  V30 3176 H 302.551 7.6459 1.74274 0
M  V30 3177 N 300.054 -1.07777 1.14986 0
M  V30 3178 C 301.002 -2.16964 0.838406 0
M  V30 3179 C 301.996 -1.68372 -0.186386 0
M  V30 3180 O 303.202 -1.79951 -0.0418465 0
M  V30 3181 H 299.577 -0.708006 0.253439 0
M  V30 3182 H 301.548 -2.40454 1.76704 0
M  V30 3183 C 300.297 -3.4604 0.339335 0
M  V30 3184 H 299.62 -3.83813 1.11927 0
M  V30 3185 H 301.06 -4.23698 0.160021 0
M  V30 3186 C 299.519 -3.23569 -0.938325 0
M  V30 3187 O 300.049 -3.47752 -2.01077 0
M  V30 3188 N 298.255 -2.77079 -0.876117 0
M  V30 3189 H 297.802 -2.576 -0.00322037 0
M  V30 3190 H 297.76 -2.62422 -1.73153 0
M  V30 3191 N 301.532 -0.945985 -1.26051 0
M  V30 3192 C 302.48 -0.450259 -2.282 0
M  V30 3193 C 303.474 0.47497 -1.62605 0
M  V30 3194 O 304.68 0.352653 -1.76512 0
M  V30 3195 H 301.055 -0.127081 -0.741184 0
M  V30 3196 H 303.026 -1.32422 -2.67408 0
M  V30 3197 C 301.775 0.26467 -3.46691 0
M  V30 3198 H 301.098 -0.438123 -3.97392 0
M  V30 3199 H 302.538 0.575678 -4.20074 0
M  V30 3200 C 300.997 1.48416 -3.02447 0
M  V30 3201 O 301.527 2.58227 -3.07704 0
M  V30 3202 N 299.733 1.34243 -2.57735 0
M  V30 3203 H 299.28 0.448994 -2.53657 0
M  V30 3204 H 299.238 2.15957 -2.28495 0
M  V30 3205 N 303.011 1.40521 -0.713556 0
M  V30 3206 C 303.974 2.29098 -0.0684347 0
M  V30 3207 C 304.974 1.45268 0.689472 0
M  V30 3208 O 306.164 1.66205 0.521677 0
M  V30 3209 C 303.296 3.28446 0.913024 0
M  V30 3210 H 304.489 2.87645 -0.84855 0
M  V30 3211 H 302.042 1.48809 -0.47809 0
M  V30 3212 H 302.777 2.74913 1.72027 0
M  V30 3213 H 302.562 3.90327 0.372472 0
M  V30 3214 H 304.052 3.94777 1.36165 0
M  V30 3215 N 304.489 0.459591 1.5075 0
M  V30 3216 C 305.738 -0.100971 2.01447 0
M  V30 3217 C 306.051 -1.41816 1.34713 0
M  V30 3218 O 307.257 -2.06299 1.76502 0
M  V30 3219 C 305.713 -0.23047 3.59161 0
M  V30 3220 C 305.321 1.0776 4.34847 0
M  V30 3221 C 307.065 -0.743608 4.17936 0
M  V30 3222 C 304.972 0.91253 5.84317 0
M  V30 3223 H 303.902 -0.0415102 0.752856 0
M  V30 3224 H 306.553 0.592742 1.73663 0
M  V30 3225 H 304.935 -0.987703 3.83485 0
M  V30 3226 H 306.109 1.8449 4.22256 0
M  V30 3227 H 304.424 1.52097 3.87628 0
M  V30 3228 H 307.021 -0.883959 5.27343 0
M  V30 3229 H 307.364 -1.73196 3.78562 0
M  V30 3230 H 307.897 -0.04408 3.97776 0
M  V30 3231 H 304.636 1.87391 6.28144 0
M  V30 3232 H 304.156 0.185422 5.99513 0
M  V30 3233 H 305.835 0.574547 6.44444 0
M  V30 3234 N 305.967 -1.56429 0.191757 0
M  V30 3235 C 306.93 -2.17707 -0.716688 0
M  V30 3236 C 307.93 -1.13061 -1.14341 0
M  V30 3237 O 309.12 -1.38464 -1.05704 0
M  V30 3238 C 306.252 -2.77644 -1.97804 0
M  V30 3239 H 307.445 -2.99342 -0.1829 0
M  V30 3240 H 304.998 -1.56193 -0.0578566 0
M  V30 3241 H 305.733 -1.99799 -2.55443 0
M  V30 3242 H 305.518 -3.54246 -1.68083 0
M  V30 3243 H 307.008 -3.24708 -2.62592 0
M  V30 3244 N 307.445 0.0818655 -1.57387 0
M  V30 3245 C 308.378 1.12986 -1.98266 0
M  V30 3246 C 309.356 1.38123 -0.857954 0
M  V30 3247 O 310.54 1.51663 -1.1194 0
M  V30 3248 C 307.667 2.47632 -2.31076 0
M  V30 3249 C 306.713 2.38693 -3.53452 0
M  V30 3250 S 307.546 1.79071 -5.04672 0
M  V30 3251 C 308.702 3.15316 -5.40673 0
M  V30 3252 H 308.935 0.781435 -2.86846 0
M  V30 3253 H 306.468 0.290034 -1.51651 0
M  V30 3254 H 308.426 3.25089 -2.50654 0
M  V30 3255 H 307.087 2.79638 -1.43043 0
M  V30 3256 H 306.28 3.37964 -3.73893 0
M  V30 3257 H 305.882 1.69369 -3.33452 0
M  V30 3258 H 308.174 4.11613 -5.38127 0
M  V30 3259 H 309.117 2.99664 -6.41566 0
M  V30 3260 H 309.525 3.15457 -4.68132 0
M  V30 3261 N 308.923 1.53595 0.353017 0
M  V30 3262 C 310.172 1.69603 1.09168 0
M  V30 3263 C 310.485 0.460925 1.90092 0
M  V30 3264 O 311.691 0.501774 2.66823 0
M  V30 3265 C 310.147 2.99872 1.9901 0
M  V30 3266 C 309.755 4.30687 1.23339 0
M  V30 3267 C 311.499 3.25246 2.72792 0
M  V30 3268 C 309.406 5.52036 2.12156 0
M  V30 3269 H 308.336 0.631966 0.411261 0
M  V30 3270 H 310.987 1.80096 0.351802 0
M  V30 3271 H 309.369 2.83212 2.7678 0
M  V30 3272 H 310.543 4.58019 0.505456 0
M  V30 3273 H 308.858 4.11853 0.613663 0
M  V30 3274 H 311.455 4.13095 3.39495 0
M  V30 3275 H 311.798 2.41846 3.38846 0
M  V30 3276 H 312.331 3.42638 2.021 0
M  V30 3277 H 309.07 6.37951 1.50659 0
M  V30 3278 H 308.59 5.28966 2.82764 0
M  V30 3279 H 310.269 5.87313 2.71427 0
M  V30 3280 N 310.401 -0.613514 1.45168 0
M  V30 3281 C 311.641 -1.38405 1.5041 0
M  V30 3282 C 312.005 -1.91489 0.139922 0
M  V30 3283 O 313.206 -2.68716 0.067033 0
M  V30 3284 C 311.477 -2.50552 2.5487 0
M  V30 3285 S 313.036 -3.38439 2.79292 0
M  V30 3286 H 309.854 -0.471945 0.531779 0
M  V30 3287 H 312.456 -0.708518 1.82209 0
M  V30 3288 H 311.16 -2.09894 3.52665 0
M  V30 3289 H 310.691 -3.22913 2.24701 0
M  V30 3290 H 312.706 -4.48527 2.12222 0
M  V30 3291 N 311.879 -1.3236 -0.855495 0
M  V30 3292 C 313.127 -1.22629 -1.60644 0
M  V30 3293 C 313.448 0.212136 -1.93843 0
M  V30 3294 O 312.718 1.13666 -1.59552 0
M  V30 3295 H 311.298 -0.450882 -0.595579 0
M  V30 3296 H 313.96 -1.65871 -1.02337 0
M  V30 3297 H 313.056 -1.80832 -2.54374 0
M  V30 3298 N 313.357 1.07166 -1.15556 0
M  V30 3299 C 314.305 2.16517 -0.8499 0
M  V30 3300 C 315.299 1.68468 0.177454 0
M  V30 3301 O 316.505 1.79971 0.0323026 0
M  V30 3302 H 312.88 0.706652 -0.25719 0
M  V30 3303 H 314.851 2.39514 -1.77976 0
M  V30 3304 C 313.6 3.45855 -0.357682 0
M  V30 3305 H 312.923 3.83214 -1.13961 0
M  V30 3306 H 314.363 4.23607 -0.182489 0
M  V30 3307 C 312.822 3.24062 0.921152 0
M  V30 3308 O 313.352 3.48813 1.9923 0
M  V30 3309 N 311.558 2.77539 0.86141 0
M  V30 3310 H 311.105 2.57598 -0.0104408 0
M  V30 3311 H 311.063 2.63337 1.71758 0
M  V30 3312 N 314.835 0.952656 1.25548 0
M  V30 3313 C 316.081 0.607272 1.93494 0
M  V30 3314 C 316.414 -0.853245 1.74452 0
M  V30 3315 O 315.689 -1.61194 1.08843 0
M  V30 3316 C 315.972 0.96435 3.46947 0
M  V30 3317 C 315.825 2.48045 3.75225 0
M  V30 3318 C 317.144 0.487987 4.37386 0
M  V30 3319 H 314.263 0.222096 0.702739 0
M  V30 3320 H 316.905 1.18895 1.48203 0
M  V30 3321 H 315.055 0.469361 3.85654 0
M  V30 3322 H 316.727 3.04905 3.46166 0
M  V30 3323 H 314.97 2.919 3.209 0
M  V30 3324 H 315.641 2.6808 4.82532 0
M  V30 3325 H 318.117 0.912558 4.0597 0
M  V30 3326 H 316.993 0.766547 5.43521 0
M  V30 3327 H 317.254 -0.612063 4.37843 0
M  V30 3328 N 316.313 -1.40141 0.720998 0
M  V30 3329 C 317.553 -2.02644 0.267335 0
M  V30 3330 C 317.917 -1.55948 -1.12001 0
M  V30 3331 O 319.118 -2.10552 -1.67097 0
M  V30 3332 C 317.389 -3.55679 0.350281 0
M  V30 3333 S 318.948 -4.38793 -0.0256004 0
M  V30 3334 H 315.766 -0.703105 0.105664 0
M  V30 3335 H 318.368 -1.71175 0.944416 0
M  V30 3336 H 317.072 -3.87157 1.36153 0
M  V30 3337 H 316.603 -3.91883 -0.345096 0
M  V30 3338 H 318.618 -4.803 -1.24604 0
M  V30 3339 N 317.792 -0.46758 -1.50504 0
M  V30 3340 C 318.722 0.318381 -2.31319 0
M  V30 3341 C 319.703 0.993564 -1.38066 0
M  V30 3342 O 320.888 0.991411 -1.66987 0
M  V30 3343 C 318.018 1.40275 -3.17711 0
M  V30 3344 C 316.972 0.849373 -4.19487 0
M  V30 3345 C 316.298 2.03177 -4.94594 0
M  V30 3346 C 317.598 -0.136942 -5.2212 0
M  V30 3347 H 319.292 -0.356106 -2.97275 0
M  V30 3348 H 316.838 -0.172703 -1.42961 0
M  V30 3349 H 318.791 1.96004 -3.73042 0
M  V30 3350 H 317.515 2.10596 -2.49634 0
M  V30 3351 H 316.174 0.314076 -3.65252 0
M  V30 3352 H 315.822 2.72187 -4.22993 0
M  V30 3353 H 315.522 1.66774 -5.63436 0
M  V30 3354 H 317.046 2.59403 -5.52759 0
M  V30 3355 H 318.46 0.331056 -5.72343 0
M  V30 3356 H 316.857 -0.41507 -5.98663 0
M  V30 3357 H 317.927 -1.06398 -4.73083 0
M  V30 3358 N 319.27 1.56325 -0.20005 0
M  V30 3359 C 320.516 1.98772 0.431408 0
M  V30 3360 C 320.871 1.0849 1.58895 0
M  V30 3361 O 320.164 0.130331 1.91156 0
M  V30 3362 C 320.358 3.4495 0.935103 0
M  V30 3363 C 320.187 4.49371 -0.172096 0
M  V30 3364 C 318.957 5.0134 -0.631377 0
M  V30 3365 C 321.155 5.04822 -0.982806 0
M  V30 3366 N 319.137 5.89433 -1.71588 0
M  V30 3367 C 320.508 5.89632 -1.91661 0
M  V30 3368 C 322.563 4.87242 -1.02467 0
M  V30 3369 C 321.266 6.58741 -2.88881 0
M  V30 3370 C 323.292 5.57094 -1.98494 0
M  V30 3371 C 322.654 6.41655 -2.90617 0
M  V30 3372 H 318.753 0.771922 0.125144 0
M  V30 3373 H 321.337 1.92266 -0.306883 0
M  V30 3374 H 319.508 3.51946 1.64282 0
M  V30 3375 H 321.24 3.74354 1.53758 0
M  V30 3376 H 317.995 4.73071 -0.223827 0
M  V30 3377 H 318.419 6.38182 -2.25948 0
M  V30 3378 H 323.061 4.21538 -0.326408 0
M  V30 3379 H 320.779 7.23641 -3.5968 0
M  V30 3380 H 324.365 5.45466 -2.0238 0
M  V30 3381 H 323.245 6.94755 -3.63711 0
M  V30 3382 N 320.748 -0.0735177 1.57428 0
M  V30 3383 C 321.695 -1.08756 2.0357 0
M  V30 3384 C 322.665 -1.38559 0.916 0
M  V30 3385 O 323.85 -1.49656 1.18354 0
M  V30 3386 C 320.99 -2.39657 2.48311 0
M  V30 3387 C 320.103 -2.16399 3.73892 0
M  V30 3388 C 319.238 -3.40852 4.07423 0
M  V30 3389 C 318.277 -3.1295 5.2605 0
M  V30 3390 N 317.414 -4.29729 5.55228 0
M  V30 3391 H 322.254 -0.687104 2.8997 0
M  V30 3392 H 319.791 -0.327709 1.43403 0
M  V30 3393 H 321.749 -3.16081 2.72303 0
M  V30 3394 H 320.379 -2.77508 1.64891 0
M  V30 3395 H 319.431 -1.30676 3.57251 0
M  V30 3396 H 320.743 -1.91788 4.60455 0
M  V30 3397 H 319.897 -4.25671 4.32306 0
M  V30 3398 H 318.636 -3.68537 3.19425 0
M  V30 3399 H 317.641 -2.26526 5.00965 0
M  V30 3400 H 318.866 -2.86589 6.15665 0
M  V30 3401 H 316.812 -4.57448 4.70188 0
M  V30 3402 H 316.729 -4.08385 6.36206 0
M  V30 3403 H 317.997 -5.1555 5.84661 0
M  V30 3404 N 322.226 -1.5378 -0.344866 0
M  V30 3405 C 323.474 -1.70625 -1.08311 0
M  V30 3406 C 323.795 -0.471447 -1.89215 0
M  V30 3407 O 323.065 0.514616 -1.8902 0
M  V30 3408 H 321.645 -0.629058 -0.402859 0
M  V30 3409 H 324.307 -1.9103 -0.386459 0
M  V30 3410 H 323.403 -2.57656 -1.76124 0
M  V30 3411 N 323.704 0.605807 -1.45491 0
M  V30 3412 C 324.667 1.69836 -1.5391 0
M  V30 3413 C 325.667 1.55261 -0.418424 0
M  V30 3414 O 326.857 1.60296 -0.681965 0
M  V30 3415 C 323.989 3.09117 -1.43734 0
M  V30 3416 H 325.182 1.63738 -2.51257 0
M  V30 3417 H 322.735 0.821689 -1.32959 0
M  V30 3418 H 323.47 3.20791 -0.475788 0
M  V30 3419 H 323.255 3.21104 -2.25021 0
M  V30 3420 H 324.745 3.88696 -1.52661 0
M  V30 3421 N 325.182 1.32811 0.848464 0
M  V30 3422 C 326.593 1.21315 1.41914 0
M  V30 3423 C 326.944 -0.171847 1.95446 0
M  V30 3424 O 326.069 -1.07093 1.88043 0
M  V30 3425 C 326.664 2.19631 2.57968 0
M  V30 3426 C 325.223 2.12003 3.11017 0
M  V30 3427 C 324.37 2.07651 1.83783 0
M  V30 3428 H 327.321 1.44549 0.655071 0
M  V30 3429 H 327.342 1.79845 3.35315 0
M  V30 3430 H 326.854 3.20423 2.18976 0
M  V30 3431 H 324.955 1.14481 3.54577 0
M  V30 3432 H 325.068 3.02111 3.71841 0
M  V30 3433 H 323.432 1.52983 2.03638 0
M  V30 3434 H 324.215 3.10235 1.47 0
M  V30 3435 N 326.66 -1.06551 1.16123 0
M  V30 3436 C 327.888 -1.83005 0.965237 0
M  V30 3437 C 328.303 -1.82423 -0.486542 0
M  V30 3438 O 327.66 -1.24152 -1.33763 0
M  V30 3439 C 327.711 -3.29733 1.48183 0
M  V30 3440 O 327.432 -3.30416 2.87674 0
M  V30 3441 C 328.933 -4.22926 1.32848 0
M  V30 3442 H 326.153 -0.577118 0.342309 0
M  V30 3443 H 328.697 -1.3445 1.54089 0
M  V30 3444 H 326.852 -3.75609 0.948517 0
M  V30 3445 H 327.266 -4.22149 3.11272 0
M  V30 3446 H 328.74 -5.23916 1.73827 0
M  V30 3447 H 329.217 -4.38346 0.273692 0
M  V30 3448 H 329.823 -3.82894 1.85127 0
M  V30 3449 N 328.138 -0.959301 -1.25041 0
M  V30 3450 C 329.366 -0.633949 -1.96948 0
M  V30 3451 C 329.781 0.794916 -1.7125 0
M  V30 3452 O 329.138 1.53231 -0.991287 0
M  V30 3453 C 329.189 -0.888805 -3.50403 0
M  V30 3454 O 328.91 -2.26149 -3.75218 0
M  V30 3455 C 330.411 -0.576482 -4.39536 0
M  V30 3456 H 327.631 -0.237263 -0.627652 0
M  V30 3457 H 330.175 -1.28495 -1.59089 0
M  V30 3458 H 328.33 -0.284145 -3.86357 0
M  V30 3459 H 328.744 -2.33514 -4.6965 0
M  V30 3460 H 330.218 -0.805314 -5.46094 0
M  V30 3461 H 330.695 0.489075 -4.36468 0
M  V30 3462 H 331.301 -1.16067 -4.09156 0
M  V30 3463 N 329.616 1.39756 -0.72842 0
M  V30 3464 C 330.841 2.05472 -0.282159 0
M  V30 3465 C 331.266 1.54549 1.07221 0
M  V30 3466 O 330.624 0.686372 1.67805 0
M  V30 3467 C 330.672 3.59462 -0.286264 0
M  V30 3468 O 329.776 4.05918 0.728298 0
M  V30 3469 H 329.117 0.651226 -0.129618 0
M  V30 3470 H 331.647 1.78915 -0.992499 0
M  V30 3471 H 331.657 4.07798 -0.128373 0
M  V30 3472 H 330.332 3.95889 -1.27456 0
M  V30 3473 H 328.909 3.69012 0.537081 0
M  V30 3474 N 331.094 0.475555 1.50254 0
M  V30 3475 C 332.024 -0.30611 2.31485 0
M  V30 3476 C 333.005 -0.986228 1.38591 0
M  V30 3477 O 334.19 -0.982541 1.67511 0
M  V30 3478 C 331.32 -1.38588 3.1845 0
M  V30 3479 C 330.274 -0.827115 4.19932 0
M  V30 3480 C 329.6 -2.00551 4.95665 0
M  V30 3481 C 330.9 0.16463 5.2204 0
M  V30 3482 H 332.594 0.371866 2.97082 0
M  V30 3483 H 330.14 0.180282 1.42867 0
M  V30 3484 H 332.093 -1.94023 3.74076 0
M  V30 3485 H 330.817 -2.09269 2.50747 0
M  V30 3486 H 329.476 -0.294702 3.65414 0
M  V30 3487 H 329.124 -2.6994 4.2443 0
M  V30 3488 H 328.824 -1.63784 5.64313 0
M  V30 3489 H 330.348 -2.56468 5.54127 0
M  V30 3490 H 331.762 -0.300699 5.72511 0
M  V30 3491 H 330.159 0.446813 5.98434 0
M  V30 3492 H 331.229 1.08905 4.72512 0
M  V30 3493 N 332.573 -1.56217 0.208337 0
M  V30 3494 C 333.822 -1.97124 -0.427204 0
M  V30 3495 C 334.135 -1.09859 -1.61835 0
M  V30 3496 O 335.341 -1.40606 -2.32255 0
M  V30 3497 C 333.797 -3.50633 -0.811442 0
M  V30 3498 C 333.405 -4.46582 0.35615 0
M  V30 3499 C 335.149 -4.00282 -1.41332 0
M  V30 3500 C 333.056 -5.91379 -0.0497852 0
M  V30 3501 H 331.986 -0.736086 -0.163381 0
M  V30 3502 H 334.637 -1.8099 0.302456 0
M  V30 3503 H 333.019 -3.62319 -1.59815 0
M  V30 3504 H 334.193 -4.46636 1.1337 0
M  V30 3505 H 332.508 -4.07202 0.870396 0
M  V30 3506 H 335.105 -5.0595 -1.72972 0
M  V30 3507 H 335.448 -3.45359 -2.32449 0
M  V30 3508 H 335.981 -3.91764 -0.690323 0
M  V30 3509 H 332.72 -6.50255 0.827529 0
M  V30 3510 H 332.24 -5.94549 -0.791926 0
M  V30 3511 H 333.919 -6.45209 -0.481042 0
M  V30 3512 N 334.051 0.0651679 -1.57465 0
M  V30 3513 C 335.276 0.779605 -1.9219 0
M  V30 3514 C 335.701 1.69988 -0.805333 0
M  V30 3515 O 335.059 1.79685 0.241435 0
M  V30 3516 C 335.107 1.54364 -3.2589 0
M  V30 3517 O 334.211 2.65474 -3.1559 0
M  V30 3518 H 333.552 0.212249 -0.629163 0
M  V30 3519 H 336.082 0.0314294 -2.04576 0
M  V30 3520 H 336.092 1.92146 -3.59922 0
M  V30 3521 H 334.767 0.868457 -4.06732 0
M  V30 3522 H 333.344 2.30501 -2.93128 0
M  V30 3523 N 335.529 1.53961 0.336706 0
M  V30 3524 C 336.775 1.7179 1.07777 0
M  V30 3525 C 337.108 0.483263 1.88091 0
M  V30 3526 O 336.383 -0.519747 1.87427 0
M  V30 3527 C 336.666 2.98558 2.01334 0
M  V30 3528 C 336.519 4.32245 1.24437 0
M  V30 3529 C 337.838 3.21023 3.01052 0
M  V30 3530 H 334.957 0.625089 0.390426 0
M  V30 3531 H 337.599 1.86641 0.35567 0
M  V30 3532 H 335.749 2.86028 2.62908 0
M  V30 3533 H 337.421 4.56637 0.654243 0
M  V30 3534 H 335.664 4.30344 0.546458 0
M  V30 3535 H 336.335 5.17137 1.93063 0
M  V30 3536 H 338.811 3.32929 2.49595 0
M  V30 3537 H 337.687 4.11104 3.6371 0
M  V30 3538 H 337.948 2.37637 3.72802 0
M  V30 3539 N 337.007 -0.598083 1.45811 0
M  V30 3540 C 337.97 -1.69018 1.54808 0
M  V30 3541 C 338.97 -1.55037 0.426652 0
M  V30 3542 O 340.16 -1.59932 0.690456 0
M  V30 3543 C 337.292 -3.0835 1.45371 0
M  V30 3544 H 338.485 -1.62403 2.52121 0
M  V30 3545 H 336.038 -0.814626 1.33392 0
M  V30 3546 H 336.773 -3.20534 0.492793 0
M  V30 3547 H 336.558 -3.19907 2.26721 0
M  V30 3548 H 338.048 -3.8788 1.54721 0
M  V30 3549 N 338.485 -1.33259 -0.841409 0
M  V30 3550 C 339.731 -1.24757 -1.59886 0
M  V30 3551 C 340.064 0.186913 -1.93298 0
M  V30 3552 O 339.339 1.12757 -1.5848 0
M  V30 3553 C 339.622 -2.12036 -2.91055 0
M  V30 3554 C 339.475 -3.63929 -2.6434 0
M  V30 3555 C 340.794 -1.9916 -3.92458 0
M  V30 3556 H 337.913 -0.454542 -0.580138 0
M  V30 3557 H 340.555 -1.63335 -0.970647 0
M  V30 3558 H 338.705 -1.79265 -3.44669 0
M  V30 3559 H 340.377 -4.06978 -2.17178 0
M  V30 3560 H 338.62 -3.85935 -1.98082 0
M  V30 3561 H 339.291 -4.20341 -3.57796 0
M  V30 3562 H 341.767 -2.27895 -3.48143 0
M  V30 3563 H 340.643 -2.62484 -4.82072 0
M  V30 3564 H 340.904 -0.963082 -4.31482 0
M  V30 3565 N 339.963 1.05934 -1.16686 0
M  V30 3566 C 341.191 1.8249 -0.974929 0
M  V30 3567 C 341.606 1.82679 0.476861 0
M  V30 3568 O 340.963 1.2486 1.33103 0
M  V30 3569 C 341.014 3.28943 -1.49929 0
M  V30 3570 O 340.735 3.28886 -2.89423 0
M  V30 3571 C 342.236 4.22215 -1.35089 0
M  V30 3572 H 339.456 0.575295 -0.345365 0
M  V30 3573 H 342 1.33631 -1.548 0
M  V30 3574 H 340.155 3.751 -0.968423 0
M  V30 3575 H 340.569 4.20493 -3.13506 0
M  V30 3576 H 342.043 5.22987 -1.76603 0
M  V30 3577 H 342.52 4.38195 -0.296935 0
M  V30 3578 H 343.126 3.81907 -1.87155 0
M  V30 3579 N 341.441 0.965919 1.2453 0
M  V30 3580 C 342.388 0.49402 2.25451 0
M  V30 3581 C 343.358 -0.45948 1.59618 0
M  V30 3582 O 344.543 -0.370238 1.87173 0
M  V30 3583 C 341.683 -0.211359 3.44452 0
M  V30 3584 C 340.796 0.7807 4.24887 0
M  V30 3585 C 339.931 0.0516105 5.31175 0
M  V30 3586 C 338.97 1.03385 6.03306 0
M  V30 3587 N 338.107 0.334887 7.01301 0
M  V30 3588 H 342.947 1.35946 2.65184 0
M  V30 3589 H 340.484 0.681515 1.3036 0
M  V30 3590 H 342.442 -0.637 4.12308 0
M  V30 3591 H 341.072 -1.04077 3.05562 0
M  V30 3592 H 340.124 1.32479 3.56586 0
M  V30 3593 H 341.436 1.52978 4.74762 0
M  V30 3594 H 340.59 -0.432114 6.05159 0
M  V30 3595 H 339.329 -0.730179 4.82203 0
M  V30 3596 H 338.334 1.52847 5.28127 0
M  V30 3597 H 339.559 1.81606 6.54367 0
M  V30 3598 H 337.505 -0.427959 6.54603 0
M  V30 3599 H 337.422 1.02287 7.49048 0
M  V30 3600 H 338.69 -0.126928 7.79397 0
M  V30 3601 N 342.919 -1.39368 0.735821 0
M  V30 3602 C 344.168 -1.99733 0.281004 0
M  V30 3603 C 344.481 -1.59055 -1.13846 0
M  V30 3604 O 345.687 -2.12262 -1.69284 0
M  V30 3605 C 344.143 -3.57057 0.451462 0
M  V30 3606 C 343.751 -4.06697 1.87886 0
M  V30 3607 C 345.495 -4.2446 0.0584616 0
M  V30 3608 C 343.402 -5.56598 1.99883 0
M  V30 3609 H 342.332 -0.747163 0.101311 0
M  V30 3610 H 344.983 -1.59357 0.909819 0
M  V30 3611 H 343.365 -3.95234 -0.246263 0
M  V30 3612 H 344.539 -3.79853 2.60861 0
M  V30 3613 H 342.854 -3.5196 2.22515 0
M  V30 3614 H 345.451 -5.34549 0.127099 0
M  V30 3615 H 345.794 -4.04444 -0.986433 0
M  V30 3616 H 346.327 -3.9146 0.707374 0
M  V30 3617 H 343.066 -5.81494 3.02564 0
M  V30 3618 H 342.586 -5.85242 1.31346 0
M  V30 3619 H 344.265 -6.22022 1.78039 0
M  V30 3620 N 344.397 -0.483516 -1.5 0
M  V30 3621 C 345.646 0.0689102 -2.01582 0
M  V30 3622 C 345.959 1.39655 -1.36952 0
M  V30 3623 O 347.165 2.03465 -1.79762 0
M  V30 3624 C 345.621 0.173302 -3.59483 0
M  V30 3625 C 345.229 -1.14665 -4.33077 0
M  V30 3626 C 346.973 0.677024 -4.19066 0
M  V30 3627 C 344.88 -1.00537 -5.82792 0
M  V30 3628 H 343.81 0.0295277 -0.753422 0
M  V30 3629 H 346.461 -0.620295 -1.72698 0
M  V30 3630 H 344.843 0.926569 -3.85007 0
M  V30 3631 H 346.017 -1.91184 -4.19268 0
M  V30 3632 H 344.332 -1.58244 -3.85159 0
M  V30 3633 H 346.929 0.799952 -5.28682 0
M  V30 3634 H 347.272 1.67151 -3.81269 0
M  V30 3635 H 347.805 -0.0192083 -3.97795 0
M  V30 3636 H 344.544 -1.9736 -6.25083 0
M  V30 3637 H 344.064 -0.280776 -5.99142 0
M  V30 3638 H 345.743 -0.677 -6.43448 0
M  V30 3639 N 345.875 1.56104 -0.216619 0
M  V30 3640 C 346.838 2.18819 0.681962 0
M  V30 3641 C 347.838 1.14866 1.12528 0
M  V30 3642 O 349.028 1.40128 1.03488 0
M  V30 3643 C 346.16 2.80756 1.93362 0
M  V30 3644 H 347.353 2.99595 0.135254 0
M  V30 3645 H 344.906 1.56265 0.0330003 0
M  V30 3646 H 345.641 2.03837 2.52232 0
M  V30 3647 H 345.426 3.56876 1.62426 0
M  V30 3648 H 346.916 3.28844 2.57393 0
M  V30 3649 N 347.353 -0.0568162 1.57498 0
M  V30 3650 C 348.3 -1.06591 2.04712 0
M  V30 3651 C 349.27 -1.3758 0.930644 0
M  V30 3652 O 350.455 -1.48392 1.19935 0
M  V30 3653 C 347.595 -2.3701 2.50839 0
M  V30 3654 C 346.708 -2.12421 3.76167 0
M  V30 3655 C 345.843 -3.36511 4.11015 0
M  V30 3656 C 344.882 -3.07353 5.2934 0
M  V30 3657 N 344.019 -4.23816 5.59754 0
M  V30 3658 H 348.859 -0.65631 2.90683 0
M  V30 3659 H 346.396 -0.312481 1.43743 0
M  V30 3660 H 348.354 -3.13175 2.7564 0
M  V30 3661 H 346.984 -2.75744 1.67825 0
M  V30 3662 H 346.036 -1.2688 3.58616 0
M  V30 3663 H 347.348 -1.86894 4.62463 0
M  V30 3664 H 346.502 -4.21062 4.36797 0
M  V30 3665 H 345.241 -3.65128 3.23315 0
M  V30 3666 H 344.246 -2.212 5.03339 0
M  V30 3667 H 345.471 -2.80043 6.1867 0
M  V30 3668 H 343.417 -4.52436 4.75014 0
M  V30 3669 H 343.334 -4.01614 6.40501 0
M  V30 3670 H 344.602 -5.0932 5.90096 0
M  V30 3671 N 348.832 -1.54138 -0.328536 0
M  V30 3672 C 350.078 -1.7236 -1.06865 0
M  V30 3673 C 350.411 -0.493231 -1.87832 0
M  V30 3674 O 349.686 0.5098 -1.877 0
M  V30 3675 C 349.969 -2.99621 -1.99747 0
M  V30 3676 C 349.822 -4.32899 -1.22143 0
M  V30 3677 C 351.141 -3.22615 -2.99345 0
M  V30 3678 H 348.26 -0.627151 -0.387105 0
M  V30 3679 H 350.902 -1.86827 -0.345767 0
M  V30 3680 H 349.052 -2.87418 -2.61387 0
M  V30 3681 H 350.724 -4.56978 -0.630017 0
M  V30 3682 H 348.967 -4.30628 -0.523628 0
M  V30 3683 H 349.638 -5.18154 -1.90318 0
M  V30 3684 H 352.114 -3.34248 -2.47826 0
M  V30 3685 H 350.99 -4.13027 -3.61524 0
M  V30 3686 H 351.251 -2.3961 -3.71536 0
M  V30 3687 N 350.31 0.590341 -1.46126 0
M  V30 3688 C 351.24 1.71032 -1.58966 0
M  V30 3689 C 352.221 1.64302 -0.440335 0
M  V30 3690 O 353.406 1.82436 -0.665634 0
M  V30 3691 C 350.536 3.09665 -1.57241 0
M  V30 3692 C 349.49 3.31221 -2.71066 0
M  V30 3693 C 348.816 4.70303 -2.54399 0
M  V30 3694 C 350.116 3.19796 -4.1295 0
M  V30 3695 H 351.81 1.60543 -2.52718 0
M  V30 3696 H 349.356 0.770933 -1.21625 0
M  V30 3697 H 351.309 3.87831 -1.64819 0
M  V30 3698 H 350.033 3.21036 -0.600289 0
M  V30 3699 H 348.692 2.55452 -2.62944 0
M  V30 3700 H 348.34 4.78429 -1.55288 0
M  V30 3701 H 348.04 4.85679 -3.30741 0
M  V30 3702 H 349.564 5.50647 -2.63857 0
M  V30 3703 H 350.978 3.87815 -4.22223 0
M  V30 3704 H 349.375 3.46696 -4.89818 0
M  V30 3705 H 350.445 2.16983 -4.33643 0
M  V30 3706 N 351.788 1.33704 0.83433 0
M  V30 3707 C 352.698 1.26382 1.97648 0
M  V30 3708 C 353.714 0.173548 1.73132 0
M  V30 3709 O 354.89 0.397962 1.97429 0
M  V30 3710 C 351.955 1.00769 3.31733 0
M  V30 3711 C 351.016 2.1884 3.69334 0
M  V30 3712 C 350.249 1.9444 4.9702 0
M  V30 3713 O 350.472 0.896961 5.63303 0
M  V30 3714 O 349.406 2.81093 5.32231 0
M  V30 3715 H 353.232 2.22444 2.06767 0
M  V30 3716 H 350.817 1.13795 0.968037 0
M  V30 3717 H 352.699 0.882186 4.12062 0
M  V30 3718 H 351.374 0.0773783 3.23608 0
M  V30 3719 H 350.281 2.36946 2.89495 0
M  V30 3720 H 351.614 3.10221 3.82131 0
M  V30 3721 N 353.266 -1.05314 1.17247 0
M  V30 3722 C 354.543 -1.75184 0.87005 0
M  V30 3723 C 354.923 -2.01481 -0.629965 0
M  V30 3724 O 354.271 -1.64988 -1.58086 0
M  V30 3725 C 354.481 -3.04594 1.70363 0
M  V30 3726 C 355.829 -3.78567 1.92281 0
M  V30 3727 O 356.853 -3.14461 1.67311 0
M  V30 3728 O 355.712 -4.93755 2.3424 0
M  V30 3729 H 352.806 -0.761729 0.322021 0
M  V30 3730 H 355.352 -1.11493 1.27935 0
M  V30 3731 H 354.124 -2.81201 2.72106 0
M  V30 3732 H 353.747 -3.76022 1.29202 0
M  V30 3733 N 354.744 -0.972509 -1.24016 0
M  V30 3734 C 355.692 -0.498562 -2.27194 0
M  V30 3735 C 356.686 0.440372 -1.63576 0
M  V30 3736 O 357.892 0.315133 -1.7722 0
M  V30 3737 H 354.267 -0.142775 -0.738322 0
M  V30 3738 H 356.238 -1.38065 -2.64539 0
M  V30 3739 C 354.987 0.191072 -3.47175 0
M  V30 3740 H 354.31 -0.522318 -3.96373 0
M  V30 3741 H 355.75 0.486445 -4.212 0
M  V30 3742 C 354.209 1.41967 -3.05527 0
M  V30 3743 O 354.739 2.51642 -3.13112 0
M  V30 3744 N 352.945 1.28746 -2.60524 0
M  V30 3745 H 352.492 0.395089 -2.54552 0
M  V30 3746 H 352.45 2.11061 -2.33025 0
M  V30 3747 N 356.222 1.38976 -0.743202 0
M  V30 3748 C 357.169 2.30544 -0.10861 0
M  V30 3749 C 358.139 1.49642 0.720869 0
M  V30 3750 O 359.324 1.78304 0.679142 0
M  V30 3751 C 356.464 3.36018 0.786496 0
M  V30 3752 C 355.577 4.31963 -0.0564849 0
M  V30 3753 C 354.712 5.24506 0.840657 0
M  V30 3754 C 353.751 6.121 -0.00658363 0
M  V30 3755 N 352.888 6.96973 0.846943 0
M  V30 3756 H 357.728 2.8424 -0.895088 0
M  V30 3757 H 355.265 1.3995 -0.453048 0
M  V30 3758 H 357.223 3.95768 1.31999 0
M  V30 3759 H 355.853 2.83758 1.53887 0
M  V30 3760 H 354.905 3.73763 -0.707492 0
M  V30 3761 H 356.217 4.93703 -0.711229 0
M  V30 3762 H 355.371 5.89322 1.4417 0
M  V30 3763 H 354.11 4.63107 1.52916 0
M  V30 3764 H 353.115 5.46289 -0.620366 0
M  V30 3765 H 354.34 6.75565 -0.691992 0
M  V30 3766 H 352.286 6.38133 1.52059 0
M  V30 3767 H 352.203 7.5559 0.248864 0
M  V30 3768 H 353.471 7.6621 1.43328 0
M  V30 3769 N 357.7 0.491464 1.49741 0
M  V30 3770 C 358.63 -0.28154 2.31796 0
M  V30 3771 C 359.611 -0.971473 1.3963 0
M  V30 3772 O 360.796 -0.964719 1.68543 0
M  V30 3773 C 357.926 -1.35203 3.19902 0
M  V30 3774 C 356.88 -0.782529 4.20786 0
M  V30 3775 C 356.206 -1.95283 4.97764 0
M  V30 3776 C 357.506 0.21999 5.21837 0
M  V30 3777 H 359.2 0.403355 2.96671 0
M  V30 3778 H 356.746 0.195425 1.42668 0
M  V30 3779 H 358.699 -1.90045 3.76113 0
M  V30 3780 H 357.423 -2.06598 2.52953 0
M  V30 3781 H 356.082 -0.255928 3.65706 0
M  V30 3782 H 355.73 -2.65423 4.2727 0
M  V30 3783 H 355.43 -1.57789 5.66018 0
M  V30 3784 H 356.954 -2.50577 5.56816 0
M  V30 3785 H 358.368 -0.23996 5.72798 0
M  V30 3786 H 356.765 0.51026 5.97927 0
M  V30 3787 H 357.835 1.13911 4.7133 0
M  V30 3788 N 359.178 -1.55987 0.224894 0
M  V30 3789 C 360.589 -1.84553 -0.282345 0
M  V30 3790 C 360.94 -1.14634 -1.59227 0
M  V30 3791 O 360.065 -0.417155 -2.12341 0
M  V30 3792 C 360.66 -3.348 -0.519062 0
M  V30 3793 C 359.219 -3.63671 -0.970604 0
M  V30 3794 C 358.366 -2.77277 -0.0355261 0
M  V30 3795 H 361.317 -1.52245 0.448006 0
M  V30 3796 H 361.338 -3.55187 -1.36463 0
M  V30 3797 H 360.85 -3.8566 0.43449 0
M  V30 3798 H 358.951 -3.1827 -1.9374 0
M  V30 3799 H 359.064 -4.71631 -0.842698 0
M  V30 3800 H 357.428 -2.48846 -0.542927 0
M  V30 3801 H 358.211 -3.30937 0.913003 0
M  V30 3802 N 360.656 0.0484629 -1.57525 0
M  V30 3803 C 361.904 0.741657 -1.88 0
M  V30 3804 C 362.225 1.76918 -0.820054 0
M  V30 3805 O 361.495 1.95335 0.148661 0
M  V30 3806 H 360.075 0.276908 -0.69378 0
M  V30 3807 H 362.737 0.019013 -1.94891 0
M  V30 3808 H 361.833 1.24336 -2.86264 0
M  V30 3809 N 362.134 1.5431 0.320358 0
M  V30 3810 C 363.097 1.83195 1.3774 0
M  V30 3811 C 364.097 0.703906 1.44575 0
M  V30 3812 O 365.287 0.972214 1.44546 0
M  V30 3813 C 362.419 1.99487 2.76438 0
M  V30 3814 H 363.612 2.77642 1.1338 0
M  V30 3815 H 361.165 1.46076 0.556012 0
M  V30 3816 H 361.9 1.07262 3.06048 0
M  V30 3817 H 361.685 2.81575 2.7287 0
M  V30 3818 H 363.175 2.23271 3.52902 0
M  V30 3819 N 363.613 -0.582584 1.46437 0
M  V30 3820 C 364.862 -1.337 1.5102 0
M  V30 3821 C 365.175 -1.94891 0.166359 0
M  V30 3822 O 366.381 -2.71351 0.0899954 0
M  V30 3823 C 364.837 -2.42315 2.66104 0
M  V30 3824 C 364.445 -1.87427 4.06909 0
M  V30 3825 C 366.189 -3.19099 2.79958 0
M  V30 3826 C 364.096 -2.93672 5.13333 0
M  V30 3827 H 363.026 -0.502619 0.562041 0
M  V30 3828 H 365.677 -0.621701 1.72647 0
M  V30 3829 H 364.059 -3.16645 2.37807 0
M  V30 3830 H 365.233 -1.19639 4.44998 0
M  V30 3831 H 363.548 -1.2331 3.97723 0
M  V30 3832 H 366.145 -3.9839 3.56636 0
M  V30 3833 H 366.488 -3.71695 1.87479 0
M  V30 3834 H 367.021 -2.51875 3.07902 0
M  V30 3835 H 363.76 -2.45962 6.07604 0
M  V30 3836 H 363.28 -3.59948 4.79789 0
M  V30 3837 H 364.959 -3.5762 5.39182 0
M  V30 3838 N 365.091 -1.34144 -0.827227 0
M  V30 3839 C 366.331 -1.27603 -1.59677 0
M  V30 3840 C 366.695 0.153035 -1.91389 0
M  V30 3841 O 367.896 0.342566 -2.66608 0
M  V30 3842 C 366.167 -2.13784 -2.86411 0
M  V30 3843 S 367.726 -2.24552 -3.76991 0
M  V30 3844 H 364.544 -0.453789 -0.547354 0
M  V30 3845 H 367.146 -1.69309 -0.977479 0
M  V30 3846 H 365.85 -3.16627 -2.61104 0
M  V30 3847 H 365.381 -1.72959 -3.5334 0
M  V30 3848 H 367.396 -1.41514 -4.75593 0
M  V30 3849 N 366.569 1.04691 -1.17803 0
M  V30 3850 C 367.794 1.81984 -0.994813 0
M  V30 3851 C 368.219 1.82586 0.452112 0
M  V30 3852 O 367.577 1.23854 1.324 0
M  V30 3853 C 367.625 3.2575 -1.54659 0
M  V30 3854 O 366.729 4.05267 -0.763728 0
M  V30 3855 H 366.07 0.562483 -0.352857 0
M  V30 3856 H 368.6 1.3189 -1.56417 0
M  V30 3857 H 368.61 3.76541 -1.57102 0
M  V30 3858 H 367.285 3.24627 -2.59981 0
M  V30 3859 H 365.862 3.63972 -0.811108 0
M  V30 3860 N 368.047 0.979072 1.23499 0
M  V30 3861 C 368.977 0.537606 2.27227 0
M  V30 3862 C 369.958 -0.428539 1.64613 0
M  V30 3863 O 371.143 -0.322191 1.91509 0
M  V30 3864 C 368.273 -0.162052 3.46922 0
M  V30 3865 C 367.227 0.721242 4.21879 0
M  V30 3866 C 366.553 -0.110555 5.34586 0
M  V30 3867 C 367.853 2.01141 4.82016 0
M  V30 3868 H 369.547 1.40462 2.64406 0
M  V30 3869 H 367.093 0.67684 1.27102 0
M  V30 3870 H 369.046 -0.482192 4.18632 0
M  V30 3871 H 367.77 -1.06351 3.08799 0
M  V30 3872 H 366.429 1.02482 3.51984 0
M  V30 3873 H 366.077 -1.0125 4.92704 0
M  V30 3874 H 365.777 0.477325 5.85658 0
M  V30 3875 H 367.301 -0.425107 6.09118 0
M  V30 3876 H 368.715 1.75612 5.45741 0
M  V30 3877 H 367.112 2.54695 5.43369 0
M  V30 3878 H 368.182 2.69909 4.02836 0
M  V30 3879 N 369.525 -1.3858 0.750561 0
M  V30 3880 C 370.753 -2.04471 0.316098 0
M  V30 3881 C 371.168 -1.56606 -1.05452 0
M  V30 3882 O 370.525 -0.737784 -1.66922 0
M  V30 3883 C 370.576 -3.60025 0.326275 0
M  V30 3884 O 370.297 -4.06133 1.6428 0
M  V30 3885 C 371.798 -4.43131 -0.122429 0
M  V30 3886 H 369.018 -0.65717 0.135528 0
M  V30 3887 H 371.562 -1.77329 1.01857 0
M  V30 3888 H 369.717 -3.86014 -0.327431 0
M  V30 3889 H 370.131 -5.00547 1.56693 0
M  V30 3890 H 371.605 -5.51963 -0.0641473 0
M  V30 3891 H 372.082 -4.23333 -1.16988 0
M  V30 3892 H 372.688 -4.22323 0.50229 0
M  V30 3893 N 371.003 -0.499398 -1.49478 0
M  V30 3894 C 372.243 0.0440751 -2.04352 0
M  V30 3895 C 372.607 1.34423 -1.37093 0
M  V30 3896 O 373.808 1.97184 -1.82679 0
M  V30 3897 C 372.079 0.194918 -3.56868 0
M  V30 3898 S 373.638 0.69287 -4.33295 0
M  V30 3899 H 370.456 0.00253458 -0.710995 0
M  V30 3900 H 373.058 -0.673 -1.83551 0
M  V30 3901 H 371.762 -0.756672 -4.03364 0
M  V30 3902 H 371.293 0.93728 -3.82071 0
M  V30 3903 H 373.308 1.96226 -4.55752 0
M  V30 3904 N 372.481 1.55866 -0.233164 0
M  V30 3905 C 373.729 1.9821 0.394593 0
M  V30 3906 C 374.05 1.12234 1.59463 0
M  V30 3907 O 373.32 0.201981 1.94856 0
M  V30 3908 H 371.9 0.732034 0.148778 0
M  V30 3909 H 374.562 1.92107 -0.32876 0
M  V30 3910 H 373.658 3.03845 0.713063 0
M  V30 3911 N 373.959 -0.0401083 1.57549 0
M  V30 3912 C 375.207 -0.731677 1.8839 0
M  V30 3913 C 375.528 -1.76481 0.829425 0
M  V30 3914 O 374.798 -1.95411 -0.1383 0
M  V30 3915 H 373.378 -0.273225 0.695239 0
M  V30 3916 H 376.04 -0.00867725 1.94898 0
M  V30 3917 H 375.136 -1.22816 2.86919 0
M  V30 3918 N 375.437 -1.54477 -0.31217 0
M  V30 3919 C 376.4 -1.83923 -1.36766 0
M  V30 3920 C 377.4 -0.711563 -1.44199 0
M  V30 3921 O 378.59 -0.979866 -1.44029 0
M  V30 3922 C 375.722 -2.0095 -2.75376 0
M  V30 3923 H 376.915 -2.78239 -1.11906 0
M  V30 3924 H 374.468 -1.46369 -0.548257 0
M  V30 3925 H 375.203 -1.08883 -3.05475 0
M  V30 3926 H 374.988 -2.83018 -2.71373 0
M  V30 3927 H 376.478 -2.2514 -3.51713 0
M  V30 3928 N 376.915 0.57481 -1.46744 0
M  V30 3929 C 378.192 1.3352 -1.4294 0
M  V30 3930 C 378.572 2.10775 -0.117009 0
M  V30 3931 O 377.92 2.09966 0.901474 0
M  V30 3932 C 378.13 2.25456 -2.66403 0
M  V30 3933 C 379.478 2.87035 -3.12883 0
M  V30 3934 O 380.502 2.35766 -2.67007 0
M  V30 3935 O 379.361 3.80179 -3.92589 0
M  V30 3936 H 376.455 0.600318 -0.568812 0
M  V30 3937 H 379.001 0.595171 -1.58921 0
M  V30 3938 H 377.773 1.67851 -3.53471 0
M  V30 3939 H 377.396 3.06785 -2.52921 0
M  V30 3940 N 378.394 1.34581 0.820102 0
M  V30 3941 C 379.643 1.26437 1.57151 0
M  V30 3942 C 379.956 -0.163111 1.94919 0
M  V30 3943 O 381.162 -0.366722 2.69012 0
M  V30 3944 C 379.618 2.21658 2.83541 0
M  V30 3945 C 379.226 3.69679 2.53065 0
M  V30 3946 C 380.97 2.22428 3.61561 0
M  V30 3947 C 378.877 4.56761 3.75664 0
M  V30 3948 H 377.807 0.469707 0.589823 0
M  V30 3949 H 380.458 1.59763 0.902656 0
M  V30 3950 H 378.84 1.81287 3.52067 0
M  V30 3951 H 380.014 4.18605 1.92631 0
M  V30 3952 H 378.329 3.71384 1.88316 0
M  V30 3953 H 380.926 2.8471 4.52597 0
M  V30 3954 H 381.269 1.22434 3.97889 0
M  V30 3955 H 381.802 2.61259 2.99981 0
M  V30 3956 H 378.541 5.57702 3.44454 0
M  V30 3957 H 378.061 4.12568 4.35371 0
M  V30 3958 H 379.74 4.71509 4.43044 0
M  V30 3959 N 379.872 -1.04064 1.18357 0
M  V30 3960 C 381.12 -1.76915 0.977013 0
M  V30 3961 C 381.441 -1.88624 -0.494577 0
M  V30 3962 O 380.711 -1.41125 -1.3587 0
M  V30 3963 H 379.291 -0.65535 0.358504 0
M  V30 3964 H 381.953 -1.25592 1.49039 0
M  V30 3965 H 381.049 -2.78178 1.41504 0
M  V30 3966 N 381.35 -0.985608 -1.22978 0
M  V30 3967 C 382.578 -0.675582 -1.95559 0
M  V30 3968 C 382.993 0.758413 -1.72897 0
M  V30 3969 O 382.35 1.51094 -1.02357 0
M  V30 3970 C 382.401 -0.96293 -3.48439 0
M  V30 3971 O 382.122 -2.34057 -3.70336 0
M  V30 3972 C 383.623 -0.669585 -4.38214 0
M  V30 3973 H 380.843 -0.250523 -0.622478 0
M  V30 3974 H 383.387 -1.3184 -1.56328 0
M  V30 3975 H 381.542 -0.366033 -3.85667 0
M  V30 3976 H 381.956 -2.43424 -4.64591 0
M  V30 3977 H 383.43 -0.920967 -5.44263 0
M  V30 3978 H 383.907 0.396383 -4.37408 0
M  V30 3979 H 384.513 -1.2472 -4.06602 0
M  V30 3980 N 382.828 1.3818 -0.7579 0
M  V30 3981 C 383.791 2.28764 -0.141286 0
M  V30 3982 C 384.791 1.47388 0.642907 0
M  V30 3983 O 385.981 1.67781 0.468536 0
M  V30 3984 C 383.113 3.31184 0.808069 0
M  V30 3985 H 384.306 2.848 -0.939633 0
M  V30 3986 H 381.859 1.47212 -0.525191 0
M  V30 3987 H 382.594 2.80247 1.63193 0
M  V30 3988 H 382.379 3.91314 0.248104 0
M  V30 3989 H 383.869 3.98909 1.23536 0
M  V30 3990 N 384.306 0.507319 1.49211 0
M  V30 3991 C 385.239 -0.314509 2.26022 0
M  V30 3992 C 386.217 -0.964849 1.30879 0
M  V30 3993 O 387.401 -0.993707 1.6018 0
M  V30 3994 C 384.528 -1.44346 3.06402 0
M  V30 3995 C 383.574 -0.90685 4.16748 0
M  V30 3996 S 384.407 0.207392 5.35098 0
M  V30 3997 C 385.563 -0.924573 6.19033 0
M  V30 3998 H 385.796 0.337416 2.95379 0
M  V30 3999 H 383.329 0.292718 1.516 0
M  V30 4000 H 385.287 -2.09029 3.53295 0
M  V30 4001 H 383.948 -2.06702 2.36502 0
M  V30 4002 H 383.141 -1.75309 4.72528 0
M  V30 4003 H 382.743 -0.33712 3.72478 0
M  V30 4004 H 385.035 -1.82839 6.52362 0
M  V30 4005 H 385.978 -0.405248 7.06939 0
M  V30 4006 H 386.386 -1.19476 5.51712 0
M  V30 4007 N 385.784 -1.5574 0.241426 0
M  V30 4008 C 386.747 -2.19877 -0.647063 0
M  V30 4009 C 387.747 -1.16642 -1.10686 0
M  V30 4010 O 388.937 -1.41757 -1.01245 0
M  V30 4011 C 386.069 -2.83797 -1.88871 0
M  V30 4012 H 387.262 -2.99772 -0.087574 0
M  V30 4013 H 384.815 -1.56298 -0.00813574 0
M  V30 4014 H 385.55 -2.07824 -2.48957 0
M  V30 4015 H 385.335 -3.59414 -1.56728 0
M  V30 4016 H 386.825 -3.32898 -2.52129 0
M  V30 4017 N 387.262 0.0317525 -1.57568 0
M  V30 4018 C 388.209 1.0332 -2.06382 0
M  V30 4019 C 389.179 1.36082 -0.952414 0
M  V30 4020 O 390.364 1.46466 -1.2228 0
M  V30 4021 C 387.504 2.32989 -2.54578 0
M  V30 4022 C 386.617 2.0641 -3.79498 0
M  V30 4023 C 385.752 3.2993 -4.16317 0
M  V30 4024 C 384.791 2.98893 -5.34162 0
M  V30 4025 N 383.928 4.14857 -5.66426 0
M  V30 4026 H 388.768 0.609982 -2.9169 0
M  V30 4027 H 386.305 0.289573 -1.44222 0
M  V30 4028 H 388.263 3.0875 -2.80587 0
M  V30 4029 H 386.893 2.73039 -1.7219 0
M  V30 4030 H 385.945 1.21158 -3.6059 0
M  V30 4031 H 387.257 1.79513 -4.65378 0
M  V30 4032 H 386.411 4.1406 -4.4344 0
M  V30 4033 H 385.15 3.59938 -3.29083 0
M  V30 4034 H 384.155 2.13164 -5.06795 0
M  V30 4035 H 385.38 2.70165 -6.23047 0
M  V30 4036 H 383.326 4.44821 -4.82151 0
M  V30 4037 H 383.243 3.91374 -6.4681 0
M  V30 4038 H 384.511 4.99868 -5.98124 0
M  V30 4039 N 388.74 1.54641 0.303973 0
M  V30 4040 C 390.017 1.64455 1.05896 0
M  V30 4041 C 390.397 0.490923 2.05312 0
M  V30 4042 O 389.745 -0.512685 2.22674 0
M  V30 4043 C 389.955 3.02331 1.74347 0
M  V30 4044 C 391.303 3.59045 2.26653 0
M  V30 4045 O 392.327 3.04764 1.84384 0
M  V30 4046 O 391.186 4.54081 3.04093 0
M  V30 4047 H 388.28 0.666729 0.489287 0
M  V30 4048 H 390.826 1.66986 0.302298 0
M  V30 4049 H 389.598 3.77734 1.02142 0
M  V30 4050 H 389.221 3.03565 2.56777 0
M  V30 4051 N 390.218 -0.567019 1.47046 0
M  V30 4052 C 391.128 -1.70247 1.6141 0
M  V30 4053 C 392.144 -1.66746 0.497157 0
M  V30 4054 O 393.32 -1.86371 0.763389 0
M  V30 4055 C 390.385 -3.06756 1.61561 0
M  V30 4056 C 389.446 -3.21399 2.84607 0
M  V30 4057 C 388.679 -4.51396 2.84741 0
M  V30 4058 O 388.902 -5.36255 1.94388 0
M  V30 4059 O 387.836 -4.69621 3.76483 0
M  V30 4060 H 391.662 -1.61073 2.57467 0
M  V30 4061 H 389.247 -0.735894 1.30019 0
M  V30 4062 H 391.129 -3.8801 1.64396 0
M  V30 4063 H 389.804 -3.16333 0.686684 0
M  V30 4064 H 388.711 -2.39579 2.8732 0
M  V30 4065 H 390.044 -3.16721 3.76761 0
M  V30 4066 N 391.696 -1.35014 -0.812953 0
M  V30 4067 C 393.112 -1.14914 -1.10757 0
M  V30 4068 C 393.312 0.0426818 -2.01455 0
M  V30 4069 O 392.368 0.715212 -2.42159 0
M  V30 4070 C 393.681 -2.44911 -1.74468 0
M  V30 4071 C 395.229 -2.5106 -1.86917 0
M  V30 4072 C 395.704 -3.81085 -2.54044 0
M  V30 4073 N 397.195 -3.82301 -2.61535 0
M  V30 4074 C 397.93 -4.79634 -3.14227 0
M  V30 4075 N 397.426 -5.87353 -3.67407 0
M  V30 4076 N 399.219 -4.67078 -3.12721 0
M  V30 4077 H 391.37 -2.1136 -0.20989 0
M  V30 4078 H 393.633 -0.935128 -0.155692 0
M  V30 4079 H 393.339 -3.32267 -1.15289 0
M  V30 4080 H 393.213 -2.58989 -2.74234 0
M  V30 4081 H 395.6 -1.64137 -2.45241 0
M  V30 4082 H 395.681 -2.40901 -0.860242 0
M  V30 4083 H 395.325 -4.68402 -1.96372 0
M  V30 4084 H 395.255 -3.88529 -3.55461 0
M  V30 4085 H 397.746 -3.04465 -2.23851 0
M  V30 4086 H 398.059 -6.57624 -4.05894 0
M  V30 4087 H 396.404 -5.91054 -3.65623 0
M  V30 4088 H 399.595 -3.82067 -2.70449 0
M  V30 4089 H 399.768 -5.43098 -3.53481 0
M  V30 4090 N 393.175 1.03435 -1.18907 0
M  V30 4091 C 394.421 1.77005 -0.989798 0
M  V30 4092 C 394.754 1.88205 0.478816 0
M  V30 4093 O 394.029 1.39481 1.35556 0
M  V30 4094 C 394.312 3.19925 -1.65287 0
M  V30 4095 C 394.165 3.1663 -3.19477 0
M  V30 4096 C 395.484 4.18189 -1.37134 0
M  V30 4097 H 392.603 0.642538 -0.360991 0
M  V30 4098 H 395.245 1.20784 -1.46667 0
M  V30 4099 H 393.395 3.67929 -1.24741 0
M  V30 4100 H 395.067 2.76567 -3.692 0
M  V30 4101 H 393.31 2.54491 -3.51307 0
M  V30 4102 H 393.981 4.1758 -3.61013 0
M  V30 4103 H 396.457 3.78761 -1.72276 0
M  V30 4104 H 395.333 5.16394 -1.86087 0
M  V30 4105 H 395.594 4.41112 -0.295424 0
M  V30 4106 N 394.653 0.992116 1.22453 0
M  V30 4107 C 395.601 0.534644 2.26372 0
M  V30 4108 C 396.595 -0.414293 1.64256 0
M  V30 4109 O 397.801 -0.286899 1.77699 0
M  V30 4110 H 394.176 0.154502 0.735957 0
M  V30 4111 H 396.147 1.42256 2.62309 0
M  V30 4112 C 394.896 -0.135815 3.47435 0
M  V30 4113 H 394.219 0.585311 3.95492 0
M  V30 4114 H 395.659 -0.419374 4.21921 0
M  V30 4115 C 394.118 -1.37089 3.07747 0
M  V30 4116 O 394.648 -2.46629 3.17076 0
M  V30 4117 N 392.854 -1.24585 2.62539 0
M  V30 4118 H 392.401 -0.354542 2.55149 0
M  V30 4119 H 392.359 -2.07327 2.36353 0
M  V30 4120 N 396.131 -1.37776 0.765217 0
M  V30 4121 C 397.061 -2.32945 0.160953 0
M  V30 4122 C 398.042 -1.55454 -0.690516 0
M  V30 4123 O 399.227 -1.83721 -0.629318 0
M  V30 4124 C 396.357 -3.39669 -0.724031 0
M  V30 4125 C 395.311 -4.27992 0.0256173 0
M  V30 4126 C 394.637 -5.25673 -0.978383 0
M  V30 4127 C 395.937 -5.08309 1.20082 0
M  V30 4128 H 397.631 -2.83728 0.955969 0
M  V30 4129 H 395.177 -1.36416 0.461149 0
M  V30 4130 H 397.13 -4.05219 -1.15652 0
M  V30 4131 H 395.854 -2.87396 -1.5515 0
M  V30 4132 H 394.513 -3.63964 0.438812 0
M  V30 4133 H 394.161 -4.69682 -1.80022 0
M  V30 4134 H 393.861 -5.85625 -0.481378 0
M  V30 4135 H 395.385 -5.94098 -1.40995 0
M  V30 4136 H 396.799 -5.67034 0.845307 0
M  V30 4137 H 395.196 -5.77554 1.62947 0
M  V30 4138 H 396.266 -4.41365 2.00811 0
M  V30 4139 N 397.609 -0.515225 -1.4894 0
M  V30 4140 C 398.539 0.244628 -2.32215 0
M  V30 4141 C 399.52 0.949136 -1.41157 0
M  V30 4142 O 400.705 0.937783 -1.70057 0
M  V30 4143 C 397.835 1.30096 -3.22013 0
M  V30 4144 C 396.789 0.715486 -4.21977 0
M  V30 4145 C 396.115 1.87339 -5.00808 0
M  V30 4146 C 397.415 -0.302982 -5.2142 0
M  V30 4147 H 399.109 -0.450501 -2.95991 0
M  V30 4148 H 396.655 -0.218098 -1.42339 0
M  V30 4149 H 398.608 1.84037 -3.79089 0
M  V30 4150 H 397.332 2.02547 -2.56207 0
M  V30 4151 H 395.991 0.197715 -3.66066 0
M  V30 4152 H 395.639 2.58592 -4.31438 0
M  V30 4153 H 395.339 1.48764 -5.68457 0
M  V30 4154 H 396.863 2.41686 -5.60732 0
M  V30 4155 H 398.277 0.148802 -5.73107 0
M  V30 4156 H 396.674 -0.60532 -5.97039 0
M  V30 4157 H 397.744 -1.21395 -4.69459 0
M  V30 4158 N 399.087 1.5561 -0.249682 0
M  V30 4159 C 400.312 2.03865 0.381305 0
M  V30 4160 C 400.737 1.12769 1.50548 0
M  V30 4161 O 400.095 0.121189 1.80895 0
M  V30 4162 C 400.143 3.50101 0.863816 0
M  V30 4163 O 399.247 3.62132 1.97318 0
M  V30 4164 H 398.588 0.658827 0.0827194 0
M  V30 4165 H 401.118 2.01105 -0.376552 0
M  V30 4166 H 401.128 3.90975 1.1663 0
M  V30 4167 H 399.803 4.1588 0.0411816 0
M  V30 4168 H 398.38 3.33155 1.67517 0
M  V30 4169 N 400.565 -0.0233959 1.57583 0
M  V30 4170 C 401.812 -0.713063 1.8953 0
M  V30 4171 C 402.14 -1.75056 0.847673 0
M  V30 4172 O 401.395 -1.95119 -0.150636 0
M  V30 4173 C 401.694 -1.41428 3.28227 0
M  V30 4174 C 401.36 -0.512222 4.47981 0
M  V30 4175 C 400.022 -0.263785 4.80476 0
M  V30 4176 C 402.374 0.110248 5.21083 0
M  V30 4177 C 399.702 0.615804 5.83459 0
M  V30 4178 C 402.054 0.977573 6.25001 0
M  V30 4179 C 400.718 1.23542 6.55968 0
M  V30 4180 H 399.988 -0.260928 0.69354 0
M  V30 4181 H 402.635 0.0271047 1.91481 0
M  V30 4182 H 400.94 -2.22791 3.22291 0
M  V30 4183 H 402.637 -1.95355 3.50196 0
M  V30 4184 H 399.227 -0.716013 4.22577 0
M  V30 4185 H 403.411 -0.0687137 4.96252 0
M  V30 4186 H 398.667 0.82382 6.05824 0
M  V30 4187 H 402.841 1.46638 6.80786 0
M  V30 4188 H 400.468 1.91871 7.35588 0
M  V30 4189 N 402.043 -1.548 -0.295768 0
M  V30 4190 C 403.271 -1.78327 -1.04914 0
M  V30 4191 C 403.686 -0.545316 -1.80753 0
M  V30 4192 O 403.043 0.485013 -1.75937 0
M  V30 4193 C 403.094 -2.99418 -2.02561 0
M  V30 4194 O 402.815 -4.18431 -1.29798 0
M  V30 4195 C 404.316 -3.35375 -2.89895 0
M  V30 4196 H 401.536 -0.594618 -0.310918 0
M  V30 4197 H 404.08 -2.01763 -0.333454 0
M  V30 4198 H 402.235 -2.78175 -2.69624 0
M  V30 4199 H 402.649 -4.86736 -1.95419 0
M  V30 4200 H 404.123 -4.23332 -3.54251 0
M  V30 4201 H 404.6 -2.53761 -3.58472 0
M  V30 4202 H 405.206 -3.58796 -2.28355 0
M  V30 4203 N 403.521 0.559213 -1.47345 0
M  V30 4204 C 404.769 1.31388 -1.53563 0
M  V30 4205 C 405.09 1.93985 -0.198678 0
M  V30 4206 O 404.36 1.79825 0.777167 0
M  V30 4207 H 402.94 0.487901 -0.565652 0
M  V30 4208 H 405.602 0.65315 -1.8363 0
M  V30 4209 H 404.698 2.10844 -2.30111 0
M  V30 4210 N 404.999 1.35443 0.805782 0
M  V30 4211 C 406.224 1.32037 1.59941 0
M  V30 4212 C 406.649 -0.0994215 1.87837 0
M  V30 4213 O 406.007 -1.06648 1.46615 0
M  V30 4214 C 406.055 2.13354 2.90711 0
M  V30 4215 O 405.159 1.5148 3.83572 0
M  V30 4216 H 404.5 0.452666 0.485787 0
M  V30 4217 H 407.03 1.78496 1.00002 0
M  V30 4218 H 407.04 2.25338 3.40128 0
M  V30 4219 H 405.715 3.16572 2.69732 0
M  V30 4220 H 404.292 1.4834 3.42125 0
M  V30 4221 N 406.477 -1.02803 1.19454 0
M  V30 4222 C 407.705 -1.79841 1.02297 0
M  V30 4223 C 408.12 -1.83879 -0.428259 0
M  V30 4224 O 407.477 -1.28345 -1.29745 0
M  V30 4225 C 407.528 -3.24852 1.58598 0
M  V30 4226 O 407.249 -3.21097 2.98041 0
M  V30 4227 C 408.75 -4.18485 1.46236 0
M  V30 4228 H 405.97 -0.565936 0.360496 0
M  V30 4229 H 408.514 -1.2948 1.58288 0
M  V30 4230 H 406.669 -3.72401 1.06753 0
M  V30 4231 H 407.083 -4.12033 3.24545 0
M  V30 4232 H 408.557 -5.18121 1.90407 0
M  V30 4233 H 409.034 -4.37254 0.41301 0
M  V30 4234 H 409.64 -3.76811 1.97215 0
M  V30 4235 N 407.956 -0.998596 -1.21925 0
M  V30 4236 C 408.888 -0.511879 -2.23411 0
M  V30 4237 C 409.901 0.396094 -1.57908 0
M  V30 4238 O 411.09 0.197316 -1.77406 0
M  V30 4239 C 408.19 0.276802 -3.37768 0
M  V30 4240 C 407.363 -0.628687 -4.32858 0
M  V30 4241 C 406.422 0.109272 -5.26087 0
M  V30 4242 O 405.448 -0.507237 -5.66935 0
M  V30 4243 N 406.65 1.38983 -5.63617 0
M  V30 4244 H 409.415 -1.38457 -2.658 0
M  V30 4245 H 406.976 -0.873981 -1.36283 0
M  V30 4246 H 408.968 0.77928 -3.97126 0
M  V30 4247 H 407.538 1.05063 -2.94415 0
M  V30 4248 H 406.758 -1.31175 -3.71735 0
M  V30 4249 H 408.046 -1.24514 -4.93329 0
M  V30 4250 H 407.444 1.91194 -5.32411 0
M  V30 4251 H 406.001 1.83739 -6.25367 0
M  V30 4252 N 409.434 1.37368 -0.772513 0
M  V30 4253 C 410.68 1.99969 -0.337681 0
M  V30 4254 C 411.013 1.61184 1.08321 0
M  V30 4255 O 410.288 0.858395 1.74533 0
M  V30 4256 C 410.571 3.56858 -0.482121 0
M  V30 4257 C 410.424 4.0555 -1.94549 0
M  V30 4258 C 411.743 4.39955 0.113143 0
M  V30 4259 H 408.862 0.726464 -0.124171 0
M  V30 4260 H 411.504 1.63034 -0.975699 0
M  V30 4261 H 409.654 3.88452 0.0610361 0
M  V30 4262 H 411.326 3.84518 -2.54841 0
M  V30 4263 H 409.569 3.57715 -2.45403 0
M  V30 4264 H 410.24 5.14587 -1.9976 0
M  V30 4265 H 412.716 4.14623 -0.35031 0
M  V30 4266 H 411.592 5.48897 -0.0180514 0
M  V30 4267 H 411.853 4.25403 1.20354 0
M  V30 4268 N 410.912 0.523116 1.48665 0
M  V30 4269 C 412.16 -0.0134497 2.02096 0
M  V30 4270 C 412.481 -1.35418 1.40311 0
M  V30 4271 O 411.751 -1.87543 0.566074 0
M  V30 4272 H 410.331 -0.00795915 0.746958 0
M  V30 4273 H 412.993 0.685388 1.82451 0
M  V30 4274 H 412.089 -0.126849 3.11842 0
M  V30 4275 N 412.39 -1.55475 0.257931 0
M  V30 4276 C 413.337 -2.21837 -0.636939 0
M  V30 4277 C 414.307 -1.18596 -1.16294 0
M  V30 4278 O 415.492 -1.47081 -1.21539 0
M  V30 4279 C 412.632 -2.9301 -1.82317 0
M  V30 4280 C 411.745 -4.10931 -1.33265 0
M  V30 4281 C 410.88 -4.69791 -2.47931 0
M  V30 4282 C 409.919 -5.7994 -1.95796 0
M  V30 4283 N 409.056 -6.32935 -3.0387 0
M  V30 4284 H 413.896 -2.9793 -0.0643591 0
M  V30 4285 H 411.433 -1.47086 -0.0200031 0
M  V30 4286 H 413.391 -3.3248 -2.52018 0
M  V30 4287 H 412.021 -2.1937 -2.36805 0
M  V30 4288 H 411.073 -3.76699 -0.52931 0
M  V30 4289 H 412.385 -4.90417 -0.910654 0
M  V30 4290 H 411.539 -5.11892 -3.25656 0
M  V30 4291 H 410.278 -3.89545 -2.93438 0
M  V30 4292 H 409.283 -5.37305 -1.16546 0
M  V30 4293 H 410.508 -6.62043 -1.51246 0
M  V30 4294 H 408.454 -5.55591 -3.48791 0
M  V30 4295 H 408.371 -7.07645 -2.66035 0
M  V30 4296 H 409.639 -6.79695 -3.81621 0
M  V30 4297 N 413.868 0.0150385 -1.57593 0
M  V30 4298 C 414.8 1.03912 -2.04291 0
M  V30 4299 C 415.813 1.31618 -0.958146 0
M  V30 4300 O 417.002 1.28859 -1.23522 0
M  V30 4301 C 414.102 2.37749 -2.41514 0
M  V30 4302 C 413.275 2.29198 -3.72541 0
M  V30 4303 C 412.334 3.45598 -3.96797 0
M  V30 4304 O 411.36 3.24461 -4.67668 0
M  V30 4305 N 412.562 4.67945 -3.43523 0
M  V30 4306 H 415.327 0.64099 -2.92765 0
M  V30 4307 H 412.888 0.20272 -1.60626 0
M  V30 4308 H 414.88 3.14364 -2.54867 0
M  V30 4309 H 413.45 2.69357 -1.58637 0
M  V30 4310 H 412.67 1.3759 -3.69408 0
M  V30 4311 H 413.958 2.20642 -4.5847 0
M  V30 4312 H 413.356 4.88017 -2.86104 0
M  V30 4313 H 411.913 5.41878 -3.62232 0
M  V30 4314 N 415.346 1.54954 0.287554 0
M  V30 4315 C 416.592 1.75132 1.02257 0
M  V30 4316 C 416.925 0.542858 1.86458 0
M  V30 4317 O 416.2 -0.459856 1.88986 0
M  V30 4318 C 416.483 3.04812 1.91733 0
M  V30 4319 C 416.336 4.35985 1.10622 0
M  V30 4320 C 417.655 3.30438 2.90687 0
M  V30 4321 H 414.774 0.637194 0.370341 0
M  V30 4322 H 417.416 1.87678 0.296111 0
M  V30 4323 H 415.566 2.94247 2.53675 0
M  V30 4324 H 417.238 4.58487 0.508636 0
M  V30 4325 H 415.481 4.31865 0.409271 0
M  V30 4326 H 416.152 5.23017 1.76513 0
M  V30 4327 H 418.628 3.40701 2.38877 0
M  V30 4328 H 417.504 4.22467 3.50447 0
M  V30 4329 H 417.765 2.49377 3.65053 0
M  V30 4330 N 416.824 -0.551391 1.4764 0
M  V30 4331 C 418.072 -1.30572 1.54258 0
M  V30 4332 C 418.393 -1.93877 0.208963 0
M  V30 4333 O 417.663 -1.80234 -0.767619 0
M  V30 4334 H 416.243 -0.484894 0.568231 0
M  V30 4335 H 418.905 -0.643402 1.83974 0
M  V30 4336 H 418.001 -2.09621 2.31226 0
M  V30 4337 N 418.302 -1.35869 -0.798587 0
M  V30 4338 C 419.232 -1.32118 -1.92528 0
M  V30 4339 C 420.213 -0.194209 -1.68988 0
M  V30 4340 O 421.398 -0.390426 -1.90235 0
M  V30 4341 C 418.528 -1.10047 -3.29404 0
M  V30 4342 C 417.482 -2.19471 -3.67446 0
M  V30 4343 C 416.808 -1.82555 -5.02571 0
M  V30 4344 C 418.108 -3.61495 -3.76987 0
M  V30 4345 H 419.802 -2.26394 -1.95924 0
M  V30 4346 H 417.348 -1.08981 -0.94123 0
M  V30 4347 H 419.301 -1.06061 -4.07835 0
M  V30 4348 H 418.025 -0.122195 -3.26371 0
M  V30 4349 H 416.684 -2.22568 -2.91306 0
M  V30 4350 H 416.332 -0.833249 -4.9605 0
M  V30 4351 H 416.032 -2.5581 -5.28995 0
M  V30 4352 H 417.556 -1.80108 -5.83432 0
M  V30 4353 H 418.97 -3.60676 -4.4563 0
M  V30 4354 H 417.367 -4.33577 -4.14887 0
M  V30 4355 H 418.437 -3.97065 -2.78329 0
M  V30 4356 N 419.78 1.02168 -1.19998 0
M  V30 4357 C 420.713 2.10232 -0.887558 0
M  V30 4358 C 421.691 1.61827 0.158317 0
M  V30 4359 O 422.875 1.88471 0.0330249 0
M  V30 4360 C 420.002 3.37092 -0.32964 0
M  V30 4361 C 419.048 4.0438 -1.3557 0
M  V30 4362 S 419.881 4.48956 -2.91888 0
M  V30 4363 C 421.037 5.79024 -2.37658 0
M  V30 4364 H 421.27 2.36409 -1.80272 0
M  V30 4365 H 418.803 1.15211 -1.0279 0
M  V30 4366 H 420.761 4.10498 -0.0142824 0
M  V30 4367 H 419.422 3.08996 0.563941 0
M  V30 4368 H 418.615 4.95632 -0.9146 0
M  V30 4369 H 418.217 3.37176 -1.61828 0
M  V30 4370 H 420.509 6.53942 -1.77103 0
M  V30 4371 H 421.452 6.27924 -3.27287 0
M  V30 4372 H 421.86 5.35043 -1.79971 0
M  V30 4373 N 421.258 1.00505 1.21394 0
M  V30 4374 C 422.504 0.688793 1.90745 0
M  V30 4375 C 422.837 -0.778486 1.77914 0
M  V30 4376 O 422.112 -1.56433 1.15581 0
M  V30 4377 C 422.395 1.11063 3.42545 0
M  V30 4378 C 422.248 2.63737 3.64367 0
M  V30 4379 C 423.567 0.673059 4.34923 0
M  V30 4380 H 420.686 0.251702 0.692687 0
M  V30 4381 H 423.328 1.25074 1.43026 0
M  V30 4382 H 421.478 0.632508 3.83317 0
M  V30 4383 H 423.15 3.19313 3.32922 0
M  V30 4384 H 421.393 3.05248 3.08231 0
M  V30 4385 H 422.064 2.88305 4.70727 0
M  V30 4386 H 424.54 1.08392 4.01734 0
M  V30 4387 H 423.416 0.996383 5.39781 0
M  V30 4388 H 423.677 -0.425808 4.40045 0
M  V30 4389 N 422.737 -1.36956 0.779787 0
M  V30 4390 C 423.669 -2.28833 0.129639 0
M  V30 4391 C 424.682 -1.4902 -0.655511 0
M  V30 4392 O 425.871 -1.71578 -0.492279 0
M  V30 4393 C 422.971 -3.2833 -0.839792 0
M  V30 4394 C 422.144 -4.3727 -0.10675 0
M  V30 4395 C 421.203 -5.16789 -0.990717 0
M  V30 4396 O 420.229 -5.67406 -0.451516 0
M  V30 4397 N 421.431 -5.32294 -2.3161 0
M  V30 4398 H 424.196 -2.85268 0.918803 0
M  V30 4399 H 421.757 -1.49019 0.632841 0
M  V30 4400 H 423.749 -3.78413 -1.43477 0
M  V30 4401 H 422.319 -2.72605 -1.52988 0
M  V30 4402 H 421.539 -3.88478 0.669216 0
M  V30 4403 H 422.827 -5.07229 0.399464 0
M  V30 4404 H 422.225 -4.92768 -2.77843 0
M  V30 4405 H 420.782 -5.85656 -2.86095 0
M  V30 4406 N 424.215 -0.530993 -1.48385 0
M  V30 4407 C 425.125 0.23503 -2.3342 0
M  V30 4408 C 426.141 0.93801 -1.46552 0
M  V30 4409 O 427.317 0.912745 -1.7953 0
M  V30 4410 C 424.382 1.26778 -3.22689 0
M  V30 4411 C 423.443 0.575038 -4.25431 0
M  V30 4412 C 422.676 1.55858 -5.10435 0
M  V30 4413 O 422.899 2.79129 -4.97437 0
M  V30 4414 O 421.833 1.09742 -5.91811 0
M  V30 4415 H 425.659 -0.461794 -3.00169 0
M  V30 4416 H 423.244 -0.291903 -1.46521 0
M  V30 4417 H 425.126 1.86457 -3.77904 0
M  V30 4418 H 423.801 1.94699 -2.586 0
M  V30 4419 H 422.708 -0.0622782 -3.74048 0
M  V30 4420 H 424.041 -0.062253 -4.92161 0
M  V30 4421 N 425.693 1.55336 -0.266172 0
M  V30 4422 C 427.109 1.59356 0.0882065 0
M  V30 4423 C 427.309 1.2834 1.55342 0
M  V30 4424 O 426.365 1.03996 2.30089 0
M  V30 4425 C 427.678 2.99409 -0.278364 0
M  V30 4426 C 429.226 3.12196 -0.224243 0
M  V30 4427 C 429.701 4.545 -0.565123 0
M  V30 4428 N 431.192 4.60313 -0.51634 0
M  V30 4429 C 431.927 5.68434 -0.753013 0
M  V30 4430 N 431.423 6.84738 -1.05383 0
M  V30 4431 N 433.216 5.57942 -0.682414 0
M  V30 4432 H 425.367 1.73764 -1.22147 0
M  V30 4433 H 427.63 0.809822 -0.492841 0
M  V30 4434 H 427.336 3.2691 -1.29703 0
M  V30 4435 H 427.21 3.75228 0.385186 0
M  V30 4436 H 429.597 2.84464 0.78512 0
M  V30 4437 H 429.678 2.38609 -0.921922 0
M  V30 4438 H 429.322 4.82956 -1.57213 0
M  V30 4439 H 429.252 5.26374 0.154248 0
M  V30 4440 H 431.743 3.7676 -0.29335 0
M  V30 4441 H 432.056 7.63088 -1.22133 0
M  V30 4442 H 430.401 6.86375 -1.09151 0
M  V30 4443 H 433.592 4.65958 -0.44731 0
M  V30 4444 H 433.765 6.4213 -0.870248 0
M  V30 4445 N 427.171 -0.0066808 1.57599 0
M  V30 4446 C 428.418 -0.69292 1.90276 0
M  V30 4447 C 428.746 -1.74148 0.866192 0
M  V30 4448 O 428.001 -1.95268 -0.129933 0
M  V30 4449 C 428.3 -1.37939 3.29708 0
M  V30 4450 C 427.966 -0.464679 4.48499 0
M  V30 4451 C 426.628 -0.212809 4.80729 0
M  V30 4452 C 428.98 0.16551 5.20937 0
M  V30 4453 C 426.308 0.677653 5.82773 0
M  V30 4454 C 428.66 1.04381 6.23929 0
M  V30 4455 C 427.324 1.30492 6.54621 0
M  V30 4456 H 426.594 -0.253558 0.696268 0
M  V30 4457 H 429.241 0.0474123 1.91441 0
M  V30 4458 H 427.546 -2.1936 3.24636 0
M  V30 4459 H 429.243 -1.9163 3.52249 0
M  V30 4460 H 425.833 -0.671153 4.23313 0
M  V30 4461 H 430.017 -0.0160756 4.96297 0
M  V30 4462 H 425.273 0.88803 6.04917 0
M  V30 4463 H 429.447 1.53851 6.79193 0
M  V30 4464 H 427.074 1.99662 7.33512 0
M  V30 4465 N 428.649 -1.55105 -0.279332 0
M  V30 4466 C 429.897 -1.75066 -1.00977 0
M  V30 4467 C 430.218 -0.551276 -1.87045 0
M  V30 4468 O 429.488 0.433984 -1.91032 0
M  V30 4469 H 428.068 -0.645578 -0.375816 0
M  V30 4470 H 430.73 -1.92497 -0.305089 0
M  V30 4471 H 429.826 -2.64894 -1.65038 0
M  V30 4472 N 430.127 0.543554 -1.4793 0
M  V30 4473 C 431.543 0.870806 -1.3375 0
M  V30 4474 C 431.743 1.9864 -0.338261 0
M  V30 4475 O 430.799 2.51305 0.245371 0
M  V30 4476 C 432.112 1.25114 -2.73435 0
M  V30 4477 C 433.66 1.3618 -2.81823 0
M  V30 4478 C 434.135 1.77563 -4.22179 0
M  V30 4479 N 435.626 1.8469 -4.24787 0
M  V30 4480 C 436.361 2.18067 -5.30315 0
M  V30 4481 N 435.857 2.49963 -6.46135 0
M  V30 4482 N 437.65 2.18958 -5.17701 0
M  V30 4483 H 429.801 -0.19275 -2.11524 0
M  V30 4484 H 432.064 -0.0235777 -0.947707 0
M  V30 4485 H 431.77 0.50514 -3.48053 0
M  V30 4486 H 431.644 2.20431 -3.06088 0
M  V30 4487 H 434.031 2.09859 -2.07468 0
M  V30 4488 H 434.112 0.390169 -2.52807 0
M  V30 4489 H 433.756 1.04449 -4.97044 0
M  V30 4490 H 433.686 2.75753 -4.48629 0
M  V30 4491 H 436.177 1.62372 -3.41239 0
M  V30 4492 H 436.49 2.74497 -7.22406 0
M  V30 4493 H 434.835 2.47513 -6.49432 0
M  V30 4494 H 438.026 1.93488 -4.2624 0
M  V30 4495 H 438.199 2.44639 -6.00047 0
M  V30 4496 N 431.605 1.3629 0.791371 0
M  V30 4497 C 432.83 1.33726 1.58531 0
M  V30 4498 C 433.255 -0.0794933 1.87932 0
M  V30 4499 O 432.613 -1.05087 1.47738 0
M  V30 4500 C 432.661 2.16425 2.88431 0
M  V30 4501 O 431.765 1.5554 3.81944 0
M  V30 4502 H 431.106 0.457793 0.480959 0
M  V30 4503 H 433.636 1.79547 0.981031 0
M  V30 4504 H 433.646 2.28933 3.37718 0
M  V30 4505 H 432.321 3.19415 2.66359 0
M  V30 4506 H 430.898 1.51961 3.40532 0
M  V30 4507 N 433.083 -1.0153 1.20538 0
M  V30 4508 C 434.013 -2.11972 0.979295 0
M  V30 4509 C 434.994 -1.6985 -0.0921787 0
M  V30 4510 O 436.179 -1.94089 0.0655932 0
M  V30 4511 C 433.309 -3.43201 0.531984 0
M  V30 4512 C 432.263 -3.9907 1.54685 0
M  V30 4513 C 431.589 -5.26082 0.956127 0
M  V30 4514 C 432.889 -4.32313 2.93092 0
M  V30 4515 H 434.583 -2.31143 1.90298 0
M  V30 4516 H 432.129 -1.11079 0.916372 0
M  V30 4517 H 434.082 -4.1985 0.361044 0
M  V30 4518 H 432.806 -3.23792 -0.427327 0
M  V30 4519 H 431.465 -3.2453 1.70517 0
M  V30 4520 H 431.113 -5.02999 -0.0111538 0
M  V30 4521 H 430.813 -5.64426 1.63393 0
M  V30 4522 H 432.337 -6.05386 0.796284 0
M  V30 4523 H 433.751 -4.99845 2.80763 0
M  V30 4524 H 432.148 -4.81774 3.57791 0
M  V30 4525 H 433.218 -3.41025 3.44717 0
M  V30 4526 N 434.561 -1.01147 -1.20859 0
M  V30 4527 C 435.491 -0.597663 -2.25722 0
M  V30 4528 C 436.472 0.384744 -1.65692 0
M  V30 4529 O 437.657 0.271303 -1.92296 0
M  V30 4530 C 434.787 0.0700149 -3.47229 0
M  V30 4531 C 433.741 -0.832843 -4.19819 0
M  V30 4532 C 433.067 -0.0312202 -5.34691 0
M  V30 4533 C 434.367 -2.1385 -4.76514 0
M  V30 4534 H 436.061 -1.47423 -2.60589 0
M  V30 4535 H 433.607 -0.710301 -1.25263 0
M  V30 4536 H 435.56 0.37103 -4.19763 0
M  V30 4537 H 434.284 0.981259 -3.11511 0
M  V30 4538 H 432.943 -1.11778 -3.49144 0
M  V30 4539 H 432.591 0.881515 -4.95215 0
M  V30 4540 H 432.291 -0.632434 -5.84187 0
M  V30 4541 H 433.815 0.26346 -6.10031 0
M  V30 4542 H 435.229 -1.9002 -5.40893 0
M  V30 4543 H 433.626 -2.69012 -5.36426 0
M  V30 4544 H 434.696 -2.80495 -3.95538 0
M  V30 4545 N 436.039 1.36541 -0.78704 0
M  V30 4546 C 436.949 2.3387 -0.184896 0
M  V30 4547 C 437.965 1.60927 0.661697 0
M  V30 4548 O 439.141 1.92927 0.57804 0
M  V30 4549 C 436.206 3.40122 0.672145 0
M  V30 4550 C 435.267 4.28867 -0.19267 0
M  V30 4551 C 434.5 5.30045 0.623561 0
M  V30 4552 O 434.723 5.39232 1.8597 0
M  V30 4553 O 433.657 6.01895 0.0247068 0
M  V30 4554 H 437.483 2.87126 -0.989562 0
M  V30 4555 H 435.068 1.38969 -0.548455 0
M  V30 4556 H 436.95 4.05093 1.16094 0
M  V30 4557 H 435.625 2.89169 1.45474 0
M  V30 4558 H 434.532 3.66945 -0.728166 0
M  V30 4559 H 435.865 4.83165 -0.938722 0
M  V30 4560 N 437.518 0.538854 1.48102 0
M  V30 4561 C 438.448 -0.207654 2.32575 0
M  V30 4562 C 439.429 -0.926559 1.4265 0
M  V30 4563 O 440.614 -0.91061 1.71527 0
M  V30 4564 C 437.744 -1.24957 3.24042 0
M  V30 4565 C 436.698 -0.648263 4.23062 0
M  V30 4566 C 436.024 -1.79348 5.03725 0
M  V30 4567 C 437.324 0.385897 5.20872 0
M  V30 4568 H 439.018 0.497534 2.95237 0
M  V30 4569 H 436.564 0.240715 1.41974 0
M  V30 4570 H 438.517 -1.77983 3.81969 0
M  V30 4571 H 437.241 -1.98446 2.59397 0
M  V30 4572 H 435.9 -0.139452 3.66335 0
M  V30 4573 H 435.548 -2.51696 4.35498 0
M  V30 4574 H 435.248 -1.39702 5.70751 0
M  V30 4575 H 436.772 -2.32735 5.64506 0
M  V30 4576 H 438.186 -0.057607 5.73271 0
M  V30 4577 H 436.583 0.700227 5.96001 0
M  V30 4578 H 437.653 1.28848 4.67468 0
M  V30 4579 N 438.996 -1.55193 0.274407 0
M  V30 4580 C 440.244 -1.99187 -0.341902 0
M  V30 4581 C 440.565 -1.16422 -1.56431 0
M  V30 4582 O 439.835 -0.253573 -1.94252 0
M  V30 4583 H 438.415 -0.735721 -0.129317 0
M  V30 4584 H 441.077 -1.91168 0.379578 0
M  V30 4585 H 440.173 -3.05629 -0.632253 0
M  V30 4586 N 440.474 -0.00167713 -1.576 0
M  V30 4587 C 441.722 0.681471 -1.90264 0
M  V30 4588 C 442.043 1.7422 -0.875924 0
M  V30 4589 O 441.313 1.95709 0.0864412 0
M  V30 4590 H 439.893 0.254696 -0.702239 0
M  V30 4591 H 442.555 -0.0429996 -1.94853 0
M  V30 4592 H 441.651 1.15166 -2.90075 0
M  V30 4593 N 441.952 1.55251 0.271103 0
M  V30 4594 C 442.9 1.89054 1.35504 0
M  V30 4595 C 443.894 0.767064 1.51038 0
M  V30 4596 O 445.1 0.951429 1.528 0
M  V30 4597 H 441.475 0.600072 0.45323 0
M  V30 4598 H 443.446 2.79598 1.04247 0
M  V30 4599 C 442.195 2.18068 2.70817 0
M  V30 4600 H 441.518 3.04005 2.59656 0
M  V30 4601 H 442.958 2.4564 3.45597 0
M  V30 4602 C 441.417 0.988901 3.2206 0
M  V30 4603 O 441.947 0.224501 4.01072 0
M  V30 4604 N 440.153 0.786085 2.79766 0
M  V30 4605 H 439.7 1.40937 2.15626 0
M  V30 4606 H 439.658 -0.00969349 3.14399 0
M  V30 4607 N 443.43 -0.535701 1.48216 0
M  V30 4608 C 444.378 -1.66179 1.62749 0
M  V30 4609 C 445.372 -1.62034 0.49409 0
M  V30 4610 O 446.578 -1.6696 0.672624 0
M  V30 4611 H 442.953 -0.550244 0.512578 0
M  V30 4612 H 444.924 -1.51063 2.57337 0
M  V30 4613 C 443.673 -3.04471 1.67907 0
M  V30 4614 H 442.996 -3.08351 2.54479 0
M  V30 4615 H 444.436 -3.82894 1.82121 0
M  V30 4616 C 442.895 -3.34314 0.416596 0
M  V30 4617 O 443.425 -3.98905 -0.473014 0
M  V30 4618 N 441.631 -2.89149 0.290038 0
M  V30 4619 H 441.178 -2.36764 1.01493 0
M  V30 4620 H 441.136 -3.09486 -0.55367 0
M  V30 4621 N 444.908 -1.36708 -0.784132 0
M  V30 4622 C 445.871 -1.31307 -1.87859 0
M  V30 4623 C 446.871 -0.219654 -1.59293 0
M  V30 4624 O 448.061 -0.47476 -1.67606 0
M  V30 4625 C 445.193 -1.03679 -3.24751 0
M  V30 4626 H 446.386 -2.28647 -1.94064 0
M  V30 4627 H 443.939 -1.21558 -0.98252 0
M  V30 4628 H 444.674 -0.0681936 -3.24228 0
M  V30 4629 H 444.459 -1.82811 -3.46876 0
M  V30 4630 H 445.949 -1.02518 -4.04821 0
M  V30 4631 N 446.386 1.0089 -1.21074 0
M  V30 4632 C 447.635 1.74019 -1.01981 0
M  V30 4633 C 447.948 1.90408 0.447665 0
M  V30 4634 O 449.154 2.60707 0.757906 0
M  V30 4635 C 447.61 3.13026 -1.77603 0
M  V30 4636 C 447.218 3.04623 -3.28495 0
M  V30 4637 C 448.962 3.90312 -1.66904 0
M  V30 4638 C 446.869 4.38685 -3.96623 0
M  V30 4639 H 445.799 0.652422 -0.377971 0
M  V30 4640 H 448.45 1.12755 -1.44771 0
M  V30 4641 H 446.832 3.74878 -1.27604 0
M  V30 4642 H 448.006 2.52032 -3.85767 0
M  V30 4643 H 446.321 2.40827 -3.39693 0
M  V30 4644 H 448.918 4.8951 -2.15138 0
M  V30 4645 H 449.261 4.11558 -0.62658 0
M  V30 4646 H 449.794 3.35104 -2.14359 0
M  V30 4647 H 446.533 4.22641 -5.01054 0
M  V30 4648 H 446.053 4.91252 -3.4414 0
M  V30 4649 H 447.732 5.075 -4.01314 0
M  V30 4650 N 447.864 1.01787 1.20321 0
M  V30 4651 C 449.113 0.703249 1.89043 0
M  V30 4652 C 449.426 -0.770445 1.79787 0
M  V30 4653 O 450.632 -1.19767 2.43656 0
M  V30 4654 C 449.088 1.20749 3.3904 0
M  V30 4655 C 448.696 2.70817 3.56878 0
M  V30 4656 C 450.44 0.968352 4.13308 0
M  V30 4657 C 448.347 3.14716 5.00708 0
M  V30 4658 H 447.277 0.259354 0.707991 0
M  V30 4659 H 449.928 1.23072 1.36108 0
M  V30 4660 H 448.31 0.607989 3.91305 0
M  V30 4661 H 449.484 3.36327 3.14993 0
M  V30 4662 H 447.799 2.92888 2.95983 0
M  V30 4663 H 450.396 1.27173 5.19356 0
M  V30 4664 H 450.739 -0.095149 4.16191 0
M  V30 4665 H 451.272 1.53129 3.67146 0
M  V30 4666 H 448.011 4.20347 5.02979 0
M  V30 4667 H 447.531 2.53927 5.43398 0
M  V30 4668 H 449.21 3.07426 5.69296 0
M  V30 4669 N 449.342 -1.36122 0.79427 0
M  V30 4670 C 450.305 -2.28309 0.201889 0
M  V30 4671 C 451.305 -1.49041 -0.603603 0
M  V30 4672 O 452.495 -1.68964 -0.423888 0
M  V30 4673 C 449.627 -3.3321 -0.719978 0
M  V30 4674 H 450.82 -2.82208 1.01481 0
M  V30 4675 H 448.373 -1.45768 0.564037 0
M  V30 4676 H 449.108 -2.84475 -1.55706 0
M  V30 4677 H 448.893 -3.91835 -0.144266 0
M  V30 4678 H 450.383 -4.02044 -1.12916 0
M  V30 4679 N 450.82 -0.546701 -1.47814 0
M  V30 4680 C 452.067 -0.0187407 -2.02491 0
M  V30 4681 C 452.395 1.32685 -1.42215 0
M  V30 4682 O 451.65 1.87413 -0.563454 0
M  V30 4683 C 451.949 0.134869 -3.57145 0
M  V30 4684 C 451.615 -1.13849 -4.3629 0
M  V30 4685 C 450.277 -1.48743 -4.57634 0
M  V30 4686 C 452.629 -1.98277 -4.82012 0
M  V30 4687 C 449.957 -2.67932 -5.21948 0
M  V30 4688 C 452.309 -3.16659 -5.4764 0
M  V30 4689 C 450.973 -3.51879 -5.67219 0
M  V30 4690 H 450.243 -0.0068577 -0.740968 0
M  V30 4691 H 452.89 -0.716097 -1.77607 0
M  V30 4692 H 451.195 0.915118 -3.80963 0
M  V30 4693 H 452.892 0.558556 -3.97091 0
M  V30 4694 H 449.482 -0.856767 -4.19949 0
M  V30 4695 H 453.666 -1.72628 -4.6531 0
M  V30 4696 H 448.922 -2.95401 -5.35302 0
M  V30 4697 H 453.096 -3.82374 -5.82033 0
M  V30 4698 H 450.723 -4.44331 -6.16825 0
M  V30 4699 N 452.299 1.55045 -0.282633 0
M  V30 4700 C 453.209 2.26491 0.61147 0
M  V30 4701 C 454.225 1.29348 1.16384 0
M  V30 4702 O 455.401 1.62298 1.19253 0
M  V30 4703 C 452.466 2.97779 1.77563 0
M  V30 4704 C 451.527 4.10418 1.25919 0
M  V30 4705 C 450.76 4.78297 2.36786 0
M  V30 4706 O 450.983 4.45426 3.56303 0
M  V30 4707 O 449.917 5.66089 2.04517 0
M  V30 4708 H 453.743 3.03683 0.0324615 0
M  V30 4709 H 451.328 1.49317 -0.0497576 0
M  V30 4710 H 453.21 3.42554 2.45427 0
M  V30 4711 H 451.885 2.23498 2.34159 0
M  V30 4712 H 450.792 3.70082 0.546797 0
M  V30 4713 H 452.125 4.86622 0.738887 0
M  V30 4714 N 453.777 0.010035 1.57597 0
M  V30 4715 C 455.054 -0.710296 1.82248 0
M  V30 4716 C 455.434 -1.91426 0.889911 0
M  V30 4717 O 454.782 -2.28424 -0.0590292 0
M  V30 4718 C 454.992 -1.10655 3.30993 0
M  V30 4719 C 456.34 -1.50621 3.96987 0
M  V30 4720 O 457.364 -1.20007 3.35375 0
M  V30 4721 O 456.223 -2.07587 5.05539 0
M  V30 4722 H 453.317 -0.34673 0.750804 0
M  V30 4723 H 455.863 0.0362578 1.69661 0
M  V30 4724 H 454.635 -0.248826 3.90508 0
M  V30 4725 H 454.258 -1.91189 3.48615 0
M  V30 4726 N 455.255 -1.55392 -0.262866 0
M  V30 4727 C 456.218 -1.88181 -1.30846 0
M  V30 4728 C 457.218 -0.757079 -1.41862 0
M  V30 4729 O 458.408 -1.02519 -1.40838 0
M  V30 4730 C 455.54 -2.09609 -2.68844 0
M  V30 4731 H 456.733 -2.81659 -1.02997 0
M  V30 4732 H 454.286 -1.48039 -0.501414 0
M  V30 4733 H 455.021 -1.18547 -3.01856 0
M  V30 4734 H 454.806 -2.91508 -2.62231 0
M  V30 4735 H 456.296 -2.36215 -3.44372 0
M  V30 4736 N 456.733 0.527833 -1.48498 0
M  V30 4737 C 458.01 1.28905 -1.47115 0
M  V30 4738 C 458.39 2.10297 -0.184007 0
M  V30 4739 O 457.738 2.12728 0.834218 0
M  V30 4740 C 457.948 2.16866 -2.73441 0
M  V30 4741 C 459.296 2.76936 -3.21857 0
M  V30 4742 O 460.32 2.27152 -2.74373 0
M  V30 4743 O 459.179 3.67496 -4.04486 0
M  V30 4744 H 456.273 0.581918 -0.587623 0
M  V30 4745 H 458.819 0.544311 -1.60734 0
M  V30 4746 H 457.591 1.56521 -3.58632 0
M  V30 4747 H 457.214 2.98583 -2.62553 0
M  V30 4748 N 458.211 1.37122 0.776871 0
M  V30 4749 C 459.141 1.35164 1.90402 0
M  V30 4750 C 460.122 0.221069 1.68657 0
M  V30 4751 O 461.307 0.420642 1.8959 0
M  V30 4752 C 458.437 1.15274 3.27611 0
M  V30 4753 C 457.391 2.25289 3.63908 0
M  V30 4754 C 456.717 1.90527 4.99603 0
M  V30 4755 C 458.017 3.67446 3.71188 0
M  V30 4756 H 459.711 2.29482 1.92297 0
M  V30 4757 H 457.257 1.10465 0.923773 0
M  V30 4758 H 459.21 1.12536 4.06096 0
M  V30 4759 H 457.934 0.174102 3.26136 0
M  V30 4760 H 456.593 2.27174 2.87728 0
M  V30 4761 H 456.241 0.91206 4.94662 0
M  V30 4762 H 455.941 2.64193 5.24858 0
M  V30 4763 H 457.465 1.89367 5.80493 0
M  V30 4764 H 458.879 3.67719 4.39836 0
M  V30 4765 H 457.276 4.40123 4.07936 0
M  V30 4766 H 458.346 4.01443 2.71977 0
M  V30 4767 N 459.689 -1.00246 1.21608 0
M  V30 4768 C 460.914 -1.78167 1.06167 0
M  V30 4769 C 461.339 -1.84138 -0.384035 0
M  V30 4770 O 460.697 -1.28683 -1.27712 0
M  V30 4771 C 460.745 -3.19786 1.66642 0
M  V30 4772 O 459.849 -4.02153 0.913613 0
M  V30 4773 H 459.19 -0.549 0.37349 0
M  V30 4774 H 461.72 -1.25994 1.61204 0
M  V30 4775 H 461.73 -3.70451 1.70969 0
M  V30 4776 H 460.405 -3.14754 2.7185 0
M  V30 4777 H 458.982 -3.60711 0.945635 0
M  V30 4778 N 461.167 -1.02423 -1.1978 0
M  V30 4779 C 462.097 -0.62157 -2.25075 0
M  V30 4780 C 463.078 0.367148 -1.6609 0
M  V30 4781 O 464.263 0.250892 -1.92573 0
M  V30 4782 C 461.393 0.0331826 -3.47284 0
M  V30 4783 C 460.347 -0.877323 -4.18912 0
M  V30 4784 C 459.673 -0.0879296 -5.34628 0
M  V30 4785 C 460.973 -2.18892 -4.74219 0
M  V30 4786 H 462.667 -1.50179 -2.59011 0
M  V30 4787 H 460.213 -0.723547 -1.24502 0
M  V30 4788 H 462.166 0.326488 -4.20133 0
M  V30 4789 H 460.89 0.948164 -3.12534 0
M  V30 4790 H 459.549 -1.15475 -3.47938 0
M  V30 4791 H 459.197 0.828941 -4.96123 0
M  V30 4792 H 458.897 -0.694359 -5.83483 0
M  V30 4793 H 460.421 0.198743 -6.10276 0
M  V30 4794 H 461.835 -1.95746 -5.38847 0
M  V30 4795 H 460.232 -2.74686 -5.33542 0
M  V30 4796 H 461.302 -2.84674 -3.92541 0
M  V30 4797 N 462.645 1.35699 -0.801477 0
M  V30 4798 C 463.891 1.99208 -0.380022 0
M  V30 4799 C 464.224 1.63445 1.04878 0
M  V30 4800 O 463.499 0.895223 1.72673 0
M  V30 4801 C 463.782 3.55755 -0.557708 0
M  V30 4802 C 463.635 4.01332 -2.03107 0
M  V30 4803 C 464.954 4.40096 0.0197968 0
M  V30 4804 H 462.073 0.723667 -0.139552 0
M  V30 4805 H 464.715 1.60928 -1.01006 0
M  V30 4806 H 462.865 3.88494 -0.0213741 0
M  V30 4807 H 464.537 3.79026 -2.62939 0
M  V30 4808 H 462.78 3.52429 -2.52936 0
M  V30 4809 H 463.451 5.10234 -2.1063 0
M  V30 4810 H 465.927 4.13786 -0.438179 0
M  V30 4811 H 464.803 5.48735 -0.134477 0
M  V30 4812 H 465.064 4.2786 1.11303 0
M  V30 4813 N 464.123 0.554532 1.47522 0
M  V30 4814 C 465.369 0.0295227 2.02779 0
M  V30 4815 C 465.702 -1.31582 1.42828 0
M  V30 4816 O 464.977 -1.85561 0.582872 0
M  V30 4817 C 465.26 -0.0664057 3.60039 0
M  V30 4818 C 465.113 1.30585 4.30427 0
M  V30 4819 C 466.432 -0.781162 4.33112 0
M  V30 4820 H 463.551 0.0122027 0.736899 0
M  V30 4821 H 466.193 0.716305 1.7598 0
M  V30 4822 H 464.343 -0.651307 3.83002 0
M  V30 4823 H 466.015 1.93374 4.18813 0
M  V30 4824 H 464.258 1.88125 3.90886 0
M  V30 4825 H 464.929 1.19147 5.38988 0
M  V30 4826 H 467.405 -0.284565 4.15126 0
M  V30 4827 H 466.281 -0.817237 5.42782 0
M  V30 4828 H 466.542 -1.83672 4.0214 0
M  V30 4829 N 465.601 -1.54893 0.290851 0
M  V30 4830 C 467.012 -1.85584 -0.203816 0
M  V30 4831 C 467.363 -1.21285 -1.54222 0
M  V30 4832 O 466.488 -0.506841 -2.10381 0
M  V30 4833 C 467.083 -3.367 -0.376595 0
M  V30 4834 C 465.642 -3.6746 -0.815485 0
M  V30 4835 C 464.789 -2.77178 0.0821087 0
M  V30 4836 H 467.74 -1.50208 0.512175 0
M  V30 4837 H 467.761 -3.60656 -1.21275 0
M  V30 4838 H 467.273 -3.8347 0.59767 0
M  V30 4839 H 465.374 -3.26201 -1.80066 0
M  V30 4840 H 465.487 -4.7478 -0.641905 0
M  V30 4841 H 463.851 -2.50925 -0.436895 0
M  V30 4842 H 464.634 -3.26767 1.05254 0
M  V30 4843 N 467.08 -0.0183926 -1.57589 0
M  V30 4844 C 468.305 0.676634 -1.96052 0
M  V30 4845 C 468.73 1.6548 -0.894307 0
M  V30 4846 O 468.088 1.80712 0.145849 0
M  V30 4847 C 468.136 1.36872 -3.33614 0
M  V30 4848 O 467.24 2.48372 -3.29219 0
M  V30 4849 H 466.581 0.1786 -0.63953 0
M  V30 4850 H 469.111 -0.077056 -2.04455 0
M  V30 4851 H 469.121 1.72797 -3.69601 0
M  V30 4852 H 467.796 0.651636 -4.10763 0
M  V30 4853 H 466.373 2.14639 -3.04934 0
M  V30 4854 N 468.558 1.5553 0.254621 0
M  V30 4855 C 469.521 1.88872 1.29846 0
M  V30 4856 C 470.521 0.764591 1.41459 0
M  V30 4857 O 471.711 1.03265 1.40293 0
M  V30 4858 C 468.843 2.11032 2.67728 0
M  V30 4859 H 470.036 2.82201 1.01502 0
M  V30 4860 H 467.589 1.48303 0.493556 0
M  V30 4861 H 468.324 1.20146 3.01223 0
M  V30 4862 H 468.109 2.92895 2.60682 0
M  V30 4863 H 469.599 2.38038 3.43115 0
M  V30 4864 N 470.036 -0.519951 1.48776 0
M  V30 4865 C 470.966 -1.63253 1.66945 0
M  V30 4866 C 471.947 -1.62014 0.518224 0
M  V30 4867 O 473.132 -1.79053 0.751919 0
M  V30 4868 C 470.262 -3.0181 1.71836 0
M  V30 4869 C 469.216 -3.17911 2.8656 0
M  V30 4870 C 468.542 -4.5763 2.76548 0
M  V30 4871 C 469.842 -2.99729 4.27738 0
M  V30 4872 H 471.536 -1.48302 2.6009 0
M  V30 4873 H 469.082 -0.712026 1.25165 0
M  V30 4874 H 471.035 -3.79525 1.83135 0
M  V30 4875 H 469.759 -3.17806 0.752775 0
M  V30 4876 H 468.418 -2.42616 2.74833 0
M  V30 4877 H 468.066 -4.70476 1.77937 0
M  V30 4878 H 467.766 -4.69346 3.53536 0
M  V30 4879 H 469.29 -5.37431 2.89828 0
M  V30 4880 H 470.704 -3.67228 4.40246 0
M  V30 4881 H 469.101 -3.22932 5.05801 0
M  V30 4882 H 470.171 -1.96047 4.43502 0
M  V30 4883 N 471.514 -1.37532 -0.769588 0
M  V30 4884 C 472.761 -1.3286 -1.52822 0
M  V30 4885 C 473.089 0.0862597 -1.94309 0
M  V30 4886 O 472.344 1.05995 -1.6451 0
M  V30 4887 C 472.643 -2.21558 -2.8044 0
M  V30 4888 C 472.309 -3.69796 -2.57996 0
M  V30 4889 C 470.971 -4.10194 -2.51583 0
M  V30 4890 C 473.323 -4.63699 -2.37976 0
M  V30 4891 C 470.651 -5.42608 -2.23144 0
M  V30 4892 C 473.003 -5.96353 -2.1106 0
M  V30 4893 C 471.667 -6.35853 -2.03093 0
M  V30 4894 H 470.937 -0.486168 -0.559215 0
M  V30 4895 H 473.584 -1.69757 -0.886277 0
M  V30 4896 H 471.889 -1.77663 -3.49204 0
M  V30 4897 H 473.586 -2.15256 -3.38328 0
M  V30 4898 H 470.176 -3.37759 -2.63851 0
M  V30 4899 H 474.36 -4.33346 -2.41919 0
M  V30 4900 H 469.616 -5.72173 -2.15472 0
M  V30 4901 H 473.79 -6.68667 -1.94568 0
M  V30 4902 H 471.417 -7.38382 -1.8082 0
M  V30 4903 N 472.992 0.995999 -1.22138 0
M  V30 4904 C 473.955 2.06711 -0.990109 0
M  V30 4905 C 474.955 1.60744 0.0422978 0
M  V30 4906 O 476.145 1.73095 -0.195895 0
M  V30 4907 C 473.277 3.37288 -0.49491 0
M  V30 4908 H 474.47 2.28661 -1.94047 0
M  V30 4909 H 472.023 1.16711 -1.03963 0
M  V30 4910 H 472.758 3.21022 0.459948 0
M  V30 4911 H 472.543 3.71986 -1.23971 0
M  V30 4912 H 474.033 4.16103 -0.353253 0
M  V30 4913 N 474.47 1.03057 1.19235 0
M  V30 4914 C 475.433 0.617418 2.20727 0
M  V30 4915 C 476.433 -0.319856 1.57587 0
M  V30 4916 O 477.623 -0.106633 1.73873 0
M  V30 4917 C 474.755 -0.096296 3.40764 0
M  V30 4918 H 475.948 1.51544 2.58794 0
M  V30 4919 H 473.501 0.821949 1.32942 0
M  V30 4920 H 474.236 -1.00859 3.08217 0
M  V30 4921 H 474.021 0.577217 3.87828 0
M  V30 4922 H 475.511 -0.372219 4.15938 0
M  V30 4923 N 475.948 -1.35272 0.808662 0
M  V30 4924 C 477.194 -1.99003 0.390581 0
M  V30 4925 C 477.527 -1.63999 -1.0401 0
M  V30 4926 O 476.802 -0.904368 -1.72196 0
M  V30 4927 C 477.085 -3.55454 0.576566 0
M  V30 4928 C 476.938 -4.00249 2.05233 0
M  V30 4929 C 478.257 -4.401 0.00354277 0
M  V30 4930 H 475.376 -0.722917 0.143388 0
M  V30 4931 H 478.018 -1.6039 1.01858 0
M  V30 4932 H 476.168 -3.88477 0.0419766 0
M  V30 4933 H 477.84 -3.77626 2.64946 0
M  V30 4934 H 476.083 -3.51082 2.54801 0
M  V30 4935 H 476.754 -5.0911 2.13333 0
M  V30 4936 H 479.23 -4.13548 0.460117 0
M  V30 4937 H 478.106 -5.48656 0.163575 0
M  V30 4938 H 478.367 -4.28444 -1.09032 0
M  V30 4939 N 477.426 -0.562348 -1.47226 0
M  V30 4940 C 478.674 -0.0401371 -2.0206 0
M  V30 4941 C 478.995 1.3165 -1.43852 0
M  V30 4942 O 478.265 1.85976 -0.615599 0
M  V30 4943 H 476.845 -0.0118479 -0.746906 0
M  V30 4944 H 479.507 -0.73352 -1.8057 0
M  V30 4945 H 478.603 0.0441254 -3.12069 0
M  V30 4946 N 478.904 1.54736 -0.299062 0
M  V30 4947 C 480.132 2.04512 0.313447 0
M  V30 4948 C 480.547 1.17643 1.47667 0
M  V30 4949 O 479.904 0.20164 1.81383 0
M  V30 4950 C 479.955 3.53171 0.771542 0
M  V30 4951 O 479.676 4.36736 -0.345379 0
M  V30 4952 C 481.177 4.18936 1.4494 0
M  V30 4953 H 478.397 0.667507 0.0683784 0
M  V30 4954 H 480.941 1.99752 -0.438129 0
M  V30 4955 H 479.096 3.58298 1.47314 0
M  V30 4956 H 479.51 5.24499 0.0109219 0
M  V30 4957 H 480.984 5.24482 1.72111 0
M  V30 4958 H 481.461 3.68554 2.38883 0
M  V30 4959 H 482.067 4.17879 0.791028 0
M  V30 4960 N 480.382 0.0267497 1.57577 0
M  V30 4961 C 481.345 -0.940916 2.08996 0
M  V30 4962 C 482.345 -1.25561 1.00455 0
M  V30 4963 O 483.535 -1.19634 1.26623 0
M  V30 4964 C 480.667 -2.25814 2.55384 0
M  V30 4965 H 481.86 -0.495628 2.95776 0
M  V30 4966 H 479.413 -0.221241 1.54726 0
M  V30 4967 H 480.148 -2.74976 1.71926 0
M  V30 4968 H 479.933 -2.04285 3.34679 0
M  V30 4969 H 481.423 -2.95178 2.95398 0
M  V30 4970 N 481.861 -1.55662 -0.24637 0
M  V30 4971 C 483.109 -1.77168 -0.972411 0
M  V30 4972 C 483.43 -0.590827 -1.85834 0
M  V30 4973 O 482.7 0.393365 -1.9191 0
M  V30 4974 H 481.28 -0.653405 -0.362038 0
M  V30 4975 H 483.942 -1.93101 -0.264189 0
M  V30 4976 H 483.038 -2.68335 -1.59382 0
M  V30 4977 N 483.339 0.512053 -1.4905 0
M  V30 4978 C 484.271 1.63121 -1.6101 0
M  V30 4979 C 485.284 1.55145 -0.493352 0
M  V30 4980 O 486.473 1.61278 -0.764955 0
M  V30 4981 C 483.573 3.01863 -1.54052 0
M  V30 4982 C 482.746 3.35138 -2.81072 0
M  V30 4983 C 481.805 4.5324 -2.67319 0
M  V30 4984 O 480.831 4.55571 -3.41238 0
M  V30 4985 N 482.033 5.52495 -1.78127 0
M  V30 4986 H 484.798 1.53292 -2.5753 0
M  V30 4987 H 482.359 0.699706 -1.45999 0
M  V30 4988 H 484.351 3.78774 -1.42521 0
M  V30 4989 H 482.921 3.05675 -0.654345 0
M  V30 4990 H 482.141 2.4723 -3.07036 0
M  V30 4991 H 483.429 3.54162 -3.65304 0
M  V30 4992 H 482.827 5.53403 -1.17308 0
M  V30 4993 H 481.384 6.28553 -1.72525 0
M  V30 4994 N 484.817 1.37938 0.762283 0
M  V30 4995 C 486.233 1.18945 1.06415 0
M  V30 4996 C 486.433 0.0321163 2.01474 0
M  V30 4997 O 485.489 -0.624844 2.44647 0
M  V30 4998 C 486.802 2.51218 1.65258 0
M  V30 4999 C 488.35 2.57824 1.7747 0
M  V30 5000 C 488.825 3.90251 2.39725 0
M  V30 5001 N 490.316 3.91744 2.47166 0
M  V30 5002 C 491.051 4.90966 2.96209 0
M  V30 5003 N 490.547 6.00585 3.45354 0
M  V30 5004 N 492.34 4.78363 2.9517 0
M  V30 5005 H 484.491 2.11994 0.131301 0
M  V30 5006 H 486.754 0.940262 0.120879 0
M  V30 5007 H 486.46 3.36317 1.02878 0
M  V30 5008 H 486.334 2.68989 2.64433 0
M  V30 5009 H 488.721 1.73126 2.3898 0
M  V30 5010 H 488.802 2.43928 0.770241 0
M  V30 5011 H 488.446 4.75368 1.78852 0
M  V30 5012 H 488.376 4.01454 3.40796 0
M  V30 5013 H 490.867 3.12563 2.12397 0
M  V30 5014 H 491.18 6.72236 3.81207 0
M  V30 5015 H 489.525 6.04217 3.43434 0
M  V30 5016 H 492.716 3.91841 2.56082 0
M  V30 5017 H 492.889 5.55843 3.33081 0
M  V30 5018 N 486.295 -0.989507 1.22664 0
M  V30 5019 C 487.535 -1.7447 1.06488 0
M  V30 5020 C 487.899 -1.8794 -0.392737 0
M  V30 5021 O 489.1 -2.60175 -0.675446 0
M  V30 5022 C 487.371 -3.11043 1.76031 0
M  V30 5023 S 488.93 -4.02258 1.7531 0
M  V30 5024 H 485.748 -0.600123 0.381278 0
M  V30 5025 H 488.35 -1.18283 1.55658 0
M  V30 5026 H 487.054 -2.98884 2.81241 0
M  V30 5027 H 486.585 -3.72301 1.27105 0
M  V30 5028 H 488.6 -4.89623 0.805208 0
M  V30 5029 N 487.773 -1.03688 -1.18687 0
M  V30 5030 C 489.001 -0.757918 -1.92518 0
M  V30 5031 C 489.416 0.684398 -1.75959 0
M  V30 5032 O 488.773 1.46617 -1.08673 0
M  V30 5033 C 488.824 -1.10985 -3.44042 0
M  V30 5034 O 488.545 -2.49554 -3.60076 0
M  V30 5035 C 490.046 -0.854844 -4.3498 0
M  V30 5036 H 487.266 -0.276699 -0.611293 0
M  V30 5037 H 489.81 -1.38352 -1.50595 0
M  V30 5038 H 487.965 -0.529279 -3.83767 0
M  V30 5039 H 488.379 -2.6291 -4.53849 0
M  V30 5040 H 489.853 -1.15098 -5.39867 0
M  V30 5041 H 490.33 0.210507 -4.38695 0
M  V30 5042 H 490.936 -1.41853 -4.00946 0
M  V30 5043 N 489.251 1.34841 -0.815825 0
M  V30 5044 C 490.479 2.0273 -0.413294 0
M  V30 5045 C 490.894 1.61459 0.978599 0
M  V30 5046 O 490.251 0.816584 1.63212 0
M  V30 5047 C 490.302 3.58058 -0.497676 0
M  V30 5048 O 490.023 3.97832 -1.8347 0
M  V30 5049 C 491.524 4.4321 -0.0891339 0
M  V30 5050 H 488.744 0.649956 -0.166728 0
M  V30 5051 H 491.288 1.72267 -1.10201 0
M  V30 5052 H 489.443 3.87136 0.142886 0
M  V30 5053 H 489.857 4.92501 -1.80396 0
M  V30 5054 H 491.331 5.5164 -0.199274 0
M  V30 5055 H 491.808 4.28432 0.966571 0
M  V30 5056 H 492.414 4.19446 -0.703214 0
M  V30 5057 N 490.729 0.570148 1.46925 0
M  V30 5058 C 491.692 -0.159933 2.28641 0
M  V30 5059 C 492.692 -0.830638 1.37685 0
M  V30 5060 O 493.882 -0.684516 1.60187 0
M  V30 5061 C 491.014 -1.2354 3.17727 0
M  V30 5062 H 492.207 0.558035 2.94662 0
M  V30 5063 H 489.76 0.327603 1.52828 0
M  V30 5064 H 490.495 -1.98535 2.56426 0
M  V30 5065 H 490.28 -0.759125 3.84681 0
M  V30 5066 H 491.77 -1.74782 3.79264 0
M  V30 5067 N 492.207 -1.54576 0.307264 0
M  V30 5068 C 493.623 -1.59534 -0.0459251 0
M  V30 5069 C 493.823 -1.32414 -1.51884 0
M  V30 5070 O 492.879 -1.1006 -2.27251 0
M  V30 5071 C 494.192 -2.98566 0.357649 0
M  V30 5072 C 495.74 -3.11491 0.306937 0
M  V30 5073 C 496.215 -4.52842 0.685427 0
M  V30 5074 N 497.706 -4.58782 0.638203 0
M  V30 5075 C 498.441 -5.66238 0.903458 0
M  V30 5076 N 497.937 -6.81703 1.23501 0
M  V30 5077 N 499.73 -5.55937 0.830102 0
M  V30 5078 H 491.881 -1.70464 1.26712 0
M  V30 5079 H 494.144 -0.79647 0.514139 0
M  V30 5080 H 493.85 -3.23356 1.38325 0
M  V30 5081 H 493.724 -3.76117 -0.285565 0
M  V30 5082 H 496.111 -2.86446 -0.709424 0
M  V30 5083 H 496.192 -2.36081 0.984861 0
M  V30 5084 H 495.836 -4.78618 1.69963 0
M  V30 5085 H 495.766 -5.26598 -0.0146346 0
M  V30 5086 H 498.257 -3.75849 0.393138 0
M  V30 5087 H 498.57 -7.59582 1.42322 0
M  V30 5088 H 496.915 -6.8324 1.27311 0
M  V30 5089 H 500.106 -4.64608 0.570693 0
M  V30 5090 H 500.279 -6.39597 1.04019 0
M  V30 5091 N 493.685 -0.035106 -1.57561 0
M  V30 5092 C 495.101 0.321334 -1.56332 0
M  V30 5093 C 495.301 1.72509 -1.04129 0
M  V30 5094 O 494.357 2.4287 -0.690694 0
M  V30 5095 C 495.67 0.164469 -3.0025 0
M  V30 5096 C 497.218 0.236786 -3.12103 0
M  V30 5097 C 497.693 0.10864 -4.57871 0
M  V30 5098 N 499.184 0.165433 -4.62904 0
M  V30 5099 C 499.919 0.0901506 -5.73329 0
M  V30 5100 N 499.415 -0.0365606 -6.9279 0
M  V30 5101 N 501.208 0.144572 -5.61914 0
M  V30 5102 H 493.359 -0.952976 -1.89821 0
M  V30 5103 H 495.622 -0.368537 -0.873432 0
M  V30 5104 H 495.328 -0.802746 -3.42416 0
M  V30 5105 H 495.202 0.932194 -3.655 0
M  V30 5106 H 497.589 1.19446 -2.69845 0
M  V30 5107 H 497.67 -0.561419 -2.49563 0
M  V30 5108 H 497.314 -0.845644 -5.00811 0
M  V30 5109 H 497.244 0.925786 -5.18398 0
M  V30 5110 H 499.735 0.263269 -3.76982 0
M  V30 5111 H 500.048 -0.0871487 -7.72751 0
M  V30 5112 H 498.393 -0.0714256 -6.94963 0
M  V30 5113 H 501.584 0.242006 -4.67474 0
M  V30 5114 H 501.757 0.0824413 -6.47948 0
M  V30 5115 N 495.163 1.55791 0.238111 0
M  V30 5116 C 496.093 1.94068 1.29846 0
M  V30 5117 C 497.074 0.806726 1.49753 0
M  V30 5118 O 498.259 1.06772 1.62214 0
M  V30 5119 C 495.389 2.24302 2.65153 0
M  V30 5120 C 494.343 3.40032 2.59927 0
M  V30 5121 C 493.669 3.55829 3.99111 0
M  V30 5122 C 494.969 4.75476 2.16148 0
M  V30 5123 H 496.663 2.82887 0.980563 0
M  V30 5124 H 494.209 1.36105 0.470253 0
M  V30 5125 H 496.162 2.4967 3.39475 0
M  V30 5126 H 494.886 1.32318 2.98596 0
M  V30 5127 H 493.545 3.14687 1.88063 0
M  V30 5128 H 493.193 2.6125 4.29834 0
M  V30 5129 H 492.893 4.3366 3.96501 0
M  V30 5130 H 494.417 3.83528 4.7512 0
M  V30 5131 H 495.831 5.00158 2.80205 0
M  V30 5132 H 494.228 5.56472 2.24631 0
M  V30 5133 H 495.298 4.71946 1.11333 0
M  V30 5134 N 496.642 -0.504142 1.49319 0
M  V30 5135 C 497.889 -1.25846 1.58647 0
M  V30 5136 C 498.217 -1.92592 0.27177 0
M  V30 5137 O 497.472 -1.81167 -0.74007 0
M  V30 5138 C 497.771 -2.35021 2.69258 0
M  V30 5139 C 497.437 -1.85755 4.1086 0
M  V30 5140 C 496.099 -1.72038 4.49395 0
M  V30 5141 C 498.451 -1.48844 4.99495 0
M  V30 5142 C 495.779 -1.19783 5.74342 0
M  V30 5143 C 498.131 -0.980422 6.24956 0
M  V30 5144 C 496.795 -0.829622 6.62324 0
M  V30 5145 H 496.065 -0.460505 0.580531 0
M  V30 5146 H 498.712 -0.559716 1.83138 0
M  V30 5147 H 497.017 -3.10672 2.38726 0
M  V30 5148 H 498.714 -2.93083 2.73685 0
M  V30 5149 H 495.304 -1.9739 3.80441 0
M  V30 5150 H 499.488 -1.5829 4.70381 0
M  V30 5151 H 494.744 -1.06817 6.01997 0
M  V30 5152 H 498.918 -0.685608 6.93017 0
M  V30 5153 H 496.545 -0.42253 7.59025 0
M  V30 5154 N 498.12 -1.38341 -0.754957 0
M  V30 5155 C 499.369 -1.33791 -1.5094 0
M  V30 5156 C 499.682 0.0699267 -1.95475 0
M  V30 5157 O 500.888 0.237956 -2.70455 0
M  V30 5158 C 499.344 -2.34934 -2.72643 0
M  V30 5159 C 498.952 -3.81332 -2.35138 0
M  V30 5160 C 500.696 -2.39425 -3.50536 0
M  V30 5161 C 498.603 -4.74164 -3.53444 0
M  V30 5162 H 497.533 -0.497314 -0.566741 0
M  V30 5163 H 500.184 -1.63888 -0.825403 0
M  V30 5164 H 498.566 -1.97878 -3.43017 0
M  V30 5165 H 499.74 -4.27319 -1.7244 0
M  V30 5166 H 498.055 -3.79946 -1.70382 0
M  V30 5167 H 500.652 -3.0598 -4.38498 0
M  V30 5168 H 500.995 -1.41278 -3.91594 0
M  V30 5169 H 501.528 -2.75274 -2.87174 0
M  V30 5170 H 498.267 -5.73501 -3.17453 0
M  V30 5171 H 497.787 -4.3287 -4.15191 0
M  V30 5172 H 499.466 -4.92111 -4.20043 0
M  V30 5173 N 499.598 0.982988 -1.23187 0
M  V30 5174 C 500.548 2.05962 -0.977942 0
M  V30 5175 C 501.532 1.60725 0.0751148 0
M  V30 5176 O 502.724 1.76471 -0.136683 0
M  V30 5177 C 499.853 3.38564 -0.568276 0
M  V30 5178 C 498.939 3.90407 -1.6566 0
M  V30 5179 N 499.33 4.15359 -2.88635 0
M  V30 5180 C 497.628 4.18915 -1.53058 0
M  V30 5181 C 498.329 4.57642 -3.5908 0
M  V30 5182 N 497.305 4.6192 -2.86584 0
M  V30 5183 H 501.107 2.23208 -1.91195 0
M  V30 5184 H 498.621 1.16555 -1.13087 0
M  V30 5185 H 500.618 4.15276 -0.36764 0
M  V30 5186 H 499.278 3.22712 0.358713 0
M  V30 5187 H 500.289 4.03258 -3.24966 0
M  V30 5188 H 496.966 4.12081 -0.670506 0
M  V30 5189 H 498.356 4.85488 -4.6449 0
M  V30 5190 N 501.076 1.04316 1.18135 0
M  V30 5191 C 501.986 0.646876 2.25505 0
M  V30 5192 C 503.002 -0.328008 1.7088 0
M  V30 5193 O 504.178 -0.182309 2.00573 0
M  V30 5194 C 501.243 0.0185664 3.46695 0
M  V30 5195 C 500.304 1.04277 4.16443 0
M  V30 5196 C 499.537 0.444352 5.31847 0
M  V30 5197 O 499.76 -0.748735 5.65465 0
M  V30 5198 O 498.694 1.17428 5.90334 0
M  V30 5199 H 502.52 1.54147 2.61672 0
M  V30 5200 H 500.105 0.814188 1.25265 0
M  V30 5201 H 501.987 -0.331068 4.20097 0
M  V30 5202 H 500.662 -0.849814 3.12346 0
M  V30 5203 H 499.569 1.44425 3.45098 0
M  V30 5204 H 500.902 1.882 4.54798 0
M  V30 5205 N 502.554 -1.34406 0.822964 0
M  V30 5206 C 503.779 -2.0304 0.423034 0
M  V30 5207 C 504.204 -1.61568 -0.963196 0
M  V30 5208 O 503.562 -0.800339 -1.62678 0
M  V30 5209 C 503.61 -3.56636 0.53321 0
M  V30 5210 O 502.714 -4.09971 -0.446939 0
M  V30 5211 H 502.055 -0.64075 0.174171 0
M  V30 5212 H 504.585 -1.71653 1.11339 0
M  V30 5213 H 504.595 -4.05945 0.408991 0
M  V30 5214 H 503.27 -3.86168 1.54425 0
M  V30 5215 H 501.847 -3.71835 -0.281601 0
M  V30 5216 N 504.032 -0.577932 -1.46621 0
M  V30 5217 C 505.281 -0.0594281 -2.01612 0
M  V30 5218 C 505.594 1.30663 -1.45556 0
M  V30 5219 O 506.8 1.91621 -1.92337 0
M  V30 5220 C 505.256 -0.0556666 -3.59857 0
M  V30 5221 C 504.864 -1.41975 -4.24908 0
M  V30 5222 C 506.608 0.409143 -4.22524 0
M  V30 5223 C 504.515 -1.37397 -5.75218 0
M  V30 5224 H 503.445 -0.0184469 -0.753774 0
M  V30 5225 H 506.096 -0.728869 -1.68404 0
M  V30 5226 H 504.478 0.679843 -3.90121 0
M  V30 5227 H 505.652 -2.17461 -4.0626 0
M  V30 5228 H 503.967 -1.82419 -3.74316 0
M  V30 5229 H 506.564 0.46211 -5.32699 0
M  V30 5230 H 506.907 1.42565 -3.91128 0
M  V30 5231 H 507.44 -0.272152 -3.96868 0
M  V30 5232 H 504.179 -2.36714 -6.11267 0
M  V30 5233 H 503.699 -0.661239 -5.96144 0
M  V30 5234 H 505.378 -1.08484 -6.3784 0
M  V30 5235 N 505.51 1.54411 -0.315457 0
M  V30 5236 C 506.46 2.20772 0.569549 0
M  V30 5237 C 507.444 1.18551 1.08787 0
M  V30 5238 O 508.636 1.44213 1.02624 0
M  V30 5239 C 505.765 2.96293 1.73394 0
M  V30 5240 C 504.851 4.05844 1.2309 0
M  V30 5241 N 505.242 5.03822 0.446927 0
M  V30 5242 C 503.54 4.19648 1.51035 0
M  V30 5243 C 504.241 5.8143 0.17725 0
M  V30 5244 N 503.217 5.38245 0.761118 0
M  V30 5245 H 507.019 2.93877 -0.0368076 0
M  V30 5246 H 504.533 1.61949 -0.120915 0
M  V30 5247 H 506.53 3.42313 2.37965 0
M  V30 5248 H 505.19 2.24708 2.34386 0
M  V30 5249 H 506.201 5.17821 0.0905027 0
M  V30 5250 H 502.878 3.59274 2.1267 0
M  V30 5251 H 504.268 6.70369 -0.45335 0
M  V30 5252 N 506.988 0.0434614 1.5754 0
M  V30 5253 C 508.265 -0.671479 1.83713 0
M  V30 5254 C 508.645 -1.89495 0.930315 0
M  V30 5255 O 507.993 -2.28498 -0.0105639 0
M  V30 5256 C 508.203 -1.0361 3.33266 0
M  V30 5257 C 509.551 -1.42167 4.00092 0
M  V30 5258 O 510.575 -1.12866 3.37846 0
M  V30 5259 O 509.434 -1.96817 5.09829 0
M  V30 5260 H 506.528 -0.330726 0.75799 0
M  V30 5261 H 509.074 0.0722373 1.69546 0
M  V30 5262 H 507.846 -0.165938 3.90948 0
M  V30 5263 H 507.469 -1.83751 3.52592 0
M  V30 5264 N 508.466 -1.55915 -0.229846 0
M  V30 5265 C 509.376 -1.94891 -1.30593 0
M  V30 5266 C 510.392 -0.851604 -1.51736 0
M  V30 5267 O 511.568 -1.15447 -1.65027 0
M  V30 5268 C 508.633 -2.25052 -2.63728 0
M  V30 5269 C 507.694 -3.48306 -2.5096 0
M  V30 5270 C 506.927 -3.77019 -3.77747 0
M  V30 5271 O 507.15 -3.07534 -4.80395 0
M  V30 5272 O 506.084 -4.70523 -3.75356 0
M  V30 5273 H 509.91 -2.86581 -1.00525 0
M  V30 5274 H 507.495 -1.43017 -0.432025 0
M  V30 5275 H 509.377 -2.45682 -3.42372 0
M  V30 5276 H 508.052 -1.36538 -2.93495 0
M  V30 5277 H 506.959 -3.32964 -1.70546 0
M  V30 5278 H 508.292 -4.37177 -2.26136 0
M  V30 5279 N 509.944 0.496216 -1.49584 0
M  V30 5280 C 511.19 1.25189 -1.59548 0
M  V30 5281 C 511.523 1.9212 -0.283466 0
M  V30 5282 O 510.798 1.80947 0.713324 0
M  V30 5283 C 511.081 2.31516 -2.75812 0
M  V30 5284 C 510.934 1.69054 -4.16822 0
M  V30 5285 C 512.253 3.3304 -2.87702 0
M  V30 5286 H 509.372 0.45379 -0.580727 0
M  V30 5287 H 512.014 0.549327 -1.81886 0
M  V30 5288 H 510.164 2.91438 -2.56897 0
M  V30 5289 H 511.836 1.12923 -4.47265 0
M  V30 5290 H 510.079 0.994485 -4.22247 0
M  V30 5291 H 510.75 2.462 -4.94054 0
M  V30 5292 H 513.226 2.83114 -3.04936 0
M  V30 5293 H 512.102 4.04794 -3.7072 0
M  V30 5294 H 512.363 3.95655 -1.97255 0
M  V30 5295 N 511.423 1.38739 0.74761 0
M  V30 5296 C 512.669 1.35475 1.50912 0
M  V30 5297 C 513.002 -0.0533093 1.94127 0
M  V30 5298 O 512.277 -1.01572 1.65871 0
M  V30 5299 C 512.56 2.31582 2.75757 0
M  V30 5300 C 512.413 3.81274 2.38642 0
M  V30 5301 C 513.732 2.25722 3.77806 0
M  V30 5302 H 510.851 0.493427 0.547447 0
M  V30 5303 H 513.493 1.69634 0.855823 0
M  V30 5304 H 511.643 2.02582 3.31501 0
M  V30 5305 H 513.315 4.20972 1.88626 0
M  V30 5306 H 511.558 3.98664 1.71025 0
M  V30 5307 H 512.229 4.4399 3.27989 0
M  V30 5308 H 514.705 2.51336 3.31616 0
M  V30 5309 H 513.581 2.95069 4.62845 0
M  V30 5310 H 513.842 1.25803 4.23823 0
M  V30 5311 N 512.901 -0.976442 1.23707 0
M  V30 5312 C 513.849 -2.09078 1.01927 0
M  V30 5313 C 514.843 -1.69345 -0.0430193 0
M  V30 5314 O 516.049 -1.79659 0.110814 0
M  V30 5315 H 512.424 -0.68398 0.312531 0
M  V30 5316 H 514.395 -2.24614 1.96447 0
M  V30 5317 C 513.144 -3.41919 0.631385 0
M  V30 5318 H 512.467 -3.72946 1.44053 0
M  V30 5319 H 513.907 -4.20817 0.518532 0
M  V30 5320 C 512.366 -3.30357 -0.660723 0
M  V30 5321 O 512.896 -3.63542 -1.70881 0
M  V30 5322 N 511.102 -2.83507 -0.638139 0
M  V30 5323 H 510.649 -2.567 0.215108 0
M  V30 5324 H 510.607 -2.76153 -1.50289 0
M  V30 5325 N 514.379 -1.04941 -1.1758 0
M  V30 5326 C 515.795 -0.770282 -1.39781 0
M  V30 5327 C 515.995 0.636417 -1.91186 0
M  V30 5328 O 515.051 1.39923 -2.10185 0
M  V30 5329 C 516.364 -1.82376 -2.3908 0
M  V30 5330 C 517.912 -1.84569 -2.52791 0
M  V30 5331 C 518.387 -2.88933 -3.55361 0
M  V30 5332 N 519.878 -2.8788 -3.62877 0
M  V30 5333 C 520.613 -3.65282 -4.41992 0
M  V30 5334 N 520.109 -4.52461 -5.24643 0
M  V30 5335 N 521.902 -3.53732 -4.36841 0
M  V30 5336 H 514.053 -1.95705 -0.825438 0
M  V30 5337 H 516.316 -0.847284 -0.425222 0
M  V30 5338 H 516.022 -2.83323 -2.08376 0
M  V30 5339 H 515.896 -1.66327 -3.38549 0
M  V30 5340 H 518.283 -0.842879 -2.82807 0
M  V30 5341 H 518.364 -2.04696 -1.53406 0
M  V30 5342 H 518.008 -3.89398 -3.26085 0
M  V30 5343 H 517.938 -2.66059 -4.54445 0
M  V30 5344 H 520.429 -2.24666 -3.03864 0
M  V30 5345 H 520.742 -5.08211 -5.82187 0
M  V30 5346 H 519.087 -4.56524 -5.24033 0
M  V30 5347 H 522.278 -2.85021 -3.71323 0
M  V30 5348 H 522.451 -4.14302 -4.98255 0
M  V30 5349 N 515.857 1.33968 -0.830081 0
M  V30 5350 C 516.787 2.31911 -0.271911 0
M  V30 5351 C 517.768 1.58571 0.61556 0
M  V30 5352 O 518.953 1.86514 0.540946 0
M  V30 5353 C 516.083 3.42737 0.561146 0
M  V30 5354 C 515.037 4.27383 -0.229789 0
M  V30 5355 C 514.363 5.29742 0.726463 0
M  V30 5356 C 515.663 5.02 -1.44197 0
M  V30 5357 H 517.357 2.78844 -1.09025 0
M  V30 5358 H 514.903 1.34061 -0.52571 0
M  V30 5359 H 516.856 4.10276 0.961867 0
M  V30 5360 H 515.58 2.94471 1.41261 0
M  V30 5361 H 514.239 3.61456 -0.611964 0
M  V30 5362 H 513.887 4.77736 1.57408 0
M  V30 5363 H 513.587 5.87255 0.20142 0
M  V30 5364 H 515.111 6.00149 1.12489 0
M  V30 5365 H 516.525 5.62355 -1.11488 0
M  V30 5366 H 514.922 5.69122 -1.90317 0
M  V30 5367 H 515.992 4.31281 -2.2164 0
M  V30 5368 N 517.335 0.585699 1.46312 0
M  V30 5369 C 518.282 -0.145835 2.30339 0
M  V30 5370 C 519.252 -0.881215 1.40797 0
M  V30 5371 O 520.437 -0.871293 1.69744 0
M  V30 5372 C 517.577 -1.15161 3.25318 0
M  V30 5373 C 516.69 -0.419367 4.2996 0
M  V30 5374 C 515.825 -1.41293 5.12064 0
M  V30 5375 C 514.864 -0.667261 6.08452 0
M  V30 5376 N 514.001 -1.60903 6.83414 0
M  V30 5377 H 518.841 0.576755 2.92365 0
M  V30 5378 H 516.378 0.296237 1.44086 0
M  V30 5379 H 518.336 -1.74763 3.78832 0
M  V30 5380 H 516.966 -1.84188 2.65094 0
M  V30 5381 H 516.018 0.291751 3.7928 0
M  V30 5382 H 517.33 0.163433 4.98532 0
M  V30 5383 H 516.484 -2.08167 5.6987 0
M  V30 5384 H 515.223 -2.02966 4.43459 0
M  V30 5385 H 514.228 0.0152356 5.49798 0
M  V30 5386 H 515.453 -0.0558817 6.79077 0
M  V30 5387 H 513.399 -2.21381 6.17516 0
M  V30 5388 H 513.316 -1.07911 7.48259 0
M  V30 5389 H 514.584 -2.26802 7.45775 0
M  V30 5390 N 518.813 -1.54241 0.323641 0
M  V30 5391 C 519.76 -2.24339 -0.542277 0
M  V30 5392 C 520.73 -1.23421 -1.11159 0
M  V30 5393 O 521.915 -1.52104 -1.15192 0
M  V30 5394 C 519.055 -3.00479 -1.69725 0
M  V30 5395 C 518.168 -4.16214 -1.15716 0
M  V30 5396 C 517.303 -4.79884 -2.27783 0
M  V30 5397 C 516.342 -5.87722 -1.71023 0
M  V30 5398 N 515.479 -6.45254 -2.76752 0
M  V30 5399 H 520.319 -2.97935 0.0620613 0
M  V30 5400 H 517.856 -1.47039 0.0423993 0
M  V30 5401 H 519.814 -3.42869 -2.3769 0
M  V30 5402 H 518.444 -2.29217 -2.27288 0
M  V30 5403 H 517.496 -3.78605 -0.369063 0
M  V30 5404 H 518.808 -4.93838 -0.701832 0
M  V30 5405 H 517.962 -5.25243 -3.03651 0
M  V30 5406 H 516.701 -4.01641 -2.76652 0
M  V30 5407 H 515.706 -5.41765 -0.936518 0
M  V30 5408 H 516.931 -6.67863 -1.2303 0
M  V30 5409 H 514.877 -5.69884 -3.24912 0
M  V30 5410 H 514.794 -7.18292 -2.35782 0
M  V30 5411 H 516.062 -6.95269 -3.5245 0
M  V30 5412 N 520.291 -0.0518155 -1.57515 0
M  V30 5413 C 521.254 0.907547 -2.10467 0
M  V30 5414 C 522.254 1.23947 -1.02439 0
M  V30 5415 O 523.444 1.17604 -1.2851 0
M  V30 5416 C 520.576 2.21723 -2.58944 0
M  V30 5417 H 521.769 0.44851 -2.96527 0
M  V30 5418 H 519.322 0.196598 -1.55059 0
M  V30 5419 H 520.057 2.72206 -1.76279 0
M  V30 5420 H 519.842 1.98935 -3.37886 0
M  V30 5421 H 521.332 2.90441 -3.00056 0
M  V30 5422 N 521.769 1.56035 0.221574 0
M  V30 5423 C 522.999 1.82864 0.961468 0
M  V30 5424 C 523.407 0.628703 1.78449 0
M  V30 5425 O 522.75 -0.412109 1.79018 0
M  V30 5426 C 522.812 3.03425 1.92804 0
M  V30 5427 C 522.476 4.38429 1.28954 0
M  V30 5428 C 523.473 5.15441 0.679431 0
M  V30 5429 C 521.158 4.85151 1.30131 0
M  V30 5430 C 523.152 6.37337 0.0896148 0
M  V30 5431 C 520.839 6.06989 0.707651 0
M  V30 5432 C 521.837 6.82923 0.102855 0
M  V30 5433 O 521.525 8.02456 -0.48157 0
M  V30 5434 H 521.257 0.611883 0.28736 0
M  V30 5435 H 523.811 2.0397 0.241932 0
M  V30 5436 H 522.041 2.78138 2.68656 0
M  V30 5437 H 523.73 3.17127 2.53348 0
M  V30 5438 H 524.496 4.80452 0.662661 0
M  V30 5439 H 520.375 4.26021 1.76145 0
M  V30 5440 H 523.919 6.96547 -0.383069 0
M  V30 5441 H 519.816 6.41451 0.721834 0
M  V30 5442 H 520.584 8.17636 -0.375887 0
M  V30 5443 N 523.247 -0.488276 1.49845 0
M  V30 5444 C 524.21 -1.57069 1.66919 0
M  V30 5445 C 525.21 -1.51445 0.540479 0
M  V30 5446 O 526.4 -1.5437 0.807188 0
M  V30 5447 C 523.532 -2.96718 1.67844 0
M  V30 5448 H 524.725 -1.43254 2.63474 0
M  V30 5449 H 522.278 -0.713435 1.39068 0
M  V30 5450 H 523.013 -3.15996 0.7292 0
M  V30 5451 H 522.798 -3.02208 2.49826 0
M  V30 5452 H 524.288 -3.75335 1.83066 0
M  V30 5453 N 524.725 -1.39134 -0.740242 0
M  V30 5454 C 525.657 -1.33332 -1.86428 0
M  V30 5455 C 526.67 -0.243042 -1.60976 0
M  V30 5456 O 527.859 -0.501608 -1.71307 0
M  V30 5457 C 524.959 -1.04626 -3.22346 0
M  V30 5458 C 524.132 -2.24826 -3.75196 0
M  V30 5459 C 523.191 -1.92659 -4.89662 0
M  V30 5460 O 522.217 -2.6529 -5.03597 0
M  V30 5461 N 523.419 -0.889575 -5.73643 0
M  V30 5462 H 526.184 -2.30196 -1.91911 0
M  V30 5463 H 523.745 -1.33168 -0.920756 0
M  V30 5464 H 525.737 -0.811347 -3.96484 0
M  V30 5465 H 524.307 -0.165129 -3.12164 0
M  V30 5466 H 523.527 -2.64301 -2.9247 0
M  V30 5467 H 524.815 -3.05015 -4.07239 0
M  V30 5468 H 524.213 -0.287529 -5.64969 0
M  V30 5469 H 522.77 -0.714557 -6.47871 0
M  V30 5470 N 526.204 0.969867 -1.24223 0
M  V30 5471 C 527.453 1.70687 -1.07466 0
M  V30 5472 C 527.766 1.91736 0.386861 0
M  V30 5473 O 528.972 2.62986 0.674581 0
M  V30 5474 C 527.428 3.07217 -1.87472 0
M  V30 5475 C 527.036 2.94018 -3.3802 0
M  V30 5476 C 528.78 3.84804 -1.79237 0
M  V30 5477 C 526.687 4.25844 -4.10379 0
M  V30 5478 H 525.617 0.640067 -0.398536 0
M  V30 5479 H 528.268 1.08092 -1.48285 0
M  V30 5480 H 526.65 3.70628 -1.39466 0
M  V30 5481 H 527.824 2.39632 -3.9359 0
M  V30 5482 H 526.139 2.29898 -3.47183 0
M  V30 5483 H 528.736 4.82417 -2.30603 0
M  V30 5484 H 529.079 4.09356 -0.757197 0
M  V30 5485 H 529.612 3.28115 -2.24912 0
M  V30 5486 H 526.351 4.06486 -5.14246 0
M  V30 5487 H 525.871 4.80054 -3.59594 0
M  V30 5488 H 527.55 4.94475 -4.17257 0
M  V30 5489 N 527.682 1.05563 1.17022 0
M  V30 5490 C 529.098 0.777684 1.39371 0
M  V30 5491 C 529.298 -0.626269 1.91521 0
M  V30 5492 O 528.354 -1.38806 2.10924 0
M  V30 5493 C 529.667 1.83642 2.3811 0
M  V30 5494 C 531.215 1.85907 2.51809 0
M  V30 5495 C 531.69 2.90813 3.53824 0
M  V30 5496 N 533.181 2.898 3.61345 0
M  V30 5497 C 533.916 3.6762 4.40049 0
M  V30 5498 N 533.412 4.55237 5.22237 0
M  V30 5499 N 535.205 3.56044 4.34959 0
M  V30 5500 H 527.356 1.9614 0.815047 0
M  V30 5501 H 529.619 0.849527 0.420722 0
M  V30 5502 H 529.325 2.84425 2.06871 0
M  V30 5503 H 529.199 1.6812 3.37662 0
M  V30 5504 H 531.586 0.857865 2.82356 0
M  V30 5505 H 531.667 2.05506 1.52318 0
M  V30 5506 H 531.311 3.91122 3.24015 0
M  V30 5507 H 531.241 2.68465 4.53028 0
M  V30 5508 H 533.732 2.26274 3.02669 0
M  V30 5509 H 534.045 5.11291 5.79484 0
M  V30 5510 H 532.39 4.59296 5.21605 0
M  V30 5511 H 535.581 2.86986 3.69806 0
M  V30 5512 H 535.754 4.16938 4.96051 0
M  V30 5513 N 529.16 -1.33526 0.837174 0
M  V30 5514 C 530.406 -1.9813 0.432704 0
M  V30 5515 C 530.739 -1.66168 -1.00508 0
M  V30 5516 O 530.014 -0.94069 -1.70239 0
M  V30 5517 C 530.297 -3.54151 0.651834 0
M  V30 5518 C 530.15 -3.95806 2.13676 0
M  V30 5519 C 531.469 -4.39993 0.0968937 0
M  V30 5520 H 528.588 -0.719713 0.15869 0
M  V30 5521 H 531.23 -1.58193 1.05237 0
M  V30 5522 H 529.38 -3.88301 0.124369 0
M  V30 5523 H 531.052 -3.71921 2.72896 0
M  V30 5524 H 529.295 -3.45599 2.62191 0
M  V30 5525 H 529.966 -5.0447 2.24084 0
M  V30 5526 H 532.442 -4.12479 0.547733 0
M  V30 5527 H 531.318 -5.48186 0.279917 0
M  V30 5528 H 531.579 -4.3066 -0.9992 0
M  V30 5529 N 530.638 -0.59345 -1.46 0
M  V30 5530 C 531.886 -0.082988 -2.0193 0
M  V30 5531 C 532.207 1.28569 -1.46612 0
M  V30 5532 O 531.477 1.84629 -0.654909 0
M  V30 5533 H 530.057 -0.0276882 -0.746487 0
M  V30 5534 H 532.719 -0.771657 -1.78973 0
M  V30 5535 H 531.815 -0.022079 -3.12092 0
M  V30 5536 N 532.116 1.54067 -0.331816 0
M  V30 5537 C 533.064 2.26105 0.54582 0
M  V30 5538 C 534.058 1.27816 1.11173 0
M  V30 5539 O 535.264 1.45565 1.05882 0
M  V30 5540 H 531.639 0.726363 0.194683 0
M  V30 5541 H 533.61 2.98282 -0.083931 0
M  V30 5542 C 532.359 3.03814 1.69092 0
M  V30 5543 H 531.682 3.79269 1.26473 0
M  V30 5544 H 533.122 3.57453 2.28043 0
M  V30 5545 C 531.581 2.12606 2.61343 0
M  V30 5546 O 532.111 1.71437 3.6328 0
M  V30 5547 N 530.317 1.77925 2.29763 0
M  V30 5548 H 529.864 2.11602 1.46909 0
M  V30 5549 H 529.822 1.1718 2.91747 0
M  V30 5550 N 533.594 0.0601682 1.57485 0
M  V30 5551 C 535.005 -0.474217 1.80577 0
M  V30 5552 C 535.356 -1.70365 0.973147 0
M  V30 5553 O 534.481 -2.15544 0.192306 0
M  V30 5554 C 535.076 -0.867102 3.27516 0
M  V30 5555 C 533.635 -1.34642 3.51495 0
M  V30 5556 C 532.782 -0.32594 2.75378 0
M  V30 5557 H 535.733 0.285973 1.56102 0
M  V30 5558 H 535.754 -1.72938 3.38929 0
M  V30 5559 H 535.266 0.0278927 3.8809 0
M  V30 5560 H 533.367 -2.2603 2.96212 0
M  V30 5561 H 533.48 -1.33237 4.60201 0
M  V30 5562 H 531.844 -0.800749 2.41785 0
M  V30 5563 H 532.627 0.561125 3.38683 0
M  V30 5564 N 535.072 -1.5615 -0.213296 0
M  V30 5565 C 536.318 -1.80718 -0.933402 0
M  V30 5566 C 536.673 -0.634441 -1.81639 0
M  V30 5567 O 535.966 0.371182 -1.8797 0
M  V30 5568 C 536.16 -3.08772 -1.79985 0
M  V30 5569 C 535.989 -4.38389 -1.00224 0
M  V30 5570 C 534.759 -5.00513 -0.693885 0
M  V30 5571 C 536.957 -5.13013 -0.363598 0
M  V30 5572 N 534.939 -6.13774 0.124266 0
M  V30 5573 C 536.31 -6.19186 0.31757 0
M  V30 5574 C 538.365 -4.97126 -0.277468 0
M  V30 5575 C 537.068 -7.11197 1.07664 0
M  V30 5576 C 539.094 -5.89544 0.468155 0
M  V30 5577 C 538.456 -6.95149 1.13784 0
M  V30 5578 H 534.555 -0.712833 -0.321549 0
M  V30 5579 H 537.139 -1.93633 -0.203588 0
M  V30 5580 H 535.31 -2.97126 -2.50142 0
M  V30 5581 H 537.042 -3.21499 -2.45806 0
M  V30 5582 H 533.797 -4.62619 -1.01391 0
M  V30 5583 H 534.221 -6.74981 0.522418 0
M  V30 5584 H 538.863 -4.15526 -0.78087 0
M  V30 5585 H 536.581 -7.92273 1.59153 0
M  V30 5586 H 540.167 -5.79327 0.535911 0
M  V30 5587 H 539.047 -7.65428 1.70557 0
M  V30 5588 N 536.55 0.480323 -1.50102 0
M  V30 5589 C 537.827 1.24159 -1.51142 0
M  V30 5590 C 538.207 2.09605 -0.250818 0
M  V30 5591 O 537.555 2.15274 0.766118 0
M  V30 5592 C 537.765 2.08057 -2.80202 0
M  V30 5593 C 539.113 2.66556 -3.30504 0
M  V30 5594 O 540.137 2.18308 -2.81461 0
M  V30 5595 O 538.996 3.54442 -4.15973 0
M  V30 5596 H 536.09 0.562928 -0.605839 0
M  V30 5597 H 538.636 0.492899 -1.62384 0
M  V30 5598 H 537.408 1.45032 -3.6343 0
M  V30 5599 H 537.031 2.90079 -2.71919 0
M  V30 5600 N 538.028 1.39524 0.732853 0
M  V30 5601 C 539.439 1.32905 1.31122 0
M  V30 5602 C 539.79 -0.00558708 1.96199 0
M  V30 5603 O 538.915 -0.907706 1.96443 0
M  V30 5604 C 539.51 2.40704 2.38426 0
M  V30 5605 C 538.069 2.37599 2.91931 0
M  V30 5606 C 537.216 2.2248 1.65523 0
M  V30 5607 H 540.167 1.49581 0.530207 0
M  V30 5608 H 540.188 2.07616 3.18867 0
M  V30 5609 H 539.7 3.37829 1.91033 0
M  V30 5610 H 537.801 1.44119 3.43599 0
M  V30 5611 H 537.914 3.32538 3.44899 0
M  V30 5612 H 536.278 1.69691 1.8994 0
M  V30 5613 H 537.061 3.21577 1.20178 0
M  V30 5614 N 539.506 -0.963266 1.24736 0
M  V30 5615 C 540.454 -2.07985 1.04139 0
M  V30 5616 C 541.448 -1.69381 -0.0250556 0
M  V30 5617 O 542.654 -1.79531 0.129863 0
M  V30 5618 H 539.029 -0.680627 0.319768 0
M  V30 5619 H 541 -2.22517 1.98818 0
M  V30 5620 C 539.749 -3.4123 0.667615 0
M  V30 5621 H 539.072 -3.71397 1.48 0
M  V30 5622 H 540.512 -4.20244 0.563136 0
M  V30 5623 C 538.971 -3.3104 -0.625647 0
M  V30 5624 O 539.501 -3.65334 -1.67016 0
M  V30 5625 N 537.707 -2.84168 -0.608033 0
M  V30 5626 H 537.254 -2.56458 0.242323 0
M  V30 5627 H 537.212 -2.77732 -1.47352 0
M  V30 5628 N 540.985 -1.06182 -1.16461 0
M  V30 5629 C 542.231 -0.779015 -1.87241 0
M  V30 5630 C 542.564 0.692715 -1.81425 0
M  V30 5631 O 541.839 1.5074 -1.22913 0
M  V30 5632 C 542.122 -1.2728 -3.36856 0
M  V30 5633 C 541.975 -2.80821 -3.51368 0
M  V30 5634 C 543.294 -0.879799 -4.31216 0
M  V30 5635 H 540.413 -0.284464 -0.679889 0
M  V30 5636 H 543.055 -1.31755 -1.36896 0
M  V30 5637 H 541.205 -0.814673 -3.79862 0
M  V30 5638 H 542.877 -3.34833 -3.17308 0
M  V30 5639 H 541.12 -3.19606 -2.93316 0
M  V30 5640 H 541.791 -3.10435 -4.56436 0
M  V30 5641 H 544.267 -1.27436 -3.96105 0
M  V30 5642 H 543.143 -1.25278 -5.34412 0
M  V30 5643 H 543.404 0.215372 -4.41575 0
M  V30 5644 N 542.463 1.3308 -0.844243 0
M  V30 5645 C 543.393 2.3161 -0.296493 0
M  V30 5646 C 544.374 1.59215 0.598707 0
M  V30 5647 O 545.559 1.87077 0.521134 0
M  V30 5648 C 542.689 3.43313 0.524762 0
M  V30 5649 C 541.643 4.27115 -0.275106 0
M  V30 5650 C 540.969 5.30483 0.670236 0
M  V30 5651 C 542.269 5.00443 -1.49514 0
M  V30 5652 H 543.963 2.77672 -1.11976 0
M  V30 5653 H 541.509 1.33496 -0.539899 0
M  V30 5654 H 543.462 4.11273 0.918298 0
M  V30 5655 H 542.186 2.95952 1.3813 0
M  V30 5656 H 540.845 3.60787 -0.650267 0
M  V30 5657 H 540.493 4.79379 1.52332 0
M  V30 5658 H 540.193 5.87435 0.139123 0
M  V30 5659 H 541.717 6.01308 1.06117 0
M  V30 5660 H 543.131 5.61141 -1.17447 0
M  V30 5661 H 541.528 5.67071 -1.96343 0
M  V30 5662 H 542.598 4.28906 -2.26202 0
M  V30 5663 N 543.941 0.601185 1.45683 0
M  V30 5664 C 545.171 0.0999093 2.06358 0
M  V30 5665 C 545.579 -1.21831 1.44754 0
M  V30 5666 O 544.922 -1.75157 0.553695 0
M  V30 5667 C 544.984 -0.12085 3.59297 0
M  V30 5668 C 544.648 1.11459 4.432 0
M  V30 5669 C 545.645 2.03118 4.7858 0
M  V30 5670 C 543.33 1.34162 4.84051 0
M  V30 5671 C 545.324 3.15814 5.53661 0
M  V30 5672 C 543.011 2.4716 5.58888 0
M  V30 5673 C 544.009 3.37814 5.93608 0
M  V30 5674 O 543.697 4.48846 6.66928 0
M  V30 5675 H 543.429 0.0630316 0.673055 0
M  V30 5676 H 545.983 0.826982 1.88016 0
M  V30 5677 H 544.213 -0.902744 3.76015 0
M  V30 5678 H 545.902 -0.572925 4.01836 0
M  V30 5679 H 546.668 1.86801 4.47583 0
M  V30 5680 H 542.547 0.645018 4.56465 0
M  V30 5681 H 546.091 3.86596 5.8068 0
M  V30 5682 H 541.988 2.63432 5.89299 0
M  V30 5683 H 542.756 4.47446 6.85371 0
M  V30 5684 N 545.419 -1.53889 0.339982 0
M  V30 5685 C 546.667 -2.00458 -0.257112 0
M  V30 5686 C 546.988 -1.22953 -1.51353 0
M  V30 5687 O 546.258 -0.335734 -1.93002 0
M  V30 5688 H 544.838 -0.740544 -0.0979965 0
M  V30 5689 H 547.5 -1.89386 0.460317 0
M  V30 5690 H 546.596 -3.08035 -0.502057 0
M  V30 5691 N 546.897 -0.0685191 -1.57451 0
M  V30 5692 C 548.308 0.464634 -1.80826 0
M  V30 5693 C 548.659 1.69847 -0.982169 0
M  V30 5694 O 547.784 2.15439 -0.203734 0
M  V30 5695 C 548.379 0.849721 -3.27971 0
M  V30 5696 C 546.938 1.32776 -3.52204 0
M  V30 5697 C 546.085 0.311332 -2.75547 0
M  V30 5698 H 549.036 -0.294248 -1.55948 0
M  V30 5699 H 549.057 1.71138 -3.39841 0
M  V30 5700 H 548.569 -0.0484736 -3.8807 0
M  V30 5701 H 546.67 2.24456 -2.97406 0
M  V30 5702 H 546.783 1.30794 -4.60901 0
M  V30 5703 H 545.147 0.787915 -2.42206 0
M  V30 5704 H 545.93 -0.579078 -3.38381 0
M  V30 5705 N 548.375 1.56261 0.205012 0
M  V30 5706 C 549.305 1.96779 1.257 0
M  V30 5707 C 550.286 0.838309 1.48008 0
M  V30 5708 O 551.471 1.10189 1.59913 0
M  V30 5709 C 548.601 2.29876 2.60335 0
M  V30 5710 C 547.555 3.45469 2.52656 0
M  V30 5711 C 546.881 3.64215 3.91473 0
M  V30 5712 C 548.181 4.79954 2.06014 0
M  V30 5713 H 549.875 2.84904 0.920338 0
M  V30 5714 H 547.421 1.37072 0.441277 0
M  V30 5715 H 549.374 2.56814 3.34102 0
M  V30 5716 H 548.098 1.38622 2.95722 0
M  V30 5717 H 546.757 3.18605 1.81345 0
M  V30 5718 H 546.405 2.70309 4.24196 0
M  V30 5719 H 546.105 4.41973 3.87213 0
M  V30 5720 H 547.629 3.93519 4.66878 0
M  V30 5721 H 549.043 5.05989 2.69533 0
M  V30 5722 H 547.44 5.61111 2.12777 0
M  V30 5723 H 548.51 4.74201 1.01297 0
M  V30 5724 N 549.853 -0.472356 1.50355 0
M  V30 5725 C 550.803 -1.56809 1.65514 0
M  V30 5726 C 551.787 -1.5261 0.509801 0
M  V30 5727 O 552.979 -1.59655 0.764145 0
M  V30 5728 C 550.108 -2.9526 1.75146 0
M  V30 5729 C 549.194 -3.04348 2.95353 0
M  V30 5730 N 549.585 -2.83253 4.19048 0
M  V30 5731 C 547.883 -3.35482 2.93884 0
M  V30 5732 C 548.584 -2.97273 5.00003 0
M  V30 5733 N 547.56 -3.27418 4.33934 0
M  V30 5734 H 551.362 -1.39197 2.58846 0
M  V30 5735 H 548.876 -0.67906 1.47521 0
M  V30 5736 H 550.873 -3.74044 1.8411 0
M  V30 5737 H 549.533 -3.1392 0.829717 0
M  V30 5738 H 550.544 -2.5886 4.48567 0
M  V30 5739 H 547.221 -3.60138 2.11204 0
M  V30 5740 H 548.611 -2.85214 6.08361 0
M  V30 5741 N 551.331 -1.39911 -0.725443 0
M  V30 5742 C 552.559 -1.40949 -1.51463 0
M  V30 5743 C 552.974 -0.0065242 -1.88799 0
M  V30 5744 O 552.331 0.967163 -1.54765 0
M  V30 5745 C 552.382 -2.29119 -2.79619 0
M  V30 5746 O 552.103 -3.63952 -2.43866 0
M  V30 5747 C 553.604 -2.38642 -3.73584 0
M  V30 5748 H 550.824 -0.481091 -0.467752 0
M  V30 5749 H 553.368 -1.83843 -0.895651 0
M  V30 5750 H 551.523 -1.89612 -3.37826 0
M  V30 5751 H 551.937 -4.10677 -3.26258 0
M  V30 5752 H 553.411 -3.04563 -4.60375 0
M  V30 5753 H 553.888 -1.40846 -4.16004 0
M  V30 5754 H 554.494 -2.78659 -3.21293 0
M  V30 5755 N 552.809 0.956637 -1.25245 0
M  V30 5756 C 553.756 2.053 -1.05454 0
M  V30 5757 C 554.726 1.66062 0.0356889 0
M  V30 5758 O 555.911 1.90415 -0.121099 0
M  V30 5759 C 553.051 3.38391 -0.677191 0
M  V30 5760 C 552.164 3.90758 -1.84206 0
M  V30 5761 C 551.299 5.12165 -1.40926 0
M  V30 5762 C 550.338 5.56757 -2.54338 0
M  V30 5763 N 549.475 6.69376 -2.11848 0
M  V30 5764 H 554.315 2.21562 -1.99284 0
M  V30 5765 H 551.852 1.08578 -0.992434 0
M  V30 5766 H 553.81 4.1488 -0.43938 0
M  V30 5767 H 552.44 3.22021 0.224127 0
M  V30 5768 H 551.492 3.10808 -2.19323 0
M  V30 5769 H 552.804 4.19802 -2.69383 0
M  V30 5770 H 551.958 5.96065 -1.13098 0
M  V30 5771 H 550.697 4.84832 -0.528175 0
M  V30 5772 H 549.702 4.71423 -2.82913 0
M  V30 5773 H 550.927 5.861 -3.43022 0
M  V30 5774 H 548.873 6.43756 -1.26153 0
M  V30 5775 H 548.79 6.97927 -2.90574 0
M  V30 5776 H 550.058 7.5669 -1.87191 0
M  V30 5777 N 554.287 1.06798 1.15896 0
M  V30 5778 C 555.219 0.641263 2.20046 0
M  V30 5779 C 556.232 -0.303355 1.59949 0
M  V30 5780 O 557.421 -0.0935478 1.78255 0
M  V30 5781 C 554.521 -0.0794029 3.38807 0
M  V30 5782 C 553.694 0.879986 4.28457 0
M  V30 5783 C 552.753 0.197638 5.25829 0
M  V30 5784 O 551.779 0.836913 5.63014 0
M  V30 5785 N 552.981 -1.05886 5.70761 0
M  V30 5786 H 555.746 1.53718 2.57276 0
M  V30 5787 H 553.307 0.951951 1.30956 0
M  V30 5788 H 555.299 -0.546418 4.00994 0
M  V30 5789 H 553.869 -0.877193 3.0004 0
M  V30 5790 H 553.089 1.52625 3.63454 0
M  V30 5791 H 554.377 1.53065 4.8523 0
M  V30 5792 H 553.775 -1.59828 5.42652 0
M  V30 5793 H 552.332 -1.46965 6.35015 0
M  V30 5794 N 555.766 -1.3263 0.851289 0
M  V30 5795 C 556.729 -2.27247 0.298541 0
M  V30 5796 C 557.729 -1.51467 -0.539847 0
M  V30 5797 O 558.919 -1.7061 -0.351843 0
M  V30 5798 C 556.051 -3.35964 -0.578004 0
M  V30 5799 H 557.244 -2.7765 1.13359 0
M  V30 5800 H 554.797 -1.43245 0.625354 0
M  V30 5801 H 555.532 -2.90823 -1.435 0
M  V30 5802 H 555.317 -3.92094 0.0220539 0
M  V30 5803 H 556.807 -4.06472 -0.957626 0
M  V30 5804 N 557.244 -0.608902 -1.45362 0
M  V30 5805 C 558.49 -0.104762 -2.02529 0
M  V30 5806 C 558.823 1.26191 -1.47613 0
M  V30 5807 O 558.098 1.8327 -0.65134 0
M  V30 5808 C 558.381 -0.0672661 -3.60037 0
M  V30 5809 C 558.234 -1.4647 -4.25284 0
M  V30 5810 C 559.553 0.619877 -4.35713 0
M  V30 5811 H 556.672 -0.0395438 -0.735938 0
M  V30 5812 H 559.314 -0.781126 -1.73201 0
M  V30 5813 H 557.464 0.50871 -3.85155 0
M  V30 5814 H 559.136 -2.08785 -4.11347 0
M  V30 5815 H 557.379 -2.02502 -3.83634 0
M  V30 5816 H 558.05 -1.39069 -5.34195 0
M  V30 5817 H 560.526 0.130297 -4.15896 0
M  V30 5818 H 559.402 0.615224 -5.45441 0
M  V30 5819 H 559.663 1.68621 -4.0868 0
M  V30 5820 N 558.722 1.53707 -0.348139 0
M  V30 5821 C 559.947 2.05877 0.250883 0
M  V30 5822 C 560.372 1.22115 1.43072 0
M  V30 5823 O 559.73 0.235986 1.79758 0
M  V30 5824 C 559.778 3.54886 0.639416 0
M  V30 5825 O 558.882 3.73948 1.73888 0
M  V30 5826 H 558.223 0.662754 0.040653 0
M  V30 5827 H 560.753 1.98303 -0.503685 0
M  V30 5828 H 560.763 3.97601 0.915295 0
M  V30 5829 H 559.438 4.153 -0.223386 0
M  V30 5830 H 558.015 3.43134 1.45991 0
M  V30 5831 N 560.2 0.0768682 1.57412 0
M  V30 5832 C 561.133 -0.924685 2.08626 0
M  V30 5833 C 562.111 -1.28792 0.992542 0
M  V30 5834 O 563.295 -1.39634 1.26628 0
M  V30 5835 C 560.422 -2.23131 2.54814 0
M  V30 5836 C 559.468 -2.01928 3.75669 0
M  V30 5837 S 560.301 -1.27397 5.20125 0
M  V30 5838 C 561.457 -2.59329 5.69648 0
M  V30 5839 H 561.69 -0.488928 2.93252 0
M  V30 5840 H 559.223 -0.136014 1.538 0
M  V30 5841 H 561.181 -2.98226 2.82084 0
M  V30 5842 H 559.842 -2.63831 1.70447 0
M  V30 5843 H 559.035 -2.98639 4.05993 0
M  V30 5844 H 558.637 -1.34967 3.48798 0
M  V30 5845 H 560.929 -3.55394 5.76803 0
M  V30 5846 H 561.872 -2.33608 6.68456 0
M  V30 5847 H 562.28 -2.66767 4.9749 0
M  V30 5848 N 561.678 -1.56367 -0.196722 0
M  V30 5849 C 562.925 -1.80529 -0.917366 0
M  V30 5850 C 563.253 -0.649817 -1.83324 0
M  V30 5851 O 562.508 0.36451 -1.92275 0
M  V30 5852 C 562.807 -3.10663 -1.767 0
M  V30 5853 C 562.473 -4.3962 -1.00225 0
M  V30 5854 C 561.135 -4.74653 -0.791095 0
M  V30 5855 C 563.487 -5.1913 -0.464035 0
M  V30 5856 C 560.815 -5.86692 -0.0302155 0
M  V30 5857 C 563.167 -6.31964 0.283625 0
M  V30 5858 C 561.831 -6.65581 0.505813 0
M  V30 5859 H 561.101 -0.660602 -0.335688 0
M  V30 5860 H 563.748 -1.90615 -0.183844 0
M  V30 5861 H 562.053 -2.95807 -2.56915 0
M  V30 5862 H 563.75 -3.26563 -2.32718 0
M  V30 5863 H 560.34 -4.12127 -1.17684 0
M  V30 5864 H 564.524 -4.9248 -0.614575 0
M  V30 5865 H 559.78 -6.11211 0.151917 0
M  V30 5866 H 563.954 -6.92791 0.708057 0
M  V30 5867 H 561.581 -7.52239 1.0973 0
M  V30 5868 N 563.156 0.464375 -1.50603 0
M  V30 5869 C 564.086 1.56944 -1.72889 0
M  V30 5870 C 565.067 1.59979 -0.577997 0
M  V30 5871 O 566.252 1.76138 -0.817855 0
M  V30 5872 C 563.382 2.95225 -1.8292 0
M  V30 5873 C 562.336 3.07056 -2.98162 0
M  V30 5874 C 561.662 4.47051 -2.93343 0
M  V30 5875 C 562.962 2.83648 -4.38567 0
M  V30 5876 H 564.656 1.38547 -2.65415 0
M  V30 5877 H 562.202 0.665082 -1.27721 0
M  V30 5878 H 564.155 3.72467 -1.97095 0
M  V30 5879 H 562.879 3.14793 -0.870209 0
M  V30 5880 H 561.538 2.32248 -2.83648 0
M  V30 5881 H 561.186 4.63547 -1.95276 0
M  V30 5882 H 560.886 4.55902 -3.70712 0
M  V30 5883 H 562.41 5.26304 -3.09575 0
M  V30 5884 H 563.824 3.50636 -4.53572 0
M  V30 5885 H 562.221 3.03937 -5.17438 0
M  V30 5886 H 563.291 1.79451 -4.50472 0
M  V30 5887 N 564.634 1.40294 0.718013 0
M  V30 5888 C 565.882 1.38167 1.47494 0
M  V30 5889 C 566.203 -0.01607 1.94993 0
M  V30 5890 O 565.473 -0.970396 1.70177 0
M  V30 5891 H 564.053 0.508505 0.547203 0
M  V30 5892 H 566.715 1.75324 0.851322 0
M  V30 5893 H 565.811 2.05503 2.34894 0
M  V30 5894 N 566.112 -0.949982 1.2575 0
M  V30 5895 C 567.075 -2.02894 1.06615 0
M  V30 5896 C 568.075 -1.60791 0.0173905 0
M  V30 5897 O 569.265 -1.72249 0.260003 0
M  V30 5898 C 566.397 -3.35219 0.619751 0
M  V30 5899 H 567.59 -2.21302 2.02399 0
M  V30 5900 H 565.143 -1.12772 1.08223 0
M  V30 5901 H 565.878 -3.22508 -0.340486 0
M  V30 5902 H 565.663 -3.67129 1.37692 0
M  V30 5903 H 567.153 -4.14505 0.507443 0
M  V30 5904 N 567.59 -1.07411 -1.15328 0
M  V30 5905 C 568.836 -0.798831 -1.86404 0
M  V30 5906 C 569.169 0.673433 -1.8215 0
M  V30 5907 O 568.444 1.49428 -1.24505 0
M  V30 5908 C 568.727 -1.30846 -3.35487 0
M  V30 5909 C 568.58 -2.84532 -3.4837 0
M  V30 5910 C 569.899 -0.925486 -4.30259 0
M  V30 5911 H 567.018 -0.291659 -0.676834 0
M  V30 5912 H 569.66 -1.332 -1.35491 0
M  V30 5913 H 567.81 -0.854916 -3.78977 0
M  V30 5914 H 569.482 -3.3818 -3.13739 0
M  V30 5915 H 567.725 -3.22699 -2.8991 0
M  V30 5916 H 568.396 -3.15259 -4.53118 0
M  V30 5917 H 570.872 -1.3163 -3.94731 0
M  V30 5918 H 569.748 -1.3094 -5.33053 0
M  V30 5919 H 570.009 0.168525 -4.41779 0
M  V30 5920 N 569.068 1.32177 -0.85831 0
M  V30 5921 C 569.978 2.32561 -0.308606 0
M  V30 5922 C 570.994 1.64209 0.575462 0
M  V30 5923 O 572.17 1.95719 0.474961 0
M  V30 5924 C 569.235 3.43207 0.490909 0
M  V30 5925 C 568.296 4.27243 -0.419733 0
M  V30 5926 C 567.529 5.32605 0.341719 0
M  V30 5927 O 567.752 5.48332 1.57125 0
M  V30 5928 O 566.686 6.0118 -0.294379 0
M  V30 5929 H 570.512 2.81477 -1.14037 0
M  V30 5930 H 568.097 1.35866 -0.621349 0
M  V30 5931 H 569.979 4.10677 0.944574 0
M  V30 5932 H 568.654 2.96474 1.29941 0
M  V30 5933 H 567.561 3.62569 -0.921652 0
M  V30 5934 H 568.894 4.7751 -1.19352 0
M  V30 5935 N 570.547 0.616602 1.45037 0
M  V30 5936 C 571.457 -0.0985401 2.34393 0
M  V30 5937 C 572.473 -0.850971 1.51771 0
M  V30 5938 O 573.649 -0.806521 1.84546 0
M  V30 5939 C 570.714 -1.07748 3.29532 0
M  V30 5940 C 569.775 -0.326022 4.2806 0
M  V30 5941 C 569.008 -1.25833 5.18654 0
M  V30 5942 O 569.231 -2.49652 5.12864 0
M  V30 5943 O 568.165 -0.750512 5.97203 0
M  V30 5944 H 571.991 0.636016 2.96966 0
M  V30 5945 H 569.576 0.376832 1.44569 0
M  V30 5946 H 571.458 -1.64107 3.88133 0
M  V30 5947 H 570.133 -1.79291 2.69512 0
M  V30 5948 H 569.04 0.280253 3.73049 0
M  V30 5949 H 570.373 0.349091 4.9096 0
M  V30 5950 N 572.025 -1.5352 0.356285 0
M  V30 5951 C 572.988 -2.24071 -0.482182 0
M  V30 5952 C 573.988 -1.24531 -1.01729 0
M  V30 5953 O 575.178 -1.48876 -0.904513 0
M  V30 5954 C 572.31 -2.97025 -1.67299 0
M  V30 5955 H 573.503 -2.99596 0.135031 0
M  V30 5956 H 571.056 -1.55928 0.107825 0
M  V30 5957 H 571.791 -2.25719 -2.32855 0
M  V30 5958 H 571.576 -3.7005 -1.29636 0
M  V30 5959 H 573.066 -3.50683 -2.26741 0
M  V30 5960 N 573.503 -0.0852151 -1.57369 0
M  V30 5961 C 574.45 0.877268 -2.13478 0
M  V30 5962 C 575.42 1.28642 -1.05073 0
M  V30 5963 O 576.605 1.36992 -1.32808 0
M  V30 5964 C 573.745 2.13464 -2.71159 0
M  V30 5965 C 572.858 1.77691 -3.93764 0
M  V30 5966 C 571.993 2.98139 -4.39643 0
M  V30 5967 C 571.032 2.58447 -5.54862 0
M  V30 5968 N 570.169 3.71698 -5.95639 0
M  V30 5969 H 575.009 0.391933 -2.95411 0
M  V30 5970 H 572.546 0.181796 -1.45972 0
M  V30 5971 H 574.504 2.87086 -3.02717 0
M  V30 5972 H 573.134 2.59514 -1.91969 0
M  V30 5973 H 572.186 0.940768 -3.68583 0
M  V30 5974 H 573.498 1.44497 -4.77412 0
M  V30 5975 H 572.652 3.80026 -4.72933 0
M  V30 5976 H 571.391 3.34536 -3.54876 0
M  V30 5977 H 570.396 1.74984 -5.21211 0
M  V30 5978 H 571.621 2.23205 -6.41371 0
M  V30 5979 H 569.567 4.07831 -5.13819 0
M  V30 5980 H 569.484 3.42317 -6.74059 0
M  V30 5981 H 570.752 4.54123 -6.33555 0
M  V30 5982 N 574.981 1.5647 0.188427 0
M  V30 5983 C 575.928 1.95073 1.23349 0
M  V30 5984 C 576.898 0.812238 1.44886 0
M  V30 5985 O 578.083 1.07095 1.57909 0
M  V30 5986 C 575.223 2.30124 2.57171 0
M  V30 5987 C 574.336 3.57069 2.43157 0
M  V30 5988 C 573.471 3.81411 3.69729 0
M  V30 5989 C 572.51 5.0176 3.50575 0
M  V30 5990 N 571.647 5.22321 4.69175 0
M  V30 5991 H 576.487 2.84171 0.89728 0
M  V30 5992 H 574.024 1.40623 0.431683 0
M  V30 5993 H 575.982 2.48463 3.35145 0
M  V30 5994 H 574.612 1.44159 2.88822 0
M  V30 5995 H 573.664 3.4674 1.56447 0
M  V30 5996 H 574.976 4.452 2.24942 0
M  V30 5997 H 574.13 4.00026 4.56141 0
M  V30 5998 H 572.869 2.91624 3.90905 0
M  V30 5999 H 571.874 4.83061 2.62549 0
M  V30 6000 H 573.099 5.93063 3.30837 0
M  V30 6001 H 571.045 4.35483 4.90602 0
M  V30 6002 H 570.962 6.04643 4.53809 0
M  V30 6003 H 572.23 5.45401 5.56919 0
M  V30 6004 N 576.459 -0.456382 1.50847 0
M  V30 6005 C 577.369 -1.57805 1.73594 0
M  V30 6006 C 578.385 -1.62599 0.619476 0
M  V30 6007 O 579.561 -1.80195 0.899532 0
M  V30 6008 C 576.626 -2.93926 1.8387 0
M  V30 6009 C 575.687 -2.99402 3.07663 0
M  V30 6010 C 574.92 -4.29031 3.1744 0
M  V30 6011 O 575.143 -5.20358 2.33631 0
M  V30 6012 O 574.077 -4.40401 4.10281 0
M  V30 6013 H 577.903 -1.41531 2.68705 0
M  V30 6014 H 575.488 -0.637422 1.3512 0
M  V30 6015 H 577.37 -3.74747 1.92725 0
M  V30 6016 H 576.045 -3.10368 0.91944 0
M  V30 6017 H 574.952 -2.17606 3.043 0
M  V30 6018 H 576.285 -2.87901 3.99216 0
M  V30 6019 N 577.937 -1.40673 -0.710563 0
M  V30 6020 C 579.185 -1.38947 -1.46759 0
M  V30 6021 C 579.506 0.00572879 -1.94999 0
M  V30 6022 O 578.776 0.961358 -1.70689 0
M  V30 6023 H 577.356 -0.5114 -0.544499 0
M  V30 6024 H 580.018 -1.75773 -0.842012 0
M  V30 6025 H 579.114 -2.06745 -2.33801 0
M  V30 6026 N 579.415 0.9433 -1.26252 0
M  V30 6027 C 580.663 1.68592 -1.11451 0
M  V30 6028 C 580.984 1.91957 0.343123 0
M  V30 6029 O 580.254 1.51475 1.24226 0
M  V30 6030 H 578.834 0.624789 -0.409448 0
M  V30 6031 H 581.496 1.13351 -1.58548 0
M  V30 6032 H 580.592 2.66054 -1.63162 0
M  V30 6033 N 580.893 1.08022 1.14757 0
M  V30 6034 C 582.121 0.828847 1.89572 0
M  V30 6035 C 582.536 -0.618621 1.78377 0
M  V30 6036 O 581.893 -1.42482 1.1404 0
M  V30 6037 C 581.944 1.23677 3.39685 0
M  V30 6038 O 581.665 2.62746 3.50566 0
M  V30 6039 C 583.166 1.01569 4.31507 0
M  V30 6040 H 580.386 0.299196 0.600602 0
M  V30 6041 H 582.93 1.43846 1.45357 0
M  V30 6042 H 581.085 0.671347 3.81539 0
M  V30 6043 H 581.499 2.79573 4.43778 0
M  V30 6044 H 582.973 1.35055 5.35223 0
M  V30 6045 H 583.45 -0.0475433 4.39174 0
M  V30 6046 H 584.056 1.56636 3.95405 0
M  V30 6047 N 582.371 -1.3172 0.865308 0
M  V30 6048 C 583.617 -1.97168 0.474633 0
M  V30 6049 C 583.95 -1.68263 -0.969604 0
M  V30 6050 O 583.225 -0.976588 -1.68205 0
M  V30 6051 C 583.508 -3.52689 0.726808 0
M  V30 6052 C 583.361 -3.91185 2.22024 0
M  V30 6053 C 584.68 -4.39689 0.190201 0
M  V30 6054 H 581.799 -0.716185 0.17392 0
M  V30 6055 H 584.441 -1.55925 1.08569 0
M  V30 6056 H 582.591 -3.8795 0.206705 0
M  V30 6057 H 584.263 -3.66049 2.80724 0
M  V30 6058 H 582.506 -3.3996 2.69462 0
M  V30 6059 H 583.177 -4.99604 2.34735 0
M  V30 6060 H 585.653 -4.11225 0.635103 0
M  V30 6061 H 584.529 -5.47469 0.396132 0
M  V30 6062 H 584.79 -4.32683 -0.907625 0
M  V30 6063 N 583.85 -0.624285 -1.44708 0
M  V30 6064 C 585.096 -0.126237 -2.02407 0
M  V30 6065 C 585.428 1.24618 -1.48943 0
M  V30 6066 O 584.704 1.82569 -0.670742 0
M  V30 6067 C 584.986 -0.105449 -3.59946 0
M  V30 6068 C 584.84 -1.50972 -4.23707 0
M  V30 6069 C 586.159 0.573629 -4.36346 0
M  V30 6070 H 583.278 -0.0473472 -0.735478 0
M  V30 6071 H 585.92 -0.799452 -1.72362 0
M  V30 6072 H 584.07 0.46783 -3.85673 0
M  V30 6073 H 585.742 -2.13136 -4.0911 0
M  V30 6074 H 583.985 -2.0656 -3.81465 0
M  V30 6075 H 584.656 -1.44727 -5.32689 0
M  V30 6076 H 587.132 0.0861787 -4.16011 0
M  V30 6077 H 586.008 0.557338 -5.46063 0
M  V30 6078 H 586.269 1.64276 -4.10446 0
M  V30 6079 N 585.328 1.53329 -0.364422 0
M  V30 6080 C 586.558 2.05359 0.226096 0
M  V30 6081 C 586.966 1.23777 1.43094 0
M  V30 6082 O 586.309 0.271139 1.81688 0
M  V30 6083 C 586.371 3.52918 0.684794 0
M  V30 6084 C 586.035 4.55218 -0.403206 0
M  V30 6085 C 587.032 5.04583 -1.2527 0
M  V30 6086 C 584.717 4.99134 -0.563117 0
M  V30 6087 C 586.711 5.96463 -2.24745 0
M  V30 6088 C 584.398 5.9082 -1.56124 0
M  V30 6089 C 585.396 6.39375 -2.40184 0
M  V30 6090 O 585.084 7.29255 -3.38293 0
M  V30 6091 H 584.816 0.674588 0.0436772 0
M  V30 6092 H 587.37 1.98688 -0.520782 0
M  V30 6093 H 585.6 3.57122 1.48326 0
M  V30 6094 H 587.289 3.87812 1.19818 0
M  V30 6095 H 588.055 4.71403 -1.14034 0
M  V30 6096 H 583.934 4.60928 0.0813909 0
M  V30 6097 H 587.478 6.34285 -2.90393 0
M  V30 6098 H 583.375 6.23414 -1.67407 0
M  V30 6099 H 584.143 7.47249 -3.34009 0
M  V30 6100 N 586.806 0.0935595 1.57322 0
M  V30 6101 C 588.054 -0.569383 1.93913 0
M  V30 6102 C 588.375 -1.68817 0.976009 0
M  V30 6103 O 587.645 -1.9588 0.0278099 0
M  V30 6104 H 586.225 -0.21332 0.715894 0
M  V30 6105 H 588.887 0.156531 1.9427 0
M  V30 6106 H 587.983 -0.980577 2.96296 0
M  V30 6107 N 588.284 -1.56567 -0.180126 0
M  V30 6108 C 589.532 -1.81133 -0.896392 0
M  V30 6109 C 589.853 -0.669114 -1.83161 0
M  V30 6110 O 589.123 0.311616 -1.93406 0
M  V30 6111 H 587.703 -0.668172 -0.333999 0
M  V30 6112 H 590.365 -1.94048 -0.182051 0
M  V30 6113 H 589.461 -2.74854 -1.47857 0
M  V30 6114 N 589.762 0.448376 -1.51087 0
M  V30 6115 C 590.709 1.54341 -1.71603 0
M  V30 6116 C 591.679 1.56463 -0.557536 0
M  V30 6117 O 592.864 1.73644 -0.79072 0
M  V30 6118 C 590.004 2.92148 -1.83695 0
M  V30 6119 C 589.117 2.99639 -3.11192 0
M  V30 6120 C 588.252 4.285 -3.13944 0
M  V30 6121 C 587.291 4.29819 -4.35801 0
M  V30 6122 N 586.428 5.50186 -4.36164 0
M  V30 6123 H 591.268 1.36151 -2.65079 0
M  V30 6124 H 588.805 0.661585 -1.31383 0
M  V30 6125 H 590.763 3.72093 -1.88687 0
M  V30 6126 H 589.393 3.0892 -0.936374 0
M  V30 6127 H 588.445 2.12425 -3.15562 0
M  V30 6128 H 589.757 2.96474 -4.01129 0
M  V30 6129 H 588.911 5.16811 -3.17791 0
M  V30 6130 H 587.65 4.34307 -2.21876 0
M  V30 6131 H 586.655 3.39902 -4.32142 0
M  V30 6132 H 587.88 4.25685 -5.29121 0
M  V30 6133 H 585.826 5.56735 -3.46961 0
M  V30 6134 H 585.743 5.48856 -5.19897 0
M  V30 6135 H 587.011 6.40559 -4.44189 0
M  V30 6136 N 591.24 1.41047 0.703093 0
M  V30 6137 C 592.486 1.40207 1.46526 0
M  V30 6138 C 592.819 0.00847763 1.94198 0
M  V30 6139 O 592.094 -0.962437 1.69019 0
M  V30 6140 C 592.377 2.40238 2.6825 0
M  V30 6141 C 592.23 3.88674 2.26391 0
M  V30 6142 C 593.549 2.37627 3.70434 0
M  V30 6143 H 590.668 0.510594 0.531472 0
M  V30 6144 H 593.31 1.72271 0.801422 0
M  V30 6145 H 591.46 2.13026 3.24888 0
M  V30 6146 H 593.132 4.2676 1.75138 0
M  V30 6147 H 591.375 4.03903 1.58255 0
M  V30 6148 H 592.046 4.542 3.13698 0
M  V30 6149 H 594.522 2.61759 3.23452 0
M  V30 6150 H 593.398 3.09645 4.53223 0
M  V30 6151 H 593.659 1.39223 4.19606 0
M  V30 6152 N 592.718 -0.936591 1.26751 0
M  V30 6153 C 593.651 -2.03619 1.03027 0
M  V30 6154 C 594.629 -1.62534 -0.0464619 0
M  V30 6155 O 595.813 -1.88251 0.0968873 0
M  V30 6156 C 592.94 -3.3402 0.561072 0
M  V30 6157 C 591.986 -3.9408 1.63105 0
M  V30 6158 S 592.819 -4.27782 3.22122 0
M  V30 6159 C 593.975 -5.61277 2.76982 0
M  V30 6160 H 594.208 -2.23429 1.96129 0
M  V30 6161 H 591.741 -1.07857 1.10482 0
M  V30 6162 H 593.699 -4.09424 0.297031 0
M  V30 6163 H 592.36 -3.12147 -0.349741 0
M  V30 6164 H 591.553 -4.88154 1.25386 0
M  V30 6165 H 591.155 -3.25227 1.84671 0
M  V30 6166 H 593.447 -6.40189 2.21731 0
M  V30 6167 H 594.39 -6.03887 3.69766 0
M  V30 6168 H 594.798 -5.21374 2.16402 0
M  V30 6169 N 594.196 -1.08629 -1.14182 0
M  V30 6170 C 595.473 -0.73002 -1.81466 0
M  V30 6171 C 595.853 0.785996 -1.95922 0
M  V30 6172 O 595.201 1.70535 -1.52086 0
M  V30 6173 C 595.411 -1.45957 -3.17014 0
M  V30 6174 C 596.759 -1.62008 -3.92477 0
M  V30 6175 O 597.783 -1.42141 -3.26611 0
M  V30 6176 O 596.642 -1.94806 -5.106 0
M  V30 6177 H 593.736 -0.261307 -0.784632 0
M  V30 6178 H 596.282 -1.188 -1.2118 0
M  V30 6179 H 595.054 -2.49221 -3.01669 0
M  V30 6180 H 594.677 -0.993222 -3.84995 0
M  V30 6181 N 595.674 1.31259 -0.872281 0
M  V30 6182 C 597.09 1.49283 -0.564521 0
M  V30 6183 C 597.29 1.80243 0.900807 0
M  V30 6184 O 596.346 1.88246 1.68284 0
M  V30 6185 C 597.659 2.62503 -1.46673 0
M  V30 6186 C 599.207 2.76386 -1.46901 0
M  V30 6187 C 599.682 3.92705 -2.35684 0
M  V30 6188 N 601.173 3.99995 -2.33577 0
M  V30 6189 C 601.908 4.89276 -2.98992 0
M  V30 6190 N 601.404 5.83443 -3.73585 0
M  V30 6191 N 603.197 4.82541 -2.88289 0
M  V30 6192 H 595.348 1.09432 -1.82039 0
M  V30 6193 H 597.611 0.540949 -0.77851 0
M  V30 6194 H 597.317 2.46407 -2.50951 0
M  V30 6195 H 597.191 3.58695 -1.16696 0
M  V30 6196 H 599.578 2.91894 -0.433796 0
M  V30 6197 H 599.659 1.80853 -1.80903 0
M  V30 6198 H 599.303 3.77954 -3.39283 0
M  V30 6199 H 599.233 4.87549 -1.99006 0
M  V30 6200 H 601.724 3.32624 -1.7936 0
M  V30 6201 H 602.037 6.48303 -4.20622 0
M  V30 6202 H 600.382 5.83415 -3.77694 0
M  V30 6203 H 603.573 4.07951 -2.2955 0
M  V30 6204 H 603.746 5.51916 -3.39549 0
M  V30 6205 N 597.152 0.631951 1.44375 0
M  V30 6206 C 598.563 0.219036 1.85411 0
M  V30 6207 C 598.914 -1.22974 1.52879 0
M  V30 6208 O 598.039 -1.93579 0.967266 0
M  V30 6209 C 598.634 0.39075 3.36539 0
M  V30 6210 C 597.193 0.0323351 3.76386 0
M  V30 6211 C 596.34 0.703744 2.68221 0
M  V30 6212 H 599.291 0.837056 1.3483 0
M  V30 6213 H 599.312 -0.370056 3.78696 0
M  V30 6214 H 598.824 1.44527 3.60185 0
M  V30 6215 H 596.925 -1.02042 3.58355 0
M  V30 6216 H 597.038 0.442969 4.77048 0
M  V30 6217 H 595.402 0.138974 2.54321 0
M  V30 6218 H 596.185 1.76088 2.947 0
M  V30 6219 N 598.631 -1.53133 0.372548 0
M  V30 6220 C 599.879 -2.00958 -0.214534 0
M  V30 6221 C 600.2 -1.26135 -1.48711 0
M  V30 6222 O 599.47 -0.376597 -1.92246 0
M  V30 6223 H 598.05 -0.742456 -0.0822664 0
M  V30 6224 H 600.712 -1.88367 0.500385 0
M  V30 6225 H 599.808 -3.09031 -0.436605 0
M  V30 6226 N 600.109 -0.101901 -1.5727 0
M  V30 6227 C 601.057 0.872034 -2.15635 0
M  V30 6228 C 602.051 1.28742 -1.10099 0
M  V30 6229 O 603.257 1.26116 -1.28432 0
M  V30 6230 H 599.632 0.299269 -0.689886 0
M  V30 6231 H 601.603 0.355137 -2.96279 0
M  V30 6232 C 600.352 2.11886 -2.7568 0
M  V30 6233 H 599.675 1.80813 -3.56576 0
M  V30 6234 H 601.115 2.78077 -3.20077 0
M  V30 6235 C 599.574 2.89739 -1.7191 0
M  V30 6236 O 600.104 3.84522 -1.16213 0
M  V30 6237 N 598.31 2.53407 -1.42245 0
M  V30 6238 H 597.857 1.76398 -1.87727 0
M  V30 6239 H 597.815 3.05795 -0.730529 0
M  V30 6240 N 601.587 1.56661 0.17182 0
M  V30 6241 C 602.817 1.85831 0.902804 0
M  V30 6242 C 603.225 0.685157 1.76358 0
M  V30 6243 O 602.568 -0.354947 1.80238 0
M  V30 6244 C 602.63 3.09406 1.83053 0
M  V30 6245 C 602.294 4.4231 1.1494 0
M  V30 6246 C 603.291 5.17342 0.515104 0
M  V30 6247 C 600.976 4.89045 1.14631 0
M  V30 6248 C 602.97 6.37299 -0.113194 0
M  V30 6249 C 600.657 6.08933 0.514184 0
M  V30 6250 C 601.655 6.82904 -0.114463 0
M  V30 6251 O 601.343 8.00518 -0.736622 0
M  V30 6252 H 601.075 0.620715 0.267748 0
M  V30 6253 H 603.629 2.04637 0.176918 0
M  V30 6254 H 601.859 2.86544 2.59672 0
M  V30 6255 H 603.548 3.25027 2.4313 0
M  V30 6256 H 604.314 4.82317 0.509474 0
M  V30 6257 H 600.193 4.31409 1.62502 0
M  V30 6258 H 603.737 6.94976 -0.604477 0
M  V30 6259 H 599.634 6.43423 0.517395 0
M  V30 6260 H 600.402 8.16027 -0.635822 0
M  V30 6261 N 603.065 -0.440357 1.51323 0
M  V30 6262 C 604.311 -1.19181 1.64085 0
M  V30 6263 C 604.644 -1.90936 0.354575 0
M  V30 6264 O 603.919 -1.8347 -0.645675 0
M  V30 6265 C 604.202 -2.2112 2.84215 0
M  V30 6266 C 604.055 -1.53468 4.22809 0
M  V30 6267 C 605.374 -3.22133 2.99864 0
M  V30 6268 H 602.493 -0.431924 0.597169 0
M  V30 6269 H 605.135 -0.481443 1.83799 0
M  V30 6270 H 603.285 -2.81703 2.67537 0
M  V30 6271 H 604.957 -0.962455 4.51148 0
M  V30 6272 H 603.2 -0.837086 4.25647 0
M  V30 6273 H 603.871 -2.27694 5.02852 0
M  V30 6274 H 606.347 -2.71601 3.15233 0
M  V30 6275 H 605.223 -3.90756 3.85488 0
M  V30 6276 H 605.484 -3.88061 2.11804 0
M  V30 6277 N 604.543 -1.41418 -0.695603 0
M  V30 6278 C 605.453 -1.45622 -1.83933 0
M  V30 6279 C 606.469 -0.346825 -1.70508 0
M  V30 6280 O 607.645 -0.59454 -1.92424 0
M  V30 6281 C 604.71 -1.33627 -3.19914 0
M  V30 6282 C 603.771 -2.54882 -3.45447 0
M  V30 6283 C 603.004 -2.43449 -4.7494 0
M  V30 6284 O 603.227 -1.45905 -5.51424 0
M  V30 6285 O 602.161 -3.33206 -5.01256 0
M  V30 6286 H 605.987 -2.42114 -1.83342 0
M  V30 6287 H 603.572 -1.22956 -0.848658 0
M  V30 6288 H 605.454 -1.29221 -4.01098 0
M  V30 6289 H 604.129 -0.402508 -3.21188 0
M  V30 6290 H 603.036 -2.64865 -2.64192 0
M  V30 6291 H 604.369 -3.47087 -3.48987 0
M  V30 6292 N 606.021 0.929856 -1.27246 0
M  V30 6293 C 607.432 1.49223 -1.12203 0
M  V30 6294 C 607.783 1.93989 0.293731 0
M  V30 6295 O 606.908 1.80978 1.18642 0
M  V30 6296 C 607.503 2.71198 -2.0307 0
M  V30 6297 C 606.062 3.23666 -1.92139 0
M  V30 6298 C 605.209 1.96409 -1.95752 0
M  V30 6299 H 608.16 0.744181 -1.4017 0
M  V30 6300 H 608.181 3.45905 -1.58524 0
M  V30 6301 H 607.693 2.38585 -3.06102 0
M  V30 6302 H 605.794 3.61042 -0.920834 0
M  V30 6303 H 605.907 3.90006 -2.78267 0
M  V30 6304 H 604.271 2.12806 -1.39949 0
M  V30 6305 H 605.054 1.66113 -3.00436 0
M  V30 6306 N 607.499 1.09233 1.13605 0
M  V30 6307 C 608.727 0.848908 1.88683 0
M  V30 6308 C 609.142 -0.599667 1.79024 0
M  V30 6309 O 608.499 -1.41265 1.15544 0
M  V30 6310 C 608.55 1.27273 3.38355 0
M  V30 6311 O 608.271 2.66449 3.47759 0
M  V30 6312 C 609.772 1.0614 4.30406 0
M  V30 6313 H 606.992 0.305549 0.597395 0
M  V30 6314 H 609.536 1.4538 1.43823 0
M  V30 6315 H 607.691 0.711776 3.80805 0
M  V30 6316 H 608.105 2.84264 4.40788 0
M  V30 6317 H 609.579 1.40725 5.33761 0
M  V30 6318 H 610.056 -0.000960332 4.392 0
M  V30 6319 H 610.662 1.60821 3.93722 0
M  V30 6320 N 608.977 -1.30795 0.87923 0
M  V30 6321 C 610.226 -1.95636 0.490875 0
M  V30 6322 C 610.539 -1.70214 -0.963674 0
M  V30 6323 O 611.745 -2.28991 -1.45861 0
M  V30 6324 C 610.201 -3.50271 0.826929 0
M  V30 6325 C 609.809 -3.84521 2.29886 0
M  V30 6326 C 611.553 -4.21456 0.507494 0
M  V30 6327 C 609.46 -5.32309 2.57685 0
M  V30 6328 H 608.39 -0.732238 0.179841 0
M  V30 6329 H 611.041 -1.48829 1.07341 0
M  V30 6330 H 609.423 -3.9562 0.173542 0
M  V30 6331 H 610.597 -3.50102 2.99609 0
M  V30 6332 H 608.912 -3.26425 2.58526 0
M  V30 6333 H 611.509 -5.30199 0.692293 0
M  V30 6334 H 611.852 -4.12614 -0.552718 0
M  V30 6335 H 612.385 -3.81772 1.11782 0
M  V30 6336 H 609.124 -5.46195 3.62424 0
M  V30 6337 H 608.644 -5.68048 1.92566 0
M  V30 6338 H 610.323 -5.99678 2.42889 0
M  V30 6339 N 610.455 -0.639598 -1.44038 0
M  V30 6340 C 611.701 -0.147698 -2.02261 0
M  V30 6341 C 612.034 1.23031 -1.50256 0
M  V30 6342 O 611.309 1.81847 -0.690068 0
M  V30 6343 C 611.592 -0.14362 -3.59813 0
M  V30 6344 C 611.445 -1.55458 -4.22082 0
M  V30 6345 C 612.764 0.527317 -4.36929 0
M  V30 6346 H 609.883 -0.0551453 -0.734934 0
M  V30 6347 H 612.525 -0.817688 -1.71505 0
M  V30 6348 H 610.675 0.426898 -3.86147 0
M  V30 6349 H 612.347 -2.17464 -4.06826 0
M  V30 6350 H 610.59 -2.10594 -3.79253 0
M  V30 6351 H 611.261 -1.50369 -5.31124 0
M  V30 6352 H 613.737 0.0420504 -4.16079 0
M  V30 6353 H 612.613 0.499389 -5.46624 0
M  V30 6354 H 612.874 1.59914 -4.12165 0
M  V30 6355 N 611.933 1.52934 -0.380664 0
M  V30 6356 C 613.161 2.05886 0.204599 0
M  V30 6357 C 613.576 1.25305 1.41223 0
M  V30 6358 O 612.933 0.297504 1.80059 0
M  V30 6359 C 612.984 3.56764 0.583249 0
M  V30 6360 O 612.705 4.34292 -0.576398 0
M  V30 6361 C 614.206 4.2603 1.2253 0
M  V30 6362 H 611.426 0.670193 0.0328991 0
M  V30 6363 H 613.97 1.97148 -0.543397 0
M  V30 6364 H 612.125 3.65603 1.28115 0
M  V30 6365 H 612.539 5.23819 -0.267119 0
M  V30 6366 H 614.013 5.32868 1.44068 0
M  V30 6367 H 614.49 3.80698 2.19011 0
M  V30 6368 H 615.096 4.21485 0.568407 0
M  V30 6369 N 613.412 0.11024 1.57214 0
M  V30 6370 C 614.66 -0.548783 1.94506 0
M  V30 6371 C 614.981 -1.67772 0.99386 0
M  V30 6372 O 614.251 -1.9584 0.0485841 0
M  V30 6373 H 612.831 -0.205715 0.718116 0
M  V30 6374 H 615.493 0.177127 1.94093 0
M  V30 6375 H 614.589 -0.949096 2.97319 0
M  V30 6376 N 614.89 -1.56749 -0.16351 0
M  V30 6377 C 615.82 -2.00042 -1.20438 0
M  V30 6378 C 616.801 -0.877256 -1.45733 0
M  V30 6379 O 617.986 -1.1439 -1.56935 0
M  V30 6380 C 615.116 -2.36697 -2.54149 0
M  V30 6381 C 614.07 -3.52046 -2.43408 0
M  V30 6382 C 613.396 -3.74466 -3.81679 0
M  V30 6383 C 614.696 -4.85247 -1.93216 0
M  V30 6384 H 616.39 -2.87244 -0.844477 0
M  V30 6385 H 613.936 -1.38194 -0.40478 0
M  V30 6386 H 615.889 -2.65582 -3.27176 0
M  V30 6387 H 614.613 -1.46414 -2.91943 0
M  V30 6388 H 613.272 -3.23301 -1.72834 0
M  V30 6389 H 612.92 -2.81461 -4.1688 0
M  V30 6390 H 612.62 -4.52084 -3.75359 0
M  V30 6391 H 614.144 -4.0576 -4.5628 0
M  V30 6392 H 615.558 -5.12957 -2.56023 0
M  V30 6393 H 613.955 -5.66556 -1.97825 0
M  V30 6394 H 615.025 -4.7672 -0.88689 0
M  V30 6395 N 616.368 0.432326 -1.51554 0
M  V30 6396 C 617.616 1.17901 -1.64146 0
M  V30 6397 C 617.937 1.91604 -0.362367 0
M  V30 6398 O 617.207 1.85764 0.621968 0
M  V30 6399 H 615.787 0.438206 -0.604966 0
M  V30 6400 H 618.449 0.495172 -1.88505 0
M  V30 6401 H 617.545 1.90584 -2.47152 0
M  V30 6402 N 617.846 1.41785 0.688094 0
M  V30 6403 C 618.796 1.40684 1.79421 0
M  V30 6404 C 619.78 0.280096 1.58443 0
M  V30 6405 O 620.972 0.521332 1.69148 0
M  V30 6406 C 618.101 1.29874 3.17785 0
M  V30 6407 C 617.187 2.47442 3.44432 0
M  V30 6408 N 617.578 3.72895 3.41736 0
M  V30 6409 C 615.876 2.41416 3.75013 0
M  V30 6410 C 616.577 4.50912 3.67496 0
M  V30 6411 N 615.553 3.81131 3.87608 0
M  V30 6412 H 619.355 2.35591 1.7571 0
M  V30 6413 H 616.869 1.35946 0.888393 0
M  V30 6414 H 618.866 1.27168 3.97031 0
M  V30 6415 H 617.526 0.359587 3.22703 0
M  V30 6416 H 618.537 4.05676 3.21943 0
M  V30 6417 H 615.214 1.56011 3.87256 0
M  V30 6418 H 616.604 5.59865 3.71484 0
M  V30 6419 N 619.324 -0.923095 1.27737 0
M  V30 6420 C 620.601 -1.64989 1.05062 0
M  V30 6421 C 620.981 -2.07018 -0.413124 0
M  V30 6422 O 620.329 -1.80797 -1.39731 0
M  V30 6423 C 620.539 -2.84847 2.01652 0
M  V30 6424 C 621.887 -3.56083 2.31279 0
M  V30 6425 O 622.911 -2.94981 1.99662 0
M  V30 6426 O 621.77 -4.66182 2.85196 0
M  V30 6427 H 618.864 -0.723357 0.400853 0
M  V30 6428 H 621.41 -0.973224 1.3902 0
M  V30 6429 H 620.182 -2.50814 3.00347 0
M  V30 6430 H 619.805 -3.60231 1.68284 0
M  V30 6431 N 620.802 -1.09834 -1.13024 0
M  V30 6432 C 621.765 -0.745058 -2.16752 0
M  V30 6433 C 622.765 0.227435 -1.59183 0
M  V30 6434 O 623.955 0.0050786 -1.74199 0
M  V30 6435 C 621.087 -0.102543 -3.40746 0
M  V30 6436 H 622.28 -1.66375 -2.49518 0
M  V30 6437 H 619.833 -0.898061 -1.27924 0
M  V30 6438 H 620.568 0.827177 -3.13573 0
M  V30 6439 H 620.353 -0.80235 -3.83803 0
M  V30 6440 H 621.843 0.129082 -4.174 0
M  V30 6441 N 622.28 1.30327 -0.886154 0
M  V30 6442 C 623.505 2.0079 -0.519425 0
M  V30 6443 C 623.93 1.65979 0.885013 0
M  V30 6444 O 623.288 0.877043 1.58675 0
M  V30 6445 C 623.336 3.53686 -0.702758 0
M  V30 6446 O 622.44 4.11637 0.250828 0
M  V30 6447 H 621.781 0.63171 -0.204544 0
M  V30 6448 H 624.311 1.66145 -1.19402 0
M  V30 6449 H 624.321 4.03531 -0.602207 0
M  V30 6450 H 622.996 3.78361 -1.72673 0
M  V30 6451 H 621.573 3.72755 0.103873 0
M  V30 6452 N 623.758 0.647228 1.43697 0
M  V30 6453 C 625.007 0.155552 2.01099 0
M  V30 6454 C 625.32 -1.23569 1.51624 0
M  V30 6455 O 626.526 -1.82226 2.01261 0
M  V30 6456 C 624.982 0.227296 3.59182 0
M  V30 6457 C 624.59 1.62086 4.17651 0
M  V30 6458 C 626.334 -0.207085 4.23995 0
M  V30 6459 C 624.241 1.64685 5.68008 0
M  V30 6460 H 623.171 0.0543895 0.752036 0
M  V30 6461 H 625.822 0.808386 1.64734 0
M  V30 6462 H 624.204 -0.492937 3.9292 0
M  V30 6463 H 625.378 2.36597 3.95422 0
M  V30 6464 H 623.693 2.0007 3.65186 0
M  V30 6465 H 626.29 -0.207426 5.34298 0
M  V30 6466 H 626.633 -1.23742 3.97484 0
M  V30 6467 H 627.166 0.461193 3.95118 0
M  V30 6468 H 623.905 2.65608 5.99277 0
M  V30 6469 H 623.425 0.944914 5.9231 0
M  V30 6470 H 625.104 1.38792 6.31938 0
M  V30 6471 N 625.236 -1.5273 0.388769 0
M  V30 6472 C 626.199 -2.25043 -0.434544 0
M  V30 6473 C 627.199 -1.26661 -0.990644 0
M  V30 6474 O 628.389 -1.50762 -0.872731 0
M  V30 6475 C 625.521 -3.00507 -1.60961 0
M  V30 6476 H 626.714 -2.99242 0.198549 0
M  V30 6477 H 624.267 -1.55664 0.140875 0
M  V30 6478 H 625.002 -2.30607 -2.28015 0
M  V30 6479 H 624.787 -3.72716 -1.21757 0
M  V30 6480 H 626.277 -3.55413 -2.19251 0
M  V30 6481 N 626.714 -0.118576 -1.57153 0
M  V30 6482 C 627.664 0.842924 -2.11846 0
M  V30 6483 C 628.648 1.22845 -1.03914 0
M  V30 6484 O 629.84 1.19961 -1.30148 0
M  V30 6485 C 626.969 2.09312 -2.72109 0
M  V30 6486 C 626.055 1.73198 -3.87122 0
M  V30 6487 N 626.446 1.07758 -4.94188 0
M  V30 6488 C 624.744 2.02659 -3.97298 0
M  V30 6489 C 625.445 0.907741 -5.74574 0
M  V30 6490 N 624.421 1.4326 -5.24383 0
M  V30 6491 H 628.223 0.333416 -2.92003 0
M  V30 6492 H 625.737 0.0839073 -1.62183 0
M  V30 6493 H 627.734 2.79162 -3.09635 0
M  V30 6494 H 626.394 2.60807 -1.93416 0
M  V30 6495 H 627.405 0.741613 -5.12563 0
M  V30 6496 H 624.082 2.56204 -3.29645 0
M  V30 6497 H 625.472 0.394112 -6.70743 0
M  V30 6498 N 628.193 1.56834 0.155195 0
M  V30 6499 C 629.421 1.87049 0.884326 0
M  V30 6500 C 629.836 0.705839 1.7511 0
M  V30 6501 O 629.193 -0.324641 1.79589 0
M  V30 6502 C 629.244 3.1644 1.74781 0
M  V30 6503 O 628.965 4.28417 0.915978 0
M  V30 6504 C 630.466 3.60113 2.58522 0
M  V30 6505 H 627.686 0.620196 0.25612 0
M  V30 6506 H 630.23 2.03946 0.150445 0
M  V30 6507 H 628.385 3.01321 2.43484 0
M  V30 6508 H 628.799 5.02353 1.50803 0
M  V30 6509 H 630.273 4.53508 3.14698 0
M  V30 6510 H 630.75 2.85005 3.34169 0
M  V30 6511 H 631.356 3.77898 1.95124 0
M  V30 6512 N 629.671 -0.424282 1.51781 0
M  V30 6513 C 630.581 -1.54087 1.76902 0
M  V30 6514 C 631.597 -1.61249 0.653826 0
M  V30 6515 O 632.773 -1.78247 0.937552 0
M  V30 6516 C 629.838 -2.8996 1.90063 0
M  V30 6517 C 628.899 -2.92809 3.13945 0
M  V30 6518 C 628.132 -4.22201 3.26469 0
M  V30 6519 O 628.355 -5.15286 2.44616 0
M  V30 6520 O 627.289 -4.31599 4.1953 0
M  V30 6521 H 631.115 -1.358 2.71647 0
M  V30 6522 H 628.7 -0.608618 1.36441 0
M  V30 6523 H 630.582 -3.70575 2.0063 0
M  V30 6524 H 629.257 -3.08347 0.985067 0
M  V30 6525 H 628.164 -2.11102 3.08847 0
M  V30 6526 H 629.497 -2.79369 4.05233 0
M  V30 6527 N 631.149 -1.42148 -0.680565 0
M  V30 6528 C 632.377 -1.45696 -1.46902 0
M  V30 6529 C 632.792 -0.0665858 -1.88683 0
M  V30 6530 O 632.149 0.917436 -1.57764 0
M  V30 6531 C 632.2 -2.37898 -2.72188 0
M  V30 6532 O 631.921 -3.71526 -2.32163 0
M  V30 6533 C 633.422 -2.50407 -3.65802 0
M  V30 6534 H 630.642 -0.495729 -0.45221 0
M  V30 6535 H 633.186 -1.866 -0.836709 0
M  V30 6536 H 631.341 -2.00263 -3.31622 0
M  V30 6537 H 631.755 -4.20849 -3.13027 0
M  V30 6538 H 633.229 -3.19056 -4.50452 0
M  V30 6539 H 633.706 -1.5401 -4.11312 0
M  V30 6540 H 634.312 -2.8874 -3.12265 0
M  V30 6541 N 632.627 0.916307 -1.28225 0
M  V30 6542 C 633.874 1.66518 -1.1523 0
M  V30 6543 C 634.202 1.92178 0.299632 0
M  V30 6544 O 633.457 1.51842 1.2346 0
M  V30 6545 C 633.756 3.03125 -1.8934 0
M  V30 6546 C 633.422 2.97135 -3.39148 0
M  V30 6547 C 632.084 2.95208 -3.80007 0
M  V30 6548 C 634.436 2.87574 -4.34685 0
M  V30 6549 C 631.764 2.81518 -5.14747 0
M  V30 6550 C 634.116 2.75424 -5.69495 0
M  V30 6551 C 632.78 2.71854 -6.09632 0
M  V30 6552 H 632.05 0.609334 -0.421655 0
M  V30 6553 H 634.697 1.06776 -1.58969 0
M  V30 6554 H 633.002 3.66639 -1.38143 0
M  V30 6555 H 634.699 3.59968 -1.76704 0
M  V30 6556 H 631.289 2.99428 -3.06661 0
M  V30 6557 H 635.473 2.88152 -4.04082 0
M  V30 6558 H 630.729 2.77148 -5.44976 0
M  V30 6559 H 634.903 2.66993 -6.43185 0
M  V30 6560 H 632.53 2.61003 -7.1399 0
M  V30 6561 N 634.105 1.10431 1.1244 0
M  V30 6562 C 635.068 0.756542 2.16354 0
M  V30 6563 C 636.068 -0.21899 1.59302 0
M  V30 6564 O 637.258 0.00415969 1.742 0
M  V30 6565 C 634.39 0.120612 3.40687 0
M  V30 6566 H 635.583 1.67696 2.48632 0
M  V30 6567 H 633.136 0.904832 1.27446 0
M  V30 6568 H 633.871 -0.810536 3.14008 0
M  V30 6569 H 633.656 0.822693 3.83372 0
M  V30 6570 H 635.146 -0.106945 4.17463 0
M  V30 6571 N 635.583 -1.29855 0.893053 0
M  V30 6572 C 636.994 -1.77946 0.564998 0
M  V30 6573 C 637.345 -1.73339 -0.919134 0
M  V30 6574 O 636.47 -1.3152 -1.71847 0
M  V30 6575 C 637.065 -3.23118 1.01883 0
M  V30 6576 C 635.624 -3.69013 0.742051 0
M  V30 6577 C 634.771 -2.50121 1.19727 0
M  V30 6578 H 637.722 -1.16611 1.07646 0
M  V30 6579 H 637.743 -3.78875 0.351249 0
M  V30 6580 H 637.255 -3.26439 2.09903 0
M  V30 6581 H 635.356 -3.71173 -0.325816 0
M  V30 6582 H 635.469 -4.60117 1.33527 0
M  V30 6583 H 633.833 -2.47128 0.616418 0
M  V30 6584 H 634.616 -2.56174 2.28538 0
M  V30 6585 N 637.061 -0.65484 -1.43351 0
M  V30 6586 C 638.31 -0.166215 -2.01014 0
M  V30 6587 C 638.623 1.22764 -1.52278 0
M  V30 6588 O 639.829 1.81156 -2.02224 0
M  V30 6589 C 638.285 -0.246341 -3.59056 0
M  V30 6590 C 637.893 -1.64299 -4.16785 0
M  V30 6591 C 639.637 0.184597 -4.24098 0
M  V30 6592 C 637.544 -1.67695 -5.67126 0
M  V30 6593 H 636.474 -0.0583769 -0.751737 0
M  V30 6594 H 639.125 -0.817111 -1.64303 0
M  V30 6595 H 637.507 0.472092 -3.93176 0
M  V30 6596 H 638.681 -2.3869 -3.94162 0
M  V30 6597 H 636.996 -2.02004 -3.6412 0
M  V30 6598 H 639.593 0.179088 -5.344 0
M  V30 6599 H 639.936 1.21632 -3.98135 0
M  V30 6600 H 640.469 -0.482141 -3.94867 0
M  V30 6601 H 637.208 -2.68783 -5.9786 0
M  V30 6602 H 636.728 -0.976313 -5.91801 0
M  V30 6603 H 638.407 -1.42142 -6.31193 0
M  V30 6604 N 638.539 1.52521 -0.396863 0
M  V30 6605 C 639.469 2.29582 0.425941 0
M  V30 6606 C 640.45 1.33281 1.05689 0
M  V30 6607 O 641.635 1.62181 1.06823 0
M  V30 6608 C 638.765 3.10821 1.54943 0
M  V30 6609 C 637.719 4.15069 1.04413 0
M  V30 6610 C 637.045 4.84578 2.26028 0
M  V30 6611 C 638.345 5.22191 0.106767 0
M  V30 6612 H 640.039 2.98612 -0.217045 0
M  V30 6613 H 637.585 1.43611 -0.105826 0
M  V30 6614 H 639.538 3.63492 2.13193 0
M  V30 6615 H 638.262 2.39538 2.22011 0
M  V30 6616 H 636.921 3.63389 0.484118 0
M  V30 6617 H 636.569 4.09835 2.91623 0
M  V30 6618 H 636.269 5.55043 1.92876 0
M  V30 6619 H 637.793 5.40056 2.84906 0
M  V30 6620 H 639.207 5.70176 0.597685 0
M  V30 6621 H 637.604 5.99947 -0.135352 0
M  V30 6622 H 638.674 4.77531 -0.842134 0
M  V30 6623 N 640.017 0.126909 1.57088 0
M  V30 6624 C 641.247 -0.535892 1.99529 0
M  V30 6625 C 641.655 -1.60259 1.00566 0
M  V30 6626 O 640.998 -1.83698 -0.00843269 0
M  V30 6627 C 641.06 -1.21374 3.38391 0
M  V30 6628 C 640.724 -0.294044 4.56053 0
M  V30 6629 C 641.721 0.470454 5.17767 0
M  V30 6630 C 639.406 -0.202808 5.0189 0
M  V30 6631 C 641.4 1.31384 6.23712 0
M  V30 6632 C 639.087 0.644203 6.07695 0
M  V30 6633 C 640.085 1.40115 6.68473 0
M  V30 6634 O 639.773 2.23408 7.72233 0
M  V30 6635 H 639.505 -0.145799 0.66009 0
M  V30 6636 H 642.059 0.212441 2.04298 0
M  V30 6637 H 640.289 -2.00931 3.30399 0
M  V30 6638 H 641.978 -1.77424 3.65069 0
M  V30 6639 H 642.744 0.409884 4.83265 0
M  V30 6640 H 638.623 -0.781688 4.54324 0
M  V30 6641 H 642.167 1.90514 6.71081 0
M  V30 6642 H 638.064 0.706137 6.41626 0
M  V30 6643 H 638.832 2.16436 7.89365 0
M  V30 6644 N 641.495 -1.56914 -0.146875 0
M  V30 6645 C 642.741 -1.83628 -0.860741 0
M  V30 6646 C 643.074 -0.708528 -1.80813 0
M  V30 6647 O 642.349 0.287838 -1.92358 0
M  V30 6648 C 642.632 -3.20836 -1.63511 0
M  V30 6649 C 642.485 -4.44174 -0.709199 0
M  V30 6650 C 643.804 -3.55268 -2.59756 0
M  V30 6651 H 640.923 -0.667949 -0.311468 0
M  V30 6652 H 643.565 -1.89582 -0.125936 0
M  V30 6653 H 641.715 -3.15891 -2.26153 0
M  V30 6654 H 643.387 -4.61205 -0.0937781 0
M  V30 6655 H 641.63 -4.33796 -0.0187856 0
M  V30 6656 H 642.301 -5.36785 -1.28707 0
M  V30 6657 H 644.777 -3.60824 -2.07232 0
M  V30 6658 H 643.653 -4.52303 -3.10987 0
M  V30 6659 H 643.914 -2.81231 -3.41118 0
M  V30 6660 N 642.974 0.416227 -1.52004 0
M  V30 6661 C 644.221 1.16383 -1.65714 0
M  V30 6662 C 644.549 1.9068 -0.383594 0
M  V30 6663 O 643.804 1.85174 0.633185 0
M  V30 6664 C 644.103 2.18923 -2.82502 0
M  V30 6665 C 643.769 1.61485 -4.20991 0
M  V30 6666 C 642.431 1.45545 -4.58661 0
M  V30 6667 C 644.783 1.19468 -5.07323 0
M  V30 6668 C 642.111 0.860937 -5.80349 0
M  V30 6669 C 644.463 0.614386 -6.29609 0
M  V30 6670 C 643.127 0.442056 -6.66035 0
M  V30 6671 H 642.397 0.425875 -0.606392 0
M  V30 6672 H 645.044 0.45199 -1.8609 0
M  V30 6673 H 643.349 2.96225 -2.56433 0
M  V30 6674 H 645.046 2.76628 -2.90307 0
M  V30 6675 H 641.636 1.74873 -3.91302 0
M  V30 6676 H 645.82 1.30596 -4.78809 0
M  V30 6677 H 641.076 0.715372 -6.072 0
M  V30 6678 H 645.25 0.280393 -6.95835 0
M  V30 6679 H 642.877 -0.0207218 -7.60197 0
M  V30 6680 N 644.452 1.42507 0.673017 0
M  V30 6681 C 645.399 1.46124 1.78651 0
M  V30 6682 C 646.369 0.313007 1.63124 0
M  V30 6683 O 647.554 0.517337 1.83653 0
M  V30 6684 C 644.694 1.3711 3.16694 0
M  V30 6685 C 643.807 2.61983 3.43495 0
M  V30 6686 C 642.942 2.45098 4.71275 0
M  V30 6687 C 641.981 3.65336 4.91117 0
M  V30 6688 N 641.118 3.47383 6.10139 0
M  V30 6689 H 645.958 2.4128 1.74895 0
M  V30 6690 H 643.495 1.19788 0.853766 0
M  V30 6691 H 645.453 1.29881 3.96468 0
M  V30 6692 H 644.083 0.45549 3.1957 0
M  V30 6693 H 643.135 2.79571 2.57961 0
M  V30 6694 H 644.447 3.51355 3.5405 0
M  V30 6695 H 643.601 2.35466 5.59143 0
M  V30 6696 H 642.34 1.53219 4.63007 0
M  V30 6697 H 641.345 3.754 4.0169 0
M  V30 6698 H 642.57 4.58199 5.01229 0
M  V30 6699 H 640.516 2.58222 6.0304 0
M  V30 6700 H 640.433 4.30344 6.21563 0
M  V30 6701 H 641.701 3.41565 7.00681 0
M  V30 6702 N 645.93 -0.909495 1.28709 0
M  V30 6703 C 647.177 -1.65905 1.16111 0
M  V30 6704 C 647.505 -1.92334 -0.289436 0
M  V30 6705 O 646.76 -1.52495 -1.22653 0
M  V30 6706 C 647.059 -3.02117 1.90945 0
M  V30 6707 C 646.725 -2.95332 3.40719 0
M  V30 6708 C 645.387 -2.93189 3.81567 0
M  V30 6709 C 647.739 -2.85264 4.36204 0
M  V30 6710 C 645.067 -2.78784 5.16233 0
M  V30 6711 C 647.419 -2.724 5.70948 0
M  V30 6712 C 646.083 -2.68617 6.11066 0
M  V30 6713 H 645.353 -0.60709 0.42488 0
M  V30 6714 H 648 -1.05932 1.59533 0
M  V30 6715 H 646.305 -3.65901 1.40085 0
M  V30 6716 H 648.002 -3.59026 1.7861 0
M  V30 6717 H 644.592 -2.97797 3.08245 0
M  V30 6718 H 648.776 -2.86005 4.05605 0
M  V30 6719 H 644.032 -2.74254 5.46438 0
M  V30 6720 H 648.206 -2.63579 6.44592 0
M  V30 6721 H 645.833 -2.57213 7.15364 0
M  V30 6722 N 647.408 -1.11026 -1.11852 0
M  V30 6723 C 648.355 -0.764662 -2.17765 0
M  V30 6724 C 649.325 0.261854 -1.64023 0
M  V30 6725 O 650.51 0.139748 -1.90288 0
M  V30 6726 C 647.65 -0.209317 -3.44465 0
M  V30 6727 C 646.763 -1.29187 -4.12231 0
M  V30 6728 C 645.898 -0.697523 -5.266 0
M  V30 6729 C 644.937 -1.76023 -5.86244 0
M  V30 6730 N 644.074 -1.18569 -6.92016 0
M  V30 6731 H 648.914 -1.67202 -2.46673 0
M  V30 6732 H 646.451 -0.835065 -1.21099 0
M  V30 6733 H 648.409 0.130599 -4.16996 0
M  V30 6734 H 647.039 0.661251 -3.15955 0
M  V30 6735 H 646.091 -1.74881 -3.37818 0
M  V30 6736 H 647.403 -2.09607 -4.52622 0
M  V30 6737 H 646.557 -0.307412 -6.05921 0
M  V30 6738 H 645.296 0.138044 -4.87505 0
M  V30 6739 H 644.301 -2.1597 -5.05606 0
M  V30 6740 H 645.526 -2.59875 -6.27409 0
M  V30 6741 H 643.472 -0.371695 -6.54946 0
M  V30 6742 H 643.389 -1.92666 -7.31038 0
M  V30 6743 H 644.657 -0.82233 -7.7515 0
M  V30 6744 N 648.886 1.2938 -0.899927 0
M  V30 6745 C 649.834 2.29675 -0.367698 0
M  V30 6746 C 650.828 1.60787 0.533282 0
M  V30 6747 O 652.034 1.75126 0.416058 0
M  V30 6748 H 648.409 0.745284 -0.100279 0
M  V30 6749 H 650.38 2.72008 -1.22696 0
M  V30 6750 C 649.129 3.45512 0.389483 0
M  V30 6751 H 648.452 3.98713 -0.294575 0
M  V30 6752 H 649.892 4.17725 0.726744 0
M  V30 6753 C 648.351 2.969 1.59223 0
M  V30 6754 O 648.881 2.98195 2.69152 0
M  V30 6755 N 647.087 2.52728 1.43447 0
M  V30 6756 H 646.634 2.51873 0.540148 0
M  V30 6757 H 646.592 2.20561 2.24054 0
M  V30 6758 N 650.364 0.662433 1.43002 0
M  V30 6759 C 651.274 -0.0239199 2.34588 0
M  V30 6760 C 652.29 -0.802255 1.54402 0
M  V30 6761 O 653.466 -0.747401 1.87018 0
M  V30 6762 C 650.531 -0.972098 3.32793 0
M  V30 6763 C 649.592 -0.189673 4.28881 0
M  V30 6764 C 648.825 -1.09269 5.22395 0
M  V30 6765 O 649.048 -2.33209 5.20547 0
M  V30 6766 O 647.982 -0.560136 5.99288 0
M  V30 6767 H 651.808 0.730171 2.94792 0
M  V30 6768 H 649.393 0.422635 1.43297 0
M  V30 6769 H 651.275 -1.51676 3.93157 0
M  V30 6770 H 649.95 -1.70626 2.75079 0
M  V30 6771 H 648.857 0.398794 3.71968 0
M  V30 6772 H 650.19 0.50511 4.89601 0
M  V30 6773 N 651.842 -1.52309 0.404946 0
M  V30 6774 C 652.752 -2.30634 -0.429555 0
M  V30 6775 C 653.768 -1.38187 -1.05737 0
M  V30 6776 O 654.944 -1.71261 -1.05979 0
M  V30 6777 C 652.009 -3.10947 -1.53339 0
M  V30 6778 C 651.07 -4.19126 -0.929065 0
M  V30 6779 C 650.303 -4.95601 -1.9803 0
M  V30 6780 O 650.526 -4.72331 -3.1978 0
M  V30 6781 O 649.46 -5.80551 -1.58886 0
M  V30 6782 H 653.286 -3.0298 0.208963 0
M  V30 6783 H 650.871 -1.4845 0.168255 0
M  V30 6784 H 652.753 -3.60974 -2.1743 0
M  V30 6785 H 651.428 -2.41399 -2.15658 0
M  V30 6786 H 650.335 -3.73257 -0.250982 0
M  V30 6787 H 651.668 -4.90955 -0.349855 0
M  V30 6788 N 653.32 -0.135238 -1.57019 0
M  V30 6789 C 654.23 0.822226 -2.19719 0
M  V30 6790 C 655.246 1.28057 -1.17802 0
M  V30 6791 O 656.422 1.3402 -1.50335 0
M  V30 6792 C 653.487 2.0484 -2.79717 0
M  V30 6793 C 652.548 1.64042 -3.96723 0
M  V30 6794 C 651.781 2.80814 -4.53849 0
M  V30 6795 O 652.004 3.967 -4.0986 0
M  V30 6796 O 650.938 2.56963 -5.44292 0
M  V30 6797 H 654.764 0.318552 -3.02025 0
M  V30 6798 H 652.349 0.0912021 -1.49121 0
M  V30 6799 H 654.231 2.76622 -3.17897 0
M  V30 6800 H 652.906 2.54182 -2.00432 0
M  V30 6801 H 651.813 0.893182 -3.63281 0
M  V30 6802 H 653.146 1.19426 -4.77492 0
M  V30 6803 N 654.798 1.5699 0.138552 0
M  V30 6804 C 656.044 1.84081 0.85099 0
M  V30 6805 C 656.377 0.718107 1.80435 0
M  V30 6806 O 655.652 -0.277633 1.92508 0
M  V30 6807 C 655.935 3.21699 1.61808 0
M  V30 6808 C 655.788 4.44544 0.685633 0
M  V30 6809 C 657.107 3.5664 2.57868 0
M  V30 6810 H 654.226 0.669592 0.307922 0
M  V30 6811 H 656.868 1.89646 0.11588 0
M  V30 6812 H 655.018 3.17086 2.24474 0
M  V30 6813 H 656.69 4.61248 0.0693179 0
M  V30 6814 H 654.933 4.338 -0.00421993 0
M  V30 6815 H 655.604 5.3746 1.25858 0
M  V30 6816 H 658.08 3.61918 2.05316 0
M  V30 6817 H 656.956 4.53946 3.08584 0
M  V30 6818 H 657.217 2.83036 3.39622 0
M  V30 6819 N 656.276 -0.40816 1.52223 0
M  V30 6820 C 657.523 -1.15502 1.66329 0
M  V30 6821 C 657.851 -1.90474 0.393701 0
M  V30 6822 O 657.106 -1.85507 -0.623356 0
M  V30 6823 C 657.405 -2.17422 2.83659 0
M  V30 6824 C 657.071 -1.5925 4.21841 0
M  V30 6825 C 655.733 -1.4311 4.59427 0
M  V30 6826 C 658.085 -1.16776 5.0795 0
M  V30 6827 C 655.413 -0.830148 5.80797 0
M  V30 6828 C 657.765 -0.580988 6.29926 0
M  V30 6829 C 656.429 -0.406729 6.6626 0
M  V30 6830 H 655.699 -0.422653 0.608642 0
M  V30 6831 H 658.346 -0.442114 1.86327 0
M  V30 6832 H 656.651 -2.94861 2.58001 0
M  V30 6833 H 658.348 -2.75084 2.9177 0
M  V30 6834 H 654.938 -1.72796 3.92224 0
M  V30 6835 H 659.122 -1.28055 4.79495 0
M  V30 6836 H 654.378 -0.68316 6.07571 0
M  V30 6837 H 658.552 -0.243488 6.95974 0
M  V30 6838 H 656.179 0.0610366 7.60175 0
M  V30 6839 N 657.755 -1.42862 -0.66545 0
M  V30 6840 C 658.718 -1.46756 -1.76055 0
M  V30 6841 C 659.718 -0.353866 -1.56858 0
M  V30 6842 O 660.908 -0.615099 -1.62979 0
M  V30 6843 C 658.04 -1.30829 -3.14796 0
M  V30 6844 H 659.233 -2.44271 -1.73987 0
M  V30 6845 H 656.786 -1.29447 -0.875965 0
M  V30 6846 H 657.521 -0.342733 -3.22484 0
M  V30 6847 H 657.306 -2.11551 -3.30134 0
M  V30 6848 H 658.796 -1.36458 -3.94676 0
M  V30 6849 N 659.233 0.902656 -1.29189 0
M  V30 6850 C 660.479 1.6555 -1.18172 0
M  V30 6851 C 660.834 1.90569 0.264788 0
M  V30 6852 O 660.127 1.50292 1.1884 0
M  V30 6853 C 660.321 3.011 -1.92545 0
M  V30 6854 C 660.15 2.89312 -3.4428 0
M  V30 6855 C 658.92 2.90239 -4.1363 0
M  V30 6856 C 661.118 2.6656 -4.3983 0
M  V30 6857 N 659.1 2.69156 -5.5175 0
M  V30 6858 C 660.471 2.54429 -5.6539 0
M  V30 6859 C 662.526 2.51644 -4.29627 0
M  V30 6860 C 661.229 2.289 -6.81907 0
M  V30 6861 C 663.255 2.27498 -5.45892 0
M  V30 6862 C 662.617 2.16129 -6.70423 0
M  V30 6863 H 658.716 0.611519 -0.48741 0
M  V30 6864 H 661.3 1.06514 -1.62981 0
M  V30 6865 H 659.471 3.58202 -1.50154 0
M  V30 6866 H 661.203 3.65471 -1.73818 0
M  V30 6867 H 657.958 3.01412 -3.65305 0
M  V30 6868 H 658.382 2.61676 -6.24383 0
M  V30 6869 H 663.024 2.59178 -3.34045 0
M  V30 6870 H 660.742 2.20104 -7.77547 0
M  V30 6871 H 664.328 2.16805 -5.39895 0
M  V30 6872 H 663.208 1.97703 -7.5887 0
M  V30 6873 N 660.711 1.11618 1.11262 0
M  V30 6874 C 661.659 0.771291 2.1944 0
M  V30 6875 C 662.653 -0.238073 1.67719 0
M  V30 6876 O 663.859 -0.0971628 1.79738 0
M  V30 6877 H 660.234 0.231548 0.715465 0
M  V30 6878 H 662.205 1.69226 2.45775 0
M  V30 6879 C 660.954 0.232765 3.4692 0
M  V30 6880 H 660.277 1.00072 3.87073 0
M  V30 6881 H 661.717 0.0296561 4.2399 0
M  V30 6882 C 660.176 -1.03738 3.20531 0
M  V30 6883 O 660.706 -2.11675 3.41404 0
M  V30 6884 N 658.912 -0.960906 2.74253 0
M  V30 6885 H 658.459 -0.0824323 2.57468 0
M  V30 6886 H 658.417 -1.8114 2.56974 0
M  V30 6887 N 662.189 -1.289 0.906776 0
M  V30 6888 C 663.137 -2.29477 0.379873 0
M  V30 6889 C 664.131 -1.61068 -0.524747 0
M  V30 6890 O 665.337 -1.75344 -0.406765 0
M  V30 6891 H 661.712 -0.744742 0.10423 0
M  V30 6892 H 663.683 -2.71353 1.24137 0
M  V30 6893 C 662.432 -3.45713 -0.371154 0
M  V30 6894 H 661.755 -3.98551 0.315716 0
M  V30 6895 H 663.195 -4.18105 -0.704581 0
M  V30 6896 C 661.654 -2.9774 -1.57646 0
M  V30 6897 O 662.184 -2.99618 -2.67567 0
M  V30 6898 N 660.39 -2.53485 -1.42105 0
M  V30 6899 H 659.937 -2.52156 -0.526783 0
M  V30 6900 H 659.895 -2.21747 -2.22881 0
M  V30 6901 N 663.667 -0.670007 -1.42649 0
M  V30 6902 C 664.577 0.0114788 -2.34597 0
M  V30 6903 C 665.593 0.794055 -1.54825 0
M  V30 6904 O 666.769 0.737472 -1.87412 0
M  V30 6905 C 663.834 0.954436 -3.33304 0
M  V30 6906 C 662.895 0.166925 -4.28975 0
M  V30 6907 C 662.128 1.06497 -5.22967 0
M  V30 6908 O 662.351 2.30446 -5.21777 0
M  V30 6909 O 661.285 0.528347 -5.99577 0
M  V30 6910 H 665.111 -0.745794 -2.944 0
M  V30 6911 H 662.696 -0.430228 -1.43071 0
M  V30 6912 H 664.578 1.49589 -3.93956 0
M  V30 6913 H 663.253 1.69164 -2.7598 0
M  V30 6914 H 662.16 -0.418515 -3.71752 0
M  V30 6915 H 663.493 -0.531067 -4.89327 0
M  V30 6916 N 665.145 1.52092 -0.413018 0
M  V30 6917 C 666.391 2.02154 0.161737 0
M  V30 6918 C 666.724 1.29789 1.44459 0
M  V30 6919 O 665.999 0.405378 1.90229 0
M  V30 6920 C 666.282 3.5781 0.405463 0
M  V30 6921 C 666.135 4.40819 -0.894335 0
M  V30 6922 C 667.454 4.23821 1.18591 0
M  V30 6923 H 664.573 0.734769 0.0573077 0
M  V30 6924 H 667.215 1.81948 -0.547247 0
M  V30 6925 H 665.365 3.75158 1.0094 0
M  V30 6926 H 667.037 4.35175 -1.53039 0
M  V30 6927 H 665.28 4.06877 -1.50444 0
M  V30 6928 H 665.951 5.47819 -0.678144 0
M  V30 6929 H 668.427 4.10596 0.674573 0
M  V30 6930 H 667.303 5.32663 1.3252 0
M  V30 6931 H 667.564 3.83038 2.20758 0
M  V30 6932 N 666.623 0.143563 1.56945 0
M  V30 6933 C 667.57 -0.797433 2.16586 0
M  V30 6934 C 668.54 -1.24654 1.09775 0
M  V30 6935 O 669.725 -1.31968 1.37801 0
M  V30 6936 C 666.865 -2.03253 2.78895 0
M  V30 6937 C 665.978 -1.62954 4.00087 0
M  V30 6938 C 665.113 -2.81617 4.50406 0
M  V30 6939 C 664.152 -2.37675 5.64072 0
M  V30 6940 N 663.289 -3.49335 6.09023 0
M  V30 6941 H 668.129 -0.282023 2.96662 0
M  V30 6942 H 665.666 -0.127494 1.46546 0
M  V30 6943 H 667.624 -2.75653 3.13163 0
M  V30 6944 H 666.254 -2.52211 2.01469 0
M  V30 6945 H 665.306 -0.803322 3.71821 0
M  V30 6946 H 666.618 -1.26679 4.82446 0
M  V30 6947 H 665.772 -3.62212 4.86711 0
M  V30 6948 H 664.511 -3.21134 3.67048 0
M  V30 6949 H 663.516 -1.55519 5.27346 0
M  V30 6950 H 664.741 -1.99247 6.49213 0
M  V30 6951 H 662.687 -3.8848 5.28601 0
M  V30 6952 H 662.604 -3.17064 6.86299 0
M  V30 6953 H 663.872 -4.30297 6.49973 0
M  V30 6954 N 668.101 -1.57061 -0.130224 0
M  V30 6955 C 669.033 -1.96147 -1.18571 0
M  V30 6956 C 670.046 -0.859347 -1.38272 0
M  V30 6957 O 671.235 -1.13769 -1.37545 0
M  V30 6958 C 668.335 -2.23484 -2.54771 0
M  V30 6959 C 667.508 -3.54786 -2.55824 0
M  V30 6960 C 666.567 -3.70467 -3.73686 0
M  V30 6961 O 665.593 -4.42693 -3.57787 0
M  V30 6962 N 666.795 -3.08389 -4.91809 0
M  V30 6963 H 669.56 -2.87295 -0.853333 0
M  V30 6964 H 667.121 -1.58714 -0.319621 0
M  V30 6965 H 669.113 -2.312 -3.32158 0
M  V30 6966 H 667.683 -1.38518 -2.80235 0
M  V30 6967 H 666.903 -3.5836 -1.64232 0
M  V30 6968 H 668.191 -4.4111 -2.53573 0
M  V30 6969 H 667.589 -2.49656 -5.0763 0
M  V30 6970 H 666.146 -3.21642 -5.66912 0
M  V30 6971 N 669.579 0.400081 -1.52437 0
M  V30 6972 C 670.827 1.14392 -1.6661 0
M  V30 6973 C 671.148 1.90792 -0.402927 0
M  V30 6974 O 670.418 1.87042 0.582425 0
M  V30 6975 H 668.998 0.425275 -0.614125 0
M  V30 6976 H 671.66 0.455076 -1.89513 0
M  V30 6977 H 670.756 1.85298 -2.51139 0
M  V30 6978 N 671.057 1.43213 0.657864 0
M  V30 6979 C 671.987 1.50815 1.78262 0
M  V30 6980 C 672.968 0.363211 1.66177 0
M  V30 6981 O 674.153 0.579806 1.85343 0
M  V30 6982 C 671.283 1.42625 3.16663 0
M  V30 6983 C 670.237 2.5532 3.43505 0
M  V30 6984 C 669.563 2.32184 4.81658 0
M  V30 6985 C 670.863 3.97583 3.38711 0
M  V30 6986 H 672.557 2.44954 1.72157 0
M  V30 6987 H 670.103 1.17896 0.82683 0
M  V30 6988 H 672.056 1.46548 3.95097 0
M  V30 6989 H 670.78 0.449877 3.23487 0
M  V30 6990 H 669.439 2.50742 2.6744 0
M  V30 6991 H 669.087 1.32801 4.85153 0
M  V30 6992 H 668.787 3.07724 5.00579 0
M  V30 6993 H 670.311 2.37883 5.62356 0
M  V30 6994 H 671.725 4.03673 4.07089 0
M  V30 6995 H 670.122 4.73112 3.69168 0
M  V30 6996 H 671.192 4.23049 2.36976 0
M  V30 6997 N 672.536 -0.895792 1.29666 0
M  V30 6998 C 673.761 -1.68528 1.20885 0
M  V30 6999 C 674.186 -1.8673 -0.226595 0
M  V30 7000 O 673.544 -1.39044 -1.16347 0
M  V30 7001 C 673.592 -3.04512 1.93144 0
M  V30 7002 O 672.696 -3.92963 1.25115 0
M  V30 7003 H 672.037 -0.515371 0.418675 0
M  V30 7004 H 674.567 -1.11878 1.71302 0
M  V30 7005 H 674.577 -3.54628 2.0175 0
M  V30 7006 H 673.252 -2.90582 2.97548 0
M  V30 7007 H 671.829 -3.51399 1.24794 0
M  V30 7008 N 674.014 -1.12206 -1.10668 0
M  V30 7009 C 675.239 -0.898938 -1.86906 0
M  V30 7010 C 675.664 0.546346 -1.79991 0
M  V30 7011 O 675.022 1.38655 -1.1681 0
M  V30 7012 C 675.07 -1.37529 -3.33344 0
M  V30 7013 O 674.174 -0.55218 -4.08687 0
M  V30 7014 H 673.515 -0.323163 -0.580053 0
M  V30 7015 H 676.045 -1.49355 -1.39837 0
M  V30 7016 H 676.055 -1.3733 -3.84193 0
M  V30 7017 H 674.73 -2.42767 -3.37693 0
M  V30 7018 H 673.307 -0.620947 -3.67694 0
M  V30 7019 N 675.492 1.28418 -0.913599 0
M  V30 7020 C 676.717 1.99643 -0.561899 0
M  V30 7021 C 677.142 1.67819 0.849608 0
M  V30 7022 O 676.5 0.910503 1.56779 0
M  V30 7023 C 676.548 3.52116 -0.777622 0
M  V30 7024 O 675.652 4.12076 0.163457 0
M  V30 7025 H 674.993 0.627229 -0.217898 0
M  V30 7026 H 677.523 1.63575 -1.229 0
M  V30 7027 H 677.533 4.02163 -0.687666 0
M  V30 7028 H 676.208 3.74613 -1.8066 0
M  V30 7029 H 674.785 3.72892 0.0247827 0
M  V30 7030 N 676.97 0.677563 1.42291 0
M  V30 7031 C 678.219 0.198173 2.00724 0
M  V30 7032 C 678.532 -1.20325 1.54211 0
M  V30 7033 O 679.738 -1.77916 2.05081 0
M  V30 7034 C 678.194 0.303432 3.58619 0
M  V30 7035 C 677.802 1.70909 4.14119 0
M  V30 7036 C 679.546 -0.117103 4.24338 0
M  V30 7037 C 677.453 1.76696 5.64387 0
M  V30 7038 H 676.383 0.070329 0.750713 0
M  V30 7039 H 679.034 0.843147 1.62982 0
M  V30 7040 H 677.416 -0.409482 3.93877 0
M  V30 7041 H 678.59 2.44931 3.90315 0
M  V30 7042 H 676.905 2.07771 3.6086 0
M  V30 7043 H 679.502 -0.0940471 5.34617 0
M  V30 7044 H 679.845 -1.15283 4.00019 0
M  V30 7045 H 680.378 0.5449 3.9405 0
M  V30 7046 H 677.117 2.7826 5.93508 0
M  V30 7047 H 676.637 1.07034 5.90173 0
M  V30 7048 H 678.316 1.52166 6.28852 0
M  V30 7049 N 678.448 -1.51871 0.421078 0
M  V30 7050 C 679.695 -2.01938 -0.15079 0
M  V30 7051 C 680.023 -1.30611 -1.44121 0
M  V30 7052 O 679.278 -0.404631 -1.91471 0
M  V30 7053 C 679.577 -3.54764 -0.433292 0
M  V30 7054 C 679.243 -4.44288 0.76936 0
M  V30 7055 C 677.905 -4.68477 1.09921 0
M  V30 7056 C 680.257 -4.96915 1.57242 0
M  V30 7057 C 677.585 -5.4254 2.2331 0
M  V30 7058 C 679.937 -5.7222 2.69716 0
M  V30 7059 C 678.601 -5.94678 3.03174 0
M  V30 7060 H 677.871 -0.738943 -0.0551781 0
M  V30 7061 H 680.518 -1.82977 0.564945 0
M  V30 7062 H 678.823 -3.71968 -1.23074 0
M  V30 7063 H 680.52 -3.91023 -0.888922 0
M  V30 7064 H 677.11 -4.25646 0.502305 0
M  V30 7065 H 681.294 -4.78125 1.3308 0
M  V30 7066 H 676.55 -5.58146 2.49565 0
M  V30 7067 H 680.724 -6.11992 3.32323 0
M  V30 7068 H 678.351 -6.51848 3.9115 0
M  V30 7069 N 679.926 -0.151884 -1.56866 0
M  V30 7070 C 681.154 0.504813 -2.00647 0
M  V30 7071 C 681.569 1.58098 -1.03201 0
M  V30 7072 O 680.926 1.82476 -0.0297814 0
M  V30 7073 C 680.977 1.10099 -3.44326 0
M  V30 7074 O 680.698 0.0678021 -4.38048 0
M  V30 7075 C 682.199 1.83782 -4.03409 0
M  V30 7076 H 679.419 0.130989 -0.65809 0
M  V30 7077 H 681.963 -0.247903 -2.02992 0
M  V30 7078 H 680.118 1.8043 -3.42817 0
M  V30 7079 H 680.532 0.505237 -5.22061 0
M  V30 7080 H 682.006 2.2078 -5.05925 0
M  V30 7081 H 682.483 2.72557 -3.44397 0
M  V30 7082 H 683.089 1.18138 -4.08563 0
M  V30 7083 N 681.404 1.57128 0.121893 0
M  V30 7084 C 682.351 2.0013 1.14964 0
M  V30 7085 C 683.321 0.872959 1.4131 0
M  V30 7086 O 684.506 1.13696 1.53225 0
M  V30 7087 C 681.646 2.40824 2.4718 0
M  V30 7088 C 680.759 3.67061 2.27794 0
M  V30 7089 C 679.894 3.96749 3.53219 0
M  V30 7090 C 678.933 5.16178 3.28978 0
M  V30 7091 N 678.07 5.41751 4.46599 0
M  V30 7092 H 682.91 2.8772 0.775947 0
M  V30 7093 H 680.447 1.42328 0.371652 0
M  V30 7094 H 682.405 2.62454 3.24305 0
M  V30 7095 H 681.035 1.56279 2.82448 0
M  V30 7096 H 680.087 3.53063 1.416 0
M  V30 7097 H 681.399 4.5434 2.05857 0
M  V30 7098 H 680.553 4.19012 4.38764 0
M  V30 7099 H 679.292 3.07941 3.78185 0
M  V30 7100 H 678.297 4.93762 2.41824 0
M  V30 7101 H 679.522 6.06561 3.05386 0
M  V30 7102 H 677.468 4.55899 4.71691 0
M  V30 7103 H 677.385 6.23347 4.27756 0
M  V30 7104 H 678.653 5.68531 5.33285 0
M  V30 7105 N 682.882 -0.391992 1.52647 0
M  V30 7106 C 684.159 -1.15136 1.58123 0
M  V30 7107 C 684.539 -2.07786 0.372597 0
M  V30 7108 O 683.887 -2.19374 -0.639304 0
M  V30 7109 C 684.097 -1.91367 2.91856 0
M  V30 7110 C 685.445 -2.46833 3.45483 0
M  V30 7111 O 686.469 -2.01527 2.9371 0
M  V30 7112 O 685.328 -3.29587 4.3593 0
M  V30 7113 H 682.422 -0.526649 0.637629 0
M  V30 7114 H 684.968 -0.397386 1.64982 0
M  V30 7115 H 683.74 -1.23597 3.71268 0
M  V30 7116 H 683.363 -2.73732 2.88369 0
M  V30 7117 N 684.36 -1.4356 -0.65026 0
M  V30 7118 C 685.29 -1.51758 -1.77459 0
M  V30 7119 C 686.271 -0.372019 -1.65982 0
M  V30 7120 O 687.456 -0.589627 -1.85033 0
M  V30 7121 C 684.586 -1.44302 -3.15902 0
M  V30 7122 C 683.54 -2.57138 -3.42146 0
M  V30 7123 C 682.866 -2.34735 -4.8042 0
M  V30 7124 C 684.166 -3.99373 -3.36598 0
M  V30 7125 H 685.86 -2.45863 -1.70855 0
M  V30 7126 H 683.406 -1.18333 -0.820566 0
M  V30 7127 H 685.359 -1.48641 -3.94314 0
M  V30 7128 H 684.083 -0.467026 -3.23244 0
M  V30 7129 H 682.742 -2.52157 -2.66106 0
M  V30 7130 H 682.39 -1.35372 -4.84441 0
M  V30 7131 H 682.09 -3.10375 -4.9894 0
M  V30 7132 H 683.614 -2.40862 -5.61086 0
M  V30 7133 H 685.028 -4.05826 -4.04942 0
M  V30 7134 H 683.425 -4.75063 -3.66654 0
M  V30 7135 H 684.495 -4.243 -2.34729 0
M  V30 7136 N 685.838 0.888903 -1.30139 0
M  V30 7137 C 687.086 1.63713 -1.18501 0
M  V30 7138 C 687.407 1.9324 0.261399 0
M  V30 7139 O 686.677 1.56608 1.17689 0
M  V30 7140 H 685.257 0.606861 -0.435579 0
M  V30 7141 H 687.919 1.06525 -1.63213 0
M  V30 7142 H 687.015 2.58894 -1.743 0
M  V30 7143 N 687.317 1.12792 1.10072 0
M  V30 7144 C 688.733 0.864745 1.34143 0
M  V30 7145 C 688.933 -0.503201 1.95116 0
M  V30 7146 O 687.989 -1.25111 2.19325 0
M  V30 7147 C 689.302 1.98413 2.25949 0
M  V30 7148 C 690.85 2.01545 2.39476 0
M  V30 7149 C 691.325 3.12727 3.34613 0
M  V30 7150 N 692.816 3.12194 3.42183 0
M  V30 7151 C 693.551 3.94862 4.15779 0
M  V30 7152 N 693.047 4.87528 4.92228 0
M  V30 7153 N 694.84 3.82985 4.11435 0
M  V30 7154 H 686.991 2.00926 0.68866 0
M  V30 7155 H 689.254 0.874564 0.365844 0
M  V30 7156 H 688.96 2.97005 1.88364 0
M  V30 7157 H 688.834 1.89254 3.26287 0
M  V30 7158 H 691.221 1.0357 2.76328 0
M  V30 7159 H 691.302 2.14777 1.3894 0
M  V30 7160 H 690.946 4.10936 2.98486 0
M  V30 7161 H 690.876 2.96732 4.35037 0
M  V30 7162 H 693.367 2.45065 2.87666 0
M  V30 7163 H 693.68 5.47109 5.45794 0
M  V30 7164 H 692.025 4.91539 4.9134 0
M  V30 7165 H 695.216 3.09923 3.50807 0
M  V30 7166 H 695.389 4.47641 4.68531 0
M  V30 7167 N 688.795 -1.27931 0.920396 0
M  V30 7168 C 690.044 -1.93975 0.552867 0
M  V30 7169 C 690.357 -1.73193 -0.909035 0
M  V30 7170 O 691.563 -2.33515 -1.38502 0
M  V30 7171 C 690.019 -3.47463 0.937947 0
M  V30 7172 C 689.627 -3.77013 2.42003 0
M  V30 7173 C 691.371 -4.19628 0.64132 0
M  V30 7174 C 689.278 -5.23841 2.74489 0
M  V30 7175 H 688.208 -0.726146 0.203046 0
M  V30 7176 H 690.859 -1.45339 1.12022 0
M  V30 7177 H 689.241 -3.94867 0.299317 0
M  V30 7178 H 690.415 -3.40393 3.10595 0
M  V30 7179 H 688.73 -3.18035 2.6878 0
M  V30 7180 H 691.327 -5.27729 0.860622 0
M  V30 7181 H 691.67 -4.14164 -0.421168 0
M  V30 7182 H 692.203 -3.78022 1.23872 0
M  V30 7183 H 688.942 -5.34388 3.79618 0
M  V30 7184 H 688.462 -5.61634 2.1054 0
M  V30 7185 H 690.141 -5.91647 2.61845 0
M  V30 7186 N 690.273 -0.685099 -1.4193 0
M  V30 7187 C 691.52 -0.211658 -2.01391 0
M  V30 7188 C 691.848 1.18526 -1.54214 0
M  V30 7189 O 691.103 1.81189 -0.739519 0
M  V30 7190 C 691.402 -0.206154 -3.56805 0
M  V30 7191 C 691.068 -1.54915 -4.23453 0
M  V30 7192 C 689.73 -1.91684 -4.41373 0
M  V30 7193 C 692.082 -2.43317 -4.60919 0
M  V30 7194 C 689.41 -3.16461 -4.94034 0
M  V30 7195 C 691.762 -3.67415 -5.14965 0
M  V30 7196 C 690.426 -4.04341 -5.31098 0
M  V30 7197 H 689.696 -0.0774511 -0.736941 0
M  V30 7198 H 692.343 -0.882121 -1.69973 0
M  V30 7199 H 690.648 0.547841 -3.87951 0
M  V30 7200 H 692.345 0.17753 -4.00607 0
M  V30 7201 H 688.935 -1.25314 -4.09871 0
M  V30 7202 H 693.119 -2.16192 -4.46738 0
M  V30 7203 H 688.375 -3.45078 -5.04709 0
M  V30 7204 H 692.549 -4.3611 -5.42938 0
M  V30 7205 H 690.176 -5.01101 -5.71666 0
M  V30 7206 N 691.751 1.51645 -0.429126 0
M  V30 7207 C 693.167 1.59394 -0.080994 0
M  V30 7208 C 693.367 1.44064 1.40882 0
M  V30 7209 O 692.423 1.27771 2.17786 0
M  V30 7210 C 693.736 2.94779 -0.593773 0
M  V30 7211 C 695.284 3.08067 -0.553494 0
M  V30 7212 C 695.759 4.45963 -1.04311 0
M  V30 7213 N 697.25 4.5226 -1.00076 0
M  V30 7214 C 697.985 5.57268 -1.35056 0
M  V30 7215 N 697.481 6.69734 -1.77282 0
M  V30 7216 N 699.274 5.47582 -1.26925 0
M  V30 7217 H 691.425 1.59856 -1.39857 0
M  V30 7218 H 693.688 0.753095 -0.575805 0
M  V30 7219 H 693.394 3.11342 -1.63583 0
M  V30 7220 H 693.268 3.77197 -0.0142202 0
M  V30 7221 H 695.655 2.91177 0.479556 0
M  V30 7222 H 695.736 2.27508 -1.16935 0
M  V30 7223 H 695.38 4.63598 -2.07459 0
M  V30 7224 H 695.31 5.25049 -0.403873 0
M  V30 7225 H 697.801 3.71537 -0.690564 0
M  V30 7226 H 698.114 7.4587 -2.02232 0
M  V30 7227 H 696.459 6.70963 -1.81202 0
M  V30 7228 H 699.65 4.58604 -0.93809 0
M  V30 7229 H 699.823 6.29308 -1.54516 0
M  V30 7230 N 693.229 0.160201 1.56784 0
M  V30 7231 C 694.475 -0.481855 1.9761 0
M  V30 7232 C 694.83 -1.61605 1.04411 0
M  V30 7233 O 694.123 -1.91426 0.0816402 0
M  V30 7234 C 694.317 -1.02259 3.42459 0
M  V30 7235 C 694.146 0.0576781 4.49663 0
M  V30 7236 C 692.916 0.503585 5.02784 0
M  V30 7237 C 695.114 0.854013 5.0716 0
M  V30 7238 N 693.096 1.56532 5.93608 0
M  V30 7239 C 694.467 1.76593 5.94319 0
M  V30 7240 C 696.522 0.900333 4.89692 0
M  V30 7241 C 695.225 2.72023 6.6588 0
M  V30 7242 C 697.251 1.84252 5.61965 0
M  V30 7243 C 696.613 2.74194 6.48843 0
M  V30 7244 H 692.712 -0.144748 0.768487 0
M  V30 7245 H 695.296 0.257853 1.92985 0
M  V30 7246 H 693.467 -1.73186 3.47651 0
M  V30 7247 H 695.199 -1.63235 3.70319 0
M  V30 7248 H 691.954 0.103361 4.73487 0
M  V30 7249 H 692.378 2.09634 6.43726 0
M  V30 7250 H 697.02 0.219023 4.22232 0
M  V30 7251 H 694.738 3.41147 7.3256 0
M  V30 7252 H 698.324 1.88433 5.5044 0
M  V30 7253 H 697.204 3.45912 7.03786 0
M  V30 7254 N 694.707 -1.5719 -0.113559 0
M  V30 7255 C 695.637 -2.03772 -1.14013 0
M  V30 7256 C 696.618 -0.923176 -1.42869 0
M  V30 7257 O 697.803 -1.19325 -1.53216 0
M  V30 7258 C 694.933 -2.44663 -2.4649 0
M  V30 7259 C 693.887 -3.59612 -2.32085 0
M  V30 7260 C 693.213 -3.8642 -3.69573 0
M  V30 7261 C 694.513 -4.91149 -1.7768 0
M  V30 7262 H 696.207 -2.89785 -0.752665 0
M  V30 7263 H 693.753 -1.39412 -0.360609 0
M  V30 7264 H 695.706 -2.75857 -3.18561 0
M  V30 7265 H 694.43 -1.55628 -2.87137 0
M  V30 7266 H 693.089 -3.28636 -1.62461 0
M  V30 7267 H 692.737 -2.94581 -4.07715 0
M  V30 7268 H 692.437 -4.63797 -3.60786 0
M  V30 7269 H 693.961 -4.2007 -4.4314 0
M  V30 7270 H 695.375 -5.20843 -2.39574 0
M  V30 7271 H 693.772 -5.72562 -1.79701 0
M  V30 7272 H 694.842 -4.79301 -0.734776 0
M  V30 7273 N 696.185 0.383891 -1.52853 0
M  V30 7274 C 697.433 1.12619 -1.67814 0
M  V30 7275 C 697.754 1.90354 -0.423141 0
M  V30 7276 O 697.024 1.87649 0.562554 0
M  V30 7277 H 695.604 0.418738 -0.618601 0
M  V30 7278 H 698.266 0.43495 -1.89985 0
M  V30 7279 H 697.362 1.82624 -2.5309 0
M  V30 7280 N 697.663 1.43903 0.642637 0
M  V30 7281 C 699.074 1.40975 1.22404 0
M  V30 7282 C 699.425 0.1192 1.95838 0
M  V30 7283 O 698.55 -0.780939 2.01818 0
M  V30 7284 C 699.145 2.5538 2.22636 0
M  V30 7285 C 697.704 2.55684 2.76229 0
M  V30 7286 C 696.851 2.32556 1.51039 0
M  V30 7287 H 699.802 1.5265 0.434006 0
M  V30 7288 H 699.823 2.27474 3.05017 0
M  V30 7289 H 699.335 3.49294 1.69161 0
M  V30 7290 H 697.436 1.65679 3.33738 0
M  V30 7291 H 697.549 3.53799 3.23053 0
M  V30 7292 H 695.913 1.81427 1.78764 0
M  V30 7293 H 696.696 3.28569 0.99484 0
M  V30 7294 N 699.141 -0.881989 1.30609 0
M  V30 7295 C 700.088 -1.98803 1.17244 0
M  V30 7296 C 701.058 -1.65987 0.0611905 0
M  V30 7297 O 702.243 -1.89385 0.231911 0
M  V30 7298 C 699.383 -3.33867 0.87333 0
M  V30 7299 C 698.496 -3.79354 2.06675 0
M  V30 7300 C 697.631 -5.03078 1.70547 0
M  V30 7301 C 696.67 -5.40981 2.86366 0
M  V30 7302 N 695.807 -6.55886 2.50514 0
M  V30 7303 H 700.647 -2.09566 2.11863 0
M  V30 7304 H 698.184 -1.02607 1.05405 0
M  V30 7305 H 700.142 -4.11612 0.680519 0
M  V30 7306 H 698.772 -3.2278 -0.0359983 0
M  V30 7307 H 697.824 -2.97492 2.37071 0
M  V30 7308 H 699.136 -4.03382 2.93401 0
M  V30 7309 H 698.29 -5.88457 1.47658 0
M  V30 7310 H 697.029 -4.80927 0.809947 0
M  V30 7311 H 696.034 -4.54127 3.09917 0
M  V30 7312 H 697.259 -5.65104 3.76609 0
M  V30 7313 H 695.205 -6.35306 1.63471 0
M  V30 7314 H 695.122 -6.79799 3.30771 0
M  V30 7315 H 696.39 -7.44489 2.30989 0
M  V30 7316 N 700.619 -1.13374 -1.09472 0
M  V30 7317 C 701.867 -0.893422 -1.8128 0
M  V30 7318 C 702.188 0.582029 -1.86111 0
M  V30 7319 O 701.458 1.42305 -1.34633 0
M  V30 7320 H 700.038 -0.327543 -0.67136 0
M  V30 7321 H 702.7 -1.43018 -1.32408 0
M  V30 7322 H 701.796 -1.28374 -2.84476 0
M  V30 7323 N 702.098 1.27442 -0.927168 0
M  V30 7324 C 703.323 1.99036 -0.583042 0
M  V30 7325 C 703.748 1.68711 0.83176 0
M  V30 7326 O 703.106 0.927081 1.55804 0
M  V30 7327 C 703.154 3.51271 -0.814925 0
M  V30 7328 O 702.258 4.12226 0.119742 0
M  V30 7329 H 701.599 0.624883 -0.224538 0
M  V30 7330 H 704.129 1.62263 -1.24628 0
M  V30 7331 H 704.139 4.01411 -0.730282 0
M  V30 7332 H 702.814 3.72676 -1.84623 0
M  V30 7333 H 701.391 3.72897 -0.0147688 0
M  V30 7334 N 703.576 0.692616 1.41565 0
M  V30 7335 C 704.853 0.150496 1.9502 0
M  V30 7336 C 705.233 -1.33881 1.63215 0
M  V30 7337 O 704.581 -2.08378 0.937598 0
M  V30 7338 C 704.791 0.438636 3.46233 0
M  V30 7339 C 706.139 0.364777 4.2303 0
M  V30 7340 O 707.163 0.373383 3.54238 0
M  V30 7341 O 706.022 0.32234 5.45549 0
M  V30 7342 H 703.116 0.0132454 0.826894 0
M  V30 7343 H 705.662 0.768574 1.51298 0
M  V30 7344 H 704.434 1.46962 3.62654 0
M  V30 7345 H 704.057 -0.210562 3.97042 0
M  V30 7346 N 705.054 -1.51416 0.437162 0
M  V30 7347 C 706.294 -2.03995 -0.128538 0
M  V30 7348 C 706.658 -1.31417 -1.39977 0
M  V30 7349 O 707.859 -1.74369 -2.0457 0
M  V30 7350 C 706.13 -3.55757 -0.342317 0
M  V30 7351 S 707.689 -4.3006 -0.871446 0
M  V30 7352 H 704.507 -0.710283 -0.0319322 0
M  V30 7353 H 707.109 -1.86177 0.596526 0
M  V30 7354 H 705.813 -4.06148 0.589233 0
M  V30 7355 H 705.344 -3.77869 -1.09447 0
M  V30 7356 H 707.359 -4.47248 -2.14903 0
M  V30 7357 N 706.532 -0.168513 -1.56696 0
M  V30 7358 C 707.78 0.476216 -1.96409 0
M  V30 7359 C 708.101 1.63968 -1.05544 0
M  V30 7360 O 707.371 1.95525 -0.121235 0
M  V30 7361 H 705.951 0.178921 -0.725256 0
M  V30 7362 H 708.613 -0.249042 -1.93302 0
M  V30 7363 H 707.709 0.838094 -3.00637 0
M  V30 7364 N 708.01 1.57248 0.105221 0
M  V30 7365 C 709.259 1.84756 0.809198 0
M  V30 7366 C 709.572 0.756262 1.80389 0
M  V30 7367 O 710.778 0.918158 2.55504 0
M  V30 7368 C 709.234 3.27613 1.48989 0
M  V30 7369 C 708.842 4.44788 0.535484 0
M  V30 7370 C 710.586 3.64356 2.17819 0
M  V30 7371 C 708.493 5.78676 1.22019 0
M  V30 7372 H 707.423 0.689139 0.305946 0
M  V30 7373 H 710.074 1.83395 0.0620371 0
M  V30 7374 H 708.456 3.23485 2.28415 0
M  V30 7375 H 709.63 4.60243 -0.226557 0
M  V30 7376 H 707.945 4.16374 -0.0465769 0
M  V30 7377 H 710.542 4.61663 2.69761 0
M  V30 7378 H 710.885 2.92474 2.96251 0
M  V30 7379 H 711.418 3.70328 1.45264 0
M  V30 7380 H 708.157 6.53763 0.476875 0
M  V30 7381 H 707.677 5.67083 1.9539 0
M  V30 7382 H 709.356 6.22897 1.74952 0
M  V30 7383 N 709.488 -0.375779 1.53054 0
M  V30 7384 C 710.734 -1.12114 1.68992 0
M  V30 7385 C 711.067 -1.8926 0.435238 0
M  V30 7386 O 710.342 -1.86044 -0.567278 0
M  V30 7387 C 710.625 -2.08867 2.93337 0
M  V30 7388 C 710.478 -1.35397 4.28938 0
M  V30 7389 C 711.797 -3.09124 3.13257 0
M  V30 7390 H 708.916 -0.406207 0.614951 0
M  V30 7391 H 711.558 -0.403054 1.85676 0
M  V30 7392 H 709.708 -2.70102 2.79244 0
M  V30 7393 H 711.38 -0.770242 4.54824 0
M  V30 7394 H 709.623 -0.655801 4.28814 0
M  V30 7395 H 710.294 -2.06161 5.12056 0
M  V30 7396 H 712.77 -2.57987 3.26469 0
M  V30 7397 H 711.646 -3.74054 4.01715 0
M  V30 7398 H 711.907 -3.78729 2.28072 0
M  V30 7399 N 710.966 -1.44241 -0.634997 0
M  V30 7400 C 711.914 -1.51103 -1.76835 0
M  V30 7401 C 712.908 -0.383051 -1.65012 0
M  V30 7402 O 714.114 -0.557832 -1.71138 0
M  V30 7403 H 710.489 -0.474076 -0.583743 0
M  V30 7404 H 712.46 -2.46499 -1.68169 0
M  V30 7405 C 711.209 -1.4687 -3.15158 0
M  V30 7406 H 710.532 -2.32979 -3.24901 0
M  V30 7407 H 711.972 -1.55731 -3.94365 0
M  V30 7408 C 710.431 -0.188884 -3.3637 0
M  V30 7409 O 710.961 0.742487 -3.94778 0
M  V30 7410 N 709.167 -0.0932516 -2.9045 0
M  V30 7411 H 708.714 -0.852004 -2.43102 0
M  V30 7412 H 708.672 0.762308 -3.05018 0
M  V30 7413 N 712.444 0.87505 -1.31075 0
M  V30 7414 C 713.69 1.63009 -1.20647 0
M  V30 7415 C 714.023 1.9276 0.236045 0
M  V30 7416 O 713.298 1.55559 1.16754 0
M  V30 7417 C 713.581 2.96357 -2.0456 0
M  V30 7418 C 713.434 2.73516 -3.57084 0
M  V30 7419 C 714.753 3.974 -1.89107 0
M  V30 7420 H 711.872 0.591518 -0.439631 0
M  V30 7421 H 714.514 1.0119 -1.60812 0
M  V30 7422 H 712.664 3.49119 -1.70435 0
M  V30 7423 H 714.336 2.27465 -4.01319 0
M  V30 7424 H 712.579 2.0784 -3.80769 0
M  V30 7425 H 713.25 3.68377 -4.11099 0
M  V30 7426 H 715.726 3.5383 -2.18961 0
M  V30 7427 H 714.602 4.88596 -2.5013 0
M  V30 7428 H 714.863 4.33794 -0.85296 0
M  V30 7429 N 713.922 1.13953 1.08869 0
M  V30 7430 C 714.87 0.817664 2.17754 0
M  V30 7431 C 715.864 -0.202444 1.68186 0
M  V30 7432 O 717.07 -0.0590159 1.79903 0
M  V30 7433 H 713.445 0.246671 0.710392 0
M  V30 7434 H 715.416 1.74401 2.4213 0
M  V30 7435 C 714.165 0.3063 3.46348 0
M  V30 7436 H 713.488 1.08259 3.84864 0
M  V30 7437 H 714.928 0.119584 4.23831 0
M  V30 7438 C 713.387 -0.969158 3.22659 0
M  V30 7439 O 713.917 -2.04386 3.45817 0
M  V30 7440 N 712.123 -0.902516 2.7623 0
M  V30 7441 H 711.67 -0.027801 2.57585 0
M  V30 7442 H 711.628 -1.75649 2.60758 0
M  V30 7443 N 715.4 -1.26948 0.933913 0
M  V30 7444 C 716.649 -1.93378 0.573409 0
M  V30 7445 C 716.962 -1.74148 -0.890614 0
M  V30 7446 O 718.168 -2.34971 -1.36017 0
M  V30 7447 C 716.624 -3.46449 0.974747 0
M  V30 7448 C 716.232 -3.74425 2.45988 0
M  V30 7449 C 717.976 -4.18924 0.685791 0
M  V30 7450 C 715.883 -5.209 2.8003 0
M  V30 7451 H 714.813 -0.723952 0.210736 0
M  V30 7452 H 717.464 -1.44143 1.13557 0
M  V30 7453 H 715.846 -3.94528 0.341181 0
M  V30 7454 H 717.02 -3.37079 3.14188 0
M  V30 7455 H 715.335 -3.15167 2.72138 0
M  V30 7456 H 717.932 -5.26786 0.916546 0
M  V30 7457 H 718.275 -4.14587 -0.377217 0
M  V30 7458 H 718.808 -3.76687 1.27874 0
M  V30 7459 H 715.547 -5.30332 3.85264 0
M  V30 7460 H 715.067 -5.59369 2.16485 0
M  V30 7461 H 716.746 -5.88837 2.68105 0
M  V30 7462 N 716.879 -0.700114 -1.41195 0
M  V30 7463 C 718.29 -0.307249 -1.84154 0
M  V30 7464 C 718.641 1.15539 -1.58572 0
M  V30 7465 O 717.766 1.88744 -1.05852 0
M  V30 7466 C 718.361 -0.550872 -3.34292 0
M  V30 7467 C 716.92 -0.211877 -3.75803 0
M  V30 7468 C 716.067 -0.830915 -2.64558 0
M  V30 7469 H 719.018 -0.900431 -1.30683 0
M  V30 7470 H 719.039 0.188954 -3.80031 0
M  V30 7471 H 718.551 -1.61548 -3.5288 0
M  V30 7472 H 716.652 0.848283 -3.62815 0
M  V30 7473 H 716.765 -0.67007 -4.74391 0
M  V30 7474 H 715.129 -0.260155 -2.53368 0
M  V30 7475 H 715.912 -1.89948 -2.85963 0
M  V30 7476 N 718.357 1.51182 -0.445186 0
M  V30 7477 C 719.585 2.06568 0.117091 0
M  V30 7478 C 720 1.31182 1.35781 0
M  V30 7479 O 719.357 0.373605 1.78635 0
M  V30 7480 C 719.408 3.58917 0.431408 0
M  V30 7481 O 719.129 4.31456 -0.760078 0
M  V30 7482 C 720.63 4.30843 1.0435 0
M  V30 7483 H 717.85 0.670985 0.00444436 0
M  V30 7484 H 720.394 1.94666 -0.626525 0
M  V30 7485 H 718.549 3.70708 1.12493 0
M  V30 7486 H 718.963 5.22215 -0.489048 0
M  V30 7487 H 720.437 5.38499 1.21337 0
M  V30 7488 H 720.914 3.89644 2.02667 0
M  V30 7489 H 721.52 4.23516 0.38913 0
M  V30 7490 N 719.835 0.176821 1.56605 0
M  V30 7491 C 721.06 -0.47599 2.01864 0
M  V30 7492 C 721.485 -1.55645 1.05623 0
M  V30 7493 O 720.843 -1.81263 0.0366729 0
M  V30 7494 C 720.891 -1.02619 3.4569 0
M  V30 7495 O 719.995 -2.13996 3.52533 0
M  V30 7496 H 719.336 -0.113363 0.654251 0
M  V30 7497 H 721.866 0.28233 2.02643 0
M  V30 7498 H 721.876 -1.34742 3.85109 0
M  V30 7499 H 720.551 -0.235138 4.15235 0
M  V30 7500 H 719.128 -1.82876 3.24978 0
M  V30 7501 N 721.313 -1.57302 -0.09688 0
M  V30 7502 C 722.561 -1.8563 -0.799117 0
M  V30 7503 C 722.882 -0.765263 -1.79356 0
M  V30 7504 O 722.152 0.208657 -1.94786 0
M  V30 7505 H 720.732 -0.684937 -0.298111 0
M  V30 7506 H 723.394 -1.9474 -0.0789341 0
M  V30 7507 H 722.49 -2.82305 -1.3308 0
M  V30 7508 N 722.791 0.367657 -1.53252 0
M  V30 7509 C 723.754 1.43308 -1.78873 0
M  V30 7510 C 724.754 1.46671 -0.659115 0
M  V30 7511 O 725.944 1.47468 -0.927306 0
M  V30 7512 C 723.076 2.82442 -1.90892 0
M  V30 7513 H 724.269 1.21864 -2.74024 0
M  V30 7514 H 721.822 0.600668 -1.44297 0
M  V30 7515 H 722.557 3.09202 -0.978 0
M  V30 7516 H 722.342 2.81399 -2.73051 0
M  V30 7517 H 723.832 3.59601 -2.12314 0
M  V30 7518 N 724.269 1.44576 0.627338 0
M  V30 7519 C 725.179 1.54232 1.76776 0
M  V30 7520 C 726.195 0.427782 1.6866 0
M  V30 7521 O 727.371 0.685671 1.89369 0
M  V30 7522 C 724.436 1.48738 3.13174 0
M  V30 7523 C 723.497 2.71074 3.32893 0
M  V30 7524 C 722.73 2.65832 4.62784 0
M  V30 7525 O 722.953 1.72048 5.43834 0
M  V30 7526 O 721.887 3.56742 4.84787 0
M  V30 7527 H 725.713 2.50586 1.71582 0
M  V30 7528 H 723.298 1.26865 0.789028 0
M  V30 7529 H 725.18 1.48211 3.94476 0
M  V30 7530 H 723.855 0.555292 3.18902 0
M  V30 7531 H 722.762 2.77168 2.51254 0
M  V30 7532 H 724.095 3.63342 3.32029 0
M  V30 7533 N 725.747 -0.868086 1.31537 0
M  V30 7534 C 726.996 -1.61607 1.20689 0
M  V30 7535 C 727.309 -1.94204 -0.233275 0
M  V30 7536 O 728.515 -2.67515 -0.463465 0
M  V30 7537 C 726.971 -2.91348 2.11292 0
M  V30 7538 C 726.579 -2.66227 3.60315 0
M  V30 7539 C 728.323 -3.69344 2.09249 0
M  V30 7540 C 726.23 -3.91887 4.42921 0
M  V30 7541 H 725.16 -0.606373 0.448138 0
M  V30 7542 H 727.811 -0.959666 1.56405 0
M  V30 7543 H 726.193 -3.58374 1.68477 0
M  V30 7544 H 727.367 -2.07597 4.11388 0
M  V30 7545 H 725.682 -2.01582 3.64354 0
M  V30 7546 H 728.279 -4.62567 2.68209 0
M  V30 7547 H 728.622 -4.02044 1.0801 0
M  V30 7548 H 729.155 -3.09205 2.50274 0
M  V30 7549 H 725.894 -3.64336 5.44922 0
M  V30 7550 H 725.414 -4.49961 3.96605 0
M  V30 7551 H 727.093 -4.59754 4.55231 0
M  V30 7552 N 727.225 -1.14528 -1.08264 0
M  V30 7553 C 728.473 -0.912599 -1.80322 0
M  V30 7554 C 728.794 0.562256 -1.86718 0
M  V30 7555 O 728.064 1.40869 -1.36135 0
M  V30 7556 H 726.644 -0.334645 -0.667849 0
M  V30 7557 H 729.306 -1.44415 -1.30883 0
M  V30 7558 H 728.402 -1.31384 -2.83098 0
M  V30 7559 N 728.703 1.26451 -0.940633 0
M  V30 7560 C 729.951 1.93395 -0.586748 0
M  V30 7561 C 730.272 1.7417 0.876921 0
M  V30 7562 O 729.542 1.097 1.62304 0
M  V30 7563 H 728.122 0.715687 -0.214012 0
M  V30 7564 H 730.784 1.53902 -1.19584 0
M  V30 7565 H 729.88 3.01565 -0.804059 0
M  V30 7566 N 730.181 0.707592 1.40822 0
M  V30 7567 C 731.144 0.0587224 2.29125 0
M  V30 7568 C 732.144 -0.695624 1.44975 0
M  V30 7569 O 733.334 -0.528718 1.65983 0
M  V30 7570 C 730.466 -0.926939 3.28056 0
M  V30 7571 H 731.659 0.836349 2.88002 0
M  V30 7572 H 729.212 0.471778 1.4901 0
M  V30 7573 H 729.947 -1.7319 2.74182 0
M  V30 7574 H 729.732 -0.389015 3.90165 0
M  V30 7575 H 731.222 -1.37837 3.94196 0
M  V30 7576 N 731.66 -1.50943 0.453197 0
M  V30 7577 C 732.907 -2.02212 -0.107922 0
M  V30 7578 C 733.235 -1.33639 -1.41318 0
M  V30 7579 O 732.49 -0.445154 -1.9057 0
M  V30 7580 C 732.789 -3.55603 -0.357944 0
M  V30 7581 C 732.455 -4.42556 0.863427 0
M  V30 7582 C 731.117 -4.6604 1.19834 0
M  V30 7583 C 733.469 -4.93468 1.67747 0
M  V30 7584 C 730.797 -5.37681 2.34768 0
M  V30 7585 C 733.149 -5.6637 2.81793 0
M  V30 7586 C 731.813 -5.88113 3.1572 0
M  V30 7587 H 731.083 -0.739947 -0.0394916 0
M  V30 7588 H 733.73 -1.81738 0.60363 0
M  V30 7589 H 732.035 -3.74495 -1.15156 0
M  V30 7590 H 733.732 -3.92821 -0.805781 0
M  V30 7591 H 730.322 -4.24485 0.592478 0
M  V30 7592 H 734.506 -4.75194 1.43192 0
M  V30 7593 H 729.762 -5.52727 2.61348 0
M  V30 7594 H 733.936 -6.04806 3.45229 0
M  V30 7595 H 731.563 -6.43404 4.04889 0
M  V30 7596 N 733.138 -0.185124 -1.56509 0
M  V30 7597 C 734.386 0.455357 -1.96903 0
M  V30 7598 C 734.707 1.62839 -1.07277 0
M  V30 7599 O 733.977 1.95385 -0.141966 0
M  V30 7600 H 732.557 0.171218 -0.727113 0
M  V30 7601 H 735.219 -0.26953 -1.93027 0
M  V30 7602 H 734.315 0.80616 -3.01509 0
M  V30 7603 N 734.616 1.57351 0.0885366 0
M  V30 7604 C 735.864 1.86051 0.789262 0
M  V30 7605 C 736.185 0.774763 1.78948 0
M  V30 7606 O 735.455 -0.198324 1.94894 0
M  V30 7607 H 734.035 0.686508 0.294475 0
M  V30 7608 H 736.697 1.94779 0.0686055 0
M  V30 7609 H 735.793 2.83007 1.31581 0
M  V30 7610 N 736.094 -0.359525 1.53444 0
M  V30 7611 C 737.004 -1.46445 1.83278 0
M  V30 7612 C 738.02 -1.5833 0.721629 0
M  V30 7613 O 739.196 -1.7411 1.01231 0
M  V30 7614 C 736.261 -2.81638 2.02191 0
M  V30 7615 C 735.322 -2.7923 3.26082 0
M  V30 7616 C 734.555 -4.07974 3.44082 0
M  V30 7617 O 734.778 -5.04447 2.66251 0
M  V30 7618 O 733.712 -4.13417 4.37458 0
M  V30 7619 H 737.538 -1.24156 2.77162 0
M  V30 7620 H 735.123 -0.550201 1.389 0
M  V30 7621 H 737.005 -3.61732 2.16167 0
M  V30 7622 H 735.68 -3.03892 1.11496 0
M  V30 7623 H 734.587 -1.97813 3.17523 0
M  V30 7624 H 735.92 -2.6193 4.16718 0
M  V30 7625 N 737.572 -1.44907 -0.619662 0
M  V30 7626 C 738.519 -1.52654 -1.73105 0
M  V30 7627 C 739.489 -0.373334 -1.6185 0
M  V30 7628 O 740.674 -0.585143 -1.81606 0
M  V30 7629 C 737.814 -1.48769 -3.11387 0
M  V30 7630 C 736.927 -2.74551 -3.33535 0
M  V30 7631 C 736.062 -2.62421 -4.61854 0
M  V30 7632 C 735.101 -3.83312 -4.77219 0
M  V30 7633 N 734.238 -3.69789 -5.96826 0
M  V30 7634 H 739.078 -2.47605 -1.65819 0
M  V30 7635 H 736.615 -1.22875 -0.808719 0
M  V30 7636 H 738.573 -1.44507 -3.91374 0
M  V30 7637 H 737.203 -0.573783 -3.1766 0
M  V30 7638 H 736.255 -2.88953 -2.47408 0
M  V30 7639 H 737.567 -3.64253 -3.40765 0
M  V30 7640 H 736.721 -2.56056 -5.50019 0
M  V30 7641 H 735.46 -1.70298 -4.57001 0
M  V30 7642 H 734.465 -3.90049 -3.87481 0
M  V30 7643 H 735.69 -4.76486 -4.83878 0
M  V30 7644 H 733.636 -2.80426 -5.93041 0
M  V30 7645 H 733.553 -4.53116 -6.05163 0
M  V30 7646 H 734.821 -3.67335 -6.87521 0
M  V30 7647 N 739.05 0.861098 -1.31996 0
M  V30 7648 C 740 1.95703 -1.1698 0
M  V30 7649 C 740.984 1.60709 -0.0784201 0
M  V30 7650 O 742.176 1.74365 -0.304262 0
M  V30 7651 C 739.305 3.31606 -0.888388 0
M  V30 7652 C 738.391 3.7284 -2.02117 0
M  V30 7653 N 738.782 3.85957 -3.26911 0
M  V30 7654 C 737.08 4.02419 -1.92289 0
M  V30 7655 C 737.781 4.21333 -4.01065 0
M  V30 7656 N 736.757 4.32502 -3.29307 0
M  V30 7657 H 740.559 2.03968 -2.11599 0
M  V30 7658 H 738.073 1.05245 -1.23682 0
M  V30 7659 H 740.07 4.09881 -0.761782 0
M  V30 7660 H 738.73 3.24662 0.0494898 0
M  V30 7661 H 739.741 3.70449 -3.61923 0
M  V30 7662 H 736.418 4.03814 -1.06022 0
M  V30 7663 H 737.808 4.39005 -5.08649 0
M  V30 7664 N 740.528 1.15101 1.07655 0
M  V30 7665 C 741.756 0.947731 1.83918 0
M  V30 7666 C 742.171 -0.503927 1.81951 0
M  V30 7667 O 741.528 -1.34941 1.2287 0
M  V30 7668 C 741.579 1.4503 3.31132 0
M  V30 7669 O 741.3 2.84508 3.33146 0
M  V30 7670 C 742.801 1.28806 4.24174 0
M  V30 7671 H 740.021 0.336786 0.580358 0
M  V30 7672 H 742.565 1.52799 1.35914 0
M  V30 7673 H 740.72 0.912632 3.76497 0
M  V30 7674 H 741.134 3.0723 4.251 0
M  V30 7675 H 742.608 1.6882 5.25551 0
M  V30 7676 H 743.085 0.231851 4.38588 0
M  V30 7677 H 743.691 1.81465 3.84643 0
M  V30 7678 N 742.006 -1.2595 0.947325 0
M  V30 7679 C 743.254 -1.93081 0.596996 0
M  V30 7680 C 743.575 -1.74632 -0.867672 0
M  V30 7681 O 742.845 -1.1056 -1.6172 0
M  V30 7682 H 741.425 -0.714542 0.217805 0
M  V30 7683 H 744.087 -1.53265 1.20398 0
M  V30 7684 H 743.183 -3.01134 0.82004 0
M  V30 7685 N 743.484 -0.715051 -1.40445 0
M  V30 7686 C 744.732 -0.253826 -2.005 0
M  V30 7687 C 745.053 1.15681 -1.5698 0
M  V30 7688 O 744.323 1.78414 -0.809027 0
M  V30 7689 H 742.903 -0.0908537 -0.741454 0
M  V30 7690 H 745.565 -0.920561 -1.7179 0
M  V30 7691 H 744.661 -0.286499 -3.10782 0
M  V30 7692 N 744.962 1.50701 -0.461195 0
M  V30 7693 C 746.21 2.01867 0.0970051 0
M  V30 7694 C 746.531 1.34591 1.41104 0
M  V30 7695 O 745.801 0.488041 1.89723 0
M  V30 7696 H 744.381 0.74599 0.0388392 0
M  V30 7697 H 747.043 1.85129 -0.609357 0
M  V30 7698 H 746.139 3.11051 0.255688 0
M  V30 7699 N 746.441 0.193421 1.56409 0
M  V30 7700 C 747.857 -0.162447 1.58771 0
M  V30 7701 C 748.057 -1.6116 1.20954 0
M  V30 7702 O 747.113 -2.3469 0.931497 0
M  V30 7703 C 748.426 0.138391 3.00381 0
M  V30 7704 C 749.974 0.0783649 3.12902 0
M  V30 7705 C 750.449 0.352491 4.56642 0
M  V30 7706 N 751.94 0.30105 4.62221 0
M  V30 7707 C 752.675 0.487028 5.71328 0
M  V30 7708 N 752.171 0.733265 6.88909 0
M  V30 7709 N 753.964 0.4214 5.60518 0
M  V30 7710 H 746.115 1.13909 1.79272 0
M  V30 7711 H 748.378 0.454528 0.83193 0
M  V30 7712 H 748.084 1.14312 3.32604 0
M  V30 7713 H 747.958 -0.559804 3.73023 0
M  V30 7714 H 750.345 -0.916963 2.80492 0
M  V30 7715 H 750.426 0.809611 2.4265 0
M  V30 7716 H 750.07 1.34513 4.89764 0
M  V30 7717 H 750 -0.399624 5.25081 0
M  V30 7718 H 752.491 0.117279 3.77718 0
M  V30 7719 H 752.804 0.86403 7.67955 0
M  V30 7720 H 751.149 0.770138 6.9072 0
M  V30 7721 H 754.34 0.229461 4.67537 0
M  V30 7722 H 754.513 0.569758 6.4549 0
M  V30 7723 N 747.919 -1.57396 -0.0801906 0
M  V30 7724 C 748.829 -2.06451 -1.11423 0
M  V30 7725 C 749.845 -0.992352 -1.42928 0
M  V30 7726 O 751.021 -1.30651 -1.53272 0
M  V30 7727 C 748.086 -2.49164 -2.41077 0
M  V30 7728 C 747.147 -3.70641 -2.16619 0
M  V30 7729 C 746.38 -4.11307 -3.40092 0
M  V30 7730 O 746.603 -3.51922 -4.48895 0
M  V30 7731 O 745.537 -5.04157 -3.288 0
M  V30 7732 H 749.363 -2.94857 -0.727519 0
M  V30 7733 H 746.948 -1.46484 -0.293743 0
M  V30 7734 H 748.83 -2.77196 -3.17396 0
M  V30 7735 H 747.505 -1.6389 -2.79145 0
M  V30 7736 H 746.412 -3.47703 -1.38033 0
M  V30 7737 H 747.745 -4.5674 -1.83437 0
M  V30 7738 N 749.397 0.351382 -1.53633 0
M  V30 7739 C 750.622 1.11718 -1.74739 0
M  V30 7740 C 751.047 1.81829 -0.481657 0
M  V30 7741 O 750.405 1.72264 0.565233 0
M  V30 7742 C 750.453 2.11234 -2.92254 0
M  V30 7743 O 749.557 3.186 -2.61855 0
M  V30 7744 H 748.898 0.323482 -0.579875 0
M  V30 7745 H 751.428 0.404167 -2.00568 0
M  V30 7746 H 751.438 2.54591 -3.18822 0
M  V30 7747 H 750.113 1.59599 -3.84058 0
M  V30 7748 H 748.69 2.80115 -2.4615 0
M  V30 7749 N 750.875 1.45233 0.611969 0
M  V30 7750 C 752.123 1.48727 1.36838 0
M  V30 7751 C 752.444 0.128616 1.94575 0
M  V30 7752 O 751.714 -0.84149 1.76906 0
M  V30 7753 H 750.294 0.547695 0.507976 0
M  V30 7754 H 752.956 1.81156 0.718925 0
M  V30 7755 H 752.052 2.2236 2.19003 0
M  V30 7756 N 752.353 -0.854086 1.3245 0
M  V30 7757 C 753.578 -1.64597 1.26185 0
M  V30 7758 C 754.003 -1.87357 -0.167074 0
M  V30 7759 O 753.361 -1.42675 -1.11864 0
M  V30 7760 C 753.409 -2.98213 2.02734 0
M  V30 7761 O 752.513 -3.88784 1.37554 0
M  V30 7762 H 751.854 -0.50179 0.434859 0
M  V30 7763 H 754.384 -1.06372 1.74775 0
M  V30 7764 H 754.394 -3.4803 2.1293 0
M  V30 7765 H 753.069 -2.80969 3.06642 0
M  V30 7766 H 751.646 -3.4725 1.3591 0
M  V30 7767 N 753.831 -1.1567 -1.07043 0
M  V30 7768 C 755.108 -0.843948 -1.76456 0
M  V30 7769 C 755.488 0.659806 -2.00524 0
M  V30 7770 O 754.836 1.60518 -1.62623 0
M  V30 7771 C 755.046 -1.65822 -3.0709 0
M  V30 7772 C 756.394 -1.8664 -3.8138 0
M  V30 7773 O 757.418 -1.62624 -3.1691 0
M  V30 7774 O 756.277 -2.26884 -4.97178 0
M  V30 7775 H 753.371 -0.310677 -0.766426 0
M  V30 7776 H 755.917 -1.26266 -1.1338 0
M  V30 7777 H 754.689 -2.67902 -2.85209 0
M  V30 7778 H 754.312 -1.23605 -3.77899 0
M  V30 7779 N 755.309 1.25446 -0.953992 0
M  V30 7780 C 756.272 2.24156 -0.478179 0
M  V30 7781 C 757.272 1.55278 0.417776 0
M  V30 7782 O 758.462 1.72866 0.215155 0
M  V30 7783 C 755.594 3.39495 0.309202 0
M  V30 7784 H 756.787 2.67764 -1.35064 0
M  V30 7785 H 754.34 1.37822 -0.737206 0
M  V30 7786 H 755.075 3.01307 1.19936 0
M  V30 7787 H 754.86 3.90679 -0.333562 0
M  V30 7788 H 756.35 4.12796 0.631594 0
M  V30 7789 N 756.787 0.722489 1.40064 0
M  V30 7790 C 758.033 0.27422 2.01543 0
M  V30 7791 C 758.388 -1.12224 1.5628 0
M  V30 7792 O 757.681 -1.75179 0.776063 0
M  V30 7793 C 757.875 0.300682 3.56133 0
M  V30 7794 C 757.704 1.69818 4.16404 0
M  V30 7795 C 756.474 2.30747 4.49537 0
M  V30 7796 C 758.672 2.64962 4.40794 0
M  V30 7797 N 756.654 3.62781 4.9524 0
M  V30 7798 C 758.025 3.81712 4.88565 0
M  V30 7799 C 760.08 2.62885 4.22842 0
M  V30 7800 C 758.783 4.96703 5.20268 0
M  V30 7801 C 760.809 3.77009 4.55652 0
M  V30 7802 C 760.171 4.92492 5.03618 0
M  V30 7803 H 756.27 0.146328 0.768188 0
M  V30 7804 H 758.854 0.94577 1.70186 0
M  V30 7805 H 757.025 -0.340461 3.86905 0
M  V30 7806 H 758.757 -0.164951 4.04364 0
M  V30 7807 H 755.512 1.82783 4.36907 0
M  V30 7808 H 755.936 4.30533 5.22465 0
M  V30 7809 H 760.578 1.74803 3.84972 0
M  V30 7810 H 758.296 5.85425 5.57049 0
M  V30 7811 H 761.882 3.76685 4.43396 0
M  V30 7812 H 760.762 5.79336 5.28525 0
M  V30 7813 N 758.265 -1.50454 0.469181 0
M  V30 7814 C 759.212 -2.28486 -0.325982 0
M  V30 7815 C 760.182 -1.33455 -0.988893 0
M  V30 7816 O 761.367 -1.6239 -1.0017 0
M  V30 7817 C 758.507 -3.15288 -1.40313 0
M  V30 7818 C 757.62 -4.25348 -0.755183 0
M  V30 7819 C 756.755 -4.9941 -1.81006 0
M  V30 7820 C 755.794 -6.01348 -1.14226 0
M  V30 7821 N 754.931 -6.68695 -2.1399 0
M  V30 7822 H 759.771 -2.95987 0.345753 0
M  V30 7823 H 757.308 -1.45965 0.182355 0
M  V30 7824 H 759.266 -3.63964 -2.03927 0
M  V30 7825 H 757.896 -2.49837 -2.04405 0
M  V30 7826 H 756.948 -3.80399 -0.00651901 0
M  V30 7827 H 758.26 -4.98279 -0.227941 0
M  V30 7828 H 757.414 -5.51794 -2.52206 0
M  V30 7829 H 756.153 -4.26181 -2.3711 0
M  V30 7830 H 755.158 -5.48225 -0.415876 0
M  V30 7831 H 756.383 -6.76548 -0.588135 0
M  V30 7832 H 754.329 -5.98258 -2.69115 0
M  V30 7833 H 754.246 -7.37495 -1.66246 0
M  V30 7834 H 755.514 -7.25697 -2.84576 0
M  V30 7835 N 759.743 -0.201713 -1.56304 0
M  V30 7836 C 760.675 0.748466 -2.16635 0
M  V30 7837 C 761.688 1.172 -1.12996 0
M  V30 7838 O 762.877 1.10658 -1.40061 0
M  V30 7839 C 759.977 2.02296 -2.719 0
M  V30 7840 C 759.15 1.75818 -4.00508 0
M  V30 7841 C 758.209 2.87779 -4.40533 0
M  V30 7842 O 757.235 2.57101 -5.07826 0
M  V30 7843 N 758.437 4.16287 -4.04581 0
M  V30 7844 H 761.202 0.232505 -2.98797 0
M  V30 7845 H 758.763 -0.0199822 -1.61888 0
M  V30 7846 H 760.755 2.7635 -2.95657 0
M  V30 7847 H 759.325 2.44996 -1.94154 0
M  V30 7848 H 758.545 0.855095 -3.84814 0
M  V30 7849 H 759.833 1.55532 -4.84445 0
M  V30 7850 H 759.231 4.44061 -3.50466 0
M  V30 7851 H 757.788 4.86946 -4.33274 0
M  V30 7852 N 761.222 1.57436 0.0718424 0
M  V30 7853 C 762.452 1.91196 0.782795 0
M  V30 7854 C 762.86 0.795927 1.71644 0
M  V30 7855 O 762.203 -0.239604 1.82131 0
M  V30 7856 C 762.265 3.20421 1.63005 0
M  V30 7857 C 761.929 4.48724 0.865782 0
M  V30 7858 C 762.926 5.19571 0.185051 0
M  V30 7859 C 760.611 4.95345 0.832971 0
M  V30 7860 C 762.605 6.3529 -0.518264 0
M  V30 7861 C 760.292 6.1097 0.125884 0
M  V30 7862 C 761.29 6.80794 -0.548533 0
M  V30 7863 O 760.978 7.94213 -1.24423 0
M  V30 7864 H 760.71 0.636486 0.227731 0
M  V30 7865 H 763.264 2.05348 0.0464187 0
M  V30 7866 H 761.494 3.02478 2.40923 0
M  V30 7867 H 763.183 3.39831 2.21968 0
M  V30 7868 H 763.949 4.8458 0.201707 0
M  V30 7869 H 759.828 4.40871 1.34737 0
M  V30 7870 H 763.372 6.89725 -1.04523 0
M  V30 7871 H 759.269 6.45411 0.107155 0
M  V30 7872 H 760.037 8.10331 -1.1535 0
M  V30 7873 N 762.7 -0.34323 1.53817 0
M  V30 7874 C 763.633 -1.44472 1.76644 0
M  V30 7875 C 764.611 -1.50498 0.615556 0
M  V30 7876 O 765.795 -1.6821 0.850751 0
M  V30 7877 C 762.922 -2.82705 1.86536 0
M  V30 7878 C 761.968 -2.94302 3.08688 0
M  V30 7879 S 762.801 -2.60739 4.67735 0
M  V30 7880 C 763.957 -4.01079 4.80506 0
M  V30 7881 H 764.19 -1.24893 2.69794 0
M  V30 7882 H 761.723 -0.538915 1.4469 0
M  V30 7883 H 763.681 -3.62342 1.92921 0
M  V30 7884 H 762.342 -2.9958 0.943975 0
M  V30 7885 H 761.535 -3.95593 3.12286 0
M  V30 7886 H 761.137 -2.22614 3.00531 0
M  V30 7887 H 763.429 -4.95603 4.61935 0
M  V30 7888 H 764.372 -4.02475 5.82597 0
M  V30 7889 H 764.78 -3.89119 4.08958 0
M  V30 7890 N 764.178 -1.45556 -0.604258 0
M  V30 7891 C 765.594 -1.30035 -0.925368 0
M  V30 7892 C 765.794 -0.255833 -1.99869 0
M  V30 7893 O 764.85 0.349076 -2.50075 0
M  V30 7894 C 766.163 -2.68028 -1.36314 0
M  V30 7895 C 767.711 -2.75951 -1.47717 0
M  V30 7896 C 768.186 -4.14476 -1.94868 0
M  V30 7897 N 769.677 -4.16787 -2.02097 0
M  V30 7898 C 770.412 -5.20845 -2.39809 0
M  V30 7899 N 769.908 -6.35246 -2.76467 0
M  V30 7900 N 771.701 -5.08204 -2.40177 0
M  V30 7901 H 763.852 -2.1214 0.10512 0
M  V30 7902 H 766.115 -0.947871 -0.0156303 0
M  V30 7903 H 765.821 -3.45667 -0.648628 0
M  V30 7904 H 765.695 -2.96711 -2.329 0
M  V30 7905 H 768.082 -1.98613 -2.18258 0
M  V30 7906 H 768.163 -2.50977 -0.494371 0
M  V30 7907 H 767.807 -4.923 -1.24912 0
M  V30 7908 H 767.737 -4.36843 -2.94068 0
M  V30 7909 H 770.228 -3.34233 -1.76343 0
M  V30 7910 H 770.541 -7.10438 -3.04134 0
M  V30 7911 H 768.886 -6.38642 -2.74155 0
M  V30 7912 H 772.077 -4.17874 -2.10947 0
M  V30 7913 H 772.25 -5.89417 -2.69242 0
M  V30 7914 N 765.656 0.84705 -1.32902 0
M  V30 7915 C 767.072 1.13645 -1.12058 0
M  V30 7916 C 767.272 2.01281 0.093937 0
M  V30 7917 O 766.328 2.4026 0.776608 0
M  V30 7918 C 767.641 1.80644 -2.40392 0
M  V30 7919 C 769.189 1.93246 -2.46221 0
M  V30 7920 C 769.664 2.6366 -3.74496 0
M  V30 7921 N 771.155 2.71179 -3.75521 0
M  V30 7922 C 771.89 3.26332 -4.71482 0
M  V30 7923 N 771.386 3.82236 -5.77813 0
M  V30 7924 N 773.179 3.24507 -4.58968 0
M  V30 7925 H 765.33 0.263612 -2.10758 0
M  V30 7926 H 767.593 0.17944 -0.930863 0
M  V30 7927 H 767.299 1.23708 -3.29225 0
M  V30 7928 H 767.173 2.80736 -2.51926 0
M  V30 7929 H 769.56 2.49338 -1.57843 0
M  V30 7930 H 769.641 0.921272 -2.38634 0
M  V30 7931 H 769.285 2.08229 -4.63253 0
M  V30 7932 H 769.215 3.65234 -3.79357 0
M  V30 7933 H 771.706 2.31527 -2.9867 0
M  V30 7934 H 772.019 4.22499 -6.47082 0
M  V30 7935 H 770.364 3.80546 -5.81558 0
M  V30 7936 H 773.555 2.80085 -3.7506 0
M  V30 7937 H 773.728 3.67188 -5.33926 0
M  V30 7938 N 767.134 1.16236 1.06428 0
M  V30 7939 C 768.359 0.967688 1.83441 0
M  V30 7940 C 768.784 -0.479167 1.81894 0
M  V30 7941 O 768.142 -1.34224 1.21875 0
M  V30 7942 C 768.19 1.49806 3.2801 0
M  V30 7943 O 767.294 0.703481 4.06356 0
M  V30 7944 H 766.635 0.344468 0.56766 0
M  V30 7945 H 769.165 1.54442 1.34197 0
M  V30 7946 H 769.175 1.51495 3.78831 0
M  V30 7947 H 767.85 2.55133 3.2845 0
M  V30 7948 H 766.427 0.756986 3.65136 0
M  V30 7949 N 768.612 -1.24939 0.960631 0
M  V30 7950 C 769.84 -1.96881 0.636045 0
M  V30 7951 C 770.255 -1.71334 -0.793093 0
M  V30 7952 O 769.612 -0.992917 -1.53125 0
M  V30 7953 C 769.663 -3.50309 0.892533 0
M  V30 7954 O 769.384 -3.74977 2.26548 0
M  V30 7955 C 770.885 -4.39474 0.581159 0
M  V30 7956 H 768.105 -0.627399 0.237931 0
M  V30 7957 H 770.649 -1.58952 1.28664 0
M  V30 7958 H 768.804 -3.86326 0.288257 0
M  V30 7959 H 769.218 -4.69401 2.34014 0
M  V30 7960 H 770.692 -5.46008 0.811125 0
M  V30 7961 H 771.169 -4.3652 -0.48443 0
M  V30 7962 H 771.775 -4.09032 1.16502 0
M  V30 7963 N 770.09 -0.729906 -1.39679 0
M  V30 7964 C 771.33 -0.280232 -2.0247 0
M  V30 7965 C 771.694 1.11006 -1.56658 0
M  V30 7966 O 772.895 1.65753 -2.11612 0
M  V30 7967 C 771.166 -0.372922 -3.55449 0
M  V30 7968 S 772.725 -0.00233974 -4.388 0
M  V30 7969 H 769.543 -0.110139 -0.702418 0
M  V30 7970 H 772.145 -0.955296 -1.70571 0
M  V30 7971 H 770.849 -1.38616 -3.86282 0
M  V30 7972 H 770.38 0.320136 -3.92095 0
M  V30 7973 H 772.395 1.21544 -4.81084 0
M  V30 7974 N 771.568 1.50203 -0.477153 0
M  V30 7975 C 772.796 2.0677 0.0732489 0
M  V30 7976 C 773.211 1.34033 1.32968 0
M  V30 7977 O 772.568 0.411412 1.77802 0
M  V30 7978 C 772.619 3.59751 0.35518 0
M  V30 7979 O 772.34 4.29747 -0.851425 0
M  V30 7980 C 773.841 4.3296 0.951877 0
M  V30 7981 H 771.061 0.670929 -0.00978923 0
M  V30 7982 H 773.605 1.93293 -0.667676 0
M  V30 7983 H 771.76 3.7301 1.04605 0
M  V30 7984 H 772.174 5.2106 -0.599708 0
M  V30 7985 H 773.648 5.40952 1.09888 0
M  V30 7986 H 774.125 3.93856 1.94356 0
M  V30 7987 H 774.731 4.24246 0.299208 0
M  V30 7988 N 773.046 0.209999 1.56195 0
M  V30 7989 C 774.295 -0.425106 1.97169 0
M  V30 7990 C 774.608 -1.61718 1.10031 0
M  V30 7991 O 775.814 -2.32105 1.40853 0
M  V30 7992 C 774.27 -0.80771 3.50719 0
M  V30 7993 C 773.878 0.360902 4.46544 0
M  V30 7994 C 775.622 -1.40906 4.00432 0
M  V30 7995 C 773.529 -0.0434919 5.91384 0
M  V30 7996 H 772.459 -0.162598 0.736259 0
M  V30 7997 H 775.11 0.304382 1.80958 0
M  V30 7998 H 773.492 -1.59429 3.62489 0
M  V30 7999 H 774.666 1.13846 4.46515 0
M  V30 8000 H 772.981 0.874729 4.07109 0
M  V30 8001 H 775.578 -1.72433 5.06133 0
M  V30 8002 H 775.921 -2.32081 3.45607 0
M  V30 8003 H 776.454 -0.686154 3.91838 0
M  V30 8004 H 773.193 0.834448 6.50167 0
M  V30 8005 H 772.713 -0.785598 5.94633 0
M  V30 8006 H 774.392 -0.474176 6.4526 0
M  V30 8007 N 774.524 -1.57472 -0.0634922 0
M  V30 8008 C 775.472 -2.05307 -1.09323 0
M  V30 8009 C 776.466 -0.959995 -1.39572 0
M  V30 8010 O 777.672 -1.14507 -1.38882 0
M  V30 8011 H 774.047 -0.65472 -0.369927 0
M  V30 8012 H 776.018 -2.90925 -0.663707 0
M  V30 8013 C 774.767 -2.51954 -2.39613 0
M  V30 8014 H 774.09 -3.35662 -2.1719 0
M  V30 8015 H 775.53 -2.89169 -3.10092 0
M  V30 8016 C 773.989 -1.40596 -3.06161 0
M  V30 8017 O 774.519 -0.752722 -3.94585 0
M  V30 8018 N 772.725 -1.14902 -2.66919 0
M  V30 8019 H 772.272 -1.68205 -1.95102 0
M  V30 8020 H 772.23 -0.406006 -3.11767 0
M  V30 8021 N 776.003 0.335068 -1.53997 0
M  V30 8022 C 777.233 1.0926 -1.75345 0
M  V30 8023 C 777.641 1.82568 -0.496545 0
M  V30 8024 O 776.984 1.75525 0.541897 0
M  V30 8025 C 777.046 2.14473 -2.88516 0
M  V30 8026 C 776.71 1.60665 -4.27827 0
M  V30 8027 C 777.707 1.05448 -5.09094 0
M  V30 8028 C 775.392 1.65255 -4.74337 0
M  V30 8029 C 777.386 0.555372 -6.34976 0
M  V30 8030 C 775.073 1.14956 -6.0019 0
M  V30 8031 C 776.071 0.601907 -6.80343 0
M  V30 8032 O 775.759 0.106445 -8.0383 0
M  V30 8033 H 775.491 0.331329 -0.589234 0
M  V30 8034 H 778.045 0.39042 -2.01655 0
M  V30 8035 H 776.275 2.88274 -2.5775 0
M  V30 8036 H 777.964 2.75857 -2.97755 0
M  V30 8037 H 778.73 1.01218 -4.74321 0
M  V30 8038 H 774.609 2.06822 -4.12002 0
M  V30 8039 H 778.153 0.127245 -6.97484 0
M  V30 8040 H 774.05 1.18891 -6.34457 0
M  V30 8041 H 774.818 0.222944 -8.18196 0
M  V30 8042 N 777.481 1.45874 0.596531 0
M  V30 8043 C 778.706 1.54247 1.38646 0
M  V30 8044 C 779.131 0.179571 1.87241 0
M  V30 8045 O 778.489 -0.837831 1.6078 0
M  V30 8046 C 778.537 2.54015 2.55946 0
M  V30 8047 O 777.641 2.06561 3.5694 0
M  V30 8048 H 776.982 0.519555 0.413471 0
M  V30 8049 H 779.512 1.91327 0.724936 0
M  V30 8050 H 779.522 2.73179 3.03047 0
M  V30 8051 H 778.197 3.52994 2.19928 0
M  V30 8052 H 776.774 1.97324 3.16414 0
M  V30 8053 N 778.959 -0.83999 1.33349 0
M  V30 8054 C 779.906 -1.94972 1.23509 0
M  V30 8055 C 780.876 -1.65709 0.113967 0
M  V30 8056 O 782.061 -1.88552 0.292045 0
M  V30 8057 C 779.201 -3.30919 0.979105 0
M  V30 8058 C 778.314 -3.72587 2.18639 0
M  V30 8059 C 777.449 -4.97397 1.86465 0
M  V30 8060 C 776.488 -5.31597 3.03432 0
M  V30 8061 N 775.625 -6.47584 2.71254 0
M  V30 8062 H 780.465 -2.0272 2.18423 0
M  V30 8063 H 778.002 -0.992017 1.08616 0
M  V30 8064 H 779.96 -4.09239 0.811126 0
M  V30 8065 H 778.59 -3.22731 0.0667099 0
M  V30 8066 H 777.642 -2.89799 2.46416 0
M  V30 8067 H 778.954 -3.93844 3.06086 0
M  V30 8068 H 778.108 -5.83462 1.66305 0
M  V30 8069 H 776.847 -4.78107 0.96254 0
M  V30 8070 H 775.852 -4.44037 3.24208 0
M  V30 8071 H 777.077 -5.52836 3.94397 0
M  V30 8072 H 775.023 -6.29783 1.836 0
M  V30 8073 H 774.94 -6.68931 3.52231 0
M  V30 8074 H 776.208 -7.36764 2.54558 0
M  V30 8075 N 780.437 -1.16799 -1.0581 0
M  V30 8076 C 781.714 -0.862616 -1.75551 0
M  V30 8077 C 782.094 0.6385 -2.01212 0
M  V30 8078 O 781.442 1.58784 -1.64317 0
M  V30 8079 C 781.652 -1.6907 -3.05314 0
M  V30 8080 C 783 -1.90675 -3.79379 0
M  V30 8081 O 784.024 -1.65976 -3.15167 0
M  V30 8082 O 782.883 -2.32145 -4.94743 0
M  V30 8083 H 779.977 -0.318789 -0.763088 0
M  V30 8084 H 782.523 -1.27461 -1.12034 0
M  V30 8085 H 781.295 -2.70912 -2.82352 0
M  V30 8086 H 780.918 -1.27606 -3.76567 0
M  V30 8087 N 781.915 1.24427 -0.967243 0
M  V30 8088 C 782.845 2.2773 -0.515899 0
M  V30 8089 C 783.826 1.64197 0.444227 0
M  V30 8090 O 785.011 1.91193 0.340451 0
M  V30 8091 C 782.141 3.46751 0.195149 0
M  V30 8092 C 781.095 4.22548 -0.680953 0
M  V30 8093 C 780.421 5.34456 0.161561 0
M  V30 8094 C 781.721 4.83914 -1.96532 0
M  V30 8095 H 783.415 2.65735 -1.37933 0
M  V30 8096 H 780.961 1.27742 -0.664681 0
M  V30 8097 H 782.914 4.18153 0.522117 0
M  V30 8098 H 781.638 3.07771 1.09292 0
M  V30 8099 H 780.297 3.52946 -0.991186 0
M  V30 8100 H 779.945 4.91716 1.05947 0
M  V30 8101 H 779.645 5.86087 -0.421418 0
M  V30 8102 H 781.169 6.08685 0.483211 0
M  V30 8103 H 782.583 5.47392 -1.70396 0
M  V30 8104 H 780.98 5.45775 -2.49499 0
M  V30 8105 H 782.05 4.05393 -2.66053 0
M  V30 8106 N 783.393 0.737304 1.3929 0
M  V30 8107 C 784.804 0.355966 1.83275 0
M  V30 8108 C 785.155 -1.11295 1.6158 0
M  V30 8109 O 784.28 -1.85871 1.10819 0
M  V30 8110 C 784.875 0.63931 3.32713 0
M  V30 8111 C 783.434 0.31144 3.75109 0
M  V30 8112 C 782.581 0.900765 2.62262 0
M  V30 8113 H 785.532 0.934763 1.28249 0
M  V30 8114 H 785.553 -0.0881293 3.80398 0
M  V30 8115 H 785.065 1.70847 3.48472 0
M  V30 8116 H 783.166 -0.751791 3.64937 0
M  V30 8117 H 783.279 0.795611 4.72448 0
M  V30 8118 H 781.643 0.327239 2.52589 0
M  V30 8119 H 782.426 1.97463 2.80826 0
M  V30 8120 N 784.871 -1.49948 0.485112 0
M  V30 8121 C 785.801 -2.31675 -0.291364 0
M  V30 8122 C 786.782 -1.39216 -0.977383 0
M  V30 8123 O 787.967 -1.68133 -0.971855 0
M  V30 8124 C 785.097 -3.19326 -1.36558 0
M  V30 8125 C 784.051 -4.2045 -0.800359 0
M  V30 8126 C 783.377 -4.96931 -1.97391 0
M  V30 8127 C 784.677 -5.21925 0.197867 0
M  V30 8128 H 786.371 -2.96839 0.390775 0
M  V30 8129 H 783.917 -1.42749 0.189375 0
M  V30 8130 H 785.87 -3.75304 -1.91638 0
M  V30 8131 H 784.594 -2.52074 -2.07668 0
M  V30 8132 H 783.253 -3.65594 -0.271428 0
M  V30 8133 H 782.901 -4.26141 -2.67232 0
M  V30 8134 H 782.601 -5.65344 -1.60187 0
M  V30 8135 H 784.125 -5.55749 -2.52935 0
M  V30 8136 H 785.539 -5.72691 -0.264239 0
M  V30 8137 H 783.936 -5.98138 0.484908 0
M  V30 8138 H 785.006 -4.71809 1.11912 0
M  V30 8139 N 786.349 -0.21828 -1.56081 0
M  V30 8140 C 787.312 0.679633 -2.18892 0
M  V30 8141 C 788.312 1.12405 -1.14986 0
M  V30 8142 O 789.502 1.03339 -1.40238 0
M  V30 8143 C 786.634 1.93063 -2.80962 0
M  V30 8144 H 787.827 0.132066 -2.99609 0
M  V30 8145 H 785.38 0.0313374 -1.56269 0
M  V30 8146 H 786.115 2.52015 -2.04106 0
M  V30 8147 H 785.9 1.62046 -3.57048 0
M  V30 8148 H 787.39 2.57043 -3.29118 0
M  V30 8149 N 787.827 1.57504 0.0551401 0
M  V30 8150 C 788.759 2.0158 1.09078 0
M  V30 8151 C 789.772 0.92434 1.34014 0
M  V30 8152 O 790.961 1.20202 1.31961 0
M  V30 8153 C 788.061 2.35385 2.43818 0
M  V30 8154 C 787.234 3.66588 2.38605 0
M  V30 8155 C 786.293 3.87874 3.55585 0
M  V30 8156 O 785.319 4.59259 3.36258 0
M  V30 8157 N 786.521 3.31503 4.76536 0
M  V30 8158 H 789.286 2.91039 0.71529 0
M  V30 8159 H 786.847 1.60058 0.243532 0
M  V30 8160 H 788.839 2.46784 3.20749 0
M  V30 8161 H 787.409 1.51731 2.73307 0
M  V30 8162 H 786.629 3.65787 1.46947 0
M  V30 8163 H 787.917 4.52706 2.32239 0
M  V30 8164 H 787.315 2.73592 4.9514 0
M  V30 8165 H 785.872 3.48324 5.50921 0
M  V30 8166 N 789.305 -0.326896 1.54172 0
M  V30 8167 C 790.553 -1.06313 1.71878 0
M  V30 8168 C 790.874 -1.88652 0.493498 0
M  V30 8169 O 790.144 -1.89608 -0.492522 0
M  V30 8170 H 788.724 -0.39549 0.633716 0
M  V30 8171 H 791.386 -0.364139 1.91468 0
M  V30 8172 H 790.482 -1.73105 2.59694 0
M  V30 8173 N 790.784 -1.46188 -0.588786 0
M  V30 8174 C 792.033 -1.50452 -1.34339 0
M  V30 8175 C 792.346 -0.158096 -1.9496 0
M  V30 8176 O 793.552 -0.0784918 -2.71387 0
M  V30 8177 C 792.008 -2.65074 -2.43441 0
M  V30 8178 C 791.616 -4.06111 -1.8915 0
M  V30 8179 C 793.36 -2.78603 -3.20282 0
M  V30 8180 C 791.267 -5.12084 -2.95845 0
M  V30 8181 H 790.197 -0.559905 -0.504997 0
M  V30 8182 H 792.848 -1.72382 -0.629014 0
M  V30 8183 H 791.23 -2.36462 -3.1765 0
M  V30 8184 H 792.404 -4.44487 -1.21524 0
M  V30 8185 H 790.719 -3.97197 -1.24995 0
M  V30 8186 H 793.316 -3.54944 -3.99898 0
M  V30 8187 H 793.659 -1.85902 -3.72486 0
M  V30 8188 H 794.192 -3.06832 -2.53178 0
M  V30 8189 H 790.931 -6.06556 -2.48535 0
M  V30 8190 H 790.451 -4.78259 -3.61979 0
M  V30 8191 H 792.13 -5.37661 -3.59902 0
M  V30 8192 N 792.262 0.832906 -1.33792 0
M  V30 8193 C 793.209 1.94314 -1.24541 0
M  V30 8194 C 794.179 1.65646 -0.122753 0
M  V30 8195 O 795.364 1.88394 -0.30204 0
M  V30 8196 C 792.504 3.30395 -0.996641 0
M  V30 8197 C 791.617 3.71422 -2.20612 0
M  V30 8198 C 790.752 4.96401 -1.89101 0
M  V30 8199 C 789.791 5.2998 -3.06247 0
M  V30 8200 N 788.928 6.46137 -2.74685 0
M  V30 8201 H 793.768 2.01559 -2.19495 0
M  V30 8202 H 791.305 0.986243 -1.09141 0
M  V30 8203 H 793.263 4.08803 -0.832817 0
M  V30 8204 H 791.893 3.22691 -0.0838242 0
M  V30 8205 H 790.945 2.88488 -2.47949 0
M  V30 8206 H 792.257 3.92215 -3.0817 0
M  V30 8207 H 791.411 5.82572 -1.69396 0
M  V30 8208 H 790.15 4.7759 -0.987882 0
M  V30 8209 H 789.155 4.42312 -3.26559 0
M  V30 8210 H 790.38 5.50737 -3.97323 0
M  V30 8211 H 788.326 6.28801 -1.86938 0
M  V30 8212 H 788.243 6.67054 -3.55774 0
M  V30 8213 H 789.511 7.35403 -2.58461 0
M  V30 8214 N 793.74 1.17359 1.05189 0
M  V30 8215 C 794.987 0.961987 1.78191 0
M  V30 8216 C 795.315 -0.509363 1.87712 0
M  V30 8217 O 794.57 -1.39425 1.37329 0
M  V30 8218 C 794.869 1.54821 3.22126 0
M  V30 8219 C 794.535 3.04378 3.32663 0
M  V30 8220 C 793.197 3.45201 3.35246 0
M  V30 8221 C 795.549 4.00387 3.33677 0
M  V30 8222 C 792.877 4.80629 3.36471 0
M  V30 8223 C 795.229 5.35715 3.36441 0
M  V30 8224 C 793.893 5.76002 3.37311 0
M  V30 8225 H 793.163 0.352016 0.652047 0
M  V30 8226 H 795.81 1.46249 1.23627 0
M  V30 8227 H 794.115 0.969432 3.79617 0
M  V30 8228 H 795.812 1.36004 3.77232 0
M  V30 8229 H 792.402 2.71836 3.31366 0
M  V30 8230 H 796.586 3.69906 3.30882 0
M  V30 8231 H 791.842 5.11155 3.35455 0
M  V30 8232 H 796.016 6.09886 3.36173 0
M  V30 8233 H 793.643 6.80919 3.38013 0
M  V30 8234 N 795.218 -1.23913 0.973828 0
M  V30 8235 C 796.15 -2.24397 0.466763 0
M  V30 8236 C 797.163 -1.57078 -0.427828 0
M  V30 8237 O 798.352 -1.76973 -0.233019 0
M  V30 8238 C 795.452 -3.37141 -0.344798 0
M  V30 8239 C 794.625 -4.34037 0.541349 0
M  V30 8240 C 793.684 -5.2576 -0.215243 0
M  V30 8241 O 792.71 -5.67842 0.39291 0
M  V30 8242 N 793.912 -5.60702 -1.5031 0
M  V30 8243 H 796.677 -2.68536 1.33074 0
M  V30 8244 H 794.238 -1.38017 0.846346 0
M  V30 8245 H 796.23 -3.95476 -0.859133 0
M  V30 8246 H 794.8 -2.92239 -1.10974 0
M  V30 8247 H 794.02 -3.74302 1.23659 0
M  V30 8248 H 795.308 -4.95738 1.1455 0
M  V30 8249 H 794.706 -5.28451 -2.01882 0
M  V30 8250 H 793.263 -6.21538 -1.96301 0
M  V30 8251 O 796.735 -0.882192 -1.35276 0
M  V30 8252 H 797.426 -0.486499 -1.87491 0
M  V30 END ATOM
M  V30 BEGIN BOND
M  V30 END BOND
M  V30 END CTAB
M  END
$$$$
