drugbank_target|P49619 Diacylglycerol kinase gamma (DB00144)
 OpenBabel12092120083D

  0  0  0     0  0            999 V3000
M  V30 BEGIN CTAB
M  V30 COUNTS 12382 12527 0 0 0
M  V30 BEGIN ATOM
M  V30 1 H -0.908 1.98254 -0.117106 0
M  V30 2 N 0 1.576 0 0
M  V30 3 C 0.933 2.03868 1.02534 0
M  V30 4 C 1.911 0.928543 1.3348 0
M  V30 5 O 3.095 1.19667 1.45644 0
M  V30 6 C 0.222 2.43627 2.35294 0
M  V30 7 C -0.732 3.65373 2.2001 0
M  V30 8 S 0.101 5.13292 1.52614 0
M  V30 9 C 1.257 5.56322 2.86805 0
M  V30 10 H 1.49 2.90518 0.631377 0
M  V30 11 H -0.977 1.52953 0.210867 0
M  V30 12 H 0.981 2.67203 3.11629 0
M  V30 13 H -0.358 1.57376 2.7183 0
M  V30 14 H -1.165 3.90944 3.18086 0
M  V30 15 H -1.563 3.418 1.51819 0
M  V30 16 H 0.729 5.58782 3.83104 0
M  V30 17 H 1.672 6.56266 2.65933 0
M  V30 18 H 2.08 4.83886 2.90714 0
M  V30 19 N 1.4781 -0.272755 1.55222 0
M  V30 20 C 2.7261 -1.00234 1.75492 0
M  V30 21 C 3.0471 -1.8681 0.5592 0
M  V30 22 O 2.3171 -1.91215 -0.425882 0
M  V30 23 H 0.8971 -0.373076 0.647166 0
M  V30 24 H 3.5591 -0.296926 1.92625 0
M  V30 25 H 2.6551 -1.63913 2.65592 0
M  V30 26 N 2.9562 -1.48159 -0.537278 0
M  V30 27 C 3.8662 -1.64807 -1.6696 0
M  V30 28 C 4.8822 -0.530651 -1.65711 0
M  V30 29 O 6.0582 -0.800784 -1.84796 0
M  V30 30 C 3.1232 -1.67708 -3.03438 0
M  V30 31 C 2.1842 -2.91025 -3.156 0
M  V30 32 C 1.4172 -2.93778 -4.45567 0
M  V30 33 O 1.6402 -2.05153 -5.3223 0
M  V30 34 O 0.5742 -3.85868 -4.61941 0
M  V30 35 H 4.4002 -2.6066 -1.55853 0
M  V30 36 H 1.9852 -1.31475 -0.709549 0
M  V30 37 H 3.8672 -1.7218 -3.84619 0
M  V30 38 H 2.5422 -0.750278 -3.14885 0
M  V30 39 H 1.4492 -2.92089 -2.33741 0
M  V30 40 H 2.7822 -3.83065 -3.09066 0
M  V30 41 N 4.4343 0.785586 -1.36625 0
M  V30 42 C 5.3443 1.92964 -1.33425 0
M  V30 43 C 6.3603 1.72394 -0.235851 0
M  V30 44 O 7.5363 1.95866 -0.468878 0
M  V30 45 C 4.6013 3.27884 -1.12662 0
M  V30 46 C 3.6623 3.61204 -2.32013 0
M  V30 47 C 2.8953 4.89687 -2.12231 0
M  V30 48 O 3.1183 5.59704 -1.09945 0
M  V30 49 O 2.0523 5.21752 -3.00098 0
M  V30 50 H 5.8783 1.98613 -2.29753 0
M  V30 51 H 3.4633 0.926384 -1.17211 0
M  V30 52 H 5.3453 4.08614 -1.03016 0
M  V30 53 H 4.0203 3.23118 -0.193991 0
M  V30 54 H 2.9273 2.80765 -2.47228 0
M  V30 55 H 4.2603 3.70698 -3.23796 0
M  V30 56 N 5.9124 1.20967 1.01018 0
M  V30 57 C 7.3284 0.965905 1.27053 0
M  V30 58 C 7.5284 -0.350785 1.98423 0
M  V30 59 O 6.5844 -1.07773 2.28344 0
M  V30 60 C 7.8974 2.15294 2.09926 0
M  V30 61 C 9.4454 2.19463 2.23171 0
M  V30 62 C 9.9204 3.3767 3.09424 0
M  V30 63 N 11.4114 3.37724 3.17012 0
M  V30 64 C 12.1464 4.25837 3.83993 0
M  V30 65 N 11.6424 5.24138 4.53047 0
M  V30 66 N 13.4354 4.1366 3.80581 0
M  V30 67 H 5.5864 2.0565 0.531194 0
M  V30 68 H 7.8494 0.90024 0.297106 0
M  V30 69 H 7.5554 3.10684 1.64828 0
M  V30 70 H 7.4294 2.13923 3.10672 0
M  V30 71 H 9.8164 1.24632 2.6749 0
M  V30 72 H 9.8974 2.2488 1.21912 0
M  V30 73 H 9.5414 4.32791 2.65808 0
M  V30 74 H 9.4714 3.29491 4.10784 0
M  V30 75 H 11.9624 2.6658 2.6785 0
M  V30 76 H 12.2754 5.87684 5.01844 0
M  V30 77 H 10.6204 5.28068 4.5185 0
M  V30 78 H 13.8114 3.36127 3.25785 0
M  V30 79 H 13.9844 4.82538 4.32505 0
M  V30 80 N 7.3905 -1.2043 1.01659 0
M  V30 81 C 8.6365 -1.90356 0.716674 0
M  V30 82 C 8.9915 -1.77367 -0.745557 0
M  V30 83 O 8.2845 -1.1471 -1.53467 0
M  V30 84 C 8.4785 -3.40464 1.08714 0
M  V30 85 C 8.3075 -3.6806 2.58384 0
M  V30 86 C 7.0775 -3.86775 3.25167 0
M  V30 87 C 9.2755 -3.70623 3.56572 0
M  V30 88 N 7.2575 -4.01889 4.64067 0
M  V30 89 C 8.6285 -3.91161 4.81034 0
M  V30 90 C 10.6835 -3.53586 3.50544 0
M  V30 91 C 9.3865 -3.96428 6.00198 0
M  V30 92 C 11.4125 -3.60125 4.6911 0
M  V30 93 C 10.7745 -3.81135 5.92381 0
M  V30 94 H 6.8735 -0.716226 0.313918 0
M  V30 95 H 9.4575 -1.44815 1.30141 0
M  V30 96 H 7.6285 -3.84757 0.530745 0
M  V30 97 H 9.3605 -3.97863 0.740763 0
M  V30 98 H 6.1155 -3.85156 2.75594 0
M  V30 99 H 6.5395 -4.13323 5.36184 0
M  V30 100 H 11.1815 -3.36308 2.56235 0
M  V30 101 H 8.8995 -4.12502 6.94887 0
M  V30 102 H 12.4855 -3.4825 4.66062 0
M  V30 103 H 11.3655 -3.86054 6.82592 0
M  V30 104 N 8.8686 -0.792821 -1.36206 0
M  V30 105 C 10.1146 -0.36733 -1.99446 0
M  V30 106 C 10.4476 1.05917 -1.62774 0
M  V30 107 O 9.7226 1.7324 -0.88421 0
M  V30 108 C 10.0056 -0.535044 -3.56103 0
M  V30 109 C 9.8586 -2.00548 -4.02617 0
M  V30 110 C 11.1776 0.0478191 -4.40074 0
M  V30 111 H 8.2966 -0.134941 -0.724541 0
M  V30 112 H 10.9386 -0.999794 -1.61568 0
M  V30 113 H 9.0886 0.00336329 -3.885 0
M  V30 114 H 10.7606 -2.60521 -3.80692 0
M  V30 115 H 9.0036 -2.50686 -3.54032 0
M  V30 116 H 9.6746 -2.07377 -5.11565 0
M  V30 117 H 12.1506 -0.411822 -4.14057 0
M  V30 118 H 11.0266 -0.0995336 -5.4881 0
M  V30 119 H 11.2876 1.14025 -4.27142 0
M  V30 120 N 10.3467 1.47872 -0.545128 0
M  V30 121 C 11.5717 2.07391 -0.0190611 0
M  V30 122 C 11.9967 1.39688 1.25971 0
M  V30 123 O 11.3547 0.467816 1.7516 0
M  V30 124 C 11.4027 3.60188 0.172335 0
M  V30 125 O 10.5067 3.9339 1.23766 0
M  V30 126 H 9.8477 0.662411 -0.0459059 0
M  V30 127 H 12.3777 1.90066 -0.757365 0
M  V30 128 H 12.3877 4.06129 0.390305 0
M  V30 129 H 11.0627 4.08865 -0.761725 0
M  V30 130 H 9.6397 3.5921 1.00114 0
M  V30 131 N 11.8248 0.280983 1.55075 0
M  V30 132 C 12.7548 -0.597469 2.25727 0
M  V30 133 C 13.7358 -1.15417 1.24952 0
M  V30 134 O 14.9208 -1.18722 1.53684 0
M  V30 135 C 12.0508 -1.7789 2.98283 0
M  V30 136 C 11.0048 -1.35347 4.06036 0
M  V30 137 C 10.3308 -2.61846 4.66198 0
M  V30 138 C 11.6308 -0.499354 5.19907 0
M  V30 139 H 13.3248 -0.00824265 2.99399 0
M  V30 140 H 10.8708 -0.0025244 1.44 0
M  V30 141 H 12.8238 -2.39937 3.46422 0
M  V30 142 H 11.5478 -2.39405 2.22155 0
M  V30 143 H 10.2068 -0.756156 3.58717 0
M  V30 144 H 9.8548 -3.21632 3.86732 0
M  V30 145 H 9.5548 -2.3409 5.38958 0
M  V30 146 H 11.0788 -3.24732 5.1709 0
M  V30 147 H 12.4928 -1.02498 5.64063 0
M  V30 148 H 10.8898 -0.316424 5.99265 0
M  V30 149 H 11.9598 0.480459 4.82514 0
M  V30 150 N 13.3029 -1.57598 0.00835791 0
M  V30 151 C 14.5309 -1.95214 -0.68549 0
M  V30 152 C 14.9459 -0.883706 -1.66841 0
M  V30 153 O 14.3029 0.136565 -1.81988 0
M  V30 154 C 14.3539 -3.32865 -1.41007 0
M  V30 155 O 14.0749 -4.35609 -0.466552 0
M  V30 156 C 15.5759 -3.84991 -2.19765 0
M  V30 157 H 12.7959 -0.643422 -0.190392 0
M  V30 158 H 15.3399 -2.04406 0.0619607 0
M  V30 159 H 13.4949 -3.24956 -2.10908 0
M  V30 160 H 13.9089 -5.15288 -0.978699 0
M  V30 161 H 15.3829 -4.8371 -2.65948 0
M  V30 162 H 15.8599 -3.18137 -3.02796 0
M  V30 163 H 16.4659 -3.96103 -1.54864 0
M  V30 164 N 14.781 0.264519 -1.55364 0
M  V30 165 C 16.192 0.834936 -1.6699 0
M  V30 166 C 16.543 1.86718 -0.602552 0
M  V30 167 O 15.668 2.14899 0.254425 0
M  V30 168 C 16.263 1.5212 -3.02729 0
M  V30 169 C 14.822 2.03954 -3.16354 0
M  V30 170 C 13.969 0.884498 -2.62815 0
M  V30 171 H 16.92 0.0406869 -1.58648 0
M  V30 172 H 16.941 2.38853 -2.96191 0
M  V30 173 H 16.453 0.769668 -3.80392 0
M  V30 174 H 14.554 2.82041 -2.43482 0
M  V30 175 H 14.667 2.24902 -4.23032 0
M  V30 176 H 13.031 1.2802 -2.20188 0
M  V30 177 H 13.814 0.14634 -3.42988 0
M  V30 178 N 16.2591 1.48442 0.529413 0
M  V30 179 C 17.1691 1.6569 1.66084 0
M  V30 180 C 18.1851 0.539432 1.65427 0
M  V30 181 O 19.3611 0.810572 1.84368 0
M  V30 182 C 16.4261 1.69315 3.02545 0
M  V30 183 C 15.4871 2.92694 3.14052 0
M  V30 184 C 14.7201 2.96137 4.44003 0
M  V30 185 O 14.9431 2.07973 5.31134 0
M  V30 186 O 13.8771 3.88312 4.59888 0
M  V30 187 H 17.7031 2.61483 1.54469 0
M  V30 188 H 15.2881 1.3185 0.702567 0
M  V30 189 H 17.1701 1.74217 3.83701 0
M  V30 190 H 15.8451 0.766966 3.14483 0
M  V30 191 H 14.7521 2.93324 2.32189 0
M  V30 192 H 16.0851 3.84699 3.0703 0
M  V30 193 N 17.7372 -0.778329 1.37039 0
M  V30 194 C 18.6472 -1.92253 1.34446 0
M  V30 195 C 19.6632 -1.72267 0.244991 0
M  V30 196 O 20.8392 -1.95615 0.479258 0
M  V30 197 C 17.9042 -3.27282 1.144 0
M  V30 198 C 16.9652 -3.59969 2.33925 0
M  V30 199 C 16.1982 -4.88555 2.14825 0
M  V30 200 O 16.4212 -5.59113 1.12912 0
M  V30 201 O 15.3552 -5.20153 3.02861 0
M  V30 202 H 19.1812 -1.97392 2.30803 0
M  V30 203 H 16.7662 -0.920154 1.17701 0
M  V30 204 H 18.6482 -4.08062 1.05182 0
M  V30 205 H 17.3232 -3.23011 0.211124 0
M  V30 206 H 16.2302 -2.7945 2.48714 0
M  V30 207 H 17.5632 -3.68976 3.25757 0
M  V30 208 N 19.2153 -1.21501 -1.00376 0
M  V30 209 C 20.4623 -1.03299 -1.74171 0
M  V30 210 C 20.7903 0.433326 -1.89612 0
M  V30 211 O 20.0453 1.33779 -1.42834 0
M  V30 212 C 20.3443 -1.67673 -3.15627 0
M  V30 213 C 20.0103 -3.17533 -3.2013 0
M  V30 214 C 18.6723 -3.58427 -3.21067 0
M  V30 215 C 21.0243 -4.13504 -3.17275 0
M  V30 216 C 18.3523 -4.93794 -3.16835 0
M  V30 217 C 20.7043 -5.48834 -3.14585 0
M  V30 218 C 19.3683 -5.89123 -3.13831 0
M  V30 219 H 18.6383 -0.377999 -0.637336 0
M  V30 220 H 21.2853 -1.51111 -1.17634 0
M  V30 221 H 19.5903 -1.12158 -3.75404 0
M  V30 222 H 21.2873 -1.51091 -3.71446 0
M  V30 223 H 17.8773 -2.84965 -3.20145 0
M  V30 224 H 22.0613 -3.82936 -3.15711 0
M  V30 225 H 17.3173 -5.24255 -3.1459 0
M  V30 226 H 21.4913 -6.22934 -3.1133 0
M  V30 227 H 19.1183 -6.93984 -3.10307 0
M  V30 228 N 20.6934 1.19889 -1.02296 0
M  V30 229 C 21.9704 1.85148 -0.630832 0
M  V30 230 C 22.3504 1.91385 0.890782 0
M  V30 231 O 21.6984 1.42642 1.78509 0
M  V30 232 C 21.9084 3.24442 -1.28602 0
M  V30 233 C 23.2564 4.00663 -1.4055 0
M  V30 234 O 24.2804 3.33818 -1.24273 0
M  V30 235 O 23.1394 5.20387 -1.66913 0
M  V30 236 H 20.2334 0.797613 -0.218499 0
M  V30 237 H 22.7794 1.27427 -1.12074 0
M  V30 238 H 21.5514 3.14704 -2.32545 0
M  V30 239 H 21.1744 3.89802 -0.7836 0
M  V30 240 N 22.1715 0.800033 1.35784 0
M  V30 241 C 23.1035 0.163596 2.28615 0
M  V30 242 C 24.1165 -0.633317 1.49976 0
M  V30 243 O 25.3055 -0.466754 1.72289 0
M  V30 244 C 22.4055 -0.790958 3.29541 0
M  V30 245 C 21.5785 -0.0418255 4.3738 0
M  V30 246 C 20.6375 -0.91389 5.18203 0
M  V30 247 O 19.6635 -0.367234 5.68014 0
M  V30 248 N 20.8655 -2.23682 5.35674 0
M  V30 249 H 23.6305 0.96105 2.83873 0
M  V30 250 H 21.1915 0.654894 1.48063 0
M  V30 251 H 23.1835 -1.37844 3.80501 0
M  V30 252 H 21.7535 -1.48925 2.74846 0
M  V30 253 H 20.9735 0.726813 3.87442 0
M  V30 254 H 22.2615 0.474719 5.06581 0
M  V30 255 H 21.6595 -2.70497 4.96838 0
M  V30 256 H 20.2165 -2.77369 5.89839 0
M  V30 257 N 23.6496 -1.47581 0.552962 0
M  V30 258 C 24.5796 -2.32762 -0.185451 0
M  V30 259 C 25.5606 -1.43527 -0.912905 0
M  V30 260 O 26.7456 -1.72388 -0.894201 0
M  V30 261 C 23.8756 -3.25219 -1.21859 0
M  V30 262 C 22.8296 -4.23661 -0.607864 0
M  V30 263 C 22.1556 -5.05413 -1.74533 0
M  V30 264 C 23.4556 -5.20481 0.435582 0
M  V30 265 H 25.1496 -2.94749 0.525684 0
M  V30 266 H 22.6956 -1.41738 0.254251 0
M  V30 267 H 24.6486 -3.8365 -1.7433 0
M  V30 268 H 23.3726 -2.61279 -1.95961 0
M  V30 269 H 22.0316 -3.66451 -0.104489 0
M  V30 270 H 21.6796 -4.3788 -2.47529 0
M  V30 271 H 21.3796 -5.72059 -1.34249 0
M  V30 272 H 22.9036 -5.66701 -2.27338 0
M  V30 273 H 24.3176 -5.733 -0.00290157 0
M  V30 274 H 22.7146 -5.95305 0.757067 0
M  V30 275 H 23.7846 -4.66217 1.33303 0
M  V30 276 N 25.1277 -0.289203 -1.54924 0
M  V30 277 C 26.0597 0.625583 -2.20497 0
M  V30 278 C 27.0727 1.10667 -1.19402 0
M  V30 279 O 28.2617 1.02615 -1.46056 0
M  V30 280 C 25.3617 1.86702 -2.82835 0
M  V30 281 C 24.5347 1.5304 -4.09753 0
M  V30 282 C 23.5937 2.62576 -4.56005 0
M  V30 283 O 22.6197 2.28167 -5.21468 0
M  V30 284 N 23.8217 3.92901 -4.27328 0
M  V30 285 H 26.5867 0.0642801 -2.99631 0
M  V30 286 H 24.1477 -0.110896 -1.6152 0
M  V30 287 H 26.1397 2.59304 -3.10715 0
M  V30 288 H 24.7097 2.33702 -2.07611 0
M  V30 289 H 23.9297 0.637564 -3.8901 0
M  V30 290 H 25.2177 1.28072 -4.92418 0
M  V30 291 H 24.6157 4.23671 -3.74859 0
M  V30 292 H 23.1727 4.61837 -4.59946 0
M  V30 293 N 26.6058 1.57591 -0.0167156 0
M  V30 294 C 27.5528 2.09462 0.969251 0
M  V30 295 C 28.5228 0.99381 1.33089 0
M  V30 296 O 29.7078 1.26726 1.42636 0
M  V30 297 C 26.8478 2.61622 2.25051 0
M  V30 298 C 25.9608 3.85666 1.94642 0
M  V30 299 C 25.0958 4.26266 3.16972 0
M  V30 300 C 24.1348 5.43101 2.82326 0
M  V30 301 N 23.2718 5.78915 3.97243 0
M  V30 302 H 28.1118 2.93428 0.519997 0
M  V30 303 H 25.6488 1.45044 0.245087 0
M  V30 304 H 27.6068 2.89949 2.99976 0
M  V30 305 H 26.2368 1.80505 2.67615 0
M  V30 306 H 25.2888 3.64145 1.10013 0
M  V30 307 H 26.6008 4.70678 1.65117 0
M  V30 308 H 25.7548 4.55963 4.00228 0
M  V30 309 H 24.4938 3.39996 3.49648 0
M  V30 310 H 23.4988 5.1311 1.97479 0
M  V30 311 H 24.7238 6.3106 2.50879 0
M  V30 312 H 22.6698 4.95602 4.29785 0
M  V30 313 H 22.5868 6.58539 3.71299 0
M  V30 314 H 23.8548 6.13212 4.81239 0
M  V30 315 N 28.0839 -0.256276 1.55502 0
M  V30 316 C 29.3139 -1.00196 1.80677 0
M  V30 317 C 29.7219 -1.79805 0.588797 0
M  V30 318 O 29.0649 -1.78055 -0.451883 0
M  V30 319 C 29.1269 -1.99515 2.99055 0
M  V30 320 C 28.7909 -1.38688 4.35448 0
M  V30 321 C 29.7879 -0.794079 5.138 0
M  V30 322 C 27.4729 -1.40906 4.82132 0
M  V30 323 C 29.4669 -0.231562 6.36979 0
M  V30 324 C 27.1539 -0.842684 6.05262 0
M  V30 325 C 28.1519 -0.254953 6.82524 0
M  V30 326 O 27.8399 0.3027 8.0333 0
M  V30 327 H 27.5719 -0.300919 0.60533 0
M  V30 328 H 30.1259 -0.287307 2.03381 0
M  V30 329 H 28.3559 -2.74785 2.72084 0
M  V30 330 H 30.0449 -2.60349 3.11405 0
M  V30 331 H 30.8109 -0.769519 4.78856 0
M  V30 332 H 26.6899 -1.85591 4.21992 0
M  V30 333 H 30.2339 0.227816 6.97228 0
M  V30 334 H 26.1309 -0.86454 6.39684 0
M  V30 335 H 26.8989 0.193662 8.18271 0
M  V30 336 N 29.562 -1.4872 -0.521534 0
M  V30 337 C 30.787 -1.61101 -1.30618 0
M  V30 338 C 31.212 -0.274611 -1.86085 0
M  V30 339 O 30.57 0.754937 -1.64834 0
M  V30 340 C 30.618 -2.66709 -2.4269 0
M  V30 341 O 29.722 -2.24456 -3.45967 0
M  V30 342 H 29.063 -0.539921 -0.386499 0
M  V30 343 H 31.593 -1.94767 -0.626645 0
M  V30 344 H 31.603 -2.88245 -2.88754 0
M  V30 345 H 30.278 -3.63727 -2.01682 0
M  V30 346 H 28.855 -2.13168 -3.05964 0
M  V30 347 N 31.0401 0.771051 -1.3745 0
M  V30 348 C 31.9501 1.91538 -1.35464 0
M  V30 349 C 32.9661 1.72134 -0.254123 0
M  V30 350 O 34.1421 1.95358 -0.489626 0
M  V30 351 C 31.2071 3.26671 -1.16134 0
M  V30 352 C 30.2681 3.58723 -2.35831 0
M  V30 353 C 29.5011 4.87409 -2.17413 0
M  V30 354 O 29.7241 5.58506 -1.15876 0
M  V30 355 O 28.6581 5.18539 -3.05615 0
M  V30 356 H 32.4841 1.96165 -2.31847 0
M  V30 357 H 30.0691 0.9139 -1.18187 0
M  V30 358 H 31.9511 4.07499 -1.07345 0
M  V30 359 H 30.6261 3.22894 -0.228251 0
M  V30 360 H 29.5331 2.78127 -2.50192 0
M  V30 361 H 30.8661 3.67243 -3.27709 0
M  V30 362 N 32.5182 1.22032 0.997298 0
M  V30 363 C 33.7482 1.06686 1.76923 0
M  V30 364 C 34.1562 -0.385838 1.85224 0
M  V30 365 O 33.4992 -1.27929 1.31833 0
M  V30 366 C 33.5612 1.59802 3.22031 0
M  V30 367 C 33.2252 3.08362 3.37286 0
M  V30 368 C 34.2222 4.05835 3.24952 0
M  V30 369 C 31.9072 3.47727 3.6248 0
M  V30 370 C 33.9012 5.4066 3.37588 0
M  V30 371 C 31.5882 4.82701 3.74757 0
M  V30 372 C 32.5862 5.78977 3.62319 0
M  V30 373 O 32.2742 7.11502 3.74193 0
M  V30 374 H 32.0062 0.374767 0.562606 0
M  V30 375 H 34.5602 1.61991 1.26286 0
M  V30 376 H 32.7902 0.989003 3.73839 0
M  V30 377 H 34.4792 1.40184 3.80924 0
M  V30 378 H 35.2452 3.76766 3.05405 0
M  V30 379 H 31.1242 2.73317 3.7124 0
M  V30 380 H 34.6682 6.15788 3.27796 0
M  V30 381 H 30.5652 5.11453 3.9381 0
M  V30 382 H 31.3332 7.19019 3.91093 0
M  V30 383 N 33.9963 -1.19345 1.0293 0
M  V30 384 C 35.2213 -1.93538 0.745511 0
M  V30 385 C 35.6463 -1.75007 -0.689511 0
M  V30 386 O 35.0043 -1.05265 -1.47611 0
M  V30 387 C 35.0523 -3.43336 1.10239 0
M  V30 388 O 34.1563 -4.11806 0.221289 0
M  V30 389 H 33.4973 -0.604193 0.275404 0
M  V30 390 H 36.0273 -1.5141 1.37609 0
M  V30 391 H 36.0373 -3.94004 1.05947 0
M  V30 392 H 34.7123 -3.56146 2.14786 0
M  V30 393 H 33.2893 -3.715 0.322842 0
M  V30 394 N 35.4744 -0.807222 -1.35358 0
M  V30 395 C 36.6994 -0.399309 -2.0352 0
M  V30 396 C 37.1244 0.981986 -1.60433 0
M  V30 397 O 36.4824 1.63601 -0.781299 0
M  V30 398 C 36.5304 -0.491552 -3.57234 0
M  V30 399 O 35.6344 0.494754 -4.09421 0
M  V30 400 H 34.9754 -0.166682 -0.642739 0
M  V30 401 H 37.5054 -1.09328 -1.72941 0
M  V30 402 H 37.5154 -0.361588 -4.06395 0
M  V30 403 H 36.1904 -1.49907 -3.87944 0
M  V30 404 H 34.7674 0.324977 -3.71481 0
M  V30 405 N 36.9525 1.47285 -0.560781 0
M  V30 406 C 37.8995 2.30058 0.18491 0
M  V30 407 C 38.8695 1.39281 0.904986 0
M  V30 408 O 40.0545 1.68241 0.899979 0
M  V30 409 C 37.1945 3.23317 1.20666 0
M  V30 410 C 36.3075 4.29186 0.492285 0
M  V30 411 C 35.4425 5.09592 1.49964 0
M  V30 412 C 34.4815 6.07232 0.770439 0
M  V30 413 N 33.6185 6.80584 1.72479 0
M  V30 414 H 38.4585 2.93302 -0.527048 0
M  V30 415 H 35.9955 1.44568 -0.271738 0
M  V30 416 H 37.9535 3.75811 1.81168 0
M  V30 417 H 36.5835 2.61929 1.88661 0
M  V30 418 H 35.6355 3.7972 -0.227333 0
M  V30 419 H 36.9475 4.98738 -0.0787929 0
M  V30 420 H 36.1015 5.66254 2.17809 0
M  V30 421 H 34.8405 4.3995 2.10464 0
M  V30 422 H 33.8455 5.49745 0.0780846 0
M  V30 423 H 35.0705 6.78884 0.171134 0
M  V30 424 H 33.0165 6.1367 2.3183 0
M  V30 425 H 32.9335 7.46319 1.20596 0
M  V30 426 H 34.2015 7.41818 2.39428 0
M  V30 427 N 38.4306 0.297415 1.54768 0
M  V30 428 C 39.3776 -0.580276 2.23386 0
M  V30 429 C 40.3476 -1.13238 1.21517 0
M  V30 430 O 41.5326 -1.17757 1.50126 0
M  V30 431 C 38.6726 -1.74801 2.97555 0
M  V30 432 C 37.7856 -1.22764 4.1419 0
M  V30 433 C 36.9206 -2.35895 4.75949 0
M  V30 434 C 35.9596 -1.80974 5.84735 0
M  V30 435 N 35.0966 -2.87664 6.40464 0
M  V30 436 H 39.9366 0.0114833 2.97998 0
M  V30 437 H 37.4736 0.0174361 1.4709 0
M  V30 438 H 39.4316 -2.43475 3.38786 0
M  V30 439 H 38.0616 -2.31145 2.25326 0
M  V30 440 H 37.1136 -0.433271 3.77924 0
M  V30 441 H 38.4256 -0.785551 4.92575 0
M  V30 442 H 37.5796 -3.12523 5.20014 0
M  V30 443 H 36.3186 -2.83429 3.96887 0
M  V30 444 H 35.3236 -1.02834 5.40097 0
M  V30 445 H 36.5486 -1.34348 6.65678 0
M  V30 446 H 34.4946 -3.34538 5.64287 0
M  V30 447 H 34.4116 -2.4794 7.14186 0
M  V30 448 H 35.6796 -3.642 6.89187 0
M  V30 449 N 39.9087 -1.5758 0.0250728 0
M  V30 450 C 41.1577 -1.90811 -0.653767 0
M  V30 451 C 41.4707 -0.90273 -1.73523 0
M  V30 452 O 42.6767 -1.12614 -2.47043 0
M  V30 453 C 41.1327 -3.38804 -1.21409 0
M  V30 454 C 40.7407 -4.47692 -0.166126 0
M  V30 455 C 42.4847 -3.81108 -1.86967 0
M  V30 456 C 40.3917 -5.86779 -0.737856 0
M  V30 457 H 39.3217 -0.712063 -0.247956 0
M  V30 458 H 41.9727 -1.83281 0.0897137 0
M  V30 459 H 40.3547 -3.41252 -2.00905 0
M  V30 460 H 41.5287 -4.56797 0.606079 0
M  V30 461 H 39.8437 -4.14565 0.390466 0
M  V30 462 H 42.4407 -4.82375 -2.30692 0
M  V30 463 H 42.7837 -3.15953 -2.71071 0
M  V30 464 H 43.3167 -3.81065 -1.14167 0
M  V30 465 H 40.0557 -6.55468 0.0649577 0
M  V30 466 H 39.5757 -5.81288 -1.47864 0
M  V30 467 H 41.2547 -6.35223 -1.22884 0
M  V30 468 N 41.3868 0.248026 -1.55636 0
M  V30 469 C 42.3338 1.30707 -1.90222 0
M  V30 470 C 43.3038 1.47881 -0.756332 0
M  V30 471 O 44.4888 1.61883 -1.00988 0
M  V30 472 C 41.6288 2.65769 -2.20138 0
M  V30 473 C 40.7418 2.56612 -3.47526 0
M  V30 474 C 39.8768 3.8402 -3.67017 0
M  V30 475 C 38.9158 3.69476 -4.8801 0
M  V30 476 N 38.0528 4.88774 -5.04029 0
M  V30 477 H 42.8928 1.00512 -2.80538 0
M  V30 478 H 40.4298 0.485055 -1.38873 0
M  V30 479 H 42.3878 3.44386 -2.35487 0
M  V30 480 H 41.0178 2.94115 -1.33027 0
M  V30 481 H 40.0698 1.69571 -3.40514 0
M  V30 482 H 41.3818 2.41774 -4.36287 0
M  V30 483 H 40.5358 4.7108 -3.8232 0
M  V30 484 H 39.2748 4.01754 -2.76487 0
M  V30 485 H 38.2798 2.80799 -4.72686 0
M  V30 486 H 39.5048 3.53238 -5.8 0
M  V30 487 H 37.4508 5.0687 -4.16435 0
M  V30 488 H 37.3678 4.76562 -5.86877 0
M  V30 489 H 38.6358 5.77335 -5.23741 0
M  V30 490 N 42.8649 1.48995 0.513639 0
M  V30 491 C 44.1419 1.48338 1.27495 0
M  V30 492 C 44.5219 0.204065 2.10111 0
M  V30 493 O 43.8699 -0.813881 2.13514 0
M  V30 494 C 44.0799 2.75498 2.14247 0
M  V30 495 C 45.4279 3.24484 2.73852 0
M  V30 496 O 46.4519 2.76528 2.24523 0
M  V30 497 O 45.3109 4.07974 3.6362 0
M  V30 498 H 42.4049 0.593149 0.576284 0
M  V30 499 H 44.9509 1.61246 0.528948 0
M  V30 500 H 43.7229 3.60109 1.53092 0
M  V30 501 H 43.3459 2.6539 2.96064 0
M  V30 502 N 44.343 -0.763751 1.37857 0
M  V30 503 C 45.306 -1.85889 1.34081 0
M  V30 504 C 46.306 -1.58949 0.243277 0
M  V30 505 O 47.496 -1.66882 0.499589 0
M  V30 506 C 44.628 -3.23176 1.08489 0
M  V30 507 H 45.821 -1.90648 2.31502 0
M  V30 508 H 43.374 -0.964367 1.23003 0
M  V30 509 H 44.109 -3.24091 0.116318 0
M  V30 510 H 43.894 -3.44124 1.8794 0
M  V30 511 H 45.384 -4.03254 1.08517 0
M  V30 512 N 45.8211 -1.22559 -0.990812 0
M  V30 513 C 46.7511 -1.0218 -2.09956 0
M  V30 514 C 47.7321 0.0579394 -1.70001 0
M  V30 515 O 48.9171 -0.104684 -1.93918 0
M  V30 516 C 46.0471 -0.601023 -3.4206 0
M  V30 517 C 45.0011 -1.62694 -3.95872 0
M  V30 518 C 44.3271 -1.06193 -5.24049 0
M  V30 519 C 45.6271 -3.01743 -4.2632 0
M  V30 520 H 47.3211 -1.94916 -2.27262 0
M  V30 521 H 44.8671 -0.938566 -1.09211 0
M  V30 522 H 46.8201 -0.445561 -4.19038 0
M  V30 523 H 45.5441 0.362005 -3.24588 0
M  V30 524 H 44.2031 -1.77021 -3.21028 0
M  V30 525 H 43.8511 -0.0901903 -5.02919 0
M  V30 526 H 43.5511 -1.74732 -5.61019 0
M  V30 527 H 45.0751 -0.918092 -6.03658 0
M  V30 528 H 46.4891 -2.90777 -4.94087 0
M  V30 529 H 44.8861 -3.67425 -4.74467 0
M  V30 530 H 45.9561 -3.51518 -3.34011 0
M  V30 531 N 47.2992 1.18797 -1.03562 0
M  V30 532 C 48.5272 1.92599 -0.755869 0
M  V30 533 C 48.9422 1.75886 0.686271 0
M  V30 534 O 48.2992 1.08517 1.46732 0
M  V30 535 C 48.3502 3.44159 -1.10619 0
M  V30 536 O 48.0712 3.60341 -2.4917 0
M  V30 537 C 49.5722 4.3507 -0.850214 0
M  V30 538 H 46.7922 0.611587 -0.276048 0
M  V30 539 H 49.3362 1.50742 -1.38192 0
M  V30 540 H 47.4912 3.83823 -0.525194 0
M  V30 541 H 47.9052 4.54128 -2.62427 0
M  V30 542 H 49.3792 5.39989 -1.14523 0
M  V30 543 H 49.8562 4.38673 0.215176 0
M  V30 544 H 50.4622 4.01097 -1.41426 0
M  V30 545 N 48.7773 0.814389 1.34928 0
M  V30 546 C 49.6873 0.231978 2.3345 0
M  V30 547 C 50.7033 -0.629139 1.62228 0
M  V30 548 O 51.8793 -0.539052 1.94052 0
M  V30 549 C 48.9443 -0.603482 3.41407 0
M  V30 550 C 48.0053 0.279037 4.28392 0
M  V30 551 C 47.2383 -0.516643 5.31193 0
M  V30 552 O 47.4613 -1.75068 5.4287 0
M  V30 553 O 46.3953 0.0965652 6.01823 0
M  V30 554 H 50.2213 1.04721 2.85074 0
M  V30 555 H 47.8063 0.576343 1.37836 0
M  V30 556 H 49.6883 -1.07908 4.0735 0
M  V30 557 H 48.3633 -1.39618 2.92042 0
M  V30 558 H 47.2703 0.801948 3.65403 0
M  V30 559 H 48.6033 1.03588 4.81176 0
M  V30 560 N 50.2554 -1.46986 0.568584 0
M  V30 561 C 51.5024 -2.02441 0.0487986 0
M  V30 562 C 51.8304 -1.44169 -1.30559 0
M  V30 563 O 51.0854 -0.591213 -1.86556 0
M  V30 564 C 51.3844 -3.57306 -0.081836 0
M  V30 565 C 51.0504 -4.34552 1.20313 0
M  V30 566 C 49.7124 -4.55376 1.5552 0
M  V30 567 C 52.0644 -4.79016 2.05411 0
M  V30 568 C 49.3924 -5.17913 2.7565 0
M  V30 569 C 51.7444 -5.42879 3.24754 0
M  V30 570 C 50.4084 -5.61933 3.60261 0
M  V30 571 H 49.6784 -0.740785 0.0178567 0
M  V30 572 H 52.3254 -1.76525 0.742384 0
M  V30 573 H 50.6304 -3.8228 -0.858463 0
M  V30 574 H 52.3274 -3.97876 -0.499546 0
M  V30 575 H 48.9174 -4.18631 0.919014 0
M  V30 576 H 53.1014 -4.62696 1.79516 0
M  V30 577 H 48.3574 -5.30858 3.03315 0
M  V30 578 H 52.5314 -5.76293 3.90973 0
M  V30 579 H 50.1584 -6.10161 4.53439 0
M  V30 580 N 51.7335 -0.305618 -1.54608 0
M  V30 581 C 52.6815 0.584119 -2.25146 0
M  V30 582 C 53.6755 1.13326 -1.25911 0
M  V30 583 O 54.8815 1.08337 -1.43747 0
M  V30 584 H 51.2565 0.206983 -0.722954 0
M  V30 585 H 53.2275 -0.033291 -2.98381 0
M  V30 586 C 51.9765 1.74225 -3.009 0
M  V30 587 H 51.2995 1.32892 -3.77067 0
M  V30 588 H 52.7395 2.34077 -3.53531 0
M  V30 589 C 51.1985 2.64914 -2.0814 0
M  V30 590 O 51.7285 3.66137 -1.65246 0
M  V30 591 N 49.9345 2.3275 -1.74 0
M  V30 592 H 49.4815 1.50479 -2.09078 0
M  V30 593 H 49.4395 2.93694 -1.12211 0
M  V30 594 N 53.2116 1.57565 -0.0334293 0
M  V30 595 C 54.1216 2.13943 0.962572 0
M  V30 596 C 55.1376 1.09276 1.35406 0
M  V30 597 O 56.3136 1.41355 1.4346 0
M  V30 598 C 53.3786 2.65887 2.22497 0
M  V30 599 C 52.4396 3.85286 1.8935 0
M  V30 600 C 51.6726 4.34743 3.09571 0
M  V30 601 O 51.8956 3.83352 4.22371 0
M  V30 602 O 50.8296 5.26538 2.91618 0
M  V30 603 H 54.6556 2.99333 0.513169 0
M  V30 604 H 52.2406 1.4822 0.18743 0
M  V30 605 H 54.1226 2.99346 2.96598 0
M  V30 606 H 52.7976 1.83578 2.6661 0
M  V30 607 H 51.7046 3.56746 1.1262 0
M  V30 608 H 53.0376 4.68771 1.5005 0
M  V30 609 N 54.6897 -0.239769 1.55765 0
M  V30 610 C 55.9377 -0.964892 1.77579 0
M  V30 611 C 56.2587 -1.85582 0.598699 0
M  V30 612 O 55.5287 -1.92075 -0.385226 0
M  V30 613 H 54.1087 -0.359265 0.654933 0
M  V30 614 H 56.7707 -0.256001 1.93211 0
M  V30 615 H 55.8667 -1.58243 2.69009 0
M  V30 616 N 56.1678 -1.49265 -0.50573 0
M  V30 617 C 57.4158 -1.582 -1.25766 0
M  V30 618 C 57.7368 -0.268482 -1.93143 0
M  V30 619 O 57.0068 0.711833 -1.8251 0
M  V30 620 H 55.5868 -0.582873 -0.467191 0
M  V30 621 H 58.2488 -1.85865 -0.586525 0
M  V30 622 H 57.3448 -2.37563 -2.02412 0
M  V30 623 N 57.6459 0.756429 -1.3826 0
M  V30 624 C 58.8709 1.55077 -1.37717 0
M  V30 625 C 59.2959 1.88073 0.03164 0
M  V30 626 O 58.6539 1.50364 1.01293 0
M  V30 627 C 58.7019 2.8283 -2.23695 0
M  V30 628 O 57.8059 3.77862 -1.6521 0
M  V30 629 H 57.1469 0.469152 -0.469885 0
M  V30 630 H 59.6769 0.935019 -1.81985 0
M  V30 631 H 59.6869 3.31783 -2.37453 0
M  V30 632 H 58.3619 2.58144 -3.2609 0
M  V30 633 H 56.9389 3.36555 -1.60578 0
M  V30 634 N 59.124 1.23083 0.984299 0
M  V30 635 C 60.054 1.03292 2.09411 0
M  V30 636 C 61.035 -0.048923 1.7003 0
M  V30 637 O 62.22 0.114967 1.93859 0
M  V30 638 C 59.35 0.619155 3.41736 0
M  V30 639 C 58.304 1.64791 3.95004 0
M  V30 640 C 57.63 1.0897 5.23478 0
M  V30 641 C 58.93 3.03999 4.24714 0
M  V30 642 H 60.624 1.96119 2.26225 0
M  V30 643 H 58.17 0.944344 1.08711 0
M  V30 644 H 60.123 0.467777 4.18796 0
M  V30 645 H 58.847 -0.344786 3.24775 0
M  V30 646 H 57.506 1.78721 3.20085 0
M  V30 647 H 57.154 0.11686 5.02864 0
M  V30 648 H 56.854 1.77704 5.60085 0
M  V30 649 H 58.378 0.950093 6.03163 0
M  V30 650 H 59.792 2.93393 4.92538 0
M  V30 651 H 58.189 3.69936 4.72512 0
M  V30 652 H 59.259 3.53285 3.32142 0
M  V30 653 N 60.6021 -1.18246 1.0419 0
M  V30 654 C 61.5491 -2.2192 0.634037 0
M  V30 655 C 62.5191 -1.62179 -0.358765 0
M  V30 656 O 63.7041 -1.89122 -0.252466 0
M  V30 657 C 60.8441 -3.451 0.00445535 0
M  V30 658 C 59.9571 -4.19174 1.04487 0
M  V30 659 C 59.0921 -5.29813 0.383676 0
M  V30 660 C 58.1311 -5.9566 1.4091 0
M  V30 661 N 57.2681 -6.97834 0.772784 0
M  V30 662 H 62.1081 -2.56164 1.52263 0
M  V30 663 H 59.6451 -1.25843 0.761701 0
M  V30 664 H 61.6031 -4.15485 -0.377919 0
M  V30 665 H 60.2331 -3.11472 -0.847652 0
M  V30 666 H 59.2851 -3.47604 1.54518 0
M  V30 667 H 60.5971 -4.64267 1.82368 0
M  V30 668 H 59.7511 -6.06677 -0.0528366 0
M  V30 669 H 58.4901 -4.85825 -0.427208 0
M  V30 670 H 57.4951 -5.17535 1.85574 0
M  V30 671 H 58.7201 -6.4173 2.22171 0
M  V30 672 H 56.6661 -6.55998 -0.0177708 0
M  V30 673 H 56.5831 -7.41186 1.48928 0
M  V30 674 H 57.8511 -7.78665 0.36071 0
M  V30 675 N 62.0802 -0.821533 -1.34494 0
M  V30 676 C 63.0122 -0.199946 -2.28326 0
M  V30 677 C 64.0252 0.609377 -1.50965 0
M  V30 678 O 65.2142 0.439285 -1.7301 0
M  V30 679 C 62.3142 0.738431 -3.30757 0
M  V30 680 C 61.4872 -0.0277632 -4.37391 0
M  V30 681 C 60.5462 0.831332 -5.19591 0
M  V30 682 O 59.5722 0.276822 -5.68526 0
M  V30 683 N 60.7742 2.15132 -5.39165 0
M  V30 684 H 63.5392 -1.00609 -2.82308 0
M  V30 685 H 61.1002 -0.678366 -1.47003 0
M  V30 686 H 63.0922 1.31773 -3.82646 0
M  V30 687 H 61.6622 1.44533 -2.7718 0
M  V30 688 H 60.8822 -0.788359 -3.86236 0
M  V30 689 H 62.1702 -0.555251 -5.05761 0
M  V30 690 H 61.5682 2.62559 -5.01078 0
M  V30 691 H 60.1252 2.6795 -5.94177 0
M  V30 692 N 63.5583 1.46682 -0.576371 0
M  V30 693 C 64.7883 2.06498 -0.0648694 0
M  V30 694 C 65.1963 1.42665 1.24271 0
M  V30 695 O 64.5393 0.523886 1.76071 0
M  V30 696 C 64.6013 3.5904 0.181816 0
M  V30 697 C 64.2653 4.45028 -1.0392 0
M  V30 698 C 65.2623 4.81959 -1.94966 0
M  V30 699 C 62.9473 4.86259 -1.25927 0
M  V30 700 C 64.9413 5.58942 -3.06371 0
M  V30 701 C 62.6283 5.63002 -2.37638 0
M  V30 702 C 63.6263 5.99257 -3.2769 0
M  V30 703 O 63.3143 6.7445 -4.37461 0
M  V30 704 H 63.0463 0.674028 -0.0515987 0
M  V30 705 H 65.6003 1.89393 -0.794951 0
M  V30 706 H 63.8303 3.74429 0.966436 0
M  V30 707 H 65.5193 4.00806 0.641047 0
M  V30 708 H 66.2853 4.50689 -1.79177 0
M  V30 709 H 62.1643 4.57494 -0.567448 0
M  V30 710 H 65.7083 5.87158 -3.76684 0
M  V30 711 H 61.6053 5.93686 -2.53392 0
M  V30 712 H 62.3733 6.92867 -4.35749 0
M  V30 713 N 65.0364 0.313813 1.54444 0
M  V30 714 C 66.3134 -0.345447 1.92525 0
M  V30 715 C 66.6934 -1.70667 1.24242 0
M  V30 716 O 66.0414 -2.25273 0.382654 0
M  V30 717 C 66.2514 -0.44737 3.46121 0
M  V30 718 C 67.5994 -0.712238 4.18584 0
M  V30 719 O 68.6234 -0.530678 3.52225 0
M  V30 720 O 67.4824 -1.06183 5.36085 0
M  V30 721 H 64.5764 -0.195407 0.803583 0
M  V30 722 H 67.1224 0.362813 1.65776 0
M  V30 723 H 65.8944 0.509043 3.87975 0
M  V30 724 H 65.5174 -1.20359 3.78945 0
M  V30 725 N 66.5145 -1.57545 0.0417849 0
M  V30 726 C 67.9255 -1.80011 -0.495259 0
M  V30 727 C 68.2765 -0.953199 -1.71489 0
M  V30 728 O 67.4015 -0.167138 -2.15754 0
M  V30 729 C 67.9965 -3.26482 -0.905265 0
M  V30 730 C 66.5555 -3.499 -1.38734 0
M  V30 731 C 65.7025 -2.74979 -0.358056 0
M  V30 732 H 68.6535 -1.56425 0.267736 0
M  V30 733 H 68.6745 -3.36887 -1.76882 0
M  V30 734 H 68.1865 -3.88096 -0.017401 0
M  V30 735 H 66.2875 -2.93553 -2.29471 0
M  V30 736 H 66.4005 -4.58615 -1.38598 0
M  V30 737 H 64.7645 -2.40834 -0.828912 0
M  V30 738 H 65.5475 -3.39315 0.521561 0
M  V30 739 N 67.9926 0.231505 -1.5589 0
M  V30 740 C 68.9426 1.29007 -1.87993 0
M  V30 741 C 69.9266 1.42764 -0.742102 0
M  V30 742 O 71.1186 1.45747 -1.00433 0
M  V30 743 C 68.2476 2.6425 -2.1915 0
M  V30 744 C 67.3336 2.54435 -3.39299 0
M  V30 745 N 67.7246 2.14262 -4.58176 0
M  V30 746 C 66.0226 2.85416 -3.42715 0
M  V30 747 C 66.7236 2.15455 -5.40328 0
M  V30 748 N 65.6996 2.55558 -4.79783 0
M  V30 749 H 69.5016 0.970213 -2.77424 0
M  V30 750 H 67.0156 0.440097 -1.56323 0
M  V30 751 H 69.0126 3.40665 -2.40319 0
M  V30 752 H 67.6726 2.9709 -1.31025 0
M  V30 753 H 68.6836 1.85554 -4.83518 0
M  V30 754 H 65.3606 3.22693 -2.64906 0
M  V30 755 H 66.7506 1.86605 -6.45467 0
M  V30 756 N 69.4707 1.49531 0.497807 0
M  V30 757 C 70.3807 1.69176 1.62532 0
M  V30 758 C 71.3967 0.5744 1.64246 0
M  V30 759 O 72.5727 0.849497 1.82608 0
M  V30 760 C 69.6377 1.75695 2.98885 0
M  V30 761 C 68.6987 2.9929 3.07773 0
M  V30 762 C 67.9317 3.05488 4.37622 0
M  V30 763 O 68.1547 2.19192 5.26603 0
M  V30 764 O 67.0887 3.9798 4.51548 0
M  V30 765 H 70.9147 2.647 1.48887 0
M  V30 766 H 68.4997 1.3331 0.674441 0
M  V30 767 H 70.3817 1.82317 3.79919 0
M  V30 768 H 69.0567 0.8335 3.12785 0
M  V30 769 H 67.9637 2.98183 2.25915 0
M  V30 770 H 69.2967 3.91125 2.98801 0
M  V30 771 N 70.9488 -0.749086 1.3866 0
M  V30 772 C 72.3598 -1.32664 1.31366 0
M  V30 773 C 72.7108 -1.96179 -0.028484 0
M  V30 774 O 71.8358 -1.9537 -0.93057 0
M  V30 775 C 72.4308 -2.41219 2.37905 0
M  V30 776 C 70.9898 -2.94684 2.34176 0
M  V30 777 C 70.1368 -1.68108 2.20533 0
M  V30 778 H 73.0878 -0.547628 1.48952 0
M  V30 779 H 73.1088 -3.21268 2.0388 0
M  V30 780 H 72.6208 -1.94962 3.35576 0
M  V30 781 H 70.7218 -3.45258 1.401 0
M  V30 782 H 70.8348 -3.48757 3.2849 0
M  V30 783 H 69.1988 -1.91907 1.67463 0
M  V30 784 H 69.9818 -1.23923 3.20153 0
M  V30 785 N 72.4269 -1.23603 -0.977757 0
M  V30 786 C 73.6759 -1.06377 -1.71368 0
M  V30 787 C 73.9889 0.399062 -1.91486 0
M  V30 788 O 75.1949 0.691312 -2.62551 0
M  V30 789 C 73.6509 -1.85512 -3.08404 0
M  V30 790 C 73.2589 -3.36141 -2.96164 0
M  V30 791 C 75.0029 -1.76783 -3.85938 0
M  V30 792 C 72.9099 -4.07659 -4.28449 0
M  V30 793 H 71.8399 -0.394452 -0.642591 0
M  V30 794 H 74.4909 -1.47594 -1.09034 0
M  V30 795 H 72.8729 -1.37103 -3.71509 0
M  V30 796 H 74.0469 -3.92056 -2.42133 0
M  V30 797 H 72.3619 -3.45712 -2.32104 0
M  V30 798 H 74.9589 -2.27526 -4.83876 0
M  V30 799 H 75.3019 -0.731116 -4.0983 0
M  V30 800 H 75.8349 -2.22818 -3.2954 0
M  V30 801 H 72.5739 -5.11648 -4.09752 0
M  V30 802 H 72.0939 -3.5653 -4.82334 0
M  V30 803 H 73.7729 -4.141 -4.97122 0
M  V30 804 N 73.905 1.17692 -1.04816 0
M  V30 805 C 75.13 1.92327 -0.776207 0
M  V30 806 C 75.555 1.76082 0.661581 0
M  V30 807 O 74.913 1.076 1.45917 0
M  V30 808 C 74.961 3.41539 -1.15687 0
M  V30 809 O 74.065 4.11402 -0.286775 0
M  V30 810 H 73.406 0.599735 -0.284981 0
M  V30 811 H 75.936 1.49201 -1.4 0
M  V30 812 H 75.946 3.92269 -1.12202 0
M  V30 813 H 74.621 3.52684 -2.20425 0
M  V30 814 H 73.198 3.70939 -0.381903 0
M  V30 815 N 75.3831 0.828654 1.34056 0
M  V30 816 C 76.6131 0.431993 2.02033 0
M  V30 817 C 77.0211 -0.96844 1.62536 0
M  V30 818 O 76.3641 -1.6391 0.829408 0
M  V30 819 C 76.4261 0.461224 3.56529 0
M  V30 820 C 76.0901 1.81599 4.1937 0
M  V30 821 C 77.0871 2.7777 4.39477 0
M  V30 822 C 74.7721 2.10604 4.56017 0
M  V30 823 C 76.7661 4.01115 4.95364 0
M  V30 824 C 74.4531 3.34207 5.11614 0
M  V30 825 C 75.4511 4.2928 5.31232 0
M  V30 826 O 75.1391 5.50699 5.8565 0
M  V30 827 H 74.8711 0.170943 0.654029 0
M  V30 828 H 77.4251 1.11988 1.72185 0
M  V30 829 H 75.6551 -0.283388 3.8566 0
M  V30 830 H 77.3441 0.0838149 4.05813 0
M  V30 831 H 78.1101 2.56659 4.11523 0
M  V30 832 H 73.9891 1.37402 4.40047 0
M  V30 833 H 77.5331 4.75333 5.10592 0
M  V30 834 H 73.4301 3.55179 5.38997 0
M  V30 835 H 74.1981 5.52298 6.04077 0
M  V30 836 N 76.8612 -1.46375 0.584142 0
M  V30 837 C 78.1382 -1.956 0.0033388 0
M  V30 838 C 78.5182 -1.52679 -1.45782 0
M  V30 839 O 77.8662 -0.77816 -2.14842 0
M  V30 840 C 78.0762 -3.48551 0.176891 0
M  V30 841 C 79.4242 -4.24576 0.0454609 0
M  V30 842 O 80.4482 -3.56043 0.105801 0
M  V30 843 O 79.3072 -5.46427 -0.0890376 0
M  V30 844 H 76.4012 -0.825547 -0.0490066 0
M  V30 845 H 78.9472 -1.56652 0.65256 0
M  V30 846 H 77.7192 -3.72683 1.1926 0
M  V30 847 H 77.3422 -3.94332 -0.508695 0
M  V30 848 N 78.3393 -0.321999 -1.54275 0
M  V30 849 C 79.5853 0.281461 -2.00837 0
M  V30 850 C 79.9183 1.51909 -1.20985 0
M  V30 851 O 79.1933 1.923 -0.291733 0
M  V30 852 C 79.4763 0.617162 -3.54772 0
M  V30 853 C 79.3293 -0.631064 -4.45351 0
M  V30 854 C 80.6483 1.43542 -4.16033 0
M  V30 855 H 77.7673 0.100826 -0.730071 0
M  V30 856 H 80.4093 -0.438268 -1.84876 0
M  V30 857 H 78.5593 1.23034 -3.68504 0
M  V30 858 H 80.2313 -1.26934 -4.43492 0
M  V30 859 H 78.4743 -1.26025 -4.15091 0
M  V30 860 H 79.1453 -0.351735 -5.50878 0
M  V30 861 H 81.6213 0.917134 -4.05867 0
M  V30 862 H 80.4973 1.63907 -5.23856 0
M  V30 863 H 80.7583 2.43108 -3.69257 0
M  V30 864 N 79.8174 1.5752 -0.0501392 0
M  V30 865 C 81.0644 1.9265 0.623874 0
M  V30 866 C 81.3924 0.928411 1.70912 0
M  V30 867 O 80.6474 -0.0594525 1.9561 0
M  V30 868 C 80.9464 3.34467 1.25963 0
M  V30 869 C 80.6124 4.49883 0.302689 0
M  V30 870 C 79.2744 4.81184 0.0393636 0
M  V30 871 C 81.6264 5.20002 -0.353205 0
M  V30 872 C 78.9544 5.79951 -0.887308 0
M  V30 873 C 81.3064 6.1976 -1.26806 0
M  V30 874 C 79.9704 6.49491 -1.54007 0
M  V30 875 H 79.2404 0.704957 0.228292 0
M  V30 876 H 81.8874 1.91146 -0.116398 0
M  V30 877 H 80.1924 3.32333 2.07514 0
M  V30 878 H 81.8894 3.58928 1.78806 0
M  V30 879 H 78.4794 4.25457 0.518109 0
M  V30 880 H 82.6634 4.96033 -0.162854 0
M  V30 881 H 77.9194 6.01322 -1.10553 0
M  V30 882 H 82.0934 6.73205 -1.78236 0
M  V30 883 H 79.7204 7.25837 -2.25976 0
M  V30 884 N 81.2955 -0.223234 1.56011 0
M  V30 885 C 82.2425 -1.27664 1.92277 0
M  V30 886 C 83.2125 -1.46659 0.779763 0
M  V30 887 O 84.3975 -1.60256 1.03551 0
M  V30 888 C 81.5375 -2.62234 2.24338 0
M  V30 889 C 80.6505 -2.51051 3.51564 0
M  V30 890 C 79.7855 -3.78133 3.7308 0
M  V30 891 C 78.8245 -3.61665 4.93827 0
M  V30 892 N 77.9615 -4.80693 5.11741 0
M  V30 893 H 82.8015 -0.960358 2.82101 0
M  V30 894 H 80.3385 -0.462901 1.39627 0
M  V30 895 H 82.2965 -3.40596 2.40936 0
M  V30 896 H 80.9265 -2.91961 1.3769 0
M  V30 897 H 79.9785 -1.64132 3.43169 0
M  V30 898 H 81.2905 -2.34803 4.40079 0
M  V30 899 H 80.4445 -4.64938 3.89766 0
M  V30 900 H 79.1835 -3.97304 2.82844 0
M  V30 901 H 78.1885 -2.73244 4.77093 0
M  V30 902 H 79.4135 -3.43966 5.85546 0
M  V30 903 H 77.3595 -5.00181 4.24446 0
M  V30 904 H 77.2765 -4.67165 5.94384 0
M  V30 905 H 78.5445 -5.6893 5.3286 0
M  V30 906 N 82.7736 -1.49793 -0.48987 0
M  V30 907 C 83.7036 -1.70201 -1.59856 0
M  V30 908 C 84.6846 -0.55076 -1.60937 0
M  V30 909 O 85.8696 -0.787841 -1.77501 0
M  V30 910 C 82.9996 -1.77882 -2.98287 0
M  V30 911 C 81.9536 -2.92907 -3.12073 0
M  V30 912 C 81.2796 -2.85712 -4.51965 0
M  V30 913 C 82.5796 -4.3369 -2.91051 0
M  V30 914 H 84.2736 -2.63025 -1.43032 0
M  V30 915 H 81.8196 -1.26574 -0.686664 0
M  V30 916 H 83.7726 -1.90744 -3.75759 0
M  V30 917 H 82.4966 -0.816653 -3.16225 0
M  V30 918 H 81.1556 -2.79665 -2.37029 0
M  V30 919 H 80.8036 -1.8738 -4.66795 0
M  V30 920 H 80.5036 -3.62921 -4.62128 0
M  V30 921 H 82.0276 -3.00598 -5.31482 0
M  V30 922 H 83.4416 -4.47555 -3.58284 0
M  V30 923 H 81.8386 -5.12205 -3.12675 0
M  V30 924 H 82.9086 -4.47362 -1.87071 0
M  V30 925 N 84.2517 0.741722 -1.39055 0
M  V30 926 C 85.4987 1.50114 -1.35912 0
M  V30 927 C 85.8267 1.94443 0.0470937 0
M  V30 928 O 85.0817 1.66612 1.02659 0
M  V30 929 C 85.3807 2.7592 -2.27163 0
M  V30 930 C 85.0467 2.50493 -3.74919 0
M  V30 931 C 83.7087 2.43267 -4.1518 0
M  V30 932 C 86.0607 2.28585 -4.684 0
M  V30 933 C 83.3887 2.12166 -5.46994 0
M  V30 934 C 85.7407 1.99002 -6.00484 0
M  V30 935 C 84.4047 1.90241 -6.39816 0
M  V30 936 H 83.6747 0.549306 -0.497336 0
M  V30 937 H 86.3217 0.851896 -1.71508 0
M  V30 938 H 84.6267 3.45553 -1.84663 0
M  V30 939 H 86.3237 3.33923 -2.22028 0
M  V30 940 H 82.9137 2.56992 -3.43006 0
M  V30 941 H 87.0977 2.33139 -4.38132 0
M  V30 942 H 82.3537 2.03901 -5.76398 0
M  V30 943 H 86.5277 1.81057 -6.72452 0
M  V30 944 H 84.1547 1.65907 -7.41875 0
M  V30 945 N 85.7298 1.2412 0.971189 0
M  V30 946 C 86.6628 0.97373 2.06382 0
M  V30 947 C 87.6408 -0.0912662 1.62344 0
M  V30 948 O 88.8248 0.0449365 1.88446 0
M  V30 949 C 85.9518 0.468746 3.35441 0
M  V30 950 C 84.9978 1.52176 3.98428 0
M  V30 951 S 85.8308 3.10203 4.36503 0
M  V30 952 C 86.9868 2.61398 5.68702 0
M  V30 953 H 87.2198 1.89893 2.28753 0
M  V30 954 H 84.7528 1.07466 1.10862 0
M  V30 955 H 86.7108 0.184012 4.10087 0
M  V30 956 H 85.3718 -0.435688 3.11064 0
M  V30 957 H 84.5648 1.11876 4.91426 0
M  V30 958 H 84.1668 1.75632 3.30196 0
M  V30 959 H 86.4588 2.03992 6.4606 0
M  V30 960 H 87.4018 3.52972 6.13854 0
M  V30 961 H 87.8098 2.01941 5.27143 0
M  V30 962 N 87.2079 -1.17134 1.05439 0
M  V30 963 C 88.6239 -1.39454 0.776201 0
M  V30 964 C 88.8239 -1.91454 -0.628307 0
M  V30 965 O 87.8799 -2.10777 -1.39031 0
M  V30 966 C 89.1929 -2.38305 1.83388 0
M  V30 967 C 90.7409 -2.52006 1.85639 0
M  V30 968 C 91.2159 -3.54133 2.90437 0
M  V30 969 N 92.7069 -3.61653 2.89415 0
M  V30 970 C 93.4419 -4.4044 3.67152 0
M  V30 971 N 92.9379 -5.22721 4.54681 0
M  V30 972 N 94.7309 -4.35337 3.55581 0
M  V30 973 H 86.8819 -0.817134 1.96053 0
M  V30 974 H 89.1449 -0.421626 0.849079 0
M  V30 975 H 88.8509 -2.07173 2.84204 0
M  V30 976 H 88.7249 -3.37841 1.67761 0
M  V30 977 H 91.1119 -2.82447 0.85486 0
M  V30 978 H 91.1929 -1.52537 2.05344 0
M  V30 979 H 90.8369 -3.24431 3.90777 0
M  V30 980 H 90.7669 -4.53313 2.67983 0
M  V30 981 H 93.2579 -3.02909 2.25952 0
M  V30 982 H 93.5709 -5.80027 5.10674 0
M  V30 983 H 91.9159 -5.22093 4.58741 0
M  V30 984 H 95.1069 -3.70112 2.86592 0
M  V30 985 H 95.2799 -4.96494 4.1641 0
M  V30 986 N 88.686 -0.835752 -1.33615 0
M  V30 987 C 89.649 -0.272 -2.2758 0
M  V30 988 C 90.649 0.557487 -1.50827 0
M  V30 989 O 91.839 0.37173 -1.70188 0
M  V30 990 C 88.971 0.617173 -3.35267 0
M  V30 991 H 90.164 -1.10111 -2.78954 0
M  V30 992 H 87.717 -0.608594 -1.43965 0
M  V30 993 H 88.452 1.46884 -2.89129 0
M  V30 994 H 88.237 0.0237066 -3.92093 0
M  V30 995 H 89.727 1.005 -4.05326 0
M  V30 996 N 90.1641 1.46063 -0.591896 0
M  V30 997 C 91.3941 2.06418 -0.0867676 0
M  V30 998 C 91.8021 1.43975 1.22751 0
M  V30 999 O 91.1451 0.542531 1.75506 0
M  V30 1000 C 91.2071 3.59213 0.143725 0
M  V30 1001 C 90.8711 4.439 -1.08635 0
M  V30 1002 C 91.8681 4.79864 -2.00067 0
M  V30 1003 C 89.5531 4.84896 -1.31077 0
M  V30 1004 C 91.5471 5.55661 -3.12282 0
M  V30 1005 C 89.2341 5.6045 -2.43596 0
M  V30 1006 C 90.2321 5.95747 -3.34027 0
M  V30 1007 O 89.9201 6.69772 -4.4459 0
M  V30 1008 H 89.6521 0.673443 -0.0587447 0
M  V30 1009 H 92.2061 1.88539 -0.814994 0
M  V30 1010 H 90.4361 3.75433 0.926668 0
M  V30 1011 H 92.1251 4.01463 0.5985 0
M  V30 1012 H 92.8911 4.48763 -1.83947 0
M  V30 1013 H 88.7701 4.56867 -0.61594 0
M  V30 1014 H 92.3141 5.8313 -3.82891 0
M  V30 1015 H 88.2111 5.90965 -2.59674 0
M  V30 1016 H 88.9791 6.88207 -4.43073 0
M  V30 1017 N 91.6422 0.330177 1.54103 0
M  V30 1018 C 92.5722 -0.525353 2.27513 0
M  V30 1019 C 93.5532 -1.11383 1.2856 0
M  V30 1020 O 94.7382 -1.13773 1.57383 0
M  V30 1021 C 91.8682 -1.6831 3.03791 0
M  V30 1022 C 90.8222 -1.2236 4.10137 0
M  V30 1023 C 90.1482 -2.46882 4.74293 0
M  V30 1024 C 91.4482 -0.333697 5.21233 0
M  V30 1025 H 93.1422 0.087013 2.99274 0
M  V30 1026 H 90.6882 0.0432893 1.43935 0
M  V30 1027 H 92.6412 -2.28795 3.5388 0
M  V30 1028 H 91.3652 -2.32216 2.29659 0
M  V30 1029 H 90.0242 -0.64165 3.60941 0
M  V30 1030 H 89.6722 -3.09165 3.96769 0
M  V30 1031 H 89.3722 -2.16825 5.46133 0
M  V30 1032 H 90.8962 -3.08117 5.27159 0
M  V30 1033 H 92.3102 -0.845013 5.67038 0
M  V30 1034 H 90.7072 -0.125612 5.99969 0
M  V30 1035 H 91.7772 0.633724 4.80741 0
M  V30 1036 N 93.1203 -1.57491 0.0584922 0
M  V30 1037 C 94.0303 -2.15448 -0.928414 0
M  V30 1038 C 95.0463 -1.11416 -1.3365 0
M  V30 1039 O 96.2223 -1.4362 -1.41193 0
M  V30 1040 C 93.2873 -2.69393 -2.18239 0
M  V30 1041 C 92.3483 -3.88249 -1.83196 0
M  V30 1042 C 91.5813 -4.39613 -3.02616 0
M  V30 1043 O 91.8043 -3.90023 -4.16219 0
M  V30 1044 O 90.7383 -5.31111 -2.83204 0
M  V30 1045 H 94.5643 -3.00112 -0.465483 0
M  V30 1046 H 92.1493 -1.48499 -0.163826 0
M  V30 1047 H 94.0313 -3.04026 -2.91798 0
M  V30 1048 H 92.7063 -1.87796 -2.63656 0
M  V30 1049 H 91.6133 -3.58492 -1.06931 0
M  V30 1050 H 92.9463 -4.71098 -1.42573 0
M  V30 1051 N 94.5984 0.214957 -1.56127 0
M  V30 1052 C 95.8444 0.939762 -1.79712 0
M  V30 1053 C 96.1774 1.83723 -0.629247 0
M  V30 1054 O 95.4524 1.90925 0.371197 0
M  V30 1055 C 95.7354 1.77306 -3.13424 0
M  V30 1056 C 95.5884 0.90164 -4.40671 0
M  V30 1057 C 96.9074 2.74956 -3.43638 0
M  V30 1058 H 94.0264 0.340214 -0.653776 0
M  V30 1059 H 96.6684 0.20824 -1.88855 0
M  V30 1060 H 94.8184 2.39673 -3.0576 0
M  V30 1061 H 96.4904 0.294206 -4.60361 0
M  V30 1062 H 94.7334 0.207368 -4.33304 0
M  V30 1063 H 95.4044 1.51923 -5.30682 0
M  V30 1064 H 97.8804 2.22724 -3.51473 0
M  V30 1065 H 96.7564 3.30358 -4.38355 0
M  V30 1066 H 97.0174 3.53023 -2.66134 0
M  V30 1067 N 96.0765 1.50051 0.48192 0
M  V30 1068 C 97.3535 1.51009 1.2432 0
M  V30 1069 C 97.7335 0.248587 2.09631 0
M  V30 1070 O 97.0815 -0.768409 2.15192 0
M  V30 1071 C 97.2915 2.79981 2.08355 0
M  V30 1072 C 98.6395 3.3022 2.66908 0
M  V30 1073 O 99.6635 2.81228 2.18607 0
M  V30 1074 O 98.5225 4.15595 3.54884 0
M  V30 1075 H 95.6165 0.605239 0.563573 0
M  V30 1076 H 98.1625 1.62332 0.494627 0
M  V30 1077 H 96.9345 3.63275 1.45419 0
M  V30 1078 H 96.5575 2.7161 2.90368 0
M  V30 1079 N 97.5546 -0.734337 1.39446 0
M  V30 1080 C 98.4846 -1.86155 1.40955 0
M  V30 1081 C 99.4656 -1.67898 0.272827 0
M  V30 1082 O 100.651 -1.88207 0.478743 0
M  V30 1083 C 97.7806 -3.23912 1.25294 0
M  V30 1084 C 96.7346 -3.56808 2.36373 0
M  V30 1085 C 96.0606 -4.93508 2.058 0
M  V30 1086 C 97.3606 -3.59713 3.78687 0
M  V30 1087 H 99.0546 -1.8515 2.35287 0
M  V30 1088 H 96.6006 -0.889367 1.13253 0
M  V30 1089 H 98.5536 -4.02443 1.2497 0
M  V30 1090 H 97.2776 -3.25446 0.274308 0
M  V30 1091 H 95.9366 -2.80606 2.35914 0
M  V30 1092 H 95.5846 -4.91623 1.06374 0
M  V30 1093 H 95.2846 -5.16486 2.80208 0
M  V30 1094 H 96.8086 -5.74396 2.07128 0
M  V30 1095 H 98.2226 -4.2832 3.81071 0
M  V30 1096 H 96.6196 -3.94209 4.52459 0
M  V30 1097 H 97.6896 -2.59504 4.09617 0
M  V30 1098 N 99.0327 -1.24633 -0.964593 0
M  V30 1099 C 100.444 -1.08045 -1.5226 0
M  V30 1100 C 100.795 0.347116 -1.93105 0
M  V30 1101 O 99.9197 1.23588 -1.77637 0
M  V30 1102 C 100.515 -1.95514 -2.76695 0
M  V30 1103 C 99.0737 -1.8314 -3.28841 0
M  V30 1104 C 98.2207 -1.90262 -2.01732 0
M  V30 1105 H 101.172 -1.38064 -0.782553 0
M  V30 1106 H 101.193 -1.48925 -3.50145 0
M  V30 1107 H 100.705 -2.99407 -2.46936 0
M  V30 1108 H 98.8057 -0.82092 -3.63444 0
M  V30 1109 H 98.9187 -2.67406 -3.97531 0
M  V30 1110 H 97.2827 -1.34027 -2.16584 0
M  V30 1111 H 98.0657 -2.9574 -1.74334 0
M  V30 1112 N 100.511 1.16574 -1.06058 0
M  V30 1113 C 101.443 2.2045 -0.627239 0
M  V30 1114 C 102.456 1.59752 0.313534 0
M  V30 1115 O 103.645 1.78192 0.104896 0
M  V30 1116 C 100.745 3.3875 0.100974 0
M  V30 1117 C 99.9178 4.29008 -0.852687 0
M  V30 1118 C 98.9768 5.25944 -0.164152 0
M  V30 1119 O 98.0028 5.63535 -0.801047 0
M  V30 1120 N 99.2048 5.70075 1.09518 0
M  V30 1121 H 101.97 2.58249 -1.52077 0
M  V30 1122 H 99.5308 1.3156 -0.943594 0
M  V30 1123 H 101.523 4.00638 0.57194 0
M  V30 1124 H 100.093 2.99476 0.89628 0
M  V30 1125 H 99.3128 3.64419 -1.50308 0
M  V30 1126 H 100.601 4.86195 -1.49972 0
M  V30 1127 H 99.9988 5.41624 1.6328 0
M  V30 1128 H 98.5558 6.34067 1.51006 0
M  V30 1129 N 101.989 0.842826 1.3317 0
M  V30 1130 C 103.4 0.496651 1.79973 0
M  V30 1131 C 103.751 -0.984641 1.69703 0
M  V30 1132 O 102.876 -1.76743 1.24863 0
M  V30 1133 C 103.471 0.894727 3.26772 0
M  V30 1134 C 102.03 0.600629 3.71577 0
M  V30 1135 C 101.177 1.10091 2.5451 0
M  V30 1136 H 104.128 1.03116 1.20635 0
M  V30 1137 H 104.149 0.206347 3.7994 0
M  V30 1138 H 103.661 1.97287 3.34215 0
M  V30 1139 H 101.762 -0.467284 3.69658 0
M  V30 1140 H 101.875 1.15863 4.64879 0
M  V30 1141 H 100.239 0.52162 2.49301 0
M  V30 1142 H 101.022 2.18591 2.64713 0
M  V30 1143 N 103.467 -1.45747 0.599634 0
M  V30 1144 C 104.397 -2.33235 -0.111306 0
M  V30 1145 C 105.378 -1.46359 -0.866781 0
M  V30 1146 O 106.563 -1.75146 -0.838904 0
M  V30 1147 C 103.693 -3.28932 -1.11451 0
M  V30 1148 C 102.647 -4.25381 -0.472772 0
M  V30 1149 C 101.973 -5.1071 -1.58365 0
M  V30 1150 C 103.273 -5.18831 0.600948 0
M  V30 1151 H 104.967 -2.92927 0.61919 0
M  V30 1152 H 102.513 -1.40857 0.299215 0
M  V30 1153 H 104.466 -3.89002 -1.62036 0
M  V30 1154 H 103.19 -2.67381 -1.8755 0
M  V30 1155 H 101.849 -3.66598 0.0121472 0
M  V30 1156 H 101.497 -4.45533 -2.33473 0
M  V30 1157 H 101.197 -5.7604 -1.15982 0
M  V30 1158 H 102.721 -5.73647 -2.09194 0
M  V30 1159 H 104.135 -5.73019 0.179491 0
M  V30 1160 H 102.532 -5.92595 0.946076 0
M  V30 1161 H 103.602 -4.6174 1.48068 0
M  V30 1162 N 104.945 -0.338344 -1.53925 0
M  V30 1163 C 106.17 0.263987 -2.05713 0
M  V30 1164 C 106.595 1.43847 -1.21201 0
M  V30 1165 O 105.953 1.79904 -0.224535 0
M  V30 1166 C 106.001 0.662 -3.54471 0
M  V30 1167 O 105.105 1.76265 -3.72833 0
M  V30 1168 H 104.446 0.0448722 -0.662482 0
M  V30 1169 H 106.976 -0.491048 -1.9862 0
M  V30 1170 H 106.986 0.940594 -3.9701 0
M  V30 1171 H 105.661 -0.196937 -4.15433 0
M  V30 1172 H 104.238 1.48173 -3.42198 0
M  V30 1173 N 106.423 1.57458 -0.0668435 0
M  V30 1174 C 107.651 1.97624 0.612565 0
M  V30 1175 C 108.066 0.94502 1.63447 0
M  V30 1176 O 107.423 -0.0689276 1.8237 0
M  V30 1177 C 107.474 3.37869 1.28555 0
M  V30 1178 O 107.195 4.3704 0.304557 0
M  V30 1179 C 108.696 3.92882 2.05325 0
M  V30 1180 H 105.916 0.650045 0.166381 0
M  V30 1181 H 108.46 2.04035 -0.137782 0
M  V30 1182 H 106.615 3.3256 1.98702 0
M  V30 1183 H 107.029 5.18565 0.786779 0
M  V30 1184 H 108.503 4.93247 2.47812 0
M  V30 1185 H 108.98 3.29156 2.9078 0
M  V30 1186 H 109.586 4.01577 1.40056 0
M  V30 1187 N 107.901 -0.206675 1.56239 0
M  V30 1188 C 108.851 -1.26 1.90021 0
M  V30 1189 C 109.835 -1.41566 0.764721 0
M  V30 1190 O 111.027 -1.44131 1.02739 0
M  V30 1191 C 108.156 -2.6073 2.23326 0
M  V30 1192 C 107.242 -2.49005 3.43304 0
M  V30 1193 N 107.633 -2.06946 4.61527 0
M  V30 1194 C 105.931 -2.79927 3.47213 0
M  V30 1195 C 106.632 -2.06832 5.43687 0
M  V30 1196 N 105.608 -2.47892 4.83788 0
M  V30 1197 H 109.41 -0.925955 2.78932 0
M  V30 1198 H 106.924 -0.415172 1.57003 0
M  V30 1199 H 108.921 -3.36798 2.45708 0
M  V30 1200 H 107.581 -2.94968 1.35735 0
M  V30 1201 H 108.592 -1.77839 4.86409 0
M  V30 1202 H 105.269 -3.18438 2.70006 0
M  V30 1203 H 106.659 -1.76312 6.48354 0
M  V30 1204 N 109.379 -1.50304 -0.473955 0
M  V30 1205 C 110.309 -1.71886 -1.58042 0
M  V30 1206 C 111.29 -0.567799 -1.60344 0
M  V30 1207 O 112.475 -0.806623 -1.76656 0
M  V30 1208 C 109.605 -1.81036 -2.96384 0
M  V30 1209 C 108.559 -2.962 -3.08949 0
M  V30 1210 C 107.885 -2.9049 -4.48909 0
M  V30 1211 C 109.185 -4.36752 -2.86434 0
M  V30 1212 H 110.879 -2.64527 -1.40234 0
M  V30 1213 H 108.425 -1.27295 -0.673201 0
M  V30 1214 H 110.378 -1.94719 -3.73714 0
M  V30 1215 H 109.102 -0.850147 -3.15341 0
M  V30 1216 H 107.761 -2.82164 -2.3405 0
M  V30 1217 H 107.409 -1.92321 -4.64781 0
M  V30 1218 H 107.109 -3.67802 -4.58253 0
M  V30 1219 H 108.633 -3.06218 -5.28264 0
M  V30 1220 H 110.047 -4.5133 -3.53517 0
M  V30 1221 H 108.444 -5.15493 -3.07225 0
M  V30 1222 H 109.514 -4.49321 -1.82316 0
M  V30 1223 N 110.857 0.726932 -1.39834 0
M  V30 1224 C 112.104 1.48664 -1.37496 0
M  V30 1225 C 112.432 1.94482 0.0264678 0
M  V30 1226 O 111.687 1.67692 1.00886 0
M  V30 1227 C 111.986 2.73495 -2.30077 0
M  V30 1228 C 111.652 2.46502 -3.77555 0
M  V30 1229 C 110.314 2.3885 -4.17737 0
M  V30 1230 C 112.666 2.23604 -4.70798 0
M  V30 1231 C 109.994 2.06352 -5.49214 0
M  V30 1232 C 112.346 1.92622 -6.02561 0
M  V30 1233 C 111.01 1.83444 -6.41798 0
M  V30 1234 H 110.28 0.544001 -0.503135 0
M  V30 1235 H 112.927 0.833657 -1.72402 0
M  V30 1236 H 111.232 3.43575 -1.88317 0
M  V30 1237 H 112.929 3.31549 -2.25558 0
M  V30 1238 H 109.519 2.5334 -3.45712 0
M  V30 1239 H 113.703 2.28479 -4.40581 0
M  V30 1240 H 108.959 1.97776 -5.78528 0
M  V30 1241 H 113.133 1.73914 -6.74334 0
M  V30 1242 H 110.76 1.58029 -7.43593 0
M  V30 1243 N 112.336 1.25143 0.95797 0
M  V30 1244 C 113.266 1.07711 2.07173 0
M  V30 1245 C 114.247 -0.0128462 1.70095 0
M  V30 1246 O 115.432 0.156061 1.93572 0
M  V30 1247 C 112.562 0.691503 3.40346 0
M  V30 1248 C 111.516 1.73132 3.9142 0
M  V30 1249 C 110.842 1.20049 5.21049 0
M  V30 1250 C 112.142 3.1294 4.1817 0
M  V30 1251 H 113.836 2.00873 2.22014 0
M  V30 1252 H 111.382 0.967191 1.06684 0
M  V30 1253 H 113.335 0.556505 4.17709 0
M  V30 1254 H 112.059 -0.275819 3.25433 0
M  V30 1255 H 110.718 1.8547 3.16222 0
M  V30 1256 H 110.366 0.223499 5.02503 0
M  V30 1257 H 110.066 1.89545 5.56189 0
M  V30 1258 H 111.59 1.07782 6.01012 0
M  V30 1259 H 113.004 3.03775 4.86203 0
M  V30 1260 H 111.401 3.79875 4.64559 0
M  V30 1261 H 112.471 3.6025 3.24573 0
M  V30 1262 N 113.814 -1.1601 1.06675 0
M  V30 1263 C 114.777 -2.18724 0.685001 0
M  V30 1264 C 115.777 -1.58496 -0.271246 0
M  V30 1265 O 116.967 -1.74119 -0.0531156 0
M  V30 1266 C 114.099 -3.40899 0.00853648 0
M  V30 1267 H 115.292 -2.54011 1.59431 0
M  V30 1268 H 112.845 -1.30352 0.862441 0
M  V30 1269 H 113.58 -3.11173 -0.913337 0
M  V30 1270 H 113.365 -3.8587 0.696204 0
M  V30 1271 H 114.855 -4.16886 -0.24414 0
M  V30 1272 N 115.292 -0.849877 -1.32721 0
M  V30 1273 C 116.539 -0.450923 -1.97416 0
M  V30 1274 C 116.867 0.992376 -1.67279 0
M  V30 1275 O 116.122 1.71048 -0.950845 0
M  V30 1276 C 116.421 -0.631272 -3.51781 0
M  V30 1277 C 116.087 -2.04432 -4.01894 0
M  V30 1278 C 114.749 -2.4308 -4.1529 0
M  V30 1279 C 117.101 -2.96679 -4.28522 0
M  V30 1280 C 114.429 -3.73257 -4.52654 0
M  V30 1281 C 116.781 -4.26349 -4.67343 0
M  V30 1282 C 115.445 -4.64939 -4.78945 0
M  V30 1283 H 114.715 -0.165004 -0.722395 0
M  V30 1284 H 117.362 -1.07901 -1.58207 0
M  V30 1285 H 115.667 0.0800767 -3.91718 0
M  V30 1286 H 117.364 -0.302709 -3.99856 0
M  V30 1287 H 113.954 -1.73419 -3.91949 0
M  V30 1288 H 118.138 -2.68054 -4.17685 0
M  V30 1289 H 113.394 -4.02946 -4.59831 0
M  V30 1290 H 117.568 -4.97895 -4.86902 0
M  V30 1291 H 115.195 -5.65855 -5.07654 0
M  V30 1292 N 116.77 1.45427 -0.607355 0
M  V30 1293 C 117.995 2.07124 -0.107006 0
M  V30 1294 C 118.42 1.44906 1.19933 0
M  V30 1295 O 117.778 0.541687 1.73019 0
M  V30 1296 C 117.826 3.60595 0.0194119 0
M  V30 1297 O 116.93 3.98285 1.0697 0
M  V30 1298 H 116.271 0.659868 -0.0739597 0
M  V30 1299 H 118.801 1.86683 -0.837297 0
M  V30 1300 H 118.811 4.07419 0.2177 0
M  V30 1301 H 117.486 4.05266 -0.934453 0
M  V30 1302 H 116.063 3.63133 0.847889 0
M  V30 1303 N 118.248 0.346503 1.53744 0
M  V30 1304 C 119.18 -0.543316 2.22667 0
M  V30 1305 C 120.193 -1.06159 1.23427 0
M  V30 1306 O 121.382 -0.971235 1.49764 0
M  V30 1307 C 118.482 -1.76076 2.89569 0
M  V30 1308 C 117.655 -1.37727 4.15151 0
M  V30 1309 C 116.714 -2.45471 4.65436 0
M  V30 1310 O 115.74 -2.08655 5.29577 0
M  V30 1311 N 116.942 -3.7677 4.41616 0
M  V30 1312 H 119.707 0.0469703 2.99663 0
M  V30 1313 H 117.268 0.170766 1.60997 0
M  V30 1314 H 119.26 -2.47593 3.20125 0
M  V30 1315 H 117.83 -2.25835 2.16142 0
M  V30 1316 H 117.05 -0.492746 3.91108 0
M  V30 1317 H 118.338 -1.09708 4.96832 0
M  V30 1318 H 117.736 -4.09467 3.90325 0
M  V30 1319 H 116.293 -4.44448 4.7677 0
M  V30 1320 N 119.726 -1.57421 0.075193 0
M  V30 1321 C 120.673 -2.12915 -0.890843 0
M  V30 1322 C 121.643 -1.04252 -1.29309 0
M  V30 1323 O 122.828 -1.31933 -1.37834 0
M  V30 1324 C 119.968 -2.69795 -2.15186 0
M  V30 1325 C 119.081 -3.92624 -1.80194 0
M  V30 1326 C 118.216 -4.37736 -3.00933 0
M  V30 1327 C 117.255 -5.53205 -2.61974 0
M  V30 1328 N 116.392 -5.9326 -3.75483 0
M  V30 1329 H 121.232 -2.95156 -0.410735 0
M  V30 1330 H 118.769 -1.45854 -0.191086 0
M  V30 1331 H 120.727 -3.00883 -2.89008 0
M  V30 1332 H 119.357 -1.90313 -2.60731 0
M  V30 1333 H 118.409 -3.67977 -0.964218 0
M  V30 1334 H 119.721 -4.76482 -1.47534 0
M  V30 1335 H 118.875 -4.70503 -3.8303 0
M  V30 1336 H 117.614 -3.52739 -3.36789 0
M  V30 1337 H 116.619 -5.20086 -1.783 0
M  V30 1338 H 117.844 -6.39936 -2.27284 0
M  V30 1339 H 115.79 -5.11212 -4.11094 0
M  V30 1340 H 115.707 -6.71865 -3.46602 0
M  V30 1341 H 116.975 -6.30651 -4.58148 0
M  V30 1342 N 121.204 0.198386 -1.56346 0
M  V30 1343 C 122.615 0.763358 -1.70381 0
M  V30 1344 C 122.966 1.83995 -0.681203 0
M  V30 1345 O 122.091 2.15785 0.16305 0
M  V30 1346 C 122.686 1.39143 -3.08909 0
M  V30 1347 C 121.245 1.90352 -3.2472 0
M  V30 1348 C 120.392 0.772233 -2.6633 0
M  V30 1349 H 123.343 -0.0266377 -1.58678 0
M  V30 1350 H 123.364 2.26076 -3.06055 0
M  V30 1351 H 122.876 0.607638 -3.83314 0
M  V30 1352 H 120.977 2.71461 -2.55225 0
M  V30 1353 H 121.09 2.06757 -4.3219 0
M  V30 1354 H 119.454 1.18566 -2.2542 0
M  V30 1355 H 120.237 0.00073556 -3.433 0
M  V30 1356 N 122.682 1.50554 0.465978 0
M  V30 1357 C 124.098 1.38093 0.800154 0
M  V30 1358 C 124.298 0.440988 1.96615 0
M  V30 1359 O 123.354 -0.114499 2.5224 0
M  V30 1360 C 124.667 2.79565 1.10742 0
M  V30 1361 C 126.215 2.88516 1.21357 0
M  V30 1362 C 126.69 4.30833 1.55393 0
M  V30 1363 N 128.181 4.33807 1.62375 0
M  V30 1364 C 128.916 5.40927 1.90225 0
M  V30 1365 N 128.412 6.58247 2.16062 0
M  V30 1366 N 130.205 5.28376 1.9177 0
M  V30 1367 H 122.356 2.10237 -0.302366 0
M  V30 1368 H 124.619 0.945203 -0.0727746 0
M  V30 1369 H 124.325 3.50208 0.323661 0
M  V30 1370 H 124.199 3.17125 2.04234 0
M  V30 1371 H 126.586 2.1809 1.98799 0
M  V30 1372 H 126.667 2.54492 0.258321 0
M  V30 1373 H 126.311 5.01799 0.784889 0
M  V30 1374 H 126.241 4.62347 2.52076 0
M  V30 1375 H 128.732 3.49212 1.44427 0
M  V30 1376 H 129.045 7.3569 2.36601 0
M  V30 1377 H 127.39 6.61413 2.13444 0
M  V30 1378 H 130.581 4.35715 1.71085 0
M  V30 1379 H 130.754 6.11944 2.13139 0
M  V30 1380 N 124.16 -0.719506 1.40217 0
M  V30 1381 C 125.11 -1.8251 1.36653 0
M  V30 1382 C 126.094 -1.59028 0.244732 0
M  V30 1383 O 127.286 -1.70268 0.483524 0
M  V30 1384 C 124.415 -3.20599 1.22763 0
M  V30 1385 C 123.501 -3.49858 2.39708 0
M  V30 1386 N 123.892 -3.49957 3.6519 0
M  V30 1387 C 122.19 -3.80297 2.33002 0
M  V30 1388 C 122.891 -3.77449 4.42614 0
M  V30 1389 N 121.867 -3.96002 3.72402 0
M  V30 1390 H 125.669 -1.80914 2.31619 0
M  V30 1391 H 123.183 -0.918455 1.33933 0
M  V30 1392 H 125.18 -3.99766 1.18292 0
M  V30 1393 H 123.84 -3.23424 0.287614 0
M  V30 1394 H 124.851 -3.309 3.98404 0
M  V30 1395 H 121.528 -3.90635 1.47346 0
M  V30 1396 H 122.918 -3.83863 5.51451 0
M  V30 1397 N 125.638 -1.25649 -0.95132 0
M  V30 1398 C 126.548 -1.08073 -2.08224 0
M  V30 1399 C 127.564 -0.0169666 -1.73992 0
M  V30 1400 O 128.74 -0.218593 -2.0021 0
M  V30 1401 C 125.805 -0.704922 -3.39458 0
M  V30 1402 C 124.866 -1.84699 -3.87537 0
M  V30 1403 C 124.099 -1.48902 -5.12508 0
M  V30 1404 O 124.322 -0.386156 -5.69091 0
M  V30 1405 O 123.256 -2.32033 -5.55378 0
M  V30 1406 H 127.082 -2.02924 -2.25954 0
M  V30 1407 H 124.667 -1.04618 -1.06656 0
M  V30 1408 H 126.549 -0.507609 -4.18332 0
M  V30 1409 H 125.224 0.214291 -3.2299 0
M  V30 1410 H 124.131 -2.09919 -3.09653 0
M  V30 1411 H 125.464 -2.74557 -4.08509 0
M  V30 1412 N 127.117 1.15442 -1.07289 0
M  V30 1413 C 128.345 1.90096 -0.81676 0
M  V30 1414 C 128.76 1.7798 0.629966 0
M  V30 1415 O 128.117 1.1313 1.43206 0
M  V30 1416 C 128.168 3.40466 -1.21512 0
M  V30 1417 O 127.889 3.52232 -2.60508 0
M  V30 1418 C 129.39 4.32145 -0.988198 0
M  V30 1419 H 126.61 0.602495 -0.295366 0
M  V30 1420 H 129.154 1.4627 -1.42918 0
M  V30 1421 H 127.309 3.81958 -0.647039 0
M  V30 1422 H 127.723 4.45549 -2.76742 0
M  V30 1423 H 129.197 5.36072 -1.31645 0
M  V30 1424 H 129.674 4.39135 0.0755063 0
M  V30 1425 H 130.28 3.96395 -1.54115 0
M  V30 1426 N 128.595 0.856903 1.32268 0
M  V30 1427 C 129.82 0.474569 2.01897 0
M  V30 1428 C 130.245 -0.921766 1.63967 0
M  V30 1429 O 129.603 -1.60589 0.84148 0
M  V30 1430 C 129.651 0.623799 3.55164 0
M  V30 1431 O 128.755 -0.342459 4.10976 0
M  V30 1432 H 128.096 0.190422 0.63611 0
M  V30 1433 H 130.626 1.15672 1.68764 0
M  V30 1434 H 130.636 0.512169 4.04773 0
M  V30 1435 H 129.311 1.64202 3.82113 0
M  V30 1436 H 127.888 -0.18688 3.72431 0
M  V30 1437 N 130.073 -1.45103 0.615059 0
M  V30 1438 C 131.35 -1.95549 0.0448276 0
M  V30 1439 C 131.73 -1.55737 -1.4251 0
M  V30 1440 O 131.078 -0.823556 -2.13143 0
M  V30 1441 C 131.288 -3.48098 0.250785 0
M  V30 1442 C 132.636 -4.24384 0.135509 0
M  V30 1443 O 133.66 -3.55738 0.181299 0
M  V30 1444 O 132.519 -5.46493 0.0268878 0
M  V30 1445 H 129.613 -0.8264 -0.0314845 0
M  V30 1446 H 132.159 -1.55232 0.685642 0
M  V30 1447 H 130.931 -3.7007 1.27139 0
M  V30 1448 H 130.554 -3.95323 -0.424937 0
M  V30 1449 N 131.551 -0.354651 -1.53558 0
M  V30 1450 C 132.501 0.513179 -2.2215 0
M  V30 1451 C 133.485 1.05734 -1.21281 0
M  V30 1452 O 134.677 0.989202 -1.46778 0
M  V30 1453 C 131.806 1.65798 -3.00609 0
M  V30 1454 C 130.892 1.12722 -4.08845 0
M  V30 1455 N 131.283 0.318563 -5.04796 0
M  V30 1456 C 129.581 1.40307 -4.23356 0
M  V30 1457 C 130.282 0.0292224 -5.81693 0
M  V30 1458 N 129.258 0.623891 -5.40008 0
M  V30 1459 H 133.06 -0.111586 -2.93688 0
M  V30 1460 H 130.574 -0.162091 -1.61589 0
M  V30 1461 H 132.571 2.29176 -3.48258 0
M  V30 1462 H 131.231 2.28591 -2.306 0
M  V30 1463 H 132.242 -0.0413091 -5.17884 0
M  V30 1464 H 128.919 2.03458 -3.6457 0
M  V30 1465 H 130.309 -0.623808 -6.68998 0
M  V30 1466 N 133.029 1.57378 -0.0835403 0
M  V30 1467 C 134.44 1.81261 0.447358 0
M  V30 1468 C 134.791 0.998331 1.68902 0
M  V30 1469 O 133.916 0.224282 2.15235 0
M  V30 1470 C 134.511 3.28767 0.818386 0
M  V30 1471 C 133.07 3.53455 1.29409 0
M  V30 1472 C 132.217 2.75831 0.285024 0
M  V30 1473 H 135.168 1.5566 -0.309115 0
M  V30 1474 H 135.189 3.41459 1.67887 0
M  V30 1475 H 134.701 3.88006 -0.0855019 0
M  V30 1476 H 132.802 2.99534 2.21608 0
M  V30 1477 H 132.915 4.62128 1.2639 0
M  V30 1478 H 131.279 2.42947 0.764767 0
M  V30 1479 H 132.062 3.37813 -0.611341 0
M  V30 1480 N 134.507 -0.190092 1.56449 0
M  V30 1481 C 135.735 -0.925772 1.85033 0
M  V30 1482 C 136.15 -1.76638 0.666658 0
M  V30 1483 O 135.507 -1.78822 -0.364565 0
M  V30 1484 C 135.558 -1.81786 3.12468 0
M  V30 1485 O 135.279 -1.01118 4.26271 0
M  V30 1486 C 136.78 -2.6648 3.54265 0
M  V30 1487 H 134 -0.269872 0.614337 0
M  V30 1488 H 136.544 -0.195837 2.0356 0
M  V30 1489 H 134.699 -2.50136 2.95822 0
M  V30 1490 H 135.113 -1.61956 4.98869 0
M  V30 1491 H 136.587 -3.24722 4.46385 0
M  V30 1492 H 137.064 -3.40434 2.77491 0
M  V30 1493 H 137.67 -2.03493 3.73458 0
M  V30 1494 N 135.985 -1.50799 -0.457987 0
M  V30 1495 C 136.895 -1.73426 -1.57989 0
M  V30 1496 C 137.911 -0.617745 -1.62665 0
M  V30 1497 O 139.087 -0.897614 -1.80291 0
M  V30 1498 C 136.152 -1.83557 -2.94122 0
M  V30 1499 C 135.213 -3.07345 -2.99729 0
M  V30 1500 C 134.446 -3.16983 -4.29368 0
M  V30 1501 O 134.669 -2.33077 -5.20607 0
M  V30 1502 O 133.603 -4.09812 -4.40837 0
M  V30 1503 H 137.429 -2.68555 -1.41817 0
M  V30 1504 H 135.014 -1.35052 -0.638859 0
M  V30 1505 H 136.896 -1.92326 -3.74952 0
M  V30 1506 H 135.571 -0.916137 -3.10465 0
M  V30 1507 H 134.478 -3.04068 -2.1793 0
M  V30 1508 H 135.811 -3.9891 -2.88326 0
M  V30 1509 N 137.463 0.71206 -1.40597 0
M  V30 1510 C 138.711 1.46907 -1.38791 0
M  V30 1511 C 139.032 1.94998 0.00780391 0
M  V30 1512 O 138.302 1.70587 0.963174 0
M  V30 1513 H 136.882 0.545043 -0.51082 0
M  V30 1514 H 139.544 0.843882 -1.75683 0
M  V30 1515 H 138.64 2.34021 -2.06496 0
M  V30 1516 N 138.941 1.26152 0.944643 0
M  V30 1517 C 139.904 1.07474 2.0244 0
M  V30 1518 C 140.904 0.0242064 1.60782 0
M  V30 1519 O 142.094 0.267302 1.72137 0
M  V30 1520 C 139.226 0.633956 3.34953 0
M  V30 1521 H 140.419 2.03336 2.20442 0
M  V30 1522 H 137.972 1.087 1.12312 0
M  V30 1523 H 138.707 -0.326811 3.22649 0
M  V30 1524 H 138.492 1.39247 3.66542 0
M  V30 1525 H 139.982 0.52501 4.14287 0
M  V30 1526 N 140.419 -1.14872 1.07899 0
M  V30 1527 C 141.644 -1.90202 0.826926 0
M  V30 1528 C 142.069 -1.77774 -0.614664 0
M  V30 1529 O 141.427 -1.11431 -1.43013 0
M  V30 1530 C 141.475 -3.38352 1.24702 0
M  V30 1531 O 140.579 -4.10497 0.39575 0
M  V30 1532 H 139.92 -0.591968 0.300782 0
M  V30 1533 H 142.45 -1.45437 1.43907 0
M  V30 1534 H 142.46 -3.89156 1.22563 0
M  V30 1535 H 141.135 -3.46715 2.29698 0
M  V30 1536 H 139.712 -3.69796 0.480117 0
M  V30 1537 N 141.898 -0.863906 -1.31812 0
M  V30 1538 C 142.846 -0.30422 -2.30602 0
M  V30 1539 C 143.84 0.577419 -1.59255 0
M  V30 1540 O 145.046 0.464194 -1.73912 0
M  V30 1541 H 141.421 -0.0796877 -0.747766 0
M  V30 1542 H 143.392 -1.15148 -2.75288 0
M  V30 1543 C 142.141 0.484617 -3.44306 0
M  V30 1544 H 141.464 -0.18451 -3.99374 0
M  V30 1545 H 142.904 0.841664 -4.15562 0
M  V30 1546 C 141.363 1.6735 -2.92396 0
M  V30 1547 O 141.893 2.77273 -2.90659 0
M  V30 1548 N 140.099 1.50362 -2.48676 0
M  V30 1549 H 139.646 0.609402 -2.50288 0
M  V30 1550 H 139.604 2.30051 -2.14299 0
M  V30 1551 N 143.376 1.44774 -0.622745 0
M  V30 1552 C 144.601 2.06999 -0.128968 0
M  V30 1553 C 145.026 1.4617 1.1839 0
M  V30 1554 O 144.384 0.560007 1.72434 0
M  V30 1555 C 144.432 3.60595 -0.0188351 0
M  V30 1556 O 143.536 3.99398 1.02739 0
M  V30 1557 H 142.877 0.659047 -0.0809544 0
M  V30 1558 H 145.407 1.85784 -0.85705 0
M  V30 1559 H 145.417 4.07627 0.174476 0
M  V30 1560 H 144.092 4.04252 -0.977384 0
M  V30 1561 H 142.669 3.64011 0.809326 0
M  V30 1562 N 144.854 0.36279 1.53368 0
M  V30 1563 C 145.764 -0.492994 2.29362 0
M  V30 1564 C 146.78 -1.09507 1.35219 0
M  V30 1565 O 147.956 -1.10662 1.68273 0
M  V30 1566 C 145.021 -1.61855 3.066 0
M  V30 1567 C 144.082 -1.04429 4.16405 0
M  V30 1568 C 143.315 -2.11621 4.89951 0
M  V30 1569 O 143.538 -3.32684 4.63333 0
M  V30 1570 O 142.472 -1.74835 5.75948 0
M  V30 1571 H 146.298 0.125331 3.03441 0
M  V30 1572 H 143.883 0.127253 1.48857 0
M  V30 1573 H 145.765 -2.27302 3.54841 0
M  V30 1574 H 144.44 -2.22233 2.3536 0
M  V30 1575 H 143.347 -0.353819 3.72423 0
M  V30 1576 H 144.68 -0.485113 4.89804 0
M  V30 1577 N 146.332 -1.57332 0.0918853 0
M  V30 1578 C 147.295 -2.12708 -0.85369 0
M  V30 1579 C 148.295 -1.05561 -1.213 0
M  V30 1580 O 149.485 -1.31461 -1.14296 0
M  V30 1581 C 146.617 -2.64503 -2.15061 0
M  V30 1582 H 147.81 -2.97573 -0.3729 0
M  V30 1583 H 145.363 -1.55509 -0.157072 0
M  V30 1584 H 146.098 -1.83149 -2.67632 0
M  V30 1585 H 145.883 -3.4284 -1.90272 0
M  V30 1586 H 147.373 -3.07351 -2.82711 0
M  V30 1587 N 147.81 0.181792 -1.56548 0
M  V30 1588 C 148.758 1.24461 -1.965 0
M  V30 1589 C 149.752 1.464 -0.852261 0
M  V30 1590 O 150.958 1.47103 -1.03733 0
M  V30 1591 H 147.333 0.418138 -0.625031 0
M  V30 1592 H 149.304 0.880714 -2.85107 0
M  V30 1593 C 148.053 2.57891 -2.33212 0
M  V30 1594 H 147.376 2.41829 -3.18369 0
M  V30 1595 H 148.816 3.3097 -2.65019 0
M  V30 1596 C 147.275 3.15871 -1.17163 0
M  V30 1597 O 147.805 3.9913 -0.453708 0
M  V30 1598 N 146.011 2.74808 -0.944936 0
M  V30 1599 H 145.558 2.07205 -1.53049 0
M  V30 1600 H 145.516 3.13939 -0.170286 0
M  V30 1601 N 149.288 1.51039 0.449983 0
M  V30 1602 C 150.513 1.6715 1.22783 0
M  V30 1603 C 150.938 0.363081 1.84563 0
M  V30 1604 O 150.296 -0.675433 1.68249 0
M  V30 1605 C 150.344 2.77985 2.29689 0
M  V30 1606 O 149.448 2.40707 3.34864 0
M  V30 1607 H 148.789 0.557746 0.360299 0
M  V30 1608 H 151.319 1.97535 0.533005 0
M  V30 1609 H 151.329 3.01693 2.74673 0
M  V30 1610 H 150.004 3.72935 1.84098 0
M  V30 1611 H 148.581 2.27523 2.95445 0
M  V30 1612 N 150.766 -0.704594 1.40972 0
M  V30 1613 C 151.729 -1.80035 1.41845 0
M  V30 1614 C 152.729 -1.57774 0.310474 0
M  V30 1615 O 153.919 -1.64613 0.56992 0
M  V30 1616 C 151.051 -3.18284 1.22098 0
M  V30 1617 H 152.244 -1.80658 2.3938 0
M  V30 1618 H 149.797 -0.911329 1.26982 0
M  V30 1619 H 150.532 -3.23306 0.253672 0
M  V30 1620 H 150.317 -3.35843 2.02366 0
M  V30 1621 H 151.807 -3.98289 1.25522 0
M  V30 1622 N 152.244 -1.26651 -0.937939 0
M  V30 1623 C 153.521 -1.0313 -1.66204 0
M  V30 1624 C 153.901 0.437256 -2.06522 0
M  V30 1625 O 153.249 1.41831 -1.79154 0
M  V30 1626 C 153.459 -1.98314 -2.87181 0
M  V30 1627 C 154.807 -2.27107 -3.58758 0
M  V30 1628 O 155.831 -1.96205 -2.97291 0
M  V30 1629 O 154.69 -2.79736 -4.69479 0
M  V30 1630 H 151.784 -0.392384 -0.727986 0
M  V30 1631 H 154.33 -1.37874 -0.989382 0
M  V30 1632 H 153.102 -2.97399 -2.54302 0
M  V30 1633 H 152.725 -1.64068 -3.6217 0
M  V30 1634 N 153.722 1.14298 -1.08507 0
M  V30 1635 C 154.95 1.89219 -0.836876 0
M  V30 1636 C 155.365 1.78638 0.611054 0
M  V30 1637 O 154.722 1.14643 1.41998 0
M  V30 1638 C 154.773 3.39158 -1.25116 0
M  V30 1639 O 154.494 3.49449 -2.64229 0
M  V30 1640 C 155.995 4.31073 -1.03398 0
M  V30 1641 H 153.215 0.599328 -0.301739 0
M  V30 1642 H 155.759 1.44746 -1.44461 0
M  V30 1643 H 153.914 3.81251 -0.687514 0
M  V30 1644 H 154.328 4.42589 -2.81452 0
M  V30 1645 H 155.802 5.34646 -1.37323 0
M  V30 1646 H 156.279 4.3919 0.0289259 0
M  V30 1647 H 156.885 3.94738 -1.58311 0
M  V30 1648 N 155.201 0.870884 1.31352 0
M  V30 1649 C 156.149 0.316445 2.30437 0
M  V30 1650 C 157.143 -0.568965 1.59559 0
M  V30 1651 O 158.349 -0.454964 1.74155 0
M  V30 1652 H 154.724 0.0836521 0.747333 0
M  V30 1653 H 156.695 1.16606 2.74673 0
M  V30 1654 C 155.444 -0.46635 3.44558 0
M  V30 1655 H 154.767 0.205687 3.99271 0
M  V30 1656 H 156.207 -0.819614 4.16003 0
M  V30 1657 C 154.666 -1.65797 2.9328 0
M  V30 1658 O 155.196 -2.75728 2.92125 0
M  V30 1659 N 153.402 -1.49041 2.4947 0
M  V30 1660 H 152.949 -0.59612 2.50608 0
M  V30 1661 H 152.907 -2.28911 2.15516 0
M  V30 1662 N 156.679 -1.44442 0.630414 0
M  V30 1663 C 157.928 -2.01267 0.132073 0
M  V30 1664 C 158.241 -1.50172 -1.25331 0
M  V30 1665 O 159.447 -1.9912 -1.84562 0
M  V30 1666 C 157.903 -3.59422 0.185362 0
M  V30 1667 C 157.511 -4.19514 1.57201 0
M  V30 1668 C 159.255 -4.23724 -0.256553 0
M  V30 1669 C 157.162 -5.69891 1.58045 0
M  V30 1670 H 156.092 -0.752619 0.0456092 0
M  V30 1671 H 158.743 -1.65666 0.789106 0
M  V30 1672 H 157.125 -3.92318 -0.538759 0
M  V30 1673 H 158.299 -3.98156 2.31966 0
M  V30 1674 H 156.614 -3.67496 1.95795 0
M  V30 1675 H 159.211 -5.34019 -0.269767 0
M  V30 1676 H 159.554 -3.96013 -1.28372 0
M  V30 1677 H 160.087 -3.95629 0.41505 0
M  V30 1678 H 156.826 -6.02336 2.58597 0
M  V30 1679 H 156.346 -5.93373 0.875725 0
M  V30 1680 H 158.025 -6.33515 1.31408 0
M  V30 1681 N 158.157 -0.370918 -1.53173 0
M  V30 1682 C 159.089 0.507823 -2.23503 0
M  V30 1683 C 160.102 1.04182 -1.251 0
M  V30 1684 O 161.291 0.947286 -1.5129 0
M  V30 1685 C 158.391 1.71447 -2.92334 0
M  V30 1686 C 157.564 1.31105 -4.17289 0
M  V30 1687 C 156.623 2.38035 -4.69282 0
M  V30 1688 O 155.649 2.00204 -5.32829 0
M  V30 1689 N 156.851 3.69697 -4.47554 0
M  V30 1690 H 159.616 -0.0946382 -2.99551 0
M  V30 1691 H 157.177 -0.196358 -1.60705 0
M  V30 1692 H 159.169 2.42469 -3.24023 0
M  V30 1693 H 157.739 2.22368 -2.19707 0
M  V30 1694 H 156.959 0.430462 -3.91843 0
M  V30 1695 H 158.247 1.0179 -4.98514 0
M  V30 1696 H 157.645 4.03205 -3.9679 0
M  V30 1697 H 156.202 4.36807 -4.8378 0
M  V30 1698 N 159.635 1.57281 -0.100228 0
M  V30 1699 C 160.583 2.15542 0.874328 0
M  V30 1700 C 161.577 1.09962 1.28859 0
M  V30 1701 O 162.783 1.28298 1.26252 0
M  V30 1702 H 159.158 0.689567 0.300003 0
M  V30 1703 H 161.129 2.96241 0.35829 0
M  V30 1704 C 159.878 2.75454 2.1218 0
M  V30 1705 H 159.201 3.56384 1.81193 0
M  V30 1706 H 160.641 3.19781 2.78417 0
M  V30 1707 C 159.1 1.71602 2.89921 0
M  V30 1708 O 159.63 1.15804 3.84646 0
M  V30 1709 N 157.836 1.41975 2.53558 0
M  V30 1710 H 157.383 1.87539 1.76598 0
M  V30 1711 H 157.341 0.727274 3.05873 0
M  V30 1712 N 161.113 -0.173488 1.56642 0
M  V30 1713 C 162.076 -1.19859 1.95362 0
M  V30 1714 C 163.076 -1.37296 0.83704 0
M  V30 1715 O 164.266 -1.34739 1.10413 0
M  V30 1716 C 161.398 -2.56405 2.24654 0
M  V30 1717 H 162.591 -0.867062 2.87092 0
M  V30 1718 H 160.144 -0.415853 1.50666 0
M  V30 1719 H 160.879 -2.94576 1.35631 0
M  V30 1720 H 160.664 -2.45115 3.06041 0
M  V30 1721 H 162.154 -3.30287 2.5554 0
M  V30 1722 N 162.591 -1.51276 -0.441967 0
M  V30 1723 C 163.868 -1.54252 -1.20273 0
M  V30 1724 C 164.248 -0.30408 -2.08898 0
M  V30 1725 O 163.596 0.711084 -2.17154 0
M  V30 1726 C 163.806 -2.85406 -2.00859 0
M  V30 1727 C 165.154 -3.37181 -2.58059 0
M  V30 1728 O 166.178 -2.86925 -2.11074 0
M  V30 1729 O 165.037 -4.24858 -3.43741 0
M  V30 1730 H 162.131 -0.619969 -0.547328 0
M  V30 1731 H 164.677 -1.63586 -0.451413 0
M  V30 1732 H 163.449 -3.67003 -1.35736 0
M  V30 1733 H 163.072 -2.79213 -2.83065 0
M  V30 1734 N 164.069 0.697108 -1.41344 0
M  V30 1735 C 165.017 1.83237 -1.43272 0
M  V30 1736 C 166.011 1.66522 -0.310947 0
M  V30 1737 O 167.217 1.73402 -0.482899 0
M  V30 1738 H 163.592 0.603802 -0.448249 0
M  V30 1739 H 165.563 1.78727 -2.38954 0
M  V30 1740 C 164.312 3.21245 -1.33029 0
M  V30 1741 H 163.635 3.34723 -2.18633 0
M  V30 1742 H 165.075 4.00763 -1.38439 0
M  V30 1743 C 163.534 3.36873 -0.0424635 0
M  V30 1744 O 164.064 3.91177 0.913421 0
M  V30 1745 N 162.27 2.90581 0.0331145 0
M  V30 1746 H 161.817 2.46577 -0.745506 0
M  V30 1747 H 161.775 3.01416 0.894199 0
M  V30 1748 N 165.547 1.27147 0.931209 0
M  V30 1749 C 166.51 1.09615 2.01289 0
M  V30 1750 C 167.51 0.0412581 1.60747 0
M  V30 1751 O 168.7 0.285545 1.71844 0
M  V30 1752 C 165.832 0.669447 3.34262 0
M  V30 1753 H 167.025 2.05662 2.18273 0
M  V30 1754 H 164.578 1.09885 1.11153 0
M  V30 1755 H 165.313 -0.292572 3.22978 0
M  V30 1756 H 165.098 1.43127 3.65044 0
M  V30 1757 H 166.588 0.568921 4.13706 0
M  V30 1758 N 167.025 -1.13721 1.09112 0
M  V30 1759 C 168.253 -1.88773 0.846899 0
M  V30 1760 C 168.668 -1.7896 -0.601572 0
M  V30 1761 O 168.025 -1.15394 -1.41388 0
M  V30 1762 C 168.076 -3.3849 1.26913 0
M  V30 1763 O 167.797 -3.48043 2.66079 0
M  V30 1764 C 169.298 -4.30518 1.05682 0
M  V30 1765 H 166.518 -0.59772 0.304914 0
M  V30 1766 H 169.062 -1.43977 1.45227 0
M  V30 1767 H 167.217 -3.80881 0.707723 0
M  V30 1768 H 167.631 -4.4109 2.83795 0
M  V30 1769 H 169.105 -5.3391 1.40156 0
M  V30 1770 H 169.582 -4.392 -0.00563416 0
M  V30 1771 H 170.188 -3.93893 1.60402 0
M  V30 1772 N 168.503 -0.877838 -1.30888 0
M  V30 1773 C 169.45 -0.337538 -2.28318 0
M  V30 1774 C 170.42 0.568346 -1.56074 0
M  V30 1775 O 171.605 0.498298 -1.84178 0
M  V30 1776 C 168.745 0.448142 -3.42178 0
M  V30 1777 C 167.858 -0.48615 -4.29256 0
M  V30 1778 C 166.993 0.314427 -5.30269 0
M  V30 1779 C 166.032 -0.615791 -6.08995 0
M  V30 1780 N 165.169 0.14902 -7.01942 0
M  V30 1781 H 170.009 -1.17356 -2.73919 0
M  V30 1782 H 167.546 -0.590094 -1.34745 0
M  V30 1783 H 169.504 0.919517 -4.06941 0
M  V30 1784 H 168.134 1.24879 -2.97666 0
M  V30 1785 H 167.186 -1.076 -3.64865 0
M  V30 1786 H 168.498 -1.19909 -4.84173 0
M  V30 1787 H 167.652 0.847969 -6.00745 0
M  V30 1788 H 166.391 1.06062 -4.76027 0
M  V30 1789 H 165.396 -1.16102 -5.37401 0
M  V30 1790 H 166.621 -1.36097 -6.65323 0
M  V30 1791 H 164.567 0.877884 -6.50099 0
M  V30 1792 H 164.484 -0.504433 -7.54315 0
M  V30 1793 H 165.752 0.663537 -7.76671 0
M  V30 1794 N 169.982 1.44106 -0.638065 0
M  V30 1795 C 170.945 2.29138 0.0531013 0
M  V30 1796 C 171.945 1.41409 0.765506 0
M  V30 1797 O 173.135 1.63206 0.609046 0
M  V30 1798 C 170.267 3.23144 1.08584 0
M  V30 1799 H 171.46 2.91739 -0.694883 0
M  V30 1800 H 169.013 1.51134 -0.398538 0
M  V30 1801 H 169.748 2.65408 1.86357 0
M  V30 1802 H 169.533 3.87804 0.578852 0
M  V30 1803 H 171.023 3.87004 1.56899 0
M  V30 1804 N 171.46 0.379036 1.52974 0
M  V30 1805 C 172.737 -0.263479 1.93817 0
M  V30 1806 C 173.117 -1.65244 1.31368 0
M  V30 1807 O 172.465 -2.23448 0.477856 0
M  V30 1808 C 172.675 -0.300166 3.47707 0
M  V30 1809 C 174.023 -0.534061 4.21228 0
M  V30 1810 O 175.047 -0.38081 3.54159 0
M  V30 1811 O 173.906 -0.833501 5.40106 0
M  V30 1812 H 171 -0.161149 0.811147 0
M  V30 1813 H 173.546 0.432798 1.64088 0
M  V30 1814 H 172.318 0.673138 3.85467 0
M  V30 1815 H 171.941 -1.04179 3.83709 0
M  V30 1816 N 172.938 -1.57226 0.108567 0
M  V30 1817 C 173.848 -2.18292 -0.859401 0
M  V30 1818 C 174.864 -1.15612 -1.30038 0
M  V30 1819 O 176.04 -1.48039 -1.36552 0
M  V30 1820 C 173.105 -2.762 -2.09558 0
M  V30 1821 C 172.166 -3.93881 -1.70752 0
M  V30 1822 C 171.399 -4.49018 -2.88477 0
M  V30 1823 O 171.622 -4.03068 -4.036 0
M  V30 1824 O 170.556 -5.39852 -2.66164 0
M  V30 1825 H 174.382 -3.01441 -0.369769 0
M  V30 1826 H 171.967 -1.48945 -0.1165 0
M  V30 1827 H 173.849 -3.13156 -2.81978 0
M  V30 1828 H 172.524 -1.96089 -2.57548 0
M  V30 1829 H 171.431 -3.61713 -0.954714 0
M  V30 1830 H 172.764 -4.75396 -1.27513 0
M  V30 1831 N 174.416 0.165178 -1.56732 0
M  V30 1832 C 175.379 1.18822 -1.95995 0
M  V30 1833 C 176.379 1.3685 -0.84431 0
M  V30 1834 O 177.569 1.34152 -1.11126 0
M  V30 1835 C 174.701 2.5521 -2.26011 0
M  V30 1836 H 175.894 0.851825 -2.87548 0
M  V30 1837 H 173.447 0.407857 -1.50885 0
M  V30 1838 H 174.182 2.93852 -1.37191 0
M  V30 1839 H 173.967 2.43489 -3.07336 0
M  V30 1840 H 175.457 3.28927 -2.57288 0
M  V30 1841 N 175.894 1.51508 0.433938 0
M  V30 1842 C 177.134 1.66006 1.19253 0
M  V30 1843 C 177.498 0.369868 1.88404 0
M  V30 1844 O 178.699 0.39066 2.65946 0
M  V30 1845 C 176.97 2.83229 2.17981 0
M  V30 1846 S 178.529 3.18075 3.02281 0
M  V30 1847 H 175.347 0.584821 0.404358 0
M  V30 1848 H 177.949 1.89425 0.48357 0
M  V30 1849 H 176.653 3.75407 1.65824 0
M  V30 1850 H 176.184 2.6201 2.93453 0
M  V30 1851 H 178.199 2.64772 4.19655 0
M  V30 1852 N 177.372 -0.689602 1.41712 0
M  V30 1853 C 178.335 -1.78521 1.43746 0
M  V30 1854 C 179.335 -1.57436 0.327191 0
M  V30 1855 O 180.525 -1.64 0.587348 0
M  V30 1856 C 177.657 -3.16971 1.25467 0
M  V30 1857 H 178.85 -1.78108 2.41283 0
M  V30 1858 H 176.403 -0.89781 1.27942 0
M  V30 1859 H 177.138 -3.23019 0.287948 0
M  V30 1860 H 176.923 -3.33678 2.05917 0
M  V30 1861 H 178.413 -3.96935 1.2974 0
M  V30 1862 N 178.85 -1.27639 -0.924453 0
M  V30 1863 C 180.261 -1.12834 -1.48746 0
M  V30 1864 C 180.612 0.285505 -1.94112 0
M  V30 1865 O 179.737 1.17874 -1.81479 0
M  V30 1866 C 180.332 -2.04217 -2.70334 0
M  V30 1867 C 178.891 -1.93509 -3.22848 0
M  V30 1868 C 178.038 -1.96583 -1.95577 0
M  V30 1869 H 180.989 -1.40484 -0.738233 0
M  V30 1870 H 181.01 -1.59989 -3.4523 0
M  V30 1871 H 180.522 -3.07111 -2.37285 0
M  V30 1872 H 178.623 -0.936131 -3.60649 0
M  V30 1873 H 178.736 -2.79917 -3.88823 0
M  V30 1874 H 177.1 -1.4085 -2.12211 0
M  V30 1875 H 177.883 -3.01137 -1.64837 0
M  V30 1876 N 180.328 1.1314 -1.09713 0
M  V30 1877 C 181.605 1.80762 -0.747302 0
M  V30 1878 C 181.985 1.96663 0.767265 0
M  V30 1879 O 181.333 1.53706 1.69076 0
M  V30 1880 C 181.543 3.15606 -1.48975 0
M  V30 1881 C 182.891 3.90914 -1.65746 0
M  V30 1882 O 183.915 3.25239 -1.45251 0
M  V30 1883 O 182.774 5.08718 -1.9967 0
M  V30 1884 H 179.868 0.782103 -0.268782 0
M  V30 1885 H 182.414 1.20041 -1.19951 0
M  V30 1886 H 181.186 2.99278 -2.52088 0
M  V30 1887 H 180.809 3.84029 -1.02991 0
M  V30 1888 N 181.806 0.884767 1.30421 0
M  V30 1889 C 183.034 0.518044 2.0031 0
M  V30 1890 C 183.449 -0.893408 1.66324 0
M  V30 1891 O 182.806 -1.5875 0.900262 0
M  V30 1892 C 182.857 0.682997 3.54989 0
M  V30 1893 O 182.578 2.03888 3.87764 0
M  V30 1894 C 184.079 0.31924 4.42149 0
M  V30 1895 H 181.299 0.200265 0.640418 0
M  V30 1896 H 183.843 1.19001 1.6631 0
M  V30 1897 H 181.998 0.0584052 3.87356 0
M  V30 1898 H 182.412 2.05735 4.82466 0
M  V30 1899 H 183.886 0.485555 5.4986 0
M  V30 1900 H 184.363 -0.742717 4.32875 0
M  V30 1901 H 184.969 0.920147 4.15227 0
M  V30 1902 N 183.284 -1.43765 0.645699 0
M  V30 1903 C 184.194 -2.34544 -0.0512957 0
M  V30 1904 C 185.21 -1.53455 -0.82022 0
M  V30 1905 O 186.386 -1.86133 -0.769176 0
M  V30 1906 C 183.451 -3.31636 -1.01087 0
M  V30 1907 C 182.512 -4.2863 -0.239712 0
M  V30 1908 C 181.745 -5.21084 -1.15358 0
M  V30 1909 O 181.968 -5.1779 -2.39269 0
M  V30 1910 O 180.902 -5.98593 -0.630038 0
M  V30 1911 H 184.728 -2.95624 0.695718 0
M  V30 1912 H 182.313 -1.43781 0.405882 0
M  V30 1913 H 184.195 -3.9136 -1.56254 0
M  V30 1914 H 182.87 -2.73069 -1.73824 0
M  V30 1915 H 181.777 -3.72408 0.355356 0
M  V30 1916 H 183.11 -4.90157 0.447936 0
M  V30 1917 N 184.763 -0.387143 -1.52771 0
M  V30 1918 C 185.988 0.198407 -2.06449 0
M  V30 1919 C 186.413 1.39918 -1.25716 0
M  V30 1920 O 185.771 1.79099 -0.281657 0
M  V30 1921 C 185.819 0.548893 -3.56398 0
M  V30 1922 O 184.923 1.64315 -3.78252 0
M  V30 1923 H 184.264 0.0237731 -0.663574 0
M  V30 1924 H 186.794 -0.553989 -1.96957 0
M  V30 1925 H 186.804 0.813812 -3.99801 0
M  V30 1926 H 185.479 -0.329005 -4.14597 0
M  V30 1927 H 184.056 1.37211 -3.46738 0
M  V30 1928 N 186.241 1.57166 -0.116904 0
M  V30 1929 C 187.189 2.16457 0.851418 0
M  V30 1930 C 188.183 1.11323 1.27686 0
M  V30 1931 O 189.389 1.2963 1.24884 0
M  V30 1932 H 185.764 0.69271 0.292672 0
M  V30 1933 H 187.735 2.96605 0.32685 0
M  V30 1934 C 186.484 2.77689 2.09246 0
M  V30 1935 H 185.807 3.58285 1.77402 0
M  V30 1936 H 187.247 3.22716 2.7501 0
M  V30 1937 C 185.706 1.74667 2.88085 0
M  V30 1938 O 186.236 1.19877 3.83396 0
M  V30 1939 N 184.442 1.44656 2.52038 0
M  V30 1940 H 183.989 1.89402 1.74599 0
M  V30 1941 H 183.947 0.759675 3.05084 0
M  V30 1942 N 187.719 -0.156864 1.56817 0
M  V30 1943 C 188.652 -1.22316 1.9265 0
M  V30 1944 C 189.63 -1.42059 0.791076 0
M  V30 1945 O 190.814 -1.56831 1.04576 0
M  V30 1946 C 187.941 -2.58375 2.18998 0
M  V30 1947 C 186.987 -2.55284 3.41661 0
M  V30 1948 S 187.82 -2.02946 4.95553 0
M  V30 1949 C 188.976 -3.40753 5.25013 0
M  V30 1950 H 189.209 -0.917403 2.82791 0
M  V30 1951 H 186.742 -0.362059 1.50095 0
M  V30 1952 H 188.7 -3.36677 2.34859 0
M  V30 1953 H 187.361 -2.86145 1.29538 0
M  V30 1954 H 186.554 -3.55418 3.57343 0
M  V30 1955 H 186.156 -1.85086 3.24991 0
M  V30 1956 H 188.448 -4.36819 5.17876 0
M  V30 1957 H 189.391 -3.29933 6.26538 0
M  V30 1958 H 189.799 -3.37433 4.52548 0
M  V30 1959 N 189.197 -1.51736 -0.425897 0
M  V30 1960 C 190.16 -1.73271 -1.50032 0
M  V30 1961 C 191.16 -0.602639 -1.4908 0
M  V30 1962 O 192.35 -0.87033 -1.509 0
M  V30 1963 C 189.482 -1.79969 -2.89523 0
M  V30 1964 H 190.675 -2.69172 -1.32237 0
M  V30 1965 H 188.228 -1.41899 -0.65532 0
M  V30 1966 H 188.963 -0.859241 -3.1271 0
M  V30 1967 H 188.748 -2.62109 -2.91619 0
M  V30 1968 H 190.238 -1.9843 -3.67444 0
M  V30 1969 N 190.675 0.682077 -1.42076 0
M  V30 1970 C 191.585 1.82535 -1.47371 0
M  V30 1971 C 192.601 1.7017 -0.363079 0
M  V30 1972 O 193.777 1.91848 -0.612875 0
M  V30 1973 C 190.842 3.18624 -1.36674 0
M  V30 1974 C 189.903 3.42999 -2.58167 0
M  V30 1975 C 189.136 4.72595 -2.4797 0
M  V30 1976 O 189.359 5.50006 -1.5116 0
M  V30 1977 O 188.293 4.98054 -3.37974 0
M  V30 1978 H 192.119 1.81023 -2.43853 0
M  V30 1979 H 189.704 0.836887 -1.2376 0
M  V30 1980 H 191.586 3.99847 -1.33043 0
M  V30 1981 H 190.261 3.20789 -0.433138 0
M  V30 1982 H 189.168 2.61653 -2.67373 0
M  V30 1983 H 190.501 3.45659 -3.50401 0
M  V30 1984 N 192.153 1.28127 0.917671 0
M  V30 1985 C 193.1 1.11717 2.0196 0
M  V30 1986 C 194.07 0.0153929 1.66093 0
M  V30 1987 O 195.255 0.179596 1.89953 0
M  V30 1988 C 192.395 0.780927 3.36148 0
M  V30 1989 C 191.508 1.96135 3.84909 0
M  V30 1990 C 190.643 1.56609 5.0759 0
M  V30 1991 C 189.682 2.71339 5.48673 0
M  V30 1992 N 188.819 2.32332 6.62545 0
M  V30 1993 H 193.659 2.06003 2.15329 0
M  V30 1994 H 191.196 1.02535 1.05475 0
M  V30 1995 H 193.154 0.56675 4.13333 0
M  V30 1996 H 191.784 -0.124998 3.22558 0
M  V30 1997 H 190.836 2.28777 3.03916 0
M  V30 1998 H 192.148 2.82165 4.1132 0
M  V30 1999 H 191.302 1.31374 5.92305 0
M  V30 2000 H 190.041 0.677014 4.82978 0
M  V30 2001 H 189.046 2.97276 4.62501 0
M  V30 2002 H 190.271 3.60882 5.75274 0
M  V30 2003 H 188.217 1.45889 6.39572 0
M  V30 2004 H 188.134 3.11899 6.88662 0
M  V30 2005 H 189.402 2.10371 7.50576 0
M  V30 2006 N 193.631 -1.12557 1.10312 0
M  V30 2007 C 194.563 -2.17971 0.708625 0
M  V30 2008 C 195.576 -1.60806 -0.254027 0
M  V30 2009 O 196.765 -1.78458 -0.0386891 0
M  V30 2010 C 193.865 -3.38891 0.0248198 0
M  V30 2011 C 193.038 -4.25548 1.01132 0
M  V30 2012 C 192.097 -5.24972 0.35924 0
M  V30 2013 O 191.123 -5.60174 1.00965 0
M  V30 2014 N 192.325 -5.73747 -0.882847 0
M  V30 2015 H 195.09 -2.52427 1.61557 0
M  V30 2016 H 192.651 -1.27967 0.991771 0
M  V30 2017 H 194.643 -4.02485 -0.422852 0
M  V30 2018 H 193.213 -3.02596 -0.784514 0
M  V30 2019 H 192.433 -3.58589 1.6373 0
M  V30 2020 H 193.721 -4.80294 1.67914 0
M  V30 2021 H 193.119 -5.4731 -1.43065 0
M  V30 2022 H 191.676 -6.39234 -1.27369 0
M  V30 2023 N 195.109 -0.891671 -1.2995 0
M  V30 2024 C 196.072 -0.36828 -2.26222 0
M  V30 2025 C 197.072 0.493014 -1.53056 0
M  V30 2026 O 198.262 0.299213 -1.71611 0
M  V30 2027 C 195.394 0.47442 -3.37583 0
M  V30 2028 H 196.587 -1.21844 -2.74033 0
M  V30 2029 H 194.14 -0.669107 -1.41254 0
M  V30 2030 H 194.875 1.34489 -2.95099 0
M  V30 2031 H 194.66 -0.142615 -3.91841 0
M  V30 2032 H 196.15 0.83218 -4.09224 0
M  V30 2033 N 196.587 1.43421 -0.653314 0
M  V30 2034 C 197.998 1.85065 -0.246537 0
M  V30 2035 C 198.349 1.54688 1.2069 0
M  V30 2036 O 197.474 0.995896 1.92122 0
M  V30 2037 C 198.069 3.35922 -0.440666 0
M  V30 2038 C 196.628 3.76297 -0.0882064 0
M  V30 2039 C 195.775 2.67147 -0.743484 0
M  V30 2040 H 198.726 1.33572 -0.856979 0
M  V30 2041 H 198.747 3.79204 0.313798 0
M  V30 2042 H 198.259 3.58 -1.49858 0
M  V30 2043 H 196.36 3.5983 0.96711 0
M  V30 2044 H 196.473 4.76338 -0.513738 0
M  V30 2045 H 194.837 2.54086 -0.176712 0
M  V30 2046 H 195.62 2.92053 -1.80443 0
M  V30 2047 N 198.065 0.39524 1.52563 0
M  V30 2048 C 199.028 -0.425001 2.25225 0
M  V30 2049 C 200.028 -0.985266 1.27079 0
M  V30 2050 O 201.218 -0.866332 1.5113 0
M  V30 2051 C 198.35 -1.59686 3.01186 0
M  V30 2052 H 199.543 0.211233 2.99155 0
M  V30 2053 H 197.096 0.147472 1.55603 0
M  V30 2054 H 197.831 -2.27035 2.31572 0
M  V30 2055 H 197.616 -1.20176 3.73229 0
M  V30 2056 H 199.106 -2.17743 3.5634 0
M  V30 2057 N 199.544 -1.57102 0.125237 0
M  V30 2058 C 200.454 -2.19191 -0.8362 0
M  V30 2059 C 201.47 -1.16985 -1.28805 0
M  V30 2060 O 202.646 -1.49479 -1.34974 0
M  V30 2061 C 199.711 -2.78407 -2.06617 0
M  V30 2062 C 198.772 -3.9567 -1.66565 0
M  V30 2063 C 198.005 -4.52052 -2.83698 0
M  V30 2064 O 198.228 -4.07326 -3.99302 0
M  V30 2065 O 197.162 -5.42645 -2.60423 0
M  V30 2066 H 200.988 -3.01816 -0.337776 0
M  V30 2067 H 198.573 -1.4906 -0.100695 0
M  V30 2068 H 200.455 -3.16129 -2.7864 0
M  V30 2069 H 199.13 -1.9881 -2.55453 0
M  V30 2070 H 198.037 -3.62705 -0.916296 0
M  V30 2071 H 199.37 -4.76722 -1.22464 0
M  V30 2072 N 201.022 0.148545 -1.56898 0
M  V30 2073 C 202.299 0.890019 -1.74178 0
M  V30 2074 C 202.679 1.99407 -0.692839 0
M  V30 2075 O 202.027 2.26671 0.288505 0
M  V30 2076 C 202.237 1.43389 -3.18183 0
M  V30 2077 C 203.585 1.89791 -3.79822 0
M  V30 2078 O 204.609 1.53134 -3.21603 0
M  V30 2079 O 203.468 2.57387 -4.82093 0
M  V30 2080 H 200.562 0.420496 -0.712118 0
M  V30 2081 H 203.108 0.134591 -1.69165 0
M  V30 2082 H 201.88 0.640383 -3.86024 0
M  V30 2083 H 201.503 2.25287 -3.27615 0
M  V30 2084 N 202.5 1.5196 0.417844 0
M  V30 2085 C 203.432 1.70895 1.52733 0
M  V30 2086 C 204.445 0.589405 1.51756 0
M  V30 2087 O 205.634 0.864312 1.56179 0
M  V30 2088 C 202.734 1.72627 2.91639 0
M  V30 2089 C 201.907 3.01479 3.16905 0
M  V30 2090 C 200.966 2.95139 4.35637 0
M  V30 2091 O 199.992 3.69059 4.3334 0
M  V30 2092 N 201.194 2.12328 5.40275 0
M  V30 2093 H 203.959 2.66612 1.36888 0
M  V30 2094 H 201.52 1.50089 0.607037 0
M  V30 2095 H 203.512 1.65928 3.6912 0
M  V30 2096 H 202.082 0.844216 3.00985 0
M  V30 2097 H 201.302 3.21895 2.27546 0
M  V30 2098 H 202.59 3.86736 3.30625 0
M  V30 2099 H 201.988 1.51685 5.44985 0
M  V30 2100 H 200.545 2.11494 6.16534 0
M  V30 2101 N 203.978 -0.674533 1.42435 0
M  V30 2102 C 205.224 -1.43671 1.43131 0
M  V30 2103 C 205.557 -1.94142 0.0476021 0
M  V30 2104 O 204.832 -1.70924 -0.928188 0
M  V30 2105 C 205.115 -2.63355 2.45594 0
M  V30 2106 C 204.968 -2.18514 3.93156 0
M  V30 2107 C 206.287 -3.65571 2.45043 0
M  V30 2108 H 203.406 -0.521077 0.521198 0
M  V30 2109 H 206.048 -0.766551 1.7385 0
M  V30 2110 H 204.198 -3.2053 2.19528 0
M  V30 2111 H 205.87 -1.66504 4.30202 0
M  V30 2112 H 204.113 -1.50086 4.07009 0
M  V30 2113 H 204.784 -3.04484 4.60428 0
M  V30 2114 H 207.26 -3.18113 2.68223 0
M  V30 2115 H 206.136 -4.46893 3.18713 0
M  V30 2116 H 206.397 -4.16716 1.47649 0
M  V30 2117 N 205.456 -1.28612 -0.910864 0
M  V30 2118 C 206.419 -1.12803 -1.9952 0
M  V30 2119 C 207.419 -0.0668264 -1.60661 0
M  V30 2120 O 208.609 -0.312847 -1.71368 0
M  V30 2121 C 205.741 -0.72254 -3.33155 0
M  V30 2122 H 206.934 -2.09109 -2.14973 0
M  V30 2123 H 204.487 -1.11639 -1.09391 0
M  V30 2124 H 205.222 0.241152 -3.23402 0
M  V30 2125 H 205.007 -1.48916 -3.62721 0
M  V30 2126 H 206.497 -0.634666 -4.12749 0
M  V30 2127 N 206.934 1.1197 -1.10907 0
M  V30 2128 C 207.897 2.16031 -0.765707 0
M  V30 2129 C 208.897 1.59393 0.212235 0
M  V30 2130 O 210.087 1.74196 -0.0115441 0
M  V30 2131 C 207.219 3.40632 -0.135053 0
M  V30 2132 H 208.412 2.47919 -1.68748 0
M  V30 2133 H 205.965 1.27061 -0.910226 0
M  V30 2134 H 206.7 3.14348 0.797218 0
M  V30 2135 H 206.485 3.8302 -0.838937 0
M  V30 2136 H 207.975 4.17505 0.0892469 0
M  V30 2137 N 208.412 0.89855 1.29475 0
M  V30 2138 C 209.64 0.539261 1.99749 0
M  V30 2139 C 210.055 -0.875716 1.67262 0
M  V30 2140 O 209.412 -1.57786 0.917049 0
M  V30 2141 C 209.463 0.72061 3.54245 0
M  V30 2142 O 209.184 2.07989 3.8558 0
M  V30 2143 C 210.685 0.366118 4.41786 0
M  V30 2144 H 207.905 0.207047 0.638258 0
M  V30 2145 H 210.449 1.20758 1.65039 0
M  V30 2146 H 208.604 0.0994862 3.87272 0
M  V30 2147 H 209.018 2.10841 4.80257 0
M  V30 2148 H 210.492 0.543848 5.49314 0
M  V30 2149 H 210.969 -0.696763 4.33638 0
M  V30 2150 H 211.575 0.964135 4.14228 0
M  V30 2151 N 209.89 -1.43072 0.660911 0
M  V30 2152 C 211.301 -1.84932 0.256348 0
M  V30 2153 C 211.652 -1.55325 -1.19868 0
M  V30 2154 O 210.777 -1.00607 -1.91591 0
M  V30 2155 C 211.372 -3.35684 0.458475 0
M  V30 2156 C 209.931 -3.76245 0.108161 0
M  V30 2157 C 209.078 -2.66749 0.757641 0
M  V30 2158 H 212.029 -1.33116 0.864051 0
M  V30 2159 H 212.05 -3.79365 -0.293683 0
M  V30 2160 H 211.562 -3.572 1.51755 0
M  V30 2161 H 209.663 -3.60338 -0.948014 0
M  V30 2162 H 209.776 -4.76058 0.538992 0
M  V30 2163 H 208.14 -2.53989 0.190185 0
M  V30 2164 H 208.923 -2.91092 1.81989 0
M  V30 2165 N 211.368 -0.403325 -1.52352 0
M  V30 2166 C 212.298 0.416205 -2.29761 0
M  V30 2167 C 213.279 1.05123 -1.33728 0
M  V30 2168 O 214.464 1.06134 -1.62632 0
M  V30 2169 C 211.594 1.53624 -3.11475 0
M  V30 2170 C 210.548 1.02653 -4.15507 0
M  V30 2171 C 209.874 2.23971 -4.85532 0
M  V30 2172 C 211.174 0.08463 -5.22231 0
M  V30 2173 H 212.868 -0.229701 -2.98518 0
M  V30 2174 H 210.414 -0.111913 -1.43564 0
M  V30 2175 H 212.367 2.1165 -3.64393 0
M  V30 2176 H 211.091 2.20994 -2.40477 0
M  V30 2177 H 209.75 0.46871 -3.63591 0
M  V30 2178 H 209.398 2.89883 -4.11068 0
M  V30 2179 H 209.098 1.90521 -5.55856 0
M  V30 2180 H 210.622 2.82614 -5.41259 0
M  V30 2181 H 212.036 0.573509 -5.70424 0
M  V30 2182 H 210.433 -0.160783 -5.99885 0
M  V30 2183 H 211.503 -0.86237 -4.7717 0
M  V30 2184 N 212.846 1.57033 -0.133567 0
M  V30 2185 C 213.756 2.19632 0.824564 0
M  V30 2186 C 214.772 1.17666 1.28182 0
M  V30 2187 O 215.948 1.50193 1.3418 0
M  V30 2188 C 213.013 2.79499 2.05137 0
M  V30 2189 C 212.074 3.96548 1.64464 0
M  V30 2190 C 211.307 4.5355 2.81297 0
M  V30 2191 O 211.53 4.09438 3.97136 0
M  V30 2192 O 210.464 5.44018 2.57542 0
M  V30 2193 H 214.29 3.01991 0.321766 0
M  V30 2194 H 211.875 1.49112 0.0927889 0
M  V30 2195 H 213.757 3.17602 2.7696 0
M  V30 2196 H 212.432 2.00162 2.54395 0
M  V30 2197 H 211.339 3.63186 0.897048 0
M  V30 2198 H 212.672 4.77364 1.19934 0
M  V30 2199 N 214.325 -0.140222 1.56975 0
M  V30 2200 C 215.736 -0.699596 1.73097 0
M  V30 2201 C 216.087 -1.8134 0.749022 0
M  V30 2202 O 215.212 -2.16241 -0.0828503 0
M  V30 2203 C 215.807 -1.27582 3.1386 0
M  V30 2204 C 214.366 -1.78169 3.31561 0
M  V30 2205 C 213.513 -0.672855 2.69013 0
M  V30 2206 H 216.464 0.0855115 1.58469 0
M  V30 2207 H 216.485 -2.14561 3.14235 0
M  V30 2208 H 215.997 -0.464955 3.85305 0
M  V30 2209 H 214.098 -2.61801 2.65124 0
M  V30 2210 H 214.211 -1.90574 4.39566 0
M  V30 2211 H 212.575 -1.10118 2.29665 0
M  V30 2212 H 213.358 0.126679 3.43066 0
M  V30 2213 N 215.803 -1.52179 -0.40978 0
M  V30 2214 C 217.214 -1.58377 -0.988615 0
M  V30 2215 C 217.565 -0.423879 -1.91566 0
M  V30 2216 O 216.69 0.455844 -2.11544 0
M  V30 2217 C 217.285 -2.87044 -1.79976 0
M  V30 2218 C 215.844 -2.95722 -2.32863 0
M  V30 2219 C 214.991 -2.53309 -1.12828 0
M  V30 2220 H 217.942 -1.57558 -0.190039 0
M  V30 2221 H 217.963 -2.7236 -2.65707 0
M  V30 2222 H 217.475 -3.71444 -1.12478 0
M  V30 2223 H 215.576 -2.15814 -3.03735 0
M  V30 2224 H 215.689 -3.99951 -2.63773 0
M  V30 2225 H 214.053 -2.07142 -1.48204 0
M  V30 2226 H 214.836 -3.40082 -0.46897 0
M  V30 2227 N 217.281 0.66697 -1.42791 0
M  V30 2228 C 218.527 1.4291 -1.43891 0
M  V30 2229 C 218.86 1.94114 -0.0578972 0
M  V30 2230 O 218.135 1.71414 0.91911 0
M  V30 2231 C 218.418 2.62049 -2.46987 0
M  V30 2232 C 218.271 2.16426 -3.94309 0
M  V30 2233 C 219.59 3.64266 -2.46978 0
M  V30 2234 H 216.709 0.518306 -0.523954 0
M  V30 2235 H 219.351 0.757321 -1.74255 0
M  V30 2236 H 217.501 3.19361 -2.21225 0
M  V30 2237 H 219.173 1.64221 -4.31079 0
M  V30 2238 H 217.416 1.47925 -4.078 0
M  V30 2239 H 218.087 3.02038 -4.62036 0
M  V30 2240 H 220.563 3.16686 -2.69906 0
M  V30 2241 H 219.439 4.45196 -3.21079 0
M  V30 2242 H 219.7 4.15927 -1.49857 0
M  V30 2243 N 218.759 1.29093 0.90403 0
M  V30 2244 C 220.17 1.15186 1.46932 0
M  V30 2245 C 220.521 -0.254587 1.94541 0
M  V30 2246 O 219.646 -1.14972 1.83332 0
M  V30 2247 C 220.241 2.08492 2.67051 0
M  V30 2248 C 218.8 1.98621 3.19729 0
M  V30 2249 C 217.947 1.9967 1.92425 0
M  V30 2250 H 220.898 1.41641 0.715789 0
M  V30 2251 H 220.919 1.65461 3.42641 0
M  V30 2252 H 220.431 3.10847 2.3237 0
M  V30 2253 H 218.532 0.993389 3.59114 0
M  V30 2254 H 218.645 2.86068 3.8432 0
M  V30 2255 H 217.009 1.44208 2.09943 0
M  V30 2256 H 217.792 3.03721 1.60026 0
M  V30 2257 N 220.237 -1.11381 1.11499 0
M  V30 2258 C 221.653 -1.35143 0.849031 0
M  V30 2259 C 221.853 -1.94515 -0.525938 0
M  V30 2260 O 220.909 -2.1785 -1.27662 0
M  V30 2261 C 222.222 -2.28249 1.95762 0
M  V30 2262 C 223.77 -2.41812 1.98736 0
M  V30 2263 C 224.245 -3.3824 3.088 0
M  V30 2264 N 225.736 -3.45803 3.08179 0
M  V30 2265 C 226.471 -4.20358 3.89982 0
M  V30 2266 N 225.967 -4.97884 4.8175 0
M  V30 2267 N 227.76 -4.15877 3.78157 0
M  V30 2268 H 219.911 -0.712062 2.00109 0
M  V30 2269 H 222.174 -0.376025 0.870235 0
M  V30 2270 H 221.88 -1.91817 2.94787 0
M  V30 2271 H 221.754 -3.28473 1.85433 0
M  V30 2272 H 224.141 -2.77518 1.00338 0
M  V30 2273 H 224.222 -1.41437 2.13141 0
M  V30 2274 H 223.866 -3.03261 4.07425 0
M  V30 2275 H 223.796 -4.38471 2.91635 0
M  V30 2276 H 226.287 -2.90506 2.41691 0
M  V30 2277 H 226.6 -5.52142 5.40702 0
M  V30 2278 H 224.945 -4.97043 4.85771 0
M  V30 2279 H 228.136 -3.544 3.05808 0
M  V30 2280 H 228.309 -4.73723 4.42143 0
M  V30 2281 N 221.715 -0.905404 -1.28997 0
M  V30 2282 C 222.94 -0.549175 -1.99997 0
M  V30 2283 C 223.365 0.860276 -1.67275 0
M  V30 2284 O 222.723 1.57355 -0.900502 0
M  V30 2285 C 222.771 -0.755185 -3.52604 0
M  V30 2286 O 221.875 0.189692 -4.11964 0
M  V30 2287 H 221.216 -0.213899 -0.628604 0
M  V30 2288 H 223.746 -1.21856 -1.64354 0
M  V30 2289 H 223.756 -0.662045 -4.02593 0
M  V30 2290 H 222.431 -1.78271 -3.75755 0
M  V30 2291 H 221.008 0.0485257 -3.72868 0
M  V30 2292 N 223.193 1.4272 -0.668489 0
M  V30 2293 C 224.418 2.06484 -0.194758 0
M  V30 2294 C 224.843 1.49862 1.13679 0
M  V30 2295 O 224.201 0.614582 1.70565 0
M  V30 2296 C 224.249 3.60353 -0.133546 0
M  V30 2297 O 223.353 4.02464 0.899806 0
M  V30 2298 H 222.694 0.656137 -0.10188 0
M  V30 2299 H 225.224 1.82964 -0.915722 0
M  V30 2300 H 225.234 4.07976 0.0447041 0
M  V30 2301 H 223.909 4.00938 -1.1055 0
M  V30 2302 H 222.486 3.66402 0.693109 0
M  V30 2303 N 224.671 0.411399 1.52136 0
M  V30 2304 C 225.896 -0.165538 2.06738 0
M  V30 2305 C 226.321 -1.379 1.27926 0
M  V30 2306 O 225.679 -1.78628 0.310114 0
M  V30 2307 C 225.727 -0.492124 3.57226 0
M  V30 2308 O 224.831 -1.58276 3.80818 0
M  V30 2309 H 224.172 -0.0132132 0.663869 0
M  V30 2310 H 226.702 0.585253 1.96051 0
M  V30 2311 H 226.712 -0.750104 4.01045 0
M  V30 2312 H 225.387 0.394922 4.14021 0
M  V30 2313 H 223.964 -1.31677 3.48877 0
M  V30 2314 N 226.149 -1.5696 0.141893 0
M  V30 2315 C 227.374 -2.00754 -0.520838 0
M  V30 2316 C 227.799 -1.0213 -1.57959 0
M  V30 2317 O 227.157 0.00371324 -1.813 0
M  V30 2318 C 227.205 -3.43318 -1.10294 0
M  V30 2319 O 226.309 -3.47679 -2.21795 0
M  V30 2320 H 225.65 -0.651564 -0.127908 0
M  V30 2321 H 228.18 -2.03221 0.23712 0
M  V30 2322 H 228.19 -3.82012 -1.43287 0
M  V30 2323 H 226.865 -4.14608 -0.327574 0
M  V30 2324 H 225.442 -3.20824 -1.9007 0
M  V30 2325 N 227.627 0.131896 -1.57047 0
M  V30 2326 C 228.537 1.1815 -2.02676 0
M  V30 2327 C 229.553 1.46113 -0.944824 0
M  V30 2328 O 230.729 1.57485 -1.25541 0
M  V30 2329 C 227.794 2.49139 -2.41103 0
M  V30 2330 C 226.855 2.28688 -3.63318 0
M  V30 2331 C 226.088 3.53431 -3.99903 0
M  V30 2332 O 226.311 4.60223 -3.36973 0
M  V30 2333 O 225.245 3.45198 -4.93074 0
M  V30 2334 H 229.071 0.824069 -2.92306 0
M  V30 2335 H 226.656 0.341745 -1.45439 0
M  V30 2336 H 228.538 3.26338 -2.66611 0
M  V30 2337 H 227.213 2.84382 -1.54624 0
M  V30 2338 H 226.12 1.4939 -3.42977 0
M  V30 2339 H 227.453 1.98355 -4.50462 0
M  V30 2340 N 229.106 1.52395 0.401703 0
M  V30 2341 C 230.331 1.70972 1.17403 0
M  V30 2342 C 230.756 0.421615 1.83314 0
M  V30 2343 O 230.114 -0.621564 1.70312 0
M  V30 2344 C 230.162 2.85151 2.20728 0
M  V30 2345 O 229.266 2.51238 3.27037 0
M  V30 2346 H 228.607 0.568927 0.342372 0
M  V30 2347 H 231.137 1.99131 0.469891 0
M  V30 2348 H 231.147 3.10279 2.64936 0
M  V30 2349 H 229.822 3.78603 1.7214 0
M  V30 2350 H 228.399 2.36808 2.88057 0
M  V30 2351 N 230.584 -0.659388 1.43143 0
M  V30 2352 C 231.995 -1.24041 1.39537 0
M  V30 2353 C 232.346 -1.95963 0.0963364 0
M  V30 2354 O 231.471 -2.00892 -0.804438 0
M  V30 2355 C 232.066 -2.25601 2.52764 0
M  V30 2356 C 230.625 -2.79195 2.52443 0
M  V30 2357 C 229.772 -1.53743 2.30778 0
M  V30 2358 H 232.723 -0.451792 1.52133 0
M  V30 2359 H 232.744 -3.07651 2.23899 0
M  V30 2360 H 232.256 -1.73226 3.47296 0
M  V30 2361 H 230.357 -3.35649 1.61773 0
M  V30 2362 H 230.47 -3.2716 3.50004 0
M  V30 2363 H 228.834 -1.80869 1.79328 0
M  V30 2364 H 229.617 -1.03312 3.27386 0
M  V30 2365 N 232.062 -1.29571 -0.897171 0
M  V30 2366 C 233.308 -1.17863 -1.65034 0
M  V30 2367 C 233.641 0.268729 -1.92332 0
M  V30 2368 O 232.916 1.19378 -1.53555 0
M  V30 2369 C 233.199 -1.995 -2.99786 0
M  V30 2370 C 233.052 -3.5239 -2.79538 0
M  V30 2371 C 234.371 -1.82335 -4.00552 0
M  V30 2372 H 231.49 -0.429528 -0.598895 0
M  V30 2373 H 234.132 -1.59072 -1.03905 0
M  V30 2374 H 232.282 -1.64485 -3.51962 0
M  V30 2375 H 233.954 -3.97401 -2.34244 0
M  V30 2376 H 232.197 -3.77187 -2.14273 0
M  V30 2377 H 232.868 -4.04787 -3.75302 0
M  V30 2378 H 235.344 -2.12924 -3.57495 0
M  V30 2379 H 234.22 -2.41801 -4.92771 0
M  V30 2380 H 234.481 -0.779209 -4.35179 0
M  V30 2381 N 233.54 1.10788 -1.12088 0
M  V30 2382 C 234.786 1.82942 -0.875226 0
M  V30 2383 C 235.119 1.84779 0.597538 0
M  V30 2384 O 234.394 1.30578 1.44152 0
M  V30 2385 C 234.677 3.29789 -1.44606 0
M  V30 2386 C 234.53 3.36307 -2.98693 0
M  V30 2387 C 235.849 4.26064 -1.10261 0
M  V30 2388 H 232.968 0.664195 -0.319397 0
M  V30 2389 H 235.61 1.29867 -1.38689 0
M  V30 2390 H 233.76 3.75118 -1.01089 0
M  V30 2391 H 235.432 2.99487 -3.50864 0
M  V30 2392 H 233.675 2.76318 -3.34411 0
M  V30 2393 H 234.346 4.39694 -3.33726 0
M  V30 2394 H 236.822 3.88951 -1.4784 0
M  V30 2395 H 235.698 5.27183 -1.52869 0
M  V30 2396 H 235.959 4.42098 -0.0142953 0
M  V30 2397 N 235.018 0.912232 1.28515 0
M  V30 2398 C 236.248 0.559604 1.98877 0
M  V30 2399 C 236.656 -0.863113 1.68366 0
M  V30 2400 O 235.999 -1.58304 0.931969 0
M  V30 2401 C 236.061 0.68703 3.52874 0
M  V30 2402 C 235.725 2.07901 4.06972 0
M  V30 2403 C 236.722 3.05157 4.20922 0
M  V30 2404 C 234.407 2.39178 4.417 0
M  V30 2405 C 236.401 4.31806 4.68852 0
M  V30 2406 C 234.088 3.66068 4.89324 0
M  V30 2407 C 235.086 4.62195 5.02856 0
M  V30 2408 O 234.774 5.86829 5.49442 0
M  V30 2409 H 234.506 0.212191 0.641834 0
M  V30 2410 H 237.06 1.22712 1.64715 0
M  V30 2411 H 235.29 -0.0375486 3.86682 0
M  V30 2412 H 236.979 0.341727 4.04459 0
M  V30 2413 H 237.745 2.82311 3.94367 0
M  V30 2414 H 233.624 1.65109 4.30418 0
M  V30 2415 H 237.168 5.06842 4.79329 0
M  V30 2416 H 233.065 3.88739 5.15318 0
M  V30 2417 H 233.833 5.89597 5.6773 0
M  V30 2418 N 236.496 -1.42363 0.676048 0
M  V30 2419 C 237.426 -2.33497 0.0124832 0
M  V30 2420 C 238.407 -1.50748 -0.787981 0
M  V30 2421 O 239.592 -1.79346 -0.744884 0
M  V30 2422 C 236.722 -3.34377 -0.938582 0
M  V30 2423 C 235.676 -4.27289 -0.246622 0
M  V30 2424 C 235.002 -5.18386 -1.31071 0
M  V30 2425 C 236.302 -5.14916 0.875125 0
M  V30 2426 H 237.996 -2.89233 0.773593 0
M  V30 2427 H 235.542 -1.39073 0.37346 0
M  V30 2428 H 237.495 -3.97044 -1.41188 0
M  V30 2429 H 236.219 -2.76947 -1.73113 0
M  V30 2430 H 234.878 -3.66018 0.206456 0
M  V30 2431 H 234.526 -4.57282 -2.09528 0
M  V30 2432 H 234.226 -5.81378 -0.852839 0
M  V30 2433 H 235.75 -5.83929 -1.78492 0
M  V30 2434 H 237.164 -5.71262 0.482983 0
M  V30 2435 H 235.561 -5.86747 1.25887 0
M  V30 2436 H 236.631 -4.53242 1.72335 0
M  V30 2437 N 237.974 -0.419461 -1.51915 0
M  V30 2438 C 238.921 0.400927 -2.27291 0
M  V30 2439 C 239.891 1.03224 -1.30131 0
M  V30 2440 O 241.076 1.05455 -1.59009 0
M  V30 2441 C 238.216 1.50603 -3.10504 0
M  V30 2442 C 237.329 0.89462 -4.22635 0
M  V30 2443 C 236.464 1.97328 -4.93189 0
M  V30 2444 C 235.503 1.33935 -5.97267 0
M  V30 2445 N 234.64 2.3586 -6.61298 0
M  V30 2446 H 239.48 -0.248251 -2.96964 0
M  V30 2447 H 237.017 -0.134266 -1.46486 0
M  V30 2448 H 238.975 2.15783 -3.57062 0
M  V30 2449 H 237.605 2.12509 -2.42981 0
M  V30 2450 H 236.657 0.131583 -3.80172 0
M  V30 2451 H 237.969 0.391641 -4.9726 0
M  V30 2452 H 237.123 2.70211 -5.43204 0
M  V30 2453 H 235.862 2.50994 -4.18155 0
M  V30 2454 H 234.867 0.595896 -5.46561 0
M  V30 2455 H 236.092 0.810252 -6.74249 0
M  V30 2456 H 234.038 2.88639 -5.89087 0
M  V30 2457 H 233.955 1.90403 -7.3163 0
M  V30 2458 H 235.223 3.08282 -7.15949 0
M  V30 2459 N 239.452 1.56882 -0.150215 0
M  V30 2460 C 240.729 1.87844 0.545327 0
M  V30 2461 C 241.109 1.0567 1.82749 0
M  V30 2462 O 240.457 0.144442 2.28043 0
M  V30 2463 C 240.667 3.39526 0.80767 0
M  V30 2464 C 242.015 4.08814 1.14703 0
M  V30 2465 O 243.039 3.44723 0.896917 0
M  V30 2466 O 241.898 5.22004 1.61784 0
M  V30 2467 H 238.992 0.778677 0.278553 0
M  V30 2468 H 241.538 1.68666 -0.187068 0
M  V30 2469 H 240.31 3.91173 -0.0996096 0
M  V30 2470 H 239.933 3.64243 1.59413 0
M  V30 2471 N 240.93 -0.123565 1.57115 0
M  V30 2472 C 242.176 -0.833386 1.84885 0
M  V30 2473 C 242.509 -1.79742 0.735292 0
M  V30 2474 O 241.784 -1.92764 -0.25925 0
M  V30 2475 C 242.067 -1.5873 3.23228 0
M  V30 2476 C 241.92 -0.643183 4.45178 0
M  V30 2477 C 243.239 -2.54453 3.59085 0
M  V30 2478 H 240.358 -0.301518 0.6725 0
M  V30 2479 H 243 -0.097778 1.89748 0
M  V30 2480 H 241.15 -2.21438 3.19214 0
M  V30 2481 H 242.822 -0.0253015 4.61293 0
M  V30 2482 H 241.065 0.0456139 4.33776 0
M  V30 2483 H 241.736 -1.20724 5.38637 0
M  V30 2484 H 244.212 -2.01853 3.63861 0
M  V30 2485 H 243.088 -3.04238 4.5687 0
M  V30 2486 H 243.349 -3.36906 2.86264 0
M  V30 2487 N 242.408 -1.52605 -0.393616 0
M  V30 2488 C 243.654 -1.67672 -1.14079 0
M  V30 2489 C 243.987 -0.413121 -1.89755 0
M  V30 2490 O 243.262 0.588952 -1.85369 0
M  V30 2491 C 243.545 -2.9088 -2.12276 0
M  V30 2492 C 243.398 -4.27329 -1.40394 0
M  V30 2493 C 244.717 -3.09628 -3.12759 0
M  V30 2494 H 241.836 -0.610168 -0.413356 0
M  V30 2495 H 244.478 -1.85193 -0.424696 0
M  V30 2496 H 242.628 -2.76073 -2.73342 0
M  V30 2497 H 244.3 -4.53894 -0.82327 0
M  V30 2498 H 242.543 -4.2802 -0.705801 0
M  V30 2499 H 243.214 -5.09615 -2.12123 0
M  V30 2500 H 245.69 -3.23436 -2.61779 0
M  V30 2501 H 244.566 -3.97322 -3.78717 0
M  V30 2502 H 244.827 -2.23637 -3.81365 0
M  V30 2503 N 243.887 0.651787 -1.4349 0
M  V30 2504 C 245.127 1.42345 -1.46688 0
M  V30 2505 C 245.491 1.91793 -0.0891023 0
M  V30 2506 O 246.692 2.688 0.00423594 0
M  V30 2507 C 244.963 2.57221 -2.48137 0
M  V30 2508 S 246.522 3.45725 -2.70221 0
M  V30 2509 H 243.34 0.485878 -0.51908 0
M  V30 2510 H 245.942 0.756578 -1.80267 0
M  V30 2511 H 244.646 2.1917 -3.46976 0
M  V30 2512 H 244.177 3.28757 -2.16061 0
M  V30 2513 H 246.192 4.53996 -2.00255 0
M  V30 2514 N 245.365 1.30045 0.890287 0
M  V30 2515 C 246.595 1.21296 1.67245 0
M  V30 2516 C 247.003 -0.227471 1.87828 0
M  V30 2517 O 246.346 -1.16296 1.422 0
M  V30 2518 C 246.408 1.86519 3.07329 0
M  V30 2519 C 246.072 3.35837 3.09939 0
M  V30 2520 C 247.069 4.31915 2.89389 0
M  V30 2521 C 244.754 3.77196 3.31706 0
M  V30 2522 C 246.748 5.67325 2.90552 0
M  V30 2523 C 244.435 5.12725 3.32499 0
M  V30 2524 C 245.433 6.076 3.11947 0
M  V30 2525 O 245.121 7.40655 3.12547 0
M  V30 2526 H 244.853 0.4211 0.528821 0
M  V30 2527 H 247.407 1.72111 1.12103 0
M  V30 2528 H 245.637 1.30228 3.64112 0
M  V30 2529 H 247.326 1.71963 3.67673 0
M  V30 2530 H 248.092 4.01294 2.72375 0
M  V30 2531 H 243.971 3.03796 3.4674 0
M  V30 2532 H 247.515 6.41354 2.74429 0
M  V30 2533 H 243.412 5.42988 3.49047 0
M  V30 2534 H 244.18 7.49577 3.28749 0
M  V30 2535 N 246.843 -1.10192 1.12674 0
M  V30 2536 C 247.773 -2.18652 0.819362 0
M  V30 2537 C 248.754 -1.68698 -0.217915 0
M  V30 2538 O 249.939 -1.94041 -0.0785581 0
M  V30 2539 C 247.069 -3.46202 0.27594 0
M  V30 2540 C 246.023 -4.09444 1.24656 0
M  V30 2541 C 245.349 -5.31725 0.563258 0
M  V30 2542 C 246.649 -4.52863 2.60217 0
M  V30 2543 H 248.343 -2.44622 1.72628 0
M  V30 2544 H 245.889 -1.17571 0.831451 0
M  V30 2545 H 247.842 -4.21372 0.0486149 0
M  V30 2546 H 246.566 -3.1973 -0.666331 0
M  V30 2547 H 245.225 -3.36284 1.45974 0
M  V30 2548 H 244.873 -5.0153 -0.384235 0
M  V30 2549 H 244.573 -5.74991 1.21075 0
M  V30 2550 H 246.097 -6.09624 0.34503 0
M  V30 2551 H 247.511 -5.19294 2.42913 0
M  V30 2552 H 245.908 -5.06986 3.21068 0
M  V30 2553 H 246.978 -3.65656 3.18471 0
M  V30 2554 N 248.321 -0.919034 -1.28029 0
M  V30 2555 C 249.546 -0.570357 -1.99403 0
M  V30 2556 C 249.971 0.842486 -1.68178 0
M  V30 2557 O 249.329 1.56391 -0.917141 0
M  V30 2558 C 249.377 -0.792541 -3.51783 0
M  V30 2559 O 248.481 0.145988 -4.12142 0
M  V30 2560 H 247.822 -0.220555 -0.6263 0
M  V30 2561 H 250.352 -1.23592 -1.63053 0
M  V30 2562 H 250.362 -0.704708 -4.01868 0
M  V30 2563 H 249.037 -1.82247 -3.73844 0
M  V30 2564 H 247.614 0.00897528 -3.72899 0
M  V30 2565 N 249.799 1.42003 -0.683588 0
M  V30 2566 C 250.729 2.33487 -0.024866 0
M  V30 2567 C 251.71 1.51163 0.779975 0
M  V30 2568 O 252.895 1.79739 0.735362 0
M  V30 2569 C 250.025 3.3487 0.920836 0
M  V30 2570 C 248.979 4.27414 0.223958 0
M  V30 2571 C 248.305 5.19074 1.2832 0
M  V30 2572 C 249.605 5.14445 -0.90242 0
M  V30 2573 H 251.299 2.88819 -0.788921 0
M  V30 2574 H 248.845 1.38873 -0.38083 0
M  V30 2575 H 250.798 3.97787 1.39081 0
M  V30 2576 H 249.522 2.77861 1.71642 0
M  V30 2577 H 248.181 3.65904 -0.225864 0
M  V30 2578 H 247.829 4.58387 2.071 0
M  V30 2579 H 247.529 5.81822 0.821995 0
M  V30 2580 H 249.053 5.84867 1.75392 0
M  V30 2581 H 250.467 5.70998 -0.513272 0
M  V30 2582 H 248.864 5.86072 -1.28997 0
M  V30 2583 H 249.934 4.52322 -1.74737 0
M  V30 2584 N 251.277 0.427512 1.51691 0
M  V30 2585 C 252.207 -0.3796 2.30394 0
M  V30 2586 C 253.188 -1.02982 1.35384 0
M  V30 2587 O 254.373 -1.03534 1.643 0
M  V30 2588 C 251.503 -1.48649 3.1388 0
M  V30 2589 C 250.457 -0.960294 4.17088 0
M  V30 2590 C 249.783 -2.16219 4.89033 0
M  V30 2591 C 251.083 -0.00153679 5.223 0
M  V30 2592 H 252.777 0.277164 2.98114 0
M  V30 2593 H 250.323 0.134739 1.43368 0
M  V30 2594 H 252.276 -2.05826 3.67714 0
M  V30 2595 H 251 -2.1714 2.43962 0
M  V30 2596 H 249.659 -0.410806 3.64291 0
M  V30 2597 H 249.307 -2.83307 4.15628 0
M  V30 2598 H 249.007 -1.81654 5.58816 0
M  V30 2599 H 250.531 -2.73968 5.45687 0
M  V30 2600 H 251.945 -0.482687 5.71264 0
M  V30 2601 H 250.342 0.256199 5.99553 0
M  V30 2602 H 251.412 0.938174 4.75738 0
M  V30 2603 N 252.755 -1.56801 0.158532 0
M  V30 2604 C 253.665 -2.20916 -0.789518 0
M  V30 2605 C 254.681 -1.1969 -1.26294 0
M  V30 2606 O 255.857 -1.52308 -1.31773 0
M  V30 2607 C 252.922 -2.82727 -2.00665 0
M  V30 2608 C 251.983 -3.99114 -1.58134 0
M  V30 2609 C 251.216 -4.57968 -2.74045 0
M  V30 2610 O 251.439 -4.15704 -3.90572 0
M  V30 2611 O 250.373 -5.48047 -2.48855 0
M  V30 2612 H 254.199 -3.02464 -0.273681 0
M  V30 2613 H 251.784 -1.4924 -0.0690548 0
M  V30 2614 H 253.666 -3.21968 -2.71872 0
M  V30 2615 H 252.341 -2.04184 -2.51179 0
M  V30 2616 H 251.248 -3.64567 -0.839155 0
M  V30 2617 H 252.581 -4.79212 -1.12325 0
M  V30 2618 N 254.233 0.115231 -1.57178 0
M  V30 2619 C 255.461 0.836437 -1.89239 0
M  V30 2620 C 255.876 1.73256 -0.750175 0
M  V30 2621 O 255.233 1.80357 0.278832 0
M  V30 2622 C 255.284 1.66671 -3.20785 0
M  V30 2623 O 255.005 0.806652 -4.3061 0
M  V30 2624 C 256.506 2.49274 -3.66575 0
M  V30 2625 H 253.726 0.240253 -0.626514 0
M  V30 2626 H 256.27 0.0984932 -2.04263 0
M  V30 2627 H 254.425 2.35737 -3.0742 0
M  V30 2628 H 254.839 1.37969 -5.06028 0
M  V30 2629 H 256.313 3.03055 -4.6137 0
M  V30 2630 H 256.79 3.26807 -2.93417 0
M  V30 2631 H 257.396 1.85443 -3.82741 0
M  V30 2632 N 255.711 1.52812 0.385517 0
M  V30 2633 C 256.959 1.67694 1.12797 0
M  V30 2634 C 257.28 0.421115 1.90399 0
M  V30 2635 O 256.55 -0.564551 1.87589 0
M  V30 2636 H 255.13 0.618155 0.419396 0
M  V30 2637 H 257.792 1.89938 0.436972 0
M  V30 2638 H 256.888 2.52896 1.82894 0
M  V30 2639 N 257.189 -0.644168 1.43834 0
M  V30 2640 C 258.605 -0.960875 1.27434 0
M  V30 2641 C 258.805 -2.00499 0.200618 0
M  V30 2642 O 257.861 -2.49018 -0.417906 0
M  V30 2643 C 259.174 -1.43653 2.64167 0
M  V30 2644 C 260.722 -1.55271 2.71772 0
M  V30 2645 C 261.197 -2.06224 4.08944 0
M  V30 2646 N 262.688 -2.13513 4.11055 0
M  V30 2647 C 263.423 -2.54081 5.14033 0
M  V30 2648 N 262.919 -2.9388 6.27381 0
M  V30 2649 N 264.712 -2.54101 5.01387 0
M  V30 2650 H 256.863 0.0465779 2.12349 0
M  V30 2651 H 259.126 -0.0417638 0.94708 0
M  V30 2652 H 258.832 -0.743706 3.43747 0
M  V30 2653 H 258.706 -2.40993 2.90176 0
M  V30 2654 H 261.093 -2.23653 1.92519 0
M  V30 2655 H 261.174 -0.563395 2.49519 0
M  V30 2656 H 260.818 -1.38441 4.88668 0
M  V30 2657 H 260.748 -3.06003 4.28567 0
M  V30 2658 H 263.239 -1.85493 3.29242 0
M  V30 2659 H 263.552 -3.2361 7.01781 0
M  V30 2660 H 261.897 -2.91663 6.30839 0
M  V30 2661 H 265.088 -2.22391 4.11898 0
M  V30 2662 H 265.261 -2.85394 5.81768 0
M  V30 2663 N 258.668 -1.30515 -0.883378 0
M  V30 2664 C 260.079 -1.17509 -1.45081 0
M  V30 2665 C 260.43 0.223605 -1.94922 0
M  V30 2666 O 259.555 1.12041 -1.85137 0
M  V30 2667 C 260.15 -2.12715 -2.63701 0
M  V30 2668 C 258.709 -2.03682 -3.16529 0
M  V30 2669 C 257.856 -2.02706 -1.89224 0
M  V30 2670 H 260.807 -1.42762 -0.693165 0
M  V30 2671 H 260.828 -1.70891 -3.39965 0
M  V30 2672 H 260.34 -3.14505 -2.27395 0
M  V30 2673 H 258.441 -1.05039 -3.57488 0
M  V30 2674 H 258.554 -2.92146 -3.7972 0
M  V30 2675 H 256.918 -1.4753 -2.07622 0
M  V30 2676 H 257.701 -3.06229 -1.55174 0
M  V30 2677 N 260.146 1.09593 -1.13257 0
M  V30 2678 C 261.078 2.16015 -0.766167 0
M  V30 2679 C 262.091 1.61423 0.211303 0
M  V30 2680 O 263.28 1.78498 -0.00863946 0
M  V30 2681 C 260.38 3.38706 -0.114662 0
M  V30 2682 C 259.553 4.22717 -1.12379 0
M  V30 2683 C 258.612 5.23835 -0.498301 0
M  V30 2684 O 257.638 5.573 -1.15781 0
M  V30 2685 N 258.84 5.75886 0.730417 0
M  V30 2686 H 261.605 2.48055 -1.68193 0
M  V30 2687 H 259.166 1.25292 -1.02535 0
M  V30 2688 H 261.158 4.03464 0.315991 0
M  V30 2689 H 259.728 3.04569 0.704011 0
M  V30 2690 H 258.948 3.54122 -1.73179 0
M  V30 2691 H 260.236 4.75673 -1.80589 0
M  V30 2692 H 259.634 5.50911 1.28504 0
M  V30 2693 H 258.191 6.42387 1.10376 0
M  V30 2694 N 261.624 0.925811 1.2754 0
M  V30 2695 C 262.901 0.483726 1.89524 0
M  V30 2696 C 263.281 -1.03809 1.83812 0
M  V30 2697 O 262.629 -1.89143 1.28207 0
M  V30 2698 C 262.839 1.02769 3.33526 0
M  V30 2699 C 264.187 1.08703 4.10449 0
M  V30 2700 O 265.211 0.977175 3.42534 0
M  V30 2701 O 264.07 1.25599 5.31871 0
M  V30 2702 H 261.164 0.15529 0.812289 0
M  V30 2703 H 263.71 1.01738 1.35822 0
M  V30 2704 H 262.482 2.07155 3.31967 0
M  V30 2705 H 262.105 0.475567 3.94746 0
M  V30 2706 N 263.102 -1.41638 0.69111 0
M  V30 2707 C 264.049 -2.30789 0.0229705 0
M  V30 2708 C 265.019 -1.46863 -0.775911 0
M  V30 2709 O 266.204 -1.75661 -0.74485 0
M  V30 2710 C 263.344 -3.32868 -0.910666 0
M  V30 2711 C 262.457 -4.31875 -0.103874 0
M  V30 2712 C 261.592 -5.21024 -1.03475 0
M  V30 2713 C 260.631 -6.11702 -0.220598 0
M  V30 2714 N 259.768 -6.93349 -1.10504 0
M  V30 2715 H 264.608 -2.87366 0.788978 0
M  V30 2716 H 262.145 -1.41535 0.400794 0
M  V30 2717 H 264.103 -3.90596 -1.46597 0
M  V30 2718 H 262.733 -2.77851 -1.64312 0
M  V30 2719 H 261.785 -3.76131 0.568285 0
M  V30 2720 H 263.097 -4.96003 0.527504 0
M  V30 2721 H 262.251 -5.83565 -1.65943 0
M  V30 2722 H 260.99 -4.57112 -1.69999 0
M  V30 2723 H 259.995 -5.48215 0.417187 0
M  V30 2724 H 261.22 -6.77668 0.440784 0
M  V30 2725 H 259.166 -6.3205 -1.75638 0
M  V30 2726 H 259.083 -7.54146 -0.529125 0
M  V30 2727 H 260.351 -7.60362 -1.71667 0
M  V30 2728 N 264.58 -0.43555 -1.51462 0
M  V30 2729 C 265.51 0.367376 -2.30592 0
M  V30 2730 C 266.491 1.02263 -1.35928 0
M  V30 2731 O 267.676 1.02661 -1.64847 0
M  V30 2732 C 264.806 1.46983 -3.14664 0
M  V30 2733 C 263.76 0.938161 -4.17591 0
M  V30 2734 C 263.086 2.13622 -4.90173 0
M  V30 2735 C 264.386 -0.0261621 -5.22293 0
M  V30 2736 H 266.08 -0.292969 -2.97963 0
M  V30 2737 H 263.626 -0.14234 -1.43295 0
M  V30 2738 H 265.579 2.03873 -3.688 0
M  V30 2739 H 264.303 2.15843 -2.4511 0
M  V30 2740 H 262.962 0.391481 -3.64504 0
M  V30 2741 H 262.61 2.81098 -4.17124 0
M  V30 2742 H 262.31 1.78688 -5.59772 0
M  V30 2743 H 263.834 2.7107 -5.47132 0
M  V30 2744 H 265.248 0.452384 -5.71512 0
M  V30 2745 H 263.645 -0.287992 -5.99409 0
M  V30 2746 H 264.715 -0.963391 -4.75233 0
M  V30 2747 N 266.058 1.56714 -0.166846 0
M  V30 2748 C 266.968 2.21331 0.777791 0
M  V30 2749 C 267.984 1.20358 1.25658 0
M  V30 2750 O 269.16 1.53005 1.30964 0
M  V30 2751 C 266.225 2.83787 1.99163 0
M  V30 2752 C 265.286 3.99947 1.56016 0
M  V30 2753 C 264.519 4.59415 2.71613 0
M  V30 2754 O 264.742 4.17769 3.88362 0
M  V30 2755 O 263.676 5.49359 2.45945 0
M  V30 2756 H 267.502 3.02605 0.257636 0
M  V30 2757 H 265.087 1.49275 0.0611393 0
M  V30 2758 H 266.969 3.23405 2.70161 0
M  V30 2759 H 265.644 2.05513 2.50092 0
M  V30 2760 H 264.551 3.65007 0.819809 0
M  V30 2761 H 265.884 4.79801 1.09782 0
M  V30 2762 N 267.536 -0.106894 1.57237 0
M  V30 2763 C 268.783 -0.812526 1.85484 0
M  V30 2764 C 269.111 -1.79304 0.753687 0
M  V30 2765 O 268.366 -1.94047 -0.253853 0
M  V30 2766 C 268.665 -1.58628 3.20268 0
M  V30 2767 C 268.331 -0.748967 4.44636 0
M  V30 2768 C 266.993 -0.518104 4.78403 0
M  V30 2769 C 269.345 -0.166122 5.20935 0
M  V30 2770 C 266.673 0.305659 5.85903 0
M  V30 2771 C 269.025 0.644899 6.29304 0
M  V30 2772 C 267.689 0.885965 6.61594 0
M  V30 2773 H 266.959 -0.297324 0.678734 0
M  V30 2774 H 269.606 -0.0744332 1.91355 0
M  V30 2775 H 267.911 -2.39562 3.10028 0
M  V30 2776 H 269.608 -2.13643 3.39349 0
M  V30 2777 H 266.198 -0.939006 4.18187 0
M  V30 2778 H 270.382 -0.33167 4.95191 0
M  V30 2779 H 265.638 0.501528 6.0934 0
M  V30 2780 H 269.812 1.10345 6.87602 0
M  V30 2781 H 267.439 1.52609 7.44725 0
M  V30 2782 N 269.014 -1.53014 -0.377408 0
M  V30 2783 C 269.947 -1.73382 -1.48371 0
M  V30 2784 C 270.925 -0.581879 -1.51832 0
M  V30 2785 O 272.109 -0.81307 -1.70063 0
M  V30 2786 C 269.236 -1.80192 -2.8679 0
M  V30 2787 C 268.282 -3.02056 -3.01105 0
M  V30 2788 S 269.115 -4.61811 -2.71093 0
M  V30 2789 C 270.271 -4.71453 -4.11683 0
M  V30 2790 H 270.504 -2.66946 -1.30872 0
M  V30 2791 H 268.037 -1.43453 -0.571012 0
M  V30 2792 H 269.995 -1.84802 -3.6655 0
M  V30 2793 H 268.656 -0.877008 -3.01608 0
M  V30 2794 H 267.849 -3.03396 -4.02451 0
M  V30 2795 H 267.451 -2.95498 -2.29253 0
M  V30 2796 H 269.743 -4.50781 -5.0577 0
M  V30 2797 H 270.686 -5.73487 -4.15353 0
M  V30 2798 H 271.094 -4.00189 -3.98132 0
M  V30 2799 N 270.492 0.636531 -1.44174 0
M  V30 2800 C 271.739 1.39619 -1.46672 0
M  V30 2801 C 272.067 1.94257 -0.0972691 0
M  V30 2802 O 271.322 1.73768 0.900175 0
M  V30 2803 C 271.621 2.58309 -2.47005 0
M  V30 2804 C 271.287 2.21992 -3.92467 0
M  V30 2805 C 269.949 2.118 -4.32081 0
M  V30 2806 C 272.301 1.9321 -4.84065 0
M  V30 2807 C 269.629 1.71007 -5.61225 0
M  V30 2808 C 271.981 1.53911 -6.13591 0
M  V30 2809 C 270.645 1.42257 -6.52165 0
M  V30 2810 H 269.915 0.510902 -0.536712 0
M  V30 2811 H 272.562 0.722328 -1.77355 0
M  V30 2812 H 270.867 3.30903 -2.09786 0
M  V30 2813 H 272.564 3.16533 -2.46186 0
M  V30 2814 H 269.154 2.30841 -3.61124 0
M  V30 2815 H 273.338 1.99997 -4.54219 0
M  V30 2816 H 268.594 1.60583 -5.89935 0
M  V30 2817 H 272.768 1.30677 -6.8403 0
M  V30 2818 H 270.395 1.10419 -7.52138 0
M  V30 2819 N 271.97 1.30982 0.876444 0
M  V30 2820 C 273.386 1.09498 1.16113 0
M  V30 2821 C 273.586 -0.13875 2.01022 0
M  V30 2822 O 272.642 -0.829935 2.38471 0
M  V30 2823 C 273.955 2.36308 1.85954 0
M  V30 2824 C 275.503 2.41856 1.98683 0
M  V30 2825 C 275.978 3.6853 2.71937 0
M  V30 2826 N 277.469 3.69387 2.79477 0
M  V30 2827 C 278.204 4.64096 3.36753 0
M  V30 2828 N 277.7 5.69155 3.95012 0
M  V30 2829 N 279.493 4.51626 3.3465 0
M  V30 2830 H 271.644 2.10118 0.310494 0
M  V30 2831 H 273.907 0.926634 0.200131 0
M  V30 2832 H 273.613 3.26388 1.31011 0
M  V30 2833 H 273.487 2.4561 2.86278 0
M  V30 2834 H 275.874 1.52249 2.52793 0
M  V30 2835 H 275.955 2.36523 0.9742 0
M  V30 2836 H 275.599 4.58499 2.18496 0
M  V30 2837 H 275.529 3.71127 3.73593 0
M  V30 2838 H 278.02 2.93438 2.38123 0
M  V30 2839 H 278.333 6.3751 4.36808 0
M  V30 2840 H 276.678 5.72937 3.93406 0
M  V30 2841 H 279.869 3.68728 2.8837 0
M  V30 2842 H 280.042 5.25614 3.7899 0
M  V30 2843 N 273.449 -1.08991 1.13837 0
M  V30 2844 C 274.379 -2.17771 0.842507 0
M  V30 2845 C 275.36 -1.6892 -0.20001 0
M  V30 2846 O 276.545 -1.94113 -0.0579731 0
M  V30 2847 C 273.675 -3.4589 0.312644 0
M  V30 2848 C 272.629 -4.08099 1.28992 0
M  V30 2849 C 271.955 -5.31098 0.619623 0
M  V30 2850 C 273.255 -4.50077 2.65005 0
M  V30 2851 H 274.949 -2.42777 1.75213 0
M  V30 2852 H 272.495 -1.16682 0.843875 0
M  V30 2853 H 274.448 -4.21297 0.0933043 0
M  V30 2854 H 273.172 -3.20419 -0.632382 0
M  V30 2855 H 271.831 -3.34717 1.49533 0
M  V30 2856 H 271.479 -5.0191 -0.33102 0
M  V30 2857 H 271.179 -5.73674 1.27167 0
M  V30 2858 H 272.703 -6.09224 0.409669 0
M  V30 2859 H 274.117 -5.16688 2.48407 0
M  V30 2860 H 272.514 -5.03553 3.26427 0
M  V30 2861 H 273.584 -3.62257 3.22332 0
M  V30 2862 N 274.927 -0.932562 -1.27047 0
M  V30 2863 C 276.157 -0.591173 -1.97961 0
M  V30 2864 C 276.565 0.836219 -1.69717 0
M  V30 2865 O 275.908 1.56801 -0.957036 0
M  V30 2866 C 275.97 -0.743082 -3.51736 0
M  V30 2867 C 275.634 -2.1435 -4.03613 0
M  V30 2868 C 276.631 -3.11815 -4.16014 0
M  V30 2869 C 274.316 -2.46175 -4.37839 0
M  V30 2870 C 276.31 -4.39211 -4.61923 0
M  V30 2871 C 273.997 -3.73806 -4.83438 0
M  V30 2872 C 274.995 -4.70137 -4.95439 0
M  V30 2873 O 274.683 -5.95496 -5.40037 0
M  V30 2874 H 274.415 -0.222375 -0.638377 0
M  V30 2875 H 276.969 -1.25317 -1.62742 0
M  V30 2876 H 275.199 -0.0239739 -3.86693 0
M  V30 2877 H 276.888 -0.40603 -4.03864 0
M  V30 2878 H 277.654 -2.88549 -3.89826 0
M  V30 2879 H 273.533 -1.71936 -4.27737 0
M  V30 2880 H 277.077 -5.14404 -4.71205 0
M  V30 2881 H 272.974 -3.96888 -5.09068 0
M  V30 2882 H 273.742 -5.98554 -5.58279 0
M  V30 2883 N 276.405 1.4127 -0.698611 0
M  V30 2884 C 277.682 1.94955 -0.158762 0
M  V30 2885 C 278.062 1.63781 1.33188 0
M  V30 2886 O 277.41 0.946423 2.07979 0
M  V30 2887 C 277.62 3.46044 -0.453309 0
M  V30 2888 C 278.968 4.22872 -0.382707 0
M  V30 2889 O 279.992 3.54076 -0.388396 0
M  V30 2890 O 278.851 5.45407 -0.345463 0
M  V30 2891 H 275.945 0.82683 -0.0167505 0
M  V30 2892 H 278.491 1.50971 -0.77498 0
M  V30 2893 H 277.263 3.62028 -1.48498 0
M  V30 2894 H 276.886 3.97128 0.19373 0
M  V30 2895 N 277.883 0.443576 1.51229 0
M  V30 2896 C 279.108 -0.121648 2.07043 0
M  V30 2897 C 279.533 -1.35156 1.30823 0
M  V30 2898 O 278.891 -1.7793 0.347934 0
M  V30 2899 C 278.939 -0.41624 3.5819 0
M  V30 2900 O 278.043 -1.50163 3.8409 0
M  V30 2901 H 277.384 0.000871367 0.663999 0
M  V30 2902 H 279.914 0.626706 1.94765 0
M  V30 2903 H 279.924 -0.664867 4.02546 0
M  V30 2904 H 278.599 0.482653 4.1309 0
M  V30 2905 H 277.176 -1.24248 3.51592 0
M  V30 2906 N 279.361 -1.56624 0.175154 0
M  V30 2907 C 280.638 -1.88688 -0.515373 0
M  V30 2908 C 281.018 -1.08564 -1.81044 0
M  V30 2909 O 280.366 -0.180703 -2.27784 0
M  V30 2910 C 280.576 -3.40768 -0.753552 0
M  V30 2911 C 281.924 -4.10587 -1.08184 0
M  V30 2912 O 282.948 -3.46106 -0.841961 0
M  V30 2913 O 281.807 -5.24512 -1.53459 0
M  V30 2914 H 278.901 -0.78301 -0.26613 0
M  V30 2915 H 281.447 -1.68347 0.213877 0
M  V30 2916 H 280.219 -3.90965 0.161829 0
M  V30 2917 H 279.842 -3.66733 -1.53598 0
M  V30 2918 N 280.839 0.0985539 -1.57292 0
M  V30 2919 C 281.749 1.13824 -2.05137 0
M  V30 2920 C 282.765 1.44076 -0.975604 0
M  V30 2921 O 283.941 1.54786 -1.28853 0
M  V30 2922 C 281.006 2.43969 -2.46333 0
M  V30 2923 C 280.067 2.2093 -3.68087 0
M  V30 2924 C 279.3 3.44869 -4.0731 0
M  V30 2925 O 279.523 4.52972 -3.46659 0
M  V30 2926 O 278.457 3.34661 -5.00285 0
M  V30 2927 H 282.283 0.761881 -2.93988 0
M  V30 2928 H 279.868 0.310818 -1.46131 0
M  V30 2929 H 281.75 3.20609 -2.73473 0
M  V30 2930 H 280.425 2.81038 -1.60621 0
M  V30 2931 H 279.332 1.42081 -3.46069 0
M  V30 2932 H 280.665 1.88755 -4.54568 0
M  V30 2933 N 282.317 1.53212 0.369288 0
M  V30 2934 C 283.265 1.80054 1.47253 0
M  V30 2935 C 284.259 0.669456 1.55611 0
M  V30 2936 O 285.465 0.852328 1.58541 0
M  V30 2937 H 281.84 0.570034 0.490475 0
M  V30 2938 H 283.811 2.72403 1.21817 0
M  V30 2939 C 282.56 2.00403 2.84137 0
M  V30 2940 H 281.883 2.86876 2.78464 0
M  V30 2941 H 283.323 2.23164 3.60519 0
M  V30 2942 C 281.782 0.782081 3.27697 0
M  V30 2943 O 282.312 -0.0310205 4.01688 0
M  V30 2944 N 280.518 0.606573 2.84199 0
M  V30 2945 H 280.065 1.26939 2.24152 0
M  V30 2946 H 280.023 -0.20962 3.137 0
M  V30 2947 N 283.795 -0.628877 1.44509 0
M  V30 2948 C 285.043 -1.38565 1.4712 0
M  V30 2949 C 285.364 -1.94712 0.105899 0
M  V30 2950 O 284.634 -1.75912 -0.862079 0
M  V30 2951 H 283.214 -0.514333 0.541729 0
M  V30 2952 H 285.876 -0.740018 1.80305 0
M  V30 2953 H 284.972 -2.21583 2.19789 0
M  V30 2954 N 285.273 -1.31445 -0.869486 0
M  V30 2955 C 286.203 -1.21727 -1.99261 0
M  V30 2956 C 287.184 -0.104359 -1.6978 0
M  V30 2957 O 288.369 -0.289038 -1.92037 0
M  V30 2958 C 285.499 -0.924317 -3.34774 0
M  V30 2959 C 284.453 -1.99685 -3.78563 0
M  V30 2960 C 283.779 -1.55658 -5.11541 0
M  V30 2961 C 285.079 -3.41003 -3.95619 0
M  V30 2962 H 286.773 -2.1569 -2.07649 0
M  V30 2963 H 284.319 -1.03839 -0.997675 0
M  V30 2964 H 286.272 -0.842934 -4.12883 0
M  V30 2965 H 284.996 0.0509793 -3.2656 0
M  V30 2966 H 283.655 -2.06813 -3.02694 0
M  V30 2967 H 283.303 -0.569132 -4.9977 0
M  V30 2968 H 283.003 -2.27409 -5.41811 0
M  V30 2969 H 284.527 -1.48928 -5.92159 0
M  V30 2970 H 285.941 -3.36547 -4.64122 0
M  V30 2971 H 284.338 -4.10975 -4.37286 0
M  V30 2972 H 285.408 -3.81754 -2.98985 0
M  V30 2973 N 286.751 1.08385 -1.14413 0
M  V30 2974 C 287.681 2.17321 -0.854044 0
M  V30 2975 C 288.662 1.69024 0.191049 0
M  V30 2976 O 289.847 1.94141 0.0476779 0
M  V30 2977 C 286.977 3.45719 -0.330983 0
M  V30 2978 C 285.931 4.07409 -1.31155 0
M  V30 2979 C 285.257 5.30762 -0.64778 0
M  V30 2980 C 286.557 4.48665 -2.67388 0
M  V30 2981 H 288.251 2.41845 -1.76498 0
M  V30 2982 H 285.797 1.16233 -0.850051 0
M  V30 2983 H 287.75 4.21241 -0.115645 0
M  V30 2984 H 286.474 3.2075 0.615381 0
M  V30 2985 H 285.133 3.33919 -1.51306 0
M  V30 2986 H 284.781 5.02078 0.304398 0
M  V30 2987 H 284.481 5.72992 -1.30207 0
M  V30 2988 H 286.005 6.08998 -0.441972 0
M  V30 2989 H 287.419 5.15364 -2.51143 0
M  V30 2990 H 285.816 5.01814 -3.29093 0
M  V30 2991 H 286.886 3.60543 -3.24248 0
M  V30 2992 N 288.23 0.939286 1.26551 0
M  V30 2993 C 289.507 0.5038 1.89001 0
M  V30 2994 C 289.887 -1.01854 1.84903 0
M  V30 2995 O 289.235 -1.87773 1.30206 0
M  V30 2996 C 289.445 1.063 3.32417 0
M  V30 2997 C 290.793 1.13051 4.09273 0
M  V30 2998 O 291.817 1.01345 3.41479 0
M  V30 2999 O 290.676 1.31233 5.30509 0
M  V30 3000 H 287.77 0.163897 0.810597 0
M  V30 3001 H 290.316 1.03173 1.34735 0
M  V30 3002 H 289.088 2.10665 3.29752 0
M  V30 3003 H 288.711 0.517408 3.94219 0
M  V30 3004 N 289.708 -1.40897 0.706093 0
M  V30 3005 C 290.64 -2.29199 0.00815776 0
M  V30 3006 C 291.653 -1.45336 -0.733582 0
M  V30 3007 O 292.842 -1.68727 -0.582537 0
M  V30 3008 C 289.942 -3.23417 -1.01265 0
M  V30 3009 C 289.115 -4.36089 -0.338387 0
M  V30 3010 C 288.174 -5.10811 -1.26326 0
M  V30 3011 O 287.2 -5.64215 -0.751651 0
M  V30 3012 N 288.402 -5.19269 -2.595 0
M  V30 3013 H 291.167 -2.89738 0.766297 0
M  V30 3014 H 288.728 -1.52164 0.55296 0
M  V30 3015 H 290.72 -3.70276 -1.63334 0
M  V30 3016 H 289.29 -2.64112 -1.67223 0
M  V30 3017 H 288.51 -3.91479 0.462352 0
M  V30 3018 H 289.798 -5.08634 0.130031 0
M  V30 3019 H 289.196 -4.77347 -3.03573 0
M  V30 3020 H 287.753 -5.69667 -3.16737 0
M  V30 3021 N 291.186 -0.45159 -1.50991 0
M  V30 3022 C 292.149 0.341117 -2.26647 0
M  V30 3023 C 293.149 0.937422 -1.30649 0
M  V30 3024 O 294.339 0.809644 -1.54241 0
M  V30 3025 C 291.471 1.48398 -3.06905 0
M  V30 3026 H 292.664 -0.322117 -2.98165 0
M  V30 3027 H 290.217 -0.205122 -1.54948 0
M  V30 3028 H 290.952 2.18284 -2.39838 0
M  V30 3029 H 290.737 1.06241 -3.77432 0
M  V30 3030 H 292.227 2.04367 -3.64176 0
M  V30 3031 N 292.664 1.56529 -0.183458 0
M  V30 3032 C 293.574 2.22144 0.754272 0
M  V30 3033 C 294.59 1.21684 1.24374 0
M  V30 3034 O 295.766 1.54385 1.29333 0
M  V30 3035 C 292.831 2.85884 1.96141 0
M  V30 3036 C 291.892 4.01579 1.51765 0
M  V30 3037 C 291.125 4.6227 2.66725 0
M  V30 3038 O 291.348 4.21865 3.83909 0
M  V30 3039 O 290.282 5.51936 2.40104 0
M  V30 3040 H 294.108 3.02861 0.225527 0
M  V30 3041 H 291.693 1.49331 0.0453032 0
M  V30 3042 H 293.575 3.26253 2.66715 0
M  V30 3043 H 292.25 2.08154 2.47899 0
M  V30 3044 H 291.157 3.65856 0.781049 0
M  V30 3045 H 292.49 4.80938 1.04686 0
M  V30 3046 N 294.142 -0.090211 1.57342 0
M  V30 3047 C 295.075 -1.14035 1.97664 0
M  V30 3048 C 296.053 -1.38576 0.850616 0
M  V30 3049 O 297.237 -1.52255 1.11134 0
M  V30 3050 C 294.364 -2.48854 2.2976 0
M  V30 3051 C 293.41 -2.40564 3.52181 0
M  V30 3052 S 294.243 -1.81745 5.03715 0
M  V30 3053 C 295.399 -3.18178 5.38993 0
M  V30 3054 H 295.632 -0.796636 2.86428 0
M  V30 3055 H 293.165 -0.298072 1.51496 0
M  V30 3056 H 295.123 -3.26413 2.48927 0
M  V30 3057 H 293.784 -2.80393 1.41558 0
M  V30 3058 H 292.977 -3.39942 3.72096 0
M  V30 3059 H 292.579 -1.71135 3.32549 0
M  V30 3060 H 294.871 -4.14461 5.35937 0
M  V30 3061 H 295.814 -3.03062 6.39968 0
M  V30 3062 H 296.222 -3.17935 4.66452 0
M  V30 3063 N 295.62 -1.53406 -0.361157 0
M  V30 3064 C 296.897 -1.60411 -1.11927 0
M  V30 3065 C 297.277 -0.414385 -2.06993 0
M  V30 3066 O 296.625 0.594976 -2.20618 0
M  V30 3067 C 296.835 -2.95652 -1.85448 0
M  V30 3068 C 298.183 -3.50386 -2.39823 0
M  V30 3069 O 299.207 -2.97711 -1.95568 0
M  V30 3070 O 298.066 -4.42482 -3.20737 0
M  V30 3071 H 295.16 -0.64811 -0.513695 0
M  V30 3072 H 297.706 -1.65749 -0.364065 0
M  V30 3073 H 296.478 -3.73682 -1.16091 0
M  V30 3074 H 296.101 -2.93825 -2.67866 0
M  V30 3075 N 297.098 0.621204 -1.44841 0
M  V30 3076 C 298.338 1.39201 -1.49674 0
M  V30 3077 C 298.702 1.91561 -0.129764 0
M  V30 3078 O 299.903 2.68748 -0.0527814 0
M  V30 3079 C 298.174 2.519 -2.53537 0
M  V30 3080 S 299.733 3.39916 -2.77494 0
M  V30 3081 H 296.551 0.474758 -0.529269 0
M  V30 3082 H 299.153 0.718171 -1.81831 0
M  V30 3083 H 297.857 2.11761 -3.51547 0
M  V30 3084 H 297.388 3.241 -2.22986 0
M  V30 3085 H 299.403 4.49646 -2.0984 0
M  V30 3086 N 298.576 1.31904 0.862503 0
M  V30 3087 C 299.825 1.21373 1.61094 0
M  V30 3088 C 300.138 -0.22504 1.94301 0
M  V30 3089 O 301.344 -0.452121 2.67709 0
M  V30 3090 C 299.8 2.12525 2.9045 0
M  V30 3091 C 299.408 3.61441 2.64697 0
M  V30 3092 C 301.152 2.10813 3.68454 0
M  V30 3093 C 299.059 4.44578 3.90006 0
M  V30 3094 H 297.989 0.450705 0.604468 0
M  V30 3095 H 300.64 1.56811 0.953027 0
M  V30 3096 H 299.022 1.69994 3.57656 0
M  V30 3097 H 300.196 4.12264 2.05851 0
M  V30 3098 H 298.511 3.65205 2.00036 0
M  V30 3099 H 301.108 2.70167 4.61426 0
M  V30 3100 H 301.451 1.09713 4.01583 0
M  V30 3101 H 301.984 2.51583 3.08141 0
M  V30 3102 H 298.723 5.46461 3.62023 0
M  V30 3103 H 298.243 3.98508 4.48276 0
M  V30 3104 H 299.922 4.57176 4.5782 0
M  V30 3105 N 300.054 -1.07777 1.14986 0
M  V30 3106 C 301.3 -1.80557 0.923422 0
M  V30 3107 C 301.633 -1.86298 -0.548337 0
M  V30 3108 O 300.908 -1.34354 -1.40639 0
M  V30 3109 C 301.191 -3.25839 1.53299 0
M  V30 3110 C 301.044 -3.28269 3.07505 0
M  V30 3111 C 302.363 -4.22991 1.21518 0
M  V30 3112 H 299.482 -0.655493 0.336894 0
M  V30 3113 H 302.124 -1.26144 1.42083 0
M  V30 3114 H 300.274 -3.72306 1.10999 0
M  V30 3115 H 301.946 -2.90079 3.58681 0
M  V30 3116 H 300.189 -2.67355 3.4162 0
M  V30 3117 H 300.86 -4.30691 3.45266 0
M  V30 3118 H 303.336 -3.84894 1.581 0
M  V30 3119 H 302.212 -5.22945 1.66793 0
M  V30 3120 H 302.473 -4.41904 0.131505 0
M  V30 3121 N 301.532 -0.945985 -1.26051 0
M  V30 3122 C 302.48 -0.450259 -2.282 0
M  V30 3123 C 303.474 0.47497 -1.62605 0
M  V30 3124 O 304.68 0.352653 -1.76512 0
M  V30 3125 H 301.055 -0.127081 -0.741184 0
M  V30 3126 H 303.026 -1.32422 -2.67408 0
M  V30 3127 C 301.775 0.26467 -3.46691 0
M  V30 3128 H 301.098 -0.438123 -3.97392 0
M  V30 3129 H 302.538 0.575678 -4.20074 0
M  V30 3130 C 300.997 1.48416 -3.02447 0
M  V30 3131 O 301.527 2.58227 -3.07704 0
M  V30 3132 N 299.733 1.34243 -2.57735 0
M  V30 3133 H 299.28 0.448994 -2.53657 0
M  V30 3134 H 299.238 2.15957 -2.28495 0
M  V30 3135 N 303.011 1.40521 -0.713556 0
M  V30 3136 C 303.943 2.29191 -0.0203126 0
M  V30 3137 C 304.956 1.45723 0.725864 0
M  V30 3138 O 306.145 1.69033 0.573581 0
M  V30 3139 C 303.245 3.2395 0.995486 0
M  V30 3140 C 302.418 4.36262 0.315256 0
M  V30 3141 C 301.477 5.11474 1.23616 0
M  V30 3142 O 300.503 5.64606 0.721719 0
M  V30 3143 N 301.705 5.20638 2.56743 0
M  V30 3144 H 304.47 2.89327 -0.781652 0
M  V30 3145 H 302.031 1.51869 -0.561022 0
M  V30 3146 H 304.023 3.71137 1.61368 0
M  V30 3147 H 302.593 2.64995 1.6582 0
M  V30 3148 H 301.813 3.91228 -0.483106 0
M  V30 3149 H 303.101 5.08558 -0.157004 0
M  V30 3150 H 302.499 4.7895 3.01037 0
M  V30 3151 H 301.056 5.71339 3.13712 0
M  V30 3152 N 304.489 0.459591 1.5075 0
M  V30 3153 C 305.422 -0.386257 2.24907 0
M  V30 3154 C 306.4 -1.006 1.27744 0
M  V30 3155 O 307.584 -1.04416 1.56938 0
M  V30 3156 C 304.711 -1.54021 3.01654 0
M  V30 3157 C 303.757 -1.03898 4.13651 0
M  V30 3158 S 304.59 0.0370501 5.35487 0
M  V30 3159 C 305.746 -1.12105 6.15779 0
M  V30 3160 H 305.979 0.243272 2.96303 0
M  V30 3161 H 303.512 0.244339 1.52454 0
M  V30 3162 H 305.47 -2.20163 3.46466 0
M  V30 3163 H 304.131 -2.14121 2.29806 0
M  V30 3164 H 303.324 -1.90254 4.66711 0
M  V30 3165 H 302.926 -0.45545 3.71216 0
M  V30 3166 H 305.218 -2.03501 6.46215 0
M  V30 3167 H 306.161 -0.62995 7.05292 0
M  V30 3168 H 306.569 -1.36967 5.47631 0
M  V30 3169 N 305.967 -1.56429 0.191757 0
M  V30 3170 C 306.897 -2.21937 -0.725696 0
M  V30 3171 C 307.878 -1.1814 -1.2238 0
M  V30 3172 O 309.063 -1.46636 -1.27325 0
M  V30 3173 C 306.193 -2.87611 -1.94672 0
M  V30 3174 C 305.147 -3.97623 -1.58366 0
M  V30 3175 C 304.473 -4.50446 -2.88102 0
M  V30 3176 C 305.773 -5.16197 -0.796133 0
M  V30 3177 H 307.467 -2.98861 -0.179606 0
M  V30 3178 H 305.013 -1.43749 -0.0849464 0
M  V30 3179 H 306.966 -3.3212 -2.59373 0
M  V30 3180 H 305.69 -2.08087 -2.51728 0
M  V30 3181 H 304.349 -3.53801 -0.960247 0
M  V30 3182 H 303.997 -3.67688 -3.43241 0
M  V30 3183 H 303.697 -5.24675 -2.64556 0
M  V30 3184 H 305.221 -4.97654 -3.53798 0
M  V30 3185 H 306.635 -5.57271 -1.34618 0
M  V30 3186 H 305.032 -5.96471 -0.658928 0
M  V30 3187 H 306.102 -4.84473 0.203478 0
M  V30 3188 N 307.445 0.0818655 -1.57387 0
M  V30 3189 C 308.395 1.10501 -1.99433 0
M  V30 3190 C 309.379 1.35041 -0.874798 0
M  V30 3191 O 310.571 1.35511 -1.13868 0
M  V30 3192 C 307.7 2.42159 -2.43339 0
M  V30 3193 C 306.786 2.20937 -3.62005 0
M  V30 3194 N 307.177 1.69616 -4.76512 0
M  V30 3195 C 305.475 2.51451 -3.68359 0
M  V30 3196 C 306.176 1.62973 -5.58404 0
M  V30 3197 N 305.152 2.08664 -5.01956 0
M  V30 3198 H 308.954 0.701373 -2.85408 0
M  V30 3199 H 306.468 0.289096 -1.59806 0
M  V30 3200 H 308.465 3.16208 -2.71695 0
M  V30 3201 H 307.125 2.83249 -1.58746 0
M  V30 3202 H 308.136 1.38624 -4.99003 0
M  V30 3203 H 304.813 2.95975 -2.94457 0
M  V30 3204 H 306.203 1.24233 -6.60315 0
M  V30 3205 N 308.923 1.53595 0.353017 0
M  V30 3206 C 310.172 1.69603 1.09168 0
M  V30 3207 C 310.485 0.460925 1.90092 0
M  V30 3208 O 311.691 0.501774 2.66823 0
M  V30 3209 C 310.147 2.99872 1.9901 0
M  V30 3210 C 309.755 4.30687 1.23339 0
M  V30 3211 C 311.499 3.25246 2.72792 0
M  V30 3212 C 309.406 5.52036 2.12156 0
M  V30 3213 H 308.336 0.631966 0.411261 0
M  V30 3214 H 310.987 1.80096 0.351802 0
M  V30 3215 H 309.369 2.83212 2.7678 0
M  V30 3216 H 310.543 4.58019 0.505456 0
M  V30 3217 H 308.858 4.11853 0.613663 0
M  V30 3218 H 311.455 4.13095 3.39495 0
M  V30 3219 H 311.798 2.41846 3.38846 0
M  V30 3220 H 312.331 3.42638 2.021 0
M  V30 3221 H 309.07 6.37951 1.50659 0
M  V30 3222 H 308.59 5.28966 2.82764 0
M  V30 3223 H 310.269 5.87313 2.71427 0
M  V30 3224 N 310.401 -0.613514 1.45168 0
M  V30 3225 C 311.364 -1.7065 1.53007 0
M  V30 3226 C 312.364 -1.5548 0.410184 0
M  V30 3227 O 313.554 -1.60656 0.673455 0
M  V30 3228 C 310.686 -3.09875 1.42093 0
M  V30 3229 H 311.879 -1.65068 2.50385 0
M  V30 3230 H 309.432 -0.828728 1.32521 0
M  V30 3231 H 310.167 -3.21039 0.458769 0
M  V30 3232 H 309.952 -3.22293 2.23315 0
M  V30 3233 H 311.442 -3.895 1.50598 0
M  V30 3234 N 311.879 -1.3236 -0.855495 0
M  V30 3235 C 312.811 -1.17052 -1.97057 0
M  V30 3236 C 313.824 -0.10574 -1.62456 0
M  V30 3237 O 315.013 -0.354619 -1.74942 0
M  V30 3238 C 312.113 -0.769305 -3.30053 0
M  V30 3239 C 311.286 -1.9222 -3.929 0
M  V30 3240 C 310.345 -1.50466 -5.04228 0
M  V30 3241 O 309.371 -2.21655 -5.24269 0
M  V30 3242 N 310.573 -0.400209 -5.79119 0
M  V30 3243 H 313.338 -2.13103 -2.1073 0
M  V30 3244 H 310.899 -1.24885 -1.0303 0
M  V30 3245 H 312.891 -0.472407 -4.01933 0
M  V30 3246 H 311.461 0.100025 -3.1244 0
M  V30 3247 H 310.681 -2.38563 -3.13817 0
M  V30 3248 H 311.969 -2.69403 -4.31624 0
M  V30 3249 H 311.367 0.192319 -5.65373 0
M  V30 3250 H 309.924 -0.162912 -6.51596 0
M  V30 3251 N 313.357 1.07166 -1.15556 0
M  V30 3252 C 314.587 1.83248 -0.954133 0
M  V30 3253 C 314.995 1.82449 0.500911 0
M  V30 3254 O 314.338 1.23575 1.35923 0
M  V30 3255 C 314.4 3.31393 -1.39351 0
M  V30 3256 C 314.064 3.5591 -2.86666 0
M  V30 3257 C 315.061 3.49695 -3.8472 0
M  V30 3258 C 312.746 3.83515 -3.24379 0
M  V30 3259 C 314.74 3.70737 -5.18491 0
M  V30 3260 C 312.427 4.04209 -4.58321 0
M  V30 3261 C 313.425 3.97815 -5.55186 0
M  V30 3262 O 313.113 4.17954 -6.86709 0
M  V30 3263 H 312.845 0.584941 -0.338851 0
M  V30 3264 H 315.399 1.36169 -1.53777 0
M  V30 3265 H 313.629 3.79292 -0.75329 0
M  V30 3266 H 315.318 3.88945 -1.16089 0
M  V30 3267 H 316.084 3.28368 -3.56931 0
M  V30 3268 H 311.963 3.87605 -2.49567 0
M  V30 3269 H 315.507 3.65663 -5.94085 0
M  V30 3270 H 311.404 4.25023 -4.85825 0
M  V30 3271 H 312.172 4.35291 -6.93155 0
M  V30 3272 N 314.835 0.952656 1.25548 0
M  V30 3273 C 315.765 0.489287 2.28316 0
M  V30 3274 C 316.746 -0.463359 1.63667 0
M  V30 3275 O 317.931 -0.36274 1.90782 0
M  V30 3276 C 315.061 -0.235603 3.465 0
M  V30 3277 C 314.015 0.631593 4.23314 0
M  V30 3278 C 313.341 -0.223923 5.34231 0
M  V30 3279 C 314.641 1.90871 4.86174 0
M  V30 3280 H 316.335 1.34822 2.67326 0
M  V30 3281 H 313.881 0.649728 1.28509 0
M  V30 3282 H 315.834 -0.570882 4.17515 0
M  V30 3283 H 314.558 -1.12877 3.06474 0
M  V30 3284 H 313.217 0.949929 3.54079 0
M  V30 3285 H 312.865 -1.11678 4.90446 0
M  V30 3286 H 312.565 0.35299 5.86539 0
M  V30 3287 H 314.089 -0.554214 6.0808 0
M  V30 3288 H 315.503 1.63997 5.49343 0
M  V30 3289 H 313.9 2.43112 5.4865 0
M  V30 3290 H 314.97 2.61304 4.08471 0
M  V30 3291 N 316.313 -1.40141 0.720998 0
M  V30 3292 C 317.223 -2.34486 0.0731031 0
M  V30 3293 C 318.239 -1.57587 -0.737723 0
M  V30 3294 O 319.415 -1.89949 -0.669429 0
M  V30 3295 C 316.48 -3.36528 -0.833656 0
M  V30 3296 C 315.541 -4.29298 -0.0121673 0
M  V30 3297 C 314.774 -5.26466 -0.875742 0
M  V30 3298 O 314.997 -5.29745 -2.11485 0
M  V30 3299 O 313.931 -6.01092 -0.31185 0
M  V30 3300 H 317.757 -2.9152 0.851444 0
M  V30 3301 H 315.342 -1.41427 0.481527 0
M  V30 3302 H 317.224 -3.99093 -1.35289 0
M  V30 3303 H 315.899 -2.81899 -1.59105 0
M  V30 3304 H 314.806 -3.70001 0.552262 0
M  V30 3305 H 316.139 -4.87094 0.707129 0
M  V30 3306 N 317.792 -0.46758 -1.50504 0
M  V30 3307 C 319.038 0.0808869 -2.03239 0
M  V30 3308 C 319.393 1.37721 -1.34353 0
M  V30 3309 O 318.686 1.86016 -0.459194 0
M  V30 3310 C 318.88 0.323995 -3.55928 0
M  V30 3311 C 318.709 -0.947215 -4.39611 0
M  V30 3312 C 317.479 -1.48951 -4.82848 0
M  V30 3313 C 319.677 -1.84166 -4.80195 0
M  V30 3314 N 317.659 -2.71011 -5.50842 0
M  V30 3315 C 319.03 -2.90815 -5.47564 0
M  V30 3316 C 321.085 -1.85246 -4.62156 0
M  V30 3317 C 319.788 -3.98529 -5.98805 0
M  V30 3318 C 321.814 -2.91914 -5.14335 0
M  V30 3319 C 321.176 -3.97282 -5.81676 0
M  V30 3320 H 317.275 -0.0103394 -0.781932 0
M  V30 3321 H 319.859 -0.635003 -1.84054 0
M  V30 3322 H 318.03 1.00892 -3.75067 0
M  V30 3323 H 319.762 0.866492 -3.95315 0
M  V30 3324 H 316.517 -1.03918 -4.62058 0
M  V30 3325 H 316.941 -3.32988 -5.89447 0
M  V30 3326 H 321.583 -1.05103 -4.09528 0
M  V30 3327 H 319.301 -4.79491 -6.50472 0
M  V30 3328 H 322.887 -2.93729 -5.0221 0
M  V30 3329 H 321.767 -4.78462 -6.21324 0
M  V30 3330 N 319.27 1.56325 -0.20005 0
M  V30 3331 C 320.547 1.89484 0.48529 0
M  V30 3332 C 320.927 1.1143 1.79294 0
M  V30 3333 O 320.275 0.216919 2.27468 0
M  V30 3334 C 320.485 3.41923 0.699243 0
M  V30 3335 C 321.833 4.12256 1.01638 0
M  V30 3336 O 322.857 3.47402 0.786792 0
M  V30 3337 O 321.716 5.26887 1.45095 0
M  V30 3338 H 318.81 0.787144 0.253639 0
M  V30 3339 H 321.356 1.67985 -0.240633 0
M  V30 3340 H 320.128 3.90658 -0.224008 0
M  V30 3341 H 319.751 3.69131 1.47744 0
M  V30 3342 N 320.748 -0.0735177 1.57428 0
M  V30 3343 C 322.159 -0.625551 1.75908 0
M  V30 3344 C 322.51 -1.78 0.825261 0
M  V30 3345 O 321.635 -2.16398 0.00893964 0
M  V30 3346 C 322.23 -1.14155 3.18989 0
M  V30 3347 C 320.789 -1.63946 3.38819 0
M  V30 3348 C 319.936 -0.558151 2.71625 0
M  V30 3349 H 322.887 0.152647 1.57964 0
M  V30 3350 H 322.908 -2.0104 3.23053 0
M  V30 3351 H 322.42 -0.301116 3.8693 0
M  V30 3352 H 320.521 -2.50321 2.7599 0
M  V30 3353 H 320.634 -1.71759 4.47253 0
M  V30 3354 H 318.998 -1.00278 2.34129 0
M  V30 3355 H 319.781 0.272071 3.4222 0
M  V30 3356 N 322.226 -1.5378 -0.344866 0
M  V30 3357 C 323.454 -1.74899 -1.10534 0
M  V30 3358 C 323.869 -0.487534 -1.82397 0
M  V30 3359 O 323.226 0.540741 -1.74305 0
M  V30 3360 C 323.277 -2.92822 -2.11984 0
M  V30 3361 O 322.998 -4.14089 -1.43044 0
M  V30 3362 C 324.499 -3.25982 -3.00417 0
M  V30 3363 H 321.719 -0.584426 -0.329678 0
M  V30 3364 H 324.263 -2.006 -0.397474 0
M  V30 3365 H 322.418 -2.69457 -2.78338 0
M  V30 3366 H 322.832 -4.80272 -2.10805 0
M  V30 3367 H 324.306 -4.11848 -3.67539 0
M  V30 3368 H 324.783 -2.42228 -3.66363 0
M  V30 3369 H 325.389 -3.51349 -2.39654 0
M  V30 3370 N 323.704 0.605807 -1.45491 0
M  V30 3371 C 324.614 1.74466 -1.56839 0
M  V30 3372 C 325.63 1.68006 -0.452772 0
M  V30 3373 O 326.806 1.8833 -0.713708 0
M  V30 3374 C 323.871 3.10931 -1.53371 0
M  V30 3375 C 322.932 3.28832 -2.75986 0
M  V30 3376 C 322.165 4.58787 -2.72673 0
M  V30 3377 O 322.388 5.4122 -1.80102 0
M  V30 3378 O 321.322 4.79438 -3.63899 0
M  V30 3379 H 325.148 1.67843 -2.53106 0
M  V30 3380 H 322.733 0.770108 -1.28022 0
M  V30 3381 H 324.615 3.92233 -1.54051 0
M  V30 3382 H 323.29 3.18042 -0.602572 0
M  V30 3383 H 322.197 2.47112 -2.80867 0
M  V30 3384 H 323.53 3.26599 -3.68231 0
M  V30 3385 N 325.182 1.32811 0.848464 0
M  V30 3386 C 326.112 1.24882 1.97299 0
M  V30 3387 C 327.093 0.131357 1.69592 0
M  V30 3388 O 328.278 0.319553 1.91553 0
M  V30 3389 C 325.408 0.97746 3.33261 0
M  V30 3390 C 324.362 2.05682 3.75338 0
M  V30 3391 C 323.688 1.63777 5.09 0
M  V30 3392 C 324.988 3.47254 3.90144 0
M  V30 3393 H 326.682 2.18966 2.04191 0
M  V30 3394 H 324.228 1.05413 0.981029 0
M  V30 3395 H 326.181 0.908513 4.1149 0
M  V30 3396 H 324.905 0.000980011 3.266 0
M  V30 3397 H 323.564 2.11603 2.99366 0
M  V30 3398 H 323.212 0.648569 4.98801 0
M  V30 3399 H 322.912 2.36 5.38124 0
M  V30 3400 H 324.436 1.5833 5.89715 0
M  V30 3401 H 325.85 3.43888 4.58709 0
M  V30 3402 H 324.247 4.1788 4.30693 0
M  V30 3403 H 325.317 3.86462 2.92874 0
M  V30 3404 N 326.66 -1.06551 1.16123 0
M  V30 3405 C 328.076 -1.3142 0.905585 0
M  V30 3406 C 328.276 -1.96571 -0.442964 0
M  V30 3407 O 327.332 -2.23068 -1.18308 0
M  V30 3408 C 328.645 -2.19741 2.05267 0
M  V30 3409 C 330.193 -2.33165 2.08813 0
M  V30 3410 C 330.668 -3.24838 3.22868 0
M  V30 3411 N 332.159 -3.32421 3.22568 0
M  V30 3412 C 332.894 -4.0344 4.0746 0
M  V30 3413 N 332.39 -4.77003 5.02434 0
M  V30 3414 N 334.183 -3.99464 3.95456 0
M  V30 3415 H 326.334 -0.626548 2.02949 0
M  V30 3416 H 328.597 -0.338777 0.8854 0
M  V30 3417 H 328.303 -1.79142 3.02657 0
M  V30 3418 H 328.177 -3.20313 1.99198 0
M  V30 3419 H 330.564 -2.73013 1.12018 0
M  V30 3420 H 330.645 -1.3227 2.18948 0
M  V30 3421 H 330.289 -2.85708 4.19921 0
M  V30 3422 H 330.219 -4.25707 3.0997 0
M  V30 3423 H 332.71 -2.79994 2.53795 0
M  V30 3424 H 333.023 -5.28712 5.63634 0
M  V30 3425 H 331.368 -4.75992 5.06415 0
M  V30 3426 H 334.559 -3.4111 3.20564 0
M  V30 3427 H 334.732 -4.54544 4.61837 0
M  V30 3428 N 328.138 -0.959301 -1.25041 0
M  V30 3429 C 329.549 -0.65667 -1.74771 0
M  V30 3430 C 329.9 0.827852 -1.77879 0
M  V30 3431 O 329.025 1.64783 -1.40269 0
M  V30 3432 C 329.62 -1.1853 -3.1739 0
M  V30 3433 C 328.179 -0.932734 -3.6466 0
M  V30 3434 C 327.326 -1.32558 -2.43564 0
M  V30 3435 H 330.277 -1.13558 -1.10862 0
M  V30 3436 H 330.298 -0.547582 -3.76539 0
M  V30 3437 H 329.81 -2.26576 -3.15095 0
M  V30 3438 H 327.911 0.13257 -3.72364 0
M  V30 3439 H 328.024 -1.57248 -4.52559 0
M  V30 3440 H 326.388 -0.743956 -2.43593 0
M  V30 3441 H 327.171 -2.41537 -2.43957 0
M  V30 3442 N 329.616 1.39756 -0.72842 0
M  V30 3443 C 330.865 1.99879 -0.270407 0
M  V30 3444 C 331.178 1.58449 1.14688 0
M  V30 3445 O 332.384 2.11362 1.70407 0
M  V30 3446 C 330.84 3.57292 -0.43252 0
M  V30 3447 C 330.448 4.07688 -1.85727 0
M  V30 3448 C 332.192 4.24485 -0.0359507 0
M  V30 3449 C 330.099 5.5765 -1.96928 0
M  V30 3450 H 329.029 0.747689 -0.0973472 0
M  V30 3451 H 331.68 1.59837 -0.901355 0
M  V30 3452 H 330.062 3.95097 0.267219 0
M  V30 3453 H 331.236 3.81231 -2.58843 0
M  V30 3454 H 329.551 3.53135 -2.20646 0
M  V30 3455 H 332.148 5.34609 -0.0987484 0
M  V30 3456 H 332.491 4.03915 1.00787 0
M  V30 3457 H 333.024 3.9183 -0.686604 0
M  V30 3458 H 329.763 5.8309 -2.99476 0
M  V30 3459 H 329.283 5.8593 -1.28241 0
M  V30 3460 H 330.962 6.22957 -1.74737 0
M  V30 3461 N 331.094 0.475555 1.50254 0
M  V30 3462 C 332.024 -0.30611 2.31485 0
M  V30 3463 C 333.005 -0.986228 1.38591 0
M  V30 3464 O 334.19 -0.982541 1.67511 0
M  V30 3465 C 331.32 -1.38588 3.1845 0
M  V30 3466 C 330.274 -0.827115 4.19932 0
M  V30 3467 C 329.6 -2.00551 4.95665 0
M  V30 3468 C 330.9 0.16463 5.2204 0
M  V30 3469 H 332.594 0.371866 2.97082 0
M  V30 3470 H 330.14 0.180282 1.42867 0
M  V30 3471 H 332.093 -1.94023 3.74076 0
M  V30 3472 H 330.817 -2.09269 2.50747 0
M  V30 3473 H 329.476 -0.294702 3.65414 0
M  V30 3474 H 329.124 -2.6994 4.2443 0
M  V30 3475 H 328.824 -1.63784 5.64313 0
M  V30 3476 H 330.348 -2.56468 5.54127 0
M  V30 3477 H 331.762 -0.300699 5.72511 0
M  V30 3478 H 330.159 0.446813 5.98434 0
M  V30 3479 H 331.229 1.08905 4.72512 0
M  V30 3480 N 332.573 -1.56217 0.208337 0
M  V30 3481 C 333.52 -2.19699 -0.707192 0
M  V30 3482 C 334.49 -1.14836 -1.20008 0
M  V30 3483 O 335.675 -1.4314 -1.26157 0
M  V30 3484 C 332.815 -2.87061 -1.91546 0
M  V30 3485 C 331.928 -4.06483 -1.46271 0
M  V30 3486 C 331.063 -4.61665 -2.62752 0
M  V30 3487 C 330.102 -5.73417 -2.14147 0
M  V30 3488 N 329.239 -6.22948 -3.23853 0
M  V30 3489 H 334.079 -2.97575 -0.159111 0
M  V30 3490 H 331.616 -1.46948 -0.0667874 0
M  V30 3491 H 333.574 -3.24294 -2.62468 0
M  V30 3492 H 332.204 -2.11725 -2.43664 0
M  V30 3493 H 331.256 -3.74825 -0.648886 0
M  V30 3494 H 332.568 -4.87271 -1.06622 0
M  V30 3495 H 331.722 -5.01272 -3.41776 0
M  V30 3496 H 330.461 -3.80013 -3.05682 0
M  V30 3497 H 329.466 -5.33326 -1.33581 0
M  V30 3498 H 330.691 -6.56897 -1.72232 0
M  V30 3499 H 328.637 -5.44213 -3.6629 0
M  V30 3500 H 328.554 -6.98823 -2.88414 0
M  V30 3501 H 329.822 -6.6721 -4.03052 0
M  V30 3502 N 334.051 0.0651679 -1.57465 0
M  V30 3503 C 334.961 1.09448 -2.07505 0
M  V30 3504 C 335.977 1.41974 -1.00595 0
M  V30 3505 O 337.153 1.52018 -1.32107 0
M  V30 3506 C 334.218 2.38689 -2.51453 0
M  V30 3507 C 333.279 2.13073 -3.72691 0
M  V30 3508 C 332.512 3.36152 -4.14533 0
M  V30 3509 O 332.735 4.45517 -3.56189 0
M  V30 3510 O 331.669 3.23974 -5.07272 0
M  V30 3511 H 335.495 0.69935 -2.95538 0
M  V30 3512 H 333.08 0.279752 -1.46757 0
M  V30 3513 H 334.962 3.14736 -2.80212 0
M  V30 3514 H 333.637 2.77568 -1.66546 0
M  V30 3515 H 332.544 1.34709 -3.49005 0
M  V30 3516 H 333.877 1.79071 -4.5847 0
M  V30 3517 N 335.529 1.53961 0.336706 0
M  V30 3518 C 336.462 1.77255 1.43722 0
M  V30 3519 C 337.44 0.62193 1.50236 0
M  V30 3520 O 338.624 0.857874 1.67847 0
M  V30 3521 C 335.751 1.87733 2.81912 0
M  V30 3522 C 334.797 3.09933 2.92991 0
M  V30 3523 S 335.63 4.68836 2.58753 0
M  V30 3524 C 336.786 4.82202 3.99039 0
M  V30 3525 H 337.019 2.70322 1.23748 0
M  V30 3526 H 334.552 1.44917 0.532777 0
M  V30 3527 H 336.51 1.94455 3.61521 0
M  V30 3528 H 335.171 0.956666 2.99177 0
M  V30 3529 H 334.364 3.1396 3.94265 0
M  V30 3530 H 333.966 3.01472 2.21338 0
M  V30 3531 H 336.258 4.64032 4.9364 0
M  V30 3532 H 337.201 5.84298 4.00002 0
M  V30 3533 H 337.609 4.10604 3.87382 0
M  V30 3534 N 337.007 -0.598083 1.45811 0
M  V30 3535 C 337.937 -1.71873 1.58057 0
M  V30 3536 C 338.918 -1.64533 0.431615 0
M  V30 3537 O 340.103 -1.82787 0.65595 0
M  V30 3538 C 337.233 -3.10495 1.55597 0
M  V30 3539 C 336.187 -3.32654 2.69305 0
M  V30 3540 C 335.513 -4.71646 2.51902 0
M  V30 3541 C 336.813 -3.21981 4.11248 0
M  V30 3542 H 338.507 -1.61881 2.51863 0
M  V30 3543 H 336.053 -0.777372 1.21214 0
M  V30 3544 H 338.006 -3.88699 1.6276 0
M  V30 3545 H 336.73 -3.2135 0.583255 0
M  V30 3546 H 335.389 -2.56843 2.61586 0
M  V30 3547 H 335.037 -4.79246 1.52748 0
M  V30 3548 H 334.737 -4.87426 3.2816 0
M  V30 3549 H 336.261 -5.52038 2.60933 0
M  V30 3550 H 337.675 -3.90049 4.20161 0
M  V30 3551 H 336.072 -3.49289 4.87972 0
M  V30 3552 H 337.142 -2.1928 4.32486 0
M  V30 3553 N 338.485 -1.33259 -0.841409 0
M  V30 3554 C 339.417 -1.19136 -1.95804 0
M  V30 3555 C 340.43 -0.122965 -1.62335 0
M  V30 3556 O 341.619 -0.373154 -1.74556 0
M  V30 3557 C 338.719 -0.804268 -3.29218 0
M  V30 3558 C 337.892 -1.96376 -3.90839 0
M  V30 3559 C 336.951 -1.55806 -5.02604 0
M  V30 3560 O 335.977 -2.27203 -5.21888 0
M  V30 3561 N 337.179 -0.461609 -5.78662 0
M  V30 3562 H 339.944 -2.15326 -2.08458 0
M  V30 3563 H 337.505 -1.25971 -1.017 0
M  V30 3564 H 339.497 -0.51501 -4.0141 0
M  V30 3565 H 338.067 0.0668809 -3.12528 0
M  V30 3566 H 337.287 -2.41879 -3.11269 0
M  V30 3567 H 338.575 -2.73966 -4.28742 0
M  V30 3568 H 337.973 0.132343 -5.65545 0
M  V30 3569 H 336.53 -0.232013 -6.51387 0
M  V30 3570 N 339.963 1.05934 -1.16686 0
M  V30 3571 C 341.211 1.78447 -0.948744 0
M  V30 3572 C 341.532 1.87813 0.524523 0
M  V30 3573 O 340.802 1.38945 1.38098 0
M  V30 3574 H 339.382 0.660971 -0.348033 0
M  V30 3575 H 342.044 1.27947 -1.47022 0
M  V30 3576 H 341.14 2.80394 -1.37061 0
M  V30 3577 N 341.441 0.965919 1.2453 0
M  V30 3578 C 342.374 0.4393 2.23932 0
M  V30 3579 C 343.352 -0.485615 1.55179 0
M  V30 3580 O 344.536 -0.417402 1.83821 0
M  V30 3581 C 341.663 -0.366042 3.36716 0
M  V30 3582 C 340.709 0.5009 4.23548 0
M  V30 3583 S 341.542 1.94002 4.99123 0
M  V30 3584 C 342.698 1.14342 6.15367 0
M  V30 3585 H 342.931 1.28167 2.68254 0
M  V30 3586 H 340.464 0.770819 1.33782 0
M  V30 3587 H 342.422 -0.824724 4.0213 0
M  V30 3588 H 341.083 -1.18337 2.90956 0
M  V30 3589 H 340.276 -0.117341 5.03863 0
M  V30 3590 H 339.878 0.89524 3.63127 0
M  V30 3591 H 342.17 0.397572 6.76332 0
M  V30 3592 H 343.113 1.92089 6.81548 0
M  V30 3593 H 343.521 0.668579 5.60527 0
M  V30 3594 N 342.919 -1.39368 0.735821 0
M  V30 3595 C 344.196 -1.94465 0.210395 0
M  V30 3596 C 344.576 -1.67254 -1.28799 0
M  V30 3597 O 343.924 -1.00123 -2.05396 0
M  V30 3598 C 344.134 -3.4472 0.544897 0
M  V30 3599 C 345.482 -4.21708 0.494689 0
M  V30 3600 O 346.506 -3.52922 0.482136 0
M  V30 3601 O 345.365 -5.44299 0.489947 0
M  V30 3602 H 342.459 -0.826096 0.0386666 0
M  V30 3603 H 345.005 -1.48863 0.814735 0
M  V30 3604 H 343.777 -3.57963 1.58045 0
M  V30 3605 H 343.4 -3.97502 -0.08837 0
M  V30 3606 N 344.397 -0.483516 -1.5 0
M  V30 3607 C 345.627 0.0643896 -2.065 0
M  V30 3608 C 346.035 1.32949 -1.34615 0
M  V30 3609 O 345.378 1.79003 -0.412756 0
M  V30 3610 C 345.44 0.405983 -3.572 0
M  V30 3611 C 345.104 -0.758875 -4.50655 0
M  V30 3612 C 346.101 -1.64445 -4.93208 0
M  V30 3613 C 343.786 -0.952725 -4.93182 0
M  V30 3614 C 345.78 -2.70818 -5.77006 0
M  V30 3615 C 343.467 -2.01966 -5.76761 0
M  V30 3616 C 344.465 -2.89574 -6.18576 0
M  V30 3617 O 344.153 -3.94429 -7.00486 0
M  V30 3618 H 343.885 -0.00934786 -0.675935 0
M  V30 3619 H 346.439 -0.674959 -1.93993 0
M  V30 3620 H 344.669 1.19869 -3.67652 0
M  V30 3621 H 346.358 0.890433 -3.96013 0
M  V30 3622 H 347.124 -1.50643 -4.61012 0
M  V30 3623 H 343.003 -0.280247 -4.60147 0
M  V30 3624 H 346.547 -3.3923 -6.09565 0
M  V30 3625 H 342.444 -2.1577 -6.0837 0
M  V30 3626 H 343.212 -3.91568 -7.1876 0
M  V30 3627 N 345.875 1.56104 -0.216619 0
M  V30 3628 C 347.152 1.89988 0.465165 0
M  V30 3629 C 347.532 1.13326 1.78102 0
M  V30 3630 O 346.88 0.241033 2.27225 0
M  V30 3631 C 347.09 3.42646 0.662939 0
M  V30 3632 C 348.438 4.13311 0.972602 0
M  V30 3633 O 349.462 3.48217 0.749901 0
M  V30 3634 O 348.321 5.28396 1.39499 0
M  V30 3635 H 345.415 0.78979 0.245276 0
M  V30 3636 H 347.961 1.67721 -0.258436 0
M  V30 3637 H 346.733 3.90399 -0.26543 0
M  V30 3638 H 346.356 3.70677 1.43821 0
M  V30 3639 N 347.353 -0.0568162 1.57498 0
M  V30 3640 C 348.769 -0.411933 1.54192 0
M  V30 3641 C 348.969 -1.78287 0.938942 0
M  V30 3642 O 348.025 -2.46483 0.547919 0
M  V30 3643 C 349.338 -0.339244 2.9878 0
M  V30 3644 C 350.886 -0.418348 3.10192 0
M  V30 3645 C 351.361 -0.375407 4.56459 0
M  V30 3646 N 352.852 -0.435038 4.61153 0
M  V30 3647 C 353.587 -0.424265 5.71828 0
M  V30 3648 N 353.083 -0.367418 6.91825 0
M  V30 3649 N 354.876 -0.471938 5.60115 0
M  V30 3650 H 347.027 0.840684 1.95055 0
M  V30 3651 H 349.29 0.316987 0.893433 0
M  V30 3652 H 348.996 0.601742 3.46514 0
M  V30 3653 H 348.87 -1.14371 3.59443 0
M  V30 3654 H 351.257 -1.34976 2.62422 0
M  V30 3655 H 351.338 0.414962 2.52412 0
M  V30 3656 H 350.982 0.552219 5.04889 0
M  V30 3657 H 350.912 -1.22645 5.12119 0
M  V30 3658 H 353.403 -0.482612 3.74806 0
M  V30 3659 H 353.716 -0.363535 7.71944 0
M  V30 3660 H 352.061 -0.333879 6.94198 0
M  V30 3661 H 355.252 -0.514145 4.65268 0
M  V30 3662 H 355.425 -0.460073 6.46365 0
M  V30 3663 N 348.832 -1.54138 -0.328536 0
M  V30 3664 C 350.109 -1.62749 -1.08499 0
M  V30 3665 C 350.489 -0.458198 -2.06067 0
M  V30 3666 O 349.837 0.548046 -2.2183 0
M  V30 3667 C 350.047 -2.99519 -1.79135 0
M  V30 3668 C 351.395 -3.55394 -2.32337 0
M  V30 3669 O 352.419 -3.01792 -1.89209 0
M  V30 3670 O 351.278 -4.49186 -3.11279 0
M  V30 3671 H 348.372 -0.65886 -0.499832 0
M  V30 3672 H 350.918 -1.66484 -0.328826 0
M  V30 3673 H 349.69 -3.76061 -1.08139 0
M  V30 3674 H 349.313 -2.99441 -2.61574 0
M  V30 3675 N 350.31 0.590341 -1.46126 0
M  V30 3676 C 351.558 1.34616 -1.50742 0
M  V30 3677 C 351.879 1.94363 -0.157486 0
M  V30 3678 O 351.149 1.78136 0.815136 0
M  V30 3679 H 349.729 0.499789 -0.555175 0
M  V30 3680 H 352.391 0.691953 -1.82203 0
M  V30 3681 H 351.487 2.15678 -2.25587 0
M  V30 3682 N 351.788 1.33704 0.83433 0
M  V30 3683 C 353.035 1.25417 1.58987 0
M  V30 3684 C 353.363 -0.178869 1.93676 0
M  V30 3685 O 352.618 -1.13723 1.59265 0
M  V30 3686 C 352.917 2.07926 2.90692 0
M  V30 3687 C 352.583 3.57066 2.75345 0
M  V30 3688 C 351.245 3.97724 2.70867 0
M  V30 3689 C 353.597 4.51817 2.59828 0
M  V30 3690 C 350.925 5.31344 2.48778 0
M  V30 3691 C 353.277 5.85604 2.39272 0
M  V30 3692 C 351.941 6.25439 2.33199 0
M  V30 3693 H 351.211 0.458934 0.581774 0
M  V30 3694 H 353.858 1.65335 0.966261 0
M  V30 3695 H 352.163 1.608 3.57282 0
M  V30 3696 H 353.86 1.98868 3.48213 0
M  V30 3697 H 350.45 3.24785 2.79665 0
M  V30 3698 H 354.634 4.21311 2.62319 0
M  V30 3699 H 349.89 5.61241 2.42526 0
M  V30 3700 H 354.064 6.58623 2.2625 0
M  V30 3701 H 351.691 7.28914 2.15843 0
M  V30 3702 N 353.266 -1.05314 1.17247 0
M  V30 3703 C 354.512 -1.78557 0.961513 0
M  V30 3704 C 354.845 -1.87419 -0.508697 0
M  V30 3705 O 354.12 -1.37307 -1.37757 0
M  V30 3706 C 354.403 -3.22514 1.60176 0
M  V30 3707 C 354.256 -3.21673 3.14399 0
M  V30 3708 C 355.575 -4.20318 1.30463 0
M  V30 3709 H 352.694 -0.6482 0.350723 0
M  V30 3710 H 355.336 -1.23102 1.44727 0
M  V30 3711 H 353.486 -3.69867 1.18871 0
M  V30 3712 H 355.158 -2.82405 3.64753 0
M  V30 3713 H 353.401 -2.60048 3.47214 0
M  V30 3714 H 354.072 -4.23271 3.54324 0
M  V30 3715 H 356.548 -3.81454 1.66229 0
M  V30 3716 H 355.424 -5.19289 1.77848 0
M  V30 3717 H 355.685 -4.41526 0.22521 0
M  V30 3718 N 354.744 -0.972509 -1.24016 0
M  V30 3719 C 355.969 -0.654417 -1.96805 0
M  V30 3720 C 356.394 0.770398 -1.716 0
M  V30 3721 O 355.752 1.52361 -0.982647 0
M  V30 3722 C 355.8 -0.941031 -3.48105 0
M  V30 3723 O 354.904 -0.0289472 -4.1239 0
M  V30 3724 H 354.245 -0.24692 -0.616382 0
M  V30 3725 H 356.775 -1.30396 -1.57664 0
M  V30 3726 H 356.785 -0.87452 -3.98517 0
M  V30 3727 H 355.46 -1.97939 -3.65777 0
M  V30 3728 H 354.037 -0.149192 -3.72601 0
M  V30 3729 N 356.222 1.38976 -0.743202 0
M  V30 3730 C 357.152 2.33171 -0.123873 0
M  V30 3731 C 358.133 1.54336 0.71516 0
M  V30 3732 O 359.318 1.82696 0.658467 0
M  V30 3733 C 356.448 3.38474 0.777978 0
M  V30 3734 C 355.402 4.27979 0.0424758 0
M  V30 3735 C 354.728 5.2405 1.06189 0
M  V30 3736 C 356.028 5.10155 -1.1198 0
M  V30 3737 H 357.722 2.85213 -0.910709 0
M  V30 3738 H 355.268 1.37133 -0.439388 0
M  V30 3739 H 357.221 4.03328 1.22084 0
M  V30 3740 H 355.945 2.84891 1.59702 0
M  V30 3741 H 354.604 3.64616 -0.380853 0
M  V30 3742 H 354.252 4.66758 1.87472 0
M  V30 3743 H 353.952 5.84785 0.574485 0
M  V30 3744 H 355.476 5.9178 1.50428 0
M  V30 3745 H 356.89 5.68307 -0.75499 0
M  V30 3746 H 355.287 5.80073 -1.53738 0
M  V30 3747 H 356.357 4.44504 -1.93764 0
M  V30 3748 N 357.7 0.491464 1.49741 0
M  V30 3749 C 358.632 -0.328609 2.26832 0
M  V30 3750 C 359.645 -0.939113 1.32983 0
M  V30 3751 O 360.834 -0.824067 1.58339 0
M  V30 3752 C 357.934 -1.47675 3.05033 0
M  V30 3753 C 357.107 -0.975305 4.26388 0
M  V30 3754 C 356.166 -1.99991 4.86714 0
M  V30 3755 O 355.192 -1.57229 5.47054 0
M  V30 3756 N 356.394 -3.32962 4.75517 0
M  V30 3757 H 359.159 0.332377 2.97851 0
M  V30 3758 H 356.72 0.323441 1.58636 0
M  V30 3759 H 358.712 -2.15954 3.42266 0
M  V30 3760 H 357.282 -2.04206 2.36683 0
M  V30 3761 H 356.502 -0.117723 3.94024 0
M  V30 3762 H 357.79 -0.618531 5.05026 0
M  V30 3763 H 357.188 -3.70399 4.27576 0
M  V30 3764 H 355.745 -3.96982 5.16961 0
M  V30 3765 N 359.178 -1.55987 0.224894 0
M  V30 3766 C 360.088 -2.24066 -0.69511 0
M  V30 3767 C 361.104 -1.24939 -1.21104 0
M  V30 3768 O 362.28 -1.5776 -1.25195 0
M  V30 3769 C 359.345 -2.90983 -1.88493 0
M  V30 3770 C 358.406 -4.05462 -1.41064 0
M  V30 3771 C 357.639 -4.69179 -2.54375 0
M  V30 3772 O 357.862 -4.31895 -3.72589 0
M  V30 3773 O 356.796 -5.58108 -2.25386 0
M  V30 3774 H 360.622 -3.03353 -0.145149 0
M  V30 3775 H 358.207 -1.49399 -0.00569476 0
M  V30 3776 H 360.089 -3.33209 -2.57972 0
M  V30 3777 H 358.764 -2.14653 -2.42293 0
M  V30 3778 H 357.671 -3.67798 -0.683774 0
M  V30 3779 H 359.004 -4.83545 -0.918985 0
M  V30 3780 N 360.656 0.0484629 -1.57525 0
M  V30 3781 C 361.902 0.738854 -1.89506 0
M  V30 3782 C 362.257 1.73989 -0.821319 0
M  V30 3783 O 361.55 1.90825 0.172129 0
M  V30 3784 C 361.744 1.46632 -3.25935 0
M  V30 3785 C 361.573 0.537254 -4.46479 0
M  V30 3786 C 360.343 0.165484 -5.05029 0
M  V30 3787 C 362.541 -0.176085 -5.13998 0
M  V30 3788 N 360.523 -0.766868 -6.09091 0
M  V30 3789 C 361.894 -0.96478 -6.12448 0
M  V30 3790 C 363.949 -0.24509 -4.97296 0
M  V30 3791 C 362.652 -1.8161 -6.95996 0
M  V30 3792 C 364.678 -1.08347 -5.81391 0
M  V30 3793 C 364.04 -1.86014 -6.79395 0
M  V30 3794 H 360.139 0.245067 -0.742608 0
M  V30 3795 H 362.723 -0.000476161 -1.947 0
M  V30 3796 H 360.894 2.17623 -3.21706 0
M  V30 3797 H 362.626 2.10757 -3.45491 0
M  V30 3798 H 359.381 0.523466 -4.70698 0
M  V30 3799 H 359.805 -1.22698 -6.65788 0
M  V30 3800 H 364.447 0.341063 -4.21422 0
M  V30 3801 H 362.165 -2.41313 -7.71229 0
M  V30 3802 H 365.751 -1.14014 -5.70519 0
M  V30 3803 H 364.631 -2.4984 -7.43337 0
M  V30 3804 N 362.134 1.5431 0.320358 0
M  V30 3805 C 363.38 1.72924 1.05949 0
M  V30 3806 C 363.713 0.503185 1.87568 0
M  V30 3807 O 362.988 -0.499839 1.87968 0
M  V30 3808 C 363.271 3.00676 1.98156 0
M  V30 3809 C 363.124 4.3354 1.19845 0
M  V30 3810 C 364.443 3.24198 2.9763 0
M  V30 3811 H 361.562 0.629195 0.383774 0
M  V30 3812 H 364.204 1.87008 0.335854 0
M  V30 3813 H 362.354 2.888 2.59859 0
M  V30 3814 H 364.026 4.57305 0.605773 0
M  V30 3815 H 362.269 4.309 0.500784 0
M  V30 3816 H 362.94 5.19156 1.87567 0
M  V30 3817 H 365.416 3.35557 2.4605 0
M  V30 3818 H 364.292 4.14938 3.59329 0
M  V30 3819 H 364.553 2.41577 3.7026 0
M  V30 3820 N 363.613 -0.582584 1.46437 0
M  V30 3821 C 364.563 -1.68654 1.53426 0
M  V30 3822 C 365.547 -1.55971 0.395194 0
M  V30 3823 O 366.739 -1.64884 0.643612 0
M  V30 3824 C 363.868 -3.07439 1.52762 0
M  V30 3825 C 362.954 -3.25418 2.71963 0
M  V30 3826 N 363.345 -3.13556 3.96883 0
M  V30 3827 C 361.643 -3.56357 2.68189 0
M  V30 3828 C 362.344 -3.33543 4.76575 0
M  V30 3829 N 361.32 -3.58704 4.08451 0
M  V30 3830 H 365.122 -1.58014 2.47808 0
M  V30 3831 H 362.636 -0.786617 1.42078 0
M  V30 3832 H 364.633 -3.86671 1.55857 0
M  V30 3833 H 363.293 -3.1921 0.594573 0
M  V30 3834 H 364.304 -2.9142 4.28129 0
M  V30 3835 H 360.981 -3.74812 1.83908 0
M  V30 3836 H 362.371 -3.29555 5.85528 0
M  V30 3837 N 365.091 -1.34144 -0.827227 0
M  V30 3838 C 366.339 -1.26009 -1.58007 0
M  V30 3839 C 366.66 0.170971 -1.94249 0
M  V30 3840 O 365.93 1.10256 -1.61927 0
M  V30 3841 H 364.51 -0.463414 -0.585881 0
M  V30 3842 H 367.172 -1.68005 -0.987951 0
M  V30 3843 H 366.268 -1.86187 -2.50481 0
M  V30 3844 N 366.569 1.04691 -1.17803 0
M  V30 3845 C 367.817 1.7743 -0.967617 0
M  V30 3846 C 368.138 1.88359 0.504574 0
M  V30 3847 O 367.408 1.40402 1.36617 0
M  V30 3848 H 365.988 0.657242 -0.355024 0
M  V30 3849 H 368.65 1.2638 -1.48371 0
M  V30 3850 H 367.746 2.78924 -1.40027 0
M  V30 3851 N 368.047 0.979072 1.23499 0
M  V30 3852 C 368.98 0.463027 2.23453 0
M  V30 3853 C 369.958 -0.469128 1.55685 0
M  V30 3854 O 371.142 -0.397882 1.84253 0
M  V30 3855 C 368.269 -0.330308 3.37086 0
M  V30 3856 C 367.315 0.545795 4.22993 0
M  V30 3857 S 368.148 1.99285 4.97037 0
M  V30 3858 C 369.304 1.20862 6.1412 0
M  V30 3859 H 369.537 1.31005 2.6688 0
M  V30 3860 H 367.07 0.784965 1.32957 0
M  V30 3861 H 369.028 -0.782027 4.02982 0
M  V30 3862 H 367.689 -1.15244 2.92194 0
M  V30 3863 H 366.882 -0.0638928 5.03959 0
M  V30 3864 H 366.484 0.933705 3.62157 0
M  V30 3865 H 368.776 0.469284 6.75873 0
M  V30 3866 H 369.719 1.99307 6.79472 0
M  V30 3867 H 370.127 0.727992 5.59786 0
M  V30 3868 N 369.525 -1.3858 0.750561 0
M  V30 3869 C 370.753 -2.04471 0.316098 0
M  V30 3870 C 371.168 -1.56606 -1.05452 0
M  V30 3871 O 370.525 -0.737784 -1.66922 0
M  V30 3872 C 370.576 -3.60025 0.326275 0
M  V30 3873 O 370.297 -4.06133 1.6428 0
M  V30 3874 C 371.798 -4.43131 -0.122429 0
M  V30 3875 H 369.018 -0.65717 0.135528 0
M  V30 3876 H 371.562 -1.77329 1.01857 0
M  V30 3877 H 369.717 -3.86014 -0.327431 0
M  V30 3878 H 370.131 -5.00547 1.56693 0
M  V30 3879 H 371.605 -5.51963 -0.0641473 0
M  V30 3880 H 372.082 -4.23333 -1.16988 0
M  V30 3881 H 372.688 -4.22323 0.50229 0
M  V30 3882 N 371.003 -0.499398 -1.49478 0
M  V30 3883 C 372.231 0.0425456 -2.06856 0
M  V30 3884 C 372.646 1.30964 -1.35992 0
M  V30 3885 O 372.003 1.77172 -0.437762 0
M  V30 3886 C 372.054 0.301735 -3.60239 0
M  V30 3887 O 371.775 -0.915127 -4.28436 0
M  V30 3888 C 373.276 0.887499 -4.34325 0
M  V30 3889 H 370.496 -0.0197482 -0.670709 0
M  V30 3890 H 373.04 -0.696297 -1.92281 0
M  V30 3891 H 371.195 0.990556 -3.74522 0
M  V30 3892 H 371.609 -0.676993 -5.20113 0
M  V30 3893 H 373.083 1.01845 -5.42523 0
M  V30 3894 H 373.56 1.88488 -3.96698 0
M  V30 3895 H 374.166 0.236196 -4.24644 0
M  V30 3896 N 372.481 1.55866 -0.233164 0
M  V30 3897 C 373.73 1.97779 0.39579 0
M  V30 3898 C 374.043 1.12419 1.60066 0
M  V30 3899 O 375.249 1.44283 2.29988 0
M  V30 3900 C 373.705 3.5188 0.755556 0
M  V30 3901 C 373.313 4.45959 -0.427152 0
M  V30 3902 C 375.057 4.02479 1.34946 0
M  V30 3903 C 372.964 5.91383 -0.0443043 0
M  V30 3904 H 371.894 0.738592 0.15165 0
M  V30 3905 H 374.545 1.80486 -0.331212 0
M  V30 3906 H 372.927 3.64816 1.5403 0
M  V30 3907 H 374.101 4.44776 -1.20462 0
M  V30 3908 H 372.416 4.05765 -0.935068 0
M  V30 3909 H 375.013 5.08637 1.649 0
M  V30 3910 H 375.356 3.49014 2.26925 0
M  V30 3911 H 375.889 3.92813 0.62791 0
M  V30 3912 H 372.628 6.48857 -0.930874 0
M  V30 3913 H 372.148 5.95734 0.697238 0
M  V30 3914 H 373.827 6.45893 0.378334 0
M  V30 3915 N 373.959 -0.0401083 1.57549 0
M  V30 3916 C 375.37 -0.588097 1.77196 0
M  V30 3917 C 375.721 -1.76209 0.862832 0
M  V30 3918 O 374.846 -2.16331 0.0548389 0
M  V30 3919 C 375.441 -1.07363 3.21339 0
M  V30 3920 C 374 -1.56723 3.42221 0
M  V30 3921 C 373.147 -0.50041 2.72747 0
M  V30 3922 H 376.098 0.186119 1.57605 0
M  V30 3923 H 376.119 -1.94143 3.27244 0
M  V30 3924 H 375.631 -0.218975 3.87482 0
M  V30 3925 H 373.732 -2.4441 2.81237 0
M  V30 3926 H 373.845 -1.62234 4.50796 0
M  V30 3927 H 372.209 -0.952894 2.36203 0
M  V30 3928 H 372.992 0.344599 3.41566 0
M  V30 3929 N 375.437 -1.54477 -0.31217 0
M  V30 3930 C 376.367 -1.87652 -1.38957 0
M  V30 3931 C 377.348 -0.734358 -1.53431 0
M  V30 3932 O 378.533 -0.98911 -1.67123 0
M  V30 3933 C 375.663 -2.11396 -2.75552 0
M  V30 3934 C 374.617 -3.27243 -2.75855 0
M  V30 3935 C 373.943 -3.36382 -4.15633 0
M  V30 3936 C 375.243 -4.64622 -2.38587 0
M  V30 3937 H 376.937 -2.77887 -1.11442 0
M  V30 3938 H 374.483 -1.33707 -0.534655 0
M  V30 3939 H 376.436 -2.33189 -3.51 0
M  V30 3940 H 375.16 -1.17921 -3.04569 0
M  V30 3941 H 373.819 -3.05356 -2.02863 0
M  V30 3942 H 373.467 -2.40445 -4.41809 0
M  V30 3943 H 373.167 -4.14249 -4.1674 0
M  V30 3944 H 374.691 -3.60422 -4.92877 0
M  V30 3945 H 376.105 -4.86219 -3.03749 0
M  V30 3946 H 374.502 -5.45121 -2.50925 0
M  V30 3947 H 375.572 -4.66097 -1.33723 0
M  V30 3948 N 376.915 0.57481 -1.46744 0
M  V30 3949 C 377.845 1.69337 -1.60771 0
M  V30 3950 C 378.826 1.63825 -0.457736 0
M  V30 3951 O 380.011 1.8172 -0.684947 0
M  V30 3952 C 377.141 3.0798 -1.60517 0
M  V30 3953 C 376.095 3.28327 -2.74564 0
M  V30 3954 C 375.421 4.67578 -2.59373 0
M  V30 3955 C 376.721 3.15398 -4.16319 0
M  V30 3956 H 378.415 1.57853 -2.54407 0
M  V30 3957 H 375.961 0.75799 -1.22436 0
M  V30 3958 H 377.914 3.86061 -1.68923 0
M  V30 3959 H 376.638 3.20381 -0.634305 0
M  V30 3960 H 375.297 2.52649 -2.65639 0
M  V30 3961 H 374.945 4.76755 -1.60353 0
M  V30 3962 H 374.645 4.82144 -3.35873 0
M  V30 3963 H 376.169 5.47817 -2.69682 0
M  V30 3964 H 377.583 3.83315 -4.26313 0
M  V30 3965 H 375.98 3.41482 -4.93468 0
M  V30 3966 H 377.05 2.12372 -4.3592 0
M  V30 3967 N 378.394 1.34581 0.820102 0
M  V30 3968 C 379.64 1.27285 1.57881 0
M  V30 3969 C 379.973 -0.156137 1.93571 0
M  V30 3970 O 379.248 -1.10222 1.60254 0
M  V30 3971 C 379.531 2.16639 2.87645 0
M  V30 3972 C 379.384 3.68088 2.58517 0
M  V30 3973 C 380.703 2.05378 3.8924 0
M  V30 3974 H 377.822 0.463714 0.572833 0
M  V30 3975 H 380.464 1.64859 0.944539 0
M  V30 3976 H 378.614 1.84725 3.41773 0
M  V30 3977 H 380.286 4.10382 2.10676 0
M  V30 3978 H 378.529 3.89038 1.91917 0
M  V30 3979 H 379.2 4.2598 3.51063 0
M  V30 3980 H 381.676 2.33404 3.44473 0
M  V30 3981 H 380.552 2.7012 4.77835 0
M  V30 3982 H 380.813 1.0316 4.29896 0
M  V30 3983 N 379.872 -1.04064 1.18357 0
M  V30 3984 C 380.802 -2.14001 0.934113 0
M  V30 3985 C 381.783 -1.69616 -0.128186 0
M  V30 3986 O 382.968 -1.94185 0.0244093 0
M  V30 3987 C 380.098 -3.44253 0.459066 0
M  V30 3988 C 379.052 -4.02261 1.46185 0
M  V30 3989 C 378.378 -5.27992 0.844322 0
M  V30 3990 C 379.678 -4.38432 2.83856 0
M  V30 3991 H 381.372 -2.35127 1.85352 0
M  V30 3992 H 378.918 -1.12998 0.892604 0
M  V30 3993 H 380.871 -4.20522 0.271907 0
M  V30 3994 H 379.595 -3.22813 -0.495912 0
M  V30 3995 H 378.254 -3.28074 1.63595 0
M  V30 3996 H 377.902 -5.02862 -0.117845 0
M  V30 3997 H 377.602 -5.67765 1.51384 0
M  V30 3998 H 379.126 -6.06938 0.667693 0
M  V30 3999 H 380.54 -5.05688 2.70098 0
M  V30 4000 H 378.937 -4.89254 3.47491 0
M  V30 4001 H 380.007 -3.4826 3.37406 0
M  V30 4002 N 381.35 -0.985608 -1.22978 0
M  V30 4003 C 382.28 -0.549649 -2.26939 0
M  V30 4004 C 383.261 0.419803 -1.64838 0
M  V30 4005 O 384.446 0.31203 -1.91677 0
M  V30 4006 C 381.576 0.143652 -3.47003 0
M  V30 4007 C 380.53 -0.743606 -4.21491 0
M  V30 4008 C 379.856 0.0822027 -5.34637 0
M  V30 4009 C 381.156 -2.03694 -4.80943 0
M  V30 4010 H 382.85 -1.41862 -2.63658 0
M  V30 4011 H 380.396 -0.683571 -1.26741 0
M  V30 4012 H 382.349 0.459985 -4.18882 0
M  V30 4013 H 381.073 1.04711 -3.09359 0
M  V30 4014 H 379.732 -1.04347 -3.51436 0
M  V30 4015 H 379.38 0.986359 -4.93234 0
M  V30 4016 H 379.08 -0.508377 -5.85397 0
M  V30 4017 H 380.604 0.392797 -6.09335 0
M  V30 4018 H 382.018 -1.78504 -5.44802 0
M  V30 4019 H 380.415 -2.57573 -5.42011 0
M  V30 4020 H 381.485 -2.72042 -4.01399 0
M  V30 4021 N 382.828 1.3818 -0.7579 0
M  V30 4022 C 384.076 1.99624 -0.315361 0
M  V30 4023 C 384.397 1.60464 1.10799 0
M  V30 4024 O 383.667 0.863507 1.75842 0
M  V30 4025 H 382.247 0.73831 -0.113611 0
M  V30 4026 H 384.909 1.68878 -0.972952 0
M  V30 4027 H 384.005 3.09754 -0.381931 0
M  V30 4028 N 384.306 0.507319 1.49211 0
M  V30 4029 C 385.239 -0.314509 2.26022 0
M  V30 4030 C 386.217 -0.964849 1.30879 0
M  V30 4031 O 387.401 -0.993707 1.6018 0
M  V30 4032 C 384.528 -1.44346 3.06402 0
M  V30 4033 C 383.574 -0.90685 4.16748 0
M  V30 4034 S 384.407 0.207392 5.35098 0
M  V30 4035 C 385.563 -0.924573 6.19033 0
M  V30 4036 H 385.796 0.337416 2.95379 0
M  V30 4037 H 383.329 0.292718 1.516 0
M  V30 4038 H 385.287 -2.09029 3.53295 0
M  V30 4039 H 383.948 -2.06702 2.36502 0
M  V30 4040 H 383.141 -1.75309 4.72528 0
M  V30 4041 H 382.743 -0.33712 3.72478 0
M  V30 4042 H 385.035 -1.82839 6.52362 0
M  V30 4043 H 385.978 -0.405248 7.06939 0
M  V30 4044 H 386.386 -1.19476 5.51712 0
M  V30 4045 N 385.784 -1.5574 0.241426 0
M  V30 4046 C 387.061 -1.90704 -0.434881 0
M  V30 4047 C 387.441 -1.16145 -1.76277 0
M  V30 4048 O 386.789 -0.277152 -2.26813 0
M  V30 4049 C 386.999 -3.43657 -0.608343 0
M  V30 4050 C 388.347 -4.14806 -0.906725 0
M  V30 4051 O 389.371 -3.49366 -0.694408 0
M  V30 4052 O 388.23 -5.30548 -1.31075 0
M  V30 4053 H 385.324 -0.793592 -0.23268 0
M  V30 4054 H 387.87 -1.67288 0.285086 0
M  V30 4055 H 386.642 -3.89927 0.327505 0
M  V30 4056 H 386.265 -3.72918 -1.37906 0
M  V30 4057 N 387.262 0.0317525 -1.57568 0
M  V30 4058 C 388.539 0.758366 -1.803 0
M  V30 4059 C 388.919 1.93718 -0.838845 0
M  V30 4060 O 388.267 2.28187 0.119571 0
M  V30 4061 C 388.477 1.19392 -3.27943 0
M  V30 4062 C 389.825 1.61094 -3.92854 0
M  V30 4063 O 390.849 1.28857 -3.32076 0
M  V30 4064 O 389.708 2.20918 -4.99858 0
M  V30 4065 H 386.802 0.366514 -0.741348 0
M  V30 4066 H 389.348 0.00873765 -1.69698 0
M  V30 4067 H 388.12 0.352275 -3.89711 0
M  V30 4068 H 387.743 2.00365 -3.43424 0
M  V30 4069 N 388.74 1.54641 0.303973 0
M  V30 4070 C 389.965 1.78092 1.06292 0
M  V30 4071 C 390.39 0.537342 1.80262 0
M  V30 4072 O 389.748 -0.511993 1.7392 0
M  V30 4073 C 389.796 2.98612 2.02147 0
M  V30 4074 O 388.9 2.71528 3.10397 0
M  V30 4075 H 388.241 0.589548 0.305497 0
M  V30 4076 H 390.771 2.01716 0.3423 0
M  V30 4077 H 390.781 3.265 2.44667 0
M  V30 4078 H 389.456 3.88785 1.47714 0
M  V30 4079 H 388.033 2.54648 2.72413 0
M  V30 4080 N 390.218 -0.567019 1.47046 0
M  V30 4081 C 391.466 -1.322 1.52864 0
M  V30 4082 C 391.787 -1.94088 0.188388 0
M  V30 4083 O 391.057 -1.7941 -0.786693 0
M  V30 4084 H 389.637 -0.490894 0.563056 0
M  V30 4085 H 392.299 -0.662879 1.83281 0
M  V30 4086 H 391.395 -2.12062 2.2899 0
M  V30 4087 N 391.696 -1.35014 -0.812953 0
M  V30 4088 C 392.921 -1.31187 -1.60639 0
M  V30 4089 C 393.346 0.109382 -1.87782 0
M  V30 4090 O 392.704 1.07424 -1.46047 0
M  V30 4091 C 392.752 -2.11809 -2.91838 0
M  V30 4092 O 391.856 -1.49444 -3.8437 0
M  V30 4093 H 391.197 -0.450084 -0.488181 0
M  V30 4094 H 393.727 -1.77963 -1.00947 0
M  V30 4095 H 393.737 -2.23531 -3.41318 0
M  V30 4096 H 392.412 -3.15137 -2.71407 0
M  V30 4097 H 390.989 -1.46524 -3.42907 0
M  V30 4098 N 393.175 1.03435 -1.18907 0
M  V30 4099 C 394.122 2.11591 -0.921837 0
M  V30 4100 C 395.092 1.65499 0.141226 0
M  V30 4101 O 396.277 1.908 0.000242829 0
M  V30 4102 C 393.417 3.42012 -0.460616 0
M  V30 4103 C 392.53 4.01682 -1.58982 0
M  V30 4104 C 391.665 5.20091 -1.08069 0
M  V30 4105 C 390.704 5.71805 -2.18416 0
M  V30 4106 N 389.841 6.81494 -1.68849 0
M  V30 4107 H 394.681 2.33787 -1.8479 0
M  V30 4108 H 392.218 1.1467 -0.921373 0
M  V30 4109 H 394.176 4.16834 -0.174642 0
M  V30 4110 H 392.806 3.19944 0.428467 0
M  V30 4111 H 391.858 3.24127 -1.99113 0
M  V30 4112 H 393.17 4.36084 -2.4214 0
M  V30 4113 H 392.324 6.02051 -0.749615 0
M  V30 4114 H 391.063 4.87209 -0.218771 0
M  V30 4115 H 390.068 4.88461 -2.5236 0
M  V30 4116 H 391.293 6.06728 -3.05054 0
M  V30 4117 H 389.239 6.50475 -0.849572 0
M  V30 4118 H 389.156 7.14994 -2.45601 0
M  V30 4119 H 390.424 7.67063 -1.38689 0
M  V30 4120 N 394.653 0.992116 1.22453 0
M  V30 4121 C 395.901 0.666215 1.90804 0
M  V30 4122 C 396.222 -0.804152 1.77647 0
M  V30 4123 O 395.492 -1.57629 1.16318 0
M  V30 4124 H 394.072 0.243423 0.706225 0
M  V30 4125 H 396.734 1.25845 1.48825 0
M  V30 4126 H 395.83 0.928069 2.97982 0
M  V30 4127 N 396.131 -1.37776 0.765217 0
M  V30 4128 C 397.408 -1.93975 0.251596 0
M  V30 4129 C 397.788 -1.69949 -1.25222 0
M  V30 4130 O 397.136 -1.04457 -2.03226 0
M  V30 4131 C 397.346 -3.43487 0.617895 0
M  V30 4132 C 398.694 -4.20564 0.584029 0
M  V30 4133 O 399.718 -3.5182 0.556888 0
M  V30 4134 O 398.577 -5.43138 0.605291 0
M  V30 4135 H 395.671 -0.82509 0.0561806 0
M  V30 4136 H 398.217 -1.47101 0.846128 0
M  V30 4137 H 396.989 -3.5453 1.65602 0
M  V30 4138 H 396.612 -3.976 -0.00403411 0
M  V30 4139 N 397.609 -0.515225 -1.4894 0
M  V30 4140 C 398.857 0.0241671 -2.02086 0
M  V30 4141 C 399.178 1.3616 -1.3959 0
M  V30 4142 O 398.448 1.87841 -0.556121 0
M  V30 4143 H 397.028 0.0119203 -0.746905 0
M  V30 4144 H 399.69 -0.675702 -1.82812 0
M  V30 4145 H 398.786 0.143385 -3.1177 0
M  V30 4146 N 399.087 1.5561 -0.249682 0
M  V30 4147 C 400.503 1.59254 0.105103 0
M  V30 4148 C 400.703 1.26685 1.56694 0
M  V30 4149 O 399.759 1.0155 2.31179 0
M  V30 4150 C 401.072 2.99687 -0.246592 0
M  V30 4151 C 402.62 3.12416 -0.191118 0
M  V30 4152 C 403.095 4.55074 -0.516885 0
M  V30 4153 N 404.586 4.60835 -0.467489 0
M  V30 4154 C 405.321 5.69201 -0.69268 0
M  V30 4155 N 404.817 6.85817 -0.981146 0
M  V30 4156 N 406.61 5.58635 -0.623198 0
M  V30 4157 H 398.761 1.75049 -1.20298 0
M  V30 4158 H 401.024 0.815003 -0.484225 0
M  V30 4159 H 400.73 3.28267 -1.26228 0
M  V30 4160 H 400.604 3.74798 0.424962 0
M  V30 4161 H 402.991 2.83615 0.815247 0
M  V30 4162 H 403.072 2.39573 -0.896563 0
M  V30 4163 H 402.716 4.84596 -1.52082 0
M  V30 4164 H 402.646 5.26181 0.210068 0
M  V30 4165 H 405.137 3.7705 -0.253373 0
M  V30 4166 H 405.45 7.64341 -1.14032 0
M  V30 4167 H 403.795 6.87494 -1.01865 0
M  V30 4168 H 406.986 4.66406 -0.397863 0
M  V30 4169 H 407.159 6.43017 -0.802093 0
M  V30 4170 N 400.565 -0.0233959 1.57583 0
M  V30 4171 C 401.515 -1.03023 2.03397 0
M  V30 4172 C 402.499 -1.31701 0.924315 0
M  V30 4173 O 403.691 -1.31191 1.18819 0
M  V30 4174 C 400.82 -2.32961 2.52159 0
M  V30 4175 C 399.906 -2.07349 3.69956 0
M  V30 4176 N 400.297 -1.51814 4.82479 0
M  V30 4177 C 398.595 -2.37606 3.77438 0
M  V30 4178 C 399.296 -1.42136 5.64068 0
M  V30 4179 N 398.272 -1.89891 5.09355 0
M  V30 4180 H 402.074 -0.594962 2.87815 0
M  V30 4181 H 399.588 -0.229586 1.60769 0
M  V30 4182 H 401.585 -3.05906 2.83244 0
M  V30 4183 H 400.245 -2.77162 1.69149 0
M  V30 4184 H 401.256 -1.20008 5.03804 0
M  V30 4185 H 397.933 -2.84842 3.05239 0
M  V30 4186 H 399.323 -0.996405 6.64471 0
M  V30 4187 N 402.043 -1.548 -0.295768 0
M  V30 4188 C 403.006 -1.85363 -1.34808 0
M  V30 4189 C 404.006 -0.726817 -1.43436 0
M  V30 4190 O 405.196 -0.995088 -1.42981 0
M  V30 4191 C 402.328 -2.03859 -2.73229 0
M  V30 4192 H 403.521 -2.7941 -1.08949 0
M  V30 4193 H 401.074 -1.46942 -0.532702 0
M  V30 4194 H 401.809 -1.12117 -3.04303 0
M  V30 4195 H 401.594 -2.8588 -2.68356 0
M  V30 4196 H 403.084 -2.28857 -3.49305 0
M  V30 4197 N 403.521 0.559213 -1.47345 0
M  V30 4198 C 404.767 1.31614 -1.55079 0
M  V30 4199 C 405.122 1.91257 -0.209422 0
M  V30 4200 O 404.415 1.74796 0.784656 0
M  V30 4201 C 404.609 2.44853 -2.6035 0
M  V30 4202 C 404.438 1.96305 -4.04591 0
M  V30 4203 C 403.208 1.8024 -4.72061 0
M  V30 4204 C 405.406 1.50872 -4.91673 0
M  V30 4205 N 403.388 1.26011 -6.00828 0
M  V30 4206 C 404.759 1.08395 -6.10451 0
M  V30 4207 C 406.814 1.38905 -4.78132 0
M  V30 4208 C 405.517 0.551399 -7.17183 0
M  V30 4209 C 407.543 0.870518 -5.84958 0
M  V30 4210 C 406.905 0.455661 -7.02925 0
M  V30 4211 H 403.004 0.473712 -0.62219 0
M  V30 4212 H 405.588 0.634103 -1.84085 0
M  V30 4213 H 403.759 3.10589 -2.33215 0
M  V30 4214 H 405.491 3.11849 -2.57938 0
M  V30 4215 H 402.246 2.02895 -4.27937 0
M  V30 4216 H 402.67 1.00991 -6.69425 0
M  V30 4217 H 407.312 1.69591 -3.87297 0
M  V30 4218 H 405.03 0.232159 -8.07766 0
M  V30 4219 H 408.616 0.781507 -5.76527 0
M  V30 4220 H 407.496 0.0606414 -7.84177 0
M  V30 4221 N 404.999 1.35443 0.805782 0
M  V30 4222 C 406.227 1.31878 1.59423 0
M  V30 4223 C 406.642 -0.103562 1.88516 0
M  V30 4224 O 405.999 -1.05575 1.48863 0
M  V30 4225 C 406.05 2.12426 2.92502 0
M  V30 4226 O 405.771 3.49115 2.6467 0
M  V30 4227 C 407.272 2.16455 3.86862 0
M  V30 4228 H 404.492 0.453002 0.495005 0
M  V30 4229 H 407.036 1.78309 1.00131 0
M  V30 4230 H 405.191 1.69593 3.48306 0
M  V30 4231 H 405.605 3.90957 3.49647 0
M  V30 4232 H 407.079 2.77204 4.77349 0
M  V30 4233 H 407.556 1.16352 4.23508 0
M  V30 4234 H 408.162 2.59453 3.36993 0
M  V30 4235 N 406.477 -1.02803 1.19454 0
M  V30 4236 C 407.41 -2.107 0.876396 0
M  V30 4237 C 408.388 -1.61741 -0.166897 0
M  V30 4238 O 409.572 -1.88451 -0.0430195 0
M  V30 4239 C 406.699 -3.37262 0.311758 0
M  V30 4240 C 405.745 -4.05093 1.33424 0
M  V30 4241 S 406.578 -4.50498 2.89503 0
M  V30 4242 C 407.734 -5.80277 2.34584 0
M  V30 4243 H 407.967 -2.37362 1.79016 0
M  V30 4244 H 405.5 -1.15755 1.02177 0
M  V30 4245 H 407.458 -4.10499 -0.00748752 0
M  V30 4246 H 406.119 -3.08693 -0.58032 0
M  V30 4247 H 405.312 -4.9611 0.888302 0
M  V30 4248 H 404.914 -3.3803 1.60037 0
M  V30 4249 H 407.206 -6.54873 1.73633 0
M  V30 4250 H 408.149 -6.29651 3.23952 0
M  V30 4251 H 408.557 -5.3599 1.77131 0
M  V30 4252 N 407.956 -0.998596 -1.21925 0
M  V30 4253 C 408.903 -0.553621 -2.24062 0
M  V30 4254 C 409.873 0.416999 -1.6078 0
M  V30 4255 O 411.058 0.320482 -1.88089 0
M  V30 4256 C 408.198 0.119959 -3.44891 0
M  V30 4257 C 407.311 -0.893077 -4.22668 0
M  V30 4258 C 406.446 -0.192424 -5.30851 0
M  V30 4259 C 405.485 -1.19344 -6.00353 0
M  V30 4260 N 404.622 -0.520707 -7.00166 0
M  V30 4261 H 409.462 -1.4293 -2.61486 0
M  V30 4262 H 406.999 -0.715838 -1.28507 0
M  V30 4263 H 408.957 0.527459 -4.13852 0
M  V30 4264 H 407.587 0.959389 -3.08214 0
M  V30 4265 H 406.639 -1.41886 -3.52948 0
M  V30 4266 H 407.951 -1.65512 -4.70539 0
M  V30 4267 H 407.105 0.271515 -6.06092 0
M  V30 4268 H 405.844 0.602075 -4.83969 0
M  V30 4269 H 404.849 -1.66795 -5.23889 0
M  V30 4270 H 406.074 -1.98891 -6.49322 0
M  V30 4271 H 404.02 0.254252 -6.55507 0
M  V30 4272 H 403.937 -1.2211 -7.46073 0
M  V30 4273 H 405.205 -0.0797596 -7.79459 0
M  V30 4274 N 409.434 1.37368 -0.772513 0
M  V30 4275 C 410.384 2.27613 -0.132823 0
M  V30 4276 C 411.368 1.46138 0.673247 0
M  V30 4277 O 412.56 1.68686 0.536095 0
M  V30 4278 C 409.689 3.35122 0.744864 0
M  V30 4279 C 408.775 4.24044 -0.0690771 0
M  V30 4280 N 409.166 4.93355 -1.1151 0
M  V30 4281 C 407.464 4.45731 0.154782 0
M  V30 4282 C 408.165 5.59 -1.60917 0
M  V30 4283 N 407.141 5.35737 -0.921222 0
M  V30 4284 H 410.943 2.78675 -0.933681 0
M  V30 4285 H 408.457 1.50494 -0.610342 0
M  V30 4286 H 410.454 3.98683 1.21892 0
M  V30 4287 H 409.114 2.85616 1.54446 0
M  V30 4288 H 410.125 4.95785 -1.49726 0
M  V30 4289 H 406.802 4.07096 0.926224 0
M  V30 4290 H 408.192 6.24395 -2.48153 0
M  V30 4291 N 410.912 0.523116 1.48665 0
M  V30 4292 C 412.159 -0.0134763 2.02496 0
M  V30 4293 C 412.487 -1.3493 1.40086 0
M  V30 4294 O 411.742 -1.88286 0.533567 0
M  V30 4295 C 412.041 -0.191671 3.56886 0
M  V30 4296 C 411.707 1.06893 4.38046 0
M  V30 4297 C 410.369 1.41443 4.59943 0
M  V30 4298 C 412.721 1.90584 4.85106 0
M  V30 4299 C 410.049 2.59594 5.26144 0
M  V30 4300 C 412.401 3.07907 5.52609 0
M  V30 4301 C 411.065 3.42811 5.72745 0
M  V30 4302 H 410.335 -0.00493133 0.740984 0
M  V30 4303 H 412.982 0.687751 1.78724 0
M  V30 4304 H 411.287 -0.97561 3.79459 0
M  V30 4305 H 412.984 -0.621659 3.96152 0
M  V30 4306 H 409.574 0.789848 4.21259 0
M  V30 4307 H 413.758 1.65203 4.67997 0
M  V30 4308 H 409.014 2.86847 5.39934 0
M  V30 4309 H 413.188 3.73066 5.88043 0
M  V30 4310 H 410.815 4.34462 6.23816 0
M  V30 4311 N 412.39 -1.55475 0.257931 0
M  V30 4312 C 413.337 -2.21837 -0.636939 0
M  V30 4313 C 414.307 -1.18596 -1.16294 0
M  V30 4314 O 415.492 -1.47081 -1.21539 0
M  V30 4315 C 412.632 -2.9301 -1.82317 0
M  V30 4316 C 411.745 -4.10931 -1.33265 0
M  V30 4317 C 410.88 -4.69791 -2.47931 0
M  V30 4318 C 409.919 -5.7994 -1.95796 0
M  V30 4319 N 409.056 -6.32935 -3.0387 0
M  V30 4320 H 413.896 -2.9793 -0.0643591 0
M  V30 4321 H 411.433 -1.47086 -0.0200031 0
M  V30 4322 H 413.391 -3.3248 -2.52018 0
M  V30 4323 H 412.021 -2.1937 -2.36805 0
M  V30 4324 H 411.073 -3.76699 -0.52931 0
M  V30 4325 H 412.385 -4.90417 -0.910654 0
M  V30 4326 H 411.539 -5.11892 -3.25656 0
M  V30 4327 H 410.278 -3.89545 -2.93438 0
M  V30 4328 H 409.283 -5.37305 -1.16546 0
M  V30 4329 H 410.508 -6.62043 -1.51246 0
M  V30 4330 H 408.454 -5.55591 -3.48791 0
M  V30 4331 H 408.371 -7.07645 -2.66035 0
M  V30 4332 H 409.639 -6.79695 -3.81621 0
M  V30 4333 N 413.868 0.0150385 -1.57593 0
M  V30 4334 C 414.815 1.01126 -2.07466 0
M  V30 4335 C 415.785 1.35064 -0.966794 0
M  V30 4336 O 416.97 1.4516 -1.23827 0
M  V30 4337 C 414.11 2.30276 -2.57035 0
M  V30 4338 C 413.223 2.02373 -3.81666 0
M  V30 4339 C 412.358 3.25496 -4.19793 0
M  V30 4340 C 411.397 2.93211 -5.37303 0
M  V30 4341 N 410.534 4.08826 -5.70794 0
M  V30 4342 H 415.374 0.57901 -2.92321 0
M  V30 4343 H 412.911 0.27426 -1.44521 0
M  V30 4344 H 414.869 3.05757 -2.83846 0
M  V30 4345 H 413.499 2.71197 -1.75077 0
M  V30 4346 H 412.551 1.17327 -3.61854 0
M  V30 4347 H 413.863 1.74567 -4.67256 0
M  V30 4348 H 413.017 4.09333 -4.47807 0
M  V30 4349 H 411.756 3.56428 -3.32882 0
M  V30 4350 H 410.761 2.07777 -5.09027 0
M  V30 4351 H 411.986 2.63542 -6.25877 0
M  V30 4352 H 409.932 4.39682 -4.86842 0
M  V30 4353 H 409.849 3.84491 -6.50924 0
M  V30 4354 H 411.117 4.93496 -6.03392 0
M  V30 4355 N 415.346 1.54954 0.287554 0
M  V30 4356 C 416.757 1.65732 0.859634 0
M  V30 4357 C 417.108 0.574767 1.87592 0
M  V30 4358 O 416.233 -0.286299 2.14498 0
M  V30 4359 C 416.828 3.00438 1.56597 0
M  V30 4360 C 415.387 3.13292 2.08627 0
M  V30 4361 C 414.534 2.61473 0.923416 0
M  V30 4362 H 417.485 1.5857 0.0642338 0
M  V30 4363 H 417.506 2.92613 2.43224 0
M  V30 4364 H 417.018 3.79207 0.826053 0
M  V30 4365 H 415.119 2.39268 2.85625 0
M  V30 4366 H 415.232 4.19647 2.31157 0
M  V30 4367 H 413.596 2.18264 1.31275 0
M  V30 4368 H 414.379 3.42733 0.197241 0
M  V30 4369 N 416.824 -0.551391 1.4764 0
M  V30 4370 C 418.052 -1.33357 1.58189 0
M  V30 4371 C 418.467 -1.87342 0.234199 0
M  V30 4372 O 417.824 -1.65301 -0.77343 0
M  V30 4373 C 417.875 -2.49942 2.61173 0
M  V30 4374 O 417.596 -1.98187 3.90709 0
M  V30 4375 C 419.097 -3.42072 2.8196 0
M  V30 4376 H 416.317 -0.40631 0.533998 0
M  V30 4377 H 418.861 -0.667367 1.93304 0
M  V30 4378 H 417.016 -3.12489 2.28975 0
M  V30 4379 H 417.43 -2.74342 4.47031 0
M  V30 4380 H 418.904 -4.20278 3.57869 0
M  V30 4381 H 419.381 -3.95978 1.89995 0
M  V30 4382 H 419.987 -2.85336 3.15378 0
M  V30 4383 N 418.302 -1.35869 -0.798587 0
M  V30 4384 C 419.532 -1.32529 -1.58491 0
M  V30 4385 C 419.94 0.0975405 -1.88948 0
M  V30 4386 O 419.283 1.06224 -1.49874 0
M  V30 4387 C 419.345 -2.07247 -2.9375 0
M  V30 4388 C 419.009 -3.56391 -2.86068 0
M  V30 4389 C 420.006 -4.50824 -2.58947 0
M  V30 4390 C 417.691 -3.9915 -3.04933 0
M  V30 4391 C 419.685 -5.85993 -2.5078 0
M  V30 4392 C 417.372 -5.34413 -2.96389 0
M  V30 4393 C 418.37 -6.27646 -2.69349 0
M  V30 4394 O 418.058 -7.60426 -2.60782 0
M  V30 4395 H 417.79 -0.456529 -0.498556 0
M  V30 4396 H 420.344 -1.79425 -0.999799 0
M  V30 4397 H 418.574 -1.55001 -3.54276 0
M  V30 4398 H 420.263 -1.96883 -3.54954 0
M  V30 4399 H 421.029 -4.19104 -2.44084 0
M  V30 4400 H 416.908 -3.26961 -3.24989 0
M  V30 4401 H 420.452 -6.58735 -2.29595 0
M  V30 4402 H 416.349 -5.65743 -3.10813 0
M  V30 4403 H 417.117 -7.70444 -2.76331 0
M  V30 4404 N 419.78 1.02168 -1.19998 0
M  V30 4405 C 421.02 1.77232 -1.01825 0
M  V30 4406 C 421.384 1.86833 0.442428 0
M  V30 4407 O 422.585 2.58293 0.744189 0
M  V30 4408 C 420.856 3.15601 -1.67722 0
M  V30 4409 S 422.415 4.06765 -1.64584 0
M  V30 4410 H 419.233 0.610021 -0.365233 0
M  V30 4411 H 421.835 1.22368 -1.52467 0
M  V30 4412 H 420.539 3.06235 -2.73218 0
M  V30 4413 H 420.07 3.7554 -1.17189 0
M  V30 4414 H 422.085 4.91586 -0.67511 0
M  V30 4415 N 421.258 1.00505 1.21394 0
M  V30 4416 C 422.206 0.558623 2.25792 0
M  V30 4417 C 423.2 -0.396848 1.64686 0
M  V30 4418 O 424.406 -0.268035 1.77993 0
M  V30 4419 H 420.781 0.1623 0.734277 0
M  V30 4420 H 422.752 1.4503 2.60785 0
M  V30 4421 C 421.501 -0.0989574 3.47559 0
M  V30 4422 H 420.824 0.627225 3.94849 0
M  V30 4423 H 422.264 -0.3746 4.22342 0
M  V30 4424 C 420.723 -1.33817 3.09184 0
M  V30 4425 O 421.253 -2.43252 3.19674 0
M  V30 4426 N 419.459 -1.21793 2.63846 0
M  V30 4427 H 419.006 -0.32746 2.5551 0
M  V30 4428 H 418.964 -2.04809 2.38539 0
M  V30 4429 N 422.737 -1.36956 0.779787 0
M  V30 4430 C 423.984 -1.99491 0.347766 0
M  V30 4431 C 424.312 -1.61898 -1.07793 0
M  V30 4432 O 423.567 -0.86071 -1.75756 0
M  V30 4433 C 423.866 -3.54585 0.447686 0
M  V30 4434 C 423.532 -4.1197 1.83279 0
M  V30 4435 C 422.194 -4.27356 2.2118 0
M  V30 4436 C 424.546 -4.43354 2.74019 0
M  V30 4437 C 421.874 -4.71432 3.4924 0
M  V30 4438 C 424.226 -4.88858 4.01497 0
M  V30 4439 C 422.89 -5.0245 4.39432 0
M  V30 4440 H 422.16 -0.729991 0.127257 0
M  V30 4441 H 424.807 -1.63599 0.995376 0
M  V30 4442 H 423.112 -3.90773 -0.283447 0
M  V30 4443 H 424.809 -4.00888 0.0945948 0
M  V30 4444 H 421.399 -4.00428 1.52825 0
M  V30 4445 H 425.583 -4.31045 2.45995 0
M  V30 4446 H 420.839 -4.80141 3.78516 0
M  V30 4447 H 425.013 -5.12108 4.71931 0
M  V30 4448 H 422.64 -5.36362 5.38721 0
M  V30 4449 N 424.215 -0.530993 -1.48385 0
M  V30 4450 C 425.455 0.000718982 -2.044 0
M  V30 4451 C 425.819 1.31485 -1.39913 0
M  V30 4452 O 427.02 1.93265 -1.86821 0
M  V30 4453 C 425.291 0.119177 -3.57201 0
M  V30 4454 S 426.85 0.600806 -4.34667 0
M  V30 4455 H 423.668 -0.0125473 -0.710889 0
M  V30 4456 H 426.27 -0.711783 -1.82082 0
M  V30 4457 H 424.974 -0.842061 -4.01668 0
M  V30 4458 H 424.505 0.856026 -3.83974 0
M  V30 4459 H 426.52 1.86514 -4.59812 0
M  V30 4460 N 425.693 1.55336 -0.266172 0
M  V30 4461 C 426.643 2.18848 0.639497 0
M  V30 4462 C 427.627 1.1503 1.12503 0
M  V30 4463 O 428.819 1.40875 1.0716 0
M  V30 4464 C 425.948 2.90626 1.82733 0
M  V30 4465 C 425.034 4.01723 1.35939 0
M  V30 4466 N 425.425 5.02145 0.606988 0
M  V30 4467 C 423.723 4.1463 1.6431 0
M  V30 4468 C 424.424 5.80572 0.362138 0
M  V30 4469 N 423.4 5.35551 0.931971 0
M  V30 4470 H 427.202 2.93845 0.0567057 0
M  V30 4471 H 424.716 1.62252 -0.0693312 0
M  V30 4472 H 426.713 3.34569 2.48735 0
M  V30 4473 H 425.373 2.17137 2.41416 0
M  V30 4474 H 426.384 5.17271 0.255198 0
M  V30 4475 H 423.061 3.52326 2.23993 0
M  V30 4476 H 424.451 6.71472 -0.239848 0
M  V30 4477 N 427.171 -0.0066808 1.57599 0
M  V30 4478 C 428.42 -0.692078 1.89455 0
M  V30 4479 C 428.733 -1.75306 0.867586 0
M  V30 4480 O 429.939 -2.49262 1.07614 0
M  V30 4481 C 428.395 -1.2821 3.36289 0
M  V30 4482 C 428.003 -0.256291 4.47266 0
M  V30 4483 C 429.747 -1.94608 3.77264 0
M  V30 4484 C 427.654 -0.855927 5.85173 0
M  V30 4485 H 426.584 -0.262252 0.706923 0
M  V30 4486 H 429.235 0.052769 1.83424 0
M  V30 4487 H 427.617 -2.0774 3.37135 0
M  V30 4488 H 428.791 0.513923 4.57925 0
M  V30 4489 H 427.106 0.306862 4.15268 0
M  V30 4490 H 429.703 -2.40364 4.77629 0
M  V30 4491 H 430.046 -2.77382 3.10427 0
M  V30 4492 H 430.579 -1.21822 3.78688 0
M  V30 4493 H 427.318 -0.0671161 6.55466 0
M  V30 4494 H 426.838 -1.59546 5.78191 0
M  V30 4495 H 428.517 -1.35658 6.32618 0
M  V30 4496 N 428.649 -1.55105 -0.279332 0
M  V30 4497 C 429.582 -1.82467 -1.37044 0
M  V30 4498 C 430.56 -0.677261 -1.47824 0
M  V30 4499 O 431.744 -0.919578 -1.64548 0
M  V30 4500 C 428.871 -1.98066 -2.7475 0
M  V30 4501 C 427.917 -3.20594 -2.81286 0
M  V30 4502 S 428.75 -4.78116 -2.41175 0
M  V30 4503 C 429.906 -4.9668 -3.80867 0
M  V30 4504 H 430.139 -2.74728 -1.1363 0
M  V30 4505 H 427.672 -1.46794 -0.478625 0
M  V30 4506 H 429.63 -2.07739 -3.54055 0
M  V30 4507 H 428.291 -1.06704 -2.9542 0
M  V30 4508 H 427.484 -3.28376 -3.82341 0
M  V30 4509 H 427.086 -3.09479 -2.09996 0
M  V30 4510 H 429.378 -4.82033 -4.76078 0
M  V30 4511 H 430.321 -5.98741 -3.78041 0
M  V30 4512 H 430.729 -4.24698 -3.71876 0
M  V30 4513 N 430.127 0.543554 -1.4793 0
M  V30 4514 C 431.057 1.65888 -1.64327 0
M  V30 4515 C 432.038 1.62818 -0.492383 0
M  V30 4516 O 433.223 1.80226 -0.723338 0
M  V30 4517 C 430.353 3.04506 -1.67013 0
M  V30 4518 C 429.307 3.2243 -2.81466 0
M  V30 4519 C 428.633 4.61972 -2.69233 0
M  V30 4520 C 429.933 3.06496 -4.22915 0
M  V30 4521 H 431.627 1.52421 -2.57698 0
M  V30 4522 H 429.173 0.731849 -1.24016 0
M  V30 4523 H 431.126 3.82391 -1.77074 0
M  V30 4524 H 429.85 3.18964 -0.70212 0
M  V30 4525 H 428.509 2.46957 -2.70938 0
M  V30 4526 H 428.157 4.73247 -1.7043 0
M  V30 4527 H 427.857 4.74911 -3.46025 0
M  V30 4528 H 429.381 5.41974 -2.81242 0
M  V30 4529 H 430.795 3.74186 -4.34348 0
M  V30 4530 H 429.192 3.30938 -5.006 0
M  V30 4531 H 430.262 2.03077 -4.40327 0
M  V30 4532 N 431.605 1.3629 0.791371 0
M  V30 4533 C 432.538 1.24816 1.9104 0
M  V30 4534 C 433.516 0.132739 1.62057 0
M  V30 4535 O 434.7 0.303527 1.8604 0
M  V30 4536 C 431.827 0.925355 3.25814 0
M  V30 4537 C 430.873 2.05495 3.7373 0
M  V30 4538 S 431.706 3.67255 3.89723 0
M  V30 4539 C 432.862 3.37084 5.27376 0
M  V30 4540 H 433.095 2.19533 2.00481 0
M  V30 4541 H 430.628 1.21684 0.950393 0
M  V30 4542 H 432.586 0.745924 4.03666 0
M  V30 4543 H 431.247 -0.00400098 3.141 0
M  V30 4544 H 430.44 1.7836 4.71385 0
M  V30 4545 H 430.042 2.1935 3.02922 0
M  V30 4546 H 432.334 2.90856 6.1189 0
M  V30 4547 H 433.277 4.33995 5.59512 0
M  V30 4548 H 433.685 2.7248 4.94383 0
M  V30 4549 N 433.083 -1.0153 1.20538 0
M  V30 4550 C 434.331 -1.74803 1.01432 0
M  V30 4551 C 434.652 -1.8963 -0.454456 0
M  V30 4552 O 433.922 -1.43975 -1.32846 0
M  V30 4553 H 432.502 -0.647598 0.372324 0
M  V30 4554 H 435.164 -1.22402 1.5167 0
M  V30 4555 H 434.26 -2.75114 1.47373 0
M  V30 4556 N 434.561 -1.01147 -1.20859 0
M  V30 4557 C 435.807 -0.698899 -1.90377 0
M  V30 4558 C 436.14 0.76904 -1.78324 0
M  V30 4559 O 435.415 1.55817 -1.16409 0
M  V30 4560 C 435.698 -1.12878 -3.41951 0
M  V30 4561 C 435.551 -2.65665 -3.62963 0
M  V30 4562 C 436.87 -0.696114 -4.3456 0
M  V30 4563 H 433.989 -0.255372 -0.691342 0
M  V30 4564 H 436.631 -1.25831 -1.42361 0
M  V30 4565 H 434.781 -0.652827 -3.82976 0
M  V30 4566 H 436.453 -3.21074 -3.31224 0
M  V30 4567 H 434.696 -3.06878 -3.06608 0
M  V30 4568 H 435.367 -2.90797 -4.69192 0
M  V30 4569 H 437.843 -1.10521 -4.01154 0
M  V30 4570 H 436.719 -1.025 -5.39245 0
M  V30 4571 H 436.98 0.402465 -4.40264 0
M  V30 4572 N 436.039 1.36541 -0.78704 0
M  V30 4573 C 437.455 1.52571 -0.46844 0
M  V30 4574 C 437.655 1.7415 1.01361 0
M  V30 4575 O 436.711 1.77163 1.79915 0
M  V30 4576 C 438.024 2.71299 -1.29682 0
M  V30 4577 C 439.572 2.85169 -1.29027 0
M  V30 4578 C 440.047 4.06898 -2.10233 0
M  V30 4579 N 441.538 4.1404 -2.07666 0
M  V30 4580 C 442.273 5.07301 -2.67271 0
M  V30 4581 N 441.769 6.06021 -3.35724 0
M  V30 4582 N 443.562 4.99898 -2.57018 0
M  V30 4583 H 435.713 1.20788 -1.74711 0
M  V30 4584 H 437.976 0.589364 -0.742532 0
M  V30 4585 H 437.682 2.61868 -2.34773 0
M  V30 4586 H 437.556 3.6539 -0.936479 0
M  V30 4587 H 439.943 2.94062 -0.247284 0
M  V30 4588 H 440.024 1.91992 -1.69035 0
M  V30 4589 H 439.668 3.98766 -3.1456 0
M  V30 4590 H 439.598 4.99218 -1.67597 0
M  V30 4591 H 442.089 3.43357 -1.57843 0
M  V30 4592 H 442.402 6.73741 -3.78541 0
M  V30 4593 H 440.747 6.06253 -3.39826 0
M  V30 4594 H 443.938 4.21724 -2.03142 0
M  V30 4595 H 444.111 5.72392 -3.03761 0
M  V30 4596 N 437.518 0.538854 1.48102 0
M  V30 4597 C 438.465 -0.219042 2.29758 0
M  V30 4598 C 439.435 -0.925562 1.37922 0
M  V30 4599 O 440.62 -0.924855 1.66886 0
M  V30 4600 C 437.76 -1.25452 3.2149 0
M  V30 4601 C 436.873 -0.555943 4.28408 0
M  V30 4602 C 436.008 -1.57512 5.0731 0
M  V30 4603 C 435.047 -0.860498 6.06021 0
M  V30 4604 N 434.184 -1.82564 6.77949 0
M  V30 4605 H 439.024 0.483449 2.94052 0
M  V30 4606 H 436.561 0.250247 1.44956 0
M  V30 4607 H 438.519 -1.86727 3.7308 0
M  V30 4608 H 437.149 -1.92528 2.591 0
M  V30 4609 H 436.201 0.170938 3.80016 0
M  V30 4610 H 437.513 0.00474616 4.988 0
M  V30 4611 H 436.667 -2.26191 5.62959 0
M  V30 4612 H 435.406 -2.16972 4.36778 0
M  V30 4613 H 434.411 -0.159686 5.49568 0
M  V30 4614 H 435.636 -0.271897 6.78555 0
M  V30 4615 H 433.582 -2.40915 6.10161 0
M  V30 4616 H 433.499 -1.31662 7.44447 0
M  V30 4617 H 434.767 -2.50414 7.38182 0
M  V30 4618 N 438.996 -1.55193 0.274407 0
M  V30 4619 C 439.928 -2.1989 -0.646595 0
M  V30 4620 C 440.941 -1.1834 -1.11801 0
M  V30 4621 O 442.13 -1.4507 -1.04004 0
M  V30 4622 C 439.23 -2.8104 -1.89393 0
M  V30 4623 C 438.403 -4.08274 -1.56943 0
M  V30 4624 C 437.462 -4.53478 -2.66916 0
M  V30 4625 O 436.488 -5.19267 -2.33132 0
M  V30 4626 N 437.69 -4.2356 -3.9696 0
M  V30 4627 H 440.455 -2.99556 -0.0928686 0
M  V30 4628 H 438.016 -1.61618 0.0954783 0
M  V30 4629 H 440.008 -3.08226 -2.62257 0
M  V30 4630 H 438.578 -2.05372 -2.35672 0
M  V30 4631 H 437.798 -3.88384 -0.674655 0
M  V30 4632 H 439.086 -4.91173 -1.32764 0
M  V30 4633 H 438.484 -3.70799 -4.27229 0
M  V30 4634 H 437.041 -4.55518 -4.66205 0
M  V30 4635 N 440.474 -0.00167713 -1.576 0
M  V30 4636 C 441.722 0.681471 -1.90264 0
M  V30 4637 C 442.043 1.7422 -0.875924 0
M  V30 4638 O 441.313 1.95709 0.0864412 0
M  V30 4639 H 439.893 0.254696 -0.702239 0
M  V30 4640 H 442.555 -0.0429996 -1.94853 0
M  V30 4641 H 441.651 1.15166 -2.90075 0
M  V30 4642 N 441.952 1.55251 0.271103 0
M  V30 4643 C 442.882 1.9127 1.33933 0
M  V30 4644 C 443.863 0.77478 1.5143 0
M  V30 4645 O 445.048 1.03307 1.64442 0
M  V30 4646 C 442.178 2.18627 2.69851 0
M  V30 4647 C 441.132 3.34442 2.67081 0
M  V30 4648 C 440.458 3.47284 4.06569 0
M  V30 4649 C 441.758 4.70784 2.26185 0
M  V30 4650 H 443.452 2.80744 1.04035 0
M  V30 4651 H 440.998 1.35077 0.499017 0
M  V30 4652 H 442.951 2.42413 3.44694 0
M  V30 4653 H 441.675 1.25955 3.01335 0
M  V30 4654 H 440.334 3.10627 1.94695 0
M  V30 4655 H 439.982 2.52074 4.35279 0
M  V30 4656 H 439.682 4.25152 4.0561 0
M  V30 4657 H 441.206 3.73363 4.83148 0
M  V30 4658 H 442.62 4.94102 2.90751 0
M  V30 4659 H 441.017 5.51582 2.36384 0
M  V30 4660 H 442.087 4.69478 1.21319 0
M  V30 4661 N 443.43 -0.535701 1.48216 0
M  V30 4662 C 444.67 -1.30238 1.57536 0
M  V30 4663 C 445.034 -1.90479 0.241229 0
M  V30 4664 O 446.235 -2.67983 0.20938 0
M  V30 4665 C 444.506 -2.3669 2.67792 0
M  V30 4666 S 446.065 -3.23159 2.9684 0
M  V30 4667 H 442.883 -0.443093 0.556048 0
M  V30 4668 H 445.485 -0.610937 1.85709 0
M  V30 4669 H 444.189 -1.90905 3.63296 0
M  V30 4670 H 443.72 -3.10548 2.41502 0
M  V30 4671 H 445.735 -4.36647 2.35699 0
M  V30 4672 N 444.908 -1.36708 -0.784132 0
M  V30 4673 C 446.148 -1.32618 -1.55537 0
M  V30 4674 C 446.512 0.0920681 -1.91779 0
M  V30 4675 O 447.713 0.257573 -2.67563 0
M  V30 4676 C 445.984 -2.22788 -2.79464 0
M  V30 4677 S 447.543 -2.36432 -3.69656 0
M  V30 4678 H 444.361 -0.470973 -0.53264 0
M  V30 4679 H 446.963 -1.72333 -0.92312 0
M  V30 4680 H 445.667 -3.24774 -2.50899 0
M  V30 4681 H 445.198 -1.84112 -3.47658 0
M  V30 4682 H 447.213 -1.56573 -4.7085 0
M  V30 4683 N 446.386 1.0089 -1.21074 0
M  V30 4684 C 447.614 1.78191 -1.05145 0
M  V30 4685 C 448.029 1.84537 0.398952 0
M  V30 4686 O 447.386 1.30393 1.27687 0
M  V30 4687 C 447.437 3.22288 -1.63746 0
M  V30 4688 O 447.158 3.16315 -3.03111 0
M  V30 4689 C 448.659 4.16106 -1.52875 0
M  V30 4690 H 445.879 0.560129 -0.369454 0
M  V30 4691 H 448.423 1.26945 -1.60328 0
M  V30 4692 H 446.578 3.70655 -1.12664 0
M  V30 4693 H 446.992 4.06817 -3.31059 0
M  V30 4694 H 448.466 5.15026 -1.98626 0
M  V30 4695 H 448.943 4.36541 -0.482521 0
M  V30 4696 H 449.549 3.73625 -2.03185 0
M  V30 4697 N 447.864 1.01787 1.20321 0
M  V30 4698 C 449.094 0.72614 1.93419 0
M  V30 4699 C 449.502 -0.717317 1.75075 0
M  V30 4700 O 448.845 -1.49836 1.06278 0
M  V30 4701 C 448.907 0.983621 3.45782 0
M  V30 4702 C 448.571 2.41645 3.87888 0
M  V30 4703 C 449.568 3.39732 3.93545 0
M  V30 4704 C 447.253 2.75752 4.19841 0
M  V30 4705 C 449.247 4.69988 4.30569 0
M  V30 4706 C 446.934 4.06221 4.56539 0
M  V30 4707 C 447.932 5.0315 4.61876 0
M  V30 4708 O 447.62 6.31284 4.97731 0
M  V30 4709 H 447.352 0.265824 0.621541 0
M  V30 4710 H 449.906 1.3623 1.53722 0
M  V30 4711 H 448.136 0.290301 3.85609 0
M  V30 4712 H 449.825 0.683279 4.00108 0
M  V30 4713 H 450.591 3.14718 3.69022 0
M  V30 4714 H 446.47 2.00993 4.14877 0
M  V30 4715 H 450.014 5.45642 4.3465 0
M  V30 4716 H 445.911 4.31013 4.80518 0
M  V30 4717 H 446.679 6.35591 5.15719 0
M  V30 4718 N 449.342 -1.36122 0.79427 0
M  V30 4719 C 450.582 -2.00942 0.374376 0
M  V30 4720 C 450.946 -1.61666 -1.03577 0
M  V30 4721 O 452.147 -2.19113 -1.55701 0
M  V30 4722 C 450.418 -3.53323 0.538327 0
M  V30 4723 S 451.977 -4.38311 0.20703 0
M  V30 4724 H 448.795 -0.696515 0.142785 0
M  V30 4725 H 451.397 -1.65929 1.03382 0
M  V30 4726 H 450.101 -3.79395 1.56484 0
M  V30 4727 H 449.632 -3.93162 -0.136882 0
M  V30 4728 H 451.647 -4.8623 -0.989695 0
M  V30 4729 N 450.82 -0.546701 -1.47814 0
M  V30 4730 C 451.767 0.206854 -2.29871 0
M  V30 4731 C 452.737 0.918235 -1.38411 0
M  V30 4732 O 453.922 0.915991 -1.67375 0
M  V30 4733 C 451.062 1.23746 -3.22151 0
M  V30 4734 C 450.175 0.533216 -4.28697 0
M  V30 4735 C 449.31 1.5482 -5.08138 0
M  V30 4736 C 448.349 0.828347 -6.06469 0
M  V30 4737 N 447.486 1.78966 -6.78908 0
M  V30 4738 H 452.326 -0.499037 -2.93792 0
M  V30 4739 H 449.863 -0.25793 -1.44821 0
M  V30 4740 H 451.821 1.84746 -3.74065 0
M  V30 4741 H 450.451 1.91151 -2.60117 0
M  V30 4742 H 449.503 -0.191089 -3.7992 0
M  V30 4743 H 450.815 -0.0311987 -4.9879 0
M  V30 4744 H 449.969 2.23202 -5.6415 0
M  V30 4745 H 448.708 2.14652 -4.37922 0
M  V30 4746 H 447.713 0.130539 -5.49645 0
M  V30 4747 H 448.938 0.235907 -6.7869 0
M  V30 4748 H 446.884 2.37675 -6.1143 0
M  V30 4749 H 446.801 1.27712 -7.45135 0
M  V30 4750 H 448.069 2.46496 -7.395 0
M  V30 4751 N 452.299 1.55045 -0.282633 0
M  V30 4752 C 453.529 2.03872 0.334635 0
M  V30 4753 C 453.937 1.16018 1.49454 0
M  V30 4754 O 453.28 0.174449 1.8287 0
M  V30 4755 C 453.342 3.48791 0.870905 0
M  V30 4756 C 453.006 4.56715 -0.161338 0
M  V30 4757 C 454.003 5.10513 -0.983466 0
M  V30 4758 C 451.688 5.01417 -0.297745 0
M  V30 4759 C 453.682 6.07538 -1.92811 0
M  V30 4760 C 451.369 5.98265 -1.24586 0
M  V30 4761 C 452.367 6.51208 -2.05954 0
M  V30 4762 O 452.055 7.46162 -2.99162 0
M  V30 4763 H 451.787 0.671324 0.0793742 0
M  V30 4764 H 454.341 2.01169 -0.41473 0
M  V30 4765 H 452.571 3.48758 1.67047 0
M  V30 4766 H 454.26 3.80916 1.40207 0
M  V30 4767 H 455.026 4.76785 -0.888856 0
M  V30 4768 H 450.905 4.59849 0.325604 0
M  V30 4769 H 454.449 6.48787 -2.56363 0
M  V30 4770 H 450.346 6.31412 -1.34126 0
M  V30 4771 H 451.114 7.63903 -2.93929 0
M  V30 4772 N 453.777 0.010035 1.57597 0
M  V30 4773 C 455.005 -0.683413 1.95287 0
M  V30 4774 C 455.42 -1.66747 0.885481 0
M  V30 4775 O 454.777 -1.82003 -0.134629 0
M  V30 4776 C 454.828 -1.40652 3.33015 0
M  V30 4777 O 454.549 -0.461916 4.35658 0
M  V30 4778 C 456.05 -2.19356 3.85225 0
M  V30 4779 H 453.27 -0.189708 0.643624 0
M  V30 4780 H 455.814 0.0641359 2.04399 0
M  V30 4781 H 453.969 -2.10562 3.2518 0
M  V30 4782 H 454.383 -0.973215 5.15392 0
M  V30 4783 H 455.857 -2.65433 4.83993 0
M  V30 4784 H 456.334 -3.02457 3.18459 0
M  V30 4785 H 456.94 -1.54442 3.96267 0
M  V30 4786 N 455.255 -1.55392 -0.262866 0
M  V30 4787 C 456.501 -1.76737 -0.99458 0
M  V30 4788 C 456.834 -0.572453 -1.85571 0
M  V30 4789 O 456.109 0.429732 -1.89693 0
M  V30 4790 C 456.392 -3.07824 -1.8686 0
M  V30 4791 C 456.245 -4.3769 -1.03672 0
M  V30 4792 C 457.564 -3.35021 -2.85393 0
M  V30 4793 H 454.683 -0.643005 -0.360157 0
M  V30 4794 H 457.325 -1.88126 -0.266216 0
M  V30 4795 H 455.475 -2.98245 -2.48962 0
M  V30 4796 H 457.147 -4.59238 -0.43563 0
M  V30 4797 H 455.39 -4.32461 -0.340513 0
M  V30 4798 H 456.061 -5.25759 -1.6817 0
M  V30 4799 H 458.537 -3.44458 -2.33426 0
M  V30 4800 H 457.413 -4.27989 -3.43681 0
M  V30 4801 H 457.674 -2.55153 -3.61039 0
M  V30 4802 N 456.733 0.527833 -1.48498 0
M  V30 4803 C 457.683 1.62844 -1.5958 0
M  V30 4804 C 458.667 1.54397 -0.452809 0
M  V30 4805 O 459.859 1.62381 -0.704364 0
M  V30 4806 C 456.988 3.01557 -1.64067 0
M  V30 4807 C 456.074 3.151 -2.83853 0
M  V30 4808 N 456.465 2.9861 -4.08247 0
M  V30 4809 C 454.763 3.46158 -2.8123 0
M  V30 4810 C 455.464 3.15626 -4.88626 0
M  V30 4811 N 454.44 3.43298 -4.21483 0
M  V30 4812 H 458.242 1.48708 -2.53502 0
M  V30 4813 H 455.756 0.733343 -1.44899 0
M  V30 4814 H 457.753 3.8062 -1.70101 0
M  V30 4815 H 456.413 3.16783 -0.712636 0
M  V30 4816 H 457.424 2.75329 -4.3865 0
M  V30 4817 H 454.101 3.67728 -1.97692 0
M  V30 4818 H 455.491 3.07596 -5.97356 0
M  V30 4819 N 458.211 1.37122 0.776871 0
M  V30 4820 C 459.121 1.34651 1.9211 0
M  V30 4821 C 460.137 0.246824 1.7224 0
M  V30 4822 O 461.313 0.48134 1.95563 0
M  V30 4823 C 458.378 1.14748 3.2716 0
M  V30 4824 C 457.439 2.34308 3.5972 0
M  V30 4825 C 456.672 2.15345 4.88326 0
M  V30 4826 O 456.895 1.13507 5.58992 0
M  V30 4827 O 455.829 3.03414 5.1983 0
M  V30 4828 H 459.655 2.31013 1.97146 0
M  V30 4829 H 457.24 1.17799 0.918901 0
M  V30 4830 H 459.122 1.05616 4.0795 0
M  V30 4831 H 457.797 0.214562 3.22988 0
M  V30 4832 H 456.704 2.49011 2.79185 0
M  V30 4833 H 458.037 3.26149 3.68629 0
M  V30 4834 N 459.689 -1.00246 1.21608 0
M  V30 4835 C 461.105 -1.26435 0.973975 0
M  V30 4836 C 461.305 -1.98642 -0.338143 0
M  V30 4837 O 460.361 -2.29026 -1.06317 0
M  V30 4838 C 461.674 -2.08551 2.16626 0
M  V30 4839 C 463.222 -2.21769 2.20879 0
M  V30 4840 C 463.697 -3.07267 3.39633 0
M  V30 4841 N 465.188 -3.14855 3.39736 0
M  V30 4842 C 465.923 -3.81274 4.28273 0
M  V30 4843 N 465.419 -4.497 5.27012 0
M  V30 4844 N 467.212 -3.7794 4.16074 0
M  V30 4845 H 459.363 -0.518089 2.05984 0
M  V30 4846 H 461.626 -0.291368 0.902113 0
M  V30 4847 H 461.332 -1.62847 3.11727 0
M  V30 4848 H 461.206 -3.09303 2.15897 0
M  V30 4849 H 463.593 -2.66691 1.26332 0
M  V30 4850 H 463.674 -1.20478 2.25652 0
M  V30 4851 H 463.318 -2.63047 4.34475 0
M  V30 4852 H 463.248 -4.08678 3.321 0
M  V30 4853 H 465.739 -2.66147 2.6828 0
M  V30 4854 H 466.052 -4.98092 5.90867 0
M  V30 4855 H 464.397 -4.48479 5.30935 0
M  V30 4856 H 467.588 -3.23638 3.38195 0
M  V30 4857 H 467.761 -4.29424 4.85282 0
M  V30 4858 N 461.167 -1.02423 -1.1978 0
M  V30 4859 C 462.407 -0.726635 -1.91048 0
M  V30 4860 C 462.771 0.730947 -1.77542 0
M  V30 4861 O 463.972 1.14141 -2.43362 0
M  V30 4862 C 462.243 -1.15964 -3.38064 0
M  V30 4863 S 463.802 -0.985172 -4.27598 0
M  V30 4864 H 460.62 -0.264679 -0.659899 0
M  V30 4865 H 463.222 -1.31309 -1.44838 0
M  V30 4866 H 461.926 -2.21619 -3.45417 0
M  V30 4867 H 461.457 -0.566274 -3.89303 0
M  V30 4868 H 463.472 0.106946 -4.96085 0
M  V30 4869 N 462.645 1.35699 -0.801477 0
M  V30 4870 C 463.891 1.99208 -0.380022 0
M  V30 4871 C 464.224 1.63445 1.04878 0
M  V30 4872 O 463.499 0.895223 1.72673 0
M  V30 4873 C 463.782 3.55755 -0.557708 0
M  V30 4874 C 463.635 4.01332 -2.03107 0
M  V30 4875 C 464.954 4.40096 0.0197968 0
M  V30 4876 H 462.073 0.723667 -0.139552 0
M  V30 4877 H 464.715 1.60928 -1.01006 0
M  V30 4878 H 462.865 3.88494 -0.0213741 0
M  V30 4879 H 464.537 3.79026 -2.62939 0
M  V30 4880 H 462.78 3.52429 -2.52936 0
M  V30 4881 H 463.451 5.10234 -2.1063 0
M  V30 4882 H 465.927 4.13786 -0.438179 0
M  V30 4883 H 464.803 5.48735 -0.134477 0
M  V30 4884 H 465.064 4.2786 1.11303 0
M  V30 4885 N 464.123 0.554532 1.47522 0
M  V30 4886 C 465.348 0.0322661 2.07375 0
M  V30 4887 C 465.773 -1.25079 1.40488 0
M  V30 4888 O 465.131 -1.74859 0.47896 0
M  V30 4889 C 465.179 -0.149397 3.6029 0
M  V30 4890 O 464.283 -1.21259 3.9417 0
M  V30 4891 H 463.624 0.0501228 0.662106 0
M  V30 4892 H 466.154 0.769452 1.8958 0
M  V30 4893 H 466.164 -0.364437 4.06369 0
M  V30 4894 H 464.839 0.787743 4.08372 0
M  V30 4895 H 463.416 -0.97825 3.5984 0
M  V30 4896 N 465.601 -1.54893 0.290851 0
M  V30 4897 C 467.017 -1.59476 -0.0628432 0
M  V30 4898 C 467.217 -1.30795 -1.5328 0
M  V30 4899 O 466.273 -1.07644 -2.28406 0
M  V30 4900 C 467.586 -2.98928 0.325962 0
M  V30 4901 C 469.134 -3.11799 0.273882 0
M  V30 4902 C 469.609 -4.53544 0.637359 0
M  V30 4903 N 471.1 -4.59433 0.589507 0
M  V30 4904 C 471.835 -5.67164 0.84335 0
M  V30 4905 N 471.331 -6.82975 1.16263 0
M  V30 4906 N 473.124 -5.56786 0.771091 0
M  V30 4907 H 465.275 -1.71798 1.24896 0
M  V30 4908 H 467.538 -0.801879 0.505663 0
M  V30 4909 H 467.244 -3.24805 1.34887 0
M  V30 4910 H 467.118 -3.75793 -0.325441 0
M  V30 4911 H 469.505 -2.85677 -0.739765 0
M  V30 4912 H 469.586 -2.37112 0.959766 0
M  V30 4913 H 469.23 -4.80394 1.64877 0
M  V30 4914 H 469.16 -5.26553 -0.0704866 0
M  V30 4915 H 471.651 -3.76245 0.353252 0
M  V30 4916 H 471.964 -7.61048 1.34257 0
M  V30 4917 H 470.309 -6.84552 1.20057 0
M  V30 4918 H 473.5 -4.65187 0.521383 0
M  V30 4919 H 473.673 -6.40664 0.972295 0
M  V30 4920 N 467.08 -0.0183926 -1.57589 0
M  V30 4921 C 468.028 0.985111 -2.10709 0
M  V30 4922 C 469.022 1.34397 -1.0312 0
M  V30 4923 O 470.228 1.32746 -1.21567 0
M  V30 4924 H 466.603 0.335418 -0.673052 0
M  V30 4925 H 468.574 0.511689 -2.9398 0
M  V30 4926 C 467.323 2.26202 -2.64061 0
M  V30 4927 H 466.646 1.9946 -3.4649 0
M  V30 4928 H 468.086 2.94652 -3.04887 0
M  V30 4929 C 466.545 2.98444 -1.5631 0
M  V30 4930 O 467.075 3.90142 -0.956674 0
M  V30 4931 N 465.281 2.6059 -1.28612 0
M  V30 4932 H 464.828 1.86101 -1.78112 0
M  V30 4933 H 464.786 3.09238 -0.567406 0
M  V30 4934 N 468.558 1.5553 0.254621 0
M  V30 4935 C 469.807 1.76202 0.981612 0
M  V30 4936 C 470.12 0.580883 1.86776 0
M  V30 4937 O 471.326 0.670448 2.63092 0
M  V30 4938 C 469.782 3.11921 1.79537 0
M  V30 4939 C 469.39 4.37659 0.956991 0
M  V30 4940 C 471.134 3.41936 2.51555 0
M  V30 4941 C 469.041 5.64411 1.76619 0
M  V30 4942 H 467.971 0.656841 0.370237 0
M  V30 4943 H 470.622 1.81969 0.236556 0
M  V30 4944 H 469.004 3.00241 2.58208 0
M  V30 4945 H 470.178 4.60307 0.21315 0
M  V30 4946 H 468.493 4.14922 0.350497 0
M  V30 4947 H 471.09 4.33849 3.12536 0
M  V30 4948 H 471.433 2.62905 3.22779 0
M  V30 4949 H 471.966 3.54797 1.799 0
M  V30 4950 H 468.705 6.46241 1.09783 0
M  V30 4951 H 468.225 5.45877 2.48551 0
M  V30 4952 H 469.904 6.03386 2.33527 0
M  V30 4953 N 470.036 -0.519951 1.48776 0
M  V30 4954 C 471.447 -1.10177 1.50725 0
M  V30 4955 C 471.798 -1.94153 0.282678 0
M  V30 4956 O 470.923 -2.07645 -0.609298 0
M  V30 4957 C 471.518 -2.00482 2.73116 0
M  V30 4958 C 470.077 -2.53862 2.77905 0
M  V30 4959 C 469.224 -1.31047 2.44381 0
M  V30 4960 H 472.175 -0.30473 1.55747 0
M  V30 4961 H 472.196 -2.8491 2.52203 0
M  V30 4962 H 471.708 -1.39335 3.62225 0
M  V30 4963 H 469.809 -3.18702 1.93029 0
M  V30 4964 H 469.922 -2.9231 3.79594 0
M  V30 4965 H 468.286 -1.62953 1.95751 0
M  V30 4966 H 469.069 -0.71637 3.35743 0
M  V30 4967 N 471.514 -1.37532 -0.769588 0
M  V30 4968 C 472.762 -1.32597 -1.5252 0
M  V30 4969 C 473.083 0.0884294 -1.94799 0
M  V30 4970 O 472.353 1.03289 -1.66458 0
M  V30 4971 H 470.933 -0.487846 -0.565699 0
M  V30 4972 H 473.595 -1.72044 -0.915806 0
M  V30 4973 H 472.691 -1.96643 -2.42359 0
M  V30 4974 N 472.992 0.995999 -1.22138 0
M  V30 4975 C 474.232 1.75032 -1.05561 0
M  V30 4976 C 474.596 1.87729 0.402698 0
M  V30 4977 O 475.797 2.59813 0.689234 0
M  V30 4978 C 474.068 3.11973 -1.74379 0
M  V30 4979 S 475.627 4.03182 -1.73175 0
M  V30 4980 H 472.445 0.602137 -0.37809 0
M  V30 4981 H 475.047 1.19107 -1.55028 0
M  V30 4982 H 473.751 3.00371 -2.79652 0
M  V30 4983 H 473.282 3.7297 -1.25128 0
M  V30 4984 H 475.297 4.90043 -0.77923 0
M  V30 4985 N 474.47 1.03057 1.19235 0
M  V30 4986 C 475.716 0.729098 1.89241 0
M  V30 4987 C 476.049 -0.740573 1.79525 0
M  V30 4988 O 475.324 -1.53946 1.18874 0
M  V30 4989 C 475.607 1.18304 3.40112 0
M  V30 4990 C 475.46 2.71406 3.5869 0
M  V30 4991 C 476.779 0.765161 4.33397 0
M  V30 4992 H 473.898 0.266338 0.687192 0
M  V30 4993 H 476.54 1.28079 1.40341 0
M  V30 4994 H 474.69 0.713672 3.81889 0
M  V30 4995 H 476.362 3.26303 3.26074 0
M  V30 4996 H 474.605 3.11717 3.01687 0
M  V30 4997 H 475.276 2.98225 4.64506 0
M  V30 4998 H 477.752 1.16889 3.99345 0
M  V30 4999 H 476.628 1.11065 5.37546 0
M  V30 5000 H 476.889 -0.332372 4.40849 0
M  V30 5001 N 475.948 -1.35272 0.808662 0
M  V30 5002 C 476.895 -2.29764 0.218482 0
M  V30 5003 C 477.865 -1.52911 -0.648652 0
M  V30 5004 O 479.05 -1.81341 -0.593297 0
M  V30 5005 C 476.19 -3.39388 -0.625282 0
M  V30 5006 C 475.303 -4.31202 0.262516 0
M  V30 5007 C 474.438 -5.27919 -0.589451 0
M  V30 5008 C 473.477 -6.11371 0.298617 0
M  V30 5009 N 472.614 -7.0022 -0.513443 0
M  V30 5010 H 477.454 -2.79645 1.02968 0
M  V30 5011 H 474.991 -1.37629 0.519303 0
M  V30 5012 H 476.949 -4.01615 -1.12966 0
M  V30 5013 H 475.579 -2.90777 -1.40173 0
M  V30 5014 H 474.631 -3.69962 0.885013 0
M  V30 5015 H 475.943 -4.89748 0.945971 0
M  V30 5016 H 475.097 -5.95529 -1.15888 0
M  V30 5017 H 473.836 -4.69875 -1.30647 0
M  V30 5018 H 472.841 -5.42707 0.880301 0
M  V30 5019 H 474.066 -6.71494 1.01352 0
M  V30 5020 H 472.012 -6.44662 -1.21439 0
M  V30 5021 H 471.929 -7.55917 0.111922 0
M  V30 5022 H 473.197 -7.72175 -1.06608 0
M  V30 5023 N 477.426 -0.562348 -1.47226 0
M  V30 5024 C 478.654 -0.0452275 -2.06851 0
M  V30 5025 C 479.069 1.25078 -1.41424 0
M  V30 5026 O 478.426 1.75156 -0.512513 0
M  V30 5027 C 478.477 0.148674 -3.61194 0
M  V30 5028 O 478.198 -1.09602 -4.24169 0
M  V30 5029 C 479.699 0.702488 -4.37699 0
M  V30 5030 H 476.919 -0.0481775 -0.669268 0
M  V30 5031 H 479.463 -0.777223 -1.89155 0
M  V30 5032 H 477.618 0.830817 -3.78386 0
M  V30 5033 H 478.032 -0.896982 -5.16773 0
M  V30 5034 H 479.506 0.78743 -5.46355 0
M  V30 5035 H 479.983 1.71493 -4.04335 0
M  V30 5036 H 480.589 0.0558772 -4.25263 0
M  V30 5037 N 478.904 1.54736 -0.299062 0
M  V30 5038 C 480.134 2.04215 0.312992 0
M  V30 5039 C 480.542 1.17596 1.48215 0
M  V30 5040 O 479.885 0.193835 1.82674 0
M  V30 5041 C 479.947 3.49696 0.833862 0
M  V30 5042 C 479.611 4.56518 -0.20977 0
M  V30 5043 C 480.608 5.09442 -1.03756 0
M  V30 5044 C 478.293 5.01073 -0.35091 0
M  V30 5045 C 480.287 6.05459 -1.99244 0
M  V30 5046 C 477.974 5.9691 -1.30924 0
M  V30 5047 C 478.972 6.48987 -2.1285 0
M  V30 5048 O 478.66 7.42947 -3.07059 0
M  V30 5049 H 478.392 0.672128 0.0722494 0
M  V30 5050 H 480.946 2.00718 -0.436043 0
M  V30 5051 H 479.176 3.5051 1.63339 0
M  V30 5052 H 480.865 3.82381 1.36159 0
M  V30 5053 H 481.631 4.75816 -0.939376 0
M  V30 5054 H 477.51 4.60168 0.276813 0
M  V30 5055 H 481.054 6.46031 -2.63229 0
M  V30 5056 H 476.951 6.29953 -1.40815 0
M  V30 5057 H 477.719 7.60743 -3.02015 0
M  V30 5058 N 480.382 0.0267497 1.57577 0
M  V30 5059 C 481.607 -0.666227 1.96408 0
M  V30 5060 C 482.032 -1.65004 0.903071 0
M  V30 5061 O 481.39 -1.80787 -0.136263 0
M  V30 5062 C 481.438 -1.35101 3.34335 0
M  V30 5063 O 480.542 -2.46623 3.30531 0
M  V30 5064 H 479.883 -0.175206 0.640468 0
M  V30 5065 H 482.413 0.0878977 2.04411 0
M  V30 5066 H 482.423 -1.70834 3.70513 0
M  V30 5067 H 481.098 -0.629844 4.11103 0
M  V30 5068 H 479.675 -2.13019 3.06068 0
M  V30 5069 N 481.861 -1.55662 -0.24637 0
M  V30 5070 C 482.808 -1.90361 -1.30504 0
M  V30 5071 C 483.778 -0.757905 -1.47801 0
M  V30 5072 O 484.963 -1.01161 -1.61775 0
M  V30 5073 C 482.103 -2.2042 -2.65535 0
M  V30 5074 C 481.216 -3.47799 -2.56242 0
M  V30 5075 C 480.351 -3.67426 -3.8363 0
M  V30 5076 C 479.39 -4.88403 -3.68956 0
M  V30 5077 N 478.527 -5.04548 -4.88237 0
M  V30 5078 H 483.367 -2.80645 -1.00213 0
M  V30 5079 H 480.904 -1.38924 -0.483577 0
M  V30 5080 H 482.862 -2.35853 -3.44135 0
M  V30 5081 H 481.492 -1.3334 -2.93973 0
M  V30 5082 H 480.544 -3.40694 -1.69208 0
M  V30 5083 H 481.856 -4.36544 -2.4131 0
M  V30 5084 H 481.01 -3.82821 -4.70673 0
M  V30 5085 H 479.749 -2.76914 -4.01459 0
M  V30 5086 H 478.754 -4.72984 -2.80296 0
M  V30 5087 H 479.979 -5.80375 -3.52621 0
M  V30 5088 H 477.925 -4.16974 -5.06427 0
M  V30 5089 H 477.842 -5.87384 -4.75937 0
M  V30 5090 H 479.11 -5.24355 -5.76777 0
M  V30 5091 N 483.339 0.512053 -1.4905 0
M  V30 5092 C 484.302 1.59704 -1.64399 0
M  V30 5093 C 485.302 1.52285 -0.516317 0
M  V30 5094 O 486.492 1.55635 -0.782527 0
M  V30 5095 C 483.624 2.9935 -1.63102 0
M  V30 5096 H 484.817 1.47428 -2.61161 0
M  V30 5097 H 482.37 0.735469 -1.37915 0
M  V30 5098 H 483.105 3.17116 -0.678836 0
M  V30 5099 H 482.89 3.06144 -2.44986 0
M  V30 5100 H 484.38 3.782 -1.77072 0
M  V30 5101 N 484.817 1.37938 0.762283 0
M  V30 5102 C 485.764 1.34467 1.87583 0
M  V30 5103 C 486.734 0.208633 1.64785 0
M  V30 5104 O 487.919 0.399494 1.86571 0
M  V30 5105 C 485.059 1.16692 3.24772 0
M  V30 5106 C 484.172 2.39608 3.59461 0
M  V30 5107 C 483.307 2.14631 4.85908 0
M  V30 5108 C 482.346 3.33364 5.13357 0
M  V30 5109 N 481.483 3.07877 6.30996 0
M  V30 5110 H 486.323 2.29669 1.89885 0
M  V30 5111 H 483.86 1.14116 0.928219 0
M  V30 5112 H 485.818 1.04405 4.03925 0
M  V30 5113 H 484.448 0.251333 3.2182 0
M  V30 5114 H 483.5 2.626 2.75219 0
M  V30 5115 H 484.812 3.28128 3.75678 0
M  V30 5116 H 483.966 1.99429 5.72986 0
M  V30 5117 H 482.705 1.23463 4.71814 0
M  V30 5118 H 481.71 3.49094 4.24751 0
M  V30 5119 H 482.935 4.25395 5.29354 0
M  V30 5120 H 480.881 2.19348 6.18241 0
M  V30 5121 H 480.798 3.89944 6.47673 0
M  V30 5122 H 482.066 2.96313 7.20985 0
M  V30 5123 N 486.295 -0.989507 1.22664 0
M  V30 5124 C 487.711 -1.25395 0.987331 0
M  V30 5125 C 487.911 -1.9899 -0.317056 0
M  V30 5126 O 486.967 -2.30141 -1.03882 0
M  V30 5127 C 488.28 -2.06242 2.18826 0
M  V30 5128 C 489.828 -2.19413 2.23219 0
M  V30 5129 C 490.303 -3.03648 3.42873 0
M  V30 5130 N 491.794 -3.11234 3.43056 0
M  V30 5131 C 492.529 -3.7671 4.32293 0
M  V30 5132 N 492.025 -4.44085 5.31752 0
M  V30 5133 N 493.818 -3.73505 4.2006 0
M  V30 5134 H 485.969 -0.496212 2.06522 0
M  V30 5135 H 488.232 -0.281784 0.905153 0
M  V30 5136 H 487.938 -1.59531 3.13437 0
M  V30 5137 H 487.812 -3.06996 2.19165 0
M  V30 5138 H 490.199 -2.65336 1.29154 0
M  V30 5139 H 490.28 -1.18078 2.26917 0
M  V30 5140 H 489.924 -2.58424 4.37241 0
M  V30 5141 H 489.854 -4.05132 3.36416 0
M  V30 5142 H 492.345 -2.63287 2.71088 0
M  V30 5143 H 492.658 -4.91797 5.96117 0
M  V30 5144 H 491.003 -4.42822 5.35662 0
M  V30 5145 H 494.194 -3.20033 3.41609 0
M  V30 5146 H 494.367 -4.24253 4.8981 0
M  V30 5147 N 487.773 -1.03688 -1.18687 0
M  V30 5148 C 488.998 -0.757819 -1.93059 0
M  V30 5149 C 489.423 0.678353 -1.75442 0
M  V30 5150 O 488.781 1.46938 -1.06203 0
M  V30 5151 C 488.829 -1.12423 -3.42627 0
M  V30 5152 O 487.933 -0.247505 -4.11657 0
M  V30 5153 H 487.274 -0.279245 -0.602427 0
M  V30 5154 H 489.804 -1.3857 -1.5053 0
M  V30 5155 H 489.814 -1.08454 -3.93322 0
M  V30 5156 H 488.489 -2.17049 -3.54771 0
M  V30 5157 H 487.066 -0.34649 -3.71287 0
M  V30 5158 N 489.251 1.34841 -0.815825 0
M  V30 5159 C 490.499 1.98107 -0.399744 0
M  V30 5160 C 490.82 1.65019 1.03894 0
M  V30 5161 O 490.09 0.937311 1.72021 0
M  V30 5162 H 488.67 0.732827 -0.144823 0
M  V30 5163 H 491.332 1.64599 -1.0437 0
M  V30 5164 H 490.428 3.07856 -0.512965 0
M  V30 5165 N 490.729 0.570148 1.46925 0
M  V30 5166 C 491.639 -0.173061 2.33961 0
M  V30 5167 C 492.655 -0.898825 1.48987 0
M  V30 5168 O 493.831 -0.864825 1.81887 0
M  V30 5169 C 490.896 -1.18177 3.25937 0
M  V30 5170 C 489.957 -0.462041 4.26806 0
M  V30 5171 C 489.19 -1.4227 5.14388 0
M  V30 5172 O 489.413 -2.65842 5.04662 0
M  V30 5173 O 488.347 -0.940127 5.94513 0
M  V30 5174 H 492.173 0.541216 2.98839 0
M  V30 5175 H 489.758 0.330647 1.45695 0
M  V30 5176 H 491.64 -1.76372 3.82715 0
M  V30 5177 H 490.315 -1.87774 2.63671 0
M  V30 5178 H 489.222 0.161429 3.73752 0
M  V30 5179 H 490.555 0.192719 4.91823 0
M  V30 5180 N 492.207 -1.54576 0.307264 0
M  V30 5181 C 493.453 -2.0056 -0.300612 0
M  V30 5182 C 493.786 -1.1953 -1.53057 0
M  V30 5183 O 493.061 -0.27337 -1.92569 0
M  V30 5184 C 493.344 -3.54167 -0.650987 0
M  V30 5185 C 493.197 -4.45933 0.588539 0
M  V30 5186 C 494.516 -4.14645 -1.47506 0
M  V30 5187 H 491.635 -0.729075 -0.107788 0
M  V30 5188 H 494.277 -1.85286 0.420606 0
M  V30 5189 H 492.427 -3.67313 -1.26544 0
M  V30 5190 H 494.099 -4.44683 1.22697 0
M  V30 5191 H 492.342 -4.16274 1.22058 0
M  V30 5192 H 493.013 -5.51189 0.299153 0
M  V30 5193 H 495.489 -4.04973 -0.955821 0
M  V30 5194 H 494.365 -5.22269 -1.68899 0
M  V30 5195 H 494.626 -3.66921 -2.4662 0
M  V30 5196 N 493.685 -0.035106 -1.57561 0
M  V30 5197 C 494.618 0.979673 -2.06101 0
M  V30 5198 C 495.596 1.31378 -0.958046 0
M  V30 5199 O 496.78 1.42942 -1.22881 0
M  V30 5200 C 493.907 2.29809 -2.48808 0
M  V30 5201 C 492.953 2.11817 -3.70184 0
M  V30 5202 S 493.786 1.41143 -5.16565 0
M  V30 5203 C 494.942 2.74341 -5.62572 0
M  V30 5204 H 495.175 0.566506 -2.91853 0
M  V30 5205 H 492.708 0.176744 -1.53385 0
M  V30 5206 H 494.666 3.056 -2.74078 0
M  V30 5207 H 493.327 2.68257 -1.63392 0
M  V30 5208 H 492.52 3.09299 -3.97933 0
M  V30 5209 H 492.122 1.44168 -3.45097 0
M  V30 5210 H 494.414 3.70562 -5.67177 0
M  V30 5211 H 495.357 2.51249 -6.62027 0
M  V30 5212 H 495.765 2.79863 -4.90242 0
M  V30 5213 N 495.163 1.55791 0.238111 0
M  V30 5214 C 496.095 1.87513 1.31802 0
M  V30 5215 C 497.108 0.762053 1.43863 0
M  V30 5216 O 498.297 1.04024 1.45056 0
M  V30 5217 C 495.397 2.05402 2.69561 0
M  V30 5218 C 494.57 3.3632 2.79656 0
M  V30 5219 C 493.629 3.43844 3.98319 0
M  V30 5220 O 492.655 4.16994 3.87433 0
M  V30 5221 N 493.857 2.73777 5.11885 0
M  V30 5222 H 496.622 2.80734 1.04922 0
M  V30 5223 H 494.183 1.56135 0.428196 0
M  V30 5224 H 496.175 2.07769 3.47296 0
M  V30 5225 H 494.745 1.18884 2.89111 0
M  V30 5226 H 493.965 3.46195 1.88528 0
M  V30 5227 H 495.253 4.22594 2.83358 0
M  V30 5228 H 494.651 2.14094 5.23622 0
M  V30 5229 H 493.208 2.81825 5.87723 0
M  V30 5230 N 496.642 -0.504142 1.49319 0
M  V30 5231 C 497.592 -1.60284 1.62151 0
M  V30 5232 C 498.576 -1.53657 0.477315 0
M  V30 5233 O 499.768 -1.6124 0.730108 0
M  V30 5234 C 496.897 -2.98909 1.68844 0
M  V30 5235 C 495.983 -3.10544 2.8883 0
M  V30 5236 N 496.374 -2.92078 4.12946 0
M  V30 5237 C 494.672 -3.4164 2.86702 0
M  V30 5238 C 495.373 -3.07812 4.93585 0
M  V30 5239 N 494.349 -3.36549 4.26891 0
M  V30 5240 H 498.151 -1.44656 2.55835 0
M  V30 5241 H 495.665 -0.710198 1.46048 0
M  V30 5242 H 497.662 -3.77865 1.76134 0
M  V30 5243 H 496.322 -3.15609 0.762943 0
M  V30 5244 H 497.333 -2.68316 4.42975 0
M  V30 5245 H 494.01 -3.64537 2.03517 0
M  V30 5246 H 495.4 -2.98054 6.02174 0
M  V30 5247 N 498.12 -1.38341 -0.754957 0
M  V30 5248 C 499.083 -1.35262 -1.85032 0
M  V30 5249 C 500.083 -0.253393 -1.58791 0
M  V30 5250 O 501.273 -0.510205 -1.66561 0
M  V30 5251 C 498.405 -1.10544 -3.22479 0
M  V30 5252 H 499.598 -2.32712 -1.8917 0
M  V30 5253 H 497.151 -1.23614 -0.956515 0
M  V30 5254 H 497.886 -0.136952 -3.24011 0
M  V30 5255 H 497.671 -1.90127 -3.4292 0
M  V30 5256 H 499.161 -1.11082 -4.02555 0
M  V30 5257 N 499.598 0.982988 -1.23187 0
M  V30 5258 C 500.844 1.7273 -1.07405 0
M  V30 5259 C 501.199 1.885 0.385447 0
M  V30 5260 O 500.492 1.4243 1.28157 0
M  V30 5261 C 500.686 3.12736 -1.73006 0
M  V30 5262 C 500.515 3.10621 -3.25184 0
M  V30 5263 C 499.285 3.15957 -3.94334 0
M  V30 5264 C 501.483 2.93992 -4.21987 0
M  V30 5265 N 499.465 3.03701 -5.33516 0
M  V30 5266 C 500.836 2.8987 -5.48065 0
M  V30 5267 C 502.891 2.78457 -4.12754 0
M  V30 5268 C 501.594 2.71804 -6.65969 0
M  V30 5269 C 503.62 2.61754 -5.30319 0
M  V30 5270 C 502.982 2.58328 -6.55321 0
M  V30 5271 H 499.081 0.641279 -0.447533 0
M  V30 5272 H 501.665 1.16664 -1.55877 0
M  V30 5273 H 499.836 3.67026 -1.2707 0
M  V30 5274 H 501.568 3.75786 -1.50224 0
M  V30 5275 H 498.323 3.24034 -3.45397 0
M  V30 5276 H 498.747 3.00855 -6.06478 0
M  V30 5277 H 503.389 2.79898 -3.16886 0
M  V30 5278 H 501.107 2.69108 -7.61975 0
M  V30 5279 H 504.693 2.50702 -5.25014 0
M  V30 5280 H 503.573 2.45564 -7.4476 0
M  V30 5281 N 501.076 1.04316 1.18135 0
M  V30 5282 C 502.322 0.749128 1.88457 0
M  V30 5283 C 502.655 -0.72149 1.803 0
M  V30 5284 O 501.93 -1.52676 1.205 0
M  V30 5285 C 502.213 1.21905 3.38838 0
M  V30 5286 C 502.066 2.75195 3.55792 0
M  V30 5287 C 503.385 0.811085 4.32561 0
M  V30 5288 H 500.504 0.273611 0.684329 0
M  V30 5289 H 503.146 1.29561 1.38975 0
M  V30 5290 H 501.296 0.754137 3.8111 0
M  V30 5291 H 502.968 3.29743 3.22595 0
M  V30 5292 H 501.211 3.14899 2.98364 0
M  V30 5293 H 501.882 3.03135 4.61317 0
M  V30 5294 H 504.358 1.21118 3.98082 0
M  V30 5295 H 503.234 1.16761 5.36338 0
M  V30 5296 H 503.495 -0.285596 4.41177 0
M  V30 5297 N 502.554 -1.34406 0.822964 0
M  V30 5298 C 503.464 -2.33298 0.246838 0
M  V30 5299 C 504.48 -1.62625 -0.618797 0
M  V30 5300 O 505.656 -1.94391 -0.526685 0
M  V30 5301 C 502.721 -3.41785 -0.581731 0
M  V30 5302 C 501.782 -4.28206 0.306309 0
M  V30 5303 C 501.015 -5.31512 -0.48281 0
M  V30 5304 O 501.238 -5.43973 -1.71607 0
M  V30 5305 O 500.172 -6.01749 0.134884 0
M  V30 5306 H 503.998 -2.84401 1.06534 0
M  V30 5307 H 501.583 -1.37466 0.585108 0
M  V30 5308 H 503.465 -4.08028 -1.05313 0
M  V30 5309 H 502.14 -2.92925 -1.37756 0
M  V30 5310 H 501.047 -3.64885 0.825199 0
M  V30 5311 H 502.38 -4.80507 1.06649 0
M  V30 5312 N 504.032 -0.577932 -1.46621 0
M  V30 5313 C 505.28 -0.061566 -2.02006 0
M  V30 5314 C 505.601 1.30117 -1.4524 0
M  V30 5315 O 504.871 1.85313 -0.63529 0
M  V30 5316 H 503.451 -0.0197692 -0.746738 0
M  V30 5317 H 506.113 -0.752631 -1.79782 0
M  V30 5318 H 505.209 0.0110238 -3.12098 0
M  V30 5319 N 505.51 1.54411 -0.315457 0
M  V30 5320 C 506.458 2.25514 0.569771 0
M  V30 5321 C 507.452 1.2663 1.12522 0
M  V30 5322 O 508.658 1.44434 1.07419 0
M  V30 5323 H 505.033 0.724257 0.202376 0
M  V30 5324 H 507.004 2.98354 -0.0522895 0
M  V30 5325 C 505.753 3.02004 1.72305 0
M  V30 5326 H 505.076 3.77906 1.30488 0
M  V30 5327 H 506.516 3.55014 2.31821 0
M  V30 5328 C 504.975 2.09822 2.63583 0
M  V30 5329 O 505.505 1.67574 3.65078 0
M  V30 5330 N 503.711 1.75478 2.31637 0
M  V30 5331 H 503.258 2.10032 1.49145 0
M  V30 5332 H 503.216 1.14079 2.92973 0
M  V30 5333 N 506.988 0.0434614 1.5754 0
M  V30 5334 C 508.213 -0.645358 1.97104 0
M  V30 5335 C 508.638 -1.64037 0.920521 0
M  V30 5336 O 507.996 -1.80922 -0.11708 0
M  V30 5337 C 508.044 -1.31547 3.35749 0
M  V30 5338 O 507.148 -2.43103 3.33129 0
M  V30 5339 H 506.489 -0.168403 0.64229 0
M  V30 5340 H 509.019 0.109573 2.04306 0
M  V30 5341 H 509.029 -1.66895 3.72304 0
M  V30 5342 H 507.704 -0.586205 4.11748 0
M  V30 5343 H 506.281 -2.0976 3.0831 0
M  V30 5344 N 508.466 -1.55915 -0.229846 0
M  V30 5345 C 509.691 -1.8296 -0.976743 0
M  V30 5346 C 510.116 -0.622735 -1.77493 0
M  V30 5347 O 509.474 0.428431 -1.76165 0
M  V30 5348 C 509.522 -3.07916 -1.8767 0
M  V30 5349 O 508.626 -2.86028 -2.97088 0
M  V30 5350 H 507.967 -0.603453 -0.277021 0
M  V30 5351 H 510.497 -2.0312 -0.245669 0
M  V30 5352 H 510.507 -3.37802 -2.2881 0
M  V30 5353 H 509.182 -3.95389 -1.28996 0
M  V30 5354 H 507.759 -2.67355 -2.59954 0
M  V30 5355 N 509.944 0.496216 -1.49584 0
M  V30 5356 C 511.19 1.25189 -1.59548 0
M  V30 5357 C 511.523 1.9212 -0.283466 0
M  V30 5358 O 510.798 1.80947 0.713324 0
M  V30 5359 C 511.081 2.31516 -2.75812 0
M  V30 5360 C 510.934 1.69054 -4.16822 0
M  V30 5361 C 512.253 3.3304 -2.87702 0
M  V30 5362 H 509.372 0.45379 -0.580727 0
M  V30 5363 H 512.014 0.549327 -1.81886 0
M  V30 5364 H 510.164 2.91438 -2.56897 0
M  V30 5365 H 511.836 1.12923 -4.47265 0
M  V30 5366 H 510.079 0.994485 -4.22247 0
M  V30 5367 H 510.75 2.462 -4.94054 0
M  V30 5368 H 513.226 2.83114 -3.04936 0
M  V30 5369 H 512.102 4.04794 -3.7072 0
M  V30 5370 H 512.363 3.95655 -1.97255 0
M  V30 5371 N 511.423 1.38739 0.74761 0
M  V30 5372 C 512.37 1.36449 1.86146 0
M  V30 5373 C 513.34 0.226098 1.64554 0
M  V30 5374 O 514.525 0.41926 1.86137 0
M  V30 5375 C 511.665 1.2013 3.23516 0
M  V30 5376 C 510.778 2.43407 3.56899 0
M  V30 5377 C 509.913 2.19773 4.83605 0
M  V30 5378 C 508.952 3.3879 5.09792 0
M  V30 5379 N 508.089 3.14553 6.27695 0
M  V30 5380 H 512.929 2.3167 1.87438 0
M  V30 5381 H 510.466 1.15094 0.916063 0
M  V30 5382 H 512.424 1.08683 4.02795 0
M  V30 5383 H 511.054 0.285453 3.21535 0
M  V30 5384 H 510.106 2.65504 2.72418 0
M  V30 5385 H 511.418 3.32094 3.72176 0
M  V30 5386 H 510.572 2.05496 5.70838 0
M  V30 5387 H 509.311 1.28461 4.70478 0
M  V30 5388 H 508.316 3.53579 4.21025 0
M  V30 5389 H 509.541 4.30986 5.24812 0
M  V30 5390 H 507.487 2.25893 6.1588 0
M  V30 5391 H 507.404 3.96791 6.435 0
M  V30 5392 H 508.672 3.03943 7.17801 0
M  V30 5393 N 512.901 -0.976442 1.23707 0
M  V30 5394 C 514.141 -1.73331 1.08332 0
M  V30 5395 C 514.505 -1.88346 -0.372781 0
M  V30 5396 O 515.706 -2.60877 -0.647813 0
M  V30 5397 C 513.977 -3.09159 1.7932 0
M  V30 5398 S 515.536 -4.00376 1.79567 0
M  V30 5399 H 512.354 -0.596045 0.387622 0
M  V30 5400 H 514.956 -1.16625 1.56904 0
M  V30 5401 H 513.66 -2.95884 2.84395 0
M  V30 5402 H 513.191 -3.70932 1.31046 0
M  V30 5403 H 515.206 -4.88742 0.857094 0
M  V30 5404 N 514.379 -1.04941 -1.1758 0
M  V30 5405 C 515.656 -0.671918 -1.83697 0
M  V30 5406 C 516.036 0.847929 -1.93322 0
M  V30 5407 O 515.384 1.75287 -1.46583 0
M  V30 5408 C 515.594 -1.35797 -3.21497 0
M  V30 5409 C 516.942 -1.4944 -3.97433 0
M  V30 5410 O 517.966 -1.31678 -3.30967 0
M  V30 5411 O 516.825 -1.78463 -5.1654 0
M  V30 5412 H 513.919 -0.236212 -0.792548 0
M  V30 5413 H 516.465 -1.14884 -1.24899 0
M  V30 5414 H 515.237 -2.39498 -3.09446 0
M  V30 5415 H 514.86 -0.870236 -3.8796 0
M  V30 5416 N 515.857 1.33968 -0.830081 0
M  V30 5417 C 517.273 1.51003 -0.516742 0
M  V30 5418 C 517.473 1.77286 0.957694 0
M  V30 5419 O 516.529 1.82797 1.74188 0
M  V30 5420 C 517.842 2.67036 -1.38247 0
M  V30 5421 C 519.39 2.80919 -1.38034 0
M  V30 5422 C 519.865 4.00004 -2.23071 0
M  V30 5423 N 521.356 4.07224 -2.20733 0
M  V30 5424 C 522.091 4.98541 -2.83275 0
M  V30 5425 N 521.587 5.95033 -3.54835 0
M  V30 5426 N 523.38 4.91469 -2.72791 0
M  V30 5427 H 515.531 1.15168 -1.78466 0
M  V30 5428 H 517.794 0.565443 -0.760906 0
M  V30 5429 H 517.5 2.54266 -2.42985 0
M  V30 5430 H 517.374 3.62226 -1.05225 0
M  V30 5431 H 519.761 2.93127 -0.340713 0
M  V30 5432 H 519.842 1.86517 -1.75057 0
M  V30 5433 H 519.486 3.88557 -3.27087 0
M  V30 5434 H 519.416 4.93634 -1.83394 0
M  V30 5435 H 521.907 3.38162 -1.68687 0
M  V30 5436 H 522.22 6.61357 -3.99784 0
M  V30 5437 H 520.565 5.95135 -3.58942 0
M  V30 5438 H 523.756 4.15048 -2.16456 0
M  V30 5439 H 523.929 5.62439 -3.21818 0
M  V30 5440 N 517.335 0.585699 1.46312 0
M  V30 5441 C 518.575 0.0751432 2.04262 0
M  V30 5442 C 518.939 -1.26201 1.44697 0
M  V30 5443 O 520.14 -1.86198 1.93865 0
M  V30 5444 C 518.411 0.013478 3.57397 0
M  V30 5445 S 519.97 -0.439068 4.36598 0
M  V30 5446 H 516.788 0.0389228 0.709934 0
M  V30 5447 H 519.39 0.778871 1.79315 0
M  V30 5448 H 518.094 0.990558 3.98266 0
M  V30 5449 H 517.625 -0.712927 3.86886 0
M  V30 5450 H 519.64 -1.6932 4.66417 0
M  V30 5451 N 518.813 -1.54241 0.323641 0
M  V30 5452 C 519.763 -2.21071 -0.557833 0
M  V30 5453 C 520.747 -1.19126 -1.08157 0
M  V30 5454 O 521.939 -1.44755 -1.01857 0
M  V30 5455 C 519.068 -2.97208 -1.71821 0
M  V30 5456 C 518.154 -4.06491 -1.20936 0
M  V30 5457 N 518.545 -5.04052 -0.420202 0
M  V30 5458 C 516.843 -4.20443 -1.48808 0
M  V30 5459 C 517.544 -5.81516 -0.146413 0
M  V30 5460 N 516.52 -5.38641 -0.732562 0
M  V30 5461 H 520.322 -2.93853 0.0523921 0
M  V30 5462 H 517.836 -1.61883 0.129502 0
M  V30 5463 H 519.833 -3.4357 -2.36146 0
M  V30 5464 H 518.493 -2.25947 -2.33191 0
M  V30 5465 H 519.504 -5.17862 -0.0630401 0
M  V30 5466 H 516.181 -3.60396 -2.10762 0
M  V30 5467 H 517.571 -6.70119 0.488895 0
M  V30 5468 N 520.291 -0.0518155 -1.57515 0
M  V30 5469 C 521.238 0.922352 -2.11569 0
M  V30 5470 C 522.208 1.30842 -1.02321 0
M  V30 5471 O 523.393 1.39778 -1.29872 0
M  V30 5472 C 520.533 2.19167 -2.6657 0
M  V30 5473 C 519.646 1.86003 -3.89906 0
M  V30 5474 C 518.781 3.07398 -4.33221 0
M  V30 5475 C 517.82 2.70158 -5.49255 0
M  V30 5476 N 516.957 3.84248 -5.8762 0
M  V30 5477 H 521.797 0.454506 -2.94514 0
M  V30 5478 H 519.334 0.212718 -1.45554 0
M  V30 5479 H 521.292 2.93443 -2.96559 0
M  V30 5480 H 519.922 2.63528 -1.86421 0
M  V30 5481 H 518.974 1.01874 -3.66505 0
M  V30 5482 H 520.286 1.54592 -4.74239 0
M  V30 5483 H 519.44 3.89972 -4.64765 0
M  V30 5484 H 518.179 3.41988 -3.477 0
M  V30 5485 H 517.184 1.86001 -5.17382 0
M  V30 5486 H 518.409 2.36759 -6.36492 0
M  V30 5487 H 516.355 4.18638 -5.05053 0
M  V30 5488 H 516.272 3.56538 -6.66646 0
M  V30 5489 H 517.54 4.6746 -6.2378 0
M  V30 5490 N 521.769 1.56035 0.221574 0
M  V30 5491 C 522.994 1.83476 0.967026 0
M  V30 5492 C 523.419 0.632139 1.7716 0
M  V30 5493 O 522.777 -0.419082 1.7639 0
M  V30 5494 C 522.825 3.08907 1.86034 0
M  V30 5495 O 521.929 2.876 2.95567 0
M  V30 5496 H 521.27 0.604913 0.273817 0
M  V30 5497 H 523.8 2.03247 0.234893 0
M  V30 5498 H 523.81 3.3901 2.27016 0
M  V30 5499 H 522.485 3.96068 1.26898 0
M  V30 5500 H 521.062 2.6873 2.58532 0
M  V30 5501 N 523.247 -0.488276 1.49845 0
M  V30 5502 C 524.496 -1.23826 1.59217 0
M  V30 5503 C 524.809 -1.93439 0.289966 0
M  V30 5504 O 526.015 -2.70229 0.262382 0
M  V30 5505 C 524.471 -2.24902 2.80976 0
M  V30 5506 C 524.079 -1.6117 4.18005 0
M  V30 5507 C 525.823 -3.00648 2.99685 0
M  V30 5508 C 523.73 -2.60431 5.3097 0
M  V30 5509 H 522.66 -0.465858 0.592868 0
M  V30 5510 H 525.311 -0.510645 1.76252 0
M  V30 5511 H 523.693 -3.0088 2.57463 0
M  V30 5512 H 524.867 -0.910968 4.51706 0
M  V30 5513 H 523.182 -0.97767 4.0476 0
M  V30 5514 H 525.779 -3.74903 3.81251 0
M  V30 5515 H 526.122 -3.5902 2.10738 0
M  V30 5516 H 526.655 -2.31784 3.23297 0
M  V30 5517 H 523.394 -2.06823 6.22017 0
M  V30 5518 H 522.914 -3.28707 5.01709 0
M  V30 5519 H 524.593 -3.22606 5.60834 0
M  V30 5520 N 524.725 -1.39134 -0.740242 0
M  V30 5521 C 525.672 -1.37434 -1.8542 0
M  V30 5522 C 526.642 -0.234822 -1.64432 0
M  V30 5523 O 527.827 -0.429125 -1.85912 0
M  V30 5524 C 524.967 -1.21844 -3.22875 0
M  V30 5525 C 524.08 -2.45296 -3.55603 0
M  V30 5526 C 523.215 -2.22334 -4.82432 0
M  V30 5527 C 522.254 -3.41488 -5.07988 0
M  V30 5528 N 521.391 -3.17877 -6.26018 0
M  V30 5529 H 526.231 -2.3266 -1.86207 0
M  V30 5530 H 523.768 -1.15578 -0.909946 0
M  V30 5531 H 525.726 -1.10818 -4.02213 0
M  V30 5532 H 524.356 -0.3025 -3.21379 0
M  V30 5533 H 523.408 -2.66945 -2.71006 0
M  V30 5534 H 524.72 -3.34063 -3.7041 0
M  V30 5535 H 523.874 -2.0852 -5.69741 0
M  V30 5536 H 522.613 -1.30954 -4.6979 0
M  V30 5537 H 521.618 -3.55807 -4.19144 0
M  V30 5538 H 522.843 -4.33763 -5.22519 0
M  V30 5539 H 520.789 -2.29156 -6.14673 0
M  V30 5540 H 520.706 -4.00198 -6.41387 0
M  V30 5541 H 521.974 -3.07746 -7.16179 0
M  V30 5542 N 526.204 0.969867 -1.24223 0
M  V30 5543 C 527.444 1.72754 -1.0925 0
M  V30 5544 C 527.808 1.88541 0.362787 0
M  V30 5545 O 529.009 2.61217 0.633969 0
M  V30 5546 C 527.28 3.08204 -1.80957 0
M  V30 5547 S 528.839 3.99418 -1.81688 0
M  V30 5548 H 525.657 0.593981 -0.390778 0
M  V30 5549 H 528.259 1.15792 -1.5752 0
M  V30 5550 H 526.963 2.94372 -2.85961 0
M  V30 5551 H 526.494 3.70232 -1.33012 0
M  V30 5552 H 528.509 4.8828 -0.883001 0
M  V30 5553 N 527.682 1.05563 1.17022 0
M  V30 5554 C 528.912 0.787307 1.91011 0
M  V30 5555 C 529.32 -0.661256 1.77268 0
M  V30 5556 O 528.663 -1.46379 1.10991 0
M  V30 5557 C 528.725 1.09313 3.42478 0
M  V30 5558 C 528.389 2.53863 3.80004 0
M  V30 5559 C 529.386 3.52081 3.82538 0
M  V30 5560 C 527.071 2.88969 4.10855 0
M  V30 5561 C 529.065 4.83449 4.15399 0
M  V30 5562 C 526.752 4.2054 4.43384 0
M  V30 5563 C 527.75 5.17589 4.45635 0
M  V30 5564 O 527.438 6.46799 4.77395 0
M  V30 5565 H 527.17 0.285463 0.61277 0
M  V30 5566 H 529.724 1.41051 1.49311 0
M  V30 5567 H 527.954 0.412833 3.8449 0
M  V30 5568 H 529.643 0.810224 3.97731 0
M  V30 5569 H 530.409 3.26299 3.58823 0
M  V30 5570 H 526.288 2.1409 4.08272 0
M  V30 5571 H 529.832 5.59194 4.1707 0
M  V30 5572 H 525.729 4.46083 4.66563 0
M  V30 5573 H 526.497 6.51677 4.95237 0
M  V30 5574 N 529.16 -1.33526 0.837174 0
M  V30 5575 C 530.092 -2.28077 0.226579 0
M  V30 5576 C 531.105 -1.51666 -0.591717 0
M  V30 5577 O 532.294 -1.73511 -0.419064 0
M  V30 5578 C 529.394 -3.31597 -0.69978 0
M  V30 5579 C 528.567 -4.37329 0.0788067 0
M  V30 5580 C 527.626 -5.20526 -0.770637 0
M  V30 5581 O 526.652 -5.68811 -0.210453 0
M  V30 5582 N 527.854 -5.41639 -2.08825 0
M  V30 5583 H 530.619 -2.81115 1.03897 0
M  V30 5584 H 528.18 -1.46201 0.695476 0
M  V30 5585 H 530.172 -3.84158 -1.27298 0
M  V30 5586 H 528.742 -2.78848 -1.41288 0
M  V30 5587 H 527.962 -3.8529 0.833381 0
M  V30 5588 H 529.25 -5.05079 0.614238 0
M  V30 5589 H 528.648 -5.04108 -2.56693 0
M  V30 5590 H 527.205 -5.97263 -2.60998 0
M  V30 5591 N 530.638 -0.59345 -1.46 0
M  V30 5592 C 531.863 -0.0872365 -2.07216 0
M  V30 5593 C 532.288 1.2131 -1.43755 0
M  V30 5594 O 531.646 1.73528 -0.525152 0
M  V30 5595 C 531.694 0.0538197 -3.6056 0
M  V30 5596 O 530.798 1.10765 -3.97247 0
M  V30 5597 H 530.139 -0.0676598 -0.660544 0
M  V30 5598 H 532.669 -0.819445 -1.87473 0
M  V30 5599 H 532.679 0.256567 -4.07193 0
M  V30 5600 H 531.354 -0.895739 -4.0614 0
M  V30 5601 H 529.931 0.882501 -3.62307 0
M  V30 5602 N 532.116 1.54067 -0.331816 0
M  V30 5603 C 533.362 2.01012 0.268667 0
M  V30 5604 C 533.695 1.2195 1.51136 0
M  V30 5605 O 532.97 0.303972 1.9211 0
M  V30 5606 C 533.253 3.55158 0.59456 0
M  V30 5607 C 533.106 4.4494 -0.659409 0
M  V30 5608 C 534.425 4.16939 1.4089 0
M  V30 5609 H 531.544 0.730698 0.0961756 0
M  V30 5610 H 534.186 1.84593 -0.450031 0
M  V30 5611 H 532.336 3.6928 1.20685 0
M  V30 5612 H 534.008 4.42675 -1.29756 0
M  V30 5613 H 532.251 4.1428 -1.28665 0
M  V30 5614 H 532.922 5.50643 -0.386804 0
M  V30 5615 H 535.398 4.06443 0.891272 0
M  V30 5616 H 534.274 5.24889 1.60569 0
M  V30 5617 H 534.535 3.70798 2.40752 0
M  V30 5618 N 533.594 0.0601682 1.57485 0
M  V30 5619 C 534.822 -0.620937 1.97363 0
M  V30 5620 C 535.237 -1.63846 0.938082 0
M  V30 5621 O 534.594 -1.82339 -0.0766578 0
M  V30 5622 C 534.645 -1.29987 3.37321 0
M  V30 5623 O 534.366 -0.323081 4.36907 0
M  V30 5624 C 535.867 -2.06989 3.92008 0
M  V30 5625 H 533.087 -0.169135 0.649334 0
M  V30 5626 H 535.631 0.129132 2.04092 0
M  V30 5627 H 533.786 -2.0011 3.31715 0
M  V30 5628 H 534.2 -0.808754 5.18227 0
M  V30 5629 H 535.674 -2.49901 4.92192 0
M  V30 5630 H 536.151 -2.92173 3.2792 0
M  V30 5631 H 536.757 -1.41757 4.0098 0
M  V30 5632 N 535.072 -1.5615 -0.213296 0
M  V30 5633 C 536.035 -1.92249 -1.24792 0
M  V30 5634 C 537.035 -0.801828 -1.39382 0
M  V30 5635 O 538.225 -1.06948 -1.37506 0
M  V30 5636 C 535.357 -2.18056 -2.62039 0
M  V30 5637 H 536.55 -2.84793 -0.939845 0
M  V30 5638 H 534.103 -1.49559 -0.454062 0
M  V30 5639 H 534.838 -1.2809 -2.97932 0
M  V30 5640 H 534.623 -2.99703 -2.52825 0
M  V30 5641 H 536.113 -2.47051 -3.36683 0
M  V30 5642 N 536.55 0.480323 -1.50102 0
M  V30 5643 C 537.966 0.813295 -1.37323 0
M  V30 5644 C 538.166 1.97027 -0.422206 0
M  V30 5645 O 537.222 2.5212 0.138563 0
M  V30 5646 C 538.535 1.13404 -2.78496 0
M  V30 5647 C 540.083 1.24104 -2.87345 0
M  V30 5648 C 540.558 1.59497 -4.29331 0
M  V30 5649 N 542.049 1.66507 -4.32238 0
M  V30 5650 C 542.784 1.95378 -5.39087 0
M  V30 5651 N 542.28 2.22333 -6.56155 0
M  V30 5652 N 544.073 1.96803 -5.26522 0
M  V30 5653 H 536.224 -0.282291 -2.10516 0
M  V30 5654 H 538.487 -0.063752 -0.945854 0
M  V30 5655 H 538.193 0.357064 -3.49883 0
M  V30 5656 H 538.067 2.07251 -3.15162 0
M  V30 5657 H 540.454 2.00871 -2.16183 0
M  V30 5658 H 540.535 0.282593 -2.54234 0
M  V30 5659 H 540.179 0.832736 -5.01027 0
M  V30 5660 H 540.109 2.56477 -4.59921 0
M  V30 5661 H 542.6 1.47753 -3.47818 0
M  V30 5662 H 542.913 2.43611 -7.33399 0
M  V30 5663 H 541.258 2.19745 -6.59346 0
M  V30 5664 H 544.449 1.75235 -4.34062 0
M  V30 5665 H 544.622 2.18969 -6.09883 0
M  V30 5666 N 538.028 1.39524 0.732853 0
M  V30 5667 C 538.978 1.34905 1.83806 0
M  V30 5668 C 539.962 0.229546 1.59254 0
M  V30 5669 O 541.154 0.467255 1.70721 0
M  V30 5670 C 538.283 1.19699 3.21756 0
M  V30 5671 C 537.369 2.36359 3.5213 0
M  V30 5672 N 537.76 3.61834 3.53426 0
M  V30 5673 C 536.058 2.29363 3.82503 0
M  V30 5674 C 536.759 4.38992 3.81655 0
M  V30 5675 N 535.735 3.68606 3.99538 0
M  V30 5676 H 539.537 2.29882 1.83116 0
M  V30 5677 H 537.051 1.33051 0.931194 0
M  V30 5678 H 539.048 1.14472 4.00876 0
M  V30 5679 H 537.708 0.256739 3.23683 0
M  V30 5680 H 538.719 3.95228 3.34686 0
M  V30 5681 H 535.396 1.43612 3.92023 0
M  V30 5682 H 536.786 5.47763 3.89108 0
M  V30 5683 N 539.506 -0.963266 1.24736 0
M  V30 5684 C 540.746 -1.72172 1.10165 0
M  V30 5685 C 541.11 -1.88731 -0.352784 0
M  V30 5686 O 542.311 -2.61549 -0.620107 0
M  V30 5687 C 540.582 -3.0724 1.82589 0
M  V30 5688 S 542.141 -3.98449 1.83803 0
M  V30 5689 H 538.959 -0.591901 0.393922 0
M  V30 5690 H 541.561 -1.14955 1.58132 0
M  V30 5691 H 540.265 -2.92851 2.87518 0
M  V30 5692 H 539.796 -3.69521 1.34973 0
M  V30 5693 H 541.811 -4.87805 0.908883 0
M  V30 5694 N 540.985 -1.06182 -1.16461 0
M  V30 5695 C 542.231 -0.779015 -1.87241 0
M  V30 5696 C 542.564 0.692715 -1.81425 0
M  V30 5697 O 541.839 1.5074 -1.22913 0
M  V30 5698 C 542.122 -1.2728 -3.36856 0
M  V30 5699 C 541.975 -2.80821 -3.51368 0
M  V30 5700 C 543.294 -0.879799 -4.31216 0
M  V30 5701 H 540.413 -0.284464 -0.679889 0
M  V30 5702 H 543.055 -1.31755 -1.36896 0
M  V30 5703 H 541.205 -0.814673 -3.79862 0
M  V30 5704 H 542.877 -3.34833 -3.17308 0
M  V30 5705 H 541.12 -3.19606 -2.93316 0
M  V30 5706 H 541.791 -3.10435 -4.56436 0
M  V30 5707 H 544.267 -1.27436 -3.96105 0
M  V30 5708 H 543.143 -1.25278 -5.34412 0
M  V30 5709 H 543.404 0.215372 -4.41575 0
M  V30 5710 N 542.463 1.3308 -0.844243 0
M  V30 5711 C 543.709 1.98304 -0.452453 0
M  V30 5712 C 544.064 1.65645 0.978746 0
M  V30 5713 O 543.357 0.928849 1.6758 0
M  V30 5714 C 543.551 3.52045 -0.616354 0
M  V30 5715 C 543.38 3.99643 -2.06193 0
M  V30 5716 C 542.15 4.27224 -2.69829 0
M  V30 5717 C 544.348 4.15471 -3.03131 0
M  V30 5718 N 542.33 4.60998 -4.05406 0
M  V30 5719 C 543.701 4.52665 -4.23668 0
M  V30 5720 C 545.756 3.97776 -2.99465 0
M  V30 5721 C 544.459 4.74011 -5.41023 0
M  V30 5722 C 546.485 4.20301 -4.16055 0
M  V30 5723 C 545.847 4.57801 -5.35348 0
M  V30 5724 H 541.946 0.752122 -0.214096 0
M  V30 5725 H 544.53 1.61096 -1.09344 0
M  V30 5726 H 542.701 3.884 -0.00513205 0
M  V30 5727 H 544.433 4.04228 -0.19548 0
M  V30 5728 H 541.188 4.18911 -2.20931 0
M  V30 5729 H 541.612 4.82087 -4.75312 0
M  V30 5730 H 546.254 3.67893 -2.08362 0
M  V30 5731 H 543.972 5.02753 -6.32665 0
M  V30 5732 H 547.558 4.08122 -4.14641 0
M  V30 5733 H 546.438 4.74884 -6.24063 0
M  V30 5734 N 543.941 0.601185 1.45683 0
M  V30 5735 C 545.181 0.0968037 2.04171 0
M  V30 5736 C 545.545 -1.2466 1.46027 0
M  V30 5737 O 546.746 -1.84132 1.95829 0
M  V30 5738 C 545.017 0.051384 3.57363 0
M  V30 5739 S 546.576 -0.392737 4.37039 0
M  V30 5740 H 543.394 0.0464504 0.709481 0
M  V30 5741 H 545.996 0.797846 1.78479 0
M  V30 5742 H 544.7 1.03274 3.97193 0
M  V30 5743 H 544.231 -0.671853 3.87621 0
M  V30 5744 H 546.246 -1.64364 4.68187 0
M  V30 5745 N 545.419 -1.53889 0.339982 0
M  V30 5746 C 546.835 -1.59595 -0.0120752 0
M  V30 5747 C 547.035 -1.35605 -1.49042 0
M  V30 5748 O 546.091 -1.14856 -2.24865 0
M  V30 5749 C 547.404 -2.9774 0.420898 0
M  V30 5750 C 548.952 -3.1077 0.37294 0
M  V30 5751 C 549.427 -4.51286 0.781327 0
M  V30 5752 N 550.918 -4.57325 0.735374 0
M  V30 5753 C 551.653 -5.64194 1.02336 0
M  V30 5754 N 551.149 -6.7893 1.37933 0
M  V30 5755 N 552.942 -5.54051 0.947838 0
M  V30 5756 H 545.093 -1.67738 1.30299 0
M  V30 5757 H 547.356 -0.785385 0.530918 0
M  V30 5758 H 547.062 -3.20349 1.45152 0
M  V30 5759 H 546.936 -3.76639 -0.205721 0
M  V30 5760 H 549.323 -2.87886 -0.648505 0
M  V30 5761 H 549.404 -2.33939 1.03472 0
M  V30 5762 H 549.048 -4.74905 1.80077 0
M  V30 5763 H 548.978 -5.26511 0.0970679 0
M  V30 5764 H 551.469 -3.74931 0.472773 0
M  V30 5765 H 551.782 -7.56392 1.58402 0
M  V30 5766 H 550.127 -6.80386 1.41774 0
M  V30 5767 H 553.318 -4.63293 0.669115 0
M  V30 5768 H 553.491 -6.37246 1.17563 0
M  V30 5769 N 546.897 -0.0685191 -1.57451 0
M  V30 5770 C 547.83 0.935736 -2.08133 0
M  V30 5771 C 548.808 1.29317 -0.985698 0
M  V30 5772 O 549.992 1.40304 -1.25886 0
M  V30 5773 C 547.119 2.2448 -2.53627 0
M  V30 5774 C 546.165 2.03917 -3.74593 0
M  V30 5775 S 546.998 1.30154 -5.19442 0
M  V30 5776 C 548.154 2.62346 -5.68265 0
M  V30 5777 H 548.387 0.504473 -2.92989 0
M  V30 5778 H 545.92 0.144169 -1.53725 0
M  V30 5779 H 547.878 2.99718 -2.80499 0
M  V30 5780 H 546.539 2.64731 -1.69045 0
M  V30 5781 H 545.732 3.00788 -4.04404 0
M  V30 5782 H 545.334 1.36815 -3.48077 0
M  V30 5783 H 547.626 3.58448 -5.7491 0
M  V30 5784 H 548.569 2.3715 -6.67207 0
M  V30 5785 H 548.977 2.69401 -4.96068 0
M  V30 5786 N 548.375 1.56261 0.205012 0
M  V30 5787 C 549.603 1.84141 0.943386 0
M  V30 5788 C 550.018 0.649772 1.77266 0
M  V30 5789 O 549.375 -0.381612 1.78466 0
M  V30 5790 C 549.426 3.10719 1.84759 0
M  V30 5791 O 549.147 4.25286 1.05181 0
M  V30 5792 C 550.648 3.51706 2.69848 0
M  V30 5793 H 547.868 0.611734 0.275721 0
M  V30 5794 H 550.412 2.03364 0.215253 0
M  V30 5795 H 548.567 2.93422 2.52947 0
M  V30 5796 H 548.981 4.97301 1.66709 0
M  V30 5797 H 550.455 4.43266 3.28967 0
M  V30 5798 H 550.932 2.7423 3.43067 0
M  V30 5799 H 551.538 3.71499 2.07047 0
M  V30 5800 N 549.853 -0.472356 1.50355 0
M  V30 5801 C 551.1 -1.22453 1.61281 0
M  V30 5802 C 551.428 -1.91972 0.31256 0
M  V30 5803 O 550.683 -1.82696 -0.701475 0
M  V30 5804 C 550.982 -2.29257 2.74182 0
M  V30 5805 C 550.648 -1.76999 4.14708 0
M  V30 5806 C 549.31 -1.62467 4.52944 0
M  V30 5807 C 551.662 -1.38215 5.0254 0
M  V30 5808 C 548.99 -1.07574 5.76754 0
M  V30 5809 C 551.342 -0.847638 6.26895 0
M  V30 5810 C 550.006 -0.688946 6.63935 0
M  V30 5811 H 549.276 -0.448087 0.590168 0
M  V30 5812 H 551.923 -0.520744 1.84284 0
M  V30 5813 H 550.228 -3.05538 2.45263 0
M  V30 5814 H 551.925 -2.87212 2.7984 0
M  V30 5815 H 548.515 -1.89276 3.84542 0
M  V30 5816 H 552.699 -1.48276 4.73633 0
M  V30 5817 H 547.955 -0.940237 6.04127 0
M  V30 5818 H 552.129 -0.538455 6.94315 0
M  V30 5819 H 549.756 -0.261435 7.5975 0
M  V30 5820 N 551.331 -1.39911 -0.725443 0
M  V30 5821 C 552.281 -1.35878 -1.83088 0
M  V30 5822 C 553.265 -0.237989 -1.5913 0
M  V30 5823 O 554.457 -0.476302 -1.70471 0
M  V30 5824 C 551.586 -1.21403 -3.21117 0
M  V30 5825 C 550.672 -2.38223 -3.50871 0
M  V30 5826 N 551.063 -3.63703 -3.51502 0
M  V30 5827 C 549.361 -2.31388 -3.81281 0
M  V30 5828 C 550.062 -4.4101 -3.79322 0
M  V30 5829 N 549.038 -3.7072 -3.97577 0
M  V30 5830 H 552.84 -2.3085 -1.81895 0
M  V30 5831 H 550.354 -1.33543 -0.924125 0
M  V30 5832 H 552.351 -1.16597 -4.00263 0
M  V30 5833 H 551.011 -0.273902 -3.23543 0
M  V30 5834 H 552.022 -3.96998 -3.32586 0
M  V30 5835 H 548.699 -1.45689 -3.91256 0
M  V30 5836 H 550.089 -5.49819 -3.86198 0
M  V30 5837 N 552.809 0.956637 -1.25245 0
M  V30 5838 C 554.225 1.22733 -1.02023 0
M  V30 5839 C 554.425 1.99761 0.264186 0
M  V30 5840 O 553.481 2.32814 0.977436 0
M  V30 5841 C 554.794 2.00367 -2.24217 0
M  V30 5842 C 556.342 2.13418 -2.28958 0
M  V30 5843 C 556.817 2.9445 -3.50803 0
M  V30 5844 N 558.308 3.02029 -3.51187 0
M  V30 5845 C 559.043 3.65116 -4.42129 0
M  V30 5846 N 558.539 4.2983 -5.43339 0
M  V30 5847 N 560.332 3.62237 -4.29815 0
M  V30 5848 H 552.483 0.441282 -2.07765 0
M  V30 5849 H 554.746 0.257686 -0.912306 0
M  V30 5850 H 554.452 1.51165 -3.17556 0
M  V30 5851 H 554.326 3.01077 -2.27228 0
M  V30 5852 H 556.713 2.61819 -1.36143 0
M  V30 5853 H 556.794 1.1202 -2.29968 0
M  V30 5854 H 556.438 2.46741 -4.43939 0
M  V30 5855 H 556.368 3.9607 -3.47039 0
M  V30 5856 H 558.859 2.56007 -2.77973 0
M  V30 5857 H 559.172 4.75819 -6.08947 0
M  V30 5858 H 557.517 4.28465 -5.47214 0
M  V30 5859 H 560.708 3.10863 -3.49974 0
M  V30 5860 H 560.881 4.11117 -5.00886 0
M  V30 5861 N 554.287 1.06798 1.15896 0
M  V30 5862 C 555.234 0.683314 2.20453 0
M  V30 5863 C 556.204 -0.32255 1.62938 0
M  V30 5864 O 557.389 -0.210276 1.89638 0
M  V30 5865 C 554.529 0.0813266 3.45004 0
M  V30 5866 C 553.642 1.13799 4.16742 0
M  V30 5867 C 552.777 0.501598 5.28826 0
M  V30 5868 C 551.816 1.54144 5.92373 0
M  V30 5869 N 550.953 0.928038 6.9594 0
M  V30 5870 H 555.793 1.57932 2.52708 0
M  V30 5871 H 553.33 0.789544 1.24115 0
M  V30 5872 H 555.288 -0.285274 4.16224 0
M  V30 5873 H 553.918 -0.77806 3.13283 0
M  V30 5874 H 552.97 1.62223 3.44075 0
M  V30 5875 H 554.282 1.92664 4.60089 0
M  V30 5876 H 553.436 0.0823162 6.06644 0
M  V30 5877 H 552.175 -0.318883 4.86656 0
M  V30 5878 H 551.18 1.97056 5.13273 0
M  V30 5879 H 552.405 2.3641 6.36621 0
M  V30 5880 H 550.351 0.12836 6.55874 0
M  V30 5881 H 550.268 1.65401 7.37685 0
M  V30 5882 H 551.536 0.534071 7.77668 0
M  V30 5883 N 555.766 -1.3263 0.851289 0
M  V30 5884 C 557.006 -1.99174 0.459266 0
M  V30 5885 C 557.37 -1.65913 -0.966273 0
M  V30 5886 O 558.571 -2.2552 -1.46267 0
M  V30 5887 C 556.842 -3.50721 0.687698 0
M  V30 5888 S 558.401 -4.37039 0.392746 0
M  V30 5889 H 555.219 -0.689832 0.172199 0
M  V30 5890 H 557.821 -1.61395 1.10327 0
M  V30 5891 H 556.525 -3.72417 1.72435 0
M  V30 5892 H 556.056 -3.93389 0.0299949 0
M  V30 5893 H 558.071 -4.8999 -0.782578 0
M  V30 5894 N 557.244 -0.608902 -1.45362 0
M  V30 5895 C 558.154 0.110969 -2.34337 0
M  V30 5896 C 559.17 0.859007 -1.51318 0
M  V30 5897 O 560.346 0.816296 -1.84116 0
M  V30 5898 C 557.411 1.09494 -3.28956 0
M  V30 5899 C 556.472 0.348718 -4.27881 0
M  V30 5900 C 555.705 1.28582 -5.17979 0
M  V30 5901 O 555.928 2.52369 -5.11533 0
M  V30 5902 O 554.862 0.782172 -5.96796 0
M  V30 5903 H 558.688 -0.620258 -2.97299 0
M  V30 5904 H 556.273 -0.36916 -1.44767 0
M  V30 5905 H 558.155 1.66163 -3.87257 0
M  V30 5906 H 556.83 1.80717 -2.68557 0
M  V30 5907 H 555.737 -0.260465 -3.73192 0
M  V30 5908 H 557.07 -0.323049 -4.91139 0
M  V30 5909 N 558.722 1.53707 -0.348139 0
M  V30 5910 C 559.652 2.28111 0.498766 0
M  V30 5911 C 560.633 1.29851 1.09876 0
M  V30 5912 O 561.818 1.587 1.11928 0
M  V30 5913 C 558.948 3.05735 1.64753 0
M  V30 5914 C 557.902 4.11537 1.17565 0
M  V30 5915 C 557.228 4.77142 2.4133 0
M  V30 5916 C 558.528 5.21587 0.272844 0
M  V30 5917 H 560.222 2.99152 -0.121934 0
M  V30 5918 H 557.768 1.43875 -0.0600842 0
M  V30 5919 H 559.721 3.56526 2.24649 0
M  V30 5920 H 558.445 2.32354 2.2952 0
M  V30 5921 H 557.104 3.61665 0.599483 0
M  V30 5922 H 556.752 4.0035 3.04514 0
M  V30 5923 H 556.452 5.48626 2.10436 0
M  V30 5924 H 557.976 5.30719 3.01943 0
M  V30 5925 H 559.39 5.67986 0.778779 0
M  V30 5926 H 557.787 6.00074 0.0555849 0
M  V30 5927 H 558.857 4.79969 -0.689785 0
M  V30 5928 N 560.2 0.0768682 1.57412 0
M  V30 5929 C 561.425 -0.603404 1.98428 0
M  V30 5930 C 561.85 -1.62047 0.955108 0
M  V30 5931 O 561.208 -1.81129 -0.0786778 0
M  V30 5932 C 561.256 -1.24396 3.38464 0
M  V30 5933 O 560.36 -2.35982 3.3821 0
M  V30 5934 H 559.701 -0.154741 0.645718 0
M  V30 5935 H 562.231 0.152885 2.04028 0
M  V30 5936 H 562.241 -1.5896 3.7576 0
M  V30 5937 H 560.916 -0.498735 4.12899 0
M  V30 5938 H 559.493 -2.03173 3.1269 0
M  V30 5939 N 561.678 -1.56367 -0.196722 0
M  V30 5940 C 562.906 -1.84639 -0.933608 0
M  V30 5941 C 563.321 -0.659164 -1.76919 0
M  V30 5942 O 562.678 0.372142 -1.78665 0
M  V30 5943 C 562.729 -3.11694 -1.83109 0
M  V30 5944 O 562.45 -4.25838 -1.02924 0
M  V30 5945 C 563.951 -3.53132 -2.67979 0
M  V30 5946 H 561.171 -0.613188 -0.272473 0
M  V30 5947 H 563.715 -2.03475 -0.204465 0
M  V30 5948 H 561.87 -2.94759 -2.51387 0
M  V30 5949 H 562.284 -4.98178 -1.64069 0
M  V30 5950 H 563.758 -4.45005 -3.26611 0
M  V30 5951 H 564.235 -2.76045 -3.41608 0
M  V30 5952 H 564.841 -3.72592 -2.05074 0
M  V30 5953 N 563.156 0.464375 -1.50603 0
M  V30 5954 C 564.086 1.56944 -1.72889 0
M  V30 5955 C 565.067 1.59979 -0.577997 0
M  V30 5956 O 566.252 1.76138 -0.817855 0
M  V30 5957 C 563.382 2.95225 -1.8292 0
M  V30 5958 C 562.336 3.07056 -2.98162 0
M  V30 5959 C 561.662 4.47051 -2.93343 0
M  V30 5960 C 562.962 2.83648 -4.38567 0
M  V30 5961 H 564.656 1.38547 -2.65415 0
M  V30 5962 H 562.202 0.665082 -1.27721 0
M  V30 5963 H 564.155 3.72467 -1.97095 0
M  V30 5964 H 562.879 3.14793 -0.870209 0
M  V30 5965 H 561.538 2.32248 -2.83648 0
M  V30 5966 H 561.186 4.63547 -1.95276 0
M  V30 5967 H 560.886 4.55902 -3.70712 0
M  V30 5968 H 562.41 5.26304 -3.09575 0
M  V30 5969 H 563.824 3.50636 -4.53572 0
M  V30 5970 H 562.221 3.03937 -5.17438 0
M  V30 5971 H 563.291 1.79451 -4.50472 0
M  V30 5972 N 564.634 1.40294 0.718013 0
M  V30 5973 C 565.874 1.39888 1.49032 0
M  V30 5974 C 566.238 -0.000462935 1.92 0
M  V30 5975 O 567.439 -0.129622 2.68487 0
M  V30 5976 C 565.71 2.35868 2.68516 0
M  V30 5977 S 567.269 2.53799 3.57954 0
M  V30 5978 H 564.087 0.495849 0.509563 0
M  V30 5979 H 566.689 1.76541 0.839846 0
M  V30 5980 H 565.393 3.36375 2.35117 0
M  V30 5981 H 564.924 2.0049 3.38478 0
M  V30 5982 H 566.939 1.78859 4.62843 0
M  V30 5983 N 566.112 -0.949982 1.2575 0
M  V30 5984 C 567.389 -1.6718 1.01539 0
M  V30 5985 C 567.769 -2.06095 -0.456942 0
M  V30 5986 O 567.117 -1.77792 -1.43534 0
M  V30 5987 C 567.327 -2.8906 1.95564 0
M  V30 5988 C 568.675 -3.60909 2.23673 0
M  V30 5989 O 569.699 -2.9915 1.9336 0
M  V30 5990 O 568.558 -4.72127 2.75243 0
M  V30 5991 H 565.652 -0.731697 0.385419 0
M  V30 5992 H 568.198 -1.00249 1.36924 0
M  V30 5993 H 566.97 -2.57128 2.94959 0
M  V30 5994 H 566.593 -3.63719 1.60605 0
M  V30 5995 N 567.59 -1.07411 -1.15328 0
M  V30 5996 C 568.838 -0.796073 -1.85761 0
M  V30 5997 C 569.159 0.679864 -1.82764 0
M  V30 5998 O 568.429 1.49242 -1.269 0
M  V30 5999 H 567.009 -0.291495 -0.687779 0
M  V30 6000 H 569.671 -1.35799 -1.39802 0
M  V30 6001 H 568.767 -1.13114 -2.90881 0
M  V30 6002 N 569.068 1.32177 -0.85831 0
M  V30 6003 C 570.316 1.96735 -0.462568 0
M  V30 6004 C 570.637 1.6824 0.985911 0
M  V30 6005 O 569.907 0.991564 1.68952 0
M  V30 6006 H 568.487 0.727849 -0.168064 0
M  V30 6007 H 571.149 1.61195 -1.09554 0
M  V30 6008 H 570.245 3.06068 -0.610647 0
M  V30 6009 N 570.547 0.616602 1.45037 0
M  V30 6010 C 571.457 -0.0985401 2.34393 0
M  V30 6011 C 572.473 -0.850971 1.51771 0
M  V30 6012 O 573.649 -0.806521 1.84546 0
M  V30 6013 C 570.714 -1.07748 3.29532 0
M  V30 6014 C 569.775 -0.326022 4.2806 0
M  V30 6015 C 569.008 -1.25833 5.18654 0
M  V30 6016 O 569.231 -2.49652 5.12864 0
M  V30 6017 O 568.165 -0.750512 5.97203 0
M  V30 6018 H 571.991 0.636016 2.96966 0
M  V30 6019 H 569.576 0.376832 1.44569 0
M  V30 6020 H 571.458 -1.64107 3.88133 0
M  V30 6021 H 570.133 -1.79291 2.69512 0
M  V30 6022 H 569.04 0.280253 3.73049 0
M  V30 6023 H 570.373 0.349091 4.9096 0
M  V30 6024 N 572.025 -1.5352 0.356285 0
M  V30 6025 C 572.955 -2.28372 -0.486661 0
M  V30 6026 C 573.936 -1.30432 -1.09185 0
M  V30 6027 O 575.121 -1.59291 -1.11085 0
M  V30 6028 C 572.251 -3.06604 -1.63129 0
M  V30 6029 C 571.205 -4.12154 -1.15381 0
M  V30 6030 C 570.531 -4.78415 -2.38796 0
M  V30 6031 C 571.831 -5.21724 -0.245179 0
M  V30 6032 H 573.525 -2.99083 0.137797 0
M  V30 6033 H 571.071 -1.43841 0.0677134 0
M  V30 6034 H 573.024 -3.57712 -2.22755 0
M  V30 6035 H 571.748 -2.33568 -2.28284 0
M  V30 6036 H 570.407 -3.61978 -0.580294 0
M  V30 6037 H 570.055 -4.01959 -3.02387 0
M  V30 6038 H 569.755 -5.49734 -2.07524 0
M  V30 6039 H 571.279 -5.32313 -2.99125 0
M  V30 6040 H 572.693 -5.68391 -0.748646 0
M  V30 6041 H 571.09 -6.00095 -0.0237608 0
M  V30 6042 H 572.16 -4.79596 0.715229 0
M  V30 6043 N 573.503 -0.0852151 -1.57369 0
M  V30 6044 C 574.919 0.271436 -1.57275 0
M  V30 6045 C 575.119 1.69109 -1.09565 0
M  V30 6046 O 574.175 2.40549 -0.767611 0
M  V30 6047 C 575.488 0.0688638 -3.00621 0
M  V30 6048 C 577.036 0.137373 -3.12698 0
M  V30 6049 C 577.511 -0.0370832 -4.57985 0
M  V30 6050 N 579.002 0.0180794 -4.63196 0
M  V30 6051 C 579.737 -0.0922953 -5.73326 0
M  V30 6052 N 579.233 -0.256948 -6.92323 0
M  V30 6053 N 581.026 -0.0342702 -5.6209 0
M  V30 6054 H 573.177 -1.01288 -1.86693 0
M  V30 6055 H 575.44 -0.396138 -0.861266 0
M  V30 6056 H 575.146 -0.911277 -3.39689 0
M  V30 6057 H 575.02 0.815442 -3.6828 0
M  V30 6058 H 577.407 1.10801 -2.73509 0
M  V30 6059 H 577.488 -0.640532 -2.47651 0
M  V30 6060 H 577.132 -1.00455 -4.97867 0
M  V30 6061 H 577.062 0.760392 -5.21081 0
M  V30 6062 H 579.553 0.143202 -3.77629 0
M  V30 6063 H 579.866 -0.332949 -7.72082 0
M  V30 6064 H 578.211 -0.292487 -6.94384 0
M  V30 6065 H 581.402 0.0931605 -4.68007 0
M  V30 6066 H 581.575 -0.12374 -6.47882 0
M  V30 6067 N 574.981 1.5647 0.188427 0
M  V30 6068 C 576.258 1.71857 0.934058 0
M  V30 6069 C 576.638 0.641867 2.01105 0
M  V30 6070 O 575.986 -0.346098 2.25864 0
M  V30 6071 C 576.196 3.14431 1.5144 0
M  V30 6072 C 577.544 3.74869 1.99396 0
M  V30 6073 O 578.568 3.17601 1.61269 0
M  V30 6074 O 577.427 4.75387 2.69573 0
M  V30 6075 H 574.521 0.701186 0.438483 0
M  V30 6076 H 577.067 1.68768 0.177599 0
M  V30 6077 H 575.839 3.8427 0.738416 0
M  V30 6078 H 575.462 3.21775 2.33552 0
M  V30 6079 N 576.459 -0.456382 1.50847 0
M  V30 6080 C 577.409 -1.55045 1.67168 0
M  V30 6081 C 578.393 -1.52061 0.525958 0
M  V30 6082 O 579.585 -1.58836 0.781036 0
M  V30 6083 C 576.714 -2.93386 1.78268 0
M  V30 6084 C 575.8 -3.01198 2.98564 0
M  V30 6085 N 576.191 -2.78792 4.22029 0
M  V30 6086 C 574.489 -3.32346 2.97426 0
M  V30 6087 C 575.19 -2.91953 5.03128 0
M  V30 6088 N 574.166 -3.22797 4.37382 0
M  V30 6089 H 577.968 -1.36444 2.60308 0
M  V30 6090 H 575.482 -0.663375 1.48233 0
M  V30 6091 H 577.479 -3.72071 1.88067 0
M  V30 6092 H 576.139 -3.13022 0.862965 0
M  V30 6093 H 577.15 -2.54087 4.51287 0
M  V30 6094 H 573.827 -3.57877 2.15012 0
M  V30 6095 H 575.217 -2.78745 6.11351 0
M  V30 6096 N 577.937 -1.40673 -0.710563 0
M  V30 6097 C 579.186 -1.38525 -1.46607 0
M  V30 6098 C 579.499 0.0077024 -1.95598 0
M  V30 6099 O 580.705 0.151792 -2.71075 0
M  V30 6100 C 579.161 -2.43489 -2.6503 0
M  V30 6101 C 578.769 -3.88619 -2.22888 0
M  V30 6102 C 580.513 -2.50456 -3.42742 0
M  V30 6103 C 578.42 -4.85168 -3.3818 0
M  V30 6104 H 577.35 -0.515092 -0.550632 0
M  V30 6105 H 580.001 -1.66431 -0.772846 0
M  V30 6106 H 578.383 -2.0869 -3.36548 0
M  V30 6107 H 579.557 -4.32588 -1.58758 0
M  V30 6108 H 577.872 -3.85174 -1.58208 0
M  V30 6109 H 580.469 -3.19776 -4.28541 0
M  V30 6110 H 580.812 -1.53665 -3.86902 0
M  V30 6111 H 581.345 -2.84271 -2.78271 0
M  V30 6112 H 578.084 -5.8331 -2.99047 0
M  V30 6113 H 577.604 -4.4586 -4.01209 0
M  V30 6114 H 579.283 -5.05225 -4.04174 0
M  V30 6115 N 579.415 0.9433 -1.26252 0
M  V30 6116 C 580.345 2.05902 -1.10122 0
M  V30 6117 C 581.326 1.70099 -0.00700552 0
M  V30 6118 O 582.511 1.93377 -0.178641 0
M  V30 6119 C 579.641 3.39516 -0.731175 0
M  V30 6120 C 578.595 3.89372 -1.77688 0
M  V30 6121 C 577.921 5.19613 -1.26122 0
M  V30 6122 C 579.221 4.14489 -3.17799 0
M  V30 6123 H 580.915 2.19655 -2.03451 0
M  V30 6124 H 578.461 1.05548 -0.979576 0
M  V30 6125 H 580.414 4.17031 -0.605215 0
M  V30 6126 H 579.138 3.25733 0.23782 0
M  V30 6127 H 577.797 3.14036 -1.89148 0
M  V30 6128 H 577.445 5.02208 -0.282128 0
M  V30 6129 H 577.145 5.53939 -1.96023 0
M  V30 6130 H 578.669 5.99713 -1.14789 0
M  V30 6131 H 580.083 4.82625 -3.09428 0
M  V30 6132 H 578.48 4.60094 -3.85271 0
M  V30 6133 H 579.55 3.20347 -3.64014 0
M  V30 6134 N 580.893 1.08022 1.14757 0
M  V30 6135 C 581.823 0.728248 2.21853 0
M  V30 6136 C 582.804 -0.287486 1.67653 0
M  V30 6137 O 583.989 -0.158727 1.9355 0
M  V30 6138 C 581.119 0.132549 3.47047 0
M  V30 6139 C 580.073 1.07619 4.14249 0
M  V30 6140 C 579.399 0.342907 5.33599 0
M  V30 6141 C 580.699 2.41268 4.63235 0
M  V30 6142 H 582.393 1.62365 2.51551 0
M  V30 6143 H 579.939 0.782125 1.20908 0
M  V30 6144 H 581.892 -0.125665 4.21213 0
M  V30 6145 H 580.616 -0.797971 3.16702 0
M  V30 6146 H 579.275 1.31944 3.42033 0
M  V30 6147 H 578.923 -0.59129 4.99513 0
M  V30 6148 H 578.623 0.971955 5.79506 0
M  V30 6149 H 580.147 0.0926538 6.1053 0
M  V30 6150 H 581.561 2.21232 5.28894 0
M  V30 6151 H 579.958 2.9983 5.19829 0
M  V30 6152 H 581.028 3.03079 3.78512 0
M  V30 6153 N 582.371 -1.3172 0.865308 0
M  V30 6154 C 583.782 -1.79104 0.527126 0
M  V30 6155 C 584.133 -1.7135 -0.955695 0
M  V30 6156 O 583.258 -1.27845 -1.74598 0
M  V30 6157 C 583.853 -3.25207 0.950061 0
M  V30 6158 C 582.412 -3.70504 0.663611 0
M  V30 6159 C 581.559 -2.52605 1.14395 0
M  V30 6160 H 584.51 -1.18868 1.05148 0
M  V30 6161 H 584.531 -3.79535 0.270805 0
M  V30 6162 H 584.043 -3.30818 2.02931 0
M  V30 6163 H 582.144 -3.70398 -0.404474 0
M  V30 6164 H 582.257 -4.62845 1.23737 0
M  V30 6165 H 580.621 -2.4838 0.563859 0
M  V30 6166 H 581.404 -2.60964 2.23053 0
M  V30 6167 N 583.85 -0.624285 -1.44708 0
M  V30 6168 C 585.077 -0.132919 -2.06473 0
M  V30 6169 C 585.493 1.18967 -1.46602 0
M  V30 6170 O 584.85 1.72824 -0.586341 0
M  V30 6171 C 584.901 -0.00465418 -3.615 0
M  V30 6172 O 584.622 -1.27494 -4.19138 0
M  V30 6173 C 586.123 0.516213 -4.40284 0
M  V30 6174 H 583.343 -0.0765201 -0.666623 0
M  V30 6175 H 585.887 -0.856751 -1.85688 0
M  V30 6176 H 584.042 0.669583 -3.8157 0
M  V30 6177 H 584.456 -1.11536 -5.12504 0
M  V30 6178 H 585.93 0.554994 -5.49203 0
M  V30 6179 H 586.407 1.5419 -4.11245 0
M  V30 6180 H 587.013 -0.124542 -4.25118 0
M  V30 6181 N 585.328 1.53329 -0.364422 0
M  V30 6182 C 586.553 2.06132 0.229033 0
M  V30 6183 C 586.978 1.23625 1.41769 0
M  V30 6184 O 586.336 0.255038 1.79497 0
M  V30 6185 C 586.384 3.55544 0.60174 0
M  V30 6186 O 585.488 3.75771 1.69912 0
M  V30 6187 H 584.829 0.663148 0.0336213 0
M  V30 6188 H 587.359 1.97758 -0.524689 0
M  V30 6189 H 587.369 3.98549 0.873073 0
M  V30 6190 H 586.044 4.15039 -0.267421 0
M  V30 6191 H 584.621 3.44663 1.42343 0
M  V30 6192 N 586.806 0.0935595 1.57322 0
M  V30 6193 C 588.055 -0.570191 1.93473 0
M  V30 6194 C 588.368 -1.69434 0.977318 0
M  V30 6195 O 589.574 -2.41914 1.23248 0
M  V30 6196 C 588.03 -1.06564 3.43762 0
M  V30 6197 C 587.638 0.0286723 4.47991 0
M  V30 6198 C 589.382 -1.70221 3.88877 0
M  V30 6199 C 587.289 -0.482046 5.89432 0
M  V30 6200 H 586.219 -0.216764 0.72217 0
M  V30 6201 H 588.87 0.169313 1.82717 0
M  V30 6202 H 587.252 -1.85878 3.49664 0
M  V30 6203 H 588.426 0.804106 4.5373 0
M  V30 6204 H 586.741 0.570336 4.12476 0
M  V30 6205 H 589.338 -2.09502 4.91948 0
M  V30 6206 H 589.681 -2.57078 3.27439 0
M  V30 6207 H 590.214 -0.974919 3.85668 0
M  V30 6208 H 586.953 0.349871 6.54566 0
M  V30 6209 H 586.473 -1.22452 5.87167 0
M  V30 6210 H 588.152 -0.951508 6.39965 0
M  V30 6211 N 588.284 -1.56567 -0.180126 0
M  V30 6212 C 589.524 -1.83285 -0.904761 0
M  V30 6213 C 589.888 -0.673226 -1.7981 0
M  V30 6214 O 591.089 -0.820645 -2.55967 0
M  V30 6215 C 589.36 -3.15086 -1.68688 0
M  V30 6216 S 590.919 -3.63258 -2.46149 0
M  V30 6217 H 587.737 -0.643114 -0.303193 0
M  V30 6218 H 590.339 -1.94785 -0.167034 0
M  V30 6219 H 589.043 -3.97484 -1.02148 0
M  V30 6220 H 588.574 -3.06504 -2.46615 0
M  V30 6221 H 590.589 -3.29884 -3.70663 0
M  V30 6222 N 589.762 0.448376 -1.51087 0
M  V30 6223 C 591.173 1.0286 -1.5581 0
M  V30 6224 C 591.524 1.92583 -0.374989 0
M  V30 6225 O 590.649 2.10316 0.509533 0
M  V30 6226 C 591.244 1.87223 -2.8237 0
M  V30 6227 C 589.803 2.40314 -2.897 0
M  V30 6228 C 588.95 1.19238 -2.50355 0
M  V30 6229 H 591.901 0.230075 -1.57023 0
M  V30 6230 H 591.922 2.72553 -2.6551 0
M  V30 6231 H 591.434 1.21894 -3.68461 0
M  V30 6232 H 589.535 3.09129 -2.08014 0
M  V30 6233 H 589.648 2.73866 -3.93108 0
M  V30 6234 H 588.012 1.53428 -2.03303 0
M  V30 6235 H 588.795 0.555367 -3.38778 0
M  V30 6236 N 591.24 1.41047 0.703093 0
M  V30 6237 C 592.489 1.39301 1.4587 0
M  V30 6238 C 592.802 0.00267077 1.956 0
M  V30 6239 O 594.008 -0.137414 2.71152 0
M  V30 6240 C 592.464 2.44891 2.63735 0
M  V30 6241 C 592.072 3.89796 2.20824 0
M  V30 6242 C 593.816 2.5227 3.41409 0
M  V30 6243 C 591.723 4.86955 3.35602 0
M  V30 6244 H 590.653 0.518005 0.547893 0
M  V30 6245 H 593.304 1.66839 0.764009 0
M  V30 6246 H 591.686 2.10472 3.35436 0
M  V30 6247 H 592.86 4.33424 1.56461 0
M  V30 6248 H 591.175 3.86008 1.56163 0
M  V30 6249 H 593.772 3.22044 4.26839 0
M  V30 6250 H 594.115 1.55714 3.86081 0
M  V30 6251 H 594.648 2.85742 2.7676 0
M  V30 6252 H 591.387 5.84888 2.9595 0
M  V30 6253 H 590.907 4.47982 3.98839 0
M  V30 6254 H 592.586 5.07361 4.01489 0
M  V30 6255 N 592.718 -0.936591 1.26751 0
M  V30 6256 C 593.946 -1.71758 1.15355 0
M  V30 6257 C 594.361 -1.86549 -0.290683 0
M  V30 6258 O 593.718 -1.37616 -1.19868 0
M  V30 6259 C 593.769 -3.12193 1.82258 0
M  V30 6260 O 593.49 -2.98105 3.21038 0
M  V30 6261 C 594.991 -4.06485 1.76875 0
M  V30 6262 H 592.211 -0.537636 0.401483 0
M  V30 6263 H 594.755 -1.17382 1.67457 0
M  V30 6264 H 592.91 -3.63456 1.34083 0
M  V30 6265 H 593.324 -3.86824 3.54214 0
M  V30 6266 H 594.798 -5.02569 2.28316 0
M  V30 6267 H 595.275 -4.32986 0.736216 0
M  V30 6268 H 595.881 -3.61144 2.24623 0
M  V30 6269 N 594.196 -1.08629 -1.14182 0
M  V30 6270 C 595.612 -0.814363 -1.3726 0
M  V30 6271 C 595.812 0.575271 -1.93114 0
M  V30 6272 O 594.868 1.33165 -2.1453 0
M  V30 6273 C 596.181 -1.8989 -2.33157 0
M  V30 6274 C 597.729 -1.92518 -2.46791 0
M  V30 6275 C 598.204 -3.00092 -3.45989 0
M  V30 6276 N 599.695 -2.99279 -3.53534 0
M  V30 6277 C 600.43 -3.79158 -4.30147 0
M  V30 6278 N 599.926 -4.68923 -5.09983 0
M  V30 6279 N 601.719 -3.67451 -4.25366 0
M  V30 6280 H 593.87 -1.98232 -0.762758 0
M  V30 6281 H 596.133 -0.860383 -0.398051 0
M  V30 6282 H 595.839 -2.89809 -1.99257 0
M  V30 6283 H 595.713 -1.77013 -3.33086 0
M  V30 6284 H 598.1 -0.932425 -2.79982 0
M  V30 6285 H 598.181 -2.09473 -1.46816 0
M  V30 6286 H 597.825 -3.99575 -3.13532 0
M  V30 6287 H 597.755 -2.80382 -4.45751 0
M  V30 6288 H 600.246 -2.3422 -2.96563 0
M  V30 6289 H 600.559 -5.26475 -5.65724 0
M  V30 6290 H 598.904 -4.72964 -5.09244 0
M  V30 6291 H 602.095 -2.9669 -3.62067 0
M  V30 6292 H 602.268 -4.29944 -4.84822 0
M  V30 6293 N 595.674 1.31259 -0.872281 0
M  V30 6294 C 596.951 1.91362 -0.404943 0
M  V30 6295 C 597.331 1.79362 1.11321 0
M  V30 6296 O 596.679 1.20277 1.94283 0
M  V30 6297 C 596.889 3.3749 -0.888893 0
M  V30 6298 C 598.237 4.14593 -0.916384 0
M  V30 6299 O 599.261 3.46282 -0.834701 0
M  V30 6300 O 598.12 5.3661 -1.03498 0
M  V30 6301 H 595.214 0.818016 -0.121569 0
M  V30 6302 H 597.76 1.39912 -0.960346 0
M  V30 6303 H 596.532 3.40249 -1.93251 0
M  V30 6304 H 596.155 3.96375 -0.311932 0
M  V30 6305 N 597.152 0.631951 1.44375 0
M  V30 6306 C 598.568 0.297642 1.568 0
M  V30 6307 C 598.768 -1.19916 1.61934 0
M  V30 6308 O 597.824 -1.98324 1.56281 0
M  V30 6309 C 599.137 0.990286 2.83926 0
M  V30 6310 C 600.685 0.968507 2.97639 0
M  V30 6311 C 601.16 1.64163 4.27568 0
M  V30 6312 N 602.651 1.60826 4.34384 0
M  V30 6313 C 603.386 2.09802 5.33639 0
M  V30 6314 N 602.882 2.66973 6.39294 0
M  V30 6315 N 604.675 2.00426 5.25153 0
M  V30 6316 H 596.826 1.60353 1.39286 0
M  V30 6317 H 599.089 0.673142 0.667521 0
M  V30 6318 H 598.795 2.04519 2.8612 0
M  V30 6319 H 598.669 0.528563 3.73478 0
M  V30 6320 H 601.056 -0.0779247 2.94997 0
M  V30 6321 H 601.137 1.46873 2.09433 0
M  V30 6322 H 600.781 2.68752 4.3097 0
M  V30 6323 H 600.711 1.11624 5.14634 0
M  V30 6324 H 603.202 1.19087 3.58646 0
M  V30 6325 H 603.515 3.02074 7.11316 0
M  V30 6326 H 601.86 2.71024 6.39977 0
M  V30 6327 H 605.051 1.55483 4.41523 0
M  V30 6328 H 605.224 2.38906 6.02352 0
M  V30 6329 N 598.631 -1.53133 0.372548 0
M  V30 6330 C 600.042 -1.86404 -0.105155 0
M  V30 6331 C 600.393 -1.29289 -1.47576 0
M  V30 6332 O 599.518 -0.617646 -2.07398 0
M  V30 6333 C 600.113 -3.38223 -0.197588 0
M  V30 6334 C 598.672 -3.71266 -0.619556 0
M  V30 6335 C 597.819 -2.76353 0.228919 0
M  V30 6336 H 600.77 -1.47282 0.591077 0
M  V30 6337 H 600.791 -3.66577 -1.01987 0
M  V30 6338 H 600.303 -3.79763 0.800099 0
M  V30 6339 H 598.404 -3.35287 -1.62522 0
M  V30 6340 H 598.517 -4.77515 -0.389332 0
M  V30 6341 H 596.881 -2.52888 -0.303271 0
M  V30 6342 H 597.664 -3.20728 1.22428 0
M  V30 6343 N 600.109 -0.101901 -1.5727 0
M  V30 6344 C 601.357 0.559091 -1.94213 0
M  V30 6345 C 601.678 1.68297 -0.984948 0
M  V30 6346 O 600.948 1.95863 -0.0381975 0
M  V30 6347 H 599.528 0.20952 -0.717015 0
M  V30 6348 H 602.19 -0.166831 -1.94185 0
M  V30 6349 H 601.286 0.96485 -2.96811 0
M  V30 6350 N 601.587 1.56661 0.17182 0
M  V30 6351 C 602.497 1.99604 1.2327 0
M  V30 6352 C 603.513 0.907333 1.4847 0
M  V30 6353 O 604.689 1.21492 1.60629 0
M  V30 6354 C 601.754 2.34685 2.55194 0
M  V30 6355 C 600.815 3.57381 2.3786 0
M  V30 6356 C 600.048 3.90779 3.63494 0
M  V30 6357 O 600.271 3.25152 4.6865 0
M  V30 6358 O 599.205 4.84129 3.57634 0
M  V30 6359 H 603.031 2.90114 0.898192 0
M  V30 6360 H 600.616 1.44522 0.378647 0
M  V30 6361 H 602.498 2.5822 3.33017 0
M  V30 6362 H 601.173 1.47336 2.88225 0
M  V30 6363 H 600.08 3.39064 1.5807 0
M  V30 6364 H 601.413 4.45268 2.09754 0
M  V30 6365 N 603.065 -0.440357 1.51323 0
M  V30 6366 C 604.012 -1.53429 1.72419 0
M  V30 6367 C 604.982 -1.56165 0.565826 0
M  V30 6368 O 606.167 -1.73222 0.799917 0
M  V30 6369 C 603.307 -2.91169 1.85242 0
M  V30 6370 C 602.42 -2.97985 3.12777 0
M  V30 6371 C 601.555 -4.26829 3.16212 0
M  V30 6372 C 600.594 -4.27501 4.38074 0
M  V30 6373 N 599.731 -5.47866 4.39076 0
M  V30 6374 H 604.571 -1.34743 2.65797 0
M  V30 6375 H 602.108 -0.654608 1.31732 0
M  V30 6376 H 604.066 -3.71087 1.90658 0
M  V30 6377 H 602.696 -3.0842 0.952744 0
M  V30 6378 H 601.748 -2.10749 3.16685 0
M  V30 6379 H 603.06 -2.94342 4.02696 0
M  V30 6380 H 602.214 -5.15118 3.20527 0
M  V30 6381 H 600.953 -4.33124 2.24176 0
M  V30 6382 H 599.958 -3.37606 4.33938 0
M  V30 6383 H 601.183 -4.22873 5.31371 0
M  V30 6384 H 599.129 -5.54887 3.49909 0
M  V30 6385 H 599.046 -5.46091 5.22801 0
M  V30 6386 H 600.314 -6.38195 4.4758 0
M  V30 6387 N 604.543 -1.41418 -0.695603 0
M  V30 6388 C 605.768 -1.44329 -1.48942 0
M  V30 6389 C 606.193 -0.0501579 -1.88033 0
M  V30 6390 O 605.551 0.946598 -1.54626 0
M  V30 6391 C 605.599 -2.3578 -2.72837 0
M  V30 6392 O 604.703 -1.81482 -3.70322 0
M  V30 6393 H 604.044 -0.489838 -0.44828 0
M  V30 6394 H 606.574 -1.85878 -0.855014 0
M  V30 6395 H 606.584 -2.51654 -3.21145 0
M  V30 6396 H 605.259 -3.37005 -2.43722 0
M  V30 6397 H 603.836 -1.75058 -3.29255 0
M  V30 6398 N 606.021 0.929856 -1.27246 0
M  V30 6399 C 607.298 1.65544 -1.04186 0
M  V30 6400 C 607.678 2.06796 0.424097 0
M  V30 6401 O 607.026 1.80053 1.40688 0
M  V30 6402 C 607.236 2.85912 -2.00138 0
M  V30 6403 C 608.584 3.57305 -2.29387 0
M  V30 6404 O 609.608 2.96036 -1.98094 0
M  V30 6405 O 608.467 4.67688 -2.82719 0
M  V30 6406 H 605.561 0.725473 -0.397011 0
M  V30 6407 H 608.107 0.980583 -1.38501 0
M  V30 6408 H 606.879 2.52403 -2.99013 0
M  V30 6409 H 606.502 3.61118 -1.66371 0
M  V30 6410 N 607.499 1.09233 1.13605 0
M  V30 6411 C 608.747 0.825525 1.84471 0
M  V30 6412 C 609.068 -0.650702 1.83823 0
M  V30 6413 O 608.338 -1.47204 1.29259 0
M  V30 6414 H 606.918 0.3024 0.683054 0
M  V30 6415 H 609.58 1.38006 1.37624 0
M  V30 6416 H 608.676 1.17727 2.89045 0
M  V30 6417 N 608.977 -1.30795 0.87923 0
M  V30 6418 C 610.217 -1.98155 0.50141 0
M  V30 6419 C 610.581 -1.67925 -0.930863 0
M  V30 6420 O 611.782 -2.28572 -1.41451 0
M  V30 6421 C 610.053 -3.49184 0.761937 0
M  V30 6422 S 611.612 -4.36107 0.485361 0
M  V30 6423 H 608.43 -0.686025 0.186792 0
M  V30 6424 H 611.032 -1.59018 1.13726 0
M  V30 6425 H 609.736 -3.68676 1.80295 0
M  V30 6426 H 609.267 -3.93236 0.113432 0
M  V30 6427 H 611.282 -4.9154 -0.678467 0
M  V30 6428 N 610.455 -0.639598 -1.44038 0
M  V30 6429 C 611.701 -0.147698 -2.02261 0
M  V30 6430 C 612.034 1.23031 -1.50256 0
M  V30 6431 O 611.309 1.81847 -0.690068 0
M  V30 6432 C 611.592 -0.14362 -3.59813 0
M  V30 6433 C 611.445 -1.55458 -4.22082 0
M  V30 6434 C 612.764 0.527317 -4.36929 0
M  V30 6435 H 609.883 -0.0551453 -0.734934 0
M  V30 6436 H 612.525 -0.817688 -1.71505 0
M  V30 6437 H 610.675 0.426898 -3.86147 0
M  V30 6438 H 612.347 -2.17464 -4.06826 0
M  V30 6439 H 610.59 -2.10594 -3.79253 0
M  V30 6440 H 611.261 -1.50369 -5.31124 0
M  V30 6441 H 613.737 0.0420504 -4.16079 0
M  V30 6442 H 612.613 0.499389 -5.46624 0
M  V30 6443 H 612.874 1.59914 -4.12165 0
M  V30 6444 N 611.933 1.52934 -0.380664 0
M  V30 6445 C 613.158 2.06363 0.207157 0
M  V30 6446 C 613.583 1.25122 1.4045 0
M  V30 6447 O 612.941 0.274062 1.79217 0
M  V30 6448 C 612.989 3.56162 0.563996 0
M  V30 6449 O 612.093 3.77552 1.65917 0
M  V30 6450 H 611.434 0.663468 0.0265859 0
M  V30 6451 H 613.964 1.9719 -0.545635 0
M  V30 6452 H 613.974 3.99453 0.830752 0
M  V30 6453 H 612.649 4.14732 -0.311427 0
M  V30 6454 H 611.226 3.46154 1.3868 0
M  V30 6455 N 613.412 0.11024 1.57214 0
M  V30 6456 C 614.375 -0.828808 2.1369 0
M  V30 6457 C 615.375 -1.20059 1.06969 0
M  V30 6458 O 616.565 -1.12754 1.32786 0
M  V30 6459 C 613.697 -2.11959 2.66994 0
M  V30 6460 H 614.89 -0.338146 2.97988 0
M  V30 6461 H 612.443 -0.138913 1.55681 0
M  V30 6462 H 613.178 -2.65476 1.8626 0
M  V30 6463 H 612.963 -1.86258 3.45037 0
M  V30 6464 H 614.453 -2.79105 3.10629 0
M  V30 6465 N 614.89 -1.56749 -0.16351 0
M  V30 6466 C 615.837 -1.97011 -1.2023 0
M  V30 6467 C 616.807 -0.835186 -1.43575 0
M  V30 6468 O 617.992 -1.09594 -1.56185 0
M  V30 6469 C 615.132 -2.34186 -2.53478 0
M  V30 6470 C 614.245 -3.60893 -2.37446 0
M  V30 6471 C 613.38 -3.87245 -3.63614 0
M  V30 6472 C 612.419 -5.07274 -3.42548 0
M  V30 6473 N 611.556 -5.29719 -4.60806 0
M  V30 6474 H 616.396 -2.85562 -0.851958 0
M  V30 6475 H 613.933 -1.41292 -0.409257 0
M  V30 6476 H 615.891 -2.53764 -3.31149 0
M  V30 6477 H 614.521 -1.48736 -2.86492 0
M  V30 6478 H 613.573 -3.49185 -1.50911 0
M  V30 6479 H 614.885 -4.48722 -2.1783 0
M  V30 6480 H 614.039 -4.07232 -4.49719 0
M  V30 6481 H 612.778 -2.97806 -3.86216 0
M  V30 6482 H 611.783 -4.87177 -2.5483 0
M  V30 6483 H 613.008 -5.98251 -3.2136 0
M  V30 6484 H 610.954 -4.43233 -4.83612 0
M  V30 6485 H 610.871 -6.11786 -4.44132 0
M  V30 6486 H 612.139 -5.54192 -5.48171 0
M  V30 6487 N 616.368 0.432326 -1.51554 0
M  V30 6488 C 617.616 1.17901 -1.64146 0
M  V30 6489 C 617.937 1.91604 -0.362367 0
M  V30 6490 O 617.207 1.85764 0.621968 0
M  V30 6491 H 615.787 0.438206 -0.604966 0
M  V30 6492 H 618.449 0.495172 -1.88505 0
M  V30 6493 H 617.545 1.90584 -2.47152 0
M  V30 6494 N 617.846 1.41785 0.688094 0
M  V30 6495 C 618.756 1.46596 1.83158 0
M  V30 6496 C 619.772 0.355862 1.70322 0
M  V30 6497 O 620.948 0.604737 1.92106 0
M  V30 6498 C 618.013 1.35322 3.192 0
M  V30 6499 C 617.074 2.56711 3.4409 0
M  V30 6500 C 616.307 2.45965 4.73642 0
M  V30 6501 O 616.53 1.48827 5.50642 0
M  V30 6502 O 615.464 3.35859 4.99482 0
M  V30 6503 H 619.29 2.43083 1.82056 0
M  V30 6504 H 616.875 1.23404 0.842126 0
M  V30 6505 H 618.757 1.31347 4.00407 0
M  V30 6506 H 617.432 0.419536 3.2097 0
M  V30 6507 H 616.339 2.66262 2.62784 0
M  V30 6508 H 617.672 3.48933 3.47141 0
M  V30 6509 N 619.324 -0.923095 1.27737 0
M  V30 6510 C 620.254 -2.04124 1.13383 0
M  V30 6511 C 621.235 -1.70066 0.0340658 0
M  V30 6512 O 622.42 -1.93068 0.209383 0
M  V30 6513 C 619.55 -3.3831 0.785097 0
M  V30 6514 C 618.504 -3.86496 1.8386 0
M  V30 6515 C 617.83 -5.1754 1.34373 0
M  V30 6516 C 619.13 -4.09381 3.24353 0
M  V30 6517 H 620.824 -2.1639 2.06919 0
M  V30 6518 H 618.37 -1.03976 0.996243 0
M  V30 6519 H 620.323 -4.16016 0.671485 0
M  V30 6520 H 619.047 -3.2607 -0.185969 0
M  V30 6521 H 617.706 -3.10987 1.9412 0
M  V30 6522 H 617.354 -5.01696 0.361989 0
M  V30 6523 H 617.054 -5.50751 2.04811 0
M  V30 6524 H 618.578 -5.97811 1.24315 0
M  V30 6525 H 619.992 -4.77641 3.17067 0
M  V30 6526 H 618.389 -4.53906 3.92542 0
M  V30 6527 H 619.459 -3.14515 3.69064 0
M  V30 6528 N 620.802 -1.09834 -1.13024 0
M  V30 6529 C 622.048 -0.83819 -1.84668 0
M  V30 6530 C 622.381 0.634645 -1.83537 0
M  V30 6531 O 621.656 1.46753 -1.27647 0
M  V30 6532 C 621.939 -1.37933 -3.32636 0
M  V30 6533 C 621.792 -2.91857 -3.42257 0
M  V30 6534 C 623.111 -1.01654 -4.28199 0
M  V30 6535 H 620.23 -0.30595 -0.670495 0
M  V30 6536 H 622.872 -1.36044 -1.32635 0
M  V30 6537 H 621.022 -0.935111 -3.77078 0
M  V30 6538 H 622.694 -3.44759 -3.06495 0
M  V30 6539 H 620.937 -3.28776 -2.83 0
M  V30 6540 H 621.608 -3.24799 -4.46329 0
M  V30 6541 H 624.084 -1.39973 -3.9185 0
M  V30 6542 H 622.96 -1.42217 -5.30156 0
M  V30 6543 H 623.221 0.0747794 -4.42037 0
M  V30 6544 N 622.28 1.30327 -0.886154 0
M  V30 6545 C 623.213 2.26241 -0.298407 0
M  V30 6546 C 624.191 1.51839 0.581704 0
M  V30 6547 O 625.375 1.80851 0.531536 0
M  V30 6548 C 622.502 3.33768 0.575888 0
M  V30 6549 C 621.548 4.25852 -0.235057 0
M  V30 6550 S 622.381 5.10277 -1.62411 0
M  V30 6551 C 623.537 6.21313 -0.756368 0
M  V30 6552 H 623.77 2.75744 -1.11141 0
M  V30 6553 H 621.303 1.38341 -0.685651 0
M  V30 6554 H 623.261 3.96186 1.07458 0
M  V30 6555 H 621.922 2.82986 1.363 0
M  V30 6556 H 621.115 5.02143 0.432198 0
M  V30 6557 H 620.717 3.68015 -0.666409 0
M  V30 6558 H 623.009 6.77495 0.0261451 0
M  V30 6559 H 623.952 6.92226 -1.49093 0
M  V30 6560 H 624.36 5.63611 -0.316749 0
M  V30 6561 N 623.758 0.647228 1.43697 0
M  V30 6562 C 624.69 -0.0866232 2.29036 0
M  V30 6563 C 625.703 -0.793051 1.42178 0
M  V30 6564 O 626.892 -0.651807 1.66174 0
M  V30 6565 C 623.992 -1.14552 3.18953 0
M  V30 6566 C 623.165 -0.518422 4.34317 0
M  V30 6567 C 622.224 -1.4734 5.05151 0
M  V30 6568 O 621.25 -0.984312 5.60625 0
M  V30 6569 N 622.452 -2.8075 5.08094 0
M  V30 6570 H 625.217 0.645834 2.92659 0
M  V30 6571 H 622.778 0.489567 1.54321 0
M  V30 6572 H 624.77 -1.78505 3.63205 0
M  V30 6573 H 623.34 -1.78001 2.56971 0
M  V30 6574 H 622.56 0.300079 3.93056 0
M  V30 6575 H 623.848 -0.080401 5.08736 0
M  V30 6576 H 623.246 -3.23052 4.64386 0
M  V30 6577 H 621.803 -3.40022 5.56083 0
M  V30 6578 N 625.236 -1.5273 0.388769 0
M  V30 6579 C 626.466 -2.05693 -0.193397 0
M  V30 6580 C 626.874 -1.26038 -1.41107 0
M  V30 6581 O 626.217 -0.30001 -1.81234 0
M  V30 6582 C 626.279 -3.53962 -0.628561 0
M  V30 6583 C 625.943 -4.54519 0.475576 0
M  V30 6584 C 626.94 -5.02526 1.33281 0
M  V30 6585 C 624.625 -4.98174 0.642453 0
M  V30 6586 C 626.619 -5.92812 2.34205 0
M  V30 6587 C 624.306 -5.88262 1.65503 0
M  V30 6588 C 625.304 -6.35473 2.50325 0
M  V30 6589 O 624.992 -7.23781 3.49852 0
M  V30 6590 H 624.724 -0.675197 -0.0329395 0
M  V30 6591 H 627.278 -1.97835 0.552326 0
M  V30 6592 H 625.508 -3.59437 -1.42625 0
M  V30 6593 H 627.197 -3.89669 -1.13633 0
M  V30 6594 H 627.963 -4.6953 1.21519 0
M  V30 6595 H 623.842 -4.60999 -0.00805093 0
M  V30 6596 H 627.386 -6.29585 3.00447 0
M  V30 6597 H 623.283 -6.20672 1.77304 0
M  V30 6598 H 624.051 -7.4184 3.45855 0
M  V30 6599 N 626.714 -0.118576 -1.57153 0
M  V30 6600 C 627.661 0.831789 -2.1529 0
M  V30 6601 C 628.631 1.26385 -1.07778 0
M  V30 6602 O 629.816 1.34144 -1.35684 0
M  V30 6603 C 626.956 2.07664 -2.75626 0
M  V30 6604 C 626.069 1.69298 -3.97444 0
M  V30 6605 C 625.204 2.88747 -4.45868 0
M  V30 6606 C 624.243 2.46619 -5.60219 0
M  V30 6607 N 623.38 3.5898 -6.03389 0
M  V30 6608 H 628.22 0.329183 -2.96176 0
M  V30 6609 H 625.757 0.150792 -1.46325 0
M  V30 6610 H 627.715 2.80601 -3.08738 0
M  V30 6611 H 626.345 2.55384 -1.97431 0
M  V30 6612 H 625.397 0.862374 -3.70496 0
M  V30 6613 H 626.709 1.34338 -4.80369 0
M  V30 6614 H 625.863 3.69909 -4.80887 0
M  V30 6615 H 624.602 3.26933 -3.61892 0
M  V30 6616 H 623.607 1.63889 -5.24805 0
M  V30 6617 H 624.832 2.0955 -6.45961 0
M  V30 6618 H 622.778 3.9684 -5.22354 0
M  V30 6619 H 622.695 3.27942 -6.81168 0
M  V30 6620 H 623.963 4.40583 -6.43045 0
M  V30 6621 N 628.193 1.56834 0.155195 0
M  V30 6622 C 629.442 1.82088 0.867567 0
M  V30 6623 C 629.755 0.69849 1.82703 0
M  V30 6624 O 630.961 0.836407 2.58295 0
M  V30 6625 C 629.417 3.22707 1.59336 0
M  V30 6626 C 629.025 4.42859 0.676719 0
M  V30 6627 C 630.769 3.57242 2.293 0
M  V30 6628 C 628.676 5.74501 1.40367 0
M  V30 6629 H 627.606 0.679057 0.327715 0
M  V30 6630 H 630.257 1.83105 0.120351 0
M  V30 6631 H 628.639 3.16054 2.38591 0
M  V30 6632 H 629.813 4.60731 -0.0800196 0
M  V30 6633 H 628.128 4.16311 0.0859129 0
M  V30 6634 H 630.725 4.52847 2.84312 0
M  V30 6635 H 631.068 2.82901 3.05406 0
M  V30 6636 H 631.601 3.6552 1.56972 0
M  V30 6637 H 628.34 6.51915 0.684623 0
M  V30 6638 H 627.86 5.60579 2.13332 0
M  V30 6639 H 629.539 6.17016 1.94681 0
M  V30 6640 N 629.671 -0.424282 1.51781 0
M  V30 6641 C 630.92 -1.16961 1.64326 0
M  V30 6642 C 631.233 -1.92035 0.371749 0
M  V30 6643 O 632.439 -2.68873 0.37676 0
M  V30 6644 C 630.895 -2.12782 2.90262 0
M  V30 6645 C 630.503 -1.43295 4.24465 0
M  V30 6646 C 632.247 -2.87667 3.12166 0
M  V30 6647 C 630.154 -2.37676 5.41538 0
M  V30 6648 H 629.084 -0.440293 0.612093 0
M  V30 6649 H 631.735 -0.435431 1.78259 0
M  V30 6650 H 630.117 -2.8969 2.69992 0
M  V30 6651 H 631.291 -0.718564 4.55163 0
M  V30 6652 H 629.606 -0.805118 4.08542 0
M  V30 6653 H 632.203 -3.58395 3.96808 0
M  V30 6654 H 632.546 -3.49758 2.25776 0
M  V30 6655 H 633.079 -2.17863 3.32837 0
M  V30 6656 H 629.818 -1.80255 6.30229 0
M  V30 6657 H 629.338 -3.07132 5.15199 0
M  V30 6658 H 631.017 -2.98529 5.74012 0
M  V30 6659 N 631.149 -1.42148 -0.680565 0
M  V30 6660 C 632.56 -1.3768 -1.26099 0
M  V30 6661 C 632.911 -0.0672348 -1.96085 0
M  V30 6662 O 632.036 0.834172 -1.99676 0
M  V30 6663 C 632.631 -2.49387 -2.29328 0
M  V30 6664 C 631.19 -2.4827 -2.82911 0
M  V30 6665 C 630.337 -2.2847 -1.57152 0
M  V30 6666 H 633.288 -1.51446 -0.474326 0
M  V30 6667 H 633.309 -2.19307 -3.10941 0
M  V30 6668 H 632.821 -3.44686 -1.78363 0
M  V30 6669 H 630.922 -1.56773 -3.38013 0
M  V30 6670 H 631.035 -3.45109 -3.3232 0
M  V30 6671 H 629.399 -1.76623 -1.83511 0
M  V30 6672 H 630.182 -3.25816 -1.0816 0
M  V30 6673 N 632.627 0.916307 -1.28225 0
M  V30 6674 C 633.855 1.69901 -1.18073 0
M  V30 6675 C 634.27 1.86988 0.260968 0
M  V30 6676 O 633.627 1.39505 1.17663 0
M  V30 6677 C 633.678 3.09254 -1.87201 0
M  V30 6678 O 633.399 2.92959 -3.2574 0
M  V30 6679 C 634.9 4.0362 -1.83319 0
M  V30 6680 H 632.12 0.531181 -0.409985 0
M  V30 6681 H 634.664 1.14703 -1.69303 0
M  V30 6682 H 632.819 3.61277 -1.39848 0
M  V30 6683 H 633.233 3.81139 -3.60324 0
M  V30 6684 H 634.707 4.98873 -2.36282 0
M  V30 6685 H 635.184 4.3176 -0.805007 0
M  V30 6686 H 635.79 3.57524 -2.3034 0
M  V30 6687 N 634.105 1.10431 1.1244 0
M  V30 6688 C 635.516 0.864439 1.65482 0
M  V30 6689 C 635.867 -0.60527 1.8663 0
M  V30 6690 O 634.992 -1.46492 1.59276 0
M  V30 6691 C 635.587 1.56267 3.0061 0
M  V30 6692 C 634.146 1.3695 3.50602 0
M  V30 6693 C 633.293 1.61209 2.25626 0
M  V30 6694 H 636.244 1.26203 0.962209 0
M  V30 6695 H 636.265 1.00166 3.67079 0
M  V30 6696 H 635.777 2.63231 2.85186 0
M  V30 6697 H 633.878 0.321481 3.71211 0
M  V30 6698 H 633.991 2.11143 4.30064 0
M  V30 6699 H 632.355 1.03482 2.32731 0
M  V30 6700 H 633.138 2.69425 2.12756 0
M  V30 6701 N 635.583 -1.29855 0.893053 0
M  V30 6702 C 636.831 -1.9544 0.514566 0
M  V30 6703 C 637.152 -1.70795 -0.940959 0
M  V30 6704 O 636.422 -1.03601 -1.66264 0
M  V30 6705 H 635.002 -0.723137 0.187302 0
M  V30 6706 H 637.664 -1.58234 1.13789 0
M  V30 6707 H 636.76 -3.04341 0.691581 0
M  V30 6708 N 637.061 -0.65484 -1.43351 0
M  V30 6709 C 638.289 -0.176685 -2.06144 0
M  V30 6710 C 638.704 1.15831 -1.49093 0
M  V30 6711 O 638.061 1.71542 -0.622868 0
M  V30 6712 C 638.112 -0.0813326 -3.61408 0
M  V30 6713 O 637.833 -1.36355 -4.1634 0
M  V30 6714 C 639.334 0.422706 -4.4128 0
M  V30 6715 H 636.554 -0.0906429 -0.66485 0
M  V30 6716 H 639.098 -0.895945 -1.83829 0
M  V30 6717 H 637.253 0.588496 -3.82904 0
M  V30 6718 H 637.667 -1.22381 -5.10023 0
M  V30 6719 H 639.141 0.438375 -5.50257 0
M  V30 6720 H 639.618 1.45432 -4.14423 0
M  V30 6721 H 640.224 -0.214687 -4.24758 0
M  V30 6722 N 638.539 1.52521 -0.396863 0
M  V30 6723 C 639.489 2.2348 0.451722 0
M  V30 6724 C 640.473 1.2415 1.0235 0
M  V30 6725 O 641.665 1.4945 0.948348 0
M  V30 6726 C 638.794 3.05067 1.57445 0
M  V30 6727 C 637.88 4.11799 1.01404 0
M  V30 6728 N 638.271 5.05482 0.179234 0
M  V30 6729 C 636.569 4.27064 1.28578 0
M  V30 6730 C 637.27 5.81552 -0.131202 0
M  V30 6731 N 636.246 5.41523 0.474735 0
M  V30 6732 H 640.048 2.93269 -0.192534 0
M  V30 6733 H 637.562 1.61081 -0.206591 0
M  V30 6734 H 639.559 3.54446 2.19485 0
M  V30 6735 H 638.219 2.36816 2.22145 0
M  V30 6736 H 639.23 5.17573 -0.18411 0
M  V30 6737 H 635.907 3.70042 1.93327 0
M  V30 6738 H 637.297 6.67023 -0.808061 0
M  V30 6739 N 640.017 0.126909 1.57088 0
M  V30 6740 C 641.428 -0.397201 1.82426 0
M  V30 6741 C 641.779 -1.66084 1.04453 0
M  V30 6742 O 640.904 -2.14534 0.283552 0
M  V30 6743 C 641.499 -0.727411 3.30899 0
M  V30 6744 C 640.058 -1.19612 3.56889 0
M  V30 6745 C 639.205 -0.20885 2.76512 0
M  V30 6746 H 642.156 0.351924 1.54749 0
M  V30 6747 H 642.177 -1.58407 3.45959 0
M  V30 6748 H 641.689 0.19247 3.87622 0
M  V30 6749 H 639.79 -2.13263 3.05532 0
M  V30 6750 H 639.903 -1.13598 4.65438 0
M  V30 6751 H 638.267 -0.697479 2.44964 0
M  V30 6752 H 639.05 0.704267 3.35998 0
M  V30 6753 N 641.495 -1.56914 -0.146875 0
M  V30 6754 C 642.425 -2.01308 -1.1831 0
M  V30 6755 C 643.406 -0.892664 -1.44795 0
M  V30 6756 O 644.591 -1.16048 -1.55713 0
M  V30 6757 C 641.721 -2.3938 -2.51624 0
M  V30 6758 C 640.675 -3.54608 -2.3966 0
M  V30 6759 C 640.001 -3.78493 -3.77686 0
M  V30 6760 C 641.301 -4.87269 -1.88058 0
M  V30 6761 H 642.995 -2.88123 -0.813964 0
M  V30 6762 H 640.541 -1.38615 -0.3901 0
M  V30 6763 H 642.494 -2.69037 -3.24341 0
M  V30 6764 H 641.218 -1.49502 -2.90373 0
M  V30 6765 H 639.877 -3.25116 -1.69396 0
M  V30 6766 H 639.525 -2.85866 -4.13871 0
M  V30 6767 H 639.225 -4.56039 -3.70543 0
M  V30 6768 H 640.749 -4.10576 -4.51951 0
M  V30 6769 H 642.163 -5.15644 -2.50568 0
M  V30 6770 H 640.56 -5.68622 -1.91805 0
M  V30 6771 H 641.63 -4.77634 -0.836277 0
M  V30 6772 N 642.974 0.416227 -1.52004 0
M  V30 6773 C 643.904 1.51365 -1.77795 0
M  V30 6774 C 644.885 1.58059 -0.628601 0
M  V30 6775 O 646.07 1.73447 -0.873478 0
M  V30 6776 C 643.2 2.89256 -1.92219 0
M  V30 6777 C 642.154 2.97415 -3.0778 0
M  V30 6778 C 641.48 4.37492 -3.07417 0
M  V30 6779 C 642.78 2.69551 -4.47369 0
M  V30 6780 H 644.474 1.30033 -2.69688 0
M  V30 6781 H 642.02 0.624112 -1.29772 0
M  V30 6782 H 643.973 3.66008 -2.08845 0
M  V30 6783 H 642.697 3.11866 -0.969917 0
M  V30 6784 H 641.356 2.23107 -2.90893 0
M  V30 6785 H 641.004 4.571 -2.09925 0
M  V30 6786 H 640.704 4.43877 -3.85029 0
M  V30 6787 H 642.228 5.16188 -3.26162 0
M  V30 6788 H 643.642 3.36028 -4.64497 0
M  V30 6789 H 642.039 2.87321 -5.26846 0
M  V30 6790 H 643.109 1.65029 -4.55953 0
M  V30 6791 N 644.452 1.42507 0.673017 0
M  V30 6792 C 645.698 1.43284 1.43519 0
M  V30 6793 C 646.031 0.049668 1.94136 0
M  V30 6794 O 645.306 -0.926369 1.71022 0
M  V30 6795 C 645.589 2.45874 2.63093 0
M  V30 6796 C 645.442 3.93388 2.18096 0
M  V30 6797 C 646.761 2.45431 3.6531 0
M  V30 6798 H 643.88 0.521752 0.520522 0
M  V30 6799 H 646.522 1.73932 0.764701 0
M  V30 6800 H 644.672 2.19869 3.20296 0
M  V30 6801 H 646.344 4.30379 1.66046 0
M  V30 6802 H 644.587 4.07169 1.49652 0
M  V30 6803 H 645.258 4.60752 3.03993 0
M  V30 6804 H 647.734 2.68561 3.17827 0
M  V30 6805 H 646.61 3.19189 4.46553 0
M  V30 6806 H 646.871 1.48092 4.16559 0
M  V30 6807 N 645.93 -0.909495 1.28709 0
M  V30 6808 C 646.86 -2.0291 1.15542 0
M  V30 6809 C 647.841 -1.7002 0.0521017 0
M  V30 6810 O 649.026 -1.92835 0.229849 0
M  V30 6811 C 646.156 -3.37458 0.820935 0
M  V30 6812 C 645.11 -3.84524 1.87949 0
M  V30 6813 C 644.436 -5.16086 1.39854 0
M  V30 6814 C 645.736 -4.05918 3.28676 0
M  V30 6815 H 647.43 -2.14183 2.09203 0
M  V30 6816 H 644.976 -1.02913 1.00722 0
M  V30 6817 H 646.929 -4.1528 0.715571 0
M  V30 6818 H 645.653 -3.26249 -0.151374 0
M  V30 6819 H 644.312 -3.08911 1.97408 0
M  V30 6820 H 643.96 -5.01284 0.41518 0
M  V30 6821 H 643.66 -5.48547 2.1064 0
M  V30 6822 H 645.184 -5.96459 1.30649 0
M  V30 6823 H 646.598 -4.74252 3.22115 0
M  V30 6824 H 644.995 -4.49717 3.97334 0
M  V30 6825 H 646.065 -3.10583 3.72379 0
M  V30 6826 N 647.408 -1.11026 -1.11852 0
M  V30 6827 C 648.654 -0.857729 -1.83768 0
M  V30 6828 C 648.987 0.615143 -1.842 0
M  V30 6829 O 648.262 1.45391 -1.29196 0
M  V30 6830 C 648.545 -1.41453 -3.31154 0
M  V30 6831 C 648.398 -2.95471 -3.39142 0
M  V30 6832 C 649.717 -1.0619 -4.27097 0
M  V30 6833 H 646.836 -0.313044 -0.667212 0
M  V30 6834 H 649.478 -1.37443 -1.31185 0
M  V30 6835 H 647.628 -0.975052 -3.76065 0
M  V30 6836 H 649.3 -3.4799 -3.02821 0
M  V30 6837 H 647.543 -3.31759 -2.79497 0
M  V30 6838 H 648.214 -3.29515 -4.42859 0
M  V30 6839 H 650.69 -1.44122 -3.90344 0
M  V30 6840 H 649.566 -1.47832 -5.28618 0
M  V30 6841 H 649.827 0.0278912 -4.42091 0
M  V30 6842 N 648.886 1.2938 -0.899927 0
M  V30 6843 C 649.834 2.29675 -0.367698 0
M  V30 6844 C 650.828 1.60787 0.533282 0
M  V30 6845 O 652.034 1.75126 0.416058 0
M  V30 6846 H 648.409 0.745284 -0.100279 0
M  V30 6847 H 650.38 2.72008 -1.22696 0
M  V30 6848 C 649.129 3.45512 0.389483 0
M  V30 6849 H 648.452 3.98713 -0.294575 0
M  V30 6850 H 649.892 4.17725 0.726744 0
M  V30 6851 C 648.351 2.969 1.59223 0
M  V30 6852 O 648.881 2.98195 2.69152 0
M  V30 6853 N 647.087 2.52728 1.43447 0
M  V30 6854 H 646.634 2.51873 0.540148 0
M  V30 6855 H 646.592 2.20561 2.24054 0
M  V30 6856 N 650.364 0.662433 1.43002 0
M  V30 6857 C 651.775 0.258315 1.84904 0
M  V30 6858 C 652.126 -1.19703 1.55453 0
M  V30 6859 O 651.251 -1.91484 1.00811 0
M  V30 6860 C 651.846 0.462047 3.35635 0
M  V30 6861 C 650.405 0.112165 3.76233 0
M  V30 6862 C 649.552 0.760479 2.66668 0
M  V30 6863 H 652.503 0.865467 1.33024 0
M  V30 6864 H 652.524 -0.289646 3.79396 0
M  V30 6865 H 652.036 1.52135 3.57039 0
M  V30 6866 H 650.137 -0.944179 3.60439 0
M  V30 6867 H 650.25 0.544058 4.76001 0
M  V30 6868 H 648.614 0.192887 2.53969 0
M  V30 6869 H 649.397 1.82299 2.90898 0
M  V30 6870 N 651.842 -1.52309 0.404946 0
M  V30 6871 C 652.789 -2.26898 -0.422597 0
M  V30 6872 C 653.759 -1.2914 -1.04461 0
M  V30 6873 O 654.944 -1.57996 -1.06967 0
M  V30 6874 C 652.084 -3.09053 -1.53559 0
M  V30 6875 C 651.197 -4.21762 -0.934908 0
M  V30 6876 C 650.332 -4.91283 -2.02025 0
M  V30 6877 C 649.371 -5.95962 -1.39628 0
M  V30 6878 N 648.508 -6.59017 -2.42159 0
M  V30 6879 H 653.348 -2.97188 0.219903 0
M  V30 6880 H 650.885 -1.46607 0.120282 0
M  V30 6881 H 652.843 -3.54987 -2.19181 0
M  V30 6882 H 651.473 -2.40942 -2.14818 0
M  V30 6883 H 650.525 -3.80029 -0.167854 0
M  V30 6884 H 651.837 -4.96864 -0.439073 0
M  V30 6885 H 650.991 -5.40601 -2.75383 0
M  V30 6886 H 649.73 -4.15741 -2.54973 0
M  V30 6887 H 648.735 -5.45968 -0.648023 0
M  V30 6888 H 649.96 -6.73445 -0.874553 0
M  V30 6889 H 647.906 -5.86306 -2.94247 0
M  V30 6890 H 647.823 -7.2978 -1.97376 0
M  V30 6891 H 649.091 -7.12974 -3.15099 0
M  V30 6892 N 653.32 -0.135238 -1.57019 0
M  V30 6893 C 654.545 0.529343 -2.00531 0
M  V30 6894 C 654.97 1.58391 -1.01459 0
M  V30 6895 O 654.328 1.81296 0.0113986 0
M  V30 6896 C 654.376 1.11748 -3.42848 0
M  V30 6897 O 653.48 2.23267 -3.46736 0
M  V30 6898 H 652.821 0.130669 -0.651016 0
M  V30 6899 H 655.351 -0.228503 -2.0332 0
M  V30 6900 H 655.361 1.44905 -3.81401 0
M  V30 6901 H 654.036 0.345147 -4.14465 0
M  V30 6902 H 652.613 1.91428 -3.20015 0
M  V30 6903 N 654.798 1.5699 0.138552 0
M  V30 6904 C 656.046 1.83446 0.848053 0
M  V30 6905 C 656.367 0.71744 1.81322 0
M  V30 6906 O 655.637 -0.260228 1.94164 0
M  V30 6907 H 654.217 0.676792 0.316166 0
M  V30 6908 H 656.879 1.94462 0.130538 0
M  V30 6909 H 655.975 2.78677 1.40518 0
M  V30 6910 N 656.276 -0.40816 1.52223 0
M  V30 6911 C 657.524 -1.15274 1.66001 0
M  V30 6912 C 657.845 -1.91003 0.392803 0
M  V30 6913 O 657.115 -1.8673 -0.592336 0
M  V30 6914 H 655.695 -0.428526 0.611861 0
M  V30 6915 H 658.357 -0.46512 1.89269 0
M  V30 6916 H 657.453 -1.86628 2.50153 0
M  V30 6917 N 657.755 -1.42862 -0.66545 0
M  V30 6918 C 659.171 -1.25993 -0.979687 0
M  V30 6919 C 659.371 -0.170831 -2.00775 0
M  V30 6920 O 658.427 0.454827 -2.4837 0
M  V30 6921 C 659.74 -2.62005 -1.47559 0
M  V30 6922 C 661.288 -2.69437 -1.59288 0
M  V30 6923 C 661.763 -4.05838 -2.12272 0
M  V30 6924 N 663.254 -4.0784 -2.19592 0
M  V30 6925 C 663.989 -5.10205 -2.61684 0
M  V30 6926 N 663.485 -6.22949 -3.03161 0
M  V30 6927 N 665.278 -4.9756 -2.61516 0
M  V30 6928 H 657.429 -2.12395 0.0150493 0
M  V30 6929 H 659.692 -0.946355 -0.0558187 0
M  V30 6930 H 659.398 -3.42605 -0.794654 0
M  V30 6931 H 659.272 -2.86566 -2.45275 0
M  V30 6932 H 661.659 -1.89178 -2.26486 0
M  V30 6933 H 661.74 -2.48655 -0.600374 0
M  V30 6934 H 661.384 -4.86559 -1.4568 0
M  V30 6935 H 661.314 -4.23977 -3.12331 0
M  V30 6936 H 663.805 -3.26452 -1.90361 0
M  V30 6937 H 664.118 -6.96899 -3.33993 0
M  V30 6938 H 662.463 -6.2644 -3.00995 0
M  V30 6939 H 665.654 -4.08551 -2.28481 0
M  V30 6940 H 665.827 -5.77468 -2.93999 0
M  V30 6941 N 659.233 0.902656 -1.29189 0
M  V30 6942 C 660.165 2.01149 -1.09872 0
M  V30 6943 C 661.178 1.62732 -0.0471046 0
M  V30 6944 O 662.367 1.76107 -0.29132 0
M  V30 6945 C 659.467 3.32612 -0.649818 0
M  V30 6946 C 658.64 3.99574 -1.7793 0
M  V30 6947 C 657.699 5.09325 -1.32191 0
M  V30 6948 O 656.725 5.31919 -2.02611 0
M  V30 6949 N 657.927 5.80185 -0.191171 0
M  V30 6950 H 660.692 2.18276 -2.05368 0
M  V30 6951 H 658.253 1.07466 -1.2109 0
M  V30 6952 H 660.245 4.03375 -0.327199 0
M  V30 6953 H 658.815 3.11876 0.212597 0
M  V30 6954 H 658.035 3.22213 -2.27095 0
M  V30 6955 H 659.323 4.41056 -2.53668 0
M  V30 6956 H 658.721 5.64312 0.396016 0
M  V30 6957 H 657.278 6.5176 0.0721001 0
M  V30 6958 N 660.711 1.11618 1.11262 0
M  V30 6959 C 661.959 0.864469 1.82678 0
M  V30 6960 C 662.28 -0.611564 1.85162 0
M  V30 6961 O 661.55 -1.44429 1.32352 0
M  V30 6962 H 660.13 0.316821 0.676486 0
M  V30 6963 H 662.792 1.40894 1.34666 0
M  V30 6964 H 661.888 1.23832 2.86482 0
M  V30 6965 N 662.189 -1.289 0.906776 0
M  V30 6966 C 663.099 -2.31256 0.394707 0
M  V30 6967 C 664.115 -1.66231 -0.514121 0
M  V30 6968 O 665.291 -1.97347 -0.401994 0
M  V30 6969 C 662.356 -3.44792 -0.363191 0
M  V30 6970 C 661.417 -4.25391 0.578012 0
M  V30 6971 C 660.65 -5.33506 -0.143811 0
M  V30 6972 O 660.873 -5.53786 -1.36665 0
M  V30 6973 O 659.807 -5.99673 0.5173 0
M  V30 6974 H 663.633 -2.77051 1.24405 0
M  V30 6975 H 661.218 -1.33466 0.671346 0
M  V30 6976 H 663.1 -4.139 -0.791503 0
M  V30 6977 H 661.775 -3.01093 -1.18848 0
M  V30 6978 H 660.682 -3.58899 1.05558 0
M  V30 6979 H 662.015 -4.72752 1.36992 0
M  V30 6980 N 663.667 -0.670007 -1.42649 0
M  V30 6981 C 665.083 -0.33911 -1.55956 0
M  V30 6982 C 665.283 1.1558 -1.65056 0
M  V30 6983 O 664.339 1.94111 -1.61485 0
M  V30 6984 C 665.652 -1.06522 -2.812 0
M  V30 6985 C 667.2 -1.04708 -2.94966 0
M  V30 6986 C 667.675 -1.75442 -4.23065 0
M  V30 6987 N 669.166 -1.72286 -4.29967 0
M  V30 6988 C 669.901 -2.23877 -5.27889 0
M  V30 6989 N 669.397 -2.83829 -6.31991 0
M  V30 6990 N 671.19 -2.14279 -5.19654 0
M  V30 6991 H 663.341 -1.6399 -1.34986 0
M  V30 6992 H 665.604 -0.690603 -0.649439 0
M  V30 6993 H 665.31 -2.12033 -2.80597 0
M  V30 6994 H 665.184 -0.627398 -3.71946 0
M  V30 6995 H 667.571 -0.000315966 -2.951 0
M  V30 6996 H 667.652 -1.52374 -2.05465 0
M  V30 6997 H 667.296 -2.80084 -4.23693 0
M  V30 6998 H 667.226 -1.25229 -5.11493 0
M  V30 6999 H 669.717 -1.28554 -3.55362 0
M  V30 7000 H 670.03 -3.20827 -7.03057 0
M  V30 7001 H 668.375 -2.87896 -6.32567 0
M  V30 7002 H 671.566 -1.67135 -4.37245 0
M  V30 7003 H 671.739 -2.54792 -5.95806 0
M  V30 7004 N 665.145 1.52092 -0.413018 0
M  V30 7005 C 666.394 2.01041 0.16287 0
M  V30 7006 C 666.707 1.30288 1.45892 0
M  V30 7007 O 667.913 1.70075 2.11629 0
M  V30 7008 C 666.369 3.58283 0.340806 0
M  V30 7009 C 665.977 4.37955 -0.943377 0
M  V30 7010 C 667.721 4.15452 0.871774 0
M  V30 7011 C 665.628 5.86847 -0.732417 0
M  V30 7012 H 664.558 0.751224 0.0646414 0
M  V30 7013 H 667.209 1.75404 -0.539059 0
M  V30 7014 H 665.591 3.80266 1.10516 0
M  V30 7015 H 666.765 4.2773 -1.71418 0
M  V30 7016 H 665.08 3.92122 -1.40105 0
M  V30 7017 H 667.677 5.24375 1.0457 0
M  V30 7018 H 668.02 3.73057 1.84755 0
M  V30 7019 H 668.553 3.97452 0.166377 0
M  V30 7020 H 665.292 6.33609 -1.67986 0
M  V30 7021 H 664.812 5.998 -0.000980058 0
M  V30 7022 H 666.491 6.45906 -0.376105 0
M  V30 7023 N 666.623 0.143563 1.56945 0
M  V30 7024 C 667.553 -0.7936 2.196 0
M  V30 7025 C 668.534 -1.25955 1.14321 0
M  V30 7026 O 669.719 -1.31773 1.42651 0
M  V30 7027 C 666.849 -2.03424 2.81489 0
M  V30 7028 C 665.803 -1.70519 3.92565 0
M  V30 7029 C 665.129 -3.01817 4.41373 0
M  V30 7030 C 666.429 -0.95449 5.13504 0
M  V30 7031 H 668.123 -0.271423 2.98167 0
M  V30 7032 H 665.669 -0.12911 1.4342 0
M  V30 7033 H 667.622 -2.69463 3.23987 0
M  V30 7034 H 666.346 -2.58008 2.00248 0
M  V30 7035 H 665.005 -1.06859 3.5068 0
M  V30 7036 H 664.653 -3.54386 3.56959 0
M  V30 7037 H 664.353 -2.80565 5.16292 0
M  V30 7038 H 665.877 -3.68934 4.86539 0
M  V30 7039 H 667.291 -1.5169 5.52868 0
M  V30 7040 H 665.688 -0.842035 5.94163 0
M  V30 7041 H 666.758 0.0544033 4.84869 0
M  V30 7042 N 668.101 -1.57061 -0.130224 0
M  V30 7043 C 669.517 -1.52103 -0.483413 0
M  V30 7044 C 669.717 -0.854752 -1.82473 0
M  V30 7045 O 668.773 -0.432342 -2.48771 0
M  V30 7046 C 670.086 -2.96872 -0.47825 0
M  V30 7047 C 671.634 -3.07902 -0.562592 0
M  V30 7048 C 672.109 -4.54211 -0.587929 0
M  V30 7049 N 673.6 -4.58621 -0.649684 0
M  V30 7050 C 674.335 -5.69227 -0.690551 0
M  V30 7051 N 673.831 -6.89358 -0.689743 0
M  V30 7052 N 675.624 -5.57304 -0.732708 0
M  V30 7053 H 667.775 -1.98764 0.748779 0
M  V30 7054 H 670.038 -0.907248 0.274965 0
M  V30 7055 H 669.744 -3.48944 0.439444 0
M  V30 7056 H 669.618 -3.53716 -1.31013 0
M  V30 7057 H 672.005 -2.5584 -1.47071 0
M  V30 7058 H 672.086 -2.54073 0.296764 0
M  V30 7059 H 671.73 -5.06915 0.316096 0
M  V30 7060 H 671.66 -5.0584 -1.46401 0
M  V30 7061 H 674.151 -3.72146 -0.656927 0
M  V30 7062 H 674.464 -7.69408 -0.723239 0
M  V30 7063 H 672.809 -6.91884 -0.657347 0
M  V30 7064 H 676 -4.62363 -0.730625 0
M  V30 7065 H 676.173 -6.43515 -0.76109 0
M  V30 7066 N 669.579 0.400081 -1.52437 0
M  V30 7067 C 670.526 1.48803 -1.76426 0
M  V30 7068 C 671.496 1.5461 -0.607032 0
M  V30 7069 O 672.681 1.71041 -0.845563 0
M  V30 7070 C 669.821 2.86156 -1.92896 0
M  V30 7071 C 668.934 2.89587 -3.20567 0
M  V30 7072 C 668.069 4.18296 -3.27417 0
M  V30 7073 C 667.108 4.15736 -4.49255 0
M  V30 7074 N 666.245 5.36032 -4.53447 0
M  V30 7075 H 671.085 1.27649 -2.69276 0
M  V30 7076 H 668.622 0.619451 -1.33421 0
M  V30 7077 H 670.58 3.65901 -2.00429 0
M  V30 7078 H 669.21 3.05785 -1.03418 0
M  V30 7079 H 668.262 2.02278 -3.22161 0
M  V30 7080 H 669.574 2.83562 -4.10358 0
M  V30 7081 H 668.728 5.06439 -3.34072 0
M  V30 7082 H 667.467 4.27028 -2.35581 0
M  V30 7083 H 666.472 3.25982 -4.42737 0
M  V30 7084 H 667.697 4.08636 -5.42396 0
M  V30 7085 H 665.643 5.45415 -3.64498 0
M  V30 7086 H 665.56 5.32038 -5.37096 0
M  V30 7087 H 666.828 6.26104 -4.64343 0
M  V30 7088 N 671.057 1.43213 0.657864 0
M  V30 7089 C 672.304 1.44584 1.41781 0
M  V30 7090 C 672.632 0.0684208 1.9438 0
M  V30 7091 O 671.887 -0.925872 1.72413 0
M  V30 7092 C 672.186 2.43143 2.61947 0
M  V30 7093 C 671.852 3.89128 2.27794 0
M  V30 7094 C 670.514 4.28889 2.18191 0
M  V30 7095 C 672.866 4.81144 2.00375 0
M  V30 7096 C 670.194 5.58625 1.79319 0
M  V30 7097 C 672.546 6.11239 1.63003 0
M  V30 7098 C 671.21 6.49981 1.51922 0
M  V30 7099 H 670.48 0.529069 0.518813 0
M  V30 7100 H 673.127 1.76263 0.748577 0
M  V30 7101 H 671.432 2.04851 3.33981 0
M  V30 7102 H 673.129 2.4146 3.20153 0
M  V30 7103 H 669.719 3.57657 2.36176 0
M  V30 7104 H 673.903 4.512 2.06718 0
M  V30 7105 H 669.159 5.87486 1.69323 0
M  V30 7106 H 673.333 6.82014 1.40817 0
M  V30 7107 H 670.96 7.50416 1.21572 0
M  V30 7108 N 672.536 -0.895792 1.29666 0
M  V30 7109 C 673.486 -1.98736 1.1175 0
M  V30 7110 C 674.47 -1.6086 0.0357834 0
M  V30 7111 O 675.662 -1.75111 0.257926 0
M  V30 7112 C 672.791 -3.33845 0.800156 0
M  V30 7113 C 671.877 -3.78068 1.9216 0
M  V30 7114 N 672.268 -3.94489 3.16563 0
M  V30 7115 C 670.566 -4.07376 1.81552 0
M  V30 7116 C 671.267 -4.31819 3.89753 0
M  V30 7117 N 670.243 -4.41081 3.17724 0
M  V30 7118 H 674.045 -2.09507 2.06117 0
M  V30 7119 H 671.559 -1.08488 1.20848 0
M  V30 7120 H 673.556 -4.11757 0.652841 0
M  V30 7121 H 672.216 -3.24417 -0.135551 0
M  V30 7122 H 673.227 -3.79914 3.51974 0
M  V30 7123 H 669.904 -4.06483 0.952787 0
M  V30 7124 H 671.294 -4.52337 4.96831 0
M  V30 7125 N 674.014 -1.12206 -1.10668 0
M  V30 7126 C 675.244 -0.897332 -1.86095 0
M  V30 7127 C 675.652 0.556778 -1.80822 0
M  V30 7128 O 674.995 1.39658 -1.19337 0
M  V30 7129 C 675.057 -1.29095 -3.35522 0
M  V30 7130 C 674.721 -2.75586 -3.64556 0
M  V30 7131 C 675.718 -3.73785 -3.6136 0
M  V30 7132 C 673.403 -3.12432 -3.93309 0
M  V30 7133 C 675.397 -5.06845 -3.86506 0
M  V30 7134 C 673.084 -4.45675 -4.18111 0
M  V30 7135 C 674.082 -5.42691 -4.147 0
M  V30 7136 O 673.77 -6.73532 -4.38873 0
M  V30 7137 H 673.502 -0.320704 -0.595084 0
M  V30 7138 H 676.056 -1.49517 -1.40833 0
M  V30 7139 H 674.286 -0.636299 -3.81429 0
M  V30 7140 H 675.975 -1.04073 -3.92331 0
M  V30 7141 H 676.741 -3.46664 -3.39189 0
M  V30 7142 H 672.62 -2.3753 -3.95096 0
M  V30 7143 H 676.164 -5.82559 -3.83758 0
M  V30 7144 H 672.061 -4.72526 -4.39761 0
M  V30 7145 H 672.829 -6.79442 -4.564 0
M  V30 7146 N 675.492 1.28418 -0.913599 0
M  V30 7147 C 676.422 2.29713 -0.418847 0
M  V30 7148 C 677.403 1.62165 0.513469 0
M  V30 7149 O 678.588 1.89576 0.421235 0
M  V30 7150 C 675.718 3.45612 0.342042 0
M  V30 7151 C 674.672 4.25056 -0.501123 0
M  V30 7152 C 673.998 5.3329 0.388097 0
M  V30 7153 C 675.298 4.91814 -1.75831 0
M  V30 7154 H 676.992 2.71346 -1.26538 0
M  V30 7155 H 674.538 1.30446 -0.609903 0
M  V30 7156 H 676.491 4.15562 0.699 0
M  V30 7157 H 675.215 3.02858 1.22248 0
M  V30 7158 H 673.874 3.56833 -0.840598 0
M  V30 7159 H 673.522 4.8678 1.26707 0
M  V30 7160 H 673.222 5.87347 -0.172459 0
M  V30 7161 H 674.746 6.06088 0.74094 0
M  V30 7162 H 676.16 5.54126 -1.47026 0
M  V30 7163 H 674.557 5.55866 -2.26126 0
M  V30 7164 H 675.627 4.16313 -2.4862 0
M  V30 7165 N 676.97 0.677563 1.42291 0
M  V30 7166 C 677.9 0.014968 2.33495 0
M  V30 7167 C 678.881 -0.786376 1.50831 0
M  V30 7168 O 680.066 -0.742975 1.79426 0
M  V30 7169 C 677.196 -0.935023 3.34477 0
M  V30 7170 C 676.15 -0.242074 4.27315 0
M  V30 7171 C 675.476 -1.30519 5.18526 0
M  V30 7172 C 676.776 0.880604 5.14823 0
M  V30 7173 H 678.47 0.776671 2.89151 0
M  V30 7174 H 676.016 0.37494 1.39033 0
M  V30 7175 H 677.969 -1.40766 3.97194 0
M  V30 7176 H 676.693 -1.72818 2.77131 0
M  V30 7177 H 675.352 0.210351 3.65996 0
M  V30 7178 H 675 -2.09041 4.57505 0
M  V30 7179 H 674.7 -0.846652 5.81468 0
M  V30 7180 H 676.224 -1.7787 5.84119 0
M  V30 7181 H 677.638 0.489062 5.7121 0
M  V30 7182 H 676.035 1.26511 5.86613 0
M  V30 7183 H 677.105 1.72818 4.53059 0
M  V30 7184 N 678.448 -1.51871 0.421078 0
M  V30 7185 C 679.396 -2.28903 -0.413066 0
M  V30 7186 C 680.39 -1.3408 -1.03532 0
M  V30 7187 O 681.596 -1.5149 -0.972146 0
M  V30 7188 H 677.971 -0.736478 -0.152003 0
M  V30 7189 H 679.942 -2.97285 0.257695 0
M  V30 7190 C 678.691 -3.13156 -1.51091 0
M  V30 7191 H 678.014 -3.85997 -1.04145 0
M  V30 7192 H 679.454 -3.7014 -2.06814 0
M  V30 7193 C 677.913 -2.27482 -2.48503 0
M  V30 7194 O 678.443 -1.92325 -3.52667 0
M  V30 7195 N 676.649 -1.91019 -2.18998 0
M  V30 7196 H 676.196 -2.19808 -1.34322 0
M  V30 7197 H 676.154 -1.3399 -2.84419 0
M  V30 7198 N 679.926 -0.151884 -1.56866 0
M  V30 7199 C 681.337 0.368128 -1.83035 0
M  V30 7200 C 681.688 1.64402 -1.07082 0
M  V30 7201 O 680.813 2.14056 -0.317647 0
M  V30 7202 C 681.408 0.674676 -3.32014 0
M  V30 7203 C 679.967 1.13919 -3.58747 0
M  V30 7204 C 679.114 0.164833 -2.7681 0
M  V30 7205 H 682.065 -0.376499 -1.54169 0
M  V30 7206 H 682.086 1.52883 -3.48435 0
M  V30 7207 H 681.598 -0.254113 -3.87267 0
M  V30 7208 H 679.699 2.08375 -3.08886 0
M  V30 7209 H 679.812 1.06179 -4.67186 0
M  V30 7210 H 678.176 0.658419 -2.46043 0
M  V30 7211 H 678.959 -0.757633 -3.34836 0
M  V30 7212 N 681.404 1.57128 0.121893 0
M  V30 7213 C 682.351 2.0013 1.14964 0
M  V30 7214 C 683.321 0.872959 1.4131 0
M  V30 7215 O 684.506 1.13696 1.53225 0
M  V30 7216 C 681.646 2.40824 2.4718 0
M  V30 7217 C 680.759 3.67061 2.27794 0
M  V30 7218 C 679.894 3.96749 3.53219 0
M  V30 7219 C 678.933 5.16178 3.28978 0
M  V30 7220 N 678.07 5.41751 4.46599 0
M  V30 7221 H 682.91 2.8772 0.775947 0
M  V30 7222 H 680.447 1.42328 0.371652 0
M  V30 7223 H 682.405 2.62454 3.24305 0
M  V30 7224 H 681.035 1.56279 2.82448 0
M  V30 7225 H 680.087 3.53063 1.416 0
M  V30 7226 H 681.399 4.5434 2.05857 0
M  V30 7227 H 680.553 4.19012 4.38764 0
M  V30 7228 H 679.292 3.07941 3.78185 0
M  V30 7229 H 678.297 4.93762 2.41824 0
M  V30 7230 H 679.522 6.06561 3.05386 0
M  V30 7231 H 677.468 4.55899 4.71691 0
M  V30 7232 H 677.385 6.23347 4.27756 0
M  V30 7233 H 678.653 5.68531 5.33285 0
M  V30 7234 N 682.882 -0.391992 1.52647 0
M  V30 7235 C 683.814 -1.49811 1.73463 0
M  V30 7236 C 684.827 -1.50734 0.615078 0
M  V30 7237 O 686.016 -1.5469 0.890696 0
M  V30 7238 C 683.116 -2.88667 1.77552 0
M  V30 7239 C 682.289 -3.11743 3.06815 0
M  V30 7240 C 681.348 -4.30564 3.02491 0
M  V30 7241 O 680.374 -4.27014 3.76361 0
M  V30 7242 N 681.576 -5.36593 2.21468 0
M  V30 7243 H 684.341 -1.32343 2.68897 0
M  V30 7244 H 681.902 -0.581475 1.51098 0
M  V30 7245 H 683.894 -3.66251 1.7217 0
M  V30 7246 H 682.464 -2.99508 0.895181 0
M  V30 7247 H 681.684 -2.2205 3.25711 0
M  V30 7248 H 682.972 -3.24013 3.92292 0
M  V30 7249 H 682.37 -5.42332 1.60913 0
M  V30 7250 H 680.927 -6.12855 2.21928 0
M  V30 7251 N 684.36 -1.4356 -0.65026 0
M  V30 7252 C 685.606 -1.45549 -1.41221 0
M  V30 7253 C 685.939 -0.0805472 -1.94033 0
M  V30 7254 O 685.214 0.899043 -1.72475 0
M  V30 7255 C 685.497 -2.50028 -2.59148 0
M  V30 7256 C 685.35 -3.96808 -2.1181 0
M  V30 7257 C 686.669 -2.51212 -3.61359 0
M  V30 7258 H 683.788 -0.529967 -0.512156 0
M  V30 7259 H 686.43 -1.75127 -0.736933 0
M  V30 7260 H 684.58 -2.24937 -3.16758 0
M  V30 7261 H 686.252 -4.32966 -1.59178 0
M  V30 7262 H 684.495 -4.09498 -1.43156 0
M  V30 7263 H 685.166 -4.6553 -2.96625 0
M  V30 7264 H 687.642 -2.73583 -3.13515 0
M  V30 7265 H 686.518 -3.26252 -4.41419 0
M  V30 7266 H 686.779 -1.54701 -4.1415 0
M  V30 7267 N 685.838 0.888903 -1.30139 0
M  V30 7268 C 687.085 1.64037 -1.18736 0
M  V30 7269 C 687.413 1.92771 0.258801 0
M  V30 7270 O 686.668 1.54427 1.20212 0
M  V30 7271 C 686.967 2.99041 -1.95728 0
M  V30 7272 C 686.633 2.89874 -3.45375 0
M  V30 7273 C 685.295 2.87082 -3.86183 0
M  V30 7274 C 687.647 2.78289 -4.40687 0
M  V30 7275 C 684.975 2.70536 -5.20603 0
M  V30 7276 C 687.327 2.63282 -5.75209 0
M  V30 7277 C 685.991 2.58861 -6.15262 0
M  V30 7278 H 685.261 0.600253 -0.434485 0
M  V30 7279 H 687.908 1.0338 -1.61198 0
M  V30 7280 H 686.213 3.63626 -1.45888 0
M  V30 7281 H 687.91 3.56139 -1.843 0
M  V30 7282 H 684.5 2.92856 -3.12943 0
M  V30 7283 H 688.684 2.79516 -4.10103 0
M  V30 7284 H 683.94 2.65526 -5.50732 0
M  V30 7285 H 688.114 2.5329 -6.48704 0
M  V30 7286 H 685.741 2.45799 -7.19366 0
M  V30 7287 N 687.317 1.12792 1.10072 0
M  V30 7288 C 688.265 0.794523 2.18609 0
M  V30 7289 C 689.259 -0.220271 1.67962 0
M  V30 7290 O 690.465 -0.0780938 1.79831 0
M  V30 7291 H 686.84 0.239123 0.712969 0
M  V30 7292 H 688.811 1.71823 2.43966 0
M  V30 7293 C 687.56 0.269548 3.46654 0
M  V30 7294 H 686.883 1.04171 3.8599 0
M  V30 7295 H 688.323 0.0746242 4.23934 0
M  V30 7296 C 686.782 -1.00333 3.21613 0
M  V30 7297 O 687.312 -2.08042 3.4363 0
M  V30 7298 N 685.518 -0.931763 2.75257 0
M  V30 7299 H 685.065 -0.0551197 2.57541 0
M  V30 7300 H 685.023 -1.78405 2.58881 0
M  V30 7301 N 688.795 -1.27931 0.920396 0
M  V30 7302 C 689.725 -2.29487 0.431024 0
M  V30 7303 C 690.706 -1.62435 -0.504861 0
M  V30 7304 O 691.891 -1.89797 -0.411176 0
M  V30 7305 C 689.021 -3.45788 -0.323709 0
M  V30 7306 C 687.975 -4.24784 0.523658 0
M  V30 7307 C 687.301 -5.33488 -0.359809 0
M  V30 7308 C 688.601 -4.90874 1.78437 0
M  V30 7309 H 690.295 -2.70671 1.27975 0
M  V30 7310 H 687.841 -1.30121 0.616813 0
M  V30 7311 H 689.794 -4.15927 -0.676952 0
M  V30 7312 H 688.518 -3.03502 -1.2064 0
M  V30 7313 H 687.177 -3.56382 0.85951 0
M  V30 7314 H 686.825 -4.87445 -1.24124 0
M  V30 7315 H 686.525 -5.87247 0.203605 0
M  V30 7316 H 688.049 -6.06472 -0.708787 0
M  V30 7317 H 689.463 -5.53339 1.49963 0
M  V30 7318 H 687.86 -5.54659 2.29071 0
M  V30 7319 H 688.93 -4.14988 2.50824 0
M  V30 7320 N 690.273 -0.685099 -1.4193 0
M  V30 7321 C 691.55 -0.140152 -1.95097 0
M  V30 7322 C 691.93 1.34745 -1.62502 0
M  V30 7323 O 691.278 2.08872 -0.926534 0
M  V30 7324 C 691.488 -0.420268 -3.4646 0
M  V30 7325 C 692.836 -0.342338 -4.23218 0
M  V30 7326 O 693.86 -0.354592 -3.54431 0
M  V30 7327 O 692.719 -0.293404 -5.45712 0
M  V30 7328 H 689.813 -0.00885998 -0.826953 0
M  V30 7329 H 692.359 -0.760539 -1.51703 0
M  V30 7330 H 691.131 -1.45037 -3.63428 0
M  V30 7331 H 690.754 0.231616 -3.96925 0
M  V30 7332 N 691.751 1.51645 -0.429126 0
M  V30 7333 C 692.699 2.29119 0.400921 0
M  V30 7334 C 693.693 1.34628 1.02819 0
M  V30 7335 O 694.899 1.52004 0.964098 0
M  V30 7336 H 691.274 0.737273 0.148095 0
M  V30 7337 H 693.245 2.97144 -0.273457 0
M  V30 7338 C 691.994 3.13953 1.49429 0
M  V30 7339 H 691.317 3.86544 1.02097 0
M  V30 7340 H 692.757 3.71232 2.04849 0
M  V30 7341 C 691.216 2.28796 2.47293 0
M  V30 7342 O 691.746 1.94193 3.51642 0
M  V30 7343 N 689.952 1.92177 2.17982 0
M  V30 7344 H 689.499 2.20517 1.33154 0
M  V30 7345 H 689.457 1.35497 2.83704 0
M  V30 7346 N 693.229 0.160201 1.56784 0
M  V30 7347 C 694.477 -0.486625 1.96154 0
M  V30 7348 C 694.798 -1.64525 1.04673 0
M  V30 7349 O 694.068 -1.95586 0.110864 0
M  V30 7350 H 692.648 -0.182764 0.724297 0
M  V30 7351 H 695.31 0.238787 1.93432 0
M  V30 7352 H 694.406 -0.854025 3.00188 0
M  V30 7353 N 694.707 -1.5719 -0.113559 0
M  V30 7354 C 695.955 -1.84772 -0.818761 0
M  V30 7355 C 696.276 -0.746196 -1.80158 0
M  V30 7356 O 695.546 0.229305 -1.94553 0
M  V30 7357 H 694.126 -0.681737 -0.305359 0
M  V30 7358 H 696.788 -1.94645 -0.0995845 0
M  V30 7359 H 695.884 -2.80878 -1.36067 0
M  V30 7360 N 696.185 0.383891 -1.52853 0
M  V30 7361 C 697.596 0.961591 -1.60032 0
M  V30 7362 C 697.947 1.90819 -0.456333 0
M  V30 7363 O 697.072 2.12288 0.419873 0
M  V30 7364 C 697.667 1.75078 -2.90057 0
M  V30 7365 C 696.226 2.2781 -2.99632 0
M  V30 7366 C 695.373 1.08512 -2.55187 0
M  V30 7367 H 698.324 0.163269 -1.57858 0
M  V30 7368 H 698.345 2.61046 -2.7683 0
M  V30 7369 H 697.857 1.06157 -3.73299 0
M  V30 7370 H 695.958 3.00028 -2.20939 0
M  V30 7371 H 696.071 2.56947 -4.0437 0
M  V30 7372 H 694.435 1.44667 -2.09627 0
M  V30 7373 H 695.218 0.41118 -3.40829 0
M  V30 7374 N 697.663 1.43903 0.642637 0
M  V30 7375 C 698.891 1.4954 1.42988 0
M  V30 7376 C 699.306 0.116588 1.8844 0
M  V30 7377 O 698.663 -0.875285 1.60141 0
M  V30 7378 C 698.714 2.45031 2.65785 0
M  V30 7379 O 698.435 3.77551 2.22232 0
M  V30 7380 C 699.936 2.60017 3.59035 0
M  V30 7381 H 697.156 0.507544 0.438907 0
M  V30 7382 H 699.7 1.88752 0.786942 0
M  V30 7383 H 697.855 2.08985 3.26196 0
M  V30 7384 H 698.269 4.29001 3.01759 0
M  V30 7385 H 699.743 3.30887 4.41835 0
M  V30 7386 H 700.22 1.64861 4.07084 0
M  V30 7387 H 700.826 2.96918 3.045 0
M  V30 7388 N 699.141 -0.881989 1.30609 0
M  V30 7389 C 700.552 -1.44956 1.17664 0
M  V30 7390 C 700.903 -1.94945 -0.221531 0
M  V30 7391 O 700.028 -1.85257 -1.11844 0
M  V30 7392 C 700.623 -2.63474 2.12995 0
M  V30 7393 C 699.182 -3.16312 2.04019 0
M  V30 7394 C 698.329 -1.89008 2.02907 0
M  V30 7395 H 701.28 -0.691645 1.42835 0
M  V30 7396 H 701.301 -3.39783 1.71253 0
M  V30 7397 H 700.813 -2.2706 3.14746 0
M  V30 7398 H 698.914 -3.57376 1.0542 0
M  V30 7399 H 699.027 -3.79409 2.9255 0
M  V30 7400 H 697.391 -2.07465 1.47751 0
M  V30 7401 H 698.174 -1.54848 3.06394 0
M  V30 7402 N 700.619 -1.13374 -1.09472 0
M  V30 7403 C 701.867 -0.893422 -1.8128 0
M  V30 7404 C 702.188 0.582029 -1.86111 0
M  V30 7405 O 701.458 1.42305 -1.34633 0
M  V30 7406 H 700.038 -0.327543 -0.67136 0
M  V30 7407 H 702.7 -1.43018 -1.32408 0
M  V30 7408 H 701.796 -1.28374 -2.84476 0
M  V30 7409 N 702.098 1.27442 -0.927168 0
M  V30 7410 C 703.028 2.29256 -0.443188 0
M  V30 7411 C 704.009 1.62701 0.49624 0
M  V30 7412 O 705.194 1.90013 0.401105 0
M  V30 7413 C 702.324 3.45955 0.305366 0
M  V30 7414 C 701.278 4.24501 -0.546178 0
M  V30 7415 C 700.604 5.33671 0.331512 0
M  V30 7416 C 701.904 4.89921 -1.81037 0
M  V30 7417 H 703.598 2.69988 -1.29409 0
M  V30 7418 H 701.144 1.29792 -0.623705 0
M  V30 7419 H 703.097 4.1628 0.654885 0
M  V30 7420 H 701.821 3.04138 1.19029 0
M  V30 7421 H 700.48 3.55921 -0.878398 0
M  V30 7422 H 700.128 4.88096 1.21537 0
M  V30 7423 H 699.828 5.87131 -0.234746 0
M  V30 7424 H 701.352 6.0684 0.676614 0
M  V30 7425 H 702.766 5.52536 -1.52895 0
M  V30 7426 H 701.163 5.53436 -2.32009 0
M  V30 7427 H 702.233 4.13652 -2.53021 0
M  V30 7428 N 703.576 0.692616 1.41565 0
M  V30 7429 C 704.524 0.0139952 2.32596 0
M  V30 7430 C 705.518 -0.771691 1.50802 0
M  V30 7431 O 706.724 -0.677646 1.66757 0
M  V30 7432 H 703.099 -0.0142745 0.751865 0
M  V30 7433 H 705.07 0.798851 2.87508 0
M  V30 7434 C 703.819 -0.910602 3.35564 0
M  V30 7435 H 703.142 -0.315446 3.98554 0
M  V30 7436 H 704.582 -1.3538 4.01806 0
M  V30 7437 C 703.041 -2.02539 2.6922 0
M  V30 7438 O 703.571 -3.11386 2.53775 0
M  V30 7439 N 701.777 -1.80227 2.27962 0
M  V30 7440 H 701.324 -0.917054 2.40724 0
M  V30 7441 H 701.282 -2.55001 1.83907 0
M  V30 7442 N 705.054 -1.51416 0.437162 0
M  V30 7443 C 706.301 -2.02086 -0.129364 0
M  V30 7444 C 706.629 -1.32133 -1.42728 0
M  V30 7445 O 705.884 -0.424916 -1.91031 0
M  V30 7446 C 706.183 -3.55203 -0.39564 0
M  V30 7447 C 705.849 -4.43447 0.81644 0
M  V30 7448 C 704.511 -4.67285 1.14884 0
M  V30 7449 C 706.863 -4.95219 1.62503 0
M  V30 7450 C 704.191 -5.40141 2.29052 0
M  V30 7451 C 706.543 -5.69327 2.7577 0
M  V30 7452 C 705.207 -5.91429 3.09464 0
M  V30 7453 H 704.477 -0.739486 -0.0473375 0
M  V30 7454 H 707.124 -1.82368 0.584321 0
M  V30 7455 H 705.429 -3.73252 -1.19121 0
M  V30 7456 H 707.126 -3.91944 -0.847399 0
M  V30 7457 H 703.716 -4.2509 0.547422 0
M  V30 7458 H 707.9 -4.76686 1.38144 0
M  V30 7459 H 703.156 -5.55468 2.55471 0
M  V30 7460 H 707.33 -6.08433 3.38795 0
M  V30 7461 H 704.957 -6.47662 3.98042 0
M  V30 7462 N 706.532 -0.168513 -1.56696 0
M  V30 7463 C 707.779 0.477158 -1.96798 0
M  V30 7464 C 708.107 1.63442 -1.05437 0
M  V30 7465 O 707.362 1.95503 -0.0878903 0
M  V30 7466 C 707.661 1.00441 -3.42996 0
M  V30 7467 C 707.327 -0.0366556 -4.50885 0
M  V30 7468 C 705.989 -0.322785 -4.80116 0
M  V30 7469 C 708.341 -0.743447 -5.1587 0
M  V30 7470 C 705.669 -1.32114 -5.71632 0
M  V30 7471 C 708.021 -1.73077 -6.08463 0
M  V30 7472 C 706.685 -2.02437 -6.36062 0
M  V30 7473 H 705.955 0.174604 -0.720135 0
M  V30 7474 H 708.602 -0.259884 -1.89728 0
M  V30 7475 H 706.907 1.81922 -3.47004 0
M  V30 7476 H 708.604 1.51294 -3.71364 0
M  V30 7477 H 705.194 0.196532 -4.28149 0
M  V30 7478 H 709.378 -0.535602 -4.93401 0
M  V30 7479 H 704.634 -1.55482 -5.913 0
M  V30 7480 H 708.808 -2.28382 -6.57886 0
M  V30 7481 H 706.435 -2.79946 -7.06777 0
M  V30 7482 N 708.01 1.57248 0.105221 0
M  V30 7483 C 709.426 1.52853 0.459153 0
M  V30 7484 C 709.626 0.883674 1.8109 0
M  V30 7485 O 708.682 0.471864 2.48052 0
M  V30 7486 C 709.995 2.97596 0.43096 0
M  V30 7487 C 711.543 3.08758 0.513536 0
M  V30 7488 C 712.018 4.55089 0.515593 0
M  V30 7489 N 713.509 4.59597 0.576639 0
M  V30 7490 C 714.244 5.70253 0.599904 0
M  V30 7491 N 713.74 6.90368 0.579985 0
M  V30 7492 N 715.533 5.58399 0.643953 0
M  V30 7493 H 707.684 1.97547 -0.780306 0
M  V30 7494 H 709.947 0.902758 -0.289363 0
M  V30 7495 H 709.653 3.48201 -0.494903 0
M  V30 7496 H 709.527 3.55756 1.2537 0
M  V30 7497 H 711.914 2.58148 1.42982 0
M  V30 7498 H 711.995 2.53568 -0.337148 0
M  V30 7499 H 711.639 5.06348 -0.396701 0
M  V30 7500 H 711.569 5.08105 1.38335 0
M  V30 7501 H 714.06 3.73144 0.597639 0
M  V30 7502 H 714.373 7.70462 0.600741 0
M  V30 7503 H 712.718 6.92843 0.547191 0
M  V30 7504 H 715.909 4.63467 0.656975 0
M  V30 7505 H 716.082 6.44644 0.658616 0
M  V30 7506 N 709.488 -0.375779 1.53054 0
M  V30 7507 C 710.765 -1.13453 1.59336 0
M  V30 7508 C 711.145 -2.07379 0.394614 0
M  V30 7509 O 710.493 -2.2004 -0.616 0
M  V30 7510 C 710.703 -1.8826 2.93869 0
M  V30 7511 C 712.051 -2.43155 3.48081 0
M  V30 7512 O 713.075 -1.984 2.95831 0
M  V30 7513 O 711.934 -3.24944 4.39401 0
M  V30 7514 H 709.028 -0.519856 0.643179 0
M  V30 7515 H 711.574 -0.379865 1.65394 0
M  V30 7516 H 710.346 -1.19652 3.72558 0
M  V30 7517 H 709.969 -2.70658 2.91256 0
M  V30 7518 N 710.966 -1.44241 -0.634997 0
M  V30 7519 C 712.194 -1.50296 -1.42193 0
M  V30 7520 C 712.609 -0.12658 -1.88375 0
M  V30 7521 O 711.966 0.86678 -1.60603 0
M  V30 7522 C 712.017 -2.46437 -2.64482 0
M  V30 7523 O 711.738 -3.78724 -2.20226 0
M  V30 7524 C 713.239 -2.61918 -3.57651 0
M  V30 7525 H 710.459 -0.509865 -0.43621 0
M  V30 7526 H 713.003 -1.89167 -0.776921 0
M  V30 7527 H 711.158 -2.10712 -3.25083 0
M  V30 7528 H 711.572 -4.30595 -2.9948 0
M  V30 7529 H 713.046 -3.33225 -4.40074 0
M  V30 7530 H 713.523 -1.67017 -4.06204 0
M  V30 7531 H 714.129 -2.98528 -3.02921 0
M  V30 7532 N 712.444 0.87505 -1.31075 0
M  V30 7533 C 713.855 1.4433 -1.18431 0
M  V30 7534 C 714.206 1.9506 0.211189 0
M  V30 7535 O 713.331 1.85847 1.10859 0
M  V30 7536 C 713.926 2.62341 -2.14389 0
M  V30 7537 C 712.485 3.15225 -2.05694 0
M  V30 7538 C 711.632 1.87929 -2.03907 0
M  V30 7539 H 714.583 0.684061 -1.432 0
M  V30 7540 H 714.604 3.3887 -1.73053 0
M  V30 7541 H 714.116 2.25388 -3.15946 0
M  V30 7542 H 712.217 3.56812 -1.07314 0
M  V30 7543 H 712.33 3.77853 -2.94558 0
M  V30 7544 H 710.694 2.06679 -1.48849 0
M  V30 7545 H 711.477 1.53221 -3.07211 0
M  V30 7546 N 713.922 1.13953 1.08869 0
M  V30 7547 C 715.199 0.815768 1.77777 0
M  V30 7548 C 715.579 -0.691624 1.99449 0
M  V30 7549 O 714.927 -1.63085 1.60049 0
M  V30 7550 C 715.137 1.60916 3.09689 0
M  V30 7551 C 716.485 1.80549 3.84301 0
M  V30 7552 O 717.509 1.57562 3.19457 0
M  V30 7553 O 716.368 2.18946 5.00724 0
M  V30 7554 H 713.462 0.298445 0.771271 0
M  V30 7555 H 716.008 1.24446 1.15374 0
M  V30 7556 H 714.78 2.6333 2.89435 0
M  V30 7557 H 714.403 1.17578 3.79817 0
M  V30 7558 N 715.4 -1.26948 0.933913 0
M  V30 7559 C 716.647 -1.94087 0.577625 0
M  V30 7560 C 716.975 -1.73345 -0.88214 0
M  V30 7561 O 716.23 -1.05945 -1.64542 0
M  V30 7562 C 716.529 -3.46963 0.857406 0
M  V30 7563 C 716.195 -3.87834 2.2999 0
M  V30 7564 C 714.857 -3.98704 2.69423 0
M  V30 7565 C 717.209 -4.08442 3.23766 0
M  V30 7566 C 714.537 -4.27573 4.01744 0
M  V30 7567 C 716.889 -4.38798 4.55675 0
M  V30 7568 C 715.553 -4.47881 4.94934 0
M  V30 7569 H 714.823 -0.710215 0.211368 0
M  V30 7570 H 717.47 -1.50899 1.17905 0
M  V30 7571 H 715.775 -3.91416 0.173369 0
M  V30 7572 H 717.472 -3.97062 0.560615 0
M  V30 7573 H 714.062 -3.79916 1.98399 0
M  V30 7574 H 718.246 -3.99479 2.94499 0
M  V30 7575 H 713.502 -4.32815 4.31834 0
M  V30 7576 H 717.676 -4.5369 5.28335 0
M  V30 7577 H 715.303 -4.70005 5.97495 0
M  V30 7578 N 716.879 -0.700114 -1.41195 0
M  V30 7579 C 718.295 -0.372114 -1.55201 0
M  V30 7580 C 718.495 1.12053 -1.6747 0
M  V30 7581 O 717.551 1.90642 -1.65566 0
M  V30 7582 C 718.864 -1.12462 -2.78878 0
M  V30 7583 C 720.412 -1.10941 -2.92679 0
M  V30 7584 C 720.887 -1.84376 -4.19249 0
M  V30 7585 N 722.378 -1.81368 -4.26216 0
M  V30 7586 C 723.113 -2.35024 -5.23021 0
M  V30 7587 N 722.609 -2.9717 -6.25829 0
M  V30 7588 N 724.402 -2.25254 -5.14992 0
M  V30 7589 H 716.553 -1.66816 -1.31477 0
M  V30 7590 H 718.816 -0.704223 -0.634644 0
M  V30 7591 H 718.522 -2.17937 -2.76037 0
M  V30 7592 H 718.396 -0.706152 -3.70531 0
M  V30 7593 H 720.783 -0.062911 -2.95033 0
M  V30 7594 H 720.864 -1.56698 -2.02187 0
M  V30 7595 H 720.508 -2.89008 -4.17656 0
M  V30 7596 H 720.438 -1.3605 -5.08722 0
M  V30 7597 H 722.929 -1.36062 -3.52556 0
M  V30 7598 H 723.242 -3.35668 -6.96094 0
M  V30 7599 H 721.587 -3.01249 -6.26318 0
M  V30 7600 H 724.778 -1.76372 -4.33602 0
M  V30 7601 H 724.951 -2.67373 -5.90268 0
M  V30 7602 N 718.357 1.51182 -0.445186 0
M  V30 7603 C 719.603 2.02452 0.11882 0
M  V30 7604 C 719.936 1.32824 1.41673 0
M  V30 7605 O 719.211 0.445637 1.89326 0
M  V30 7606 C 719.494 3.5859 0.329475 0
M  V30 7607 C 719.347 4.38823 -0.987638 0
M  V30 7608 C 720.666 4.26241 1.09575 0
M  V30 7609 H 717.785 0.735819 0.0417092 0
M  V30 7610 H 720.427 1.80747 -0.585718 0
M  V30 7611 H 718.577 3.77214 0.9296 0
M  V30 7612 H 720.249 4.3183 -1.62235 0
M  V30 7613 H 718.492 4.03594 -1.59041 0
M  V30 7614 H 719.163 5.46257 -0.794192 0
M  V30 7615 H 721.639 4.11934 0.587328 0
M  V30 7616 H 720.515 5.35354 1.21191 0
M  V30 7617 H 720.776 3.87635 2.12584 0
M  V30 7618 N 719.835 0.176821 1.56605 0
M  V30 7619 C 720.765 -0.746841 2.21234 0
M  V30 7620 C 721.746 -1.23502 1.16967 0
M  V30 7621 O 722.931 -1.28718 1.45414 0
M  V30 7622 C 720.061 -1.97407 2.8574 0
M  V30 7623 C 719.015 -1.62153 3.96094 0
M  V30 7624 C 718.341 -2.92387 4.47676 0
M  V30 7625 C 719.641 -0.845353 5.15413 0
M  V30 7626 H 721.335 -0.208116 2.98676 0
M  V30 7627 H 718.881 -0.0986594 1.43662 0
M  V30 7628 H 720.834 -2.62531 3.2963 0
M  V30 7629 H 719.558 -2.53703 2.05676 0
M  V30 7630 H 718.217 -0.993964 3.52868 0
M  V30 7631 H 717.865 -3.46734 3.64396 0
M  V30 7632 H 717.565 -2.69551 5.22127 0
M  V30 7633 H 719.089 -3.5853 4.94255 0
M  V30 7634 H 720.503 -1.39929 5.55961 0
M  V30 7635 H 718.9 -0.715814 5.95815 0
M  V30 7636 H 719.97 0.157239 4.84645 0
M  V30 7637 N 721.313 -1.57302 -0.09688 0
M  V30 7638 C 722.276 -2.00976 -1.10188 0
M  V30 7639 C 723.276 -0.903009 -1.3305 0
M  V30 7640 O 724.466 -1.16853 -1.29194 0
M  V30 7641 C 721.598 -2.36893 -2.45142 0
M  V30 7642 H 722.791 -2.9098 -0.726003 0
M  V30 7643 H 720.344 -1.52515 -0.341872 0
M  V30 7644 H 721.079 -1.49837 -2.8761 0
M  V30 7645 H 720.864 -3.17632 -2.29897 0
M  V30 7646 H 722.354 -2.71345 -3.1743 0
M  V30 7647 N 722.791 0.367657 -1.53252 0
M  V30 7648 C 724.031 1.11923 -1.71034 0
M  V30 7649 C 724.395 1.86618 -0.45143 0
M  V30 7650 O 725.596 2.63996 -0.505915 0
M  V30 7651 C 723.867 2.05461 -2.92439 0
M  V30 7652 S 725.426 2.88167 -3.30916 0
M  V30 7653 H 722.244 0.378549 -0.601848 0
M  V30 7654 H 724.846 0.400757 -1.91348 0
M  V30 7655 H 723.55 1.49346 -3.82262 0
M  V30 7656 H 723.081 2.81784 -2.7452 0
M  V30 7657 H 725.096 4.07746 -2.82767 0
M  V30 7658 N 724.269 1.44576 0.627338 0
M  V30 7659 C 725.517 1.47267 1.38408 0
M  V30 7660 C 725.838 0.107971 1.94701 0
M  V30 7661 O 725.108 -0.860206 1.76004 0
M  V30 7662 H 723.688 0.542276 0.513756 0
M  V30 7663 H 726.35 1.80383 0.738099 0
M  V30 7664 H 725.446 2.20025 2.21349 0
M  V30 7665 N 725.747 -0.868086 1.31537 0
M  V30 7666 C 726.995 -1.61807 1.21091 0
M  V30 7667 C 727.316 -1.93631 -0.230623 0
M  V30 7668 O 726.586 -1.5846 -1.15183 0
M  V30 7669 H 725.166 -0.599854 0.445178 0
M  V30 7670 H 727.828 -1.03915 1.64887 0
M  V30 7671 H 726.924 -2.56088 1.78396 0
M  V30 7672 N 727.225 -1.14528 -1.08264 0
M  V30 7673 C 728.502 -0.825185 -1.77342 0
M  V30 7674 C 728.882 0.681037 -1.99813 0
M  V30 7675 O 728.23 1.62234 -1.60912 0
M  V30 7676 C 728.44 -1.62556 -3.08831 0
M  V30 7677 C 729.788 -1.82585 -3.83338 0
M  V30 7678 O 730.812 -1.59254 -3.18617 0
M  V30 7679 O 729.671 -2.21598 -4.99556 0
M  V30 7680 H 726.765 -0.302531 -0.769678 0
M  V30 7681 H 729.311 -1.25056 -1.14713 0
M  V30 7682 H 728.083 -2.64862 -2.88035 0
M  V30 7683 H 727.706 -1.1959 -3.79189 0
M  V30 7684 N 728.703 1.26451 -0.940633 0
M  V30 7685 C 729.951 1.93395 -0.586748 0
M  V30 7686 C 730.272 1.7417 0.876921 0
M  V30 7687 O 729.542 1.097 1.62304 0
M  V30 7688 H 728.122 0.715687 -0.214012 0
M  V30 7689 H 730.784 1.53902 -1.19584 0
M  V30 7690 H 729.88 3.01565 -0.804059 0
M  V30 7691 N 730.181 0.707592 1.40822 0
M  V30 7692 C 731.409 0.253073 2.05346 0
M  V30 7693 C 731.824 -1.10218 1.53289 0
M  V30 7694 O 731.181 -1.69112 0.686105 0
M  V30 7695 C 731.232 0.215411 3.60858 0
M  V30 7696 O 730.953 1.51714 4.10992 0
M  V30 7697 C 732.454 -0.258636 4.42545 0
M  V30 7698 H 729.674 0.115256 0.661027 0
M  V30 7699 H 732.218 0.963555 1.80377 0
M  V30 7700 H 730.373 -0.445978 3.84824 0
M  V30 7701 H 730.787 1.41226 5.05129 0
M  V30 7702 H 732.261 -0.233849 5.51504 0
M  V30 7703 H 732.738 -1.2995 4.19535 0
M  V30 7704 H 733.344 0.372186 4.23668 0
M  V30 7705 N 731.66 -1.50943 0.453197 0
M  V30 7706 C 732.906 -2.02512 -0.108082 0
M  V30 7707 C 733.239 -1.33574 -1.40967 0
M  V30 7708 O 732.514 -0.455671 -1.89087 0
M  V30 7709 C 732.797 -3.58759 -0.310453 0
M  V30 7710 C 732.65 -4.38293 1.0109 0
M  V30 7711 C 733.969 -4.26816 -1.07313 0
M  V30 7712 H 731.088 -0.73603 -0.0378064 0
M  V30 7713 H 733.73 -1.80433 0.595295 0
M  V30 7714 H 731.88 -3.77702 -0.909582 0
M  V30 7715 H 733.552 -4.30964 1.64523 0
M  V30 7716 H 731.795 -4.02745 1.61179 0
M  V30 7717 H 732.466 -5.45828 0.82315 0
M  V30 7718 H 734.942 -4.1224 -0.565473 0
M  V30 7719 H 733.818 -5.35989 -1.1835 0
M  V30 7720 H 734.079 -3.88757 -2.10525 0
M  V30 7721 N 733.138 -0.185124 -1.56509 0
M  V30 7722 C 734.386 0.455357 -1.96903 0
M  V30 7723 C 734.707 1.62839 -1.07277 0
M  V30 7724 O 733.977 1.95385 -0.141966 0
M  V30 7725 H 732.557 0.171218 -0.727113 0
M  V30 7726 H 735.219 -0.26953 -1.93027 0
M  V30 7727 H 734.315 0.80616 -3.01509 0
M  V30 7728 N 734.616 1.57351 0.0885366 0
M  V30 7729 C 735.862 1.87564 0.786842 0
M  V30 7730 C 736.217 0.776774 1.76023 0
M  V30 7731 O 735.51 -0.220637 1.90325 0
M  V30 7732 C 735.704 3.22098 1.5488 0
M  V30 7733 C 735.533 4.44967 0.650706 0
M  V30 7734 C 734.303 5.04444 0.293957 0
M  V30 7735 C 736.501 5.1428 -0.0452187 0
M  V30 7736 N 734.483 6.10846 -0.611609 0
M  V30 7737 C 735.854 6.14704 -0.808603 0
M  V30 7738 C 737.909 4.97759 -0.118451 0
M  V30 7739 C 736.612 7.00392 -1.63839 0
M  V30 7740 C 738.638 5.8396 -0.935157 0
M  V30 7741 C 738 6.83909 -1.68664 0
M  V30 7742 H 734.099 0.73613 0.263887 0
M  V30 7743 H 736.683 1.94638 0.049074 0
M  V30 7744 H 734.854 3.16064 2.2574 0
M  V30 7745 H 736.586 3.40015 2.19481 0
M  V30 7746 H 733.341 4.69214 0.643086 0
M  V30 7747 H 733.765 6.68695 -1.05714 0
M  V30 7748 H 738.407 4.20418 0.448202 0
M  V30 7749 H 736.125 7.7712 -2.21608 0
M  V30 7750 H 739.711 5.73236 -0.994579 0
M  V30 7751 H 738.591 7.49454 -2.30842 0
M  V30 7752 N 736.094 -0.359525 1.53444 0
M  V30 7753 C 737.343 -1.09886 1.69139 0
M  V30 7754 C 737.656 -1.90285 0.452863 0
M  V30 7755 O 738.862 -2.67033 0.490459 0
M  V30 7756 C 737.318 -2.0028 2.99025 0
M  V30 7757 C 736.926 -1.25164 4.30161 0
M  V30 7758 C 738.67 -2.74168 3.24086 0
M  V30 7759 C 736.577 -2.14494 5.51132 0
M  V30 7760 H 735.507 -0.413936 0.630217 0
M  V30 7761 H 738.158 -0.359434 1.79945 0
M  V30 7762 H 736.54 -2.77978 2.82036 0
M  V30 7763 H 737.714 -0.524867 4.57801 0
M  V30 7764 H 736.029 -0.631116 4.11589 0
M  V30 7765 H 738.626 -3.41243 4.11652 0
M  V30 7766 H 738.969 -3.39868 2.40407 0
M  V30 7767 H 739.502 -2.0355 3.41778 0
M  V30 7768 H 736.241 -1.53362 6.37307 0
M  V30 7769 H 735.761 -2.85004 5.27762 0
M  V30 7770 H 737.44 -2.73914 5.86157 0
M  V30 7771 N 737.572 -1.44907 -0.619662 0
M  V30 7772 C 738.502 -1.55488 -1.742 0
M  V30 7773 C 739.483 -0.407143 -1.65156 0
M  V30 7774 O 740.668 -0.628743 -1.8374 0
M  V30 7775 C 737.798 -1.5097 -3.1277 0
M  V30 7776 C 736.752 -2.64337 -3.36615 0
M  V30 7777 C 736.078 -2.44872 -4.75333 0
M  V30 7778 C 737.378 -4.06423 -3.28051 0
M  V30 7779 H 739.072 -2.49432 -1.65602 0
M  V30 7780 H 736.618 -1.20047 -0.795281 0
M  V30 7781 H 738.571 -1.56971 -3.91073 0
M  V30 7782 H 737.295 -0.535486 -3.2218 0
M  V30 7783 H 735.954 -2.57744 -2.60698 0
M  V30 7784 H 735.602 -1.45617 -4.81461 0
M  V30 7785 H 735.302 -3.20888 -4.92244 0
M  V30 7786 H 736.826 -2.52709 -5.55851 0
M  V30 7787 H 738.24 -4.14324 -3.96243 0
M  V30 7788 H 736.637 -4.82733 -3.56495 0
M  V30 7789 H 737.707 -4.29183 -2.25676 0
M  V30 7790 N 739.05 0.861098 -1.31996 0
M  V30 7791 C 740.327 1.59788 -1.12814 0
M  V30 7792 C 740.707 2.08753 0.313882 0
M  V30 7793 O 740.055 1.87258 1.30946 0
M  V30 7794 C 740.265 2.74901 -2.15012 0
M  V30 7795 C 741.613 3.44643 -2.48004 0
M  V30 7796 O 742.637 2.85119 -2.13508 0
M  V30 7797 O 741.496 4.52044 -3.07113 0
M  V30 7798 H 738.59 0.703408 -0.434909 0
M  V30 7799 H 741.136 0.905788 -1.43505 0
M  V30 7800 H 739.908 2.36198 -3.11971 0
M  V30 7801 H 739.531 3.51792 -1.85279 0
M  V30 7802 N 740.528 1.15101 1.07655 0
M  V30 7803 C 741.768 0.934462 1.81789 0
M  V30 7804 C 742.132 -0.529101 1.84566 0
M  V30 7805 O 743.333 -0.863868 2.5454 0
M  V30 7806 C 741.604 1.52817 3.23082 0
M  V30 7807 S 743.163 1.45429 4.14 0
M  V30 7808 H 739.981 0.336379 0.626395 0
M  V30 7809 H 742.583 1.46593 1.29347 0
M  V30 7810 H 741.287 2.58635 3.18647 0
M  V30 7811 H 740.818 0.995432 3.80598 0
M  V30 7812 H 742.833 0.445058 4.942 0
M  V30 7813 N 742.006 -1.2595 0.947325 0
M  V30 7814 C 743.255 -1.92759 0.593887 0
M  V30 7815 C 743.568 -1.75083 -0.872093 0
M  V30 7816 O 744.774 -2.36401 -1.33518 0
M  V30 7817 C 743.23 -3.45395 1.01144 0
M  V30 7818 C 742.838 -3.71795 2.49946 0
M  V30 7819 C 744.582 -4.18173 0.730185 0
M  V30 7820 C 742.489 -5.17901 2.85539 0
M  V30 7821 H 741.419 -0.721676 0.218403 0
M  V30 7822 H 744.07 -1.4293 1.15079 0
M  V30 7823 H 742.452 -3.94143 0.383007 0
M  V30 7824 H 743.626 -3.33728 3.17746 0
M  V30 7825 H 741.941 -3.12263 2.75465 0
M  V30 7826 H 744.538 -5.25784 0.972367 0
M  V30 7827 H 744.881 -4.14964 -0.333223 0
M  V30 7828 H 745.414 -3.75309 1.31862 0
M  V30 7829 H 742.153 -5.26216 3.90867 0
M  V30 7830 H 741.673 -5.57042 2.22406 0
M  V30 7831 H 743.352 -5.8596 2.74336 0
M  V30 7832 N 743.484 -0.715051 -1.40445 0
M  V30 7833 C 744.761 -0.181503 -1.94756 0
M  V30 7834 C 745.141 1.31268 -1.65324 0
M  V30 7835 O 744.489 2.0686 -0.970631 0
M  V30 7836 C 744.699 -0.493663 -3.45491 0
M  V30 7837 C 746.047 -0.432032 -4.22396 0
M  V30 7838 O 747.071 -0.429692 -3.53599 0
M  V30 7839 O 745.93 -0.409091 -5.44967 0
M  V30 7840 H 743.024 -0.0263989 -0.826579 0
M  V30 7841 H 745.57 -0.792546 -1.50056 0
M  V30 7842 H 744.342 -1.52713 -3.6027 0
M  V30 7843 H 743.965 0.14737 -3.97327 0
M  V30 7844 N 744.962 1.50701 -0.461195 0
M  V30 7845 C 745.909 2.2831 0.338094 0
M  V30 7846 C 746.879 1.32928 0.995957 0
M  V30 7847 O 748.064 1.61857 1.0103 0
M  V30 7848 C 745.204 3.14539 1.41983 0
M  V30 7849 C 744.317 4.24942 0.77773 0
M  V30 7850 C 743.452 4.98443 1.83652 0
M  V30 7851 C 742.491 6.00733 1.17413 0
M  V30 7852 N 741.628 6.6755 2.17533 0
M  V30 7853 H 746.468 2.96167 -0.330051 0
M  V30 7854 H 744.005 1.4606 -0.174611 0
M  V30 7855 H 745.963 3.62877 2.05855 0
M  V30 7856 H 744.593 2.48749 2.05727 0
M  V30 7857 H 743.645 3.80391 0.0266924 0
M  V30 7858 H 744.957 4.98151 0.254362 0
M  V30 7859 H 744.111 5.50449 2.55129 0
M  V30 7860 H 742.85 4.24917 2.39367 0
M  V30 7861 H 741.855 5.47997 0.444944 0
M  V30 7862 H 743.08 6.76227 0.624006 0
M  V30 7863 H 741.026 5.96823 2.72284 0
M  V30 7864 H 740.943 7.36603 1.70154 0
M  V30 7865 H 742.211 7.24178 2.88421 0
M  V30 7866 N 746.441 0.193421 1.56409 0
M  V30 7867 C 747.404 -0.714371 2.17783 0
M  V30 7868 C 748.404 -1.1422 1.13183 0
M  V30 7869 O 749.594 -1.05557 1.38576 0
M  V30 7870 C 746.726 -1.97509 2.77855 0
M  V30 7871 H 747.919 -0.179714 2.99361 0
M  V30 7872 H 745.472 -0.0561944 1.56199 0
M  V30 7873 H 746.207 -2.5523 2.0007 0
M  V30 7874 H 745.992 -1.67706 3.54425 0
M  V30 7875 H 747.482 -2.62246 3.24987 0
M  V30 7876 N 747.919 -1.57396 -0.0801906 0
M  V30 7877 C 748.867 -2.04136 -1.11495 0
M  V30 7878 C 749.861 -0.945137 -1.40583 0
M  V30 7879 O 751.067 -1.13028 -1.40088 0
M  V30 7880 H 747.442 -0.65076 -0.37685 0
M  V30 7881 H 749.413 -2.90205 -0.694526 0
M  V30 7882 C 748.162 -2.49399 -2.42272 0
M  V30 7883 H 747.485 -3.33339 -2.20737 0
M  V30 7884 H 748.925 -2.85864 -3.13142 0
M  V30 7885 C 747.384 -1.37341 -3.07635 0
M  V30 7886 O 747.914 -0.710829 -3.95361 0
M  V30 7887 N 746.12 -1.12064 -2.68123 0
M  V30 7888 H 745.667 -1.66126 -1.96875 0
M  V30 7889 H 745.625 -0.372916 -3.12181 0
M  V30 7890 N 749.397 0.351382 -1.53633 0
M  V30 7891 C 750.644 1.0925 -1.70502 0
M  V30 7892 C 750.972 1.88881 -0.464123 0
M  V30 7893 O 750.227 1.87693 0.554077 0
M  V30 7894 C 750.526 2.06744 -2.91533 0
M  V30 7895 C 750.192 1.43484 -4.27461 0
M  V30 7896 C 748.854 1.2596 -4.64422 0
M  V30 7897 C 751.206 0.978436 -5.11934 0
M  V30 7898 C 748.534 0.614017 -5.83478 0
M  V30 7899 C 750.886 0.346795 -6.31649 0
M  V30 7900 C 749.55 0.15917 -6.6731 0
M  V30 7901 H 748.82 0.399773 -0.623909 0
M  V30 7902 H 751.467 0.372656 -1.87839 0
M  V30 7903 H 749.772 2.85082 -2.68767 0
M  V30 7904 H 751.469 2.64066 -3.01778 0
M  V30 7905 H 748.059 1.5812 -3.98367 0
M  V30 7906 H 752.243 1.1017 -4.83918 0
M  V30 7907 H 747.499 0.457194 -6.09688 0
M  V30 7908 H 751.673 -0.0149864 -6.96398 0
M  V30 7909 H 749.3 -0.343129 -7.59425 0
M  V30 7910 N 750.875 1.45233 0.611969 0
M  V30 7911 C 751.838 1.53189 1.70487 0
M  V30 7912 C 752.838 0.411839 1.55437 0
M  V30 7913 O 754.028 0.675164 1.60584 0
M  V30 7914 C 751.16 1.42422 3.09723 0
M  V30 7915 H 752.353 2.5056 1.64802 0
M  V30 7916 H 749.906 1.32609 0.827318 0
M  V30 7917 H 750.641 0.462185 3.2099 0
M  V30 7918 H 750.426 2.23658 3.22055 0
M  V30 7919 H 751.916 1.51012 3.89339 0
M  V30 7920 N 752.353 -0.854086 1.3245 0
M  V30 7921 C 753.3 -1.96271 1.21434 0
M  V30 7922 C 754.27 -1.6582 0.0963851 0
M  V30 7923 O 755.455 -1.88851 0.27203 0
M  V30 7924 C 752.595 -3.31939 0.943952 0
M  V30 7925 C 751.708 -3.74885 2.14675 0
M  V30 7926 C 750.843 -4.99347 1.81179 0
M  V30 7927 C 749.882 -5.34785 2.97777 0
M  V30 7928 N 749.019 -6.50425 2.6437 0
M  V30 7929 H 753.859 -2.05025 2.16261 0
M  V30 7930 H 751.396 -1.00348 1.07558 0
M  V30 7931 H 753.354 -4.10076 0.767675 0
M  V30 7932 H 751.984 -3.22784 0.0324763 0
M  V30 7933 H 751.036 -2.92396 2.43328 0
M  V30 7934 H 752.348 -3.97068 3.01891 0
M  V30 7935 H 751.502 -5.85193 1.60107 0
M  V30 7936 H 750.241 -4.79101 0.911777 0
M  V30 7937 H 749.246 -4.47451 3.1948 0
M  V30 7938 H 750.471 -5.56988 3.88511 0
M  V30 7939 H 748.417 -6.31695 1.7691 0
M  V30 7940 H 748.334 -6.7263 3.45116 0
M  V30 7941 H 749.602 -7.39422 2.46729 0
M  V30 7942 N 753.831 -1.1567 -1.07043 0
M  V30 7943 C 754.781 -0.824733 -2.12561 0
M  V30 7944 C 755.765 0.19243 -1.59745 0
M  V30 7945 O 756.957 -0.00728759 -1.76998 0
M  V30 7946 C 754.086 -0.31921 -3.41813 0
M  V30 7947 C 753.172 -1.36671 -4.01475 0
M  V30 7948 N 753.563 -2.57493 -4.35351 0
M  V30 7949 C 751.861 -1.22018 -4.28984 0
M  V30 7950 C 752.562 -3.24658 -4.82672 0
M  V30 7951 N 751.538 -2.52043 -4.81638 0
M  V30 7952 H 755.34 -1.74363 -2.3659 0
M  V30 7953 H 752.854 -1.04262 -1.24511 0
M  V30 7954 H 754.851 -0.0630216 -4.16852 0
M  V30 7955 H 753.511 0.593708 -3.19226 0
M  V30 7956 H 754.522 -2.94612 -4.25939 0
M  V30 7957 H 751.199 -0.367414 -4.1588 0
M  V30 7958 H 752.589 -4.2775 -5.1815 0
M  V30 7959 N 755.309 1.25446 -0.953992 0
M  V30 7960 C 756.72 1.75047 -0.649255 0
M  V30 7961 C 757.071 1.77527 0.835385 0
M  V30 7962 O 756.196 1.39569 1.65377 0
M  V30 7963 C 756.791 3.17889 -1.17183 0
M  V30 7964 C 755.35 3.65052 -0.917267 0
M  V30 7965 C 754.497 2.44124 -1.31525 0
M  V30 7966 H 757.448 1.11342 -1.13087 0
M  V30 7967 H 757.469 3.76768 -0.531616 0
M  V30 7968 H 756.981 3.16052 -2.25239 0
M  V30 7969 H 755.082 3.72305 0.148354 0
M  V30 7970 H 755.195 4.53222 -1.55328 0
M  V30 7971 H 753.559 2.43906 -0.733624 0
M  V30 7972 H 754.342 2.44979 -2.405 0
M  V30 7973 N 756.787 0.722489 1.40064 0
M  V30 7974 C 758.198 0.336507 1.83642 0
M  V30 7975 C 758.549 -1.13002 1.6039 0
M  V30 7976 O 757.674 -1.87036 1.08842 0
M  V30 7977 C 758.269 0.603985 3.33373 0
M  V30 7978 C 756.828 0.271637 3.75419 0
M  V30 7979 C 755.975 0.872898 2.63203 0
M  V30 7980 H 758.926 0.921108 1.29233 0
M  V30 7981 H 758.947 -0.128471 3.80283 0
M  V30 7982 H 758.459 1.67141 3.50265 0
M  V30 7983 H 756.56 -0.790455 3.64119 0
M  V30 7984 H 756.673 0.745457 4.73265 0
M  V30 7985 H 755.037 0.300431 2.52922 0
M  V30 7986 H 755.82 1.94473 2.82905 0
M  V30 7987 N 758.265 -1.50454 0.469181 0
M  V30 7988 C 759.511 -2.02615 -0.0865971 0
M  V30 7989 C 759.844 -1.35062 -1.39542 0
M  V30 7990 O 759.119 -0.475701 -1.88593 0
M  V30 7991 C 759.402 -3.59068 -0.272385 0
M  V30 7992 C 759.255 -4.37196 1.05733 0
M  V30 7993 C 760.574 -4.2793 -1.0278 0
M  V30 7994 H 757.693 -0.736389 -0.0299977 0
M  V30 7995 H 760.335 -1.79792 0.614399 0
M  V30 7996 H 758.485 -3.78646 -0.869471 0
M  V30 7997 H 760.157 -4.29195 1.69084 0
M  V30 7998 H 758.4 -4.01013 1.65442 0
M  V30 7999 H 759.071 -5.44924 0.880997 0
M  V30 8000 H 761.547 -4.12816 -0.521718 0
M  V30 8001 H 760.423 -5.37214 -1.12659 0
M  V30 8002 H 760.684 -3.90968 -2.0639 0
M  V30 8003 N 759.743 -0.201713 -1.56304 0
M  V30 8004 C 760.706 0.702811 -2.18159 0
M  V30 8005 C 761.706 1.13619 -1.13787 0
M  V30 8006 O 762.896 1.0482 -1.39134 0
M  V30 8007 C 760.028 1.96032 -2.78898 0
M  V30 8008 H 761.221 0.163836 -2.99452 0
M  V30 8009 H 758.774 0.04791 -1.56227 0
M  V30 8010 H 759.509 2.54165 -2.01421 0
M  V30 8011 H 759.294 1.65824 -3.55309 0
M  V30 8012 H 760.784 2.60519 -3.26373 0
M  V30 8013 N 761.222 1.57436 0.0718424 0
M  V30 8014 C 762.468 1.87525 0.772149 0
M  V30 8015 C 762.801 0.79399 1.77227 0
M  V30 8016 O 762.076 -0.195733 1.93513 0
M  V30 8017 C 762.359 3.28272 1.48018 0
M  V30 8018 C 762.212 4.47052 0.49647 0
M  V30 8019 C 763.531 3.67256 2.42509 0
M  V30 8020 H 760.65 0.682049 0.279245 0
M  V30 8021 H 763.292 1.89967 0.03534 0
M  V30 8022 H 761.442 3.26321 2.10824 0
M  V30 8023 H 763.114 4.61127 -0.126375 0
M  V30 8024 H 761.357 4.33392 -0.188205 0
M  V30 8025 H 762.028 5.42315 1.02949 0
M  V30 8026 H 764.504 3.70301 1.89781 0
M  V30 8027 H 763.38 4.66626 2.89053 0
M  V30 8028 H 763.641 2.97186 3.27312 0
M  V30 8029 N 762.7 -0.34323 1.53817 0
M  V30 8030 C 763.63 -1.42709 1.84814 0
M  V30 8031 C 764.611 -1.5488 0.703297 0
M  V30 8032 O 765.796 -1.69082 0.955237 0
M  V30 8033 C 762.926 -2.79756 2.05801 0
M  V30 8034 C 761.88 -2.82392 3.21619 0
M  V30 8035 C 761.206 -4.22326 3.2794 0
M  V30 8036 C 762.506 -2.479 4.59721 0
M  V30 8037 H 764.2 -1.17018 2.75585 0
M  V30 8038 H 761.746 -0.561485 1.32602 0
M  V30 8039 H 763.699 -3.55627 2.26069 0
M  V30 8040 H 762.423 -3.06883 1.11761 0
M  V30 8041 H 761.082 -2.08974 3.01207 0
M  V30 8042 H 760.73 -4.46564 2.31494 0
M  V30 8043 H 760.43 -4.25001 4.05768 0
M  V30 8044 H 761.954 -5.00039 3.50419 0
M  V30 8045 H 763.368 -3.13484 4.80001 0
M  V30 8046 H 761.765 -2.61857 5.39954 0
M  V30 8047 H 762.835 -1.43087 4.63308 0
M  V30 8048 N 764.178 -1.45556 -0.604258 0
M  V30 8049 C 765.589 -1.44171 -1.18624 0
M  V30 8050 C 765.94 -0.171081 -1.95453 0
M  V30 8051 O 765.065 0.727156 -2.03817 0
M  V30 8052 C 765.66 -2.61193 -2.15786 0
M  V30 8053 C 764.219 -2.62918 -2.69353 0
M  V30 8054 C 763.366 -2.36479 -1.4482 0
M  V30 8055 H 766.317 -1.53747 -0.393381 0
M  V30 8056 H 766.338 -2.35481 -2.98879 0
M  V30 8057 H 765.85 -3.53656 -1.59841 0
M  V30 8058 H 763.951 -1.7447 -3.29228 0
M  V30 8059 H 764.064 -3.6224 -3.13559 0
M  V30 8060 H 762.428 -1.86103 -1.73891 0
M  V30 8061 H 763.211 -3.31091 -0.907376 0
M  V30 8062 N 765.656 0.84705 -1.32902 0
M  V30 8063 C 766.586 1.97166 -1.25091 0
M  V30 8064 C 767.567 1.69578 -0.133161 0
M  V30 8065 O 768.752 1.91519 -0.321591 0
M  V30 8066 C 765.882 3.33157 -0.981006 0
M  V30 8067 C 764.836 3.75119 -2.06082 0
M  V30 8068 C 764.162 5.08826 -1.64318 0
M  V30 8069 C 765.462 3.89774 -3.47669 0
M  V30 8070 H 767.156 2.03958 -2.19184 0
M  V30 8071 H 764.702 0.979907 -1.05517 0
M  V30 8072 H 766.655 4.11393 -0.912891 0
M  V30 8073 H 765.379 3.266 -0.00445559 0
M  V30 8074 H 764.038 2.9914 -2.11921 0
M  V30 8075 H 763.686 4.98732 -0.653876 0
M  V30 8076 H 763.386 5.37873 -2.36572 0
M  V30 8077 H 764.91 5.89546 -1.58958 0
M  V30 8078 H 766.324 4.58343 -3.44376 0
M  V30 8079 H 764.721 4.30248 -4.18338 0
M  V30 8080 H 765.791 2.92463 -3.86773 0
M  V30 8081 N 767.134 1.16236 1.06428 0
M  V30 8082 C 768.382 0.941171 1.78847 0
M  V30 8083 C 768.703 -0.53248 1.87589 0
M  V30 8084 O 767.973 -1.38686 1.38358 0
M  V30 8085 H 766.553 0.345228 0.66244 0
M  V30 8086 H 769.215 1.46479 1.28569 0
M  V30 8087 H 768.311 1.35871 2.80972 0
M  V30 8088 N 768.612 -1.24939 0.960631 0
M  V30 8089 C 769.84 -1.96881 0.636045 0
M  V30 8090 C 770.255 -1.71334 -0.793093 0
M  V30 8091 O 769.612 -0.992917 -1.53125 0
M  V30 8092 C 769.663 -3.50309 0.892533 0
M  V30 8093 O 769.384 -3.74977 2.26548 0
M  V30 8094 C 770.885 -4.39474 0.581159 0
M  V30 8095 H 768.105 -0.627399 0.237931 0
M  V30 8096 H 770.649 -1.58952 1.28664 0
M  V30 8097 H 768.804 -3.86326 0.288257 0
M  V30 8098 H 769.218 -4.69401 2.34014 0
M  V30 8099 H 770.692 -5.46008 0.811125 0
M  V30 8100 H 771.169 -4.3652 -0.48443 0
M  V30 8101 H 771.775 -4.09032 1.16502 0
M  V30 8102 N 770.09 -0.729906 -1.39679 0
M  V30 8103 C 771.338 -0.275077 -2.00219 0
M  V30 8104 C 771.659 1.1401 -1.58199 0
M  V30 8105 O 770.929 1.77546 -0.827904 0
M  V30 8106 H 769.509 -0.0987127 -0.740449 0
M  V30 8107 H 772.171 -0.93873 -1.70804 0
M  V30 8108 H 771.267 -0.319446 -3.10461 0
M  V30 8109 N 771.568 1.50203 -0.477153 0
M  V30 8110 C 772.516 2.30278 0.327826 0
M  V30 8111 C 773.51 1.37831 0.984839 0
M  V30 8112 O 774.716 1.54994 0.915251 0
M  V30 8113 H 771.091 0.741612 0.124564 0
M  V30 8114 H 773.062 2.96124 -0.367853 0
M  V30 8115 C 771.811 3.18548 1.39365 0
M  V30 8116 H 771.134 3.89596 0.897475 0
M  V30 8117 H 772.574 3.77561 1.92934 0
M  V30 8118 C 771.033 2.36548 2.39889 0
M  V30 8119 O 771.563 2.05282 3.45286 0
M  V30 8120 N 769.769 1.99015 2.11758 0
M  V30 8121 H 769.316 2.24641 1.26071 0
M  V30 8122 H 769.274 1.44454 2.7925 0
M  V30 8123 N 773.046 0.209999 1.56195 0
M  V30 8124 C 774.323 -0.473214 1.89789 0
M  V30 8125 C 774.703 -1.78581 1.1257 0
M  V30 8126 O 774.051 -2.27325 0.231398 0
M  V30 8127 C 774.261 -0.677458 3.42362 0
M  V30 8128 C 775.609 -0.990114 4.12895 0
M  V30 8129 O 776.633 -0.764655 3.47896 0
M  V30 8130 O 775.492 -1.41737 5.278 0
M  V30 8131 H 772.586 -0.248622 0.788743 0
M  V30 8132 H 775.132 0.251324 1.67829 0
M  V30 8133 H 773.904 0.248878 3.90508 0
M  V30 8134 H 773.527 -1.45391 3.70064 0
M  V30 8135 N 774.524 -1.57472 -0.0634922 0
M  V30 8136 C 775.454 -2.07297 -1.07473 0
M  V30 8137 C 776.435 -0.968162 -1.39859 0
M  V30 8138 O 777.62 -1.24139 -1.49343 0
M  V30 8139 C 774.75 -2.52381 -2.38581 0
M  V30 8140 C 773.704 -3.66813 -2.20526 0
M  V30 8141 C 773.03 -3.97982 -3.57092 0
M  V30 8142 C 774.33 -4.96553 -1.61965 0
M  V30 8143 H 776.024 -2.92033 -0.660092 0
M  V30 8144 H 773.57 -1.40488 -0.316074 0
M  V30 8145 H 775.523 -2.85852 -3.09624 0
M  V30 8146 H 774.247 -1.64684 -2.8204 0
M  V30 8147 H 772.906 -3.33639 -1.51924 0
M  V30 8148 H 772.554 -3.07403 -3.98136 0
M  V30 8149 H 772.254 -4.7504 -3.45848 0
M  V30 8150 H 773.778 -4.33956 -4.29552 0
M  V30 8151 H 775.192 -5.28201 -2.22883 0
M  V30 8152 H 773.589 -5.7799 -1.61394 0
M  V30 8153 H 774.659 -4.81396 -0.581918 0
M  V30 8154 N 776.003 0.335068 -1.53997 0
M  V30 8155 C 776.966 1.39481 -1.81872 0
M  V30 8156 C 777.966 1.4524 -0.690078 0
M  V30 8157 O 779.156 1.45467 -0.958377 0
M  V30 8158 C 776.288 2.78329 -1.9684 0
M  V30 8159 H 777.481 1.16024 -2.76547 0
M  V30 8160 H 775.034 0.569926 -1.45539 0
M  V30 8161 H 775.769 3.07058 -1.04337 0
M  V30 8162 H 775.554 2.75544 -2.78958 0
M  V30 8163 H 777.044 3.55016 -2.19894 0
M  V30 8164 N 777.481 1.45874 0.596531 0
M  V30 8165 C 778.897 1.30524 0.918459 0
M  V30 8166 C 779.097 0.266429 1.99731 0
M  V30 8167 O 778.153 -0.335809 2.50257 0
M  V30 8168 C 779.466 2.68747 1.3489 0
M  V30 8169 C 781.014 2.7673 1.46251 0
M  V30 8170 C 781.489 4.15504 1.92667 0
M  V30 8171 N 782.98 4.17853 1.99883 0
M  V30 8172 C 783.715 5.22109 2.37044 0
M  V30 8173 N 783.211 6.36704 2.73094 0
M  V30 8174 N 785.004 5.09471 2.37479 0
M  V30 8175 H 777.155 2.12081 -0.116368 0
M  V30 8176 H 779.418 0.947941 0.0106033 0
M  V30 8177 H 779.124 3.46006 0.630288 0
M  V30 8178 H 778.998 2.97942 2.31323 0
M  V30 8179 H 781.385 1.99768 2.17202 0
M  V30 8180 H 781.466 2.51236 0.481054 0
M  V30 8181 H 781.11 4.92956 1.223 0
M  V30 8182 H 781.04 4.38396 2.91747 0
M  V30 8183 H 783.531 3.35163 1.74568 0
M  V30 8184 H 783.844 7.12041 3.00362 0
M  V30 8185 H 782.189 6.40087 2.70764 0
M  V30 8186 H 785.38 4.18987 2.08728 0
M  V30 8187 H 785.553 5.90837 2.66112 0
M  V30 8188 N 778.959 -0.83999 1.33349 0
M  V30 8189 C 780.199 -1.60888 1.26073 0
M  V30 8190 C 780.563 -1.91234 -0.17129 0
M  V30 8191 O 781.764 -2.66269 -0.36799 0
M  V30 8192 C 780.035 -2.88438 2.11042 0
M  V30 8193 S 781.594 -3.79116 2.20944 0
M  V30 8194 H 778.412 -0.55166 0.448545 0
M  V30 8195 H 781.014 -0.99359 1.68369 0
M  V30 8196 H 779.718 -2.64113 3.14121 0
M  V30 8197 H 779.249 -3.54974 1.69579 0
M  V30 8198 H 781.264 -4.76921 1.36969 0
M  V30 8199 N 780.437 -1.16799 -1.0581 0
M  V30 8200 C 781.367 -0.902241 -2.15364 0
M  V30 8201 C 782.348 0.153351 -1.69407 0
M  V30 8202 O 783.533 0.00442032 -1.94199 0
M  V30 8203 C 780.663 -0.407911 -3.44896 0
M  V30 8204 C 779.617 -1.40197 -4.04387 0
M  V30 8205 C 778.943 -0.765848 -5.29187 0
M  V30 8206 C 780.243 -2.77316 -4.42598 0
M  V30 8207 H 781.937 -1.81841 -2.37853 0
M  V30 8208 H 779.483 -0.875731 -1.14311 0
M  V30 8209 H 781.436 -0.20945 -4.20879 0
M  V30 8210 H 780.16 0.54378 -3.22041 0
M  V30 8211 H 778.819 -1.58707 -3.30466 0
M  V30 8212 H 778.467 0.192482 -5.02632 0
M  V30 8213 H 778.167 -1.42939 -5.69949 0
M  V30 8214 H 779.691 -0.577519 -6.07863 0
M  V30 8215 H 781.105 -2.62561 -5.09642 0
M  V30 8216 H 779.502 -3.4019 -4.94359 0
M  V30 8217 H 780.572 -3.32199 -3.53231 0
M  V30 8218 N 781.915 1.24427 -0.967243 0
M  V30 8219 C 783.331 1.44684 -0.6737 0
M  V30 8220 C 783.531 1.86429 0.764625 0
M  V30 8221 O 782.587 2.00211 1.53857 0
M  V30 8222 C 783.9 2.509 -1.6574 0
M  V30 8223 C 785.448 2.64728 -1.66998 0
M  V30 8224 C 785.923 3.7414 -2.64165 0
M  V30 8225 N 787.414 3.81567 -2.62604 0
M  V30 8226 C 788.149 4.6575 -3.34462 0
M  V30 8227 N 787.645 5.54124 -4.15835 0
M  V30 8228 N 789.438 4.59827 -3.23288 0
M  V30 8229 H 781.589 0.956276 -1.89655 0
M  V30 8230 H 783.852 0.48171 -0.816492 0
M  V30 8231 H 783.558 2.27113 -2.68538 0
M  V30 8232 H 783.432 3.4905 -1.42981 0
M  V30 8233 H 785.819 2.87872 -0.649121 0
M  V30 8234 H 785.9 1.66936 -1.93819 0
M  V30 8235 H 785.544 3.51745 -3.66384 0
M  V30 8236 H 785.474 4.71444 -2.34623 0
M  V30 8237 H 787.965 3.18403 -2.03539 0
M  V30 8238 H 788.278 6.15316 -4.67553 0
M  V30 8239 H 786.623 5.53791 -4.19929 0
M  V30 8240 H 789.814 3.898 -2.59179 0
M  V30 8241 H 789.987 5.25208 -3.79553 0
M  V30 8242 N 783.393 0.737304 1.3929 0
M  V30 8243 C 784.639 0.295581 2.01241 0
M  V30 8244 C 784.994 -1.10561 1.57461 0
M  V30 8245 O 784.287 -1.74346 0.7946 0
M  V30 8246 C 784.481 0.338438 3.55794 0
M  V30 8247 C 784.31 1.74225 4.14579 0
M  V30 8248 C 783.08 2.35502 4.47065 0
M  V30 8249 C 785.278 2.69623 4.37959 0
M  V30 8250 N 783.26 3.68014 4.91365 0
M  V30 8251 C 784.631 3.86873 4.84489 0
M  V30 8252 C 786.686 2.67355 4.2003 0
M  V30 8253 C 785.389 5.02193 5.14971 0
M  V30 8254 C 787.415 3.8182 4.51627 0
M  V30 8255 C 786.777 4.97806 4.98366 0
M  V30 8256 H 782.876 0.154468 0.766592 0
M  V30 8257 H 785.46 0.963768 1.69173 0
M  V30 8258 H 783.631 -0.299406 3.87244 0
M  V30 8259 H 785.363 -0.122053 4.04516 0
M  V30 8260 H 782.118 1.87406 4.34943 0
M  V30 8261 H 782.542 4.36051 5.17869 0
M  V30 8262 H 787.184 1.78876 3.83097 0
M  V30 8263 H 784.902 5.913 5.50809 0
M  V30 8264 H 788.488 3.81366 4.39376 0
M  V30 8265 H 787.368 5.84909 5.22351 0
M  V30 8266 N 784.871 -1.49948 0.485112 0
M  V30 8267 C 786.119 -2.01996 -0.0648775 0
M  V30 8268 C 786.44 -1.36819 -1.38945 0
M  V30 8269 O 785.71 -0.518163 -1.88923 0
M  V30 8270 H 784.29 -0.746513 -0.0269662 0
M  V30 8271 H 786.952 -1.84136 0.638733 0
M  V30 8272 H 786.048 -3.11418 -0.20617 0
M  V30 8273 N 786.349 -0.21828 -1.56081 0
M  V30 8274 C 787.597 0.413488 -1.97825 0
M  V30 8275 C 787.918 1.60527 -1.10707 0
M  V30 8276 O 787.188 1.9504 -0.183378 0
M  V30 8277 H 785.768 0.155757 -0.730581 0
M  V30 8278 H 788.43 -0.310413 -1.92412 0
M  V30 8279 H 787.526 0.742024 -3.03151 0
M  V30 8280 N 787.827 1.57504 0.0551401 0
M  V30 8281 C 789.075 1.87684 0.74962 0
M  V30 8282 C 789.396 0.812547 1.77264 0
M  V30 8283 O 788.666 -0.15694 1.9527 0
M  V30 8284 H 787.246 0.6926 0.279846 0
M  V30 8285 H 789.908 1.94881 0.0272745 0
M  V30 8286 H 789.004 2.85734 1.25548 0
M  V30 8287 N 789.305 -0.326896 1.54172 0
M  V30 8288 C 790.535 -1.08328 1.75922 0
M  V30 8289 C 790.943 -1.82302 0.50622 0
M  V30 8290 O 790.286 -1.7581 -0.532581 0
M  V30 8291 C 790.348 -2.1294 2.8965 0
M  V30 8292 C 790.012 -1.58394 4.28673 0
M  V30 8293 C 791.009 -1.02747 5.09646 0
M  V30 8294 C 788.694 -1.62737 4.75207 0
M  V30 8295 C 790.688 -0.52169 6.35261 0
M  V30 8296 C 788.375 -1.11772 6.00791 0
M  V30 8297 C 789.373 -0.565819 6.80652 0
M  V30 8298 O 789.061 -0.0638146 8.03875 0
M  V30 8299 H 788.793 -0.3282 0.590983 0
M  V30 8300 H 791.347 -0.37972 2.0186 0
M  V30 8301 H 789.577 -2.86903 2.59275 0
M  V30 8302 H 791.266 -2.74274 2.99213 0
M  V30 8303 H 792.032 -0.987007 4.74851 0
M  V30 8304 H 787.911 -2.04635 4.13093 0
M  V30 8305 H 791.455 -0.0902544 6.97542 0
M  V30 8306 H 787.352 -1.15524 6.35078 0
M  V30 8307 H 788.12 -0.17955 8.18303 0
M  V30 8308 N 790.784 -1.46188 -0.588786 0
M  V30 8309 C 791.694 -1.58865 -1.72624 0
M  V30 8310 C 792.71 -0.472348 -1.67466 0
M  V30 8311 O 793.886 -0.735638 -1.87484 0
M  V30 8312 C 790.951 -1.56989 -3.0912 0
M  V30 8313 C 790.012 -2.79804 -3.25589 0
M  V30 8314 C 789.245 -2.78009 -4.55573 0
M  V30 8315 O 789.468 -1.86406 -5.39082 0
M  V30 8316 O 788.402 -3.6947 -4.75159 0
M  V30 8317 H 792.228 -2.55047 -1.64878 0
M  V30 8318 H 789.813 -1.28912 -0.755115 0
M  V30 8319 H 791.695 -1.58618 -3.90408 0
M  V30 8320 H 790.37 -0.639648 -3.17317 0
M  V30 8321 H 789.277 -2.83732 -2.43818 0
M  V30 8322 H 790.61 -3.72017 -3.22279 0
M  V30 8323 N 792.262 0.832906 -1.33792 0
M  V30 8324 C 793.51 1.58539 -1.25338 0
M  V30 8325 C 793.831 1.94175 0.179204 0
M  V30 8326 O 793.101 1.61458 1.10941 0
M  V30 8327 H 791.681 0.58784 -0.460926 0
M  V30 8328 H 794.343 0.995064 -1.67584 0
M  V30 8329 H 793.439 2.51268 -1.85123 0
M  V30 8330 N 793.74 1.17359 1.05189 0
M  V30 8331 C 794.988 0.960087 1.77839 0
M  V30 8332 C 795.309 -0.512554 1.88143 0
M  V30 8333 O 794.579 -1.3721 1.39822 0
M  V30 8334 H 793.159 0.352234 0.658741 0
M  V30 8335 H 795.821 1.47834 1.27008 0
M  V30 8336 H 794.917 1.38843 2.79516 0
M  V30 8337 N 795.218 -1.23913 0.973828 0
M  V30 8338 C 796.443 -1.96735 0.656511 0
M  V30 8339 C 796.868 -1.71682 -0.768571 0
M  V30 8340 O 796.226 -0.984267 -1.52256 0
M  V30 8341 C 796.274 -3.48004 0.944735 0
M  V30 8342 O 795.378 -4.12387 0.0333357 0
M  V30 8343 H 794.719 -0.616119 0.247575 0
M  V30 8344 H 797.249 -1.57525 1.30564 0
M  V30 8345 H 797.259 -3.98424 0.87876 0
M  V30 8346 H 795.934 -3.65567 1.98328 0
M  V30 8347 H 794.511 -3.72585 0.153157 0
M  V30 8348 N 796.696 -0.74468 -1.38897 0
M  V30 8349 C 797.626 -0.126355 -2.33158 0
M  V30 8350 C 798.607 0.713517 -1.54412 0
M  V30 8351 O 799.792 0.656523 -1.82766 0
M  V30 8352 C 796.922 0.774375 -3.38557 0
M  V30 8353 C 795.876 0.0379214 -4.27983 0
M  V30 8354 C 795.202 1.05631 -5.24162 0
M  V30 8355 C 796.502 -1.12523 -5.10035 0
M  V30 8356 H 798.196 -0.913744 -2.85116 0
M  V30 8357 H 795.742 -0.440847 -1.37086 0
M  V30 8358 H 797.695 1.21655 -4.03458 0
M  V30 8359 H 796.419 1.59399 -2.85061 0
M  V30 8360 H 795.078 -0.384733 -3.64576 0
M  V30 8361 H 794.726 1.86975 -4.66958 0
M  V30 8362 H 794.426 0.568261 -5.84846 0
M  V30 8363 H 795.95 1.49799 -5.9194 0
M  V30 8364 H 797.364 -0.761037 -5.68226 0
M  V30 8365 H 795.761 -1.54355 -5.79909 0
M  V30 8366 H 796.831 -1.94237 -4.44297 0
M  V30 8367 N 798.174 1.49689 -0.493057 0
M  V30 8368 C 799.402 2.06836 0.0513141 0
M  V30 8369 C 799.817 1.35436 1.31539 0
M  V30 8370 O 799.174 0.430248 1.77356 0
M  V30 8371 C 799.225 3.60107 0.317003 0
M  V30 8372 O 798.946 4.2882 -0.896957 0
M  V30 8373 C 800.447 4.33945 0.905902 0
M  V30 8374 H 797.667 0.670787 -0.0169048 0
M  V30 8375 H 800.211 1.92574 -0.688139 0
M  V30 8376 H 798.366 3.74099 1.00642 0
M  V30 8377 H 798.78 5.20395 -0.654939 0
M  V30 8378 H 800.254 5.42087 1.04144 0
M  V30 8379 H 800.731 3.95895 1.90168 0
M  V30 8380 H 801.337 4.2454 0.254195 0
M  V30 8381 N 799.652 0.226554 1.55963 0
M  V30 8382 C 800.599 -0.681504 2.20509 0
M  V30 8383 C 801.569 -1.1866 1.16229 0
M  V30 8384 O 802.754 -1.24478 1.44602 0
M  V30 8385 C 799.894 -1.88183 2.89277 0
M  V30 8386 C 799.007 -1.41517 4.08163 0
M  V30 8387 C 798.142 -2.57346 4.647 0
M  V30 8388 C 797.181 -2.07441 5.75877 0
M  V30 8389 N 796.318 -3.16561 6.26685 0
M  V30 8390 H 801.158 -0.124372 2.9774 0
M  V30 8391 H 798.695 -0.0496333 1.47016 0
M  V30 8392 H 800.653 -2.58666 3.27335 0
M  V30 8393 H 799.283 -2.41177 2.14555 0
M  V30 8394 H 798.335 -0.605099 3.75557 0
M  V30 8395 H 799.647 -1.00928 4.88482 0
M  V30 8396 H 798.801 -3.35903 5.05227 0
M  V30 8397 H 797.54 -3.01227 3.83554 0
M  V30 8398 H 796.545 -1.27347 5.34848 0
M  V30 8399 H 797.77 -1.64554 6.58862 0
M  V30 8400 H 795.716 -3.59914 5.48451 0
M  V30 8401 H 795.633 -2.80239 7.02141 0
M  V30 8402 H 796.901 -3.95238 6.71868 0
M  V30 8403 N 801.13 -1.57531 -0.0467866 0
M  V30 8404 C 802.379 -1.87632 -0.740069 0
M  V30 8405 C 802.692 -0.822691 -1.77457 0
M  V30 8406 O 803.898 -1.01235 -2.5192 0
M  V30 8407 C 802.354 -3.32917 -1.36727 0
M  V30 8408 C 801.962 -4.46469 -0.370035 0
M  V30 8409 C 803.706 -3.72189 -2.04146 0
M  V30 8410 C 801.613 -5.82806 -1.00457 0
M  V30 8411 H 800.543 -0.70002 -0.280158 0
M  V30 8412 H 803.194 -1.83499 0.00607151 0
M  V30 8413 H 801.576 -3.31739 -2.16252 0
M  V30 8414 H 802.75 -4.59085 0.397217 0
M  V30 8415 H 801.065 -4.15914 0.201079 0
M  V30 8416 H 803.662 -4.71357 -2.52441 0
M  V30 8417 H 804.005 -3.03268 -2.85192 0
M  V30 8418 H 804.538 -3.75465 -1.3142 0
M  V30 8419 H 801.277 -6.55083 -0.233907 0
M  V30 8420 H 800.797 -5.73944 -1.74209 0
M  V30 8421 H 802.476 -6.28961 -1.51713 0
M  V30 8422 N 802.608 0.318715 -1.54344 0
M  V30 8423 C 803.538 1.39751 -1.87061 0
M  V30 8424 C 804.519 1.53741 -0.727848 0
M  V30 8425 O 805.704 1.67541 -0.982016 0
M  V30 8426 C 802.834 2.76446 -2.10226 0
M  V30 8427 C 801.788 2.77239 -3.26071 0
M  V30 8428 C 801.114 4.17056 -3.34617 0
M  V30 8429 C 802.414 2.40555 -4.63606 0
M  V30 8430 H 804.108 1.12619 -2.77412 0
M  V30 8431 H 801.654 0.540318 -1.33479 0
M  V30 8432 H 803.607 3.51985 -2.31699 0
M  V30 8433 H 802.331 3.05066 -1.16629 0
M  V30 8434 H 800.99 2.04155 -3.04493 0
M  V30 8435 H 800.638 4.42824 -2.3857 0
M  V30 8436 H 800.338 4.18492 -4.12478 0
M  V30 8437 H 801.862 4.94401 -3.5833 0
M  V30 8438 H 803.276 3.05808 -4.84927 0
M  V30 8439 H 801.673 2.53234 -5.44052 0
M  V30 8440 H 802.743 1.35698 -4.65526 0
M  V30 8441 N 804.086 1.46499 0.581025 0
M  V30 8442 C 805.033 1.5719 1.68997 0
M  V30 8443 C 806.003 0.416114 1.60803 0
M  V30 8444 O 807.188 0.633086 1.79991 0
M  V30 8445 C 804.328 1.56973 3.07333 0
M  V30 8446 C 803.441 2.83298 3.26139 0
M  V30 8447 C 802.576 2.74574 4.54734 0
M  V30 8448 C 801.615 3.9583 4.66889 0
M  V30 8449 N 800.752 3.85482 5.86811 0
M  V30 8450 H 805.592 2.51914 1.59196 0
M  V30 8451 H 803.129 1.24975 0.775857 0
M  V30 8452 H 805.087 1.54832 3.87405 0
M  V30 8453 H 803.717 0.657803 3.16027 0
M  V30 8454 H 802.769 2.95411 2.3966 0
M  V30 8455 H 804.081 3.7316 3.30988 0
M  V30 8456 H 803.235 2.70548 5.43036 0
M  V30 8457 H 801.974 1.82354 4.52325 0
M  V30 8458 H 800.979 4.00186 3.77003 0
M  V30 8459 H 802.204 4.89148 4.71075 0
M  V30 8460 H 800.15 2.96051 5.85397 0
M  V30 8461 H 800.067 4.69002 5.92936 0
M  V30 8462 H 801.335 3.85434 6.7754 0
M  V30 8463 N 805.565 -0.825799 1.34232 0
M  V30 8464 C 806.842 -1.56741 1.17011 0
M  V30 8465 C 807.222 -2.09512 -0.258425 0
M  V30 8466 O 806.57 -1.90664 -1.25935 0
M  V30 8467 C 806.78 -2.69104 2.22225 0
M  V30 8468 C 808.128 -3.37947 2.57055 0
M  V30 8469 O 809.152 -2.79358 2.20992 0
M  V30 8470 O 808.011 -4.43743 3.1899 0
M  V30 8471 H 805.105 -0.69163 0.453405 0
M  V30 8472 H 807.651 -0.867422 1.45856 0
M  V30 8473 H 806.423 -2.27844 3.18124 0
M  V30 8474 H 806.046 -3.46756 1.94541 0
M  V30 8475 N 807.043 -1.17915 -1.04565 0
M  V30 8476 C 808.292 -0.965816 -1.77073 0
M  V30 8477 C 808.605 0.506005 -1.88942 0
M  V30 8478 O 809.811 0.837717 -2.58253 0
M  V30 8479 C 808.267 -1.67894 -3.18339 0
M  V30 8480 C 807.875 -3.18972 -3.1458 0
M  V30 8481 C 809.619 -1.54823 -3.9526 0
M  V30 8482 C 807.526 -3.82946 -4.50674 0
M  V30 8483 H 806.456 -0.357729 -0.663736 0
M  V30 8484 H 809.107 -1.41235 -1.17153 0
M  V30 8485 H 807.489 -1.16016 -3.78624 0
M  V30 8486 H 808.663 -3.77835 -2.63776 0
M  V30 8487 H 806.978 -3.32127 -2.51159 0
M  V30 8488 H 809.575 -1.99984 -4.95894 0
M  V30 8489 H 809.918 -0.499727 -4.1329 0
M  V30 8490 H 810.451 -2.03953 -3.41538 0
M  V30 8491 H 807.19 -4.8782 -4.37849 0
M  V30 8492 H 806.71 -3.2887 -5.01602 0
M  V30 8493 H 808.389 -3.85518 -5.196 0
M  V30 8494 N 808.521 1.23394 -0.980386 0
M  V30 8495 C 809.431 2.28561 -0.528864 0
M  V30 8496 C 810.447 1.68946 0.416329 0
M  V30 8497 O 811.623 1.99355 0.286251 0
M  V30 8498 C 808.688 3.46323 0.16155 0
M  V30 8499 C 807.749 4.21297 -0.825044 0
M  V30 8500 C 806.982 5.33437 -0.167483 0
M  V30 8501 O 807.205 5.60812 1.04146 0
M  V30 8502 O 806.139 5.95637 -0.866047 0
M  V30 8503 H 809.965 2.69326 -1.40346 0
M  V30 8504 H 807.55 1.29325 -0.748019 0
M  V30 8505 H 809.432 4.17811 0.548841 0
M  V30 8506 H 808.107 3.0751 1.01092 0
M  V30 8507 H 807.014 3.52134 -1.26303 0
M  V30 8508 H 808.347 4.6396 -1.64322 0
M  V30 8509 N 809.999 0.752036 1.385 0
M  V30 8510 C 810.931 0.0835089 2.29048 0
M  V30 8511 C 811.944 -0.685402 1.47669 0
M  V30 8512 O 813.133 -0.526748 1.70551 0
M  V30 8513 C 810.233 -0.905772 3.26572 0
M  V30 8514 C 809.406 -0.194828 4.36966 0
M  V30 8515 C 808.465 -1.09464 5.14688 0
M  V30 8516 O 807.491 -0.565743 5.66381 0
M  V30 8517 N 808.693 -2.42287 5.2752 0
M  V30 8518 H 811.458 0.861142 2.87062 0
M  V30 8519 H 809.019 0.602689 1.50264 0
M  V30 8520 H 811.011 -1.51072 3.75446 0
M  V30 8521 H 809.581 -1.58449 2.69467 0
M  V30 8522 H 808.801 0.590812 3.89747 0
M  V30 8523 H 810.089 0.297189 5.07931 0
M  V30 8524 H 809.487 -2.87715 4.8707 0
M  V30 8525 H 808.044 -2.97836 5.79773 0
M  V30 8526 N 811.477 -1.49425 0.500989 0
M  V30 8527 C 812.702 -2.07356 -0.0425154 0
M  V30 8528 C 813.127 -1.35887 -1.30063 0
M  V30 8529 O 812.485 -0.41561 -1.76472 0
M  V30 8530 C 812.533 -3.59518 -0.279188 0
M  V30 8531 O 811.637 -3.89542 -1.3539 0
M  V30 8532 H 810.978 -0.663482 0.0262207 0
M  V30 8533 H 813.508 -1.92231 0.700607 0
M  V30 8534 H 813.518 -4.04791 -0.5107 0
M  V30 8535 H 812.193 -4.10946 0.640009 0
M  V30 8536 H 810.77 -3.56079 -1.10734 0
M  V30 8537 N 812.955 -0.234822 -1.55841 0
M  V30 8538 C 814.366 0.270588 -1.84729 0
M  V30 8539 C 814.717 1.58494 -1.15646 0
M  V30 8540 O 813.842 2.12071 -0.430667 0
M  V30 8541 C 814.437 0.497733 -3.35124 0
M  V30 8542 C 812.996 0.947428 -3.64281 0
M  V30 8543 C 812.143 0.01787 -2.77294 0
M  V30 8544 H 815.094 -0.457691 -1.51957 0
M  V30 8545 H 815.115 1.34199 -3.56049 0
M  V30 8546 H 814.627 -0.459037 -3.85376 0
M  V30 8547 H 812.728 1.91709 -3.19497 0
M  V30 8548 H 812.841 0.812651 -4.72158 0
M  V30 8549 H 811.205 0.527071 -2.49187 0
M  V30 8550 H 811.988 -0.934056 -3.30349 0
M  V30 8551 N 814.433 1.57553 0.0384317 0
M  V30 8552 C 815.363 2.0898 1.04161 0
M  V30 8553 C 816.344 0.99029 1.38301 0
M  V30 8554 O 817.529 1.26499 1.47349 0
M  V30 8555 C 814.659 2.56145 2.34536 0
M  V30 8556 C 813.613 3.70275 2.14663 0
M  V30 8557 C 812.939 4.03612 3.50715 0
M  V30 8558 C 814.239 4.99067 1.54045 0
M  V30 8559 H 815.933 2.93046 0.613548 0
M  V30 8560 H 813.479 1.40973 0.293684 0
M  V30 8561 H 815.432 2.90741 3.05037 0
M  V30 8562 H 814.156 1.6915 2.79385 0
M  V30 8563 H 812.815 3.36013 1.46597 0
M  V30 8564 H 812.463 3.13698 3.93195 0
M  V30 8565 H 812.163 4.80482 3.38247 0
M  V30 8566 H 813.687 4.40735 4.22593 0
M  V30 8567 H 815.101 5.3168 2.14451 0
M  V30 8568 H 813.498 5.80484 1.52178 0
M  V30 8569 H 814.568 4.8226 0.505259 0
M  V30 8570 N 815.911 -0.310526 1.54511 0
M  V30 8571 C 817.157 -1.04846 1.73595 0
M  V30 8572 C 817.49 -1.87244 0.515118 0
M  V30 8573 O 816.765 -1.88282 -0.48786 0
M  V30 8574 C 817.048 -1.96237 3.01932 0
M  V30 8575 C 816.901 -1.17082 4.34295 0
M  V30 8576 C 818.22 -2.9556 3.26086 0
M  V30 8577 H 815.339 -0.37976 0.631626 0
M  V30 8578 H 817.981 -0.32394 1.87218 0
M  V30 8579 H 816.131 -2.58015 2.90449 0
M  V30 8580 H 817.803 -0.576643 4.57682 0
M  V30 8581 H 816.046 -0.473336 4.3121 0
M  V30 8582 H 816.717 -1.84257 5.20339 0
M  V30 8583 H 819.193 -2.43908 3.37117 0
M  V30 8584 H 818.069 -3.5668 4.17218 0
M  V30 8585 H 818.33 -3.68715 2.4393 0
M  V30 8586 N 817.389 -1.46805 -0.573248 0
M  V30 8587 C 818.322 -1.52608 -1.69665 0
M  V30 8588 C 819.3 -0.379426 -1.58111 0
M  V30 8589 O 820.484 -0.584938 -1.79195 0
M  V30 8590 C 817.611 -1.41355 -3.07793 0
M  V30 8591 C 816.657 -2.60321 -3.37839 0
M  V30 8592 S 817.49 -4.22622 -3.28863 0
M  V30 8593 C 818.646 -4.13894 -4.69513 0
M  V30 8594 H 818.879 -2.47653 -1.64485 0
M  V30 8595 H 816.412 -1.34806 -0.752769 0
M  V30 8596 H 818.37 -1.35549 -3.87475 0
M  V30 8597 H 817.031 -0.477213 -3.10454 0
M  V30 8598 H 816.224 -2.48466 -4.38498 0
M  V30 8599 H 815.826 -2.63165 -2.65745 0
M  V30 8600 H 818.118 -3.81158 -5.60111 0
M  V30 8601 H 819.061 -5.14584 -4.86425 0
M  V30 8602 H 819.469 -3.44998 -4.46807 0
M  V30 8603 N 818.867 0.818669 -1.34668 0
M  V30 8604 C 819.797 1.94468 -1.29245 0
M  V30 8605 C 820.778 1.69257 -0.169101 0
M  V30 8606 O 821.963 1.90794 -0.362143 0
M  V30 8607 C 819.093 3.31001 -1.05145 0
M  V30 8608 C 818.047 3.70663 -2.13992 0
M  V30 8609 C 817.373 5.05226 -1.75074 0
M  V30 8610 C 818.673 3.82312 -3.55858 0
M  V30 8611 H 820.367 1.99263 -2.2346 0
M  V30 8612 H 817.913 0.957304 -1.07572 0
M  V30 8613 H 819.866 4.09364 -0.999949 0
M  V30 8614 H 818.59 3.26517 -0.0737312 0
M  V30 8615 H 817.249 2.94578 -2.18219 0
M  V30 8616 H 816.897 4.97233 -0.759518 0
M  V30 8617 H 816.597 5.32734 -2.47928 0
M  V30 8618 H 818.121 5.86042 -1.71427 0
M  V30 8619 H 819.535 4.50935 -3.5402 0
M  V30 8620 H 817.932 4.21278 -4.2737 0
M  V30 8621 H 819.002 2.84193 -3.9289 0
M  V30 8622 N 820.346 1.18468 1.03938 0
M  V30 8623 C 821.623 0.890435 1.74157 0
M  V30 8624 C 822.003 -0.606409 2.02203 0
M  V30 8625 O 821.351 -1.5615 1.66822 0
M  V30 8626 C 821.561 1.73906 3.02585 0
M  V30 8627 C 822.909 1.96686 3.76297 0
M  V30 8628 O 823.933 1.70969 3.12487 0
M  V30 8629 O 822.792 2.39986 4.90988 0
M  V30 8630 H 819.886 0.330889 0.757919 0
M  V30 8631 H 822.432 1.29228 1.09992 0
M  V30 8632 H 821.204 2.75369 2.78006 0
M  V30 8633 H 820.827 1.33581 3.74489 0
M  V30 8634 N 821.824 -1.22873 0.986916 0
M  V30 8635 C 823.24 -1.43594 0.696633 0
M  V30 8636 C 823.44 -1.87622 -0.734869 0
M  V30 8637 O 822.496 -2.02633 -1.50652 0
M  V30 8638 C 823.809 -2.48231 1.69711 0
M  V30 8639 C 825.357 -2.62037 1.71188 0
M  V30 8640 C 825.832 -3.6989 2.70084 0
M  V30 8641 N 827.323 -3.77341 2.68641 0
M  V30 8642 C 828.058 -4.6037 3.41829 0
M  V30 8643 N 827.554 -5.47438 4.24598 0
M  V30 8644 N 829.347 -4.54626 3.30563 0
M  V30 8645 H 821.498 -0.925982 1.91153 0
M  V30 8646 H 823.761 -0.46866 0.824052 0
M  V30 8647 H 823.467 -2.22812 2.72117 0
M  V30 8648 H 823.341 -3.46731 1.48516 0
M  V30 8649 H 825.728 -2.86803 0.694837 0
M  V30 8650 H 825.809 -1.63831 1.96451 0
M  V30 8651 H 825.453 -3.45872 3.71934 0
M  V30 8652 H 825.383 -4.67652 2.42093 0
M  V30 8653 H 827.874 -3.15124 2.08578 0
M  V30 8654 H 828.187 -6.078 4.77283 0
M  V30 8655 H 826.532 -5.4704 4.28687 0
M  V30 8656 H 829.723 -3.85627 2.65347 0
M  V30 8657 H 829.896 -5.19103 3.8786 0
M  V30 8658 N 823.302 -0.75937 -1.38099 0
M  V30 8659 C 824.548 -0.327559 -2.00745 0
M  V30 8660 C 824.903 1.08042 -1.592 0
M  V30 8661 O 824.196 1.7306 -0.822236 0
M  V30 8662 C 824.39 -0.394999 -3.55211 0
M  V30 8663 C 824.219 -1.80798 -4.11755 0
M  V30 8664 C 822.989 -2.42585 -4.43262 0
M  V30 8665 C 825.187 -2.76556 -4.33614 0
M  V30 8666 N 823.169 -3.75784 -4.85448 0
M  V30 8667 C 824.54 -3.94532 -4.78273 0
M  V30 8668 C 826.595 -2.74004 -4.15724 0
M  V30 8669 C 825.298 -5.10322 -5.06916 0
M  V30 8670 C 827.324 -3.88957 -4.45496 0
M  V30 8671 C 826.686 -5.05672 -4.90383 0
M  V30 8672 H 822.785 -0.166644 -0.764038 0
M  V30 8673 H 825.369 -0.99056 -1.67619 0
M  V30 8674 H 823.54 0.237761 -3.87672 0
M  V30 8675 H 825.272 0.0576828 -4.04659 0
M  V30 8676 H 822.027 -1.94302 -4.31907 0
M  V30 8677 H 822.451 -4.44234 -5.10867 0
M  V30 8678 H 827.093 -1.84948 -3.80203 0
M  V30 8679 H 824.811 -5.99988 -5.41332 0
M  V30 8680 H 828.397 -3.88308 -4.33253 0
M  V30 8681 H 827.277 -5.93146 -5.1298 0
M  V30 8682 N 824.78 1.49157 -0.508906 0
M  V30 8683 C 825.73 2.26215 0.284705 0
M  V30 8684 C 826.714 1.31401 0.928586 0
M  V30 8685 O 827.906 1.56073 0.834877 0
M  V30 8686 C 825.035 3.15906 1.34382 0
M  V30 8687 C 824.121 4.18186 0.705785 0
M  V30 8688 N 824.512 5.05419 -0.196214 0
M  V30 8689 C 822.81 4.35425 0.965457 0
M  V30 8690 C 823.511 5.78977 -0.562222 0
M  V30 8691 N 822.487 5.43553 0.0717389 0
M  V30 8692 H 826.289 2.91033 -0.409543 0
M  V30 8693 H 823.803 1.59104 -0.325508 0
M  V30 8694 H 825.8 3.6975 1.92589 0
M  V30 8695 H 824.46 2.52642 2.03966 0
M  V30 8696 H 825.471 5.14781 -0.567526 0
M  V30 8697 H 822.148 3.83363 1.65346 0
M  V30 8698 H 823.538 6.59192 -1.30062 0
M  V30 8699 N 826.258 0.243083 1.55714 0
M  V30 8700 C 827.188 -0.652336 2.24203 0
M  V30 8701 C 828.169 -1.1843 1.221 0
M  V30 8702 O 829.354 -1.22435 1.50743 0
M  V30 8703 C 826.484 -1.85111 2.93856 0
M  V30 8704 C 825.438 -1.45208 4.02615 0
M  V30 8705 C 824.764 -2.73137 4.59674 0
M  V30 8706 C 826.064 -0.625988 5.18535 0
M  V30 8707 H 827.758 -0.0812504 2.9929 0
M  V30 8708 H 825.304 -0.0376388 1.43951 0
M  V30 8709 H 827.257 -2.48314 3.40468 0
M  V30 8710 H 825.981 -2.44751 2.16251 0
M  V30 8711 H 824.64 -0.843406 3.56766 0
M  V30 8712 H 824.288 -3.30967 3.78774 0
M  V30 8713 H 823.988 -2.47163 5.33089 0
M  V30 8714 H 825.512 -3.37245 5.09017 0
M  V30 8715 H 826.926 -1.16223 5.61396 0
M  V30 8716 H 825.323 -0.462465 5.98315 0
M  V30 8717 H 826.393 0.362652 4.83542 0
M  V30 8718 N 827.736 -1.57571 -0.0300757 0
M  V30 8719 C 828.646 -2.09892 -1.04798 0
M  V30 8720 C 829.662 -1.03732 -1.39698 0
M  V30 8721 O 830.838 -1.35461 -1.49038 0
M  V30 8722 C 827.903 -2.56707 -2.33028 0
M  V30 8723 C 826.964 -3.77345 -2.04718 0
M  V30 8724 C 826.197 -4.21918 -3.26834 0
M  V30 8725 O 826.42 -3.66025 -4.37472 0
M  V30 8726 O 825.354 -5.14362 -3.12594 0
M  V30 8727 H 829.18 -2.97023 -0.633344 0
M  V30 8728 H 826.765 -1.47344 -0.246991 0
M  V30 8729 H 828.647 -2.87154 -3.08417 0
M  V30 8730 H 827.322 -1.72688 -2.73789 0
M  V30 8731 H 826.229 -3.51919 -1.26901 0
M  V30 8732 H 827.562 -4.62345 -1.68813 0
M  V30 8733 N 829.214 0.302327 -1.54673 0
M  V30 8734 C 830.46 1.03924 -1.74149 0
M  V30 8735 C 830.793 1.86968 -0.525041 0
M  V30 8736 O 830.068 1.88538 0.477868 0
M  V30 8737 C 830.351 1.94633 -3.02969 0
M  V30 8738 C 830.204 1.14778 -4.34909 0
M  V30 8739 C 831.523 2.93826 -3.27649 0
M  V30 8740 H 828.642 0.376405 -0.633631 0
M  V30 8741 H 831.284 0.314007 -1.87387 0
M  V30 8742 H 829.434 2.56471 -2.91813 0
M  V30 8743 H 831.106 0.552363 -4.57981 0
M  V30 8744 H 829.349 0.450462 -4.31455 0
M  V30 8745 H 830.02 1.81495 -5.21309 0
M  V30 8746 H 832.496 2.42117 -3.38406 0
M  V30 8747 H 831.372 3.54462 -4.19104 0
M  V30 8748 H 831.633 3.67416 -2.45882 0
M  V30 8749 N 830.692 1.47107 0.565454 0
M  V30 8750 C 831.941 1.5257 1.31929 0
M  V30 8751 C 832.254 0.189092 1.94684 0
M  V30 8752 O 833.46 0.121657 2.71227 0
M  V30 8753 C 831.916 2.68914 2.39193 0
M  V30 8754 C 831.524 4.09069 1.82665 0
M  V30 8755 C 833.268 2.83663 3.1581 0
M  V30 8756 C 831.175 5.16726 2.87661 0
M  V30 8757 H 830.105 0.567869 0.496025 0
M  V30 8758 H 832.756 1.73361 0.60151 0
M  V30 8759 H 831.138 2.41486 3.13848 0
M  V30 8760 H 832.312 4.46364 1.14438 0
M  V30 8761 H 830.627 3.99135 1.1866 0
M  V30 8762 H 833.224 3.61261 3.94201 0
M  V30 8763 H 833.567 1.91804 3.69482 0
M  V30 8764 H 834.1 3.10821 2.48265 0
M  V30 8765 H 830.839 6.10433 2.38854 0
M  V30 8766 H 830.359 4.83957 3.54324 0
M  V30 8767 H 832.038 5.43319 3.51303 0
M  V30 8768 N 832.17 -0.811516 1.35101 0
M  V30 8769 C 833.581 -1.38515 1.25182 0
M  V30 8770 C 833.932 -1.95846 -0.117883 0
M  V30 8771 O 833.057 -1.90925 -1.01866 0
M  V30 8772 C 833.652 -2.51813 2.26662 0
M  V30 8773 C 832.211 -3.05052 2.20499 0
M  V30 8774 C 831.358 -1.77987 2.12641 0
M  V30 8775 H 834.309 -0.614959 1.46301 0
M  V30 8776 H 834.33 -3.30228 1.89023 0
M  V30 8777 H 833.842 -2.10057 3.2634 0
M  V30 8778 H 831.943 -3.51285 1.24215 0
M  V30 8779 H 832.056 -3.63368 3.1225 0
M  V30 8780 H 830.42 -1.99342 1.5854 0
M  V30 8781 H 831.203 -1.38389 3.14171 0
M  V30 8782 N 833.648 -1.19017 -1.03309 0
M  V30 8783 C 835.064 -0.941483 -1.28873 0
M  V30 8784 C 835.264 0.388587 -1.97718 0
M  V30 8785 O 834.32 1.12111 -2.26246 0
M  V30 8786 C 835.633 -2.11249 -2.13996 0
M  V30 8787 C 837.181 -2.15164 -2.27318 0
M  V30 8788 C 837.656 -3.31704 -3.15811 0
M  V30 8789 N 839.147 -3.31613 -3.23399 0
M  V30 8790 C 839.882 -4.18431 -3.9205 0
M  V30 8791 N 839.378 -5.15397 -4.62966 0
M  V30 8792 N 841.171 -4.06321 -3.88406 0
M  V30 8793 H 833.322 -2.04599 -0.570343 0
M  V30 8794 H 835.585 -0.894406 -0.314232 0
M  V30 8795 H 835.291 -3.07482 -1.70727 0
M  V30 8796 H 835.165 -2.07955 -3.14697 0
M  V30 8797 H 837.552 -1.19504 -2.6982 0
M  V30 8798 H 837.633 -2.22513 -1.26182 0
M  V30 8799 H 837.277 -4.2764 -2.74019 0
M  V30 8800 H 837.207 -3.21592 -4.16997 0
M  V30 8801 H 839.698 -2.6142 -2.72888 0
M  V30 8802 H 840.011 -5.78 -5.12968 0
M  V30 8803 H 838.356 -5.19349 -4.61846 0
M  V30 8804 H 841.547 -3.29849 -3.3214 0
M  V30 8805 H 841.72 -4.74196 -4.41635 0
M  V30 8806 N 835.127 1.22348 -0.993418 0
M  V30 8807 C 836.037 2.27987 -0.553076 0
M  V30 8808 C 837.053 1.69378 0.398386 0
M  V30 8809 O 838.229 1.99648 0.26509 0
M  V30 8810 C 835.294 3.46475 0.124809 0
M  V30 8811 C 834.355 4.20399 -0.869682 0
M  V30 8812 C 833.588 5.33229 -0.224052 0
M  V30 8813 O 833.811 5.61885 0.981915 0
M  V30 8814 O 832.745 5.94685 -0.929174 0
M  V30 8815 H 836.571 2.67822 -1.43195 0
M  V30 8816 H 834.156 1.28525 -0.761694 0
M  V30 8817 H 836.038 4.18369 0.504496 0
M  V30 8818 H 834.713 3.08565 0.978243 0
M  V30 8819 H 833.62 3.50774 -1.30031 0
M  V30 8820 H 834.953 4.62191 -1.69233 0
M  V30 8821 N 836.605 0.766683 1.37694 0
M  V30 8822 C 837.515 0.150158 2.34119 0
M  V30 8823 C 838.531 -0.685513 1.59927 0
M  V30 8824 O 839.707 -0.606616 1.92047 0
M  V30 8825 C 836.772 -0.722562 3.39087 0
M  V30 8826 C 835.833 0.128983 4.29106 0
M  V30 8827 C 835.066 -0.702178 5.29061 0
M  V30 8828 O 835.289 -1.93954 5.36412 0
M  V30 8829 O 834.223 -0.114056 6.01792 0
M  V30 8830 H 838.049 0.946829 2.88563 0
M  V30 8831 H 835.634 0.527765 1.39768 0
M  V30 8832 H 837.516 -1.22095 4.03325 0
M  V30 8833 H 836.191 -1.49751 2.86978 0
M  V30 8834 H 835.098 0.673612 3.67985 0
M  V30 8835 H 836.431 0.866892 4.84506 0
M  V30 8836 N 838.083 -1.48885 0.516809 0
M  V30 8837 C 839.329 -2.02788 -0.0220928 0
M  V30 8838 C 839.662 -1.39433 -1.35175 0
M  V30 8839 O 838.937 -0.535459 -1.86984 0
M  V30 8840 C 839.22 -3.59753 -0.158012 0
M  V30 8841 C 839.073 -4.33611 1.19588 0
M  V30 8842 C 840.392 -4.30984 -0.891133 0
M  V30 8843 H 837.511 -0.736971 -0.00655488 0
M  V30 8844 H 840.153 -1.77746 0.671287 0
M  V30 8845 H 838.303 -3.8122 -0.748568 0
M  V30 8846 H 839.975 -4.23598 1.82653 0
M  V30 8847 H 838.218 -3.95547 1.78116 0
M  V30 8848 H 838.889 -5.41846 1.05391 0
M  V30 8849 H 841.365 -4.14267 -0.39012 0
M  V30 8850 H 840.241 -5.40527 -0.955107 0
M  V30 8851 H 840.502 -3.97336 -1.93847 0
M  V30 8852 N 839.561 -0.251338 -1.55583 0
M  V30 8853 C 840.471 0.656978 -2.25213 0
M  V30 8854 C 841.487 1.18966 -1.26977 0
M  V30 8855 O 842.663 1.22499 -1.59862 0
M  V30 8856 C 839.728 1.83527 -2.94141 0
M  V30 8857 C 838.789 1.34162 -4.07798 0
M  V30 8858 C 838.022 2.46375 -4.73429 0
M  V30 8859 O 838.245 3.65205 -4.38157 0
M  V30 8860 O 837.179 2.15881 -5.61853 0
M  V30 8861 H 841.005 0.0936395 -3.03556 0
M  V30 8862 H 838.59 -0.0196638 -1.49387 0
M  V30 8863 H 840.472 2.52279 -3.3754 0
M  V30 8864 H 839.147 2.38614 -2.18735 0
M  V30 8865 H 838.054 0.621249 -3.68906 0
M  V30 8866 H 839.387 0.836779 -4.85035 0
M  V30 8867 N 841.039 1.57585 0.0217189 0
M  V30 8868 C 841.987 2.08134 1.03842 0
M  V30 8869 C 842.981 0.996662 1.36978 0
M  V30 8870 O 844.187 1.18149 1.35797 0
M  V30 8871 H 840.562 0.664298 0.352438 0
M  V30 8872 H 842.533 2.92583 0.58634 0
M  V30 8873 C 841.282 2.58218 2.32849 0
M  V30 8874 H 840.605 3.41302 2.08214 0
M  V30 8875 H 842.045 2.97289 3.02316 0
M  V30 8876 C 840.504 1.48664 3.02325 0
M  V30 8877 O 841.034 0.857075 3.9245 0
M  V30 8878 N 839.24 1.21938 2.63779 0
M  V30 8879 H 838.787 1.73319 1.90574 0
M  V30 8880 H 838.745 0.488523 3.10581 0
M  V30 8881 N 842.517 -0.29412 1.54831 0
M  V30 8882 C 843.765 -1.02643 1.74094 0
M  V30 8883 C 844.086 -1.87563 0.533402 0
M  V30 8884 O 843.356 -1.9061 -0.452192 0
M  V30 8885 H 841.936 -0.381959 0.641963 0
M  V30 8886 H 844.598 -0.323444 1.92197 0
M  V30 8887 H 843.694 -1.67558 2.63307 0
M  V30 8888 N 843.995 -1.47404 -0.557645 0
M  V30 8889 C 845.272 -1.44488 -1.31843 0
M  V30 8890 C 845.652 -0.1416 -2.10625 0
M  V30 8891 O 845 0.876908 -2.11004 0
M  V30 8892 C 845.21 -2.69016 -2.22331 0
M  V30 8893 C 846.558 -3.16212 -2.83364 0
M  V30 8894 O 847.582 -2.69741 -2.32634 0
M  V30 8895 O 846.441 -3.96999 -3.75571 0
M  V30 8896 H 843.535 -0.57578 -0.593639 0
M  V30 8897 H 846.081 -1.59605 -0.576584 0
M  V30 8898 H 844.853 -3.55406 -1.63715 0
M  V30 8899 H 844.476 -2.56484 -3.03812 0
M  V30 8900 N 845.473 0.80434 -1.35529 0
M  V30 8901 C 846.405 1.92445 -1.2449 0
M  V30 8902 C 847.418 1.61934 -0.167685 0
M  V30 8903 O 848.607 1.73461 -0.42115 0
M  V30 8904 C 845.707 3.26875 -0.894751 0
M  V30 8905 C 844.88 3.85275 -2.07079 0
M  V30 8906 C 843.939 4.98116 -1.69607 0
M  V30 8907 O 842.965 5.15424 -2.41509 0
M  V30 8908 N 844.167 5.77169 -0.621012 0
M  V30 8909 H 846.932 2.02441 -2.20993 0
M  V30 8910 H 844.493 0.981874 -1.28728 0
M  V30 8911 H 846.485 3.99837 -0.625511 0
M  V30 8912 H 845.055 3.12594 -0.0193306 0
M  V30 8913 H 844.275 3.0448 -2.5037 0
M  V30 8914 H 845.563 4.21024 -2.85685 0
M  V30 8915 H 844.961 5.65695 -0.0236679 0
M  V30 8916 H 843.518 6.50499 -0.411558 0
M  V30 8917 N 846.951 1.19563 1.02676 0
M  V30 8918 C 848.197 1.00105 1.76371 0
M  V30 8919 C 848.53 -0.466823 1.88506 0
M  V30 8920 O 847.805 -1.34665 1.40341 0
M  V30 8921 C 848.088 1.67321 3.18866 0
M  V30 8922 C 847.941 3.21486 3.1459 0
M  V30 8923 C 849.26 1.39794 4.17308 0
M  V30 8924 H 846.379 0.365075 0.640226 0
M  V30 8925 H 849.021 1.47433 1.19848 0
M  V30 8926 H 847.171 1.27081 3.67128 0
M  V30 8927 H 848.843 3.70953 2.7421 0
M  V30 8928 H 847.086 3.5292 2.52249 0
M  V30 8929 H 847.757 3.63665 4.15273 0
M  V30 8930 H 850.233 1.74685 3.77657 0
M  V30 8931 H 849.109 1.89371 5.15199 0
M  V30 8932 H 849.37 0.323505 4.40915 0
M  V30 8933 N 848.429 -1.21819 0.999893 0
M  V30 8934 C 849.84 -1.72517 0.713775 0
M  V30 8935 C 850.191 -1.80505 -0.768922 0
M  V30 8936 O 849.316 -1.45611 -1.60083 0
M  V30 8937 C 849.911 -3.13321 1.28901 0
M  V30 8938 C 848.47 -3.61396 1.05212 0
M  V30 8939 C 847.617 -2.39074 1.40494 0
M  V30 8940 H 850.568 -1.07068 1.17141 0
M  V30 8941 H 850.589 -3.74535 0.671084 0
M  V30 8942 H 850.101 -3.07475 2.36814 0
M  V30 8943 H 848.202 -3.72599 -0.0100732 0
M  V30 8944 H 848.315 -4.47145 1.72042 0
M  V30 8945 H 846.679 -2.41015 0.823642 0
M  V30 8946 H 847.462 -2.35884 2.49427 0
M  V30 8947 N 849.908 -0.773975 -1.37286 0
M  V30 8948 C 851.138 -0.350249 -2.03609 0
M  V30 8949 C 851.546 1.03313 -1.58502 0
M  V30 8950 O 850.889 1.67118 -0.7627 0
M  V30 8951 C 850.951 -0.317215 -3.58098 0
M  V30 8952 C 850.615 -1.64556 -4.26345 0
M  V30 8953 C 851.612 -2.59839 -4.50311 0
M  V30 8954 C 849.297 -1.92061 -4.64131 0
M  V30 8955 C 851.291 -3.80833 -5.11122 0
M  V30 8956 C 848.978 -3.13325 -5.24663 0
M  V30 8957 C 849.976 -4.0753 -5.48095 0
M  V30 8958 O 849.664 -5.26658 -6.0736 0
M  V30 8959 H 849.396 -0.144456 -0.660385 0
M  V30 8960 H 851.95 -1.0496 -1.76557 0
M  V30 8961 H 850.18 0.438528 -3.84205 0
M  V30 8962 H 851.869 0.0797428 -4.05822 0
M  V30 8963 H 852.635 -2.39872 -4.21529 0
M  V30 8964 H 848.514 -1.19562 -4.45226 0
M  V30 8965 H 852.058 -4.54377 -5.29327 0
M  V30 8966 H 847.955 -3.33177 -5.52869 0
M  V30 8967 H 848.723 -5.27513 -6.25837 0
M  V30 8968 N 851.386 1.48609 -0.524698 0
M  V30 8969 C 852.611 2.07398 0.00952139 0
M  V30 8970 C 853.036 1.37939 1.27884 0
M  V30 8971 O 852.394 0.443633 1.75788 0
M  V30 8972 C 852.442 3.59916 0.221956 0
M  V30 8973 O 851.546 3.91647 1.29175 0
M  V30 8974 H 850.887 0.662981 -0.0367729 0
M  V30 8975 H 853.417 1.91092 -0.7311 0
M  V30 8976 H 853.427 4.05552 0.446236 0
M  V30 8977 H 852.102 4.09876 -0.705306 0
M  V30 8978 H 850.679 3.57796 1.05055 0
M  V30 8979 N 852.864 0.259585 1.55447 0
M  V30 8980 C 854.113 -0.362163 1.98422 0
M  V30 8981 C 854.426 -1.58135 1.1512 0
M  V30 8982 O 855.632 -2.27506 1.48166 0
M  V30 8983 C 854.088 -0.695722 3.53111 0
M  V30 8984 C 853.696 0.502784 4.4517 0
M  V30 8985 C 855.44 -1.28096 4.04712 0
M  V30 8986 C 853.347 0.144674 5.91223 0
M  V30 8987 H 852.277 -0.139092 0.74106 0
M  V30 8988 H 854.928 0.361798 1.79898 0
M  V30 8989 H 853.31 -1.47816 3.67378 0
M  V30 8990 H 854.484 1.27994 4.42667 0
M  V30 8991 H 852.799 1.0038 4.0412 0
M  V30 8992 H 855.396 -1.56243 5.11363 0
M  V30 8993 H 855.739 -2.20969 3.52815 0
M  V30 8994 H 856.272 -0.561146 3.93822 0
M  V30 8995 H 853.011 1.04087 6.47183 0
M  V30 8996 H 852.531 -0.596023 5.96831 0
M  V30 8997 H 854.21 -0.268651 6.46442 0
M  V30 8998 N 854.342 -1.57594 -0.0133615 0
M  V30 8999 C 855.275 -2.02991 -1.04259 0
M  V30 9000 C 856.253 -0.917193 -1.34262 0
M  V30 9001 O 857.437 -1.18428 -1.46653 0
M  V30 9002 C 854.564 -2.41624 -2.37351 0
M  V30 9003 C 853.61 -3.63495 -2.231 0
M  V30 9004 S 854.443 -5.1198 -1.5696 0
M  V30 9005 C 855.599 -5.5387 -2.91511 0
M  V30 9006 H 855.832 -2.89973 -0.655985 0
M  V30 9007 H 853.365 -1.52769 -0.223827 0
M  V30 9008 H 855.323 -2.64551 -3.13884 0
M  V30 9009 H 853.984 -1.55065 -2.73155 0
M  V30 9010 H 853.177 -3.88233 -3.21389 0
M  V30 9011 H 852.779 -3.405 -1.54711 0
M  V30 9012 H 855.071 -5.55514 -3.87828 0
M  V30 9013 H 856.014 -6.53988 -2.71488 0
M  V30 9014 H 856.422 -4.81404 -2.94806 0
M  V30 9015 N 855.82 0.285905 -1.54985 0
M  V30 9016 C 856.768 1.37302 -1.87752 0
M  V30 9017 C 857.762 1.51763 -0.752616 0
M  V30 9018 O 858.968 1.53701 -0.936805 0
M  V30 9019 H 855.343 0.458935 -0.59572 0
M  V30 9020 H 857.314 1.0691 -2.78591 0
M  V30 9021 C 856.063 2.72885 -2.15474 0
M  V30 9022 H 855.386 2.62545 -3.01513 0
M  V30 9023 H 856.826 3.47925 -2.42331 0
M  V30 9024 C 855.285 3.22989 -0.958124 0
M  V30 9025 O 855.815 4.01268 -0.186219 0
M  V30 9026 N 854.021 2.80503 -0.759354 0
M  V30 9027 H 853.568 2.16961 -1.38874 0
M  V30 9028 H 853.526 3.14375 0.0396937 0
M  V30 9029 N 857.298 1.47698 0.54982 0
M  V30 9030 C 858.246 1.61156 1.67724 0
M  V30 9031 C 859.24 0.478606 1.62498 0
M  V30 9032 O 860.446 0.656661 1.67595 0
M  V30 9033 H 856.821 0.507304 0.55511 0
M  V30 9034 H 858.792 2.55884 1.53512 0
M  V30 9035 C 857.541 1.64994 3.06059 0
M  V30 9036 H 856.864 2.51525 3.10765 0
M  V30 9037 H 858.304 1.78459 3.84615 0
M  V30 9038 C 856.763 0.384677 3.34697 0
M  V30 9039 O 857.293 -0.511057 3.98436 0
M  V30 9040 N 855.499 0.262434 2.89413 0
M  V30 9041 H 855.046 0.99229 2.37721 0
M  V30 9042 H 855.004 -0.583177 3.08944 0
M  V30 9043 N 858.776 -0.797141 1.35954 0
M  V30 9044 C 860.006 -1.5835 1.32698 0
M  V30 9045 C 860.414 -1.88959 -0.0955298 0
M  V30 9046 O 859.757 -1.49987 -1.06064 0
M  V30 9047 C 859.819 -2.93529 2.0756 0
M  V30 9048 C 859.483 -2.85688 3.56695 0
M  V30 9049 C 860.48 -2.58467 4.51099 0
M  V30 9050 C 858.165 -3.04508 3.99475 0
M  V30 9051 C 860.159 -2.50157 5.8626 0
M  V30 9052 C 857.846 -2.9582 5.34728 0
M  V30 9053 C 858.844 -2.68681 6.27933 0
M  V30 9054 O 858.532 -2.59973 7.60703 0
M  V30 9055 H 858.264 -0.49807 0.457059 0
M  V30 9056 H 860.818 -0.997889 1.79531 0
M  V30 9057 H 859.048 -3.54111 1.55378 0
M  V30 9058 H 860.737 -3.54744 1.9726 0
M  V30 9059 H 861.503 -2.43638 4.19363 0
M  V30 9060 H 857.382 -3.24641 3.27306 0
M  V30 9061 H 860.926 -2.28894 6.58979 0
M  V30 9062 H 856.823 -3.10211 5.66074 0
M  V30 9063 H 857.591 -2.75511 7.70737 0
M  V30 9064 N 860.254 -1.20106 -1.0204 0
M  V30 9065 C 861.501 -1.00889 -1.75578 0
M  V30 9066 C 861.829 0.459415 -1.88996 0
M  V30 9067 O 861.084 1.35735 -1.40977 0
M  V30 9068 C 861.383 -1.63308 -3.17908 0
M  V30 9069 C 861.049 -3.13091 -3.24476 0
M  V30 9070 C 859.711 -3.53968 -3.25976 0
M  V30 9071 C 862.063 -4.09093 -3.22944 0
M  V30 9072 C 859.391 -4.89381 -3.2361 0
M  V30 9073 C 861.743 -5.44447 -3.22119 0
M  V30 9074 C 860.407 -5.84742 -3.2192 0
M  V30 9075 H 859.677 -0.36918 -0.642485 0
M  V30 9076 H 862.324 -1.49475 -1.19706 0
M  V30 9077 H 860.629 -1.06974 -3.76914 0
M  V30 9078 H 862.326 -1.45958 -3.73493 0
M  V30 9079 H 858.916 -2.80526 -3.24042 0
M  V30 9080 H 863.1 -3.78549 -3.20958 0
M  V30 9081 H 858.356 -5.1987 -3.21785 0
M  V30 9082 H 862.53 -6.18584 -3.19885 0
M  V30 9083 H 860.157 -6.89642 -3.19841 0
M  V30 9084 N 861.732 1.21287 -1.00634 0
M  V30 9085 C 862.957 1.94925 -0.708441 0
M  V30 9086 C 863.382 1.73659 0.722783 0
M  V30 9087 O 862.74 1.02429 1.49593 0
M  V30 9088 C 862.788 3.45377 -1.03667 0
M  V30 9089 O 861.892 4.12153 -0.142661 0
M  V30 9090 H 861.233 0.609338 -0.263824 0
M  V30 9091 H 863.763 1.54008 -1.34695 0
M  V30 9092 H 863.773 3.95954 -0.984086 0
M  V30 9093 H 862.448 3.6018 -2.0795 0
M  V30 9094 H 861.025 3.72048 -0.251888 0
M  V30 9095 N 863.21 0.781244 1.36873 0
M  V30 9096 C 864.459 0.34652 1.98701 0
M  V30 9097 C 864.772 -1.08555 1.62712 0
M  V30 9098 O 865.978 -1.62213 2.17713 0
M  V30 9099 C 864.434 0.568611 3.5538 0
M  V30 9100 C 864.042 2.01156 4.003 0
M  V30 9101 C 865.786 0.197983 4.24038 0
M  V30 9102 C 863.693 2.18074 5.49725 0
M  V30 9103 H 862.623 0.125821 0.743428 0
M  V30 9104 H 865.274 0.961721 1.56279 0
M  V30 9105 H 863.656 -0.116185 3.9583 0
M  V30 9106 H 864.83 2.73209 3.71071 0
M  V30 9107 H 863.145 2.33967 3.44454 0
M  V30 9108 H 865.742 0.302778 5.33842 0
M  V30 9109 H 866.085 -0.852927 4.07469 0
M  V30 9110 H 866.618 0.835696 3.88923 0
M  V30 9111 H 863.357 3.21519 5.71232 0
M  V30 9112 H 862.877 1.50517 5.80607 0
M  V30 9113 H 864.556 1.98393 6.15832 0
M  V30 9114 N 864.689 -1.48329 0.532571 0
M  V30 9115 C 865.937 -2.021 -0.000581206 0
M  V30 9116 C 866.258 -1.4117 -1.34522 0
M  V30 9117 O 865.528 -0.578005 -1.87179 0
M  V30 9118 H 864.108 -0.746993 -0.00320281 0
M  V30 9119 H 866.77 -1.82011 0.696991 0
M  V30 9120 H 865.866 -3.11917 -0.106991 0
M  V30 9121 N 866.167 -0.267825 -1.55308 0
M  V30 9122 C 867.413 0.351556 -1.9973 0
M  V30 9123 C 867.746 1.56049 -1.15596 0
M  V30 9124 O 867.021 1.93203 -0.224274 0
M  V30 9125 C 867.304 0.74091 -3.52395 0
M  V30 9126 C 867.157 -0.474861 -4.47286 0
M  V30 9127 C 868.476 1.5801 -4.10756 0
M  V30 9128 H 865.595 0.126308 -0.726096 0
M  V30 9129 H 868.237 -0.373316 -1.86296 0
M  V30 9130 H 866.387 1.35851 -3.63973 0
M  V30 9131 H 868.059 -1.1134 -4.47662 0
M  V30 9132 H 866.302 -1.11425 -4.19246 0
M  V30 9133 H 866.973 -0.158782 -5.51772 0
M  V30 9134 H 869.449 1.05857 -4.0241 0
M  V30 9135 H 868.325 1.82135 -5.17801 0
M  V30 9136 H 868.586 2.55878 -3.60526 0
M  V30 9137 N 867.645 1.57599 0.00500368 0
M  V30 9138 C 868.922 1.81561 0.727654 0
M  V30 9139 C 869.302 0.871604 1.92266 0
M  V30 9140 O 868.65 -0.0808232 2.28357 0
M  V30 9141 C 868.86 3.29922 1.13809 0
M  V30 9142 C 870.208 3.95531 1.54403 0
M  V30 9143 O 871.232 3.34215 1.23202 0
M  V30 9144 O 870.091 5.03535 2.12402 0
M  V30 9145 H 867.185 0.747462 0.353878 0
M  V30 9146 H 869.731 1.69688 -0.0200667 0
M  V30 9147 H 868.503 3.90253 0.286078 0
M  V30 9148 H 868.126 3.46775 1.94507 0
M  V30 9149 N 869.123 -0.277682 1.55134 0
M  V30 9150 C 870.086 -1.32635 1.86924 0
M  V30 9151 C 871.086 -1.42578 0.743507 0
M  V30 9152 O 872.276 -1.4181 1.01171 0
M  V30 9153 C 869.408 -2.70832 2.07034 0
M  V30 9154 H 870.601 -1.0568 2.80663 0
M  V30 9155 H 868.154 -0.515517 1.47554 0
M  V30 9156 H 868.889 -3.02974 1.15661 0
M  V30 9157 H 868.674 -2.65001 2.88993 0
M  V30 9158 H 870.164 -3.46611 2.32918 0
M  V30 9159 N 870.601 -1.47988 -0.541979 0
M  V30 9160 C 871.826 -1.59286 -1.32826 0
M  V30 9161 C 872.251 -0.24894 -1.86445 0
M  V30 9162 O 871.609 0.777581 -1.63778 0
M  V30 9163 C 871.657 -2.6334 -2.46343 0
M  V30 9164 O 870.761 -2.19667 -3.49028 0
M  V30 9165 H 870.102 -0.534543 -0.393903 0
M  V30 9166 H 872.632 -1.93885 -0.653427 0
M  V30 9167 H 872.642 -2.84238 -2.92699 0
M  V30 9168 H 871.317 -3.60913 -2.06675 0
M  V30 9169 H 869.894 -2.08932 -3.08872 0
M  V30 9170 N 872.079 0.78992 -1.36375 0
M  V30 9171 C 873.328 1.54296 -1.29906 0
M  V30 9172 C 873.641 1.95234 0.119651 0
M  V30 9173 O 874.847 2.69762 0.306708 0
M  V30 9174 C 873.303 2.78533 -2.27919 0
M  V30 9175 C 872.911 2.44767 -3.75224 0
M  V30 9176 C 874.655 3.56516 -2.30427 0
M  V30 9177 C 872.562 3.65397 -4.65015 0
M  V30 9178 H 871.492 0.579214 -0.482729 0
M  V30 9179 H 874.143 0.866845 -1.61735 0
M  V30 9180 H 872.525 3.47941 -1.89084 0
M  V30 9181 H 873.699 1.83259 -4.22792 0
M  V30 9182 H 872.014 1.79996 -3.75487 0
M  V30 9183 H 874.611 4.46143 -2.94722 0
M  V30 9184 H 874.954 3.95063 -1.31266 0
M  V30 9185 H 875.487 2.94087 -2.67876 0
M  V30 9186 H 872.226 3.31946 -5.65236 0
M  V30 9187 H 871.746 4.26072 -4.22164 0
M  V30 9188 H 873.425 4.32431 -4.81261 0
M  V30 9189 N 873.557 1.20646 1.01402 0
M  V30 9190 C 874.52 0.959314 2.08158 0
M  V30 9191 C 875.52 -0.0661558 1.60664 0
M  V30 9192 O 876.71 0.170177 1.73367 0
M  V30 9193 C 873.842 0.444785 3.37986 0
M  V30 9194 H 875.035 1.90631 2.31517 0
M  V30 9195 H 872.588 1.02219 1.18241 0
M  V30 9196 H 873.323 -0.507553 3.20304 0
M  V30 9197 H 873.108 1.18435 3.73785 0
M  V30 9198 H 874.598 0.291443 4.16582 0
M  V30 9199 N 875.035 -1.20752 1.01276 0
M  V30 9200 C 875.985 -2.21252 0.550602 0
M  V30 9201 C 876.969 -1.56052 -0.391985 0
M  V30 9202 O 878.161 -1.75682 -0.215575 0
M  V30 9203 C 875.29 -3.43112 -0.113601 0
M  V30 9204 C 874.376 -4.15485 0.850465 0
M  V30 9205 N 874.767 -4.64301 2.00643 0
M  V30 9206 C 873.065 -4.40932 0.670476 0
M  V30 9207 C 873.766 -5.197 2.61317 0
M  V30 9208 N 872.742 -5.09534 1.8941 0
M  V30 9209 H 876.544 -2.56657 1.43194 0
M  V30 9210 H 874.058 -1.36646 0.877597 0
M  V30 9211 H 876.055 -4.1433 -0.462211 0
M  V30 9212 H 874.715 -3.09213 -0.990825 0
M  V30 9213 H 875.726 -4.59637 2.38651 0
M  V30 9214 H 872.403 -4.17197 -0.159016 0
M  V30 9215 H 873.793 -5.67873 3.59123 0
M  V30 9216 N 876.513 -0.788492 -1.36457 0
M  V30 9217 C 877.929 -0.470063 -1.52521 0
M  V30 9218 C 878.129 1.01176 -1.74258 0
M  V30 9219 O 877.185 1.79726 -1.77355 0
M  V30 9220 C 878.498 -1.2997 -2.71161 0
M  V30 9221 C 880.046 -1.2933 -2.85031 0
M  V30 9222 C 880.521 -2.10665 -4.06674 0
M  V30 9223 N 882.012 -2.08107 -4.13819 0
M  V30 9224 C 882.747 -2.6781 -5.07016 0
M  V30 9225 N 882.243 -3.36369 -6.05663 0
M  V30 9226 N 884.036 -2.57549 -4.99625 0
M  V30 9227 H 876.187 -1.7484 -1.20602 0
M  V30 9228 H 878.45 -0.743159 -0.588574 0
M  V30 9229 H 878.156 -2.35051 -2.61618 0
M  V30 9230 H 878.03 -0.940367 -3.6529 0
M  V30 9231 H 880.417 -0.250414 -2.94036 0
M  V30 9232 H 880.498 -1.69239 -1.91812 0
M  V30 9233 H 880.142 -3.14984 -3.98431 0
M  V30 9234 H 880.072 -1.68128 -4.9904 0
M  V30 9235 H 882.563 -1.58208 -3.43189 0
M  V30 9236 H 882.876 -3.79258 -6.73338 0
M  V30 9237 H 881.221 -3.40471 -6.05891 0
M  V30 9238 H 884.412 -2.0359 -4.21508 0
M  V30 9239 H 884.585 -3.0437 -5.72069 0
M  V30 9240 N 877.991 1.48044 -0.54043 0
M  V30 9241 C 879.238 2.02497 -0.0101567 0
M  V30 9242 C 879.566 1.41651 1.33286 0
M  V30 9243 O 878.821 0.555504 1.8765 0
M  V30 9244 C 879.12 3.57085 0.150008 0
M  V30 9245 C 878.786 4.36769 -1.11998 0
M  V30 9246 C 877.448 4.58261 -1.46801 0
M  V30 9247 C 879.8 4.82848 -1.96232 0
M  V30 9248 C 877.128 5.23079 -2.65717 0
M  V30 9249 C 879.48 5.48977 -3.14335 0
M  V30 9250 C 878.144 5.68705 -3.49472 0
M  V30 9251 H 877.414 0.740991 -0.00371661 0
M  V30 9252 H 880.061 1.77909 -0.708562 0
M  V30 9253 H 878.366 3.80572 0.931259 0
M  V30 9254 H 880.063 3.96851 0.575384 0
M  V30 9255 H 876.653 4.20309 -0.838957 0
M  V30 9256 H 880.837 4.66038 -1.70654 0
M  V30 9257 H 876.093 5.36549 -2.93129 0
M  V30 9258 H 880.267 5.83649 -3.79904 0
M  V30 9259 H 877.894 6.18703 -4.41713 0
M  V30 9260 N 879.47 0.276058 1.55163 0
M  V30 9261 C 880.42 -0.625549 2.19251 0
M  V30 9262 C 881.404 -1.11769 1.15744 0
M  V30 9263 O 882.596 -1.0626 1.41555 0
M  V30 9264 C 879.725 -1.80879 2.91784 0
M  V30 9265 C 878.811 -1.33379 4.0258 0
M  V30 9266 N 879.202 -0.575002 5.02521 0
M  V30 9267 C 877.5 -1.61666 4.15668 0
M  V30 9268 C 878.201 -0.325164 5.8079 0
M  V30 9269 N 877.177 -0.897851 5.36134 0
M  V30 9270 H 880.979 -0.0379943 2.93875 0
M  V30 9271 H 878.493 0.079661 1.62205 0
M  V30 9272 H 880.49 -2.466 3.36146 0
M  V30 9273 H 879.15 -2.40028 2.1867 0
M  V30 9274 H 880.161 -0.222256 5.17423 0
M  V30 9275 H 876.838 -2.21745 3.53745 0
M  V30 9276 H 878.228 0.282598 6.71305 0
M  V30 9277 N 880.948 -1.576 0.00335426 0
M  V30 9278 C 882.194 -1.90996 -0.681799 0
M  V30 9279 C 882.527 -0.877643 -1.73237 0
M  V30 9280 O 881.802 0.103183 -1.94226 0
M  V30 9281 C 882.085 -3.34961 -1.32187 0
M  V30 9282 C 881.938 -4.48911 -0.28261 0
M  V30 9283 C 883.257 -3.78408 -2.24711 0
M  V30 9284 H 880.376 -0.694596 -0.246386 0
M  V30 9285 H 883.018 -1.89919 0.055336 0
M  V30 9286 H 881.168 -3.36008 -1.95014 0
M  V30 9287 H 882.84 -4.59999 0.346241 0
M  V30 9288 H 881.083 -4.32 0.394768 0
M  V30 9289 H 881.754 -5.46609 -0.769576 0
M  V30 9290 H 884.23 -3.78934 -1.71897 0
M  V30 9291 H 883.106 -4.79885 -2.66461 0
M  V30 9292 H 883.367 -3.12464 -3.1276 0
M  V30 9293 N 882.426 0.269451 -1.5528 0
M  V30 9294 C 883.359 1.3588 -1.83336 0
M  V30 9295 C 884.337 1.4739 -0.68666 0
M  V30 9296 O 885.521 1.63959 -0.930037 0
M  V30 9297 C 882.648 2.73483 -1.99812 0
M  V30 9298 C 881.694 2.79239 -3.22378 0
M  V30 9299 S 882.527 2.38125 -4.79642 0
M  V30 9300 C 883.683 3.77697 -4.99095 0
M  V30 9301 H 883.916 1.11878 -2.75446 0
M  V30 9302 H 881.449 0.469268 -1.47096 0
M  V30 9303 H 883.407 3.52725 -2.09989 0
M  V30 9304 H 882.068 2.94735 -1.08583 0
M  V30 9305 H 881.261 3.80243 -3.30804 0
M  V30 9306 H 880.863 2.08022 -3.1081 0
M  V30 9307 H 883.155 4.72999 -4.85055 0
M  V30 9308 H 884.098 3.7422 -6.01136 0
M  V30 9309 H 884.506 3.69164 -4.27058 0
M  V30 9310 N 883.904 1.48273 0.534124 0
M  V30 9311 C 885.32 1.34302 0.862272 0
M  V30 9312 C 885.52 0.350902 1.98421 0
M  V30 9313 O 884.576 -0.229364 2.51456 0
M  V30 9314 C 885.889 2.74227 1.23371 0
M  V30 9315 C 887.437 2.82684 1.34383 0
M  V30 9316 C 887.912 4.23301 1.74871 0
M  V30 9317 N 889.403 4.25954 1.81981 0
M  V30 9318 C 890.138 5.31693 2.14686 0
M  V30 9319 N 889.634 6.47714 2.45844 0
M  V30 9320 N 891.427 5.19084 2.15657 0
M  V30 9321 H 883.578 2.11397 -0.206215 0
M  V30 9322 H 885.841 0.947537 -0.0296116 0
M  V30 9323 H 885.547 3.48368 0.482967 0
M  V30 9324 H 885.421 3.07485 2.18478 0
M  V30 9325 H 887.808 2.08801 2.08534 0
M  V30 9326 H 887.889 2.5305 0.374063 0
M  V30 9327 H 887.533 4.97699 1.01282 0
M  V30 9328 H 887.463 4.50376 2.7289 0
M  V30 9329 H 889.954 3.42266 1.60196 0
M  V30 9330 H 890.267 7.2414 2.69892 0
M  V30 9331 H 888.612 6.50995 2.43372 0
M  V30 9332 H 891.803 4.27463 1.9077 0
M  V30 9333 H 891.976 6.01592 2.40813 0
M  V30 9334 N 885.382 -0.782676 1.36792 0
M  V30 9335 C 886.292 -1.92679 1.33835 0
M  V30 9336 C 887.308 -1.72344 0.23952 0
M  V30 9337 O 888.484 -1.95766 0.473045 0
M  V30 9338 C 885.549 -3.27644 1.1336 0
M  V30 9339 C 884.61 -3.6071 2.32781 0
M  V30 9340 C 883.843 -4.89234 2.13273 0
M  V30 9341 O 884.066 -5.59468 1.11136 0
M  V30 9342 O 883 -5.21112 3.01208 0
M  V30 9343 H 886.826 -1.98124 2.30175 0
M  V30 9344 H 884.411 -0.923887 1.17408 0
M  V30 9345 H 886.293 -4.08394 1.03886 0
M  V30 9346 H 884.968 -3.23076 0.200868 0
M  V30 9347 H 883.875 -2.80238 2.47825 0
M  V30 9348 H 885.208 -3.70008 3.24584 0
M  V30 9349 N 886.86 -1.21182 -1.00761 0
M  V30 9350 C 887.807 -0.968741 -2.09485 0
M  V30 9351 C 888.777 0.104325 -1.65772 0
M  V30 9352 O 889.962 -0.0422587 -1.90753 0
M  V30 9353 C 887.102 -0.536686 -3.40901 0
M  V30 9354 C 886.215 -1.6789 -3.98041 0
M  V30 9355 C 885.35 -1.19627 -5.17555 0
M  V30 9356 C 884.389 -2.31099 -5.66798 0
M  V30 9357 N 883.526 -1.83988 -6.77564 0
M  V30 9358 H 888.366 -1.89952 -2.29613 0
M  V30 9359 H 885.903 -0.946688 -1.12589 0
M  V30 9360 H 887.861 -0.26745 -4.16342 0
M  V30 9361 H 886.491 0.357092 -3.20819 0
M  V30 9362 H 885.543 -2.06284 -3.19611 0
M  V30 9363 H 886.855 -2.51794 -4.30582 0
M  V30 9364 H 886.009 -0.883539 -6.00232 0
M  V30 9365 H 884.748 -0.327244 -4.86601 0
M  V30 9366 H 883.753 -2.63178 -4.82719 0
M  V30 9367 H 884.978 -3.18493 -5.99782 0
M  V30 9368 H 882.924 -0.994257 -6.48422 0
M  V30 9369 H 882.841 -2.61466 -7.09346 0
M  V30 9370 H 884.109 -1.55741 -7.63783 0
M  V30 9371 N 888.338 1.20213 -1.01915 0
M  V30 9372 C 889.288 2.20957 -0.562327 0
M  V30 9373 C 890.272 1.56258 0.383704 0
M  V30 9374 O 891.464 1.75794 0.206255 0
M  V30 9375 C 888.593 3.43167 0.0954035 0
M  V30 9376 C 887.679 4.15028 -0.872487 0
M  V30 9377 N 888.07 4.63231 -2.03103 0
M  V30 9378 C 886.368 4.4057 -0.69385 0
M  V30 9379 C 887.069 5.18307 -2.64069 0
M  V30 9380 N 886.045 5.08522 -1.9211 0
M  V30 9381 H 889.847 2.55894 -1.44553 0
M  V30 9382 H 887.361 1.36178 -0.884831 0
M  V30 9383 H 889.358 4.14569 0.440232 0
M  V30 9384 H 888.018 3.09734 0.974413 0
M  V30 9385 H 889.029 4.58365 -2.41086 0
M  V30 9386 H 885.706 4.17276 0.136889 0
M  V30 9387 H 887.096 5.65961 -3.6213 0
M  V30 9388 N 889.816 0.795718 1.36037 0
M  V30 9389 C 891.227 0.433379 1.816 0
M  V30 9390 C 891.578 -1.04341 1.66155 0
M  V30 9391 O 890.703 -1.81004 1.18603 0
M  V30 9392 C 891.298 0.77985 3.29703 0
M  V30 9393 C 889.857 0.470256 3.73451 0
M  V30 9394 C 889.004 1.01119 2.58206 0
M  V30 9395 H 891.955 0.988317 1.24169 0
M  V30 9396 H 891.976 0.0732898 3.80429 0
M  V30 9397 H 891.488 1.85473 3.40913 0
M  V30 9398 H 889.589 -0.596332 3.67797 0
M  V30 9399 H 889.702 0.995276 4.68648 0
M  V30 9400 H 888.066 0.434077 2.50974 0
M  V30 9401 H 888.849 2.09196 2.72198 0
M  V30 9402 N 891.294 -1.47756 0.548274 0
M  V30 9403 C 892.204 -2.33678 -0.207773 0
M  V30 9404 C 893.22 -1.47636 -0.920843 0
M  V30 9405 O 894.396 -1.80583 -0.89173 0
M  V30 9406 C 891.461 -3.24147 -1.23003 0
M  V30 9407 C 890.522 -4.26073 -0.52535 0
M  V30 9408 C 889.755 -5.12219 -1.4989 0
M  V30 9409 O 889.978 -5.0066 -2.73305 0
M  V30 9410 O 888.912 -5.93051 -1.02828 0
M  V30 9411 H 892.738 -2.99609 0.496794 0
M  V30 9412 H 890.323 -1.4617 0.308982 0
M  V30 9413 H 892.205 -3.80055 -1.82034 0
M  V30 9414 H 890.88 -2.60855 -1.91668 0
M  V30 9415 H 889.787 -3.7395 0.105927 0
M  V30 9416 H 891.12 -4.92054 0.119686 0
M  V30 9417 N 892.772 -0.284283 -1.55015 0
M  V30 9418 C 893.719 0.599194 -2.22886 0
M  V30 9419 C 894.689 1.14264 -1.20553 0
M  V30 9420 O 895.874 1.19025 -1.49123 0
M  V30 9421 C 893.014 1.77317 -2.96062 0
M  V30 9422 C 892.127 1.26271 -4.13134 0
M  V30 9423 C 891.262 2.39922 -4.73931 0
M  V30 9424 C 890.301 1.85925 -5.8318 0
M  V30 9425 N 889.438 2.93084 -6.38002 0
M  V30 9426 H 894.278 0.0137816 -2.97997 0
M  V30 9427 H 891.815 -0.00496503 -1.47099 0
M  V30 9428 H 893.773 2.46339 -3.36709 0
M  V30 9429 H 892.403 2.33047 -2.23358 0
M  V30 9430 H 891.455 0.465296 -3.77544 0
M  V30 9431 H 892.767 0.827284 -4.91892 0
M  V30 9432 H 891.921 3.1692 -5.17346 0
M  V30 9433 H 890.66 2.86784 -3.9447 0
M  V30 9434 H 889.665 1.07409 -5.39206 0
M  V30 9435 H 890.89 1.39987 -6.64515 0
M  V30 9436 H 888.836 3.3931 -5.61431 0
M  V30 9437 H 888.753 2.53986 -7.12058 0
M  V30 9438 H 890.021 3.7003 -6.86075 0
M  V30 9439 N 894.251 1.57596 -0.0117121 0
M  V30 9440 C 895.498 1.91071 0.670667 0
M  V30 9441 C 895.826 0.886457 1.73125 0
M  V30 9442 O 895.081 -0.107135 1.95407 0
M  V30 9443 C 895.38 3.31296 1.34082 0
M  V30 9444 C 895.046 4.49011 0.412305 0
M  V30 9445 C 893.708 4.80945 0.156691 0
M  V30 9446 C 896.06 5.20709 -0.226294 0
M  V30 9447 C 893.388 5.81943 -0.745619 0
M  V30 9448 C 895.74 6.22668 -1.11655 0
M  V30 9449 C 894.404 6.53053 -1.38123 0
M  V30 9450 H 893.674 0.69918 0.245415 0
M  V30 9451 H 896.321 1.91373 -0.0697511 0
M  V30 9452 H 894.626 3.27174 2.15557 0
M  V30 9453 H 896.323 3.54461 1.87506 0
M  V30 9454 H 892.913 4.24067 0.621705 0
M  V30 9455 H 897.097 4.96282 -0.0418456 0
M  V30 9456 H 892.353 6.03839 -0.958566 0
M  V30 9457 H 896.527 6.77351 -1.61767 0
M  V30 9458 H 894.154 7.31132 -2.08208 0
M  V30 9459 N 895.729 -0.261212 1.5542 0
M  V30 9460 C 896.677 -1.34298 1.89913 0
M  V30 9461 C 897.671 -1.50547 0.776665 0
M  V30 9462 O 898.877 -1.52191 0.961139 0
M  V30 9463 H 895.252 -0.4494 0.602946 0
M  V30 9464 H 897.223 -1.02464 2.80256 0
M  V30 9465 C 895.972 -2.69423 2.19788 0
M  V30 9466 H 895.295 -2.57715 3.05652 0
M  V30 9467 H 896.735 -3.44026 2.47835 0
M  V30 9468 C 895.194 -3.21423 1.00939 0
M  V30 9469 O 895.724 -4.00921 0.250034 0
M  V30 9470 N 893.93 -2.7926 0.803883 0
M  V30 9471 H 893.477 -2.14724 1.42308 0
M  V30 9472 H 893.435 -3.14398 0.0103257 0
M  V30 9473 N 897.207 -1.48554 -0.526253 0
M  V30 9474 C 898.432 -1.60686 -1.31129 0
M  V30 9475 C 898.857 -0.268701 -1.86171 0
M  V30 9476 O 898.215 0.760167 -1.64594 0
M  V30 9477 C 898.263 -2.65938 -2.43536 0
M  V30 9478 O 897.367 -2.23356 -3.46678 0
M  V30 9479 H 896.708 -0.538691 -0.388211 0
M  V30 9480 H 899.238 -1.94567 -0.632826 0
M  V30 9481 H 899.248 -2.87327 -2.89668 0
M  V30 9482 H 897.923 -3.63085 -2.02835 0
M  V30 9483 H 896.5 -2.12196 -3.06639 0
M  V30 9484 N 898.685 0.775411 -1.37205 0
M  V30 9485 C 900.101 1.07546 -1.17924 0
M  V30 9486 C 900.301 2.01496 -0.0128897 0
M  V30 9487 O 899.357 2.44039 0.64816 0
M  V30 9488 C 900.67 1.67647 -2.49629 0
M  V30 9489 C 902.218 1.79923 -2.56119 0
M  V30 9490 C 902.693 2.43438 -3.87946 0
M  V30 9491 N 904.184 2.50893 -3.89368 0
M  V30 9492 C 904.919 3.00881 -4.88117 0
M  V30 9493 N 904.415 3.5107 -5.97262 0
M  V30 9494 N 906.208 2.99722 -4.75524 0
M  V30 9495 H 898.359 0.151524 -2.11859 0
M  V30 9496 H 900.622 0.129845 -0.939066 0
M  V30 9497 H 900.328 1.06082 -3.3532 0
M  V30 9498 H 900.202 2.66988 -2.66453 0
M  V30 9499 H 902.589 2.40621 -1.70838 0
M  V30 9500 H 902.67 0.793482 -2.43182 0
M  V30 9501 H 902.314 1.8338 -4.73639 0
M  V30 9502 H 902.244 3.44611 -3.98184 0
M  V30 9503 H 904.735 2.1537 -3.10522 0
M  V30 9504 H 905.048 3.87604 -6.68568 0
M  V30 9505 H 903.393 3.49184 -6.00912 0
M  V30 9506 H 906.584 2.5981 -3.8938 0
M  V30 9507 H 906.757 3.38369 -5.52639 0
M  V30 9508 N 900.163 1.21714 1.00117 0
M  V30 9509 C 901.096 0.923113 2.08696 0
M  V30 9510 C 902.074 -0.130827 1.62073 0
M  V30 9511 O 903.258 -0.00103064 1.885 0
M  V30 9512 C 900.385 0.386807 3.36484 0
M  V30 9513 C 899.431 1.42414 4.0202 0
M  V30 9514 S 900.264 2.99466 4.43937 0
M  V30 9515 C 901.42 2.47452 5.74907 0
M  V30 9516 H 901.653 1.84258 2.33315 0
M  V30 9517 H 899.186 1.0473 1.1345 0
M  V30 9518 H 901.144 0.0839547 4.10414 0
M  V30 9519 H 899.805 -0.511413 3.09909 0
M  V30 9520 H 898.998 0.998593 4.94008 0
M  V30 9521 H 898.6 1.67527 3.34381 0
M  V30 9522 H 900.892 1.88177 6.50842 0
M  V30 9523 H 901.835 3.37898 6.22279 0
M  V30 9524 H 902.243 1.89027 5.31911 0
M  V30 9525 N 901.641 -1.19671 1.02551 0
M  V30 9526 C 902.588 -2.22773 0.603394 0
M  V30 9527 C 903.558 -1.61669 -0.381081 0
M  V30 9528 O 904.743 -1.88756 -0.278505 0
M  V30 9529 C 901.883 -3.45073 -0.0431034 0
M  V30 9530 C 900.996 -4.20574 0.987006 0
M  V30 9531 C 900.131 -5.30291 0.310626 0
M  V30 9532 C 899.17 -5.97545 1.32688 0
M  V30 9533 N 898.307 -6.98833 0.676542 0
M  V30 9534 H 903.147 -2.58238 1.48719 0
M  V30 9535 H 900.684 -1.26881 0.744286 0
M  V30 9536 H 902.642 -4.14925 -0.435141 0
M  V30 9537 H 901.272 -3.10274 -0.890495 0
M  V30 9538 H 900.324 -3.497 1.49713 0
M  V30 9539 H 901.636 -4.66736 1.75952 0
M  V30 9540 H 900.79 -6.06547 -0.136438 0
M  V30 9541 H 899.529 -4.8519 -0.49412 0
M  V30 9542 H 898.534 -5.20043 1.78424 0
M  V30 9543 H 899.759 -6.4473 2.13306 0
M  V30 9544 H 897.705 -6.55911 -0.108172 0
M  V30 9545 H 897.622 -7.43168 1.38699 0
M  V30 9546 H 898.89 -7.79088 0.253367 0
M  V30 9547 N 903.119 -0.802921 -1.35613 0
M  V30 9548 C 904.067 -0.198783 -2.31749 0
M  V30 9549 C 905.061 0.649416 -1.56458 0
M  V30 9550 O 906.267 0.542989 -1.71615 0
M  V30 9551 H 902.642 -0.0455177 -0.750621 0
M  V30 9552 H 904.613 -1.02479 -2.80251 0
M  V30 9553 C 903.362 0.641066 -3.41739 0
M  V30 9554 H 902.685 -0.00226244 -3.998 0
M  V30 9555 H 904.125 1.03022 -4.11294 0
M  V30 9556 C 902.584 1.80505 -2.84464 0
M  V30 9557 O 903.114 2.90235 -2.77717 0
M  V30 9558 N 901.32 1.61542 -2.41563 0
M  V30 9559 H 900.867 0.722863 -2.4725 0
M  V30 9560 H 900.825 2.39581 -2.03589 0
M  V30 9561 N 904.597 1.47463 -0.556102 0
M  V30 9562 C 905.544 2.29998 0.192213 0
M  V30 9563 C 906.514 1.38993 0.909403 0
M  V30 9564 O 907.699 1.67954 0.905316 0
M  V30 9565 C 904.839 3.22932 1.21692 0
M  V30 9566 C 903.952 4.29027 0.505908 0
M  V30 9567 C 903.087 5.09114 1.51581 0
M  V30 9568 C 902.126 6.06984 0.789714 0
M  V30 9569 N 901.263 6.80033 1.74639 0
M  V30 9570 H 906.103 2.93468 -0.517734 0
M  V30 9571 H 903.64 1.44654 -0.267147 0
M  V30 9572 H 905.598 3.75234 1.8236 0
M  V30 9573 H 904.228 2.61329 1.89491 0
M  V30 9574 H 903.28 3.7979 -0.215276 0
M  V30 9575 H 904.592 4.9876 -0.062958 0
M  V30 9576 H 903.746 5.6556 2.19606 0
M  V30 9577 H 902.485 4.3928 2.11859 0
M  V30 9578 H 901.49 5.49717 0.0955382 0
M  V30 9579 H 902.715 6.78827 0.192688 0
M  V30 9580 H 900.661 6.12931 2.33777 0
M  V30 9581 H 900.578 7.45933 1.22965 0
M  V30 9582 H 901.846 7.41054 2.41782 0
M  V30 9583 N 906.075 0.2925 1.54862 0
M  V30 9584 C 907.005 -0.580677 2.26165 0
M  V30 9585 C 907.986 -1.14485 1.25806 0
M  V30 9586 O 909.171 -1.17577 1.54562 0
M  V30 9587 C 906.301 -1.75668 2.99596 0
M  V30 9588 C 905.255 -1.32325 4.07031 0
M  V30 9589 C 904.581 -2.58374 4.68131 0
M  V30 9590 C 905.881 -0.460703 5.20264 0
M  V30 9591 H 907.575 0.0140075 2.99397 0
M  V30 9592 H 905.121 0.00817706 1.43998 0
M  V30 9593 H 907.074 -2.37356 3.48195 0
M  V30 9594 H 905.798 -2.37747 2.23928 0
M  V30 9595 H 904.457 -0.729477 3.59269 0
M  V30 9596 H 904.105 -3.18749 3.89112 0
M  V30 9597 H 903.805 -2.30078 5.40683 0
M  V30 9598 H 905.329 -3.2088 5.19489 0
M  V30 9599 H 906.743 -0.983037 5.64809 0
M  V30 9600 H 905.14 -0.271881 5.99484 0
M  V30 9601 H 906.21 0.516304 4.82143 0
M  V30 9602 N 907.553 -1.57587 0.0200696 0
M  V30 9603 C 908.799 -1.92539 -0.655764 0
M  V30 9604 C 909.154 -0.896187 -1.70253 0
M  V30 9605 O 908.447 0.0890022 -1.91393 0
M  V30 9606 C 908.641 -3.32002 -1.32323 0
M  V30 9607 C 908.47 -4.48393 -0.342632 0
M  V30 9608 C 907.24 -5.05271 0.0542423 0
M  V30 9609 C 909.438 -5.12747 0.399388 0
M  V30 9610 N 907.42 -6.05181 1.03095 0
M  V30 9611 C 908.791 -6.07674 1.23014 0
M  V30 9612 C 910.846 -4.95761 0.461065 0
M  V30 9613 C 909.549 -6.87442 2.11698 0
M  V30 9614 C 911.575 -5.7613 1.33521 0
M  V30 9615 C 910.937 -6.70666 2.15376 0
M  V30 9616 H 907.036 -0.75256 -0.212549 0
M  V30 9617 H 909.62 -1.94514 0.0851247 0
M  V30 9618 H 907.791 -3.30863 -2.0343 0
M  V30 9619 H 909.523 -3.54327 -1.95537 0
M  V30 9620 H 906.278 -4.72529 -0.318327 0
M  V30 9621 H 906.702 -6.59824 1.51528 0
M  V30 9622 H 911.344 -4.22506 -0.15752 0
M  V30 9623 H 909.062 -7.60008 2.74616 0
M  V30 9624 H 912.648 -5.65023 1.38711 0
M  V30 9625 H 911.528 -7.31772 2.81922 0
M  V30 9626 N 909.032 0.252966 -1.55557 0
M  V30 9627 C 910.262 0.998115 -1.8089 0
M  V30 9628 C 910.67 1.79679 -0.592623 0
M  V30 9629 O 910.013 1.78151 0.448093 0
M  V30 9630 C 910.075 1.98878 -2.99479 0
M  V30 9631 C 909.739 1.37761 -4.35742 0
M  V30 9632 C 910.736 0.783142 -5.13968 0
M  V30 9633 C 908.421 1.39879 -4.8243 0
M  V30 9634 C 910.415 0.218004 -6.37027 0
M  V30 9635 C 908.102 0.829801 -6.0544 0
M  V30 9636 C 909.1 0.240426 -6.82577 0
M  V30 9637 O 908.788 -0.319797 -8.03264 0
M  V30 9638 H 908.52 0.29963 -0.605969 0
M  V30 9639 H 911.074 0.282978 -2.03441 0
M  V30 9640 H 909.304 2.74206 -2.72669 0
M  V30 9641 H 910.993 2.59686 -3.11959 0
M  V30 9642 H 911.759 0.759326 -4.79019 0
M  V30 9643 H 907.638 1.84692 -4.22386 0
M  V30 9644 H 911.182 -0.242654 -6.97178 0
M  V30 9645 H 907.079 0.850924 -6.39867 0
M  V30 9646 H 907.847 -0.211078 -8.18228 0
M  V30 9647 N 910.51 1.48831 0.518367 0
M  V30 9648 C 911.757 1.57439 1.27355 0
M  V30 9649 C 912.085 0.25338 1.92843 0
M  V30 9650 O 911.34 -0.757323 1.80452 0
M  V30 9651 C 911.639 2.67003 2.3758 0
M  V30 9652 C 911.305 4.09069 1.89667 0
M  V30 9653 C 909.967 4.47733 1.76319 0
M  V30 9654 C 912.319 4.98052 1.53603 0
M  V30 9655 C 909.647 5.73173 1.25258 0
M  V30 9656 C 911.999 6.23992 1.04001 0
M  V30 9657 C 910.663 6.61503 0.892784 0
M  V30 9658 H 909.933 0.57611 0.466023 0
M  V30 9659 H 912.58 1.82595 0.577166 0
M  V30 9660 H 910.885 2.35751 3.12936 0
M  V30 9661 H 912.582 2.70876 2.95681 0
M  V30 9662 H 909.172 3.7854 2.01011 0
M  V30 9663 H 913.356 4.68849 1.62771 0
M  V30 9664 H 908.612 6.0095 1.12557 0
M  V30 9665 H 912.786 6.92331 0.751706 0
M  V30 9666 H 910.413 7.58587 0.494939 0
M  V30 9667 N 911.988 -0.768124 1.37614 0
M  V30 9668 C 912.898 -1.91249 1.35871 0
M  V30 9669 C 913.914 -1.7208 0.257786 0
M  V30 9670 O 915.09 -1.95253 0.493782 0
M  V30 9671 C 912.155 -3.26423 1.16829 0
M  V30 9672 C 911.216 -3.5822 2.36594 0
M  V30 9673 C 910.449 -4.86945 2.1845 0
M  V30 9674 O 910.672 -5.58258 1.17064 0
M  V30 9675 O 909.606 -5.17888 3.06718 0
M  V30 9676 H 913.432 -1.95671 2.32264 0
M  V30 9677 H 911.017 -0.911382 1.18382 0
M  V30 9678 H 912.899 -4.07269 1.08212 0
M  V30 9679 H 911.574 -3.22845 0.235123 0
M  V30 9680 H 910.481 -2.77594 2.50783 0
M  V30 9681 H 911.814 -3.66545 3.2849 0
M  V30 9682 N 913.466 -1.22244 -0.994698 0
M  V30 9683 C 914.713 -1.04591 -1.73398 0
M  V30 9684 C 915.041 0.419223 -1.89928 0
M  V30 9685 O 914.296 1.32714 -1.43824 0
M  V30 9686 C 914.595 -1.70014 -3.14372 0
M  V30 9687 C 914.261 -3.19903 -3.17762 0
M  V30 9688 C 912.923 -3.60803 -3.18394 0
M  V30 9689 C 915.275 -4.15851 -3.14194 0
M  V30 9690 C 912.603 -4.96135 -3.13157 0
M  V30 9691 C 914.955 -5.51157 -3.10498 0
M  V30 9692 C 913.619 -5.91439 -3.09445 0
M  V30 9693 H 912.889 -0.382725 -0.63451 0
M  V30 9694 H 915.536 -1.51981 -1.16508 0
M  V30 9695 H 913.841 -1.14945 -3.7456 0
M  V30 9696 H 915.538 -1.53848 -3.70313 0
M  V30 9697 H 912.128 -2.87336 -3.18019 0
M  V30 9698 H 916.312 -3.85272 -3.12857 0
M  V30 9699 H 911.568 -5.26578 -3.10685 0
M  V30 9700 H 915.742 -6.2523 -3.06692 0
M  V30 9701 H 913.369 -6.96271 -3.05141 0
M  V30 9702 N 914.944 1.19125 -1.03184 0
M  V30 9703 C 916.192 1.8851 -0.728587 0
M  V30 9704 C 916.513 1.80195 0.74531 0
M  V30 9705 O 915.783 1.21437 1.5372 0
M  V30 9706 H 914.363 0.69784 -0.266511 0
M  V30 9707 H 917.025 1.44607 -1.3067 0
M  V30 9708 H 916.121 2.9477 -1.02554 0
M  V30 9709 N 916.422 0.810101 1.35185 0
M  V30 9710 C 917.65 0.404696 2.02903 0
M  V30 9711 C 918.065 -0.985434 1.61042 0
M  V30 9712 O 917.422 -1.63557 0.809658 0
M  V30 9713 C 917.473 0.482493 3.58266 0
M  V30 9714 O 917.194 1.81782 3.98606 0
M  V30 9715 C 918.695 0.070345 4.43244 0
M  V30 9716 H 915.915 0.163972 0.650657 0
M  V30 9717 H 918.459 1.0947 1.72733 0
M  V30 9718 H 916.614 -0.159296 3.87072 0
M  V30 9719 H 917.028 1.78306 4.93262 0
M  V30 9720 H 918.502 0.175888 5.5172 0
M  V30 9721 H 918.979 -0.984724 4.28018 0
M  V30 9722 H 919.585 0.685427 4.1974 0
M  V30 9723 N 917.9 -1.47166 0.563914 0
M  V30 9724 C 919.125 -2.0735 0.0454698 0
M  V30 9725 C 919.55 -1.41281 -1.24182 0
M  V30 9726 O 918.908 -0.490084 -1.7455 0
M  V30 9727 C 918.956 -3.60378 -0.126453 0
M  V30 9728 O 918.06 -3.94934 -1.18746 0
M  V30 9729 H 917.401 -0.661773 0.0543377 0
M  V30 9730 H 919.931 -1.89086 0.781508 0
M  V30 9731 H 919.941 -4.06593 -0.338554 0
M  V30 9732 H 918.616 -4.07862 0.81373 0
M  V30 9733 H 917.193 -3.60455 -0.955318 0
M  V30 9734 N 919.378 -0.300708 -1.54705 0
M  V30 9735 C 920.288 0.584996 -2.27189 0
M  V30 9736 C 921.304 1.14866 -1.30697 0
M  V30 9737 O 922.48 1.17351 -1.63679 0
M  V30 9738 C 919.545 1.74076 -2.99831 0
M  V30 9739 C 918.606 1.2112 -4.1186 0
M  V30 9740 C 917.839 2.31188 -4.81028 0
M  V30 9741 O 918.062 3.5108 -4.49554 0
M  V30 9742 O 916.996 1.97897 -5.68437 0
M  V30 9743 H 920.822 -0.00298177 -3.037 0
M  V30 9744 H 918.407 -0.0671802 -1.49249 0
M  V30 9745 H 920.289 2.41413 -3.45395 0
M  V30 9746 H 918.964 2.31535 -2.26215 0
M  V30 9747 H 917.871 0.50357 -3.70695 0
M  V30 9748 H 919.204 0.682046 -4.87452 0
M  V30 9749 N 920.856 1.57574 -0.0284266 0
M  V30 9750 C 922.084 1.96071 0.660575 0
M  V30 9751 C 922.499 0.904881 1.65703 0
M  V30 9752 O 921.856 -0.113379 1.82147 0
M  V30 9753 C 921.907 3.34634 1.36756 0
M  V30 9754 O 921.628 4.36167 0.411041 0
M  V30 9755 C 923.129 3.87758 2.14845 0
M  V30 9756 H 920.349 0.645794 0.182183 0
M  V30 9757 H 922.893 2.04311 -0.0879858 0
M  V30 9758 H 921.048 3.27616 2.06753 0
M  V30 9759 H 921.462 5.16493 0.913 0
M  V30 9760 H 922.936 4.87058 2.59767 0
M  V30 9761 H 923.413 3.21967 2.9872 0
M  V30 9762 H 924.019 3.98043 1.49807 0
M  V30 9763 N 922.334 -0.244713 1.55689 0
M  V30 9764 C 923.581 -0.972446 1.77622 0
M  V30 9765 C 923.909 -1.85235 0.593137 0
M  V30 9766 O 923.164 -1.91064 -0.423464 0
M  V30 9767 C 923.463 -1.8617 3.05083 0
M  V30 9768 C 923.129 -1.13696 4.3633 0
M  V30 9769 C 921.791 -0.936679 4.71996 0
M  V30 9770 C 924.143 -0.623451 5.17458 0
M  V30 9771 C 921.471 -0.210612 5.86322 0
M  V30 9772 C 923.823 0.0891587 6.32537 0
M  V30 9773 C 922.487 0.300904 6.66821 0
M  V30 9774 H 921.757 -0.355843 0.649967 0
M  V30 9775 H 924.404 -0.242372 1.8996 0
M  V30 9776 H 922.709 -2.6589 2.87767 0
M  V30 9777 H 924.406 -2.4265 3.19253 0
M  V30 9778 H 920.996 -1.30301 4.08313 0
M  V30 9779 H 925.18 -0.765725 4.90357 0
M  V30 9780 H 920.436 -0.0361062 6.11389 0
M  V30 9781 H 924.61 0.494685 6.94641 0
M  V30 9782 H 922.237 0.865466 7.55257 0
M  V30 9783 N 923.813 -1.49104 -0.510467 0
M  V30 9784 C 924.776 -1.64569 -1.59529 0
M  V30 9785 C 925.776 -0.517937 -1.5223 0
M  V30 9786 O 926.966 -0.784183 -1.55551 0
M  V30 9787 C 924.098 -1.6342 -2.99177 0
M  V30 9788 H 925.291 -2.61318 -1.4715 0
M  V30 9789 H 922.844 -1.37993 -0.734001 0
M  V30 9790 H 923.579 -0.68221 -3.17043 0
M  V30 9791 H 923.364 -2.45312 -3.05883 0
M  V30 9792 H 924.854 -1.77474 -3.78011 0
M  V30 9793 N 925.291 0.760815 -1.38019 0
M  V30 9794 C 926.254 1.85604 -1.34476 0
M  V30 9795 C 927.254 1.58897 -0.24666 0
M  V30 9796 O 928.444 1.66776 -0.50314 0
M  V30 9797 C 925.576 3.22945 -1.09176 0
M  V30 9798 H 926.769 1.90155 -2.31908 0
M  V30 9799 H 924.322 0.961746 -1.23208 0
M  V30 9800 H 925.057 3.24066 -0.123216 0
M  V30 9801 H 924.842 3.43723 -1.88672 0
M  V30 9802 H 926.332 4.03022 -1.09375 0
M  V30 9803 N 926.769 1.22769 0.988202 0
M  V30 9804 C 927.997 1.08155 1.76381 0
M  V30 9805 C 928.412 -0.367573 1.85187 0
M  V30 9806 O 927.769 -1.25455 1.32541 0
M  V30 9807 C 927.82 1.69193 3.19462 0
M  V30 9808 O 927.541 3.08437 3.11125 0
M  V30 9809 C 929.042 1.59915 4.13451 0
M  V30 9810 H 926.262 0.378908 0.553778 0
M  V30 9811 H 928.806 1.6246 1.24206 0
M  V30 9812 H 926.961 1.18939 3.6869 0
M  V30 9813 H 927.375 3.37916 4.0114 0
M  V30 9814 H 928.849 2.07339 5.1158 0
M  V30 9815 H 929.326 0.556546 4.3566 0
M  V30 9816 H 929.932 2.09497 3.70123 0
M  V30 9817 N 928.247 -1.18576 1.03814 0
M  V30 9818 C 929.487 -1.90187 0.748882 0
M  V30 9819 C 929.851 -1.78383 -0.710177 0
M  V30 9820 O 931.052 -2.44678 -1.11293 0
M  V30 9821 C 929.323 -3.36688 1.19901 0
M  V30 9822 S 930.882 -4.26419 1.03501 0
M  V30 9823 H 927.7 -0.656765 0.272362 0
M  V30 9824 H 930.302 -1.43296 1.32991 0
M  V30 9825 H 929.006 -3.42808 2.25635 0
M  V30 9826 H 928.537 -3.88616 0.611669 0
M  V30 9827 H 930.552 -4.96176 -0.0490431 0
M  V30 9828 N 929.725 -0.817259 -1.34754 0
M  V30 9829 C 930.672 -0.233108 -2.2962 0
M  V30 9830 C 931.642 0.638902 -1.53321 0
M  V30 9831 O 932.827 0.581739 -1.81715 0
M  V30 9832 C 929.967 0.603659 -3.39779 0
M  V30 9833 C 929.08 -0.289967 -4.31026 0
M  V30 9834 C 928.215 0.555825 -5.28284 0
M  V30 9835 C 927.254 -0.337539 -6.11169 0
M  V30 9836 N 926.391 0.468847 -7.00533 0
M  V30 9837 H 931.231 -1.04747 -2.78984 0
M  V30 9838 H 928.768 -0.528056 -1.37295 0
M  V30 9839 H 930.726 1.10407 -4.02326 0
M  V30 9840 H 929.356 1.38319 -2.91664 0
M  V30 9841 H 928.408 -0.908552 -3.69391 0
M  V30 9842 H 929.72 -0.977136 -4.89135 0
M  V30 9843 H 928.874 1.12094 -5.96255 0
M  V30 9844 H 927.613 1.27652 -4.70698 0
M  V30 9845 H 926.618 -0.914839 -5.42135 0
M  V30 9846 H 927.843 -1.05626 -6.70835 0
M  V30 9847 H 925.789 1.17332 -6.45422 0
M  V30 9848 H 925.706 -0.160052 -7.55831 0
M  V30 9849 H 926.974 1.01689 -7.72839 0
M  V30 9850 N 931.203 1.46865 -0.571711 0
M  V30 9851 C 932.15 2.30189 0.167808 0
M  V30 9852 C 933.12 1.3995 0.89461 0
M  V30 9853 O 934.305 1.68905 0.887451 0
M  V30 9854 C 931.445 3.24205 1.1826 0
M  V30 9855 C 930.558 4.2954 0.460376 0
M  V30 9856 C 929.693 5.10693 1.46173 0
M  V30 9857 C 928.732 6.07788 0.725291 0
M  V30 9858 N 927.869 6.81847 1.67417 0
M  V30 9859 H 932.709 2.92902 -0.548831 0
M  V30 9860 H 930.246 1.44362 -0.282474 0
M  V30 9861 H 932.204 3.77147 1.7837 0
M  V30 9862 H 930.834 2.63324 1.86709 0
M  V30 9863 H 929.886 3.79541 -0.255546 0
M  V30 9864 H 931.198 4.98665 -0.115855 0
M  V30 9865 H 930.352 5.67857 2.13595 0
M  V30 9866 H 929.091 4.41502 2.07188 0
M  V30 9867 H 928.096 5.49787 0.037228 0
M  V30 9868 H 929.321 6.78993 0.120678 0
M  V30 9869 H 927.267 6.15376 2.27263 0
M  V30 9870 H 927.184 7.47195 1.15046 0
M  V30 9871 H 928.452 7.43577 2.33908 0
M  V30 9872 N 932.681 0.308908 1.54543 0
M  V30 9873 C 933.611 -0.556657 2.26768 0
M  V30 9874 C 934.592 -1.13145 1.27013 0
M  V30 9875 O 935.777 -1.15931 1.558 0
M  V30 9876 C 932.907 -1.72481 3.01443 0
M  V30 9877 C 931.861 -1.28001 4.08411 0
M  V30 9878 C 931.187 -2.53395 4.70845 0
M  V30 9879 C 932.487 -0.405497 5.20724 0
M  V30 9880 H 934.181 0.0457618 2.99365 0
M  V30 9881 H 931.727 0.0234495 1.43981 0
M  V30 9882 H 933.68 -2.3365 3.50693 0
M  V30 9883 H 932.404 -2.35359 2.26437 0
M  V30 9884 H 931.063 -0.69133 3.60022 0
M  V30 9885 H 930.711 -3.14604 3.92471 0
M  V30 9886 H 930.411 -2.2433 5.43093 0
M  V30 9887 H 931.935 -3.15352 5.22863 0
M  V30 9888 H 933.349 -0.923076 5.6582 0
M  V30 9889 H 931.746 -0.208282 5.99738 0
M  V30 9890 H 932.816 0.567412 4.81569 0
M  V30 9891 N 934.159 -1.57557 0.0367827 0
M  V30 9892 C 935.109 -2.07182 -0.95183 0
M  V30 9893 C 936.093 -0.973921 -1.28076 0
M  V30 9894 O 937.285 -1.23741 -1.26559 0
M  V30 9895 C 934.414 -2.60869 -2.23164 0
M  V30 9896 C 933.5 -3.77602 -1.93074 0
M  V30 9897 N 933.891 -4.87923 -1.33283 0
M  V30 9898 C 932.189 -3.86234 -2.23023 0
M  V30 9899 C 932.89 -5.69083 -1.20498 0
M  V30 9900 N 931.866 -5.16233 -1.70306 0
M  V30 9901 H 935.668 -2.89876 -0.484647 0
M  V30 9902 H 933.182 -1.61528 -0.16804 0
M  V30 9903 H 935.179 -2.94716 -2.9487 0
M  V30 9904 H 933.839 -1.79607 -2.70502 0
M  V30 9905 H 934.85 -5.08018 -1.00686 0
M  V30 9906 H 931.527 -3.15891 -2.72981 0
M  V30 9907 H 932.917 -6.6779 -0.741999 0
M  V30 9908 N 935.637 0.236453 -1.55816 0
M  V30 9909 C 936.914 0.986463 -1.68903 0
M  V30 9910 C 937.294 2.02984 -0.579722 0
M  V30 9911 O 936.642 2.24693 0.415389 0
M  V30 9912 C 936.852 1.61038 -3.09625 0
M  V30 9913 C 938.2 2.10829 -3.6856 0
M  V30 9914 O 939.224 1.7096 -3.12492 0
M  V30 9915 O 938.083 2.84064 -4.66873 0
M  V30 9916 H 935.177 0.459837 -0.687371 0
M  V30 9917 H 937.723 0.229412 -1.68142 0
M  V30 9918 H 936.495 0.856232 -3.81817 0
M  V30 9919 H 936.118 2.43336 -3.14441 0
M  V30 9920 N 937.115 1.49373 0.502552 0
M  V30 9921 C 938.065 1.62321 1.60112 0
M  V30 9922 C 939.049 0.47895 1.53606 0
M  V30 9923 O 940.241 0.731824 1.61162 0
M  V30 9924 C 937.37 1.69162 2.98729 0
M  V30 9925 C 936.456 2.89161 3.10237 0
M  V30 9926 N 936.847 4.13256 2.91638 0
M  V30 9927 C 935.145 2.87065 3.41335 0
M  V30 9928 C 935.846 4.93913 3.07287 0
M  V30 9929 N 934.822 4.27249 3.36094 0
M  V30 9930 H 938.624 2.55989 1.44384 0
M  V30 9931 H 936.138 1.46123 0.708644 0
M  V30 9932 H 938.135 1.76536 3.77678 0
M  V30 9933 H 936.795 0.766301 3.15528 0
M  V30 9934 H 937.806 4.4326 2.67844 0
M  V30 9935 H 934.483 2.03905 3.6432 0
M  V30 9936 H 935.873 6.02491 2.97413 0
M  V30 9937 N 938.594 -0.753485 1.38421 0
M  V30 9938 C 939.843 -1.50797 1.33952 0
M  V30 9939 C 940.156 -1.95482 -0.0678464 0
M  V30 9940 O 941.362 -2.7048 -0.235078 0
M  V30 9941 C 939.818 -2.72393 2.35224 0
M  V30 9942 C 939.426 -2.34733 3.81582 0
M  V30 9943 C 941.17 -3.50281 2.39798 0
M  V30 9944 C 939.077 -3.52939 4.7454 0
M  V30 9945 H 938.007 -0.566211 0.497916 0
M  V30 9946 H 940.658 -0.823659 1.63976 0
M  V30 9947 H 939.04 -3.42806 1.98243 0
M  V30 9948 H 940.214 -1.71985 4.27502 0
M  V30 9949 H 938.529 -1.69978 3.80127 0
M  V30 9950 H 941.126 -4.38172 3.06447 0
M  V30 9951 H 941.469 -3.91444 1.41695 0
M  V30 9952 H 942.002 -2.86881 2.75579 0
M  V30 9953 H 938.741 -3.16843 5.73839 0
M  V30 9954 H 938.261 -4.1473 4.33312 0
M  V30 9955 H 939.94 -4.19519 4.92557 0
M  V30 9956 N 940.072 -1.23292 -0.981677 0
M  V30 9957 C 940.982 -1.02964 -2.10798 0
M  V30 9958 C 941.998 0.0254674 -1.73981 0
M  V30 9959 O 943.174 -0.169706 -2.00684 0
M  V30 9960 C 940.239 -0.621934 -3.41076 0
M  V30 9961 C 939.3 -1.75194 -3.91926 0
M  V30 9962 C 938.533 -1.36359 -5.15986 0
M  V30 9963 O 938.756 -0.247265 -5.69864 0
M  V30 9964 O 937.69 -2.18421 -5.60871 0
M  V30 9965 H 941.516 -1.97354 -2.30836 0
M  V30 9966 H 939.101 -1.01986 -1.09175 0
M  V30 9967 H 940.983 -0.405446 -4.19445 0
M  V30 9968 H 939.658 0.29299 -3.22371 0
M  V30 9969 H 938.565 -2.02305 -3.1468 0
M  V30 9970 H 939.898 -2.64513 -4.15083 0
M  V30 9971 N 941.55 1.18024 -1.04442 0
M  V30 9972 C 942.48 2.23988 -0.659683 0
M  V30 9973 C 943.461 1.6669 0.338904 0
M  V30 9974 O 944.646 1.92971 0.21817 0
M  V30 9975 C 941.776 3.4729 -0.0257672 0
M  V30 9976 C 940.73 4.17362 -0.948299 0
M  V30 9977 C 940.056 5.34401 -0.17866 0
M  V30 9978 C 941.356 4.70435 -2.26909 0
M  V30 9979 H 943.05 2.56425 -1.54553 0
M  V30 9980 H 940.596 1.23256 -0.744575 0
M  V30 9981 H 942.549 4.20627 0.255131 0
M  V30 9982 H 941.273 3.14098 0.894981 0
M  V30 9983 H 939.932 3.45928 -1.21364 0
M  V30 9984 H 939.58 4.97458 0.744614 0
M  V30 9985 H 939.28 5.8222 -0.793294 0
M  V30 9986 H 940.804 6.10526 0.0951315 0
M  V30 9987 H 942.218 5.35447 -2.04864 0
M  V30 9988 H 940.615 5.28803 -2.83703 0
M  V30 9989 H 941.685 3.87653 -2.91296 0
M  V30 9990 N 943.028 0.824394 1.34319 0
M  V30 9991 C 943.938 0.24932 2.33271 0
M  V30 9992 C 944.954 -0.617066 1.62691 0
M  V30 9993 O 946.13 -0.524616 1.94447 0
M  V30 9994 C 943.195 -0.578094 3.41846 0
M  V30 9995 C 942.256 0.310866 4.28173 0
M  V30 9996 C 941.489 -0.477153 5.31563 0
M  V30 9997 O 941.712 -1.71028 5.44156 0
M  V30 9998 O 940.646 0.141287 6.01734 0
M  V30 9999 H 944.472 1.06837 2.84288 0
M  V30 10000 H 942.057 0.58657 1.37403 0
M  V30 10001 H 943.939 -1.04878 4.0814 0
M  V30 10002 H 942.614 -1.37444 2.93071 0
M  V30 10003 H 941.521 0.829081 3.64797 0
M  V30 10004 H 942.854 1.07161 4.80393 0
M  V30 10005 N 944.506 -1.46559 0.579492 0
M  V30 10006 C 945.746 -2.04292 0.0664837 0
M  V30 10007 C 946.11 -1.44161 -1.26814 0
M  V30 10008 O 947.311 -1.93074 -1.87018 0
M  V30 10009 C 945.582 -3.574 -0.00167254 0
M  V30 10010 S 947.141 -4.36408 -0.457572 0
M  V30 10011 H 943.959 -0.710092 0.035913 0
M  V30 10012 H 946.561 -1.79644 0.771263 0
M  V30 10013 H 945.265 -3.98683 0.973666 0
M  V30 10014 H 944.796 -3.8658 -0.729321 0
M  V30 10015 H 946.811 -4.65695 -1.71296 0
M  V30 10016 N 945.984 -0.3171 -1.54377 0
M  V30 10017 C 947.261 0.341348 -1.92598 0
M  V30 10018 C 947.641 1.70402 -1.24605 0
M  V30 10019 O 946.989 2.25191 -0.387448 0
M  V30 10020 C 947.199 0.440003 -3.46215 0
M  V30 10021 C 948.547 0.703327 -4.18734 0
M  V30 10022 O 949.571 0.523181 -3.52337 0
M  V30 10023 O 948.43 1.05042 -5.3631 0
M  V30 10024 H 945.524 0.193696 -0.803997 0
M  V30 10025 H 948.07 -0.366341 -1.65699 0
M  V30 10026 H 946.842 -0.517299 -3.87866 0
M  V30 10027 H 946.465 1.19553 -3.792 0
M  V30 10028 N 947.462 1.57535 -0.0451378 0
M  V30 10029 C 948.71 1.92071 0.628743 0
M  V30 10030 C 949.031 0.923635 1.71738 0
M  V30 10031 O 948.301 -0.0324376 1.95873 0
M  V30 10032 H 946.881 0.708995 0.235233 0
M  V30 10033 H 949.543 1.9466 -0.0967177 0
M  V30 10034 H 948.639 2.9314 1.07123 0
M  V30 10035 N 948.94 -0.228186 1.55939 0
M  V30 10036 C 950.186 -0.954964 1.78909 0
M  V30 10037 C 950.519 -1.8425 0.613648 0
M  V30 10038 O 949.794 -1.90604 -0.38737 0
M  V30 10039 C 950.077 -1.79957 3.1191 0
M  V30 10040 C 949.93 -0.938968 4.3989 0
M  V30 10041 C 951.249 -2.77859 3.41295 0
M  V30 10042 H 948.368 -0.345745 0.650868 0
M  V30 10043 H 951.01 -0.224244 1.88672 0
M  V30 10044 H 949.16 -2.42256 3.03717 0
M  V30 10045 H 950.832 -0.333225 4.60095 0
M  V30 10046 H 949.075 -0.244096 4.33113 0
M  V30 10047 H 949.746 -1.56416 5.29375 0
M  V30 10048 H 952.222 -2.25695 3.49572 0
M  V30 10049 H 951.098 -3.34062 4.35538 0
M  V30 10050 H 951.359 -3.55266 2.63132 0
M  V30 10051 N 950.418 -1.49637 -0.494624 0
M  V30 10052 C 951.666 -1.5913 -1.24587 0
M  V30 10053 C 951.987 -0.282828 -1.92938 0
M  V30 10054 O 951.257 0.69825 -1.83034 0
M  V30 10055 H 949.837 -0.586329 -0.462847 0
M  V30 10056 H 952.499 -1.86296 -0.572696 0
M  V30 10057 H 951.595 -2.3906 -2.00641 0
M  V30 10058 N 951.896 0.746133 -1.38819 0
M  V30 10059 C 953.142 1.50768 -1.35635 0
M  V30 10060 C 953.475 1.94132 0.0512435 0
M  V30 10061 O 952.75 1.65979 1.01396 0
M  V30 10062 C 953.033 2.7551 -2.31875 0
M  V30 10063 C 952.886 2.38236 -3.81528 0
M  V30 10064 C 954.205 3.77566 -2.26124 0
M  V30 10065 H 951.324 0.546922 -0.494009 0
M  V30 10066 H 953.966 0.854017 -1.69725 0
M  V30 10067 H 952.116 3.31285 -2.02935 0
M  V30 10068 H 953.788 1.88178 -4.21173 0
M  V30 10069 H 952.031 1.70601 -3.98846 0
M  V30 10070 H 952.702 3.27517 -4.44339 0
M  V30 10071 H 955.178 3.31349 -2.51689 0
M  V30 10072 H 954.054 4.62531 -2.95561 0
M  V30 10073 H 954.315 4.23689 -1.26254 0
M  V30 10074 N 953.375 1.23811 0.975125 0
M  V30 10075 C 954.652 0.9815 1.69192 0
M  V30 10076 C 955.032 -0.498373 2.05133 0
M  V30 10077 O 954.38 -1.47087 1.74864 0
M  V30 10078 C 954.59 1.89701 2.92941 0
M  V30 10079 C 955.938 2.16357 3.65342 0
M  V30 10080 O 956.962 1.87293 3.02985 0
M  V30 10081 O 955.821 2.65675 4.77576 0
M  V30 10082 H 952.915 0.370599 0.739314 0
M  V30 10083 H 955.461 1.34876 1.02988 0
M  V30 10084 H 954.233 2.89719 2.63018 0
M  V30 10085 H 953.856 1.53244 3.66881 0
M  V30 10086 N 954.853 -1.17469 1.05066 0
M  V30 10087 C 955.783 -2.23635 0.671552 0
M  V30 10088 C 956.764 -1.66867 -0.33006 0
M  V30 10089 O 957.949 -1.93084 -0.207933 0
M  V30 10090 C 955.079 -3.47272 0.0441845 0
M  V30 10091 C 954.033 -4.16854 0.97042 0
M  V30 10092 C 953.359 -5.34299 0.206998 0
M  V30 10093 C 954.659 -4.69225 2.29401 0
M  V30 10094 H 956.353 -2.55602 1.55911 0
M  V30 10095 H 953.899 -1.2286 0.751101 0
M  V30 10096 H 955.852 -4.20756 -0.23282 0
M  V30 10097 H 954.576 -3.14568 -0.878311 0
M  V30 10098 H 953.235 -3.4528 1.23197 0
M  V30 10099 H 952.883 -4.97846 -0.718222 0
M  V30 10100 H 952.583 -5.81792 0.82416 0
M  V30 10101 H 954.107 -6.10568 -0.0627525 0
M  V30 10102 H 955.521 -5.34353 2.077 0
M  V30 10103 H 953.918 -5.27291 2.86503 0
M  V30 10104 H 954.988 -3.86102 2.93348 0
M  V30 10105 N 956.331 -0.831506 -1.3388 0
M  V30 10106 C 957.556 -0.435954 -2.02766 0
M  V30 10107 C 957.981 0.952889 -1.62178 0
M  V30 10108 O 957.339 1.62166 -0.810681 0
M  V30 10109 C 957.387 -0.555907 -3.56289 0
M  V30 10110 O 956.491 0.420826 -4.10247 0
M  V30 10111 H 955.832 -0.178248 -0.639628 0
M  V30 10112 H 958.362 -1.1243 -1.70941 0
M  V30 10113 H 958.372 -0.434831 -4.05676 0
M  V30 10114 H 957.047 -1.56881 -3.85177 0
M  V30 10115 H 955.624 0.257919 -3.72007 0
M  V30 10116 N 957.809 1.4625 -0.587256 0
M  V30 10117 C 958.757 2.32076 0.156108 0
M  V30 10118 C 959.751 1.44756 0.879887 0
M  V30 10119 O 960.957 1.61356 0.797759 0
M  V30 10120 H 957.332 0.748808 0.0692098 0
M  V30 10121 H 959.303 2.9258 -0.586497 0
M  V30 10122 C 958.052 3.28008 1.15352 0
M  V30 10123 H 957.375 3.9518 0.60601 0
M  V30 10124 H 958.815 3.90832 1.64396 0
M  V30 10125 C 957.274 2.53691 2.21681 0
M  V30 10126 O 957.804 2.30329 3.29107 0
M  V30 10127 N 956.01 2.14174 1.96412 0
M  V30 10128 H 955.557 2.33374 1.09061 0
M  V30 10129 H 955.515 1.6477 2.67765 0
M  V30 10130 N 959.287 0.325282 1.54207 0
M  V30 10131 C 960.536 -0.27768 1.99779 0
M  V30 10132 C 960.849 -1.5311 1.21723 0
M  V30 10133 O 962.055 -2.21017 1.57682 0
M  V30 10134 C 960.511 -0.545329 3.55745 0
M  V30 10135 C 960.119 0.691143 4.42637 0
M  V30 10136 C 961.863 -1.10815 4.09781 0
M  V30 10137 C 959.77 0.395302 5.90077 0
M  V30 10138 H 958.7 -0.107536 0.746292 0
M  V30 10139 H 961.351 0.437773 1.78202 0
M  V30 10140 H 959.733 -1.32101 3.73317 0
M  V30 10141 H 960.907 1.46653 4.3684 0
M  V30 10142 H 959.222 1.1743 3.99499 0
M  V30 10143 H 961.819 -1.34414 5.1753 0
M  V30 10144 H 962.162 -2.05806 3.6187 0
M  V30 10145 H 962.695 -0.393608 3.95848 0
M  V30 10146 H 959.434 1.31443 6.42186 0
M  V30 10147 H 958.954 -0.34235 5.98822 0
M  V30 10148 H 960.633 0.00576877 6.47 0
M  V30 10149 N 960.765 -1.57509 0.0534917 0
M  V30 10150 C 962.012 -1.92782 -0.619772 0
M  V30 10151 C 962.34 -0.932046 -1.70714 0
M  V30 10152 O 961.595 0.0552891 -1.95622 0
M  V30 10153 C 961.894 -3.34734 -1.25251 0
M  V30 10154 C 961.56 -4.49946 -0.293113 0
M  V30 10155 C 960.222 -4.81191 -0.0291223 0
M  V30 10156 C 962.574 -5.19925 0.364271 0
M  V30 10157 C 959.902 -5.79761 0.899649 0
M  V30 10158 C 962.254 -6.19489 1.28125 0
M  V30 10159 C 960.918 -6.49161 1.55389 0
M  V30 10160 H 960.188 -0.705441 -0.226791 0
M  V30 10161 H 962.835 -1.91121 0.120466 0
M  V30 10162 H 961.14 -3.32774 -2.06807 0
M  V30 10163 H 962.837 -3.59308 -1.78042 0
M  V30 10164 H 959.427 -4.25566 -0.509053 0
M  V30 10165 H 963.611 -4.95997 0.173411 0
M  V30 10166 H 958.867 -6.01085 1.11833 0
M  V30 10167 H 963.041 -6.72824 1.79669 0
M  V30 10168 H 960.668 -7.25354 2.2752 0
M  V30 10169 N 962.243 0.219913 -1.56058 0
M  V30 10170 C 963.173 1.27572 -1.9557 0
M  V30 10171 C 964.154 1.48801 -0.824148 0
M  V30 10172 O 965.339 1.60957 -1.08658 0
M  V30 10173 C 962.469 2.62517 -2.27381 0
M  V30 10174 C 961.423 2.55941 -3.43042 0
M  V30 10175 C 960.749 3.94931 -3.60463 0
M  V30 10176 C 962.049 2.10584 -4.77966 0
M  V30 10177 H 963.743 0.947482 -2.84013 0
M  V30 10178 H 961.289 0.454337 -1.36645 0
M  V30 10179 H 963.242 3.36538 -2.53615 0
M  V30 10180 H 961.966 2.97031 -1.35794 0
M  V30 10181 H 960.625 1.84377 -3.1686 0
M  V30 10182 H 960.273 4.26756 -2.66249 0
M  V30 10183 H 959.973 3.91413 -4.38258 0
M  V30 10184 H 961.497 4.70611 -3.89046 0
M  V30 10185 H 962.911 2.74349 -5.03394 0
M  V30 10186 H 961.308 2.18122 -5.59055 0
M  V30 10187 H 962.378 1.05818 -4.73213 0
M  V30 10188 N 963.721 1.49897 0.486681 0
M  V30 10189 C 964.631 1.70379 1.6127 0
M  V30 10190 C 965.647 0.58659 1.63814 0
M  V30 10191 O 966.823 0.863044 1.81971 0
M  V30 10192 C 963.888 1.77911 2.97571 0
M  V30 10193 C 962.949 3.01569 3.0554 0
M  V30 10194 C 962.182 3.08732 4.35339 0
M  V30 10195 O 962.405 2.23099 5.2496 0
M  V30 10196 O 961.339 4.01325 4.48578 0
M  V30 10197 H 965.165 2.65799 1.46916 0
M  V30 10198 H 962.75 1.33808 0.664516 0
M  V30 10199 H 964.632 1.85135 3.78554 0
M  V30 10200 H 963.307 0.856722 3.12157 0
M  V30 10201 H 962.214 2.99854 2.23693 0
M  V30 10202 H 963.547 3.93335 2.95886 0
M  V30 10203 N 965.199 -0.738761 1.39212 0
M  V30 10204 C 966.447 -1.49529 1.35962 0
M  V30 10205 C 966.768 -1.94948 -0.0450152 0
M  V30 10206 O 966.038 -1.68717 -0.995552 0
M  V30 10207 H 964.618 -0.554692 0.500326 0
M  V30 10208 H 967.28 -0.877255 1.74041 0
M  V30 10209 H 966.376 -2.37919 2.01993 0
M  V30 10210 N 966.677 -1.24326 -0.968545 0
M  V30 10211 C 967.926 -1.07647 -1.70572 0
M  V30 10212 C 968.239 0.384821 -1.91777 0
M  V30 10213 O 969.445 0.671782 -2.63058 0
M  V30 10214 C 967.901 -1.87799 -3.07017 0
M  V30 10215 C 967.509 -3.38333 -2.93658 0
M  V30 10216 C 969.253 -1.79647 -3.84613 0
M  V30 10217 C 967.16 -4.10831 -4.25407 0
M  V30 10218 H 966.09 -0.399216 -0.639642 0
M  V30 10219 H 968.741 -1.484 -1.07934 0
M  V30 10220 H 967.123 -1.3986 -3.7048 0
M  V30 10221 H 968.297 -3.93845 -2.39213 0
M  V30 10222 H 966.612 -3.47427 -2.29528 0
M  V30 10223 H 969.209 -2.31116 -4.82172 0
M  V30 10224 H 969.552 -0.761553 -4.09275 0
M  V30 10225 H 970.085 -2.25261 -3.27875 0
M  V30 10226 H 966.824 -5.14679 -4.05939 0
M  V30 10227 H 966.344 -3.60105 -4.79671 0
M  V30 10228 H 968.023 -4.17783 -4.94031 0
M  V30 10229 N 968.156 1.1691 -1.05688 0
M  V30 10230 C 969.119 2.19297 -0.666433 0
M  V30 10231 C 970.119 1.5826 0.284674 0
M  V30 10232 O 971.309 1.74068 0.0678757 0
M  V30 10233 C 968.441 3.40894 0.0203656 0
M  V30 10234 H 969.634 2.55354 -1.57272 0
M  V30 10235 H 967.187 1.31078 -0.851359 0
M  V30 10236 H 967.922 3.10388 0.939686 0
M  V30 10237 H 967.707 3.86446 -0.663464 0
M  V30 10238 H 969.197 4.16664 0.279475 0
M  V30 10239 N 969.634 0.838594 1.33437 0
M  V30 10240 C 970.883 0.430484 1.97053 0
M  V30 10241 C 971.196 -1.01556 1.6717 0
M  V30 10242 O 972.402 -1.52834 2.24397 0
M  V30 10243 C 970.858 0.718828 3.52648 0
M  V30 10244 C 970.466 2.17953 3.91408 0
M  V30 10245 C 972.21 0.377654 4.22817 0
M  V30 10246 C 970.117 2.41194 5.39981 0
M  V30 10247 H 969.047 0.157239 0.737422 0
M  V30 10248 H 971.698 1.02714 1.5206 0
M  V30 10249 H 970.08 0.0518042 3.95966 0
M  V30 10250 H 971.254 2.88701 3.59149 0
M  V30 10251 H 969.569 2.48366 3.34221 0
M  V30 10252 H 972.166 0.528926 5.32077 0
M  V30 10253 H 972.509 -0.679338 4.1072 0
M  V30 10254 H 973.042 0.999899 3.85028 0
M  V30 10255 H 969.781 3.45457 5.57081 0
M  V30 10256 H 969.301 1.75007 5.73701 0
M  V30 10257 H 970.98 2.24334 6.06863 0
M  V30 10258 N 971.112 -1.45937 0.595003 0
M  V30 10259 C 972.042 -2.33198 -0.11871 0
M  V30 10260 C 973.023 -1.46083 -0.871423 0
M  V30 10261 O 974.208 -1.74879 -0.844461 0
M  V30 10262 C 971.338 -3.28576 -1.12495 0
M  V30 10263 C 970.292 -4.25229 -0.486275 0
M  V30 10264 C 969.618 -5.10204 -1.59986 0
M  V30 10265 C 970.918 -5.19019 0.584473 0
M  V30 10266 H 972.612 -2.93122 0.609886 0
M  V30 10267 H 970.158 -1.40951 0.294742 0
M  V30 10268 H 972.111 -3.88485 -1.6327 0
M  V30 10269 H 970.835 -2.66784 -1.88398 0
M  V30 10270 H 969.494 -3.666 0.000507962 0
M  V30 10271 H 969.142 -4.44789 -2.34886 0
M  V30 10272 H 968.842 -5.75669 -1.1781 0
M  V30 10273 H 970.366 -5.7298 -2.11014 0
M  V30 10274 H 971.78 -5.73073 0.161297 0
M  V30 10275 H 970.177 -5.92893 0.927256 0
M  V30 10276 H 971.247 -4.62208 1.46601 0
M  V30 10277 N 972.59 -0.333456 -1.54032 0
M  V30 10278 C 973.538 0.543414 -2.26163 0
M  V30 10279 C 974.532 1.11037 -1.27934 0
M  V30 10280 O 975.738 1.05727 -1.45677 0
M  V30 10281 H 972.113 0.19391 -0.726569 0
M  V30 10282 H 974.084 -0.0871052 -2.98273 0
M  V30 10283 C 972.833 1.68769 -3.03994 0
M  V30 10284 H 972.156 1.26069 -3.79403 0
M  V30 10285 H 973.596 2.27662 -3.57695 0
M  V30 10286 C 972.055 2.61117 -2.12884 0
M  V30 10287 O 972.585 3.63097 -1.71823 0
M  V30 10288 N 970.791 2.29573 -1.7817 0
M  V30 10289 H 970.338 1.46684 -2.11759 0
M  V30 10290 H 970.296 2.91622 -1.1749 0
M  V30 10291 N 974.068 1.57479 -0.061844 0
M  V30 10292 C 975.317 1.92285 0.609055 0
M  V30 10293 C 975.63 0.942983 1.71369 0
M  V30 10294 O 976.836 1.18349 2.44348 0
M  V30 10295 C 975.292 3.41545 1.13468 0
M  V30 10296 C 974.9 4.47958 0.0615926 0
M  V30 10297 C 976.644 3.85368 1.78022 0
M  V30 10298 C 974.551 5.88341 0.600705 0
M  V30 10299 H 973.481 0.717656 0.23127 0
M  V30 10300 H 976.132 1.83021 -0.132466 0
M  V30 10301 H 974.514 3.45848 1.92886 0
M  V30 10302 H 975.688 4.55258 -0.712527 0
M  V30 10303 H 974.003 4.13541 -0.487116 0
M  V30 10304 H 976.6 4.87627 2.19371 0
M  V30 10305 H 976.943 3.22193 2.63623 0
M  V30 10306 H 977.476 3.83626 1.05242 0
M  V30 10307 H 974.215 6.55138 -0.217922 0
M  V30 10308 H 973.735 5.84581 1.34257 0
M  V30 10309 H 975.414 6.37918 1.08025 0
M  V30 10310 N 975.546 -0.211634 1.56173 0
M  V30 10311 C 976.957 -0.777776 1.69728 0
M  V30 10312 C 977.308 -1.84566 0.66558 0
M  V30 10313 O 976.433 -2.15639 -0.181338 0
M  V30 10314 C 977.028 -1.41757 3.07718 0
M  V30 10315 C 975.587 -1.93098 3.23094 0
M  V30 10316 C 974.734 -0.794785 2.65666 0
M  V30 10317 H 977.685 0.0131839 1.58695 0
M  V30 10318 H 977.706 -2.28662 3.04128 0
M  V30 10319 H 977.218 -0.640114 3.82785 0
M  V30 10320 H 975.319 -2.73615 2.52914 0
M  V30 10321 H 975.432 -2.10414 4.30422 0
M  V30 10322 H 973.796 -1.20473 2.24407 0
M  V30 10323 H 974.579 -0.0298408 3.43287 0
M  V30 10324 N 977.024 -1.50153 -0.478725 0
M  V30 10325 C 978.249 -1.64776 -1.2595 0
M  V30 10326 C 978.674 -0.327794 -1.85222 0
M  V30 10327 O 978.032 0.707418 -1.66929 0
M  V30 10328 C 978.08 -2.73551 -2.34952 0
M  V30 10329 O 977.184 -2.34273 -3.39397 0
M  V30 10330 H 976.525 -0.550769 -0.370877 0
M  V30 10331 H 979.055 -1.96482 -0.570605 0
M  V30 10332 H 979.065 -2.96397 -2.8038 0
M  V30 10333 H 977.74 -3.69354 -1.91181 0
M  V30 10334 H 976.317 -2.21844 -2.99733 0
M  V30 10335 N 978.502 0.731368 -1.39602 0
M  V30 10336 C 979.435 1.85433 -1.33004 0
M  V30 10337 C 980.413 1.61327 -0.20307 0
M  V30 10338 O 981.597 1.84545 -0.384124 0
M  V30 10339 C 978.724 3.21483 -1.06613 0
M  V30 10340 C 977.77 3.64443 -2.21549 0
M  V30 10341 S 978.603 3.73387 -3.83852 0
M  V30 10342 C 979.759 5.12222 -3.59694 0
M  V30 10343 H 979.992 1.90747 -2.28041 0
M  V30 10344 H 977.525 0.89659 -1.25701 0
M  V30 10345 H 979.483 4.00041 -0.920719 0
M  V30 10346 H 978.144 3.1382 -0.132563 0
M  V30 10347 H 977.337 4.63185 -1.98686 0
M  V30 10348 H 976.939 2.93099 -2.32312 0
M  V30 10349 H 979.231 5.98666 -3.17184 0
M  V30 10350 H 980.174 5.40115 -4.5791 0
M  V30 10351 H 980.582 4.8207 -2.93716 0
M  V30 10352 N 979.98 1.24838 0.961938 0
M  V30 10353 C 981.21 1.11709 1.73795 0
M  V30 10354 C 981.618 -0.33263 1.86253 0
M  V30 10355 O 980.961 -1.24101 1.35443 0
M  V30 10356 C 981.023 1.68959 3.17322 0
M  V30 10357 C 980.687 3.17895 3.28316 0
M  V30 10358 C 981.684 4.14975 3.13196 0
M  V30 10359 C 979.369 3.57966 3.52372 0
M  V30 10360 C 981.363 5.50107 3.21965 0
M  V30 10361 C 979.05 4.93237 3.60778 0
M  V30 10362 C 980.048 5.89116 3.45588 0
M  V30 10363 O 979.736 7.21927 3.53662 0
M  V30 10364 H 979.468 0.390726 0.551642 0
M  V30 10365 H 982.022 1.65541 1.21594 0
M  V30 10366 H 980.252 1.09567 3.70853 0
M  V30 10367 H 981.941 1.51036 3.76753 0
M  V30 10368 H 982.707 3.85359 2.94489 0
M  V30 10369 H 978.586 2.83837 3.63259 0
M  V30 10370 H 982.13 6.24924 3.10025 0
M  V30 10371 H 978.027 5.22522 3.79 0
M  V30 10372 H 978.795 7.29925 3.7034 0
M  V30 10373 N 981.458 -1.16348 1.06306 0
M  V30 10374 C 982.706 -1.86512 0.778311 0
M  V30 10375 C 983.027 -1.82107 -0.697273 0
M  V30 10376 O 982.297 -1.2547 -1.50446 0
M  V30 10377 H 980.877 -0.690529 0.284919 0
M  V30 10378 H 983.539 -1.41092 1.34458 0
M  V30 10379 H 982.635 -2.91947 1.10333 0
M  V30 10380 N 982.937 -0.845659 -1.3299 0
M  V30 10381 C 984.185 -0.443774 -1.97168 0
M  V30 10382 C 984.506 1.00192 -1.67292 0
M  V30 10383 O 983.776 1.69891 -0.975397 0
M  V30 10384 H 982.356 -0.161111 -0.729419 0
M  V30 10385 H 985.018 -1.08011 -1.62233 0
M  V30 10386 H 984.114 -0.581414 -3.06637 0
M  V30 10387 N 984.415 1.45619 -0.602734 0
M  V30 10388 C 985.643 2.06647 -0.102253 0
M  V30 10389 C 986.058 1.4482 1.21131 0
M  V30 10390 O 985.415 0.560621 1.73676 0
M  V30 10391 C 985.466 3.61467 0.0490113 0
M  V30 10392 O 985.187 4.20985 -1.21257 0
M  V30 10393 C 986.688 4.39469 0.581517 0
M  V30 10394 H 983.908 0.667685 -0.0666155 0
M  V30 10395 H 986.452 1.86939 -0.829091 0
M  V30 10396 H 984.607 3.80534 0.726153 0
M  V30 10397 H 985.021 5.14103 -1.03915 0
M  V30 10398 H 986.495 5.48318 0.636462 0
M  V30 10399 H 986.972 4.0891 1.60277 0
M  V30 10400 H 987.578 4.25256 -0.061419 0
M  V30 10401 N 985.893 0.34162 1.53853 0
M  V30 10402 C 986.841 -0.531412 2.26448 0
M  V30 10403 C 987.835 -1.10357 1.28521 0
M  V30 10404 O 989.041 -1.04953 1.46236 0
M  V30 10405 H 985.416 -0.190054 0.727588 0
M  V30 10406 H 987.387 0.102922 2.98222 0
M  V30 10407 C 986.136 -1.67154 3.04885 0
M  V30 10408 H 985.459 -1.24055 3.80066 0
M  V30 10409 H 986.899 -2.25762 3.58898 0
M  V30 10410 C 985.358 -2.59984 2.14266 0
M  V30 10411 O 985.888 -3.62181 1.73746 0
M  V30 10412 N 984.094 -2.28625 1.79385 0
M  V30 10413 H 983.641 -1.45559 2.12533 0
M  V30 10414 H 983.599 -2.90995 1.19035 0
M  V30 10415 N 987.371 -1.57444 0.0701946 0
M  V30 10416 C 988.301 -2.15659 -0.895176 0
M  V30 10417 C 989.282 -1.08321 -1.31151 0
M  V30 10418 O 990.467 -1.36349 -1.38284 0
M  V30 10419 C 987.597 -2.71693 -2.16334 0
M  V30 10420 C 986.551 -3.84183 -1.88645 0
M  V30 10421 C 985.877 -4.26814 -3.22078 0
M  V30 10422 C 987.177 -5.08493 -1.19299 0
M  V30 10423 H 988.871 -2.96576 -0.410217 0
M  V30 10424 H 986.417 -1.42662 -0.195872 0
M  V30 10425 H 988.37 -3.11064 -2.84284 0
M  V30 10426 H 987.094 -1.87994 -2.67069 0
M  V30 10427 H 985.753 -3.45314 -1.23101 0
M  V30 10428 H 985.401 -3.40039 -3.70651 0
M  V30 10429 H 985.101 -5.02642 -3.04344 0
M  V30 10430 H 986.625 -4.68799 -3.91228 0
M  V30 10431 H 988.039 -5.4519 -1.77316 0
M  V30 10432 H 986.436 -5.89588 -1.11828 0
M  V30 10433 H 987.506 -4.84595 -0.171839 0
M  V30 10434 N 988.849 0.203349 -1.56283 0
M  V30 10435 C 990.095 0.921876 -1.81309 0
M  V30 10436 C 990.45 1.81231 -0.645994 0
M  V30 10437 O 989.743 1.88203 0.359206 0
M  V30 10438 C 989.937 1.78016 -3.09912 0
M  V30 10439 C 989.766 0.974308 -4.39019 0
M  V30 10440 C 988.536 0.662001 -5.00945 0
M  V30 10441 C 990.734 0.330925 -5.13234 0
M  V30 10442 N 988.716 -0.163344 -6.13683 0
M  V30 10443 C 990.087 -0.356989 -6.18971 0
M  V30 10444 C 992.142 0.245809 -4.97293 0
M  V30 10445 C 990.845 -1.1219 -7.10497 0
M  V30 10446 C 992.871 -0.505684 -5.89234 0
M  V30 10447 C 992.233 -1.18207 -6.94411 0
M  V30 10448 H 988.332 0.317003 -0.714866 0
M  V30 10449 H 990.916 0.191255 -1.93758 0
M  V30 10450 H 989.087 2.48245 -2.98712 0
M  V30 10451 H 990.819 2.43754 -3.23057 0
M  V30 10452 H 987.574 0.984437 -4.63256 0
M  V30 10453 H 987.998 -0.565386 -6.74635 0
M  V30 10454 H 992.64 0.754396 -4.16015 0
M  V30 10455 H 990.358 -1.64195 -7.91243 0
M  V30 10456 H 993.944 -0.572788 -5.78974 0
M  V30 10457 H 992.824 -1.75427 -7.64327 0
M  V30 10458 N 990.327 1.50405 0.470755 0
M  V30 10459 C 991.575 1.61092 1.2204 0
M  V30 10460 C 991.896 0.313487 1.92464 0
M  V30 10461 O 991.166 -0.669043 1.84121 0
M  V30 10462 H 989.746 0.593618 0.45346 0
M  V30 10463 H 992.408 1.87184 0.542985 0
M  V30 10464 H 991.504 2.42222 1.96812 0
M  V30 10465 N 991.805 -0.723954 1.39988 0
M  V30 10466 C 992.715 -1.86829 1.41887 0
M  V30 10467 C 993.731 -1.71173 0.312401 0
M  V30 10468 O 994.907 -1.93583 0.555651 0
M  V30 10469 C 991.972 -3.22541 1.27154 0
M  V30 10470 C 991.033 -3.50512 2.47871 0
M  V30 10471 C 990.266 -4.79749 2.33831 0
M  V30 10472 O 990.489 -5.54251 1.34765 0
M  V30 10473 O 989.423 -5.07868 3.23039 0
M  V30 10474 H 993.249 -1.88183 2.38371 0
M  V30 10475 H 990.834 -0.873259 1.21221 0
M  V30 10476 H 992.716 -4.0362 1.21114 0
M  V30 10477 H 991.391 -3.21933 0.337715 0
M  V30 10478 H 990.298 -2.69475 2.59488 0
M  V30 10479 H 991.631 -3.55909 3.39985 0
M  V30 10480 N 993.283 -1.25346 -0.955304 0
M  V30 10481 C 994.231 -1.05461 -2.07318 0
M  V30 10482 C 995.225 0.0142699 -1.69394 0
M  V30 10483 O 996.431 -0.141292 -1.79445 0
M  V30 10484 H 992.806 -0.324095 -0.678577 0
M  V30 10485 H 994.777 -2.00231 -2.21247 0
M  V30 10486 C 993.526 -0.689329 -3.40798 0
M  V30 10487 H 992.849 -1.50362 -3.70447 0
M  V30 10488 H 994.289 -0.589883 -4.19877 0
M  V30 10489 C 992.748 0.604556 -3.31431 0
M  V30 10490 O 993.278 1.64686 -3.6639 0
M  V30 10491 N 991.484 0.589927 -2.84549 0
M  V30 10492 H 991.031 -0.258647 -2.56298 0
M  V30 10493 H 990.989 1.4558 -2.78664 0
M  V30 10494 N 994.761 1.15782 -1.06922 0
M  V30 10495 C 995.708 2.2038 -0.685659 0
M  V30 10496 C 996.678 1.62972 0.320816 0
M  V30 10497 O 997.863 1.8966 0.208258 0
M  V30 10498 C 995.003 3.44995 -0.084998 0
M  V30 10499 C 994.116 4.16621 -1.14242 0
M  V30 10500 C 993.251 5.28773 -0.507226 0
M  V30 10501 C 992.29 5.92209 -1.54774 0
M  V30 10502 N 991.427 6.9584 -0.935443 0
M  V30 10503 H 996.267 2.5254 -1.58201 0
M  V30 10504 H 993.804 1.24031 -0.790864 0
M  V30 10505 H 995.762 4.16254 0.280845 0
M  V30 10506 H 994.392 3.13365 0.774725 0
M  V30 10507 H 993.444 3.43903 -1.62589 0
M  V30 10508 H 994.756 4.59884 -1.93154 0
M  V30 10509 H 993.91 6.06635 -0.0887719 0
M  V30 10510 H 992.649 4.8669 0.313704 0
M  V30 10511 H 991.654 5.13063 -1.97602 0
M  V30 10512 H 992.879 6.3637 -2.37088 0
M  V30 10513 H 990.825 6.5586 -0.135339 0
M  V30 10514 H 990.742 7.37508 -1.66186 0
M  V30 10515 H 992.01 7.77611 -0.542346 0
M  V30 10516 N 996.239 0.8527 1.3254 0
M  V30 10517 C 997.186 0.293905 2.28921 0
M  V30 10518 C 998.156 -0.598027 1.54961 0
M  V30 10519 O 999.341 -0.533355 1.83194 0
M  V30 10520 C 996.481 -0.513361 3.4126 0
M  V30 10521 C 995.594 0.404144 4.30105 0
M  V30 10522 C 994.729 -0.415564 5.29572 0
M  V30 10523 C 993.768 0.499461 6.10059 0
M  V30 10524 N 992.905 -0.282949 7.0153 0
M  V30 10525 H 997.745 1.12107 2.76109 0
M  V30 10526 H 995.282 0.564272 1.35847 0
M  V30 10527 H 997.24 -0.997008 4.05112 0
M  V30 10528 H 995.87 -1.30537 2.95229 0
M  V30 10529 H 994.922 1.00617 3.66852 0
M  V30 10530 H 996.234 1.10648 4.86373 0
M  V30 10531 H 995.388 -0.962458 5.99017 0
M  V30 10532 H 994.127 -1.15127 4.73917 0
M  V30 10533 H 993.132 1.05825 5.39519 0
M  V30 10534 H 994.357 1.23375 6.67799 0
M  V30 10535 H 992.303 -1.00179 6.48306 0
M  V30 10536 H 992.22 0.36039 7.55141 0
M  V30 10537 H 993.488 -0.811632 7.75263 0
M  V30 10538 N 997.718 -1.45297 0.610449 0
M  V30 10539 C 998.666 -2.32295 -0.119167 0
M  V30 10540 C 999.66 -1.46138 -0.856746 0
M  V30 10541 O 1000.87 -1.62605 -0.771988 0
M  V30 10542 H 997.241 -0.749815 -0.0572881 0
M  V30 10543 H 999.212 -2.91609 0.63297 0
M  V30 10544 C 997.961 -3.29802 -1.10119 0
M  V30 10545 H 997.284 -3.96095 -0.543063 0
M  V30 10546 H 998.724 -3.93398 -1.58158 0
M  V30 10547 C 997.183 -2.57185 -2.17617 0
M  V30 10548 O 997.713 -2.35535 -3.25401 0
M  V30 10549 N 995.919 -2.17272 -1.9298 0
M  V30 10550 H 995.466 -2.3508 -1.05334 0
M  V30 10551 H 995.424 -1.69009 -2.6511 0
M  V30 10552 N 999.196 -0.349774 -1.5367 0
M  V30 10553 C 1000.61 0.00191293 -1.596 0
M  V30 10554 C 1000.81 1.48175 -1.36552 0
M  V30 10555 O 999.868 2.24129 -1.16285 0
M  V30 10556 C 1001.18 -0.439848 -2.97466 0
M  V30 10557 C 1002.73 -0.392721 -3.10526 0
M  V30 10558 C 1003.2 -0.810047 -4.5078 0
M  V30 10559 N 1004.69 -0.764478 -4.56848 0
M  V30 10560 C 1005.43 -1.05927 -5.63531 0
M  V30 10561 N 1004.93 -1.42253 -6.78038 0
M  V30 10562 N 1006.72 -0.983098 -5.53436 0
M  V30 10563 H 998.87 -1.31364 -1.66905 0
M  V30 10564 H 1001.13 -0.535908 -0.781989 0
M  V30 10565 H 1000.84 -1.47189 -3.19419 0
M  V30 10566 H 1000.71 0.181735 -3.76762 0
M  V30 10567 H 1003.1 0.630161 -2.88293 0
M  V30 10568 H 1003.18 -1.04959 -2.33275 0
M  V30 10569 H 1002.82 -1.83097 -4.73749 0
M  V30 10570 H 1002.75 -0.130591 -5.26438 0
M  V30 10571 H 1005.25 -0.496637 -3.74622 0
M  V30 10572 H 1005.56 -1.63215 -7.55368 0
M  V30 10573 H 1003.9 -1.46104 -6.79469 0
M  V30 10574 H 1007.09 -0.698601 -4.62858 0
M  V30 10575 H 1007.27 -1.21618 -6.36485 0
M  V30 10576 N 1000.67 1.57404 -0.0785433 0
M  V30 10577 C 1001.64 2.11977 0.871693 0
M  V30 10578 C 1002.64 1.04529 1.2219 0
M  V30 10579 O 1003.83 1.30488 1.15406 0
M  V30 10580 C 1000.96 2.6267 2.17296 0
M  V30 10581 H 1002.15 2.97246 0.398115 0
M  V30 10582 H 999.705 1.5537 0.170251 0
M  V30 10583 H 1000.44 1.80873 2.69175 0
M  V30 10584 H 1000.22 3.41214 1.93171 0
M  V30 10585 H 1001.71 3.04943 2.85306 0
M  V30 10586 N 1002.15 -0.195058 1.56388 0
M  V30 10587 C 1003.4 -0.9168 1.80894 0
M  V30 10588 C 1003.73 -1.82907 0.652592 0
M  V30 10589 O 1003.01 -1.91382 -0.346853 0
M  V30 10590 C 1003.29 -1.733 3.15657 0
M  V30 10591 C 1003.14 -0.845449 4.41783 0
M  V30 10592 C 1004.46 -2.70557 3.47112 0
M  V30 10593 H 1001.58 -0.331861 0.658056 0
M  V30 10594 H 1004.22 -0.184174 1.89105 0
M  V30 10595 H 1002.37 -2.3576 3.08787 0
M  V30 10596 H 1004.04 -0.235557 4.60698 0
M  V30 10597 H 1002.29 -0.152172 4.33533 0
M  V30 10598 H 1002.96 -1.45152 5.32574 0
M  V30 10599 H 1005.43 -2.1823 3.54281 0
M  V30 10600 H 1004.31 -3.24749 4.42526 0
M  V30 10601 H 1004.57 -3.49605 2.70608 0
M  V30 10602 N 1003.63 -1.50653 -0.462772 0
M  V30 10603 C 1004.88 -1.61296 -1.21105 0
M  V30 10604 C 1005.19 -0.322757 -1.92919 0
M  V30 10605 O 1006.4 -0.308211 -2.69745 0
M  V30 10606 C 1004.85 -2.84752 -2.201 0
M  V30 10607 C 1004.46 -4.20681 -1.54051 0
M  V30 10608 C 1006.21 -3.04744 -2.95518 0
M  V30 10609 C 1004.11 -5.35314 -2.51381 0
M  V30 10610 H 1003.04 -0.60069 -0.455728 0
M  V30 10611 H 1005.69 -1.77093 -0.480656 0
M  V30 10612 H 1004.08 -2.62532 -2.96467 0
M  V30 10613 H 1005.25 -4.53187 -0.834168 0
M  V30 10614 H 1003.56 -4.06361 -0.908828 0
M  V30 10615 H 1006.16 -3.87559 -3.68378 0
M  V30 10616 H 1006.5 -2.16802 -3.55391 0
M  V30 10617 H 1007.04 -3.27185 -2.26263 0
M  V30 10618 H 1003.78 -6.25437 -1.96235 0
M  V30 10619 H 1003.3 -5.07216 -3.20144 0
M  V30 10620 H 1004.98 -5.66229 -3.1304 0
M  V30 10621 N 1005.11 0.71652 -1.4037 0
M  V30 10622 C 1006.52 1.02447 -1.22379 0
M  V30 10623 C 1006.72 2.0126 -0.0983394 0
M  V30 10624 O 1005.78 2.46569 0.544071 0
M  V30 10625 C 1007.09 1.56909 -2.56515 0
M  V30 10626 C 1008.64 1.68898 -2.6352 0
M  V30 10627 C 1009.12 2.26765 -3.97922 0
M  V30 10628 N 1010.61 2.34152 -3.99658 0
M  V30 10629 C 1011.34 2.79907 -5.00439 0
M  V30 10630 N 1010.84 3.25422 -6.11615 0
M  V30 10631 N 1012.63 2.79283 -4.87809 0
M  V30 10632 H 1004.78 0.0615306 -2.12311 0
M  V30 10633 H 1007.05 0.0898994 -0.943728 0
M  V30 10634 H 1006.75 0.917649 -3.39517 0
M  V30 10635 H 1006.63 2.55446 -2.77538 0
M  V30 10636 H 1009.01 2.33159 -1.8089 0
M  V30 10637 H 1009.09 0.689626 -2.46329 0
M  V30 10638 H 1008.74 1.63126 -4.80991 0
M  V30 10639 H 1008.67 3.27413 -4.12442 0
M  V30 10640 H 1011.16 2.02006 -3.19378 0
M  V30 10641 H 1011.47 3.58899 -6.84406 0
M  V30 10642 H 1009.82 3.23383 -6.15181 0
M  V30 10643 H 1013.01 2.43061 -4.00049 0
M  V30 10644 H 1013.18 3.14626 -5.66493 0
M  V30 10645 N 1006.59 1.25851 0.948643 0
M  V30 10646 C 1007.5 1.08516 2.07994 0
M  V30 10647 C 1008.51 0.0206696 1.73988 0
M  V30 10648 O 1009.69 0.222854 2.00163 0
M  V30 10649 C 1006.75 0.712145 3.39307 0
M  V30 10650 C 1005.81 1.85523 3.87143 0
M  V30 10651 C 1005.05 1.49992 5.1219 0
M  V30 10652 O 1005.27 0.398268 5.69008 0
M  V30 10653 O 1004.2 2.33215 5.54882 0
M  V30 10654 H 1008.03 2.03405 2.25522 0
M  V30 10655 H 1005.62 1.04844 1.06433 0
M  V30 10656 H 1007.5 0.516512 4.18223 0
M  V30 10657 H 1006.17 -0.207416 3.23035 0
M  V30 10658 H 1005.08 2.10578 3.09205 0
M  V30 10659 H 1006.41 2.75425 4.07924 0
M  V30 10660 N 1008.06 -1.15214 1.07534 0
M  V30 10661 C 1009.29 -1.90463 0.820883 0
M  V30 10662 C 1009.71 -1.77578 -0.620305 0
M  V30 10663 O 1009.07 -1.10976 -1.43366 0
M  V30 10664 C 1009.12 -3.38746 1.23627 0
M  V30 10665 O 1008.22 -4.1062 0.382715 0
M  V30 10666 H 1007.57 -0.59292 0.298901 0
M  V30 10667 H 1010.1 -1.45893 1.43445 0
M  V30 10668 H 1010.11 -3.89543 1.21327 0
M  V30 10669 H 1008.78 -3.47443 2.28596 0
M  V30 10670 H 1007.36 -3.69947 0.468374 0
M  V30 10671 N 1009.54 -0.859717 -1.32086 0
M  V30 10672 C 1010.96 -0.55025 -1.49815 0
M  V30 10673 C 1011.16 0.917966 -1.79376 0
M  V30 10674 O 1010.21 1.70073 -1.86632 0
M  V30 10675 C 1011.53 -1.44161 -2.6389 0
M  V30 10676 C 1013.08 -1.44257 -2.77775 0
M  V30 10677 C 1013.55 -2.31926 -3.94936 0
M  V30 10678 N 1015.04 -2.2975 -4.02206 0
M  V30 10679 C 1015.78 -2.9431 -4.92107 0
M  V30 10680 N 1015.27 -3.68001 -5.86981 0
M  V30 10681 N 1017.07 -2.83671 -4.8527 0
M  V30 10682 H 1009.22 -1.80987 -1.11164 0
M  V30 10683 H 1011.48 -0.773313 -0.548353 0
M  V30 10684 H 1011.19 -2.48588 -2.4879 0
M  V30 10685 H 1011.06 -1.13268 -3.59792 0
M  V30 10686 H 1013.45 -0.405923 -2.92295 0
M  V30 10687 H 1013.53 -1.79169 -1.82571 0
M  V30 10688 H 1013.17 -3.35661 -3.81174 0
M  V30 10689 H 1013.1 -1.94344 -4.89426 0
M  V30 10690 H 1015.59 -1.76177 -3.3432 0
M  V30 10691 H 1015.91 -4.14417 -6.52287 0
M  V30 10692 H 1014.25 -3.72109 -5.86992 0
M  V30 10693 H 1017.44 -2.25647 -4.10123 0
M  V30 10694 H 1017.61 -3.34267 -5.5513 0
M  V30 10695 N 1011.02 1.44971 -0.618145 0
M  V30 10696 C 1011.97 2.30606 0.09449 0
M  V30 10697 C 1012.94 1.42725 0.849633 0
M  V30 10698 O 1014.12 1.71643 0.833266 0
M  V30 10699 C 1011.26 3.27803 1.07886 0
M  V30 10700 C 1010.38 4.30787 0.323488 0
M  V30 10701 C 1009.51 5.15085 1.29851 0
M  V30 10702 C 1008.55 6.09788 0.531561 0
M  V30 10703 N 1007.69 6.86829 1.4564 0
M  V30 10704 H 1012.53 2.91008 -0.641738 0
M  V30 10705 H 1010.06 1.43391 -0.328259 0
M  V30 10706 H 1012.02 3.82631 1.66281 0
M  V30 10707 H 1010.65 2.69131 1.78237 0
M  V30 10708 H 1009.7 3.78536 -0.376164 0
M  V30 10709 H 1011.02 4.98044 -0.274443 0
M  V30 10710 H 1010.17 5.74365 1.95421 0
M  V30 10711 H 1008.91 4.4787 1.93037 0
M  V30 10712 H 1007.91 5.49628 -0.137702 0
M  V30 10713 H 1009.14 6.79033 -0.0953993 0
M  V30 10714 H 1007.08 6.22295 2.07571 0
M  V30 10715 H 1007 7.50477 0.912167 0
M  V30 10716 H 1008.27 7.50642 2.10134 0
M  V30 10717 N 1012.5 0.357919 1.53482 0
M  V30 10718 C 1013.75 -0.2337 2.00744 0
M  V30 10719 C 1014.07 -1.49908 1.2471 0
M  V30 10720 O 1013.34 -1.92597 0.358235 0
M  V30 10721 H 1011.92 -0.0893474 0.741637 0
M  V30 10722 H 1014.58 0.482388 1.88836 0
M  V30 10723 H 1013.68 -0.466073 3.086 0
M  V30 10724 N 1013.98 -1.5736 0.0868897 0
M  V30 10725 C 1015.22 -1.94341 -0.579598 0
M  V30 10726 C 1015.56 -0.968238 -1.68341 0
M  V30 10727 O 1014.83 8.29649e-05 -1.945 0
M  V30 10728 C 1015.11 -3.41497 -1.14245 0
M  V30 10729 C 1014.97 -4.49778 -0.044255 0
M  V30 10730 C 1016.29 -3.89788 -2.04336 0
M  V30 10731 H 1013.4 -0.70668 -0.20922 0
M  V30 10732 H 1016.05 -1.89359 0.15593 0
M  V30 10733 H 1014.2 -3.45873 -1.76929 0
M  V30 10734 H 1015.87 -4.57517 0.58959 0
M  V30 10735 H 1014.11 -4.293 0.623207 0
M  V30 10736 H 1014.78 -5.4992 -0.478749 0
M  V30 10737 H 1017.26 -3.87513 -1.51569 0
M  V30 10738 H 1016.13 -4.93335 -2.40648 0
M  V30 10739 H 1016.4 -3.28603 -2.95757 0
M  V30 10740 N 1015.45 0.186762 -1.56489 0
M  V30 10741 C 1016.68 0.921832 -1.85229 0
M  V30 10742 C 1017.1 1.76496 -0.670416 0
M  V30 10743 O 1016.45 1.78899 0.360758 0
M  V30 10744 C 1016.51 1.81121 -3.12854 0
M  V30 10745 O 1016.23 1.00211 -4.26485 0
M  V30 10746 C 1017.73 2.65725 -3.54831 0
M  V30 10747 H 1014.95 0.268563 -0.61491 0
M  V30 10748 H 1017.49 0.191505 -2.03601 0
M  V30 10749 H 1015.65 2.49506 -2.96354 0
M  V30 10750 H 1016.06 1.60893 -4.99213 0
M  V30 10751 H 1017.53 3.23771 -4.47075 0
M  V30 10752 H 1018.01 3.39843 -2.78215 0
M  V30 10753 H 1018.62 2.02698 -3.7389 0
M  V30 10754 N 1016.93 1.50896 0.454776 0
M  V30 10755 C 1018.21 1.53227 1.21576 0
M  V30 10756 C 1018.59 0.286358 2.09149 0
M  V30 10757 O 1017.94 -0.729469 2.16543 0
M  V30 10758 C 1018.15 2.83693 2.03271 0
M  V30 10759 C 1019.5 3.34981 2.60908 0
M  V30 10760 O 1020.52 2.85126 2.13499 0
M  V30 10761 O 1019.38 4.21929 3.4733 0
M  V30 10762 H 1016.47 0.615306 0.552564 0
M  V30 10763 H 1019.02 1.63197 0.465266 0
M  V30 10764 H 1017.79 3.65839 1.38843 0
M  V30 10765 H 1017.41 2.76803 2.85422 0
M  V30 10766 N 1018.41 -0.709066 1.40748 0
M  V30 10767 C 1019.82 -1.28847 1.35112 0
M  V30 10768 C 1020.17 -1.9618 0.0277149 0
M  V30 10769 O 1019.3 -1.97955 -0.874233 0
M  V30 10770 C 1019.89 -2.34306 2.44716 0
M  V30 10771 C 1018.45 -2.87856 2.4252 0
M  V30 10772 C 1017.6 -1.61723 2.25257 0
M  V30 10773 H 1020.55 -0.504742 1.50459 0
M  V30 10774 H 1020.57 -3.15297 2.12998 0
M  V30 10775 H 1020.08 -1.85271 3.41022 0
M  V30 10776 H 1018.18 -3.41103 1.49931 0
M  V30 10777 H 1018.3 -3.39205 3.38344 0
M  V30 10778 H 1016.66 -1.87032 1.7289 0
M  V30 10779 H 1017.44 -1.14703 3.23571 0
M  V30 10780 N 1019.89 -1.26353 -0.941956 0
M  V30 10781 C 1020.84 -1.07842 -2.04056 0
M  V30 10782 C 1021.81 0.0163064 -1.66092 0
M  V30 10783 O 1022.99 -0.143313 -1.90261 0
M  V30 10784 C 1020.13 -0.716636 -3.37577 0
M  V30 10785 C 1019.24 -1.88754 -3.88582 0
M  V30 10786 C 1018.38 -1.46893 -5.10486 0
M  V30 10787 C 1017.42 -2.60819 -5.53751 0
M  V30 10788 N 1016.56 -2.19646 -6.66858 0
M  V30 10789 H 1021.4 -2.01856 -2.19221 0
M  V30 10790 H 1018.93 -1.00504 -1.07412 0
M  V30 10791 H 1020.89 -0.487768 -4.14339 0
M  V30 10792 H 1019.52 0.18653 -3.22261 0
M  V30 10793 H 1018.57 -2.22936 -3.08227 0
M  V30 10794 H 1019.88 -2.74264 -4.1663 0
M  V30 10795 H 1019.04 -1.20047 -5.94705 0
M  V30 10796 H 1017.78 -0.584721 -4.84182 0
M  V30 10797 H 1016.78 -2.88396 -4.6809 0
M  V30 10798 H 1018.01 -3.49838 -5.82057 0
M  V30 10799 H 1015.95 -1.33657 -6.4224 0
M  V30 10800 H 1015.87 -2.987 -6.94489 0
M  V30 10801 H 1017.14 -1.96009 -7.54454 0
M  V30 10802 N 1021.37 1.14642 -1.08144 0
M  V30 10803 C 1022.28 2.23257 -0.720668 0
M  V30 10804 C 1023.29 1.71866 0.271648 0
M  V30 10805 O 1024.47 2.01064 0.116266 0
M  V30 10806 C 1021.53 3.46447 -0.132542 0
M  V30 10807 C 1020.6 4.12789 -1.17913 0
M  V30 10808 C 1019.83 5.30099 -0.618971 0
M  V30 10809 O 1020.05 5.6762 0.562418 0
M  V30 10810 O 1018.99 5.86154 -1.36774 0
M  V30 10811 H 1022.81 2.56463 -1.62667 0
M  V30 10812 H 1020.4 1.22521 -0.854932 0
M  V30 10813 H 1022.28 4.20959 0.19277 0
M  V30 10814 H 1020.95 3.14971 0.746662 0
M  V30 10815 H 1019.86 3.40163 -1.55693 0
M  V30 10816 H 1021.19 4.48365 -2.03051 0
M  V30 10817 N 1022.85 0.866709 1.31628 0
M  V30 10818 C 1023.78 0.335762 2.31073 0
M  V30 10819 C 1024.76 -0.571597 1.60209 0
M  V30 10820 O 1025.94 -0.489306 1.87935 0
M  V30 10821 C 1023.07 -0.466416 3.44154 0
M  V30 10822 C 1022.03 0.347561 4.26586 0
M  V30 10823 C 1021.35 -0.5801 5.31544 0
M  V30 10824 C 1022.65 1.57986 4.97833 0
M  V30 10825 H 1024.35 1.16673 2.75731 0
M  V30 10826 H 1021.89 0.56248 1.3256 0
M  V30 10827 H 1023.84 -0.84836 4.12772 0
M  V30 10828 H 1022.57 -1.33086 2.98254 0
M  V30 10829 H 1021.23 0.71141 3.59631 0
M  V30 10830 H 1020.88 -1.44174 4.81895 0
M  V30 10831 H 1020.58 -0.0393965 5.87587 0
M  V30 10832 H 1022.1 -0.958958 6.03023 0
M  V30 10833 H 1023.51 1.26954 5.59067 0
M  V30 10834 H 1021.91 2.05939 5.63657 0
M  V30 10835 H 1022.98 2.3345 4.25005 0
M  V30 10836 N 1024.32 -1.44642 0.625825 0
M  V30 10837 C 1025.27 -2.30653 -0.082259 0
M  V30 10838 C 1026.24 -1.43174 -0.842052 0
M  V30 10839 O 1027.43 -1.72082 -0.824151 0
M  V30 10840 C 1024.57 -3.2837 -1.06146 0
M  V30 10841 C 1023.68 -4.30953 -0.300638 0
M  V30 10842 C 1022.81 -5.15766 -1.27118 0
M  V30 10843 C 1021.85 -6.10061 -0.499215 0
M  V30 10844 N 1020.99 -6.87591 -1.41995 0
M  V30 10845 H 1025.83 -2.90664 0.657161 0
M  V30 10846 H 1023.37 -1.43215 0.335859 0
M  V30 10847 H 1025.32 -3.83507 -1.6425 0
M  V30 10848 H 1023.95 -2.70072 -1.76807 0
M  V30 10849 H 1023.01 -3.78331 0.396234 0
M  V30 10850 H 1024.32 -4.97892 0.300851 0
M  V30 10851 H 1023.47 -5.75394 -1.92372 0
M  V30 10852 H 1022.21 -4.48888 -1.9066 0
M  V30 10853 H 1021.22 -5.49547 0.166848 0
M  V30 10854 H 1022.44 -6.78973 0.131409 0
M  V30 10855 H 1020.39 -6.23387 -2.04267 0
M  V30 10856 H 1020.3 -7.5095 -0.872354 0
M  V30 10857 H 1021.57 -7.51746 -2.0615 0
M  V30 10858 N 1025.8 -0.366053 -1.5329 0
M  V30 10859 C 1027.05 0.223493 -2.01263 0
M  V30 10860 C 1027.38 1.48736 -1.25331 0
M  V30 10861 O 1026.63 1.92805 -0.335341 0
M  V30 10862 C 1026.93 0.560906 -3.52971 0
M  V30 10863 C 1026.6 -0.60869 -4.46773 0
M  V30 10864 C 1025.26 -0.929609 -4.72135 0
M  V30 10865 C 1027.61 -1.39225 -5.02261 0
M  V30 10866 C 1024.94 -2.03606 -5.50238 0
M  V30 10867 C 1027.29 -2.48912 -5.81572 0
M  V30 10868 C 1025.95 -2.81538 -6.05221 0
M  V30 10869 H 1025.22 0.0817818 -0.736473 0
M  V30 10870 H 1027.87 -0.498613 -1.84895 0
M  V30 10871 H 1026.18 1.36403 -3.67289 0
M  V30 10872 H 1027.87 1.02931 -3.87564 0
M  V30 10873 H 1024.46 -0.348529 -4.27181 0
M  V30 10874 H 1028.65 -1.15757 -4.82612 0
M  V30 10875 H 1023.9 -2.29281 -5.6678 0
M  V30 10876 H 1028.08 -3.10044 -6.23575 0
M  V30 10877 H 1025.7 -3.67396 -6.65525 0
M  V30 10878 N 1027.28 1.57312 -0.0952337 0
M  V30 10879 C 1028.52 1.96239 0.571813 0
M  V30 10880 C 1028.88 0.97602 1.65342 0
M  V30 10881 O 1030.08 1.25379 2.37768 0
M  V30 10882 C 1028.36 3.39644 1.1125 0
M  V30 10883 S 1029.91 4.00568 1.7914 0
M  V30 10884 H 1026.73 0.686081 0.186585 0
M  V30 10885 H 1029.33 1.94718 -0.174669 0
M  V30 10886 H 1028.04 4.09199 0.313796 0
M  V30 10887 H 1027.57 3.44762 1.89481 0
M  V30 10888 H 1029.58 3.89383 3.07563 0
M  V30 10889 N 1028.76 -0.17846 1.56586 0
M  V30 10890 C 1030 -0.897562 1.81856 0
M  V30 10891 C 1030.34 -1.82204 0.671955 0
M  V30 10892 O 1029.61 -1.91739 -0.326535 0
M  V30 10893 C 1029.89 -1.69942 3.17477 0
M  V30 10894 C 1029.75 -0.798545 4.42655 0
M  V30 10895 C 1031.07 -2.66861 3.49962 0
M  V30 10896 H 1028.19 -0.324863 0.661539 0
M  V30 10897 H 1030.83 -0.164106 1.8929 0
M  V30 10898 H 1028.98 -2.32471 3.11271 0
M  V30 10899 H 1030.65 -0.18668 4.60922 0
M  V30 10900 H 1028.89 -0.106181 4.3367 0
M  V30 10901 H 1029.56 -1.39496 5.34083 0
M  V30 10902 H 1032.04 -2.1446 3.56576 0
M  V30 10903 H 1030.92 -3.20037 4.45946 0
M  V30 10904 H 1031.18 -3.46715 2.74301 0
M  V30 10905 N 1030.24 -1.51135 -0.446768 0
M  V30 10906 C 1031.17 -1.67949 -1.55967 0
M  V30 10907 C 1032.18 -0.560337 -1.52853 0
M  V30 10908 O 1033.37 -0.83435 -1.578 0
M  V30 10909 C 1030.47 -1.6703 -2.9488 0
M  V30 10910 C 1029.64 -2.95377 -3.22601 0
M  V30 10911 C 1028.7 -2.86772 -4.4119 0
M  V30 10912 O 1027.73 -3.60722 -4.40304 0
M  V30 10913 N 1028.93 -2.01979 -5.44228 0
M  V30 10914 H 1031.69 -2.63951 -1.41951 0
M  V30 10915 H 1029.26 -1.48903 -0.635569 0
M  V30 10916 H 1031.25 -1.58854 -3.7222 0
M  V30 10917 H 1029.82 -0.786623 -3.02541 0
M  V30 10918 H 1029.04 -3.17494 -2.33647 0
M  V30 10919 H 1030.33 -3.80356 -3.37945 0
M  V30 10920 H 1029.72 -1.41257 -5.4778 0
M  V30 10921 H 1028.28 -1.99689 -6.20457 0
M  V30 10922 N 1031.71 0.701592 -1.41122 0
M  V30 10923 C 1032.99 1.45569 -1.30648 0
M  V30 10924 C 1033.37 2.10988 0.068744 0
M  V30 10925 O 1032.72 2.01228 1.08257 0
M  V30 10926 C 1032.93 2.48003 -2.45551 0
M  V30 10927 C 1034.28 3.13431 -2.86437 0
M  V30 10928 O 1035.3 2.58327 -2.45247 0
M  V30 10929 O 1034.16 4.13221 -3.57646 0
M  V30 10930 H 1031.25 0.648 -0.513834 0
M  V30 10931 H 1033.8 0.73258 -1.53073 0
M  V30 10932 H 1032.57 1.98276 -3.37346 0
M  V30 10933 H 1032.19 3.27832 -2.24971 0
M  V30 10934 N 1033.19 1.2685 0.935242 0
M  V30 10935 C 1034.12 1.1143 2.05196 0
M  V30 10936 C 1035.1 0.0178362 1.70091 0
M  V30 10937 O 1036.29 0.190951 1.93259 0
M  V30 10938 C 1033.42 0.752779 3.39044 0
M  V30 10939 C 1032.37 1.80164 3.88233 0
M  V30 10940 C 1031.7 1.29428 5.18799 0
M  V30 10941 C 1033 3.20431 4.12457 0
M  V30 10942 H 1034.69 2.04845 2.18355 0
M  V30 10943 H 1032.24 0.986276 1.04922 0
M  V30 10944 H 1034.19 0.631757 4.16637 0
M  V30 10945 H 1032.91 -0.217075 3.25878 0
M  V30 10946 H 1031.57 1.91144 3.12825 0
M  V30 10947 H 1031.22 0.3141 5.02018 0
M  V30 10948 H 1030.92 1.99546 5.5268 0
M  V30 10949 H 1032.45 1.18605 5.9897 0
M  V30 10950 H 1033.86 3.12495 4.80645 0
M  V30 10951 H 1032.26 3.88193 4.57631 0
M  V30 10952 H 1033.33 3.66046 3.18023 0
M  V30 10953 N 1034.67 -1.14067 1.0875 0
M  V30 10954 C 1035.9 -1.89582 0.841038 0
M  V30 10955 C 1036.32 -1.78226 -0.601436 0
M  V30 10956 O 1035.68 -1.12491 -1.42181 0
M  V30 10957 C 1035.73 -3.37415 1.27213 0
M  V30 10958 O 1034.83 -4.10191 0.426246 0
M  V30 10959 H 1034.17 -0.589716 0.305173 0
M  V30 10960 H 1036.7 -1.44364 1.44984 0
M  V30 10961 H 1036.71 -3.88234 1.25451 0
M  V30 10962 H 1035.39 -3.44999 2.32268 0
M  V30 10963 H 1033.96 -3.69429 0.507585 0
M  V30 10964 N 1036.15 -0.873678 -1.31166 0
M  V30 10965 C 1037.43 -0.40698 -1.91319 0
M  V30 10966 C 1037.81 1.1113 -1.79481 0
M  V30 10967 O 1037.15 1.94155 -1.20483 0
M  V30 10968 C 1037.36 -0.892484 -3.37396 0
M  V30 10969 C 1038.71 -0.920795 -4.14496 0
M  V30 10970 O 1039.74 -0.838386 -3.46193 0
M  V30 10971 O 1038.59 -1.04069 -5.365 0
M  V30 10972 H 1035.69 -0.122439 -0.817886 0
M  V30 10973 H 1038.23 -0.961835 -1.3981 0
M  V30 10974 H 1037.01 -1.93613 -3.40044 0
M  V30 10975 H 1036.63 -0.31615 -3.96341 0
M  V30 10976 N 1037.63 1.44308 -0.633487 0
M  V30 10977 C 1038.56 2.28943 0.108474 0
M  V30 10978 C 1039.57 1.41415 0.806582 0
M  V30 10979 O 1040.76 1.65544 0.667634 0
M  V30 10980 C 1037.86 3.17845 1.1759 0
M  V30 10981 C 1037.03 4.33802 0.559842 0
M  V30 10982 C 1036.09 5.03722 1.52154 0
M  V30 10983 O 1035.12 5.5966 1.03776 0
M  V30 10984 N 1036.32 5.05392 2.85586 0
M  V30 10985 H 1039.09 2.93262 -0.617879 0
M  V30 10986 H 1036.65 1.54781 -0.474819 0
M  V30 10987 H 1038.64 3.61485 1.81963 0
M  V30 10988 H 1037.21 2.55261 1.80445 0
M  V30 10989 H 1036.43 3.93325 -0.262559 0
M  V30 10990 H 1037.72 5.08637 0.128942 0
M  V30 10991 H 1037.11 4.61282 3.27468 0
M  V30 10992 H 1035.67 5.52813 3.45313 0
M  V30 10993 N 1039.1 0.374177 1.53094 0
M  V30 10994 C 1040.03 -0.459976 2.28925 0
M  V30 10995 C 1041.02 -1.07656 1.31698 0
M  V30 10996 O 1042.2 -1.09219 1.60577 0
M  V30 10997 C 1039.33 -1.5954 3.08487 0
M  V30 10998 C 1038.28 -1.10563 4.13473 0
M  V30 10999 C 1037.61 -2.33196 4.81169 0
M  V30 11000 C 1038.91 -0.184275 5.21975 0
M  V30 11001 H 1040.6 0.172692 2.98902 0
M  V30 11002 H 1038.15 0.0844956 1.43752 0
M  V30 11003 H 1040.1 -2.18565 3.60288 0
M  V30 11004 H 1038.83 -2.25543 2.36216 0
M  V30 11005 H 1037.49 -0.53801 3.62631 0
M  V30 11006 H 1037.13 -2.97675 4.05461 0
M  V30 11007 H 1036.83 -2.01094 5.52119 0
M  V30 11008 H 1038.36 -2.92892 5.35767 0
M  V30 11009 H 1039.77 -0.682262 5.69226 0
M  V30 11010 H 1038.17 0.0462746 6.00082 0
M  V30 11011 H 1039.24 0.771152 4.78729 0
M  V30 11012 N 1040.58 -1.57259 0.103575 0
M  V30 11013 C 1041.51 -2.17509 -0.84923 0
M  V30 11014 C 1042.49 -1.11079 -1.28824 0
M  V30 11015 O 1043.68 -1.39252 -1.35361 0
M  V30 11016 C 1040.81 -2.76221 -2.10522 0
M  V30 11017 C 1039.76 -3.88098 -1.80454 0
M  V30 11018 C 1039.09 -4.33549 -3.12952 0
M  V30 11019 C 1040.39 -5.10909 -1.08486 0
M  V30 11020 H 1042.08 -2.9738 -0.347217 0
M  V30 11021 H 1039.63 -1.43045 -0.165568 0
M  V30 11022 H 1041.58 -3.17024 -2.77621 0
M  V30 11023 H 1040.31 -1.93617 -2.63021 0
M  V30 11024 H 1038.96 -3.47847 -1.15749 0
M  V30 11025 H 1038.61 -3.47825 -3.63355 0
M  V30 11026 H 1038.31 -5.08984 -2.93614 0
M  V30 11027 H 1039.84 -4.76992 -3.81196 0
M  V30 11028 H 1041.25 -5.48828 -1.65711 0
M  V30 11029 H 1039.65 -5.91828 -0.992973 0
M  V30 11030 H 1040.72 -4.84851 -0.0690108 0
M  V30 11031 N 1042.06 0.170153 -1.56679 0
M  V30 11032 C 1042.97 1.23057 -1.99735 0
M  V30 11033 C 1043.99 1.48374 -0.908912 0
M  V30 11034 O 1045.16 1.60499 -1.21663 0
M  V30 11035 C 1042.23 2.54944 -2.34956 0
M  V30 11036 C 1041.29 2.3748 -3.57634 0
M  V30 11037 C 1040.52 3.63078 -3.91165 0
M  V30 11038 O 1040.74 4.68304 -3.2565 0
M  V30 11039 O 1039.68 3.57119 -4.8451 0
M  V30 11040 H 1043.5 0.895104 -2.9021 0
M  V30 11041 H 1041.09 0.377109 -1.44562 0
M  V30 11042 H 1042.97 3.32742 -2.58574 0
M  V30 11043 H 1041.65 2.88068 -1.47643 0
M  V30 11044 H 1040.55 1.57709 -3.39232 0
M  V30 11045 H 1041.89 2.0928 -4.45491 0
M  V30 11046 N 1043.54 1.5137 0.438746 0
M  V30 11047 C 1044.78 1.64211 1.19006 0
M  V30 11048 C 1045.12 0.356607 1.90898 0
M  V30 11049 O 1044.39 -0.643722 1.83539 0
M  V30 11050 C 1044.68 2.8445 2.20817 0
M  V30 11051 C 1044.53 4.22972 1.53018 0
M  V30 11052 C 1045.85 3.00207 3.21813 0
M  V30 11053 H 1042.97 0.597628 0.431288 0
M  V30 11054 H 1045.61 1.8385 0.479487 0
M  V30 11055 H 1043.76 2.67836 2.81418 0
M  V30 11056 H 1045.43 4.5125 0.957654 0
M  V30 11057 H 1043.67 4.25736 0.832556 0
M  V30 11058 H 1044.34 5.03094 2.27158 0
M  V30 11059 H 1046.82 3.15522 2.71266 0
M  V30 11060 H 1045.7 3.85904 3.90345 0
M  V30 11061 H 1045.96 2.12216 3.87836 0
M  V30 11062 N 1045.02 -0.694098 1.41492 0
M  V30 11063 C 1046.26 -1.4563 1.41137 0
M  V30 11064 C 1046.6 -1.94189 0.0208428 0
M  V30 11065 O 1045.87 -1.69628 -0.951655 0
M  V30 11066 C 1046.15 -2.66714 2.41941 0
M  V30 11067 C 1046.01 -2.23912 3.90107 0
M  V30 11068 C 1047.33 -3.68913 2.39981 0
M  V30 11069 H 1044.44 -0.52821 0.513968 0
M  V30 11070 H 1047.09 -0.790437 1.72778 0
M  V30 11071 H 1045.24 -3.23525 2.1509 0
M  V30 11072 H 1046.91 -1.72417 4.27867 0
M  V30 11073 H 1045.15 -1.5568 4.04903 0
M  V30 11074 H 1045.82 -3.108 4.56188 0
M  V30 11075 H 1048.3 -3.21779 2.63813 0
M  V30 11076 H 1047.17 -4.51242 3.12524 0
M  V30 11077 H 1047.44 -4.18711 1.41892 0
M  V30 11078 N 1046.49 -1.27344 -0.928501 0
M  V30 11079 C 1047.74 -1.13411 -1.67279 0
M  V30 11080 C 1048.06 0.320698 -1.92345 0
M  V30 11081 O 1047.33 1.2245 -1.52915 0
M  V30 11082 H 1045.91 -0.416712 -0.619968 0
M  V30 11083 H 1048.58 -1.5986 -1.11493 0
M  V30 11084 H 1047.67 -1.66256 -2.64131 0
M  V30 11085 N 1047.97 1.13488 -1.09353 0
M  V30 11086 C 1048.9 2.20988 -0.75409 0
M  V30 11087 C 1049.88 1.67977 0.267901 0
M  V30 11088 O 1051.07 1.93722 0.136128 0
M  V30 11089 C 1048.2 3.46869 -0.173042 0
M  V30 11090 C 1047.15 4.12965 -1.12446 0
M  V30 11091 C 1046.48 5.33163 -0.405157 0
M  V30 11092 C 1047.78 4.60388 -2.46658 0
M  V30 11093 H 1049.47 2.49639 -1.6529 0
M  V30 11094 H 1047.02 1.19987 -0.796182 0
M  V30 11095 H 1048.97 4.21331 0.0764988 0
M  V30 11096 H 1047.7 3.17611 0.760956 0
M  V30 11097 H 1046.35 3.40469 -1.35927 0
M  V30 11098 H 1046 5.00169 0.532955 0
M  V30 11099 H 1045.7 5.78332 -1.03952 0
M  V30 11100 H 1047.23 6.1038 -0.163899 0
M  V30 11101 H 1048.64 5.26276 -2.27389 0
M  V30 11102 H 1047.04 5.16294 -3.05876 0
M  V30 11103 H 1048.11 3.74949 -3.07476 0
M  V30 11104 N 1049.45 0.880621 1.30701 0
M  V30 11105 C 1050.36 0.348034 2.32004 0
M  V30 11106 C 1051.38 -0.547508 1.65162 0
M  V30 11107 O 1052.55 -0.441673 1.96497 0
M  V30 11108 C 1049.62 -0.432585 3.43991 0
M  V30 11109 C 1048.68 0.492189 4.26469 0
M  V30 11110 C 1047.91 -0.25127 5.33108 0
M  V30 11111 O 1048.14 -1.47795 5.5092 0
M  V30 11112 O 1047.07 0.396376 6.00593 0
M  V30 11113 H 1050.9 1.18798 2.79501 0
M  V30 11114 H 1048.48 0.64432 1.34792 0
M  V30 11115 H 1050.36 -0.874733 4.12221 0
M  V30 11116 H 1049.04 -1.2489 2.98637 0
M  V30 11117 H 1047.94 0.983058 3.60953 0
M  V30 11118 H 1049.28 1.27439 4.75416 0
M  V30 11119 N 1050.93 -1.4397 0.641131 0
M  V30 11120 C 1052.18 -2.01548 0.149333 0
M  V30 11121 C 1052.5 -1.50759 -1.23679 0
M  V30 11122 O 1051.77 -0.715257 -1.82376 0
M  V30 11123 H 1050.35 -0.745173 0.0522161 0
M  V30 11124 H 1053.01 -1.7634 0.830082 0
M  V30 11125 H 1052.11 -3.11851 0.124676 0
M  V30 11126 N 1052.41 -0.382291 -1.52893 0
M  V30 11127 C 1053.37 0.44408 -2.24857 0
M  V30 11128 C 1054.37 0.996004 -1.26239 0
M  V30 11129 O 1055.56 0.879114 -1.5039 0
M  V30 11130 C 1052.69 1.62234 -2.99822 0
M  V30 11131 H 1053.89 -0.185862 -2.99324 0
M  V30 11132 H 1051.44 -0.134275 -1.55722 0
M  V30 11133 H 1052.17 2.28991 -2.29638 0
M  V30 11134 H 1051.96 1.23336 -3.72197 0
M  V30 11135 H 1053.45 2.20756 -3.54481 0
M  V30 11136 N 1053.89 1.57202 -0.111913 0
M  V30 11137 C 1054.82 2.10634 0.877983 0
M  V30 11138 C 1055.8 1.02098 1.26549 0
M  V30 11139 O 1056.98 1.29707 1.36779 0
M  V30 11140 C 1054.11 2.59721 2.174 0
M  V30 11141 C 1053.15 3.80074 1.93509 0
M  V30 11142 S 1053.99 5.22834 1.1578 0
M  V30 11143 C 1055.14 5.75284 2.46576 0
M  V30 11144 H 1055.38 2.94268 0.423483 0
M  V30 11145 H 1052.91 1.54065 0.101721 0
M  V30 11146 H 1054.87 2.88657 2.91868 0
M  V30 11147 H 1053.53 1.76281 2.59969 0
M  V30 11148 H 1052.72 4.12545 2.89522 0
M  V30 11149 H 1052.32 3.51718 1.27164 0
M  V30 11150 H 1054.61 5.84576 3.42457 0
M  V30 11151 H 1055.56 6.73493 2.1866 0
M  V30 11152 H 1055.97 5.03308 2.55619 0
M  V30 11153 N 1055.36 -0.161842 1.56767 0
M  V30 11154 C 1056.27 -1.21996 2.00385 0
M  V30 11155 C 1057.29 -1.4789 0.916768 0
M  V30 11156 O 1058.47 -1.59852 1.22513 0
M  V30 11157 C 1055.53 -2.53695 2.36305 0
M  V30 11158 C 1054.59 -2.3558 3.58888 0
M  V30 11159 C 1053.82 -3.60998 3.93085 0
M  V30 11160 O 1054.05 -4.6657 3.28129 0
M  V30 11161 O 1052.98 -3.54544 4.86397 0
M  V30 11162 H 1056.81 -0.879701 2.9068 0
M  V30 11163 H 1054.39 -0.369437 1.4476 0
M  V30 11164 H 1056.27 -3.31366 2.60335 0
M  V30 11165 H 1054.95 -2.87281 1.49169 0
M  V30 11166 H 1053.86 -1.55908 3.40064 0
M  V30 11167 H 1055.19 -2.06915 4.46595 0
M  V30 11168 N 1056.84 -1.516 -0.430713 0
M  V30 11169 C 1057.77 -1.68084 -1.54347 0
M  V30 11170 C 1058.75 -0.528401 -1.53775 0
M  V30 11171 O 1059.94 -0.753072 -1.72804 0
M  V30 11172 C 1057.06 -1.70048 -2.92919 0
M  V30 11173 C 1056.11 -2.91336 -3.11489 0
M  V30 11174 S 1056.94 -4.52043 -2.87084 0
M  V30 11175 C 1058.1 -4.56761 -4.27926 0
M  V30 11176 H 1058.33 -2.62203 -1.40131 0
M  V30 11177 H 1055.86 -1.41368 -0.620853 0
M  V30 11178 H 1057.82 -1.71864 -3.72791 0
M  V30 11179 H 1056.48 -0.770946 -3.04492 0
M  V30 11180 H 1055.68 -2.8913 -4.1282 0
M  V30 11181 H 1055.28 -2.87296 -2.39451 0
M  V30 11182 H 1057.57 -4.32809 -5.21232 0
M  V30 11183 H 1058.51 -5.58604 -4.35163 0
M  V30 11184 H 1058.92 -3.86014 -4.1189 0
M  V30 11185 N 1058.32 0.686584 -1.41858 0
M  V30 11186 C 1059.57 1.44379 -1.41418 0
M  V30 11187 C 1059.89 1.94981 -0.0273696 0
M  V30 11188 O 1059.16 1.72296 0.932248 0
M  V30 11189 H 1057.74 0.53574 -0.520568 0
M  V30 11190 H 1060.4 0.812056 -1.77177 0
M  V30 11191 H 1059.5 2.30258 -2.10684 0
M  V30 11192 N 1059.8 1.27835 0.921735 0
M  V30 11193 C 1060.73 1.06874 2.02758 0
M  V30 11194 C 1061.74 0.0229418 1.62784 0
M  V30 11195 O 1062.93 0.265145 1.7652 0
M  V30 11196 C 1060.03 0.60037 3.3354 0
M  V30 11197 C 1059.2 1.71979 4.02172 0
M  V30 11198 C 1058.26 1.24615 5.11231 0
M  V30 11199 O 1057.29 1.94692 5.34868 0
M  V30 11200 N 1058.49 0.105021 5.80405 0
M  V30 11201 H 1061.26 2.02105 2.213 0
M  V30 11202 H 1058.82 1.19481 1.09251 0
M  V30 11203 H 1060.81 0.267281 4.03816 0
M  V30 11204 H 1059.38 -0.258872 3.11526 0
M  V30 11205 H 1058.6 2.22287 3.25549 0
M  V30 11206 H 1059.89 2.47092 4.44773 0
M  V30 11207 H 1059.29 -0.479745 5.63662 0
M  V30 11208 H 1057.84 -0.168846 6.51581 0
M  V30 11209 N 1061.28 -1.12907 1.09954 0
M  V30 11210 C 1062.52 -1.83661 0.833761 0
M  V30 11211 C 1062.84 -1.84736 -0.642798 0
M  V30 11212 O 1064.04 -2.51437 -1.0243 0
M  V30 11213 C 1062.5 -3.29763 1.44168 0
M  V30 11214 C 1062.11 -3.3706 2.95118 0
M  V30 11215 C 1063.85 -4.05522 1.25509 0
M  V30 11216 C 1061.76 -4.77467 3.48969 0
M  V30 11217 H 1060.69 -0.688115 0.308242 0
M  V30 11218 H 1063.34 -1.27166 1.32291 0
M  V30 11219 H 1061.72 -3.86094 0.880215 0
M  V30 11220 H 1062.9 -2.90695 3.57537 0
M  V30 11221 H 1061.21 -2.7477 3.12874 0
M  V30 11222 H 1063.81 -5.09188 1.63191 0
M  V30 11223 H 1064.15 -4.15837 0.196208 0
M  V30 11224 H 1064.68 -3.55536 1.78435 0
M  V30 11225 H 1061.42 -4.72344 4.54501 0
M  V30 11226 H 1060.94 -5.24305 2.91315 0
M  V30 11227 H 1062.62 -5.46397 3.46495 0
M  V30 11228 N 1062.75 -0.88754 -1.30232 0
M  V30 11229 C 1063.98 -0.521549 -1.99909 0
M  V30 11230 C 1064.39 0.895086 -1.66688 0
M  V30 11231 O 1063.73 1.60053 -0.90159 0
M  V30 11232 C 1063.8 -0.619564 -3.54121 0
M  V30 11233 C 1063.46 -2.00097 -4.10865 0
M  V30 11234 C 1064.46 -2.97068 -4.26669 0
M  V30 11235 C 1062.14 -2.30706 -4.46184 0
M  V30 11236 C 1064.14 -4.2278 -4.77007 0
M  V30 11237 C 1061.82 -3.56663 -4.96221 0
M  V30 11238 C 1062.82 -4.52515 -5.11585 0
M  V30 11239 O 1062.51 -5.76237 -5.60541 0
M  V30 11240 H 1062.24 -0.199904 -0.645766 0
M  V30 11241 H 1064.8 -1.19546 -1.67027 0
M  V30 11242 H 1063.03 0.111334 -3.8654 0
M  V30 11243 H 1064.71 -0.26448 -4.05037 0
M  V30 11244 H 1065.48 -2.74734 -3.99683 0
M  V30 11245 H 1061.36 -1.56865 -4.33491 0
M  V30 11246 H 1064.9 -4.97603 -4.88914 0
M  V30 11247 H 1060.8 -3.78834 -5.22643 0
M  V30 11248 H 1061.57 -5.78655 -5.78879 0
M  V30 11249 N 1064.23 1.43628 -0.648757 0
M  V30 11250 C 1065.46 2.06217 -0.167945 0
M  V30 11251 C 1065.88 1.486 1.16462 0
M  V30 11252 O 1065.23 0.61559 1.71804 0
M  V30 11253 C 1065.28 3.6144 -0.0660114 0
M  V30 11254 O 1065 4.16914 -1.34589 0
M  V30 11255 C 1066.51 4.41097 0.441408 0
M  V30 11256 H 1063.73 0.665228 -0.0878237 0
M  V30 11257 H 1066.27 1.84207 -0.888144 0
M  V30 11258 H 1064.42 3.82651 0.604722 0
M  V30 11259 H 1064.84 5.10537 -1.20218 0
M  V30 11260 H 1066.31 5.50066 0.461697 0
M  V30 11261 H 1066.79 4.13803 1.47187 0
M  V30 11262 H 1067.4 4.24845 -0.19668 0
M  V30 11263 N 1065.71 0.390394 1.52688 0
M  V30 11264 C 1066.96 -0.191067 2.01195 0
M  V30 11265 C 1067.28 -1.47229 1.27862 0
M  V30 11266 O 1066.55 -1.91793 0.399007 0
M  V30 11267 H 1065.13 -0.073596 0.743366 0
M  V30 11268 H 1067.79 0.522334 1.8777 0
M  V30 11269 H 1066.89 -0.40051 3.0952 0
M  V30 11270 N 1067.19 -1.57141 0.120249 0
M  V30 11271 C 1068.12 -2.18398 -0.826112 0
M  V30 11272 C 1069.1 -1.12439 -1.27638 0
M  V30 11273 O 1070.28 -1.40679 -1.33877 0
M  V30 11274 C 1067.41 -2.78438 -2.0758 0
M  V30 11275 C 1066.37 -3.89991 -1.76327 0
M  V30 11276 C 1065.69 -4.36844 -3.08336 0
M  V30 11277 C 1066.99 -5.12031 -1.03062 0
M  V30 11278 H 1068.69 -2.97731 -0.315656 0
M  V30 11279 H 1066.23 -1.43213 -0.150387 0
M  V30 11280 H 1068.19 -3.19951 -2.74243 0
M  V30 11281 H 1066.91 -1.96396 -2.60953 0
M  V30 11282 H 1065.57 -3.49055 -1.12053 0
M  V30 11283 H 1065.22 -3.51659 -3.59646 0
M  V30 11284 H 1064.92 -5.1207 -2.88199 0
M  V30 11285 H 1066.44 -4.81009 -3.76116 0
M  V30 11286 H 1067.86 -5.50555 -1.59881 0
M  V30 11287 H 1066.25 -5.92848 -0.930146 0
M  V30 11288 H 1067.32 -4.84897 -0.017582 0
M  V30 11289 N 1068.67 0.153526 -1.5685 0
M  V30 11290 C 1069.61 1.18973 -1.97773 0
M  V30 11291 C 1070.58 1.43041 -0.844311 0
M  V30 11292 O 1071.77 1.55484 -1.10586 0
M  V30 11293 C 1068.91 2.51981 -2.35795 0
M  V30 11294 C 1068.02 2.35143 -3.62397 0
M  V30 11295 C 1067.16 3.61141 -3.89552 0
M  V30 11296 C 1066.2 3.39311 -5.09445 0
M  V30 11297 N 1065.33 4.57423 -5.32643 0
M  V30 11298 H 1070.17 0.833758 -2.86099 0
M  V30 11299 H 1067.71 0.400252 -1.4155 0
M  V30 11300 H 1069.67 3.29527 -2.55867 0
M  V30 11301 H 1068.3 2.85539 -1.50557 0
M  V30 11302 H 1067.35 1.48684 -3.50139 0
M  V30 11303 H 1068.66 2.14969 -4.501 0
M  V30 11304 H 1067.82 4.47117 -4.10087 0
M  V30 11305 H 1066.55 3.84312 -3.00259 0
M  V30 11306 H 1065.56 2.51723 -4.8879 0
M  V30 11307 H 1066.78 3.17545 -6.00285 0
M  V30 11308 H 1064.73 4.8078 -4.46303 0
M  V30 11309 H 1064.65 4.40228 -6.14602 0
M  V30 11310 H 1065.92 5.44632 -5.57671 0
M  V30 11311 N 1070.14 1.51827 0.422667 0
M  V30 11312 C 1071.37 1.69337 1.19748 0
M  V30 11313 C 1071.79 0.396312 1.83878 0
M  V30 11314 O 1071.15 -0.644976 1.6944 0
M  V30 11315 C 1071.2 2.82082 2.24637 0
M  V30 11316 O 1070.3 2.46708 3.30468 0
M  V30 11317 H 1069.65 0.564154 0.35018 0
M  V30 11318 H 1072.18 1.98465 0.497289 0
M  V30 11319 H 1072.19 3.06599 2.69186 0
M  V30 11320 H 1070.86 3.76195 1.77341 0
M  V30 11321 H 1069.44 2.32815 2.91293 0
M  V30 11322 N 1071.62 -0.679052 1.4222 0
M  V30 11323 C 1072.59 -1.77448 1.45069 0
M  V30 11324 C 1073.59 -1.57189 0.338882 0
M  V30 11325 O 1074.78 -1.63559 0.599519 0
M  V30 11326 C 1071.91 -3.1603 1.27819 0
M  V30 11327 H 1073.1 -1.7631 2.426 0
M  V30 11328 H 1070.65 -0.888277 1.28605 0
M  V30 11329 H 1071.39 -3.22796 0.311946 0
M  V30 11330 H 1071.17 -3.32138 2.08391 0
M  V30 11331 H 1072.66 -3.9596 1.32686 0
M  V30 11332 N 1073.1 -1.28322 -0.914942 0
M  V30 11333 C 1074.35 -1.15179 -1.66067 0
M  V30 11334 C 1074.67 0.300279 -1.92674 0
M  V30 11335 O 1073.94 1.20821 -1.54205 0
M  V30 11336 H 1072.52 -0.423264 -0.615513 0
M  V30 11337 H 1075.18 -1.61034 -1.09791 0
M  V30 11338 H 1074.28 -1.69048 -2.62353 0
M  V30 11339 N 1074.58 1.12322 -1.10551 0
M  V30 11340 C 1075.99 1.35858 -0.837543 0
M  V30 11341 C 1076.19 1.94062 0.54241 0
M  V30 11342 O 1075.25 2.1676 1.29505 0
M  V30 11343 C 1076.56 2.299 -1.9382 0
M  V30 11344 C 1078.11 2.43488 -1.96679 0
M  V30 11345 C 1078.59 3.40846 -3.05922 0
M  V30 11346 N 1080.08 3.48404 -3.05236 0
M  V30 11347 C 1080.81 4.2365 -3.86405 0
M  V30 11348 N 1080.31 5.01951 -4.77512 0
M  V30 11349 N 1082.1 4.19068 -3.74618 0
M  V30 11350 H 1074.25 0.729002 -1.99498 0
M  V30 11351 H 1076.52 0.38339 -0.867016 0
M  V30 11352 H 1076.22 1.94309 -2.9315 0
M  V30 11353 H 1076.1 3.30033 -1.82641 0
M  V30 11354 H 1078.48 2.78359 -0.979813 0
M  V30 11355 H 1078.56 1.43239 -2.11934 0
M  V30 11356 H 1078.21 3.06704 -4.04839 0
M  V30 11357 H 1078.14 4.40927 -2.87907 0
M  V30 11358 H 1080.63 2.92545 -2.39219 0
M  V30 11359 H 1080.94 5.56707 -5.36002 0
M  V30 11360 H 1079.29 5.01143 -4.8154 0
M  V30 11361 H 1082.48 3.5698 -3.02792 0
M  V30 11362 H 1082.65 4.77455 -4.38111 0
M  V30 11363 N 1076.06 0.894434 1.2976 0
M  V30 11364 C 1077.47 0.589778 1.48303 0
M  V30 11365 C 1077.67 -0.870085 1.81746 0
M  V30 11366 O 1076.73 -1.65065 1.91076 0
M  V30 11367 C 1078.04 1.51107 2.59975 0
M  V30 11368 C 1079.59 1.51571 2.73853 0
M  V30 11369 C 1080.06 2.42316 3.88648 0
M  V30 11370 N 1081.56 2.40333 3.95973 0
M  V30 11371 C 1082.29 3.07254 4.84131 0
M  V30 11372 N 1081.79 3.83435 5.77018 0
M  V30 11373 N 1083.58 2.96438 4.77578 0
M  V30 11374 H 1075.73 1.83871 1.06327 0
M  V30 11375 H 1077.99 0.78758 0.527657 0
M  V30 11376 H 1077.7 2.55097 2.42112 0
M  V30 11377 H 1077.57 1.22767 3.56662 0
M  V30 11378 H 1079.96 0.483277 2.91116 0
M  V30 11379 H 1080.04 1.83946 1.77757 0
M  V30 11380 H 1079.69 3.4565 3.72141 0
M  V30 11381 H 1079.62 2.07252 4.84101 0
M  V30 11382 H 1082.11 1.84979 3.29532 0
M  V30 11383 H 1082.42 4.31565 6.4107 0
M  V30 11384 H 1080.76 3.87542 5.7692 0
M  V30 11385 H 1083.96 2.36442 4.03996 0
M  V30 11386 H 1084.13 3.48867 5.46073 0
M  V30 11387 N 1077.53 -1.43282 0.656365 0
M  V30 11388 C 1078.46 -2.33492 -0.0196962 0
M  V30 11389 C 1079.45 -1.49647 -0.80868 0
M  V30 11390 O 1080.63 -1.78303 -0.769529 0
M  V30 11391 C 1077.76 -3.33052 -0.984574 0
M  V30 11392 C 1076.71 -4.26908 -0.305483 0
M  V30 11393 C 1076.04 -5.16531 -1.38202 0
M  V30 11394 C 1077.34 -5.16073 0.804081 0
M  V30 11395 H 1079.03 -2.90272 0.733661 0
M  V30 11396 H 1076.58 -1.39574 0.354259 0
M  V30 11397 H 1078.53 -3.9506 -1.46647 0
M  V30 11398 H 1077.26 -2.74535 -1.76913 0
M  V30 11399 H 1075.92 -3.66268 0.155995 0
M  V30 11400 H 1075.56 -4.54351 -2.1581 0
M  V30 11401 H 1075.26 -5.80148 -0.932878 0
M  V30 11402 H 1076.79 -5.81414 -1.86522 0
M  V30 11403 H 1078.2 -5.71873 0.404212 0
M  V30 11404 H 1076.6 -5.88427 1.17789 0
M  V30 11405 H 1077.67 -4.55574 1.66073 0
M  V30 11406 N 1079.01 -0.398486 -1.52479 0
M  V30 11407 C 1079.98 0.420206 -2.25315 0
M  V30 11408 C 1080.98 0.982559 -1.27289 0
M  V30 11409 O 1082.17 0.863113 -1.51314 0
M  V30 11410 C 1079.3 1.59045 -3.01525 0
M  V30 11411 H 1080.49 -0.217599 -2.9911 0
M  V30 11412 H 1078.04 -0.150784 -1.55571 0
M  V30 11413 H 1078.78 2.26542 -2.32054 0
M  V30 11414 H 1078.56 1.19382 -3.73484 0
M  V30 11415 H 1080.05 2.16984 -3.56802 0
M  V30 11416 N 1080.49 1.57075 -0.12858 0
M  V30 11417 C 1081.42 2.12907 0.848708 0
M  V30 11418 C 1082.44 1.07406 1.22343 0
M  V30 11419 O 1083.63 1.34746 1.17071 0
M  V30 11420 C 1080.73 2.62167 2.1476 0
M  V30 11421 C 1079.9 3.91871 1.94309 0
M  V30 11422 C 1078.96 4.26629 3.08016 0
M  V30 11423 O 1077.98 4.9528 2.80511 0
M  V30 11424 N 1079.19 3.84721 4.34706 0
M  V30 11425 H 1081.95 2.97387 0.371636 0
M  V30 11426 H 1079.51 1.61805 0.0555574 0
M  V30 11427 H 1081.5 2.82444 2.89841 0
M  V30 11428 H 1080.07 1.82514 2.53786 0
M  V30 11429 H 1079.29 3.80406 1.03367 0
M  V30 11430 H 1080.58 4.76662 1.77962 0
M  V30 11431 H 1079.98 3.2937 4.59926 0
M  V30 11432 H 1078.54 4.10087 5.06628 0
M  V30 11433 N 1081.97 -0.145205 1.5693 0
M  V30 11434 C 1083.21 -0.863709 1.85255 0
M  V30 11435 C 1083.57 -1.78266 0.713112 0
M  V30 11436 O 1084.77 -2.54075 0.877459 0
M  V30 11437 C 1083.05 -1.61628 3.18765 0
M  V30 11438 S 1084.6 -2.37996 3.68651 0
M  V30 11439 H 1081.42 -0.288792 0.649708 0
M  V30 11440 H 1084.02 -0.123603 1.95109 0
M  V30 11441 H 1082.73 -0.932688 3.99661 0
M  V30 11442 H 1082.26 -2.39726 3.11921 0
M  V30 11443 H 1084.27 -3.63223 3.38058 0
M  V30 11444 N 1083.45 -1.52049 -0.414609 0
M  V30 11445 C 1084.41 -1.74382 -1.4874 0
M  V30 11446 C 1085.41 -0.613701 -1.48628 0
M  V30 11447 O 1086.6 -0.88152 -1.50249 0
M  V30 11448 C 1083.73 -1.82116 -2.88178 0
M  V30 11449 H 1084.93 -2.70147 -1.30233 0
M  V30 11450 H 1082.48 -1.42382 -0.644756 0
M  V30 11451 H 1083.21 -0.882457 -3.12063 0
M  V30 11452 H 1083 -2.64268 -2.89663 0
M  V30 11453 H 1084.49 -2.01155 -3.65959 0
M  V30 11454 N 1084.93 0.6715 -1.42579 0
M  V30 11455 C 1086.15 1.46471 -1.46836 0
M  V30 11456 C 1086.58 1.87921 -0.0820658 0
M  V30 11457 O 1085.93 1.5621 0.920217 0
M  V30 11458 C 1085.98 2.68796 -2.40377 0
M  V30 11459 O 1085.09 3.67188 -1.87741 0
M  V30 11460 H 1084.43 0.439901 -0.497376 0
M  V30 11461 H 1086.96 0.823342 -1.87303 0
M  V30 11462 H 1086.97 3.16828 -2.57068 0
M  V30 11463 H 1085.64 2.37967 -3.41093 0
M  V30 11464 H 1084.22 3.26237 -1.80621 0
M  V30 11465 N 1086.4 1.28806 0.908124 0
M  V30 11466 C 1087.65 1.1646 1.66027 0
M  V30 11467 C 1087.98 -0.285025 1.92097 0
M  V30 11468 O 1087.26 -1.20675 1.52538 0
M  V30 11469 C 1087.54 1.96951 3.01467 0
M  V30 11470 C 1087.39 3.50007 2.82515 0
M  V30 11471 C 1088.71 1.78932 4.02084 0
M  V30 11472 H 1085.83 0.424435 0.602515 0
M  V30 11473 H 1088.47 1.58185 1.0525 0
M  V30 11474 H 1086.62 1.61495 3.53344 0
M  V30 11475 H 1088.3 3.95401 2.37605 0
M  V30 11476 H 1086.54 3.75356 2.17463 0
M  V30 11477 H 1087.21 4.01591 3.7872 0
M  V30 11478 H 1089.69 2.09885 3.59287 0
M  V30 11479 H 1088.56 2.37615 4.94803 0
M  V30 11480 H 1088.82 0.742286 4.35824 0
M  V30 11481 N 1087.88 -1.11734 1.11145 0
M  V30 11482 C 1089.11 -1.87215 0.880811 0
M  V30 11483 C 1089.52 -1.80016 -0.569195 0
M  V30 11484 O 1088.88 -1.17926 -1.39283 0
M  V30 11485 C 1088.93 -3.36146 1.32998 0
M  V30 11486 O 1088.65 -3.43187 2.72313 0
M  V30 11487 C 1090.15 -4.28542 1.1343 0
M  V30 11488 H 1087.37 -0.592123 0.315645 0
M  V30 11489 H 1089.92 -1.41335 1.478 0
M  V30 11490 H 1088.07 -3.79542 0.776308 0
M  V30 11491 H 1088.49 -4.359 2.91705 0
M  V30 11492 H 1089.96 -5.31295 1.49764 0
M  V30 11493 H 1090.44 -4.39138 0.0735859 0
M  V30 11494 H 1091.04 -3.90935 1.67481 0
M  V30 11495 N 1089.36 -0.901303 -1.29284 0
M  V30 11496 C 1090.61 -0.52401 -1.94774 0
M  V30 11497 C 1090.92 0.934645 -1.71825 0
M  V30 11498 O 1092.13 1.41953 -2.31434 0
M  V30 11499 C 1090.58 -0.886262 -3.48817 0
M  V30 11500 C 1090.19 -2.3638 -3.80564 0
M  V30 11501 C 1091.94 -0.578955 -4.20533 0
M  V30 11502 C 1089.84 -2.66682 -5.27858 0
M  V30 11503 H 1088.77 -0.192244 -0.72908 0
M  V30 11504 H 1091.42 -1.09852 -1.46986 0
M  V30 11505 H 1089.81 -0.240666 -3.95268 0
M  V30 11506 H 1090.98 -3.05508 -3.44966 0
M  V30 11507 H 1089.29 -2.64029 -3.2199 0
M  V30 11508 H 1091.89 -0.782185 -5.28948 0
M  V30 11509 H 1092.23 0.482605 -4.13493 0
M  V30 11510 H 1092.77 -1.18246 -3.79819 0
M  V30 11511 H 1089.51 -3.71643 -5.39965 0
M  V30 11512 H 1089.03 -2.02179 -5.64698 0
M  V30 11513 H 1090.71 -2.53033 -5.95469 0
M  V30 11514 N 1090.84 1.42931 -0.663954 0
M  V30 11515 C 1092.25 1.56098 -0.332496 0
M  V30 11516 C 1092.45 1.64564 1.16279 0
M  V30 11517 O 1091.51 1.6066 1.94794 0
M  V30 11518 C 1092.82 2.81649 -1.05329 0
M  V30 11519 C 1094.37 2.95408 -1.03457 0
M  V30 11520 C 1094.85 4.23805 -1.73647 0
M  V30 11521 N 1096.34 4.30693 -1.70462 0
M  V30 11522 C 1097.07 5.28833 -2.21637 0
M  V30 11523 N 1096.57 6.33189 -2.81147 0
M  V30 11524 N 1098.36 5.20558 -2.12075 0
M  V30 11525 H 1090.51 1.3568 -1.63416 0
M  V30 11526 H 1092.77 0.652361 -0.687844 0
M  V30 11527 H 1092.48 2.81494 -2.10842 0
M  V30 11528 H 1092.35 3.72208 -0.611626 0
M  V30 11529 H 1094.74 2.95097 0.0121936 0
M  V30 11530 H 1094.82 2.06109 -1.51502 0
M  V30 11531 H 1094.47 4.24876 -2.78285 0
M  V30 11532 H 1094.4 5.12019 -1.2306 0
M  V30 11533 H 1096.89 3.55904 -1.27046 0
M  V30 11534 H 1097.2 7.04411 -3.17844 0
M  V30 11535 H 1095.55 6.33781 -2.85212 0
M  V30 11536 H 1098.74 4.3795 -1.6528 0
M  V30 11537 H 1098.91 5.96881 -2.52264 0
M  V30 11538 N 1092.32 0.406567 1.52266 0
M  V30 11539 C 1093.54 -0.169624 2.06204 0
M  V30 11540 C 1093.96 -1.39076 1.27684 0
M  V30 11541 O 1093.32 -1.79528 0.328023 0
M  V30 11542 C 1093.37 -0.522611 3.57702 0
M  V30 11543 O 1093.09 0.650028 4.33251 0
M  V30 11544 C 1094.59 -1.15281 4.28048 0
M  V30 11545 H 1091.81 -0.0215191 0.670655 0
M  V30 11546 H 1094.35 0.576781 1.96198 0
M  V30 11547 H 1092.51 -1.21891 3.67725 0
M  V30 11548 H 1092.92 0.355989 5.23291 0
M  V30 11549 H 1094.4 -1.35002 5.35237 0
M  V30 11550 H 1094.87 -2.12517 3.84361 0
M  V30 11551 H 1095.48 -0.496786 4.22389 0
M  V30 11552 N 1093.79 -1.57004 0.136909 0
M  V30 11553 C 1094.74 -2.17524 -0.823784 0
M  V30 11554 C 1095.74 -1.1294 -1.26258 0
M  V30 11555 O 1096.94 -1.3121 -1.23223 0
M  V30 11556 H 1093.32 -0.696381 -0.283827 0
M  V30 11557 H 1095.29 -2.96997 -0.289052 0
M  V30 11558 C 1094.04 -2.80331 -2.05693 0
M  V30 11559 H 1093.36 -3.60515 -1.72825 0
M  V30 11560 H 1094.8 -3.26192 -2.70878 0
M  V30 11561 C 1093.26 -1.78322 -2.85837 0
M  V30 11562 O 1093.79 -1.2475 -3.81838 0
M  V30 11563 N 1092 -1.47854 -2.50175 0
M  V30 11564 H 1091.54 -1.9161 -1.72173 0
M  V30 11565 H 1091.5 -0.798464 -3.04092 0
M  V30 11566 N 1095.27 0.136881 -1.57004 0
M  V30 11567 C 1096.22 1.16869 -1.99023 0
M  V30 11568 C 1097.19 1.42137 -0.859435 0
M  V30 11569 O 1098.37 1.54303 -1.12229 0
M  V30 11570 C 1095.51 2.49466 -2.38455 0
M  V30 11571 C 1094.63 2.31286 -3.64871 0
M  V30 11572 C 1093.76 3.56989 -3.9336 0
M  V30 11573 C 1092.8 3.33889 -5.13015 0
M  V30 11574 N 1091.94 4.51748 -5.37464 0
M  V30 11575 H 1096.78 0.803366 -2.86967 0
M  V30 11576 H 1094.32 0.385216 -1.41967 0
M  V30 11577 H 1096.27 3.26794 -2.59348 0
M  V30 11578 H 1094.9 2.83926 -1.53577 0
M  V30 11579 H 1093.96 1.44962 -3.51696 0
M  V30 11580 H 1095.27 2.10183 -4.52355 0
M  V30 11581 H 1094.42 4.42742 -4.14806 0
M  V30 11582 H 1093.16 3.81106 -3.04318 0
M  V30 11583 H 1092.17 2.46525 -4.91432 0
M  V30 11584 H 1093.39 3.1116 -6.03619 0
M  V30 11585 H 1091.34 4.76019 -4.51377 0
M  V30 11586 H 1091.25 4.33684 -6.19237 0
M  V30 11587 H 1092.52 5.38686 -5.63416 0
M  V30 11588 N 1096.75 1.52266 0.40654 0
M  V30 11589 C 1097.68 1.78755 1.50229 0
M  V30 11590 C 1098.66 0.638652 1.57655 0
M  V30 11591 O 1099.85 0.884505 1.72888 0
M  V30 11592 C 1096.98 1.94057 2.88026 0
M  V30 11593 C 1095.93 3.09667 2.95449 0
M  V30 11594 C 1095.26 3.10196 4.35526 0
M  V30 11595 C 1096.56 4.49077 2.66697 0
M  V30 11596 H 1098.25 2.70511 1.28313 0
M  V30 11597 H 1095.8 1.30167 0.615836 0
M  V30 11598 H 1097.75 2.11171 3.64671 0
M  V30 11599 H 1096.47 0.989755 3.11242 0
M  V30 11600 H 1095.13 2.92308 2.2125 0
M  V30 11601 H 1094.78 2.12831 4.55754 0
M  V30 11602 H 1094.48 3.87847 4.41416 0
M  V30 11603 H 1096 3.29443 5.14101 0
M  V30 11604 H 1097.42 4.66628 3.33064 0
M  V30 11605 H 1095.82 5.28665 2.8396 0
M  V30 11606 H 1096.89 4.56995 1.62122 0
M  V30 11607 N 1098.23 -0.663929 1.42933 0
M  V30 11608 C 1099.16 -1.78899 1.50058 0
M  V30 11609 C 1100.14 -1.66329 0.356164 0
M  V30 11610 O 1101.32 -1.85587 0.571944 0
M  V30 11611 C 1098.45 -3.17265 1.41281 0
M  V30 11612 C 1097.41 -3.44584 2.53861 0
M  V30 11613 C 1096.73 -4.82638 2.3014 0
M  V30 11614 C 1098.03 -3.40394 3.96143 0
M  V30 11615 H 1099.73 -1.73194 2.44222 0
M  V30 11616 H 1097.27 -0.83182 1.17545 0
M  V30 11617 H 1099.23 -3.95715 1.44872 0
M  V30 11618 H 1097.95 -3.23675 0.43616 0
M  V30 11619 H 1096.61 -2.685 2.49606 0
M  V30 11620 H 1096.26 -4.85711 1.30743 0
M  V30 11621 H 1095.96 -5.01879 3.056 0
M  V30 11622 H 1097.48 -5.63359 2.35497 0
M  V30 11623 H 1098.9 -4.08796 4.01943 0
M  V30 11624 H 1097.29 -3.7117 4.71543 0
M  V30 11625 H 1098.36 -2.38767 4.22041 0
M  V30 11626 N 1099.71 -1.29285 -0.901281 0
M  V30 11627 C 1101.12 -1.15499 -1.46686 0
M  V30 11628 C 1101.47 0.250446 -1.94595 0
M  V30 11629 O 1100.59 1.14581 -1.83576 0
M  V30 11630 C 1101.19 -2.0906 -2.66607 0
M  V30 11631 C 1099.75 -1.99301 -3.19306 0
M  V30 11632 C 1098.89 -2.00079 -1.91999 0
M  V30 11633 H 1101.85 -1.41793 -0.712773 0
M  V30 11634 H 1101.87 -1.6619 -3.42288 0
M  V30 11635 H 1101.38 -3.11341 -2.31707 0
M  V30 11636 H 1099.48 -1.00103 -3.58901 0
M  V30 11637 H 1099.59 -2.86885 -3.8371 0
M  V30 11638 H 1097.96 -1.44655 -2.09636 0
M  V30 11639 H 1098.74 -3.04061 -1.59379 0
M  V30 11640 N 1101.18 1.11143 -1.11736 0
M  V30 11641 C 1102.12 2.16467 -0.722299 0
M  V30 11642 C 1103.1 1.60118 0.283006 0
M  V30 11643 O 1104.28 1.87651 0.178696 0
M  V30 11644 C 1101.41 3.38632 -0.0679339 0
M  V30 11645 C 1100.45 4.13654 -1.03888 0
M  V30 11646 S 1101.29 4.70187 -2.5629 0
M  V30 11647 C 1102.44 5.95671 -1.92163 0
M  V30 11648 H 1102.67 2.49644 -1.61447 0
M  V30 11649 H 1100.21 1.22816 -0.935708 0
M  V30 11650 H 1102.17 4.09378 0.303253 0
M  V30 11651 H 1100.83 3.03709 0.80124 0
M  V30 11652 H 1100.02 5.01221 -0.528522 0
M  V30 11653 H 1099.62 3.48683 -1.35265 0
M  V30 11654 H 1101.91 6.65681 -1.25994 0
M  V30 11655 H 1102.86 6.51357 -2.77741 0
M  V30 11656 H 1103.26 5.47359 -1.3805 0
M  V30 11657 N 1102.66 0.908147 1.28804 0
M  V30 11658 C 1103.59 0.34957 2.26519 0
M  V30 11659 C 1104.61 -0.508845 1.54643 0
M  V30 11660 O 1105.8 -0.324633 1.75523 0
M  V30 11661 C 1102.9 -0.519461 3.34895 0
M  V30 11662 C 1102.07 0.315157 4.36263 0
M  V30 11663 C 1101.13 -0.488059 5.23932 0
M  V30 11664 O 1100.15 0.0974133 5.69117 0
M  V30 11665 N 1101.36 -1.79233 5.52137 0
M  V30 11666 H 1104.12 1.18945 2.75086 0
M  V30 11667 H 1101.68 0.77351 1.42227 0
M  V30 11668 H 1103.67 -1.0634 3.90479 0
M  V30 11669 H 1102.24 -1.26004 2.8608 0
M  V30 11670 H 1101.46 1.04049 3.8022 0
M  V30 11671 H 1102.75 0.886438 5.01019 0
M  V30 11672 H 1102.15 -2.2906 5.1725 0
M  V30 11673 H 1100.71 -2.28322 6.10502 0
M  V30 11674 N 1104.14 -1.42577 0.671525 0
M  V30 11675 C 1105.39 -2.01882 0.192716 0
M  V30 11676 C 1105.72 -1.52959 -1.19654 0
M  V30 11677 O 1104.99 -0.730404 -1.80265 0
M  V30 11678 C 1105.28 -3.59404 0.223734 0
M  V30 11679 C 1105.13 -4.18514 1.64821 0
M  V30 11680 C 1106.45 -4.37996 -0.429858 0
M  V30 11681 H 1103.57 -0.733523 0.0715026 0
M  V30 11682 H 1106.21 -1.69641 0.855689 0
M  V30 11683 H 1104.36 -3.87003 -0.340776 0
M  V30 11684 H 1106.03 -4.01881 2.26472 0
M  V30 11685 H 1104.28 -3.74467 2.1899 0
M  V30 11686 H 1104.95 -5.27643 1.62162 0
M  V30 11687 H 1107.42 -4.16069 0.0506433 0
M  V30 11688 H 1106.3 -5.476 -0.377503 0
M  V30 11689 H 1106.56 -4.15625 -1.50693 0
M  V30 11690 N 1105.62 -0.414636 -1.52048 0
M  V30 11691 C 1106.9 0.218172 -1.94379 0
M  V30 11692 C 1107.28 1.62133 -1.35189 0
M  V30 11693 O 1106.62 2.22271 -0.529877 0
M  V30 11694 C 1106.83 0.218932 -3.48313 0
M  V30 11695 C 1108.18 0.435604 -4.2236 0
M  V30 11696 O 1109.21 0.298049 -3.54951 0
M  V30 11697 O 1108.06 0.707217 -5.41905 0
M  V30 11698 H 1105.16 0.142173 -0.814688 0
M  V30 11699 H 1107.7 -0.470977 -1.63033 0
M  V30 11700 H 1106.48 -0.76292 -3.83791 0
M  V30 11701 H 1106.1 0.951949 -3.86036 0
M  V30 11702 N 1107.1 1.56929 -0.145233 0
M  V30 11703 C 1108.34 1.95681 0.50532 0
M  V30 11704 C 1108.67 1.03098 1.65516 0
M  V30 11705 O 1107.94 0.0921961 1.95683 0
M  V30 11706 H 1106.52 0.72252 0.189668 0
M  V30 11707 H 1109.18 1.93651 -0.220318 0
M  V30 11708 H 1108.27 2.99359 0.882631 0
M  V30 11709 N 1108.58 -0.128553 1.57075 0
M  V30 11710 C 1109.49 -1.17718 2.02927 0
M  V30 11711 C 1110.5 -1.45912 0.947932 0
M  V30 11712 O 1111.68 -1.57217 1.25876 0
M  V30 11713 C 1108.74 -2.48625 2.41633 0
M  V30 11714 C 1107.8 -2.27914 3.63804 0
M  V30 11715 C 1107.04 -3.52579 4.00654 0
M  V30 11716 O 1107.26 -4.59505 3.37952 0
M  V30 11717 O 1106.19 -3.44147 4.93808 0
M  V30 11718 H 1110.02 -0.817846 2.92481 0
M  V30 11719 H 1107.6 -0.338649 1.45511 0
M  V30 11720 H 1109.49 -3.2577 2.67305 0
M  V30 11721 H 1108.16 -2.84052 1.55229 0
M  V30 11722 H 1107.07 -1.4866 3.43294 0
M  V30 11723 H 1108.4 -1.97395 4.50883 0
M  V30 11724 N 1110.05 -1.5248 -0.398459 0
M  V30 11725 C 1111.46 -1.59107 -0.976817 0
M  V30 11726 C 1111.82 -0.438104 -1.91246 0
M  V30 11727 O 1110.94 0.440111 -2.11877 0
M  V30 11728 C 1111.54 -2.88373 -1.77838 0
M  V30 11729 C 1110.09 -2.97445 -2.30659 0
M  V30 11730 C 1109.24 -2.5414 -1.10942 0
M  V30 11731 H 1112.19 -1.57695 -0.178324 0
M  V30 11732 H 1112.21 -2.74327 -2.63676 0
M  V30 11733 H 1111.73 -3.72269 -1.09714 0
M  V30 11734 H 1109.83 -2.18066 -3.02123 0
M  V30 11735 H 1109.94 -4.019 -2.60794 0
M  V30 11736 H 1108.3 -2.08237 -1.46661 0
M  V30 11737 H 1109.09 -3.40421 -0.443684 0
M  V30 11738 N 1111.53 0.65634 -1.43283 0
M  V30 11739 C 1112.78 1.41674 -1.45946 0
M  V30 11740 C 1113.13 1.92228 -0.0812633 0
M  V30 11741 O 1112.43 1.69167 0.899607 0
M  V30 11742 C 1112.62 2.61688 -2.43421 0
M  V30 11743 C 1112.45 2.2288 -3.90583 0
M  V30 11744 C 1111.22 2.11355 -4.58974 0
M  V30 11745 C 1113.42 1.83361 -4.80503 0
M  V30 11746 N 1111.4 1.65844 -5.91074 0
M  V30 11747 C 1112.77 1.48909 -6.01852 0
M  V30 11748 C 1114.82 1.70517 -4.67791 0
M  V30 11749 C 1113.53 1.02899 -7.11902 0
M  V30 11750 C 1115.55 1.25912 -5.77841 0
M  V30 11751 C 1114.92 0.923948 -6.98314 0
M  V30 11752 H 1111.01 0.514195 -0.589175 0
M  V30 11753 H 1113.6 0.755591 -1.79441 0
M  V30 11754 H 1111.77 3.25466 -2.11958 0
M  V30 11755 H 1113.5 3.28374 -2.36542 0
M  V30 11756 H 1110.26 2.31014 -4.13436 0
M  V30 11757 H 1110.68 1.45459 -6.61189 0
M  V30 11758 H 1115.32 1.9507 -3.7511 0
M  V30 11759 H 1113.04 0.770942 -8.04414 0
M  V30 11760 H 1116.63 1.16468 -5.70023 0
M  V30 11761 H 1115.51 0.584057 -7.82022 0
M  V30 11762 N 1113.01 1.29761 0.894412 0
M  V30 11763 C 1113.94 1.09666 2.00121 0
M  V30 11764 C 1114.92 0.00700077 1.62598 0
M  V30 11765 O 1116.1 0.158728 1.87831 0
M  V30 11766 C 1113.23 0.670588 3.31995 0
M  V30 11767 C 1112.28 1.75974 3.88504 0
M  V30 11768 S 1113.11 3.36013 4.1696 0
M  V30 11769 C 1114.27 2.95285 5.51867 0
M  V30 11770 H 1114.5 2.03369 2.1686 0
M  V30 11771 H 1112.03 1.13968 1.04166 0
M  V30 11772 H 1113.99 0.431481 4.08226 0
M  V30 11773 H 1112.65 -0.246924 3.13128 0
M  V30 11774 H 1111.84 1.41367 4.83768 0
M  V30 11775 H 1111.45 1.95264 3.1898 0
M  V30 11776 H 1113.74 2.42659 6.32553 0
M  V30 11777 H 1114.68 3.8942 5.91403 0
M  V30 11778 H 1115.09 2.33426 5.13977 0
M  V30 11779 N 1114.49 -1.10549 1.12324 0
M  V30 11780 C 1115.42 -2.16657 0.747826 0
M  V30 11781 C 1116.43 -1.61238 -0.224981 0
M  V30 11782 O 1117.62 -1.78499 -0.00649408 0
M  V30 11783 C 1114.72 -3.38791 0.0859421 0
M  V30 11784 C 1113.89 -4.23655 1.08792 0
M  V30 11785 C 1112.95 -5.24239 0.453871 0
M  V30 11786 O 1111.98 -5.58262 1.11052 0
M  V30 11787 N 1113.18 -5.75246 -0.779215 0
M  V30 11788 H 1115.95 -2.49472 1.66084 0
M  V30 11789 H 1113.51 -1.26157 1.01469 0
M  V30 11790 H 1115.5 -4.03182 -0.350186 0
M  V30 11791 H 1114.07 -3.03961 -0.729807 0
M  V30 11792 H 1113.29 -3.55578 1.70171 0
M  V30 11793 H 1114.58 -4.77187 1.76549 0
M  V30 11794 H 1113.98 -5.49802 -1.3317 0
M  V30 11795 H 1112.53 -6.41428 -1.15818 0
M  V30 11796 N 1115.97 -0.914965 -1.28321 0
M  V30 11797 C 1117.38 -0.59512 -1.76961 0
M  V30 11798 C 1117.73 0.88958 -1.74874 0
M  V30 11799 O 1116.85 1.6959 -1.34418 0
M  V30 11800 C 1117.45 -1.07353 -3.21342 0
M  V30 11801 C 1116.01 -0.804577 -3.677 0
M  V30 11802 C 1115.15 -1.23955 -2.48053 0
M  V30 11803 H 1118.1 -1.0961 -1.14767 0
M  V30 11804 H 1118.13 -0.415506 -3.78225 0
M  V30 11805 H 1117.64 -2.15413 -3.22829 0
M  V30 11806 H 1115.74 0.26277 -3.71672 0
M  V30 11807 H 1115.85 -1.41317 -4.57784 0
M  V30 11808 H 1114.22 -0.658274 -2.46046 0
M  V30 11809 H 1115 -2.32853 -2.52258 0
M  V30 11810 N 1117.44 1.42219 -0.679077 0
M  V30 11811 C 1118.68 2.03349 -0.207058 0
M  V30 11812 C 1119.05 1.52554 1.16581 0
M  V30 11813 O 1120.25 2.05499 1.73274 0
M  V30 11814 C 1118.52 3.56562 -0.244537 0
M  V30 11815 S 1120.08 4.38523 0.155853 0
M  V30 11816 H 1116.9 0.705932 -0.0847444 0
M  V30 11817 H 1119.5 1.73904 -0.893183 0
M  V30 11818 H 1118.2 3.91028 -1.246 0
M  V30 11819 H 1117.73 3.90686 0.461282 0
M  V30 11820 H 1119.75 4.76389 1.38808 0
M  V30 11821 N 1118.92 0.422693 1.51826 0
M  V30 11822 C 1120.16 -0.147997 2.03864 0
M  V30 11823 C 1120.53 -1.41224 1.30076 0
M  V30 11824 O 1121.73 -2.06224 1.72409 0
M  V30 11825 C 1120 -0.376248 3.55414 0
M  V30 11826 S 1121.56 -0.912444 4.29208 0
M  V30 11827 H 1118.37 -0.0387084 0.709946 0
M  V30 11828 H 1120.98 0.578733 1.86738 0
M  V30 11829 H 1119.68 0.550451 4.06692 0
M  V30 11830 H 1119.21 -1.13047 3.76807 0
M  V30 11831 H 1121.23 -2.19161 4.45177 0
M  V30 11832 N 1120.4 -1.5685 0.153553 0
M  V30 11833 C 1121.63 -2.00701 -0.502678 0
M  V30 11834 C 1122.04 -1.0337 -1.57988 0
M  V30 11835 O 1121.4 -0.0317233 -1.82472 0
M  V30 11836 C 1121.45 -3.44443 -1.09732 0
M  V30 11837 O 1121.17 -4.38054 -0.0631405 0
M  V30 11838 C 1122.67 -4.03605 -1.83352 0
M  V30 11839 H 1119.89 -0.658229 -0.130289 0
M  V30 11840 H 1122.44 -2.02965 0.250063 0
M  V30 11841 H 1120.59 -3.43009 -1.80065 0
M  V30 11842 H 1121.01 -5.22114 -0.499681 0
M  V30 11843 H 1122.48 -5.0616 -2.20241 0
M  V30 11844 H 1122.96 -3.44687 -2.7219 0
M  V30 11845 H 1123.56 -4.08688 -1.17703 0
M  V30 11846 N 1121.88 0.120221 -1.57141 0
M  V30 11847 C 1123.13 0.826791 -1.83976 0
M  V30 11848 C 1123.44 1.81102 -0.739014 0
M  V30 11849 O 1124.65 2.56368 -0.893736 0
M  V30 11850 C 1123.1 1.52108 -3.26176 0
M  V30 11851 C 1122.71 0.577902 -4.44257 0
M  V30 11852 C 1124.45 2.21286 -3.62261 0
M  V30 11853 C 1122.36 1.27535 -5.77485 0
M  V30 11854 H 1121.29 0.312508 -0.686189 0
M  V30 11855 H 1123.94 0.0795343 -1.83328 0
M  V30 11856 H 1122.32 2.31492 -3.2129 0
M  V30 11857 H 1123.5 -0.182629 -4.60438 0
M  V30 11858 H 1121.81 -0.00684348 -4.16399 0
M  V30 11859 H 1124.41 2.74154 -4.59068 0
M  V30 11860 H 1124.75 2.99029 -2.89634 0
M  V30 11861 H 1125.29 1.48791 -3.68925 0
M  V30 11862 H 1122.02 0.539237 -6.53278 0
M  V30 11863 H 1121.54 2.00792 -5.65192 0
M  V30 11864 H 1123.22 1.80888 -6.21199 0
M  V30 11865 N 1123.36 1.52689 0.390367 0
M  V30 11866 C 1124.3 1.7737 1.47677 0
M  V30 11867 C 1125.27 0.616864 1.54221 0
M  V30 11868 O 1126.46 0.856437 1.70499 0
M  V30 11869 C 1123.6 1.94715 2.84921 0
M  V30 11870 C 1122.71 3.22405 2.8754 0
M  V30 11871 C 1121.85 3.30074 4.16202 0
M  V30 11872 C 1120.89 4.51893 4.12867 0
M  V30 11873 N 1120.02 4.56851 5.33134 0
M  V30 11874 H 1124.86 2.70084 1.25932 0
M  V30 11875 H 1122.4 1.33813 0.610943 0
M  V30 11876 H 1124.36 2.02755 3.64618 0
M  V30 11877 H 1122.99 1.05363 3.0512 0
M  V30 11878 H 1122.04 3.23442 2.00223 0
M  V30 11879 H 1123.35 4.12156 2.80943 0
M  V30 11880 H 1122.51 3.3729 5.04302 0
M  V30 11881 H 1121.24 2.38295 4.25519 0
M  V30 11882 H 1120.25 4.44803 3.23156 0
M  V30 11883 H 1121.47 5.44987 4.05174 0
M  V30 11884 H 1119.42 3.67963 5.43083 0
M  V30 11885 H 1119.34 5.40472 5.28607 0
M  V30 11886 H 1120.61 4.6832 6.23134 0
M  V30 11887 N 1124.83 -0.648732 1.43629 0
M  V30 11888 C 1126.08 -1.40446 1.44768 0
M  V30 11889 C 1126.4 -1.95447 0.0773445 0
M  V30 11890 O 1127.6 -2.71479 -0.0337942 0
M  V30 11891 C 1126.06 -2.54194 2.54781 0
M  V30 11892 C 1125.67 -2.05781 3.97942 0
M  V30 11893 C 1127.41 -3.31529 2.65121 0
M  V30 11894 C 1125.32 -3.16767 4.99412 0
M  V30 11895 H 1124.25 -0.527717 0.538545 0
M  V30 11896 H 1126.9 -0.699756 1.69634 0
M  V30 11897 H 1125.28 -3.27156 2.23125 0
M  V30 11898 H 1126.45 -1.398 4.39081 0
M  V30 11899 H 1124.77 -1.41312 3.91688 0
M  V30 11900 H 1127.37 -4.14233 3.38105 0
M  V30 11901 H 1127.71 -3.79855 1.70341 0
M  V30 11902 H 1128.24 -2.65649 2.961 0
M  V30 11903 H 1124.98 -2.73404 5.9576 0
M  V30 11904 H 1124.5 -3.81445 4.62882 0
M  V30 11905 H 1126.18 -3.81827 5.22319 0
M  V30 11906 N 1126.31 -1.30234 -0.887518 0
M  V30 11907 C 1127.54 -1.21829 -1.67229 0
M  V30 11908 C 1127.96 0.219251 -1.87523 0
M  V30 11909 O 1127.31 1.14526 -1.42091 0
M  V30 11910 C 1127.36 -1.94044 -3.05007 0
M  V30 11911 O 1127.08 -3.32185 -2.85631 0
M  V30 11912 C 1128.59 -1.92265 -3.99436 0
M  V30 11913 H 1125.81 -0.421716 -0.521916 0
M  V30 11914 H 1128.35 -1.71816 -1.10903 0
M  V30 11915 H 1126.5 -1.47861 -3.58072 0
M  V30 11916 H 1126.92 -3.68724 -3.73018 0
M  V30 11917 H 1128.39 -2.47336 -4.93486 0
M  V30 11918 H 1128.87 -0.900984 -4.29859 0
M  V30 11919 H 1129.48 -2.38247 -3.52305 0
M  V30 11920 N 1127.79 1.09952 -1.12909 0
M  V30 11921 C 1128.74 2.14591 -0.77037 0
M  V30 11922 C 1129.72 1.59204 0.233021 0
M  V30 11923 O 1130.92 1.7696 0.0377599 0
M  V30 11924 C 1128.05 3.42514 -0.232117 0
M  V30 11925 C 1127.13 4.04823 -1.26409 0
M  V30 11926 N 1127.52 4.41763 -2.46331 0
M  V30 11927 C 1125.82 4.31951 -1.11062 0
M  V30 11928 C 1126.52 4.90778 -3.12269 0
M  V30 11929 N 1125.5 4.87896 -2.39704 0
M  V30 11930 H 1129.3 2.40951 -1.68285 0
M  V30 11931 H 1126.81 1.27125 -1.0106 0
M  V30 11932 H 1128.81 4.16878 0.0430853 0
M  V30 11933 H 1127.47 3.17612 0.674757 0
M  V30 11934 H 1128.48 4.33299 -2.83677 0
M  V30 11935 H 1125.16 4.16681 -0.261456 0
M  V30 11936 H 1126.55 5.28868 -4.14425 0
M  V30 11937 N 1129.27 0.921757 1.27833 0
M  V30 11938 C 1130.22 0.414838 2.27041 0
M  V30 11939 C 1131.19 -0.515045 1.57913 0
M  V30 11940 O 1132.37 -0.435499 1.85763 0
M  V30 11941 C 1129.51 -0.331744 3.43502 0
M  V30 11942 C 1128.62 0.631565 4.27358 0
M  V30 11943 C 1127.76 -0.134265 5.3103 0
M  V30 11944 C 1126.8 0.822138 6.06554 0
M  V30 11945 N 1125.93 0.0893149 7.02043 0
M  V30 11946 H 1130.77 1.26585 2.69778 0
M  V30 11947 H 1128.31 0.635488 1.32665 0
M  V30 11948 H 1130.27 -0.780866 4.09827 0
M  V30 11949 H 1128.9 -1.14704 3.01733 0
M  V30 11950 H 1127.95 1.19922 3.61003 0
M  V30 11951 H 1129.26 1.36274 4.79824 0
M  V30 11952 H 1128.42 -0.643579 6.03277 0
M  V30 11953 H 1127.16 -0.898443 4.79353 0
M  V30 11954 H 1126.16 1.34275 5.33151 0
M  V30 11955 H 1127.39 1.586 6.6032 0
M  V30 11956 H 1125.33 -0.656725 6.52704 0
M  V30 11957 H 1125.25 0.760167 7.52169 0
M  V30 11958 H 1126.52 -0.399541 7.78475 0
M  V30 11959 N 1130.75 -1.41857 0.686609 0
M  V30 11960 C 1131.69 -2.326 0.0041351 0
M  V30 11961 C 1132.69 -1.50474 -0.778077 0
M  V30 11962 O 1133.89 -1.66468 -0.684709 0
M  V30 11963 H 1130.27 -0.751797 -0.0174615 0
M  V30 11964 H 1132.24 -2.87844 0.786656 0
M  V30 11965 C 1130.99 -3.35175 -0.924819 0
M  V30 11966 H 1130.31 -3.98416 -0.332339 0
M  V30 11967 H 1131.75 -4.01229 -1.37082 0
M  V30 11968 C 1130.21 -2.68359 -2.03679 0
M  V30 11969 O 1130.74 -2.52453 -3.12459 0
M  V30 11970 N 1128.95 -2.27196 -1.81192 0
M  V30 11971 H 1128.49 -2.40333 -0.92725 0
M  V30 11972 H 1128.45 -1.82824 -2.55778 0
M  V30 11973 N 1132.22 -0.430739 -1.51599 0
M  V30 11974 C 1133.16 0.419726 -2.25324 0
M  V30 11975 C 1134.17 0.991925 -1.29092 0
M  V30 11976 O 1135.36 0.887188 -1.54891 0
M  V30 11977 C 1132.46 1.59844 -2.98836 0
M  V30 11978 C 1131.63 1.14629 -4.22112 0
M  V30 11979 C 1130.69 2.19437 -4.78261 0
M  V30 11980 O 1129.72 1.79141 -5.40275 0
M  V30 11981 N 1130.92 3.51849 -4.61717 0
M  V30 11982 H 1133.68 -0.212112 -2.98948 0
M  V30 11983 H 1131.24 -0.259269 -1.59811 0
M  V30 11984 H 1133.24 2.29567 -3.33288 0
M  V30 11985 H 1131.81 2.13575 -2.28264 0
M  V30 11986 H 1131.03 0.276367 -3.9323 0
M  V30 11987 H 1132.31 0.821488 -5.02124 0
M  V30 11988 H 1131.71 3.87324 -4.12306 0
M  V30 11989 H 1130.27 4.17486 -5.00548 0
M  V30 11990 N 1133.7 1.56767 -0.161869 0
M  V30 11991 C 1134.67 2.16299 0.758104 0
M  V30 11992 C 1135.67 1.10859 1.16478 0
M  V30 11993 O 1136.86 1.36422 1.08327 0
M  V30 11994 C 1133.99 2.73819 2.03067 0
M  V30 11995 H 1135.18 2.98938 0.239992 0
M  V30 11996 H 1132.73 1.56054 0.0876532 0
M  V30 11997 H 1133.47 1.94887 2.59209 0
M  V30 11998 H 1133.25 3.50974 1.74813 0
M  V30 11999 H 1134.74 3.19638 2.68741 0
M  V30 12000 N 1135.18 -0.111886 1.57202 0
M  V30 12001 C 1136.59 -0.668261 1.74331 0
M  V30 12002 C 1136.94 -1.79959 0.781609 0
M  V30 12003 O 1136.07 -2.16356 -0.043833 0
M  V30 12004 C 1136.66 -1.219 3.1611 0
M  V30 12005 C 1135.22 -1.7216 3.34721 0
M  V30 12006 C 1134.37 -0.624223 2.70183 0
M  V30 12007 H 1137.32 0.114081 1.58289 0
M  V30 12008 H 1137.34 -2.08858 3.18054 0
M  V30 12009 H 1136.85 -0.395381 3.86081 0
M  V30 12010 H 1134.95 -2.56976 2.69803 0
M  V30 12011 H 1135.07 -1.82615 4.42932 0
M  V30 12012 H 1133.43 -1.05958 2.31614 0
M  V30 12013 H 1134.21 0.188537 3.42782 0
M  V30 12014 N 1136.66 -1.52894 -0.382264 0
M  V30 12015 C 1137.59 -1.7291 -1.48921 0
M  V30 12016 C 1138.57 -0.577056 -1.52016 0
M  V30 12017 O 1139.75 -0.807667 -1.7032 0
M  V30 12018 C 1136.88 -1.79281 -2.87361 0
M  V30 12019 C 1135.93 -3.01099 -3.02063 0
M  V30 12020 S 1136.76 -4.60947 -2.72558 0
M  V30 12021 C 1137.92 -4.70144 -4.13178 0
M  V30 12022 H 1138.15 -2.66529 -1.31718 0
M  V30 12023 H 1135.68 -1.43271 -0.575563 0
M  V30 12024 H 1137.64 -1.83637 -3.67134 0
M  V30 12025 H 1136.3 -0.867428 -3.01885 0
M  V30 12026 H 1135.49 -3.02117 -4.03412 0
M  V30 12027 H 1135.1 -2.94769 -2.3019 0
M  V30 12028 H 1137.39 -4.49173 -5.07198 0
M  V30 12029 H 1138.33 -5.72166 -4.17172 0
M  V30 12030 H 1138.74 -3.98923 -3.99401 0
M  V30 12031 N 1138.14 0.641106 -1.43971 0
M  V30 12032 C 1139.07 1.76599 -1.44527 0
M  V30 12033 C 1140.05 1.59709 -0.305257 0
M  V30 12034 O 1141.23 1.81728 -0.50071 0
M  V30 12035 C 1138.36 3.14052 -1.26843 0
M  V30 12036 C 1137.41 3.49615 -2.44278 0
M  V30 12037 S 1138.24 3.4822 -4.06821 0
M  V30 12038 C 1139.39 4.8831 -3.91541 0
M  V30 12039 H 1139.63 1.75858 -2.3971 0
M  V30 12040 H 1137.16 0.814834 -1.31148 0
M  V30 12041 H 1139.12 3.93376 -1.17327 0
M  V30 12042 H 1137.78 3.12342 -0.331872 0
M  V30 12043 H 1136.97 4.49611 -2.2774 0
M  V30 12044 H 1136.57 2.77732 -2.50482 0
M  V30 12045 H 1138.87 5.77282 -3.54615 0
M  V30 12046 H 1139.81 5.099 -4.91333 0
M  V30 12047 H 1140.22 4.62414 -3.2378 0
M  V30 12048 N 1139.62 1.30703 0.880598 0
M  V30 12049 C 1140.55 1.11783 1.98947 0
M  V30 12050 C 1141.53 0.0242461 1.62582 0
M  V30 12051 O 1142.71 0.178641 1.87652 0
M  V30 12052 C 1139.84 0.705762 3.31265 0
M  V30 12053 C 1138.88 1.80084 3.86616 0
M  V30 12054 S 1139.72 3.40416 4.13373 0
M  V30 12055 C 1140.87 3.01122 5.48704 0
M  V30 12056 H 1141.11 2.05658 2.14691 0
M  V30 12057 H 1138.64 1.15067 1.02951 0
M  V30 12058 H 1140.6 0.474754 4.07745 0
M  V30 12059 H 1139.26 -0.213699 3.13372 0
M  V30 12060 H 1138.45 1.4649 4.82241 0
M  V30 12061 H 1138.05 1.98636 3.16891 0
M  V30 12062 H 1140.34 2.49355 6.29943 0
M  V30 12063 H 1141.29 3.95671 5.87239 0
M  V30 12064 H 1141.7 2.38865 5.11472 0
M  V30 12065 N 1141.09 -1.09351 1.1349 0
M  V30 12066 C 1142.34 -1.81185 0.89535 0
M  V30 12067 C 1142.66 -1.86173 -0.580048 0
M  V30 12068 O 1141.93 -1.34784 -1.42162 0
M  V30 12069 H 1140.51 -0.671011 0.328257 0
M  V30 12070 H 1143.17 -1.32255 1.43159 0
M  V30 12071 H 1142.27 -2.84339 1.28676 0
M  V30 12072 N 1142.57 -0.928524 -1.27343 0
M  V30 12073 C 1143.98 -0.613856 -1.7632 0
M  V30 12074 C 1144.33 0.870983 -1.75808 0
M  V30 12075 O 1143.46 1.68155 -1.36209 0
M  V30 12076 C 1144.05 -1.10755 -3.20186 0
M  V30 12077 C 1142.61 -0.843532 -3.66826 0
M  V30 12078 C 1141.76 -1.26579 -2.46724 0
M  V30 12079 H 1144.71 -1.10821 -1.13598 0
M  V30 12080 H 1144.73 -0.455598 -3.77763 0
M  V30 12081 H 1144.24 -2.18825 -3.20526 0
M  V30 12082 H 1142.34 0.223334 -3.7193 0
M  V30 12083 H 1142.46 -1.46165 -4.56259 0
M  V30 12084 H 1140.82 -0.684334 -2.45334 0
M  V30 12085 H 1141.6 -2.35516 -2.49774 0
M  V30 12086 N 1144.05 1.41491 -0.694123 0
M  V30 12087 C 1145.46 1.84283 -0.299439 0
M  V30 12088 C 1145.81 1.58081 1.16211 0
M  V30 12089 O 1144.94 1.05051 1.89191 0
M  V30 12090 C 1145.53 3.34522 -0.536696 0
M  V30 12091 C 1144.09 3.7589 -0.195944 0
M  V30 12092 C 1143.24 2.64908 -0.819692 0
M  V30 12093 H 1146.19 1.31063 -0.894884 0
M  V30 12094 H 1146.21 3.79947 0.205062 0
M  V30 12095 H 1145.72 3.53561 -1.6005 0
M  V30 12096 H 1143.82 3.62452 0.863655 0
M  V30 12097 H 1143.94 4.74671 -0.649954 0
M  V30 12098 H 1142.3 2.53476 -0.249412 0
M  V30 12099 H 1143.08 2.86765 -1.88734 0
M  V30 12100 N 1145.53 0.438773 1.51369 0
M  V30 12101 C 1146.46 -0.407771 2.25543 0
M  V30 12102 C 1147.47 -0.985065 1.29616 0
M  V30 12103 O 1148.66 -0.878961 1.55359 0
M  V30 12104 C 1145.76 -1.58257 2.9968 0
M  V30 12105 C 1144.93 -1.12389 4.22714 0
M  V30 12106 C 1143.99 -2.16897 4.79418 0
M  V30 12107 O 1143.02 -1.76273 5.41218 0
M  V30 12108 N 1144.22 -3.49396 4.63576 0
M  V30 12109 H 1146.99 0.227963 2.98832 0
M  V30 12110 H 1144.55 0.267741 1.59671 0
M  V30 12111 H 1146.54 -2.27796 3.34501 0
M  V30 12112 H 1145.11 -2.12362 2.29393 0
M  V30 12113 H 1144.33 -0.255509 3.93371 0
M  V30 12114 H 1145.62 -0.794848 5.02553 0
M  V30 12115 H 1145.02 -3.85132 4.14355 0
M  V30 12116 H 1143.57 -4.14826 5.02755 0
M  V30 12117 N 1147.01 -1.56678 0.170181 0
M  V30 12118 C 1147.95 -2.17909 -0.760556 0
M  V30 12119 C 1148.92 -1.11875 -1.22773 0
M  V30 12120 O 1150.11 -1.40021 -1.2961 0
M  V30 12121 C 1147.25 -2.82305 -1.9849 0
M  V30 12122 C 1146.36 -4.02796 -1.5614 0
M  V30 12123 C 1145.5 -4.55121 -2.73932 0
M  V30 12124 C 1144.53 -5.68025 -2.28067 0
M  V30 12125 N 1143.67 -6.14865 -3.38947 0
M  V30 12126 H 1148.51 -2.97098 -0.231629 0
M  V30 12127 H 1146.05 -1.46742 -0.102602 0
M  V30 12128 H 1148.01 -3.17797 -2.70298 0
M  V30 12129 H 1146.64 -2.05721 -2.48755 0
M  V30 12130 H 1145.69 -3.73131 -0.740097 0
M  V30 12131 H 1147 -4.84526 -1.18472 0
M  V30 12132 H 1146.15 -4.92789 -3.53898 0
M  V30 12133 H 1144.89 -3.72445 -3.14858 0
M  V30 12134 H 1143.9 -5.2991 -1.46546 0
M  V30 12135 H 1145.12 -6.52501 -1.88199 0
M  V30 12136 H 1143.07 -5.35119 -3.79452 0
M  V30 12137 H 1142.99 -6.91582 -3.05369 0
M  V30 12138 H 1144.25 -6.57183 -4.19203 0
M  V30 12139 N 1148.48 0.103547 -1.57259 0
M  V30 12140 C 1149.71 0.82624 -1.90232 0
M  V30 12141 C 1150.13 1.71902 -0.763641 0
M  V30 12142 O 1149.49 1.79043 0.285181 0
M  V30 12143 C 1149.54 1.62265 -3.22029 0
M  V30 12144 O 1148.64 2.73091 -3.09023 0
M  V30 12145 H 1147.98 0.227528 -0.6238 0
M  V30 12146 H 1150.51 0.081307 -2.04438 0
M  V30 12147 H 1150.52 2.00865 -3.5513 0
M  V30 12148 H 1149.2 0.967383 -4.04493 0
M  V30 12149 H 1147.78 2.3758 -2.8742 0
M  V30 12150 N 1149.96 1.53094 0.37415 0
M  V30 12151 C 1151.19 1.73061 1.143 0
M  V30 12152 C 1151.61 0.454611 1.82524 0
M  V30 12153 O 1150.97 -0.590743 1.71406 0
M  V30 12154 C 1151.02 2.89086 2.15549 0
M  V30 12155 O 1150.12 2.57096 3.22452 0
M  V30 12156 H 1149.46 0.575009 0.332055 0
M  V30 12157 H 1151.99 1.99946 0.433897 0
M  V30 12158 H 1152 3.15007 2.59296 0
M  V30 12159 H 1150.68 3.81647 1.65283 0
M  V30 12160 H 1149.25 2.41965 2.83738 0
M  V30 12161 N 1151.44 -0.633461 1.44309 0
M  V30 12162 C 1152.69 -1.39306 1.46969 0
M  V30 12163 C 1153.01 -1.94235 0.101403 0
M  V30 12164 O 1152.27 -1.73959 -0.896475 0
M  V30 12165 C 1152.57 -2.57783 2.47554 0
M  V30 12166 C 1152.23 -2.21156 3.92939 0
M  V30 12167 C 1150.9 -2.1088 4.32531 0
M  V30 12168 C 1153.25 -1.9218 4.84475 0
M  V30 12169 C 1150.58 -1.69812 5.61588 0
M  V30 12170 C 1152.93 -1.52605 6.13917 0
M  V30 12171 C 1151.59 -1.40868 6.52466 0
M  V30 12172 H 1150.86 -0.509758 0.537799 0
M  V30 12173 H 1153.51 -0.718552 1.77508 0
M  V30 12174 H 1151.81 -3.30456 2.1049 0
M  V30 12175 H 1153.51 -3.16009 2.46859 0
M  V30 12176 H 1150.1 -2.30072 3.61614 0
M  V30 12177 H 1154.29 -1.9903 4.54644 0
M  V30 12178 H 1149.54 -1.59327 5.90275 0
M  V30 12179 H 1153.72 -1.29221 6.84306 0
M  V30 12180 H 1151.34 -1.08818 7.52371 0
M  V30 12181 N 1152.92 -1.31168 -0.873655 0
M  V30 12182 C 1154.17 -1.20642 -1.6264 0
M  V30 12183 C 1154.49 0.236286 -1.93059 0
M  V30 12184 O 1153.75 1.18401 -1.55819 0
M  V30 12185 C 1154.05 -1.99204 -2.96736 0
M  V30 12186 C 1153.71 -3.48734 -2.85824 0
M  V30 12187 C 1152.38 -3.89507 -2.82555 0
M  V30 12188 C 1154.73 -4.43905 -2.73127 0
M  V30 12189 C 1152.06 -5.23724 -2.64442 0
M  V30 12190 C 1154.41 -5.78242 -2.56551 0
M  V30 12191 C 1153.07 -6.18241 -2.51663 0
M  V30 12192 H 1152.34 -0.44146 -0.595142 0
M  V30 12193 H 1154.99 -1.62394 -1.01492 0
M  V30 12194 H 1153.29 -1.50122 -3.61899 0
M  V30 12195 H 1154.99 -1.88443 -3.53963 0
M  V30 12196 H 1151.58 -3.1634 -2.89184 0
M  V30 12197 H 1155.76 -4.13338 -2.7471 0
M  V30 12198 H 1151.02 -5.53794 -2.59081 0
M  V30 12199 H 1155.19 -6.51616 -2.45702 0
M  V30 12200 H 1152.82 -7.22185 -2.37387 0
M  V30 12201 N 1154.4 1.08748 -1.14068 0
M  V30 12202 C 1155.62 1.85353 -0.930532 0
M  V30 12203 C 1156.05 1.80892 0.515717 0
M  V30 12204 O 1155.4 1.19146 1.36652 0
M  V30 12205 C 1155.45 3.30962 -1.43167 0
M  V30 12206 O 1154.56 4.0769 -0.621468 0
M  V30 12207 H 1153.9 0.574485 -0.332962 0
M  V30 12208 H 1156.43 1.37282 -1.51707 0
M  V30 12209 H 1156.44 3.81807 -1.43832 0
M  V30 12210 H 1155.11 3.33524 -2.48464 0
M  V30 12211 H 1153.69 3.66587 -0.683267 0
M  V30 12212 N 1155.87 0.935264 1.26849 0
M  V30 12213 C 1156.8 0.457776 2.28969 0
M  V30 12214 C 1157.79 -0.48587 1.63013 0
M  V30 12215 O 1158.97 -0.388998 1.90264 0
M  V30 12216 C 1156.1 -0.283332 3.46142 0
M  V30 12217 C 1155.05 0.573196 4.24144 0
M  V30 12218 C 1154.38 -0.297525 5.33872 0
M  V30 12219 C 1155.68 1.84153 4.88759 0
M  V30 12220 H 1157.37 1.31125 2.69159 0
M  V30 12221 H 1154.92 0.631956 1.29392 0
M  V30 12222 H 1156.87 -0.628366 4.16689 0
M  V30 12223 H 1155.6 -1.1709 3.04889 0
M  V30 12224 H 1154.26 0.901043 3.55354 0
M  V30 12225 H 1153.9 -1.18427 4.8886 0
M  V30 12226 H 1153.6 0.272126 5.8697 0
M  V30 12227 H 1155.13 -0.637961 6.07258 0
M  V30 12228 H 1156.54 1.5641 5.51551 0
M  V30 12229 H 1154.94 2.35528 5.51948 0
M  V30 12230 H 1156.01 2.5565 4.12033 0
M  V30 12231 N 1157.35 -1.41121 0.701616 0
M  V30 12232 C 1158.77 -1.55162 0.373766 0
M  V30 12233 C 1158.97 -1.6759 -1.11875 0
M  V30 12234 O 1158.02 -1.65768 -1.90465 0
M  V30 12235 C 1159.34 -2.78758 1.12759 0
M  V30 12236 C 1160.89 -2.92561 1.11253 0
M  V30 12237 C 1161.36 -4.19052 1.84822 0
M  V30 12238 N 1162.85 -4.26023 1.81821 0
M  V30 12239 C 1163.59 -5.22771 2.3558 0
M  V30 12240 N 1163.08 -6.25512 2.97836 0
M  V30 12241 N 1164.88 -5.14752 2.25802 0
M  V30 12242 H 1157.03 -1.31299 1.66956 0
M  V30 12243 H 1159.29 -0.633894 0.704898 0
M  V30 12244 H 1159 -2.75804 2.18231 0
M  V30 12245 H 1158.87 -3.70456 0.710095 0
M  V30 12246 H 1161.26 -2.95026 0.0660506 0
M  V30 12247 H 1161.34 -2.0202 1.56913 0
M  V30 12248 H 1160.98 -4.17349 2.89452 0
M  V30 12249 H 1160.91 -5.08577 1.36592 0
M  V30 12250 H 1163.4 -3.52411 1.36438 0
M  V30 12251 H 1163.72 -6.95736 3.36409 0
M  V30 12252 H 1162.06 -6.25997 3.01916 0
M  V30 12253 H 1165.25 -4.33414 1.76833 0
M  V30 12254 H 1165.42 -5.89983 2.68001 0
M  V30 12255 N 1158.83 -0.446794 -1.51134 0
M  V30 12256 C 1160.25 -0.0995905 -1.59289 0
M  V30 12257 C 1160.45 1.39191 -1.45699 0
M  V30 12258 O 1159.5 2.1628 -1.30303 0
M  V30 12259 C 1160.82 -0.628135 -2.94066 0
M  V30 12260 C 1162.36 -0.589409 -3.074 0
M  V30 12261 C 1162.84 -1.09509 -4.44715 0
M  V30 12262 N 1164.33 -1.05347 -4.51061 0
M  V30 12263 C 1165.06 -1.41551 -5.55654 0
M  V30 12264 N 1164.56 -1.85086 -6.67619 0
M  V30 12265 N 1166.35 -1.33307 -5.46064 0
M  V30 12266 H 1158.5 -1.41713 -1.58213 0
M  V30 12267 H 1160.77 -0.584555 -0.746324 0
M  V30 12268 H 1160.47 -1.67205 -3.09411 0
M  V30 12269 H 1160.35 -0.0582398 -3.77155 0
M  V30 12270 H 1162.73 0.445541 -2.91717 0
M  V30 12271 H 1162.82 -1.19582 -2.26128 0
M  V30 12272 H 1162.46 -2.12855 -4.61146 0
M  V30 12273 H 1162.39 -0.465122 -5.24542 0
M  V30 12274 H 1164.88 -0.733877 -3.70706 0
M  V30 12275 H 1165.19 -2.10923 -7.43459 0
M  V30 12276 H 1163.54 -1.8902 -6.68802 0
M  V30 12277 H 1166.73 -0.991547 -4.57478 0
M  V30 12278 H 1166.9 -1.6185 -6.27462 0
M  V30 12279 N 1160.31 1.56586 -0.178487 0
M  V30 12280 C 1161.26 2.18309 0.74899 0
M  V30 12281 C 1162.23 1.12525 1.22178 0
M  V30 12282 O 1163.41 1.40706 1.28866 0
M  V30 12283 C 1160.55 2.83353 1.9699 0
M  V30 12284 C 1159.66 4.03618 1.54002 0
M  V30 12285 C 1158.8 4.56567 2.71514 0
M  V30 12286 C 1157.84 5.69226 2.25051 0
M  V30 12287 N 1156.97 6.16654 3.35682 0
M  V30 12288 H 1161.81 2.97217 0.21587 0
M  V30 12289 H 1159.35 1.46794 0.0948182 0
M  V30 12290 H 1161.31 3.19226 2.68609 0
M  V30 12291 H 1159.94 2.07037 2.4766 0
M  V30 12292 H 1158.99 3.73518 0.720298 0
M  V30 12293 H 1160.3 4.85148 1.15901 0
M  V30 12294 H 1159.46 4.94659 3.5128 0
M  V30 12295 H 1158.2 3.7411 3.12879 0
M  V30 12296 H 1157.2 5.30679 1.43734 0
M  V30 12297 H 1158.43 6.5349 1.84736 0
M  V30 12298 H 1156.37 5.37124 3.76609 0
M  V30 12299 H 1156.29 6.93192 3.01697 0
M  V30 12300 H 1157.56 6.59397 4.15711 0
M  V30 12301 N 1161.79 -0.095206 1.57312 0
M  V30 12302 C 1163.01 -0.81614 1.90667 0
M  V30 12303 C 1163.44 -1.71494 0.772746 0
M  V30 12304 O 1162.79 -1.79192 -0.275682 0
M  V30 12305 C 1162.84 -1.60555 3.22885 0
M  V30 12306 O 1161.95 -2.71448 3.10467 0
M  V30 12307 H 1161.29 -0.224217 0.624998 0
M  V30 12308 H 1163.82 -0.070464 2.04479 0
M  V30 12309 H 1163.83 -1.98979 3.5619 0
M  V30 12310 H 1162.5 -0.945918 4.05 0
M  V30 12311 H 1161.08 -2.36053 2.88675 0
M  V30 12312 N 1163.26 -1.53291 -0.366026 0
M  V30 12313 C 1164.68 -1.43053 -0.707669 0
M  V30 12314 C 1164.88 -0.56925 -1.93292 0
M  V30 12315 O 1163.94 -0.0515214 -2.52447 0
M  V30 12316 C 1165.25 -2.86239 -0.921292 0
M  V30 12317 C 1166.8 -2.95868 -1.02133 0
M  V30 12318 C 1167.27 -4.40114 -1.26743 0
M  V30 12319 N 1168.76 -4.43541 -1.33514 0
M  V30 12320 C 1169.5 -5.52259 -1.54264 0
M  V30 12321 N 1168.99 -6.71024 -1.72335 0
M  V30 12322 N 1170.79 -5.39836 -1.5663 0
M  V30 12323 H 1162.94 -2.07795 0.43988 0
M  V30 12324 H 1165.2 -0.938376 0.134736 0
M  V30 12325 H 1164.91 -3.51578 -0.0928042 0
M  V30 12326 H 1164.78 -3.29862 -1.82951 0
M  V30 12327 H 1167.17 -2.30683 -1.84036 0
M  V30 12328 H 1167.25 -2.5564 -0.0905097 0
M  V30 12329 H 1166.89 -5.05872 -0.453409 0
M  V30 12330 H 1166.82 -4.77914 -2.21146 0
M  V30 12331 H 1169.31 -3.57949 -1.21165 0
M  V30 12332 H 1169.63 -7.49649 -1.8774 0
M  V30 12333 H 1167.97 -6.7401 -1.69514 0
M  V30 12334 H 1171.16 -4.46017 -1.4208 0
M  V30 12335 H 1171.34 -6.24629 -1.72461 0
M  V30 12336 N 1164.74 0.6258 -1.44643 0
M  V30 12337 C 1165.97 1.41726 -1.51422 0
M  V30 12338 C 1166.39 1.87565 -0.14181 0
M  V30 12339 O 1165.75 1.59059 0.870054 0
M  V30 12340 C 1165.8 2.61012 -2.48807 0
M  V30 12341 O 1164.9 3.61029 -1.99328 0
M  V30 12342 H 1164.24 0.423855 -0.511119 0
M  V30 12343 H 1166.77 0.763336 -1.89827 0
M  V30 12344 H 1166.78 3.08489 -2.67018 0
M  V30 12345 H 1165.46 2.26995 -3.48491 0
M  V30 12346 H 1164.04 3.20325 -1.90909 0
M  V30 12347 N 1166.22 1.31629 0.866686 0
M  V30 12348 C 1167.17 1.19556 1.97421 0
M  V30 12349 C 1168.14 0.0805578 1.65905 0
M  V30 12350 O 1169.32 0.253997 1.89102 0
M  V30 12351 C 1166.46 0.912234 3.32825 0
M  V30 12352 C 1165.58 2.11088 3.76916 0
M  V30 12353 C 1164.71 1.76406 5.01053 0
M  V30 12354 C 1163.75 2.9266 5.37602 0
M  V30 12355 N 1162.89 2.58152 6.52918 0
M  V30 12356 H 1167.73 2.14294 2.0708 0
M  V30 12357 H 1165.26 1.06595 1.0137 0
M  V30 12358 H 1167.22 0.72851 4.1079 0
M  V30 12359 H 1165.85 0.00167404 3.228 0
M  V30 12360 H 1164.9 2.40527 2.94705 0
M  V30 12361 H 1166.22 2.98089 3.99931 0
M  V30 12362 H 1165.37 1.54515 5.86694 0
M  V30 12363 H 1164.11 0.866018 4.79949 0
M  V30 12364 H 1163.11 3.15196 4.50479 0
M  V30 12365 H 1164.34 3.83179 5.6067 0
M  V30 12366 H 1162.28 1.70874 6.33355 0
M  V30 12367 H 1162.2 3.38682 6.75892 0
M  V30 12368 H 1163.47 2.39662 7.41743 0
M  V30 12369 N 1167.7 -1.08142 1.14644 0
M  V30 12370 C 1168.98 -1.77254 0.827071 0
M  V30 12371 C 1169.36 -1.99885 -0.67891 0
M  V30 12372 O 1168.7 -1.61084 -1.62062 0
M  V30 12373 C 1168.91 -3.08658 1.62884 0
M  V30 12374 C 1170.26 -3.83143 1.82993 0
M  V30 12375 O 1171.29 -3.18447 1.59593 0
M  V30 12376 O 1170.15 -4.9932 2.2213 0
M  V30 12377 H 1167.24 -0.769356 0.30335 0
M  V30 12378 H 1169.79 -1.1458 1.25178 0
M  V30 12379 H 1168.56 -2.87753 2.65168 0
M  V30 12380 H 1168.18 -3.79061 1.19994 0
M  V30 12381 O 1169.22 -1.07262 -1.20736 0
M  V30 12382 H 1169.91 -0.758532 -1.7823 0
M  V30 END ATOM
M  V30 BEGIN BOND
M  V30 END BOND
M  V30 END CTAB
M  END
$$$$
