drugbank_target|P49674 Casein kinase I isoform epsilon (DB06195)
 OpenBabel12092120333D

  0  0  0     0  0            999 V3000
M  V30 BEGIN CTAB
M  V30 COUNTS 6661 6734 0 0 0
M  V30 BEGIN ATOM
M  V30 1 H -0.908 1.98254 -0.117106 0
M  V30 2 N 0 1.576 0 0
M  V30 3 C 0.933 2.03868 1.02534 0
M  V30 4 C 1.911 0.928543 1.3348 0
M  V30 5 O 3.095 1.19667 1.45644 0
M  V30 6 C 0.222 2.43627 2.35294 0
M  V30 7 C -0.732 3.65373 2.2001 0
M  V30 8 S 0.101 5.13292 1.52614 0
M  V30 9 C 1.257 5.56322 2.86805 0
M  V30 10 H 1.49 2.90518 0.631377 0
M  V30 11 H -0.977 1.52953 0.210867 0
M  V30 12 H 0.981 2.67203 3.11629 0
M  V30 13 H -0.358 1.57376 2.7183 0
M  V30 14 H -1.165 3.90944 3.18086 0
M  V30 15 H -1.563 3.418 1.51819 0
M  V30 16 H 0.729 5.58782 3.83104 0
M  V30 17 H 1.672 6.56266 2.65933 0
M  V30 18 H 2.08 4.83886 2.90714 0
M  V30 19 N 1.4781 -0.272755 1.55222 0
M  V30 20 C 2.3881 -1.35918 1.91216 0
M  V30 21 C 3.4041 -1.54026 0.809436 0
M  V30 22 O 4.5801 -1.68148 1.10852 0
M  V30 23 C 1.6451 -2.69834 2.17693 0
M  V30 24 C 0.7061 -2.6047 3.41253 0
M  V30 25 C -0.0609 -3.88 3.66458 0
M  V30 26 O 0.1621 -4.88693 2.94169 0
M  V30 27 O -0.9039 -3.88189 4.59992 0
M  V30 28 H 2.9221 -1.0839 2.83699 0
M  V30 29 H 0.5071 -0.471301 1.41771 0
M  V30 30 H 2.3891 -3.49017 2.36147 0
M  V30 31 H 1.0641 -2.97148 1.28392 0
M  V30 32 H -0.0289 -1.79663 3.28134 0
M  V30 33 H 1.3041 -2.38106 4.30774 0
M  V30 34 N 2.9562 -1.48159 -0.537278 0
M  V30 35 C 3.8862 -1.65029 -1.6519 0
M  V30 36 C 4.8672 -0.499281 -1.62607 0
M  V30 37 O 6.0522 -0.730972 -1.79918 0
M  V30 38 C 3.1822 -1.68303 -3.03795 0
M  V30 39 C 2.1362 -2.8283 -3.21234 0
M  V30 40 C 1.4622 -2.71189 -4.60826 0
M  V30 41 C 2.7622 -4.24211 -3.04701 0
M  V30 42 H 4.4562 -2.58341 -1.51328 0
M  V30 43 H 2.0022 -1.24325 -0.726585 0
M  V30 44 H 3.9552 -1.78693 -3.81637 0
M  V30 45 H 2.6792 -0.715635 -3.18663 0
M  V30 46 H 1.3382 -2.71983 -2.45807 0
M  V30 47 H 0.9862 -1.72435 -4.7252 0
M  V30 48 H 0.6862 -3.48035 -4.7344 0
M  V30 49 H 2.2102 -2.83537 -5.40777 0
M  V30 50 H 3.6242 -4.3593 -3.72341 0
M  V30 51 H 2.0212 -5.01998 -3.28813 0
M  V30 52 H 3.0912 -4.41184 -2.01209 0
M  V30 53 N 4.4343 0.785586 -1.36625 0
M  V30 54 C 5.8503 1.08419 -1.17122 0
M  V30 55 C 6.0503 2.015 0.00208491 0
M  V30 56 O 5.1063 2.43551 0.666278 0
M  V30 57 C 6.4193 1.69498 -2.48377 0
M  V30 58 C 7.9673 1.81821 -2.54775 0
M  V30 59 C 8.4423 2.46315 -3.86126 0
M  V30 60 N 9.9333 2.53779 -3.87492 0
M  V30 61 C 10.6683 3.045 -4.85868 0
M  V30 62 N 10.1643 3.55499 -5.94637 0
M  V30 63 N 11.9573 3.03247 -4.73284 0
M  V30 64 H 4.1083 0.167264 -2.1174 0
M  V30 65 H 6.3713 0.13682 -0.938075 0
M  V30 66 H 6.0773 1.08571 -3.34522 0
M  V30 67 H 5.9513 2.6896 -2.64462 0
M  V30 68 H 8.3383 2.41884 -1.69045 0
M  V30 69 H 8.4193 0.811532 -2.42586 0
M  V30 70 H 8.0633 1.86895 -4.72263 0
M  V30 71 H 7.9933 3.47561 -3.95612 0
M  V30 72 H 10.4843 2.17672 -3.08913 0
M  V30 73 H 10.7973 3.92562 -6.65669 0
M  V30 74 H 9.1423 3.5364 -5.98301 0
M  V30 75 H 12.3333 2.62696 -3.87438 0
M  V30 76 H 12.5063 3.42467 -5.50109 0
M  V30 77 N 5.9124 1.20967 1.01018 0
M  V30 78 C 7.1584 1.02526 1.74975 0
M  V30 79 C 7.4914 -0.4408 1.89131 0
M  V30 80 O 6.7664 -1.32718 1.42184 0
M  V30 81 C 7.0494 1.71699 3.1653 0
M  V30 82 C 6.9024 3.25791 3.10129 0
M  V30 83 C 8.2214 1.45531 4.15342 0
M  V30 84 H 5.3404 0.373863 0.635134 0
M  V30 85 H 7.9824 1.49071 1.17805 0
M  V30 86 H 6.1324 1.32128 3.65341 0
M  V30 87 H 7.8044 3.74697 2.69072 0
M  V30 88 H 6.0474 3.56363 2.47362 0
M  V30 89 H 6.7184 3.69353 4.10222 0
M  V30 90 H 9.1944 1.79872 3.75213 0
M  V30 91 H 8.0704 1.96453 5.1254 0
M  V30 92 H 8.3314 0.384237 4.40427 0
M  V30 93 N 7.3905 -1.2043 1.01659 0
M  V30 94 C 8.6385 -1.89423 0.704522 0
M  V30 95 C 8.9595 -1.79231 -0.768197 0
M  V30 96 O 8.2295 -1.1947 -1.55254 0
M  V30 97 H 6.8095 -0.701178 0.257602 0
M  V30 98 H 9.4715 -1.4626 1.28818 0
M  V30 99 H 8.5675 -2.96052 0.987916 0
M  V30 100 N 8.8686 -0.792821 -1.36206 0
M  V30 101 C 9.8166 -0.181555 -2.3189 0
M  V30 102 C 10.8106 0.661025 -1.55971 0
M  V30 103 O 12.0166 0.555728 -1.71206 0
M  V30 104 H 8.3916 -0.0399382 -0.750939 0
M  V30 105 H 10.3626 -1.00394 -2.81005 0
M  V30 106 C 9.1116 0.666444 -3.41253 0
M  V30 107 H 8.4346 0.0274489 -3.99791 0
M  V30 108 H 9.8746 1.06076 -4.10517 0
M  V30 109 C 8.3336 1.82614 -2.83114 0
M  V30 110 O 8.8636 2.9229 -2.75553 0
M  V30 111 N 7.0696 1.63333 -2.40356 0
M  V30 112 H 6.6166 0.741217 -2.46706 0
M  V30 113 H 6.5746 2.41087 -2.01803 0
M  V30 114 N 10.3467 1.47872 -0.545128 0
M  V30 115 C 11.2937 2.29849 0.2093 0
M  V30 116 C 12.2637 1.38313 0.919707 0
M  V30 117 O 13.4487 1.67277 0.917772 0
M  V30 118 C 10.5887 3.22019 1.24088 0
M  V30 119 C 9.7017 4.2864 0.537778 0
M  V30 120 C 8.8367 5.07973 1.5536 0
M  V30 121 C 7.8757 6.06381 0.8348 0
M  V30 122 N 7.0127 6.78717 1.79688 0
M  V30 123 H 11.8527 2.93845 -0.49591 0
M  V30 124 H 9.3897 1.44848 -0.256389 0
M  V30 125 H 11.3477 3.73868 1.85144 0
M  V30 126 H 9.9777 2.59914 1.91428 0
M  V30 127 H 9.0297 3.7994 -0.187046 0
M  V30 128 H 10.3417 4.98793 -0.0258907 0
M  V30 129 H 9.4957 5.63912 2.23803 0
M  V30 130 H 8.2347 4.37693 2.15118 0
M  V30 131 H 7.2397 5.49631 0.136388 0
M  V30 132 H 8.4647 6.78665 0.24313 0
M  V30 133 H 6.4107 6.11177 2.38326 0
M  V30 134 H 6.3277 7.44998 1.28505 0
M  V30 135 H 7.5957 7.39237 2.47282 0
M  V30 136 N 11.8248 0.280983 1.55075 0
M  V30 137 C 13.0548 -0.336804 2.03836 0
M  V30 138 C 13.4628 -1.49577 1.15859 0
M  V30 139 O 12.8058 -1.82888 0.172503 0
M  V30 140 C 12.8678 -0.874616 3.48699 0
M  V30 141 C 12.5318 0.156478 4.56732 0
M  V30 142 C 13.5288 0.978032 5.10618 0
M  V30 143 C 11.2138 0.292409 5.01448 0
M  V30 144 C 13.2078 1.92165 6.07743 0
M  V30 145 C 10.8948 1.23949 5.98398 0
M  V30 146 C 11.8928 2.05261 6.51427 0
M  V30 147 O 11.5808 2.98367 7.4648 0
M  V30 148 H 11.3128 -0.0800885 0.671239 0
M  V30 149 H 13.8668 0.412589 2.01213 0
M  V30 150 H 12.0968 -1.67418 3.4858 0
M  V30 151 H 13.7858 -1.40612 3.80766 0
M  V30 152 H 14.5518 0.883782 4.7688 0
M  V30 153 H 10.4308 -0.330498 4.59814 0
M  V30 154 H 13.9748 2.55672 6.49059 0
M  V30 155 H 9.8718 1.33454 6.31554 0
M  V30 156 H 10.6398 2.93116 7.64215 0
M  V30 157 N 13.3029 -1.57598 0.00835791 0
M  V30 158 C 14.7189 -1.55764 -0.347822 0
M  V30 159 C 14.9189 -1.01186 -1.74252 0
M  V30 160 O 13.9749 -0.649371 -2.44007 0
M  V30 161 C 15.2879 -2.99927 -0.215407 0
M  V30 162 C 16.8359 -3.11656 -0.289725 0
M  V30 163 C 17.3109 -4.57621 -0.18634 0
M  V30 164 N 18.8019 -4.62557 -0.243978 0
M  V30 165 C 19.5369 -5.73094 -0.18745 0
M  V30 166 N 19.0329 -6.92753 -0.0810331 0
M  V30 167 N 20.8259 -5.61588 -0.239925 0
M  V30 168 H 12.9769 -1.91411 0.92062 0
M  V30 169 H 15.2399 -0.879562 0.353659 0
M  V30 170 H 14.9459 -3.43729 0.744512 0
M  V30 171 H 14.8199 -3.63865 -0.994097 0
M  V30 172 H 17.2069 -2.67779 -1.24009 0
M  V30 173 H 17.2879 -2.5048 0.51898 0
M  V30 174 H 16.9319 -5.02174 0.760519 0
M  V30 175 H 16.8619 -5.16752 -1.01364 0
M  V30 176 H 19.3529 -3.76481 -0.327217 0
M  V30 177 H 19.6659 -7.72787 -0.0440241 0
M  V30 178 H 18.0109 -6.94984 -0.0465419 0
M  V30 179 H 21.2019 -4.66996 -0.321317 0
M  V30 180 H 21.3749 -6.47714 -0.192407 0
M  V30 181 N 14.781 0.264519 -1.55364 0
M  V30 182 C 15.711 1.33121 -1.91836 0
M  V30 183 C 16.692 1.51101 -0.781192 0
M  V30 184 O 17.877 1.64003 -1.04003 0
M  V30 185 C 15.007 2.68921 -2.19769 0
M  V30 186 C 13.961 2.65661 -3.35571 0
M  V30 187 C 13.287 4.05093 -3.49004 0
M  V30 188 C 14.587 2.24187 -4.71739 0
M  V30 189 H 16.281 1.02844 -2.81182 0
M  V30 190 H 13.827 0.493286 -1.35287 0
M  V30 191 H 15.78 3.43663 -2.43872 0
M  V30 192 H 14.504 3.00799 -1.27231 0
M  V30 193 H 13.163 1.93377 -3.1145 0
M  V30 194 H 12.811 4.34206 -2.53917 0
M  V30 195 H 12.511 4.03804 -4.26868 0
M  V30 196 H 14.035 4.81561 -3.75408 0
M  V30 197 H 15.449 2.88654 -4.9533 0
M  V30 198 H 13.846 2.34044 -5.52579 0
M  V30 199 H 14.916 1.19327 -4.69988 0
M  V30 200 N 16.2591 1.48442 0.529413 0
M  V30 201 C 17.5071 1.56179 1.28267 0
M  V30 202 C 17.8281 0.237721 1.93546 0
M  V30 203 O 17.0981 -0.740779 1.81354 0
M  V30 204 H 15.6781 0.575367 0.476405 0
M  V30 205 H 18.3401 1.84909 0.61602 0
M  V30 206 H 17.4361 2.34312 2.06165 0
M  V30 207 N 17.7372 -0.778329 1.37039 0
M  V30 208 C 19.1532 -1.07796 1.17695 0
M  V30 209 C 19.3532 -2.01498 0.00860115 0
M  V30 210 O 18.4092 -2.43901 -0.653352 0
M  V30 211 C 19.7222 -1.68178 2.49272 0
M  V30 212 C 21.2702 -1.80467 2.55735 0
M  V30 213 C 21.7452 -2.44263 3.87427 0
M  V30 214 N 23.2362 -2.51721 3.88833 0
M  V30 215 C 23.9712 -3.01919 4.87476 0
M  V30 216 N 23.4672 -3.5234 5.96513 0
M  V30 217 N 25.2602 -3.00733 4.74885 0
M  V30 218 H 17.4112 -0.156032 2.11826 0
M  V30 219 H 19.6742 -0.131844 0.938787 0
M  V30 220 H 19.3802 -1.06796 3.35093 0
M  V30 221 H 19.2542 -2.67554 2.65885 0
M  V30 222 H 21.6412 -2.40984 1.70325 0
M  V30 223 H 21.7222 -0.798656 2.43013 0
M  V30 224 H 21.3662 -1.84388 4.73248 0
M  V30 225 H 21.2962 -3.45458 3.9745 0
M  V30 226 H 23.7872 -2.1603 3.10063 0
M  V30 227 H 24.1002 -3.89027 6.67741 0
M  V30 228 H 22.4452 -3.50462 6.00168 0
M  V30 229 H 25.6362 -2.60638 3.88826 0
M  V30 230 H 25.8092 -3.39545 5.51918 0
M  V30 231 N 19.2153 -1.21501 -1.00376 0
M  V30 232 C 20.1623 -0.975387 -2.09177 0
M  V30 233 C 21.1323 0.0990615 -1.65804 0
M  V30 234 O 22.3173 -0.0483147 -1.90739 0
M  V30 235 C 19.4573 -0.547507 -3.40729 0
M  V30 236 C 18.5703 -1.69153 -3.97506 0
M  V30 237 C 17.7053 -1.2127 -5.17172 0
M  V30 238 C 16.7443 -2.32897 -5.66061 0
M  V30 239 N 15.8813 -1.86138 -6.76976 0
M  V30 240 H 20.7213 -1.9068 -2.29009 0
M  V30 241 H 18.2583 -0.950257 -1.12288 0
M  V30 242 H 20.2163 -0.280667 -4.16255 0
M  V30 243 H 18.8463 0.346904 -3.20931 0
M  V30 244 H 17.8983 -2.07298 -3.18954 0
M  V30 245 H 19.2103 -2.5316 -4.29781 0
M  V30 246 H 18.3643 -0.902591 -5.99948 0
M  V30 247 H 17.1033 -0.342692 -4.86495 0
M  V30 248 H 16.1083 -2.64709 -4.81881 0
M  V30 249 H 17.3333 -3.20396 -5.98768 0
M  V30 250 H 15.2793 -1.01484 -6.48103 0
M  V30 251 H 15.1963 -2.63717 -7.08512 0
M  V30 252 H 16.4643 -1.58165 -7.63285 0
M  V30 253 N 20.6934 1.19889 -1.02296 0
M  V30 254 C 21.9424 1.88743 -0.711257 0
M  V30 255 C 22.2554 1.80112 0.762817 0
M  V30 256 O 23.4614 2.44161 1.18733 0
M  V30 257 C 21.9174 3.38525 -1.22185 0
M  V30 258 C 21.5254 3.55727 -2.72328 0
M  V30 259 C 23.2694 4.12893 -0.985864 0
M  V30 260 C 21.1764 4.99369 -3.16835 0
M  V30 261 H 20.1064 0.706885 -0.262353 0
M  V30 262 H 22.7574 1.35586 -1.23648 0
M  V30 263 H 21.1394 3.91044 -0.624571 0
M  V30 264 H 22.3134 3.13564 -3.3766 0
M  V30 265 H 20.6284 2.94739 -2.9414 0
M  V30 266 H 23.2254 5.18813 -1.29374 0
M  V30 267 H 23.5684 4.16228 0.0775055 0
M  V30 268 H 24.1014 3.66494 -1.54684 0
M  V30 269 H 20.8404 5.01193 -4.22476 0
M  V30 270 H 20.3604 5.42317 -2.56228 0
M  V30 271 H 22.0394 5.67988 -3.09837 0
M  V30 272 N 22.1715 0.800033 1.35784 0
M  V30 273 C 23.4195 0.376597 1.9856 0
M  V30 274 C 23.7405 -1.05812 1.63795 0
M  V30 275 O 23.0105 -1.73103 0.917171 0
M  V30 276 H 21.5905 0.136261 0.734467 0
M  V30 277 H 24.2525 1.02442 1.65806 0
M  V30 278 H 23.3485 0.477002 3.08433 0
M  V30 279 N 23.6496 -1.47581 0.552962 0
M  V30 280 C 24.8746 -2.07378 0.0300593 0
M  V30 281 C 25.2996 -1.40355 -1.25229 0
M  V30 282 O 24.6576 -0.477099 -1.7491 0
M  V30 283 C 24.7056 -3.60274 -0.153231 0
M  V30 284 O 23.8096 -3.94041 -1.21678 0
M  V30 285 H 23.1506 -0.662158 0.0494182 0
M  V30 286 H 25.6806 -1.89662 0.767434 0
M  V30 287 H 25.6906 -4.0633 -0.368761 0
M  V30 288 H 24.3656 -4.08455 0.783397 0
M  V30 289 H 22.9426 -3.59735 -0.982079 0
M  V30 290 N 25.1277 -0.289203 -1.54924 0
M  V30 291 C 26.3757 0.322879 -1.99504 0
M  V30 292 C 26.6967 1.55313 -1.1791 0
M  V30 293 O 25.9667 1.94001 -0.272097 0
M  V30 294 H 24.5467 0.122291 -0.736922 0
M  V30 295 H 27.2087 -0.397802 -1.90797 0
M  V30 296 H 26.3047 0.603061 -3.06218 0
M  V30 297 N 26.6058 1.57591 -0.0167156 0
M  V30 298 C 27.8308 1.9598 0.67872 0
M  V30 299 C 28.2558 0.892546 1.65575 0
M  V30 300 O 27.6138 -0.147772 1.80697 0
M  V30 301 C 27.6618 3.33468 1.37227 0
M  V30 302 O 26.7658 3.28954 2.48722 0
M  V30 303 H 26.1068 0.639339 0.17928 0
M  V30 304 H 28.6368 2.04463 -0.0748802 0
M  V30 305 H 28.6468 3.69417 1.7319 0
M  V30 306 H 27.3218 4.10694 0.656007 0
M  V30 307 H 25.8988 3.04705 2.14963 0
M  V30 308 N 28.0839 -0.256276 1.55502 0
M  V30 309 C 29.3309 -0.985619 1.76895 0
M  V30 310 C 29.6589 -1.85671 0.579355 0
M  V30 311 O 28.9139 -1.90744 -0.437651 0
M  V30 312 C 29.2129 -1.88432 3.03691 0
M  V30 313 C 28.8789 -1.16936 4.35473 0
M  V30 314 C 27.5409 -0.97173 4.71286 0
M  V30 315 C 29.8929 -0.661889 5.1698 0
M  V30 316 C 27.2209 -0.254179 5.86149 0
M  V30 317 C 29.5729 0.042149 6.32586 0
M  V30 318 C 28.2369 0.25134 6.67027 0
M  V30 319 H 27.5069 -0.360663 0.647304 0
M  V30 320 H 30.1539 -0.256483 1.89775 0
M  V30 321 H 28.4589 -2.68021 2.85783 0
M  V30 322 H 30.1559 -2.45015 3.1744 0
M  V30 323 H 26.7459 -1.33332 4.07333 0
M  V30 324 H 30.9299 -0.802145 4.89775 0
M  V30 325 H 26.1859 -0.0815408 6.11346 0
M  V30 326 H 30.3599 0.443049 6.94989 0
M  V30 327 H 27.9869 0.809314 7.5588 0
M  V30 328 N 29.562 -1.4872 -0.521534 0
M  V30 329 C 30.81 -1.56857 -1.27437 0
M  V30 330 C 31.131 -0.247982 -1.93417 0
M  V30 331 O 30.401 0.731151 -1.81744 0
M  V30 332 H 28.981 -0.577885 -0.473347 0
M  V30 333 H 31.643 -1.85233 -0.606205 0
M  V30 334 H 30.739 -2.35402 -2.0492 0
M  V30 335 N 31.0401 0.771051 -1.3745 0
M  V30 336 C 32.3171 1.519 -1.23231 0
M  V30 337 C 32.6971 2.10383 0.173809 0
M  V30 338 O 32.0451 1.95583 1.18151 0
M  V30 339 C 32.2551 2.59933 -2.32886 0
M  V30 340 C 33.6031 3.27316 -2.70461 0
M  V30 341 O 34.6271 2.70228 -2.32068 0
M  V30 342 O 33.4861 4.30531 -3.36608 0
M  V30 343 H 30.5801 0.672803 -0.480901 0
M  V30 344 H 33.1261 0.807957 -1.49232 0
M  V30 345 H 31.8981 2.14842 -3.27045 0
M  V30 346 H 31.5211 3.38637 -2.08353 0
M  V30 347 N 32.5182 1.22032 0.997298 0
M  V30 348 C 33.7672 1.03637 1.73038 0
M  V30 349 C 34.0802 -0.429475 1.90827 0
M  V30 350 O 35.2862 -0.732995 2.61418 0
M  V30 351 C 33.7422 1.80582 3.11317 0
M  V30 352 C 33.3502 3.31387 3.01474 0
M  V30 353 C 35.0942 1.70621 3.88701 0
M  V30 354 C 33.0012 4.00791 4.3488 0
M  V30 355 H 31.9312 0.384179 0.648785 0
M  V30 356 H 34.5822 1.4584 1.11368 0
M  V30 357 H 32.9642 1.31175 3.73643 0
M  V30 358 H 34.1382 3.88155 2.4834 0
M  V30 359 H 32.4532 3.41976 2.37575 0
M  V30 360 H 35.0502 2.19799 4.87434 0
M  V30 361 H 35.3932 0.665823 4.10941 0
M  V30 362 H 35.9262 2.17547 3.33044 0
M  V30 363 H 32.6652 5.05064 4.1784 0
M  V30 364 H 32.1852 3.48811 4.87945 0
M  V30 365 H 33.8642 4.06139 5.03647 0
M  V30 366 N 33.9963 -1.19345 1.0293 0
M  V30 367 C 35.2263 -1.92717 0.744563 0
M  V30 368 C 35.6343 -1.75751 -0.700579 0
M  V30 369 O 34.9773 -1.07703 -1.48815 0
M  V30 370 C 35.0393 -3.44828 1.01657 0
M  V30 371 C 34.7033 -3.85564 2.45335 0
M  V30 372 C 35.7003 -3.90286 3.43472 0
M  V30 373 C 33.3853 -4.1719 2.79746 0
M  V30 374 C 35.3793 -4.26065 4.74075 0
M  V30 375 C 33.0663 -4.52642 4.10559 0
M  V30 376 C 34.0643 -4.57054 5.07534 0
M  V30 377 O 33.7523 -4.91685 6.36004 0
M  V30 378 H 33.4843 -0.618977 0.271742 0
M  V30 379 H 36.0383 -1.52415 1.37691 0
M  V30 380 H 34.2683 -3.85314 0.327084 0
M  V30 381 H 35.9573 -3.99437 0.721427 0
M  V30 382 H 36.7233 -3.66002 3.18225 0
M  V30 383 H 32.6023 -4.1294 2.04943 0
M  V30 384 H 36.1463 -4.29423 5.49765 0
M  V30 385 H 32.0433 -4.76383 4.35579 0
M  V30 386 H 32.8113 -5.09631 6.40483 0
M  V30 387 N 35.4744 -0.807222 -1.35358 0
M  V30 388 C 36.4044 -0.232509 -2.3234 0
M  V30 389 C 37.3854 0.642386 -1.57504 0
M  V30 390 O 38.5704 0.572526 -1.85569 0
M  V30 391 C 35.7004 0.619238 -3.41735 0
M  V30 392 C 34.6544 -0.157215 -4.27711 0
M  V30 393 C 33.9804 0.816273 -5.28433 0
M  V30 394 C 35.2804 -1.35656 -5.04376 0
M  V30 395 H 36.9744 -1.04276 -2.80654 0
M  V30 396 H 34.5204 -0.50288 -1.34934 0
M  V30 397 H 36.4734 1.03137 -4.08584 0
M  V30 398 H 35.1974 1.46239 -2.92031 0
M  V30 399 H 33.8564 -0.550525 -3.62443 0
M  V30 400 H 33.5044 1.65494 -4.74996 0
M  V30 401 H 33.2044 0.301067 -5.86828 0
M  V30 402 H 34.7284 1.22659 -5.98153 0
M  V30 403 H 36.1424 -1.01927 -5.64166 0
M  V30 404 H 34.5394 -1.8063 -5.7227 0
M  V30 405 H 35.6094 -2.14288 -4.34981 0
M  V30 406 N 36.9525 1.47285 -0.560781 0
M  V30 407 C 38.2005 2.02064 -0.0379868 0
M  V30 408 C 38.5215 1.43711 1.31803 0
M  V30 409 O 37.7915 0.61362 1.86042 0
M  V30 410 H 36.3715 0.746918 -0.0110531 0
M  V30 411 H 39.0335 1.80648 -0.731598 0
M  V30 412 H 38.1295 3.12064 0.0474463 0
M  V30 413 N 38.4306 0.297415 1.54768 0
M  V30 414 C 39.3936 -0.567375 2.22066 0
M  V30 415 C 40.3936 -1.06409 1.20556 0
M  V30 416 O 41.5836 -0.960691 1.45315 0
M  V30 417 C 38.7156 -1.78517 2.90421 0
M  V30 418 H 39.9086 0.0205534 2.99893 0
M  V30 419 H 37.4616 0.0482163 1.56226 0
M  V30 420 H 38.1966 -2.41303 2.16664 0
M  V30 421 H 37.9816 -1.43669 3.64831 0
M  V30 422 H 39.4716 -2.39964 3.41771 0
M  V30 423 N 39.9087 -1.5758 0.0250728 0
M  V30 424 C 40.8567 -2.11125 -0.97617 0
M  V30 425 C 41.8507 -1.03689 -1.33959 0
M  V30 426 O 43.0567 -1.22128 -1.3223 0
M  V30 427 H 39.4317 -0.674468 -0.332561 0
M  V30 428 H 41.4027 -2.94194 -0.499223 0
M  V30 429 C 40.1517 -2.65017 -2.2508 0
M  V30 430 H 39.4747 -3.47333 -1.9799 0
M  V30 431 H 40.9147 -3.06133 -2.93357 0
M  V30 432 C 39.3737 -1.57574 -2.97779 0
M  V30 433 O 39.9037 -0.973203 -3.89733 0
M  V30 434 N 38.1097 -1.29716 -2.60043 0
M  V30 435 H 37.6567 -1.789 -1.85345 0
M  V30 436 H 37.6147 -0.58051 -3.08994 0
M  V30 437 N 41.3868 0.248026 -1.55636 0
M  V30 438 C 42.6358 0.974134 -1.76617 0
M  V30 439 C 42.9488 1.86528 -0.588796 0
M  V30 440 O 44.1548 2.62805 -0.681594 0
M  V30 441 C 42.6108 1.78213 -3.12679 0
M  V30 442 C 42.2188 0.93843 -4.38061 0
M  V30 443 C 43.9628 2.50104 -3.42999 0
M  V30 444 C 41.8698 1.74225 -5.65155 0
M  V30 445 H 40.7998 0.36745 -0.658405 0
M  V30 446 H 43.4508 0.22884 -1.82067 0
M  V30 447 H 41.8328 2.56933 -3.01333 0
M  V30 448 H 43.0068 0.193635 -4.60393 0
M  V30 449 H 41.3218 0.332905 -4.15067 0
M  V30 450 H 43.9188 3.10694 -4.3517 0
M  V30 451 H 44.2618 3.21662 -2.64271 0
M  V30 452 H 44.7948 1.78395 -3.55556 0
M  V30 453 H 41.5338 1.07043 -6.46701 0
M  V30 454 H 41.0538 2.46235 -5.46926 0
M  V30 455 H 42.7328 2.30967 -6.0437 0
M  V30 456 N 42.8649 1.48995 0.513639 0
M  V30 457 C 43.8279 1.64229 1.59879 0
M  V30 458 C 44.8279 0.514696 1.5234 0
M  V30 459 O 46.0179 0.78087 1.55718 0
M  V30 460 C 43.1499 1.62783 2.99524 0
M  V30 461 H 44.3429 2.61004 1.47705 0
M  V30 462 H 41.8959 1.37837 0.736936 0
M  V30 463 H 42.6309 0.675461 3.17188 0
M  V30 464 H 42.4159 2.4466 3.06404 0
M  V30 465 H 43.9059 1.76669 3.78388 0
M  V30 466 N 44.343 -0.763751 1.37857 0
M  V30 467 C 45.568 -1.55805 1.36893 0
M  V30 468 C 45.993 -1.88054 -0.0416135 0
M  V30 469 O 45.351 -1.49825 -1.02089 0
M  V30 470 C 45.399 -2.84012 2.22192 0
M  V30 471 O 44.503 -3.78732 1.63204 0
M  V30 472 H 43.844 -0.471638 0.46739 0
M  V30 473 H 46.374 -0.944657 1.81487 0
M  V30 474 H 46.384 -3.33037 2.35691 0
M  V30 475 H 45.059 -2.59869 3.24716 0
M  V30 476 H 43.636 -3.37402 1.58791 0
M  V30 477 N 45.8211 -1.22559 -0.990812 0
M  V30 478 C 47.0691 -1.04933 -1.72724 0
M  V30 479 C 47.3901 0.416158 -1.90508 0
M  V30 480 O 46.6601 1.29918 -1.46622 0
M  V30 481 H 45.2401 -0.385296 -0.639965 0
M  V30 482 H 47.9021 -1.54105 -1.19322 0
M  V30 483 H 46.9981 -1.52886 -2.72089 0
M  V30 484 N 47.2992 1.18797 -1.03562 0
M  V30 485 C 48.2092 2.25913 -0.632505 0
M  V30 486 C 49.2252 1.70668 0.338882 0
M  V30 487 O 50.4012 2.00453 0.195076 0
M  V30 488 C 47.4662 3.467 0.00350942 0
M  V30 489 C 46.5272 4.17098 -1.01624 0
M  V30 490 C 45.7602 5.32119 -0.410478 0
M  V30 491 O 45.9832 5.64976 0.784725 0
M  V30 492 O 44.9172 5.9107 -1.13667 0
M  V30 493 H 48.7432 2.62648 -1.52478 0
M  V30 494 H 46.3282 1.25781 -0.806195 0
M  V30 495 H 48.2102 4.19878 0.35781 0
M  V30 496 H 46.8852 3.11798 0.869686 0
M  V30 497 H 45.7922 3.4601 -1.42224 0
M  V30 498 H 47.1252 4.55987 -1.85301 0
M  V30 499 N 48.7773 0.814389 1.34928 0
M  V30 500 C 49.6873 0.231978 2.3345 0
M  V30 501 C 50.7033 -0.629139 1.62228 0
M  V30 502 O 51.8793 -0.539052 1.94052 0
M  V30 503 C 48.9443 -0.603482 3.41407 0
M  V30 504 C 48.0053 0.279037 4.28392 0
M  V30 505 C 47.2383 -0.516643 5.31193 0
M  V30 506 O 47.4613 -1.75068 5.4287 0
M  V30 507 O 46.3953 0.0965652 6.01823 0
M  V30 508 H 50.2213 1.04721 2.85074 0
M  V30 509 H 47.8063 0.576343 1.37836 0
M  V30 510 H 49.6883 -1.07908 4.0735 0
M  V30 511 H 48.3633 -1.39618 2.92042 0
M  V30 512 H 47.2703 0.801948 3.65403 0
M  V30 513 H 48.6033 1.03588 4.81176 0
M  V30 514 N 50.2554 -1.46986 0.568584 0
M  V30 515 C 51.5014 -2.02741 0.0488709 0
M  V30 516 C 51.8344 -1.44077 -1.30214 0
M  V30 517 O 51.1094 -0.600552 -1.84996 0
M  V30 518 C 51.3924 -3.60086 -0.032047 0
M  V30 519 C 51.2454 -4.29162 1.34686 0
M  V30 520 C 52.5644 -4.33838 -0.739798 0
M  V30 521 H 49.6834 -0.736749 0.0192338 0
M  V30 522 H 52.3254 -1.75289 0.733065 0
M  V30 523 H 50.4754 -3.83606 -0.61473 0
M  V30 524 H 52.1474 -4.16948 1.97362 0
M  V30 525 H 50.3904 -3.89073 1.91846 0
M  V30 526 H 51.0614 -5.37826 1.24285 0
M  V30 527 H 53.5374 -4.15378 -0.244939 0
M  V30 528 H 52.4134 -5.43537 -0.765406 0
M  V30 529 H 52.6744 -4.03875 -1.79827 0
M  V30 530 N 51.7335 -0.305618 -1.54608 0
M  V30 531 C 52.6965 0.555591 -2.22364 0
M  V30 532 C 53.6965 1.05768 -1.21119 0
M  V30 533 O 54.8865 0.952972 -1.45822 0
M  V30 534 C 52.0185 1.76974 -2.91364 0
M  V30 535 H 53.2115 -0.0364572 -2.99878 0
M  V30 536 H 50.7645 -0.0565007 -1.56198 0
M  V30 537 H 51.4995 2.40151 -2.17941 0
M  V30 538 H 51.2845 1.41732 -3.65588 0
M  V30 539 H 52.7745 2.38148 -3.43038 0
M  V30 540 N 53.2116 1.57565 -0.0334293 0
M  V30 541 C 54.4606 1.91155 0.643639 0
M  V30 542 C 54.7736 0.91192 1.73042 0
M  V30 543 O 55.9796 1.13923 2.46442 0
M  V30 544 C 54.4356 3.39443 1.1961 0
M  V30 545 C 54.0436 4.47774 0.142381 0
M  V30 546 C 55.7876 3.82094 1.84944 0
M  V30 547 C 53.6946 5.87162 0.706727 0
M  V30 548 H 52.6246 0.713368 0.244176 0
M  V30 549 H 55.2756 1.8323 -0.0994323 0
M  V30 550 H 53.6576 3.42313 1.99092 0
M  V30 551 H 54.8316 4.56469 -0.630296 0
M  V30 552 H 53.1466 4.14352 -0.412446 0
M  V30 553 H 55.7436 4.83591 2.2813 0
M  V30 554 H 56.0866 3.17386 2.69392 0
M  V30 555 H 56.6196 3.81665 1.12145 0
M  V30 556 H 53.3586 6.55424 -0.0997178 0
M  V30 557 H 52.8786 5.82064 1.44779 0
M  V30 558 H 54.5576 6.35866 1.19514 0
M  V30 559 N 54.6897 -0.239769 1.55765 0
M  V30 560 C 55.6367 -1.29696 1.90913 0
M  V30 561 C 56.6067 -1.47478 0.764164 0
M  V30 562 O 57.7917 -1.61345 1.01845 0
M  V30 563 C 54.9317 -2.64598 2.21544 0
M  V30 564 C 54.0447 -2.54765 3.48882 0
M  V30 565 C 53.1797 -3.82069 3.69049 0
M  V30 566 C 52.2187 -3.66883 4.89963 0
M  V30 567 N 51.3557 -4.86094 5.06614 0
M  V30 568 H 56.1957 -0.990224 2.81067 0
M  V30 569 H 53.7327 -0.477684 1.39128 0
M  V30 570 H 55.6907 -3.43132 2.3731 0
M  V30 571 H 54.3207 -2.93405 1.34585 0
M  V30 572 H 53.3727 -1.67763 3.41409 0
M  V30 573 H 54.6847 -2.39457 4.37563 0
M  V30 574 H 53.8387 -4.69046 3.84812 0
M  V30 575 H 52.5777 -4.00282 2.78614 0
M  V30 576 H 51.5827 -2.78289 4.74168 0
M  V30 577 H 52.8077 -3.50157 5.81865 0
M  V30 578 H 50.7537 -5.04655 4.19117 0
M  V30 579 H 50.6707 -4.73443 5.89396 0
M  V30 580 H 51.9387 -5.74549 5.26795 0
M  V30 581 N 56.1678 -1.49265 -0.50573 0
M  V30 582 C 57.0978 -1.68495 -1.61653 0
M  V30 583 C 58.0788 -0.53366 -1.61512 0
M  V30 584 O 59.2638 -0.76897 -1.78327 0
M  V30 585 C 56.3938 -1.74709 -3.00157 0
M  V30 586 C 55.3478 -2.89581 -3.15162 0
M  V30 587 C 54.6738 -2.80903 -4.5497 0
M  V30 588 C 55.9738 -4.30578 -2.95634 0
M  V30 589 H 57.6678 -2.61493 -1.45814 0
M  V30 590 H 55.2138 -1.25838 -0.70005 0
M  V30 591 H 57.1668 -1.86748 -3.77761 0
M  V30 592 H 55.8908 -0.783067 -3.17074 0
M  V30 593 H 54.5498 -2.77136 -2.39982 0
M  V30 594 H 54.1978 -1.82419 -4.68756 0
M  V30 595 H 53.8978 -3.57999 -4.65951 0
M  V30 596 H 55.4218 -2.94944 -5.34641 0
M  V30 597 H 56.8358 -4.4373 -3.63011 0
M  V30 598 H 55.2328 -5.0886 -3.18091 0
M  V30 599 H 56.3028 -4.45352 -1.91806 0
M  V30 600 N 57.6459 0.756429 -1.3826 0
M  V30 601 C 58.5559 1.9009 -1.37488 0
M  V30 602 C 59.5719 1.71855 -0.272366 0
M  V30 603 O 60.7479 1.94827 -0.510318 0
M  V30 604 C 57.8129 3.25421 -1.19592 0
M  V30 605 C 56.8739 3.56202 -2.39622 0
M  V30 606 C 56.1069 4.85075 -2.2257 0
M  V30 607 O 56.3299 5.57246 -1.21793 0
M  V30 608 O 55.2639 5.15269 -3.11098 0
M  V30 609 H 59.0899 1.93695 -2.33914 0
M  V30 610 H 56.6749 0.901313 -1.1915 0
M  V30 611 H 58.5569 4.06337 -1.11661 0
M  V30 612 H 57.2319 3.22634 -0.262486 0
M  V30 613 H 56.1389 2.75458 -2.53128 0
M  V30 614 H 57.4719 3.63747 -3.31586 0
M  V30 615 N 59.124 1.23083 0.984299 0
M  V30 616 C 60.364 1.07226 1.74017 0
M  V30 617 C 60.728 -0.384766 1.88105 0
M  V30 618 O 61.929 -0.664411 2.60459 0
M  V30 619 C 60.2 1.77348 3.10294 0
M  V30 620 S 61.759 1.77014 4.01512 0
M  V30 621 H 58.577 0.383819 0.598502 0
M  V30 622 H 61.179 1.56158 1.17622 0
M  V30 623 H 59.883 2.82506 2.97689 0
M  V30 624 H 59.414 1.28682 3.71759 0
M  V30 625 H 61.429 0.825956 4.89277 0
M  V30 626 N 60.6021 -1.18246 1.0419 0
M  V30 627 C 61.8481 -1.88536 0.747122 0
M  V30 628 C 62.1811 -1.80223 -0.723409 0
M  V30 629 O 61.4561 -1.20337 -1.52804 0
M  V30 630 C 61.7391 -3.38968 1.21544 0
M  V30 631 C 61.5921 -3.56084 2.74816 0
M  V30 632 C 62.9111 -4.32648 0.806482 0
M  V30 633 H 60.0301 -0.684619 0.272883 0
M  V30 634 H 62.6721 -1.39113 1.29413 0
M  V30 635 H 60.8221 -3.8119 0.750081 0
M  V30 636 H 62.4941 -3.22946 3.29399 0
M  V30 637 H 60.7371 -2.98699 3.14582 0
M  V30 638 H 61.4081 -4.61639 3.02644 0
M  V30 639 H 63.8841 -3.98211 1.20695 0
M  V30 640 H 62.7601 -5.36462 1.1619 0
M  V30 641 H 63.0211 -4.41146 -0.29029 0
M  V30 642 N 62.0802 -0.821533 -1.34494 0
M  V30 643 C 63.0272 -0.240397 -2.29545 0
M  V30 644 C 63.9972 0.634031 -1.53523 0
M  V30 645 O 65.1822 0.575966 -1.81899 0
M  V30 646 C 62.3222 0.592869 -3.39969 0
M  V30 647 C 61.4352 -0.30365 -4.30932 0
M  V30 648 C 60.5702 0.539049 -5.28458 0
M  V30 649 C 59.6092 -0.356942 -6.11058 0
M  V30 650 N 58.7462 0.446603 -7.00678 0
M  V30 651 H 63.5862 -1.05632 -2.7865 0
M  V30 652 H 61.1232 -0.532413 -1.37127 0
M  V30 653 H 63.0812 1.09129 -4.02675 0
M  V30 654 H 61.7112 1.37392 -2.92102 0
M  V30 655 H 60.7632 -0.920276 -3.691 0
M  V30 656 H 62.0752 -0.992661 -4.88823 0
M  V30 657 H 61.2292 1.102 -5.96608 0
M  V30 658 H 59.9682 1.26157 -4.71101 0
M  V30 659 H 58.9732 -0.932047 -5.41842 0
M  V30 660 H 60.1982 -1.07755 -6.70497 0
M  V30 661 H 58.1442 1.15282 -6.45791 0
M  V30 662 H 58.0612 -0.184048 -7.55776 0
M  V30 663 H 59.3292 0.992352 -7.73158 0
M  V30 664 N 63.5583 1.46682 -0.576371 0
M  V30 665 C 64.7863 2.06798 -0.0649635 0
M  V30 666 C 65.2013 1.42612 1.23723 0
M  V30 667 O 64.5583 0.529203 1.74659 0
M  V30 668 C 64.6093 3.6132 0.114202 0
M  V30 669 O 64.3303 4.23104 -1.13644 0
M  V30 670 C 65.8313 4.38349 0.66069 0
M  V30 671 H 63.0513 0.668778 -0.0545616 0
M  V30 672 H 65.5953 1.88404 -0.795237 0
M  V30 673 H 63.7503 3.79162 0.794673 0
M  V30 674 H 64.1643 5.15894 -0.946253 0
M  V30 675 H 65.6383 5.47081 0.73526 0
M  V30 676 H 66.1153 4.05953 1.67627 0
M  V30 677 H 66.7213 4.25297 0.0152951 0
M  V30 678 N 65.0364 0.313813 1.54444 0
M  V30 679 C 65.9834 -0.55655 2.23989 0
M  V30 680 C 66.9534 -1.11943 1.22711 0
M  V30 681 O 68.1384 -1.16158 1.51367 0
M  V30 682 C 65.2784 -1.71635 2.99392 0
M  V30 683 C 64.3914 -1.18364 4.15468 0
M  V30 684 C 63.5264 -2.30834 4.78424 0
M  V30 685 C 62.5654 -1.74762 5.86622 0
M  V30 686 N 61.7024 -2.80855 6.43479 0
M  V30 687 H 66.5424 0.0430893 2.97969 0
M  V30 688 H 64.0794 0.0330359 1.47063 0
M  V30 689 H 66.0374 -2.39868 3.41349 0
M  V30 690 H 64.6674 -2.28742 2.27765 0
M  V30 691 H 63.7194 -0.393163 3.78363 0
M  V30 692 H 65.0314 -0.733262 4.93381 0
M  V30 693 H 64.1854 -3.0699 5.23299 0
M  V30 694 H 62.9244 -2.79204 3.99871 0
M  V30 695 H 61.9294 -0.970995 5.41158 0
M  V30 696 H 63.1544 -1.2728 6.67066 0
M  V30 697 H 61.1004 -3.28535 5.67804 0
M  V30 698 H 61.0174 -2.40351 7.16776 0
M  V30 699 H 62.2854 -3.5687 6.93011 0
M  V30 700 N 66.5145 -1.57545 0.0417849 0
M  V30 701 C 67.4645 -2.07483 -0.945247 0
M  V30 702 C 68.4485 -0.977983 -1.27767 0
M  V30 703 O 69.6405 -1.24142 -1.26166 0
M  V30 704 C 66.7695 -2.61576 -2.22335 0
M  V30 705 C 65.8555 -3.78213 -1.91874 0
M  V30 706 N 66.2465 -4.88344 -1.31733 0
M  V30 707 C 64.5445 -3.8694 -2.21796 0
M  V30 708 C 65.2455 -5.69462 -1.1869 0
M  V30 709 N 64.2215 -5.16771 -1.68666 0
M  V30 710 H 68.0235 -2.90029 -0.475441 0
M  V30 711 H 65.5375 -1.61581 -0.162911 0
M  V30 712 H 67.5345 -2.95651 -2.93932 0
M  V30 713 H 66.1945 -1.80465 -2.69931 0
M  V30 714 H 67.2055 -5.08335 -0.990729 0
M  V30 715 H 63.8825 -3.16757 -2.71977 0
M  V30 716 H 65.2725 -6.68023 -0.720793 0
M  V30 717 N 67.9926 0.231505 -1.5589 0
M  V30 718 C 69.4036 0.799327 -1.68724 0
M  V30 719 C 69.7546 1.85398 -0.642022 0
M  V30 720 O 68.8796 2.1539 0.208784 0
M  V30 721 C 69.4746 1.45664 -3.05888 0
M  V30 722 C 68.0336 1.97197 -3.20609 0
M  V30 723 C 67.1806 0.828552 -2.64632 0
M  V30 724 H 70.1316 0.00702616 -1.58698 0
M  V30 725 H 70.1526 2.32517 -3.01191 0
M  V30 726 H 69.6646 0.688808 -3.81939 0
M  V30 727 H 67.7656 2.76813 -2.4941 0
M  V30 728 H 67.8786 2.15878 -4.27707 0
M  V30 729 H 66.2426 1.23321 -2.22854 0
M  V30 730 H 67.0256 0.0735544 -3.43221 0
M  V30 731 N 69.4707 1.49531 0.497807 0
M  V30 732 C 70.4027 1.62559 1.61578 0
M  V30 733 C 71.4157 0.508134 1.54667 0
M  V30 734 O 72.6047 0.780309 1.60541 0
M  V30 735 C 69.7047 1.56925 3.00379 0
M  V30 736 C 68.8777 2.84257 3.3244 0
M  V30 737 C 67.9367 2.71632 4.50669 0
M  V30 738 O 66.9627 3.4557 4.52294 0
M  V30 739 N 68.1647 1.83391 5.5077 0
M  V30 740 H 70.9297 2.58981 1.50828 0
M  V30 741 H 68.4907 1.4666 0.685743 0
M  V30 742 H 70.4827 1.46129 3.77397 0
M  V30 743 H 69.0527 0.683483 3.05037 0
M  V30 744 H 68.2727 3.09381 2.44289 0
M  V30 745 H 69.5607 3.68666 3.5066 0
M  V30 746 H 68.9587 1.22583 5.52259 0
M  V30 747 H 67.5157 1.78515 6.26878 0
M  V30 748 N 70.9488 -0.749086 1.3866 0
M  V30 749 C 71.8788 -1.8764 1.38973 0
M  V30 750 C 72.8598 -1.68178 0.255004 0
M  V30 751 O 74.0448 -1.88704 0.458754 0
M  V30 752 C 71.1748 -3.25222 1.21851 0
M  V30 753 C 70.1288 -3.59295 2.32575 0
M  V30 754 C 69.4548 -4.95663 2.00555 0
M  V30 755 C 70.7548 -3.63709 3.7485 0
M  V30 756 H 72.4488 -1.87635 2.3331 0
M  V30 757 H 69.9948 -0.901329 1.12303 0
M  V30 758 H 71.9478 -4.03746 1.20695 0
M  V30 759 H 70.6718 -3.25719 0.239775 0
M  V30 760 H 69.3308 -2.83093 2.32925 0
M  V30 761 H 68.9788 -4.92724 1.01154 0
M  V30 762 H 68.6788 -5.19429 2.74714 0
M  V30 763 H 70.2028 -5.7656 2.01024 0
M  V30 764 H 71.6168 -4.32338 3.76506 0
M  V30 765 H 70.0138 -3.98986 4.48252 0
M  V30 766 H 71.0838 -2.63834 4.06841 0
M  V30 767 N 72.4269 -1.23603 -0.977757 0
M  V30 768 C 73.3769 -0.986664 -2.05545 0
M  V30 769 C 74.3609 0.0683009 -1.60755 0
M  V30 770 O 75.5529 -0.144162 -1.76412 0
M  V30 771 C 72.6819 -0.582623 -3.3832 0
M  V30 772 C 71.7679 -1.67313 -3.89701 0
M  V30 773 N 72.1589 -2.90394 -4.14132 0
M  V30 774 C 70.4569 -1.54832 -4.18262 0
M  V30 775 C 71.1579 -3.61017 -4.56116 0
M  V30 776 N 70.1339 -2.8854 -4.60701 0
M  V30 777 H 73.9359 -1.92139 -2.22396 0
M  V30 778 H 71.4499 -1.1358 -1.16074 0
M  V30 779 H 73.4469 -0.38524 -4.15116 0
M  V30 780 H 72.1069 0.34503 -3.22862 0
M  V30 781 H 73.1179 -3.26673 -4.01877 0
M  V30 782 H 69.7949 -0.687969 -4.11793 0
M  V30 783 H 71.1849 -4.66544 -4.83514 0
M  V30 784 N 73.905 1.17692 -1.04816 0
M  V30 785 C 75.154 1.87192 -0.751132 0
M  V30 786 C 75.467 1.8169 0.724441 0
M  V30 787 O 76.673 2.46625 1.13527 0
M  V30 788 C 75.129 3.35857 -1.29338 0
M  V30 789 C 74.737 3.4987 -2.79812 0
M  V30 790 C 76.481 4.10709 -1.07322 0
M  V30 791 C 74.388 4.92536 -3.27356 0
M  V30 792 H 73.318 0.701162 -0.277288 0
M  V30 793 H 75.969 1.32932 -1.26496 0
M  V30 794 H 74.351 3.89631 -0.707376 0
M  V30 795 H 75.525 3.06332 -3.44235 0
M  V30 796 H 73.84 2.88433 -3.00325 0
M  V30 797 H 76.437 5.15952 -1.4035 0
M  V30 798 H 76.78 4.16299 -0.0108001 0
M  V30 799 H 77.313 3.6313 -1.62423 0
M  V30 800 H 74.052 4.92119 -4.33012 0
M  V30 801 H 73.572 5.3676 -2.67673 0
M  V30 802 H 75.251 5.61288 -3.21815 0
M  V30 803 N 75.3831 0.828654 1.34056 0
M  V30 804 C 76.2931 0.256725 2.33191 0
M  V30 805 C 77.3091 -0.611898 1.62886 0
M  V30 806 O 78.4851 -0.51844 1.94613 0
M  V30 807 C 75.5501 -0.567238 3.42028 0
M  V30 808 C 74.6111 0.324458 4.28072 0
M  V30 809 C 73.8441 -0.460274 5.31712 0
M  V30 810 O 74.0671 -1.693 5.44696 0
M  V30 811 O 73.0011 0.160391 6.01686 0
M  V30 812 H 76.8271 1.07739 2.83947 0
M  V30 813 H 74.4121 0.59093 1.37217 0
M  V30 814 H 76.2941 -1.03582 4.08471 0
M  V30 815 H 74.9691 -1.36513 2.93506 0
M  V30 816 H 73.8761 0.840659 3.64532 0
M  V30 817 H 75.2091 1.08685 4.8005 0
M  V30 818 N 76.8612 -1.46375 0.584142 0
M  V30 819 C 78.0862 -2.07268 0.0740405 0
M  V30 820 C 78.5112 -1.42979 -1.22223 0
M  V30 821 O 77.8692 -0.514092 -1.73859 0
M  V30 822 C 77.9172 -3.60518 -0.0767769 0
M  V30 823 O 77.0212 -3.96533 -1.13292 0
M  V30 824 H 76.3622 -0.660961 0.0634524 0
M  V30 825 H 78.8922 -1.87991 0.807492 0
M  V30 826 H 78.9022 -4.07021 -0.282489 0
M  V30 827 H 77.5772 -4.06702 0.86986 0
M  V30 828 H 76.1542 -3.61738 -0.905553 0
M  V30 829 N 78.3393 -0.321999 -1.54275 0
M  V30 830 C 79.2863 0.544664 -2.24281 0
M  V30 831 C 80.2563 1.1129 -1.23303 0
M  V30 832 O 81.4413 1.15354 -1.51981 0
M  V30 833 C 78.5813 1.70045 -3.00298 0
M  V30 834 C 77.6943 1.16159 -4.1609 0
M  V30 835 C 76.8293 2.28293 -4.79641 0
M  V30 836 C 75.8683 1.71648 -5.8754 0
M  V30 837 N 75.0053 2.77438 -6.44959 0
M  V30 838 H 79.8453 -0.0588907 -2.97942 0
M  V30 839 H 77.3823 -0.0408345 -1.47043 0
M  V30 840 H 79.3403 2.38054 -3.42616 0
M  V30 841 H 77.9703 2.27531 -2.28975 0
M  V30 842 H 77.0223 0.373092 -3.78566 0
M  V30 843 H 78.3343 0.707087 -4.93763 0
M  V30 844 H 77.4883 3.0421 -5.2492 0
M  V30 845 H 76.2273 2.77079 -4.01346 0
M  V30 846 H 75.2323 0.942282 -5.41665 0
M  V30 847 H 76.4573 1.23741 -6.67731 0
M  V30 848 H 74.4033 3.25519 -5.69538 0
M  V30 849 H 74.3203 2.36547 -7.1804 0
M  V30 850 H 75.5883 3.53189 -6.94894 0
M  V30 851 N 79.8174 1.5752 -0.0501392 0
M  V30 852 C 81.0644 1.9265 0.623874 0
M  V30 853 C 81.3924 0.928411 1.70912 0
M  V30 854 O 80.6474 -0.0594525 1.9561 0
M  V30 855 C 80.9464 3.34467 1.25963 0
M  V30 856 C 80.6124 4.49883 0.302689 0
M  V30 857 C 79.2744 4.81184 0.0393636 0
M  V30 858 C 81.6264 5.20002 -0.353205 0
M  V30 859 C 78.9544 5.79951 -0.887308 0
M  V30 860 C 81.3064 6.1976 -1.26806 0
M  V30 861 C 79.9704 6.49491 -1.54007 0
M  V30 862 H 79.2404 0.704957 0.228292 0
M  V30 863 H 81.8874 1.91146 -0.116398 0
M  V30 864 H 80.1924 3.32333 2.07514 0
M  V30 865 H 81.8894 3.58928 1.78806 0
M  V30 866 H 78.4794 4.25457 0.518109 0
M  V30 867 H 82.6634 4.96033 -0.162854 0
M  V30 868 H 77.9194 6.01322 -1.10553 0
M  V30 869 H 82.0934 6.73205 -1.78236 0
M  V30 870 H 79.7204 7.25837 -2.25976 0
M  V30 871 N 81.2955 -0.223234 1.56011 0
M  V30 872 C 82.5255 -0.963413 1.82762 0
M  V30 873 C 82.9335 -1.78516 0.626804 0
M  V30 874 O 82.2765 -1.78974 -0.414014 0
M  V30 875 C 82.3385 -1.93126 3.0322 0
M  V30 876 C 82.0025 -1.2942 4.38291 0
M  V30 877 C 82.9995 -0.684916 5.15369 0
M  V30 878 C 80.6845 -1.30647 4.85012 0
M  V30 879 C 82.6785 -0.0963971 6.37327 0
M  V30 880 C 80.3655 -0.71411 6.06913 0
M  V30 881 C 81.3635 -0.110123 6.82911 0
M  V30 882 O 81.0515 0.47303 8.02507 0
M  V30 883 H 80.7835 -0.288011 0.611576 0
M  V30 884 H 83.3375 -0.244103 2.03944 0
M  V30 885 H 81.5675 -2.68952 2.77852 0
M  V30 886 H 83.2565 -2.53685 3.16857 0
M  V30 887 H 84.0225 -0.667774 4.80381 0
M  V30 888 H 79.9015 -1.76598 4.25833 0
M  V30 889 H 83.4455 0.375657 6.96588 0
M  V30 890 H 79.3425 -0.728659 6.41374 0
M  V30 891 H 80.1105 0.367186 8.17676 0
M  V30 892 N 82.7736 -1.49793 -0.48987 0
M  V30 893 C 83.7206 -1.67281 -1.59014 0
M  V30 894 C 84.6906 -0.514177 -1.57941 0
M  V30 895 O 85.8756 -0.742533 -1.75759 0
M  V30 896 C 83.0156 -1.75569 -2.97102 0
M  V30 897 C 82.1286 -3.0281 -3.08107 0
M  V30 898 C 81.2636 -3.02008 -4.36995 0
M  V30 899 C 80.3026 -4.23782 -4.41673 0
M  V30 900 N 79.4396 -4.20826 -5.62005 0
M  V30 901 H 84.2796 -2.61224 -1.43409 0
M  V30 902 H 81.8166 -1.29508 -0.697565 0
M  V30 903 H 83.7746 -1.78354 -3.77155 0
M  V30 904 H 82.4046 -0.850827 -3.11385 0
M  V30 905 H 81.4566 -3.09584 -2.21047 0
M  V30 906 H 82.7686 -3.92801 -3.07423 0
M  V30 907 H 81.9226 -3.03418 -5.25378 0
M  V30 908 H 80.6616 -2.09815 -4.4026 0
M  V30 909 H 79.6666 -4.22604 -3.5169 0
M  V30 910 H 80.8916 -5.17181 -4.40115 0
M  V30 911 H 78.8376 -3.31476 -5.66091 0
M  V30 912 H 78.7546 -5.04564 -5.62984 0
M  V30 913 H 80.0226 -4.26355 -6.52565 0
M  V30 914 N 84.2517 0.741722 -1.39055 0
M  V30 915 C 85.1847 1.86416 -1.31622 0
M  V30 916 C 86.1627 1.61473 -0.191076 0
M  V30 917 O 87.3467 1.84825 -0.370399 0
M  V30 918 C 84.4737 3.22266 -1.04221 0
M  V30 919 C 83.5197 3.66079 -2.18834 0
M  V30 920 S 84.3527 3.7623 -3.81066 0
M  V30 921 C 85.5087 5.14881 -3.55877 0
M  V30 922 H 85.7417 1.92437 -2.26617 0
M  V30 923 H 83.2747 0.905907 -1.25031 0
M  V30 924 H 85.2327 4.00714 -0.890964 0
M  V30 925 H 83.8937 3.1391 -0.109237 0
M  V30 926 H 83.0867 4.64648 -1.95238 0
M  V30 927 H 82.6887 2.94817 -2.30128 0
M  V30 928 H 84.9807 6.01006 -3.12726 0
M  V30 929 H 85.9237 5.43503 -4.53884 0
M  V30 930 H 86.3317 4.84239 -2.90126 0
M  V30 931 N 85.7298 1.2412 0.971189 0
M  V30 932 C 86.6628 0.97373 2.06382 0
M  V30 933 C 87.6408 -0.0912662 1.62344 0
M  V30 934 O 88.8248 0.0449365 1.88446 0
M  V30 935 C 85.9518 0.468746 3.35441 0
M  V30 936 C 84.9978 1.52176 3.98428 0
M  V30 937 S 85.8308 3.10203 4.36503 0
M  V30 938 C 86.9868 2.61398 5.68702 0
M  V30 939 H 87.2198 1.89893 2.28753 0
M  V30 940 H 84.7528 1.07466 1.10862 0
M  V30 941 H 86.7108 0.184012 4.10087 0
M  V30 942 H 85.3718 -0.435688 3.11064 0
M  V30 943 H 84.5648 1.11876 4.91426 0
M  V30 944 H 84.1668 1.75632 3.30196 0
M  V30 945 H 86.4588 2.03992 6.4606 0
M  V30 946 H 87.4018 3.52972 6.13854 0
M  V30 947 H 87.8098 2.01941 5.27143 0
M  V30 948 N 87.2079 -1.17134 1.05439 0
M  V30 949 C 88.1399 -2.2078 0.615539 0
M  V30 950 C 89.1529 -1.59584 -0.322001 0
M  V30 951 O 90.3419 -1.78133 -0.114344 0
M  V30 952 C 87.4419 -3.38691 -0.118938 0
M  V30 953 C 86.6149 -4.29454 0.829924 0
M  V30 954 C 85.6739 -5.26024 0.136258 0
M  V30 955 O 84.6999 -5.63952 0.77115 0
M  V30 956 N 85.9019 -5.69487 -1.1254 0
M  V30 957 H 88.6669 -2.59052 1.50705 0
M  V30 958 H 86.2279 -1.32058 0.936603 0
M  V30 959 H 88.2199 -4.00329 -0.593179 0
M  V30 960 H 86.7899 -2.98996 -0.91215 0
M  V30 961 H 86.0099 -3.65211 1.48373 0
M  V30 962 H 87.2979 -4.86984 1.47392 0
M  V30 963 H 86.6959 -5.4075 -1.6615 0
M  V30 964 H 85.2529 -6.33257 -1.54366 0
M  V30 965 N 88.686 -0.835752 -1.33615 0
M  V30 966 C 89.934 -0.429109 -1.97492 0
M  V30 967 C 90.255 1.01433 -1.66543 0
M  V30 968 O 89.525 1.70611 -0.962744 0
M  V30 969 H 88.105 -0.155686 -0.730596 0
M  V30 970 H 90.767 -1.06802 -1.63031 0
M  V30 971 H 89.863 -0.55861 -3.0706 0
M  V30 972 N 90.1641 1.46063 -0.591896 0
M  V30 973 C 91.4121 2.01938 -0.0808391 0
M  V30 974 C 91.7331 1.46475 1.28725 0
M  V30 975 O 91.0031 0.652944 1.84698 0
M  V30 976 H 89.5831 0.746516 -0.0268938 0
M  V30 977 H 92.2451 1.79055 -0.769752 0
M  V30 978 H 91.3411 3.12094 -0.0187578 0
M  V30 979 N 91.6422 0.330177 1.54103 0
M  V30 980 C 92.8882 -0.270806 2.00984 0
M  V30 981 C 93.2212 -1.51265 1.21789 0
M  V30 982 O 92.4962 -1.92142 0.301927 0
M  V30 983 C 92.7792 -0.598339 3.55094 0
M  V30 984 C 92.6322 0.654674 4.4501 0
M  V30 985 C 93.9512 -1.41334 4.16789 0
M  V30 986 H 91.0702 -0.0969531 0.730595 0
M  V30 987 H 93.7122 0.448066 1.84641 0
M  V30 988 H 91.8622 -1.21078 3.69151 0
M  V30 989 H 93.5342 1.29285 4.42813 0
M  V30 990 H 91.7772 1.28224 4.14416 0
M  V30 991 H 92.4482 0.380944 5.50684 0
M  V30 992 H 94.9242 -0.895597 4.06347 0
M  V30 993 H 93.8002 -1.61127 5.24718 0
M  V30 994 H 94.0612 -2.41146 3.70541 0
M  V30 995 N 93.1203 -1.57491 0.0584922 0
M  V30 996 C 94.3683 -1.92597 -0.612436 0
M  V30 997 C 94.6893 -0.938162 -1.70949 0
M  V30 998 O 93.9593 0.0158301 -1.95894 0
M  V30 999 H 92.5393 -0.710964 -0.229214 0
M  V30 1000 H 95.2013 -1.94571 0.113218 0
M  V30 1001 H 94.2973 -2.94038 -1.04633 0
M  V30 1002 N 94.5984 0.214957 -1.56127 0
M  V30 1003 C 95.8474 0.936451 -1.78643 0
M  V30 1004 C 96.1604 1.85237 -0.628229 0
M  V30 1005 O 97.3664 2.613 -0.737186 0
M  V30 1006 C 95.8224 1.7154 -3.16389 0
M  V30 1007 C 95.4304 0.845299 -4.39953 0
M  V30 1008 C 97.1744 2.42772 -3.48227 0
M  V30 1009 C 95.0814 1.62198 -5.68723 0
M  V30 1010 H 94.0114 0.353401 -0.666051 0
M  V30 1011 H 96.6624 0.190169 -1.82512 0
M  V30 1012 H 95.0444 2.50484 -3.06715 0
M  V30 1013 H 96.2184 0.0959353 -4.607 0
M  V30 1014 H 94.5334 0.244789 -4.1568 0
M  V30 1015 H 97.1304 3.01394 -4.41663 0
M  V30 1016 H 97.4734 3.15984 -2.71035 0
M  V30 1017 H 98.0064 1.70813 -3.5926 0
M  V30 1018 H 94.7454 0.933011 -6.48826 0
M  V30 1019 H 94.2654 2.34579 -5.52026 0
M  V30 1020 H 95.9444 2.18095 -6.09133 0
M  V30 1021 N 96.0765 1.50051 0.48192 0
M  V30 1022 C 97.4875 1.5348 1.06305 0
M  V30 1023 C 97.8385 0.331997 1.93371 0
M  V30 1024 O 96.9635 -0.556256 2.09129 0
M  V30 1025 C 97.5585 2.7813 1.93466 0
M  V30 1026 C 96.1175 2.84275 2.46707 0
M  V30 1027 C 95.2645 2.47637 1.24785 0
M  V30 1028 H 98.2155 1.56472 0.264995 0
M  V30 1029 H 98.2365 2.59372 2.78399 0
M  V30 1030 H 97.7485 3.65654 1.30072 0
M  V30 1031 H 95.8495 2.01077 3.13686 0
M  V30 1032 H 95.9625 3.8691 2.82555 0
M  V30 1033 H 94.3265 1.99835 1.57918 0
M  V30 1034 H 95.1095 3.37457 0.630694 0
M  V30 1035 N 97.5546 -0.734337 1.39446 0
M  V30 1036 C 98.7796 -1.52866 1.40167 0
M  V30 1037 C 99.2046 -1.881 -0.00171513 0
M  V30 1038 O 98.5626 -1.51957 -0.988879 0
M  V30 1039 C 98.6106 -2.79235 2.28167 0
M  V30 1040 O 97.7146 -3.75185 1.71201 0
M  V30 1041 H 97.0556 -0.461618 0.477289 0
M  V30 1042 H 99.5856 -0.905949 1.8345 0
M  V30 1043 H 99.5956 -3.27963 2.42702 0
M  V30 1044 H 98.2706 -2.52923 3.30156 0
M  V30 1045 H 96.8476 -3.33958 1.65912 0
M  V30 1046 N 99.0327 -1.24633 -0.964593 0
M  V30 1047 C 100.282 -1.08188 -1.7023 0
M  V30 1048 C 100.595 0.37873 -1.91898 0
M  V30 1049 O 101.801 0.663427 -2.6327 0
M  V30 1050 C 100.257 -1.88773 -3.06419 0
M  V30 1051 C 99.8647 -3.39263 -2.92582 0
M  V30 1052 C 101.609 -1.80867 -3.84041 0
M  V30 1053 C 99.5157 -4.1218 -4.24101 0
M  V30 1054 H 98.4457 -0.401245 -0.638372 0
M  V30 1055 H 101.097 -1.48742 -1.07462 0
M  V30 1056 H 99.4787 -1.41035 -3.70034 0
M  V30 1057 H 100.653 -3.94603 -2.37961 0
M  V30 1058 H 98.9677 -3.48154 -2.28424 0
M  V30 1059 H 101.565 -2.32646 -4.81435 0
M  V30 1060 H 101.908 -0.774543 -4.09031 0
M  V30 1061 H 102.441 -2.26301 -3.27159 0
M  V30 1062 H 99.1797 -5.15965 -4.04303 0
M  V30 1063 H 98.6997 -3.61626 -4.78526 0
M  V30 1064 H 100.379 -4.19349 -4.92702 0
M  V30 1065 N 100.511 1.16574 -1.06058 0
M  V30 1066 C 101.458 2.20883 -0.669263 0
M  V30 1067 C 102.428 1.62729 0.332918 0
M  V30 1068 O 103.613 1.895 0.222346 0
M  V30 1069 C 100.753 3.45049 -0.0593572 0
M  V30 1070 C 99.8658 4.17458 -1.11143 0
M  V30 1071 C 99.0008 5.29135 -0.467916 0
M  V30 1072 C 98.0398 5.93343 -1.50369 0
M  V30 1073 N 97.1768 6.96516 -0.883706 0
M  V30 1074 H 102.017 2.53709 -1.5632 0
M  V30 1075 H 99.5538 1.24616 -0.781625 0
M  V30 1076 H 101.512 4.16033 0.311771 0
M  V30 1077 H 100.142 3.12781 0.797992 0
M  V30 1078 H 99.1938 3.45101 -1.60029 0
M  V30 1079 H 100.506 4.61307 -1.89731 0
M  V30 1080 H 99.6598 6.06684 -0.0436871 0
M  V30 1081 H 98.3988 4.86443 0.349864 0
M  V30 1082 H 97.4038 5.14517 -1.93784 0
M  V30 1083 H 98.6288 6.38114 -2.32352 0
M  V30 1084 H 96.5748 6.55943 -0.086595 0
M  V30 1085 H 96.4918 7.38723 -1.607 0
M  V30 1086 H 97.7598 7.77993 -0.484543 0
M  V30 1087 N 101.989 0.842826 1.3317 0
M  V30 1088 C 103.235 0.450342 1.98352 0
M  V30 1089 C 103.59 -0.980508 1.65541 0
M  V30 1090 O 102.883 -1.67678 0.927065 0
M  V30 1091 C 103.077 0.612607 3.52111 0
M  V30 1092 C 102.906 2.05768 3.99862 0
M  V30 1093 C 101.676 2.69374 4.27511 0
M  V30 1094 C 103.874 3.02688 4.15794 0
M  V30 1095 N 101.856 4.04915 4.61429 0
M  V30 1096 C 103.227 4.23186 4.53115 0
M  V30 1097 C 105.282 2.99041 3.98094 0
M  V30 1098 C 103.985 5.40518 4.74587 0
M  V30 1099 C 106.011 4.15607 4.20743 0
M  V30 1100 C 105.373 5.3486 4.58371 0
M  V30 1101 H 101.472 0.213296 0.752349 0
M  V30 1102 H 104.056 1.09173 1.61212 0
M  V30 1103 H 102.227 0.000998822 3.884 0
M  V30 1104 H 103.959 0.191179 4.04248 0
M  V30 1105 H 100.714 2.20485 4.19146 0
M  V30 1106 H 101.138 4.74798 4.82593 0
M  V30 1107 H 105.78 2.0797 3.68114 0
M  V30 1108 H 103.498 6.3213 5.03425 0
M  V30 1109 H 107.084 4.14207 4.08563 0
M  V30 1110 H 105.964 6.23558 4.75547 0
M  V30 1111 N 103.467 -1.45747 0.599634 0
M  V30 1112 C 104.707 -2.04181 0.0946309 0
M  V30 1113 C 105.071 -1.45895 -1.24815 0
M  V30 1114 O 106.272 -1.95633 -1.8434 0
M  V30 1115 C 104.543 -3.57368 0.047581 0
M  V30 1116 S 106.102 -4.36997 -0.397387 0
M  V30 1117 H 102.92 -0.70953 0.0456954 0
M  V30 1118 H 105.522 -1.78564 0.795946 0
M  V30 1119 H 104.226 -3.97303 1.02852 0
M  V30 1120 H 103.757 -3.87549 -0.675977 0
M  V30 1121 H 105.772 -4.68012 -1.64862 0
M  V30 1122 N 104.945 -0.338344 -1.53925 0
M  V30 1123 C 106.193 0.259245 -2.0043 0
M  V30 1124 C 106.514 1.51484 -1.22791 0
M  V30 1125 O 105.784 1.93037 -0.33368 0
M  V30 1126 H 104.364 0.0987845 -0.740439 0
M  V30 1127 H 107.026 -0.458302 -1.89435 0
M  V30 1128 H 106.122 0.505334 -3.07982 0
M  V30 1129 N 106.423 1.57458 -0.0668435 0
M  V30 1130 C 107.386 2.11323 0.887422 0
M  V30 1131 C 108.386 1.03618 1.22964 0
M  V30 1132 O 109.576 1.29626 1.16373 0
M  V30 1133 C 106.708 2.61048 2.19242 0
M  V30 1134 H 107.901 2.96942 0.420194 0
M  V30 1135 H 105.454 1.55239 0.181793 0
M  V30 1136 H 106.189 1.78868 2.70512 0
M  V30 1137 H 105.974 3.39769 1.95702 0
M  V30 1138 H 107.464 3.02814 2.87565 0
M  V30 1139 N 107.901 -0.206675 1.56239 0
M  V30 1140 C 108.811 -1.27686 1.96808 0
M  V30 1141 C 109.827 -1.50455 0.874035 0
M  V30 1142 O 111.003 -1.63295 1.17884 0
M  V30 1143 C 108.068 -2.60358 2.28942 0
M  V30 1144 C 107.129 -2.45762 3.51994 0
M  V30 1145 C 106.362 -3.72108 3.82585 0
M  V30 1146 O 106.585 -4.75776 3.14631 0
M  V30 1147 O 105.519 -3.6833 4.76043 0
M  V30 1148 H 109.345 -0.962593 2.88041 0
M  V30 1149 H 106.93 -0.410746 1.43643 0
M  V30 1150 H 108.812 -3.38687 2.50737 0
M  V30 1151 H 107.487 -2.91435 1.4088 0
M  V30 1152 H 106.394 -1.65584 3.35459 0
M  V30 1153 H 107.727 -2.19621 4.40486 0
M  V30 1154 N 109.379 -1.50304 -0.473955 0
M  V30 1155 C 110.627 -1.60832 -1.22382 0
M  V30 1156 C 110.948 -0.30939 -1.9253 0
M  V30 1157 O 110.218 0.67296 -1.83978 0
M  V30 1158 H 108.798 -0.592652 -0.454723 0
M  V30 1159 H 111.46 -1.87068 -0.546968 0
M  V30 1160 H 110.556 -2.41803 -1.97327 0
M  V30 1161 N 110.857 0.726932 -1.39834 0
M  V30 1162 C 112.134 1.47902 -1.28001 0
M  V30 1163 C 112.514 2.1083 0.106789 0
M  V30 1164 O 111.862 1.99242 1.11869 0
M  V30 1165 C 112.072 2.52392 -2.41038 0
M  V30 1166 C 113.42 3.18546 -2.80737 0
M  V30 1167 O 114.444 2.62708 -2.40547 0
M  V30 1168 O 113.303 4.19604 -3.50135 0
M  V30 1169 H 110.397 0.657163 -0.502062 0
M  V30 1170 H 112.943 0.760071 -1.51727 0
M  V30 1171 H 111.715 2.04329 -3.33715 0
M  V30 1172 H 111.338 3.31837 -2.19021 0
M  V30 1173 N 112.336 1.25143 0.95797 0
M  V30 1174 C 113.566 1.12261 1.73439 0
M  V30 1175 C 113.974 -0.326715 1.86358 0
M  V30 1176 O 113.317 -1.2367 1.35836 0
M  V30 1177 C 113.379 1.69966 3.16784 0
M  V30 1178 C 113.043 3.18936 3.27305 0
M  V30 1179 C 114.04 4.15968 3.11877 0
M  V30 1180 C 111.725 3.59083 3.51234 0
M  V30 1181 C 113.719 5.51126 3.20217 0
M  V30 1182 C 111.406 4.9438 3.5921 0
M  V30 1183 C 112.404 5.90211 3.43716 0
M  V30 1184 O 112.092 7.23046 3.51368 0
M  V30 1185 H 111.824 0.392476 0.550399 0
M  V30 1186 H 114.378 1.65927 1.21068 0
M  V30 1187 H 112.608 1.10744 3.70503 0
M  V30 1188 H 114.297 1.52232 3.76272 0
M  V30 1189 H 115.063 3.86292 2.93264 0
M  V30 1190 H 110.942 2.84989 3.62356 0
M  V30 1191 H 114.486 6.25905 3.0804 0
M  V30 1192 H 110.383 5.23723 3.77339 0
M  V30 1193 H 111.151 7.31097 3.6802 0
M  V30 1194 N 113.814 -1.1601 1.06675 0
M  V30 1195 C 114.762 -2.22586 0.675157 0
M  V30 1196 C 115.756 -1.66525 -0.310766 0
M  V30 1197 O 116.962 -1.79145 -0.175215 0
M  V30 1198 H 113.337 -0.724855 0.200223 0
M  V30 1199 H 115.308 -2.52899 1.58381 0
M  V30 1200 C 114.057 -3.47604 0.0817162 0
M  V30 1201 H 113.38 -3.91058 0.831484 0
M  V30 1202 H 114.82 -4.23718 -0.154708 0
M  V30 1203 C 113.279 -3.15718 -1.17576 0
M  V30 1204 O 113.809 -3.31878 -2.26318 0
M  V30 1205 N 112.015 -2.69816 -1.07923 0
M  V30 1206 H 111.562 -2.56866 -0.194293 0
M  V30 1207 H 111.52 -2.48855 -1.92141 0
M  V30 1208 N 115.292 -0.849877 -1.32721 0
M  V30 1209 C 116.538 -0.451591 -1.97708 0
M  V30 1210 C 116.871 0.989175 -1.6712 0
M  V30 1211 O 116.146 1.69334 -0.956891 0
M  V30 1212 C 116.429 -0.685598 -3.53513 0
M  V30 1213 C 116.282 -2.17444 -3.93749 0
M  V30 1214 C 117.601 -0.138874 -4.39881 0
M  V30 1215 H 114.72 -0.16555 -0.718166 0
M  V30 1216 H 117.362 -1.06742 -1.57182 0
M  V30 1217 H 115.512 -0.161416 -3.88165 0
M  V30 1218 H 117.184 -2.76433 -3.693 0
M  V30 1219 H 115.427 -2.65476 -3.43081 0
M  V30 1220 H 116.098 -2.28888 -5.02309 0
M  V30 1221 H 118.574 -0.587068 -4.11938 0
M  V30 1222 H 117.45 -0.332213 -5.47894 0
M  V30 1223 H 117.711 0.95806 -4.31594 0
M  V30 1224 N 116.77 1.45427 -0.607355 0
M  V30 1225 C 117.703 2.27635 0.160482 0
M  V30 1226 C 118.681 1.37122 0.873857 0
M  V30 1227 O 119.865 1.66551 0.882775 0
M  V30 1228 C 116.992 3.15486 1.23231 0
M  V30 1229 C 116.038 4.21939 0.622097 0
M  V30 1230 S 116.871 5.32459 -0.569852 0
M  V30 1231 C 118.027 6.23879 0.502577 0
M  V30 1232 H 118.26 2.9241 -0.536983 0
M  V30 1233 H 115.793 1.49265 -0.394868 0
M  V30 1234 H 117.751 3.66659 1.84585 0
M  V30 1235 H 116.412 2.49977 1.90185 0
M  V30 1236 H 115.605 4.8333 1.42856 0
M  V30 1237 H 115.207 3.73906 0.0837063 0
M  V30 1238 H 117.499 6.63261 1.38171 0
M  V30 1239 H 118.442 7.0806 -0.0751759 0
M  V30 1240 H 118.85 5.58545 0.8178 0
M  V30 1241 N 118.248 0.346503 1.53744 0
M  V30 1242 C 119.494 -0.249473 2.0126 0
M  V30 1243 C 119.827 -1.49965 1.23386 0
M  V30 1244 O 119.102 -1.91811 0.32229 0
M  V30 1245 C 119.385 -0.560643 3.55709 0
M  V30 1246 C 119.238 0.701836 4.44291 0
M  V30 1247 C 120.557 -1.36905 4.18264 0
M  V30 1248 H 117.676 -0.0891987 0.731582 0
M  V30 1249 H 120.318 0.467624 1.84156 0
M  V30 1250 H 118.468 -1.17156 3.70414 0
M  V30 1251 H 120.14 1.33974 4.41417 0
M  V30 1252 H 118.383 1.32612 4.13033 0
M  V30 1253 H 119.054 0.43933 5.50249 0
M  V30 1254 H 121.53 -0.852448 4.07275 0
M  V30 1255 H 120.406 -1.55553 5.26398 0
M  V30 1256 H 120.667 -2.37203 3.73078 0
M  V30 1257 N 119.726 -1.57421 0.075193 0
M  V30 1258 C 120.659 -2.08528 -0.926904 0
M  V30 1259 C 121.637 -0.991171 -1.28898 0
M  V30 1260 O 122.821 -1.26479 -1.39769 0
M  V30 1261 C 119.948 -2.54576 -2.23402 0
M  V30 1262 C 118.994 -3.75454 -2.02327 0
M  V30 1263 S 119.827 -5.19989 -1.27951 0
M  V30 1264 C 120.983 -5.69372 -2.59935 0
M  V30 1265 H 121.216 -2.932 -0.492048 0
M  V30 1266 H 118.749 -1.53785 -0.137651 0
M  V30 1267 H 120.707 -2.81767 -2.98526 0
M  V30 1268 H 119.368 -1.70166 -2.64012 0
M  V30 1269 H 118.561 -4.05675 -2.99071 0
M  V30 1270 H 118.163 -3.48654 -1.35339 0
M  V30 1271 H 120.455 -5.76424 -3.56008 0
M  V30 1272 H 121.398 -6.68207 -2.34319 0
M  V30 1273 H 121.806 -4.97205 -2.67296 0
M  V30 1274 N 121.204 0.198386 -1.56346 0
M  V30 1275 C 122.114 1.2664 -1.97483 0
M  V30 1276 C 123.13 1.49989 -0.882002 0
M  V30 1277 O 124.306 1.62668 -1.18748 0
M  V30 1278 C 121.371 2.59141 -2.30319 0
M  V30 1279 C 120.432 2.43892 -3.53292 0
M  V30 1280 C 119.665 3.70074 -3.84553 0
M  V30 1281 O 119.888 4.74101 -3.1715 0
M  V30 1282 O 118.822 3.658 -4.7799 0
M  V30 1283 H 122.648 0.947304 -2.88548 0
M  V30 1284 H 120.233 0.403123 -1.43859 0
M  V30 1285 H 122.115 3.37352 -2.5253 0
M  V30 1286 H 120.79 2.90684 -1.42423 0
M  V30 1287 H 119.697 1.63803 -3.36332 0
M  V30 1288 H 121.03 2.17282 -4.41644 0
M  V30 1289 N 122.682 1.50554 0.465978 0
M  V30 1290 C 123.612 1.72722 1.57128 0
M  V30 1291 C 124.593 0.576294 1.6004 0
M  V30 1292 O 125.778 0.81598 1.76225 0
M  V30 1293 C 122.908 1.82605 2.95419 0
M  V30 1294 C 121.862 2.97835 3.07373 0
M  V30 1295 C 121.188 2.92867 4.47363 0
M  V30 1296 C 122.488 4.38265 2.84114 0
M  V30 1297 H 124.182 2.65267 1.38829 0
M  V30 1298 H 121.728 1.2765 0.666441 0
M  V30 1299 H 123.681 1.96698 3.72677 0
M  V30 1300 H 122.405 0.866858 3.14886 0
M  V30 1301 H 121.064 2.83401 2.3255 0
M  V30 1302 H 120.712 1.94783 4.63755 0
M  V30 1303 H 120.412 3.70227 4.56296 0
M  V30 1304 H 121.936 3.09015 5.26633 0
M  V30 1305 H 123.35 4.53198 3.51118 0
M  V30 1306 H 121.747 5.17115 3.04487 0
M  V30 1307 H 122.817 4.50281 1.7993 0
M  V30 1308 N 124.16 -0.719506 1.40217 0
M  V30 1309 C 125.09 -1.8465 1.42922 0
M  V30 1310 C 126.071 -1.67599 0.29062 0
M  V30 1311 O 127.256 -1.87688 0.498677 0
M  V30 1312 C 124.386 -3.22565 1.28722 0
M  V30 1313 C 123.34 -3.54281 2.40144 0
M  V30 1314 C 122.666 -4.91298 2.11023 0
M  V30 1315 C 123.966 -3.55676 3.82481 0
M  V30 1316 H 125.66 -1.82644 2.37237 0
M  V30 1317 H 123.206 -0.877305 1.1419 0
M  V30 1318 H 125.159 -4.01095 1.29232 0
M  V30 1319 H 123.883 -3.25137 0.308811 0
M  V30 1320 H 122.542 -2.78088 2.38877 0
M  V30 1321 H 122.19 -4.90468 1.11582 0
M  V30 1322 H 121.89 -5.13485 2.8567 0
M  V30 1323 H 123.414 -5.72166 2.13209 0
M  V30 1324 H 124.828 -4.24254 3.85592 0
M  V30 1325 H 123.225 -3.89388 4.56614 0
M  V30 1326 H 124.295 -2.55144 4.12346 0
M  V30 1327 N 125.638 -1.25649 -0.95132 0
M  V30 1328 C 126.886 -1.10375 -1.69298 0
M  V30 1329 C 127.207 0.355339 -1.91735 0
M  V30 1330 O 126.477 1.25188 -1.50681 0
M  V30 1331 H 125.057 -0.405461 -0.627384 0
M  V30 1332 H 127.719 -1.57823 -1.14358 0
M  V30 1333 H 126.815 -1.61465 -2.67087 0
M  V30 1334 N 127.117 1.15442 -1.07289 0
M  V30 1335 C 128.528 1.67803 -0.818475 0
M  V30 1336 C 128.879 1.8489 0.656507 0
M  V30 1337 O 128.004 1.55176 1.50829 0
M  V30 1338 C 128.599 3.04805 -1.47917 0
M  V30 1339 C 127.158 3.54245 -1.27229 0
M  V30 1340 C 126.305 2.29986 -1.54925 0
M  V30 1341 H 129.256 0.996646 -1.23502 0
M  V30 1342 H 129.277 3.69702 -0.90005 0
M  V30 1343 H 128.789 2.92336 -2.55267 0
M  V30 1344 H 126.89 3.71956 -0.21899 0
M  V30 1345 H 127.003 4.35723 -1.99203 0
M  V30 1346 H 125.367 2.35496 -0.970242 0
M  V30 1347 H 126.15 2.20105 -2.63455 0
M  V30 1348 N 128.595 0.856903 1.32268 0
M  V30 1349 C 129.82 0.474569 2.01897 0
M  V30 1350 C 130.245 -0.921766 1.63967 0
M  V30 1351 O 129.603 -1.60589 0.84148 0
M  V30 1352 C 129.651 0.623799 3.55164 0
M  V30 1353 O 128.755 -0.342459 4.10976 0
M  V30 1354 H 128.096 0.190422 0.63611 0
M  V30 1355 H 130.626 1.15672 1.68764 0
M  V30 1356 H 130.636 0.512169 4.04773 0
M  V30 1357 H 129.311 1.64202 3.82113 0
M  V30 1358 H 127.888 -0.18688 3.72431 0
M  V30 1359 N 130.073 -1.45103 0.615059 0
M  V30 1360 C 131.003 -2.33339 -0.0865619 0
M  V30 1361 C 131.984 -1.4727 -0.851209 0
M  V30 1362 O 133.169 -1.76026 -0.820281 0
M  V30 1363 C 130.299 -3.30095 -1.07956 0
M  V30 1364 C 129.253 -4.25858 -0.427628 0
M  V30 1365 C 128.579 -5.12361 -1.5294 0
M  V30 1366 C 129.879 -5.18165 0.655944 0
M  V30 1367 H 131.573 -2.92254 0.650224 0
M  V30 1368 H 129.119 -1.40532 0.314138 0
M  V30 1369 H 131.072 -3.90698 -1.57901 0
M  V30 1370 H 129.796 -2.69355 -1.84703 0
M  V30 1371 H 128.455 -3.66564 0.0510292 0
M  V30 1372 H 128.103 -4.47984 -2.28734 0
M  V30 1373 H 127.803 -5.77238 -1.09865 0
M  V30 1374 H 129.327 -5.75833 -2.03098 0
M  V30 1375 H 130.741 -5.72796 0.240257 0
M  V30 1376 H 129.138 -5.91559 1.00888 0
M  V30 1377 H 130.208 -4.60144 1.52957 0
M  V30 1378 N 131.551 -0.354651 -1.53558 0
M  V30 1379 C 132.461 0.50515 -2.29097 0
M  V30 1380 C 133.477 1.10223 -1.34636 0
M  V30 1381 O 134.653 1.11553 -1.67684 0
M  V30 1382 C 131.718 1.63479 -3.05738 0
M  V30 1383 C 130.779 1.06636 -4.15845 0
M  V30 1384 C 130.012 2.14217 -4.88822 0
M  V30 1385 O 130.235 3.35137 -4.61562 0
M  V30 1386 O 129.169 1.77887 -5.75013 0
M  V30 1387 H 132.995 -0.109237 -3.03503 0
M  V30 1388 H 130.58 -0.119357 -1.48922 0
M  V30 1389 H 132.462 2.2918 -3.5363 0
M  V30 1390 H 131.137 2.23478 -2.34178 0
M  V30 1391 H 130.044 0.373565 -3.7223 0
M  V30 1392 H 131.377 0.511081 -4.89539 0
M  V30 1393 N 133.029 1.57378 -0.0835403 0
M  V30 1394 C 134.306 1.85363 0.624507 0
M  V30 1395 C 134.686 0.978239 1.87066 0
M  V30 1396 O 134.034 0.0475908 2.2845 0
M  V30 1397 C 134.244 3.35795 0.950947 0
M  V30 1398 C 135.592 4.03581 1.31939 0
M  V30 1399 O 136.616 3.40609 1.04232 0
M  V30 1400 O 135.475 5.14672 1.83779 0
M  V30 1401 H 132.569 0.766162 0.311329 0
M  V30 1402 H 135.115 1.69307 -0.115362 0
M  V30 1403 H 133.887 3.91244 0.0663899 0
M  V30 1404 H 133.51 3.57154 1.74719 0
M  V30 1405 N 134.507 -0.190092 1.56449 0
M  V30 1406 C 135.437 -1.23816 1.97969 0
M  V30 1407 C 136.418 -1.47201 0.852395 0
M  V30 1408 O 137.603 -1.58854 1.1171 0
M  V30 1409 C 134.733 -2.5813 2.3235 0
M  V30 1410 C 133.687 -2.49348 3.47864 0
M  V30 1411 C 133.013 -3.8798 3.67934 0
M  V30 1412 C 134.313 -2.01424 4.81898 0
M  V30 1413 H 136.007 -0.89311 2.85769 0
M  V30 1414 H 133.553 -0.428177 1.37487 0
M  V30 1415 H 135.506 -3.31637 2.59991 0
M  V30 1416 H 134.23 -2.94386 1.41438 0
M  V30 1417 H 132.889 -1.78297 3.20321 0
M  V30 1418 H 132.537 -4.21597 2.74344 0
M  V30 1419 H 132.237 -3.82978 4.45648 0
M  V30 1420 H 133.761 -4.63101 3.97957 0
M  V30 1421 H 135.175 -2.64693 5.08538 0
M  V30 1422 H 133.572 -2.07413 5.63116 0
M  V30 1423 H 134.642 -0.967677 4.75146 0
M  V30 1424 N 135.985 -1.50799 -0.457987 0
M  V30 1425 C 137.232 -1.62442 -1.20908 0
M  V30 1426 C 137.56 -0.330865 -1.91665 0
M  V30 1427 O 136.815 0.68401 -1.83357 0
M  V30 1428 C 137.114 -2.76358 -2.2663 0
M  V30 1429 C 136.78 -4.16378 -1.73033 0
M  V30 1430 C 135.442 -4.54473 -1.58138 0
M  V30 1431 C 137.794 -5.03836 -1.33413 0
M  V30 1432 C 135.122 -5.77754 -1.02065 0
M  V30 1433 C 137.474 -6.27676 -0.78778 0
M  V30 1434 C 136.138 -6.64562 -0.625561 0
M  V30 1435 H 135.408 -0.594417 -0.442435 0
M  V30 1436 H 138.055 -1.84772 -0.503136 0
M  V30 1437 H 136.36 -2.48167 -3.03184 0
M  V30 1438 H 138.057 -2.82568 -2.84528 0
M  V30 1439 H 134.647 -3.86331 -1.85598 0
M  V30 1440 H 138.831 -4.75026 -1.4375 0
M  V30 1441 H 134.087 -6.04997 -0.882547 0
M  V30 1442 H 138.261 -6.94797 -0.472177 0
M  V30 1443 H 135.888 -7.59965 -0.188926 0
M  V30 1444 N 137.463 0.71206 -1.40597 0
M  V30 1445 C 138.411 1.84746 -1.41321 0
M  V30 1446 C 139.405 1.66842 -0.293268 0
M  V30 1447 O 140.611 1.73904 -0.464481 0
M  V30 1448 H 136.986 0.608522 -0.441819 0
M  V30 1449 H 138.957 1.81252 -2.37045 0
M  V30 1450 C 137.706 3.22638 -1.29614 0
M  V30 1451 H 137.029 3.37023 -2.15071 0
M  V30 1452 H 138.469 4.02209 -1.3418 0
M  V30 1453 C 136.928 3.36899 -0.00673121 0
M  V30 1454 O 137.458 3.90186 0.954859 0
M  V30 1455 N 135.664 2.9053 0.0639327 0
M  V30 1456 H 135.211 2.47353 -0.719311 0
M  V30 1457 H 135.169 3.0045 0.926118 0
M  V30 1458 N 138.941 1.26152 0.944643 0
M  V30 1459 C 140.188 1.11492 1.69044 0
M  V30 1460 C 140.516 -0.342366 1.91463 0
M  V30 1461 O 139.771 -1.26812 1.49054 0
M  V30 1462 C 140.07 1.82541 3.07268 0
M  V30 1463 C 139.736 3.32445 3.04616 0
M  V30 1464 C 138.398 3.73337 3.036 0
M  V30 1465 C 140.75 4.28171 2.97185 0
M  V30 1466 C 138.078 5.08348 2.92915 0
M  V30 1467 C 140.43 5.63218 2.88041 0
M  V30 1468 C 139.094 6.03426 2.85366 0
M  V30 1469 H 138.364 0.407977 0.618576 0
M  V30 1470 H 141.011 1.56551 1.10291 0
M  V30 1471 H 139.316 1.29941 3.69625 0
M  V30 1472 H 141.013 1.68642 3.63815 0
M  V30 1473 H 137.603 2.99915 3.06185 0
M  V30 1474 H 141.787 3.97563 2.97081 0
M  V30 1475 H 137.043 5.38667 2.89219 0
M  V30 1476 H 141.217 6.37078 2.81254 0
M  V30 1477 H 138.844 7.07999 2.76842 0
M  V30 1478 N 140.419 -1.14872 1.07899 0
M  V30 1479 C 141.659 -1.8745 0.814965 0
M  V30 1480 C 142.023 -1.80758 -0.64733 0
M  V30 1481 O 143.224 -2.48422 -1.02664 0
M  V30 1482 C 141.495 -3.32286 1.31607 0
M  V30 1483 S 143.054 -4.22537 1.18357 0
M  V30 1484 H 139.872 -0.646833 0.295174 0
M  V30 1485 H 142.474 -1.38555 1.37923 0
M  V30 1486 H 141.178 -3.34703 2.37491 0
M  V30 1487 H 140.709 -3.86238 0.747261 0
M  V30 1488 H 142.724 -4.96044 0.124586 0
M  V30 1489 N 141.898 -0.863906 -1.31812 0
M  V30 1490 C 143.123 -0.48527 -2.01643 0
M  V30 1491 C 143.548 0.913058 -1.64453 0
M  V30 1492 O 142.906 1.6014 -0.849985 0
M  V30 1493 C 142.954 -0.642625 -3.54828 0
M  V30 1494 O 142.058 0.320659 -4.11151 0
M  V30 1495 H 141.399 -0.193793 -0.635091 0
M  V30 1496 H 143.929 -1.16565 -1.68148 0
M  V30 1497 H 143.939 -0.533628 -4.04495 0
M  V30 1498 H 142.614 -1.66227 -3.81237 0
M  V30 1499 H 141.191 0.167126 -3.72525 0
M  V30 1500 N 143.376 1.44774 -0.622745 0
M  V30 1501 C 144.792 1.56986 -0.287652 0
M  V30 1502 C 144.992 1.61167 1.20944 0
M  V30 1503 O 144.048 1.55015 1.99315 0
M  V30 1504 C 145.361 2.84551 -0.972188 0
M  V30 1505 C 146.909 2.9825 -0.949536 0
M  V30 1506 C 147.384 4.28605 -1.61437 0
M  V30 1507 N 148.875 4.35399 -1.58057 0
M  V30 1508 C 149.61 5.34964 -2.064 0
M  V30 1509 N 149.106 6.40981 -2.62897 0
M  V30 1510 N 150.899 5.26419 -1.97078 0
M  V30 1511 H 143.05 1.40304 -1.59463 0
M  V30 1512 H 145.313 0.671794 -0.668878 0
M  V30 1513 H 145.019 2.87417 -2.02693 0
M  V30 1514 H 144.893 3.73807 -0.504771 0
M  V30 1515 H 147.28 2.94941 0.0967067 0
M  V30 1516 H 147.361 2.10364 -1.45536 0
M  V30 1517 H 147.005 4.32672 -2.66002 0
M  V30 1518 H 146.935 5.15334 -1.08344 0
M  V30 1519 H 149.426 3.59397 -1.16801 0
M  V30 1520 H 149.739 7.13225 -2.97539 0
M  V30 1521 H 148.084 6.4169 -2.66943 0
M  V30 1522 H 151.275 4.42504 -1.52669 0
M  V30 1523 H 151.448 6.03861 -2.35066 0
M  V30 1524 N 144.854 0.36279 1.53368 0
M  V30 1525 C 145.801 -0.485008 2.25646 0
M  V30 1526 C 146.771 -1.07982 1.2621 0
M  V30 1527 O 147.956 -1.11284 1.54986 0
M  V30 1528 C 145.096 -1.62023 3.04701 0
M  V30 1529 C 144.209 -1.05086 4.19024 0
M  V30 1530 C 143.344 -2.15496 4.85525 0
M  V30 1531 C 142.383 -1.5601 5.91884 0
M  V30 1532 N 141.52 -2.60241 6.52088 0
M  V30 1533 H 146.36 0.137864 2.97681 0
M  V30 1534 H 143.897 0.0798061 1.46883 0
M  V30 1535 H 145.855 -2.28887 3.48807 0
M  V30 1536 H 144.485 -2.2138 2.34927 0
M  V30 1537 H 143.537 -0.27259 3.79422 0
M  V30 1538 H 144.849 -0.575926 4.95464 0
M  V30 1539 H 144.003 -2.90186 5.32801 0
M  V30 1540 H 142.742 -2.66341 4.08551 0
M  V30 1541 H 141.747 -0.798338 5.43973 0
M  V30 1542 H 142.972 -1.05994 6.70777 0
M  V30 1543 H 140.918 -3.10304 5.77968 0
M  V30 1544 H 140.835 -2.17426 7.24059 0
M  V30 1545 H 142.103 -3.34641 7.04014 0
M  V30 1546 N 146.332 -1.57332 0.0918853 0
M  V30 1547 C 147.579 -1.94236 -0.572577 0
M  V30 1548 C 147.907 -0.973398 -1.6839 0
M  V30 1549 O 147.162 0.00756912 -1.95699 0
M  V30 1550 C 147.461 -3.37689 -1.17051 0
M  V30 1551 C 147.127 -4.50527 -0.183304 0
M  V30 1552 C 145.789 -4.81119 0.0882276 0
M  V30 1553 C 148.141 -5.18883 0.49095 0
M  V30 1554 C 145.469 -5.77395 1.04076 0
M  V30 1555 C 147.821 -6.1618 1.43193 0
M  V30 1556 C 146.485 -6.45179 1.71173 0
M  V30 1557 H 145.755 -0.710762 -0.209521 0
M  V30 1558 H 148.402 -1.9077 0.167036 0
M  V30 1559 H 146.707 -3.37718 -1.9863 0
M  V30 1560 H 148.404 -3.63543 -1.69227 0
M  V30 1561 H 144.994 -4.26681 -0.405124 0
M  V30 1562 H 149.178 -4.95427 0.294312 0
M  V30 1563 H 144.434 -5.98179 1.26457 0
M  V30 1564 H 148.608 -6.68243 1.96023 0
M  V30 1565 H 146.235 -7.1959 2.4514 0
M  V30 1566 N 147.81 0.181792 -1.56548 0
M  V30 1567 C 149.035 0.920019 -1.85877 0
M  V30 1568 C 149.46 1.75494 -0.677021 0
M  V30 1569 O 148.818 1.77399 0.374056 0
M  V30 1570 C 148.866 1.78112 -3.13542 0
M  V30 1571 O 147.97 2.88152 -2.95029 0
M  V30 1572 H 147.311 0.258334 -0.611686 0
M  V30 1573 H 149.841 0.183092 -2.03779 0
M  V30 1574 H 149.851 2.18314 -3.44678 0
M  V30 1575 H 148.526 1.16777 -3.99169 0
M  V30 1576 H 147.103 2.51609 -2.75222 0
M  V30 1577 N 149.288 1.51039 0.449983 0
M  V30 1578 C 150.218 1.74379 1.55288 0
M  V30 1579 C 151.199 0.593236 1.5942 0
M  V30 1580 O 152.384 0.834625 1.7535 0
M  V30 1581 C 149.514 1.85728 2.93466 0
M  V30 1582 C 148.468 3.01078 3.04197 0
M  V30 1583 C 147.794 2.97595 4.44231 0
M  V30 1584 C 149.094 4.41254 2.7945 0
M  V30 1585 H 150.788 2.66725 1.36008 0
M  V30 1586 H 148.334 1.2835 0.652864 0
M  V30 1587 H 150.287 2.0064 3.70569 0
M  V30 1588 H 149.011 0.900207 3.13949 0
M  V30 1589 H 147.67 2.85851 2.29531 0
M  V30 1590 H 147.318 1.99691 4.61663 0
M  V30 1591 H 147.018 3.75046 4.52343 0
M  V30 1592 H 148.542 3.14583 5.23326 0
M  V30 1593 H 149.956 4.56897 3.46292 0
M  V30 1594 H 148.353 5.20315 2.98985 0
M  V30 1595 H 149.423 4.52164 1.75144 0
M  V30 1596 N 150.766 -0.704594 1.40972 0
M  V30 1597 C 151.713 -1.81862 1.42109 0
M  V30 1598 C 152.683 -1.63781 0.276593 0
M  V30 1599 O 153.868 -1.84759 0.4763 0
M  V30 1600 C 151.008 -3.19669 1.30022 0
M  V30 1601 C 150.121 -3.49246 2.54267 0
M  V30 1602 C 149.256 -4.76618 2.3454 0
M  V30 1603 C 148.295 -4.99133 3.54306 0
M  V30 1604 N 147.432 -6.17726 3.33706 0
M  V30 1605 H 152.272 -1.80226 2.37324 0
M  V30 1606 H 149.809 -0.880238 1.17857 0
M  V30 1607 H 151.767 -3.99263 1.21018 0
M  V30 1608 H 150.397 -3.20506 0.384192 0
M  V30 1609 H 149.449 -2.64125 2.73756 0
M  V30 1610 H 150.761 -3.61788 3.43381 0
M  V30 1611 H 149.915 -5.64249 2.22952 0
M  V30 1612 H 148.654 -4.66305 1.42867 0
M  V30 1613 H 147.659 -4.09953 3.66359 0
M  V30 1614 H 148.884 -5.11311 4.4692 0
M  V30 1615 H 146.83 -6.08642 2.44725 0
M  V30 1616 H 146.747 -6.30995 4.16391 0
M  V30 1617 H 148.015 -7.08115 3.25873 0
M  V30 1618 N 152.244 -1.26651 -0.937939 0
M  V30 1619 C 153.472 -1.15173 -1.7188 0
M  V30 1620 C 153.887 0.292668 -1.86518 0
M  V30 1621 O 153.244 1.20014 -1.37488 0
M  V30 1622 C 153.295 -1.81925 -3.12387 0
M  V30 1623 O 153.016 -3.2072 -2.98446 0
M  V30 1624 C 154.517 -1.76442 -4.06673 0
M  V30 1625 H 151.737 -0.400911 -0.538063 0
M  V30 1626 H 154.281 -1.67332 -1.1756 0
M  V30 1627 H 152.436 -1.33696 -3.63599 0
M  V30 1628 H 152.85 -3.53802 -3.872 0
M  V30 1629 H 154.324 -2.27781 -5.02812 0
M  V30 1630 H 154.801 -0.731608 -4.33064 0
M  V30 1631 H 155.407 -2.24238 -3.61382 0
M  V30 1632 N 153.722 1.14298 -1.08507 0
M  V30 1633 C 154.968 1.85633 -0.816581 0
M  V30 1634 C 155.301 1.82784 0.656021 0
M  V30 1635 O 154.576 1.25926 1.48233 0
M  V30 1636 C 154.859 3.34223 -1.34041 0
M  V30 1637 C 154.712 3.45639 -2.87843 0
M  V30 1638 C 156.031 4.29356 -0.9665 0
M  V30 1639 H 153.15 0.67402 -0.298104 0
M  V30 1640 H 155.792 1.34214 -1.34487 0
M  V30 1641 H 153.942 3.78144 -0.89104 0
M  V30 1642 H 155.614 3.10498 -3.41158 0
M  V30 1643 H 153.857 2.86817 -3.25451 0
M  V30 1644 H 154.528 4.50089 -3.19569 0
M  V30 1645 H 157.004 3.93457 -1.35391 0
M  V30 1646 H 155.88 5.3178 -1.3602 0
M  V30 1647 H 156.141 4.41919 0.126362 0
M  V30 1648 N 155.201 0.870884 1.31352 0
M  V30 1649 C 156.131 0.343096 2.30966 0
M  V30 1650 C 157.112 -0.566507 1.60389 0
M  V30 1651 O 158.297 -0.483336 1.88089 0
M  V30 1652 C 155.427 -0.455487 3.443 0
M  V30 1653 C 154.381 0.361103 4.26474 0
M  V30 1654 C 153.707 -0.563221 5.31725 0
M  V30 1655 C 155.007 1.59566 4.97329 0
M  V30 1656 H 156.701 1.17548 2.75359 0
M  V30 1657 H 154.247 0.566686 1.32381 0
M  V30 1658 H 156.2 -0.83525 4.13039 0
M  V30 1659 H 154.924 -1.32139 2.98675 0
M  V30 1660 H 153.583 0.722825 3.59403 0
M  V30 1661 H 153.231 -1.42643 4.82351 0
M  V30 1662 H 152.931 -0.0207409 5.87596 0
M  V30 1663 H 154.455 -0.939808 6.03324 0
M  V30 1664 H 155.869 1.28728 5.58661 0
M  V30 1665 H 154.266 2.07728 5.63 0
M  V30 1666 H 155.336 2.34798 4.24262 0
M  V30 1667 N 156.679 -1.44442 0.630414 0
M  V30 1668 C 157.609 -2.33418 -0.0618083 0
M  V30 1669 C 158.59 -1.48165 -0.835541 0
M  V30 1670 O 159.775 -1.76886 -0.801564 0
M  V30 1671 C 156.905 -3.31222 -1.04449 0
M  V30 1672 C 155.859 -4.26288 -0.382436 0
M  V30 1673 C 155.185 -5.13954 -1.47497 0
M  V30 1674 C 156.485 -5.1744 0.710865 0
M  V30 1675 H 158.179 -2.91548 0.681184 0
M  V30 1676 H 155.725 -1.40191 0.329026 0
M  V30 1677 H 157.678 -3.92351 -1.53748 0
M  V30 1678 H 156.402 -2.71299 -1.81836 0
M  V30 1679 H 155.061 -3.6649 0.0899054 0
M  V30 1680 H 154.709 -4.50385 -2.2397 0
M  V30 1681 H 154.409 -5.7837 -1.03737 0
M  V30 1682 H 155.933 -5.77955 -1.96979 0
M  V30 1683 H 157.347 -5.72509 0.300996 0
M  V30 1684 H 155.744 -5.90455 1.07156 0
M  V30 1685 H 156.814 -4.58496 1.57829 0
M  V30 1686 N 158.157 -0.370918 -1.53173 0
M  V30 1687 C 159.087 0.464847 -2.28826 0
M  V30 1688 C 160.068 1.07936 -1.31468 0
M  V30 1689 O 161.253 1.0956 -1.60344 0
M  V30 1690 C 158.383 1.60196 -3.08147 0
M  V30 1691 C 157.337 1.11443 -4.13237 0
M  V30 1692 C 156.663 2.3422 -4.80672 0
M  V30 1693 C 157.963 0.195384 -5.21934 0
M  V30 1694 H 159.657 -0.166329 -2.98938 0
M  V30 1695 H 157.203 -0.0814359 -1.4377 0
M  V30 1696 H 159.156 2.19332 -3.59822 0
M  V30 1697 H 157.88 2.26045 -2.35735 0
M  V30 1698 H 156.539 0.545727 -3.62515 0
M  V30 1699 H 156.187 2.98537 -4.04827 0
M  V30 1700 H 155.887 2.02269 -5.51689 0
M  V30 1701 H 157.411 2.94032 -5.35143 0
M  V30 1702 H 158.825 0.694375 -5.69079 0
M  V30 1703 H 157.222 -0.0335027 -6.00091 0
M  V30 1704 H 158.292 -0.760961 -4.78892 0
M  V30 1705 N 159.635 1.57281 -0.100228 0
M  V30 1706 C 160.598 2.13158 0.842398 0
M  V30 1707 C 161.598 1.06202 1.20738 0
M  V30 1708 O 162.788 1.32066 1.13597 0
M  V30 1709 C 159.92 2.65639 2.13655 0
M  V30 1710 H 161.113 2.97766 0.357114 0
M  V30 1711 H 158.666 1.5559 0.148823 0
M  V30 1712 H 159.401 1.84566 2.66657 0
M  V30 1713 H 159.186 3.43844 1.88451 0
M  V30 1714 H 160.676 3.08846 2.81077 0
M  V30 1715 N 161.113 -0.173488 1.56642 0
M  V30 1716 C 162.39 -0.917617 1.7274 0
M  V30 1717 C 162.77 -2.00484 0.661027 0
M  V30 1718 O 162.118 -2.26184 -0.32453 0
M  V30 1719 C 162.328 -1.48433 3.15862 0
M  V30 1720 C 163.676 -1.95809 3.76754 0
M  V30 1721 O 164.7 -1.58231 3.19126 0
M  V30 1722 O 163.559 -2.65024 4.77938 0
M  V30 1723 H 160.653 -0.431772 0.705338 0
M  V30 1724 H 163.199 -0.161487 1.6893 0
M  V30 1725 H 161.971 -0.701715 3.84957 0
M  V30 1726 H 161.594 -2.30471 3.23989 0
M  V30 1727 N 162.591 -1.51276 -0.441967 0
M  V30 1728 C 163.523 -1.68444 -1.55433 0
M  V30 1729 C 164.536 -0.565187 -1.52674 0
M  V30 1730 O 165.725 -0.839356 -1.57534 0
M  V30 1731 C 162.825 -1.67966 -2.94348 0
M  V30 1732 C 161.998 -2.964 -3.21661 0
M  V30 1733 C 161.057 -2.88171 -4.40277 0
M  V30 1734 O 160.083 -3.62119 -4.39157 0
M  V30 1735 N 161.285 -2.03706 -5.43584 0
M  V30 1736 H 164.05 -2.644 -1.41112 0
M  V30 1737 H 161.611 -1.49104 -0.630838 0
M  V30 1738 H 163.603 -1.60035 -3.71713 0
M  V30 1739 H 162.173 -0.796225 -3.0229 0
M  V30 1740 H 161.393 -3.18234 -2.32638 0
M  V30 1741 H 162.681 -3.81427 -3.36736 0
M  V30 1742 H 162.079 -1.42995 -5.47329 0
M  V30 1743 H 160.636 -2.01658 -6.1982 0
M  V30 1744 N 164.069 0.697108 -1.41344 0
M  V30 1745 C 165.002 1.82134 -1.37486 0
M  V30 1746 C 165.98 1.60784 -0.242351 0
M  V30 1747 O 167.164 1.83553 -0.429012 0
M  V30 1748 C 164.291 3.18788 -1.14421 0
M  V30 1749 C 163.337 3.58932 -2.3037 0
M  V30 1750 S 164.17 3.63916 -3.92843 0
M  V30 1751 C 165.326 5.03298 -3.72078 0
M  V30 1752 H 165.559 1.85129 -2.32625 0
M  V30 1753 H 163.092 0.865671 -1.2785 0
M  V30 1754 H 165.05 3.97677 -1.018 0
M  V30 1755 H 163.711 3.13404 -0.20905 0
M  V30 1756 H 162.904 4.58202 -2.09922 0
M  V30 1757 H 162.506 2.87347 -2.39391 0
M  V30 1758 H 164.798 5.90753 -3.31688 0
M  V30 1759 H 165.741 5.28788 -4.70945 0
M  V30 1760 H 166.149 4.74764 -3.05384 0
M  V30 1761 N 165.547 1.27147 0.931209 0
M  V30 1762 C 166.796 1.12664 1.67302 0
M  V30 1763 C 167.109 -0.327718 1.92835 0
M  V30 1764 O 168.315 -0.593392 2.64936 0
M  V30 1765 C 166.771 1.9683 3.01307 0
M  V30 1766 C 166.379 3.46901 2.83485 0
M  V30 1767 C 168.123 1.90985 3.79111 0
M  V30 1768 C 166.03 4.23279 4.13024 0
M  V30 1769 H 164.96 0.41803 0.627509 0
M  V30 1770 H 167.611 1.51539 1.03481 0
M  V30 1771 H 165.993 1.50797 3.66164 0
M  V30 1772 H 167.167 4.00773 2.27415 0
M  V30 1773 H 165.482 3.54088 2.19113 0
M  V30 1774 H 168.079 2.45328 4.75098 0
M  V30 1775 H 168.422 0.882718 4.06834 0
M  V30 1776 H 168.955 2.34895 3.21044 0
M  V30 1777 H 165.694 5.26503 3.90481 0
M  V30 1778 H 165.214 3.74186 4.6877 0
M  V30 1779 H 166.893 4.32265 4.81411 0
M  V30 1780 N 167.025 -1.13721 1.09112 0
M  V30 1781 C 168.25 -1.89314 0.847053 0
M  V30 1782 C 168.675 -1.78416 -0.595774 0
M  V30 1783 O 168.033 -1.12942 -1.41823 0
M  V30 1784 C 168.081 -3.3701 1.28284 0
M  V30 1785 O 167.185 -4.10054 0.439267 0
M  V30 1786 H 166.526 -0.588745 0.307044 0
M  V30 1787 H 169.056 -1.43902 1.45442 0
M  V30 1788 H 169.066 -3.87834 1.26683 0
M  V30 1789 H 167.741 -3.4426 2.33363 0
M  V30 1790 H 166.318 -3.69266 0.519312 0
M  V30 1791 N 168.503 -0.877838 -1.30888 0
M  V30 1792 C 169.919 -0.570844 -1.49042 0
M  V30 1793 C 170.119 0.893159 -1.80624 0
M  V30 1794 O 169.175 1.67485 -1.88958 0
M  V30 1795 C 170.488 -1.47784 -2.61878 0
M  V30 1796 C 172.036 -1.48071 -2.75761 0
M  V30 1797 C 172.511 -2.37347 -3.91702 0
M  V30 1798 N 174.002 -2.35271 -3.99001 0
M  V30 1799 C 174.737 -3.01063 -4.88004 0
M  V30 1800 N 174.233 -3.76055 -5.81854 0
M  V30 1801 N 176.026 -2.90332 -4.81315 0
M  V30 1802 H 168.177 -1.82502 -1.0866 0
M  V30 1803 H 170.44 -0.780797 -0.537644 0
M  V30 1804 H 170.146 -2.51993 -2.45341 0
M  V30 1805 H 170.02 -1.18215 -3.58197 0
M  V30 1806 H 172.407 -0.446166 -2.91708 0
M  V30 1807 H 172.488 -1.81668 -1.80085 0
M  V30 1808 H 172.132 -3.40883 -3.76512 0
M  V30 1809 H 172.062 -2.01071 -4.86701 0
M  V30 1810 H 174.553 -1.80768 -3.3186 0
M  V30 1811 H 174.866 -4.23366 -6.46514 0
M  V30 1812 H 173.211 -3.80163 -5.81808 0
M  V30 1813 H 176.402 -2.31278 -4.06974 0
M  V30 1814 H 176.575 -3.41885 -5.50471 0
M  V30 1815 N 169.982 1.44106 -0.638065 0
M  V30 1816 C 171.231 2.01194 -0.142744 0
M  V30 1817 C 171.544 1.50835 1.24532 0
M  V30 1818 O 172.75 2.00096 1.83504 0
M  V30 1819 C 171.206 3.59319 -0.20442 0
M  V30 1820 C 170.814 4.18674 -1.59423 0
M  V30 1821 C 172.558 4.23854 0.234079 0
M  V30 1822 C 170.465 5.69045 -1.61065 0
M  V30 1823 H 169.395 0.752367 -0.0495998 0
M  V30 1824 H 172.046 1.65246 -0.797881 0
M  V30 1825 H 170.428 3.92598 0.517946 0
M  V30 1826 H 171.602 3.96921 -2.34074 0
M  V30 1827 H 169.917 3.66453 -1.97741 0
M  V30 1828 H 172.514 5.34155 0.241443 0
M  V30 1829 H 172.857 3.96688 1.2627 0
M  V30 1830 H 173.39 3.95403 -0.436025 0
M  V30 1831 H 170.129 6.00956 -2.61787 0
M  V30 1832 H 169.649 5.929 -0.90718 0
M  V30 1833 H 171.328 6.32809 -1.34766 0
M  V30 1834 N 171.46 0.379036 1.52974 0
M  V30 1835 C 172.37 -0.468639 2.29872 0
M  V30 1836 C 173.386 -1.08067 1.36373 0
M  V30 1837 O 174.562 -1.08871 1.69438 0
M  V30 1838 C 171.627 -1.58594 3.083 0
M  V30 1839 C 170.688 -1.00007 4.17489 0
M  V30 1840 C 169.921 -2.06413 4.92168 0
M  V30 1841 O 170.144 -3.27751 4.66835 0
M  V30 1842 O 169.078 -1.68717 5.7777 0
M  V30 1843 H 172.904 0.157508 3.03291 0
M  V30 1844 H 170.489 0.143035 1.48714 0
M  V30 1845 H 172.371 -2.23525 3.57232 0
M  V30 1846 H 171.046 -2.19724 2.37703 0
M  V30 1847 H 169.953 -0.314299 3.72777 0
M  V30 1848 H 171.286 -0.433135 4.90291 0
M  V30 1849 N 172.938 -1.57226 0.108567 0
M  V30 1850 C 174.168 -1.9889 -0.559142 0
M  V30 1851 C 174.576 -0.986889 -1.61422 0
M  V30 1852 O 173.919 0.0298705 -1.83676 0
M  V30 1853 C 173.981 -3.36952 -1.25315 0
M  V30 1854 C 173.645 -4.55679 -0.347248 0
M  V30 1855 C 174.642 -5.18281 0.409996 0
M  V30 1856 C 172.327 -5.0162 -0.261367 0
M  V30 1857 C 174.321 -6.25203 1.24096 0
M  V30 1858 C 172.008 -6.08405 0.573238 0
M  V30 1859 C 173.006 -6.70063 1.32304 0
M  V30 1860 O 172.694 -7.74788 2.14381 0
M  V30 1861 H 172.426 -0.658343 -0.153492 0
M  V30 1862 H 174.98 -2.04532 0.188584 0
M  V30 1863 H 173.21 -3.28032 -2.04773 0
M  V30 1864 H 174.899 -3.62974 -1.81673 0
M  V30 1865 H 175.665 -4.8371 0.353457 0
M  V30 1866 H 171.544 -4.53381 -0.834656 0
M  V30 1867 H 175.088 -6.73259 1.82669 0
M  V30 1868 H 170.985 -6.42406 0.631208 0
M  V30 1869 H 171.753 -7.91837 2.07209 0
M  V30 1870 N 174.416 0.165178 -1.56732 0
M  V30 1871 C 175.665 0.879143 -1.81532 0
M  V30 1872 C 175.978 1.83144 -0.686842 0
M  V30 1873 O 177.184 2.58823 -0.819944 0
M  V30 1874 C 175.64 1.61388 -3.21686 0
M  V30 1875 C 175.248 0.704904 -4.4242 0
M  V30 1876 C 176.992 2.3157 -3.55774 0
M  V30 1877 C 174.899 1.44022 -5.73595 0
M  V30 1878 H 173.829 0.332033 -0.676957 0
M  V30 1879 H 176.48 0.132008 -1.83025 0
M  V30 1880 H 174.862 2.40599 -3.14529 0
M  V30 1881 H 176.036 -0.0506815 -4.60772 0
M  V30 1882 H 174.351 0.112419 -4.16248 0
M  V30 1883 H 176.948 2.8719 -4.51028 0
M  V30 1884 H 177.291 3.07201 -2.8095 0
M  V30 1885 H 177.824 1.59297 -3.64513 0
M  V30 1886 H 174.563 0.72612 -6.51466 0
M  V30 1887 H 174.083 2.16898 -5.5921 0
M  V30 1888 H 175.762 1.98606 -6.15764 0
M  V30 1889 N 175.894 1.51508 0.433938 0
M  V30 1890 C 176.844 1.69451 1.52546 0
M  V30 1891 C 177.828 0.548474 1.51263 0
M  V30 1892 O 179.02 0.804529 1.57659 0
M  V30 1893 C 176.149 1.82604 2.90707 0
M  V30 1894 C 175.235 3.03002 2.96733 0
M  V30 1895 N 175.626 4.26121 2.72496 0
M  V30 1896 C 173.924 3.02327 3.27894 0
M  V30 1897 C 174.625 5.07407 2.84452 0
M  V30 1898 N 173.601 4.42126 3.16269 0
M  V30 1899 H 177.403 2.62305 1.32564 0
M  V30 1900 H 174.917 1.49202 0.641297 0
M  V30 1901 H 176.914 1.93569 3.69238 0
M  V30 1902 H 175.574 0.909339 3.11707 0
M  V30 1903 H 176.585 4.55009 2.4736 0
M  V30 1904 H 173.262 2.20301 3.54646 0
M  V30 1905 H 174.652 6.15422 2.69639 0
M  V30 1906 N 177.372 -0.689602 1.41712 0
M  V30 1907 C 178.597 -1.48329 1.44959 0
M  V30 1908 C 179.022 -1.8801 0.0581283 0
M  V30 1909 O 178.38 -1.55026 -0.940035 0
M  V30 1910 C 178.428 -2.71835 2.36935 0
M  V30 1911 O 177.532 -3.69549 1.8305 0
M  V30 1912 H 176.873 -0.446199 0.491734 0
M  V30 1913 H 179.403 -0.847127 1.86239 0
M  V30 1914 H 179.413 -3.20076 2.53013 0
M  V30 1915 H 178.088 -2.42291 3.38035 0
M  V30 1916 H 176.665 -3.2851 1.76452 0
M  V30 1917 N 178.85 -1.27639 -0.924453 0
M  V30 1918 C 179.797 -1.10644 -2.0255 0
M  V30 1919 C 180.767 -0.00658438 -1.66099 0
M  V30 1920 O 181.952 -0.16952 -1.90045 0
M  V30 1921 C 179.092 -0.76309 -3.36557 0
M  V30 1922 C 178.205 -1.94091 -3.85944 0
M  V30 1923 C 177.34 -1.53914 -5.08413 0
M  V30 1924 C 176.379 -2.68425 -5.50104 0
M  V30 1925 N 175.516 -2.28815 -6.63768 0
M  V30 1926 H 180.356 -2.04858 -2.16419 0
M  V30 1927 H 177.893 -1.01974 -1.06017 0
M  V30 1928 H 179.851 -0.544822 -4.13627 0
M  V30 1929 H 178.481 0.142102 -3.22487 0
M  V30 1930 H 177.533 -2.27162 -3.05125 0
M  V30 1931 H 178.845 -2.7998 -4.12811 0
M  V30 1932 H 177.999 -1.28231 -5.92994 0
M  V30 1933 H 176.738 -0.651391 -4.8333 0
M  V30 1934 H 175.743 -2.94819 -4.64071 0
M  V30 1935 H 176.968 -3.57826 -5.7718 0
M  V30 1936 H 174.914 -1.42495 -6.40337 0
M  V30 1937 H 174.831 -3.08242 -6.90306 0
M  V30 1938 H 176.099 -2.06387 -7.51681 0
M  V30 1939 N 180.328 1.1314 -1.09713 0
M  V30 1940 C 181.276 2.20717 -0.733934 0
M  V30 1941 C 182.27 1.6729 0.266506 0
M  V30 1942 O 183.476 1.79547 0.127656 0
M  V30 1943 H 179.851 0.719292 -0.21937 0
M  V30 1944 H 181.822 2.48611 -1.6503 0
M  V30 1945 C 180.571 3.47265 -0.173849 0
M  V30 1946 H 179.894 3.88716 -0.934873 0
M  V30 1947 H 181.334 4.23979 0.0423126 0
M  V30 1948 C 179.793 3.18724 1.09164 0
M  V30 1949 O 180.323 3.37762 2.17439 0
M  V30 1950 N 178.529 2.72583 1.00732 0
M  V30 1951 H 178.076 2.57291 0.126121 0
M  V30 1952 H 178.034 2.53862 1.85476 0
M  V30 1953 N 181.806 0.884767 1.30421 0
M  V30 1954 C 183.053 0.503105 1.96151 0
M  V30 1955 C 183.381 -0.947676 1.69851 0
M  V30 1956 O 182.636 -1.68467 0.995861 0
M  V30 1957 C 182.935 0.724318 3.49983 0
M  V30 1958 C 182.601 2.15015 3.96332 0
M  V30 1959 C 181.263 2.54005 4.08699 0
M  V30 1960 C 183.615 3.07936 4.20505 0
M  V30 1961 C 180.943 3.85128 4.42599 0
M  V30 1962 C 183.295 4.3859 4.55874 0
M  V30 1963 C 181.959 4.77474 4.66449 0
M  V30 1964 H 181.229 0.184099 0.717766 0
M  V30 1965 H 183.876 1.12058 1.55291 0
M  V30 1966 H 182.181 0.0238086 3.91793 0
M  V30 1967 H 183.878 0.408617 3.98913 0
M  V30 1968 H 180.468 1.8375 3.87213 0
M  V30 1969 H 184.652 2.79033 4.10431 0
M  V30 1970 H 179.908 4.14996 4.48986 0
M  V30 1971 H 184.082 5.10629 4.7353 0
M  V30 1972 H 181.709 5.79115 4.92473 0
M  V30 1973 N 183.284 -1.43765 0.645699 0
M  V30 1974 C 184.533 -2.01116 0.153412 0
M  V30 1975 C 184.846 -1.51493 -1.23731 0
M  V30 1976 O 186.052 -2.01067 -1.8244 0
M  V30 1977 C 184.508 -3.59206 0.223473 0
M  V30 1978 C 184.116 -4.17823 1.61642 0
M  V30 1979 C 185.86 -4.23972 -0.211597 0
M  V30 1980 C 183.767 -5.68183 1.64081 0
M  V30 1981 H 182.697 -0.752093 0.0535891 0
M  V30 1982 H 185.348 -1.6482 0.806633 0
M  V30 1983 H 183.73 -3.92867 -0.497118 0
M  V30 1984 H 184.904 -3.95674 2.36176 0
M  V30 1985 H 183.219 -3.65399 1.99681 0
M  V30 1986 H 185.816 -5.34275 -0.213112 0
M  V30 1987 H 186.159 -3.97352 -1.24165 0
M  V30 1988 H 186.692 -3.95166 0.456988 0
M  V30 1989 H 183.431 -5.99559 2.64971 0
M  V30 1990 H 182.951 -5.9241 0.938611 0
M  V30 1991 H 184.63 -6.32085 1.3812 0
M  V30 1992 N 184.763 -0.387143 -1.52771 0
M  V30 1993 C 185.713 0.465942 -2.23188 0
M  V30 1994 C 186.697 1.03138 -1.23496 0
M  V30 1995 O 187.889 0.957845 -1.48843 0
M  V30 1996 C 185.018 1.59384 -3.04059 0
M  V30 1997 C 184.104 1.04024 -4.11144 0
M  V30 1998 N 184.495 0.211416 -5.05358 0
M  V30 1999 C 182.793 1.31295 -4.26237 0
M  V30 2000 C 183.494 -0.0941698 -5.81624 0
M  V30 2001 N 182.47 0.509207 -5.4121 0
M  V30 2002 H 186.272 -0.173856 -2.93385 0
M  V30 2003 H 183.786 -0.19633 -1.61209 0
M  V30 2004 H 185.783 2.21738 -3.53041 0
M  V30 2005 H 184.443 2.23648 -2.35397 0
M  V30 2006 H 185.454 -0.151151 -5.17679 0
M  V30 2007 H 182.131 1.95679 -3.68803 0
M  V30 2008 H 183.521 -0.765572 -6.67524 0
M  V30 2009 N 186.241 1.57166 -0.116904 0
M  V30 2010 C 187.657 1.5779 0.239693 0
M  V30 2011 C 187.857 1.1295 1.66867 0
M  V30 2012 O 186.913 0.81592 2.38954 0
M  V30 2013 C 188.226 3.00699 0.00828202 0
M  V30 2014 C 189.774 3.12912 0.0743438 0
M  V30 2015 C 190.249 4.57817 -0.129348 0
M  V30 2016 N 191.74 4.63139 -0.075247 0
M  V30 2017 C 192.475 5.73023 -0.207788 0
M  V30 2018 N 191.971 6.91665 -0.396382 0
M  V30 2019 N 193.764 5.61906 -0.14751 0
M  V30 2020 H 185.915 1.84615 -1.05029 0
M  V30 2021 H 188.178 0.85311 -0.41341 0
M  V30 2022 H 187.884 3.37784 -0.979531 0
M  V30 2023 H 187.758 3.69848 0.741077 0
M  V30 2024 H 190.145 2.75686 1.05268 0
M  V30 2025 H 190.226 2.4631 -0.690297 0
M  V30 2026 H 189.87 4.95742 -1.10465 0
M  V30 2027 H 189.8 5.22507 0.655253 0
M  V30 2028 H 192.291 3.7784 0.0670898 0
M  V30 2029 H 192.604 7.71255 -0.488437 0
M  V30 2030 H 190.949 6.93654 -0.432329 0
M  V30 2031 H 194.14 4.681 -0.00115036 0
M  V30 2032 H 194.313 6.47501 -0.254247 0
M  V30 2033 N 187.719 -0.156864 1.56817 0
M  V30 2034 C 188.996 -0.899244 1.73704 0
M  V30 2035 C 189.376 -1.99771 0.682254 0
M  V30 2036 O 188.724 -2.26515 -0.300522 0
M  V30 2037 C 188.934 -1.45075 3.17418 0
M  V30 2038 C 190.282 -1.91802 3.7881 0
M  V30 2039 O 191.306 -1.54838 3.20786 0
M  V30 2040 O 190.165 -2.5994 4.80722 0
M  V30 2041 H 187.259 -0.424267 0.709878 0
M  V30 2042 H 189.805 -0.143561 1.69092 0
M  V30 2043 H 188.577 -0.660846 3.85679 0
M  V30 2044 H 188.2 -2.27021 3.26416 0
M  V30 2045 N 189.197 -1.51736 -0.425897 0
M  V30 2046 C 190.443 -1.65214 -1.1761 0
M  V30 2047 C 190.776 -0.372778 -1.90589 0
M  V30 2048 O 190.051 0.628139 -1.84078 0
M  V30 2049 C 190.334 -2.86312 -2.18398 0
M  V30 2050 C 190.187 -4.24254 -1.49426 0
M  V30 2051 C 191.506 -3.02925 -3.19256 0
M  V30 2052 H 188.625 -0.601263 -0.426206 0
M  V30 2053 H 191.267 -1.8425 -0.463882 0
M  V30 2054 H 189.417 -2.70213 -2.79137 0
M  V30 2055 H 191.089 -4.52046 -0.919362 0
M  V30 2056 H 189.332 -4.26426 -0.796432 0
M  V30 2057 H 190.003 -5.05001 -2.22885 0
M  V30 2058 H 192.479 -3.1781 -2.68581 0
M  V30 2059 H 191.355 -3.89199 -3.8706 0
M  V30 2060 H 191.616 -2.15497 -3.86023 0
M  V30 2061 N 190.675 0.682077 -1.42076 0
M  V30 2062 C 191.622 1.79578 -1.44984 0
M  V30 2063 C 192.592 1.6332 -0.302614 0
M  V30 2064 O 193.777 1.83978 -0.505633 0
M  V30 2065 C 190.917 3.1756 -1.35091 0
M  V30 2066 C 190.03 3.45156 -2.59791 0
M  V30 2067 C 189.165 4.72826 -2.42093 0
M  V30 2068 C 188.204 4.93433 -3.62202 0
M  V30 2069 N 187.341 6.12338 -3.43491 0
M  V30 2070 H 192.181 1.76427 -2.40161 0
M  V30 2071 H 189.718 0.861376 -1.19242 0
M  V30 2072 H 191.676 3.97287 -1.27354 0
M  V30 2073 H 190.306 3.19854 -0.435133 0
M  V30 2074 H 189.358 2.59736 -2.77923 0
M  V30 2075 H 190.67 3.5628 -3.49094 0
M  V30 2076 H 189.824 5.60631 -2.319 0
M  V30 2077 H 188.563 4.63973 -1.50268 0
M  V30 2078 H 187.568 4.04073 -3.72834 0
M  V30 2079 H 188.793 5.04136 -4.54998 0
M  V30 2080 H 186.739 6.04672 -2.54377 0
M  V30 2081 H 186.656 6.2429 -4.26377 0
M  V30 2082 H 187.924 7.02841 -3.37097 0
M  V30 2083 N 192.153 1.28127 0.917671 0
M  V30 2084 C 193.564 1.13622 1.48145 0
M  V30 2085 C 193.915 -0.275207 1.9426 0
M  V30 2086 O 193.04 -1.1691 1.82102 0
M  V30 2087 C 193.635 2.05648 2.69248 0
M  V30 2088 C 192.194 1.95219 3.21818 0
M  V30 2089 C 191.341 1.97618 1.94532 0
M  V30 2090 H 194.292 1.40874 0.730772 0
M  V30 2091 H 194.313 1.61818 3.44377 0
M  V30 2092 H 193.825 3.08365 2.35653 0
M  V30 2093 H 191.926 0.955244 3.60147 0
M  V30 2094 H 192.039 2.81976 3.87333 0
M  V30 2095 H 190.403 1.41973 2.11461 0
M  V30 2096 H 191.186 3.02007 1.63238 0
M  V30 2097 N 193.631 -1.12557 1.10312 0
M  V30 2098 C 194.908 -1.80363 0.756878 0
M  V30 2099 C 195.288 -1.97067 -0.756824 0
M  V30 2100 O 194.636 -1.54601 -1.68259 0
M  V30 2101 C 194.846 -3.14812 1.50647 0
M  V30 2102 C 196.194 -3.90029 1.67817 0
M  V30 2103 O 197.218 -3.24464 1.46974 0
M  V30 2104 O 196.077 -5.07652 2.02365 0
M  V30 2105 H 193.171 -0.780667 0.272926 0
M  V30 2106 H 195.717 -1.19404 1.20586 0
M  V30 2107 H 194.489 -2.97936 2.53672 0
M  V30 2108 H 194.112 -3.83478 1.05026 0
M  V30 2109 N 195.109 -0.891671 -1.2995 0
M  V30 2110 C 196.057 -0.353066 -2.29905 0
M  V30 2111 C 197.051 0.543509 -1.60444 0
M  V30 2112 O 198.257 0.4272 -1.74857 0
M  V30 2113 H 194.632 -0.095531 -0.745907 0
M  V30 2114 H 196.603 -1.20961 -2.72784 0
M  V30 2115 C 195.352 0.411475 -3.45257 0
M  V30 2116 H 194.675 -0.269182 -3.98893 0
M  V30 2117 H 196.115 0.753328 -4.17254 0
M  V30 2118 C 194.574 1.6111 -2.9588 0
M  V30 2119 O 195.104 2.71045 -2.96475 0
M  V30 2120 N 193.31 1.45054 -2.51809 0
M  V30 2121 H 192.857 0.556175 -2.51524 0
M  V30 2122 H 192.815 2.25453 -2.1913 0
M  V30 2123 N 196.587 1.43421 -0.653314 0
M  V30 2124 C 197.834 2.01812 -0.166745 0
M  V30 2125 C 198.162 1.51535 1.21931 0
M  V30 2126 O 197.417 0.698975 1.82792 0
M  V30 2127 C 197.716 3.57176 -0.126623 0
M  V30 2128 C 197.382 4.26798 -1.45444 0
M  V30 2129 C 196.044 4.45534 -1.81805 0
M  V30 2130 C 198.396 4.66225 -2.32989 0
M  V30 2131 C 195.724 5.00961 -3.05377 0
M  V30 2132 C 198.076 5.23021 -3.55853 0
M  V30 2133 C 196.74 5.39973 -3.9241 0
M  V30 2134 H 196.01 0.738484 -0.0610162 0
M  V30 2135 H 198.657 1.71896 -0.84404 0
M  V30 2136 H 196.962 3.86634 0.634123 0
M  V30 2137 H 198.659 4.00112 0.266723 0
M  V30 2138 H 195.249 4.12561 -1.16153 0
M  V30 2139 H 199.433 4.51443 -2.06187 0
M  V30 2140 H 194.689 5.12271 -3.3375 0
M  V30 2141 H 198.863 5.52518 -4.23907 0
M  V30 2142 H 196.49 5.82687 -4.88242 0
M  V30 2143 N 198.065 0.39524 1.52563 0
M  V30 2144 C 198.995 -0.428384 2.29537 0
M  V30 2145 C 199.976 -1.05831 1.33169 0
M  V30 2146 O 201.161 -1.06995 1.62067 0
M  V30 2147 C 198.291 -1.55274 3.10656 0
M  V30 2148 C 197.245 -1.04855 4.14957 0
M  V30 2149 C 196.571 -2.26543 4.84337 0
M  V30 2150 C 197.871 -0.112324 5.22179 0
M  V30 2151 H 199.565 0.213867 2.98635 0
M  V30 2152 H 197.111 0.104298 1.43622 0
M  V30 2153 H 199.064 -2.1358 3.63265 0
M  V30 2154 H 197.788 -2.22266 2.39302 0
M  V30 2155 H 196.447 -0.487985 3.63338 0
M  V30 2156 H 196.095 -2.92059 4.09525 0
M  V30 2157 H 195.795 -1.93466 5.54837 0
M  V30 2158 H 197.319 -2.85481 5.39753 0
M  V30 2159 H 198.733 -0.603752 5.70112 0
M  V30 2160 H 197.13 0.128968 5.99961 0
M  V30 2161 H 198.2 0.837052 4.77621 0
M  V30 2162 N 199.544 -1.57102 0.125237 0
M  V30 2163 C 200.477 -2.11371 -0.860094 0
M  V30 2164 C 201.455 -1.03168 -1.25679 0
M  V30 2165 O 202.639 -1.30862 -1.35674 0
M  V30 2166 C 199.766 -2.61555 -2.1519 0
M  V30 2167 C 198.812 -3.81701 -1.9028 0
M  V30 2168 S 199.645 -5.23797 -1.11343 0
M  V30 2169 C 200.801 -5.77353 -2.41689 0
M  V30 2170 H 201.034 -2.94617 -0.39852 0
M  V30 2171 H 198.567 -1.54145 -0.0886555 0
M  V30 2172 H 200.525 -2.91122 -2.89411 0
M  V30 2173 H 199.186 -1.78479 -2.58465 0
M  V30 2174 H 198.379 -4.14985 -2.86014 0
M  V30 2175 H 197.981 -3.52783 -1.24178 0
M  V30 2176 H 200.273 -5.87458 -3.37489 0
M  V30 2177 H 201.216 -6.75323 -2.12942 0
M  V30 2178 H 201.624 -5.05457 -2.51342 0
M  V30 2179 N 201.022 0.148545 -1.56898 0
M  V30 2180 C 202.27 0.859717 -1.82902 0
M  V30 2181 C 202.591 1.81775 -0.70588 0
M  V30 2182 O 201.861 1.93994 0.272586 0
M  V30 2183 H 200.441 0.320469 -0.674766 0
M  V30 2184 H 203.103 0.142918 -1.94375 0
M  V30 2185 H 202.199 1.4229 -2.77777 0
M  V30 2186 N 202.5 1.5196 0.417844 0
M  V30 2187 C 203.43 1.77634 1.51554 0
M  V30 2188 C 204.411 0.626918 1.58126 0
M  V30 2189 O 205.596 0.871632 1.7354 0
M  V30 2190 C 202.726 1.91911 2.8946 0
M  V30 2191 C 201.68 3.07463 2.97743 0
M  V30 2192 C 201.006 3.06951 4.37819 0
M  V30 2193 C 202.306 4.47082 2.70027 0
M  V30 2194 H 204 2.6955 1.3032 0
M  V30 2195 H 201.546 1.29706 0.625492 0
M  V30 2196 H 203.499 2.08455 3.6623 0
M  V30 2197 H 202.223 0.966598 3.11969 0
M  V30 2198 H 200.882 2.90656 2.23416 0
M  V30 2199 H 200.53 2.09438 4.57323 0
M  V30 2200 H 200.23 3.84556 4.44286 0
M  V30 2201 H 201.754 3.25613 5.16535 0
M  V30 2202 H 203.168 4.6414 3.36522 0
M  V30 2203 H 201.565 5.2654 2.87881 0
M  V30 2204 H 202.635 4.55777 1.65514 0
M  V30 2205 N 203.978 -0.674533 1.42435 0
M  V30 2206 C 205.226 -1.43175 1.42637 0
M  V30 2207 C 205.547 -1.94951 0.0438992 0
M  V30 2208 O 204.817 -1.7308 -0.917607 0
M  V30 2209 H 203.397 -0.531307 0.525092 0
M  V30 2210 H 206.059 -0.797006 1.77859 0
M  V30 2211 H 205.155 -2.28463 2.12629 0
M  V30 2212 N 205.456 -1.28612 -0.910864 0
M  V30 2213 C 206.403 -1.12786 -2.01365 0
M  V30 2214 C 207.373 -0.024201 -1.66082 0
M  V30 2215 O 208.558 -0.189667 -1.89855 0
M  V30 2216 C 205.698 -0.798743 -3.35729 0
M  V30 2217 C 204.811 -1.98173 -3.83864 0
M  V30 2218 C 203.946 -1.59298 -5.06752 0
M  V30 2219 C 202.985 -2.74245 -5.47226 0
M  V30 2220 N 202.122 -2.35842 -6.61304 0
M  V30 2221 H 206.962 -2.07142 -2.14234 0
M  V30 2222 H 204.499 -1.03093 -1.0493 0
M  V30 2223 H 206.457 -0.588662 -4.13026 0
M  V30 2224 H 205.087 0.10789 -3.2262 0
M  V30 2225 H 204.139 -2.30386 -3.02699 0
M  V30 2226 H 205.451 -2.84343 -4.09818 0
M  V30 2227 H 204.605 -1.34513 -5.916 0
M  V30 2228 H 203.344 -0.702618 -4.82612 0
M  V30 2229 H 202.349 -2.99725 -4.60918 0
M  V30 2230 H 203.574 -3.63928 -5.73353 0
M  V30 2231 H 201.52 -1.49279 -6.38789 0
M  V30 2232 H 201.437 -3.15546 -6.86998 0
M  V30 2233 H 202.705 -2.14348 -7.4945 0
M  V30 2234 N 206.934 1.1197 -1.10907 0
M  V30 2235 C 207.881 2.17846 -0.762345 0
M  V30 2236 C 208.851 1.63995 0.263599 0
M  V30 2237 O 210.036 1.90273 0.141773 0
M  V30 2238 C 207.176 3.44487 -0.205651 0
M  V30 2239 C 206.289 4.12369 -1.28748 0
M  V30 2240 C 205.424 5.26674 -0.691919 0
M  V30 2241 C 204.463 5.86431 -1.75399 0
M  V30 2242 N 203.6 6.92142 -1.17833 0
M  V30 2243 H 208.44 2.46851 -1.6694 0
M  V30 2244 H 205.977 1.21188 -0.833776 0
M  V30 2245 H 207.935 4.16981 0.135037 0
M  V30 2246 H 206.565 3.15884 0.664613 0
M  V30 2247 H 205.617 3.38003 -1.74522 0
M  V30 2248 H 206.929 4.52844 -2.09125 0
M  V30 2249 H 206.083 6.05953 -0.300963 0
M  V30 2250 H 204.822 4.8749 0.143232 0
M  V30 2251 H 203.827 5.05835 -2.15432 0
M  V30 2252 H 205.052 6.27685 -2.59208 0
M  V30 2253 H 202.998 6.54985 -0.364725 0
M  V30 2254 H 202.915 7.31242 -1.91887 0
M  V30 2255 H 204.183 7.75237 -0.81408 0
M  V30 2256 N 208.412 0.89855 1.29475 0
M  V30 2257 C 209.66 0.522847 1.9522 0
M  V30 2258 C 209.981 -0.93371 1.71192 0
M  V30 2259 O 209.251 -1.65823 1.04305 0
M  V30 2260 H 207.831 0.190366 0.722336 0
M  V30 2261 H 210.493 1.14459 1.5775 0
M  V30 2262 H 209.589 0.704476 3.04045 0
M  V30 2263 N 209.89 -1.43072 0.660911 0
M  V30 2264 C 210.838 -2.32569 -0.0378199 0
M  V30 2265 C 211.832 -1.49046 -0.805092 0
M  V30 2266 O 213.038 -1.65206 -0.714624 0
M  V30 2267 H 209.413 -0.75136 -0.031019 0
M  V30 2268 H 211.384 -2.89216 0.734609 0
M  V30 2269 C 210.133 -3.33453 -0.985124 0
M  V30 2270 H 209.456 -3.97752 -0.404147 0
M  V30 2271 H 210.896 -3.98691 -1.44297 0
M  V30 2272 C 209.355 -2.64642 -2.08486 0
M  V30 2273 O 209.885 -2.46776 -3.16961 0
M  V30 2274 N 208.091 -2.23891 -1.8526 0
M  V30 2275 H 207.638 -2.38621 -0.970449 0
M  V30 2276 H 207.596 -1.78181 -2.59034 0
M  V30 2277 N 211.368 -0.403325 -1.52352 0
M  V30 2278 C 212.298 0.416205 -2.29761 0
M  V30 2279 C 213.279 1.05123 -1.33728 0
M  V30 2280 O 214.464 1.06134 -1.62632 0
M  V30 2281 C 211.594 1.53624 -3.11475 0
M  V30 2282 C 210.548 1.02653 -4.15507 0
M  V30 2283 C 209.874 2.23971 -4.85532 0
M  V30 2284 C 211.174 0.08463 -5.22231 0
M  V30 2285 H 212.868 -0.229701 -2.98518 0
M  V30 2286 H 210.414 -0.111913 -1.43564 0
M  V30 2287 H 212.367 2.1165 -3.64393 0
M  V30 2288 H 211.091 2.20994 -2.40477 0
M  V30 2289 H 209.75 0.46871 -3.63591 0
M  V30 2290 H 209.398 2.89883 -4.11068 0
M  V30 2291 H 209.098 1.90521 -5.55856 0
M  V30 2292 H 210.622 2.82614 -5.41259 0
M  V30 2293 H 212.036 0.573509 -5.70424 0
M  V30 2294 H 210.433 -0.160783 -5.99885 0
M  V30 2295 H 211.503 -0.86237 -4.7717 0
M  V30 2296 N 212.846 1.57033 -0.133567 0
M  V30 2297 C 214.092 1.95976 0.521649 0
M  V30 2298 C 214.425 1.01779 1.65393 0
M  V30 2299 O 213.7 0.0576581 1.94415 0
M  V30 2300 C 213.983 3.44738 1.04057 0
M  V30 2301 C 213.836 4.49711 -0.0892897 0
M  V30 2302 C 215.155 3.95682 1.92675 0
M  V30 2303 H 212.274 0.712579 0.188149 0
M  V30 2304 H 214.916 1.88813 -0.212076 0
M  V30 2305 H 213.066 3.50973 1.66583 0
M  V30 2306 H 214.738 4.55565 -0.725152 0
M  V30 2307 H 212.981 4.27261 -0.750378 0
M  V30 2308 H 213.652 5.51099 0.315284 0
M  V30 2309 H 216.128 3.91841 1.39998 0
M  V30 2310 H 215.004 5.00262 2.25897 0
M  V30 2311 H 215.265 3.37239 2.85872 0
M  V30 2312 N 214.325 -0.140222 1.56975 0
M  V30 2313 C 215.555 -0.865181 1.87612 0
M  V30 2314 C 215.963 -1.74942 0.72055 0
M  V30 2315 O 215.306 -1.80917 -0.318561 0
M  V30 2316 C 215.368 -1.76782 3.13031 0
M  V30 2317 C 215.032 -1.06005 4.44536 0
M  V30 2318 C 216.029 -0.410768 5.18275 0
M  V30 2319 C 213.714 -1.04754 4.91255 0
M  V30 2320 C 215.708 0.241572 6.36942 0
M  V30 2321 C 213.395 -0.391394 6.09845 0
M  V30 2322 C 214.393 0.252029 6.82535 0
M  V30 2323 O 214.081 0.897757 7.98871 0
M  V30 2324 H 213.813 -0.255188 0.625983 0
M  V30 2325 H 216.367 -0.135653 2.04952 0
M  V30 2326 H 214.597 -2.53846 2.91718 0
M  V30 2327 H 216.286 -2.36533 3.29859 0
M  V30 2328 H 217.052 -0.412195 4.83245 0
M  V30 2329 H 212.931 -1.53777 4.34596 0
M  V30 2330 H 216.475 0.744375 6.93617 0
M  V30 2331 H 212.372 -0.387656 6.44335 0
M  V30 2332 H 213.14 0.800102 8.1458 0
M  V30 2333 N 215.803 -1.52179 -0.40978 0
M  V30 2334 C 217.052 -1.65434 -1.15388 0
M  V30 2335 C 217.365 -0.390056 -1.91671 0
M  V30 2336 O 218.571 -0.402399 -2.68501 0
M  V30 2337 C 217.027 -2.92279 -2.10003 0
M  V30 2338 C 216.635 -4.25813 -1.39239 0
M  V30 2339 C 218.379 -3.14897 -2.84675 0
M  V30 2340 C 216.286 -5.43782 -2.32498 0
M  V30 2341 H 215.216 -0.616267 -0.434432 0
M  V30 2342 H 217.867 -1.78666 -0.418401 0
M  V30 2343 H 216.249 -2.72744 -2.871 0
M  V30 2344 H 217.423 -4.55828 -0.675099 0
M  V30 2345 H 215.738 -4.09292 -0.766097 0
M  V30 2346 H 218.335 -4.0021 -3.54593 0
M  V30 2347 H 218.678 -2.29103 -3.47588 0
M  V30 2348 H 219.211 -3.34901 -2.14677 0
M  V30 2349 H 215.95 -6.3192 -1.74233 0
M  V30 2350 H 215.47 -5.18106 -3.02201 0
M  V30 2351 H 217.149 -5.76834 -2.93038 0
M  V30 2352 N 217.281 0.66697 -1.42791 0
M  V30 2353 C 218.53 1.42278 -1.42968 0
M  V30 2354 C 218.843 1.9553 -0.0524489 0
M  V30 2355 O 220.049 2.71414 0.068363 0
M  V30 2356 C 218.505 2.57418 -2.51524 0
M  V30 2357 C 218.113 2.10832 -3.9529 0
M  V30 2358 C 219.857 3.34878 -2.60877 0
M  V30 2359 C 217.764 3.23101 -4.95338 0
M  V30 2360 H 216.694 0.534533 -0.531781 0
M  V30 2361 H 219.345 0.721302 -1.68729 0
M  V30 2362 H 217.727 3.29971 -2.18941 0
M  V30 2363 H 218.901 1.4538 -4.37266 0
M  V30 2364 H 217.216 1.46289 -3.89857 0
M  V30 2365 H 219.813 4.18505 -3.32802 0
M  V30 2366 H 220.156 3.81993 -1.6549 0
M  V30 2367 H 220.689 2.69398 -2.92693 0
M  V30 2368 H 217.428 2.80969 -5.9223 0
M  V30 2369 H 216.948 3.87309 -4.57987 0
M  V30 2370 H 218.627 3.88447 -5.17415 0
M  V30 2371 N 218.759 1.29093 0.90403 0
M  V30 2372 C 220.036 1.075 1.63411 0
M  V30 2373 C 220.416 -0.382346 2.07609 0
M  V30 2374 O 219.764 -1.37031 1.82851 0
M  V30 2375 C 219.974 2.05858 2.81822 0
M  V30 2376 C 221.322 2.36539 3.52611 0
M  V30 2377 O 222.346 2.04019 2.91984 0
M  V30 2378 O 221.205 2.92085 4.61897 0
M  V30 2379 H 218.299 0.411547 0.717327 0
M  V30 2380 H 220.845 1.40449 0.952479 0
M  V30 2381 H 219.617 3.04037 2.46327 0
M  V30 2382 H 219.24 1.73613 3.57693 0
M  V30 2383 N 220.237 -1.11381 1.11499 0
M  V30 2384 C 221.484 -1.83132 0.864231 0
M  V30 2385 C 221.812 -1.84683 -0.610114 0
M  V30 2386 O 221.067 -1.29589 -1.46646 0
M  V30 2387 C 221.366 -3.30026 1.37177 0
M  V30 2388 C 221.032 -3.48634 2.85946 0
M  V30 2389 C 219.694 -3.53421 3.26569 0
M  V30 2390 C 222.046 -3.54837 3.81759 0
M  V30 2391 C 219.374 -3.61967 4.61733 0
M  V30 2392 C 221.726 -3.64915 5.1674 0
M  V30 2393 C 220.39 -3.67962 5.5692 0
M  V30 2394 H 219.66 -0.670127 0.316245 0
M  V30 2395 H 222.307 -1.31354 1.3935 0
M  V30 2396 H 220.612 -3.84304 0.762753 0
M  V30 2397 H 222.309 -3.84034 1.15408 0
M  V30 2398 H 218.899 -3.45579 2.53521 0
M  V30 2399 H 223.083 -3.50399 3.51474 0
M  V30 2400 H 218.339 -3.62603 4.92269 0
M  V30 2401 H 222.513 -3.68658 5.90816 0
M  V30 2402 H 220.14 -3.74336 6.61647 0
M  V30 2403 N 221.715 -0.905404 -1.28997 0
M  V30 2404 C 222.963 -0.533192 -1.9494 0
M  V30 2405 C 223.284 0.924618 -1.71685 0
M  V30 2406 O 222.554 1.65268 -1.05183 0
M  V30 2407 H 221.134 -0.194194 -0.721317 0
M  V30 2408 H 223.796 -1.15294 -1.57141 0
M  V30 2409 H 222.892 -0.72059 -3.03667 0
M  V30 2410 N 223.193 1.4272 -0.668489 0
M  V30 2411 C 224.123 2.335 -0.000100175 0
M  V30 2412 C 225.104 1.50328 0.795964 0
M  V30 2413 O 226.289 1.78949 0.754385 0
M  V30 2414 C 223.419 3.33874 0.956302 0
M  V30 2415 C 222.373 4.27152 0.269278 0
M  V30 2416 C 221.699 5.17684 1.33818 0
M  V30 2417 C 222.999 5.15373 -0.847805 0
M  V30 2418 H 224.693 2.89639 -0.758244 0
M  V30 2419 H 222.239 1.39269 -0.366079 0
M  V30 2420 H 224.192 3.9629 1.43292 0
M  V30 2421 H 222.916 2.76025 1.74579 0
M  V30 2422 H 221.575 3.66123 -0.187042 0
M  V30 2423 H 221.223 4.56165 2.1195 0
M  V30 2424 H 220.923 5.80918 0.883659 0
M  V30 2425 H 222.447 5.82974 1.81586 0
M  V30 2426 H 223.861 5.7151 -0.452681 0
M  V30 2427 H 222.258 5.87407 -1.22773 0
M  V30 2428 H 223.328 4.5415 -1.69929 0
M  V30 2429 N 224.671 0.411399 1.52136 0
M  V30 2430 C 225.634 -0.401089 2.25663 0
M  V30 2431 C 226.634 -0.971732 1.28117 0
M  V30 2432 O 227.824 -0.850254 1.52041 0
M  V30 2433 C 224.956 -1.56483 3.02863 0
M  V30 2434 H 226.149 0.24295 2.98914 0
M  V30 2435 H 223.702 0.163968 1.55438 0
M  V30 2436 H 224.437 -2.24567 2.33967 0
M  V30 2437 H 224.222 -1.16211 3.74483 0
M  V30 2438 H 225.712 -2.13951 3.58629 0
M  V30 2439 N 226.149 -1.5696 0.141893 0
M  V30 2440 C 227.096 -2.16501 -0.799737 0
M  V30 2441 C 228.066 -1.09643 -1.24771 0
M  V30 2442 O 229.251 -1.3766 -1.32115 0
M  V30 2443 C 226.391 -2.78679 -2.03549 0
M  V30 2444 C 225.504 -3.99914 -1.6338 0
M  V30 2445 C 224.639 -4.50106 -2.82096 0
M  V30 2446 C 223.678 -5.63819 -2.38275 0
M  V30 2447 N 222.815 -6.08651 -3.49983 0
M  V30 2448 H 227.655 -2.96632 -0.285179 0
M  V30 2449 H 225.192 -1.46533 -0.129053 0
M  V30 2450 H 227.15 -3.1287 -2.75986 0
M  V30 2451 H 225.78 -2.012 -2.52425 0
M  V30 2452 H 224.832 -3.71735 -0.807279 0
M  V30 2453 H 226.144 -4.82311 -1.27192 0
M  V30 2454 H 225.298 -4.86325 -3.62729 0
M  V30 2455 H 224.037 -3.66706 -3.21525 0
M  V30 2456 H 223.042 -5.2718 -1.56081 0
M  V30 2457 H 224.267 -6.49 -1.99938 0
M  V30 2458 H 222.213 -5.28188 -3.89042 0
M  V30 2459 H 222.13 -6.85961 -3.17794 0
M  V30 2460 H 223.398 -6.49515 -4.30988 0
M  V30 2461 N 227.627 0.131896 -1.57047 0
M  V30 2462 C 228.574 1.16236 -1.99393 0
M  V30 2463 C 229.544 1.41863 -0.863943 0
M  V30 2464 O 230.729 1.53946 -1.12718 0
M  V30 2465 C 227.869 2.48708 -2.39245 0
M  V30 2466 C 226.982 2.30127 -3.65603 0
M  V30 2467 C 226.117 3.55738 -3.94492 0
M  V30 2468 C 225.156 3.32259 -5.14073 0
M  V30 2469 N 224.293 4.50039 -5.38896 0
M  V30 2470 H 229.133 0.794251 -2.87221 0
M  V30 2471 H 226.67 0.380707 -1.42088 0
M  V30 2472 H 228.628 3.25969 -2.60384 0
M  V30 2473 H 227.258 2.83437 -1.54478 0
M  V30 2474 H 226.31 1.43845 -3.52154 0
M  V30 2475 H 227.622 2.08746 -4.5302 0
M  V30 2476 H 226.776 4.41423 -4.1621 0
M  V30 2477 H 225.515 3.80138 -3.05526 0
M  V30 2478 H 224.52 2.44963 -4.92212 0
M  V30 2479 H 225.745 3.09242 -6.04604 0
M  V30 2480 H 223.691 4.74584 -4.52886 0
M  V30 2481 H 223.608 4.31716 -6.2061 0
M  V30 2482 H 224.876 5.36895 -5.65123 0
M  V30 2483 N 229.106 1.52395 0.401703 0
M  V30 2484 C 230.336 1.70429 1.1678 0
M  V30 2485 C 230.744 0.416702 1.84554 0
M  V30 2486 O 230.087 -0.617697 1.73003 0
M  V30 2487 C 230.149 2.78919 2.26814 0
M  V30 2488 C 229.813 4.20437 1.79113 0
M  V30 2489 C 230.81 5.04028 1.27482 0
M  V30 2490 C 228.495 4.66704 1.85722 0
M  V30 2491 C 230.489 6.31961 0.830913 0
M  V30 2492 C 228.176 5.94625 1.40942 0
M  V30 2493 C 229.174 6.77082 0.897128 0
M  V30 2494 O 228.862 8.02607 0.455822 0
M  V30 2495 H 228.594 0.574272 0.356634 0
M  V30 2496 H 231.148 1.99767 0.477724 0
M  V30 2497 H 229.378 2.44973 2.99207 0
M  V30 2498 H 231.067 2.8548 2.88541 0
M  V30 2499 H 231.833 4.69471 1.21744 0
M  V30 2500 H 227.712 4.0262 2.24539 0
M  V30 2501 H 231.256 6.96271 0.430368 0
M  V30 2502 H 227.153 6.28688 1.46362 0
M  V30 2503 H 227.921 8.16453 0.578457 0
M  V30 2504 N 230.584 -0.659388 1.43143 0
M  V30 2505 C 232 -0.974337 1.26407 0
M  V30 2506 C 232.2 -2.007 0.179341 0
M  V30 2507 O 231.256 -2.4856 -0.444295 0
M  V30 2508 C 232.569 -1.46447 2.62628 0
M  V30 2509 C 234.117 -1.58144 2.7011 0
M  V30 2510 C 234.592 -2.1055 4.06734 0
M  V30 2511 N 236.083 -2.17861 4.08767 0
M  V30 2512 C 236.818 -2.59519 5.1131 0
M  V30 2513 N 236.314 -3.00518 6.24228 0
M  V30 2514 N 238.107 -2.59404 4.98664 0
M  V30 2515 H 230.258 0.0240528 2.12386 0
M  V30 2516 H 232.521 -0.0518065 0.946583 0
M  V30 2517 H 232.227 -0.780123 3.42939 0
M  V30 2518 H 232.101 -2.44058 2.87603 0
M  V30 2519 H 234.488 -2.25682 1.90136 0
M  V30 2520 H 234.569 -0.589828 2.48907 0
M  V30 2521 H 234.213 -1.43616 4.87172 0
M  V30 2522 H 234.143 -3.10531 4.25298 0
M  V30 2523 H 236.634 -1.88975 3.27257 0
M  V30 2524 H 236.947 -3.31036 6.98309 0
M  V30 2525 H 235.292 -2.98337 6.2771 0
M  V30 2526 H 238.483 -2.26747 4.09516 0
M  V30 2527 H 238.656 -2.91548 5.78709 0
M  V30 2528 N 232.062 -1.29571 -0.897171 0
M  V30 2529 C 233.339 -1.08365 -1.62839 0
M  V30 2530 C 233.719 0.371331 -2.07808 0
M  V30 2531 O 233.067 1.3606 -1.83576 0
M  V30 2532 C 233.277 -2.0735 -2.80726 0
M  V30 2533 C 234.625 -2.38406 -3.51351 0
M  V30 2534 O 235.649 -2.05564 -2.90898 0
M  V30 2535 O 234.508 -2.9453 -4.60341 0
M  V30 2536 H 231.602 -0.415345 -0.715134 0
M  V30 2537 H 234.148 -1.40952 -0.945018 0
M  V30 2538 H 232.92 -3.05339 -2.44711 0
M  V30 2539 H 232.543 -1.75507 -3.56767 0
M  V30 2540 N 233.54 1.10788 -1.12088 0
M  V30 2541 C 234.503 2.15207 -0.788577 0
M  V30 2542 C 235.503 1.59609 0.195317 0
M  V30 2543 O 236.693 1.74174 -0.0300193 0
M  V30 2544 C 233.825 3.4047 -0.171174 0
M  V30 2545 H 235.018 2.46116 -1.71368 0
M  V30 2546 H 232.571 1.26089 -0.923652 0
M  V30 2547 H 233.306 3.15176 0.763832 0
M  V30 2548 H 233.091 3.82109 -0.879514 0
M  V30 2549 H 234.581 4.17576 0.04496 0
M  V30 2550 N 235.018 0.912232 1.28515 0
M  V30 2551 C 236.434 0.610159 1.47476 0
M  V30 2552 C 236.634 -0.844955 1.82928 0
M  V30 2553 O 235.69 -1.62416 1.93332 0
M  V30 2554 C 237.003 1.54675 2.57868 0
M  V30 2555 C 238.551 1.55331 2.71738 0
M  V30 2556 C 239.026 2.47649 3.85272 0
M  V30 2557 N 240.517 2.45767 3.92623 0
M  V30 2558 C 241.252 3.13896 4.79851 0
M  V30 2559 N 240.748 3.9135 5.71679 0
M  V30 2560 N 242.541 3.02991 4.73448 0
M  V30 2561 H 234.692 1.85318 1.03783 0
M  V30 2562 H 236.955 0.794777 0.516753 0
M  V30 2563 H 236.661 2.5841 2.38574 0
M  V30 2564 H 236.535 1.27671 3.54937 0
M  V30 2565 H 238.922 0.52335 2.90422 0
M  V30 2566 H 239.003 1.86378 1.75205 0
M  V30 2567 H 238.647 3.50745 3.67342 0
M  V30 2568 H 238.577 2.13904 4.81199 0
M  V30 2569 H 241.068 1.89503 3.26951 0
M  V30 2570 H 241.381 4.40359 6.35062 0
M  V30 2571 H 239.726 3.95455 5.71524 0
M  V30 2572 H 242.917 2.41987 4.007 0
M  V30 2573 H 243.09 3.5636 5.41213 0
M  V30 2574 N 236.496 -1.42363 0.676048 0
M  V30 2575 C 237.724 -2.05859 0.207268 0
M  V30 2576 C 238.139 -1.50796 -1.13605 0
M  V30 2577 O 237.496 -0.648265 -1.70598 0
M  V30 2578 C 237.547 -3.61248 0.134975 0
M  V30 2579 O 237.268 -4.1427 1.42521 0
M  V30 2580 C 238.769 -4.41859 -0.357151 0
M  V30 2581 H 235.989 -0.663431 0.100503 0
M  V30 2582 H 238.533 -1.82479 0.923136 0
M  V30 2583 H 236.688 -3.83735 -0.531588 0
M  V30 2584 H 237.102 -5.0815 1.29939 0
M  V30 2585 H 238.576 -5.50847 -0.356641 0
M  V30 2586 H 239.053 -4.16536 -1.39264 0
M  V30 2587 H 239.659 -4.24392 0.27772 0
M  V30 2588 N 237.974 -0.419461 -1.51915 0
M  V30 2589 C 238.924 0.418496 -2.24126 0
M  V30 2590 C 239.908 1.00495 -1.25656 0
M  V30 2591 O 241.1 0.926058 -1.50842 0
M  V30 2592 C 238.229 1.52899 -3.07371 0
M  V30 2593 C 237.315 0.952797 -4.13258 0
M  V30 2594 N 237.706 0.104175 -5.05693 0
M  V30 2595 C 236.004 1.22224 -4.28926 0
M  V30 2596 C 236.705 -0.21752 -5.81293 0
M  V30 2597 N 235.681 0.394293 -5.42168 0
M  V30 2598 H 239.483 -0.236048 -2.92951 0
M  V30 2599 H 236.997 -0.230481 -1.60756 0
M  V30 2600 H 238.994 2.14199 -3.57665 0
M  V30 2601 H 237.654 2.18605 -2.40088 0
M  V30 2602 H 238.665 -0.260924 -5.17242 0
M  V30 2603 H 235.342 1.87812 -3.72871 0
M  V30 2604 H 236.732 -0.906992 -6.6575 0
M  V30 2605 N 239.452 1.56882 -0.150215 0
M  V30 2606 C 240.384 2.14057 0.819286 0
M  V30 2607 C 241.397 1.09082 1.20851 0
M  V30 2608 O 242.586 1.36347 1.15203 0
M  V30 2609 C 239.686 2.65102 2.11127 0
M  V30 2610 C 238.859 3.94511 1.88891 0
M  V30 2611 C 237.918 4.30834 3.02107 0
M  V30 2612 O 236.944 4.99099 2.73659 0
M  V30 2613 N 238.146 3.90676 4.29363 0
M  V30 2614 H 240.911 2.97871 0.330618 0
M  V30 2615 H 238.472 1.61866 0.0332538 0
M  V30 2616 H 240.464 2.86411 2.85921 0
M  V30 2617 H 239.034 1.85994 2.51247 0
M  V30 2618 H 238.254 3.81795 0.981152 0
M  V30 2619 H 239.542 4.7907 1.71376 0
M  V30 2620 H 238.94 3.35677 4.55343 0
M  V30 2621 H 237.497 4.1703 5.00928 0
M  V30 2622 N 240.93 -0.123565 1.57115 0
M  V30 2623 C 241.88 -1.1575 1.96433 0
M  V30 2624 C 242.864 -1.37313 0.838686 0
M  V30 2625 O 244.056 -1.38482 1.10235 0
M  V30 2626 C 241.185 -2.48526 2.36833 0
M  V30 2627 C 240.271 -2.30457 3.5602 0
M  V30 2628 N 240.662 -1.8219 4.71848 0
M  V30 2629 C 238.96 -2.61129 3.61563 0
M  V30 2630 C 239.661 -1.77721 5.53886 0
M  V30 2631 N 238.637 -2.21899 4.96248 0
M  V30 2632 H 242.439 -0.776797 2.83449 0
M  V30 2633 H 239.953 -0.331364 1.58983 0
M  V30 2634 H 241.95 -3.233 2.63216 0
M  V30 2635 H 240.61 -2.87358 1.5118 0
M  V30 2636 H 241.621 -1.51805 4.95152 0
M  V30 2637 H 238.298 -3.03678 2.86507 0
M  V30 2638 H 239.688 -1.41697 6.56789 0
M  V30 2639 N 242.408 -1.52605 -0.393616 0
M  V30 2640 C 243.657 -1.66649 -1.13627 0
M  V30 2641 C 243.97 -0.410364 -1.91247 0
M  V30 2642 O 245.176 -0.430854 -2.68059 0
M  V30 2643 C 243.632 -2.9449 -2.06891 0
M  V30 2644 C 243.24 -4.27266 -1.34714 0
M  V30 2645 C 244.984 -3.17899 -2.81319 0
M  V30 2646 C 242.891 -5.46217 -2.26717 0
M  V30 2647 H 241.821 -0.62084 -0.427871 0
M  V30 2648 H 244.472 -1.791 -0.399428 0
M  V30 2649 H 242.854 -2.75774 -2.84191 0
M  V30 2650 H 244.028 -4.56518 -0.626714 0
M  V30 2651 H 242.343 -4.10081 -0.722643 0
M  V30 2652 H 244.94 -4.03949 -3.50328 0
M  V30 2653 H 245.283 -2.32777 -3.45139 0
M  V30 2654 H 245.816 -3.37159 -2.11113 0
M  V30 2655 H 242.555 -6.33733 -1.67521 0
M  V30 2656 H 242.075 -5.21283 -2.96689 0
M  V30 2657 H 243.754 -5.7991 -2.86903 0
M  V30 2658 N 243.887 0.651787 -1.4349 0
M  V30 2659 C 245.298 1.233 -1.40193 0
M  V30 2660 C 245.649 1.9591 -0.106727 0
M  V30 2661 O 244.774 2.01316 0.793773 0
M  V30 2662 C 245.369 2.24257 -2.53957 0
M  V30 2663 C 243.928 2.77852 -2.5392 0
M  V30 2664 C 243.075 1.52517 -2.3159 0
M  V30 2665 H 246.026 0.443717 -1.52371 0
M  V30 2666 H 246.047 3.0646 -2.25528 0
M  V30 2667 H 245.559 1.71382 -3.4821 0
M  V30 2668 H 243.66 3.34786 -1.63551 0
M  V30 2669 H 243.773 3.25299 -3.51735 0
M  V30 2670 H 242.137 1.79915 -1.80285 0
M  V30 2671 H 242.92 1.01574 -3.27929 0
M  V30 2672 N 245.365 1.30045 0.890287 0
M  V30 2673 C 246.595 1.21296 1.67245 0
M  V30 2674 C 247.003 -0.227471 1.87828 0
M  V30 2675 O 246.346 -1.16296 1.422 0
M  V30 2676 C 246.408 1.86519 3.07329 0
M  V30 2677 C 246.072 3.35837 3.09939 0
M  V30 2678 C 247.069 4.31915 2.89389 0
M  V30 2679 C 244.754 3.77196 3.31706 0
M  V30 2680 C 246.748 5.67325 2.90552 0
M  V30 2681 C 244.435 5.12725 3.32499 0
M  V30 2682 C 245.433 6.076 3.11947 0
M  V30 2683 O 245.121 7.40655 3.12547 0
M  V30 2684 H 244.853 0.4211 0.528821 0
M  V30 2685 H 247.407 1.72111 1.12103 0
M  V30 2686 H 245.637 1.30228 3.64112 0
M  V30 2687 H 247.326 1.71963 3.67673 0
M  V30 2688 H 248.092 4.01294 2.72375 0
M  V30 2689 H 243.971 3.03796 3.4674 0
M  V30 2690 H 247.515 6.41354 2.74429 0
M  V30 2691 H 243.412 5.42988 3.49047 0
M  V30 2692 H 244.18 7.49577 3.28749 0
M  V30 2693 N 246.843 -1.10192 1.12674 0
M  V30 2694 C 248.259 -1.34235 0.863317 0
M  V30 2695 C 248.459 -1.95062 -0.505277 0
M  V30 2696 O 247.515 -2.19192 -1.25345 0
M  V30 2697 C 248.828 -2.2616 1.98172 0
M  V30 2698 C 250.376 -2.3969 2.0129 0
M  V30 2699 C 250.851 -3.34946 3.1237 0
M  V30 2700 N 252.342 -3.42515 3.11829 0
M  V30 2701 C 253.077 -4.16199 3.94419 0
M  V30 2702 N 252.573 -4.92747 4.87004 0
M  V30 2703 N 254.366 -4.11843 3.82547 0
M  V30 2704 H 246.517 -0.690798 2.00853 0
M  V30 2705 H 248.78 -0.366774 0.874174 0
M  V30 2706 H 248.486 -1.8868 2.96804 0
M  V30 2707 H 248.36 -3.26488 1.88906 0
M  V30 2708 H 250.747 -2.76438 1.03276 0
M  V30 2709 H 250.828 -1.39169 2.14629 0
M  V30 2710 H 250.472 -2.98923 4.10619 0
M  V30 2711 H 250.402 -4.35353 2.96269 0
M  V30 2712 H 252.893 -2.87926 2.44759 0
M  V30 2713 H 253.206 -5.46376 5.46528 0
M  V30 2714 H 251.551 -4.91862 4.91016 0
M  V30 2715 H 254.742 -3.51136 3.0955 0
M  V30 2716 H 254.915 -4.69007 4.47142 0
M  V30 2717 N 248.321 -0.919034 -1.28029 0
M  V30 2718 C 249.231 -0.416756 -2.30869 0
M  V30 2719 C 250.247 0.498235 -1.66714 0
M  V30 2720 O 251.423 0.383144 -1.97722 0
M  V30 2721 C 248.488 0.330274 -3.45123 0
M  V30 2722 C 247.549 -0.618578 -4.2482 0
M  V30 2723 C 246.782 0.0928959 -5.33619 0
M  V30 2724 O 247.005 1.31375 -5.55065 0
M  V30 2725 O 245.939 -0.574499 -5.99152 0
M  V30 2726 H 249.765 -1.27043 -2.75851 0
M  V30 2727 H 247.35 -0.684052 -1.3282 0
M  V30 2728 H 249.232 0.751972 -4.14636 0
M  V30 2729 H 247.907 1.1597 -3.02213 0
M  V30 2730 H 246.814 -1.08978 -3.57875 0
M  V30 2731 H 248.147 -1.41497 -4.71423 0
M  V30 2732 N 249.799 1.42003 -0.683588 0
M  V30 2733 C 250.747 2.326 0.000815408 0
M  V30 2734 C 251.741 1.50308 0.781278 0
M  V30 2735 O 252.947 1.66322 0.688251 0
M  V30 2736 H 249.322 0.751758 0.0190616 0
M  V30 2737 H 251.293 2.88011 -0.780528 0
M  V30 2738 C 250.042 3.34978 0.93195 0
M  V30 2739 H 249.365 3.98345 0.340817 0
M  V30 2740 H 250.805 4.00936 1.37936 0
M  V30 2741 C 249.264 2.67925 2.04249 0
M  V30 2742 O 249.794 2.51788 3.12995 0
M  V30 2743 N 248 2.2681 1.81675 0
M  V30 2744 H 247.547 2.40135 0.932363 0
M  V30 2745 H 247.505 1.8228 2.56167 0
M  V30 2746 N 251.277 0.427512 1.51691 0
M  V30 2747 C 252.224 -0.388867 2.275 0
M  V30 2748 C 253.194 -1.02532 1.30677 0
M  V30 2749 O 254.379 -1.0461 1.59566 0
M  V30 2750 C 251.519 -1.48954 3.11298 0
M  V30 2751 C 250.632 -0.872194 4.23104 0
M  V30 2752 C 249.767 -1.94709 4.94228 0
M  V30 2753 C 248.806 -1.30766 5.97969 0
M  V30 2754 N 247.943 -2.32349 6.62539 0
M  V30 2755 H 252.783 0.263997 2.96828 0
M  V30 2756 H 250.32 0.142033 1.46413 0
M  V30 2757 H 252.278 -2.13887 3.58201 0
M  V30 2758 H 250.908 -2.11217 2.44105 0
M  V30 2759 H 249.96 -0.111419 3.80237 0
M  V30 2760 H 251.272 -0.365264 4.97461 0
M  V30 2761 H 250.426 -2.67327 5.44629 0
M  V30 2762 H 249.165 -2.48773 4.1948 0
M  V30 2763 H 248.17 -0.566902 5.4687 0
M  V30 2764 H 249.395 -0.774483 6.74669 0
M  V30 2765 H 247.341 -2.85511 5.90609 0
M  V30 2766 H 247.258 -1.8652 7.3263 0
M  V30 2767 H 248.526 -3.04481 7.17574 0
M  V30 2768 N 252.755 -1.56801 0.158532 0
M  V30 2769 C 253.703 -2.18638 -0.793729 0
M  V30 2770 C 254.697 -1.14669 -1.24689 0
M  V30 2771 O 255.903 -1.32895 -1.21403 0
M  V30 2772 H 252.278 -0.700226 -0.274204 0
M  V30 2773 H 254.249 -2.97367 -0.248095 0
M  V30 2774 C 252.998 -2.83139 -2.0181 0
M  V30 2775 H 252.321 -3.62863 -1.67841 0
M  V30 2776 H 253.761 -3.29894 -2.66357 0
M  V30 2777 C 252.22 -1.82244 -2.83353 0
M  V30 2778 O 252.75 -1.3 -3.80083 0
M  V30 2779 N 250.956 -1.51288 -2.48114 0
M  V30 2780 H 250.503 -1.93964 -1.69516 0
M  V30 2781 H 250.461 -0.840296 -3.02963 0
M  V30 2782 N 254.233 0.115231 -1.57178 0
M  V30 2783 C 255.163 1.1423 -2.03651 0
M  V30 2784 C 256.144 1.42967 -0.921655 0
M  V30 2785 O 257.329 1.53343 -1.19162 0
M  V30 2786 C 254.459 2.4675 -2.44401 0
M  V30 2787 C 253.413 2.32467 -3.59365 0
M  V30 2788 C 252.739 3.69984 -3.86026 0
M  V30 2789 C 254.039 1.78203 -4.90959 0
M  V30 2790 H 255.733 0.755749 -2.89705 0
M  V30 2791 H 253.279 0.362093 -1.39373 0
M  V30 2792 H 255.232 3.18854 -2.75517 0
M  V30 2793 H 253.956 2.87302 -1.55322 0
M  V30 2794 H 252.615 1.62811 -3.28463 0
M  V30 2795 H 252.263 4.08028 -2.94147 0
M  V30 2796 H 251.963 3.61279 -4.63412 0
M  V30 2797 H 253.487 4.43587 -4.19599 0
M  V30 2798 H 254.901 2.40128 -5.20587 0
M  V30 2799 H 253.298 1.8031 -5.72371 0
M  V30 2800 H 254.368 0.739876 -4.79222 0
M  V30 2801 N 255.711 1.52812 0.385517 0
M  V30 2802 C 256.939 1.71907 1.15133 0
M  V30 2803 C 257.354 0.439004 1.83625 0
M  V30 2804 O 256.711 -0.586765 1.7281 0
M  V30 2805 C 256.762 2.87099 2.19673 0
M  V30 2806 O 256.483 4.10151 1.53973 0
M  V30 2807 C 257.984 3.17902 3.08955 0
M  V30 2808 H 255.204 0.575479 0.345057 0
M  V30 2809 H 257.748 1.99476 0.45052 0
M  V30 2810 H 255.903 2.61982 2.85384 0
M  V30 2811 H 256.317 4.74514 2.23465 0
M  V30 2812 H 257.791 4.01959 3.7833 0
M  V30 2813 H 258.268 2.3243 3.72657 0
M  V30 2814 H 258.874 3.44871 2.48885 0
M  V30 2815 N 257.189 -0.644168 1.43834 0
M  V30 2816 C 258.437 -1.40117 1.45642 0
M  V30 2817 C 258.758 -1.94814 0.0852413 0
M  V30 2818 O 258.028 -1.74988 -0.880688 0
M  V30 2819 H 256.608 -0.52005 0.536243 0
M  V30 2820 H 259.27 -0.7591 1.7951 0
M  V30 2821 H 258.366 -2.23902 2.17427 0
M  V30 2822 N 258.668 -1.30515 -0.883378 0
M  V30 2823 C 259.896 -1.22359 -1.66841 0
M  V30 2824 C 260.311 0.213296 -1.87591 0
M  V30 2825 O 259.668 1.14075 -1.42454 0
M  V30 2826 C 259.719 -1.95011 -3.04389 0
M  V30 2827 O 259.44 -3.3309 -2.84575 0
M  V30 2828 C 260.941 -1.93532 -3.98824 0
M  V30 2829 H 258.161 -0.423371 -0.520575 0
M  V30 2830 H 260.705 -1.72167 -1.10357 0
M  V30 2831 H 258.86 -1.48997 -3.57601 0
M  V30 2832 H 259.274 -3.69907 -3.71846 0
M  V30 2833 H 260.748 -2.48902 -4.92699 0
M  V30 2834 H 261.225 -0.914627 -4.29571 0
M  V30 2835 H 261.831 -2.39364 -3.51547 0
M  V30 2836 N 260.146 1.09593 -1.13257 0
M  V30 2837 C 261.109 2.14359 -0.811358 0
M  V30 2838 C 262.109 1.59808 0.178377 0
M  V30 2839 O 263.299 1.74132 -0.0484911 0
M  V30 2840 C 260.431 3.40269 -0.207276 0
M  V30 2841 H 261.624 2.44284 -1.73969 0
M  V30 2842 H 259.177 1.25102 -0.936973 0
M  V30 2843 H 259.912 3.15969 0.73036 0
M  V30 2844 H 259.697 3.81154 -0.919992 0
M  V30 2845 H 261.187 4.176 0.000667944 0
M  V30 2846 N 261.624 0.925811 1.2754 0
M  V30 2847 C 263.04 0.625767 1.46821 0
M  V30 2848 C 263.24 -0.825506 1.83814 0
M  V30 2849 O 262.296 -1.60356 1.95044 0
M  V30 2850 C 263.609 1.57402 2.56213 0
M  V30 2851 C 265.157 1.58204 2.70075 0
M  V30 2852 C 265.632 2.51721 3.82623 0
M  V30 2853 N 267.123 2.49917 3.89994 0
M  V30 2854 C 267.858 3.18968 4.76494 0
M  V30 2855 N 267.354 3.97391 5.67496 0
M  V30 2856 N 269.147 3.07996 4.70208 0
M  V30 2857 H 261.298 1.86409 1.01811 0
M  V30 2858 H 263.561 0.800213 0.508295 0
M  V30 2859 H 263.267 2.60925 2.35819 0
M  V30 2860 H 263.141 1.31428 3.53563 0
M  V30 2861 H 265.528 0.554124 2.89851 0
M  V30 2862 H 265.609 1.88226 1.73218 0
M  V30 2863 H 265.253 3.54622 3.63601 0
M  V30 2864 H 265.183 2.18996 4.78903 0
M  V30 2865 H 267.674 1.9296 3.24923 0
M  V30 2866 H 267.987 4.4707 6.30356 0
M  V30 2867 H 266.332 4.01495 5.67298 0
M  V30 2868 H 269.523 2.46223 3.9811 0
M  V30 2869 H 269.696 3.6208 5.37403 0
M  V30 2870 N 263.102 -1.41638 0.69111 0
M  V30 2871 C 264.332 -2.0533 0.228758 0
M  V30 2872 C 264.74 -1.52089 -1.12541 0
M  V30 2873 O 264.083 -0.662145 -1.71351 0
M  V30 2874 C 264.145 -3.59349 0.10407 0
M  V30 2875 C 263.809 -4.35362 1.38956 0
M  V30 2876 C 264.806 -4.64942 2.32648 0
M  V30 2877 C 262.491 -4.74714 1.64169 0
M  V30 2878 C 264.485 -5.32828 3.49818 0
M  V30 2879 C 262.172 -5.42338 2.81625 0
M  V30 2880 C 263.17 -5.71322 3.74273 0
M  V30 2881 O 262.858 -6.37554 4.89673 0
M  V30 2882 H 262.59 -0.667796 0.104997 0
M  V30 2883 H 265.144 -1.82477 0.942938 0
M  V30 2884 H 263.374 -3.80924 -0.665839 0
M  V30 2885 H 265.063 -4.04633 -0.320519 0
M  V30 2886 H 265.829 -4.35025 2.14425 0
M  V30 2887 H 261.708 -4.51538 0.929202 0
M  V30 2888 H 265.252 -5.55368 4.22152 0
M  V30 2889 H 261.149 -5.71673 2.99768 0
M  V30 2890 H 261.917 -6.56049 4.8943 0
M  V30 2891 N 264.58 -0.43555 -1.51462 0
M  V30 2892 C 265.543 0.365137 -2.26273 0
M  V30 2893 C 266.543 0.951227 -1.29647 0
M  V30 2894 O 267.733 0.825958 -1.53374 0
M  V30 2895 C 264.865 1.51645 -3.05314 0
M  V30 2896 H 266.058 -0.290474 -2.9849 0
M  V30 2897 H 263.611 -0.188676 -1.55157 0
M  V30 2898 H 264.346 2.20816 -2.3751 0
M  V30 2899 H 264.131 1.10238 -3.76284 0
M  V30 2900 H 265.621 2.08218 -3.61987 0
M  V30 2901 N 266.058 1.56714 -0.166846 0
M  V30 2902 C 267.283 2.01557 0.488833 0
M  V30 2903 C 267.708 1.0463 1.56314 0
M  V30 2904 O 267.066 0.0251304 1.81283 0
M  V30 2905 C 267.114 3.4503 1.04818 0
M  V30 2906 O 266.218 3.51163 2.16236 0
M  V30 2907 H 265.559 0.653516 0.117526 0
M  V30 2908 H 268.089 2.02818 -0.269421 0
M  V30 2909 H 268.099 3.84243 1.37191 0
M  V30 2910 H 266.774 4.15077 0.261572 0
M  V30 2911 H 265.351 3.23807 1.84942 0
M  V30 2912 N 267.536 -0.106894 1.57237 0
M  V30 2913 C 268.785 -0.811163 1.8467 0
M  V30 2914 C 269.098 -1.80469 0.754342 0
M  V30 2915 O 270.304 -2.55601 0.915439 0
M  V30 2916 C 268.76 -1.49337 3.27454 0
M  V30 2917 C 268.368 -0.540217 4.44731 0
M  V30 2918 C 270.112 -2.18206 3.64124 0
M  V30 2919 C 268.019 -1.22634 5.78545 0
M  V30 2920 H 266.949 -0.306679 0.688813 0
M  V30 2921 H 269.6 -0.0639887 1.83388 0
M  V30 2922 H 267.982 -2.2876 3.23241 0
M  V30 2923 H 269.156 0.221659 4.60267 0
M  V30 2924 H 267.471 0.042146 4.16379 0
M  V30 2925 H 270.068 -2.70253 4.61376 0
M  V30 2926 H 270.411 -2.96562 2.92158 0
M  V30 2927 H 270.944 -1.45658 3.70174 0
M  V30 2928 H 267.683 -0.483832 6.53712 0
M  V30 2929 H 267.203 -1.95993 5.66874 0
M  V30 2930 H 268.882 -1.75615 6.2271 0
M  V30 2931 N 269.014 -1.53014 -0.377408 0
M  V30 2932 C 269.962 -1.7927 -1.48206 0
M  V30 2933 C 270.956 -0.661195 -1.55963 0
M  V30 2934 O 272.162 -0.843908 -1.58991 0
M  V30 2935 H 268.537 -0.567425 -0.493491 0
M  V30 2936 H 270.508 -2.71753 -1.2326 0
M  V30 2937 C 269.257 -1.98894 -2.85196 0
M  V30 2938 H 268.58 -2.85395 -2.79981 0
M  V30 2939 H 270.02 -2.21249 -3.61698 0
M  V30 2940 C 268.479 -0.764691 -3.28107 0
M  V30 2941 O 269.009 0.0523226 -4.01666 0
M  V30 2942 N 267.215 -0.591493 -2.84517 0
M  V30 2943 H 266.762 -1.25749 -2.24822 0
M  V30 2944 H 266.72 0.226253 -3.13585 0
M  V30 2945 N 270.492 0.636531 -1.44174 0
M  V30 2946 C 271.72 1.42353 -1.50144 0
M  V30 2947 C 272.135 1.88389 -0.124575 0
M  V30 2948 O 271.492 1.6051 0.868489 0
M  V30 2949 C 271.543 2.64744 -2.46156 0
M  V30 2950 O 271.264 2.20629 -3.7849 0
M  V30 2951 C 272.765 3.57929 -2.61537 0
M  V30 2952 H 269.985 0.436752 -0.5094 0
M  V30 2953 H 272.529 0.778933 -1.89084 0
M  V30 2954 H 270.684 3.25307 -2.10366 0
M  V30 2955 H 271.098 2.99938 -4.30276 0
M  V30 2956 H 272.572 4.40428 -3.32757 0
M  V30 2957 H 273.049 4.06382 -1.66585 0
M  V30 2958 H 273.655 3.03238 -2.98206 0
M  V30 2959 N 271.97 1.30982 0.876444 0
M  V30 2960 C 272.92 1.14688 1.97055 0
M  V30 2961 C 273.904 0.0596593 1.60789 0
M  V30 2962 O 275.096 0.283892 1.74708 0
M  V30 2963 C 272.225 0.849627 3.3262 0
M  V30 2964 C 271.311 1.97752 3.75173 0
M  V30 2965 N 271.702 3.22384 3.89746 0
M  V30 2966 C 270 1.8758 4.04635 0
M  V30 2967 C 270.701 3.96121 4.25985 0
M  V30 2968 N 269.677 3.24237 4.36315 0
M  V30 2969 H 273.479 2.09204 2.06424 0
M  V30 2970 H 270.993 1.22445 1.06682 0
M  V30 2971 H 272.99 0.713895 4.10742 0
M  V30 2972 H 271.65 -0.087376 3.24582 0
M  V30 2973 H 272.661 3.57575 3.74647 0
M  V30 2974 H 269.338 1.01303 4.05024 0
M  V30 2975 H 270.728 5.03491 4.44911 0
M  V30 2976 N 273.449 -1.08991 1.13837 0
M  V30 2977 C 274.379 -2.17771 0.842507 0
M  V30 2978 C 275.36 -1.6892 -0.20001 0
M  V30 2979 O 276.545 -1.94113 -0.0579731 0
M  V30 2980 C 273.675 -3.4589 0.312644 0
M  V30 2981 C 272.629 -4.08099 1.28992 0
M  V30 2982 C 271.955 -5.31098 0.619623 0
M  V30 2983 C 273.255 -4.50077 2.65005 0
M  V30 2984 H 274.949 -2.42777 1.75213 0
M  V30 2985 H 272.495 -1.16682 0.843875 0
M  V30 2986 H 274.448 -4.21297 0.0933043 0
M  V30 2987 H 273.172 -3.20419 -0.632382 0
M  V30 2988 H 271.831 -3.34717 1.49533 0
M  V30 2989 H 271.479 -5.0191 -0.33102 0
M  V30 2990 H 271.179 -5.73674 1.27167 0
M  V30 2991 H 272.703 -6.09224 0.409669 0
M  V30 2992 H 274.117 -5.16688 2.48407 0
M  V30 2993 H 272.514 -5.03553 3.26427 0
M  V30 2994 H 273.584 -3.62257 3.22332 0
M  V30 2995 N 274.927 -0.932562 -1.27047 0
M  V30 2996 C 276.175 -0.574422 -1.93765 0
M  V30 2997 C 276.496 0.887993 -1.73608 0
M  V30 2998 O 275.766 1.62999 -1.08665 0
M  V30 2999 H 274.346 -0.209451 -0.717035 0
M  V30 3000 H 277.008 -1.18601 -1.5466 0
M  V30 3001 H 276.104 -0.784841 -3.02071 0
M  V30 3002 N 276.405 1.4127 -0.698611 0
M  V30 3003 C 277.654 2.00408 -0.227949 0
M  V30 3004 C 277.967 1.55981 1.18023 0
M  V30 3005 O 279.173 2.07699 1.74852 0
M  V30 3006 C 277.629 3.58129 -0.356636 0
M  V30 3007 C 277.237 4.11536 -1.77037 0
M  V30 3008 C 278.981 4.24466 0.0540969 0
M  V30 3009 C 276.888 5.61701 -1.85055 0
M  V30 3010 H 275.818 0.749586 -0.0814657 0
M  V30 3011 H 278.469 1.61713 -0.867249 0
M  V30 3012 H 276.851 3.94442 0.350965 0
M  V30 3013 H 278.025 3.86636 -2.50698 0
M  V30 3014 H 276.34 3.57736 -2.13105 0
M  V30 3015 H 278.937 5.34698 0.0146723 0
M  V30 3016 H 279.28 4.01687 1.09332 0
M  V30 3017 H 279.813 3.93198 -0.603337 0
M  V30 3018 H 276.552 5.89312 -2.8704 0
M  V30 3019 H 276.072 5.88519 -1.15783 0
M  V30 3020 H 277.751 6.26524 -1.61484 0
M  V30 3021 N 277.883 0.443576 1.51229 0
M  V30 3022 C 278.793 -0.370721 2.31652 0
M  V30 3023 C 279.809 -1.02186 1.40833 0
M  V30 3024 O 280.985 -1.01586 1.73903 0
M  V30 3025 C 278.05 -1.45376 3.14749 0
M  V30 3026 C 277.111 -0.822099 4.21355 0
M  V30 3027 C 276.344 -1.85353 5.0048 0
M  V30 3028 O 276.567 -3.07656 4.80316 0
M  V30 3029 O 275.501 -1.4406 5.84406 0
M  V30 3030 H 279.327 0.286002 3.0235 0
M  V30 3031 H 276.912 0.20598 1.47973 0
M  V30 3032 H 278.794 -2.08173 3.66391 0
M  V30 3033 H 277.469 -2.09445 2.46809 0
M  V30 3034 H 276.376 -0.155909 3.73775 0
M  V30 3035 H 277.709 -0.224797 4.91686 0
M  V30 3036 N 279.361 -1.56624 0.175154 0
M  V30 3037 C 280.293 -2.15333 -0.785128 0
M  V30 3038 C 281.306 -1.1099 -1.19101 0
M  V30 3039 O 282.495 -1.38162 -1.13019 0
M  V30 3040 C 279.595 -2.68427 -2.06882 0
M  V30 3041 C 278.768 -3.97466 -1.8259 0
M  V30 3042 C 277.827 -4.35585 -2.95215 0
M  V30 3043 O 276.853 -5.03389 -2.65684 0
M  V30 3044 N 278.055 -3.97457 -4.23094 0
M  V30 3045 H 280.82 -2.98359 -0.283187 0
M  V30 3046 H 278.381 -1.61898 -0.00749817 0
M  V30 3047 H 280.373 -2.90924 -2.81328 0
M  V30 3048 H 278.943 -1.89968 -2.48256 0
M  V30 3049 H 278.163 -3.83307 -0.920287 0
M  V30 3050 H 279.451 -4.81736 -1.63733 0
M  V30 3051 H 278.849 -3.42878 -4.49945 0
M  V30 3052 H 277.406 -4.24947 -4.9423 0
M  V30 3053 N 280.839 0.0985539 -1.57292 0
M  V30 3054 C 282.064 0.820196 -1.90493 0
M  V30 3055 C 282.489 1.71658 -0.769094 0
M  V30 3056 O 281.847 1.79133 0.279495 0
M  V30 3057 C 281.895 1.61242 -3.22542 0
M  V30 3058 O 280.999 2.72108 -3.09888 0
M  V30 3059 H 280.34 0.225547 -0.62452 0
M  V30 3060 H 282.87 0.0748159 -2.04463 0
M  V30 3061 H 282.88 1.99737 -3.55766 0
M  V30 3062 H 281.555 0.954535 -4.04798 0
M  V30 3063 H 280.132 2.36667 -2.88172 0
M  V30 3064 N 282.317 1.53212 0.369288 0
M  V30 3065 C 283.733 1.42902 0.710712 0
M  V30 3066 C 283.933 0.565135 1.93413 0
M  V30 3067 O 282.989 0.0461484 2.52458 0
M  V30 3068 C 284.302 2.86042 0.927382 0
M  V30 3069 C 285.85 2.9565 1.02762 0
M  V30 3070 C 286.325 4.39843 1.27679 0
M  V30 3071 N 287.816 4.43256 1.34457 0
M  V30 3072 C 288.551 5.51929 1.55439 0
M  V30 3073 N 288.047 6.70655 1.73762 0
M  V30 3074 N 289.84 5.39502 1.57779 0
M  V30 3075 H 281.991 2.07888 -0.435457 0
M  V30 3076 H 284.254 0.938661 -0.132739 0
M  V30 3077 H 283.96 3.51557 0.100287 0
M  V30 3078 H 283.834 3.29472 1.83653 0
M  V30 3079 H 286.221 2.30291 1.84527 0
M  V30 3080 H 286.302 2.5562 0.0959504 0
M  V30 3081 H 285.946 5.05774 0.464175 0
M  V30 3082 H 285.876 4.77443 2.22162 0
M  V30 3083 H 288.367 3.5769 1.21926 0
M  V30 3084 H 288.68 7.49248 1.89335 0
M  V30 3085 H 287.025 6.73648 1.70948 0
M  V30 3086 H 290.216 4.45713 1.43029 0
M  V30 3087 H 290.389 6.2426 1.7379 0
M  V30 3088 N 283.795 -0.628877 1.44509 0
M  V30 3089 C 285.211 -0.947305 1.28446 0
M  V30 3090 C 285.411 -2.00275 0.221872 0
M  V30 3091 O 284.467 -2.49447 -0.391471 0
M  V30 3092 C 285.78 -1.40843 2.65676 0
M  V30 3093 C 287.328 -1.52379 2.73404 0
M  V30 3094 C 287.803 -2.01875 4.11109 0
M  V30 3095 N 289.294 -2.09142 4.13296 0
M  V30 3096 C 290.029 -2.48615 5.16699 0
M  V30 3097 N 289.525 -2.87209 6.30462 0
M  V30 3098 N 291.318 -2.48768 5.04054 0
M  V30 3099 H 283.469 0.0690977 2.12288 0
M  V30 3100 H 285.732 -0.0317164 0.947469 0
M  V30 3101 H 285.438 -0.707206 3.44516 0
M  V30 3102 H 285.312 -2.37902 2.92716 0
M  V30 3103 H 287.699 -2.21598 1.9488 0
M  V30 3104 H 287.78 -0.536898 2.50102 0
M  V30 3105 H 287.424 -1.3325 4.90109 0
M  V30 3106 H 287.354 -3.0144 4.31789 0
M  V30 3107 H 289.845 -1.81991 3.31191 0
M  V30 3108 H 290.158 -3.16149 7.05174 0
M  V30 3109 H 288.503 -2.84955 6.33897 0
M  V30 3110 H 291.694 -2.18009 4.14234 0
M  V30 3111 H 291.867 -2.79207 5.84763 0
M  V30 3112 N 285.273 -1.31445 -0.869486 0
M  V30 3113 C 286.55 -1.11795 -1.60503 0
M  V30 3114 C 286.93 0.327168 -2.08549 0
M  V30 3115 O 286.278 1.32135 -1.8642 0
M  V30 3116 C 286.488 -2.13258 -2.76265 0
M  V30 3117 C 287.836 -2.45805 -3.46215 0
M  V30 3118 O 288.86 -2.11688 -2.86473 0
M  V30 3119 O 287.719 -3.04228 -4.5399 0
M  V30 3120 H 284.813 -0.430421 -0.706163 0
M  V30 3121 H 287.359 -1.42925 -0.914907 0
M  V30 3122 H 286.131 -3.10461 -2.3818 0
M  V30 3123 H 285.754 -1.83035 -3.52964 0
M  V30 3124 N 286.751 1.08385 -1.14413 0
M  V30 3125 C 288.028 1.77429 -0.823297 0
M  V30 3126 C 288.408 1.9974 0.683163 0
M  V30 3127 O 287.756 1.60739 1.62405 0
M  V30 3128 C 287.966 3.09004 -1.62227 0
M  V30 3129 C 289.314 3.83532 -1.82177 0
M  V30 3130 O 290.338 3.18786 -1.58915 0
M  V30 3131 O 289.197 4.99792 -2.21067 0
M  V30 3132 H 286.291 0.769999 -0.301712 0
M  V30 3133 H 288.837 1.14846 -1.24934 0
M  V30 3134 H 287.609 2.88316 -2.64555 0
M  V30 3135 H 287.232 3.79316 -1.19187 0
M  V30 3136 N 288.23 0.939286 1.26551 0
M  V30 3137 C 289.16 0.465044 2.28822 0
M  V30 3138 C 290.141 -0.480692 1.63167 0
M  V30 3139 O 291.326 -0.382955 1.90387 0
M  V30 3140 C 288.456 -0.27234 3.46231 0
M  V30 3141 C 287.41 0.58666 4.2396 0
M  V30 3142 C 286.736 -0.280573 5.33963 0
M  V30 3143 C 288.036 1.85704 4.88171 0
M  V30 3144 H 289.73 1.31979 2.68741 0
M  V30 3145 H 287.276 0.636061 1.29191 0
M  V30 3146 H 289.229 -0.615133 4.16886 0
M  V30 3147 H 287.953 -1.16121 3.0526 0
M  V30 3148 H 286.612 0.91232 3.55067 0
M  V30 3149 H 286.26 -1.16874 4.89234 0
M  V30 3150 H 285.96 0.29076 5.8688 0
M  V30 3151 H 287.484 -0.618678 6.07458 0
M  V30 3152 H 288.898 1.58161 5.51052 0
M  V30 3153 H 287.295 2.37279 5.51197 0
M  V30 3154 H 288.365 2.56957 4.11219 0
M  V30 3155 N 289.708 -1.40897 0.706093 0
M  V30 3156 C 290.618 -2.3455 0.0482286 0
M  V30 3157 C 291.634 -1.56796 -0.754396 0
M  V30 3158 O 292.81 -1.89228 -0.689538 0
M  V30 3159 C 289.875 -3.35625 -0.869303 0
M  V30 3160 C 288.936 -4.29261 -0.0576994 0
M  V30 3161 C 288.169 -5.25508 -0.931531 0
M  V30 3162 O 288.392 -5.27472 -2.17092 0
M  V30 3163 O 287.326 -6.00727 -0.375587 0
M  V30 3164 H 291.152 -2.92407 0.820476 0
M  V30 3165 H 288.737 -1.4193 0.4665 0
M  V30 3166 H 290.619 -3.97635 -1.39514 0
M  V30 3167 H 289.294 -2.80196 -1.62086 0
M  V30 3168 H 288.201 -3.70566 0.512988 0
M  V30 3169 H 289.534 -4.87817 0.655426 0
M  V30 3170 N 291.186 -0.45159 -1.50991 0
M  V30 3171 C 292.411 0.110667 -2.07105 0
M  V30 3172 C 292.836 1.3446 -1.31538 0
M  V30 3173 O 292.194 1.77743 -0.357365 0
M  V30 3174 C 292.242 0.397238 -3.58405 0
M  V30 3175 O 291.346 1.48124 -3.84881 0
M  V30 3176 H 290.687 -0.00439271 -0.663985 0
M  V30 3177 H 293.217 -0.637026 -1.9443 0
M  V30 3178 H 293.227 0.64351 -4.02893 0
M  V30 3179 H 291.902 -0.504553 -4.12828 0
M  V30 3180 H 290.479 1.22381 -3.52246 0
M  V30 3181 N 292.664 1.56529 -0.183458 0
M  V30 3182 C 293.594 2.21549 0.737456 0
M  V30 3183 C 294.575 1.17489 1.23005 0
M  V30 3184 O 295.76 1.45959 1.281 0
M  V30 3185 C 292.89 2.86575 1.96194 0
M  V30 3186 C 291.844 3.96778 1.60473 0
M  V30 3187 C 291.17 4.48911 2.90487 0
M  V30 3188 C 292.47 5.15767 0.823497 0
M  V30 3189 H 294.164 2.98761 0.195453 0
M  V30 3190 H 291.71 1.43702 0.0925686 0
M  V30 3191 H 293.663 3.30739 2.61131 0
M  V30 3192 H 292.387 2.06749 2.52828 0
M  V30 3193 H 291.046 3.53286 0.978997 0
M  V30 3194 H 290.694 3.65862 3.45186 0
M  V30 3195 H 290.394 5.23265 2.67335 0
M  V30 3196 H 291.918 4.95771 3.56432 0
M  V30 3197 H 293.332 5.56549 1.37571 0
M  V30 3198 H 291.729 5.96114 0.690551 0
M  V30 3199 H 292.799 4.84574 -0.177782 0
M  V30 3200 N 294.142 -0.090211 1.57342 0
M  V30 3201 C 295.39 -0.791241 1.85967 0
M  V30 3202 C 295.711 -1.7903 0.772859 0
M  V30 3203 O 294.981 -1.94872 -0.200398 0
M  V30 3204 H 293.561 -0.295205 0.686195 0
M  V30 3205 H 296.223 -0.0706782 1.94772 0
M  V30 3206 H 295.319 -1.31882 2.82867 0
M  V30 3207 N 295.62 -1.53406 -0.361157 0
M  V30 3208 C 296.85 -1.73465 -1.1222 0
M  V30 3209 C 297.258 -0.465486 -1.83384 0
M  V30 3210 O 296.601 0.571611 -1.7458 0
M  V30 3211 C 296.663 -2.84834 -2.19339 0
M  V30 3212 C 296.327 -4.25038 -1.67903 0
M  V30 3213 C 297.324 -5.07231 -1.14074 0
M  V30 3214 C 295.009 -4.71464 -1.73282 0
M  V30 3215 C 297.003 -6.33942 -0.663068 0
M  V30 3216 C 294.69 -5.98153 -1.25127 0
M  V30 3217 C 295.688 -6.79223 -0.717296 0
M  V30 3218 O 295.376 -8.03533 -0.242865 0
M  V30 3219 H 295.108 -0.583526 -0.341283 0
M  V30 3220 H 297.662 -2.00964 -0.424591 0
M  V30 3221 H 295.892 -2.5282 -2.92607 0
M  V30 3222 H 297.581 -2.9303 -2.80871 0
M  V30 3223 H 298.347 -4.72534 -1.09254 0
M  V30 3224 H 294.226 -4.08432 -2.13786 0
M  V30 3225 H 297.77 -6.97167 -0.245612 0
M  V30 3226 H 293.667 -6.32347 -1.29642 0
M  V30 3227 H 294.435 -8.177 -0.361786 0
M  V30 3228 N 297.098 0.621204 -1.44841 0
M  V30 3229 C 298.344 1.3826 -1.48365 0
M  V30 3230 C 298.677 1.93831 -0.119624 0
M  V30 3231 O 297.952 1.74251 0.864111 0
M  V30 3232 C 298.235 2.54058 -2.55199 0
M  V30 3233 C 298.088 2.03772 -4.00995 0
M  V30 3234 C 299.407 3.56225 -2.58442 0
M  V30 3235 H 296.526 0.501374 -0.540179 0
M  V30 3236 H 299.168 0.7015 -1.76576 0
M  V30 3237 H 297.318 3.12162 -2.31274 0
M  V30 3238 H 298.99 1.50423 -4.36086 0
M  V30 3239 H 297.233 1.34876 -4.12299 0
M  V30 3240 H 297.904 2.87185 -4.71411 0
M  V30 3241 H 300.38 3.07939 -2.79844 0
M  V30 3242 H 299.256 4.34756 -3.3508 0
M  V30 3243 H 299.517 4.10949 -1.63013 0
M  V30 3244 N 298.576 1.31904 0.862503 0
M  V30 3245 C 299.506 1.22782 1.98612 0
M  V30 3246 C 300.487 0.113362 1.69722 0
M  V30 3247 O 301.672 0.299218 1.91881 0
M  V30 3248 C 298.802 0.942058 3.34279 0
M  V30 3249 C 297.756 2.0169 3.77499 0
M  V30 3250 C 297.082 1.58369 5.10709 0
M  V30 3251 C 298.382 3.43096 3.93805 0
M  V30 3252 H 300.076 2.16788 2.06502 0
M  V30 3253 H 297.622 1.04366 0.992154 0
M  V30 3254 H 299.575 0.864818 4.1243 0
M  V30 3255 H 298.299 -0.0336603 3.26583 0
M  V30 3256 H 296.958 2.08416 3.01593 0
M  V30 3257 H 296.606 0.595628 4.99461 0
M  V30 3258 H 296.306 2.30279 5.40597 0
M  V30 3259 H 297.83 1.52067 5.91361 0
M  V30 3260 H 299.244 3.39003 4.62331 0
M  V30 3261 H 297.641 4.13288 4.35101 0
M  V30 3262 H 298.711 3.83334 2.96957 0
M  V30 3263 N 300.054 -1.07777 1.14986 0
M  V30 3264 C 300.987 -2.14228 0.786243 0
M  V30 3265 C 301.965 -1.60888 -0.235347 0
M  V30 3266 O 303.149 -1.88099 -0.122909 0
M  V30 3267 C 300.276 -3.38281 0.168433 0
M  V30 3268 C 299.322 -4.10387 1.16123 0
M  V30 3269 S 300.155 -4.62371 2.70135 0
M  V30 3270 C 301.311 -5.89704 2.09762 0
M  V30 3271 H 301.544 -2.44741 1.68787 0
M  V30 3272 H 299.077 -1.19984 0.971756 0
M  V30 3273 H 301.035 -4.10098 -0.181588 0
M  V30 3274 H 299.696 -3.05953 -0.710725 0
M  V30 3275 H 298.889 -4.99431 0.677086 0
M  V30 3276 H 298.491 -3.44513 1.45556 0
M  V30 3277 H 300.783 -6.61648 1.45701 0
M  V30 3278 H 301.726 -6.42824 2.96955 0
M  V30 3279 H 302.134 -5.4302 1.54239 0
M  V30 3280 N 301.532 -0.945985 -1.26051 0
M  V30 3281 C 302.762 -0.612136 -1.97323 0
M  V30 3282 C 303.17 0.818171 -1.70595 0
M  V30 3283 O 302.513 1.55777 -0.973613 0
M  V30 3284 C 302.575 -0.780347 -3.50929 0
M  V30 3285 C 302.239 -2.18619 -4.01317 0
M  V30 3286 C 303.236 -3.16209 -4.12683 0
M  V30 3287 C 300.921 -2.50805 -4.35203 0
M  V30 3288 C 302.915 -4.44085 -4.57238 0
M  V30 3289 C 300.602 -3.78912 -4.79446 0
M  V30 3290 C 301.6 -4.75365 -4.90425 0
M  V30 3291 O 301.288 -6.01191 -5.3369 0
M  V30 3292 H 301.02 -0.229134 -0.635982 0
M  V30 3293 H 303.574 -1.27036 -1.61404 0
M  V30 3294 H 301.804 -0.0649864 -3.86645 0
M  V30 3295 H 303.493 -0.448842 -4.03411 0
M  V30 3296 H 304.259 -2.92668 -3.86744 0
M  V30 3297 H 300.138 -1.76463 -4.2589 0
M  V30 3298 H 303.682 -5.19373 -4.65723 0
M  V30 3299 H 299.579 -4.02265 -5.0483 0
M  V30 3300 H 300.347 -6.04442 -5.51899 0
M  V30 3301 N 303.011 1.40521 -0.713556 0
M  V30 3302 C 304.258 2.00923 -0.25219 0
M  V30 3303 C 304.586 1.56571 1.15395 0
M  V30 3304 O 303.841 0.775874 1.79663 0
M  V30 3305 C 304.14 3.56317 -0.278 0
M  V30 3306 C 303.806 4.20246 -1.63415 0
M  V30 3307 C 302.468 4.37422 -2.00538 0
M  V30 3308 C 304.82 4.55923 -2.52554 0
M  V30 3309 C 302.148 4.87558 -3.2635 0
M  V30 3310 C 304.5 5.07458 -3.77716 0
M  V30 3311 C 303.164 5.22843 -4.14959 0
M  V30 3312 H 302.434 0.735231 -0.0922829 0
M  V30 3313 H 305.081 1.68161 -0.916188 0
M  V30 3314 H 303.386 3.88976 0.469567 0
M  V30 3315 H 305.083 4.00883 0.0967819 0
M  V30 3316 H 301.673 4.07263 -1.33546 0
M  V30 3317 H 305.857 4.42291 -2.25149 0
M  V30 3318 H 301.113 4.97654 -3.55176 0
M  V30 3319 H 305.287 5.34041 -4.4696 0
M  V30 3320 H 302.914 5.61454 -5.12516 0
M  V30 3321 N 304.489 0.459591 1.5075 0
M  V30 3322 C 305.437 -0.354678 2.2988 0
M  V30 3323 C 306.431 -1.00086 1.36672 0
M  V30 3324 O 307.637 -0.933277 1.53915 0
M  V30 3325 H 304.012 -0.13321 0.740107 0
M  V30 3326 H 305.983 0.333269 2.96533 0
M  V30 3327 C 304.732 -1.43073 3.169 0
M  V30 3328 H 304.055 -0.942882 3.88523 0
M  V30 3329 H 305.495 -1.97328 3.75284 0
M  V30 3330 C 303.954 -2.42633 2.33732 0
M  V30 3331 O 304.484 -3.47658 2.01238 0
M  V30 3332 N 302.69 -2.14066 1.9653 0
M  V30 3333 H 302.237 -1.28685 2.23155 0
M  V30 3334 H 302.195 -2.80917 1.41185 0
M  V30 3335 N 305.967 -1.56429 0.191757 0
M  V30 3336 C 306.897 -2.21937 -0.725696 0
M  V30 3337 C 307.878 -1.1814 -1.2238 0
M  V30 3338 O 309.063 -1.46636 -1.27325 0
M  V30 3339 C 306.193 -2.87611 -1.94672 0
M  V30 3340 C 305.147 -3.97623 -1.58366 0
M  V30 3341 C 304.473 -4.50446 -2.88102 0
M  V30 3342 C 305.773 -5.16197 -0.796133 0
M  V30 3343 H 307.467 -2.98861 -0.179606 0
M  V30 3344 H 305.013 -1.43749 -0.0849464 0
M  V30 3345 H 306.966 -3.3212 -2.59373 0
M  V30 3346 H 305.69 -2.08087 -2.51728 0
M  V30 3347 H 304.349 -3.53801 -0.960247 0
M  V30 3348 H 303.997 -3.67688 -3.43241 0
M  V30 3349 H 303.697 -5.24675 -2.64556 0
M  V30 3350 H 305.221 -4.97654 -3.53798 0
M  V30 3351 H 306.635 -5.57271 -1.34618 0
M  V30 3352 H 305.032 -5.96471 -0.658928 0
M  V30 3353 H 306.102 -4.84473 0.203478 0
M  V30 3354 N 307.445 0.0818655 -1.57387 0
M  V30 3355 C 308.693 0.781368 -1.86384 0
M  V30 3356 C 309.014 1.78618 -0.782342 0
M  V30 3357 O 308.284 1.94976 0.190061 0
M  V30 3358 H 306.864 0.291562 -0.687751 0
M  V30 3359 H 309.526 0.060348 -1.94807 0
M  V30 3360 H 308.622 1.3038 -2.83562 0
M  V30 3361 N 308.923 1.53595 0.353017 0
M  V30 3362 C 310.148 1.7462 1.11904 0
M  V30 3363 C 310.573 0.479721 1.8188 0
M  V30 3364 O 309.931 -0.567066 1.72204 0
M  V30 3365 C 309.979 2.92029 2.11545 0
M  V30 3366 O 309.083 2.61516 3.18878 0
M  V30 3367 H 308.424 0.579531 0.324099 0
M  V30 3368 H 310.954 2.00525 0.406301 0
M  V30 3369 H 310.964 3.18551 2.5493 0
M  V30 3370 H 309.639 3.83888 1.60008 0
M  V30 3371 H 308.216 2.45852 2.80377 0
M  V30 3372 N 310.401 -0.613514 1.45168 0
M  V30 3373 C 311.331 -1.7354 1.56225 0
M  V30 3374 C 312.312 -1.64981 0.41414 0
M  V30 3375 O 313.497 -1.83472 0.636526 0
M  V30 3376 C 310.627 -3.12128 1.52295 0
M  V30 3377 C 309.581 -3.35491 2.65762 0
M  V30 3378 C 308.907 -4.74291 2.46885 0
M  V30 3379 C 310.207 -3.26325 4.0781 0
M  V30 3380 H 311.901 -1.64543 2.50132 0
M  V30 3381 H 309.447 -0.790185 1.20383 0
M  V30 3382 H 311.4 -3.90404 1.58628 0
M  V30 3383 H 310.124 -3.2195 0.549139 0
M  V30 3384 H 308.783 -2.59603 2.58847 0
M  V30 3385 H 308.431 -4.80839 1.47657 0
M  V30 3386 H 308.131 -4.9088 3.22972 0
M  V30 3387 H 309.655 -5.54775 2.55063 0
M  V30 3388 H 311.069 -3.94483 4.16 0
M  V30 3389 H 309.466 -3.54445 4.8424 0
M  V30 3390 H 310.536 -2.23855 4.30136 0
M  V30 3391 N 311.879 -1.3236 -0.855495 0
M  V30 3392 C 313.29 -1.2056 -1.42556 0
M  V30 3393 C 313.641 0.182209 -1.95352 0
M  V30 3394 O 312.766 1.08088 -1.87472 0
M  V30 3395 C 313.361 -2.1826 -2.59129 0
M  V30 3396 C 311.92 -2.10351 -3.12137 0
M  V30 3397 C 311.067 -2.06674 -1.84882 0
M  V30 3398 H 314.018 -1.442 -0.662727 0
M  V30 3399 H 314.039 -1.78064 -3.36264 0
M  V30 3400 H 313.551 -3.19257 -2.20673 0
M  V30 3401 H 311.652 -1.12599 -3.55179 0
M  V30 3402 H 311.765 -3.00135 -3.73438 0
M  V30 3403 H 310.129 -1.51901 -2.04446 0
M  V30 3404 H 310.912 -3.09451 -1.48643 0
M  V30 3405 N 313.357 1.07166 -1.15556 0
M  V30 3406 C 314.603 1.80222 -0.942961 0
M  V30 3407 C 314.958 1.85121 0.524209 0
M  V30 3408 O 314.251 1.32531 1.38369 0
M  V30 3409 C 314.445 3.24707 -1.49332 0
M  V30 3410 C 314.274 3.33887 -3.01247 0
M  V30 3411 C 313.044 3.44337 -3.69811 0
M  V30 3412 C 315.242 3.24484 -3.99017 0
M  V30 3413 N 313.224 3.42439 -5.09518 0
M  V30 3414 C 314.595 3.29726 -5.25053 0
M  V30 3415 C 316.65 3.08307 -3.90962 0
M  V30 3416 C 315.353 3.20455 -6.43973 0
M  V30 3417 C 317.379 3.00371 -5.09442 0
M  V30 3418 C 316.741 3.06227 -6.34354 0
M  V30 3419 H 312.84 0.672709 -0.398731 0
M  V30 3420 H 315.424 1.27905 -1.46794 0
M  V30 3421 H 313.595 3.7544 -0.994946 0
M  V30 3422 H 315.327 3.85894 -1.21935 0
M  V30 3423 H 312.082 3.48762 -3.20409 0
M  V30 3424 H 312.506 3.45013 -5.8249 0
M  V30 3425 H 317.148 3.02633 -2.95251 0
M  V30 3426 H 314.866 3.24888 -7.39914 0
M  V30 3427 H 318.452 2.88955 -5.04971 0
M  V30 3428 H 317.332 3.00132 -7.24493 0
M  V30 3429 N 314.835 0.952656 1.25548 0
M  V30 3430 C 315.767 0.428609 2.25157 0
M  V30 3431 C 316.78 -0.454428 1.56329 0
M  V30 3432 O 317.969 -0.263023 1.76552 0
M  V30 3433 C 315.069 -0.401972 3.36508 0
M  V30 3434 C 314.242 0.467601 4.34893 0
M  V30 3435 C 313.301 -0.30445 5.25319 0
M  V30 3436 O 312.327 0.296473 5.68427 0
M  V30 3437 N 313.529 -1.59805 5.5807 0
M  V30 3438 H 316.294 1.28497 2.70756 0
M  V30 3439 H 313.855 0.822798 1.39433 0
M  V30 3440 H 315.847 -0.926134 3.9396 0
M  V30 3441 H 314.417 -1.15918 2.90313 0
M  V30 3442 H 313.637 1.17288 3.76347 0
M  V30 3443 H 314.925 1.06119 4.97611 0
M  V30 3444 H 314.323 -2.10823 5.24948 0
M  V30 3445 H 312.88 -2.06822 6.18116 0
M  V30 3446 N 316.313 -1.40141 0.720998 0
M  V30 3447 C 317.561 -2.0039 0.262323 0
M  V30 3448 C 317.882 -1.57469 -1.15015 0
M  V30 3449 O 317.152 -0.816582 -1.78069 0
M  V30 3450 H 315.732 -0.741063 0.093996 0
M  V30 3451 H 318.394 -1.71398 0.927835 0
M  V30 3452 H 317.49 -3.10658 0.299671 0
M  V30 3453 N 317.792 -0.46758 -1.50504 0
M  V30 3454 C 318.722 0.318381 -2.31319 0
M  V30 3455 C 319.703 0.993564 -1.38066 0
M  V30 3456 O 320.888 0.991411 -1.66987 0
M  V30 3457 C 318.018 1.40275 -3.17711 0
M  V30 3458 C 316.972 0.849373 -4.19487 0
M  V30 3459 C 316.298 2.03177 -4.94594 0
M  V30 3460 C 317.598 -0.136942 -5.2212 0
M  V30 3461 H 319.292 -0.356106 -2.97275 0
M  V30 3462 H 316.838 -0.172703 -1.42961 0
M  V30 3463 H 318.791 1.96004 -3.73042 0
M  V30 3464 H 317.515 2.10596 -2.49634 0
M  V30 3465 H 316.174 0.314076 -3.65252 0
M  V30 3466 H 315.822 2.72187 -4.22993 0
M  V30 3467 H 315.522 1.66774 -5.63436 0
M  V30 3468 H 317.046 2.59403 -5.52759 0
M  V30 3469 H 318.46 0.331056 -5.72343 0
M  V30 3470 H 316.857 -0.41507 -5.98663 0
M  V30 3471 H 317.927 -1.06398 -4.73083 0
M  V30 3472 N 319.27 1.56325 -0.20005 0
M  V30 3473 C 320.217 2.1932 0.718833 0
M  V30 3474 C 321.187 1.14198 1.20615 0
M  V30 3475 O 322.372 1.42469 1.26914 0
M  V30 3476 C 319.512 2.86041 1.93066 0
M  V30 3477 C 318.625 4.05702 1.48425 0
M  V30 3478 C 317.76 4.60266 2.65196 0
M  V30 3479 C 316.799 5.72273 2.17185 0
M  V30 3480 N 315.936 6.21221 3.27152 0
M  V30 3481 H 320.776 2.97486 0.17489 0
M  V30 3482 H 318.313 1.46911 0.0745794 0
M  V30 3483 H 320.271 3.22897 2.64184 0
M  V30 3484 H 318.901 2.1043 2.44783 0
M  V30 3485 H 317.953 3.74475 0.668755 0
M  V30 3486 H 319.265 4.86699 1.09204 0
M  V30 3487 H 318.419 4.99453 3.4443 0
M  V30 3488 H 317.158 3.78386 3.07693 0
M  V30 3489 H 316.163 5.3261 1.36407 0
M  V30 3490 H 317.388 6.55974 1.75713 0
M  V30 3491 H 315.334 5.42263 3.69171 0
M  V30 3492 H 315.251 6.97284 2.92116 0
M  V30 3493 H 316.519 6.65063 4.06585 0
M  V30 3494 N 320.748 -0.0735177 1.57428 0
M  V30 3495 C 321.711 -1.07192 2.02589 0
M  V30 3496 C 322.711 -1.31695 0.922661 0
M  V30 3497 O 323.901 -1.27445 1.18758 0
M  V30 3498 C 321.033 -2.41599 2.40506 0
M  V30 3499 H 322.226 -0.682727 2.92025 0
M  V30 3500 H 319.779 -0.319193 1.53006 0
M  V30 3501 H 320.514 -2.85354 1.5409 0
M  V30 3502 H 320.299 -2.25156 3.21009 0
M  V30 3503 H 321.789 -3.13367 2.76027 0
M  V30 3504 N 322.226 -1.5378 -0.344866 0
M  V30 3505 C 323.189 -1.80981 -1.40637 0
M  V30 3506 C 324.189 -0.680816 -1.45676 0
M  V30 3507 O 325.379 -0.949095 -1.46075 0
M  V30 3508 C 322.511 -1.95063 -2.79577 0
M  V30 3509 H 323.704 -2.75803 -1.17783 0
M  V30 3510 H 321.257 -1.45173 -0.579181 0
M  V30 3511 H 321.992 -1.02379 -3.07716 0
M  V30 3512 H 321.777 -2.77198 -2.77315 0
M  V30 3513 H 323.267 -2.17629 -3.56409 0
M  V30 3514 N 323.704 0.605807 -1.45491 0
M  V30 3515 C 324.932 1.39136 -1.5313 0
M  V30 3516 C 325.347 1.88082 -0.164507 0
M  V30 3517 O 324.704 1.62316 0.834247 0
M  V30 3518 C 324.755 2.59463 -2.51716 0
M  V30 3519 O 324.476 2.12551 -3.83084 0
M  V30 3520 C 325.977 3.52301 -2.6907 0
M  V30 3521 H 323.197 0.425849 -0.51855 0
M  V30 3522 H 325.741 0.73865 -1.90694 0
M  V30 3523 H 323.896 3.20772 -2.17219 0
M  V30 3524 H 324.31 2.90744 -4.36541 0
M  V30 3525 H 325.784 4.33271 -3.42024 0
M  V30 3526 H 326.261 4.02757 -1.75167 0
M  V30 3527 H 326.867 2.96845 -3.04571 0
M  V30 3528 N 325.182 1.32811 0.848464 0
M  V30 3529 C 326.129 1.22265 1.95755 0
M  V30 3530 C 327.099 0.103413 1.65778 0
M  V30 3531 O 328.284 0.280033 1.88734 0
M  V30 3532 C 325.424 0.958014 3.31536 0
M  V30 3533 C 324.537 2.16262 3.73971 0
M  V30 3534 C 323.672 1.83295 4.98575 0
M  V30 3535 C 322.711 3.00041 5.33518 0
M  V30 3536 N 321.848 2.67125 6.49299 0
M  V30 3537 H 326.688 2.17128 2.04107 0
M  V30 3538 H 324.225 1.07982 0.998913 0
M  V30 3539 H 326.183 0.785052 4.09747 0
M  V30 3540 H 324.813 0.046159 3.22767 0
M  V30 3541 H 323.865 2.44565 2.91362 0
M  V30 3542 H 325.177 3.03572 3.95785 0
M  V30 3543 H 324.331 1.62586 5.84509 0
M  V30 3544 H 323.07 0.932078 4.7871 0
M  V30 3545 H 322.075 3.21374 4.46093 0
M  V30 3546 H 323.3 3.90869 5.55336 0
M  V30 3547 H 321.246 1.79586 6.3094 0
M  V30 3548 H 321.163 3.47965 6.71161 0
M  V30 3549 H 322.431 2.49861 7.3837 0
M  V30 3550 N 326.66 -1.06551 1.16123 0
M  V30 3551 C 328.076 -1.3142 0.905585 0
M  V30 3552 C 328.276 -1.96571 -0.442964 0
M  V30 3553 O 327.332 -2.23068 -1.18308 0
M  V30 3554 C 328.645 -2.19741 2.05267 0
M  V30 3555 C 330.193 -2.33165 2.08813 0
M  V30 3556 C 330.668 -3.24838 3.22868 0
M  V30 3557 N 332.159 -3.32421 3.22568 0
M  V30 3558 C 332.894 -4.0344 4.0746 0
M  V30 3559 N 332.39 -4.77003 5.02434 0
M  V30 3560 N 334.183 -3.99464 3.95456 0
M  V30 3561 H 326.334 -0.626548 2.02949 0
M  V30 3562 H 328.597 -0.338777 0.8854 0
M  V30 3563 H 328.303 -1.79142 3.02657 0
M  V30 3564 H 328.177 -3.20313 1.99198 0
M  V30 3565 H 330.564 -2.73013 1.12018 0
M  V30 3566 H 330.645 -1.3227 2.18948 0
M  V30 3567 H 330.289 -2.85708 4.19921 0
M  V30 3568 H 330.219 -4.25707 3.0997 0
M  V30 3569 H 332.71 -2.79994 2.53795 0
M  V30 3570 H 333.023 -5.28712 5.63634 0
M  V30 3571 H 331.368 -4.75992 5.06415 0
M  V30 3572 H 334.559 -3.4111 3.20564 0
M  V30 3573 H 334.732 -4.54544 4.61837 0
M  V30 3574 N 328.138 -0.959301 -1.25041 0
M  V30 3575 C 329.07 -0.440543 -2.24926 0
M  V30 3576 C 330.083 0.446131 -1.56568 0
M  V30 3577 O 331.272 0.253657 -1.76689 0
M  V30 3578 C 328.372 0.38412 -3.36716 0
M  V30 3579 C 327.545 -0.490658 -4.34639 0
M  V30 3580 C 326.604 0.276587 -5.25473 0
M  V30 3581 O 325.63 -0.326614 -5.68262 0
M  V30 3582 N 326.832 1.56844 -5.5891 0
M  V30 3583 H 329.597 -1.29931 -2.70071 0
M  V30 3584 H 327.158 -0.830181 -1.38995 0
M  V30 3585 H 329.15 0.905228 -3.94446 0
M  V30 3586 H 327.72 1.14377 -2.90924 0
M  V30 3587 H 326.94 -1.19282 -3.7572 0
M  V30 3588 H 328.228 -1.08756 -4.97041 0
M  V30 3589 H 327.626 2.08036 -5.26059 0
M  V30 3590 H 326.183 2.03541 -6.19205 0
M  V30 3591 N 329.616 1.39756 -0.72842 0
M  V30 3592 C 330.563 2.30647 -0.0841519 0
M  V30 3593 C 331.533 1.48869 0.7367 0
M  V30 3594 O 332.718 1.77574 0.698015 0
M  V30 3595 C 329.858 3.35165 0.822091 0
M  V30 3596 C 328.971 4.31999 -0.0106663 0
M  V30 3597 C 328.106 5.23585 0.896241 0
M  V30 3598 C 327.145 6.12072 0.0583381 0
M  V30 3599 N 326.282 6.96035 0.920818 0
M  V30 3600 H 331.122 2.85173 -0.864891 0
M  V30 3601 H 328.659 1.40422 -0.438179 0
M  V30 3602 H 330.617 3.94345 1.36189 0
M  V30 3603 H 329.247 2.8211 1.56888 0
M  V30 3604 H 328.299 3.74492 -0.66781 0
M  V30 3605 H 329.611 4.9443 -0.658825 0
M  V30 3606 H 328.765 5.87759 1.50412 0
M  V30 3607 H 327.504 4.61459 1.57819 0
M  V30 3608 H 326.509 5.46916 -0.562389 0
M  V30 3609 H 327.734 6.76261 -0.6203 0
M  V30 3610 H 325.68 6.36485 1.58818 0
M  V30 3611 H 325.597 7.55284 0.32899 0
M  V30 3612 H 326.865 7.64646 1.51447 0
M  V30 3613 N 331.094 0.475555 1.50254 0
M  V30 3614 C 332.324 -0.0753399 2.06463 0
M  V30 3615 C 332.732 -1.33661 1.33908 0
M  V30 3616 O 332.075 -1.79219 0.403257 0
M  V30 3617 C 332.137 -0.424921 3.5698 0
M  V30 3618 C 331.801 0.734965 4.51051 0
M  V30 3619 C 332.798 1.61827 4.94073 0
M  V30 3620 C 330.483 0.926557 4.9368 0
M  V30 3621 C 332.477 2.67754 5.78434 0
M  V30 3622 C 330.164 1.98904 5.77824 0
M  V30 3623 C 331.162 2.8629 6.20103 0
M  V30 3624 O 330.85 3.90708 7.02568 0
M  V30 3625 H 330.582 0.00576308 0.675975 0
M  V30 3626 H 333.136 0.664662 1.94349 0
M  V30 3627 H 331.366 -1.21817 3.67012 0
M  V30 3628 H 333.055 -0.911422 3.95535 0
M  V30 3629 H 333.821 1.48196 4.61804 0
M  V30 3630 H 329.7 0.25584 4.6029 0
M  V30 3631 H 333.244 3.35992 6.11355 0
M  V30 3632 H 329.141 2.12541 6.09505 0
M  V30 3633 H 329.909 3.87751 7.20827 0
M  V30 3634 N 332.573 -1.56217 0.208337 0
M  V30 3635 C 333.483 -2.23316 -0.718836 0
M  V30 3636 C 334.499 -1.23648 -1.22422 0
M  V30 3637 O 335.675 -1.56423 -1.26861 0
M  V30 3638 C 332.74 -2.88968 -1.91568 0
M  V30 3639 C 331.801 -4.03943 -1.45357 0
M  V30 3640 C 331.034 -4.66455 -2.59337 0
M  V30 3641 O 331.257 -4.27919 -3.77149 0
M  V30 3642 O 330.191 -5.55686 -2.31293 0
M  V30 3643 H 334.017 -3.03182 -0.177315 0
M  V30 3644 H 331.602 -1.49384 -0.0215402 0
M  V30 3645 H 333.484 -3.30455 -2.61491 0
M  V30 3646 H 332.159 -2.12071 -2.44556 0
M  V30 3647 H 331.066 -3.67052 -0.722746 0
M  V30 3648 H 332.399 -4.82543 -0.970219 0
M  V30 3649 N 334.051 0.0651679 -1.57465 0
M  V30 3650 C 335.467 0.420105 -1.53972 0
M  V30 3651 C 335.667 1.78782 -0.929474 0
M  V30 3652 O 334.723 2.46771 -0.534839 0
M  V30 3653 C 336.036 0.355084 -2.98596 0
M  V30 3654 C 337.584 0.434792 -3.09965 0
M  V30 3655 C 338.059 0.399609 -4.56253 0
M  V30 3656 N 339.55 0.459488 -4.60915 0
M  V30 3657 C 340.285 0.454584 -5.71595 0
M  V30 3658 N 339.781 0.404102 -6.9162 0
M  V30 3659 N 341.574 0.501635 -5.59857 0
M  V30 3660 H 333.725 -0.830328 -1.95498 0
M  V30 3661 H 335.988 -0.312244 -0.895102 0
M  V30 3662 H 335.694 -0.583357 -3.46828 0
M  V30 3663 H 335.568 1.16275 -3.58831 0
M  V30 3664 H 337.955 1.36366 -2.61703 0
M  V30 3665 H 338.036 -0.40157 -2.52628 0
M  V30 3666 H 337.68 -0.525436 -5.05175 0
M  V30 3667 H 337.61 1.25359 -5.11461 0
M  V30 3668 H 340.101 0.502482 -3.74544 0
M  V30 3669 H 340.414 0.404468 -7.71741 0
M  V30 3670 H 338.759 0.37069 -6.94011 0
M  V30 3671 H 341.95 0.538812 -4.64989 0
M  V30 3672 H 342.123 0.494345 -6.46112 0
M  V30 3673 N 335.529 1.53961 0.336706 0
M  V30 3674 C 336.778 1.70751 1.07363 0
M  V30 3675 C 337.091 0.481061 1.89592 0
M  V30 3676 O 338.297 0.530046 2.66276 0
M  V30 3677 C 336.753 3.01965 1.95818 0
M  V30 3678 C 336.361 4.31971 1.18764 0
M  V30 3679 C 338.105 3.28121 2.69327 0
M  V30 3680 C 336.012 5.54255 2.06289 0
M  V30 3681 H 334.942 0.636292 0.404535 0
M  V30 3682 H 337.593 1.80459 0.332681 0
M  V30 3683 H 335.975 2.86132 2.7376 0
M  V30 3684 H 337.149 4.5853 0.456849 0
M  V30 3685 H 335.464 4.12481 0.569946 0
M  V30 3686 H 338.061 4.16673 3.35094 0
M  V30 3687 H 338.404 2.45426 3.36261 0
M  V30 3688 H 338.937 3.44762 1.98454 0
M  V30 3689 H 335.676 6.39513 1.43885 0
M  V30 3690 H 335.196 5.31935 2.77138 0
M  V30 3691 H 336.875 5.90159 2.65182 0
M  V30 3692 N 337.007 -0.598083 1.45811 0
M  V30 3693 C 338.232 -1.3881 1.54099 0
M  V30 3694 C 338.657 -1.8726 0.177578 0
M  V30 3695 O 338.015 -1.6069 -0.839541 0
M  V30 3696 C 338.063 -2.56217 2.53743 0
M  V30 3697 O 337.167 -3.5716 2.06182 0
M  V30 3698 H 336.508 -0.414024 0.519115 0
M  V30 3699 H 339.038 -0.726971 1.91249 0
M  V30 3700 H 339.048 -3.03337 2.72856 0
M  V30 3701 H 337.723 -2.20303 3.5276 0
M  V30 3702 H 336.3 -3.16624 1.96987 0
M  V30 3703 N 338.485 -1.33259 -0.841409 0
M  V30 3704 C 339.395 -1.25332 -1.98316 0
M  V30 3705 C 340.411 -0.164364 -1.73222 0
M  V30 3706 O 341.587 -0.387486 -1.97637 0
M  V30 3707 C 338.652 -0.990078 -3.32262 0
M  V30 3708 C 337.713 -2.16879 -3.70489 0
M  V30 3709 C 336.946 -1.91801 -4.98044 0
M  V30 3710 O 337.169 -0.867075 -5.63771 0
M  V30 3711 O 336.103 -2.78267 -5.33714 0
M  V30 3712 H 339.929 -2.21344 -2.07944 0
M  V30 3713 H 337.514 -1.1328 -0.974058 0
M  V30 3714 H 339.396 -0.860321 -4.12524 0
M  V30 3715 H 338.071 -0.0602155 -3.23644 0
M  V30 3716 H 336.978 -2.35407 -2.90748 0
M  V30 3717 H 338.311 -3.0819 -3.8377 0
M  V30 3718 N 339.963 1.05934 -1.16686 0
M  V30 3719 C 340.91 2.13499 -0.876748 0
M  V30 3720 C 341.88 1.65162 0.176299 0
M  V30 3721 O 343.065 1.90757 0.0407143 0
M  V30 3722 C 340.205 3.42912 -0.387967 0
M  V30 3723 C 339.318 4.04964 -1.50426 0
M  V30 3724 C 338.453 5.22266 -0.970125 0
M  V30 3725 C 337.492 5.76309 -2.06238 0
M  V30 3726 N 336.629 6.84922 -1.54356 0
M  V30 3727 H 341.469 2.37654 -1.7979 0
M  V30 3728 H 339.006 1.16598 -0.896843 0
M  V30 3729 H 340.964 4.17111 -0.086186 0
M  V30 3730 H 339.594 3.18963 0.496235 0
M  V30 3731 H 338.646 3.28277 -1.92193 0
M  V30 3732 H 339.958 4.41122 -2.32836 0
M  V30 3733 H 339.112 6.03506 -0.621743 0
M  V30 3734 H 337.851 4.87564 -0.115377 0
M  V30 3735 H 336.856 4.93704 -2.41942 0
M  V30 3736 H 338.081 6.13062 -2.92115 0
M  V30 3737 H 336.027 6.52131 -0.711406 0
M  V30 3738 H 335.944 7.20043 -2.30379 0
M  V30 3739 H 337.212 7.69832 -1.22387 0
M  V30 3740 N 341.441 0.965919 1.2453 0
M  V30 3741 C 342.388 0.49402 2.25451 0
M  V30 3742 C 343.358 -0.45948 1.59618 0
M  V30 3743 O 344.543 -0.370238 1.87173 0
M  V30 3744 C 341.683 -0.211359 3.44452 0
M  V30 3745 C 340.796 0.7807 4.24887 0
M  V30 3746 C 339.931 0.0516105 5.31175 0
M  V30 3747 C 338.97 1.03385 6.03306 0
M  V30 3748 N 338.107 0.334887 7.01301 0
M  V30 3749 H 342.947 1.35946 2.65184 0
M  V30 3750 H 340.484 0.681515 1.3036 0
M  V30 3751 H 342.442 -0.637 4.12308 0
M  V30 3752 H 341.072 -1.04077 3.05562 0
M  V30 3753 H 340.124 1.32479 3.56586 0
M  V30 3754 H 341.436 1.52978 4.74762 0
M  V30 3755 H 340.59 -0.432114 6.05159 0
M  V30 3756 H 339.329 -0.730179 4.82203 0
M  V30 3757 H 338.334 1.52847 5.28127 0
M  V30 3758 H 339.559 1.81606 6.54367 0
M  V30 3759 H 337.505 -0.427959 6.54603 0
M  V30 3760 H 337.422 1.02287 7.49048 0
M  V30 3761 H 338.69 -0.126928 7.79397 0
M  V30 3762 N 342.919 -1.39368 0.735821 0
M  V30 3763 C 343.852 -2.28155 0.0451175 0
M  V30 3764 C 344.83 -1.44433 -0.746852 0
M  V30 3765 O 346.014 -1.73823 -0.729237 0
M  V30 3766 C 343.141 -3.253 -0.943266 0
M  V30 3767 C 342.187 -4.25826 -0.239685 0
M  V30 3768 S 343.02 -5.25166 1.04693 0
M  V30 3769 C 344.176 -6.2587 0.0611639 0
M  V30 3770 H 344.409 -2.86388 0.79807 0
M  V30 3771 H 341.942 -1.45104 0.527653 0
M  V30 3772 H 343.9 -3.81789 -1.50824 0
M  V30 3773 H 342.561 -2.66085 -1.66906 0
M  V30 3774 H 341.754 -4.94229 -0.987596 0
M  V30 3775 H 341.356 -3.73141 0.253274 0
M  V30 3776 H 343.648 -6.73007 -0.778941 0
M  V30 3777 H 344.591 -7.04508 0.712362 0
M  V30 3778 H 344.999 -5.63639 -0.311602 0
M  V30 3779 N 344.397 -0.483516 -1.5 0
M  V30 3780 C 345.622 0.0667119 -2.07293 0
M  V30 3781 C 346.047 1.3164 -1.3436 0
M  V30 3782 O 345.405 1.76945 -0.394987 0
M  V30 3783 C 345.453 0.321126 -3.59167 0
M  V30 3784 O 344.557 1.39927 -3.87936 0
M  V30 3785 H 343.898 -0.0184758 -0.663743 0
M  V30 3786 H 346.428 -0.678125 -1.93035 0
M  V30 3787 H 346.438 0.557906 -4.04168 0
M  V30 3788 H 345.113 -0.592007 -4.11665 0
M  V30 3789 H 343.69 1.14882 -3.54763 0
M  V30 3790 N 345.875 1.56104 -0.216619 0
M  V30 3791 C 347.103 2.02563 0.421413 0
M  V30 3792 C 347.518 1.0965 1.53695 0
M  V30 3793 O 346.875 0.10521 1.82196 0
M  V30 3794 C 346.926 3.48584 0.957665 0
M  V30 3795 O 346.647 4.37953 -0.113389 0
M  V30 3796 C 348.148 4.10664 1.66943 0
M  V30 3797 H 345.368 0.662944 0.103665 0
M  V30 3798 H 347.912 2.01793 -0.331629 0
M  V30 3799 H 346.067 3.49985 1.661 0
M  V30 3800 H 346.481 5.23704 0.288932 0
M  V30 3801 H 347.955 5.14622 1.99671 0
M  V30 3802 H 348.432 3.55373 2.58083 0
M  V30 3803 H 349.038 4.13098 1.01142 0
M  V30 3804 N 347.353 -0.0568162 1.57498 0
M  V30 3805 C 348.764 -0.606858 1.76562 0
M  V30 3806 C 349.115 -1.77114 0.844094 0
M  V30 3807 O 348.24 -2.16376 0.0318911 0
M  V30 3808 C 348.835 -1.10766 3.20182 0
M  V30 3809 C 347.394 -1.60344 3.40539 0
M  V30 3810 C 346.541 -0.529311 2.72201 0
M  V30 3811 H 349.492 0.169393 1.57793 0
M  V30 3812 H 349.513 -1.97602 3.25167 0
M  V30 3813 H 349.025 -0.26006 3.87228 0
M  V30 3814 H 347.126 -2.47379 2.78629 0
M  V30 3815 H 347.239 -1.67006 4.4905 0
M  V30 3816 H 345.603 -0.977893 2.35179 0
M  V30 3817 H 346.386 0.308352 3.41912 0
M  V30 3818 N 348.832 -1.54138 -0.328536 0
M  V30 3819 C 350.081 -1.71318 -1.06456 0
M  V30 3820 C 350.394 -0.491109 -1.89334 0
M  V30 3821 O 351.6 -0.54416 -2.65991 0
M  V30 3822 C 350.056 -3.03 -1.94214 0
M  V30 3823 C 349.664 -4.32595 -1.16471 0
M  V30 3824 C 351.408 -3.29544 -2.67583 0
M  V30 3825 C 349.315 -5.55341 -2.03347 0
M  V30 3826 H 348.245 -0.638429 -0.401155 0
M  V30 3827 H 350.896 -1.80633 -0.323106 0
M  V30 3828 H 349.278 -2.87579 -2.72239 0
M  V30 3829 H 350.452 -4.58766 -0.432525 0
M  V30 3830 H 348.767 -4.12777 -0.548063 0
M  V30 3831 H 351.364 -4.18444 -3.3288 0
M  V30 3832 H 351.707 -2.47206 -3.34955 0
M  V30 3833 H 352.24 -3.45809 -1.96623 0
M  V30 3834 H 348.979 -6.40268 -1.40491 0
M  V30 3835 H 348.499 -5.33397 -2.74313 0
M  V30 3836 H 350.178 -5.91557 -2.62049 0
M  V30 3837 N 350.31 0.590341 -1.46126 0
M  V30 3838 C 351.22 1.72793 -1.58681 0
M  V30 3839 C 352.236 1.67516 -0.470566 0
M  V30 3840 O 353.412 1.87562 -0.733642 0
M  V30 3841 C 350.477 3.09287 -1.5666 0
M  V30 3842 C 349.538 3.25886 -2.79458 0
M  V30 3843 C 348.771 4.55869 -2.77524 0
M  V30 3844 O 348.994 5.3928 -1.85832 0
M  V30 3845 O 347.928 4.75552 -3.68964 0
M  V30 3846 H 351.754 1.65149 -2.54872 0
M  V30 3847 H 349.339 0.756486 -1.28832 0
M  V30 3848 H 351.221 3.90577 -1.58202 0
M  V30 3849 H 349.896 3.17385 -0.636271 0
M  V30 3850 H 348.803 2.44119 -2.83472 0
M  V30 3851 H 350.136 3.22675 -3.71674 0
M  V30 3852 N 351.788 1.33704 0.83433 0
M  V30 3853 C 353.034 1.25603 1.59222 0
M  V30 3854 C 353.367 -0.176659 1.93395 0
M  V30 3855 O 352.642 -1.11915 1.59076 0
M  V30 3856 C 352.925 2.13576 2.89926 0
M  V30 3857 C 352.778 3.65326 2.62406 0
M  V30 3858 C 354.097 2.01238 3.91397 0
M  V30 3859 H 351.216 0.457613 0.577719 0
M  V30 3860 H 353.858 1.63848 0.961972 0
M  V30 3861 H 352.008 1.8109 3.43713 0
M  V30 3862 H 353.68 4.08124 2.15017 0
M  V30 3863 H 351.923 3.8698 1.96033 0
M  V30 3864 H 352.594 4.22232 3.55562 0
M  V30 3865 H 355.07 2.29738 3.46929 0
M  V30 3866 H 353.946 2.65036 4.80673 0
M  V30 3867 H 354.207 0.985951 4.30966 0
M  V30 3868 N 353.266 -1.05314 1.17247 0
M  V30 3869 C 354.196 -2.1498 0.911362 0
M  V30 3870 C 355.177 -1.69471 -0.146169 0
M  V30 3871 O 356.362 -1.942 0.003812 0
M  V30 3872 C 353.492 -3.4472 0.422528 0
M  V30 3873 C 352.446 -4.03789 1.4191 0
M  V30 3874 C 351.772 -5.28858 0.788274 0
M  V30 3875 C 353.072 -4.41418 2.7919 0
M  V30 3876 H 354.766 -2.3708 1.82848 0
M  V30 3877 H 352.312 -1.13938 0.880569 0
M  V30 3878 H 354.265 -4.20787 0.227289 0
M  V30 3879 H 352.989 -3.22269 -0.530123 0
M  V30 3880 H 351.648 -3.2979 1.60106 0
M  V30 3881 H 351.296 -5.02709 -0.171173 0
M  V30 3882 H 350.996 -5.69338 1.45353 0
M  V30 3883 H 352.52 -6.07612 0.603282 0
M  V30 3884 H 353.934 -5.08524 2.64719 0
M  V30 3885 H 352.331 -4.92913 3.42282 0
M  V30 3886 H 353.401 -3.51819 3.33693 0
M  V30 3887 N 354.744 -0.972509 -1.24016 0
M  V30 3888 C 355.984 -0.644951 -1.93958 0
M  V30 3889 C 356.348 0.80559 -1.74282 0
M  V30 3890 O 357.549 1.2436 -2.38302 0
M  V30 3891 C 355.82 -1.01521 -3.42678 0
M  V30 3892 S 357.379 -0.802927 -4.31391 0
M  V30 3893 H 354.197 -0.236452 -0.670531 0
M  V30 3894 H 356.799 -1.25048 -1.50277 0
M  V30 3895 H 355.503 -2.06769 -3.54506 0
M  V30 3896 H 355.034 -0.400648 -3.91355 0
M  V30 3897 H 357.049 0.317256 -4.95185 0
M  V30 3898 N 356.222 1.38976 -0.743202 0
M  V30 3899 C 357.169 2.30544 -0.10861 0
M  V30 3900 C 358.139 1.49642 0.720869 0
M  V30 3901 O 359.324 1.78304 0.679142 0
M  V30 3902 C 356.464 3.36018 0.786496 0
M  V30 3903 C 355.577 4.31963 -0.0564849 0
M  V30 3904 C 354.712 5.24506 0.840657 0
M  V30 3905 C 353.751 6.121 -0.00658363 0
M  V30 3906 N 352.888 6.96973 0.846943 0
M  V30 3907 H 357.728 2.8424 -0.895088 0
M  V30 3908 H 355.265 1.3995 -0.453048 0
M  V30 3909 H 357.223 3.95768 1.31999 0
M  V30 3910 H 355.853 2.83758 1.53887 0
M  V30 3911 H 354.905 3.73763 -0.707492 0
M  V30 3912 H 356.217 4.93703 -0.711229 0
M  V30 3913 H 355.371 5.89322 1.4417 0
M  V30 3914 H 354.11 4.63107 1.52916 0
M  V30 3915 H 353.115 5.46289 -0.620366 0
M  V30 3916 H 354.34 6.75565 -0.691992 0
M  V30 3917 H 352.286 6.38133 1.52059 0
M  V30 3918 H 352.203 7.5559 0.248864 0
M  V30 3919 H 353.471 7.6621 1.43328 0
M  V30 3920 N 357.7 0.491464 1.49741 0
M  V30 3921 C 358.948 -0.0563141 2.02022 0
M  V30 3922 C 359.269 -1.38363 1.37407 0
M  V30 3923 O 358.539 -1.88702 0.526166 0
M  V30 3924 H 357.119 -0.0238014 0.746621 0
M  V30 3925 H 359.781 0.646533 1.83864 0
M  V30 3926 H 358.877 -0.192967 3.11503 0
M  V30 3927 N 359.178 -1.55987 0.224894 0
M  V30 3928 C 360.408 -2.02489 -0.41007 0
M  V30 3929 C 360.816 -1.10391 -1.53657 0
M  V30 3930 O 360.159 -0.106458 -1.83391 0
M  V30 3931 C 360.221 -3.45319 -0.999757 0
M  V30 3932 C 359.885 -4.56999 -0.00827976 0
M  V30 3933 C 360.882 -5.13812 0.793314 0
M  V30 3934 C 358.567 -5.02176 0.111442 0
M  V30 3935 C 360.561 -6.14276 1.7013 0
M  V30 3936 C 358.248 -6.02477 1.02296 0
M  V30 3937 C 359.246 -6.58403 1.81643 0
M  V30 3938 O 358.934 -7.56751 2.71262 0
M  V30 3939 H 358.666 -0.667915 -0.104235 0
M  V30 3940 H 361.22 -2.0257 0.339782 0
M  V30 3941 H 359.45 -3.42318 -1.79876 0
M  V30 3942 H 361.139 -3.7545 -1.54248 0
M  V30 3943 H 361.905 -4.79756 0.711288 0
M  V30 3944 H 357.784 -4.58323 -0.49605 0
M  V30 3945 H 361.328 -6.57854 2.32107 0
M  V30 3946 H 357.225 -6.35954 1.10599 0
M  V30 3947 H 357.993 -7.74286 2.65375 0
M  V30 3948 N 360.656 0.0484629 -1.57525 0
M  V30 3949 C 362.067 0.597486 -1.76881 0
M  V30 3950 C 362.418 1.76664 -0.853475 0
M  V30 3951 O 361.543 2.16357 -0.0433656 0
M  V30 3952 C 362.138 1.09066 -3.20765 0
M  V30 3953 C 360.697 1.58535 -3.41385 0
M  V30 3954 C 359.844 0.514868 -2.72478 0
M  V30 3955 H 362.795 -0.177758 -1.57701 0
M  V30 3956 H 362.816 1.95875 -3.2621 0
M  V30 3957 H 362.328 0.239521 -3.8736 0
M  V30 3958 H 360.429 2.45898 -2.79937 0
M  V30 3959 H 360.542 1.64622 -4.49929 0
M  V30 3960 H 358.906 0.965407 -2.35695 0
M  V30 3961 H 359.689 -0.32648 -3.41744 0
M  V30 3962 N 362.134 1.5431 0.320358 0
M  V30 3963 C 363.359 1.76954 1.08175 0
M  V30 3964 C 363.784 0.518193 1.80821 0
M  V30 3965 O 363.142 -0.530411 1.73368 0
M  V30 3966 C 363.19 2.96451 2.05303 0
M  V30 3967 O 362.294 2.68221 3.13259 0
M  V30 3968 H 361.635 0.586275 0.311733 0
M  V30 3969 H 364.165 2.01342 0.363676 0
M  V30 3970 H 364.175 3.23887 2.48116 0
M  V30 3971 H 362.85 3.87196 1.51829 0
M  V30 3972 H 361.427 2.51744 2.75099 0
M  V30 3973 N 363.613 -0.582584 1.46437 0
M  V30 3974 C 364.523 -1.71949 1.59595 0
M  V30 3975 C 365.539 -1.67264 0.479443 0
M  V30 3976 O 366.715 -1.87171 0.743579 0
M  V30 3977 C 363.78 -3.08452 1.58298 0
M  V30 3978 C 362.841 -3.244 2.81182 0
M  V30 3979 C 362.074 -4.54391 2.79937 0
M  V30 3980 O 362.297 -5.38287 1.8869 0
M  V30 3981 O 361.231 -4.73588 3.71481 0
M  V30 3982 H 365.057 -1.63795 2.55744 0
M  V30 3983 H 362.642 -0.749643 1.29231 0
M  V30 3984 H 364.524 -3.89732 1.60271 0
M  V30 3985 H 363.199 -3.17043 0.653094 0
M  V30 3986 H 362.106 -2.42613 2.84763 0
M  V30 3987 H 363.439 -3.20699 3.7338 0
M  V30 3988 N 365.091 -1.34144 -0.827227 0
M  V30 3989 C 366.338 -1.26258 -1.58319 0
M  V30 3990 C 366.666 0.168595 -1.93768 0
M  V30 3991 O 365.921 1.12877 -1.59866 0
M  V30 3992 C 366.22 -2.09464 -2.89585 0
M  V30 3993 C 365.886 -3.58521 -2.73448 0
M  V30 3994 C 364.548 -3.99155 -2.68754 0
M  V30 3995 C 366.9 -4.53189 -2.57428 0
M  V30 3996 C 364.228 -5.32656 -2.45957 0
M  V30 3997 C 366.58 -5.86864 -2.36163 0
M  V30 3998 C 365.244 -6.26667 -2.29879 0
M  V30 3999 H 364.514 -0.462013 -0.579332 0
M  V30 4000 H 367.161 -1.65845 -0.95748 0
M  V30 4001 H 365.466 -1.62692 -3.56425 0
M  V30 4002 H 367.163 -2.00712 -3.47154 0
M  V30 4003 H 363.753 -3.26264 -2.77939 0
M  V30 4004 H 367.937 -4.22696 -2.60081 0
M  V30 4005 H 363.193 -5.62519 -2.39546 0
M  V30 4006 H 367.367 -6.59813 -2.22754 0
M  V30 4007 H 364.994 -7.30049 -2.11975 0
M  V30 4008 N 366.569 1.04691 -1.17803 0
M  V30 4009 C 367.794 1.81984 -0.994813 0
M  V30 4010 C 368.219 1.82586 0.452112 0
M  V30 4011 O 367.577 1.23854 1.324 0
M  V30 4012 C 367.625 3.2575 -1.54659 0
M  V30 4013 O 366.729 4.05267 -0.763728 0
M  V30 4014 H 366.07 0.562483 -0.352857 0
M  V30 4015 H 368.6 1.3189 -1.56417 0
M  V30 4016 H 368.61 3.76541 -1.57102 0
M  V30 4017 H 367.285 3.24627 -2.59981 0
M  V30 4018 H 365.862 3.63972 -0.811108 0
M  V30 4019 N 368.047 0.979072 1.23499 0
M  V30 4020 C 369.275 0.665202 1.95915 0
M  V30 4021 C 369.69 -0.767571 1.72493 0
M  V30 4022 O 369.047 -1.51635 1.01554 0
M  V30 4023 C 369.098 0.944438 3.48945 0
M  V30 4024 O 368.819 2.3209 3.71572 0
M  V30 4025 C 370.32 0.646336 4.38563 0
M  V30 4026 H 367.54 0.247218 0.623798 0
M  V30 4027 H 370.084 1.31009 1.57025 0
M  V30 4028 H 368.239 0.345575 3.85856 0
M  V30 4029 H 368.653 2.40957 4.65876 0
M  V30 4030 H 370.127 0.892091 5.44744 0
M  V30 4031 H 370.604 -0.419575 4.37191 0
M  V30 4032 H 371.21 1.22562 4.07258 0
M  V30 4033 N 369.525 -1.3858 0.750561 0
M  V30 4034 C 370.755 -2.04175 0.31564 0
M  V30 4035 C 371.163 -1.56726 -1.05989 0
M  V30 4036 O 370.506 -0.734225 -1.68389 0
M  V30 4037 C 370.568 -3.58585 0.256389 0
M  V30 4038 C 370.232 -4.29077 1.57296 0
M  V30 4039 C 371.229 -4.54656 2.52159 0
M  V30 4040 C 368.914 -4.67324 1.84156 0
M  V30 4041 C 370.908 -5.17512 3.72103 0
M  V30 4042 C 368.595 -5.29905 3.04374 0
M  V30 4043 C 369.593 -5.54933 3.98168 0
M  V30 4044 O 369.281 -6.16212 5.16273 0
M  V30 4045 H 369.013 -0.662742 0.133226 0
M  V30 4046 H 371.567 -1.78313 1.01948 0
M  V30 4047 H 369.797 -3.83406 -0.503677 0
M  V30 4048 H 371.486 -4.05628 -0.148612 0
M  V30 4049 H 372.252 -4.25539 2.32683 0
M  V30 4050 H 368.131 -4.47191 1.11988 0
M  V30 4051 H 371.675 -5.36963 4.45327 0
M  V30 4052 H 367.572 -5.58444 3.23745 0
M  V30 4053 H 368.34 -6.34701 5.16815 0
M  V30 4054 N 371.003 -0.499398 -1.49478 0
M  V30 4055 C 371.933 0.269244 -2.31943 0
M  V30 4056 C 372.914 0.964054 -1.40143 0
M  V30 4057 O 374.099 0.955767 -1.69052 0
M  V30 4058 C 371.229 1.33504 -3.20615 0
M  V30 4059 C 370.183 0.760202 -4.21195 0
M  V30 4060 C 369.509 1.9264 -4.98792 0
M  V30 4061 C 370.809 -0.247661 -5.21712 0
M  V30 4062 H 372.503 -0.419082 -2.96452 0
M  V30 4063 H 370.049 -0.202988 -1.42562 0
M  V30 4064 H 372.002 1.88048 -3.77115 0
M  V30 4065 H 370.726 2.05253 -2.54045 0
M  V30 4066 H 369.385 0.23653 -3.65836 0
M  V30 4067 H 369.033 2.63154 -4.28671 0
M  V30 4068 H 368.733 1.54785 -5.66847 0
M  V30 4069 H 370.257 2.4762 -5.58137 0
M  V30 4070 H 371.671 0.209579 -5.72917 0
M  V30 4071 H 370.068 -0.541962 -5.97648 0
M  V30 4072 H 371.138 -1.16409 -4.7072 0
M  V30 4073 N 372.481 1.55866 -0.233164 0
M  V30 4074 C 373.429 2.22176 0.68851 0
M  V30 4075 C 374.423 1.20487 1.19076 0
M  V30 4076 O 375.629 1.38536 1.14925 0
M  V30 4077 H 372.004 0.712511 0.240483 0
M  V30 4078 H 373.975 2.98212 0.105935 0
M  V30 4079 C 372.724 2.92446 1.88071 0
M  V30 4080 H 372.047 3.70458 1.50337 0
M  V30 4081 H 373.487 3.42226 2.50314 0
M  V30 4082 C 371.946 1.95555 2.74335 0
M  V30 4083 O 372.476 1.47986 3.73447 0
M  V30 4084 N 370.682 1.62953 2.40613 0
M  V30 4085 H 370.229 2.01831 1.60069 0
M  V30 4086 H 370.187 0.983886 2.98609 0
M  V30 4087 N 373.959 -0.0401083 1.57549 0
M  V30 4088 C 375.206 -0.733125 1.88763 0
M  V30 4089 C 375.534 -1.75946 0.829058 0
M  V30 4090 O 374.789 -1.94949 -0.171323 0
M  V30 4091 C 375.088 -1.44902 3.26708 0
M  V30 4092 C 374.754 -0.559707 4.47413 0
M  V30 4093 C 373.416 -0.314731 4.8017 0
M  V30 4094 C 375.768 0.0549743 5.21171 0
M  V30 4095 C 373.096 0.553886 5.8408 0
M  V30 4096 C 375.448 0.911229 6.26003 0
M  V30 4097 C 374.112 1.16577 6.57241 0
M  V30 4098 H 373.382 -0.268269 0.690733 0
M  V30 4099 H 376.029 0.00679408 1.91499 0
M  V30 4100 H 374.334 -2.26197 3.1991 0
M  V30 4101 H 376.031 -1.99058 3.48105 0
M  V30 4102 H 372.621 -0.760793 4.21794 0
M  V30 4103 H 376.805 -0.121344 4.96152 0
M  V30 4104 H 372.061 0.759518 6.06664 0
M  V30 4105 H 376.235 1.3941 6.82303 0
M  V30 4106 H 373.862 1.84058 7.37582 0
M  V30 4107 N 375.437 -1.54477 -0.31217 0
M  V30 4108 C 376.677 -1.74958 -1.05684 0
M  V30 4109 C 377.041 -0.518414 -1.84869 0
M  V30 4110 O 378.242 -0.600759 -2.62001 0
M  V30 4111 C 376.513 -2.99656 -1.94785 0
M  V30 4112 S 378.072 -3.4109 -2.76049 0
M  V30 4113 H 374.89 -0.615104 -0.356606 0
M  V30 4114 H 377.492 -1.92669 -0.331514 0
M  V30 4115 H 376.196 -3.87397 -1.35468 0
M  V30 4116 H 375.727 -2.845 -2.71704 0
M  V30 4117 H 377.742 -2.97283 -3.97287 0
M  V30 4118 N 376.915 0.57481 -1.46744 0
M  V30 4119 C 378.331 0.898981 -1.31873 0
M  V30 4120 C 378.531 1.99313 -0.29605 0
M  V30 4121 O 377.587 2.50728 0.298621 0
M  V30 4122 C 378.9 1.30886 -2.7072 0
M  V30 4123 C 380.448 1.42127 -2.78871 0
M  V30 4124 C 380.923 1.86478 -4.18318 0
M  V30 4125 N 382.414 1.93658 -4.20774 0
M  V30 4126 C 383.149 2.29267 -5.2557 0
M  V30 4127 N 382.645 2.63612 -6.40688 0
M  V30 4128 N 384.438 2.29889 -5.1294 0
M  V30 4129 H 376.589 -0.147839 -2.11885 0
M  V30 4130 H 378.852 -0.00347013 -0.947994 0
M  V30 4131 H 378.558 0.578853 -3.46904 0
M  V30 4132 H 378.432 2.26874 -3.01343 0
M  V30 4133 H 380.819 2.14213 -2.0297 0
M  V30 4134 H 380.9 0.443705 -2.51922 0
M  V30 4135 H 380.544 1.14968 -4.94717 0
M  V30 4136 H 380.474 2.85207 -4.42679 0
M  V30 4137 H 382.965 1.69574 -3.37718 0
M  V30 4138 H 383.278 2.89759 -7.16421 0
M  V30 4139 H 381.623 2.61232 -6.44036 0
M  V30 4140 H 384.814 2.02485 -4.22039 0
M  V30 4141 H 384.987 2.57312 -5.94722 0
M  V30 4142 N 378.394 1.34581 0.820102 0
M  V30 4143 C 379.619 1.30333 1.61332 0
M  V30 4144 C 380.044 -0.119339 1.87721 0
M  V30 4145 O 379.402 -1.08197 1.45475 0
M  V30 4146 C 379.45 2.10258 2.92957 0
M  V30 4147 O 378.554 1.47404 3.85157 0
M  V30 4148 H 377.895 0.447488 0.490561 0
M  V30 4149 H 380.425 1.77425 1.01889 0
M  V30 4150 H 380.435 2.21718 3.42498 0
M  V30 4151 H 379.11 3.13693 2.73074 0
M  V30 4152 H 377.687 1.44703 3.43679 0
M  V30 4153 N 379.872 -1.04064 1.18357 0
M  V30 4154 C 380.802 -2.14001 0.934113 0
M  V30 4155 C 381.783 -1.69616 -0.128186 0
M  V30 4156 O 382.968 -1.94185 0.0244093 0
M  V30 4157 C 380.098 -3.44253 0.459066 0
M  V30 4158 C 379.052 -4.02261 1.46185 0
M  V30 4159 C 378.378 -5.27992 0.844322 0
M  V30 4160 C 379.678 -4.38432 2.83856 0
M  V30 4161 H 381.372 -2.35127 1.85352 0
M  V30 4162 H 378.918 -1.12998 0.892604 0
M  V30 4163 H 380.871 -4.20522 0.271907 0
M  V30 4164 H 379.595 -3.22813 -0.495912 0
M  V30 4165 H 378.254 -3.28074 1.63595 0
M  V30 4166 H 377.902 -5.02862 -0.117845 0
M  V30 4167 H 377.602 -5.67765 1.51384 0
M  V30 4168 H 379.126 -6.06938 0.667693 0
M  V30 4169 H 380.54 -5.05688 2.70098 0
M  V30 4170 H 378.937 -4.89254 3.47491 0
M  V30 4171 H 380.007 -3.4826 3.37406 0
M  V30 4172 N 381.35 -0.985608 -1.22978 0
M  V30 4173 C 382.766 -0.695104 -1.43668 0
M  V30 4174 C 382.966 0.736866 -1.87543 0
M  V30 4175 O 382.022 1.50868 -2.02473 0
M  V30 4176 C 383.335 -1.69447 -2.48412 0
M  V30 4177 C 384.883 -1.70909 -2.62219 0
M  V30 4178 C 385.358 -2.6969 -3.70178 0
M  V30 4179 N 386.849 -2.6824 -3.77626 0
M  V30 4180 C 387.584 -3.41339 -4.60733 0
M  V30 4181 N 387.08 -4.24015 -5.4789 0
M  V30 4182 N 388.873 -3.30079 -4.54977 0
M  V30 4183 H 381.024 -1.91054 -0.928016 0
M  V30 4184 H 383.287 -0.823553 -0.469536 0
M  V30 4185 H 382.993 -2.7188 -2.23102 0
M  V30 4186 H 382.867 -1.48147 -3.46889 0
M  V30 4187 H 385.254 -0.691785 -2.86877 0
M  V30 4188 H 385.335 -1.96276 -1.6404 0
M  V30 4189 H 384.979 -3.71566 -3.46268 0
M  V30 4190 H 384.909 -2.41595 -4.67909 0
M  V30 4191 H 387.4 -2.08243 -3.15346 0
M  V30 4192 H 387.713 -4.76636 -6.08308 0
M  V30 4193 H 386.058 -4.28104 -5.47496 0
M  V30 4194 H 389.249 -2.64937 -3.85909 0
M  V30 4195 H 389.422 -3.87308 -5.19516 0
M  V30 4196 N 382.828 1.3818 -0.7579 0
M  V30 4197 C 384.075 2.00019 -0.315985 0
M  V30 4198 C 384.403 1.60163 1.10355 0
M  V30 4199 O 383.658 0.83264 1.77103 0
M  V30 4200 C 383.957 3.55252 -0.391218 0
M  V30 4201 C 383.623 4.14834 -1.76702 0
M  V30 4202 C 382.285 4.30821 -2.14353 0
M  V30 4203 C 384.637 4.47658 -2.66931 0
M  V30 4204 C 381.965 4.76928 -3.41696 0
M  V30 4205 C 384.317 4.95184 -3.93669 0
M  V30 4206 C 382.981 5.09377 -4.31383 0
M  V30 4207 H 382.251 0.731923 -0.115627 0
M  V30 4208 H 384.898 1.65161 -0.969223 0
M  V30 4209 H 383.203 3.90273 0.34558 0
M  V30 4210 H 384.9 4.00988 -0.030805 0
M  V30 4211 H 381.49 4.02808 -1.46435 0
M  V30 4212 H 385.674 4.34904 -2.39106 0
M  V30 4213 H 380.93 4.86103 -3.70829 0
M  V30 4214 H 385.104 5.19551 -4.63724 0
M  V30 4215 H 382.731 5.44865 -5.30119 0
M  V30 4216 N 384.306 0.507319 1.49211 0
M  V30 4217 C 385.583 -0.0982702 1.95353 0
M  V30 4218 C 385.963 -1.53516 1.449 0
M  V30 4219 O 385.311 -2.18594 0.66551 0
M  V30 4220 C 385.521 -0.00440283 3.49 0
M  V30 4221 C 386.869 -0.175147 4.24239 0
M  V30 4222 O 387.893 -0.0792891 3.56112 0
M  V30 4223 O 386.752 -0.37276 5.45227 0
M  V30 4224 H 383.846 -0.0918236 0.821887 0
M  V30 4225 H 386.392 0.570307 1.5983 0
M  V30 4226 H 385.164 0.997402 3.78375 0
M  V30 4227 H 384.787 -0.712845 3.91158 0
M  V30 4228 N 385.784 -1.5574 0.241426 0
M  V30 4229 C 387.061 -1.90704 -0.434881 0
M  V30 4230 C 387.441 -1.16145 -1.76277 0
M  V30 4231 O 386.789 -0.277152 -2.26813 0
M  V30 4232 C 386.999 -3.43657 -0.608343 0
M  V30 4233 C 388.347 -4.14806 -0.906725 0
M  V30 4234 O 389.371 -3.49366 -0.694408 0
M  V30 4235 O 388.23 -5.30548 -1.31075 0
M  V30 4236 H 385.324 -0.793592 -0.23268 0
M  V30 4237 H 387.87 -1.67288 0.285086 0
M  V30 4238 H 386.642 -3.89927 0.327505 0
M  V30 4239 H 386.265 -3.72918 -1.37906 0
M  V30 4240 N 387.262 0.0317525 -1.57568 0
M  V30 4241 C 388.209 1.0332 -2.06382 0
M  V30 4242 C 389.179 1.36082 -0.952414 0
M  V30 4243 O 390.364 1.46466 -1.2228 0
M  V30 4244 C 387.504 2.32989 -2.54578 0
M  V30 4245 C 386.617 2.0641 -3.79498 0
M  V30 4246 C 385.752 3.2993 -4.16317 0
M  V30 4247 C 384.791 2.98893 -5.34162 0
M  V30 4248 N 383.928 4.14857 -5.66426 0
M  V30 4249 H 388.768 0.609982 -2.9169 0
M  V30 4250 H 386.305 0.289573 -1.44222 0
M  V30 4251 H 388.263 3.0875 -2.80587 0
M  V30 4252 H 386.893 2.73039 -1.7219 0
M  V30 4253 H 385.945 1.21158 -3.6059 0
M  V30 4254 H 387.257 1.79513 -4.65378 0
M  V30 4255 H 386.411 4.1406 -4.4344 0
M  V30 4256 H 385.15 3.59938 -3.29083 0
M  V30 4257 H 384.155 2.13164 -5.06795 0
M  V30 4258 H 385.38 2.70165 -6.23047 0
M  V30 4259 H 383.326 4.44821 -4.82151 0
M  V30 4260 H 383.243 3.91374 -6.4681 0
M  V30 4261 H 384.511 4.99868 -5.98124 0
M  V30 4262 N 388.74 1.54641 0.303973 0
M  V30 4263 C 390.151 1.64811 0.877163 0
M  V30 4264 C 390.502 0.554838 1.88191 0
M  V30 4265 O 389.627 -0.309033 2.14182 0
M  V30 4266 C 390.222 2.9876 1.59775 0
M  V30 4267 C 388.781 3.11061 2.11938 0
M  V30 4268 C 387.928 2.60479 0.951097 0
M  V30 4269 H 390.879 1.58493 0.0810486 0
M  V30 4270 H 390.9 2.90017 2.46314 0
M  V30 4271 H 390.412 3.7831 0.866226 0
M  V30 4272 H 388.513 2.36225 2.88146 0
M  V30 4273 H 388.626 4.17171 2.35595 0
M  V30 4274 H 386.99 2.16859 1.33583 0
M  V30 4275 H 387.773 3.42504 0.233581 0
M  V30 4276 N 390.218 -0.567019 1.47046 0
M  V30 4277 C 391.495 -1.3276 1.43646 0
M  V30 4278 C 391.875 -2.1071 0.128186 0
M  V30 4279 O 391.223 -2.10441 -0.890326 0
M  V30 4280 C 391.433 -2.2404 2.67595 0
M  V30 4281 C 392.781 -2.85372 3.14401 0
M  V30 4282 O 393.805 -2.34346 2.68254 0
M  V30 4283 O 392.664 -3.78091 3.946 0
M  V30 4284 H 389.758 -0.597293 0.571988 0
M  V30 4285 H 392.304 -0.586735 1.59234 0
M  V30 4286 H 391.076 -1.65975 3.54356 0
M  V30 4287 H 390.699 -3.05439 2.54544 0
M  V30 4288 N 391.696 -1.35014 -0.812953 0
M  V30 4289 C 392.926 -1.30841 -1.59888 0
M  V30 4290 C 393.334 0.117576 -1.88834 0
M  V30 4291 O 392.677 1.07807 -1.48739 0
M  V30 4292 C 392.739 -2.0412 -2.95931 0
M  V30 4293 C 392.403 -3.53336 -2.89832 0
M  V30 4294 C 393.4 -4.48052 -2.63714 0
M  V30 4295 C 391.085 -3.95894 -3.0915 0
M  V30 4296 C 393.079 -5.833 -2.56982 0
M  V30 4297 C 390.766 -5.31239 -3.0204 0
M  V30 4298 C 391.764 -6.24754 -2.75991 0
M  V30 4299 O 391.452 -7.57617 -2.68833 0
M  V30 4300 H 391.184 -0.451215 -0.50337 0
M  V30 4301 H 393.738 -1.78354 -1.01877 0
M  V30 4302 H 391.968 -1.51235 -3.559 0
M  V30 4303 H 393.657 -1.93107 -3.57022 0
M  V30 4304 H 394.423 -4.16492 -2.48515 0
M  V30 4305 H 390.302 -3.23495 -3.28438 0
M  V30 4306 H 393.846 -6.56263 -2.36569 0
M  V30 4307 H 389.743 -5.62415 -3.16796 0
M  V30 4308 H 390.511 -7.67469 -2.84487 0
M  V30 4309 N 393.175 1.03435 -1.18907 0
M  V30 4310 C 394.4 1.80919 -1.01406 0
M  V30 4311 C 394.825 1.83055 0.432721 0
M  V30 4312 O 394.183 1.25252 1.31079 0
M  V30 4313 C 394.231 3.24091 -1.58105 0
M  V30 4314 O 393.335 4.04434 -0.806669 0
M  V30 4315 H 392.676 0.558709 -0.358803 0
M  V30 4316 H 395.206 1.30223 -1.57807 0
M  V30 4317 H 395.216 3.74853 -1.61087 0
M  V30 4318 H 393.891 3.21851 -2.6341 0
M  V30 4319 H 392.468 3.63091 -0.849666 0
M  V30 4320 N 394.653 0.992116 1.22453 0
M  V30 4321 C 395.883 0.684949 1.94915 0
M  V30 4322 C 396.291 -0.754292 1.73514 0
M  V30 4323 O 395.634 -1.52056 1.03076 0
M  V30 4324 C 395.696 0.910054 3.47791 0
M  V30 4325 C 395.36 2.33363 3.92926 0
M  V30 4326 C 396.357 3.31308 4.00663 0
M  V30 4327 C 394.042 2.66785 4.25595 0
M  V30 4328 C 396.036 4.6075 4.40441 0
M  V30 4329 C 393.723 3.96446 4.65053 0
M  V30 4330 C 394.721 4.9324 4.72444 0
M  V30 4331 O 394.409 6.20584 5.1101 0
M  V30 4332 H 394.141 0.25258 0.62704 0
M  V30 4333 H 396.695 1.32939 1.56577 0
M  V30 4334 H 394.925 0.208443 3.86138 0
M  V30 4335 H 396.614 0.598257 4.01467 0
M  V30 4336 H 397.38 3.0682 3.75615 0
M  V30 4337 H 393.259 1.92148 4.19047 0
M  V30 4338 H 396.803 5.363 4.46126 0
M  V30 4339 H 392.7 4.20724 4.89552 0
M  V30 4340 H 393.468 6.24509 5.29085 0
M  V30 4341 N 396.131 -1.37776 0.765217 0
M  V30 4342 C 397.061 -2.32945 0.160953 0
M  V30 4343 C 398.042 -1.55454 -0.690516 0
M  V30 4344 O 399.227 -1.83721 -0.629318 0
M  V30 4345 C 396.357 -3.39669 -0.724031 0
M  V30 4346 C 395.311 -4.27992 0.0256173 0
M  V30 4347 C 394.637 -5.25673 -0.978383 0
M  V30 4348 C 395.937 -5.08309 1.20082 0
M  V30 4349 H 397.631 -2.83728 0.955969 0
M  V30 4350 H 395.177 -1.36416 0.461149 0
M  V30 4351 H 397.13 -4.05219 -1.15652 0
M  V30 4352 H 395.854 -2.87396 -1.5515 0
M  V30 4353 H 394.513 -3.63964 0.438812 0
M  V30 4354 H 394.161 -4.69682 -1.80022 0
M  V30 4355 H 393.861 -5.85625 -0.481378 0
M  V30 4356 H 395.385 -5.94098 -1.40995 0
M  V30 4357 H 396.799 -5.67034 0.845307 0
M  V30 4358 H 395.196 -5.77554 1.62947 0
M  V30 4359 H 396.266 -4.41365 2.00811 0
M  V30 4360 N 397.609 -0.515225 -1.4894 0
M  V30 4361 C 399.025 -0.172099 -1.58669 0
M  V30 4362 C 399.225 1.32405 -1.51892 0
M  V30 4363 O 398.281 2.10116 -1.40027 0
M  V30 4364 C 399.594 -0.761533 -2.90897 0
M  V30 4365 C 401.142 -0.728926 -3.04394 0
M  V30 4366 C 401.617 -1.29667 -4.39261 0
M  V30 4367 N 403.108 -1.25799 -4.4579 0
M  V30 4368 C 403.843 -1.66733 -5.48623 0
M  V30 4369 N 403.339 -2.15327 -6.58488 0
M  V30 4370 N 405.132 -1.58061 -5.39419 0
M  V30 4371 H 397.283 -1.48778 -1.51588 0
M  V30 4372 H 399.546 -0.617968 -0.718901 0
M  V30 4373 H 399.252 -1.81136 -3.01468 0
M  V30 4374 H 399.126 -0.230106 -3.76497 0
M  V30 4375 H 401.513 0.312098 -2.93445 0
M  V30 4376 H 401.594 -1.29766 -2.20442 0
M  V30 4377 H 401.238 -2.33655 -4.50963 0
M  V30 4378 H 401.168 -0.703752 -5.21876 0
M  V30 4379 H 403.659 -0.902102 -3.66975 0
M  V30 4380 H 403.972 -2.44594 -7.33071 0
M  V30 4381 H 402.317 -2.19311 -6.59491 0
M  V30 4382 H 405.508 -1.19906 -4.52482 0
M  V30 4383 H 405.681 -1.90284 -6.19432 0
M  V30 4384 N 399.087 1.5561 -0.249682 0
M  V30 4385 C 400.019 2.18834 0.681496 0
M  V30 4386 C 401.032 1.16546 1.1367 0
M  V30 4387 O 402.221 1.43397 1.06299 0
M  V30 4388 C 399.321 2.77992 1.9384 0
M  V30 4389 C 398.494 4.05725 1.63419 0
M  V30 4390 C 397.553 4.49174 2.74096 0
M  V30 4391 O 396.579 5.15492 2.41364 0
M  V30 4392 N 397.781 4.17191 4.03649 0
M  V30 4393 H 400.546 2.9937 0.140514 0
M  V30 4394 H 398.107 1.6175 -0.0697541 0
M  V30 4395 H 400.099 3.04015 2.67127 0
M  V30 4396 H 398.669 2.01596 2.38909 0
M  V30 4397 H 397.889 3.87261 0.736358 0
M  V30 4398 H 399.177 4.88999 1.40562 0
M  V30 4399 H 398.575 3.63955 4.33074 0
M  V30 4400 H 397.132 4.48043 4.73393 0
M  V30 4401 N 400.565 -0.0233959 1.57583 0
M  V30 4402 C 401.495 -1.02162 2.09965 0
M  V30 4403 C 402.476 -1.3735 1.00344 0
M  V30 4404 O 403.661 -1.46135 1.27899 0
M  V30 4405 C 400.791 -2.32081 2.58371 0
M  V30 4406 C 399.745 -2.1112 3.72307 0
M  V30 4407 C 399.071 -3.46848 4.06941 0
M  V30 4408 C 400.371 -1.49276 5.00514 0
M  V30 4409 H 402.065 -0.585557 2.93618 0
M  V30 4410 H 399.611 -0.280218 1.41247 0
M  V30 4411 H 401.564 -3.02249 2.93639 0
M  V30 4412 H 400.288 -2.77758 1.71808 0
M  V30 4413 H 398.947 -1.43384 3.37397 0
M  V30 4414 H 398.595 -3.90184 3.17436 0
M  V30 4415 H 398.295 -3.33646 4.83688 0
M  V30 4416 H 399.819 -4.18369 4.44747 0
M  V30 4417 H 401.233 -2.09368 5.33702 0
M  V30 4418 H 399.63 -1.46632 5.8191 0
M  V30 4419 H 400.7 -0.459217 4.82721 0
M  V30 4420 N 402.043 -1.548 -0.295768 0
M  V30 4421 C 403.29 -1.74329 -1.03032 0
M  V30 4422 C 403.618 -0.531915 -1.87085 0
M  V30 4423 O 402.873 0.486052 -1.89568 0
M  V30 4424 C 403.172 -2.98797 -1.961 0
M  V30 4425 C 402.838 -4.32356 -1.2798 0
M  V30 4426 C 401.5 -4.68661 -1.09135 0
M  V30 4427 C 403.852 -5.15128 -0.793243 0
M  V30 4428 C 401.18 -5.85312 -0.403269 0
M  V30 4429 C 403.532 -6.32488 -0.118854 0
M  V30 4430 C 402.196 -6.6745 0.0815043 0
M  V30 4431 H 401.466 -0.637916 -0.37702 0
M  V30 4432 H 404.113 -1.8906 -0.304696 0
M  V30 4433 H 402.418 -2.78869 -2.75207 0
M  V30 4434 H 404.115 -3.11102 -2.53015 0
M  V30 4435 H 400.705 -4.03808 -1.43655 0
M  V30 4436 H 404.889 -4.87575 -0.92653 0
M  V30 4437 H 400.145 -6.1094 -0.237098 0
M  V30 4438 H 404.319 -6.95892 0.266035 0
M  V30 4439 H 401.946 -7.57695 0.616685 0
M  V30 4440 N 403.521 0.559213 -1.47345 0
M  V30 4441 C 404.937 0.884943 -1.32819 0
M  V30 4442 C 405.137 1.98988 -0.317173 0
M  V30 4443 O 404.193 2.51031 0.272011 0
M  V30 4444 C 405.506 1.28007 -2.72093 0
M  V30 4445 C 407.054 1.39161 -2.80363 0
M  V30 4446 C 407.529 1.82031 -4.20272 0
M  V30 4447 N 409.02 1.89185 -4.22804 0
M  V30 4448 C 409.755 2.2368 -5.27973 0
M  V30 4449 N 409.251 2.56802 -6.43447 0
M  V30 4450 N 411.044 2.24436 -5.15349 0
M  V30 4451 H 403.195 -0.170304 -2.11716 0
M  V30 4452 H 405.458 -0.0135247 -0.947904 0
M  V30 4453 H 405.164 0.542027 -3.47498 0
M  V30 4454 H 405.038 2.23665 -3.03733 0
M  V30 4455 H 407.425 2.12048 -2.05231 0
M  V30 4456 H 407.506 0.41696 -2.52379 0
M  V30 4457 H 407.15 1.09715 -4.95908 0
M  V30 4458 H 407.08 2.80495 -4.45679 0
M  V30 4459 H 409.571 1.65982 -3.39497 0
M  V30 4460 H 409.884 2.82144 -7.19454 0
M  V30 4461 H 408.229 2.54387 -6.46771 0
M  V30 4462 H 411.42 1.97998 -4.24163 0
M  V30 4463 H 411.593 2.50989 -5.97418 0
M  V30 4464 N 404.999 1.35443 0.805782 0
M  V30 4465 C 405.947 1.28465 1.93906 0
M  V30 4466 C 406.941 0.17943 1.68447 0
M  V30 4467 O 408.147 0.345459 1.76654 0
M  V30 4468 H 404.522 0.399528 0.637088 0
M  V30 4469 H 406.493 2.24206 1.96912 0
M  V30 4470 C 405.242 1.07432 3.30687 0
M  V30 4471 H 404.565 1.91716 3.50835 0
M  V30 4472 H 406.005 1.06591 4.10383 0
M  V30 4473 C 404.464 -0.22179 3.36169 0
M  V30 4474 O 404.994 -1.21731 3.82811 0
M  V30 4475 N 403.2 -0.260841 2.89427 0
M  V30 4476 H 402.747 0.549884 2.51663 0
M  V30 4477 H 402.705 -1.12777 2.93477 0
M  V30 4478 N 406.477 -1.02803 1.19454 0
M  V30 4479 C 407.407 -2.12999 0.956758 0
M  V30 4480 C 408.388 -1.69743 -0.110188 0
M  V30 4481 O 409.573 -1.94148 0.0450038 0
M  V30 4482 C 406.703 -3.43746 0.495553 0
M  V30 4483 C 405.657 -4.00688 1.50443 0
M  V30 4484 C 404.983 -5.27067 0.900275 0
M  V30 4485 C 406.283 -4.35397 2.8849 0
M  V30 4486 H 407.977 -2.33148 1.87836 0
M  V30 4487 H 405.523 -1.12045 0.904539 0
M  V30 4488 H 407.476 -4.2021 0.316493 0
M  V30 4489 H 406.2 -3.23321 -0.461646 0
M  V30 4490 H 404.859 -3.2632 1.67065 0
M  V30 4491 H 404.507 -5.02959 -0.064503 0
M  V30 4492 H 404.207 -5.66127 1.57397 0
M  V30 4493 H 405.731 -6.06196 0.73203 0
M  V30 4494 H 407.145 -5.02795 2.75446 0
M  V30 4495 H 405.542 -4.85541 3.52661 0
M  V30 4496 H 406.612 -3.44662 3.41081 0
M  V30 4497 N 407.956 -0.998596 -1.21925 0
M  V30 4498 C 409.203 -0.677663 -1.90824 0
M  V30 4499 C 409.531 0.790905 -1.77693 0
M  V30 4500 O 408.786 1.58817 -1.14349 0
M  V30 4501 C 409.085 -1.03648 -3.42041 0
M  V30 4502 C 408.751 -2.49825 -3.75364 0
M  V30 4503 C 407.413 -2.8977 -3.8417 0
M  V30 4504 C 409.765 -3.44545 -3.91073 0
M  V30 4505 C 407.093 -4.23412 -4.06127 0
M  V30 4506 C 409.445 -4.77853 -4.14535 0
M  V30 4507 C 408.109 -5.17531 -4.21566 0
M  V30 4508 H 407.379 -0.247975 -0.698276 0
M  V30 4509 H 410.026 -1.25584 -1.44571 0
M  V30 4510 H 408.331 -0.376457 -3.89987 0
M  V30 4511 H 410.028 -0.766113 -3.93614 0
M  V30 4512 H 406.618 -2.17866 -3.69097 0
M  V30 4513 H 410.802 -3.14853 -3.83642 0
M  V30 4514 H 406.058 -4.53734 -4.09799 0
M  V30 4515 H 410.232 -5.51189 -4.25633 0
M  V30 4516 H 407.859 -6.21102 -4.38333 0
M  V30 4517 N 409.434 1.37368 -0.772513 0
M  V30 4518 C 410.384 2.27613 -0.132823 0
M  V30 4519 C 411.368 1.46138 0.673247 0
M  V30 4520 O 412.56 1.68686 0.536095 0
M  V30 4521 C 409.689 3.35122 0.744864 0
M  V30 4522 C 408.775 4.24044 -0.0690771 0
M  V30 4523 N 409.166 4.93355 -1.1151 0
M  V30 4524 C 407.464 4.45731 0.154782 0
M  V30 4525 C 408.165 5.59 -1.60917 0
M  V30 4526 N 407.141 5.35737 -0.921222 0
M  V30 4527 H 410.943 2.78675 -0.933681 0
M  V30 4528 H 408.457 1.50494 -0.610342 0
M  V30 4529 H 410.454 3.98683 1.21892 0
M  V30 4530 H 409.114 2.85616 1.54446 0
M  V30 4531 H 410.125 4.95785 -1.49726 0
M  V30 4532 H 406.802 4.07096 0.926224 0
M  V30 4533 H 408.192 6.24395 -2.48153 0
M  V30 4534 N 410.912 0.523116 1.48665 0
M  V30 4535 C 412.328 0.180511 1.58576 0
M  V30 4536 C 412.528 -1.31597 1.52592 0
M  V30 4537 O 411.584 -2.0937 1.4114 0
M  V30 4538 C 412.897 0.776949 2.90489 0
M  V30 4539 C 414.445 0.745058 3.04003 0
M  V30 4540 C 414.92 1.31995 4.38567 0
M  V30 4541 N 416.411 1.28162 4.45117 0
M  V30 4542 C 417.146 1.6964 5.47731 0
M  V30 4543 N 416.642 2.18816 6.57337 0
M  V30 4544 N 418.435 1.6092 5.38573 0
M  V30 4545 H 410.586 1.4958 1.50797 0
M  V30 4546 H 412.849 0.621772 0.715614 0
M  V30 4547 H 412.555 1.82732 3.00503 0
M  V30 4548 H 412.429 0.25007 3.7637 0
M  V30 4549 H 414.816 -0.296532 2.93606 0
M  V30 4550 H 414.897 1.30933 2.1975 0
M  V30 4551 H 414.541 2.36043 4.49718 0
M  V30 4552 H 414.471 0.731418 5.21496 0
M  V30 4553 H 416.962 0.92155 3.66491 0
M  V30 4554 H 417.275 2.48478 7.31764 0
M  V30 4555 H 415.62 2.22805 6.58318 0
M  V30 4556 H 418.811 1.22304 4.5184 0
M  V30 4557 H 418.984 1.93567 6.18414 0
M  V30 4558 N 412.39 -1.55475 0.257931 0
M  V30 4559 C 413.322 -2.19192 -0.669881 0
M  V30 4560 C 414.335 -1.17148 -1.1305 0
M  V30 4561 O 415.524 -1.43959 -1.05537 0
M  V30 4562 C 412.624 -2.79016 -1.92363 0
M  V30 4563 C 411.797 -4.06586 -1.61265 0
M  V30 4564 C 410.856 -4.50622 -2.7171 0
M  V30 4565 O 409.882 -5.16765 -2.38627 0
M  V30 4566 N 411.084 -4.19325 -4.01431 0
M  V30 4567 H 413.849 -2.99441 -0.124635 0
M  V30 4568 H 411.41 -1.6171 0.0783311 0
M  V30 4569 H 413.402 -3.05427 -2.65511 0
M  V30 4570 H 411.972 -2.0286 -2.37837 0
M  V30 4571 H 411.192 -3.87646 -0.715811 0
M  V30 4572 H 412.48 -4.89737 -1.37967 0
M  V30 4573 H 411.878 -3.66247 -4.31138 0
M  V30 4574 H 410.435 -4.50547 -4.7101 0
M  V30 4575 N 413.868 0.0150385 -1.57593 0
M  V30 4576 C 415.116 0.701613 -1.8953 0
M  V30 4577 C 415.437 1.75139 -0.857396 0
M  V30 4578 O 414.707 1.95607 0.107194 0
M  V30 4579 H 413.287 0.26213 -0.699498 0
M  V30 4580 H 415.949 -0.0223304 -1.94887 0
M  V30 4581 H 415.045 1.18236 -2.88837 0
M  V30 4582 N 415.346 1.54954 0.287554 0
M  V30 4583 C 416.593 1.74873 1.02106 0
M  V30 4584 C 416.921 0.541829 1.86801 0
M  V30 4585 O 416.176 -0.475992 1.89823 0
M  V30 4586 C 416.475 2.99833 1.94512 0
M  V30 4587 C 416.141 4.33029 1.25686 0
M  V30 4588 C 414.803 4.69233 1.06649 0
M  V30 4589 C 417.155 5.15542 0.765913 0
M  V30 4590 C 414.483 5.85518 0.372222 0
M  V30 4591 C 416.835 6.32542 0.0853101 0
M  V30 4592 C 415.499 6.67398 -0.1169 0
M  V30 4593 H 414.769 0.639906 0.373632 0
M  V30 4594 H 417.416 1.89219 0.294665 0
M  V30 4595 H 415.721 2.80325 2.73725 0
M  V30 4596 H 417.418 3.1244 2.51361 0
M  V30 4597 H 414.008 4.04564 1.41512 0
M  V30 4598 H 418.192 4.88059 0.90066 0
M  V30 4599 H 413.448 6.11057 0.204695 0
M  V30 4600 H 417.622 6.95741 -0.302936 0
M  V30 4601 H 415.249 7.57357 -0.656859 0
M  V30 4602 N 416.824 -0.551391 1.4764 0
M  V30 4603 C 418.049 -1.33837 1.58437 0
M  V30 4604 C 418.474 -1.866 0.237063 0
M  V30 4605 O 417.832 -1.6328 -0.787994 0
M  V30 4606 C 417.88 -2.48014 2.61766 0
M  V30 4607 O 416.984 -3.50419 2.1744 0
M  V30 4608 H 416.325 -0.397299 0.532024 0
M  V30 4609 H 418.855 -0.665759 1.93465 0
M  V30 4610 H 418.865 -2.94503 2.82369 0
M  V30 4611 H 417.54 -2.08969 3.5959 0
M  V30 4612 H 416.117 -3.10196 2.06961 0
M  V30 4613 N 418.302 -1.35869 -0.798587 0
M  V30 4614 C 419.532 -1.32529 -1.58491 0
M  V30 4615 C 419.94 0.0975405 -1.88948 0
M  V30 4616 O 419.283 1.06224 -1.49874 0
M  V30 4617 C 419.345 -2.07247 -2.9375 0
M  V30 4618 C 419.009 -3.56391 -2.86068 0
M  V30 4619 C 420.006 -4.50824 -2.58947 0
M  V30 4620 C 417.691 -3.9915 -3.04933 0
M  V30 4621 C 419.685 -5.85993 -2.5078 0
M  V30 4622 C 417.372 -5.34413 -2.96389 0
M  V30 4623 C 418.37 -6.27646 -2.69349 0
M  V30 4624 O 418.058 -7.60426 -2.60782 0
M  V30 4625 H 417.79 -0.456529 -0.498556 0
M  V30 4626 H 420.344 -1.79425 -0.999799 0
M  V30 4627 H 418.574 -1.55001 -3.54276 0
M  V30 4628 H 420.263 -1.96883 -3.54954 0
M  V30 4629 H 421.029 -4.19104 -2.44084 0
M  V30 4630 H 416.908 -3.26961 -3.24989 0
M  V30 4631 H 420.452 -6.58735 -2.29595 0
M  V30 4632 H 416.349 -5.65743 -3.10813 0
M  V30 4633 H 417.117 -7.70444 -2.76331 0
M  V30 4634 N 419.78 1.02168 -1.19998 0
M  V30 4635 C 421.057 1.72816 -0.916191 0
M  V30 4636 C 421.437 2.03081 0.576325 0
M  V30 4637 O 420.785 1.69122 1.53656 0
M  V30 4638 C 420.995 2.9997 -1.78378 0
M  V30 4639 C 422.343 3.73336 -2.02251 0
M  V30 4640 O 423.367 3.09914 -1.75589 0
M  V30 4641 O 422.226 4.87371 -2.47249 0
M  V30 4642 H 419.32 0.752924 -0.342103 0
M  V30 4643 H 421.866 1.08062 -1.30846 0
M  V30 4644 H 420.638 2.73888 -2.79466 0
M  V30 4645 H 420.261 3.72464 -1.39126 0
M  V30 4646 N 421.258 1.00505 1.21394 0
M  V30 4647 C 422.488 0.705584 1.94178 0
M  V30 4648 C 422.896 -0.735846 1.74304 0
M  V30 4649 O 422.239 -1.50954 1.04683 0
M  V30 4650 C 422.301 0.94689 3.46806 0
M  V30 4651 C 421.965 2.37517 3.90429 0
M  V30 4652 C 422.962 3.35539 3.97127 0
M  V30 4653 C 420.647 2.71284 4.22742 0
M  V30 4654 C 422.641 4.65395 4.3553 0
M  V30 4655 C 420.328 4.01356 4.60822 0
M  V30 4656 C 421.326 4.98223 4.67186 0
M  V30 4657 O 421.014 6.25969 5.04399 0
M  V30 4658 H 420.746 0.259216 0.624326 0
M  V30 4659 H 423.3 1.34592 1.55159 0
M  V30 4660 H 421.53 0.249386 3.85895 0
M  V30 4661 H 423.219 0.640804 4.0081 0
M  V30 4662 H 423.985 3.10786 3.7234 0
M  V30 4663 H 419.864 1.96581 4.16985 0
M  V30 4664 H 423.408 5.41002 4.40412 0
M  V30 4665 H 419.305 4.25893 4.85063 0
M  V30 4666 H 420.073 6.30085 5.22431 0
M  V30 4667 N 422.737 -1.36956 0.779787 0
M  V30 4668 C 423.983 -1.99787 0.348281 0
M  V30 4669 C 424.316 -1.61756 -1.07465 0
M  V30 4670 O 423.591 -0.867639 -1.74075 0
M  V30 4671 C 423.874 -3.56597 0.50104 0
M  V30 4672 C 423.727 -4.04513 1.96697 0
M  V30 4673 C 425.046 -4.40008 -0.0898097 0
M  V30 4674 H 422.165 -0.725796 0.128022 0
M  V30 4675 H 424.807 -1.62514 0.984331 0
M  V30 4676 H 422.957 -3.88479 -0.0404347 0
M  V30 4677 H 424.629 -3.83161 2.56876 0
M  V30 4678 H 422.872 -3.56408 2.47297 0
M  V30 4679 H 423.543 -5.1352 2.02486 0
M  V30 4680 H 426.019 -4.14431 0.372293 0
M  V30 4681 H 424.895 -5.4888 0.0471605 0
M  V30 4682 H 425.156 -4.26035 -1.18096 0
M  V30 4683 N 424.215 -0.530993 -1.48385 0
M  V30 4684 C 425.462 0.0027373 -2.025 0
M  V30 4685 C 425.79 1.34186 -1.40799 0
M  V30 4686 O 425.045 1.88 -0.543544 0
M  V30 4687 C 425.344 0.172742 -3.56982 0
M  V30 4688 C 425.01 -1.09215 -4.37473 0
M  V30 4689 C 423.672 -1.43881 -4.59186 0
M  V30 4690 C 426.024 -1.93153 -4.84088 0
M  V30 4691 C 423.352 -2.62381 -5.2476 0
M  V30 4692 C 425.704 -3.10833 -5.50968 0
M  V30 4693 C 424.368 -3.45843 -5.70919 0
M  V30 4694 H 423.638 0.00100165 -0.740999 0
M  V30 4695 H 426.285 -0.697219 -1.78357 0
M  V30 4696 H 424.59 0.955473 -3.79971 0
M  V30 4697 H 426.287 0.600642 -3.96476 0
M  V30 4698 H 422.877 -0.812177 -4.20834 0
M  V30 4699 H 427.061 -1.67683 -4.67115 0
M  V30 4700 H 422.317 -2.89707 -5.38405 0
M  V30 4701 H 426.491 -3.7618 -5.86056 0
M  V30 4702 H 424.118 -4.37764 -6.21503 0
M  V30 4703 N 425.693 1.55336 -0.266172 0
M  V30 4704 C 426.97 1.91372 0.404486 0
M  V30 4705 C 427.35 1.18935 1.74407 0
M  V30 4706 O 426.698 0.3132 2.26343 0
M  V30 4707 C 426.908 3.44581 0.553593 0
M  V30 4708 C 428.256 4.16196 0.840618 0
M  V30 4709 O 429.28 3.50426 0.638739 0
M  V30 4710 O 428.139 5.32567 1.22618 0
M  V30 4711 H 425.233 0.797194 0.220025 0
M  V30 4712 H 427.779 1.66813 -0.311664 0
M  V30 4713 H 426.551 3.89357 -0.389498 0
M  V30 4714 H 426.174 3.75065 1.31955 0
M  V30 4715 N 427.171 -0.0066808 1.57599 0
M  V30 4716 C 428.417 -0.68835 1.91398 0
M  V30 4717 C 428.772 -1.7175 0.86716 0
M  V30 4718 O 428.065 -1.91215 -0.121475 0
M  V30 4719 C 428.259 -1.37939 3.29708 0
M  V30 4720 C 428.088 -0.418689 4.47747 0
M  V30 4721 C 426.858 -0.031526 5.0529 0
M  V30 4722 C 429.056 0.312301 5.13351 0
M  V30 4723 N 427.038 0.928088 6.06844 0
M  V30 4724 C 428.409 1.12682 6.09674 0
M  V30 4725 C 430.464 0.376853 4.96472 0
M  V30 4726 C 429.167 2 6.90936 0
M  V30 4727 C 431.193 1.23723 5.78314 0
M  V30 4728 C 430.555 2.03962 6.74225 0
M  V30 4729 H 426.654 -0.225292 0.748844 0
M  V30 4730 H 429.238 0.0520973 1.9463 0
M  V30 4731 H 427.409 -2.09017 3.27363 0
M  V30 4732 H 429.141 -2.01522 3.50957 0
M  V30 4733 H 425.896 -0.398485 4.71921 0
M  V30 4734 H 426.32 1.40307 6.62301 0
M  V30 4735 H 430.962 -0.22921 4.22178 0
M  V30 4736 H 428.68 2.61676 7.64559 0
M  V30 4737 H 432.266 1.291 5.67296 0
M  V30 4738 H 431.146 2.69461 7.36451 0
M  V30 4739 N 428.649 -1.55105 -0.279332 0
M  V30 4740 C 429.597 -1.88333 -1.36505 0
M  V30 4741 C 430.591 -0.759043 -1.51443 0
M  V30 4742 O 431.797 -0.943312 -1.53302 0
M  V30 4743 H 428.172 -0.59766 -0.456406 0
M  V30 4744 H 430.143 -2.79041 -1.05728 0
M  V30 4745 C 428.892 -2.16628 -2.7197 0
M  V30 4746 H 428.215 -3.02624 -2.61264 0
M  V30 4747 H 429.655 -2.43803 -3.46895 0
M  V30 4748 C 428.114 -0.971807 -3.22579 0
M  V30 4749 O 428.644 -0.203228 -4.01186 0
M  V30 4750 N 426.85 -0.771238 -2.80179 0
M  V30 4751 H 426.397 -1.39792 -2.1637 0
M  V30 4752 H 426.355 0.0263667 -3.14389 0
M  V30 4753 N 430.127 0.543554 -1.4793 0
M  V30 4754 C 431.06 1.66556 -1.55995 0
M  V30 4755 C 432.038 1.57315 -0.411205 0
M  V30 4756 O 433.222 1.7798 -0.620922 0
M  V30 4757 C 430.349 3.04883 -1.47527 0
M  V30 4758 C 429.395 3.32526 -2.67074 0
M  V30 4759 S 430.228 3.20282 -4.29162 0
M  V30 4760 C 431.384 4.61079 -4.23269 0
M  V30 4761 H 431.617 1.59462 -2.50917 0
M  V30 4762 H 429.15 0.725456 -1.36296 0
M  V30 4763 H 431.108 3.84665 -1.43328 0
M  V30 4764 H 429.769 3.09429 -0.539665 0
M  V30 4765 H 428.962 4.33403 -2.5725 0
M  V30 4766 H 428.564 2.60389 -2.68466 0
M  V30 4767 H 430.856 5.52318 -3.92365 0
M  V30 4768 H 431.799 4.75959 -5.24279 0
M  V30 4769 H 432.207 4.39766 -3.5393 0
M  V30 4770 N 431.605 1.3629 0.791371 0
M  V30 4771 C 432.535 1.33137 1.91825 0
M  V30 4772 C 433.516 0.203168 1.68882 0
M  V30 4773 O 434.701 0.400509 1.90025 0
M  V30 4774 C 431.831 1.11793 3.28816 0
M  V30 4775 C 430.785 2.21417 3.66277 0
M  V30 4776 C 430.111 1.85218 5.01596 0
M  V30 4777 C 431.411 3.63489 3.75064 0
M  V30 4778 H 433.105 2.2743 1.9472 0
M  V30 4779 H 430.651 1.09479 0.935437 0
M  V30 4780 H 432.604 1.08222 4.07266 0
M  V30 4781 H 431.328 0.139501 3.26302 0
M  V30 4782 H 429.987 2.2411 2.90121 0
M  V30 4783 H 429.635 0.859544 4.95602 0
M  V30 4784 H 429.335 2.58611 5.27631 0
M  V30 4785 H 430.859 1.832 5.82469 0
M  V30 4786 H 432.273 3.63034 4.43711 0
M  V30 4787 H 430.67 4.35771 4.12582 0
M  V30 4788 H 431.74 3.98536 2.76219 0
M  V30 4789 N 433.083 -1.0153 1.20538 0
M  V30 4790 C 434.03 -2.10098 0.955383 0
M  V30 4791 C 435 -1.65702 -0.114878 0
M  V30 4792 O 436.185 -1.90776 0.0301118 0
M  V30 4793 C 433.325 -3.41236 0.514969 0
M  V30 4794 C 432.438 -3.99102 1.65353 0
M  V30 4795 C 431.573 -5.18306 1.16329 0
M  V30 4796 C 430.612 -5.68258 2.27485 0
M  V30 4797 N 429.749 -6.78722 1.7967 0
M  V30 4798 H 434.589 -2.30818 1.88486 0
M  V30 4799 H 432.126 -1.13189 0.939499 0
M  V30 4800 H 434.084 -4.16504 0.240935 0
M  V30 4801 H 432.714 -3.20585 -0.377512 0
M  V30 4802 H 431.766 -3.20918 2.04245 0
M  V30 4803 H 433.078 -4.32177 2.49047 0
M  V30 4804 H 432.232 -6.00782 0.845302 0
M  V30 4805 H 430.971 -4.86799 0.296254 0
M  V30 4806 H 429.976 -4.84385 2.60099 0
M  V30 4807 H 431.201 -6.01798 3.14667 0
M  V30 4808 H 429.147 -6.49042 0.95295 0
M  V30 4809 H 429.064 -7.10996 2.56944 0
M  V30 4810 H 430.332 -7.64759 1.50875 0
M  V30 4811 N 434.561 -1.01147 -1.20859 0
M  V30 4812 C 435.808 -0.697865 -1.90095 0
M  V30 4813 C 436.136 0.772014 -1.78522 0
M  V30 4814 O 435.391 1.57595 -1.16027 0
M  V30 4815 C 435.69 -1.0727 -3.40922 0
M  V30 4816 C 435.356 -2.53792 -3.72693 0
M  V30 4817 C 434.018 -2.93829 -3.81075 0
M  V30 4818 C 436.37 -3.48674 -3.87397 0
M  V30 4819 C 433.698 -4.27696 -4.01613 0
M  V30 4820 C 436.05 -4.82223 -4.09444 0
M  V30 4821 C 434.714 -5.21973 -4.16054 0
M  V30 4822 H 433.984 -0.255367 -0.695607 0
M  V30 4823 H 436.631 -1.27111 -1.43231 0
M  V30 4824 H 434.936 -0.417799 -3.89566 0
M  V30 4825 H 436.633 -0.807818 -3.92779 0
M  V30 4826 H 433.223 -2.21768 -3.66765 0
M  V30 4827 H 437.407 -3.18904 -3.80281 0
M  V30 4828 H 432.663 -4.58055 -4.04964 0
M  V30 4829 H 436.837 -5.55672 -4.19763 0
M  V30 4830 H 434.464 -6.25717 -4.31721 0
M  V30 4831 N 436.039 1.36541 -0.78704 0
M  V30 4832 C 437.287 1.98911 -0.357633 0
M  V30 4833 C 437.608 1.62778 1.07371 0
M  V30 4834 O 436.878 0.900612 1.73971 0
M  V30 4835 H 435.458 0.735734 -0.129246 0
M  V30 4836 H 438.12 1.66776 -1.00855 0
M  V30 4837 H 437.216 3.08874 -0.447549 0
M  V30 4838 N 437.518 0.538854 1.48102 0
M  V30 4839 C 438.481 -0.208395 2.28251 0
M  V30 4840 C 439.481 -0.859656 1.35892 0
M  V30 4841 O 440.671 -0.71834 1.58699 0
M  V30 4842 C 437.803 -1.30252 3.15035 0
M  V30 4843 H 438.996 0.495407 2.9578 0
M  V30 4844 H 436.549 0.295112 1.53489 0
M  V30 4845 H 437.284 -2.0393 2.52157 0
M  V30 4846 H 437.069 -0.840551 3.82985 0
M  V30 4847 H 438.559 -1.82787 3.75471 0
M  V30 4848 N 438.996 -1.55193 0.274407 0
M  V30 4849 C 439.959 -2.212 -0.600279 0
M  V30 4850 C 440.959 -1.18963 -1.08187 0
M  V30 4851 O 442.149 -1.43873 -0.982158 0
M  V30 4852 C 439.281 -2.87739 -1.82809 0
M  V30 4853 H 440.474 -2.9989 -0.0239682 0
M  V30 4854 H 438.027 -1.5628 0.0250192 0
M  V30 4855 H 438.762 -2.13058 -2.44493 0
M  V30 4856 H 438.547 -3.62658 -1.49069 0
M  V30 4857 H 440.037 -3.38171 -2.45011 0
M  V30 4858 N 440.474 -0.00167713 -1.576 0
M  V30 4859 C 441.89 0.354422 -1.55615 0
M  V30 4860 C 442.09 1.74679 -1.00447 0
M  V30 4861 O 441.146 2.4428 -0.639022 0
M  V30 4862 C 442.459 0.22812 -2.99833 0
M  V30 4863 C 444.007 0.302934 -3.11531 0
M  V30 4864 C 444.482 0.205737 -4.57538 0
M  V30 4865 N 445.973 0.263584 -4.62449 0
M  V30 4866 C 446.708 0.211742 -5.73009 0
M  V30 4867 N 446.204 0.110399 -6.92712 0
M  V30 4868 N 447.997 0.263729 -5.61481 0
M  V30 4869 H 440.148 -0.912498 -1.918 0
M  V30 4870 H 442.411 -0.349928 -0.881053 0
M  V30 4871 H 442.117 -0.729934 -3.44042 0
M  V30 4872 H 441.991 1.00951 -3.6344 0
M  V30 4873 H 444.378 1.25143 -2.67251 0
M  V30 4874 H 444.459 -0.508357 -2.50698 0
M  V30 4875 H 444.103 -0.739225 -5.02492 0
M  V30 4876 H 444.033 1.03554 -5.16318 0
M  V30 4877 H 446.524 0.343173 -3.76339 0
M  V30 4878 H 446.837 0.0767828 -7.72762 0
M  V30 4879 H 445.182 0.0760025 -6.94958 0
M  V30 4880 H 448.373 0.34111 -4.66855 0
M  V30 4881 H 448.546 0.219862 -6.47627 0
M  V30 4882 N 441.952 1.55251 0.271103 0
M  V30 4883 C 442.9 1.89054 1.35504 0
M  V30 4884 C 443.894 0.767064 1.51038 0
M  V30 4885 O 445.1 0.951429 1.528 0
M  V30 4886 H 441.475 0.600072 0.45323 0
M  V30 4887 H 443.446 2.79598 1.04247 0
M  V30 4888 C 442.195 2.18068 2.70817 0
M  V30 4889 H 441.518 3.04005 2.59656 0
M  V30 4890 H 442.958 2.4564 3.45597 0
M  V30 4891 C 441.417 0.988901 3.2206 0
M  V30 4892 O 441.947 0.224501 4.01072 0
M  V30 4893 N 440.153 0.786085 2.79766 0
M  V30 4894 H 439.7 1.40937 2.15626 0
M  V30 4895 H 439.658 -0.00969349 3.14399 0
M  V30 4896 N 443.43 -0.535701 1.48216 0
M  V30 4897 C 444.841 -1.11769 1.49548 0
M  V30 4898 C 445.192 -1.94442 0.26207 0
M  V30 4899 O 444.317 -2.06987 -0.631287 0
M  V30 4900 C 444.912 -2.03367 2.70975 0
M  V30 4901 C 443.471 -2.56795 2.75196 0
M  V30 4902 C 442.618 -1.33631 2.42977 0
M  V30 4903 H 445.569 -0.321232 1.55415 0
M  V30 4904 H 445.59 -2.87569 2.49167 0
M  V30 4905 H 445.102 -1.43169 3.60727 0
M  V30 4906 H 443.203 -3.20731 1.89638 0
M  V30 4907 H 443.316 -2.9632 3.76472 0
M  V30 4908 H 441.68 -1.6502 1.94012 0
M  V30 4909 H 442.463 -0.75194 3.34964 0
M  V30 4910 N 444.908 -1.36708 -0.784132 0
M  V30 4911 C 445.818 -1.3363 -1.92822 0
M  V30 4912 C 446.834 -0.237686 -1.72369 0
M  V30 4913 O 448.01 -0.470962 -1.95816 0
M  V30 4914 C 445.075 -1.13011 -3.27764 0
M  V30 4915 C 444.136 -2.32397 -3.60957 0
M  V30 4916 C 443.369 -2.12752 -4.89461 0
M  V30 4917 O 443.592 -1.10541 -5.59586 0
M  V30 4918 O 442.526 -3.00653 -5.21432 0
M  V30 4919 H 446.352 -2.29964 -1.98369 0
M  V30 4920 H 443.937 -1.1731 -0.925136 0
M  V30 4921 H 445.819 -1.03451 -4.08504 0
M  V30 4922 H 444.494 -0.19743 -3.23097 0
M  V30 4923 H 443.401 -2.47527 -2.80502 0
M  V30 4924 H 444.734 -3.2419 -3.70354 0
M  V30 4925 N 446.386 1.0089 -1.21074 0
M  V30 4926 C 447.663 1.71834 -0.934469 0
M  V30 4927 C 448.043 2.0368 0.554753 0
M  V30 4928 O 447.391 1.70742 1.51854 0
M  V30 4929 C 447.601 2.98061 -1.8155 0
M  V30 4930 C 448.949 3.7117 -2.06199 0
M  V30 4931 O 449.973 3.08034 -1.78867 0
M  V30 4932 O 448.832 4.84721 -2.52404 0
M  V30 4933 H 445.926 0.749253 -0.35007 0
M  V30 4934 H 448.472 1.06668 -1.31985 0
M  V30 4935 H 447.244 2.70908 -2.82355 0
M  V30 4936 H 446.867 3.70968 -1.43068 0
M  V30 4937 N 447.864 1.01787 1.20321 0
M  V30 4938 C 449.11 0.708985 1.90003 0
M  V30 4939 C 449.443 -0.759572 1.78729 0
M  V30 4940 O 448.718 -1.55198 1.17234 0
M  V30 4941 C 449.001 1.1469 3.41348 0
M  V30 4942 C 448.854 2.67586 3.61549 0
M  V30 4943 C 450.173 0.71915 4.34185 0
M  V30 4944 H 447.292 0.259034 0.689978 0
M  V30 4945 H 449.934 1.26584 1.41692 0
M  V30 4946 H 448.084 0.673128 3.82624 0
M  V30 4947 H 449.756 3.22826 3.29517 0
M  V30 4948 H 447.999 3.085 3.04976 0
M  V30 4949 H 448.67 2.93281 4.67643 0
M  V30 4950 H 451.146 1.12647 4.00562 0
M  V30 4951 H 450.022 1.05358 5.38694 0
M  V30 4952 H 450.283 -0.379111 4.40472 0
M  V30 4953 N 449.342 -1.36122 0.79427 0
M  V30 4954 C 450.619 -1.93398 0.292685 0
M  V30 4955 C 450.999 -1.72567 -1.21589 0
M  V30 4956 O 450.347 -1.08745 -2.00965 0
M  V30 4957 C 450.557 -3.42099 0.690614 0
M  V30 4958 C 451.905 -4.19231 0.673105 0
M  V30 4959 O 452.929 -3.50559 0.631389 0
M  V30 4960 O 451.788 -5.41732 0.720362 0
M  V30 4961 H 448.882 -0.823712 0.0736693 0
M  V30 4962 H 451.428 -1.45273 0.87714 0
M  V30 4963 H 450.2 -3.50938 1.73085 0
M  V30 4964 H 449.823 -3.97519 0.0803036 0
M  V30 4965 N 450.82 -0.546701 -1.47814 0
M  V30 4966 C 452.236 -0.205717 -1.58269 0
M  V30 4967 C 452.436 1.29153 -1.54667 0
M  V30 4968 O 451.492 2.07098 -1.44453 0
M  V30 4969 C 452.805 -0.823065 -2.89216 0
M  V30 4970 C 454.353 -0.793328 -3.02779 0
M  V30 4971 C 454.828 -1.38955 -4.36412 0
M  V30 4972 N 456.319 -1.35227 -4.43021 0
M  V30 4973 C 457.054 -1.78333 -5.44963 0
M  V30 4974 N 456.55 -2.29246 -6.53772 0
M  V30 4975 N 458.343 -1.69467 -5.35945 0
M  V30 4976 H 450.494 -1.5196 -1.48398 0
M  V30 4977 H 452.757 -0.633078 -0.705632 0
M  V30 4978 H 452.463 -1.8749 -2.97558 0
M  V30 4979 H 452.337 -0.309915 -3.75925 0
M  V30 4980 H 454.724 0.249784 -2.94041 0
M  V30 4981 H 454.805 -1.34412 -2.17639 0
M  V30 4982 H 454.449 -2.43168 -4.45906 0
M  V30 4983 H 454.379 -0.814291 -5.20266 0
M  V30 4984 H 456.87 -0.979739 -3.64979 0
M  V30 4985 H 457.183 -2.60089 -7.27718 0
M  V30 4986 H 455.528 -2.3325 -6.5469 0
M  V30 4987 H 458.719 -1.29477 -4.49837 0
M  V30 4988 H 458.892 -2.03381 -6.15256 0
M  V30 4989 N 452.299 1.55045 -0.282633 0
M  V30 4990 C 453.209 2.26491 0.61147 0
M  V30 4991 C 454.225 1.29348 1.16384 0
M  V30 4992 O 455.401 1.62298 1.19253 0
M  V30 4993 C 452.466 2.97779 1.77563 0
M  V30 4994 C 451.527 4.10418 1.25919 0
M  V30 4995 C 450.76 4.78297 2.36786 0
M  V30 4996 O 450.983 4.45426 3.56303 0
M  V30 4997 O 449.917 5.66089 2.04517 0
M  V30 4998 H 453.743 3.03683 0.0324615 0
M  V30 4999 H 451.328 1.49317 -0.0497576 0
M  V30 5000 H 453.21 3.42554 2.45427 0
M  V30 5001 H 451.885 2.23498 2.34159 0
M  V30 5002 H 450.792 3.70082 0.546797 0
M  V30 5003 H 452.125 4.86622 0.738887 0
M  V30 5004 N 453.777 0.010035 1.57597 0
M  V30 5005 C 455.193 -0.346164 1.55801 0
M  V30 5006 C 455.393 -1.74144 1.01371 0
M  V30 5007 O 454.449 -2.43938 0.651968 0
M  V30 5008 C 455.762 -0.212216 2.9995 0
M  V30 5009 C 457.31 -0.286409 3.11687 0
M  V30 5010 C 457.785 -0.18147 4.5764 0
M  V30 5011 N 459.276 -0.239056 4.62583 0
M  V30 5012 C 460.011 -0.181351 5.73113 0
M  V30 5013 N 459.507 -0.073661 6.92761 0
M  V30 5014 N 461.3 -0.233949 5.61613 0
M  V30 5015 H 453.451 0.922657 1.91313 0
M  V30 5016 H 455.714 0.354595 0.879185 0
M  V30 5017 H 455.42 0.748169 3.4365 0
M  V30 5018 H 455.294 -0.990224 3.6397 0
M  V30 5019 H 457.681 -1.23724 2.67911 0
M  V30 5020 H 457.762 0.521645 2.50425 0
M  V30 5021 H 457.406 0.765863 5.02093 0
M  V30 5022 H 457.336 -1.00814 5.1686 0
M  V30 5023 H 459.827 -0.32321 3.76515 0
M  V30 5024 H 460.14 -0.0358003 7.72792 0
M  V30 5025 H 458.485 -0.0391461 6.94989 0
M  V30 5026 H 461.676 -0.316347 4.6703 0
M  V30 5027 H 461.849 -0.185514 6.47734 0
M  V30 5028 N 455.255 -1.55392 -0.262866 0
M  V30 5029 C 456.671 -1.47459 -0.610582 0
M  V30 5030 C 456.871 -0.697031 -1.8906 0
M  V30 5031 O 455.927 -0.219952 -2.5154 0
M  V30 5032 C 457.24 -2.91751 -0.728131 0
M  V30 5033 C 458.788 -3.02027 -0.821517 0
M  V30 5034 C 459.263 -4.47594 -0.97076 0
M  V30 5035 N 460.754 -4.51465 -1.03603 0
M  V30 5036 C 461.489 -5.61326 -1.17049 0
M  V30 5037 N 460.985 -6.81032 -1.2715 0
M  V30 5038 N 462.778 -5.49089 -1.20239 0
M  V30 5039 H 454.929 -2.04395 0.577632 0
M  V30 5040 H 457.192 -0.927287 0.197086 0
M  V30 5041 H 456.898 -3.51413 0.142132 0
M  V30 5042 H 456.772 -3.4134 -1.6052 0
M  V30 5043 H 459.159 -2.42456 -1.68224 0
M  V30 5044 H 459.24 -2.55674 0.0803688 0
M  V30 5045 H 458.884 -5.07771 -0.114655 0
M  V30 5046 H 458.814 -4.91613 -1.88745 0
M  V30 5047 H 461.305 -3.6524 -0.96996 0
M  V30 5048 H 461.618 -7.60511 -1.37271 0
M  V30 5049 H 459.963 -6.83824 -1.24136 0
M  V30 5050 H 463.154 -4.54507 -1.11985 0
M  V30 5051 H 463.327 -6.34749 -1.30373 0
M  V30 5052 N 456.733 0.527833 -1.48498 0
M  V30 5053 C 457.643 1.65907 -1.65867 0
M  V30 5054 C 458.659 1.6537 -0.541192 0
M  V30 5055 O 459.835 1.84282 -0.812534 0
M  V30 5056 C 456.9 3.02364 -1.69637 0
M  V30 5057 C 455.961 3.1374 -2.93028 0
M  V30 5058 C 455.194 4.43688 -2.96609 0
M  V30 5059 O 455.417 5.30913 -2.08538 0
M  V30 5060 O 454.351 4.59475 -3.88802 0
M  V30 5061 H 458.177 1.5419 -2.61647 0
M  V30 5062 H 455.762 0.701163 -1.31924 0
M  V30 5063 H 457.644 3.83515 -1.74625 0
M  V30 5064 H 456.319 3.14401 -0.770312 0
M  V30 5065 H 455.226 2.31877 -2.93571 0
M  V30 5066 H 456.559 3.06621 -3.85026 0
M  V30 5067 N 458.211 1.37122 0.776871 0
M  V30 5068 C 459.161 1.28989 1.88005 0
M  V30 5069 C 460.145 0.178765 1.59904 0
M  V30 5070 O 461.337 0.412705 1.72121 0
M  V30 5071 C 458.466 1.09402 3.25402 0
M  V30 5072 C 457.552 2.25036 3.59471 0
M  V30 5073 N 457.943 3.50407 3.64759 0
M  V30 5074 C 456.241 2.17078 3.89607 0
M  V30 5075 C 456.942 4.26628 3.95428 0
M  V30 5076 N 455.918 3.55709 4.11062 0
M  V30 5077 H 459.72 2.2394 1.90337 0
M  V30 5078 H 457.234 1.30021 0.973052 0
M  V30 5079 H 459.231 1.01661 4.04315 0
M  V30 5080 H 457.891 0.153632 3.24336 0
M  V30 5081 H 458.902 3.8438 3.47091 0
M  V30 5082 H 455.579 1.31067 3.96393 0
M  V30 5083 H 456.969 5.35107 4.06338 0
M  V30 5084 N 459.689 -1.00246 1.21608 0
M  V30 5085 C 460.599 -2.12515 0.993709 0
M  V30 5086 C 461.615 -1.73913 -0.0549939 0
M  V30 5087 O 462.791 -2.00943 0.135619 0
M  V30 5088 C 459.856 -3.42083 0.563953 0
M  V30 5089 C 458.917 -3.94843 1.68516 0
M  V30 5090 C 458.15 -5.18226 1.27582 0
M  V30 5091 O 458.373 -5.70201 0.150506 0
M  V30 5092 O 457.307 -5.64497 2.0887 0
M  V30 5093 H 461.133 -2.34152 1.93407 0
M  V30 5094 H 458.718 -1.10891 1.00118 0
M  V30 5095 H 460.6 -4.20073 0.334194 0
M  V30 5096 H 459.275 -3.21828 -0.347665 0
M  V30 5097 H 458.182 -3.18068 1.96935 0
M  V30 5098 H 459.515 -4.19512 2.5743 0
M  V30 5099 N 461.167 -1.02423 -1.1978 0
M  V30 5100 C 462.583 -0.740459 -1.41384 0
M  V30 5101 C 462.783 0.676827 -1.89793 0
M  V30 5102 O 461.839 1.4435 -2.0717 0
M  V30 5103 C 463.152 -1.77264 -2.42895 0
M  V30 5104 C 464.7 -1.79165 -2.56649 0
M  V30 5105 C 465.175 -2.8133 -3.6141 0
M  V30 5106 N 466.666 -2.80118 -3.68901 0
M  V30 5107 C 467.401 -3.55824 -4.49641 0
M  V30 5108 N 466.897 -4.41231 -5.34123 0
M  V30 5109 N 468.69 -3.44387 -4.44246 0
M  V30 5110 H 460.841 -1.9391 -0.866764 0
M  V30 5111 H 463.104 -0.838074 -0.443098 0
M  V30 5112 H 462.81 -2.7884 -2.14339 0
M  V30 5113 H 462.684 -1.59108 -3.42001 0
M  V30 5114 H 465.071 -0.782702 -2.84531 0
M  V30 5115 H 465.152 -2.01396 -1.57713 0
M  V30 5116 H 464.796 -3.82394 -3.34271 0
M  V30 5117 H 464.726 -2.56359 -4.59986 0
M  V30 5118 H 467.217 -2.1817 -3.08562 0
M  V30 5119 H 467.53 -4.95747 -5.92836 0
M  V30 5120 H 465.875 -4.45306 -5.33599 0
M  V30 5121 H 469.066 -2.7708 -3.77285 0
M  V30 5122 H 469.239 -4.0364 -5.06931 0
M  V30 5123 N 462.645 1.35699 -0.801477 0
M  V30 5124 C 463.555 2.33661 -0.209691 0
M  V30 5125 C 464.571 1.6162 0.644591 0
M  V30 5126 O 465.747 1.93529 0.557545 0
M  V30 5127 C 462.812 3.40816 0.636033 0
M  V30 5128 C 461.873 4.28639 -0.238147 0
M  V30 5129 C 461.106 5.30676 0.567307 0
M  V30 5130 O 461.329 5.41174 1.8024 0
M  V30 5131 O 460.263 6.01887 -0.0391336 0
M  V30 5132 H 464.089 2.8606 -1.01996 0
M  V30 5133 H 461.674 1.38379 -0.563164 0
M  V30 5134 H 463.556 4.06301 1.11791 0
M  V30 5135 H 462.231 2.90696 1.42399 0
M  V30 5136 H 461.138 3.66152 -0.767044 0
M  V30 5137 H 462.471 4.82143 -0.989915 0
M  V30 5138 N 464.123 0.554532 1.47522 0
M  V30 5139 C 465.033 -0.197865 2.33764 0
M  V30 5140 C 466.049 -0.914576 1.48025 0
M  V30 5141 O 467.225 -0.884067 1.80959 0
M  V30 5142 C 464.29 -1.21628 3.24665 0
M  V30 5143 C 463.351 -0.507283 4.26292 0
M  V30 5144 C 462.584 -1.47718 5.1285 0
M  V30 5145 O 462.807 -2.7118 5.01814 0
M  V30 5146 O 461.741 -1.00313 5.93482 0
M  V30 5147 H 465.567 0.50949 2.99396 0
M  V30 5148 H 463.152 0.315176 1.46038 0
M  V30 5149 H 465.034 -1.80421 3.80823 0
M  V30 5150 H 463.709 -1.9056 2.61665 0
M  V30 5151 H 462.616 0.121778 3.73902 0
M  V30 5152 H 463.949 0.140544 4.91999 0
M  V30 5153 N 465.601 -1.54893 0.290851 0
M  V30 5154 C 467.017 -1.59476 -0.0628432 0
M  V30 5155 C 467.217 -1.30795 -1.5328 0
M  V30 5156 O 466.273 -1.07644 -2.28406 0
M  V30 5157 C 467.586 -2.98928 0.325962 0
M  V30 5158 C 469.134 -3.11799 0.273882 0
M  V30 5159 C 469.609 -4.53544 0.637359 0
M  V30 5160 N 471.1 -4.59433 0.589507 0
M  V30 5161 C 471.835 -5.67164 0.84335 0
M  V30 5162 N 471.331 -6.82975 1.16263 0
M  V30 5163 N 473.124 -5.56786 0.771091 0
M  V30 5164 H 465.275 -1.71798 1.24896 0
M  V30 5165 H 467.538 -0.801879 0.505663 0
M  V30 5166 H 467.244 -3.24805 1.34887 0
M  V30 5167 H 467.118 -3.75793 -0.325441 0
M  V30 5168 H 469.505 -2.85677 -0.739765 0
M  V30 5169 H 469.586 -2.37112 0.959766 0
M  V30 5170 H 469.23 -4.80394 1.64877 0
M  V30 5171 H 469.16 -5.26553 -0.0704866 0
M  V30 5172 H 471.651 -3.76245 0.353252 0
M  V30 5173 H 471.964 -7.61048 1.34257 0
M  V30 5174 H 470.309 -6.84552 1.20057 0
M  V30 5175 H 473.5 -4.65187 0.521383 0
M  V30 5176 H 473.673 -6.40664 0.972295 0
M  V30 5177 N 467.08 -0.0183926 -1.57589 0
M  V30 5178 C 468.013 1.00148 -2.0505 0
M  V30 5179 C 468.991 1.32387 -0.944058 0
M  V30 5180 O 470.175 1.44237 -1.21358 0
M  V30 5181 C 467.302 2.32435 -2.46357 0
M  V30 5182 C 466.348 2.15731 -3.67916 0
M  V30 5183 S 467.181 1.46613 -5.15039 0
M  V30 5184 C 468.337 2.80293 -5.59631 0
M  V30 5185 H 468.57 0.597429 -2.91235 0
M  V30 5186 H 466.103 0.193002 -1.53189 0
M  V30 5187 H 468.061 3.0849 -2.70822 0
M  V30 5188 H 466.722 2.69975 -1.60537 0
M  V30 5189 H 465.915 3.13502 -3.9463 0
M  V30 5190 H 465.517 1.4782 -3.43548 0
M  V30 5191 H 467.809 3.76557 -5.63215 0
M  V30 5192 H 468.752 2.58256 -6.59325 0
M  V30 5193 H 469.16 2.85047 -4.87246 0
M  V30 5194 N 468.558 1.5553 0.254621 0
M  V30 5195 C 469.806 1.7665 0.981793 0
M  V30 5196 C 470.127 0.580963 1.86145 0
M  V30 5197 O 469.397 -0.403537 1.91699 0
M  V30 5198 H 467.977 0.651475 0.365498 0
M  V30 5199 H 470.639 1.92958 0.274426 0
M  V30 5200 H 469.735 2.67486 1.60802 0
M  V30 5201 N 470.036 -0.519951 1.48776 0
M  V30 5202 C 470.968 -1.63973 1.60142 0
M  V30 5203 C 471.981 -1.55404 0.485117 0
M  V30 5204 O 473.17 -1.61682 0.756391 0
M  V30 5205 C 470.27 -3.02676 1.52449 0
M  V30 5206 C 469.443 -3.36624 2.79291 0
M  V30 5207 C 468.502 -4.54652 2.64912 0
M  V30 5208 O 467.528 -4.57374 3.38818 0
M  V30 5209 N 468.73 -5.53432 1.75195 0
M  V30 5210 H 471.495 -1.54656 2.56713 0
M  V30 5211 H 469.056 -0.707439 1.45626 0
M  V30 5212 H 471.048 -3.79525 1.4051 0
M  V30 5213 H 469.618 -3.06018 0.638125 0
M  V30 5214 H 468.838 -2.48855 3.0572 0
M  V30 5215 H 470.126 -3.56094 3.6342 0
M  V30 5216 H 469.524 -5.54018 1.14371 0
M  V30 5217 H 468.081 -6.29459 1.69189 0
M  V30 5218 N 471.514 -1.37532 -0.769588 0
M  V30 5219 C 472.444 -1.36172 -1.89682 0
M  V30 5220 C 473.425 -0.23001 -1.68538 0
M  V30 5221 O 474.61 -0.43069 -1.89364 0
M  V30 5222 C 471.74 -1.1701 -3.26995 0
M  V30 5223 C 470.694 -2.27216 -3.62708 0
M  V30 5224 C 470.02 -1.93174 -4.98586 0
M  V30 5225 C 471.32 -3.6941 -3.69234 0
M  V30 5226 H 473.014 -2.30499 -1.91078 0
M  V30 5227 H 470.56 -1.10953 -0.917902 0
M  V30 5228 H 472.513 -1.14688 -4.05493 0
M  V30 5229 H 471.237 -0.191395 -3.26039 0
M  V30 5230 H 469.896 -2.28697 -2.86519 0
M  V30 5231 H 469.544 -0.938281 -4.94171 0
M  V30 5232 H 469.244 -2.66973 -5.23449 0
M  V30 5233 H 470.768 -1.92443 -5.79481 0
M  V30 5234 H 472.182 -3.70047 -4.37879 0
M  V30 5235 H 470.579 -4.4228 -4.05597 0
M  V30 5236 H 471.649 -4.0288 -2.69844 0
M  V30 5237 N 472.992 0.995999 -1.22138 0
M  V30 5238 C 474.408 1.25917 -0.980667 0
M  V30 5239 C 474.608 1.98819 0.327604 0
M  V30 5240 O 473.664 2.29587 1.05101 0
M  V30 5241 C 474.977 2.07399 -2.17729 0
M  V30 5242 C 476.525 2.20594 -2.22052 0
M  V30 5243 C 477 3.05462 -3.41258 0
M  V30 5244 N 478.491 3.13049 -3.41401 0
M  V30 5245 C 479.226 3.78997 -4.30289 0
M  V30 5246 N 478.722 4.46899 -5.2939 0
M  V30 5247 N 480.515 3.75728 -4.18073 0
M  V30 5248 H 472.666 0.507158 -2.06256 0
M  V30 5249 H 474.929 0.28658 -0.903646 0
M  V30 5250 H 474.635 1.61191 -3.12586 0
M  V30 5251 H 474.509 3.08154 -2.17534 0
M  V30 5252 H 476.896 2.66017 -1.27745 0
M  V30 5253 H 476.977 1.1928 -2.26287 0
M  V30 5254 H 476.621 2.60739 -4.35864 0
M  V30 5255 H 476.551 4.06911 -3.34262 0
M  V30 5256 H 479.042 2.64721 -2.69688 0
M  V30 5257 H 479.355 4.94952 -5.935 0
M  V30 5258 H 477.7 4.45657 -5.33306 0
M  V30 5259 H 480.891 3.2184 -3.39907 0
M  V30 5260 H 481.064 4.26845 -4.87553 0
M  V30 5261 N 474.47 1.03057 1.19235 0
M  V30 5262 C 475.718 0.726581 1.88587 0
M  V30 5263 C 476.039 -0.747227 1.80115 0
M  V30 5264 O 475.309 -1.53849 1.21274 0
M  V30 5265 H 473.889 0.265768 0.698124 0
M  V30 5266 H 476.551 1.30516 1.44746 0
M  V30 5267 H 475.647 1.0224 2.94879 0
M  V30 5268 N 475.948 -1.35272 0.808662 0
M  V30 5269 C 477.173 -2.03477 0.401475 0
M  V30 5270 C 477.598 -1.60537 -0.980279 0
M  V30 5271 O 476.956 -0.78304 -1.63518 0
M  V30 5272 C 477.004 -3.57181 0.495354 0
M  V30 5273 O 476.108 -4.09474 -0.490397 0
M  V30 5274 H 475.449 -0.642561 0.167366 0
M  V30 5275 H 477.979 -1.72824 1.09512 0
M  V30 5276 H 477.989 -4.06356 0.365912 0
M  V30 5277 H 476.664 -3.87784 1.5032 0
M  V30 5278 H 475.241 -3.71516 -0.321023 0
M  V30 5279 N 477.426 -0.562348 -1.47226 0
M  V30 5280 C 478.389 0.172056 -2.28553 0
M  V30 5281 C 479.389 0.837928 -1.37242 0
M  V30 5282 O 480.579 0.693001 -1.59822 0
M  V30 5283 C 477.711 1.25223 -3.17068 0
M  V30 5284 H 478.904 -0.542401 -2.94954 0
M  V30 5285 H 476.457 -0.319493 -1.53 0
M  V30 5286 H 477.192 1.99892 -2.55369 0
M  V30 5287 H 476.977 0.779515 -3.84273 0
M  V30 5288 H 478.467 1.76791 -3.78332 0
M  V30 5289 N 478.904 1.54736 -0.299062 0
M  V30 5290 C 480.132 2.04512 0.313447 0
M  V30 5291 C 480.547 1.17643 1.47667 0
M  V30 5292 O 479.904 0.20164 1.81383 0
M  V30 5293 C 479.955 3.53171 0.771542 0
M  V30 5294 O 479.676 4.36736 -0.345379 0
M  V30 5295 C 481.177 4.18936 1.4494 0
M  V30 5296 H 478.397 0.667507 0.0683784 0
M  V30 5297 H 480.941 1.99752 -0.438129 0
M  V30 5298 H 479.096 3.58298 1.47314 0
M  V30 5299 H 479.51 5.24499 0.0109219 0
M  V30 5300 H 480.984 5.24482 1.72111 0
M  V30 5301 H 481.461 3.68554 2.38883 0
M  V30 5302 H 482.067 4.17879 0.791028 0
M  V30 5303 N 480.382 0.0267497 1.57577 0
M  V30 5304 C 481.798 -0.32962 1.56159 0
M  V30 5305 C 481.998 -1.73059 1.03213 0
M  V30 5306 O 481.054 -2.43233 0.677804 0
M  V30 5307 C 482.367 -0.18039 3.00158 0
M  V30 5308 C 483.915 -0.253334 3.11973 0
M  V30 5309 C 484.39 -0.132921 4.57807 0
M  V30 5310 N 485.881 -0.189979 4.6281 0
M  V30 5311 C 486.616 -0.120554 5.73273 0
M  V30 5312 N 486.112 -0.000180315 6.928 0
M  V30 5313 N 487.905 -0.174369 5.61829 0
M  V30 5314 H 480.056 0.942896 1.90324 0
M  V30 5315 H 482.319 0.3639 0.875375 0
M  V30 5316 H 482.025 0.784576 3.42837 0
M  V30 5317 H 481.899 -0.951565 3.65 0
M  V30 5318 H 484.286 -1.20876 2.69208 0
M  V30 5319 H 484.367 0.548177 2.49857 0
M  V30 5320 H 484.011 0.819073 5.01252 0
M  V30 5321 H 483.941 -0.953264 5.179 0
M  V30 5322 H 486.432 -0.283257 3.76837 0
M  V30 5323 H 486.745 0.0461666 7.72786 0
M  V30 5324 H 485.09 0.034569 6.94991 0
M  V30 5325 H 488.281 -0.266794 4.67339 0
M  V30 5326 H 488.454 -0.116802 6.47895 0
M  V30 5327 N 481.861 -1.55662 -0.24637 0
M  V30 5328 C 482.824 -1.89558 -1.28842 0
M  V30 5329 C 483.824 -0.772082 -1.41052 0
M  V30 5330 O 485.014 -1.04007 -1.39743 0
M  V30 5331 C 482.146 -2.12449 -2.66605 0
M  V30 5332 H 483.339 -2.82735 -1.00004 0
M  V30 5333 H 480.892 -1.48562 -0.485684 0
M  V30 5334 H 481.627 -1.21742 -3.00582 0
M  V30 5335 H 481.412 -2.94273 -2.59125 0
M  V30 5336 H 482.902 -2.39854 -3.41847 0
M  V30 5337 N 483.339 0.512053 -1.4905 0
M  V30 5338 C 484.269 1.62365 -1.67809 0
M  V30 5339 C 485.25 1.61737 -0.526809 0
M  V30 5340 O 486.435 1.78651 -0.761404 0
M  V30 5341 C 483.565 3.00895 -1.73435 0
M  V30 5342 C 482.519 3.16387 -2.88242 0
M  V30 5343 C 481.845 4.56157 -2.78971 0
M  V30 5344 C 483.145 2.97457 -4.29321 0
M  V30 5345 H 484.839 1.46921 -2.60873 0
M  V30 5346 H 482.385 0.705379 -1.2554 0
M  V30 5347 H 484.338 3.78549 -1.85145 0
M  V30 5348 H 483.062 3.17403 -0.769619 0
M  V30 5349 H 481.721 2.41155 -2.76116 0
M  V30 5350 H 481.369 4.69525 -1.8043 0
M  V30 5351 H 481.069 4.67465 -3.5602 0
M  V30 5352 H 482.593 5.35886 -2.92675 0
M  V30 5353 H 484.007 3.64888 -4.42187 0
M  V30 5354 H 482.404 3.20245 -5.07507 0
M  V30 5355 H 483.474 1.93692 -4.44535 0
M  V30 5356 N 484.817 1.37938 0.762283 0
M  V30 5357 C 486.228 1.30094 1.33912 0
M  V30 5358 C 486.579 -0.0472026 1.96143 0
M  V30 5359 O 485.704 -0.94917 1.94473 0
M  V30 5360 C 486.299 2.35592 2.43478 0
M  V30 5361 C 484.858 2.31353 2.96905 0
M  V30 5362 C 484.005 2.18919 1.70205 0
M  V30 5363 H 486.956 1.48423 0.561816 0
M  V30 5364 H 486.977 2.00806 3.23199 0
M  V30 5365 H 486.489 3.33701 1.98155 0
M  V30 5366 H 484.59 1.36799 3.46579 0
M  V30 5367 H 484.703 3.25147 3.51875 0
M  V30 5368 H 483.067 1.65624 1.93496 0
M  V30 5369 H 483.85 3.18956 1.26973 0
M  V30 5370 N 486.295 -0.989507 1.22664 0
M  V30 5371 C 487.706 -1.54406 1.04955 0
M  V30 5372 C 488.057 -1.92366 -0.385951 0
M  V30 5373 O 487.182 -1.75111 -1.27142 0
M  V30 5374 C 487.777 -2.80578 1.89899 0
M  V30 5375 C 486.336 -3.32464 1.76478 0
M  V30 5376 C 485.483 -2.05524 1.86159 0
M  V30 5377 H 488.434 -0.810211 1.3646 0
M  V30 5378 H 488.455 -3.53075 1.4184 0
M  V30 5379 H 487.967 -2.52918 2.94371 0
M  V30 5380 H 486.068 -3.65024 0.747528 0
M  V30 5381 H 486.181 -4.02838 2.59342 0
M  V30 5382 H 484.545 -2.19241 1.29636 0
M  V30 5383 H 485.328 -1.80258 2.92168 0
M  V30 5384 N 487.773 -1.03688 -1.18687 0
M  V30 5385 C 489.021 -0.736572 -1.88199 0
M  V30 5386 C 489.342 0.737665 -1.80509 0
M  V30 5387 O 488.612 1.53204 -1.22088 0
M  V30 5388 H 487.192 -0.269466 -0.696704 0
M  V30 5389 H 489.854 -1.31282 -1.44052 0
M  V30 5390 H 488.95 -1.03802 -2.94332 0
M  V30 5391 N 489.251 1.34841 -0.815825 0
M  V30 5392 C 490.662 1.80937 -0.46029 0
M  V30 5393 C 491.013 1.67685 1.01863 0
M  V30 5394 O 490.138 1.21277 1.79223 0
M  V30 5395 C 490.733 3.28509 -0.828708 0
M  V30 5396 C 489.292 3.72712 -0.525644 0
M  V30 5397 C 488.439 2.56676 -1.04941 0
M  V30 5398 H 491.39 1.22688 -1.00664 0
M  V30 5399 H 491.411 3.80279 -0.129757 0
M  V30 5400 H 490.923 3.38122 -1.90513 0
M  V30 5401 H 489.024 3.68642 0.541666 0
M  V30 5402 H 489.137 4.67119 -1.06474 0
M  V30 5403 H 487.501 2.50302 -0.471286 0
M  V30 5404 H 488.284 2.69063 -2.13214 0
M  V30 5405 N 490.729 0.570148 1.46925 0
M  V30 5406 C 492.14 0.1402 1.86173 0
M  V30 5407 C 492.491 -1.29347 1.47526 0
M  V30 5408 O 491.616 -1.97508 0.884292 0
M  V30 5409 C 492.211 0.247661 3.37894 0
M  V30 5410 C 490.77 -0.127332 3.76185 0
M  V30 5411 C 489.917 0.589349 2.70965 0
M  V30 5412 H 492.868 0.779117 1.38259 0
M  V30 5413 H 492.889 -0.530341 3.76786 0
M  V30 5414 H 492.401 1.29121 3.65991 0
M  V30 5415 H 490.502 -1.17149 3.53704 0
M  V30 5416 H 490.615 0.240238 4.78497 0
M  V30 5417 H 488.979 0.0309824 2.54681 0
M  V30 5418 H 489.762 1.6343 3.01903 0
M  V30 5419 N 492.207 -1.54576 0.307264 0
M  V30 5420 C 493.435 -2.04675 -0.302597 0
M  V30 5421 C 493.85 -1.18425 -1.47041 0
M  V30 5422 O 493.207 -0.211257 -1.81273 0
M  V30 5423 C 493.258 -3.53575 -0.752801 0
M  V30 5424 O 492.979 -4.36547 0.368536 0
M  V30 5425 C 494.48 -4.19699 -1.42717 0
M  V30 5426 H 491.7 -0.66786 -0.0648374 0
M  V30 5427 H 494.244 -1.99516 0.448716 0
M  V30 5428 H 492.399 -3.59074 -1.45412 0
M  V30 5429 H 492.813 -5.24497 0.0168937 0
M  V30 5430 H 494.287 -5.25388 -1.69327 0
M  V30 5431 H 494.764 -3.69815 -2.36925 0
M  V30 5432 H 495.37 -4.18293 -0.768856 0
M  V30 5433 N 493.685 -0.035106 -1.57561 0
M  V30 5434 C 494.933 0.64096 -1.91667 0
M  V30 5435 C 495.254 1.72323 -0.912681 0
M  V30 5436 O 494.524 1.95849 0.0449089 0
M  V30 5437 H 493.104 0.239743 -0.707483 0
M  V30 5438 H 495.766 -0.084321 -1.94718 0
M  V30 5439 H 494.862 1.08987 -2.92452 0
M  V30 5440 N 495.163 1.55791 0.238111 0
M  V30 5441 C 496.126 1.90239 1.27835 0
M  V30 5442 C 497.126 0.779552 1.4064 0
M  V30 5443 O 498.316 1.04747 1.3919 0
M  V30 5444 C 495.448 2.13859 2.65475 0
M  V30 5445 H 496.641 2.83262 0.985034 0
M  V30 5446 H 494.194 1.48818 0.477799 0
M  V30 5447 H 494.929 1.23334 2.99932 0
M  V30 5448 H 494.714 2.95643 2.57561 0
M  V30 5449 H 496.204 2.41664 3.40571 0
M  V30 5450 N 496.642 -0.504142 1.49319 0
M  V30 5451 C 497.87 -1.28256 1.62351 0
M  V30 5452 C 498.285 -1.86502 0.293682 0
M  V30 5453 O 497.642 -1.67678 -0.720449 0
M  V30 5454 C 497.693 -2.41507 2.68992 0
M  V30 5455 O 497.414 -1.85656 3.96817 0
M  V30 5456 C 498.915 -3.32929 2.927 0
M  V30 5457 H 496.135 -0.389115 0.546654 0
M  V30 5458 H 498.679 -0.605531 1.95329 0
M  V30 5459 H 496.834 -3.05046 2.38801 0
M  V30 5460 H 497.248 -2.59981 4.55533 0
M  V30 5461 H 498.722 -4.0868 3.71058 0
M  V30 5462 H 499.199 -3.89733 2.02496 0
M  V30 5463 H 499.805 -2.75158 3.24296 0
M  V30 5464 N 498.12 -1.38341 -0.754957 0
M  V30 5465 C 499.083 -1.35262 -1.85032 0
M  V30 5466 C 500.083 -0.253393 -1.58791 0
M  V30 5467 O 501.273 -0.510205 -1.66561 0
M  V30 5468 C 498.405 -1.10544 -3.22479 0
M  V30 5469 H 499.598 -2.32712 -1.8917 0
M  V30 5470 H 497.151 -1.23614 -0.956515 0
M  V30 5471 H 497.886 -0.136952 -3.24011 0
M  V30 5472 H 497.671 -1.90127 -3.4292 0
M  V30 5473 H 499.161 -1.11082 -4.02555 0
M  V30 5474 N 499.598 0.982988 -1.23187 0
M  V30 5475 C 500.546 2.09616 -1.00817 0
M  V30 5476 C 501.54 1.6932 0.0519995 0
M  V30 5477 O 502.746 1.79715 -0.101284 0
M  V30 5478 H 499.121 0.685628 -0.308899 0
M  V30 5479 H 501.092 2.25652 -1.95253 0
M  V30 5480 C 499.841 3.42249 -0.613243 0
M  V30 5481 H 499.164 3.73705 -1.42073 0
M  V30 5482 H 500.604 4.21086 -0.496208 0
M  V30 5483 C 499.063 3.30002 0.678233 0
M  V30 5484 O 499.593 3.6263 1.72807 0
M  V30 5485 N 497.799 2.83164 0.653165 0
M  V30 5486 H 497.346 2.56811 -0.201492 0
M  V30 5487 H 497.304 2.75352 1.51752 0
M  V30 5488 N 501.076 1.04316 1.18135 0
M  V30 5489 C 502.492 0.762858 1.40188 0
M  V30 5490 C 502.692 -0.646547 1.90846 0
M  V30 5491 O 501.748 -1.41036 2.0944 0
M  V30 5492 C 503.061 1.81106 2.40044 0
M  V30 5493 C 504.609 1.83226 2.53766 0
M  V30 5494 C 505.084 2.87044 3.56889 0
M  V30 5495 N 506.575 2.85951 3.64398 0
M  V30 5496 C 507.31 3.62932 4.43923 0
M  V30 5497 N 506.806 4.49672 5.27036 0
M  V30 5498 N 508.599 3.51411 4.38711 0
M  V30 5499 H 500.75 1.95264 0.835805 0
M  V30 5500 H 503.013 0.845017 0.429709 0
M  V30 5501 H 502.719 2.82214 2.09876 0
M  V30 5502 H 502.593 1.64529 3.39426 0
M  V30 5503 H 504.98 0.827869 2.8325 0
M  V30 5504 H 505.061 2.03879 1.54489 0
M  V30 5505 H 504.705 3.87663 3.28145 0
M  V30 5506 H 504.635 2.63645 4.5585 0
M  V30 5507 H 507.126 2.23051 3.05052 0
M  V30 5508 H 507.439 5.05116 5.84874 0
M  V30 5509 H 505.784 4.53738 5.26447 0
M  V30 5510 H 508.975 2.83047 3.72829 0
M  V30 5511 H 509.148 4.11654 5.00445 0
M  V30 5512 N 502.554 -1.34406 0.822964 0
M  V30 5513 C 503.484 -2.32052 0.259608 0
M  V30 5514 C 504.465 -1.58243 -0.623961 0
M  V30 5515 O 505.65 -1.86224 -0.55083 0
M  V30 5516 C 502.78 -3.42434 -0.579314 0
M  V30 5517 C 501.734 -4.27499 0.20712 0
M  V30 5518 C 501.06 -5.29349 -0.754547 0
M  V30 5519 C 502.36 -5.02758 1.41533 0
M  V30 5520 H 504.054 -2.79418 1.07545 0
M  V30 5521 H 501.6 -1.34338 0.518593 0
M  V30 5522 H 503.553 -4.0976 -0.983612 0
M  V30 5523 H 502.277 -2.93717 -1.4282 0
M  V30 5524 H 500.936 -3.61776 0.592787 0
M  V30 5525 H 500.584 -4.76895 -1.59939 0
M  V30 5526 H 500.284 -5.8714 -0.232561 0
M  V30 5527 H 501.808 -5.99544 -1.1567 0
M  V30 5528 H 503.222 -5.62938 1.08504 0
M  V30 5529 H 501.619 -5.70123 1.87296 0
M  V30 5530 H 502.689 -4.32451 2.1935 0
M  V30 5531 N 504.032 -0.577932 -1.46621 0
M  V30 5532 C 505.448 -0.239242 -1.57797 0
M  V30 5533 C 505.648 1.25843 -1.57371 0
M  V30 5534 O 504.704 2.03988 -1.48813 0
M  V30 5535 C 506.017 -0.884227 -2.87405 0
M  V30 5536 C 507.565 -0.857373 -3.01028 0
M  V30 5537 C 508.04 -1.48181 -4.33366 0
M  V30 5538 N 509.531 -1.44593 -4.40053 0
M  V30 5539 C 510.266 -1.89852 -5.41058 0
M  V30 5540 N 509.762 -2.43062 -6.48762 0
M  V30 5541 N 511.555 -1.80797 -5.3223 0
M  V30 5542 H 503.706 -1.55073 -1.45142 0
M  V30 5543 H 505.969 -0.647903 -0.692044 0
M  V30 5544 H 505.675 -1.93759 -2.93514 0
M  V30 5545 H 505.549 -0.389585 -3.75183 0
M  V30 5546 H 507.936 0.187357 -2.94505 0
M  V30 5547 H 508.017 -1.38999 -2.14739 0
M  V30 5548 H 507.661 -2.52572 -4.40647 0
M  V30 5549 H 507.591 -0.924464 -5.18422 0
M  V30 5550 H 510.082 -1.05694 -3.62819 0
M  V30 5551 H 510.395 -2.75466 -7.22038 0
M  V30 5552 H 508.74 -2.47085 -6.49595 0
M  V30 5553 H 511.931 -1.38989 -4.46989 0
M  V30 5554 H 512.104 -2.16385 -6.10804 0
M  V30 5555 N 505.51 1.54411 -0.315457 0
M  V30 5556 C 506.735 2.05299 0.294496 0
M  V30 5557 C 507.16 1.19052 1.4563 0
M  V30 5558 O 506.518 0.197804 1.80218 0
M  V30 5559 C 506.566 3.5345 0.714549 0
M  V30 5560 O 505.67 3.70175 1.81781 0
M  V30 5561 H 505.011 0.661743 0.0547019 0
M  V30 5562 H 507.541 1.99327 -0.461508 0
M  V30 5563 H 507.551 3.9557 0.999426 0
M  V30 5564 H 506.226 4.1568 -0.135244 0
M  V30 5565 H 504.803 3.3996 1.53236 0
M  V30 5566 N 506.988 0.0434614 1.5754 0
M  V30 5567 C 507.951 -0.918696 2.09982 0
M  V30 5568 C 508.951 -1.24488 1.01781 0
M  V30 5569 O 510.141 -1.18284 1.27885 0
M  V30 5570 C 507.273 -2.23093 2.57764 0
M  V30 5571 H 508.466 -0.464229 2.96285 0
M  V30 5572 H 506.019 -0.204818 1.54952 0
M  V30 5573 H 506.754 -2.73137 1.74832 0
M  V30 5574 H 506.539 -2.00724 3.36827 0
M  V30 5575 H 508.029 -2.92028 2.98512 0
M  V30 5576 N 508.466 -1.55915 -0.229846 0
M  V30 5577 C 509.429 -1.90914 -1.26824 0
M  V30 5578 C 510.429 -0.786999 -1.40225 0
M  V30 5579 O 511.619 -1.05484 -1.38632 0
M  V30 5580 C 508.751 -2.15264 -2.64337 0
M  V30 5581 H 509.944 -2.8378 -0.969998 0
M  V30 5582 H 507.497 -1.49069 -0.4699 0
M  V30 5583 H 508.232 -1.24923 -2.99274 0
M  V30 5584 H 508.017 -2.97005 -2.55989 0
M  V30 5585 H 509.507 -2.43467 -3.39284 0
M  V30 5586 N 509.944 0.496216 -1.49584 0
M  V30 5587 C 510.854 1.62352 -1.69349 0
M  V30 5588 C 511.87 1.64184 -0.576147 0
M  V30 5589 O 513.046 1.82517 -0.85144 0
M  V30 5590 C 510.111 2.98698 -1.76013 0
M  V30 5591 C 509.172 3.07454 -2.99617 0
M  V30 5592 C 508.405 4.37296 -3.05953 0
M  V30 5593 O 508.628 5.2637 -2.19752 0
M  V30 5594 O 507.562 4.51124 -3.9846 0
M  V30 5595 H 511.388 1.48606 -2.64859 0
M  V30 5596 H 508.973 0.673022 -1.33382 0
M  V30 5597 H 510.855 3.79725 -1.82721 0
M  V30 5598 H 509.53 3.12696 -0.836828 0
M  V30 5599 H 508.437 2.25597 -2.98424 0
M  V30 5600 H 509.77 2.98385 -3.91443 0
M  V30 5601 N 511.423 1.38739 0.74761 0
M  V30 5602 C 512.834 1.31507 1.32524 0
M  V30 5603 C 513.185 -0.0263963 1.96182 0
M  V30 5604 O 512.31 -0.92849 1.95469 0
M  V30 5605 C 512.905 2.38162 2.40966 0
M  V30 5606 C 511.464 2.34489 2.94434 0
M  V30 5607 C 510.611 2.20712 1.67873 0
M  V30 5608 H 513.562 1.4901 0.546043 0
M  V30 5609 H 513.583 2.04222 3.21051 0
M  V30 5610 H 513.095 3.35783 1.94605 0
M  V30 5611 H 511.196 1.40467 3.45108 0
M  V30 5612 H 511.309 3.28861 3.48407 0
M  V30 5613 H 509.673 1.67667 1.91729 0
M  V30 5614 H 510.456 3.20285 1.23582 0
M  V30 5615 N 512.901 -0.976442 1.23707 0
M  V30 5616 C 514.147 -1.72081 1.07312 0
M  V30 5617 C 514.48 -1.90275 -0.388476 0
M  V30 5618 O 513.755 -1.4579 -1.28746 0
M  V30 5619 C 514.038 -3.11675 1.80363 0
M  V30 5620 C 513.891 -3.01027 3.3422 0
M  V30 5621 C 515.21 -4.1117 1.5693 0
M  V30 5622 H 512.329 -0.624583 0.391236 0
M  V30 5623 H 514.971 -1.13649 1.52263 0
M  V30 5624 H 513.121 -3.61559 1.42153 0
M  V30 5625 H 514.793 -2.58637 3.81975 0
M  V30 5626 H 513.036 -2.3744 3.63049 0
M  V30 5627 H 513.707 -3.9988 3.80525 0
M  V30 5628 H 516.183 -3.7011 1.90151 0
M  V30 5629 H 515.059 -5.06928 2.10513 0
M  V30 5630 H 515.32 -4.392 0.505548 0
M  V30 5631 N 514.379 -1.04941 -1.1758 0
M  V30 5632 C 515.342 -0.652456 -2.19717 0
M  V30 5633 C 516.342 0.294745 -1.58076 0
M  V30 5634 O 517.532 0.0789579 -1.74021 0
M  V30 5635 C 514.664 0.0420712 -3.40874 0
M  V30 5636 H 515.857 -1.55642 -2.5635 0
M  V30 5637 H 513.41 -0.842995 -1.31618 0
M  V30 5638 H 514.145 0.95943 -3.09783 0
M  V30 5639 H 513.93 -0.638844 -3.86861 0
M  V30 5640 H 515.42 0.306 -4.16477 0
M  V30 5641 N 515.857 1.33968 -0.830081 0
M  V30 5642 C 517.082 2.02813 -0.433796 0
M  V30 5643 C 517.507 1.62076 0.954614 0
M  V30 5644 O 516.865 0.808955 1.62252 0
M  V30 5645 C 516.913 3.56348 -0.552115 0
M  V30 5646 O 516.017 4.10202 0.425191 0
M  V30 5647 H 515.358 0.639817 -0.177567 0
M  V30 5648 H 517.888 1.7106 -1.12248 0
M  V30 5649 H 517.898 4.05722 -0.430513 0
M  V30 5650 H 516.573 3.85344 -1.56471 0
M  V30 5651 H 515.15 3.71979 0.261878 0
M  V30 5652 N 517.335 0.585699 1.46312 0
M  V30 5653 C 518.563 0.0781299 2.06752 0
M  V30 5654 C 518.978 -1.22812 1.43396 0
M  V30 5655 O 518.335 -1.74318 0.540314 0
M  V30 5656 C 518.386 -0.0911927 3.61385 0
M  V30 5657 O 518.107 1.16336 4.22371 0
M  V30 5658 C 519.608 -0.632765 4.38761 0
M  V30 5659 H 516.828 0.0588188 0.668417 0
M  V30 5660 H 519.372 0.807218 1.87894 0
M  V30 5661 H 517.527 -0.770514 3.7966 0
M  V30 5662 H 517.941 0.979082 5.15281 0
M  V30 5663 H 519.415 -0.70041 5.47538 0
M  V30 5664 H 519.892 -1.65039 4.07012 0
M  V30 5665 H 520.498 0.0117856 4.25298 0
M  V30 5666 N 518.813 -1.54241 0.323641 0
M  V30 5667 C 520.224 -1.85975 -0.164405 0
M  V30 5668 C 520.575 -1.24529 -1.51615 0
M  V30 5669 O 519.7 -0.551351 -2.09258 0
M  V30 5670 C 520.295 -3.37424 -0.305091 0
M  V30 5671 C 518.854 -3.69107 -0.737358 0
M  V30 5672 C 518.001 -2.76942 0.140884 0
M  V30 5673 H 520.952 -1.49088 0.543922 0
M  V30 5674 H 520.973 -3.63147 -1.13598 0
M  V30 5675 H 520.485 -3.82116 0.678876 0
M  V30 5676 H 518.586 -3.29947 -1.73107 0
M  V30 5677 H 518.699 -4.76035 -0.541053 0
M  V30 5678 H 517.063 -2.51795 -0.383572 0
M  V30 5679 H 517.846 -3.24461 1.12162 0
M  V30 5680 N 520.291 -0.0518155 -1.57515 0
M  V30 5681 C 521.254 0.907547 -2.10467 0
M  V30 5682 C 522.254 1.23947 -1.02439 0
M  V30 5683 O 523.444 1.17604 -1.2851 0
M  V30 5684 C 520.576 2.21723 -2.58944 0
M  V30 5685 H 521.769 0.44851 -2.96527 0
M  V30 5686 H 519.322 0.196598 -1.55059 0
M  V30 5687 H 520.057 2.72206 -1.76279 0
M  V30 5688 H 519.842 1.98935 -3.37886 0
M  V30 5689 H 521.332 2.90441 -3.00056 0
M  V30 5690 N 521.769 1.56035 0.221574 0
M  V30 5691 C 522.994 1.83476 0.967026 0
M  V30 5692 C 523.419 0.632139 1.7716 0
M  V30 5693 O 522.777 -0.419082 1.7639 0
M  V30 5694 C 522.825 3.08907 1.86034 0
M  V30 5695 O 521.929 2.876 2.95567 0
M  V30 5696 H 521.27 0.604913 0.273817 0
M  V30 5697 H 523.8 2.03247 0.234893 0
M  V30 5698 H 523.81 3.3901 2.27016 0
M  V30 5699 H 522.485 3.96068 1.26898 0
M  V30 5700 H 521.062 2.6873 2.58532 0
M  V30 5701 N 523.247 -0.488276 1.49845 0
M  V30 5702 C 524.663 -0.820566 1.3689 0
M  V30 5703 C 524.863 -1.97248 0.411752 0
M  V30 5704 O 523.919 -2.52042 -0.151931 0
M  V30 5705 C 525.232 -1.1488 2.77891 0
M  V30 5706 C 526.78 -1.25626 2.86683 0
M  V30 5707 C 527.255 -1.61772 4.28479 0
M  V30 5708 N 528.746 -1.68797 4.31349 0
M  V30 5709 C 529.481 -1.98235 5.38043 0
M  V30 5710 N 528.977 -2.2581 6.54967 0
M  V30 5711 N 530.77 -1.99593 5.2547 0
M  V30 5712 H 522.921 0.271123 2.10662 0
M  V30 5713 H 525.184 0.058735 0.946179 0
M  V30 5714 H 524.89 -0.375614 3.49688 0
M  V30 5715 H 524.764 -2.08919 3.14058 0
M  V30 5716 H 527.151 -2.02014 2.15114 0
M  V30 5717 H 527.232 -0.296072 2.54081 0
M  V30 5718 H 526.876 -0.859295 5.00578 0
M  V30 5719 H 526.806 -2.58912 4.58554 0
M  V30 5720 H 529.297 -1.49595 3.4703 0
M  V30 5721 H 529.61 -2.47497 7.32096 0
M  V30 5722 H 527.955 -2.23239 6.58171 0
M  V30 5723 H 531.146 -1.77535 4.33127 0
M  V30 5724 H 531.319 -2.222 6.08713 0
M  V30 5725 N 524.725 -1.39134 -0.740242 0
M  V30 5726 C 525.974 -1.35384 -1.49512 0
M  V30 5727 C 526.287 0.04919 -1.95538 0
M  V30 5728 O 527.493 0.209257 -2.70692 0
M  V30 5729 C 525.949 -2.37812 -2.70136 0
M  V30 5730 C 525.557 -3.83804 -2.31081 0
M  V30 5731 C 527.301 -2.4313 -3.47977 0
M  V30 5732 C 525.208 -4.77886 -3.48395 0
M  V30 5733 H 524.138 -0.503297 -0.561434 0
M  V30 5734 H 526.789 -1.64754 -0.807974 0
M  V30 5735 H 525.171 -2.01505 -3.40899 0
M  V30 5736 H 526.345 -4.29123 -1.67898 0
M  V30 5737 H 524.66 -3.81732 -1.66343 0
M  V30 5738 H 527.257 -3.10614 -4.35228 0
M  V30 5739 H 527.6 -1.45423 -3.90074 0
M  V30 5740 H 528.133 -2.78304 -2.84239 0
M  V30 5741 H 524.872 -5.76836 -3.11353 0
M  V30 5742 H 524.392 -4.3725 -4.10576 0
M  V30 5743 H 526.071 -4.96538 -4.148 0
M  V30 5744 N 526.204 0.969867 -1.24223 0
M  V30 5745 C 527.136 2.0669 -0.99055 0
M  V30 5746 C 528.149 1.62753 0.0392222 0
M  V30 5747 O 529.338 1.77403 -0.197561 0
M  V30 5748 C 526.438 3.35589 -0.472594 0
M  V30 5749 C 525.611 4.08444 -1.56499 0
M  V30 5750 C 524.67 5.15616 -1.05007 0
M  V30 5751 O 523.696 5.41911 -1.7413 0
M  V30 5752 N 524.898 5.80383 0.116641 0
M  V30 5753 H 527.663 2.28855 -1.93508 0
M  V30 5754 H 525.224 1.13733 -1.15223 0
M  V30 5755 H 527.216 4.04542 -0.112919 0
M  V30 5756 H 525.786 3.10311 0.377617 0
M  V30 5757 H 525.006 3.33798 -2.09696 0
M  V30 5758 H 526.294 4.53882 -2.29932 0
M  V30 5759 H 525.692 5.6142 0.694589 0
M  V30 5760 H 524.249 6.50462 0.417483 0
M  V30 5761 N 527.682 1.05563 1.17022 0
M  V30 5762 C 529.093 0.793475 1.69 0
M  V30 5763 C 529.444 -0.683882 1.83895 0
M  V30 5764 O 528.569 -1.53116 1.5292 0
M  V30 5765 C 529.164 1.43376 3.06967 0
M  V30 5766 C 527.723 1.21956 3.56095 0
M  V30 5767 C 526.87 1.51494 2.3226 0
M  V30 5768 H 529.821 1.22008 1.01487 0
M  V30 5769 H 529.842 0.845068 3.70997 0
M  V30 5770 H 529.354 2.50899 2.96093 0
M  V30 5771 H 527.455 0.163749 3.7224 0
M  V30 5772 H 527.568 1.92713 4.38633 0
M  V30 5773 H 525.932 0.935175 2.3691 0
M  V30 5774 H 526.715 2.60159 2.23992 0
M  V30 5775 N 529.16 -1.33526 0.837174 0
M  V30 5776 C 530.123 -2.27551 0.274421 0
M  V30 5777 C 531.123 -1.50886 -0.555881 0
M  V30 5778 O 532.313 -1.70227 -0.369918 0
M  V30 5779 C 529.445 -3.35332 -0.613605 0
M  V30 5780 H 530.638 -2.78837 1.10408 0
M  V30 5781 H 528.191 -1.439 0.610126 0
M  V30 5782 H 528.926 -2.89285 -1.46577 0
M  V30 5783 H 528.711 -3.92095 -0.0195341 0
M  V30 5784 H 530.201 -4.05433 -1.00068 0
M  V30 5785 N 530.638 -0.59345 -1.46 0
M  V30 5786 C 531.886 -0.082988 -2.0193 0
M  V30 5787 C 532.207 1.28569 -1.46612 0
M  V30 5788 O 531.477 1.84629 -0.654909 0
M  V30 5789 H 530.057 -0.0276882 -0.746487 0
M  V30 5790 H 532.719 -0.771657 -1.78973 0
M  V30 5791 H 531.815 -0.022079 -3.12092 0
M  V30 5792 N 532.116 1.54067 -0.331816 0
M  V30 5793 C 533.064 2.26105 0.54582 0
M  V30 5794 C 534.058 1.27816 1.11173 0
M  V30 5795 O 535.264 1.45565 1.05882 0
M  V30 5796 H 531.639 0.726363 0.194683 0
M  V30 5797 H 533.61 2.98282 -0.083931 0
M  V30 5798 C 532.359 3.03814 1.69092 0
M  V30 5799 H 531.682 3.79269 1.26473 0
M  V30 5800 H 533.122 3.57453 2.28043 0
M  V30 5801 C 531.581 2.12606 2.61343 0
M  V30 5802 O 532.111 1.71437 3.6328 0
M  V30 5803 N 530.317 1.77925 2.29763 0
M  V30 5804 H 529.864 2.11602 1.46909 0
M  V30 5805 H 529.822 1.1718 2.91747 0
M  V30 5806 N 533.594 0.0601682 1.57485 0
M  V30 5807 C 534.822 -0.620937 1.97363 0
M  V30 5808 C 535.237 -1.63846 0.938082 0
M  V30 5809 O 534.594 -1.82339 -0.0766578 0
M  V30 5810 C 534.645 -1.29987 3.37321 0
M  V30 5811 O 534.366 -0.323081 4.36907 0
M  V30 5812 C 535.867 -2.06989 3.92008 0
M  V30 5813 H 533.087 -0.169135 0.649334 0
M  V30 5814 H 535.631 0.129132 2.04092 0
M  V30 5815 H 533.786 -2.0011 3.31715 0
M  V30 5816 H 534.2 -0.808754 5.18227 0
M  V30 5817 H 535.674 -2.49901 4.92192 0
M  V30 5818 H 536.151 -2.92173 3.2792 0
M  V30 5819 H 536.757 -1.41757 4.0098 0
M  V30 5820 N 535.072 -1.5615 -0.213296 0
M  V30 5821 C 536.297 -1.83986 -0.957282 0
M  V30 5822 C 536.722 -0.641526 -1.76822 0
M  V30 5823 O 536.08 0.409722 -1.7661 0
M  V30 5824 C 536.128 -3.09889 -1.84393 0
M  V30 5825 O 535.232 -2.89163 -2.94038 0
M  V30 5826 H 534.573 -0.606357 -0.270605 0
M  V30 5827 H 537.103 -2.03369 -0.224111 0
M  V30 5828 H 537.113 -3.40209 -2.25215 0
M  V30 5829 H 535.788 -3.96735 -1.24795 0
M  V30 5830 H 534.365 -2.70097 -2.57103 0
M  V30 5831 N 536.55 0.480323 -1.50102 0
M  V30 5832 C 537.961 1.06142 -1.53593 0
M  V30 5833 C 538.312 1.93335 -0.334055 0
M  V30 5834 O 537.437 2.09188 0.55403 0
M  V30 5835 C 538.032 1.9317 -2.78336 0
M  V30 5836 C 536.591 2.46405 -2.84538 0
M  V30 5837 C 535.738 1.24521 -2.4777 0
M  V30 5838 H 538.689 0.26333 -1.565 0
M  V30 5839 H 538.71 2.78123 -2.59669 0
M  V30 5840 H 538.222 1.29683 -3.65792 0
M  V30 5841 H 536.323 3.13472 -2.01411 0
M  V30 5842 H 536.436 2.82143 -3.87211 0
M  V30 5843 H 534.8 1.57706 -2.00003 0
M  V30 5844 H 535.583 0.627102 -3.37524 0
M  V30 5845 N 538.028 1.39524 0.732853 0
M  V30 5846 C 539.444 1.21176 1.03868 0
M  V30 5847 C 539.644 0.0748448 2.01361 0
M  V30 5848 O 538.7 -0.57281 2.45917 0
M  V30 5849 C 540.013 2.54667 1.59892 0
M  V30 5850 C 541.561 2.6153 1.71962 0
M  V30 5851 C 542.036 3.95248 2.31394 0
M  V30 5852 N 543.527 3.96899 2.38801 0
M  V30 5853 C 544.262 4.97138 2.85729 0
M  V30 5854 N 543.758 6.07775 3.32537 0
M  V30 5855 N 545.551 4.84516 2.84957 0
M  V30 5856 H 537.702 2.12225 0.086304 0
M  V30 5857 H 539.965 0.942614 0.100907 0
M  V30 5858 H 539.671 3.38423 0.95721 0
M  V30 5859 H 539.545 2.74538 2.58668 0
M  V30 5860 H 541.932 1.78156 2.35254 0
M  V30 5861 H 542.013 2.45507 0.718327 0
M  V30 5862 H 541.657 4.79054 1.68729 0
M  V30 5863 H 541.587 4.08593 3.32204 0
M  V30 5864 H 544.078 3.16998 2.05719 0
M  V30 5865 H 544.391 6.8017 3.66862 0
M  V30 5866 H 542.736 6.11366 3.30541 0
M  V30 5867 H 545.927 3.97185 2.47713 0
M  V30 5868 H 546.1 5.62783 3.21215 0
M  V30 5869 N 539.506 -0.963266 1.24736 0
M  V30 5870 C 540.469 -2.04013 1.04457 0
M  V30 5871 C 541.469 -1.608 0.000335555 0
M  V30 5872 O 542.659 -1.72515 0.241719 0
M  V30 5873 C 539.791 -3.35858 0.584162 0
M  V30 5874 H 540.984 -2.23436 2.00041 0
M  V30 5875 H 538.537 -1.13914 1.07021 0
M  V30 5876 H 539.272 -3.22128 -0.374673 0
M  V30 5877 H 539.057 -3.68568 1.3379 0
M  V30 5878 H 540.547 -4.1502 0.463451 0
M  V30 5879 N 540.985 -1.06182 -1.16461 0
M  V30 5880 C 542.234 -0.772927 -1.86303 0
M  V30 5881 C 542.547 0.703187 -1.82523 0
M  V30 5882 O 543.753 1.10641 -2.47933 0
M  V30 5883 C 542.209 -1.33249 -3.34324 0
M  V30 5884 C 541.817 -2.83876 -3.46581 0
M  V30 5885 C 543.561 -1.12108 -4.09429 0
M  V30 5886 C 541.468 -3.33082 -4.88682 0
M  V30 5887 H 540.398 -0.285452 -0.697878 0
M  V30 5888 H 543.049 -1.28039 -1.31447 0
M  V30 5889 H 541.431 -0.7528 -3.88779 0
M  V30 5890 H 542.605 -3.47786 -3.02293 0
M  V30 5891 H 540.92 -3.03671 -2.84909 0
M  V30 5892 H 543.517 -1.46361 -5.14279 0
M  V30 5893 H 543.86 -0.0593832 -4.16258 0
M  V30 5894 H 544.393 -1.6665 -3.6121 0
M  V30 5895 H 541.132 -4.38726 -4.87032 0
M  V30 5896 H 540.652 -2.73919 -5.33599 0
M  V30 5897 H 542.331 -3.28344 -5.57494 0
M  V30 5898 N 542.463 1.3308 -0.844243 0
M  V30 5899 C 543.688 2.02341 -0.455282 0
M  V30 5900 C 544.113 1.6308 0.93737 0
M  V30 5901 O 543.471 0.826118 1.61385 0
M  V30 5902 C 543.519 3.55743 -0.58988 0
M  V30 5903 O 542.623 4.1063 0.38166 0
M  V30 5904 H 541.964 0.637898 -0.184343 0
M  V30 5905 H 544.494 1.6986 -1.14056 0
M  V30 5906 H 544.504 4.05243 -0.473522 0
M  V30 5907 H 543.179 3.83662 -1.60549 0
M  V30 5908 H 541.756 3.72236 0.22241 0
M  V30 5909 N 543.941 0.601185 1.45683 0
M  V30 5910 C 545.357 0.264315 1.57396 0
M  V30 5911 C 545.557 -1.23324 1.59353 0
M  V30 5912 O 544.613 -2.01594 1.52039 0
M  V30 5913 C 545.926 0.929839 2.85962 0
M  V30 5914 C 547.474 0.905156 2.99626 0
M  V30 5915 C 547.949 1.55057 4.30954 0
M  V30 5916 N 549.44 1.51576 4.37697 0
M  V30 5917 C 550.175 1.98436 5.37969 0
M  V30 5918 N 549.671 2.53352 6.44813 0
M  V30 5919 N 551.464 1.89242 5.29286 0
M  V30 5920 H 543.615 1.57363 1.42656 0
M  V30 5921 H 545.878 0.658831 0.681649 0
M  V30 5922 H 545.584 1.98404 2.90394 0
M  V30 5923 H 545.458 0.449224 3.74515 0
M  V30 5924 H 547.845 -0.14048 2.94765 0
M  V30 5925 H 547.926 1.42397 2.12501 0
M  V30 5926 H 547.57 2.5955 4.36573 0
M  V30 5927 H 547.5 1.00682 5.16886 0
M  V30 5928 H 549.991 1.11452 3.61091 0
M  V30 5929 H 550.304 2.86918 7.17564 0
M  V30 5930 H 548.649 2.57388 6.45582 0
M  V30 5931 H 551.84 1.46083 4.44722 0
M  V30 5932 H 552.013 2.26075 6.07284 0
M  V30 5933 N 545.419 -1.53889 0.339982 0
M  V30 5934 C 546.665 -2.01152 -0.258003 0
M  V30 5935 C 546.998 -1.22749 -1.50487 0
M  V30 5936 O 546.273 -0.314156 -1.91946 0
M  V30 5937 C 546.556 -3.55468 -0.575717 0
M  V30 5938 C 546.409 -4.44584 0.682996 0
M  V30 5939 C 547.728 -4.1768 -1.38677 0
M  V30 5940 H 544.847 -0.731198 -0.0922992 0
M  V30 5941 H 547.489 -1.84352 0.459814 0
M  V30 5942 H 545.639 -3.69914 -1.18725 0
M  V30 5943 H 547.311 -4.41981 1.32102 0
M  V30 5944 H 545.554 -4.13592 1.3086 0
M  V30 5945 H 546.225 -5.5043 0.416001 0
M  V30 5946 H 548.701 -4.0691 -0.869705 0
M  V30 5947 H 547.577 -5.25734 -1.57783 0
M  V30 5948 H 547.838 -3.72069 -2.38782 0
M  V30 5949 N 546.897 -0.0685191 -1.57451 0
M  V30 5950 C 548.174 0.642167 -1.84758 0
M  V30 5951 C 548.554 1.87991 -0.960344 0
M  V30 5952 O 547.902 2.28485 -0.0257894 0
M  V30 5953 C 548.112 0.982946 -3.34872 0
M  V30 5954 C 549.46 1.35784 -4.02303 0
M  V30 5955 O 550.484 1.07477 -3.39598 0
M  V30 5956 O 549.343 1.88681 -5.12895 0
M  V30 5957 H 546.437 0.318625 -0.763156 0
M  V30 5958 H 548.983 -0.0992015 -1.6941 0
M  V30 5959 H 547.755 0.10372 -3.91163 0
M  V30 5960 H 547.378 1.78119 -3.55471 0
M  V30 5961 N 548.375 1.56261 0.205012 0
M  V30 5962 C 549.791 1.49623 0.555433 0
M  V30 5963 C 549.991 0.766719 1.86343 0
M  V30 5964 O 549.047 0.313158 2.50551 0
M  V30 5965 C 550.36 2.94253 0.619347 0
M  V30 5966 C 551.908 3.04868 0.708855 0
M  V30 5967 C 552.383 4.50888 0.803969 0
M  V30 5968 N 553.874 4.54999 0.867758 0
M  V30 5969 C 554.609 5.65284 0.96135 0
M  V30 5970 N 554.105 6.85282 1.01786 0
M  V30 5971 N 555.898 5.53174 0.997771 0
M  V30 5972 H 548.049 2.0211 -0.653094 0
M  V30 5973 H 550.312 0.919333 -0.231366 0
M  V30 5974 H 550.018 3.50643 -0.272458 0
M  V30 5975 H 549.892 3.47063 1.47741 0
M  V30 5976 H 552.279 2.48532 1.5911 0
M  V30 5977 H 552.36 2.55199 -0.175205 0
M  V30 5978 H 552.004 5.07846 -0.0738798 0
M  V30 5979 H 551.934 4.98279 1.70369 0
M  V30 5980 H 554.425 3.68588 0.833735 0
M  V30 5981 H 554.738 7.65081 1.08951 0
M  V30 5982 H 553.083 6.8796 0.986706 0
M  V30 5983 H 556.274 4.5835 0.950392 0
M  V30 5984 H 556.447 6.39151 1.06725 0
M  V30 5985 N 549.853 -0.472356 1.50355 0
M  V30 5986 C 550.763 -1.59637 1.7191 0
M  V30 5987 C 551.779 -1.63247 0.602195 0
M  V30 5988 O 552.955 -1.81139 0.880369 0
M  V30 5989 C 550.02 -2.9586 1.80742 0
M  V30 5990 C 549.081 -3.02649 3.04471 0
M  V30 5991 C 548.314 -4.32374 3.12872 0
M  V30 5992 O 548.537 -5.22807 2.28099 0
M  V30 5993 O 547.471 -4.44728 4.05587 0
M  V30 5994 H 551.297 -1.44373 2.67189 0
M  V30 5995 H 548.882 -0.651717 1.34436 0
M  V30 5996 H 550.764 -3.7677 1.88739 0
M  V30 5997 H 549.439 -3.11325 0.88647 0
M  V30 5998 H 548.346 -2.20821 3.01975 0
M  V30 5999 H 549.679 -2.92119 3.9614 0
M  V30 6000 N 551.331 -1.39911 -0.725443 0
M  V30 6001 C 552.747 -1.21725 -1.03224 0
M  V30 6002 C 552.947 -0.0855224 -2.01318 0
M  V30 6003 O 552.003 0.55976 -2.46217 0
M  V30 6004 C 553.316 -2.55511 -1.58539 0
M  V30 6005 C 554.864 -2.62439 -1.70572 0
M  V30 6006 C 555.339 -3.9647 -2.29294 0
M  V30 6007 N 556.83 -3.98159 -2.36692 0
M  V30 6008 C 557.565 -4.98647 -2.83088 0
M  V30 6009 N 557.061 -6.0953 -3.2931 0
M  V30 6010 N 558.854 -4.8602 -2.82384 0
M  V30 6011 H 551.005 -2.12267 -0.075048 0
M  V30 6012 H 553.268 -0.943136 -0.0959066 0
M  V30 6013 H 552.974 -3.38926 -0.939249 0
M  V30 6014 H 552.848 -2.75905 -2.57208 0
M  V30 6015 H 555.235 -1.79401 -2.34306 0
M  V30 6016 H 555.316 -2.45885 -0.705297 0
M  V30 6017 H 554.96 -4.79942 -1.66186 0
M  V30 6018 H 554.89 -4.10349 -3.30032 0
M  V30 6019 H 557.381 -3.18085 -2.04035 0
M  V30 6020 H 557.694 -6.82106 -3.6325 0
M  V30 6021 H 556.039 -6.1311 -3.27294 0
M  V30 6022 H 559.23 -3.98493 -2.45603 0
M  V30 6023 H 559.403 -5.64478 -3.18226 0
M  V30 6024 N 552.809 0.956637 -1.25245 0
M  V30 6025 C 553.756 2.053 -1.05454 0
M  V30 6026 C 554.726 1.66062 0.0356889 0
M  V30 6027 O 555.911 1.90415 -0.121099 0
M  V30 6028 C 553.051 3.38391 -0.677191 0
M  V30 6029 C 552.164 3.90758 -1.84206 0
M  V30 6030 C 551.299 5.12165 -1.40926 0
M  V30 6031 C 550.338 5.56757 -2.54338 0
M  V30 6032 N 549.475 6.69376 -2.11848 0
M  V30 6033 H 554.315 2.21562 -1.99284 0
M  V30 6034 H 551.852 1.08578 -0.992434 0
M  V30 6035 H 553.81 4.1488 -0.43938 0
M  V30 6036 H 552.44 3.22021 0.224127 0
M  V30 6037 H 551.492 3.10808 -2.19323 0
M  V30 6038 H 552.804 4.19802 -2.69383 0
M  V30 6039 H 551.958 5.96065 -1.13098 0
M  V30 6040 H 550.697 4.84832 -0.528175 0
M  V30 6041 H 549.702 4.71423 -2.82913 0
M  V30 6042 H 550.927 5.861 -3.43022 0
M  V30 6043 H 548.873 6.43756 -1.26153 0
M  V30 6044 H 548.79 6.97927 -2.90574 0
M  V30 6045 H 550.058 7.5669 -1.87191 0
M  V30 6046 N 554.287 1.06798 1.15896 0
M  V30 6047 C 555.533 0.788934 1.86825 0
M  V30 6048 C 555.866 -0.683084 1.8179 0
M  V30 6049 O 555.141 -1.50086 1.23711 0
M  V30 6050 C 555.424 1.29065 3.36176 0
M  V30 6051 C 555.277 2.8268 3.49874 0
M  V30 6052 C 556.596 0.902655 4.30744 0
M  V30 6053 H 553.715 0.288066 0.678371 0
M  V30 6054 H 556.357 1.32479 1.36195 0
M  V30 6055 H 554.507 0.834806 3.79425 0
M  V30 6056 H 556.179 3.36511 3.15528 0
M  V30 6057 H 554.422 3.21157 2.91617 0
M  V30 6058 H 555.093 3.12852 4.54783 0
M  V30 6059 H 557.569 1.29535 3.95424 0
M  V30 6060 H 556.445 1.28111 5.3374 0
M  V30 6061 H 556.706 -0.191951 4.41683 0
M  V30 6062 N 555.766 -1.3263 0.851289 0
M  V30 6063 C 556.991 -2.02097 0.466006 0
M  V30 6064 C 557.416 -1.63574 -0.928709 0
M  V30 6065 O 556.774 -0.834665 -1.60944 0
M  V30 6066 C 556.822 -3.55425 0.608737 0
M  V30 6067 O 555.926 -4.10827 -0.359878 0
M  V30 6068 H 555.267 -0.636911 0.187724 0
M  V30 6069 H 557.797 -1.69253 1.14955 0
M  V30 6070 H 557.807 -4.04986 0.495006 0
M  V30 6071 H 556.482 -3.82806 1.62581 0
M  V30 6072 H 555.059 -3.72349 -0.202666 0
M  V30 6073 N 557.244 -0.608902 -1.45362 0
M  V30 6074 C 558.177 0.158059 -2.27652 0
M  V30 6075 C 559.155 0.872397 -1.37215 0
M  V30 6076 O 560.339 0.881002 -1.66645 0
M  V30 6077 C 557.466 1.22896 -3.15617 0
M  V30 6078 C 556.512 0.617607 -4.22005 0
M  V30 6079 S 557.345 -0.575518 -5.32398 0
M  V30 6080 C 558.501 0.495938 -6.23932 0
M  V30 6081 H 558.734 -0.540095 -2.92353 0
M  V30 6082 H 556.267 -0.396456 -1.49223 0
M  V30 6083 H 558.225 1.84195 -3.66855 0
M  V30 6084 H 556.886 1.89919 -2.50179 0
M  V30 6085 H 556.079 1.42341 -4.83482 0
M  V30 6086 H 555.681 0.0797273 -3.73915 0
M  V30 6087 H 557.973 1.37465 -6.63408 0
M  V30 6088 H 558.916 -0.0827108 -7.08052 0
M  V30 6089 H 559.324 0.811856 -5.58631 0
M  V30 6090 N 558.722 1.53707 -0.348139 0
M  V30 6091 C 560.138 1.596 0.00361134 0
M  V30 6092 C 560.338 1.36394 1.4832 0
M  V30 6093 O 559.394 1.16046 2.24253 0
M  V30 6094 C 560.707 2.97512 -0.436682 0
M  V30 6095 C 562.255 3.10568 -0.389416 0
M  V30 6096 C 562.73 4.50866 -0.805249 0
M  V30 6097 N 564.221 4.56929 -0.759616 0
M  V30 6098 C 564.956 5.63643 -1.05327 0
M  V30 6099 N 564.452 6.78189 -1.41531 0
M  V30 6100 N 566.245 5.5354 -0.977207 0
M  V30 6101 H 558.396 1.67044 -1.31187 0
M  V30 6102 H 560.659 0.782559 -0.535075 0
M  V30 6103 H 560.365 3.19575 -1.46849 0
M  V30 6104 H 560.239 3.76742 0.185744 0
M  V30 6105 H 562.626 2.88226 0.633228 0
M  V30 6106 H 562.707 2.33387 -1.04711 0
M  V30 6107 H 562.351 4.73943 -1.82593 0
M  V30 6108 H 562.281 5.26452 -0.124989 0
M  V30 6109 H 564.772 3.74675 -0.49265 0
M  V30 6110 H 565.085 7.55541 -1.62411 0
M  V30 6111 H 563.43 6.79624 -1.45381 0
M  V30 6112 H 566.621 4.62932 -0.693675 0
M  V30 6113 H 566.794 6.36614 -1.2094 0
M  V30 6114 N 560.2 0.0768682 1.57412 0
M  V30 6115 C 561.13 -0.886026 2.16037 0
M  V30 6116 C 562.111 -1.30691 1.08876 0
M  V30 6117 O 563.296 -1.37705 1.36934 0
M  V30 6118 C 560.426 -2.1518 2.72608 0
M  V30 6119 C 559.38 -1.87015 3.8498 0
M  V30 6120 C 558.706 -3.20266 4.28175 0
M  V30 6121 C 560.006 -1.17143 5.08994 0
M  V30 6122 H 561.7 -0.397642 2.96748 0
M  V30 6123 H 559.246 -0.189823 1.42743 0
M  V30 6124 H 561.199 -2.82962 3.12266 0
M  V30 6125 H 559.923 -2.66269 1.89125 0
M  V30 6126 H 558.582 -1.21636 3.45833 0
M  V30 6127 H 558.23 -3.69207 3.41607 0
M  V30 6128 H 557.93 -3.0221 5.03927 0
M  V30 6129 H 559.454 -3.89237 4.70454 0
M  V30 6130 H 560.868 -1.75003 5.45937 0
M  V30 6131 H 559.265 -1.09328 5.90057 0
M  V30 6132 H 560.335 -0.151295 4.84664 0
M  V30 6133 N 561.678 -1.56367 -0.196722 0
M  V30 6134 C 562.628 -1.9082 -1.24787 0
M  V30 6135 C 563.612 -0.773719 -1.41076 0
M  V30 6136 O 564.804 -1.03655 -1.43474 0
M  V30 6137 C 561.933 -2.24982 -2.59303 0
M  V30 6138 C 561.019 -3.44882 -2.46814 0
M  V30 6139 N 561.41 -4.62835 -2.04003 0
M  V30 6140 C 559.708 -3.48988 -2.77711 0
M  V30 6141 C 560.409 -5.44993 -2.03366 0
M  V30 6142 N 559.385 -4.85356 -2.44807 0
M  V30 6143 H 563.187 -2.79516 -0.908175 0
M  V30 6144 H 560.701 -1.57265 -0.405166 0
M  V30 6145 H 562.698 -2.47848 -3.35227 0
M  V30 6146 H 561.358 -1.37611 -2.94098 0
M  V30 6147 H 562.369 -4.87532 -1.74738 0
M  V30 6148 H 559.046 -2.72029 -3.16712 0
M  V30 6149 H 560.436 -6.49464 -1.72181 0
M  V30 6150 N 563.156 0.464375 -1.50603 0
M  V30 6151 C 564.572 0.798684 -1.38178 0
M  V30 6152 C 564.772 1.96568 -0.44308 0
M  V30 6153 O 563.828 2.52252 0.111814 0
M  V30 6154 C 565.141 1.10444 -2.79683 0
M  V30 6155 C 566.689 1.2105 -2.88645 0
M  V30 6156 C 567.164 1.54934 -4.30998 0
M  V30 6157 N 568.655 1.61913 -4.3398 0
M  V30 6158 C 569.39 1.8965 -5.41129 0
M  V30 6159 N 568.886 2.15361 -6.58477 0
M  V30 6160 N 570.679 1.91207 -5.28579 0
M  V30 6161 H 562.83 -0.304603 -2.10204 0
M  V30 6162 H 565.093 -0.0737804 -0.945125 0
M  V30 6163 H 564.799 0.319934 -3.50242 0
M  V30 6164 H 564.673 2.03896 -3.17342 0
M  V30 6165 H 567.06 1.98567 -2.18301 0
M  V30 6166 H 567.141 0.255613 -2.5452 0
M  V30 6167 H 566.785 0.779549 -5.01882 0
M  V30 6168 H 566.715 2.51584 -4.62615 0
M  V30 6169 H 569.206 1.44055 -3.49366 0
M  V30 6170 H 569.519 2.35818 -7.35941 0
M  V30 6171 H 567.864 2.1274 -6.6164 0
M  V30 6172 H 571.055 1.70622 -4.35897 0
M  V30 6173 H 571.228 2.12488 -6.12171 0
M  V30 6174 N 564.634 1.40294 0.718013 0
M  V30 6175 C 565.882 1.38167 1.47494 0
M  V30 6176 C 566.203 -0.01607 1.94993 0
M  V30 6177 O 565.473 -0.970396 1.70177 0
M  V30 6178 H 564.053 0.508505 0.547203 0
M  V30 6179 H 566.715 1.75324 0.851322 0
M  V30 6180 H 565.811 2.05503 2.34894 0
M  V30 6181 N 566.112 -0.949982 1.2575 0
M  V30 6182 C 567.075 -2.02894 1.06615 0
M  V30 6183 C 568.075 -1.60791 0.0173905 0
M  V30 6184 O 569.265 -1.72249 0.260003 0
M  V30 6185 C 566.397 -3.35219 0.619751 0
M  V30 6186 H 567.59 -2.21302 2.02399 0
M  V30 6187 H 565.143 -1.12772 1.08223 0
M  V30 6188 H 565.878 -3.22508 -0.340486 0
M  V30 6189 H 565.663 -3.67129 1.37692 0
M  V30 6190 H 567.153 -4.14505 0.507443 0
M  V30 6191 N 567.59 -1.07411 -1.15328 0
M  V30 6192 C 569.001 -0.820261 -1.67716 0
M  V30 6193 C 569.352 0.654539 -1.8496 0
M  V30 6194 O 568.477 1.50664 -1.55337 0
M  V30 6195 C 569.072 -1.48242 -3.04647 0
M  V30 6196 C 567.631 -1.27606 -3.5411 0
M  V30 6197 C 566.778 -1.5517 -2.29821 0
M  V30 6198 H 569.729 -1.23608 -0.995332 0
M  V30 6199 H 569.75 -0.903984 -3.69606 0
M  V30 6200 H 569.262 -2.55578 -2.92064 0
M  V30 6201 H 567.363 -0.222948 -3.71932 0
M  V30 6202 H 567.476 -1.99667 -4.35511 0
M  V30 6203 H 565.84 -0.972747 -2.35393 0
M  V30 6204 H 566.623 -2.63689 -2.19824 0
M  V30 6205 N 569.068 1.32177 -0.85831 0
M  V30 6206 C 570.031 2.27086 -0.310588 0
M  V30 6207 C 571.031 1.51751 0.531806 0
M  V30 6208 O 572.221 1.70794 0.34279 0
M  V30 6209 C 569.353 3.36266 0.560179 0
M  V30 6210 H 570.546 2.77045 -1.1483 0
M  V30 6211 H 568.099 1.42911 -0.632942 0
M  V30 6212 H 568.834 2.9158 1.41956 0
M  V30 6213 H 568.619 3.92077 -0.0428473 0
M  V30 6214 H 570.109 4.06974 0.936056 0
M  V30 6215 N 570.547 0.616602 1.45037 0
M  V30 6216 C 571.495 -0.109318 2.32343 0
M  V30 6217 C 572.489 -0.850543 1.465 0
M  V30 6218 O 573.695 -0.765088 1.62931 0
M  V30 6219 H 570.07 -0.0541091 0.750051 0
M  V30 6220 H 572.041 0.645326 2.91338 0
M  V30 6221 C 570.79 -1.0872 3.30266 0
M  V30 6222 H 570.113 -0.526267 3.96321 0
M  V30 6223 H 571.553 -1.56489 3.94065 0
M  V30 6224 C 570.012 -2.16525 2.58105 0
M  V30 6225 O 570.542 -3.244 2.36913 0
M  V30 6226 N 568.748 -1.92057 2.18088 0
M  V30 6227 H 568.295 -1.04337 2.35524 0
M  V30 6228 H 568.253 -2.64391 1.70131 0
M  V30 6229 N 572.025 -1.5352 0.356285 0
M  V30 6230 C 573.271 -2.01414 -0.236653 0
M  V30 6231 C 573.604 -1.24339 -1.49176 0
M  V30 6232 O 572.879 -0.334496 -1.91602 0
M  V30 6233 C 573.162 -3.56059 -0.537982 0
M  V30 6234 C 573.015 -4.43835 0.730112 0
M  V30 6235 C 574.334 -4.19127 -1.34239 0
M  V30 6236 H 571.453 -0.732135 -0.0845386 0
M  V30 6237 H 574.095 -1.83854 0.479341 0
M  V30 6238 H 572.245 -3.71153 -1.14795 0
M  V30 6239 H 573.917 -4.40555 1.36782 0
M  V30 6240 H 572.16 -4.1218 1.3524 0
M  V30 6241 H 572.831 -5.49958 0.474358 0
M  V30 6242 H 575.307 -4.07809 -0.826498 0
M  V30 6243 H 574.183 -5.27378 -1.52198 0
M  V30 6244 H 574.444 -3.74581 -2.34822 0
M  V30 6245 N 573.503 -0.0852151 -1.57369 0
M  V30 6246 C 574.728 0.592872 -1.98746 0
M  V30 6247 C 575.153 1.61538 -0.963689 0
M  V30 6248 O 574.511 1.81168 0.069071 0
M  V30 6249 C 574.559 1.22599 -3.39119 0
M  V30 6250 O 573.663 2.34185 -3.39457 0
M  V30 6251 H 573.004 0.151314 -0.646529 0
M  V30 6252 H 575.534 -0.163703 -2.03944 0
M  V30 6253 H 575.544 1.56965 -3.76598 0
M  V30 6254 H 574.219 0.476831 -4.13158 0
M  V30 6255 H 572.796 2.01512 -3.13763 0
M  V30 6256 N 574.981 1.5647 0.188427 0
M  V30 6257 C 576.206 1.85486 0.927891 0
M  V30 6258 C 576.631 0.669575 1.75779 0
M  V30 6259 O 575.989 -0.381573 1.77239 0
M  V30 6260 C 576.037 3.12784 1.7944 0
M  V30 6261 O 575.141 2.93805 2.894 0
M  V30 6262 H 574.482 0.610585 0.260925 0
M  V30 6263 H 577.012 2.037 0.191729 0
M  V30 6264 H 577.022 3.43749 2.19774 0
M  V30 6265 H 575.697 3.98671 1.18468 0
M  V30 6266 H 574.274 2.74153 2.52774 0
M  V30 6267 N 576.459 -0.456382 1.50847 0
M  V30 6268 C 577.684 -1.2349 1.66628 0
M  V30 6269 C 578.109 -1.84715 0.355254 0
M  V30 6270 O 577.467 -1.67961 -0.682559 0
M  V30 6271 C 577.515 -2.30865 2.77009 0
M  V30 6272 O 576.619 -3.35882 2.39285 0
M  V30 6273 H 575.96 -0.36266 0.556214 0
M  V30 6274 H 578.49 -0.541374 1.97308 0
M  V30 6275 H 578.5 -2.75949 3.00526 0
M  V30 6276 H 577.175 -1.85677 3.72152 0
M  V30 6277 H 575.752 -2.96406 2.26269 0
M  V30 6278 N 577.937 -1.40673 -0.710563 0
M  V30 6279 C 579.214 -1.29718 -1.46398 0
M  V30 6280 C 579.594 0.082177 -2.1094 0
M  V30 6281 O 578.942 1.09536 -2.00534 0
M  V30 6282 C 579.152 -2.43967 -2.49562 0
M  V30 6283 C 580.5 -2.84436 -3.15248 0
M  V30 6284 O 581.524 -2.43597 -2.59883 0
M  V30 6285 O 580.383 -3.55008 -4.1549 0
M  V30 6286 H 577.477 -0.509697 -0.651258 0
M  V30 6287 H 580.023 -1.52603 -0.742312 0
M  V30 6288 H 578.795 -3.36076 -2.0042 0
M  V30 6289 H 578.418 -2.22879 -3.29258 0
M  V30 6290 N 579.415 0.9433 -1.26252 0
M  V30 6291 C 580.345 2.05902 -1.10122 0
M  V30 6292 C 581.326 1.70099 -0.00700552 0
M  V30 6293 O 582.511 1.93377 -0.178641 0
M  V30 6294 C 579.641 3.39516 -0.731175 0
M  V30 6295 C 578.595 3.89372 -1.77688 0
M  V30 6296 C 577.921 5.19613 -1.26122 0
M  V30 6297 C 579.221 4.14489 -3.17799 0
M  V30 6298 H 580.915 2.19655 -2.03451 0
M  V30 6299 H 578.461 1.05548 -0.979576 0
M  V30 6300 H 580.414 4.17031 -0.605215 0
M  V30 6301 H 579.138 3.25733 0.23782 0
M  V30 6302 H 577.797 3.14036 -1.89148 0
M  V30 6303 H 577.445 5.02208 -0.282128 0
M  V30 6304 H 577.145 5.53939 -1.96023 0
M  V30 6305 H 578.669 5.99713 -1.14789 0
M  V30 6306 H 580.083 4.82625 -3.09428 0
M  V30 6307 H 578.48 4.60094 -3.85271 0
M  V30 6308 H 579.55 3.20347 -3.64014 0
M  V30 6309 N 580.893 1.08022 1.14757 0
M  V30 6310 C 582.121 0.828847 1.89572 0
M  V30 6311 C 582.536 -0.618621 1.78377 0
M  V30 6312 O 581.893 -1.42482 1.1404 0
M  V30 6313 C 581.944 1.23677 3.39685 0
M  V30 6314 O 581.665 2.62746 3.50566 0
M  V30 6315 C 583.166 1.01569 4.31507 0
M  V30 6316 H 580.386 0.299196 0.600602 0
M  V30 6317 H 582.93 1.43846 1.45357 0
M  V30 6318 H 581.085 0.671347 3.81539 0
M  V30 6319 H 581.499 2.79573 4.43778 0
M  V30 6320 H 582.973 1.35055 5.35223 0
M  V30 6321 H 583.45 -0.0475433 4.39174 0
M  V30 6322 H 584.056 1.56636 3.95405 0
M  V30 6323 N 582.371 -1.3172 0.865308 0
M  V30 6324 C 583.619 -1.96487 0.472995 0
M  V30 6325 C 583.94 -1.68761 -0.976975 0
M  V30 6326 O 583.21 -1.00051 -1.68424 0
M  V30 6327 H 581.79 -0.726947 0.171922 0
M  V30 6328 H 584.452 -1.60612 1.10407 0
M  V30 6329 H 583.548 -3.0574 0.62687 0
M  V30 6330 N 583.85 -0.624285 -1.44708 0
M  V30 6331 C 585.266 -0.289322 -1.56956 0
M  V30 6332 C 585.466 1.20773 -1.61295 0
M  V30 6333 O 584.522 1.9915 -1.55227 0
M  V30 6334 C 585.835 -0.975215 -2.84447 0
M  V30 6335 C 587.383 -0.952709 -2.98148 0
M  V30 6336 C 587.858 -1.61893 -4.28433 0
M  V30 6337 N 589.349 -1.5852 -4.35231 0
M  V30 6338 C 590.084 -2.06969 -5.34744 0
M  V30 6339 N 589.58 -2.63579 -6.40701 0
M  V30 6340 N 591.373 -1.97638 -5.26209 0
M  V30 6341 H 583.524 -1.59612 -1.40135 0
M  V30 6342 H 585.787 -0.669592 -0.671081 0
M  V30 6343 H 585.493 -2.02999 -2.87201 0
M  V30 6344 H 585.367 -0.508749 -3.73753 0
M  V30 6345 H 587.754 0.093568 -2.94952 0
M  V30 6346 H 587.835 -1.4576 -2.10209 0
M  V30 6347 H 587.479 -2.66463 -4.32389 0
M  V30 6348 H 587.409 -1.08893 -5.15218 0
M  V30 6349 H 589.899 -1.17183 -3.59272 0
M  V30 6350 H 590.213 -2.98298 -7.12908 0
M  V30 6351 H 588.558 -2.67626 -6.41406 0
M  V30 6352 H 591.749 -1.5314 -4.42341 0
M  V30 6353 H 591.922 -2.35708 -6.03611 0
M  V30 6354 N 585.328 1.53329 -0.364422 0
M  V30 6355 C 586.26 2.23286 0.517293 0
M  V30 6356 C 587.273 1.24657 1.04711 0
M  V30 6357 O 588.462 1.50887 0.95369 0
M  V30 6358 C 585.562 2.91604 1.72685 0
M  V30 6359 C 584.735 4.1673 1.32873 0
M  V30 6360 C 583.794 4.68269 2.40022 0
M  V30 6361 O 582.82 5.31976 2.02461 0
M  V30 6362 N 584.022 4.45983 3.7159 0
M  V30 6363 H 586.787 2.99588 -0.0819391 0
M  V30 6364 H 584.348 1.60787 -0.189544 0
M  V30 6365 H 586.34 3.22992 2.4384 0
M  V30 6366 H 584.91 2.18763 2.23297 0
M  V30 6367 H 584.13 3.91657 0.447069 0
M  V30 6368 H 585.418 4.98078 1.03902 0
M  V30 6369 H 584.816 3.95077 4.04883 0
M  V30 6370 H 583.373 4.81924 4.38854 0
M  V30 6371 N 586.806 0.0935595 1.57322 0
M  V30 6372 C 587.716 -0.880192 2.17462 0
M  V30 6373 C 588.732 -1.31135 1.14366 0
M  V30 6374 O 589.908 -1.37958 1.46729 0
M  V30 6375 C 586.973 -2.12184 2.74188 0
M  V30 6376 C 586.034 -1.74503 3.92234 0
M  V30 6377 C 585.267 -2.92748 4.46245 0
M  V30 6378 O 585.49 -4.07427 3.99198 0
M  V30 6379 O 584.424 -2.71303 5.37288 0
M  V30 6380 H 588.25 -0.398516 3.01074 0
M  V30 6381 H 585.835 -0.130707 1.48827 0
M  V30 6382 H 587.717 -2.84953 3.10451 0
M  V30 6383 H 586.392 -2.59407 1.93623 0
M  V30 6384 H 585.299 -0.989186 3.60785 0
M  V30 6385 H 586.632 -1.32044 4.74157 0
M  V30 6386 N 588.284 -1.56567 -0.180126 0
M  V30 6387 C 589.53 -1.81761 -0.899497 0
M  V30 6388 C 589.863 -0.670015 -1.82276 0
M  V30 6389 O 589.138 0.328575 -1.91705 0
M  V30 6390 C 589.421 -3.17296 -1.7028 0
M  V30 6391 C 589.274 -4.4257 -0.803255 0
M  V30 6392 C 590.593 -3.49678 -2.67233 0
M  V30 6393 H 587.712 -0.661192 -0.325567 0
M  V30 6394 H 590.354 -1.89272 -0.16612 0
M  V30 6395 H 588.504 -3.11023 -2.32802 0
M  V30 6396 H 590.176 -4.60902 -0.191585 0
M  V30 6397 H 588.419 -4.33658 -0.110796 0
M  V30 6398 H 589.09 -5.33935 -1.40064 0
M  V30 6399 H 591.566 -3.56347 -2.14839 0
M  V30 6400 H 590.442 -4.45605 -3.20511 0
M  V30 6401 H 590.703 -2.73932 -3.47007 0
M  V30 6402 N 589.762 0.448376 -1.51087 0
M  V30 6403 C 590.987 1.22605 -1.6728 0
M  V30 6404 C 591.412 1.84524 -0.365045 0
M  V30 6405 O 590.77 1.6832 0.673642 0
M  V30 6406 C 590.818 2.29393 -2.78229 0
M  V30 6407 O 589.922 3.34608 -2.41063 0
M  V30 6408 H 589.263 0.359705 -0.558129 0
M  V30 6409 H 591.793 0.530903 -1.97592 0
M  V30 6410 H 591.803 2.74352 -3.01986 0
M  V30 6411 H 590.478 1.83701 -3.73131 0
M  V30 6412 H 589.055 2.95202 -2.27838 0
M  V30 6413 N 591.24 1.41047 0.703093 0
M  V30 6414 C 592.656 1.23351 1.01275 0
M  V30 6415 C 592.856 0.11754 2.01157 0
M  V30 6416 O 591.912 -0.520518 2.47077 0
M  V30 6417 C 593.225 2.58001 1.54454 0
M  V30 6418 C 594.773 2.65119 1.66376 0
M  V30 6419 C 595.248 4.00067 2.22958 0
M  V30 6420 N 596.739 4.01875 2.30328 0
M  V30 6421 C 597.474 5.03087 2.75119 0
M  V30 6422 N 596.97 6.14692 3.19571 0
M  V30 6423 N 598.763 4.90451 2.74616 0
M  V30 6424 H 590.914 2.1236 0.0412686 0
M  V30 6425 H 593.177 0.944543 0.08089 0
M  V30 6426 H 592.883 3.40378 0.88521 0
M  V30 6427 H 592.757 2.79962 2.52786 0
M  V30 6428 H 595.144 1.83106 2.31422 0
M  V30 6429 H 595.225 2.46975 0.666089 0
M  V30 6430 H 594.869 4.82526 1.58529 0
M  V30 6431 H 594.799 4.15547 3.23462 0
M  V30 6432 H 597.29 3.21291 1.98949 0
M  V30 6433 H 597.603 6.87799 3.52352 0
M  V30 6434 H 595.948 6.18239 3.17498 0
M  V30 6435 H 599.139 4.0235 2.39233 0
M  V30 6436 H 599.312 5.6947 3.09206 0
M  V30 6437 N 592.718 -0.936591 1.26751 0
M  V30 6438 C 593.967 -1.67778 1.11953 0
M  V30 6439 C 594.28 -1.92694 -0.33589 0
M  V30 6440 O 595.486 -2.64682 -0.604618 0
M  V30 6441 C 593.942 -3.02138 1.95551 0
M  V30 6442 C 593.55 -2.84953 3.45696 0
M  V30 6443 C 595.294 -3.79917 1.89377 0
M  V30 6444 C 593.201 -4.14814 4.21525 0
M  V30 6445 H 592.131 -0.629275 0.415366 0
M  V30 6446 H 594.782 -1.04122 1.51099 0
M  V30 6447 H 593.164 -3.668 1.49243 0
M  V30 6448 H 594.338 -2.29112 3.99805 0
M  V30 6449 H 592.653 -2.20612 3.53156 0
M  V30 6450 H 595.25 -4.76134 2.43312 0
M  V30 6451 H 595.593 -4.07204 0.865464 0
M  V30 6452 H 596.126 -3.22037 2.33532 0
M  V30 6453 H 592.865 -3.92709 5.24843 0
M  V30 6454 H 592.385 -4.70352 3.72195 0
M  V30 6455 H 594.064 -4.83239 4.3022 0
M  V30 6456 N 594.196 -1.08629 -1.14182 0
M  V30 6457 C 595.607 -0.838003 -1.66836 0
M  V30 6458 C 595.958 0.634885 -1.85644 0
M  V30 6459 O 595.083 1.49008 -1.56926 0
M  V30 6460 C 595.678 -1.51465 -3.03058 0
M  V30 6461 C 594.237 -1.31355 -3.52736 0
M  V30 6462 C 593.384 -1.57599 -2.28162 0
M  V30 6463 H 596.335 -1.24656 -0.982165 0
M  V30 6464 H 596.356 -0.943134 -3.68626 0
M  V30 6465 H 595.868 -2.58661 -2.89337 0
M  V30 6466 H 593.969 -0.262384 -3.71675 0
M  V30 6467 H 594.082 -2.04275 -4.33369 0
M  V30 6468 H 592.446 -0.997659 -2.34348 0
M  V30 6469 H 593.229 -2.66006 -2.17015 0
M  V30 6470 N 595.674 1.31259 -0.872281 0
M  V30 6471 C 596.637 2.26744 -0.334656 0
M  V30 6472 C 597.637 1.52307 0.515681 0
M  V30 6473 O 598.827 1.71148 0.324656 0
M  V30 6474 C 595.959 3.36841 0.524482 0
M  V30 6475 H 597.152 2.75812 -1.17762 0
M  V30 6476 H 594.705 1.42232 -0.648064 0
M  V30 6477 H 595.44 2.93069 1.38855 0
M  V30 6478 H 595.225 3.92009 -0.0844299 0
M  V30 6479 H 596.715 4.07944 0.892838 0
M  V30 6480 N 597.152 0.631951 1.44375 0
M  V30 6481 C 598.377 0.142146 2.06912 0
M  V30 6482 C 598.802 -1.17456 1.4692 0
M  V30 6483 O 598.16 -1.72074 0.570975 0
M  V30 6484 C 598.208 0.0417952 3.60576 0
M  V30 6485 O 597.312 -1.00194 4.00044 0
M  V30 6486 H 596.653 0.0851491 0.658518 0
M  V30 6487 H 599.183 0.868863 1.85235 0
M  V30 6488 H 599.193 -0.148517 4.0773 0
M  V30 6489 H 597.868 1.0031 4.03622 0
M  V30 6490 H 596.445 -0.786131 3.64519 0
M  V30 6491 N 598.631 -1.53133 0.372548 0
M  V30 6492 C 599.563 -2.23557 -0.505444 0
M  V30 6493 C 600.576 -1.25211 -1.04049 0
M  V30 6494 O 601.765 -1.51391 -0.945675 0
M  V30 6495 C 598.865 -2.92516 -1.71136 0
M  V30 6496 C 598.038 -4.17428 -1.30661 0
M  V30 6497 C 597.097 -4.69535 -2.37536 0
M  V30 6498 O 596.123 -5.33042 -1.99637 0
M  V30 6499 N 597.325 -4.47947 -3.6922 0
M  V30 6500 H 600.09 -2.9954 0.0978259 0
M  V30 6501 H 597.651 -1.60684 0.198068 0
M  V30 6502 H 599.643 -3.24281 -2.42124 0
M  V30 6503 H 598.213 -2.19944 -2.22134 0
M  V30 6504 H 597.433 -3.91888 -0.426292 0
M  V30 6505 H 598.721 -4.98622 -1.01259 0
M  V30 6506 H 598.119 -3.97219 -4.02783 0
M  V30 6507 H 596.676 -4.84245 -4.36292 0
M  V30 6508 N 600.109 -0.101901 -1.5727 0
M  V30 6509 C 601.337 0.568392 -1.98939 0
M  V30 6510 C 601.752 1.61301 -0.981194 0
M  V30 6511 O 601.109 1.82478 0.0282869 0
M  V30 6512 C 601.16 1.20997 -3.40649 0
M  V30 6513 O 600.881 0.207129 -4.3761 0
M  V30 6514 C 602.382 1.96523 -3.97358 0
M  V30 6515 H 599.602 0.15186 -0.65359 0
M  V30 6516 H 602.146 -0.183198 -2.03678 0
M  V30 6517 H 600.301 1.91245 -3.36904 0
M  V30 6518 H 600.715 0.671071 -5.20189 0
M  V30 6519 H 602.189 2.36764 -4.98645 0
M  V30 6520 H 602.666 2.83376 -3.35552 0
M  V30 6521 H 603.272 1.31076 -4.04598 0
M  V30 6522 N 601.587 1.56661 0.17182 0
M  V30 6523 C 602.812 1.86459 0.908165 0
M  V30 6524 C 603.237 0.688181 1.75059 0
M  V30 6525 O 602.595 -0.362753 1.77634 0
M  V30 6526 C 602.643 3.14669 1.76112 0
M  V30 6527 O 601.747 2.96858 2.86268 0
M  V30 6528 H 601.088 0.613318 0.254434 0
M  V30 6529 H 603.618 2.03892 0.170113 0
M  V30 6530 H 603.628 3.46061 2.16115 0
M  V30 6531 H 602.303 3.99905 1.14233 0
M  V30 6532 H 600.88 2.76819 2.49852 0
M  V30 6533 N 603.065 -0.440357 1.51323 0
M  V30 6534 C 604.311 -1.19181 1.64085 0
M  V30 6535 C 604.644 -1.90936 0.354575 0
M  V30 6536 O 603.919 -1.8347 -0.645675 0
M  V30 6537 C 604.202 -2.2112 2.84215 0
M  V30 6538 C 604.055 -1.53468 4.22809 0
M  V30 6539 C 605.374 -3.22133 2.99864 0
M  V30 6540 H 602.493 -0.431924 0.597169 0
M  V30 6541 H 605.135 -0.481443 1.83799 0
M  V30 6542 H 603.285 -2.81703 2.67537 0
M  V30 6543 H 604.957 -0.962455 4.51148 0
M  V30 6544 H 603.2 -0.837086 4.25647 0
M  V30 6545 H 603.871 -2.27694 5.02852 0
M  V30 6546 H 606.347 -2.71601 3.15233 0
M  V30 6547 H 605.223 -3.90756 3.85488 0
M  V30 6548 H 605.484 -3.88061 2.11804 0
M  V30 6549 N 604.543 -1.41418 -0.695603 0
M  V30 6550 C 605.954 -1.36335 -1.27552 0
M  V30 6551 C 606.305 -0.0464336 -1.96145 0
M  V30 6552 O 605.43 0.855304 -1.9878 0
M  V30 6553 C 606.025 -2.46941 -2.3196 0
M  V30 6554 C 604.584 -2.45256 -2.85529 0
M  V30 6555 C 603.731 -2.2679 -1.59566 0
M  V30 6556 H 606.682 -1.50934 -0.490362 0
M  V30 6557 H 606.703 -2.15997 -3.1325 0
M  V30 6558 H 606.215 -3.42775 -1.82008 0
M  V30 6559 H 604.316 -1.53179 -3.39657 0
M  V30 6560 H 604.429 -3.41565 -3.35961 0
M  V30 6561 H 602.793 -1.74667 -1.85374 0
M  V30 6562 H 603.576 -3.24651 -1.1161 0
M  V30 6563 N 606.021 0.929856 -1.27246 0
M  V30 6564 C 607.268 1.67731 -1.13457 0
M  V30 6565 C 607.596 1.9185 0.319998 0
M  V30 6566 O 606.851 1.50524 1.25064 0
M  V30 6567 C 607.15 3.05116 -1.86115 0
M  V30 6568 C 606.816 3.00715 -3.35978 0
M  V30 6569 C 605.478 2.99222 -3.76855 0
M  V30 6570 C 607.83 2.92168 -4.3161 0
M  V30 6571 C 605.158 2.86962 -5.11732 0
M  V30 6572 C 607.51 2.81449 -5.66542 0
M  V30 6573 C 606.174 2.78305 -6.06715 0
M  V30 6574 H 605.444 0.613772 -0.415168 0
M  V30 6575 H 608.091 1.08456 -1.57827 0
M  V30 6576 H 606.396 3.68083 -1.34246 0
M  V30 6577 H 608.093 3.61822 -1.72876 0
M  V30 6578 H 604.683 3.02664 -3.03468 0
M  V30 6579 H 608.867 2.92421 -4.01003 0
M  V30 6580 H 604.123 2.82913 -5.42006 0
M  V30 6581 H 608.297 2.738 -6.40317 0
M  V30 6582 H 605.924 2.68561 -7.11181 0
M  V30 6583 N 607.499 1.09233 1.13605 0
M  V30 6584 C 608.776 0.739633 1.81077 0
M  V30 6585 C 609.156 -0.775595 1.96336 0
M  V30 6586 O 608.504 -1.69726 1.52988 0
M  V30 6587 C 608.714 1.47636 3.16235 0
M  V30 6588 C 610.062 1.64087 3.91613 0
M  V30 6589 O 611.086 1.43871 3.25852 0
M  V30 6590 O 609.945 1.97511 5.0956 0
M  V30 6591 H 607.039 0.265464 0.783236 0
M  V30 6592 H 609.585 1.19441 1.20549 0
M  V30 6593 H 608.357 2.50818 3.00344 0
M  V30 6594 H 607.98 1.01362 3.84462 0
M  V30 6595 N 608.977 -1.30795 0.87923 0
M  V30 6596 C 609.927 -2.25838 0.313276 0
M  V30 6597 C 610.911 -1.51025 -0.55499 0
M  V30 6598 O 612.103 -1.72413 -0.400353 0
M  V30 6599 C 609.232 -3.39981 -0.476204 0
M  V30 6600 C 608.318 -4.22154 0.405826 0
M  V30 6601 N 608.709 -4.82934 1.50362 0
M  V30 6602 C 607.007 -4.45552 0.199909 0
M  V30 6603 C 607.708 -5.44444 2.0483 0
M  V30 6604 N 606.684 -5.26723 1.34403 0
M  V30 6605 H 610.486 -2.70374 1.15218 0
M  V30 6606 H 608 -1.45168 0.728003 0
M  V30 6607 H 609.997 -4.07108 -0.898251 0
M  V30 6608 H 608.657 -2.96986 -1.31261 0
M  V30 6609 H 609.668 -4.82319 1.8865 0
M  V30 6610 H 606.345 -4.13169 -0.599795 0
M  V30 6611 H 607.735 -6.02701 2.96986 0
M  V30 6612 N 610.455 -0.639598 -1.44038 0
M  V30 6613 C 611.385 0.0469443 -2.33453 0
M  V30 6614 C 612.366 0.82609 -1.48694 0
M  V30 6615 O 613.551 0.790285 -1.77393 0
M  V30 6616 C 610.681 1.02338 -3.3188 0
M  V30 6617 C 609.635 0.355284 -4.26523 0
M  V30 6618 C 608.961 1.44221 -5.14883 0
M  V30 6619 C 610.261 -0.743798 -5.16977 0
M  V30 6620 H 611.955 -0.699735 -2.91108 0
M  V30 6621 H 609.501 -0.337946 -1.39978 0
M  V30 6622 H 611.454 1.51247 -3.93322 0
M  V30 6623 H 610.178 1.80105 -2.72451 0
M  V30 6624 H 608.837 -0.113239 -3.66425 0
M  V30 6625 H 608.485 2.21097 -4.51802 0
M  V30 6626 H 608.185 1.00052 -5.79019 0
M  V30 6627 H 609.709 1.93295 -5.79197 0
M  V30 6628 H 611.123 -0.337444 -5.72306 0
M  V30 6629 H 609.52 -1.10914 -5.89761 0
M  V30 6630 H 610.59 -1.60745 -4.57481 0
M  V30 6631 N 611.933 1.52934 -0.380664 0
M  V30 6632 C 613.181 2.01069 0.203874 0
M  V30 6633 C 613.502 1.26922 1.4804 0
M  V30 6634 O 612.772 0.386787 1.92044 0
M  V30 6635 H 611.352 0.742882 0.0783279 0
M  V30 6636 H 614.014 1.88099 -0.510368 0
M  V30 6637 H 613.11 3.09258 0.42021 0
M  V30 6638 N 613.412 0.11024 1.57214 0
M  V30 6639 C 614.359 -0.843195 2.14846 0
M  V30 6640 C 615.329 -1.26954 1.07107 0
M  V30 6641 O 616.514 -1.34861 1.34971 0
M  V30 6642 C 613.654 -2.09123 2.74521 0
M  V30 6643 C 612.767 -1.71404 3.96541 0
M  V30 6644 C 611.902 -2.91107 4.44331 0
M  V30 6645 C 610.941 -2.49586 5.58903 0
M  V30 6646 N 610.078 -3.62175 6.01477 0
M  V30 6647 H 614.918 -0.344886 2.95998 0
M  V30 6648 H 612.455 -0.15855 1.46243 0
M  V30 6649 H 614.413 -2.82234 3.07246 0
M  V30 6650 H 613.043 -2.56427 1.96074 0
M  V30 6651 H 612.095 -0.88201 3.70033 0
M  V30 6652 H 613.407 -1.36884 4.7965 0
M  V30 6653 H 612.561 -3.72454 4.78919 0
M  V30 6654 H 611.3 -3.28848 3.60153 0
M  V30 6655 H 610.305 -1.6667 5.23929 0
M  V30 6656 H 611.53 -2.12973 6.4484 0
M  V30 6657 H 609.476 -3.99605 5.20242 0
M  V30 6658 H 609.393 -3.3155 6.79419 0
M  V30 6659 H 610.661 -4.43987 6.407 0
M  V30 6660 O 614.929 -1.61473 -0.0293866 0
M  V30 6661 H 615.62 -1.82469 -0.649975 0
M  V30 END ATOM
M  V30 BEGIN BOND
M  V30 END BOND
M  V30 END CTAB
M  END
$$$$
