drugbank_target|P49662 Caspase-4 (DB06255)
 OpenBabel12092121233D

  0  0  0     0  0            999 V3000
M  V30 BEGIN CTAB
M  V30 COUNTS 6023 6084 0 0 0
M  V30 BEGIN ATOM
M  V30 1 H -0.908 1.98254 -0.117106 0
M  V30 2 N 0 1.576 0 0
M  V30 3 C 0.933 2.03868 1.02534 0
M  V30 4 C 1.911 0.928543 1.3348 0
M  V30 5 O 3.095 1.19667 1.45644 0
M  V30 6 C 0.222 2.43627 2.35294 0
M  V30 7 C -0.732 3.65373 2.2001 0
M  V30 8 S 0.101 5.13292 1.52614 0
M  V30 9 C 1.257 5.56322 2.86805 0
M  V30 10 H 1.49 2.90518 0.631377 0
M  V30 11 H -0.977 1.52953 0.210867 0
M  V30 12 H 0.981 2.67203 3.11629 0
M  V30 13 H -0.358 1.57376 2.7183 0
M  V30 14 H -1.165 3.90944 3.18086 0
M  V30 15 H -1.563 3.418 1.51819 0
M  V30 16 H 0.729 5.58782 3.83104 0
M  V30 17 H 1.672 6.56266 2.65933 0
M  V30 18 H 2.08 4.83886 2.90714 0
M  V30 19 N 1.4781 -0.272755 1.55222 0
M  V30 20 C 2.4411 -1.32041 1.87344 0
M  V30 21 C 3.4411 -1.42342 0.74803 0
M  V30 22 O 4.6311 -1.41488 1.0162 0
M  V30 23 C 1.7631 -2.70173 2.07893 0
M  V30 24 H 2.9561 -1.04789 2.80997 0
M  V30 25 H 0.5091 -0.51083 1.47717 0
M  V30 26 H 1.2441 -3.02605 1.16622 0
M  V30 27 H 1.0291 -2.64082 2.89833 0
M  V30 28 H 2.5191 -3.45869 2.34017 0
M  V30 29 N 2.9562 -1.48159 -0.537278 0
M  V30 30 C 3.8662 -1.64807 -1.6696 0
M  V30 31 C 4.8822 -0.530651 -1.65711 0
M  V30 32 O 6.0582 -0.800784 -1.84796 0
M  V30 33 C 3.1232 -1.67708 -3.03438 0
M  V30 34 C 2.1842 -2.91025 -3.156 0
M  V30 35 C 1.4172 -2.93778 -4.45567 0
M  V30 36 O 1.6402 -2.05153 -5.3223 0
M  V30 37 O 0.5742 -3.85868 -4.61941 0
M  V30 38 H 4.4002 -2.6066 -1.55853 0
M  V30 39 H 1.9852 -1.31475 -0.709549 0
M  V30 40 H 3.8672 -1.7218 -3.84619 0
M  V30 41 H 2.5422 -0.750278 -3.14885 0
M  V30 42 H 1.4492 -2.92089 -2.33741 0
M  V30 43 H 2.7822 -3.83065 -3.09066 0
M  V30 44 N 4.4343 0.785586 -1.36625 0
M  V30 45 C 5.6823 1.54057 -1.30808 0
M  V30 46 C 6.0033 1.94683 0.111157 0
M  V30 47 O 5.2733 1.65241 1.05224 0
M  V30 48 H 3.8533 0.571354 -0.481211 0
M  V30 49 H 6.5153 0.935821 -1.70963 0
M  V30 50 H 5.6113 2.44637 -1.93801 0
M  V30 51 N 5.9124 1.20967 1.01018 0
M  V30 52 C 6.8604 0.961223 2.1181 0
M  V30 53 C 7.8544 -0.0897034 1.69162 0
M  V30 54 O 9.0604 0.0612271 1.79896 0
M  V30 55 H 5.4354 0.29355 0.692338 0
M  V30 56 H 7.4064 1.90178 2.29946 0
M  V30 57 C 6.1554 0.536854 3.4353 0
M  V30 58 H 5.4784 1.33713 3.76777 0
M  V30 59 H 6.9184 0.402286 4.22087 0
M  V30 60 C 5.3774 -0.751574 3.2841 0
M  V30 61 O 5.9074 -1.80841 3.58691 0
M  V30 62 N 4.1134 -0.716079 2.81639 0
M  V30 63 H 3.6604 0.144236 2.57196 0
M  V30 64 H 3.6184 -1.57847 2.71904 0
M  V30 65 N 7.3905 -1.2043 1.01659 0
M  V30 66 C 8.3405 -2.21076 0.557623 0
M  V30 67 C 9.3245 -1.56176 -0.387029 0
M  V30 68 O 10.5165 -1.7575 -0.209996 0
M  V30 69 C 7.6455 -3.43146 -0.102707 0
M  V30 70 C 6.7315 -4.15213 0.863652 0
M  V30 71 N 7.1225 -4.63662 2.02117 0
M  V30 72 C 5.4205 -4.40716 0.684472 0
M  V30 73 C 6.1215 -5.18868 2.62966 0
M  V30 74 N 5.0975 -5.0893 1.91027 0
M  V30 75 H 8.8995 -2.56201 1.44008 0
M  V30 76 H 6.4135 -1.36366 0.881931 0
M  V30 77 H 8.4105 -4.14475 -0.449054 0
M  V30 78 H 7.0705 -3.09526 -0.981003 0
M  V30 79 H 8.0815 -4.58877 2.40109 0
M  V30 80 H 4.7585 -4.17245 -0.14577 0
M  V30 81 H 6.1485 -5.6673 3.60924 0
M  V30 82 N 8.8686 -0.792821 -1.36206 0
M  V30 83 C 10.2846 -0.474903 -1.52371 0
M  V30 84 C 10.4846 1.00622 -1.74578 0
M  V30 85 O 9.5406 1.79162 -1.77924 0
M  V30 86 C 10.8536 -1.3083 -2.70747 0
M  V30 87 C 12.4016 -1.30234 -2.84619 0
M  V30 88 C 12.8766 -2.11956 -4.06004 0
M  V30 89 N 14.3676 -2.09419 -4.13156 0
M  V30 90 C 15.1026 -2.69419 -5.06163 0
M  V30 91 N 14.5986 -3.3829 -6.04592 0
M  V30 92 N 16.3916 -2.59134 -4.98804 0
M  V30 93 H 8.5426 -1.75222 -1.20046 0
M  V30 94 H 10.8056 -0.745024 -0.586211 0
M  V30 95 H 10.5116 -2.35881 -2.6087 0
M  V30 96 H 10.3856 -0.95196 -3.6499 0
M  V30 97 H 12.7726 -0.259748 -2.93955 0
M  V30 98 H 12.8536 -1.69847 -1.91274 0
M  V30 99 H 12.4976 -3.16248 -3.97429 0
M  V30 100 H 12.4276 -1.69711 -4.98503 0
M  V30 101 H 14.9186 -1.59297 -3.42685 0
M  V30 102 H 15.2316 -3.81394 -6.7213 0
M  V30 103 H 13.5766 -3.42393 -6.04807 0
M  V30 104 H 16.7676 -2.04927 -4.20859 0
M  V30 105 H 16.9406 -3.06185 -5.711 0
M  V30 106 N 10.3467 1.47872 -0.545128 0
M  V30 107 C 11.2937 2.29849 0.2093 0
M  V30 108 C 12.2637 1.38313 0.919707 0
M  V30 109 O 13.4487 1.67277 0.917772 0
M  V30 110 C 10.5887 3.22019 1.24088 0
M  V30 111 C 9.7017 4.2864 0.537778 0
M  V30 112 C 8.8367 5.07973 1.5536 0
M  V30 113 C 7.8757 6.06381 0.8348 0
M  V30 114 N 7.0127 6.78717 1.79688 0
M  V30 115 H 11.8527 2.93845 -0.49591 0
M  V30 116 H 9.3897 1.44848 -0.256389 0
M  V30 117 H 11.3477 3.73868 1.85144 0
M  V30 118 H 9.9777 2.59914 1.91428 0
M  V30 119 H 9.0297 3.7994 -0.187046 0
M  V30 120 H 10.3417 4.98793 -0.0258907 0
M  V30 121 H 9.4957 5.63912 2.23803 0
M  V30 122 H 8.2347 4.37693 2.15118 0
M  V30 123 H 7.2397 5.49631 0.136388 0
M  V30 124 H 8.4647 6.78665 0.24313 0
M  V30 125 H 6.4107 6.11177 2.38326 0
M  V30 126 H 6.3277 7.44998 1.28505 0
M  V30 127 H 7.5957 7.39237 2.47282 0
M  V30 128 N 11.8248 0.280983 1.55075 0
M  V30 129 C 12.7718 -0.603937 2.22758 0
M  V30 130 C 13.7418 -1.1452 1.20309 0
M  V30 131 O 14.9268 -1.19343 1.48869 0
M  V30 132 C 12.0668 -1.77947 2.95684 0
M  V30 133 C 11.1798 -1.2715 4.12864 0
M  V30 134 C 10.3148 -2.4093 4.7342 0
M  V30 135 C 9.3538 -1.87165 5.82783 0
M  V30 136 N 8.4908 -2.94441 6.37377 0
M  V30 137 H 13.3308 -0.020124 2.97993 0
M  V30 138 H 10.8678 0.00183425 1.471 0
M  V30 139 H 12.8258 -2.47055 3.36184 0
M  V30 140 H 11.4558 -2.33522 2.22861 0
M  V30 141 H 10.5078 -0.473331 3.77444 0
M  V30 142 H 11.8198 -0.837751 4.91715 0
M  V30 143 H 10.9738 -3.18021 5.1667 0
M  V30 144 H 9.7128 -2.87623 3.93859 0
M  V30 145 H 8.7178 -1.08556 5.38976 0
M  V30 146 H 9.9428 -1.41401 6.64216 0
M  V30 147 H 7.8888 -3.40505 5.60707 0
M  V30 148 H 7.8058 -2.55501 7.11516 0
M  V30 149 H 9.0738 -3.71489 6.85285 0
M  V30 150 N 13.3029 -1.57598 0.00835791 0
M  V30 151 C 14.7139 -1.7892 -0.53333 0
M  V30 152 C 15.0649 -0.916609 -1.73473 0
M  V30 153 O 14.1899 -0.121336 -2.1606 0
M  V30 154 C 14.7849 -3.24488 -0.974313 0
M  V30 155 C 13.3439 -3.46878 -1.46125 0
M  V30 156 C 12.4909 -2.74157 -0.416302 0
M  V30 157 H 15.4419 -1.56958 0.234495 0
M  V30 158 H 15.4629 -3.3306 -1.83988 0
M  V30 159 H 14.9749 -3.87972 -0.099718 0
M  V30 160 H 13.0759 -2.8862 -2.35646 0
M  V30 161 H 13.1889 -4.55572 -1.48295 0
M  V30 162 H 11.5529 -2.39022 -0.87981 0
M  V30 163 H 12.3359 -3.40345 0.44947 0
M  V30 164 N 14.781 0.264519 -1.55364 0
M  V30 165 C 15.711 1.33121 -1.91836 0
M  V30 166 C 16.692 1.51101 -0.781192 0
M  V30 167 O 17.877 1.64003 -1.04003 0
M  V30 168 C 15.007 2.68921 -2.19769 0
M  V30 169 C 13.961 2.65661 -3.35571 0
M  V30 170 C 13.287 4.05093 -3.49004 0
M  V30 171 C 14.587 2.24187 -4.71739 0
M  V30 172 H 16.281 1.02844 -2.81182 0
M  V30 173 H 13.827 0.493286 -1.35287 0
M  V30 174 H 15.78 3.43663 -2.43872 0
M  V30 175 H 14.504 3.00799 -1.27231 0
M  V30 176 H 13.163 1.93377 -3.1145 0
M  V30 177 H 12.811 4.34206 -2.53917 0
M  V30 178 H 12.511 4.03804 -4.26868 0
M  V30 179 H 14.035 4.81561 -3.75408 0
M  V30 180 H 15.449 2.88654 -4.9533 0
M  V30 181 H 13.846 2.34044 -5.52579 0
M  V30 182 H 14.916 1.19327 -4.69988 0
M  V30 183 N 16.2591 1.48442 0.529413 0
M  V30 184 C 17.2061 1.63007 1.63394 0
M  V30 185 C 18.1761 0.47212 1.59249 0
M  V30 186 O 19.3611 0.695673 1.77666 0
M  V30 187 C 16.5011 1.6763 3.01653 0
M  V30 188 C 15.6141 2.94535 3.16027 0
M  V30 189 C 14.7491 2.90316 4.44849 0
M  V30 190 C 13.7881 4.11923 4.52754 0
M  V30 191 N 12.9251 4.05777 5.72965 0
M  V30 192 H 17.7651 2.5733 1.50285 0
M  V30 193 H 15.3021 1.27613 0.731656 0
M  V30 194 H 17.2601 1.68292 3.81751 0
M  V30 195 H 15.8901 0.76797 3.13532 0
M  V30 196 H 14.9421 3.03615 2.29177 0
M  V30 197 H 16.2541 3.84512 3.17729 0
M  V30 198 H 15.4081 2.89382 5.33238 0
M  V30 199 H 14.1471 1.98068 4.45668 0
M  V30 200 H 13.1521 4.13131 3.62771 0
M  V30 201 H 14.3771 5.0533 4.53672 0
M  V30 202 H 12.3231 3.16351 5.74681 0
M  V30 203 H 12.2401 4.8946 5.76164 0
M  V30 204 H 13.5081 4.08904 6.6364 0
M  V30 205 N 17.7372 -0.778329 1.37039 0
M  V30 206 C 18.9832 -1.53892 1.32079 0
M  V30 207 C 19.3162 -1.9396 -0.0965386 0
M  V30 208 O 18.5912 -1.63568 -1.05242 0
M  V30 209 C 18.8742 -2.80847 2.25382 0
M  V30 210 C 18.7272 -2.47076 3.75864 0
M  V30 211 C 20.0462 -3.82741 2.1725 0
M  V30 212 H 17.1652 -0.558303 0.48111 0
M  V30 213 H 19.8072 -0.893397 1.67685 0
M  V30 214 H 17.9572 -3.35931 1.95148 0
M  V30 215 H 19.6292 -1.97957 4.16666 0
M  V30 216 H 17.8722 -1.79863 3.94755 0
M  V30 217 H 18.5432 -3.37798 4.36574 0
M  V30 218 H 21.0192 -3.37133 2.43887 0
M  V30 219 H 19.8952 -4.69303 2.84686 0
M  V30 220 H 20.1562 -4.2652 1.16331 0
M  V30 221 N 19.2153 -1.21501 -1.00376 0
M  V30 222 C 20.1453 -0.999478 -2.11028 0
M  V30 223 C 21.1263 0.0759671 -1.6993 0
M  V30 224 O 22.3113 -0.0841106 -1.94018 0
M  V30 225 C 19.4413 -0.564709 -3.42678 0
M  V30 226 C 18.3953 -1.58486 -3.97576 0
M  V30 227 C 17.7213 -1.00628 -5.25146 0
M  V30 228 C 19.0213 -2.97204 -4.29496 0
M  V30 229 H 20.7153 -1.92495 -2.29317 0
M  V30 230 H 18.2613 -0.92693 -1.102 0
M  V30 231 H 20.2143 -0.401091 -4.19487 0
M  V30 232 H 18.9383 0.396411 -3.24185 0
M  V30 233 H 17.5973 -1.73606 -3.22888 0
M  V30 234 H 17.2453 -0.0368439 -5.02987 0
M  V30 235 H 16.9453 -1.68771 -5.62841 0
M  V30 236 H 18.4693 -0.854015 -6.04598 0
M  V30 237 H 19.8833 -2.8552 -4.97143 0
M  V30 238 H 18.2803 -3.62372 -4.78338 0
M  V30 239 H 19.3503 -3.47956 -3.3772 0
M  V30 240 N 20.6934 1.19889 -1.02296 0
M  V30 241 C 21.6034 2.26571 -0.608508 0
M  V30 242 C 22.6194 1.70299 0.356964 0
M  V30 243 O 23.7954 2.00235 0.216326 0
M  V30 244 C 20.8604 3.46677 0.0402814 0
M  V30 245 C 19.9214 4.18153 -0.97194 0
M  V30 246 C 19.1544 5.32525 -0.354016 0
M  V30 247 O 19.3774 5.64112 0.844604 0
M  V30 248 O 18.3114 5.92242 -1.07391 0
M  V30 249 H 22.1374 2.64251 -1.49684 0
M  V30 250 H 19.7224 1.26629 -0.792809 0
M  V30 251 H 21.6044 4.19475 0.402324 0
M  V30 252 H 20.2794 3.10858 0.902707 0
M  V30 253 H 19.1864 3.47499 -1.38546 0
M  V30 254 H 20.5194 4.57927 -1.80454 0
M  V30 255 N 22.1715 0.800033 1.35784 0
M  V30 256 C 23.3965 0.388511 2.03729 0
M  V30 257 C 23.8215 -0.990481 1.5991 0
M  V30 258 O 23.1795 -1.64013 0.772612 0
M  V30 259 C 23.2275 0.4726 3.5749 0
M  V30 260 O 22.3315 -0.51646 4.09153 0
M  V30 261 H 21.6725 0.163271 0.643614 0
M  V30 262 H 24.2025 1.0841 1.73518 0
M  V30 263 H 24.2125 0.34003 4.06581 0
M  V30 264 H 22.8875 1.47848 3.88734 0
M  V30 265 H 21.4645 -0.344673 3.71304 0
M  V30 266 N 23.6496 -1.47581 0.552962 0
M  V30 267 C 24.5796 -2.32762 -0.185451 0
M  V30 268 C 25.5606 -1.43527 -0.912905 0
M  V30 269 O 26.7456 -1.72388 -0.894201 0
M  V30 270 C 23.8756 -3.25219 -1.21859 0
M  V30 271 C 22.8296 -4.23661 -0.607864 0
M  V30 272 C 22.1556 -5.05413 -1.74533 0
M  V30 273 C 23.4556 -5.20481 0.435582 0
M  V30 274 H 25.1496 -2.94749 0.525684 0
M  V30 275 H 22.6956 -1.41738 0.254251 0
M  V30 276 H 24.6486 -3.8365 -1.7433 0
M  V30 277 H 23.3726 -2.61279 -1.95961 0
M  V30 278 H 22.0316 -3.66451 -0.104489 0
M  V30 279 H 21.6796 -4.3788 -2.47529 0
M  V30 280 H 21.3796 -5.72059 -1.34249 0
M  V30 281 H 22.9036 -5.66701 -2.27338 0
M  V30 282 H 24.3176 -5.733 -0.00290157 0
M  V30 283 H 22.7146 -5.95305 0.757067 0
M  V30 284 H 23.7846 -4.66217 1.33303 0
M  V30 285 N 25.1277 -0.289203 -1.54924 0
M  V30 286 C 26.3757 0.322879 -1.99504 0
M  V30 287 C 26.6967 1.55313 -1.1791 0
M  V30 288 O 25.9667 1.94001 -0.272097 0
M  V30 289 H 24.5467 0.122291 -0.736922 0
M  V30 290 H 27.2087 -0.397802 -1.90797 0
M  V30 291 H 26.3047 0.603061 -3.06218 0
M  V30 292 N 26.6058 1.57591 -0.0167156 0
M  V30 293 C 27.5528 2.09462 0.969251 0
M  V30 294 C 28.5228 0.99381 1.33089 0
M  V30 295 O 29.7078 1.26726 1.42636 0
M  V30 296 C 26.8478 2.61622 2.25051 0
M  V30 297 C 25.9608 3.85666 1.94642 0
M  V30 298 C 25.0958 4.26266 3.16972 0
M  V30 299 C 24.1348 5.43101 2.82326 0
M  V30 300 N 23.2718 5.78915 3.97243 0
M  V30 301 H 28.1118 2.93428 0.519997 0
M  V30 302 H 25.6488 1.45044 0.245087 0
M  V30 303 H 27.6068 2.89949 2.99976 0
M  V30 304 H 26.2368 1.80505 2.67615 0
M  V30 305 H 25.2888 3.64145 1.10013 0
M  V30 306 H 26.6008 4.70678 1.65117 0
M  V30 307 H 25.7548 4.55963 4.00228 0
M  V30 308 H 24.4938 3.39996 3.49648 0
M  V30 309 H 23.4988 5.1311 1.97479 0
M  V30 310 H 24.7238 6.3106 2.50879 0
M  V30 311 H 22.6698 4.95602 4.29785 0
M  V30 312 H 22.5868 6.58539 3.71299 0
M  V30 313 H 23.8548 6.13212 4.81239 0
M  V30 314 N 28.0839 -0.256276 1.55502 0
M  V30 315 C 29.3609 -1.00789 1.67633 0
M  V30 316 C 29.7409 -2.03706 0.553826 0
M  V30 317 O 29.0889 -2.24145 -0.443969 0
M  V30 318 C 29.2989 -1.64968 3.07549 0
M  V30 319 C 30.6469 -2.15505 3.65845 0
M  V30 320 O 31.6709 -1.74925 3.1029 0
M  V30 321 O 30.5299 -2.89986 4.63217 0
M  V30 322 H 27.6239 -0.468553 0.681459 0
M  V30 323 H 30.1699 -0.250806 1.67836 0
M  V30 324 H 28.9419 -0.904785 3.80696 0
M  V30 325 H 28.5649 -2.47321 3.11317 0
M  V30 326 N 29.562 -1.4872 -0.521534 0
M  V30 327 C 30.809 -1.57168 -1.27689 0
M  V30 328 C 31.137 -0.249275 -1.92896 0
M  V30 329 O 30.392 0.761162 -1.80291 0
M  V30 330 C 30.691 -2.66497 -2.38148 0
M  V30 331 C 30.357 -4.08664 -1.90538 0
M  V30 332 C 29.019 -4.47357 -1.77271 0
M  V30 333 C 31.371 -4.97724 -1.54663 0
M  V30 334 C 28.699 -5.72905 -1.26478 0
M  V30 335 C 31.051 -6.2377 -1.05329 0
M  V30 336 C 29.715 -6.61311 -0.906861 0
M  V30 337 H 28.985 -0.575117 -0.467249 0
M  V30 338 H 31.632 -1.82472 -0.581051 0
M  V30 339 H 29.937 -2.35085 -3.13437 0
M  V30 340 H 31.634 -2.70246 -2.96257 0
M  V30 341 H 28.224 -3.78111 -2.01816 0
M  V30 342 H 32.408 -4.68501 -1.63768 0
M  V30 343 H 27.664 -6.00709 -1.13835 0
M  V30 344 H 31.838 -6.9217 -0.76644 0
M  V30 345 H 29.465 -7.5848 -0.511083 0
M  V30 346 N 31.0401 0.771051 -1.3745 0
M  V30 347 C 31.9701 1.89827 -1.3597 0
M  V30 348 C 32.9511 1.68562 -0.228216 0
M  V30 349 O 34.1361 1.8941 -0.428675 0
M  V30 350 C 31.2661 3.2712 -1.16662 0
M  V30 351 C 30.2201 3.6295 -2.2683 0
M  V30 352 C 29.5461 4.98791 -1.92644 0
M  V30 353 C 30.8461 3.69627 -3.69017 0
M  V30 354 H 32.5401 1.91323 -2.30295 0
M  V30 355 H 30.0861 0.919082 -1.10855 0
M  V30 356 H 32.0391 4.05615 -1.14256 0
M  V30 357 H 30.7631 3.26059 -0.187926 0
M  V30 358 H 29.4221 2.86763 -2.28392 0
M  V30 359 H 29.0701 4.94271 -0.933021 0
M  V30 360 H 28.7701 5.23733 -2.66416 0
M  V30 361 H 30.2941 5.79685 -1.91826 0
M  V30 362 H 31.7081 4.38273 -3.69581 0
M  V30 363 H 30.1051 4.06067 -4.41848 0
M  V30 364 H 31.1751 2.70273 -4.02592 0
M  V30 365 N 32.5182 1.22032 0.997298 0
M  V30 366 C 33.7462 1.06841 1.7718 0
M  V30 367 C 34.1612 -0.381325 1.84909 0
M  V30 368 O 33.5182 -1.26437 1.31605 0
M  V30 369 C 33.5692 1.66814 3.20711 0
M  V30 370 O 33.2902 3.06116 3.13408 0
M  V30 371 C 34.7912 1.56838 4.14628 0
M  V30 372 H 32.0112 0.374782 0.556578 0
M  V30 373 H 34.5552 1.61532 1.2541 0
M  V30 374 H 32.7102 1.16196 3.69564 0
M  V30 375 H 33.1242 3.34926 4.0364 0
M  V30 376 H 34.5982 2.03532 5.13107 0
M  V30 377 H 35.0752 0.524155 4.36061 0
M  V30 378 H 35.6812 2.06741 3.7167 0
M  V30 379 N 33.9963 -1.19345 1.0293 0
M  V30 380 C 35.2443 -1.88665 0.724574 0
M  V30 381 C 35.5653 -1.80036 -0.749144 0
M  V30 382 O 34.8353 -1.2111 -1.53978 0
M  V30 383 H 33.4153 -0.698406 0.265025 0
M  V30 384 H 36.0773 -1.44885 1.30362 0
M  V30 385 H 35.1733 -2.94987 1.01926 0
M  V30 386 N 35.4744 -0.807222 -1.35358 0
M  V30 387 C 36.7204 -0.388463 -1.99045 0
M  V30 388 C 37.0534 1.04184 -1.63888 0
M  V30 389 O 36.3284 1.72292 -0.902535 0
M  V30 390 C 36.6114 -0.572783 -3.55515 0
M  V30 391 C 36.4644 -2.04807 -4.00468 0
M  V30 392 C 37.7834 0.00114064 -4.401 0
M  V30 393 H 34.9024 -0.142619 -0.723069 0
M  V30 394 H 37.5444 -1.01687 -1.60498 0
M  V30 395 H 35.6944 -0.0378425 -3.88482 0
M  V30 396 H 37.3664 -2.64544 -3.77908 0
M  V30 397 H 35.6094 -2.54427 -3.51353 0
M  V30 398 H 36.2804 -2.12792 -5.09337 0
M  V30 399 H 38.7564 -0.455716 -4.13597 0
M  V30 400 H 37.6324 -0.157737 -5.48673 0
M  V30 401 H 37.8934 1.09488 -4.28328 0
M  V30 402 N 36.9525 1.47285 -0.560781 0
M  V30 403 C 37.8825 2.32857 0.173105 0
M  V30 404 C 38.8635 1.44009 0.905281 0
M  V30 405 O 40.0485 1.7286 0.885046 0
M  V30 406 C 37.1785 3.25861 1.20133 0
M  V30 407 C 36.1325 4.23978 0.585388 0
M  V30 408 C 35.4585 5.06332 1.7185 0
M  V30 409 C 36.7585 5.20242 -0.463178 0
M  V30 410 H 38.4525 2.94466 -0.541307 0
M  V30 411 H 35.9985 1.41601 -0.261764 0
M  V30 412 H 37.9515 3.84569 1.72293 0
M  V30 413 H 36.6755 2.62315 1.94573 0
M  V30 414 H 35.3345 3.66501 0.085054 0
M  V30 415 H 34.9825 4.39186 2.45203 0
M  V30 416 H 34.6825 5.72762 1.31213 0
M  V30 417 H 36.2065 5.67899 2.24329 0
M  V30 418 H 37.6205 5.73293 -0.027502 0
M  V30 419 H 36.0175 5.94896 -0.788627 0
M  V30 420 H 37.0875 4.65504 -1.35773 0
M  V30 421 N 38.4306 0.297415 1.54768 0
M  V30 422 C 39.7076 -0.365847 1.92148 0
M  V30 423 C 40.0876 -1.71975 1.22424 0
M  V30 424 O 39.4356 -2.25666 0.358739 0
M  V30 425 C 39.6456 -0.484056 3.45627 0
M  V30 426 C 40.9936 -0.756594 4.17805 0
M  V30 427 O 42.0176 -0.568007 3.51642 0
M  V30 428 O 40.8766 -1.11863 5.34929 0
M  V30 429 H 37.9706 -0.203919 0.801465 0
M  V30 430 H 40.5166 0.34521 1.66152 0
M  V30 431 H 39.2886 0.467865 3.88493 0
M  V30 432 H 38.9116 -1.24372 3.77647 0
M  V30 433 N 39.9087 -1.5758 0.0250728 0
M  V30 434 C 40.8567 -2.11125 -0.97617 0
M  V30 435 C 41.8507 -1.03689 -1.33959 0
M  V30 436 O 43.0567 -1.22128 -1.3223 0
M  V30 437 H 39.4317 -0.674468 -0.332561 0
M  V30 438 H 41.4027 -2.94194 -0.499223 0
M  V30 439 C 40.1517 -2.65017 -2.2508 0
M  V30 440 H 39.4747 -3.47333 -1.9799 0
M  V30 441 H 40.9147 -3.06133 -2.93357 0
M  V30 442 C 39.3737 -1.57574 -2.97779 0
M  V30 443 O 39.9037 -0.973203 -3.89733 0
M  V30 444 N 38.1097 -1.29716 -2.60043 0
M  V30 445 H 37.6567 -1.789 -1.85345 0
M  V30 446 H 37.6147 -0.58051 -3.08994 0
M  V30 447 N 41.3868 0.248026 -1.55636 0
M  V30 448 C 42.3168 1.31079 -1.93237 0
M  V30 449 C 43.2978 1.50264 -0.797174 0
M  V30 450 O 44.4828 1.62891 -1.05737 0
M  V30 451 C 41.6128 2.66575 -2.22609 0
M  V30 452 C 40.5668 2.62087 -3.3837 0
M  V30 453 C 39.8928 4.01369 -3.53281 0
M  V30 454 C 41.1928 2.19171 -4.7409 0
M  V30 455 H 42.8868 0.998556 -2.82257 0
M  V30 456 H 40.4328 0.47891 -1.35803 0
M  V30 457 H 42.3858 3.41057 -2.47503 0
M  V30 458 H 41.1098 2.99432 -1.30414 0
M  V30 459 H 39.7688 1.90063 -3.13483 0
M  V30 460 H 39.4168 4.31489 -2.58508 0
M  V30 461 H 39.1168 3.99254 -4.31127 0
M  V30 462 H 40.6408 4.77552 -3.80495 0
M  V30 463 H 42.0548 2.83384 -4.98363 0
M  V30 464 H 40.4518 2.2817 -5.5503 0
M  V30 465 H 41.5218 1.14336 -4.71227 0
M  V30 466 N 42.8649 1.48995 0.513639 0
M  V30 467 C 44.1109 1.58076 1.27042 0
M  V30 468 C 44.4439 0.261026 1.92438 0
M  V30 469 O 43.7189 -0.734393 1.80103 0
M  V30 470 C 44.0019 2.73091 2.34719 0
M  V30 471 C 43.8549 4.14821 1.73907 0
M  V30 472 C 45.1739 2.83796 3.36375 0
M  V30 473 H 42.2929 0.575391 0.460536 0
M  V30 474 H 44.9349 1.81232 0.570516 0
M  V30 475 H 43.0849 2.53479 2.94416 0
M  V30 476 H 44.7569 4.45917 1.18135 0
M  V30 477 H 42.9999 4.21058 1.0437 0
M  V30 478 H 43.6709 4.91147 2.51949 0
M  V30 479 H 46.1469 3.01611 2.86653 0
M  V30 480 H 45.0229 3.65971 4.09093 0
M  V30 481 H 45.2839 1.92624 3.9793 0
M  V30 482 N 44.343 -0.763751 1.37857 0
M  V30 483 C 45.253 -1.90817 1.36478 0
M  V30 484 C 46.269 -1.71997 0.263248 0
M  V30 485 O 47.445 -1.95095 0.499979 0
M  V30 486 C 44.51 -3.2605 1.17864 0
M  V30 487 C 43.571 -3.57467 2.3773 0
M  V30 488 C 42.804 -4.86249 2.19995 0
M  V30 489 O 43.027 -5.57884 1.18836 0
M  V30 490 O 41.961 -5.16911 3.08361 0
M  V30 491 H 45.787 -1.94933 2.32884 0
M  V30 492 H 43.372 -0.907619 1.1867 0
M  V30 493 H 45.254 -4.06924 1.09504 0
M  V30 494 H 43.929 -3.22769 0.245372 0
M  V30 495 H 42.836 -2.76796 2.51664 0
M  V30 496 H 44.169 -3.655 3.29652 0
M  V30 497 N 45.8211 -1.22559 -0.990812 0
M  V30 498 C 46.7531 -0.955325 -2.08342 0
M  V30 499 C 47.7661 0.0668408 -1.62663 0
M  V30 500 O 48.9551 -0.167421 -1.77713 0
M  V30 501 C 46.0551 -0.415566 -3.36342 0
M  V30 502 C 45.2281 -1.49544 -4.11042 0
M  V30 503 C 44.2871 -0.962399 -5.17324 0
M  V30 504 O 43.3131 -1.64907 -5.44788 0
M  V30 505 N 44.5151 0.215134 -5.80101 0
M  V30 506 H 47.2801 -1.89596 -2.32106 0
M  V30 507 H 44.8411 -1.13276 -1.15673 0
M  V30 508 H 46.8331 -0.0442386 -4.04676 0
M  V30 509 H 45.4031 0.430232 -3.09625 0
M  V30 510 H 44.6231 -2.04 -3.37309 0
M  V30 511 H 45.9111 -2.22195 -4.57719 0
M  V30 512 H 45.3091 0.789779 -5.6016 0
M  V30 513 H 43.8661 0.527826 -6.49659 0
M  V30 514 N 47.2992 1.18797 -1.03562 0
M  V30 515 C 48.2472 2.24297 -0.615905 0
M  V30 516 C 49.2412 1.65643 0.354808 0
M  V30 517 O 50.4472 1.78618 0.22265 0
M  V30 518 H 46.8222 0.729909 -0.180934 0
M  V30 519 H 48.7932 2.5701 -1.5162 0
M  V30 520 C 47.5422 3.47698 0.0104735 0
M  V30 521 H 46.8652 3.93125 -0.727509 0
M  V30 522 H 48.3052 4.23159 0.266995 0
M  V30 523 C 46.7642 3.12489 1.25905 0
M  V30 524 O 47.2942 3.25761 2.35038 0
M  V30 525 N 45.5002 2.6686 1.15039 0
M  V30 526 H 45.0472 2.56261 0.262328 0
M  V30 527 H 45.0052 2.43674 1.98672 0
M  V30 528 N 48.7773 0.814389 1.34928 0
M  V30 529 C 50.0233 0.399013 1.98836 0
M  V30 530 C 50.3563 -1.03314 1.64438 0
M  V30 531 O 49.6313 -1.71811 0.911659 0
M  V30 532 C 49.9143 0.591629 3.55207 0
M  V30 533 C 49.7673 2.06928 3.99376 0
M  V30 534 C 51.0863 0.022199 4.40094 0
M  V30 535 H 48.2053 0.146451 0.722303 0
M  V30 536 H 50.8473 1.02537 1.59957 0
M  V30 537 H 48.9973 0.0584441 3.88456 0
M  V30 538 H 50.6693 2.66544 3.76499 0
M  V30 539 H 48.9123 2.56287 3.49999 0
M  V30 540 H 49.5833 2.1549 5.08201 0
M  V30 541 H 52.0593 0.477643 4.13349 0
M  V30 542 H 50.9353 0.186832 5.48582 0
M  V30 543 H 51.1963 -1.07215 4.28902 0
M  V30 544 N 50.2554 -1.46986 0.568584 0
M  V30 545 C 51.1854 -2.32946 -0.160753 0
M  V30 546 C 52.1664 -1.44487 -0.897631 0
M  V30 547 O 53.3514 -1.73327 -0.875867 0
M  V30 548 C 50.4814 -3.26494 -1.18403 0
M  V30 549 C 49.4354 -4.24282 -0.562895 0
M  V30 550 C 48.7614 -5.07236 -1.69163 0
M  V30 551 C 50.0614 -5.19989 0.490761 0
M  V30 552 H 51.7554 -2.94175 0.556916 0
M  V30 553 H 49.3014 -1.4146 0.26927 0
M  V30 554 H 51.2544 -3.85477 -1.70251 0
M  V30 555 H 49.9784 -2.63343 -1.93179 0
M  V30 556 H 48.6374 -3.66541 -0.0656164 0
M  V30 557 H 48.2854 -4.4048 -2.42871 0
M  V30 558 H 47.9854 -5.7345 -1.28174 0
M  V30 559 H 49.5094 -5.6908 -2.21314 0
M  V30 560 H 50.9234 -5.73271 0.0579047 0
M  V30 561 H 49.3204 -5.94469 0.820165 0
M  V30 562 H 50.3904 -4.64777 1.3824 0
M  V30 563 N 51.7335 -0.305618 -1.54608 0
M  V30 564 C 52.6815 0.584119 -2.25146 0
M  V30 565 C 53.6755 1.13326 -1.25911 0
M  V30 566 O 54.8815 1.08337 -1.43747 0
M  V30 567 H 51.2565 0.206983 -0.722954 0
M  V30 568 H 53.2275 -0.033291 -2.98381 0
M  V30 569 C 51.9765 1.74225 -3.009 0
M  V30 570 H 51.2995 1.32892 -3.77067 0
M  V30 571 H 52.7395 2.34077 -3.53531 0
M  V30 572 C 51.1985 2.64914 -2.0814 0
M  V30 573 O 51.7285 3.66137 -1.65246 0
M  V30 574 N 49.9345 2.3275 -1.74 0
M  V30 575 H 49.4815 1.50479 -2.09078 0
M  V30 576 H 49.4395 2.93694 -1.12211 0
M  V30 577 N 53.2116 1.57565 -0.0334293 0
M  V30 578 C 54.4576 1.93088 0.639417 0
M  V30 579 C 54.8126 0.910589 1.69488 0
M  V30 580 O 54.1056 -0.0727725 1.91462 0
M  V30 581 C 54.2996 3.33112 1.29504 0
M  V30 582 C 54.1286 4.48667 0.304604 0
M  V30 583 C 52.8986 5.05207 -0.0970777 0
M  V30 584 C 55.0966 5.1239 -0.442845 0
M  V30 585 N 53.0786 6.04286 -1.08223 0
M  V30 586 C 54.4496 6.06609 -1.28161 0
M  V30 587 C 56.5046 4.95352 -0.50308 0
M  V30 588 C 55.2076 6.85622 -2.17519 0
M  V30 589 C 57.2336 5.74978 -1.38401 0
M  V30 590 C 56.5956 6.68816 -2.21054 0
M  V30 591 H 52.6946 0.754335 0.206161 0
M  V30 592 H 55.2786 1.94435 -0.101613 0
M  V30 593 H 53.4496 3.32576 2.00618 0
M  V30 594 H 55.1816 3.55972 1.92525 0
M  V30 595 H 51.9366 4.72782 0.278255 0
M  V30 596 H 52.3606 6.58516 -1.57117 0
M  V30 597 H 57.0026 4.22625 0.121694 0
M  V30 598 H 54.7206 7.57652 -2.81049 0
M  V30 599 H 58.3066 5.63826 -1.43496 0
M  V30 600 H 57.1866 7.29355 -2.88116 0
M  V30 601 N 54.6897 -0.239769 1.55765 0
M  V30 602 C 55.6367 -1.29696 1.90913 0
M  V30 603 C 56.6067 -1.47478 0.764164 0
M  V30 604 O 57.7917 -1.61345 1.01845 0
M  V30 605 C 54.9317 -2.64598 2.21544 0
M  V30 606 C 54.0447 -2.54765 3.48882 0
M  V30 607 C 53.1797 -3.82069 3.69049 0
M  V30 608 C 52.2187 -3.66883 4.89963 0
M  V30 609 N 51.3557 -4.86094 5.06614 0
M  V30 610 H 56.1957 -0.990224 2.81067 0
M  V30 611 H 53.7327 -0.477684 1.39128 0
M  V30 612 H 55.6907 -3.43132 2.3731 0
M  V30 613 H 54.3207 -2.93405 1.34585 0
M  V30 614 H 53.3727 -1.67763 3.41409 0
M  V30 615 H 54.6847 -2.39457 4.37563 0
M  V30 616 H 53.8387 -4.69046 3.84812 0
M  V30 617 H 52.5777 -4.00282 2.78614 0
M  V30 618 H 51.5827 -2.78289 4.74168 0
M  V30 619 H 52.8077 -3.50157 5.81865 0
M  V30 620 H 50.7537 -5.04655 4.19117 0
M  V30 621 H 50.6707 -4.73443 5.89396 0
M  V30 622 H 51.9387 -5.74549 5.26795 0
M  V30 623 N 56.1678 -1.49265 -0.50573 0
M  V30 624 C 57.0778 -1.68312 -1.63427 0
M  V30 625 C 58.0938 -0.565682 -1.64548 0
M  V30 626 O 59.2698 -0.839801 -1.83055 0
M  V30 627 C 56.3348 -1.74107 -2.99813 0
M  V30 628 C 55.3958 -2.97653 -3.09356 0
M  V30 629 C 54.6288 -3.03163 -4.39236 0
M  V30 630 O 54.8518 -2.16396 -5.27758 0
M  V30 631 O 53.7858 -3.9558 -4.53652 0
M  V30 632 H 57.6118 -2.63907 -1.50289 0
M  V30 633 H 55.1968 -1.32951 -0.681502 0
M  V30 634 H 57.0788 -1.803 -3.80881 0
M  V30 635 H 55.7538 -0.816901 -3.13223 0
M  V30 636 H 54.6608 -2.96981 -2.27493 0
M  V30 637 H 55.9938 -3.89535 -3.00871 0
M  V30 638 N 57.6459 0.756429 -1.3826 0
M  V30 639 C 58.5559 1.9009 -1.37488 0
M  V30 640 C 59.5719 1.71855 -0.272366 0
M  V30 641 O 60.7479 1.94827 -0.510318 0
M  V30 642 C 57.8129 3.25421 -1.19592 0
M  V30 643 C 56.8739 3.56202 -2.39622 0
M  V30 644 C 56.1069 4.85075 -2.2257 0
M  V30 645 O 56.3299 5.57246 -1.21793 0
M  V30 646 O 55.2639 5.15269 -3.11098 0
M  V30 647 H 59.0899 1.93695 -2.33914 0
M  V30 648 H 56.6749 0.901313 -1.1915 0
M  V30 649 H 58.5569 4.06337 -1.11661 0
M  V30 650 H 57.2319 3.22634 -0.262486 0
M  V30 651 H 56.1389 2.75458 -2.53128 0
M  V30 652 H 57.4719 3.63747 -3.31586 0
M  V30 653 N 59.124 1.23083 0.984299 0
M  V30 654 C 60.034 1.02515 2.11016 0
M  V30 655 C 61.05 -0.0291702 1.73976 0
M  V30 656 O 62.226 0.165434 2.00719 0
M  V30 657 C 59.291 0.614673 3.41208 0
M  V30 658 C 58.352 1.74359 3.92297 0
M  V30 659 C 57.585 1.35261 5.16275 0
M  V30 660 O 57.808 0.235136 5.69915 0
M  V30 661 O 56.742 2.17227 5.61334 0
M  V30 662 H 60.568 1.96862 2.31255 0
M  V30 663 H 58.153 1.01753 1.09392 0
M  V30 664 H 60.035 0.396518 4.1953 0
M  V30 665 H 58.71 -0.299851 3.22308 0
M  V30 666 H 57.617 2.01635 3.1511 0
M  V30 667 H 58.95 2.63629 4.15645 0
M  V30 668 N 60.6021 -1.18246 1.0419 0
M  V30 669 C 61.5491 -2.2192 0.634037 0
M  V30 670 C 62.5191 -1.62179 -0.358765 0
M  V30 671 O 63.7041 -1.89122 -0.252466 0
M  V30 672 C 60.8441 -3.451 0.00445535 0
M  V30 673 C 59.9571 -4.19174 1.04487 0
M  V30 674 C 59.0921 -5.29813 0.383676 0
M  V30 675 C 58.1311 -5.9566 1.4091 0
M  V30 676 N 57.2681 -6.97834 0.772784 0
M  V30 677 H 62.1081 -2.56164 1.52263 0
M  V30 678 H 59.6451 -1.25843 0.761701 0
M  V30 679 H 61.6031 -4.15485 -0.377919 0
M  V30 680 H 60.2331 -3.11472 -0.847652 0
M  V30 681 H 59.2851 -3.47604 1.54518 0
M  V30 682 H 60.5971 -4.64267 1.82368 0
M  V30 683 H 59.7511 -6.06677 -0.0528366 0
M  V30 684 H 58.4901 -4.85825 -0.427208 0
M  V30 685 H 57.4951 -5.17535 1.85574 0
M  V30 686 H 58.7201 -6.4173 2.22171 0
M  V30 687 H 56.6661 -6.55998 -0.0177708 0
M  V30 688 H 56.5831 -7.41186 1.48928 0
M  V30 689 H 57.8511 -7.78665 0.36071 0
M  V30 690 N 62.0802 -0.821533 -1.34494 0
M  V30 691 C 63.0272 -0.240397 -2.29545 0
M  V30 692 C 63.9972 0.634031 -1.53523 0
M  V30 693 O 65.1822 0.575966 -1.81899 0
M  V30 694 C 62.3222 0.592869 -3.39969 0
M  V30 695 C 61.4352 -0.30365 -4.30932 0
M  V30 696 C 60.5702 0.539049 -5.28458 0
M  V30 697 C 59.6092 -0.356942 -6.11058 0
M  V30 698 N 58.7462 0.446603 -7.00678 0
M  V30 699 H 63.5862 -1.05632 -2.7865 0
M  V30 700 H 61.1232 -0.532413 -1.37127 0
M  V30 701 H 63.0812 1.09129 -4.02675 0
M  V30 702 H 61.7112 1.37392 -2.92102 0
M  V30 703 H 60.7632 -0.920276 -3.691 0
M  V30 704 H 62.0752 -0.992661 -4.88823 0
M  V30 705 H 61.2292 1.102 -5.96608 0
M  V30 706 H 59.9682 1.26157 -4.71101 0
M  V30 707 H 58.9732 -0.932047 -5.41842 0
M  V30 708 H 60.1982 -1.07755 -6.70497 0
M  V30 709 H 58.1442 1.15282 -6.45791 0
M  V30 710 H 58.0612 -0.184048 -7.55776 0
M  V30 711 H 59.3292 0.992352 -7.73158 0
M  V30 712 N 63.5583 1.46682 -0.576371 0
M  V30 713 C 64.5053 2.30241 0.160499 0
M  V30 714 C 65.4753 1.40233 0.890162 0
M  V30 715 O 66.6603 1.69186 0.882084 0
M  V30 716 C 63.8003 3.24578 1.1723 0
M  V30 717 C 62.9133 4.29684 0.446736 0
M  V30 718 C 62.0483 5.11154 1.44551 0
M  V30 719 C 61.0873 6.08015 0.70599 0
M  V30 720 N 60.2243 6.82376 1.65251 0
M  V30 721 H 65.0643 2.92727 -0.558127 0
M  V30 722 H 62.6013 1.44272 -0.287056 0
M  V30 723 H 64.5593 3.77711 1.77172 0
M  V30 724 H 63.1893 2.63916 1.85872 0
M  V30 725 H 62.2413 3.79458 -0.267594 0
M  V30 726 H 63.5533 4.98626 -0.131686 0
M  V30 727 H 62.7073 5.68533 2.11791 0
M  V30 728 H 61.4463 4.42158 2.05786 0
M  V30 729 H 60.4513 5.49796 0.0197725 0
M  V30 730 H 61.6763 6.79028 0.09912 0
M  V30 731 H 59.6223 6.16094 2.25308 0
M  V30 732 H 59.5393 7.47556 1.12673 0
M  V30 733 H 60.8073 7.44316 2.31546 0
M  V30 734 N 65.0364 0.313813 1.54444 0
M  V30 735 C 66.2664 -0.293491 2.04505 0
M  V30 736 C 66.6744 -1.47086 1.19005 0
M  V30 737 O 66.0174 -1.82481 0.211257 0
M  V30 738 C 66.0794 -0.800455 3.50475 0
M  V30 739 C 65.7434 0.253322 4.56297 0
M  V30 740 C 66.7404 1.08612 5.08428 0
M  V30 741 C 64.4254 0.398708 5.00715 0
M  V30 742 C 66.4194 2.05013 6.0353 0
M  V30 743 C 64.1064 1.36614 5.95634 0
M  V30 744 C 65.1044 2.19033 6.46926 0
M  V30 745 O 64.7924 3.14134 7.39983 0
M  V30 746 H 64.5244 -0.0658325 0.672787 0
M  V30 747 H 67.0784 0.455177 2.00293 0
M  V30 748 H 65.3084 -1.59987 3.52053 0
M  V30 749 H 66.9974 -1.32504 3.83663 0
M  V30 750 H 67.7634 0.984736 4.74898 0
M  V30 751 H 63.6424 -0.23289 4.60411 0
M  V30 752 H 67.1864 2.69382 6.4349 0
M  V30 753 H 63.0834 1.4682 6.28581 0
M  V30 754 H 63.8514 3.0926 7.57826 0
M  V30 755 N 66.5145 -1.57545 0.0417849 0
M  V30 756 C 67.7445 -1.96339 -0.642995 0
M  V30 757 C 68.1525 -0.917536 -1.65463 0
M  V30 758 O 67.4955 0.107747 -1.83384 0
M  V30 759 C 67.5575 -3.31333 -1.39494 0
M  V30 760 C 67.2215 -4.53796 -0.540204 0
M  V30 761 C 68.2185 -5.19553 0.189806 0
M  V30 762 C 65.9035 -5.0006 -0.473886 0
M  V30 763 C 67.8975 -6.29904 0.974674 0
M  V30 764 C 65.5845 -6.10289 0.314677 0
M  V30 765 C 66.5825 -6.75072 1.03765 0
M  V30 766 O 66.2705 -7.83183 1.81327 0
M  V30 767 H 66.0025 -0.651241 -0.181277 0
M  V30 768 H 68.5565 -2.05148 0.101665 0
M  V30 769 H 66.7865 -3.19052 -2.18502 0
M  V30 770 H 68.4755 -3.54942 -1.96904 0
M  V30 771 H 69.2415 -4.84774 0.147981 0
M  V30 772 H 65.1205 -4.49433 -1.0262 0
M  V30 773 H 68.6645 -6.80401 1.5395 0
M  V30 774 H 64.5615 -6.44506 0.358174 0
M  V30 775 H 65.3295 -7.99913 1.73438 0
M  V30 776 N 67.9926 0.231505 -1.5589 0
M  V30 777 C 69.2696 0.981096 -1.69215 0
M  V30 778 C 69.6496 2.02799 -0.586164 0
M  V30 779 O 68.9976 2.24823 0.408253 0
M  V30 780 C 69.2076 1.60054 -3.10135 0
M  V30 781 C 70.5556 2.09658 -3.69227 0
M  V30 782 O 71.5796 1.69967 -3.13033 0
M  V30 783 O 70.4386 2.8258 -4.67772 0
M  V30 784 H 67.5326 0.457653 -0.688827 0
M  V30 785 H 70.0786 0.224073 -1.68214 0
M  V30 786 H 68.8506 0.844105 -3.82087 0
M  V30 787 H 68.4736 2.42336 -3.15212 0
M  V30 788 N 69.4707 1.49531 0.497807 0
M  V30 789 C 70.4337 1.65916 1.58128 0
M  V30 790 C 71.4337 0.530825 1.51786 0
M  V30 791 O 72.6237 0.797342 1.54881 0
M  V30 792 C 69.7557 1.65951 2.9778 0
M  V30 793 H 70.9487 2.62556 1.44929 0
M  V30 794 H 68.5017 1.38611 0.722275 0
M  V30 795 H 69.2367 0.709065 3.16453 0
M  V30 796 H 69.0217 2.47897 3.03792 0
M  V30 797 H 70.5117 1.80673 3.76493 0
M  V30 798 N 70.9488 -0.749086 1.3866 0
M  V30 799 C 71.8958 -1.86291 1.36251 0
M  V30 800 C 72.8658 -1.64578 0.224347 0
M  V30 801 O 74.0508 -1.86181 0.417279 0
M  V30 802 C 71.1908 -3.23644 1.19786 0
M  V30 803 C 70.3038 -3.57158 2.43027 0
M  V30 804 C 69.4388 -4.83838 2.19258 0
M  V30 805 C 68.4778 -5.10152 3.38247 0
M  V30 806 N 67.6148 -6.28029 3.13884 0
M  V30 807 H 72.4548 -1.87685 2.3147 0
M  V30 808 H 69.9918 -0.917287 1.14997 0
M  V30 809 H 71.9498 -4.0291 1.08254 0
M  V30 810 H 70.5798 -3.21566 0.282031 0
M  V30 811 H 69.6318 -2.72701 2.65214 0
M  V30 812 H 70.9438 -3.7253 3.31697 0
M  V30 813 H 70.0978 -5.71057 2.04888 0
M  V30 814 H 68.8368 -4.70614 1.2796 0
M  V30 815 H 67.8418 -4.21401 3.53131 0
M  V30 816 H 69.0668 -5.25271 4.30427 0
M  V30 817 H 67.0128 -6.1612 2.25238 0
M  V30 818 H 66.9298 -6.43922 3.96106 0
M  V30 819 H 68.1978 -7.18124 3.03179 0
M  V30 820 N 72.4269 -1.23603 -0.977757 0
M  V30 821 C 73.6549 -1.09646 -1.75458 0
M  V30 822 C 74.0699 0.351859 -1.85492 0
M  V30 823 O 73.4269 1.24327 -1.336 0
M  V30 824 C 73.4779 -1.71895 -3.18016 0
M  V30 825 O 73.1989 -3.11063 -3.08498 0
M  V30 826 C 74.6999 -1.63415 -4.12081 0
M  V30 827 H 71.9199 -0.38359 -0.550545 0
M  V30 828 H 74.4639 -1.63507 -1.22824 0
M  V30 829 H 72.6189 -1.22061 -3.67668 0
M  V30 830 H 73.0329 -3.41305 -3.9826 0
M  V30 831 H 74.5069 -2.11669 -5.09804 0
M  V30 832 H 74.9839 -0.593462 -4.35172 0
M  V30 833 H 75.5899 -2.12628 -3.68334 0
M  V30 834 N 73.905 1.17692 -1.04816 0
M  V30 835 C 74.815 2.25229 -0.65643 0
M  V30 836 C 75.831 1.71018 0.320761 0
M  V30 837 O 77.007 2.00649 0.173805 0
M  V30 838 C 74.072 3.46684 -0.0332629 0
M  V30 839 C 73.133 4.15997 -1.06042 0
M  V30 840 C 72.366 5.31654 -0.466893 0
M  V30 841 O 72.589 5.65777 0.724758 0
M  V30 842 O 71.523 5.89831 -1.1993 0
M  V30 843 H 75.349 2.61016 -1.55255 0
M  V30 844 H 72.934 1.24919 -0.81949 0
M  V30 845 H 74.816 4.20234 0.313256 0
M  V30 846 H 73.491 3.12703 0.836566 0
M  V30 847 H 72.398 3.44482 -1.45886 0
M  V30 848 H 73.731 4.53996 -1.90127 0
M  V30 849 N 75.3831 0.828654 1.34056 0
M  V30 850 C 76.6601 0.341809 1.9259 0
M  V30 851 C 77.0401 -1.17158 1.75605 0
M  V30 852 O 76.3881 -1.98132 1.13824 0
M  V30 853 C 76.5981 0.777453 3.4023 0
M  V30 854 C 77.9461 0.779579 4.17382 0
M  V30 855 O 78.9701 0.7204 3.48839 0
M  V30 856 O 77.8291 0.857996 5.39723 0
M  V30 857 H 74.9231 0.0946085 0.821571 0
M  V30 858 H 77.4691 0.913827 1.42994 0
M  V30 859 H 76.2411 1.8196 3.46419 0
M  V30 860 H 75.8641 0.181444 3.97186 0
M  V30 861 N 76.8612 -1.46375 0.584142 0
M  V30 862 C 77.8082 -2.30323 -0.148286 0
M  V30 863 C 78.7782 -1.40703 -0.882713 0
M  V30 864 O 79.9632 -1.69651 -0.873099 0
M  V30 865 C 77.1032 -3.25196 -1.15507 0
M  V30 866 C 76.2162 -4.29915 -0.423943 0
M  V30 867 C 75.3512 -5.11914 -1.41838 0
M  V30 868 C 74.3902 -6.08381 -0.673736 0
M  V30 869 N 73.5272 -6.83242 -1.6163 0
M  V30 870 H 78.3672 -2.92427 0.573644 0
M  V30 871 H 75.9042 -1.44118 0.294703 0
M  V30 872 H 77.8622 -3.78646 -1.75166 0
M  V30 873 H 76.4922 -2.64898 -1.8447 0
M  V30 874 H 75.5442 -3.7931 0.287714 0
M  V30 875 H 76.8562 -4.98549 0.158128 0
M  V30 876 H 76.0102 -5.69648 -2.08773 0
M  V30 877 H 74.7492 -4.43243 -2.03438 0
M  V30 878 H 73.7542 -5.49799 0.00938483 0
M  V30 879 H 74.9792 -6.79071 -0.0631082 0
M  V30 880 H 72.9252 -6.1728 -2.22038 0
M  V30 881 H 72.8422 -7.48144 -1.08707 0
M  V30 882 H 74.1102 -7.45534 -2.27596 0
M  V30 883 N 78.3393 -0.321999 -1.54275 0
M  V30 884 C 79.5853 0.281461 -2.00837 0
M  V30 885 C 79.9183 1.51909 -1.20985 0
M  V30 886 O 79.1933 1.923 -0.291733 0
M  V30 887 C 79.4763 0.617162 -3.54772 0
M  V30 888 C 79.3293 -0.631064 -4.45351 0
M  V30 889 C 80.6483 1.43542 -4.16033 0
M  V30 890 H 77.7673 0.100826 -0.730071 0
M  V30 891 H 80.4093 -0.438268 -1.84876 0
M  V30 892 H 78.5593 1.23034 -3.68504 0
M  V30 893 H 80.2313 -1.26934 -4.43492 0
M  V30 894 H 78.4743 -1.26025 -4.15091 0
M  V30 895 H 79.1453 -0.351735 -5.50878 0
M  V30 896 H 81.6213 0.917134 -4.05867 0
M  V30 897 H 80.4973 1.63907 -5.23856 0
M  V30 898 H 80.7583 2.43108 -3.69257 0
M  V30 899 N 79.8174 1.5752 -0.0501392 0
M  V30 900 C 81.2334 1.56631 0.306402 0
M  V30 901 C 81.4334 1.0577 1.71508 0
M  V30 902 O 80.4894 0.713837 2.422 0
M  V30 903 C 81.8024 3.00393 0.135811 0
M  V30 904 C 83.3504 3.12315 0.206993 0
M  V30 905 C 83.8254 4.57954 0.064944 0
M  V30 906 N 85.3164 4.63041 0.121254 0
M  V30 907 C 86.0514 5.73389 0.0354381 0
M  V30 908 N 85.5474 6.92724 -0.102666 0
M  V30 909 N 87.3404 5.62026 0.090946 0
M  V30 910 H 79.4914 1.88903 -0.971046 0
M  V30 911 H 81.7544 0.869876 -0.376855 0
M  V30 912 H 81.4604 3.41635 -0.835384 0
M  V30 913 H 81.3344 3.66373 0.897275 0
M  V30 914 H 83.7214 2.70973 1.16866 0
M  V30 915 H 83.8024 2.49016 -0.585208 0
M  V30 916 H 83.4464 4.99981 -0.893394 0
M  V30 917 H 83.3764 5.19258 0.876277 0
M  V30 918 H 85.8674 3.77216 0.227284 0
M  V30 919 H 86.1804 7.72633 -0.160882 0
M  V30 920 H 84.5254 6.94864 -0.137737 0
M  V30 921 H 87.7164 4.67684 0.197388 0
M  V30 922 H 87.8894 6.47997 0.0206089 0
M  V30 923 N 81.2955 -0.223234 1.56011 0
M  V30 924 C 82.5415 -0.949279 1.79211 0
M  V30 925 C 82.8745 -1.84054 0.619494 0
M  V30 926 O 82.1495 -1.90726 -0.381317 0
M  V30 927 C 82.4325 -1.78965 3.12479 0
M  V30 928 C 82.2855 -0.924997 4.40186 0
M  V30 929 C 83.6045 -2.76774 3.42175 0
M  V30 930 H 80.7235 -0.343676 0.651963 0
M  V30 931 H 83.3655 -0.218253 1.88742 0
M  V30 932 H 81.5155 -2.41291 3.04485 0
M  V30 933 H 83.1875 -0.318615 4.60198 0
M  V30 934 H 81.4305 -0.230344 4.33188 0
M  V30 935 H 82.1015 -1.54735 5.29869 0
M  V30 936 H 84.5775 -2.24584 3.50287 0
M  V30 937 H 83.4535 -3.32678 4.36597 0
M  V30 938 H 83.7145 -3.54429 2.64258 0
M  V30 939 N 82.7736 -1.49793 -0.48987 0
M  V30 940 C 83.7066 -1.61898 -1.60823 0
M  V30 941 C 84.6846 -0.467651 -1.5573 0
M  V30 942 O 85.8686 -0.684682 -1.75626 0
M  V30 943 C 82.9956 -1.58422 -2.99366 0
M  V30 944 C 82.0416 -2.78889 -3.22682 0
M  V30 945 S 82.8746 -4.40429 -3.04602 0
M  V30 946 C 84.0306 -4.39617 -4.4552 0
M  V30 947 H 84.2636 -2.56502 -1.50312 0
M  V30 948 H 81.7966 -1.38822 -0.675849 0
M  V30 949 H 83.7546 -1.57103 -3.79248 0
M  V30 950 H 82.4156 -0.650866 -3.07283 0
M  V30 951 H 81.6086 -2.72708 -4.23847 0
M  V30 952 H 81.2106 -2.77678 -2.50541 0
M  V30 953 H 83.5026 -4.12022 -5.37814 0
M  V30 954 H 84.4456 -5.41097 -4.56749 0
M  V30 955 H 84.8536 -3.69554 -4.2672 0
M  V30 956 N 84.2517 0.741722 -1.39055 0
M  V30 957 C 85.2147 1.83733 -1.37021 0
M  V30 958 C 86.2147 1.58542 -0.268534 0
M  V30 959 O 87.4047 1.66067 -0.526076 0
M  V30 960 C 84.5367 3.2141 -1.13617 0
M  V30 961 H 85.7297 1.86941 -2.34506 0
M  V30 962 H 83.2827 0.944676 -1.24521 0
M  V30 963 H 84.0177 3.23865 -0.167863 0
M  V30 964 H 83.8027 3.4109 -1.93391 0
M  V30 965 H 85.2927 4.01477 -1.14918 0
M  V30 966 N 85.7298 1.2412 0.971189 0
M  V30 967 C 87.0068 0.986867 1.6888 0
M  V30 968 C 87.3868 -0.491857 2.0529 0
M  V30 969 O 86.7348 -1.46531 1.75331 0
M  V30 970 C 86.9448 1.9063 2.92338 0
M  V30 971 C 88.2928 2.17515 3.64654 0
M  V30 972 O 89.3168 1.88254 3.02388 0
M  V30 973 O 88.1758 2.6719 4.7673 0
M  V30 974 H 85.2698 0.372944 0.738134 0
M  V30 975 H 87.8158 1.35203 1.02559 0
M  V30 976 H 86.5878 2.90552 2.62097 0
M  V30 977 H 86.2108 1.54408 3.66393 0
M  V30 978 N 87.2079 -1.17134 1.05439 0
M  V30 979 C 88.4329 -1.91913 0.786396 0
M  V30 980 C 88.8579 -1.7643 -0.652234 0
M  V30 981 O 88.2159 -1.08372 -1.45345 0
M  V30 982 C 88.2639 -3.40921 1.17497 0
M  V30 983 O 87.3679 -4.11244 0.308589 0
M  V30 984 H 86.7089 -0.598215 0.288158 0
M  V30 985 H 89.2389 -1.48457 1.4079 0
M  V30 986 H 89.2489 -3.91668 1.14281 0
M  V30 987 H 87.9239 -3.5151 2.22292 0
M  V30 988 H 86.5009 -3.70731 0.40157 0
M  V30 989 N 88.686 -0.835752 -1.33615 0
M  V30 990 C 89.619 -0.211815 -2.27215 0
M  V30 991 C 90.597 0.639249 -1.49507 0
M  V30 992 O 91.781 0.600193 -1.78689 0
M  V30 993 C 88.908 0.702893 -3.31326 0
M  V30 994 C 87.954 -0.0723049 -4.26439 0
M  V30 995 S 88.787 -1.42811 -5.16106 0
M  V30 996 C 89.943 -0.518613 -6.23748 0
M  V30 997 H 90.176 -1.00533 -2.79786 0
M  V30 998 H 87.709 -0.632336 -1.40858 0
M  V30 999 H 89.667 1.22505 -3.91794 0
M  V30 1000 H 88.328 1.47004 -2.77576 0
M  V30 1001 H 87.521 0.62359 -5.00127 0
M  V30 1002 H 87.123 -0.525424 -3.70291 0
M  V30 1003 H 89.415 0.284778 -6.76901 0
M  V30 1004 H 90.358 -1.22556 -6.97413 0
M  V30 1005 H 90.766 -0.101344 -5.64409 0
M  V30 1006 N 90.1641 1.46063 -0.591896 0
M  V30 1007 C 91.0961 2.28539 0.174001 0
M  V30 1008 C 92.1091 1.39047 0.846753 0
M  V30 1009 O 93.2981 1.63564 0.714774 0
M  V30 1010 C 90.3981 3.14347 1.26645 0
M  V30 1011 C 89.5711 4.32021 0.683856 0
M  V30 1012 C 88.6301 4.99157 1.66518 0
M  V30 1013 O 87.6561 5.56458 1.19763 0
M  V30 1014 N 88.8581 4.97005 2.99943 0
M  V30 1015 H 91.6231 2.94911 -0.533633 0
M  V30 1016 H 89.1841 1.56077 -0.430294 0
M  V30 1017 H 91.1761 3.56125 1.92242 0
M  V30 1018 H 89.7461 2.49988 1.87682 0
M  V30 1019 H 88.9661 3.93915 -0.1498 0
M  V30 1020 H 90.2541 5.08059 0.274567 0
M  V30 1021 H 89.6521 4.51714 3.40545 0
M  V30 1022 H 88.2091 5.42696 3.61004 0
M  V30 1023 N 91.6422 0.330177 1.54103 0
M  V30 1024 C 92.5522 -0.541534 2.28264 0
M  V30 1025 C 93.5682 -1.12351 1.32866 0
M  V30 1026 O 94.7442 -1.14206 1.65888 0
M  V30 1027 C 91.8092 -1.68322 3.03098 0
M  V30 1028 C 90.8702 -1.13238 4.14096 0
M  V30 1029 C 90.1032 -2.21966 4.85352 0
M  V30 1030 O 90.3262 -3.42437 4.56172 0
M  V30 1031 O 89.2602 -1.87013 5.7211 0
M  V30 1032 H 93.0862 0.060938 3.03639 0
M  V30 1033 H 90.6712 0.09565 1.49093 0
M  V30 1034 H 92.5532 -2.34777 3.49939 0
M  V30 1035 H 91.2282 -2.27176 2.30593 0
M  V30 1036 H 90.1352 -0.432736 3.71589 0
M  V30 1037 H 91.4682 -0.588898 4.88664 0
M  V30 1038 N 93.1203 -1.57491 0.0584922 0
M  V30 1039 C 94.0673 -2.11958 -0.913376 0
M  V30 1040 C 95.0373 -1.02875 -1.30407 0
M  V30 1041 O 96.2223 -1.30464 -1.39226 0
M  V30 1042 C 93.3623 -2.67497 -2.18035 0
M  V30 1043 C 92.4753 -3.90691 -1.84349 0
M  V30 1044 C 91.6103 -4.3452 -3.05559 0
M  V30 1045 C 90.6493 -5.50395 -2.67827 0
M  V30 1046 N 89.7863 -5.89244 -3.81754 0
M  V30 1047 H 94.6263 -2.94704 -0.442017 0
M  V30 1048 H 92.1633 -1.45643 -0.206545 0
M  V30 1049 H 94.1213 -2.978 -2.92183 0
M  V30 1050 H 92.7513 -1.87537 -2.62735 0
M  V30 1051 H 91.8033 -3.66934 -1.00319 0
M  V30 1052 H 93.1153 -4.7489 -1.5258 0
M  V30 1053 H 92.2693 -4.66414 -3.87998 0
M  V30 1054 H 91.0083 -3.49147 -3.40511 0
M  V30 1055 H 90.0133 -5.18165 -1.83806 0
M  V30 1056 H 91.2383 -6.3749 -2.34059 0
M  V30 1057 H 89.1843 -5.06823 -4.16493 0
M  V30 1058 H 89.1013 -6.68151 -3.53708 0
M  V30 1059 H 90.3693 -6.25756 -4.64811 0
M  V30 1060 N 94.5984 0.214957 -1.56127 0
M  V30 1061 C 95.5304 1.29004 -1.89448 0
M  V30 1062 C 96.5434 1.42716 -0.783326 0
M  V30 1063 O 97.7324 1.43496 -1.06166 0
M  V30 1064 C 94.8324 2.66482 -2.09381 0
M  V30 1065 C 94.0054 2.74633 -3.40434 0
M  V30 1066 C 93.0644 3.9317 -3.49719 0
M  V30 1067 O 92.0904 3.812 -4.227 0
M  V30 1068 N 93.2924 5.07765 -2.81346 0
M  V30 1069 H 96.0574 1.00743 -2.82261 0
M  V30 1070 H 93.6184 0.40497 -1.56753 0
M  V30 1071 H 95.6104 3.44173 -2.12901 0
M  V30 1072 H 94.1804 2.87314 -1.23163 0
M  V30 1073 H 93.4004 1.83368 -3.48955 0
M  V30 1074 H 94.6884 2.77054 -4.26754 0
M  V30 1075 H 94.0864 5.20386 -2.21843 0
M  V30 1076 H 92.6434 5.83474 -2.90519 0
M  V30 1077 N 96.0765 1.50051 0.48192 0
M  V30 1078 C 97.4925 1.37237 0.814756 0
M  V30 1079 C 97.6925 0.420109 1.97072 0
M  V30 1080 O 96.7485 -0.141246 2.52105 0
M  V30 1081 C 98.0615 2.78375 1.13701 0
M  V30 1082 C 99.6095 2.87213 1.2441 0
M  V30 1083 C 100.084 4.29161 1.59954 0
M  V30 1084 N 101.575 4.32061 1.66967 0
M  V30 1085 C 102.31 5.38879 1.95952 0
M  V30 1086 N 101.806 6.55918 2.23031 0
M  V30 1087 N 103.599 5.26312 1.97363 0
M  V30 1088 H 95.7505 2.10546 -0.28005 0
M  V30 1089 H 98.0135 0.945921 -0.0627454 0
M  V30 1090 H 97.7195 3.49845 0.360787 0
M  V30 1091 H 97.5935 3.14941 2.07586 0
M  V30 1092 H 99.9805 2.15969 2.01101 0
M  V30 1093 H 100.061 2.54204 0.285299 0
M  V30 1094 H 99.7055 5.00938 0.838067 0
M  V30 1095 H 99.6355 4.59648 2.56966 0
M  V30 1096 H 102.126 3.47661 1.48123 0
M  V30 1097 H 102.439 7.33139 2.44391 0
M  V30 1098 H 100.784 6.59112 2.20447 0
M  V30 1099 H 103.975 4.33876 1.75697 0
M  V30 1100 H 104.148 6.09649 2.19618 0
M  V30 1101 N 97.5546 -0.734337 1.39446 0
M  V30 1102 C 98.4876 -1.85715 1.32609 0
M  V30 1103 C 99.4656 -1.6137 0.199636 0
M  V30 1104 O 100.65 -1.84626 0.380195 0
M  V30 1105 C 97.7766 -3.21709 1.05929 0
M  V30 1106 C 96.8226 -3.64913 2.20773 0
M  V30 1107 S 97.6556 -3.74203 3.83056 0
M  V30 1108 C 98.8116 -5.12986 3.58603 0
M  V30 1109 H 99.0446 -1.91232 2.27635 0
M  V30 1110 H 96.5776 -0.899263 1.25509 0
M  V30 1111 H 98.5356 -4.00236 0.912203 0
M  V30 1112 H 97.1966 -3.13848 0.125883 0
M  V30 1113 H 96.3896 -4.63606 1.97699 0
M  V30 1114 H 95.9916 -2.93593 2.31688 0
M  V30 1115 H 98.2836 -5.99339 3.15909 0
M  V30 1116 H 99.2266 -5.41088 4.5676 0
M  V30 1117 H 99.6346 -4.82694 2.9269 0
M  V30 1118 N 99.0327 -1.24633 -0.964593 0
M  V30 1119 C 99.9957 -1.0424 -2.04124 0
M  V30 1120 C 100.996 0.00137563 -1.608 0
M  V30 1121 O 102.186 -0.239883 -1.7254 0
M  V30 1122 C 99.3177 -0.580588 -3.3592 0
M  V30 1123 H 100.511 -1.99803 -2.23649 0
M  V30 1124 H 98.0637 -1.06899 -1.14027 0
M  V30 1125 H 98.7987 0.3781 -3.22088 0
M  V30 1126 H 98.5837 -1.33398 -3.6871 0
M  V30 1127 H 100.074 -0.459034 -4.15069 0
M  V30 1128 N 100.511 1.16574 -1.06058 0
M  V30 1129 C 101.759 1.86677 -0.77434 0
M  V30 1130 C 102.08 1.81959 0.701147 0
M  V30 1131 O 101.35 1.2515 1.50713 0
M  V30 1132 H 99.9298 0.691134 -0.283449 0
M  V30 1133 H 102.592 1.41378 -1.34158 0
M  V30 1134 H 101.688 2.92181 -1.09711 0
M  V30 1135 N 101.989 0.842826 1.3317 0
M  V30 1136 C 102.921 0.236245 2.27979 0
M  V30 1137 C 103.934 -0.585282 1.51915 0
M  V30 1138 O 105.123 -0.411705 1.73687 0
M  V30 1139 C 102.223 -0.685717 3.3189 0
M  V30 1140 C 101.396 0.0973448 4.37292 0
M  V30 1141 C 100.455 -0.748565 5.20848 0
M  V30 1142 O 99.4809 -0.186339 5.68895 0
M  V30 1143 N 100.683 -2.06527 5.42519 0
M  V30 1144 H 103.448 1.05088 2.80672 0
M  V30 1145 H 101.009 0.701667 1.45905 0
M  V30 1146 H 103.001 -1.25669 3.84694 0
M  V30 1147 H 101.571 -1.40105 2.79445 0
M  V30 1148 H 100.791 0.849706 3.84933 0
M  V30 1149 H 102.079 0.635643 5.04814 0
M  V30 1150 H 101.477 -2.54554 5.05192 0
M  V30 1151 H 100.034 -2.58464 5.98364 0
M  V30 1152 N 103.467 -1.45747 0.599634 0
M  V30 1153 C 104.4 -2.27547 -0.172552 0
M  V30 1154 C 105.378 -1.36657 -0.881116 0
M  V30 1155 O 106.562 -1.66081 -0.891595 0
M  V30 1156 C 103.689 -3.14829 -1.24903 0
M  V30 1157 C 102.735 -4.21603 -0.644465 0
M  V30 1158 S 103.568 -5.32754 0.541606 0
M  V30 1159 C 104.724 -6.23604 -0.535656 0
M  V30 1160 H 104.957 -2.92691 0.521468 0
M  V30 1161 H 102.49 -1.49473 0.386947 0
M  V30 1162 H 104.448 -3.65675 -1.86527 0
M  V30 1163 H 103.109 -2.48965 -1.91508 0
M  V30 1164 H 102.302 -4.82566 -1.45417 0
M  V30 1165 H 101.904 -3.73857 -0.103534 0
M  V30 1166 H 104.196 -6.62519 -1.41686 0
M  V30 1167 H 105.139 -7.0809 0.0376246 0
M  V30 1168 H 105.547 -5.58103 -0.84741 0
M  V30 1169 N 104.945 -0.338344 -1.53925 0
M  V30 1170 C 105.875 0.51328 -2.27789 0
M  V30 1171 C 106.856 1.107 -1.29149 0
M  V30 1172 O 108.041 1.12937 -1.57984 0
M  V30 1173 C 105.171 1.66697 -3.04679 0
M  V30 1174 C 104.125 1.20183 -4.1078 0
M  V30 1175 C 103.451 2.44363 -4.75595 0
M  V30 1176 C 104.751 0.30605 -5.21403 0
M  V30 1177 H 106.445 -0.102883 -2.99223 0
M  V30 1178 H 103.991 -0.0509219 -1.4391 0
M  V30 1179 H 105.944 2.26915 -3.55088 0
M  V30 1180 H 104.668 2.30995 -2.30887 0
M  V30 1181 H 103.327 0.622499 -3.61276 0
M  V30 1182 H 102.975 3.07057 -3.98403 0
M  V30 1183 H 102.675 2.13925 -5.47275 0
M  V30 1184 H 104.199 3.05317 -5.28786 0
M  V30 1185 H 105.613 0.814929 -5.67478 0
M  V30 1186 H 104.01 0.0937929 -6.00027 0
M  V30 1187 H 105.08 -0.65921 -4.80398 0
M  V30 1188 N 106.423 1.57458 -0.0668435 0
M  V30 1189 C 107.353 2.15468 0.899764 0
M  V30 1190 C 108.334 1.08042 1.31381 0
M  V30 1191 O 109.519 1.36054 1.38574 0
M  V30 1192 C 106.649 2.71232 2.16911 0
M  V30 1193 C 105.603 3.83781 1.89463 0
M  V30 1194 C 104.929 4.26127 3.22986 0
M  V30 1195 C 106.229 5.08238 1.20381 0
M  V30 1196 H 107.923 2.96488 0.416529 0
M  V30 1197 H 105.469 1.4262 0.198908 0
M  V30 1198 H 107.422 3.10458 2.84945 0
M  V30 1199 H 106.146 1.87426 2.67468 0
M  V30 1200 H 104.805 3.45051 1.23836 0
M  V30 1201 H 104.453 3.39249 3.71374 0
M  V30 1202 H 104.153 5.01993 3.05413 0
M  V30 1203 H 105.677 4.67966 3.92225 0
M  V30 1204 H 107.091 5.44811 1.78475 0
M  V30 1205 H 105.488 5.89349 1.13083 0
M  V30 1206 H 106.558 4.84558 0.182153 0
M  V30 1207 N 107.901 -0.206675 1.56239 0
M  V30 1208 C 108.833 -1.27997 1.9013 0
M  V30 1209 C 109.846 -1.42299 0.790883 0
M  V30 1210 O 111.035 -1.42931 1.06925 0
M  V30 1211 C 108.135 -2.65368 2.10792 0
M  V30 1212 C 107.308 -2.72824 3.41886 0
M  V30 1213 C 106.367 -3.9131 3.51799 0
M  V30 1214 O 105.393 -3.78953 4.24716 0
M  V30 1215 N 106.595 -5.06265 2.84035 0
M  V30 1216 H 109.36 -0.992444 2.82791 0
M  V30 1217 H 106.921 -0.396652 1.56966 0
M  V30 1218 H 108.913 -3.43039 2.14724 0
M  V30 1219 H 107.483 -2.86657 1.24685 0
M  V30 1220 H 106.703 -1.81515 3.49923 0
M  V30 1221 H 107.991 -2.74786 4.28217 0
M  V30 1222 H 107.389 -5.19203 2.246 0
M  V30 1223 H 105.946 -5.81925 2.93609 0
M  V30 1224 N 109.379 -1.50304 -0.473955 0
M  V30 1225 C 110.607 -1.64902 -1.24959 0
M  V30 1226 C 111.022 -0.331198 -1.85872 0
M  V30 1227 O 110.379 0.68652 -1.69095 0
M  V30 1228 C 110.43 -2.73803 -2.36038 0
M  V30 1229 O 110.151 -4.00477 -1.77624 0
M  V30 1230 C 111.652 -2.99349 -3.26964 0
M  V30 1231 H 108.872 -0.554383 -0.378022 0
M  V30 1232 H 111.416 -1.9651 -0.566054 0
M  V30 1233 H 109.571 -2.44898 -3.00173 0
M  V30 1234 H 109.985 -4.60678 -2.5075 0
M  V30 1235 H 111.459 -3.79217 -4.01121 0
M  V30 1236 H 111.936 -2.10307 -3.85574 0
M  V30 1237 H 112.542 -3.29774 -2.68569 0
M  V30 1238 N 110.857 0.726932 -1.39834 0
M  V30 1239 C 112.104 1.48664 -1.37496 0
M  V30 1240 C 112.432 1.94482 0.0264678 0
M  V30 1241 O 111.687 1.67692 1.00886 0
M  V30 1242 C 111.986 2.73495 -2.30077 0
M  V30 1243 C 111.652 2.46502 -3.77555 0
M  V30 1244 C 110.314 2.3885 -4.17737 0
M  V30 1245 C 112.666 2.23604 -4.70798 0
M  V30 1246 C 109.994 2.06352 -5.49214 0
M  V30 1247 C 112.346 1.92622 -6.02561 0
M  V30 1248 C 111.01 1.83444 -6.41798 0
M  V30 1249 H 110.28 0.544001 -0.503135 0
M  V30 1250 H 112.927 0.833657 -1.72402 0
M  V30 1251 H 111.232 3.43575 -1.88317 0
M  V30 1252 H 112.929 3.31549 -2.25558 0
M  V30 1253 H 109.519 2.5334 -3.45712 0
M  V30 1254 H 113.703 2.28479 -4.40581 0
M  V30 1255 H 108.959 1.97776 -5.78528 0
M  V30 1256 H 113.133 1.73914 -6.74334 0
M  V30 1257 H 110.76 1.58029 -7.43593 0
M  V30 1258 N 112.336 1.25143 0.95797 0
M  V30 1259 C 113.583 1.09692 1.70217 0
M  V30 1260 C 113.911 -0.362654 1.91089 0
M  V30 1261 O 113.166 -1.28386 1.47701 0
M  V30 1262 C 113.465 1.79272 3.09187 0
M  V30 1263 C 113.131 3.29196 3.08125 0
M  V30 1264 C 111.793 3.70096 3.07543 0
M  V30 1265 C 114.145 4.24995 3.0171 0
M  V30 1266 C 111.473 5.05213 2.9829 0
M  V30 1267 C 113.825 5.60132 2.93999 0
M  V30 1268 C 112.489 6.00365 2.9175 0
M  V30 1269 H 111.759 0.401393 0.622868 0
M  V30 1270 H 114.406 1.55372 1.11945 0
M  V30 1271 H 112.711 1.26014 3.70982 0
M  V30 1272 H 114.408 1.64773 3.65583 0
M  V30 1273 H 110.998 2.96651 3.09348 0
M  V30 1274 H 115.182 3.9439 3.01281 0
M  V30 1275 H 110.438 5.35569 2.94916 0
M  V30 1276 H 114.612 6.3406 2.87996 0
M  V30 1277 H 112.239 7.05023 2.84336 0
M  V30 1278 N 113.814 -1.1601 1.06675 0
M  V30 1279 C 114.762 -2.22586 0.675157 0
M  V30 1280 C 115.756 -1.66525 -0.310766 0
M  V30 1281 O 116.962 -1.79145 -0.175215 0
M  V30 1282 H 113.337 -0.724855 0.200223 0
M  V30 1283 H 115.308 -2.52899 1.58381 0
M  V30 1284 C 114.057 -3.47604 0.0817162 0
M  V30 1285 H 113.38 -3.91058 0.831484 0
M  V30 1286 H 114.82 -4.23718 -0.154708 0
M  V30 1287 C 113.279 -3.15718 -1.17576 0
M  V30 1288 O 113.809 -3.31878 -2.26318 0
M  V30 1289 N 112.015 -2.69816 -1.07923 0
M  V30 1290 H 111.562 -2.56866 -0.194293 0
M  V30 1291 H 111.52 -2.48855 -1.92141 0
M  V30 1292 N 115.292 -0.849877 -1.32721 0
M  V30 1293 C 116.541 -0.447175 -1.96681 0
M  V30 1294 C 116.854 1.00135 -1.68025 0
M  V30 1295 O 118.06 1.50926 -2.25685 0
M  V30 1296 C 116.516 -0.7487 -3.52026 0
M  V30 1297 C 116.124 -2.21264 -3.89546 0
M  V30 1298 C 117.868 -0.413487 -4.22481 0
M  V30 1299 C 115.775 -2.45763 -5.37917 0
M  V30 1300 H 114.705 -0.163486 -0.736063 0
M  V30 1301 H 117.356 -1.03999 -1.51183 0
M  V30 1302 H 115.738 -0.0853727 -3.95908 0
M  V30 1303 H 116.912 -2.91736 -3.56689 0
M  V30 1304 H 115.227 -2.5119 -3.32103 0
M  V30 1305 H 117.824 -0.574017 -5.3161 0
M  V30 1306 H 118.167 0.644492 -4.11281 0
M  V30 1307 H 118.7 -1.03251 -3.84167 0
M  V30 1308 H 115.439 -3.50168 -5.54132 0
M  V30 1309 H 114.959 -1.79864 -5.72197 0
M  V30 1310 H 116.638 -2.29471 -6.0494 0
M  V30 1311 N 116.77 1.45427 -0.607355 0
M  V30 1312 C 118.047 1.9557 -0.0344566 0
M  V30 1313 C 118.427 1.54979 1.43334 0
M  V30 1314 O 117.775 0.812241 2.13576 0
M  V30 1315 C 117.985 3.48226 -0.232321 0
M  V30 1316 C 119.333 4.2445 -0.113001 0
M  V30 1317 O 120.357 3.55829 -0.162431 0
M  V30 1318 O 119.216 5.465 0.00209442 0
M  V30 1319 H 116.31 0.826222 0.0358667 0
M  V30 1320 H 118.856 1.55594 -0.6774 0
M  V30 1321 H 117.628 3.70739 -1.25174 0
M  V30 1322 H 117.251 3.95092 0.445896 0
M  V30 1323 N 118.248 0.346503 1.53744 0
M  V30 1324 C 119.18 -0.543316 2.22667 0
M  V30 1325 C 120.193 -1.06159 1.23427 0
M  V30 1326 O 121.382 -0.971235 1.49764 0
M  V30 1327 C 118.482 -1.76076 2.89569 0
M  V30 1328 C 117.655 -1.37727 4.15151 0
M  V30 1329 C 116.714 -2.45471 4.65436 0
M  V30 1330 O 115.74 -2.08655 5.29577 0
M  V30 1331 N 116.942 -3.7677 4.41616 0
M  V30 1332 H 119.707 0.0469703 2.99663 0
M  V30 1333 H 117.268 0.170766 1.60997 0
M  V30 1334 H 119.26 -2.47593 3.20125 0
M  V30 1335 H 117.83 -2.25835 2.16142 0
M  V30 1336 H 117.05 -0.492746 3.91108 0
M  V30 1337 H 118.338 -1.09708 4.96832 0
M  V30 1338 H 117.736 -4.09467 3.90325 0
M  V30 1339 H 116.293 -4.44448 4.7677 0
M  V30 1340 N 119.726 -1.57421 0.075193 0
M  V30 1341 C 120.975 -1.92794 -0.592731 0
M  V30 1342 C 121.288 -0.957478 -1.70563 0
M  V30 1343 O 122.494 -1.20417 -2.43335 0
M  V30 1344 C 120.95 -3.42495 -1.10569 0
M  V30 1345 C 120.558 -4.47994 -0.0236121 0
M  V30 1346 C 122.302 -3.86864 -1.74748 0
M  V30 1347 C 120.209 -5.88829 -0.550803 0
M  V30 1348 H 119.139 -0.719591 -0.225177 0
M  V30 1349 H 121.79 -1.82902 0.147978 0
M  V30 1350 H 120.172 -3.47471 -1.89947 0
M  V30 1351 H 121.346 -4.54637 0.751099 0
M  V30 1352 H 119.661 -4.13113 0.522159 0
M  V30 1353 H 122.258 -4.8947 -2.15229 0
M  V30 1354 H 122.601 -3.24417 -2.60882 0
M  V30 1355 H 123.134 -3.84504 -1.01986 0
M  V30 1356 H 119.873 -6.54929 0.273457 0
M  V30 1357 H 119.393 -5.85698 -1.29296 0
M  V30 1358 H 121.072 -6.38811 -1.02613 0
M  V30 1359 N 121.204 0.198386 -1.56346 0
M  V30 1360 C 122.429 0.939682 -1.84891 0
M  V30 1361 C 122.854 1.76202 -0.658369 0
M  V30 1362 O 122.212 1.76993 0.392851 0
M  V30 1363 C 122.26 1.81428 -3.11635 0
M  V30 1364 O 121.364 2.91265 -2.91956 0
M  V30 1365 H 120.705 0.264807 -0.608912 0
M  V30 1366 H 123.235 0.204695 -2.03573 0
M  V30 1367 H 123.245 2.21958 -3.42343 0
M  V30 1368 H 121.92 1.21004 -3.97908 0
M  V30 1369 H 120.497 2.54514 -2.72538 0
M  V30 1370 N 122.682 1.50554 0.465978 0
M  V30 1371 C 124.093 1.54599 1.04671 0
M  V30 1372 C 124.444 0.352488 1.93008 0
M  V30 1373 O 123.569 -0.534044 2.09707 0
M  V30 1374 C 124.164 2.80166 1.90505 0
M  V30 1375 C 122.723 2.86876 2.43678 0
M  V30 1376 C 121.87 2.48947 1.22151 0
M  V30 1377 H 124.821 1.56744 0.248384 0
M  V30 1378 H 124.842 2.62311 2.75633 0
M  V30 1379 H 124.354 3.67013 1.26186 0
M  V30 1380 H 122.455 2.04393 3.11536 0
M  V30 1381 H 122.568 3.89885 2.78436 0
M  V30 1382 H 120.932 2.01498 1.5579 0
M  V30 1383 H 121.715 3.38107 0.594866 0
M  V30 1384 N 124.16 -0.719506 1.40217 0
M  V30 1385 C 125.108 -1.85493 1.40339 0
M  V30 1386 C 126.102 -1.66995 0.284415 0
M  V30 1387 O 127.308 -1.74148 0.455252 0
M  V30 1388 H 123.683 -0.610857 0.438586 0
M  V30 1389 H 125.654 -1.82506 2.36081 0
M  V30 1390 C 124.403 -3.23321 1.27901 0
M  V30 1391 H 123.726 -3.38159 2.1328 0
M  V30 1392 H 125.166 -4.02914 1.32045 0
M  V30 1393 C 123.625 -3.36898 -0.0111355 0
M  V30 1394 O 124.155 -3.89674 -0.975538 0
M  V30 1395 N 122.361 -2.90492 -0.0793393 0
M  V30 1396 H 121.908 -2.47731 0.706183 0
M  V30 1397 H 121.866 -2.99955 -0.942038 0
M  V30 1398 N 125.638 -1.25649 -0.95132 0
M  V30 1399 C 126.585 -1.06323 -2.04851 0
M  V30 1400 C 127.555 0.0286491 -1.66075 0
M  V30 1401 O 128.74 -0.12917 -1.90362 0
M  V30 1402 C 125.88 -0.691529 -3.381 0
M  V30 1403 C 124.993 -1.85861 -3.89974 0
M  V30 1404 C 124.128 -1.43096 -5.11563 0
M  V30 1405 C 123.167 -2.56696 -5.55674 0
M  V30 1406 N 122.304 -2.14684 -6.68472 0
M  V30 1407 H 127.144 -2.00222 -2.20715 0
M  V30 1408 H 124.681 -0.997027 -1.08156 0
M  V30 1409 H 126.639 -0.456963 -4.1469 0
M  V30 1410 H 125.269 0.210474 -3.22113 0
M  V30 1411 H 124.321 -2.20639 -3.09875 0
M  V30 1412 H 125.633 -2.71161 -4.18657 0
M  V30 1413 H 124.787 -1.15624 -5.9558 0
M  V30 1414 H 123.526 -0.548722 -4.84603 0
M  V30 1415 H 122.531 -2.84909 -4.7022 0
M  V30 1416 H 123.756 -3.45503 -5.8464 0
M  V30 1417 H 121.702 -1.28881 -6.43215 0
M  V30 1418 H 121.619 -2.9353 -6.96689 0
M  V30 1419 H 122.887 -1.90397 -7.5589 0
M  V30 1420 N 127.117 1.15442 -1.07289 0
M  V30 1421 C 128.064 2.20161 -0.692653 0
M  V30 1422 C 129.034 1.63073 0.31564 0
M  V30 1423 O 130.219 1.89725 0.202235 0
M  V30 1424 C 127.359 3.44967 -0.0959509 0
M  V30 1425 C 126.472 4.16256 -1.15564 0
M  V30 1426 C 125.607 5.28609 -0.524011 0
M  V30 1427 C 124.646 5.91715 -1.56653 0
M  V30 1428 N 123.783 6.9554 -0.957531 0
M  V30 1429 H 128.623 2.52037 -1.59002 0
M  V30 1430 H 126.16 1.2378 -0.794798 0
M  V30 1431 H 128.118 4.16341 0.267628 0
M  V30 1432 H 126.748 3.1361 0.764772 0
M  V30 1433 H 125.8 3.43385 -1.6368 0
M  V30 1434 H 127.112 4.59268 -1.94613 0
M  V30 1435 H 126.266 6.06604 -0.108032 0
M  V30 1436 H 125.005 4.86787 0.29825 0
M  V30 1437 H 124.01 5.12433 -1.9923 0
M  V30 1438 H 125.235 6.35614 -2.39107 0
M  V30 1439 H 123.181 6.55814 -0.156162 0
M  V30 1440 H 123.098 7.36977 -1.68526 0
M  V30 1441 H 124.366 7.77435 -0.567032 0
M  V30 1442 N 128.595 0.856903 1.32268 0
M  V30 1443 C 129.558 0.308171 2.27119 0
M  V30 1444 C 130.558 -0.533421 1.51695 0
M  V30 1445 O 131.748 -0.344607 1.70757 0
M  V30 1446 C 128.88 -0.563757 3.36206 0
M  V30 1447 H 130.073 1.14535 2.77167 0
M  V30 1448 H 127.626 0.631421 1.42978 0
M  V30 1449 H 128.361 -1.42266 2.91429 0
M  V30 1450 H 128.146 0.0386749 3.92081 0
M  V30 1451 H 129.636 -0.940386 4.06874 0
M  V30 1452 N 130.073 -1.45103 0.615059 0
M  V30 1453 C 131.023 -2.27679 -0.120966 0
M  V30 1454 C 132.007 -1.3775 -0.831491 0
M  V30 1455 O 133.199 -1.61683 -0.720249 0
M  V30 1456 C 130.328 -3.24767 -1.1127 0
M  V30 1457 C 129.414 -4.22184 -0.402627 0
M  V30 1458 N 129.805 -5.02692 0.559884 0
M  V30 1459 C 128.103 -4.4125 -0.649202 0
M  V30 1460 C 128.804 -5.73421 0.977942 0
M  V30 1461 N 127.78 -5.42657 0.320104 0
M  V30 1462 H 131.582 -2.87325 0.618181 0
M  V30 1463 H 129.096 -1.56345 0.439304 0
M  V30 1464 H 131.093 -3.82666 -1.65446 0
M  V30 1465 H 129.753 -2.66682 -1.85232 0
M  V30 1466 H 130.764 -5.09354 0.936976 0
M  V30 1467 H 127.441 -3.9428 -1.37293 0
M  V30 1468 H 128.831 -6.48107 1.77222 0
M  V30 1469 N 131.551 -0.354651 -1.53558 0
M  V30 1470 C 132.962 0.126902 -1.86268 0
M  V30 1471 C 133.313 1.49075 -1.27558 0
M  V30 1472 O 132.438 2.08105 -0.5934 0
M  V30 1473 C 133.033 0.237046 -3.3797 0
M  V30 1474 C 131.592 0.662842 -3.70518 0
M  V30 1475 C 130.739 -0.196652 -2.76602 0
M  V30 1476 H 133.69 -0.573849 -1.47962 0
M  V30 1477 H 133.711 1.06259 -3.65362 0
M  V30 1478 H 133.223 -0.755725 -3.80671 0
M  V30 1479 H 131.324 1.66424 -3.33367 0
M  V30 1480 H 131.437 0.445034 -4.77029 0
M  V30 1481 H 129.801 0.332763 -2.52517 0
M  V30 1482 H 130.584 -1.18676 -3.22135 0
M  V30 1483 N 133.029 1.57378 -0.0835403 0
M  V30 1484 C 133.977 2.14602 0.89714 0
M  V30 1485 C 134.971 1.08589 1.30018 0
M  V30 1486 O 136.177 1.26952 1.27606 0
M  V30 1487 H 132.552 0.686346 0.3073 0
M  V30 1488 H 134.523 2.95845 0.38969 0
M  V30 1489 C 133.272 2.73188 2.15089 0
M  V30 1490 H 132.595 3.54442 1.84962 0
M  V30 1491 H 134.035 3.1681 2.81793 0
M  V30 1492 C 132.494 1.68517 2.91725 0
M  V30 1493 O 133.024 1.11718 3.85852 0
M  V30 1494 N 131.23 1.39277 2.55049 0
M  V30 1495 H 130.777 1.85655 1.78577 0
M  V30 1496 H 130.735 0.694791 3.06627 0
M  V30 1497 N 134.507 -0.190092 1.56449 0
M  V30 1498 C 135.44 -1.26375 1.90012 0
M  V30 1499 C 136.418 -1.43705 0.760765 0
M  V30 1500 O 137.602 -1.59014 1.01226 0
M  V30 1501 C 134.729 -2.62962 2.13468 0
M  V30 1502 C 133.775 -2.62474 3.36169 0
M  V30 1503 S 134.608 -2.13412 4.91137 0
M  V30 1504 C 135.764 -3.51812 5.17667 0
M  V30 1505 H 135.997 -0.977181 2.80782 0
M  V30 1506 H 133.53 -0.393814 1.49293 0
M  V30 1507 H 135.488 -3.41583 2.27664 0
M  V30 1508 H 134.149 -2.88828 1.23439 0
M  V30 1509 H 133.342 -3.62918 3.49723 0
M  V30 1510 H 132.944 -1.91937 3.20992 0
M  V30 1511 H 135.236 -4.47706 5.08494 0
M  V30 1512 H 136.179 -3.43148 6.19399 0
M  V30 1513 H 136.587 -3.46956 4.45288 0
M  V30 1514 N 135.985 -1.50799 -0.457987 0
M  V30 1515 C 136.895 -1.73426 -1.57989 0
M  V30 1516 C 137.911 -0.617745 -1.62665 0
M  V30 1517 O 139.087 -0.897614 -1.80291 0
M  V30 1518 C 136.152 -1.83557 -2.94122 0
M  V30 1519 C 135.213 -3.07345 -2.99729 0
M  V30 1520 C 134.446 -3.16983 -4.29368 0
M  V30 1521 O 134.669 -2.33077 -5.20607 0
M  V30 1522 O 133.603 -4.09812 -4.40837 0
M  V30 1523 H 137.429 -2.68555 -1.41817 0
M  V30 1524 H 135.014 -1.35052 -0.638859 0
M  V30 1525 H 136.896 -1.92326 -3.74952 0
M  V30 1526 H 135.571 -0.916137 -3.10465 0
M  V30 1527 H 134.478 -3.04068 -2.1793 0
M  V30 1528 H 135.811 -3.9891 -2.88326 0
M  V30 1529 N 137.463 0.71206 -1.40597 0
M  V30 1530 C 138.426 1.80785 -1.40888 0
M  V30 1531 C 139.426 1.57937 -0.302103 0
M  V30 1532 O 140.616 1.64913 -0.561182 0
M  V30 1533 C 137.748 3.18927 -1.20409 0
M  V30 1534 H 138.941 1.81924 -2.38419 0
M  V30 1535 H 136.494 0.91805 -1.26497 0
M  V30 1536 H 137.229 3.23436 -0.236522 0
M  V30 1537 H 137.014 3.36911 -2.00582 0
M  V30 1538 H 138.504 3.98949 -1.23408 0
M  V30 1539 N 138.941 1.26152 0.944643 0
M  V30 1540 C 140.189 1.11271 1.6871 0
M  V30 1541 C 140.51 -0.345166 1.91921 0
M  V30 1542 O 139.78 -1.24387 1.51343 0
M  V30 1543 H 138.36 0.408783 0.625224 0
M  V30 1544 H 141.022 1.58427 1.1352 0
M  V30 1545 H 140.118 1.62879 2.66227 0
M  V30 1546 N 140.419 -1.14872 1.07899 0
M  V30 1547 C 141.83 -1.67367 0.827363 0
M  V30 1548 C 142.181 -1.85236 -0.646693 0
M  V30 1549 O 141.306 -1.55974 -1.50004 0
M  V30 1550 C 141.901 -3.04016 1.49532 0
M  V30 1551 C 140.46 -3.53566 1.29106 0
M  V30 1552 C 139.607 -2.29161 1.56143 0
M  V30 1553 H 142.558 -0.990083 1.24028 0
M  V30 1554 H 142.579 -3.69219 0.919643 0
M  V30 1555 H 142.091 -2.90978 2.56814 0
M  V30 1556 H 140.192 -3.71835 0.238713 0
M  V30 1557 H 140.305 -4.34661 2.01511 0
M  V30 1558 H 138.669 -2.34978 0.982717 0
M  V30 1559 H 139.452 -2.18705 2.64619 0
M  V30 1560 N 141.898 -0.863906 -1.31812 0
M  V30 1561 C 143.309 -0.52522 -1.7916 0
M  V30 1562 C 143.66 0.957518 -1.71248 0
M  V30 1563 O 142.785 1.74734 -1.27659 0
M  V30 1564 C 143.38 -0.9466 -3.25307 0
M  V30 1565 C 141.939 -0.659668 -3.70574 0
M  V30 1566 C 141.086 -1.14126 -2.52726 0
M  V30 1567 H 144.037 -1.05022 -1.1898 0
M  V30 1568 H 144.058 -0.266766 -3.79564 0
M  V30 1569 H 143.57 -2.02579 -3.31034 0
M  V30 1570 H 141.671 0.408416 -3.70355 0
M  V30 1571 H 141.784 -1.23245 -4.62977 0
M  V30 1572 H 140.148 -0.561216 -2.4844 0
M  V30 1573 H 140.931 -2.22775 -2.61201 0
M  V30 1574 N 143.376 1.44774 -0.622745 0
M  V30 1575 C 144.286 2.34433 0.0886031 0
M  V30 1576 C 145.302 1.52131 0.844529 0
M  V30 1577 O 146.478 1.84886 0.798691 0
M  V30 1578 C 143.543 3.29986 1.0635 0
M  V30 1579 C 142.604 4.28195 0.307873 0
M  V30 1580 C 141.837 5.19183 1.23633 0
M  V30 1581 O 142.06 5.13918 2.47476 0
M  V30 1582 O 140.994 5.97515 0.725189 0
M  V30 1583 H 144.82 2.96693 -0.648599 0
M  V30 1584 H 142.405 1.44408 -0.382957 0
M  V30 1585 H 144.287 3.88825 1.6246 0
M  V30 1586 H 142.962 2.70269 1.78146 0
M  V30 1587 H 141.869 3.72927 -0.296064 0
M  V30 1588 H 143.202 4.90808 -0.3699 0
M  V30 1589 N 144.854 0.36279 1.53368 0
M  V30 1590 C 146.079 -0.231226 2.06107 0
M  V30 1591 C 146.504 -1.419 1.23474 0
M  V30 1592 O 145.862 -1.79524 0.253128 0
M  V30 1593 C 145.91 -0.605523 3.5548 0
M  V30 1594 O 145.014 -1.70312 3.7559 0
M  V30 1595 H 144.355 -0.034327 0.663112 0
M  V30 1596 H 146.885 0.522584 1.97814 0
M  V30 1597 H 146.895 -0.877314 3.98456 0
M  V30 1598 H 145.57 0.263004 4.15068 0
M  V30 1599 H 144.147 -1.4271 3.44512 0
M  V30 1600 N 146.332 -1.57332 0.0918853 0
M  V30 1601 C 147.58 -1.93853 -0.571446 0
M  V30 1602 C 147.901 -0.974212 -1.6892 0
M  V30 1603 O 147.171 -0.0257254 -1.95883 0
M  V30 1604 H 145.751 -0.715666 -0.214082 0
M  V30 1605 H 148.413 -1.94287 0.154464 0
M  V30 1606 H 147.509 -2.96191 -0.983729 0
M  V30 1607 N 147.81 0.181792 -1.56548 0
M  V30 1608 C 148.72 1.24538 -1.98815 0
M  V30 1609 C 149.736 1.49045 -0.897861 0
M  V30 1610 O 150.912 1.61399 -1.20467 0
M  V30 1611 C 147.977 2.56683 -2.33055 0
M  V30 1612 C 147.038 2.40131 -3.55859 0
M  V30 1613 C 146.271 3.65975 -3.88456 0
M  V30 1614 O 146.494 4.70711 -3.22161 0
M  V30 1615 O 145.428 3.6071 -4.81842 0
M  V30 1616 H 149.254 0.916647 -2.89536 0
M  V30 1617 H 146.839 0.387842 -1.44278 0
M  V30 1618 H 148.721 3.34655 -2.56094 0
M  V30 1619 H 147.396 2.89157 -1.45498 0
M  V30 1620 H 146.303 1.60226 -3.38051 0
M  V30 1621 H 147.636 2.12585 -4.43924 0
M  V30 1622 N 149.288 1.51039 0.449983 0
M  V30 1623 C 150.513 1.6715 1.22783 0
M  V30 1624 C 150.938 0.363081 1.84563 0
M  V30 1625 O 150.296 -0.675433 1.68249 0
M  V30 1626 C 150.344 2.77985 2.29689 0
M  V30 1627 O 149.448 2.40707 3.34864 0
M  V30 1628 H 148.789 0.557746 0.360299 0
M  V30 1629 H 151.319 1.97535 0.533005 0
M  V30 1630 H 151.329 3.01693 2.74673 0
M  V30 1631 H 150.004 3.72935 1.84098 0
M  V30 1632 H 148.581 2.27523 2.95445 0
M  V30 1633 N 150.766 -0.704594 1.40972 0
M  V30 1634 C 151.994 -1.49354 1.43182 0
M  V30 1635 C 152.409 -1.88768 0.0345508 0
M  V30 1636 O 151.766 -1.56184 -0.944081 0
M  V30 1637 C 151.817 -2.76187 2.33244 0
M  V30 1638 O 151.538 -2.38436 3.67532 0
M  V30 1639 C 153.039 -3.7 2.44162 0
M  V30 1640 H 150.259 -0.460559 0.487982 0
M  V30 1641 H 152.803 -0.868261 1.85153 0
M  V30 1642 H 150.958 -3.34974 1.94606 0
M  V30 1643 H 151.372 -3.20126 4.15475 0
M  V30 1644 H 152.846 -4.55803 3.11364 0
M  V30 1645 H 153.323 -4.13867 1.47006 0
M  V30 1646 H 153.929 -3.17121 2.83398 0
M  V30 1647 N 152.244 -1.26651 -0.937939 0
M  V30 1648 C 153.521 -1.0313 -1.66204 0
M  V30 1649 C 153.901 0.437256 -2.06522 0
M  V30 1650 O 153.249 1.41831 -1.79154 0
M  V30 1651 C 153.459 -1.98314 -2.87181 0
M  V30 1652 C 154.807 -2.27107 -3.58758 0
M  V30 1653 O 155.831 -1.96205 -2.97291 0
M  V30 1654 O 154.69 -2.79736 -4.69479 0
M  V30 1655 H 151.784 -0.392384 -0.727986 0
M  V30 1656 H 154.33 -1.37874 -0.989382 0
M  V30 1657 H 153.102 -2.97399 -2.54302 0
M  V30 1658 H 152.725 -1.64068 -3.6217 0
M  V30 1659 N 153.722 1.14298 -1.08507 0
M  V30 1660 C 154.685 2.17607 -0.719711 0
M  V30 1661 C 155.685 1.58907 0.245997 0
M  V30 1662 O 156.875 1.74181 0.0254081 0
M  V30 1663 C 154.007 3.40842 -0.0627695 0
M  V30 1664 H 155.2 2.51443 -1.63452 0
M  V30 1665 H 152.753 1.28963 -0.88307 0
M  V30 1666 H 153.488 3.12587 0.863716 0
M  V30 1667 H 153.273 3.84713 -0.757504 0
M  V30 1668 H 154.763 4.17221 0.177786 0
M  V30 1669 N 155.201 0.870884 1.31352 0
M  V30 1670 C 156.131 0.343096 2.30966 0
M  V30 1671 C 157.112 -0.566507 1.60389 0
M  V30 1672 O 158.297 -0.483336 1.88089 0
M  V30 1673 C 155.427 -0.455487 3.443 0
M  V30 1674 C 154.381 0.361103 4.26474 0
M  V30 1675 C 153.707 -0.563221 5.31725 0
M  V30 1676 C 155.007 1.59566 4.97329 0
M  V30 1677 H 156.701 1.17548 2.75359 0
M  V30 1678 H 154.247 0.566686 1.32381 0
M  V30 1679 H 156.2 -0.83525 4.13039 0
M  V30 1680 H 154.924 -1.32139 2.98675 0
M  V30 1681 H 153.583 0.722825 3.59403 0
M  V30 1682 H 153.231 -1.42643 4.82351 0
M  V30 1683 H 152.931 -0.0207409 5.87596 0
M  V30 1684 H 154.455 -0.939808 6.03324 0
M  V30 1685 H 155.869 1.28728 5.58661 0
M  V30 1686 H 154.266 2.07728 5.63 0
M  V30 1687 H 155.336 2.34798 4.24262 0
M  V30 1688 N 156.679 -1.44442 0.630414 0
M  V30 1689 C 157.626 -2.30678 -0.0749355 0
M  V30 1690 C 158.596 -1.4344 -0.837502 0
M  V30 1691 O 159.781 -1.72343 -0.818684 0
M  V30 1692 C 156.921 -3.28706 -1.05103 0
M  V30 1693 C 156.034 -4.31046 -0.286954 0
M  V30 1694 C 155.169 -5.16167 -1.2548 0
M  V30 1695 C 154.208 -6.10216 -0.479843 0
M  V30 1696 N 153.345 -6.88039 -1.39811 0
M  V30 1697 H 158.185 -2.90454 0.666386 0
M  V30 1698 H 155.722 -1.43107 0.340404 0
M  V30 1699 H 157.68 -3.84027 -1.63031 0
M  V30 1700 H 156.31 -2.70632 -1.75949 0
M  V30 1701 H 155.362 -3.78203 0.408243 0
M  V30 1702 H 156.674 -4.97794 0.316657 0
M  V30 1703 H 155.828 -5.76002 -1.90544 0
M  V30 1704 H 154.567 -4.49491 -1.89233 0
M  V30 1705 H 153.572 -5.49491 0.184295 0
M  V30 1706 H 154.797 -6.78928 0.152965 0
M  V30 1707 H 152.743 -6.24032 -2.02287 0
M  V30 1708 H 152.66 -7.51223 -0.848508 0
M  V30 1709 H 153.928 -7.52397 -2.03762 0
M  V30 1710 N 158.157 -0.370918 -1.53173 0
M  V30 1711 C 159.087 0.464847 -2.28826 0
M  V30 1712 C 160.068 1.07936 -1.31468 0
M  V30 1713 O 161.253 1.0956 -1.60344 0
M  V30 1714 C 158.383 1.60196 -3.08147 0
M  V30 1715 C 157.337 1.11443 -4.13237 0
M  V30 1716 C 156.663 2.3422 -4.80672 0
M  V30 1717 C 157.963 0.195384 -5.21934 0
M  V30 1718 H 159.657 -0.166329 -2.98938 0
M  V30 1719 H 157.203 -0.0814359 -1.4377 0
M  V30 1720 H 159.156 2.19332 -3.59822 0
M  V30 1721 H 157.88 2.26045 -2.35735 0
M  V30 1722 H 156.539 0.545727 -3.62515 0
M  V30 1723 H 156.187 2.98537 -4.04827 0
M  V30 1724 H 155.887 2.02269 -5.51689 0
M  V30 1725 H 157.411 2.94032 -5.35143 0
M  V30 1726 H 158.825 0.694375 -5.69079 0
M  V30 1727 H 157.222 -0.0335027 -6.00091 0
M  V30 1728 H 158.292 -0.760961 -4.78892 0
M  V30 1729 N 159.635 1.57281 -0.100228 0
M  V30 1730 C 160.875 1.96419 0.56558 0
M  V30 1731 C 161.239 0.981265 1.65031 0
M  V30 1732 O 162.44 1.26133 2.37369 0
M  V30 1733 C 160.711 3.39996 1.10171 0
M  V30 1734 S 162.27 4.01134 1.77867 0
M  V30 1735 H 159.088 0.68667 0.184406 0
M  V30 1736 H 161.69 1.94662 -0.180851 0
M  V30 1737 H 160.394 4.09296 0.300803 0
M  V30 1738 H 159.925 3.45361 1.88385 0
M  V30 1739 H 161.94 3.90358 3.06326 0
M  V30 1740 N 161.113 -0.173488 1.56642 0
M  V30 1741 C 162.524 -0.736155 1.71574 0
M  V30 1742 C 162.875 -1.82888 0.710389 0
M  V30 1743 O 162 -2.16017 -0.1287 0
M  V30 1744 C 162.595 -1.34211 3.11083 0
M  V30 1745 C 161.154 -1.85162 3.27707 0
M  V30 1746 C 160.301 -0.729765 2.67525 0
M  V30 1747 H 163.252 0.0518786 1.58615 0
M  V30 1748 H 163.273 -2.21178 3.09613 0
M  V30 1749 H 162.785 -0.546579 3.84232 0
M  V30 1750 H 160.886 -2.67366 2.59512 0
M  V30 1751 H 160.999 -1.99855 4.35425 0
M  V30 1752 H 159.363 -1.14965 2.27278 0
M  V30 1753 H 160.146 0.0538806 3.43258 0
M  V30 1754 N 162.591 -1.51276 -0.441967 0
M  V30 1755 C 163.541 -1.6864 -1.53442 0
M  V30 1756 C 164.525 -0.540444 -1.51552 0
M  V30 1757 O 165.717 -0.796157 -1.58083 0
M  V30 1758 C 162.846 -1.8106 -2.91672 0
M  V30 1759 C 161.932 -3.01424 -2.98336 0
M  V30 1760 N 162.323 -4.2467 -2.74752 0
M  V30 1761 C 160.621 -3.00584 -3.29493 0
M  V30 1762 C 161.322 -5.05891 -2.87139 0
M  V30 1763 N 160.298 -4.40442 -3.18609 0
M  V30 1764 H 164.1 -2.61598 -1.33954 0
M  V30 1765 H 161.614 -1.4886 -0.6492 0
M  V30 1766 H 163.611 -1.91609 -3.70259 0
M  V30 1767 H 162.271 -0.892795 -3.12185 0
M  V30 1768 H 163.282 -4.53691 -2.49769 0
M  V30 1769 H 159.959 -2.18417 -3.55809 0
M  V30 1770 H 161.349 -6.13983 -2.72899 0
M  V30 1771 N 164.069 0.697108 -1.41344 0
M  V30 1772 C 164.979 1.84088 -1.45427 0
M  V30 1773 C 165.995 1.70545 -0.34501 0
M  V30 1774 O 167.171 1.92488 -0.592492 0
M  V30 1775 C 164.236 3.20056 -1.33286 0
M  V30 1776 C 163.297 3.45718 -2.54514 0
M  V30 1777 C 162.53 4.75199 -2.42944 0
M  V30 1778 O 162.753 5.51579 -1.45318 0
M  V30 1779 O 161.687 5.0161 -3.32672 0
M  V30 1780 H 165.513 1.836 -2.41919 0
M  V30 1781 H 163.098 0.849966 -1.22866 0
M  V30 1782 H 164.98 4.01236 -1.28794 0
M  V30 1783 H 163.655 3.2123 -0.39909 0
M  V30 1784 H 162.562 2.64474 -2.64583 0
M  V30 1785 H 163.895 3.49356 -3.46715 0
M  V30 1786 N 165.547 1.27147 0.931209 0
M  V30 1787 C 166.457 1.11372 2.06478 0
M  V30 1788 C 167.473 0.044645 1.73943 0
M  V30 1789 O 168.649 0.250417 1.99837 0
M  V30 1790 C 165.714 0.758838 3.38294 0
M  V30 1791 C 164.775 1.90841 3.84549 0
M  V30 1792 C 164.008 1.57036 5.10074 0
M  V30 1793 O 164.231 0.476645 5.68405 0
M  V30 1794 O 163.165 2.40839 5.51616 0
M  V30 1795 H 166.991 2.06493 2.22698 0
M  V30 1796 H 164.576 1.06301 1.04978 0
M  V30 1797 H 166.458 0.574098 4.17471 0
M  V30 1798 H 165.133 -0.162879 3.2329 0
M  V30 1799 H 164.04 2.14819 3.06274 0
M  V30 1800 H 165.373 2.81021 4.04089 0
M  V30 1801 N 167.025 -1.13721 1.09112 0
M  V30 1802 C 168.272 -1.84924 0.825192 0
M  V30 1803 C 168.6 -1.83347 -0.649151 0
M  V30 1804 O 167.855 -1.26449 -1.49362 0
M  V30 1805 C 168.154 -3.32861 1.30146 0
M  V30 1806 C 167.82 -3.54621 2.78486 0
M  V30 1807 C 166.482 -3.60268 3.18999 0
M  V30 1808 C 168.834 -3.62855 3.74146 0
M  V30 1809 C 166.162 -3.71679 4.53951 0
M  V30 1810 C 168.514 -3.75793 5.08883 0
M  V30 1811 C 167.178 -3.79692 5.4899 0
M  V30 1812 H 166.448 -0.676684 0.301959 0
M  V30 1813 H 169.095 -1.3428 1.36533 0
M  V30 1814 H 167.4 -3.85835 0.681064 0
M  V30 1815 H 169.097 -3.86395 1.07236 0
M  V30 1816 H 165.687 -3.50879 2.46134 0
M  V30 1817 H 169.871 -3.57775 3.43963 0
M  V30 1818 H 165.127 -3.72963 4.84467 0
M  V30 1819 H 169.301 -3.81107 5.82864 0
M  V30 1820 H 166.928 -3.88287 6.53558 0
M  V30 1821 N 168.503 -0.877838 -1.30888 0
M  V30 1822 C 169.433 -0.35534 -2.3078 0
M  V30 1823 C 170.414 0.557994 -1.60687 0
M  V30 1824 O 171.599 0.473355 -1.88343 0
M  V30 1825 C 168.729 0.437221 -3.44537 0
M  V30 1826 C 167.683 -0.383715 -4.26276 0
M  V30 1827 C 167.009 0.535014 -5.32017 0
M  V30 1828 C 168.309 -1.62201 -4.96476 0
M  V30 1829 H 170.003 -1.19007 -2.74732 0
M  V30 1830 H 167.549 -0.573698 -1.32078 0
M  V30 1831 H 169.502 0.813334 -4.13477 0
M  V30 1832 H 168.226 1.30553 -2.99372 0
M  V30 1833 H 166.885 -0.741874 -3.59015 0
M  V30 1834 H 166.533 1.40083 -4.831 0
M  V30 1835 H 166.233 -0.0104211 -5.87599 0
M  V30 1836 H 167.757 0.907799 -6.03814 0
M  V30 1837 H 169.171 -1.31689 -5.5797 0
M  V30 1838 H 167.568 -2.10711 -5.61891 0
M  V30 1839 H 168.638 -2.37044 -4.23011 0
M  V30 1840 N 169.982 1.44106 -0.638065 0
M  V30 1841 C 171.398 1.56672 -0.304286 0
M  V30 1842 C 171.598 1.6244 1.19228 0
M  V30 1843 O 170.654 1.57121 1.9766 0
M  V30 1844 C 171.967 2.83503 -1.00231 0
M  V30 1845 C 173.515 2.97226 -0.981116 0
M  V30 1846 C 173.99 4.26868 -1.65974 0
M  V30 1847 N 175.481 4.33698 -1.62666 0
M  V30 1848 C 176.216 5.32745 -2.12063 0
M  V30 1849 N 175.712 6.38157 -2.6968 0
M  V30 1850 N 177.505 5.24299 -2.02651 0
M  V30 1851 H 169.656 1.38605 -1.60942 0
M  V30 1852 H 171.919 0.664661 -0.675965 0
M  V30 1853 H 171.625 2.85251 -2.0573 0
M  V30 1854 H 171.499 3.73251 -0.54439 0
M  V30 1855 H 173.886 2.95027 0.0654188 0
M  V30 1856 H 173.967 2.08808 -1.47759 0
M  V30 1857 H 173.611 4.29826 -2.70576 0
M  V30 1858 H 173.541 5.14156 -1.13804 0
M  V30 1859 H 176.032 3.58138 -1.20606 0
M  V30 1860 H 176.345 7.10029 -3.05087 0
M  V30 1861 H 174.69 6.38823 -2.73734 0
M  V30 1862 H 177.881 4.4086 -1.57353 0
M  V30 1863 H 178.054 6.01334 -2.41457 0
M  V30 1864 N 171.46 0.379036 1.52974 0
M  V30 1865 C 172.39 -0.452706 2.29069 0
M  V30 1866 C 173.371 -1.07237 1.32039 0
M  V30 1867 O 174.556 -1.08708 1.60923 0
M  V30 1868 C 171.686 -1.5856 3.08992 0
M  V30 1869 C 170.64 -1.0925 4.13822 0
M  V30 1870 C 169.966 -2.31668 4.81907 0
M  V30 1871 C 171.266 -0.167702 5.22031 0
M  V30 1872 H 172.96 0.182181 2.98845 0
M  V30 1873 H 170.506 0.0890592 1.43724 0
M  V30 1874 H 172.459 -2.1742 3.6098 0
M  V30 1875 H 171.183 -2.24792 2.36931 0
M  V30 1876 H 169.842 -0.526494 3.628 0
M  V30 1877 H 169.49 -2.96386 4.06404 0
M  V30 1878 H 169.19 -1.9934 5.52754 0
M  V30 1879 H 170.714 -2.91189 5.36695 0
M  V30 1880 H 172.128 -0.664186 5.6944 0
M  V30 1881 H 170.525 0.0653265 6.00064 0
M  V30 1882 H 171.595 0.786347 4.78482 0
M  V30 1883 N 172.938 -1.57226 0.108567 0
M  V30 1884 C 174.178 -1.96717 -0.555155 0
M  V30 1885 C 174.542 -0.990003 -1.64508 0
M  V30 1886 O 175.743 -1.2739 -2.36696 0
M  V30 1887 C 174.014 -3.40575 -1.08367 0
M  V30 1888 S 175.573 -4.02072 -1.75737 0
M  V30 1889 H 172.391 -0.687638 -0.180762 0
M  V30 1890 H 174.993 -1.94563 0.191172 0
M  V30 1891 H 173.697 -4.0945 -0.279092 0
M  V30 1892 H 173.228 -3.46356 -1.86551 0
M  V30 1893 H 175.243 -3.91977 -3.04251 0
M  V30 1894 N 174.416 0.165178 -1.56732 0
M  V30 1895 C 175.363 1.2044 -1.96883 0
M  V30 1896 C 176.333 1.43664 -0.833657 0
M  V30 1897 O 177.518 1.56302 -1.09427 0
M  V30 1898 C 174.658 2.53727 -2.33916 0
M  V30 1899 C 173.771 2.3783 -3.6064 0
M  V30 1900 C 172.906 3.64026 -3.86857 0
M  V30 1901 C 171.945 3.43088 -5.06909 0
M  V30 1902 N 171.082 4.61369 -5.29229 0
M  V30 1903 H 175.922 0.854996 -2.85471 0
M  V30 1904 H 173.459 0.41076 -1.41249 0
M  V30 1905 H 175.417 3.31419 -2.53411 0
M  V30 1906 H 174.047 2.8665 -1.48431 0
M  V30 1907 H 173.099 1.51282 -3.49024 0
M  V30 1908 H 174.411 2.18308 -4.4849 0
M  V30 1909 H 173.565 4.50152 -4.06753 0
M  V30 1910 H 172.304 3.86533 -2.97394 0
M  V30 1911 H 171.309 2.55349 -4.86906 0
M  V30 1912 H 172.534 3.21997 -5.97909 0
M  V30 1913 H 170.48 4.84084 -4.42718 0
M  V30 1914 H 170.397 4.44783 -6.11313 0
M  V30 1915 H 171.665 5.48761 -5.53608 0
M  V30 1916 N 175.894 1.51508 0.433938 0
M  V30 1917 C 176.804 1.75917 1.5521 0
M  V30 1918 C 177.82 0.643545 1.61662 0
M  V30 1919 O 178.996 0.926183 1.7884 0
M  V30 1920 C 176.061 1.88213 2.91164 0
M  V30 1921 C 175.122 3.12074 2.94802 0
M  V30 1922 C 174.355 3.23774 4.24271 0
M  V30 1923 O 174.578 2.4133 5.16833 0
M  V30 1924 O 173.512 4.16774 4.34262 0
M  V30 1925 H 177.338 2.70777 1.37527 0
M  V30 1926 H 174.923 1.36051 0.617293 0
M  V30 1927 H 176.805 1.98267 3.71845 0
M  V30 1928 H 175.48 0.965413 3.08968 0
M  V30 1929 H 174.387 3.07497 2.13065 0
M  V30 1930 H 175.72 4.03446 2.81943 0
M  V30 1931 N 177.372 -0.689602 1.41712 0
M  V30 1932 C 178.788 -1.00093 1.24312 0
M  V30 1933 C 178.988 -2.01036 0.136729 0
M  V30 1934 O 178.044 -2.47562 -0.496918 0
M  V30 1935 C 179.357 -1.51985 2.59463 0
M  V30 1936 C 180.905 -1.63838 2.66695 0
M  V30 1937 C 181.38 -2.1913 4.02177 0
M  V30 1938 N 182.871 -2.26483 4.04054 0
M  V30 1939 C 183.606 -2.70306 5.0569 0
M  V30 1940 N 183.102 -3.13691 6.17713 0
M  V30 1941 N 184.895 -2.69923 4.9305 0
M  V30 1942 H 177.046 -0.0210029 2.1239 0
M  V30 1943 H 179.309 -0.0718733 0.945272 0
M  V30 1944 H 179.015 -0.85269 3.41207 0
M  V30 1945 H 178.889 -2.50103 2.82362 0
M  V30 1946 H 181.276 -2.29664 1.85306 0
M  V30 1947 H 181.357 -0.642492 2.476 0
M  V30 1948 H 181.001 -1.53918 4.84016 0
M  V30 1949 H 180.931 -3.19482 4.18615 0
M  V30 1950 H 183.422 -1.95874 3.23174 0
M  V30 1951 H 183.735 -3.45773 6.9113 0
M  V30 1952 H 182.08 -3.11585 6.21241 0
M  V30 1953 H 185.271 -2.35382 4.04614 0
M  V30 1954 H 185.444 -3.03758 5.72394 0
M  V30 1955 N 178.85 -1.27639 -0.924453 0
M  V30 1956 C 179.813 -1.10681 -2.00705 0
M  V30 1957 C 180.813 -0.0497823 -1.60723 0
M  V30 1958 O 182.003 -0.294654 -1.7169 0
M  V30 1959 C 179.135 -0.687164 -3.33902 0
M  V30 1960 H 180.328 -2.06817 -2.17179 0
M  V30 1961 H 177.881 -1.10473 -1.10569 0
M  V30 1962 H 178.616 0.275439 -3.23128 0
M  V30 1963 H 178.401 -1.45061 -3.6428 0
M  V30 1964 H 179.891 -0.590853 -4.13399 0
M  V30 1965 N 180.328 1.1314 -1.09713 0
M  V30 1966 C 181.238 2.22242 -0.751367 0
M  V30 1967 C 182.254 1.72224 0.247938 0
M  V30 1968 O 183.43 2.01205 0.0885463 0
M  V30 1969 C 180.495 3.46231 -0.180274 0
M  V30 1970 C 179.556 4.11125 -1.2359 0
M  V30 1971 C 178.789 5.29195 -0.691966 0
M  V30 1972 O 179.012 5.68342 0.48414 0
M  V30 1973 O 177.946 5.84214 -1.44838 0
M  V30 1974 H 181.772 2.54197 -1.66186 0
M  V30 1975 H 179.357 1.21331 -0.871735 0
M  V30 1976 H 181.239 4.21185 0.134739 0
M  V30 1977 H 179.914 3.1597 0.703185 0
M  V30 1978 H 178.821 3.37985 -1.60366 0
M  V30 1979 H 180.154 4.45524 -2.09211 0
M  V30 1980 N 181.806 0.884767 1.30421 0
M  V30 1981 C 182.716 0.355398 2.31892 0
M  V30 1982 C 183.732 -0.542261 1.65335 0
M  V30 1983 O 184.908 -0.435432 1.96637 0
M  V30 1984 C 181.973 -0.421661 3.44126 0
M  V30 1985 C 181.034 0.505727 4.26311 0
M  V30 1986 C 180.267 -0.234343 5.33185 0
M  V30 1987 O 180.49 -1.46045 5.51386 0
M  V30 1988 O 179.424 0.415443 6.00465 0
M  V30 1989 H 183.25 1.19685 2.79122 0
M  V30 1990 H 180.835 0.648596 1.34587 0
M  V30 1991 H 182.717 -0.861641 4.12497 0
M  V30 1992 H 181.392 -1.23942 2.99032 0
M  V30 1993 H 180.299 0.994513 3.60639 0
M  V30 1994 H 181.632 1.28948 4.75009 0
M  V30 1995 N 183.284 -1.43765 0.645699 0
M  V30 1996 C 184.533 -2.01116 0.153412 0
M  V30 1997 C 184.846 -1.51493 -1.23731 0
M  V30 1998 O 186.052 -2.01067 -1.8244 0
M  V30 1999 C 184.508 -3.59206 0.223473 0
M  V30 2000 C 184.116 -4.17823 1.61642 0
M  V30 2001 C 185.86 -4.23972 -0.211597 0
M  V30 2002 C 183.767 -5.68183 1.64081 0
M  V30 2003 H 182.697 -0.752093 0.0535891 0
M  V30 2004 H 185.348 -1.6482 0.806633 0
M  V30 2005 H 183.73 -3.92867 -0.497118 0
M  V30 2006 H 184.904 -3.95674 2.36176 0
M  V30 2007 H 183.219 -3.65399 1.99681 0
M  V30 2008 H 185.816 -5.34275 -0.213112 0
M  V30 2009 H 186.159 -3.97352 -1.24165 0
M  V30 2010 H 186.692 -3.95166 0.456988 0
M  V30 2011 H 183.431 -5.99559 2.64971 0
M  V30 2012 H 182.951 -5.9241 0.938611 0
M  V30 2013 H 184.63 -6.32085 1.3812 0
M  V30 2014 N 184.763 -0.387143 -1.52771 0
M  V30 2015 C 185.993 0.195585 -2.05672 0
M  V30 2016 C 186.401 1.41241 -1.25887 0
M  V30 2017 O 185.744 1.81265 -0.298081 0
M  V30 2018 C 185.806 0.632327 -3.53895 0
M  V30 2019 C 185.47 -0.470739 -4.54569 0
M  V30 2020 C 186.467 -1.32746 -5.02667 0
M  V30 2021 C 184.152 -0.637151 -4.98243 0
M  V30 2022 C 186.146 -2.33574 -5.93061 0
M  V30 2023 C 183.833 -1.64877 -5.88438 0
M  V30 2024 C 184.831 -2.49649 -6.35739 0
M  V30 2025 O 184.519 -3.49082 -7.24153 0
M  V30 2026 H 184.251 0.033658 -0.675162 0
M  V30 2027 H 186.805 -0.550221 -1.97893 0
M  V30 2028 H 185.035 1.43008 -3.59285 0
M  V30 2029 H 186.724 1.14048 -3.89548 0
M  V30 2030 H 187.49 -1.21019 -4.69659 0
M  V30 2031 H 183.369 0.0129567 -4.60998 0
M  V30 2032 H 186.913 -2.99777 -6.29904 0
M  V30 2033 H 182.81 -1.76643 -6.2086 0
M  V30 2034 H 183.578 -3.45065 -7.42208 0
M  V30 2035 N 186.241 1.57166 -0.116904 0
M  V30 2036 C 187.652 1.82169 0.408809 0
M  V30 2037 C 188.003 1.03393 1.66746 0
M  V30 2038 O 187.128 0.269886 2.1471 0
M  V30 2039 C 187.723 3.30429 0.748466 0
M  V30 2040 C 186.282 3.5612 1.21882 0
M  V30 2041 C 185.429 2.76374 0.226452 0
M  V30 2042 H 188.38 1.5497 -0.342063 0
M  V30 2043 H 188.401 3.44943 1.60607 0
M  V30 2044 H 187.913 3.87737 -0.167784 0
M  V30 2045 H 186.014 3.04168 2.15204 0
M  V30 2046 H 186.127 4.64705 1.16559 0
M  V30 2047 H 184.491 2.44515 0.713063 0
M  V30 2048 H 185.274 3.3644 -0.682859 0
M  V30 2049 N 187.719 -0.156864 1.56817 0
M  V30 2050 C 188.968 -0.869504 1.81996 0
M  V30 2051 C 189.281 -1.82777 0.696545 0
M  V30 2052 O 190.487 -2.58384 0.833658 0
M  V30 2053 C 188.943 -1.59679 3.22538 0
M  V30 2054 C 188.551 -0.681431 4.42787 0
M  V30 2055 C 190.295 -2.2968 3.56997 0
M  V30 2056 C 188.202 -1.40978 5.74351 0
M  V30 2057 H 187.132 -0.328438 0.678708 0
M  V30 2058 H 189.783 -0.1223 1.83092 0
M  V30 2059 H 188.165 -2.38927 3.158 0
M  V30 2060 H 189.339 0.0751166 4.60739 0
M  V30 2061 H 187.654 -0.0903431 4.16302 0
M  V30 2062 H 190.251 -2.84794 4.52544 0
M  V30 2063 H 190.594 -3.05707 2.82576 0
M  V30 2064 H 191.127 -1.57361 3.65352 0
M  V30 2065 H 187.866 -0.691561 6.51842 0
M  V30 2066 H 187.386 -2.13929 5.60352 0
M  V30 2067 H 189.065 -1.95337 6.16808 0
M  V30 2068 N 189.197 -1.51736 -0.425897 0
M  V30 2069 C 190.144 -1.73875 -1.51776 0
M  V30 2070 C 191.114 -0.580702 -1.55618 0
M  V30 2071 O 192.299 -0.81641 -1.72451 0
M  V30 2072 C 189.439 -1.88012 -2.89388 0
M  V30 2073 C 188.552 -3.15606 -2.94986 0
M  V30 2074 C 187.687 -3.20271 -4.23793 0
M  V30 2075 C 186.726 -4.42134 -4.23302 0
M  V30 2076 N 185.863 -4.44284 -5.43651 0
M  V30 2077 H 190.703 -2.67071 -1.32201 0
M  V30 2078 H 188.24 -1.32351 -0.642008 0
M  V30 2079 H 190.198 -1.9419 -3.69251 0
M  V30 2080 H 188.828 -0.98213 -3.07496 0
M  V30 2081 H 187.88 -3.18681 -2.07717 0
M  V30 2082 H 189.192 -4.05486 -2.90486 0
M  V30 2083 H 188.346 -3.25428 -5.12036 0
M  V30 2084 H 187.085 -2.28299 -4.30965 0
M  V30 2085 H 186.09 -4.3714 -3.3345 0
M  V30 2086 H 187.315 -5.35382 -4.17783 0
M  V30 2087 H 185.261 -3.55188 -5.51523 0
M  V30 2088 H 185.178 -5.27988 -5.41078 0
M  V30 2089 H 186.446 -4.53649 -6.33895 0
M  V30 2090 N 190.675 0.682077 -1.42076 0
M  V30 2091 C 191.585 1.82535 -1.47371 0
M  V30 2092 C 192.601 1.7017 -0.363079 0
M  V30 2093 O 193.777 1.91848 -0.612875 0
M  V30 2094 C 190.842 3.18624 -1.36674 0
M  V30 2095 C 189.903 3.42999 -2.58167 0
M  V30 2096 C 189.136 4.72595 -2.4797 0
M  V30 2097 O 189.359 5.50006 -1.5116 0
M  V30 2098 O 188.293 4.98054 -3.37974 0
M  V30 2099 H 192.119 1.81023 -2.43853 0
M  V30 2100 H 189.704 0.836887 -1.2376 0
M  V30 2101 H 191.586 3.99847 -1.33043 0
M  V30 2102 H 190.261 3.20789 -0.433138 0
M  V30 2103 H 189.168 2.61653 -2.67373 0
M  V30 2104 H 190.501 3.45659 -3.50401 0
M  V30 2105 N 192.153 1.28127 0.917671 0
M  V30 2106 C 193.569 1.05749 1.19538 0
M  V30 2107 C 193.769 -0.202633 2.00479 0
M  V30 2108 O 192.825 -0.905382 2.3571 0
M  V30 2109 C 194.138 2.30273 1.93378 0
M  V30 2110 C 195.686 2.35412 2.06277 0
M  V30 2111 C 196.161 3.59692 2.83524 0
M  V30 2112 N 197.652 3.60309 2.91087 0
M  V30 2113 C 198.387 4.53147 3.51348 0
M  V30 2114 N 197.883 5.563 4.12919 0
M  V30 2115 N 199.676 4.40751 3.48849 0
M  V30 2116 H 191.827 2.09024 0.377184 0
M  V30 2117 H 194.09 0.919798 0.22951 0
M  V30 2118 H 193.796 3.22055 1.41328 0
M  V30 2119 H 193.67 2.36378 2.93947 0
M  V30 2120 H 196.057 1.4413 2.57508 0
M  V30 2121 H 196.138 2.33304 1.04895 0
M  V30 2122 H 195.782 4.51316 2.32973 0
M  V30 2123 H 195.712 3.59054 3.85211 0
M  V30 2124 H 198.203 2.85714 2.47338 0
M  V30 2125 H 198.516 6.2329 4.56869 0
M  V30 2126 H 196.861 5.60131 4.11435 0
M  V30 2127 H 200.052 3.59367 2.99955 0
M  V30 2128 H 200.225 5.13291 3.9552 0
M  V30 2129 N 193.631 -1.12557 1.10312 0
M  V30 2130 C 194.579 -2.20325 0.745629 0
M  V30 2131 C 195.573 -1.67429 -0.25763 0
M  V30 2132 O 196.779 -1.79612 -0.118132 0
M  V30 2133 H 193.154 -0.718118 0.223182 0
M  V30 2134 H 195.125 -2.47733 1.66346 0
M  V30 2135 C 193.874 -3.47168 0.192262 0
M  V30 2136 H 193.197 -3.88215 0.955475 0
M  V30 2137 H 194.637 -4.23995 -0.0198274 0
M  V30 2138 C 193.096 -3.19298 -1.07472 0
M  V30 2139 O 193.626 -3.3891 -2.15645 0
M  V30 2140 N 191.832 -2.73113 -0.992847 0
M  V30 2141 H 191.379 -2.57354 -0.112474 0
M  V30 2142 H 191.337 -2.54842 -1.84127 0
M  V30 2143 N 195.109 -0.891671 -1.2995 0
M  V30 2144 C 196.057 -0.353066 -2.29905 0
M  V30 2145 C 197.051 0.543509 -1.60444 0
M  V30 2146 O 198.257 0.4272 -1.74857 0
M  V30 2147 H 194.632 -0.095531 -0.745907 0
M  V30 2148 H 196.603 -1.20961 -2.72784 0
M  V30 2149 C 195.352 0.411475 -3.45257 0
M  V30 2150 H 194.675 -0.269182 -3.98893 0
M  V30 2151 H 196.115 0.753328 -4.17254 0
M  V30 2152 C 194.574 1.6111 -2.9588 0
M  V30 2153 O 195.104 2.71045 -2.96475 0
M  V30 2154 N 193.31 1.45054 -2.51809 0
M  V30 2155 H 192.857 0.556175 -2.51524 0
M  V30 2156 H 192.815 2.25453 -2.1913 0
M  V30 2157 N 196.587 1.43421 -0.653314 0
M  V30 2158 C 198.003 1.56341 -0.320886 0
M  V30 2159 C 198.203 1.63696 1.17499 0
M  V30 2160 O 197.259 1.59208 1.95982 0
M  V30 2161 C 198.572 2.82424 -1.03233 0
M  V30 2162 C 200.12 2.96168 -1.01259 0
M  V30 2163 C 200.595 4.25084 -1.70492 0
M  V30 2164 N 202.086 4.31948 -1.67257 0
M  V30 2165 C 202.821 5.30466 -2.17701 0
M  V30 2166 N 202.317 6.35261 -2.76434 0
M  V30 2167 N 204.11 5.2212 -2.082 0
M  V30 2168 H 196.261 1.3689 -1.62403 0
M  V30 2169 H 198.524 0.657455 -0.682977 0
M  V30 2170 H 198.23 2.83053 -2.08744 0
M  V30 2171 H 198.104 3.72653 -0.583948 0
M  V30 2172 H 200.491 2.9508 0.0341235 0
M  V30 2173 H 200.572 2.07229 -1.49966 0
M  V30 2174 H 200.216 4.26932 -2.7512 0
M  V30 2175 H 200.146 5.1292 -1.19251 0
M  V30 2176 H 202.637 3.56838 -1.24398 0
M  V30 2177 H 202.95 7.06754 -3.12601 0
M  V30 2178 H 201.295 6.35884 -2.80495 0
M  V30 2179 H 204.486 4.39166 -1.62021 0
M  V30 2180 H 204.659 5.98739 -2.47822 0
M  V30 2181 N 198.065 0.39524 1.52563 0
M  V30 2182 C 199.293 -0.184943 2.06072 0
M  V30 2183 C 199.708 -1.40021 1.26647 0
M  V30 2184 O 199.065 -1.79767 0.314672 0
M  V30 2185 C 199.116 -0.549179 3.57304 0
M  V30 2186 O 198.837 0.617813 4.33722 0
M  V30 2187 C 200.338 -1.18459 4.2718 0
M  V30 2188 H 197.558 -0.0265025 0.670476 0
M  V30 2189 H 200.102 0.562184 1.96621 0
M  V30 2190 H 198.257 -1.2462 3.66809 0
M  V30 2191 H 198.671 0.317091 5.23541 0
M  V30 2192 H 200.145 -1.38976 5.34219 0
M  V30 2193 H 200.622 -2.15368 3.82771 0
M  V30 2194 H 201.228 -0.528163 4.22008 0
M  V30 2195 N 199.544 -1.57102 0.125237 0
M  V30 2196 C 200.96 -1.57915 -0.231322 0
M  V30 2197 C 201.16 -1.13833 -1.66266 0
M  V30 2198 O 200.216 -0.828581 -2.38518 0
M  V30 2199 C 201.529 -3.00699 0.00766489 0
M  V30 2200 C 203.077 -3.12947 -0.0577483 0
M  V30 2201 C 203.552 -4.57742 0.153626 0
M  V30 2202 N 205.043 -4.63092 0.0998073 0
M  V30 2203 C 205.778 -5.72905 0.238174 0
M  V30 2204 N 205.274 -6.91445 0.433057 0
M  V30 2205 N 207.067 -5.6182 0.177308 0
M  V30 2206 H 199.218 -1.84055 1.06007 0
M  V30 2207 H 201.481 -0.850905 0.417929 0
M  V30 2208 H 201.187 -3.3726 0.997431 0
M  V30 2209 H 201.061 -3.70236 -0.721452 0
M  V30 2210 H 203.448 -2.7624 -1.03804 0
M  V30 2211 H 203.529 -2.4594 0.70335 0
M  V30 2212 H 203.173 -4.95149 1.13092 0
M  V30 2213 H 203.103 -5.22848 -0.627534 0
M  V30 2214 H 205.594 -3.77871 -0.047051 0
M  V30 2215 H 205.907 -7.70985 0.529332 0
M  V30 2216 H 204.252 -6.93415 0.469109 0
M  V30 2217 H 207.443 -4.68093 0.0259748 0
M  V30 2218 H 207.616 -6.47357 0.288582 0
M  V30 2219 N 201.022 0.148545 -1.56898 0
M  V30 2220 C 201.952 1.18524 -2.01182 0
M  V30 2221 C 202.933 1.4489 -0.891123 0
M  V30 2222 O 204.118 1.55836 -1.15882 0
M  V30 2223 C 201.248 2.51879 -2.39112 0
M  V30 2224 C 200.202 2.40038 -3.54353 0
M  V30 2225 C 199.528 3.78089 -3.78091 0
M  V30 2226 C 200.828 1.88577 -4.87069 0
M  V30 2227 H 202.522 0.817029 -2.88036 0
M  V30 2228 H 200.068 0.391575 -1.38574 0
M  V30 2229 H 202.021 3.24627 -2.68692 0
M  V30 2230 H 200.745 2.90532 -1.49193 0
M  V30 2231 H 199.404 1.69742 -3.24936 0
M  V30 2232 H 199.052 4.14175 -2.85426 0
M  V30 2233 H 198.752 3.71028 -4.55645 0
M  V30 2234 H 200.276 4.52387 -4.10095 0
M  V30 2235 H 201.69 2.51117 -5.15377 0
M  V30 2236 H 200.087 1.9241 -5.68417 0
M  V30 2237 H 201.157 0.84136 -4.77545 0
M  V30 2238 N 202.5 1.5196 0.417844 0
M  V30 2239 C 203.463 1.74065 1.49111 0
M  V30 2240 C 204.463 0.610537 1.48758 0
M  V30 2241 O 205.653 0.87832 1.50437 0
M  V30 2242 C 202.785 1.81502 2.88565 0
M  V30 2243 H 203.978 2.69869 1.30807 0
M  V30 2244 H 201.531 1.42244 0.647785 0
M  V30 2245 H 202.266 0.875813 3.1225 0
M  V30 2246 H 202.051 2.63651 2.90225 0
M  V30 2247 H 203.541 2.00376 3.66387 0
M  V30 2248 N 203.978 -0.674533 1.42435 0
M  V30 2249 C 204.908 -1.80009 1.48724 0
M  V30 2250 C 205.889 -1.6659 0.343793 0
M  V30 2251 O 207.074 -1.86007 0.558137 0
M  V30 2252 C 204.204 -3.18306 1.38919 0
M  V30 2253 C 203.158 -3.46461 2.51294 0
M  V30 2254 C 202.484 -4.84335 2.26547 0
M  V30 2255 C 203.784 -3.43328 3.93603 0
M  V30 2256 H 205.478 -1.75004 2.42928 0
M  V30 2257 H 203.024 -0.840533 1.16923 0
M  V30 2258 H 204.977 -3.9678 1.41927 0
M  V30 2259 H 203.701 -3.2399 0.412094 0
M  V30 2260 H 202.36 -2.70348 2.47604 0
M  V30 2261 H 202.008 -4.86669 1.2713 0
M  V30 2262 H 201.708 -5.04136 3.01861 0
M  V30 2263 H 203.232 -5.65094 2.31304 0
M  V30 2264 H 204.646 -4.11772 3.98894 0
M  V30 2265 H 203.043 -3.74664 4.68771 0
M  V30 2266 H 204.113 -2.41897 4.20255 0
M  V30 2267 N 205.456 -1.28612 -0.910864 0
M  V30 2268 C 206.705 -1.15311 -1.65488 0
M  V30 2269 C 207.018 0.296999 -1.93332 0
M  V30 2270 O 208.224 0.551168 -2.65847 0
M  V30 2271 C 206.68 -2.01599 -2.98137 0
M  V30 2272 C 206.288 -3.51367 -2.7793 0
M  V30 2273 C 208.032 -1.96993 -3.76024 0
M  V30 2274 C 205.939 -4.29797 -4.06237 0
M  V30 2275 H 204.869 -0.42796 -0.620779 0
M  V30 2276 H 207.52 -1.53166 -1.01057 0
M  V30 2277 H 205.902 -1.56603 -3.63719 0
M  V30 2278 H 207.076 -4.0434 -2.21011 0
M  V30 2279 H 205.391 -3.57529 -2.13452 0
M  V30 2280 H 207.988 -2.52856 -4.71135 0
M  V30 2281 H 208.331 -0.94733 -4.05378 0
M  V30 2282 H 208.864 -2.39973 -3.17266 0
M  V30 2283 H 205.603 -5.32648 -3.82055 0
M  V30 2284 H 205.123 -3.81596 -4.62757 0
M  V30 2285 H 206.802 -4.39869 -4.74473 0
M  V30 2286 N 206.934 1.1197 -1.10907 0
M  V30 2287 C 208.183 1.82947 -0.849302 0
M  V30 2288 C 208.496 1.85275 0.627112 0
M  V30 2289 O 209.702 2.52296 1.00295 0
M  V30 2290 C 208.158 3.28529 -1.46959 0
M  V30 2291 C 207.766 3.34546 -2.97965 0
M  V30 2292 C 209.51 4.04443 -1.28942 0
M  V30 2293 C 207.417 4.74491 -3.53004 0
M  V30 2294 H 206.347 0.685477 -0.314065 0
M  V30 2295 H 208.998 1.2604 -1.33365 0
M  V30 2296 H 207.38 3.85333 -0.912917 0
M  V30 2297 H 208.554 2.87654 -3.59989 0
M  V30 2298 H 206.869 2.72108 -3.15192 0
M  V30 2299 H 209.466 5.07787 -1.67502 0
M  V30 2300 H 209.809 4.15656 -0.231456 0
M  V30 2301 H 210.342 3.5401 -1.81443 0
M  V30 2302 H 207.081 4.68474 -4.58489 0
M  V30 2303 H 206.601 5.21816 -2.9575 0
M  V30 2304 H 208.28 5.4344 -3.51115 0
M  V30 2305 N 208.412 0.89855 1.29475 0
M  V30 2306 C 209.652 0.530771 1.97388 0
M  V30 2307 C 210.016 -0.905832 1.69289 0
M  V30 2308 O 211.217 -1.38042 2.30646 0
M  V30 2309 C 209.488 0.81369 3.48014 0
M  V30 2310 S 211.047 0.550048 4.35339 0
M  V30 2311 H 207.865 0.196956 0.683176 0
M  V30 2312 H 210.467 1.16074 1.57312 0
M  V30 2313 H 209.171 1.85749 3.65958 0
M  V30 2314 H 208.702 0.171795 3.93025 0
M  V30 2315 H 210.717 -0.605423 4.92493 0
M  V30 2316 N 209.89 -1.43072 0.660911 0
M  V30 2317 C 210.838 -2.32569 -0.0378199 0
M  V30 2318 C 211.832 -1.49046 -0.805092 0
M  V30 2319 O 213.038 -1.65206 -0.714624 0
M  V30 2320 H 209.413 -0.75136 -0.031019 0
M  V30 2321 H 211.384 -2.89216 0.734609 0
M  V30 2322 C 210.133 -3.33453 -0.985124 0
M  V30 2323 H 209.456 -3.97752 -0.404147 0
M  V30 2324 H 210.896 -3.98691 -1.44297 0
M  V30 2325 C 209.355 -2.64642 -2.08486 0
M  V30 2326 O 209.885 -2.46776 -3.16961 0
M  V30 2327 N 208.091 -2.23891 -1.8526 0
M  V30 2328 H 207.638 -2.38621 -0.970449 0
M  V30 2329 H 207.596 -1.78181 -2.59034 0
M  V30 2330 N 211.368 -0.403325 -1.52352 0
M  V30 2331 C 212.596 0.174012 -2.06167 0
M  V30 2332 C 213.011 1.39347 -1.27388 0
M  V30 2333 O 212.368 1.79597 -0.324201 0
M  V30 2334 C 212.419 0.530223 -3.5759 0
M  V30 2335 O 212.14 -0.640806 -4.33388 0
M  V30 2336 C 213.641 1.16192 -4.27802 0
M  V30 2337 H 210.861 0.0229464 -0.670608 0
M  V30 2338 H 213.405 -0.572604 -1.9632 0
M  V30 2339 H 211.56 1.22673 -3.67464 0
M  V30 2340 H 211.974 -0.344851 -5.23365 0
M  V30 2341 H 213.448 1.36141 -5.34948 0
M  V30 2342 H 213.925 2.13335 -3.83907 0
M  V30 2343 H 214.531 0.505775 -4.22282 0
M  V30 2344 N 212.846 1.57033 -0.133567 0
M  V30 2345 C 213.756 2.19632 0.824564 0
M  V30 2346 C 214.772 1.17666 1.28182 0
M  V30 2347 O 215.948 1.50193 1.3418 0
M  V30 2348 C 213.013 2.79499 2.05137 0
M  V30 2349 C 212.074 3.96548 1.64464 0
M  V30 2350 C 211.307 4.5355 2.81297 0
M  V30 2351 O 211.53 4.09438 3.97136 0
M  V30 2352 O 210.464 5.44018 2.57542 0
M  V30 2353 H 214.29 3.01991 0.321766 0
M  V30 2354 H 211.875 1.49112 0.0927889 0
M  V30 2355 H 213.757 3.17602 2.7696 0
M  V30 2356 H 212.432 2.00162 2.54395 0
M  V30 2357 H 211.339 3.63186 0.897048 0
M  V30 2358 H 212.672 4.77364 1.19934 0
M  V30 2359 N 214.325 -0.140222 1.56975 0
M  V30 2360 C 215.572 -0.851687 1.83719 0
M  V30 2361 C 215.9 -1.80862 0.715485 0
M  V30 2362 O 215.155 -1.93464 -0.294956 0
M  V30 2363 C 215.454 -1.65386 3.16832 0
M  V30 2364 C 215.12 -0.843112 4.42947 0
M  V30 2365 C 213.782 -0.619464 4.77196 0
M  V30 2366 C 216.134 -0.276582 5.20466 0
M  V30 2367 C 213.462 0.181312 5.8642 0
M  V30 2368 C 215.814 0.51127 6.30531 0
M  V30 2369 C 214.478 0.745432 6.63325 0
M  V30 2370 H 213.748 -0.311654 0.672274 0
M  V30 2371 H 216.395 -0.115006 1.91154 0
M  V30 2372 H 214.7 -2.46084 3.04877 0
M  V30 2373 H 216.397 -2.20793 3.34741 0
M  V30 2374 H 212.987 -1.0275 4.16101 0
M  V30 2375 H 217.171 -0.436632 4.94376 0
M  V30 2376 H 212.427 0.372165 6.10266 0
M  V30 2377 H 216.601 0.957354 6.89788 0
M  V30 2378 H 214.228 1.36778 7.47794 0
M  V30 2379 N 215.803 -1.52179 -0.40978 0
M  V30 2380 C 217.08 -1.56769 -1.16974 0
M  V30 2381 C 217.46 -0.348322 -2.08206 0
M  V30 2382 O 216.808 0.664862 -2.18613 0
M  V30 2383 C 217.018 -2.89603 -1.9476 0
M  V30 2384 C 218.366 -3.42579 -2.50849 0
M  V30 2385 O 219.39 -2.91338 -2.04941 0
M  V30 2386 O 218.249 -4.32054 -3.34652 0
M  V30 2387 H 215.343 -0.631439 -0.534054 0
M  V30 2388 H 217.889 -1.64507 -0.416613 0
M  V30 2389 H 216.661 -3.698 -1.27921 0
M  V30 2390 H 216.284 -2.85155 -2.77079 0
M  V30 2391 N 217.281 0.66697 -1.42791 0
M  V30 2392 C 218.231 1.77313 -1.43332 0
M  V30 2393 C 219.215 1.5801 -0.303586 0
M  V30 2394 O 220.407 1.68356 -0.546385 0
M  V30 2395 C 217.536 3.15822 -1.34578 0
M  V30 2396 C 216.622 3.40721 -2.52528 0
M  V30 2397 N 217.013 3.36162 -3.77927 0
M  V30 2398 C 215.311 3.71387 -2.46956 0
M  V30 2399 C 216.012 3.60762 -4.56318 0
M  V30 2400 N 214.988 3.81908 -3.86843 0
M  V30 2401 H 218.79 1.72193 -2.38174 0
M  V30 2402 H 216.304 0.868114 -1.3725 0
M  V30 2403 H 218.301 3.951 -1.33048 0
M  V30 2404 H 216.961 3.22133 -0.407453 0
M  V30 2405 H 217.972 3.15885 -4.10411 0
M  V30 2406 H 214.649 3.84897 -1.61743 0
M  V30 2407 H 216.039 3.63132 -5.65318 0
M  V30 2408 N 218.759 1.29093 0.90403 0
M  V30 2409 C 219.689 1.16401 2.02418 0
M  V30 2410 C 220.67 0.0593085 1.69997 0
M  V30 2411 O 221.855 0.238021 1.92736 0
M  V30 2412 C 218.985 0.835233 3.37107 0
M  V30 2413 C 217.939 1.89578 3.83724 0
M  V30 2414 C 217.265 1.42041 5.15489 0
M  V30 2415 C 218.565 3.30394 4.04521 0
M  V30 2416 H 220.259 2.10109 2.13295 0
M  V30 2417 H 217.805 1.01157 1.02486 0
M  V30 2418 H 219.758 0.733169 4.14973 0
M  V30 2419 H 218.482 -0.137543 3.2631 0
M  V30 2420 H 217.141 1.98715 3.08071 0
M  V30 2421 H 216.789 0.436426 5.01103 0
M  V30 2422 H 216.489 2.12964 5.4765 0
M  V30 2423 H 218.013 1.33176 5.959 0
M  V30 2424 H 219.427 3.24123 4.72882 0
M  V30 2425 H 217.824 3.99237 4.48029 0
M  V30 2426 H 218.894 3.73692 3.09002 0
M  V30 2427 N 220.237 -1.11381 1.11499 0
M  V30 2428 C 221.648 -1.6465 0.880191 0
M  V30 2429 C 221.999 -1.87199 -0.587434 0
M  V30 2430 O 221.124 -1.60667 -1.44966 0
M  V30 2431 C 221.719 -2.99105 1.59128 0
M  V30 2432 C 220.278 -3.49279 1.40289 0
M  V30 2433 C 219.425 -2.24077 1.63354 0
M  V30 2434 H 222.376 -0.950123 1.27116 0
M  V30 2435 H 222.397 -3.66107 1.03664 0
M  V30 2436 H 221.909 -2.82661 2.65941 0
M  V30 2437 H 220.01 -3.70887 0.356888 0
M  V30 2438 H 220.123 -4.2803 2.15238 0
M  V30 2439 H 218.487 -2.31733 1.05698 0
M  V30 2440 H 219.27 -2.10175 2.71443 0
M  V30 2441 N 221.715 -0.905404 -1.28997 0
M  V30 2442 C 223.126 -0.581953 -1.77398 0
M  V30 2443 C 223.477 0.902552 -1.74208 0
M  V30 2444 O 222.602 1.70584 -1.33154 0
M  V30 2445 C 223.197 -1.04961 -3.22131 0
M  V30 2446 C 221.756 -0.777229 -3.68288 0
M  V30 2447 C 220.903 -1.22109 -2.48967 0
M  V30 2448 H 223.854 -1.08754 -1.15578 0
M  V30 2449 H 223.875 -0.387387 -3.78523 0
M  V30 2450 H 223.387 -2.13008 -3.24421 0
M  V30 2451 H 221.488 0.290383 -3.71467 0
M  V30 2452 H 221.601 -1.37911 -4.58822 0
M  V30 2453 H 219.965 -0.639971 -2.46529 0
M  V30 2454 H 220.748 -2.30972 -2.53982 0
M  V30 2455 N 223.193 1.4272 -0.668489 0
M  V30 2456 C 224.609 1.55992 -0.33745 0
M  V30 2457 C 224.809 1.64933 1.15756 0
M  V30 2458 O 223.865 1.61278 1.94282 0
M  V30 2459 C 225.178 2.81314 -1.06222 0
M  V30 2460 C 226.726 2.95078 -1.04394 0
M  V30 2461 C 227.201 4.23252 -1.74991 0
M  V30 2462 N 228.692 4.3015 -1.71829 0
M  V30 2463 C 229.427 5.28127 -2.23315 0
M  V30 2464 N 228.923 6.32293 -2.83156 0
M  V30 2465 N 230.716 5.19882 -2.13726 0
M  V30 2466 H 222.867 1.3516 -1.63846 0
M  V30 2467 H 225.13 0.650174 -0.689912 0
M  V30 2468 H 224.836 2.80823 -2.11734 0
M  V30 2469 H 224.71 3.72012 -0.62344 0
M  V30 2470 H 227.097 2.951 0.0028244 0
M  V30 2471 H 227.178 2.05627 -1.52155 0
M  V30 2472 H 226.822 4.2399 -2.79633 0
M  V30 2473 H 226.752 5.11626 -1.24685 0
M  V30 2474 H 229.243 3.55499 -1.28175 0
M  V30 2475 H 229.556 7.03398 -3.20079 0
M  V30 2476 H 227.901 6.32873 -2.87223 0
M  V30 2477 H 231.092 4.37423 -1.66669 0
M  V30 2478 H 231.265 5.96077 -2.54158 0
M  V30 2479 N 224.671 0.411399 1.52136 0
M  V30 2480 C 225.619 -0.427633 2.28635 0
M  V30 2481 C 226.613 -1.04383 1.33419 0
M  V30 2482 O 227.819 -0.981772 1.50868 0
M  V30 2483 H 224.194 -0.156689 0.735495 0
M  V30 2484 H 226.165 0.238761 2.97443 0
M  V30 2485 C 224.914 -1.53082 3.12188 0
M  V30 2486 H 224.237 -1.06601 3.85326 0
M  V30 2487 H 225.677 -2.09167 3.68816 0
M  V30 2488 C 224.136 -2.49946 2.25895 0
M  V30 2489 O 224.666 -3.53884 1.90076 0
M  V30 2490 N 222.872 -2.2021 1.8962 0
M  V30 2491 H 222.419 -1.35719 2.18948 0
M  V30 2492 H 222.377 -2.85266 1.32176 0
M  V30 2493 N 226.149 -1.5696 0.141893 0
M  V30 2494 C 227.397 -1.95573 -0.509484 0
M  V30 2495 C 227.718 -1.02746 -1.65736 0
M  V30 2496 O 226.988 -0.0880311 -1.95702 0
M  V30 2497 H 225.568 -0.722115 -0.191205 0
M  V30 2498 H 228.23 -1.93697 0.216196 0
M  V30 2499 H 227.326 -2.99171 -0.889 0
M  V30 2500 N 227.627 0.131896 -1.57047 0
M  V30 2501 C 228.59 1.14638 -1.98471 0
M  V30 2502 C 229.59 1.35029 -0.873148 0
M  V30 2503 O 230.78 1.31764 -1.13946 0
M  V30 2504 C 227.912 2.50358 -2.31373 0
M  V30 2505 H 229.105 0.79064 -2.8929 0
M  V30 2506 H 226.658 0.375761 -1.51716 0
M  V30 2507 H 227.393 2.90876 -1.43393 0
M  V30 2508 H 227.178 2.36915 -3.12432 0
M  V30 2509 H 228.668 3.23395 -2.64207 0
M  V30 2510 N 229.106 1.52395 0.401703 0
M  V30 2511 C 230.383 1.57387 1.16141 0
M  V30 2512 C 230.763 0.359359 2.08019 0
M  V30 2513 O 230.111 -0.65326 2.18963 0
M  V30 2514 C 230.321 2.90631 1.93221 0
M  V30 2515 C 231.669 3.43904 2.49028 0
M  V30 2516 O 232.693 2.92421 2.03393 0
M  V30 2517 O 231.552 4.33823 3.32356 0
M  V30 2518 H 228.646 0.634262 0.530698 0
M  V30 2519 H 231.192 1.64725 0.407883 0
M  V30 2520 H 229.964 3.70473 1.25958 0
M  V30 2521 H 229.587 2.8662 2.75563 0
M  V30 2522 N 230.584 -0.659388 1.43143 0
M  V30 2523 C 231.831 -1.41935 1.44433 0
M  V30 2524 C 232.159 -1.94387 0.0663522 0
M  V30 2525 O 231.414 -1.72314 -0.927706 0
M  V30 2526 C 231.713 -2.62206 2.42864 0
M  V30 2527 C 231.379 -2.28208 3.88886 0
M  V30 2528 C 230.041 -2.18647 4.28657 0
M  V30 2529 C 232.393 -2.00887 4.8093 0
M  V30 2530 C 229.721 -1.79914 5.58433 0
M  V30 2531 C 232.073 -1.63653 6.11065 0
M  V30 2532 C 230.737 -1.52614 6.49819 0
M  V30 2533 H 230.007 -0.519376 0.528517 0
M  V30 2534 H 232.654 -0.750453 1.76183 0
M  V30 2535 H 230.959 -3.34199 2.04495 0
M  V30 2536 H 232.656 -3.2041 2.41119 0
M  V30 2537 H 229.246 -2.36557 3.57406 0
M  V30 2538 H 233.43 -2.07198 4.5098 0
M  V30 2539 H 228.686 -1.69948 5.87305 0
M  V30 2540 H 232.86 -1.41543 6.81864 0
M  V30 2541 H 230.487 -1.22371 7.50286 0
M  V30 2542 N 232.062 -1.29571 -0.897171 0
M  V30 2543 C 233.339 -1.08365 -1.62839 0
M  V30 2544 C 233.719 0.371331 -2.07808 0
M  V30 2545 O 233.067 1.3606 -1.83576 0
M  V30 2546 C 233.277 -2.0735 -2.80726 0
M  V30 2547 C 234.625 -2.38406 -3.51351 0
M  V30 2548 O 235.649 -2.05564 -2.90898 0
M  V30 2549 O 234.508 -2.9453 -4.60341 0
M  V30 2550 H 231.602 -0.415345 -0.715134 0
M  V30 2551 H 234.148 -1.40952 -0.945018 0
M  V30 2552 H 232.92 -3.05339 -2.44711 0
M  V30 2553 H 232.543 -1.75507 -3.56767 0
M  V30 2554 N 233.54 1.10788 -1.12088 0
M  V30 2555 C 234.789 1.82036 -0.868659 0
M  V30 2556 C 235.102 1.85929 0.607426 0
M  V30 2557 O 236.308 2.53346 0.97613 0
M  V30 2558 C 234.764 3.26951 -1.50435 0
M  V30 2559 C 234.372 3.31367 -3.01496 0
M  V30 2560 C 236.116 4.03053 -1.33225 0
M  V30 2561 C 234.023 4.7072 -3.58017 0
M  V30 2562 H 232.953 0.682108 -0.321318 0
M  V30 2563 H 235.604 1.24618 -1.34694 0
M  V30 2564 H 233.986 3.84343 -0.953735 0
M  V30 2565 H 235.16 2.83819 -3.6302 0
M  V30 2566 H 233.475 2.6875 -3.18061 0
M  V30 2567 H 236.072 5.05981 -1.72878 0
M  V30 2568 H 236.415 4.15387 -0.275529 0
M  V30 2569 H 236.948 3.52066 -1.85188 0
M  V30 2570 H 233.687 4.63585 -4.63432 0
M  V30 2571 H 233.207 5.1865 -3.01268 0
M  V30 2572 H 234.886 5.39685 -3.56859 0
M  V30 2573 N 235.018 0.912232 1.28515 0
M  V30 2574 C 236.246 0.560416 1.99166 0
M  V30 2575 C 236.661 -0.857927 1.68182 0
M  V30 2576 O 236.018 -1.56805 0.933733 0
M  V30 2577 C 236.069 0.758142 3.53461 0
M  V30 2578 O 235.79 2.12067 3.83352 0
M  V30 2579 C 237.291 0.412954 4.41372 0
M  V30 2580 H 234.511 0.213805 0.636026 0
M  V30 2581 H 237.055 1.22502 1.63749 0
M  V30 2582 H 235.21 0.140556 3.87145 0
M  V30 2583 H 235.624 2.15923 4.77993 0
M  V30 2584 H 237.098 0.60208 5.48707 0
M  V30 2585 H 237.575 -0.65073 4.34353 0
M  V30 2586 H 238.181 1.00802 4.13182 0
M  V30 2587 N 236.496 -1.42363 0.676048 0
M  V30 2588 C 237.744 -2.01123 0.198437 0
M  V30 2589 C 238.065 -1.53731 -1.19966 0
M  V30 2590 O 237.335 -0.759518 -1.80577 0
M  V30 2591 H 235.915 -0.743678 0.0703721 0
M  V30 2592 H 238.577 -1.74263 0.872837 0
M  V30 2593 H 237.673 -3.11454 0.200686 0
M  V30 2594 N 237.974 -0.419461 -1.51915 0
M  V30 2595 C 238.907 0.445751 -2.23804 0
M  V30 2596 C 239.885 1.03951 -1.25031 0
M  V30 2597 O 241.069 1.08541 -1.54114 0
M  V30 2598 C 238.196 1.61964 -2.97465 0
M  V30 2599 C 237.242 1.14828 -4.10751 0
M  V30 2600 S 238.075 0.104938 -5.35397 0
M  V30 2601 C 239.231 1.28391 -6.1259 0
M  V30 2602 H 239.464 -0.164627 -2.96844 0
M  V30 2603 H 236.997 -0.203833 -1.53049 0
M  V30 2604 H 238.955 2.29271 -3.40507 0
M  V30 2605 H 237.616 2.20139 -2.24048 0
M  V30 2606 H 236.809 2.02561 -4.61503 0
M  V30 2607 H 236.411 0.553712 -3.69878 0
M  V30 2608 H 238.703 2.20563 -6.40592 0
M  V30 2609 H 239.646 0.816724 -7.03374 0
M  V30 2610 H 240.054 1.51439 -5.43807 0
M  V30 2611 N 239.452 1.56882 -0.150215 0
M  V30 2612 C 240.399 2.16922 0.788244 0
M  V30 2613 C 241.369 1.10303 1.24187 0
M  V30 2614 O 242.554 1.38359 1.31383 0
M  V30 2615 C 239.694 2.79754 2.02068 0
M  V30 2616 C 238.807 4.00775 1.61257 0
M  V30 2617 C 237.942 4.51595 2.79705 0
M  V30 2618 C 236.981 5.65074 2.35282 0
M  V30 2619 N 236.118 6.10499 3.4675 0
M  V30 2620 H 240.958 2.96779 0.269444 0
M  V30 2621 H 238.495 1.46599 0.12128 0
M  V30 2622 H 240.453 3.14329 2.74323 0
M  V30 2623 H 239.083 2.02536 2.51354 0
M  V30 2624 H 238.135 3.72158 0.787553 0
M  V30 2625 H 239.447 4.82978 1.24633 0
M  V30 2626 H 238.601 4.88242 3.60145 0
M  V30 2627 H 237.34 3.68406 3.19576 0
M  V30 2628 H 236.345 5.28 1.53283 0
M  V30 2629 H 237.57 6.50052 1.96493 0
M  V30 2630 H 235.516 5.30243 3.86236 0
M  V30 2631 H 235.433 6.87637 3.14152 0
M  V30 2632 H 236.701 6.51791 4.27537 0
M  V30 2633 N 240.93 -0.123565 1.57115 0
M  V30 2634 C 241.84 -1.17074 2.033 0
M  V30 2635 C 242.856 -1.4561 0.952559 0
M  V30 2636 O 244.032 -1.56817 1.26374 0
M  V30 2637 C 241.097 -2.47857 2.42421 0
M  V30 2638 C 240.158 -2.26758 3.64526 0
M  V30 2639 C 239.391 -3.51305 4.01771 0
M  V30 2640 O 239.614 -4.5843 3.39409 0
M  V30 2641 O 238.548 -3.42578 4.94898 0
M  V30 2642 H 242.374 -0.808555 2.92739 0
M  V30 2643 H 239.959 -0.334027 1.45618 0
M  V30 2644 H 241.841 -3.2492 2.68338 0
M  V30 2645 H 240.516 -2.83558 1.5613 0
M  V30 2646 H 239.423 -1.47569 3.43765 0
M  V30 2647 H 240.756 -1.95963 4.51508 0
M  V30 2648 N 242.408 -1.52605 -0.393616 0
M  V30 2649 C 243.338 -1.80022 -1.48709 0
M  V30 2650 C 244.319 -0.651995 -1.57108 0
M  V30 2651 O 245.504 -0.89913 -1.72132 0
M  V30 2652 C 242.634 -1.96492 -2.86371 0
M  V30 2653 C 241.588 -3.12161 -2.92813 0
M  V30 2654 C 240.914 -3.13877 -4.3288 0
M  V30 2655 C 242.214 -4.51322 -2.6288 0
M  V30 2656 H 243.908 -2.71589 -1.26015 0
M  V30 2657 H 241.454 -1.30684 -0.604778 0
M  V30 2658 H 243.407 -2.14255 -3.62867 0
M  V30 2659 H 242.131 -1.01611 -3.10391 0
M  V30 2660 H 240.79 -2.94173 -2.18764 0
M  V30 2661 H 240.438 -2.16687 -4.53933 0
M  V30 2662 H 240.138 -3.91576 -4.38112 0
M  V30 2663 H 241.662 -3.33789 -5.1129 0
M  V30 2664 H 243.076 -4.69435 -3.29096 0
M  V30 2665 H 241.473 -5.31053 -2.79468 0
M  V30 2666 H 242.543 -4.58353 -1.58242 0
M  V30 2667 N 243.887 0.651787 -1.4349 0
M  V30 2668 C 244.817 1.77621 -1.51569 0
M  V30 2669 C 245.798 1.66022 -0.370253 0
M  V30 2670 O 246.983 1.85095 -0.587658 0
M  V30 2671 C 244.113 3.16056 -1.43966 0
M  V30 2672 C 243.067 3.4242 -2.56774 0
M  V30 2673 C 242.393 4.8067 -2.34223 0
M  V30 2674 C 243.693 3.37023 -3.99015 0
M  V30 2675 H 245.387 1.71117 -2.45681 0
M  V30 2676 H 242.933 0.821825 -1.18246 0
M  V30 2677 H 244.886 3.94472 -1.48221 0
M  V30 2678 H 243.61 3.23293 -0.463586 0
M  V30 2679 H 242.269 2.66375 -2.51873 0
M  V30 2680 H 241.917 4.84585 -1.34856 0
M  V30 2681 H 241.617 4.9927 -3.09844 0
M  V30 2682 H 243.141 5.61342 -2.40265 0
M  V30 2683 H 244.555 4.05374 -4.05395 0
M  V30 2684 H 242.952 3.67159 -4.74673 0
M  V30 2685 H 244.022 2.3518 -4.2405 0
M  V30 2686 N 245.365 1.30045 0.890287 0
M  V30 2687 C 246.275 1.17885 2.02831 0
M  V30 2688 C 247.291 0.0999609 1.73713 0
M  V30 2689 O 248.467 0.313867 1.98939 0
M  V30 2690 C 245.532 0.866079 3.35708 0
M  V30 2691 C 244.593 2.02979 3.78283 0
M  V30 2692 C 243.826 1.73184 5.0482 0
M  V30 2693 O 244.049 0.657237 5.66601 0
M  V30 2694 O 242.983 2.58267 5.43674 0
M  V30 2695 H 246.809 2.13474 2.16015 0
M  V30 2696 H 244.394 1.09587 1.01543 0
M  V30 2697 H 246.276 0.706623 4.15433 0
M  V30 2698 H 244.951 -0.0599443 3.23644 0
M  V30 2699 H 243.858 2.24454 2.99285 0
M  V30 2700 H 245.191 2.93734 3.94944 0
M  V30 2701 N 246.843 -1.10192 1.12674 0
M  V30 2702 C 248.091 -1.81845 0.881861 0
M  V30 2703 C 248.412 -1.85737 -0.593867 0
M  V30 2704 O 247.682 -1.33724 -1.4316 0
M  V30 2705 H 246.262 -0.673432 0.323261 0
M  V30 2706 H 248.924 -1.33316 1.42172 0
M  V30 2707 H 248.02 -2.85288 1.2656 0
M  V30 2708 N 248.321 -0.919034 -1.28029 0
M  V30 2709 C 249.251 -0.428581 -2.29533 0
M  V30 2710 C 250.232 0.50659 -1.62381 0
M  V30 2711 O 251.417 0.413195 -1.89753 0
M  V30 2712 C 248.547 0.327388 -3.45753 0
M  V30 2713 C 247.501 -0.519137 -4.2484 0
M  V30 2714 C 246.827 0.365486 -5.33449 0
M  V30 2715 C 248.127 -1.77914 -4.91064 0
M  V30 2716 H 249.821 -1.27687 -2.70807 0
M  V30 2717 H 247.367 -0.615428 -1.30186 0
M  V30 2718 H 249.32 0.681378 -4.15855 0
M  V30 2719 H 248.044 1.20963 -3.03374 0
M  V30 2720 H 246.703 -0.855717 -3.56473 0
M  V30 2721 H 246.351 1.24642 -4.87312 0
M  V30 2722 H 246.051 -0.197356 -5.87268 0
M  V30 2723 H 247.575 0.715241 -6.06396 0
M  V30 2724 H 248.989 -1.49374 -5.53498 0
M  V30 2725 H 247.386 -2.2848 -5.54903 0
M  V30 2726 H 248.456 -2.50382 -4.15255 0
M  V30 2727 N 249.799 1.42003 -0.683588 0
M  V30 2728 C 251.076 1.95112 -0.138075 0
M  V30 2729 C 251.456 1.62359 1.34918 0
M  V30 2730 O 250.804 0.924311 2.08971 0
M  V30 2731 C 251.014 3.46505 -0.416581 0
M  V30 2732 C 252.362 4.23254 -0.337834 0
M  V30 2733 O 253.386 3.54468 -0.35082 0
M  V30 2734 O 252.245 5.45743 -0.287596 0
M  V30 2735 H 249.339 0.826961 -0.00797996 0
M  V30 2736 H 251.885 1.51784 -0.758924 0
M  V30 2737 H 250.657 3.63582 -1.4465 0
M  V30 2738 H 250.28 3.969 0.235839 0
M  V30 2739 N 251.277 0.427512 1.51691 0
M  V30 2740 C 252.507 -0.140986 2.06118 0
M  V30 2741 C 252.915 -1.37854 1.29588 0
M  V30 2742 O 252.258 -1.80411 0.346036 0
M  V30 2743 C 252.32 -0.538276 3.55447 0
M  V30 2744 C 251.984 0.591095 4.53161 0
M  V30 2745 C 252.981 1.46027 4.98971 0
M  V30 2746 C 250.666 0.769028 4.96378 0
M  V30 2747 C 252.66 2.49216 5.8666 0
M  V30 2748 C 250.347 1.80421 5.83859 0
M  V30 2749 C 251.345 2.66417 6.28897 0
M  V30 2750 O 251.033 3.68159 7.14643 0
M  V30 2751 H 250.765 -0.0157455 0.675817 0
M  V30 2752 H 253.319 0.602495 1.96365 0
M  V30 2753 H 251.549 -1.33432 3.6295 0
M  V30 2754 H 253.238 -1.0368 3.92435 0
M  V30 2755 H 254.004 1.33429 4.66285 0
M  V30 2756 H 249.883 0.109273 4.6087 0
M  V30 2757 H 253.427 3.16372 6.21735 0
M  V30 2758 H 249.324 1.93042 6.15959 0
M  V30 2759 H 250.092 3.64622 7.32798 0
M  V30 2760 N 252.755 -1.56801 0.158532 0
M  V30 2761 C 253.98 -2.01295 -0.499516 0
M  V30 2762 C 254.405 -1.03799 -1.56867 0
M  V30 2763 O 253.763 -0.0155162 -1.81293 0
M  V30 2764 C 253.811 -3.44469 -1.06647 0
M  V30 2765 O 252.915 -3.50012 -2.18095 0
M  V30 2766 H 252.256 -0.652884 -0.12099 0
M  V30 2767 H 254.786 -2.02958 0.258661 0
M  V30 2768 H 254.796 -3.8351 -1.39227 0
M  V30 2769 H 253.471 -4.14932 -0.283581 0
M  V30 2770 H 252.048 -3.22822 -1.86656 0
M  V30 2771 N 254.233 0.115231 -1.57178 0
M  V30 2772 C 255.479 0.82357 -1.85325 0
M  V30 2773 C 255.812 1.79349 -0.744814 0
M  V30 2774 O 255.087 1.92899 0.249024 0
M  V30 2775 C 255.37 1.57014 -3.24066 0
M  V30 2776 C 255.223 0.619565 -4.45513 0
M  V30 2777 C 256.542 2.52545 -3.60429 0
M  V30 2778 H 253.661 0.297948 -0.674089 0
M  V30 2779 H 256.303 0.0877138 -1.89797 0
M  V30 2780 H 254.453 2.19742 -3.20383 0
M  V30 2781 H 256.125 0.000837639 -4.613 0
M  V30 2782 H 254.368 -0.0686174 -4.33746 0
M  V30 2783 H 255.039 1.17866 -5.3927 0
M  V30 2784 H 257.515 1.9992 -3.64926 0
M  V30 2785 H 256.391 3.01811 -4.58477 0
M  V30 2786 H 256.652 3.35383 -2.88047 0
M  V30 2787 N 255.711 1.52812 0.385517 0
M  V30 2788 C 256.988 1.5861 1.14465 0
M  V30 2789 C 257.368 0.381402 2.07626 0
M  V30 2790 O 256.716 -0.629999 2.19643 0
M  V30 2791 C 256.926 2.92664 1.90128 0
M  V30 2792 C 258.274 3.46526 2.45367 0
M  V30 2793 O 259.298 2.94562 2.0028 0
M  V30 2794 O 258.157 4.37323 3.27736 0
M  V30 2795 H 255.251 0.639855 0.523941 0
M  V30 2796 H 257.797 1.65149 0.390389 0
M  V30 2797 H 256.569 3.71788 1.22022 0
M  V30 2798 H 256.192 2.89527 2.72507 0
M  V30 2799 N 257.189 -0.644168 1.43834 0
M  V30 2800 C 258.435 -1.40603 1.46146 0
M  V30 2801 C 258.768 -1.93997 0.0887717 0
M  V30 2802 O 258.043 -1.72854 -0.891724 0
M  V30 2803 C 258.326 -2.58086 2.51124 0
M  V30 2804 C 258.179 -2.10126 3.97702 0
M  V30 2805 C 259.498 -3.60291 2.52742 0
M  V30 2806 H 256.617 -0.509905 0.532134 0
M  V30 2807 H 259.259 -0.729502 1.75437 0
M  V30 2808 H 257.409 -3.15801 2.26278 0
M  V30 2809 H 259.081 -1.57342 4.33637 0
M  V30 2810 H 257.324 -1.41419 4.10101 0
M  V30 2811 H 257.995 -2.94649 4.66783 0
M  V30 2812 H 260.471 -3.12352 2.7491 0
M  V30 2813 H 259.347 -4.40032 3.28121 0
M  V30 2814 H 259.608 -4.1349 1.56455 0
M  V30 2815 N 258.668 -1.30515 -0.883378 0
M  V30 2816 C 259.578 -1.18959 -2.02203 0
M  V30 2817 C 260.594 -0.109172 -1.73657 0
M  V30 2818 O 261.77 -0.324413 -1.9877 0
M  V30 2819 C 258.835 -0.883871 -3.35244 0
M  V30 2820 C 257.896 -2.04982 -3.77201 0
M  V30 2821 C 257.129 -1.75859 -5.03894 0
M  V30 2822 O 257.352 -0.687276 -5.66244 0
M  V30 2823 O 256.286 -2.61146 -5.42297 0
M  V30 2824 H 260.112 -2.14616 -2.1488 0
M  V30 2825 H 257.697 -1.10124 -1.0096 0
M  V30 2826 H 259.579 -0.728644 -4.15053 0
M  V30 2827 H 258.254 0.0427798 -3.23672 0
M  V30 2828 H 257.161 -2.26038 -2.9809 0
M  V30 2829 H 258.494 -2.95825 -3.93381 0
M  V30 2830 N 260.146 1.09593 -1.13257 0
M  V30 2831 C 261.056 2.19739 -0.821691 0
M  V30 2832 C 262.072 1.72926 0.19302 0
M  V30 2833 O 263.248 2.01385 0.0244895 0
M  V30 2834 C 260.313 3.45482 -0.290333 0
M  V30 2835 C 259.374 4.06985 -1.36607 0
M  V30 2836 C 258.607 5.26726 -0.859975 0
M  V30 2837 O 258.83 5.69594 0.303082 0
M  V30 2838 O 257.764 5.7931 -1.63351 0
M  V30 2839 H 261.59 2.48781 -1.74189 0
M  V30 2840 H 259.175 1.18496 -0.909894 0
M  V30 2841 H 261.057 4.214 0.000674022 0
M  V30 2842 H 259.732 3.18047 0.602306 0
M  V30 2843 H 258.639 3.32712 -1.71037 0
M  V30 2844 H 259.972 4.38643 -2.23279 0
M  V30 2845 N 261.624 0.925811 1.2754 0
M  V30 2846 C 262.572 0.413897 2.28888 0
M  V30 2847 C 263.566 -0.500779 1.61829 0
M  V30 2848 O 264.772 -0.38069 1.75928 0
M  V30 2849 H 261.147 0.115274 0.743112 0
M  V30 2850 H 263.118 1.28151 2.69481 0
M  V30 2851 C 261.867 -0.319792 3.46226 0
M  V30 2852 H 261.19 0.374846 3.98039 0
M  V30 2853 H 262.63 -0.642435 4.19105 0
M  V30 2854 C 261.089 -1.53209 3.00048 0
M  V30 2855 O 261.619 -2.6309 3.03557 0
M  V30 2856 N 259.825 -1.38326 2.55566 0
M  V30 2857 H 259.372 -0.489292 2.5291 0
M  V30 2858 H 259.33 -2.19564 2.25031 0
M  V30 2859 N 263.102 -1.41638 0.69111 0
M  V30 2860 C 264.032 -2.3347 0.037248 0
M  V30 2861 C 265.013 -1.51575 -0.771947 0
M  V30 2862 O 266.198 -1.80126 -0.72582 0
M  V30 2863 C 263.328 -3.35354 -0.903064 0
M  V30 2864 C 262.282 -4.27526 -0.201288 0
M  V30 2865 C 261.608 -5.19747 -1.25565 0
M  V30 2866 C 262.908 -5.13959 0.929689 0
M  V30 2867 H 264.602 -2.88397 0.804227 0
M  V30 2868 H 262.148 -1.38669 0.388189 0
M  V30 2869 H 264.101 -3.98519 -1.36969 0
M  V30 2870 H 262.825 -2.78767 -1.70166 0
M  V30 2871 H 261.484 -3.65779 0.245265 0
M  V30 2872 H 261.132 -4.59479 -2.04666 0
M  V30 2873 H 260.832 -5.8225 -0.791128 0
M  V30 2874 H 262.356 -5.85789 -1.72288 0
M  V30 2875 H 263.77 -5.70718 0.543546 0
M  V30 2876 H 262.167 -5.85379 1.32103 0
M  V30 2877 H 263.237 -4.51389 1.77133 0
M  V30 2878 N 264.58 -0.43555 -1.51462 0
M  V30 2879 C 265.808 0.130242 -2.0649 0
M  V30 2880 C 266.223 1.36614 -1.30315 0
M  V30 2881 O 265.58 1.78869 -0.362223 0
M  V30 2882 C 265.631 0.454253 -3.58635 0
M  V30 2883 O 265.352 -0.73259 -4.31931 0
M  V30 2884 C 266.853 1.07091 -4.3017 0
M  V30 2885 H 264.073 0.00871669 -0.670943 0
M  V30 2886 H 266.617 -0.614117 -1.95061 0
M  V30 2887 H 264.772 1.14851 -3.69984 0
M  V30 2888 H 265.186 -0.455787 -5.22516 0
M  V30 2889 H 266.66 1.24764 -5.37716 0
M  V30 2890 H 267.137 2.05144 -3.88346 0
M  V30 2891 H 267.743 0.416089 -4.2326 0
M  V30 2892 N 266.058 1.56714 -0.166846 0
M  V30 2893 C 267.021 2.16539 0.751232 0
M  V30 2894 C 268.021 1.11228 1.16125 0
M  V30 2895 O 269.211 1.36765 1.07894 0
M  V30 2896 C 266.343 2.74462 2.02196 0
M  V30 2897 H 267.536 2.99013 0.230499 0
M  V30 2898 H 265.089 1.56081 0.0826982 0
M  V30 2899 H 265.824 1.95709 2.58589 0
M  V30 2900 H 265.609 3.51527 1.73698 0
M  V30 2901 H 267.099 3.20489 2.67725 0
M  V30 2902 N 267.536 -0.106894 1.57237 0
M  V30 2903 C 268.952 -0.46078 1.52804 0
M  V30 2904 C 269.152 -1.81184 0.881746 0
M  V30 2905 O 268.208 -2.48102 0.469224 0
M  V30 2906 C 269.521 -0.434127 2.9755 0
M  V30 2907 C 271.069 -0.516821 3.08704 0
M  V30 2908 C 271.544 -0.520436 4.55033 0
M  V30 2909 N 273.035 -0.58153 4.59535 0
M  V30 2910 C 273.77 -0.605973 5.70189 0
M  V30 2911 N 273.266 -0.587331 6.90306 0
M  V30 2912 N 275.059 -0.649895 5.5833 0
M  V30 2913 H 267.21 0.778203 1.9763 0
M  V30 2914 H 269.473 0.288403 0.903066 0
M  V30 2915 H 269.179 0.491197 3.48253 0
M  V30 2916 H 269.053 -1.25748 3.55622 0
M  V30 2917 H 271.44 -1.43256 2.57995 0
M  V30 2918 H 271.521 0.334449 2.53604 0
M  V30 2919 H 271.165 0.391313 5.0639 0
M  V30 2920 H 271.095 -1.38876 5.07958 0
M  V30 2921 H 273.586 -0.60161 3.73081 0
M  V30 2922 H 273.899 -0.60894 7.70397 0
M  V30 2923 H 272.244 -0.554564 6.92784 0
M  V30 2924 H 275.435 -0.661907 4.63397 0
M  V30 2925 H 275.608 -0.665476 6.44574 0
M  V30 2926 N 269.014 -1.53014 -0.377408 0
M  V30 2927 C 270.291 -1.59215 -1.13622 0
M  V30 2928 C 270.671 -0.392407 -2.07421 0
M  V30 2929 O 270.019 0.618342 -2.19975 0
M  V30 2930 C 270.229 -2.93669 -1.88573 0
M  V30 2931 C 271.577 -3.47822 -2.43526 0
M  V30 2932 O 272.601 -2.9562 -1.98715 0
M  V30 2933 O 271.46 -4.39055 -3.25412 0
M  V30 2934 H 268.554 -0.642625 -0.52054 0
M  V30 2935 H 271.1 -1.65353 -0.381625 0
M  V30 2936 H 269.872 -3.7243 -1.20048 0
M  V30 2937 H 269.495 -2.90968 -2.70968 0
M  V30 2938 N 270.492 0.636531 -1.44174 0
M  V30 2939 C 271.425 1.76139 -1.45087 0
M  V30 2940 C 272.403 1.59611 -0.310326 0
M  V30 2941 O 273.587 1.81568 -0.506477 0
M  V30 2942 C 270.714 3.13648 -1.27839 0
M  V30 2943 C 269.76 3.48838 -2.45386 0
M  V30 2944 S 270.593 3.46927 -4.07924 0
M  V30 2945 C 271.749 4.87064 -3.9309 0
M  V30 2946 H 271.982 1.75096 -2.40268 0
M  V30 2947 H 269.515 0.810666 -1.31406 0
M  V30 2948 H 271.473 3.93002 -1.18575 0
M  V30 2949 H 270.134 3.12235 -0.341787 0
M  V30 2950 H 269.327 4.48886 -2.29167 0
M  V30 2951 H 268.929 2.76935 -2.51362 0
M  V30 2952 H 271.221 5.76153 -3.56446 0
M  V30 2953 H 272.164 5.08337 -4.92949 0
M  V30 2954 H 272.572 4.61384 -3.25246 0
M  V30 2955 N 271.97 1.30982 0.876444 0
M  V30 2956 C 272.88 1.2003 2.01569 0
M  V30 2957 C 273.896 0.11838 1.73597 0
M  V30 2958 O 275.072 0.33495 1.98595 0
M  V30 2959 C 272.137 0.901637 3.34771 0
M  V30 2960 C 271.198 2.06979 3.76109 0
M  V30 2961 C 270.431 1.78529 5.02954 0
M  V30 2962 O 270.654 0.717296 5.65872 0
M  V30 2963 O 269.588 2.64019 5.40905 0
M  V30 2964 H 273.414 2.15753 2.13739 0
M  V30 2965 H 270.999 1.10658 1.00375 0
M  V30 2966 H 272.881 0.750645 4.1466 0
M  V30 2967 H 271.556 -0.0256141 3.2369 0
M  V30 2968 H 270.463 2.27616 2.96887 0
M  V30 2969 H 271.796 2.97907 3.91807 0
M  V30 2970 N 273.449 -1.08991 1.13837 0
M  V30 2971 C 274.674 -1.85551 0.926585 0
M  V30 2972 C 275.099 -1.80782 -0.519566 0
M  V30 2973 O 274.457 -1.18855 -1.36906 0
M  V30 2974 C 274.505 -3.31266 1.42462 0
M  V30 2975 O 273.609 -4.07822 0.612789 0
M  V30 2976 H 272.95 -0.575192 0.331738 0
M  V30 2977 H 275.48 -1.37604 1.51414 0
M  V30 2978 H 275.49 -3.82112 1.43019 0
M  V30 2979 H 274.165 -3.34052 2.47754 0
M  V30 2980 H 272.742 -3.66731 0.675463 0
M  V30 2981 N 274.927 -0.932562 -1.27047 0
M  V30 2982 C 275.89 -0.440064 -2.24936 0
M  V30 2983 C 276.89 0.444071 -1.54547 0
M  V30 2984 O 278.08 0.244465 -1.72476 0
M  V30 2985 C 275.212 0.36678 -3.38921 0
M  V30 2986 H 276.405 -1.305 -2.70018 0
M  V30 2987 H 273.958 -0.713707 -1.39054 0
M  V30 2988 H 274.693 1.25033 -2.99228 0
M  V30 2989 H 274.478 -0.267204 -3.91188 0
M  V30 2990 H 275.968 0.701567 -4.11665 0
M  V30 2991 N 276.405 1.4127 -0.698611 0
M  V30 2992 C 277.335 2.33447 -0.049629 0
M  V30 2993 C 278.316 1.51982 0.763898 0
M  V30 2994 O 279.501 1.80509 0.716257 0
M  V30 2995 C 276.631 3.35828 0.885267 0
M  V30 2996 C 275.585 4.27627 0.178613 0
M  V30 2997 C 274.911 5.20406 1.22807 0
M  V30 2998 C 276.211 5.13459 -0.956933 0
M  V30 2999 H 277.905 2.87966 -0.81951 0
M  V30 3000 H 275.451 1.38461 -0.395538 0
M  V30 3001 H 277.404 3.9924 1.34854 0
M  V30 3002 H 276.128 2.79666 1.68685 0
M  V30 3003 H 274.787 3.65643 -0.26466 0
M  V30 3004 H 274.435 4.60558 2.02226 0
M  V30 3005 H 274.135 5.82661 0.760239 0
M  V30 3006 H 275.659 5.86695 1.69179 0
M  V30 3007 H 277.073 5.70421 -0.573805 0
M  V30 3008 H 275.47 5.8467 -1.35205 0
M  V30 3009 H 276.54 4.50443 -1.79524 0
M  V30 3010 N 277.883 0.443576 1.51229 0
M  V30 3011 C 279.299 0.0962001 1.5931 0
M  V30 3012 C 279.499 -1.39501 1.45402 0
M  V30 3013 O 278.555 -2.16557 1.29843 0
M  V30 3014 C 279.868 0.621875 2.94199 0
M  V30 3015 C 281.416 0.582865 3.07525 0
M  V30 3016 C 281.891 1.08562 4.44948 0
M  V30 3017 N 283.382 1.04387 4.51284 0
M  V30 3018 C 284.117 1.40368 5.55954 0
M  V30 3019 N 283.613 1.83664 6.68011 0
M  V30 3020 N 285.406 1.32145 5.46346 0
M  V30 3021 H 277.557 1.41376 1.58514 0
M  V30 3022 H 279.82 0.582965 0.747567 0
M  V30 3023 H 279.526 1.66546 3.09767 0
M  V30 3024 H 279.4 0.0502125 3.77167 0
M  V30 3025 H 281.787 -0.451749 2.91622 0
M  V30 3026 H 281.868 1.191 2.26382 0
M  V30 3027 H 281.512 2.11873 4.61598 0
M  V30 3028 H 281.442 0.453956 5.2464 0
M  V30 3029 H 283.933 0.725986 3.70861 0
M  V30 3030 H 284.246 2.0934 7.43906 0
M  V30 3031 H 282.591 1.87596 6.69203 0
M  V30 3032 H 285.782 0.981808 4.57688 0
M  V30 3033 H 285.955 1.60514 6.27805 0
M  V30 3034 N 279.361 -1.56624 0.175154 0
M  V30 3035 C 280.324 -2.16934 -0.739738 0
M  V30 3036 C 281.324 -1.11842 -1.15533 0
M  V30 3037 O 282.514 -1.37335 -1.07167 0
M  V30 3038 C 279.646 -2.75531 -2.00738 0
M  V30 3039 H 280.839 -2.99131 -0.214639 0
M  V30 3040 H 278.392 -1.56123 -0.0744197 0
M  V30 3041 H 279.127 -1.97078 -2.57548 0
M  V30 3042 H 278.912 -3.52444 -1.71831 0
M  V30 3043 H 280.402 -3.21904 -2.66021 0
M  V30 3044 N 280.839 0.0985539 -1.57292 0
M  V30 3045 C 282.086 0.802678 -1.85912 0
M  V30 3046 C 282.414 1.78901 -0.763186 0
M  V30 3047 O 281.669 1.94178 0.243559 0
M  V30 3048 C 281.968 1.56927 -3.21105 0
M  V30 3049 C 281.634 0.725376 -4.45027 0
M  V30 3050 C 280.296 0.492726 -4.78671 0
M  V30 3051 C 282.648 0.138493 -5.21016 0
M  V30 3052 C 279.976 -0.336727 -5.85733 0
M  V30 3053 C 282.328 -0.678264 -6.28953 0
M  V30 3054 C 280.992 -0.921039 -6.61115 0
M  V30 3055 H 280.262 0.293721 -0.680301 0
M  V30 3056 H 282.909 0.0642841 -1.91392 0
M  V30 3057 H 281.214 2.37914 -3.11294 0
M  V30 3058 H 282.911 2.11841 -3.40477 0
M  V30 3059 H 279.501 0.916815 -4.18679 0
M  V30 3060 H 283.685 0.305404 -4.95359 0
M  V30 3061 H 278.941 -0.533836 -6.09065 0
M  V30 3062 H 283.115 -1.1399 -6.87007 0
M  V30 3063 H 280.742 -1.56556 -7.43905 0
M  V30 3064 N 282.317 1.53212 0.369288 0
M  V30 3065 C 283.28 1.7872 1.43498 0
M  V30 3066 C 284.28 0.657554 1.46741 0
M  V30 3067 O 285.47 0.925736 1.47566 0
M  V30 3068 C 282.602 1.90591 2.82645 0
M  V30 3069 H 283.795 2.73894 1.22156 0
M  V30 3070 H 281.348 1.44233 0.602203 0
M  V30 3071 H 282.083 0.974709 3.09306 0
M  V30 3072 H 281.868 2.72751 2.8169 0
M  V30 3073 H 283.358 2.11931 3.59826 0
M  V30 3074 N 283.795 -0.628877 1.44509 0
M  V30 3075 C 285.023 -1.41554 1.50897 0
M  V30 3076 C 285.438 -1.8832 0.134564 0
M  V30 3077 O 284.795 -1.60969 -0.859965 0
M  V30 3078 C 284.846 -2.63435 2.47556 0
M  V30 3079 O 284.567 -2.18619 3.79654 0
M  V30 3080 C 286.068 -3.56537 2.63431 0
M  V30 3081 H 283.288 -0.434044 0.511709 0
M  V30 3082 H 285.832 -0.768895 1.89495 0
M  V30 3083 H 283.987 -3.24187 2.12089 0
M  V30 3084 H 284.401 -2.97652 4.31861 0
M  V30 3085 H 285.875 -4.38657 3.35088 0
M  V30 3086 H 286.352 -4.05493 1.68738 0
M  V30 3087 H 286.958 -3.01653 2.9981 0
M  V30 3088 N 285.273 -1.31445 -0.869486 0
M  V30 3089 C 286.689 -1.10113 -1.15531 0
M  V30 3090 C 286.889 0.128087 -2.01092 0
M  V30 3091 O 285.945 0.817276 -2.38908 0
M  V30 3092 C 287.258 -2.37291 -1.84698 0
M  V30 3093 C 288.806 -2.42906 -1.97397 0
M  V30 3094 C 289.281 -3.69967 -2.69979 0
M  V30 3095 N 290.772 -3.70864 -2.77514 0
M  V30 3096 C 291.507 -4.65875 -3.34287 0
M  V30 3097 N 291.003 -5.71242 -3.91988 0
M  V30 3098 N 292.796 -4.53394 -3.3225 0
M  V30 3099 H 284.947 -2.1028 -0.299347 0
M  V30 3100 H 287.21 -0.927683 -0.195214 0
M  V30 3101 H 286.916 -3.27078 -1.29278 0
M  V30 3102 H 286.79 -2.47125 -2.84972 0
M  V30 3103 H 289.177 -1.53588 -2.51982 0
M  V30 3104 H 289.258 -2.37036 -0.961643 0
M  V30 3105 H 288.902 -4.59652 -2.16062 0
M  V30 3106 H 288.832 -3.73103 -3.7162 0
M  V30 3107 H 291.323 -2.94697 -2.36563 0
M  V30 3108 H 291.636 -6.39817 -4.33421 0
M  V30 3109 H 289.981 -5.75015 -3.90362 0
M  V30 3110 H 293.172 -3.70252 -2.8641 0
M  V30 3111 H 293.345 -5.27617 -3.76197 0
M  V30 3112 N 286.751 1.08385 -1.14413 0
M  V30 3113 C 288.162 1.62258 -0.923535 0
M  V30 3114 C 288.513 1.88691 0.537595 0
M  V30 3115 O 287.638 1.64454 1.40655 0
M  V30 3116 C 288.233 2.94781 -1.67002 0
M  V30 3117 C 286.792 3.45437 -1.495 0
M  V30 3118 C 285.939 2.19668 -1.69238 0
M  V30 3119 H 288.89 0.916086 -1.2959 0
M  V30 3120 H 288.911 3.63229 -1.13334 0
M  V30 3121 H 288.423 2.7551 -2.73342 0
M  V30 3122 H 286.524 3.6981 -0.455097 0
M  V30 3123 H 286.637 4.22173 -2.2651 0
M  V30 3124 H 285.001 2.28849 -1.11804 0
M  V30 3125 H 285.784 2.02905 -2.7692 0
M  V30 3126 N 288.23 0.939286 1.26551 0
M  V30 3127 C 289.14 0.453432 2.30176 0
M  V30 3128 C 290.156 -0.471649 1.67486 0
M  V30 3129 O 291.332 -0.35164 1.98306 0
M  V30 3130 C 288.397 -0.275326 3.45605 0
M  V30 3131 C 287.458 0.686084 4.23782 0
M  V30 3132 C 286.691 -0.00798994 5.33699 0
M  V30 3133 O 286.914 -1.22528 5.57085 0
M  V30 3134 O 285.848 0.669746 5.98162 0
M  V30 3135 H 289.674 1.31416 2.73795 0
M  V30 3136 H 287.259 0.705095 1.31715 0
M  V30 3137 H 289.141 -0.685911 4.1578 0
M  V30 3138 H 287.816 -1.11147 3.0402 0
M  V30 3139 H 286.723 1.14658 3.56096 0
M  V30 3140 H 288.056 1.48979 4.69112 0
M  V30 3141 N 289.708 -1.40897 0.706093 0
M  V30 3142 C 290.658 -2.27987 0.0240746 0
M  V30 3143 C 291.642 -1.42759 -0.742204 0
M  V30 3144 O 292.834 -1.65936 -0.615966 0
M  V30 3145 C 289.963 -3.31186 -0.903907 0
M  V30 3146 C 289.049 -4.2389 -0.133318 0
M  V30 3147 N 289.44 -4.98113 0.878444 0
M  V30 3148 C 287.738 -4.44485 -0.367269 0
M  V30 3149 C 288.439 -5.6604 1.34064 0
M  V30 3150 N 287.415 -5.39522 0.664565 0
M  V30 3151 H 291.217 -2.82812 0.799658 0
M  V30 3152 H 288.731 -1.53235 0.537845 0
M  V30 3153 H 290.728 -3.92413 -1.40775 0
M  V30 3154 H 289.388 -2.77922 -1.67897 0
M  V30 3155 H 290.399 -5.02364 1.25901 0
M  V30 3156 H 287.076 -4.02213 -1.1194 0
M  V30 3157 H 288.466 -6.35524 2.1808 0
M  V30 3158 N 291.186 -0.45159 -1.50991 0
M  V30 3159 C 292.133 0.352625 -2.2809 0
M  V30 3160 C 293.103 1.0044 -1.32291 0
M  V30 3161 O 294.288 1.02058 -1.6121 0
M  V30 3162 C 291.428 1.43983 -3.13629 0
M  V30 3163 C 290.541 0.804772 -4.24438 0
M  V30 3164 C 289.676 1.86822 -4.97263 0
M  V30 3165 C 288.715 1.21236 -5.99973 0
M  V30 3166 N 287.852 2.2178 -6.66152 0
M  V30 3167 H 292.692 -0.311186 -2.96371 0
M  V30 3168 H 290.229 -0.165308 -1.46168 0
M  V30 3169 H 292.187 2.08161 -3.61559 0
M  V30 3170 H 290.817 2.07307 -2.47434 0
M  V30 3171 H 289.869 0.0509129 -3.80366 0
M  V30 3172 H 291.181 0.286076 -4.97979 0
M  V30 3173 H 290.335 2.58628 -5.48813 0
M  V30 3174 H 289.074 2.42068 -4.23385 0
M  V30 3175 H 288.079 0.479828 -5.47702 0
M  V30 3176 H 289.304 0.667051 -6.75816 0
M  V30 3177 H 287.25 2.76079 -5.95077 0
M  V30 3178 H 287.167 1.74841 -7.35504 0
M  V30 3179 H 288.435 2.93026 -7.22327 0
M  V30 3180 N 292.664 1.56529 -0.183458 0
M  V30 3181 C 293.889 2.02064 0.467428 0
M  V30 3182 C 294.314 1.06282 1.55196 0
M  V30 3183 O 293.672 0.0443565 1.81246 0
M  V30 3184 C 293.72 3.46122 1.01153 0
M  V30 3185 O 292.824 3.53437 2.12499 0
M  V30 3186 H 292.165 0.654726 0.110588 0
M  V30 3187 H 294.695 2.02521 -0.290917 0
M  V30 3188 H 294.705 3.85676 1.33108 0
M  V30 3189 H 293.38 4.15331 0.217533 0
M  V30 3190 H 291.957 3.2575 1.81497 0
M  V30 3191 N 294.142 -0.090211 1.57342 0
M  V30 3192 C 295.367 -0.810082 1.90925 0
M  V30 3193 C 295.792 -1.71248 0.778187 0
M  V30 3194 O 295.15 -1.79278 -0.269991 0
M  V30 3195 C 295.198 -1.59529 3.23393 0
M  V30 3196 O 294.302 -2.70461 3.11327 0
M  V30 3197 H 293.643 -0.222231 0.625707 0
M  V30 3198 H 296.173 -0.0639716 2.045 0
M  V30 3199 H 296.183 -1.97847 3.5682 0
M  V30 3200 H 294.858 -0.933055 4.05299 0
M  V30 3201 H 293.435 -2.35135 2.89423 0
M  V30 3202 N 295.62 -1.53406 -0.361157 0
M  V30 3203 C 296.897 -1.60411 -1.11927 0
M  V30 3204 C 297.277 -0.414385 -2.06993 0
M  V30 3205 O 296.625 0.594976 -2.20618 0
M  V30 3206 C 296.835 -2.95652 -1.85448 0
M  V30 3207 C 298.183 -3.50386 -2.39823 0
M  V30 3208 O 299.207 -2.97711 -1.95568 0
M  V30 3209 O 298.066 -4.42482 -3.20737 0
M  V30 3210 H 295.16 -0.64811 -0.513695 0
M  V30 3211 H 297.706 -1.65749 -0.364065 0
M  V30 3212 H 296.478 -3.73682 -1.16091 0
M  V30 3213 H 296.101 -2.93825 -2.67866 0
M  V30 3214 N 297.098 0.621204 -1.44841 0
M  V30 3215 C 298.323 1.41244 -1.51871 0
M  V30 3216 C 298.748 1.87519 -0.147764 0
M  V30 3217 O 298.106 1.59334 0.865 0
M  V30 3218 C 298.154 2.60221 -2.49634 0
M  V30 3219 O 297.258 3.60395 -2.00473 0
M  V30 3220 H 296.599 0.42223 -0.512463 0
M  V30 3221 H 299.129 0.757305 -1.90069 0
M  V30 3222 H 299.139 3.0764 -2.67996 0
M  V30 3223 H 297.814 2.25887 -3.4921 0
M  V30 3224 H 296.391 3.19717 -1.91925 0
M  V30 3225 N 298.576 1.31904 0.862503 0
M  V30 3226 C 299.804 1.24998 1.64873 0
M  V30 3227 C 300.219 -0.183425 1.87907 0
M  V30 3228 O 299.576 -1.11794 1.44251 0
M  V30 3229 C 299.627 1.99829 3.01248 0
M  V30 3230 O 299.348 3.37575 2.79239 0
M  V30 3231 C 300.849 1.99852 3.95694 0
M  V30 3232 H 298.069 0.431599 0.513773 0
M  V30 3233 H 300.613 1.73901 1.07604 0
M  V30 3234 H 298.768 1.54668 3.55185 0
M  V30 3235 H 299.182 3.75776 3.65914 0
M  V30 3236 H 300.656 2.56709 4.88676 0
M  V30 3237 H 301.133 0.982852 4.28062 0
M  V30 3238 H 301.739 2.44926 3.47694 0
M  V30 3239 N 300.054 -1.07777 1.14986 0
M  V30 3240 C 301.301 -1.8029 0.922056 0
M  V30 3241 C 301.629 -1.86531 -0.55105 0
M  V30 3242 O 300.884 -1.34189 -1.42449 0
M  V30 3243 C 301.183 -3.25495 1.47608 0
M  V30 3244 C 300.849 -3.39361 2.96893 0
M  V30 3245 C 299.511 -3.42852 3.37647 0
M  V30 3246 C 301.863 -3.42512 3.92854 0
M  V30 3247 C 299.191 -3.47094 4.73015 0
M  V30 3248 C 301.543 -3.4829 5.28088 0
M  V30 3249 C 300.207 -3.50058 5.68345 0
M  V30 3250 H 299.477 -0.659727 0.337404 0
M  V30 3251 H 302.124 -1.26854 1.43459 0
M  V30 3252 H 300.429 -3.81683 0.88463 0
M  V30 3253 H 302.126 -3.80168 1.27568 0
M  V30 3254 H 298.716 -3.37339 2.64387 0
M  V30 3255 H 302.9 -3.3904 3.62444 0
M  V30 3256 H 298.156 -3.46758 5.03556 0
M  V30 3257 H 302.33 -3.49675 6.02246 0
M  V30 3258 H 299.957 -3.53097 6.73221 0
M  V30 3259 N 301.532 -0.945985 -1.26051 0
M  V30 3260 C 302.462 -0.477172 -2.28572 0
M  V30 3261 C 303.443 0.472032 -1.63419 0
M  V30 3262 O 304.628 0.372853 -1.90587 0
M  V30 3263 C 301.758 0.253975 -3.4637 0
M  V30 3264 C 300.712 -0.609135 -4.23643 0
M  V30 3265 C 300.038 0.252252 -5.34105 0
M  V30 3266 C 301.338 -1.8829 -4.8718 0
M  V30 3267 H 303.032 -1.33402 -2.68038 0
M  V30 3268 H 300.578 -0.642904 -1.28852 0
M  V30 3269 H 302.531 0.593016 -4.17207 0
M  V30 3270 H 301.255 1.145 -3.05871 0
M  V30 3271 H 299.914 -0.931138 -3.54578 0
M  V30 3272 H 299.562 1.14278 -4.89846 0
M  V30 3273 H 299.262 -0.32188 -5.86718 0
M  V30 3274 H 300.786 0.586454 -6.07777 0
M  V30 3275 H 302.2 -1.61081 -5.50205 0
M  V30 3276 H 300.597 -2.40199 -5.49931 0
M  V30 3277 H 301.667 -2.59134 -4.09851 0
M  V30 3278 N 303.011 1.40521 -0.713556 0
M  V30 3279 C 304.257 2.01221 -0.252564 0
M  V30 3280 C 304.59 1.56444 1.1506 0
M  V30 3281 O 303.865 0.783597 1.78017 0
M  V30 3282 C 304.148 3.58582 -0.330332 0
M  V30 3283 C 304.001 4.13437 -1.77173 0
M  V30 3284 C 305.32 4.39079 0.299641 0
M  V30 3285 H 302.439 0.731077 -0.0932471 0
M  V30 3286 H 305.081 1.67026 -0.905673 0
M  V30 3287 H 303.231 3.87844 0.225737 0
M  V30 3288 H 304.903 3.9498 -2.38303 0
M  V30 3289 H 303.146 3.67801 -2.3001 0
M  V30 3290 H 303.817 5.22597 -1.77755 0
M  V30 3291 H 306.293 4.15735 -0.174139 0
M  V30 3292 H 305.169 5.4848 0.214771 0
M  V30 3293 H 305.43 4.19915 1.38288 0
M  V30 3294 N 304.489 0.459591 1.5075 0
M  V30 3295 C 305.419 -0.330644 2.31147 0
M  V30 3296 C 306.4 -1.00087 1.37538 0
M  V30 3297 O 307.585 -1.00025 1.66459 0
M  V30 3298 C 304.715 -1.41958 3.16962 0
M  V30 3299 C 303.669 -0.871608 4.19031 0
M  V30 3300 C 302.995 -2.05797 4.9351 0
M  V30 3301 C 304.295 0.109251 5.22186 0
M  V30 3302 H 305.989 0.340336 2.97459 0
M  V30 3303 H 303.535 0.165119 1.4305 0
M  V30 3304 H 305.488 -1.9798 3.71997 0
M  V30 3305 H 304.212 -2.11917 2.48513 0
M  V30 3306 H 302.871 -0.333442 3.6508 0
M  V30 3307 H 302.519 -2.74427 4.21544 0
M  V30 3308 H 302.219 -1.6976 5.62544 0
M  V30 3309 H 303.743 -2.62331 5.51375 0
M  V30 3310 H 305.157 -0.361405 5.7216 0
M  V30 3311 H 303.554 0.383316 5.98875 0
M  V30 3312 H 304.624 1.03887 4.73641 0
M  V30 3313 N 305.967 -1.56429 0.191757 0
M  V30 3314 C 306.9 -2.14829 -0.76967 0
M  V30 3315 C 307.878 -1.08405 -1.2119 0
M  V30 3316 O 309.062 -1.36498 -1.30002 0
M  V30 3317 C 306.189 -2.70446 -2.03903 0
M  V30 3318 C 305.235 -3.89428 -1.7392 0
M  V30 3319 S 306.068 -5.28048 -0.890265 0
M  V30 3320 C 307.224 -5.87085 -2.16984 0
M  V30 3321 H 307.457 -2.96042 -0.273204 0
M  V30 3322 H 304.99 -1.54383 -0.0231975 0
M  V30 3323 H 306.948 -3.03134 -2.76803 0
M  V30 3324 H 305.609 -1.89281 -2.50662 0
M  V30 3325 H 304.802 -4.26742 -2.68155 0
M  V30 3326 H 304.404 -3.57732 -1.09103 0
M  V30 3327 H 306.696 -6.01244 -3.12269 0
M  V30 3328 H 307.639 -6.83747 -1.84108 0
M  V30 3329 H 308.047 -5.15663 -2.29678 0
M  V30 3330 N 307.445 0.0818655 -1.57387 0
M  V30 3331 C 308.67 0.799946 -1.91352 0
M  V30 3332 C 309.095 1.70833 -0.787258 0
M  V30 3333 O 308.453 1.79419 0.26048 0
M  V30 3334 C 308.501 1.57812 -3.24234 0
M  V30 3335 O 307.605 2.68806 -3.12757 0
M  V30 3336 H 306.946 0.21891 -0.626877 0
M  V30 3337 H 309.476 0.0531256 -2.04531 0
M  V30 3338 H 309.486 1.95952 -3.57864 0
M  V30 3339 H 308.161 0.911548 -4.05788 0
M  V30 3340 H 306.738 2.33597 -2.90666 0
M  V30 3341 N 308.923 1.53595 0.353017 0
M  V30 3342 C 309.873 1.77299 1.43349 0
M  V30 3343 C 310.857 0.627884 1.48143 0
M  V30 3344 O 312.049 0.88697 1.53173 0
M  V30 3345 C 309.178 1.97757 2.80619 0
M  V30 3346 C 308.264 3.18305 2.80254 0
M  V30 3347 N 308.655 4.39967 2.49526 0
M  V30 3348 C 306.953 3.19283 3.11407 0
M  V30 3349 C 307.654 5.21772 2.57156 0
M  V30 3350 N 306.63 4.58269 2.92388 0
M  V30 3351 H 310.432 2.68963 1.18474 0
M  V30 3352 H 307.946 1.52391 0.561306 0
M  V30 3353 H 309.943 2.1287 3.58458 0
M  V30 3354 H 308.603 1.07329 3.06448 0
M  V30 3355 H 309.614 4.67482 2.22893 0
M  V30 3356 H 306.291 2.3879 3.4247 0
M  V30 3357 H 307.681 6.2885 2.36638 0
M  V30 3358 N 310.401 -0.613514 1.45168 0
M  V30 3359 C 311.649 -1.36997 1.48581 0
M  V30 3360 C 311.97 -1.94589 0.126545 0
M  V30 3361 O 311.24 -1.76816 -0.843372 0
M  V30 3362 H 309.82 -0.508558 0.547154 0
M  V30 3363 H 312.482 -0.720853 1.81079 0
M  V30 3364 H 311.578 -2.1924 2.22127 0
M  V30 3365 N 311.879 -1.3236 -0.855495 0
M  V30 3366 C 313.128 -1.22226 -1.60448 0
M  V30 3367 C 313.441 0.214733 -1.94418 0
M  V30 3368 O 314.647 0.437917 -2.67945 0
M  V30 3369 C 313.103 -2.14063 -2.89318 0
M  V30 3370 C 312.711 -3.62839 -2.62777 0
M  V30 3371 C 314.455 -2.12764 -3.67331 0
M  V30 3372 C 312.362 -4.4664 -3.87643 0
M  V30 3373 H 311.292 -0.453904 -0.602069 0
M  V30 3374 H 313.943 -1.57314 -0.944698 0
M  V30 3375 H 312.325 -1.71889 -3.5675 0
M  V30 3376 H 313.499 -4.1335 -2.03662 0
M  V30 3377 H 311.814 -3.66261 -1.98096 0
M  V30 3378 H 314.411 -2.72611 -4.59987 0
M  V30 3379 H 314.754 -1.11841 -4.00995 0
M  V30 3380 H 315.287 -2.53214 -3.06802 0
M  V30 3381 H 312.026 -5.48373 -3.5912 0
M  V30 3382 H 311.546 -4.0088 -4.46156 0
M  V30 3383 H 313.225 -4.59597 -4.55389 0
M  V30 3384 N 313.357 1.07166 -1.15556 0
M  V30 3385 C 314.287 2.16403 -0.877046 0
M  V30 3386 C 315.268 1.69217 0.173111 0
M  V30 3387 O 316.453 1.94181 0.027084 0
M  V30 3388 C 313.583 3.45349 -0.367632 0
M  V30 3389 C 312.537 4.05995 -1.35468 0
M  V30 3390 C 311.863 5.30045 -0.704038 0
M  V30 3391 C 313.163 4.45804 -2.72132 0
M  V30 3392 H 314.857 2.39959 -1.79053 0
M  V30 3393 H 312.403 1.15325 -0.862331 0
M  V30 3394 H 314.356 4.21095 -0.160317 0
M  V30 3395 H 313.08 3.21385 0.581326 0
M  V30 3396 H 311.739 3.32296 -1.54839 0
M  V30 3397 H 311.387 5.02373 0.251128 0
M  V30 3398 H 311.087 5.71579 -1.36277 0
M  V30 3399 H 312.611 6.08495 -0.50654 0
M  V30 3400 H 314.025 5.12671 -2.56595 0
M  V30 3401 H 312.422 4.98296 -3.34397 0
M  V30 3402 H 313.492 3.57083 -3.28054 0
M  V30 3403 N 314.835 0.952656 1.25548 0
M  V30 3404 C 315.745 0.47782 2.29682 0
M  V30 3405 C 316.761 -0.453859 1.67977 0
M  V30 3406 O 317.937 -0.330587 1.98668 0
M  V30 3407 C 315.002 -0.238655 3.45878 0
M  V30 3408 C 314.063 0.730994 4.23031 0
M  V30 3409 C 313.296 0.0486165 5.33678 0
M  V30 3410 O 313.519 -1.16612 5.58353 0
M  V30 3411 O 312.453 0.733152 5.97418 0
M  V30 3412 H 316.279 1.34312 2.72386 0
M  V30 3413 H 313.864 0.719026 1.30959 0
M  V30 3414 H 315.746 -0.641774 4.16484 0
M  V30 3415 H 314.421 -1.07916 3.05181 0
M  V30 3416 H 313.328 1.18428 3.5486 0
M  V30 3417 H 314.661 1.53946 4.67506 0
M  V30 3418 N 316.313 -1.40141 0.720998 0
M  V30 3419 C 317.561 -2.0039 0.262323 0
M  V30 3420 C 317.882 -1.57469 -1.15015 0
M  V30 3421 O 317.152 -0.816582 -1.78069 0
M  V30 3422 H 315.732 -0.741063 0.093996 0
M  V30 3423 H 318.394 -1.71398 0.927835 0
M  V30 3424 H 317.49 -3.10658 0.299671 0
M  V30 3425 N 317.792 -0.46758 -1.50504 0
M  V30 3426 C 319.041 0.0902868 -2.01498 0
M  V30 3427 C 319.354 1.411 -1.35463 0
M  V30 3428 O 320.56 2.0536 -1.77594 0
M  V30 3429 C 319.016 0.21142 -3.59278 0
M  V30 3430 C 318.624 -1.10065 -4.34269 0
M  V30 3431 C 320.368 0.721433 -4.18325 0
M  V30 3432 C 318.275 -0.943505 -5.83825 0
M  V30 3433 H 317.205 0.037517 -0.753066 0
M  V30 3434 H 319.856 -0.601943 -1.73346 0
M  V30 3435 H 318.238 0.967352 -3.84003 0
M  V30 3436 H 319.412 -1.86726 -4.21272 0
M  V30 3437 H 317.727 -1.5415 -3.86816 0
M  V30 3438 H 320.324 0.85598 -5.27804 0
M  V30 3439 H 320.667 1.71186 -3.79475 0
M  V30 3440 H 321.2 0.0229843 -3.97793 0
M  V30 3441 H 317.939 -1.90719 -6.27141 0
M  V30 3442 H 317.459 -0.217213 -5.99407 0
M  V30 3443 H 319.138 -0.608715 -6.4413 0
M  V30 3444 N 319.27 1.56325 -0.20005 0
M  V30 3445 C 320.51 1.99619 0.439519 0
M  V30 3446 C 320.874 1.08423 1.58456 0
M  V30 3447 O 322.075 1.40973 2.28867 0
M  V30 3448 C 320.346 3.46314 0.883258 0
M  V30 3449 S 321.905 4.11634 1.51997 0
M  V30 3450 H 318.723 0.697007 0.140363 0
M  V30 3451 H 321.325 1.93118 -0.304282 0
M  V30 3452 H 320.029 4.10381 0.0398967 0
M  V30 3453 H 319.56 3.56643 1.6604 0
M  V30 3454 H 321.575 4.09049 2.8088 0
M  V30 3455 N 320.748 -0.0735177 1.57428 0
M  V30 3456 C 321.996 -0.771472 1.86796 0
M  V30 3457 C 322.317 -1.78201 0.791804 0
M  V30 3458 O 321.587 -1.95074 -0.179718 0
M  V30 3459 H 320.167 -0.28791 0.689287 0
M  V30 3460 H 322.829 -0.0500161 1.94836 0
M  V30 3461 H 321.925 -1.28874 2.8425 0
M  V30 3462 N 322.226 -1.5378 -0.344866 0
M  V30 3463 C 323.454 -1.74899 -1.10534 0
M  V30 3464 C 323.869 -0.487534 -1.82397 0
M  V30 3465 O 323.226 0.540741 -1.74305 0
M  V30 3466 C 323.277 -2.92822 -2.11984 0
M  V30 3467 O 322.998 -4.14089 -1.43044 0
M  V30 3468 C 324.499 -3.25982 -3.00417 0
M  V30 3469 H 321.719 -0.584426 -0.329678 0
M  V30 3470 H 324.263 -2.006 -0.397474 0
M  V30 3471 H 322.418 -2.69457 -2.78338 0
M  V30 3472 H 322.832 -4.80272 -2.10805 0
M  V30 3473 H 324.306 -4.11848 -3.67539 0
M  V30 3474 H 324.783 -2.42228 -3.66363 0
M  V30 3475 H 325.389 -3.51349 -2.39654 0
M  V30 3476 N 323.704 0.605807 -1.45491 0
M  V30 3477 C 324.95 1.36679 -1.49823 0
M  V30 3478 C 325.283 1.93693 -0.140175 0
M  V30 3479 O 324.558 1.75158 0.845581 0
M  V30 3480 C 324.841 2.51337 -2.57879 0
M  V30 3481 C 324.694 1.99508 -4.03134 0
M  V30 3482 C 326.013 3.53463 -2.62205 0
M  V30 3483 H 323.132 0.495617 -0.545466 0
M  V30 3484 H 325.774 0.682732 -1.7731 0
M  V30 3485 H 323.924 3.09691 -2.34571 0
M  V30 3486 H 325.596 1.45789 -4.37656 0
M  V30 3487 H 323.839 1.30496 -4.13707 0
M  V30 3488 H 324.51 2.82169 -4.74431 0
M  V30 3489 H 326.986 3.04953 -2.83095 0
M  V30 3490 H 325.862 4.31178 -3.39672 0
M  V30 3491 H 326.123 4.09197 -1.67363 0
M  V30 3492 N 325.182 1.32811 0.848464 0
M  V30 3493 C 326.132 1.18842 1.94578 0
M  V30 3494 C 327.116 0.0937517 1.60627 0
M  V30 3495 O 328.308 0.320887 1.74067 0
M  V30 3496 C 325.437 0.91999 3.30743 0
M  V30 3497 C 324.523 2.05665 3.70894 0
M  V30 3498 N 324.914 3.30579 3.8282 0
M  V30 3499 C 323.212 1.9612 4.00566 0
M  V30 3500 C 323.913 4.05067 4.17487 0
M  V30 3501 N 322.889 3.33419 4.2934 0
M  V30 3502 H 326.691 2.13536 2.0194 0
M  V30 3503 H 324.205 1.2468 1.0406 0
M  V30 3504 H 326.202 0.800859 4.09136 0
M  V30 3505 H 324.862 -0.0185076 3.24695 0
M  V30 3506 H 325.873 3.65441 3.66978 0
M  V30 3507 H 322.55 1.09871 4.02784 0
M  V30 3508 H 323.94 5.12815 4.34131 0
M  V30 3509 N 326.66 -1.06551 1.16123 0
M  V30 3510 C 327.937 -1.76097 0.85142 0
M  V30 3511 C 328.317 -2.00802 -0.6513 0
M  V30 3512 O 327.665 -1.63302 -1.59827 0
M  V30 3513 C 327.875 -3.06384 1.67122 0
M  V30 3514 C 329.223 -3.80585 1.88255 0
M  V30 3515 O 330.247 -3.16218 1.63966 0
M  V30 3516 O 329.106 -4.96212 2.2899 0
M  V30 3517 H 326.2 -0.765102 0.313923 0
M  V30 3518 H 328.746 -1.12844 1.26745 0
M  V30 3519 H 327.518 -2.84071 2.69108 0
M  V30 3520 H 327.141 -3.77371 1.25206 0
M  V30 3521 N 328.138 -0.959301 -1.25041 0
M  V30 3522 C 329.048 -0.489994 -2.29426 0
M  V30 3523 C 330.064 0.444944 -1.68215 0
M  V30 3524 O 331.24 0.320046 -1.98841 0
M  V30 3525 C 328.305 0.220309 -3.45999 0
M  V30 3526 C 327.366 -0.753418 -4.22637 0
M  V30 3527 C 326.599 -0.076918 -5.33645 0
M  V30 3528 O 326.822 1.13649 -5.58963 0
M  V30 3529 O 325.756 -0.764824 -5.97021 0
M  V30 3530 H 329.582 -1.35755 -2.71669 0
M  V30 3531 H 327.167 -0.725961 -1.30576 0
M  V30 3532 H 329.049 0.619677 -4.16819 0
M  V30 3533 H 327.724 1.06296 -3.0575 0
M  V30 3534 H 326.631 -1.20308 -3.54227 0
M  V30 3535 H 327.964 -1.56423 -4.66683 0
M  V30 3536 N 329.616 1.39756 -0.72842 0
M  V30 3537 C 330.563 2.30647 -0.0841519 0
M  V30 3538 C 331.533 1.48869 0.7367 0
M  V30 3539 O 332.718 1.77574 0.698015 0
M  V30 3540 C 329.858 3.35165 0.822091 0
M  V30 3541 C 328.971 4.31999 -0.0106663 0
M  V30 3542 C 328.106 5.23585 0.896241 0
M  V30 3543 C 327.145 6.12072 0.0583381 0
M  V30 3544 N 326.282 6.96035 0.920818 0
M  V30 3545 H 331.122 2.85173 -0.864891 0
M  V30 3546 H 328.659 1.40422 -0.438179 0
M  V30 3547 H 330.617 3.94345 1.36189 0
M  V30 3548 H 329.247 2.8211 1.56888 0
M  V30 3549 H 328.299 3.74492 -0.66781 0
M  V30 3550 H 329.611 4.9443 -0.658825 0
M  V30 3551 H 328.765 5.87759 1.50412 0
M  V30 3552 H 327.504 4.61459 1.57819 0
M  V30 3553 H 326.509 5.46916 -0.562389 0
M  V30 3554 H 327.734 6.76261 -0.6203 0
M  V30 3555 H 325.68 6.36485 1.58818 0
M  V30 3556 H 325.597 7.55284 0.32899 0
M  V30 3557 H 326.865 7.64646 1.51447 0
M  V30 3558 N 331.094 0.475555 1.50254 0
M  V30 3559 C 332.041 -0.316293 2.28622 0
M  V30 3560 C 333.011 -0.983227 1.33873 0
M  V30 3561 O 334.196 -0.994805 1.62814 0
M  V30 3562 C 331.336 -1.38975 3.1588 0
M  V30 3563 C 330.449 -0.737146 4.25664 0
M  V30 3564 C 329.584 -1.78887 5.00173 0
M  V30 3565 C 328.623 -1.11676 6.01826 0
M  V30 3566 N 327.76 -2.11154 6.69596 0
M  V30 3567 H 332.6 0.358297 2.95838 0
M  V30 3568 H 330.137 0.188541 1.45887 0
M  V30 3569 H 332.095 -2.02383 3.64825 0
M  V30 3570 H 330.725 -2.03344 2.50701 0
M  V30 3571 H 329.777 0.0096065 3.80399 0
M  V30 3572 H 331.089 -0.206816 4.98371 0
M  V30 3573 H 330.243 -2.49865 5.52859 0
M  V30 3574 H 328.982 -2.35302 4.27182 0
M  V30 3575 H 327.987 -0.392633 5.48396 0
M  V30 3576 H 329.212 -0.55945 6.76792 0
M  V30 3577 H 327.158 -2.66577 5.99394 0
M  V30 3578 H 327.075 -1.63118 7.38193 0
M  V30 3579 H 328.343 -2.81497 7.26897 0
M  V30 3580 N 332.573 -1.56217 0.208337 0
M  V30 3581 C 333.984 -1.84243 -0.301904 0
M  V30 3582 C 334.335 -1.12939 -1.60434 0
M  V30 3583 O 333.46 -0.39461 -2.12772 0
M  V30 3584 C 334.055 -3.34231 -0.554543 0
M  V30 3585 C 332.614 -3.62621 -1.00912 0
M  V30 3586 C 331.761 -2.77224 -0.064933 0
M  V30 3587 H 334.712 -1.52712 0.431833 0
M  V30 3588 H 334.733 -3.5372 -1.40223 0
M  V30 3589 H 334.245 -3.86099 0.393561 0
M  V30 3590 H 332.346 -3.16197 -1.97104 0
M  V30 3591 H 332.459 -4.7071 -0.892674 0
M  V30 3592 H 330.823 -2.48256 -0.56929 0
M  V30 3593 H 331.606 -3.31887 0.877851 0
M  V30 3594 N 334.051 0.0651679 -1.57465 0
M  V30 3595 C 335.328 0.79644 -1.78651 0
M  V30 3596 C 335.708 1.95454 -0.797566 0
M  V30 3597 O 335.056 2.27882 0.167946 0
M  V30 3598 C 335.266 1.26322 -3.25337 0
M  V30 3599 C 336.614 1.6939 -3.89348 0
M  V30 3600 O 337.638 1.35872 -3.29268 0
M  V30 3601 O 336.497 2.31471 -4.95059 0
M  V30 3602 H 333.591 0.382157 -0.733407 0
M  V30 3603 H 336.137 0.0447311 -1.69641 0
M  V30 3604 H 334.909 0.434859 -3.88876 0
M  V30 3605 H 334.532 2.07604 -3.39096 0
M  V30 3606 N 335.529 1.53961 0.336706 0
M  V30 3607 C 336.775 1.7179 1.07777 0
M  V30 3608 C 337.108 0.483263 1.88091 0
M  V30 3609 O 336.383 -0.519747 1.87427 0
M  V30 3610 C 336.666 2.98558 2.01334 0
M  V30 3611 C 336.519 4.32245 1.24437 0
M  V30 3612 C 337.838 3.21023 3.01052 0
M  V30 3613 H 334.957 0.625089 0.390426 0
M  V30 3614 H 337.599 1.86641 0.35567 0
M  V30 3615 H 335.749 2.86028 2.62908 0
M  V30 3616 H 337.421 4.56637 0.654243 0
M  V30 3617 H 335.664 4.30344 0.546458 0
M  V30 3618 H 336.335 5.17137 1.93063 0
M  V30 3619 H 338.811 3.32929 2.49595 0
M  V30 3620 H 337.687 4.11104 3.6371 0
M  V30 3621 H 337.948 2.37637 3.72802 0
M  V30 3622 N 337.007 -0.598083 1.45811 0
M  V30 3623 C 337.937 -1.71873 1.58057 0
M  V30 3624 C 338.918 -1.64533 0.431615 0
M  V30 3625 O 340.103 -1.82787 0.65595 0
M  V30 3626 C 337.233 -3.10495 1.55597 0
M  V30 3627 C 336.187 -3.32654 2.69305 0
M  V30 3628 C 335.513 -4.71646 2.51902 0
M  V30 3629 C 336.813 -3.21981 4.11248 0
M  V30 3630 H 338.507 -1.61881 2.51863 0
M  V30 3631 H 336.053 -0.777372 1.21214 0
M  V30 3632 H 338.006 -3.88699 1.6276 0
M  V30 3633 H 336.73 -3.2135 0.583255 0
M  V30 3634 H 335.389 -2.56843 2.61586 0
M  V30 3635 H 335.037 -4.79246 1.52748 0
M  V30 3636 H 334.737 -4.87426 3.2816 0
M  V30 3637 H 336.261 -5.52038 2.60933 0
M  V30 3638 H 337.675 -3.90049 4.20161 0
M  V30 3639 H 336.072 -3.49289 4.87972 0
M  V30 3640 H 337.142 -2.1928 4.32486 0
M  V30 3641 N 338.485 -1.33259 -0.841409 0
M  V30 3642 C 339.415 -1.25926 -1.96634 0
M  V30 3643 C 340.396 -0.140349 -1.6952 0
M  V30 3644 O 341.581 -0.329707 -1.91381 0
M  V30 3645 C 338.711 -0.99512 -3.32738 0
M  V30 3646 C 337.665 -2.0767 -3.74242 0
M  V30 3647 C 336.991 -1.66474 -5.08125 0
M  V30 3648 C 338.291 -3.49318 -3.88297 0
M  V30 3649 H 339.985 -2.20046 -2.03027 0
M  V30 3650 H 337.531 -1.05931 -0.975425 0
M  V30 3651 H 339.484 -0.930323 -4.11002 0
M  V30 3652 H 338.208 -0.0183004 -3.26595 0
M  V30 3653 H 336.867 -2.13187 -2.98239 0
M  V30 3654 H 336.515 -0.675012 -4.9845 0
M  V30 3655 H 336.215 -2.3885 -5.36865 0
M  V30 3656 H 337.739 -1.61455 -5.88867 0
M  V30 3657 H 339.153 -3.46316 -4.56879 0
M  V30 3658 H 337.55 -4.20158 -4.28471 0
M  V30 3659 H 338.62 -3.8801 -2.9082 0
M  V30 3660 N 339.963 1.05934 -1.16686 0
M  V30 3661 C 341.193 1.82226 -0.973515 0
M  V30 3662 C 341.601 1.8297 0.481532 0
M  V30 3663 O 340.944 1.25009 1.34604 0
M  V30 3664 C 341.006 3.29897 -1.42858 0
M  V30 3665 C 340.67 3.52849 -2.90425 0
M  V30 3666 C 341.667 3.45595 -3.88407 0
M  V30 3667 C 339.352 3.80053 -3.28428 0
M  V30 3668 C 341.346 3.65217 -5.22394 0
M  V30 3669 C 339.033 3.99325 -4.62583 0
M  V30 3670 C 340.031 3.91905 -5.59374 0
M  V30 3671 O 339.719 4.10647 -6.91104 0
M  V30 3672 H 339.451 0.581314 -0.345036 0
M  V30 3673 H 342.005 1.3453 -1.55212 0
M  V30 3674 H 340.235 3.78472 -0.793477 0
M  V30 3675 H 341.924 3.87692 -1.20207 0
M  V30 3676 H 342.69 3.24564 -3.60393 0
M  V30 3677 H 338.569 3.84936 -2.53664 0
M  V30 3678 H 342.113 3.59341 -5.9793 0
M  V30 3679 H 338.01 4.19846 -4.90306 0
M  V30 3680 H 338.778 4.27915 -6.97733 0
M  V30 3681 N 341.441 0.965919 1.2453 0
M  V30 3682 C 342.718 0.543777 1.87889 0
M  V30 3683 C 343.098 -0.97909 1.87021 0
M  V30 3684 O 342.446 -1.84969 1.3416 0
M  V30 3685 C 342.656 1.13327 3.30088 0
M  V30 3686 C 344.004 1.21707 4.06783 0
M  V30 3687 O 345.028 1.08566 3.39252 0
M  V30 3688 O 343.887 1.42456 5.27606 0
M  V30 3689 H 340.981 0.181054 0.806938 0
M  V30 3690 H 343.527 1.06007 1.32516 0
M  V30 3691 H 342.299 2.17612 3.25209 0
M  V30 3692 H 341.922 0.600911 3.93033 0
M  V30 3693 N 342.919 -1.39368 0.735821 0
M  V30 3694 C 344.147 -2.04795 0.294393 0
M  V30 3695 C 344.562 -1.55478 -1.07107 0
M  V30 3696 O 343.919 -0.720038 -1.67695 0
M  V30 3697 C 343.97 -3.6035 0.288071 0
M  V30 3698 O 343.691 -4.07852 1.59963 0
M  V30 3699 C 345.192 -4.42976 -0.169422 0
M  V30 3700 H 342.412 -0.658571 0.128551 0
M  V30 3701 H 344.956 -1.78399 0.999701 0
M  V30 3702 H 343.111 -3.85645 -0.368355 0
M  V30 3703 H 343.525 -5.02181 1.51375 0
M  V30 3704 H 344.999 -5.51864 -0.122687 0
M  V30 3705 H 345.476 -4.22068 -1.21472 0
M  V30 3706 H 346.082 -4.22832 0.457469 0
M  V30 3707 N 344.397 -0.483516 -1.5 0
M  V30 3708 C 345.646 0.0689102 -2.01582 0
M  V30 3709 C 345.959 1.39655 -1.36952 0
M  V30 3710 O 347.165 2.03465 -1.79762 0
M  V30 3711 C 345.621 0.173302 -3.59483 0
M  V30 3712 C 345.229 -1.14665 -4.33077 0
M  V30 3713 C 346.973 0.677024 -4.19066 0
M  V30 3714 C 344.88 -1.00537 -5.82792 0
M  V30 3715 H 343.81 0.0295277 -0.753422 0
M  V30 3716 H 346.461 -0.620295 -1.72698 0
M  V30 3717 H 344.843 0.926569 -3.85007 0
M  V30 3718 H 346.017 -1.91184 -4.19268 0
M  V30 3719 H 344.332 -1.58244 -3.85159 0
M  V30 3720 H 346.929 0.799952 -5.28682 0
M  V30 3721 H 347.272 1.67151 -3.81269 0
M  V30 3722 H 347.805 -0.0192083 -3.97795 0
M  V30 3723 H 344.544 -1.9736 -6.25083 0
M  V30 3724 H 344.064 -0.280776 -5.99142 0
M  V30 3725 H 345.743 -0.677 -6.43448 0
M  V30 3726 N 345.875 1.56104 -0.216619 0
M  V30 3727 C 347.122 1.98172 0.416416 0
M  V30 3728 C 347.45 1.10413 1.60122 0
M  V30 3729 O 346.705 0.147967 1.9514 0
M  V30 3730 C 347.004 3.45923 0.898464 0
M  V30 3731 C 346.67 4.50559 -0.175288 0
M  V30 3732 C 345.332 4.78897 -0.470271 0
M  V30 3733 C 347.684 5.1334 -0.901728 0
M  V30 3734 C 345.012 5.67299 -1.4963 0
M  V30 3735 C 347.364 6.02853 -1.91705 0
M  V30 3736 C 346.028 6.29537 -2.21901 0
M  V30 3737 H 345.298 0.725164 0.152377 0
M  V30 3738 H 347.945 1.88839 -0.318103 0
M  V30 3739 H 346.25 3.52434 1.71165 0
M  V30 3740 H 347.947 3.75841 1.39803 0
M  V30 3741 H 344.537 4.28551 0.0647806 0
M  V30 3742 H 348.721 4.91521 -0.687072 0
M  V30 3743 H 343.977 5.86239 -1.73592 0
M  V30 3744 H 348.151 6.50552 -2.48505 0
M  V30 3745 H 345.778 6.97835 -3.01548 0
M  V30 3746 N 347.353 -0.0568162 1.57498 0
M  V30 3747 C 348.285 -1.09292 2.01464 0
M  V30 3748 C 349.298 -1.34112 0.922913 0
M  V30 3749 O 350.487 -1.32089 1.20062 0
M  V30 3750 C 347.587 -2.44068 2.35125 0
M  V30 3751 C 346.76 -2.38995 3.66333 0
M  V30 3752 C 345.819 -3.55997 3.87495 0
M  V30 3753 O 344.845 -3.36746 4.58901 0
M  V30 3754 N 346.047 -4.76888 3.30996 0
M  V30 3755 H 348.812 -0.718386 2.90963 0
M  V30 3756 H 346.373 -0.245235 1.60032 0
M  V30 3757 H 348.365 -3.21011 2.46443 0
M  V30 3758 H 346.935 -2.73468 1.5144 0
M  V30 3759 H 346.155 -1.47336 3.65631 0
M  V30 3760 H 347.443 -2.3272 4.52458 0
M  V30 3761 H 346.841 -4.95431 2.73065 0
M  V30 3762 H 345.398 -5.51291 3.47738 0
M  V30 3763 N 348.832 -1.54138 -0.328536 0
M  V30 3764 C 350.081 -1.71318 -1.06456 0
M  V30 3765 C 350.394 -0.491109 -1.89334 0
M  V30 3766 O 351.6 -0.54416 -2.65991 0
M  V30 3767 C 350.056 -3.03 -1.94214 0
M  V30 3768 C 349.664 -4.32595 -1.16471 0
M  V30 3769 C 351.408 -3.29544 -2.67583 0
M  V30 3770 C 349.315 -5.55341 -2.03347 0
M  V30 3771 H 348.245 -0.638429 -0.401155 0
M  V30 3772 H 350.896 -1.80633 -0.323106 0
M  V30 3773 H 349.278 -2.87579 -2.72239 0
M  V30 3774 H 350.452 -4.58766 -0.432525 0
M  V30 3775 H 348.767 -4.12777 -0.548063 0
M  V30 3776 H 351.364 -4.18444 -3.3288 0
M  V30 3777 H 351.707 -2.47206 -3.34955 0
M  V30 3778 H 352.24 -3.45809 -1.96623 0
M  V30 3779 H 348.979 -6.40268 -1.40491 0
M  V30 3780 H 348.499 -5.33397 -2.74313 0
M  V30 3781 H 350.178 -5.91557 -2.62049 0
M  V30 3782 N 350.31 0.590341 -1.46126 0
M  V30 3783 C 351.557 1.34882 -1.5104 0
M  V30 3784 C 351.885 1.93849 -0.159021 0
M  V30 3785 O 351.14 1.76544 0.844436 0
M  V30 3786 C 351.439 2.5032 -2.55097 0
M  V30 3787 C 351.105 2.09394 -3.99331 0
M  V30 3788 C 349.767 1.97947 -4.38601 0
M  V30 3789 C 352.119 1.77712 -4.89967 0
M  V30 3790 C 349.447 1.53065 -5.66381 0
M  V30 3791 C 351.799 1.34312 -6.18177 0
M  V30 3792 C 350.463 1.21436 -6.56361 0
M  V30 3793 H 349.733 0.493568 -0.552695 0
M  V30 3794 H 352.38 0.665539 -1.79563 0
M  V30 3795 H 350.685 3.24062 -2.20207 0
M  V30 3796 H 352.382 3.08541 -2.56132 0
M  V30 3797 H 348.972 2.19235 -3.68285 0
M  V30 3798 H 353.156 1.85445 -4.60352 0
M  V30 3799 H 348.412 1.41733 -5.94745 0
M  V30 3800 H 352.586 1.08849 -6.87841 0
M  V30 3801 H 350.213 0.864345 -7.5527 0
M  V30 3802 N 351.788 1.33704 0.83433 0
M  V30 3803 C 352.736 1.24323 1.96587 0
M  V30 3804 C 353.73 0.143659 1.6879 0
M  V30 3805 O 354.936 0.30791 1.77347 0
M  V30 3806 H 351.311 0.385925 0.645419 0
M  V30 3807 H 353.282 2.19978 2.01624 0
M  V30 3808 C 352.031 1.00394 3.32891 0
M  V30 3809 H 351.354 1.84231 3.54822 0
M  V30 3810 H 352.794 0.97862 4.12552 0
M  V30 3811 C 351.253 -0.293047 3.35623 0
M  V30 3812 O 351.783 -1.29823 3.80143 0
M  V30 3813 N 349.989 -0.322174 2.88809 0
M  V30 3814 H 349.536 0.496379 2.52772 0
M  V30 3815 H 349.494 -1.18977 2.91019 0
M  V30 3816 N 353.266 -1.05314 1.17247 0
M  V30 3817 C 354.214 -2.15137 0.884238 0
M  V30 3818 C 355.208 -1.68729 -0.15063 0
M  V30 3819 O 356.414 -1.8 -0.00366673 0
M  V30 3820 H 352.789 -0.702471 0.2684 0
M  V30 3821 H 354.76 -2.36652 1.81764 0
M  V30 3822 C 353.509 -3.45243 0.412659 0
M  V30 3823 H 352.832 -3.81352 1.20043 0
M  V30 3824 H 354.272 -4.23263 0.249858 0
M  V30 3825 C 352.731 -3.25487 -0.86948 0
M  V30 3826 O 353.261 -3.51938 -1.93655 0
M  V30 3827 N 351.467 -2.78875 -0.817147 0
M  V30 3828 H 351.014 -2.57549 0.0514211 0
M  V30 3829 H 350.972 -2.66036 -1.67547 0
M  V30 3830 N 354.744 -0.972509 -1.24016 0
M  V30 3831 C 356.16 -0.679827 -1.44397 0
M  V30 3832 C 356.36 0.756716 -1.86751 0
M  V30 3833 O 355.416 1.53007 -2.00861 0
M  V30 3834 C 356.729 -1.66803 -2.50195 0
M  V30 3835 C 358.277 -1.68119 -2.64017 0
M  V30 3836 C 358.752 -2.65748 -3.73017 0
M  V30 3837 N 360.243 -2.64219 -3.8045 0
M  V30 3838 C 360.978 -3.36433 -4.64328 0
M  V30 3839 N 360.474 -4.1818 -5.52356 0
M  V30 3840 N 362.267 -3.25235 -4.58453 0
M  V30 3841 H 354.418 -1.90059 -0.948228 0
M  V30 3842 H 356.681 -0.818527 -0.478245 0
M  V30 3843 H 356.387 -2.69498 -2.25973 0
M  V30 3844 H 356.261 -1.4446 -3.48441 0
M  V30 3845 H 358.648 -0.661319 -2.87594 0
M  V30 3846 H 358.729 -1.94525 -1.66113 0
M  V30 3847 H 358.373 -3.67872 -3.50189 0
M  V30 3848 H 358.303 -2.36619 -4.70446 0
M  V30 3849 H 360.794 -2.04887 -3.17537 0
M  V30 3850 H 361.107 -4.70157 -6.13329 0
M  V30 3851 H 359.452 -4.22273 -5.52006 0
M  V30 3852 H 362.643 -2.60829 -3.88698 0
M  V30 3853 H 362.816 -3.81776 -5.23594 0
M  V30 3854 N 356.222 1.38976 -0.743202 0
M  V30 3855 C 357.17 2.32394 -0.0978389 0
M  V30 3856 C 358.164 1.53486 0.716824 0
M  V30 3857 O 359.37 1.69092 0.617088 0
M  V30 3858 H 355.745 0.75189 -0.0128402 0
M  V30 3859 H 357.716 2.84441 -0.901981 0
M  V30 3860 C 356.465 3.38629 0.789036 0
M  V30 3861 H 355.788 3.99432 0.171559 0
M  V30 3862 H 357.228 4.06426 1.20807 0
M  V30 3863 C 355.687 2.76347 1.92702 0
M  V30 3864 O 356.217 2.64836 3.02034 0
M  V30 3865 N 354.423 2.34311 1.71891 0
M  V30 3866 H 353.97 2.43873 0.829675 0
M  V30 3867 H 353.928 1.9298 2.48205 0
M  V30 3868 N 357.7 0.491464 1.49741 0
M  V30 3869 C 358.94 -0.0549118 2.04326 0
M  V30 3870 C 359.304 -1.35148 1.36378 0
M  V30 3871 O 360.505 -1.9815 1.81631 0
M  V30 3872 C 358.776 -0.213841 3.5676 0
M  V30 3873 S 360.335 -0.715839 4.32922 0
M  V30 3874 H 357.153 -0.00630513 0.710972 0
M  V30 3875 H 359.755 0.663257 1.83905 0
M  V30 3876 H 358.459 0.73527 4.0376 0
M  V30 3877 H 357.99 -0.957529 3.81569 0
M  V30 3878 H 360.005 -1.9864 4.54705 0
M  V30 3879 N 359.178 -1.55987 0.224894 0
M  V30 3880 C 360.108 -2.23426 -0.678457 0
M  V30 3881 C 361.089 -1.20709 -1.19847 0
M  V30 3882 O 362.274 -1.49304 -1.24186 0
M  V30 3883 C 359.404 -2.91676 -1.88527 0
M  V30 3884 C 358.358 -4.00893 -1.49896 0
M  V30 3885 C 357.684 -4.56455 -2.78483 0
M  V30 3886 C 358.984 -5.17769 -0.686461 0
M  V30 3887 H 360.678 -2.99175 -0.116173 0
M  V30 3888 H 358.224 -1.43897 -0.054436 0
M  V30 3889 H 360.177 -3.37547 -2.5227 0
M  V30 3890 H 358.901 -2.1338 -2.47258 0
M  V30 3891 H 357.56 -3.55758 -0.884985 0
M  V30 3892 H 357.208 -3.74886 -3.35365 0
M  V30 3893 H 356.908 -5.30169 -2.53368 0
M  V30 3894 H 358.432 -5.05047 -3.43162 0
M  V30 3895 H 359.846 -5.60001 -1.22767 0
M  V30 3896 H 358.243 -5.97735 -0.532259 0
M  V30 3897 H 359.313 -4.83932 0.306196 0
M  V30 3898 N 360.656 0.0484629 -1.57525 0
M  V30 3899 C 361.881 0.759177 -1.93006 0
M  V30 3900 C 362.306 1.69125 -0.823317 0
M  V30 3901 O 361.664 1.79931 0.222364 0
M  V30 3902 C 361.712 1.50899 -3.27509 0
M  V30 3903 O 360.816 2.62112 -3.18388 0
M  V30 3904 H 360.157 0.205564 -0.631379 0
M  V30 3905 H 362.687 0.00972959 -2.04598 0
M  V30 3906 H 362.697 1.88317 -3.6194 0
M  V30 3907 H 361.372 0.825269 -4.0763 0
M  V30 3908 H 359.949 2.27379 -2.95556 0
M  V30 3909 N 362.134 1.5431 0.320358 0
M  V30 3910 C 363.064 1.86912 1.3995 0
M  V30 3911 C 364.045 0.726211 1.53819 0
M  V30 3912 O 365.23 0.980233 1.67646 0
M  V30 3913 C 362.36 2.09932 2.7667 0
M  V30 3914 C 361.314 3.25776 2.77586 0
M  V30 3915 C 360.64 3.34173 4.17412 0
M  V30 3916 C 361.94 4.6335 2.41048 0
M  V30 3917 H 363.634 2.77292 1.12914 0
M  V30 3918 H 361.18 1.33421 0.541738 0
M  V30 3919 H 363.133 2.31324 3.52232 0
M  V30 3920 H 361.857 1.16304 3.0519 0
M  V30 3921 H 360.516 3.04276 2.04479 0
M  V30 3922 H 360.164 2.38098 4.43078 0
M  V30 3923 H 359.864 4.12033 4.18931 0
M  V30 3924 H 361.388 3.57803 4.94782 0
M  V30 3925 H 362.802 4.84602 3.06324 0
M  V30 3926 H 361.199 5.43782 2.53813 0
M  V30 3927 H 362.269 4.65381 1.36193 0
M  V30 3928 N 363.613 -0.582584 1.46437 0
M  V30 3929 C 364.56 -1.69164 1.5701 0
M  V30 3930 C 365.53 -1.60847 0.414403 0
M  V30 3931 O 366.715 -1.80058 0.631171 0
M  V30 3932 C 363.855 -3.075 1.56646 0
M  V30 3933 C 362.968 -3.2644 2.82951 0
M  V30 3934 C 362.103 -4.55026 2.7409 0
M  V30 3935 C 361.142 -4.6731 3.95333 0
M  V30 3936 N 360.279 -5.87221 3.84858 0
M  V30 3937 H 365.119 -1.59464 2.51744 0
M  V30 3938 H 362.656 -0.777186 1.24893 0
M  V30 3939 H 364.614 -3.8757 1.5442 0
M  V30 3940 H 363.244 -3.16096 0.654439 0
M  V30 3941 H 362.296 -2.39974 2.95155 0
M  V30 3942 H 363.608 -3.31385 3.72808 0
M  V30 3943 H 362.762 -5.43324 2.6997 0
M  V30 3944 H 361.501 -4.52519 1.81873 0
M  V30 3945 H 360.506 -3.77429 3.99784 0
M  V30 3946 H 361.731 -4.71595 4.88646 0
M  V30 3947 H 359.677 -5.85712 2.95427 0
M  V30 3948 H 359.594 -5.93435 4.6837 0
M  V30 3949 H 360.862 -6.7795 3.84713 0
M  V30 3950 N 365.091 -1.34144 -0.827227 0
M  V30 3951 C 366.368 -1.16844 -1.56865 0
M  V30 3952 C 366.748 0.260654 -2.09485 0
M  V30 3953 O 366.096 1.26138 -1.9053 0
M  V30 3954 C 366.306 -2.21939 -2.6934 0
M  V30 3955 C 367.654 -2.56695 -3.3822 0
M  V30 3956 O 368.678 -2.20695 -2.79593 0
M  V30 3957 O 367.537 -3.18518 -4.44082 0
M  V30 3958 H 364.631 -0.452669 -0.692112 0
M  V30 3959 H 367.177 -1.45763 -0.868973 0
M  V30 3960 H 365.949 -3.17882 -2.28182 0
M  V30 3961 H 365.572 -1.94172 -3.46962 0
M  V30 3962 N 366.569 1.04691 -1.17803 0
M  V30 3963 C 367.516 2.12557 -0.899343 0
M  V30 3964 C 368.486 1.65339 0.158771 0
M  V30 3965 O 369.671 1.90789 0.0204797 0
M  V30 3966 C 366.811 3.42481 -0.424315 0
M  V30 3967 C 365.924 4.03346 -1.54713 0
M  V30 3968 C 365.059 5.21208 -1.02546 0
M  V30 3969 C 364.098 5.74089 -2.12339 0
M  V30 3970 N 363.235 6.83247 -1.61612 0
M  V30 3971 H 368.075 2.35734 -1.823 0
M  V30 3972 H 365.612 1.1564 -0.909159 0
M  V30 3973 H 367.57 4.16996 -0.130421 0
M  V30 3974 H 366.2 3.19471 0.462377 0
M  V30 3975 H 365.252 3.2622 -1.95664 0
M  V30 3976 H 366.564 4.38628 -2.37501 0
M  V30 3977 H 365.718 6.02812 -0.685718 0
M  V30 3978 H 364.457 4.87414 -0.167084 0
M  V30 3979 H 363.462 4.91111 -2.47165 0
M  V30 3980 H 364.687 6.0993 -2.98601 0
M  V30 3981 H 362.633 6.5134 -0.780533 0
M  V30 3982 H 362.55 7.17559 -2.38003 0
M  V30 3983 H 363.818 7.68491 -1.30545 0
M  V30 3984 N 368.047 0.979072 1.23499 0
M  V30 3985 C 369.458 0.684391 1.73704 0
M  V30 3986 C 369.809 -0.799448 1.79174 0
M  V30 3987 O 368.934 -1.62531 1.42873 0
M  V30 3988 C 369.529 1.23564 3.15464 0
M  V30 3989 C 368.088 0.99063 3.6313 0
M  V30 3990 C 367.235 1.36416 2.41425 0
M  V30 3991 H 370.186 1.15307 1.09041 0
M  V30 3992 H 370.207 0.607417 3.7562 0
M  V30 3993 H 369.719 2.31561 3.1145 0
M  V30 3994 H 367.82 -0.0733136 3.72528 0
M  V30 3995 H 367.933 1.64427 4.5 0
M  V30 3996 H 366.297 0.782616 2.42378 0
M  V30 3997 H 367.08 2.45387 2.40083 0
M  V30 3998 N 369.525 -1.3858 0.750561 0
M  V30 3999 C 370.472 -2.30483 0.120835 0
M  V30 4000 C 371.442 -1.50022 -0.712923 0
M  V30 4001 O 372.627 -1.78662 -0.669676 0
M  V30 4002 C 369.767 -3.36431 -0.768666 0
M  V30 4003 C 368.88 -4.31927 0.0793922 0
M  V30 4004 C 368.015 -5.24944 -0.81283 0
M  V30 4005 C 367.054 -6.12088 0.0390447 0
M  V30 4006 N 366.191 -6.97412 -0.809969 0
M  V30 4007 H 371.031 -2.83761 0.91015 0
M  V30 4008 H 368.568 -1.39707 0.460463 0
M  V30 4009 H 370.526 -3.96462 -1.29898 0
M  V30 4010 H 369.156 -2.8457 -1.5238 0
M  V30 4011 H 368.208 -3.73382 0.727303 0
M  V30 4012 H 369.52 -4.93319 0.737401 0
M  V30 4013 H 368.674 -5.90078 -1.41042 0
M  V30 4014 H 367.413 -4.63911 -1.50458 0
M  V30 4015 H 366.418 -5.45952 0.649328 0
M  V30 4016 H 367.643 -6.75189 0.727809 0
M  V30 4017 H 365.589 -6.38931 -1.48672 0
M  V30 4018 H 365.506 -7.55712 -0.208789 0
M  V30 4019 H 366.774 -7.66959 -1.39263 0
M  V30 4020 N 371.003 -0.499398 -1.49478 0
M  V30 4021 C 372.249 0.0457576 -2.02748 0
M  V30 4022 C 372.582 1.36793 -1.37846 0
M  V30 4023 O 371.857 1.87596 -0.513601 0
M  V30 4024 C 372.14 0.199986 -3.59544 0
M  V30 4025 C 371.993 -1.1452 -4.34977 0
M  V30 4026 C 373.312 0.94137 -4.29914 0
M  V30 4027 H 370.431 0.0151552 -0.736844 0
M  V30 4028 H 373.073 -0.650498 -1.78518 0
M  V30 4029 H 371.223 0.793007 -3.8032 0
M  V30 4030 H 372.895 -1.77697 -4.25701 0
M  V30 4031 H 371.138 -1.73488 -3.97598 0
M  V30 4032 H 371.809 -0.990607 -5.43039 0
M  V30 4033 H 374.285 0.43844 -4.13784 0
M  V30 4034 H 373.161 1.01812 -5.39375 0
M  V30 4035 H 373.422 1.98471 -3.95046 0
M  V30 4036 N 372.481 1.55866 -0.233164 0
M  V30 4037 C 373.73 1.97779 0.39579 0
M  V30 4038 C 374.043 1.12419 1.60066 0
M  V30 4039 O 375.249 1.44283 2.29988 0
M  V30 4040 C 373.705 3.5188 0.755556 0
M  V30 4041 C 373.313 4.45959 -0.427152 0
M  V30 4042 C 375.057 4.02479 1.34946 0
M  V30 4043 C 372.964 5.91383 -0.0443043 0
M  V30 4044 H 371.894 0.738592 0.15165 0
M  V30 4045 H 374.545 1.80486 -0.331212 0
M  V30 4046 H 372.927 3.64816 1.5403 0
M  V30 4047 H 374.101 4.44776 -1.20462 0
M  V30 4048 H 372.416 4.05765 -0.935068 0
M  V30 4049 H 375.013 5.08637 1.649 0
M  V30 4050 H 375.356 3.49014 2.26925 0
M  V30 4051 H 375.889 3.92813 0.62791 0
M  V30 4052 H 372.628 6.48857 -0.930874 0
M  V30 4053 H 372.148 5.95734 0.697238 0
M  V30 4054 H 373.827 6.45893 0.378334 0
M  V30 4055 N 373.959 -0.0401083 1.57549 0
M  V30 4056 C 375.208 -0.732108 1.87944 0
M  V30 4057 C 375.521 -1.77107 0.830206 0
M  V30 4058 O 376.727 -2.51488 1.02302 0
M  V30 4059 C 375.183 -1.35315 3.33494 0
M  V30 4060 C 374.791 -0.351105 4.46622 0
M  V30 4061 C 376.535 -2.02566 3.73051 0
M  V30 4062 C 374.442 -0.979859 5.83226 0
M  V30 4063 H 373.372 -0.277188 0.701201 0
M  V30 4064 H 376.023 0.0138501 1.83495 0
M  V30 4065 H 374.405 -2.14844 3.32653 0
M  V30 4066 H 375.579 0.416674 4.58912 0
M  V30 4067 H 373.894 0.218708 4.15825 0
M  V30 4068 H 376.491 -2.50441 4.72423 0
M  V30 4069 H 376.834 -2.83904 3.04474 0
M  V30 4070 H 377.367 -1.29827 3.76018 0
M  V30 4071 H 374.106 -0.206135 6.55176 0
M  V30 4072 H 373.626 -1.71774 5.74677 0
M  V30 4073 H 375.305 -1.49046 6.29599 0
M  V30 4074 N 375.437 -1.54477 -0.31217 0
M  V30 4075 C 376.683 -1.73483 -1.0503 0
M  V30 4076 C 377.016 -0.513125 -1.87298 0
M  V30 4077 O 376.291 0.489864 -1.8823 0
M  V30 4078 C 376.574 -3.01723 -1.96558 0
M  V30 4079 C 376.427 -4.3417 -1.17545 0
M  V30 4080 C 377.746 -3.25772 -2.95907 0
M  V30 4081 H 374.865 -0.631222 -0.380432 0
M  V30 4082 H 377.507 -1.87184 -0.325932 0
M  V30 4083 H 375.657 -2.90174 -2.58324 0
M  V30 4084 H 377.329 -4.5762 -0.581513 0
M  V30 4085 H 375.572 -4.31159 -0.477925 0
M  V30 4086 H 376.243 -5.20143 -1.84811 0
M  V30 4087 H 378.719 -3.36857 -2.44267 0
M  V30 4088 H 377.595 -4.16838 -3.57123 0
M  V30 4089 H 377.856 -2.43537 -3.68974 0
M  V30 4090 N 376.915 0.57481 -1.46744 0
M  V30 4091 C 377.847 1.69804 -1.53946 0
M  V30 4092 C 378.86 1.57098 -0.427106 0
M  V30 4093 O 380.049 1.64378 -0.695863 0
M  V30 4094 C 377.149 3.08125 -1.4111 0
M  V30 4095 C 376.322 3.46757 -2.66605 0
M  V30 4096 C 375.381 4.6417 -2.47855 0
M  V30 4097 O 374.407 4.69634 -3.21609 0
M  V30 4098 N 375.609 5.59553 -1.54534 0
M  V30 4099 H 378.374 1.64077 -2.50796 0
M  V30 4100 H 375.935 0.761 -1.429 0
M  V30 4101 H 377.927 3.84478 -1.26328 0
M  V30 4102 H 376.497 3.08175 -0.524109 0
M  V30 4103 H 375.717 2.6003 -2.96274 0
M  V30 4104 H 377.005 3.69337 -3.49954 0
M  V30 4105 H 376.403 5.57881 -0.937304 0
M  V30 4106 H 374.96 6.35304 -1.45711 0
M  V30 4107 N 378.394 1.34581 0.820102 0
M  V30 4108 C 379.357 1.2628 1.91275 0
M  V30 4109 C 380.357 0.177344 1.59819 0
M  V30 4110 O 381.547 0.430156 1.68806 0
M  V30 4111 C 378.679 0.950327 3.27386 0
M  V30 4112 H 379.872 2.23421 2.00057 0
M  V30 4113 H 377.425 1.1891 1.0144 0
M  V30 4114 H 378.16 -0.0177938 3.24295 0
M  V30 4115 H 377.945 1.73549 3.51601 0
M  V30 4116 H 379.435 0.917492 4.07396 0
M  V30 4117 N 379.872 -1.04064 1.18357 0
M  V30 4118 C 381.112 -1.78829 0.989921 0
M  V30 4119 C 381.476 -1.86106 -0.472095 0
M  V30 4120 O 382.677 -2.57076 -0.785187 0
M  V30 4121 C 380.948 -3.1823 1.6268 0
M  V30 4122 S 382.507 -4.09332 1.58091 0
M  V30 4123 H 379.325 -0.615754 0.355482 0
M  V30 4124 H 381.927 -1.24778 1.50501 0
M  V30 4125 H 380.631 -3.10543 2.68311 0
M  V30 4126 H 380.162 -3.77357 1.112 0
M  V30 4127 H 382.177 -4.92598 0.596817 0
M  V30 4128 N 381.35 -0.985608 -1.22978 0
M  V30 4129 C 382.766 -0.695104 -1.43668 0
M  V30 4130 C 382.966 0.736866 -1.87543 0
M  V30 4131 O 382.022 1.50868 -2.02473 0
M  V30 4132 C 383.335 -1.69447 -2.48412 0
M  V30 4133 C 384.883 -1.70909 -2.62219 0
M  V30 4134 C 385.358 -2.6969 -3.70178 0
M  V30 4135 N 386.849 -2.6824 -3.77626 0
M  V30 4136 C 387.584 -3.41339 -4.60733 0
M  V30 4137 N 387.08 -4.24015 -5.4789 0
M  V30 4138 N 388.873 -3.30079 -4.54977 0
M  V30 4139 H 381.024 -1.91054 -0.928016 0
M  V30 4140 H 383.287 -0.823553 -0.469536 0
M  V30 4141 H 382.993 -2.7188 -2.23102 0
M  V30 4142 H 382.867 -1.48147 -3.46889 0
M  V30 4143 H 385.254 -0.691785 -2.86877 0
M  V30 4144 H 385.335 -1.96276 -1.6404 0
M  V30 4145 H 384.979 -3.71566 -3.46268 0
M  V30 4146 H 384.909 -2.41595 -4.67909 0
M  V30 4147 H 387.4 -2.08243 -3.15346 0
M  V30 4148 H 387.713 -4.76636 -6.08308 0
M  V30 4149 H 386.058 -4.28104 -5.47496 0
M  V30 4150 H 389.249 -2.64937 -3.85909 0
M  V30 4151 H 389.422 -3.87308 -5.19516 0
M  V30 4152 N 382.828 1.3818 -0.7579 0
M  V30 4153 C 384.076 1.99624 -0.315361 0
M  V30 4154 C 384.397 1.60464 1.10799 0
M  V30 4155 O 383.667 0.863507 1.75842 0
M  V30 4156 H 382.247 0.73831 -0.113611 0
M  V30 4157 H 384.909 1.68878 -0.972952 0
M  V30 4158 H 384.005 3.09754 -0.381931 0
M  V30 4159 N 384.306 0.507319 1.49211 0
M  V30 4160 C 385.269 -0.256763 2.27757 0
M  V30 4161 C 386.269 -0.888287 1.34038 0
M  V30 4162 O 387.459 -0.751841 1.5714 0
M  V30 4163 C 384.591 -1.36905 3.12202 0
M  V30 4164 H 385.784 0.432557 2.96764 0
M  V30 4165 H 383.337 0.262488 1.5408 0
M  V30 4166 H 384.072 -2.09233 2.47775 0
M  V30 4167 H 383.857 -0.921599 3.81115 0
M  V30 4168 H 385.347 -1.9071 3.7151 0
M  V30 4169 N 385.784 -1.5574 0.241426 0
M  V30 4170 C 386.732 -2.22538 -0.676718 0
M  V30 4171 C 387.726 -1.21117 -1.18436 0
M  V30 4172 O 388.932 -1.39144 -1.14188 0
M  V30 4173 H 385.307 -0.713776 -0.236701 0
M  V30 4174 H 387.278 -2.98264 -0.0901187 0
M  V30 4175 C 386.027 -2.93439 -1.86518 0
M  V30 4176 H 385.35 -3.7125 -1.4837 0
M  V30 4177 H 386.79 -3.43549 -2.48495 0
M  V30 4178 C 385.249 -1.97008 -2.73294 0
M  V30 4179 O 385.779 -1.49965 -3.72657 0
M  V30 4180 N 383.985 -1.64227 -2.39745 0
M  V30 4181 H 383.532 -2.02677 -1.58996 0
M  V30 4182 H 383.49 -0.999708 -2.98083 0
M  V30 4183 N 387.262 0.0317525 -1.57568 0
M  V30 4184 C 388.678 0.38735 -1.54828 0
M  V30 4185 C 388.878 1.7677 -0.967187 0
M  V30 4186 O 387.934 2.45581 -0.587063 0
M  V30 4187 C 389.247 0.291667 -2.99282 0
M  V30 4188 C 390.795 0.368946 -3.10818 0
M  V30 4189 C 391.27 0.302741 -4.56998 0
M  V30 4190 N 392.761 0.361617 -4.61786 0
M  V30 4191 C 393.496 0.333238 -5.72431 0
M  V30 4192 N 392.992 0.257308 -6.92322 0
M  V30 4193 N 394.785 0.382769 -5.60795 0
M  V30 4194 H 386.936 -0.871609 -1.93692 0
M  V30 4195 H 389.199 -0.331161 -0.888277 0
M  V30 4196 H 388.905 -0.656794 -3.45513 0
M  V30 4197 H 388.779 1.08638 -3.61217 0
M  V30 4198 H 391.166 1.30784 -2.64536 0
M  V30 4199 H 391.247 -0.455066 -2.5172 0
M  V30 4200 H 390.891 -0.632473 -5.03947 0
M  V30 4201 H 390.821 1.14482 -5.14005 0
M  V30 4202 H 393.312 0.422923 -3.75526 0
M  V30 4203 H 393.625 0.24068 -7.72425 0
M  V30 4204 H 391.97 0.223396 -6.94641 0
M  V30 4205 H 395.161 0.44006 -4.66027 0
M  V30 4206 H 395.334 0.357184 -6.47015 0
M  V30 4207 N 388.74 1.54641 0.303973 0
M  V30 4208 C 389.988 1.73437 1.0375 0
M  V30 4209 C 390.309 0.521449 1.87899 0
M  V30 4210 O 389.579 -0.46432 1.90318 0
M  V30 4211 H 388.159 0.639518 0.386039 0
M  V30 4212 H 390.821 1.91988 0.335675 0
M  V30 4213 H 389.917 2.62235 1.69231 0
M  V30 4214 N 390.218 -0.567019 1.47046 0
M  V30 4215 C 391.128 -1.70247 1.6141 0
M  V30 4216 C 392.144 -1.66746 0.497157 0
M  V30 4217 O 393.32 -1.86371 0.763389 0
M  V30 4218 C 390.385 -3.06756 1.61561 0
M  V30 4219 C 389.446 -3.21399 2.84607 0
M  V30 4220 C 388.679 -4.51396 2.84741 0
M  V30 4221 O 388.902 -5.36255 1.94388 0
M  V30 4222 O 387.836 -4.69621 3.76483 0
M  V30 4223 H 391.662 -1.61073 2.57467 0
M  V30 4224 H 389.247 -0.735894 1.30019 0
M  V30 4225 H 391.129 -3.8801 1.64396 0
M  V30 4226 H 389.804 -3.16333 0.686684 0
M  V30 4227 H 388.711 -2.39579 2.8732 0
M  V30 4228 H 390.044 -3.16721 3.76761 0
M  V30 4229 N 391.696 -1.35014 -0.812953 0
M  V30 4230 C 392.626 -1.30069 -1.93919 0
M  V30 4231 C 393.607 -0.176275 -1.69184 0
M  V30 4232 O 394.792 -0.370227 -1.90638 0
M  V30 4233 C 391.922 -1.06547 -3.30552 0
M  V30 4234 C 390.876 -2.15561 -3.69753 0
M  V30 4235 C 390.202 -1.77214 -5.04479 0
M  V30 4236 C 391.502 -3.57476 -3.808 0
M  V30 4237 H 393.196 -2.24303 -1.98314 0
M  V30 4238 H 390.742 -1.07977 -0.952736 0
M  V30 4239 H 392.695 -1.01729 -4.08937 0
M  V30 4240 H 391.419 -0.0875719 -3.26483 0
M  V30 4241 H 390.078 -2.19466 -2.9365 0
M  V30 4242 H 389.726 -0.780589 -4.96906 0
M  V30 4243 H 389.426 -2.50184 -5.31678 0
M  V30 4244 H 390.95 -1.7391 -5.8531 0
M  V30 4245 H 392.364 -3.55929 -4.4943 0
M  V30 4246 H 390.761 -4.29152 -4.19462 0
M  V30 4247 H 391.831 -3.94091 -2.82525 0
M  V30 4248 N 393.175 1.03435 -1.18907 0
M  V30 4249 C 394.421 1.7713 -0.99982 0
M  V30 4250 C 394.776 1.86695 0.465049 0
M  V30 4251 O 394.069 1.36866 1.34083 0
M  V30 4252 C 394.263 3.19792 -1.59586 0
M  V30 4253 C 394.092 3.24134 -3.11717 0
M  V30 4254 C 392.862 3.32398 -3.80578 0
M  V30 4255 C 395.06 3.11625 -4.09138 0
M  V30 4256 N 393.042 3.26055 -5.20155 0
M  V30 4257 C 394.413 3.12855 -5.35277 0
M  V30 4258 C 396.468 2.95713 -4.00572 0
M  V30 4259 C 395.171 2.99805 -6.53842 0
M  V30 4260 C 397.197 2.84011 -5.1874 0
M  V30 4261 C 396.559 2.8589 -6.43775 0
M  V30 4262 H 392.658 0.659683 -0.419931 0
M  V30 4263 H 395.242 1.2317 -1.50789 0
M  V30 4264 H 393.413 3.72085 -1.11389 0
M  V30 4265 H 395.145 3.81819 -1.3415 0
M  V30 4266 H 391.9 3.38392 -3.31342 0
M  V30 4267 H 392.324 3.26307 -5.93172 0
M  V30 4268 H 396.966 2.93086 -3.0473 0
M  V30 4269 H 394.684 3.01184 -7.49876 0
M  V30 4270 H 398.27 2.72744 -5.13909 0
M  V30 4271 H 397.15 2.76931 -7.33675 0
M  V30 4272 N 394.653 0.992116 1.22453 0
M  V30 4273 C 395.899 0.668523 1.91464 0
M  V30 4274 C 396.232 -0.797313 1.77078 0
M  V30 4275 O 395.507 -1.5765 1.13916 0
M  V30 4276 C 395.79 1.07424 3.43703 0
M  V30 4277 C 395.643 2.59857 3.67143 0
M  V30 4278 C 396.962 0.626891 4.35612 0
M  V30 4279 H 394.081 0.244341 0.695318 0
M  V30 4280 H 396.723 1.2355 1.44345 0
M  V30 4281 H 394.873 0.591816 3.83966 0
M  V30 4282 H 396.545 3.15764 3.3629 0
M  V30 4283 H 394.788 3.01961 3.11451 0
M  V30 4284 H 395.459 2.83296 4.73759 0
M  V30 4285 H 397.935 1.04125 4.02861 0
M  V30 4286 H 396.811 0.939076 5.40807 0
M  V30 4287 H 397.072 -0.472457 4.39568 0
M  V30 4288 N 396.131 -1.37776 0.765217 0
M  V30 4289 C 397.547 -1.53297 0.444108 0
M  V30 4290 C 397.747 -1.72515 -1.04119 0
M  V30 4291 O 396.803 -1.74278 -1.82711 0
M  V30 4292 C 398.116 -2.73328 1.25349 0
M  V30 4293 C 399.664 -2.87185 1.24473 0
M  V30 4294 C 400.139 -4.10191 2.03733 0
M  V30 4295 N 401.63 -4.17291 2.01053 0
M  V30 4296 C 402.365 -5.11488 2.59166 0
M  V30 4297 N 401.861 -6.11285 3.26041 0
M  V30 4298 N 403.654 -5.03924 2.49032 0
M  V30 4299 H 395.805 -1.23552 1.72768 0
M  V30 4300 H 398.068 -0.601103 0.733062 0
M  V30 4301 H 397.774 -2.6557 2.30577 0
M  V30 4302 H 397.648 -3.66834 0.87823 0
M  V30 4303 H 400.035 -2.94418 0.20047 0
M  V30 4304 H 400.116 -1.94657 1.65959 0
M  V30 4305 H 399.76 -4.0372 3.08176 0
M  V30 4306 H 399.69 -5.01821 1.59633 0
M  V30 4307 H 402.181 -3.45825 1.5236 0
M  V30 4308 H 402.494 -6.79678 3.67774 0
M  V30 4309 H 400.839 -6.11583 3.30138 0
M  V30 4310 H 404.03 -4.24902 1.96407 0
M  V30 4311 H 404.203 -5.77152 2.94617 0
M  V30 4312 N 397.609 -0.515225 -1.4894 0
M  V30 4313 C 398.886 0.0879088 -1.95402 0
M  V30 4314 C 399.266 1.52745 -1.45712 0
M  V30 4315 O 398.614 2.18238 -0.677093 0
M  V30 4316 C 398.824 -0.0141055 -3.48997 0
M  V30 4317 C 400.172 0.152646 -4.24326 0
M  V30 4318 O 401.196 0.0604025 -3.56149 0
M  V30 4319 O 400.055 0.34384 -5.45417 0
M  V30 4320 H 397.149 0.0874636 -0.822362 0
M  V30 4321 H 399.695 -0.578775 -1.59525 0
M  V30 4322 H 398.467 -1.01745 -3.77841 0
M  V30 4323 H 398.09 0.692091 -3.9153 0
M  V30 4324 N 399.087 1.5561 -0.249682 0
M  V30 4325 C 400.312 2.03865 0.381305 0
M  V30 4326 C 400.737 1.12769 1.50548 0
M  V30 4327 O 400.095 0.121189 1.80895 0
M  V30 4328 C 400.143 3.50101 0.863816 0
M  V30 4329 O 399.247 3.62132 1.97318 0
M  V30 4330 H 398.588 0.658827 0.0827194 0
M  V30 4331 H 401.118 2.01105 -0.376552 0
M  V30 4332 H 401.128 3.90975 1.1663 0
M  V30 4333 H 399.803 4.1588 0.0411816 0
M  V30 4334 H 398.38 3.33155 1.67517 0
M  V30 4335 N 400.565 -0.0233959 1.57583 0
M  V30 4336 C 401.976 -0.56927 1.77809 0
M  V30 4337 C 402.327 -1.75284 0.881472 0
M  V30 4338 O 401.452 -2.1626 0.0777805 0
M  V30 4339 C 402.047 -1.03949 3.22459 0
M  V30 4340 C 400.606 -1.53084 3.43864 0
M  V30 4341 C 399.753 -0.471454 2.73263 0
M  V30 4342 H 402.704 0.202825 1.57399 0
M  V30 4343 H 402.725 -1.90661 3.29285 0
M  V30 4344 H 402.237 -0.177865 3.87692 0
M  V30 4345 H 400.338 -2.41414 2.83814 0
M  V30 4346 H 400.451 -1.57443 4.52491 0
M  V30 4347 H 398.815 -0.927788 2.37201 0
M  V30 4348 H 399.598 0.380808 3.41181 0
M  V30 4349 N 402.043 -1.548 -0.295768 0
M  V30 4350 C 403.006 -1.85363 -1.34808 0
M  V30 4351 C 404.006 -0.726817 -1.43436 0
M  V30 4352 O 405.196 -0.995088 -1.42981 0
M  V30 4353 C 402.328 -2.03859 -2.73229 0
M  V30 4354 H 403.521 -2.7941 -1.08949 0
M  V30 4355 H 401.074 -1.46942 -0.532702 0
M  V30 4356 H 401.809 -1.12117 -3.04303 0
M  V30 4357 H 401.594 -2.8588 -2.68356 0
M  V30 4358 H 403.084 -2.28857 -3.49305 0
M  V30 4359 N 403.521 0.559213 -1.47345 0
M  V30 4360 C 404.746 1.34676 -1.57725 0
M  V30 4361 C 405.171 1.86723 -0.227164 0
M  V30 4362 O 404.529 1.6286 0.796642 0
M  V30 4363 C 404.577 2.49399 -2.60447 0
M  V30 4364 O 403.681 3.51567 -2.15578 0
M  V30 4365 H 403.022 0.400115 -0.52991 0
M  V30 4366 H 405.552 0.676009 -1.93109 0
M  V30 4367 H 405.562 2.95996 -2.80803 0
M  V30 4368 H 404.237 2.10873 -3.58477 0
M  V30 4369 H 402.814 3.11289 -2.05313 0
M  V30 4370 N 404.999 1.35443 0.805782 0
M  V30 4371 C 405.929 1.31095 1.93226 0
M  V30 4372 C 406.91 0.185244 1.69088 0
M  V30 4373 O 408.095 0.380332 1.90439 0
M  V30 4374 C 405.225 1.08299 3.29983 0
M  V30 4375 C 404.179 2.17519 3.68605 0
M  V30 4376 C 403.505 1.79887 5.03532 0
M  V30 4377 C 404.805 3.5949 3.78898 0
M  V30 4378 H 406.499 2.25352 1.97122 0
M  V30 4379 H 404.045 1.0848 0.946996 0
M  V30 4380 H 405.998 1.03897 4.08391 0
M  V30 4381 H 404.722 0.104885 3.26432 0
M  V30 4382 H 403.381 2.2102 2.92482 0
M  V30 4383 H 403.029 0.80693 4.96485 0
M  V30 4384 H 402.729 2.53001 5.30344 0
M  V30 4385 H 404.253 1.77011 5.84379 0
M  V30 4386 H 405.667 3.58307 4.47536 0
M  V30 4387 H 404.064 4.31371 4.1718 0
M  V30 4388 H 405.134 3.95584 2.80431 0
M  V30 4389 N 406.477 -1.02803 1.19454 0
M  V30 4390 C 407.387 -2.14575 0.948408 0
M  V30 4391 C 408.403 -1.73757 -0.091871 0
M  V30 4392 O 409.579 -2.01185 0.0929654 0
M  V30 4393 C 406.644 -3.43202 0.491265 0
M  V30 4394 C 405.705 -3.98328 1.60103 0
M  V30 4395 C 404.938 -5.20816 1.16561 0
M  V30 4396 O 405.161 -5.70392 0.0295238 0
M  V30 4397 O 404.095 -5.68801 1.96849 0
M  V30 4398 H 407.921 -2.38202 1.88397 0
M  V30 4399 H 405.506 -1.12989 0.977433 0
M  V30 4400 H 407.388 -4.20687 0.245015 0
M  V30 4401 H 406.063 -3.21018 -0.415851 0
M  V30 4402 H 404.97 -3.22174 1.90144 0
M  V30 4403 H 406.303 -4.24879 2.48473 0
M  V30 4404 N 407.956 -0.998596 -1.21925 0
M  V30 4405 C 409.202 -0.678667 -1.91107 0
M  V30 4406 C 409.535 0.78791 -1.77498 0
M  V30 4407 O 408.81 1.57043 -1.1475 0
M  V30 4408 C 409.093 -1.09245 -3.43129 0
M  V30 4409 C 408.946 -2.61801 -3.6576 0
M  V30 4410 C 410.265 -0.649984 -4.35274 0
M  V30 4411 H 407.384 -0.248025 -0.694012 0
M  V30 4412 H 410.026 -1.24314 -1.43688 0
M  V30 4413 H 408.176 -0.612171 -3.83647 0
M  V30 4414 H 409.848 -3.17543 -3.34611 0
M  V30 4415 H 408.091 -3.03609 -3.09845 0
M  V30 4416 H 408.762 -2.85804 -4.7225 0
M  V30 4417 H 411.238 -1.0626 -4.02303 0
M  V30 4418 H 410.114 -0.967743 -5.40302 0
M  V30 4419 H 410.375 0.449139 -4.39813 0
M  V30 4420 N 409.434 1.37368 -0.772513 0
M  V30 4421 C 410.397 2.28601 -0.165541 0
M  V30 4422 C 411.397 1.48062 0.627238 0
M  V30 4423 O 412.587 1.68268 0.450715 0
M  V30 4424 C 409.719 3.32023 0.772897 0
M  V30 4425 H 410.912 2.83787 -0.969787 0
M  V30 4426 H 408.465 1.46647 -0.540775 0
M  V30 4427 H 409.2 2.81962 1.60212 0
M  V30 4428 H 408.985 3.91555 0.206585 0
M  V30 4429 H 410.475 4.00197 1.19298 0
M  V30 4430 N 410.912 0.523116 1.48665 0
M  V30 4431 C 412.137 -0.0117284 2.07397 0
M  V30 4432 C 412.562 -1.28031 1.37803 0
M  V30 4433 O 411.92 -1.75836 0.441762 0
M  V30 4434 C 411.968 -0.225786 3.59892 0
M  V30 4435 O 411.072 -1.29592 3.91509 0
M  V30 4436 H 410.413 0.0360673 0.66302 0
M  V30 4437 H 412.943 0.729066 1.9117 0
M  V30 4438 H 412.953 -0.450552 4.05505 0
M  V30 4439 H 411.628 0.700944 4.09951 0
M  V30 4440 H 410.205 -1.05436 3.57684 0
M  V30 4441 N 412.39 -1.55475 0.257931 0
M  V30 4442 C 413.615 -2.04064 -0.370488 0
M  V30 4443 C 414.04 -1.13565 -1.49948 0
M  V30 4444 O 413.398 -0.130781 -1.80828 0
M  V30 4445 C 413.446 -3.50554 -0.845237 0
M  V30 4446 O 412.55 -3.63173 -1.95394 0
M  V30 4447 H 411.891 -0.659257 -0.0792243 0
M  V30 4448 H 414.421 -2.00903 0.387212 0
M  V30 4449 H 414.431 -3.91588 -1.14555 0
M  V30 4450 H 413.106 -4.15896 -0.0191259 0
M  V30 4451 H 411.683 -3.34039 -1.65748 0
M  V30 4452 N 413.868 0.0150385 -1.57593 0
M  V30 4453 C 414.8 1.03912 -2.04291 0
M  V30 4454 C 415.813 1.31618 -0.958146 0
M  V30 4455 O 417.002 1.28859 -1.23522 0
M  V30 4456 C 414.102 2.37749 -2.41514 0
M  V30 4457 C 413.275 2.29198 -3.72541 0
M  V30 4458 C 412.334 3.45598 -3.96797 0
M  V30 4459 O 411.36 3.24461 -4.67668 0
M  V30 4460 N 412.562 4.67945 -3.43523 0
M  V30 4461 H 415.327 0.64099 -2.92765 0
M  V30 4462 H 412.888 0.20272 -1.60626 0
M  V30 4463 H 414.88 3.14364 -2.54867 0
M  V30 4464 H 413.45 2.69357 -1.58637 0
M  V30 4465 H 412.67 1.3759 -3.69408 0
M  V30 4466 H 413.958 2.20642 -4.5847 0
M  V30 4467 H 413.356 4.88017 -2.86104 0
M  V30 4468 H 411.913 5.41878 -3.62232 0
M  V30 4469 N 415.346 1.54954 0.287554 0
M  V30 4470 C 416.571 1.79209 1.04397 0
M  V30 4471 C 416.996 0.556431 1.79682 0
M  V30 4472 O 416.354 -0.493518 1.74454 0
M  V30 4473 C 416.402 3.00739 1.98969 0
M  V30 4474 O 415.506 2.74805 3.075 0
M  V30 4475 H 414.847 0.592755 0.299227 0
M  V30 4476 H 417.377 2.02068 0.320886 0
M  V30 4477 H 417.387 3.29077 2.4119 0
M  V30 4478 H 416.062 3.90329 1.43582 0
M  V30 4479 H 414.639 2.57523 2.69697 0
M  V30 4480 N 416.824 -0.551391 1.4764 0
M  V30 4481 C 418.049 -1.33837 1.58437 0
M  V30 4482 C 418.474 -1.866 0.237063 0
M  V30 4483 O 417.832 -1.6328 -0.787994 0
M  V30 4484 C 417.88 -2.48014 2.61766 0
M  V30 4485 O 416.984 -3.50419 2.1744 0
M  V30 4486 H 416.325 -0.397299 0.532024 0
M  V30 4487 H 418.855 -0.665759 1.93465 0
M  V30 4488 H 418.865 -2.94503 2.82369 0
M  V30 4489 H 417.54 -2.08969 3.5959 0
M  V30 4490 H 416.117 -3.10196 2.06961 0
M  V30 4491 N 418.302 -1.35869 -0.798587 0
M  V30 4492 C 419.212 -1.31578 -1.94228 0
M  V30 4493 C 420.228 -0.21939 -1.72611 0
M  V30 4494 O 421.404 -0.450167 -1.96305 0
M  V30 4495 C 418.469 -1.09528 -3.28944 0
M  V30 4496 C 417.53 -2.28556 -3.63402 0
M  V30 4497 C 416.763 -2.07549 -4.9169 0
M  V30 4498 O 416.986 -1.046 -5.60727 0
M  V30 4499 O 415.92 -2.95106 -5.24591 0
M  V30 4500 H 419.746 -2.27847 -2.00796 0
M  V30 4501 H 417.331 -1.16322 -0.937526 0
M  V30 4502 H 419.213 -0.991127 -4.09579 0
M  V30 4503 H 417.888 -0.16315 -3.23289 0
M  V30 4504 H 416.795 -2.44538 -2.83112 0
M  V30 4505 H 418.128 -3.20244 -3.73771 0
M  V30 4506 N 419.78 1.02168 -1.19998 0
M  V30 4507 C 420.728 2.12717 -0.940967 0
M  V30 4508 C 421.722 1.69069 0.105841 0
M  V30 4509 O 422.928 1.79946 -0.0440583 0
M  V30 4510 H 419.303 0.695108 -0.28693 0
M  V30 4511 H 421.274 2.3175 -1.87975 0
M  V30 4512 C 420.023 3.44027 -0.504049 0
M  V30 4513 H 419.346 3.78036 -1.30112 0
M  V30 4514 H 420.786 4.22452 -0.361991 0
M  V30 4515 C 419.245 3.27678 0.782878 0
M  V30 4516 O 419.775 3.56949 1.84256 0
M  V30 4517 N 417.981 2.80943 0.742921 0
M  V30 4518 H 417.528 2.57322 -0.119687 0
M  V30 4519 H 417.486 2.70385 1.60435 0
M  V30 4520 N 421.258 1.00505 1.21394 0
M  V30 4521 C 422.188 0.585684 2.26035 0
M  V30 4522 C 423.169 -0.393525 1.65485 0
M  V30 4523 O 424.354 -0.281497 1.92149 0
M  V30 4524 C 421.484 -0.0884283 3.47187 0
M  V30 4525 C 420.438 0.810567 4.20254 0
M  V30 4526 C 419.764 0.00286382 5.347 0
M  V30 4527 C 421.064 2.1132 4.77641 0
M  V30 4528 H 422.758 1.46039 2.61368 0
M  V30 4529 H 420.304 0.703648 1.25638 0
M  V30 4530 H 422.257 -0.393286 4.19561 0
M  V30 4531 H 420.981 -0.997766 3.10986 0
M  V30 4532 H 419.64 1.09925 3.49731 0
M  V30 4533 H 419.288 -0.907765 4.94741 0
M  V30 4534 H 418.988 0.601444 5.84514 0
M  V30 4535 H 420.512 -0.295808 6.09883 0
M  V30 4536 H 421.926 1.87148 5.41893 0
M  V30 4537 H 420.323 2.66164 5.37845 0
M  V30 4538 H 421.393 2.78393 3.9702 0
M  V30 4539 N 422.737 -1.36956 0.779787 0
M  V30 4540 C 423.647 -2.33965 0.172491 0
M  V30 4541 C 424.663 -1.60574 -0.670222 0
M  V30 4542 O 425.839 -1.92617 -0.588263 0
M  V30 4543 C 422.904 -3.39761 -0.690173 0
M  V30 4544 C 421.965 -4.28964 0.169924 0
M  V30 4545 C 421.198 -5.29707 -0.651662 0
M  V30 4546 O 421.421 -5.38238 -1.88827 0
M  V30 4547 O 420.355 -6.01873 -0.0566264 0
M  V30 4548 H 424.181 -2.87647 0.974321 0
M  V30 4549 H 421.766 -1.39258 0.541078 0
M  V30 4550 H 423.648 -4.04471 -1.1824 0
M  V30 4551 H 422.323 -2.88394 -1.47006 0
M  V30 4552 H 421.23 -3.67326 0.708696 0
M  V30 4553 H 422.563 -4.83656 0.913085 0
M  V30 4554 N 424.215 -0.530993 -1.48385 0
M  V30 4555 C 425.125 0.23503 -2.3342 0
M  V30 4556 C 426.141 0.93801 -1.46552 0
M  V30 4557 O 427.317 0.912745 -1.7953 0
M  V30 4558 C 424.382 1.26778 -3.22689 0
M  V30 4559 C 423.443 0.575038 -4.25431 0
M  V30 4560 C 422.676 1.55858 -5.10435 0
M  V30 4561 O 422.899 2.79129 -4.97437 0
M  V30 4562 O 421.833 1.09742 -5.91811 0
M  V30 4563 H 425.659 -0.461794 -3.00169 0
M  V30 4564 H 423.244 -0.291903 -1.46521 0
M  V30 4565 H 425.126 1.86457 -3.77904 0
M  V30 4566 H 423.801 1.94699 -2.586 0
M  V30 4567 H 422.708 -0.0622782 -3.74048 0
M  V30 4568 H 424.041 -0.062253 -4.92161 0
M  V30 4569 N 425.693 1.55336 -0.266172 0
M  V30 4570 C 426.97 1.91372 0.404486 0
M  V30 4571 C 427.35 1.18935 1.74407 0
M  V30 4572 O 426.698 0.3132 2.26343 0
M  V30 4573 C 426.908 3.44581 0.553593 0
M  V30 4574 C 428.256 4.16196 0.840618 0
M  V30 4575 O 429.28 3.50426 0.638739 0
M  V30 4576 O 428.139 5.32567 1.22618 0
M  V30 4577 H 425.233 0.797194 0.220025 0
M  V30 4578 H 427.779 1.66813 -0.311664 0
M  V30 4579 H 426.551 3.89357 -0.389498 0
M  V30 4580 H 426.174 3.75065 1.31955 0
M  V30 4581 N 427.171 -0.0066808 1.57599 0
M  V30 4582 C 428.134 -0.985035 2.06953 0
M  V30 4583 C 429.134 -1.27663 0.977687 0
M  V30 4584 O 430.324 -1.22293 1.24057 0
M  V30 4585 C 427.456 -2.3118 2.50536 0
M  V30 4586 H 428.649 -0.558255 2.94658 0
M  V30 4587 H 426.202 -0.254011 1.54222 0
M  V30 4588 H 426.937 -2.78561 1.66054 0
M  V30 4589 H 426.722 -2.11338 3.3027 0
M  V30 4590 H 428.212 -3.01377 2.8907 0
M  V30 4591 N 428.649 -1.55105 -0.279332 0
M  V30 4592 C 429.895 -1.75672 -1.01327 0
M  V30 4593 C 430.228 -0.552739 -1.86168 0
M  V30 4594 O 429.503 0.449827 -1.89227 0
M  V30 4595 C 429.786 -3.05825 -1.90114 0
M  V30 4596 C 429.639 -4.36565 -1.08309 0
M  V30 4597 C 430.958 -3.31975 -2.8893 0
M  V30 4598 H 428.077 -0.639149 -0.366957 0
M  V30 4599 H 430.719 -1.87833 -0.286154 0
M  V30 4600 H 428.869 -2.95588 -2.52111 0
M  V30 4601 H 430.541 -4.58751 -0.484314 0
M  V30 4602 H 428.784 -4.32076 -0.386362 0
M  V30 4603 H 429.455 -5.23946 -1.73737 0
M  V30 4604 H 431.931 -3.41963 -2.37067 0
M  V30 4605 H 430.807 -4.2432 -3.48201 0
M  V30 4606 H 431.068 -2.51309 -3.63725 0
M  V30 4607 N 430.127 0.543554 -1.4793 0
M  V30 4608 C 431.357 1.32324 -1.58663 0
M  V30 4609 C 431.765 1.8766 -0.240896 0
M  V30 4610 O 431.108 1.66411 0.778011 0
M  V30 4611 C 431.17 2.52094 -2.56299 0
M  V30 4612 C 430.834 2.17944 -4.01683 0
M  V30 4613 C 431.831 1.74422 -4.89768 0
M  V30 4614 C 429.516 2.28884 -4.47121 0
M  V30 4615 C 431.51 1.42287 -6.21316 0
M  V30 4616 C 429.197 1.96361 -5.78693 0
M  V30 4617 C 430.195 1.53132 -6.65612 0
M  V30 4618 O 429.883 1.21029 -7.94737 0
M  V30 4619 H 429.615 0.409174 -0.538101 0
M  V30 4620 H 432.169 0.663887 -1.94375 0
M  V30 4621 H 430.399 3.20965 -2.15681 0
M  V30 4622 H 432.088 3.14165 -2.57012 0
M  V30 4623 H 432.854 1.65452 -4.55907 0
M  V30 4624 H 428.733 2.61488 -3.79664 0
M  V30 4625 H 432.277 1.08472 -6.89115 0
M  V30 4626 H 428.174 2.04967 -6.12094 0
M  V30 4627 H 428.942 1.34543 -8.07366 0
M  V30 4628 N 431.605 1.3629 0.791371 0
M  V30 4629 C 432.552 1.30458 1.90393 0
M  V30 4630 C 433.522 0.173632 1.6519 0
M  V30 4631 O 434.707 0.35983 1.87376 0
M  V30 4632 C 431.847 1.09777 3.27174 0
M  V30 4633 C 430.96 2.31929 3.64462 0
M  V30 4634 C 430.095 2.04276 4.90352 0
M  V30 4635 C 429.134 3.224 5.20312 0
M  V30 4636 N 428.271 2.94424 6.37385 0
M  V30 4637 H 433.111 2.25589 1.94714 0
M  V30 4638 H 430.648 1.12122 0.952216 0
M  V30 4639 H 432.606 0.958133 4.06049 0
M  V30 4640 H 431.236 0.183014 3.22281 0
M  V30 4641 H 430.288 2.56703 2.80727 0
M  V30 4642 H 431.6 3.20085 3.82553 0
M  V30 4643 H 430.754 1.87231 5.77087 0
M  V30 4644 H 429.493 1.13428 4.74326 0
M  V30 4645 H 428.498 3.40005 4.32061 0
M  V30 4646 H 429.723 4.14071 5.38258 0
M  V30 4647 H 427.669 2.06185 6.22755 0
M  V30 4648 H 427.586 3.76118 6.55798 0
M  V30 4649 H 428.854 2.80953 7.27108 0
M  V30 4650 N 433.083 -1.0153 1.20538 0
M  V30 4651 C 434.311 -1.78746 1.04199 0
M  V30 4652 C 434.726 -1.84323 -0.408733 0
M  V30 4653 O 434.083 -1.29714 -1.28377 0
M  V30 4654 C 434.134 -3.23152 1.62035 0
M  V30 4655 O 433.855 -3.17918 3.0143 0
M  V30 4656 C 435.356 -4.16911 1.50666 0
M  V30 4657 H 432.576 -0.56208 0.366479 0
M  V30 4658 H 435.12 -1.27794 1.59653 0
M  V30 4659 H 433.275 -3.71248 1.10697 0
M  V30 4660 H 433.689 -4.08567 3.28897 0
M  V30 4661 H 435.163 -5.16072 1.95892 0
M  V30 4662 H 435.64 -4.36791 0.459363 0
M  V30 4663 H 436.246 -3.74698 2.01201 0
M  V30 4664 N 434.561 -1.01147 -1.20859 0
M  V30 4665 C 435.511 -0.548247 -2.2131 0
M  V30 4666 C 436.495 0.393646 -1.5601 0
M  V30 4667 O 437.687 0.217445 -1.75659 0
M  V30 4668 C 434.816 0.117252 -3.431 0
M  V30 4669 C 433.902 -0.846043 -4.15575 0
M  V30 4670 N 434.293 -2.00149 -4.64515 0
M  V30 4671 C 432.591 -0.665783 -4.41003 0
M  V30 4672 C 433.292 -2.60764 -5.19978 0
M  V30 4673 N 432.268 -1.88868 -5.09735 0
M  V30 4674 H 436.07 -1.42921 -2.56809 0
M  V30 4675 H 433.584 -0.876142 -1.36739 0
M  V30 4676 H 435.581 0.46662 -4.1428 0
M  V30 4677 H 434.241 0.994115 -3.09107 0
M  V30 4678 H 435.252 -2.38162 -4.5989 0
M  V30 4679 H 431.929 0.163456 -4.1718 0
M  V30 4680 H 433.319 -3.58519 -5.68255 0
M  V30 4681 N 436.039 1.36541 -0.78704 0
M  V30 4682 C 437.285 1.99599 -0.358872 0
M  V30 4683 C 437.618 1.62323 1.06606 0
M  V30 4684 O 436.893 0.876858 1.73613 0
M  V30 4685 C 437.176 3.56327 -0.519944 0
M  V30 4686 C 437.029 4.03464 -1.98839 0
M  V30 4687 C 438.348 4.4005 0.0664737 0
M  V30 4688 H 435.467 0.725107 -0.131869 0
M  V30 4689 H 438.109 1.6199 -0.992936 0
M  V30 4690 H 436.259 3.88495 0.0198321 0
M  V30 4691 H 437.931 3.81793 -2.58905 0
M  V30 4692 H 436.174 3.55092 -2.49183 0
M  V30 4693 H 436.845 5.12439 -2.05207 0
M  V30 4694 H 439.321 4.14228 -0.394267 0
M  V30 4695 H 438.197 5.48847 -0.0762682 0
M  V30 4696 H 438.458 4.26655 1.15835 0
M  V30 4697 N 437.518 0.538854 1.48102 0
M  V30 4698 C 438.428 -0.222648 2.33541 0
M  V30 4699 C 439.444 -0.930225 1.47047 0
M  V30 4700 O 440.62 -0.903211 1.80011 0
M  V30 4701 C 437.685 -1.25064 3.23357 0
M  V30 4702 C 436.746 -0.552469 4.2573 0
M  V30 4703 C 435.979 -1.53149 5.11254 0
M  V30 4704 O 436.202 -2.76487 4.9891 0
M  V30 4705 O 435.136 -1.06602 5.92385 0
M  V30 4706 H 438.962 0.477707 2.99919 0
M  V30 4707 H 436.547 0.299669 1.46364 0
M  V30 4708 H 438.429 -1.8445 3.78888 0
M  V30 4709 H 437.104 -1.93325 2.59629 0
M  V30 4710 H 436.011 0.082114 3.7401 0
M  V30 4711 H 437.344 0.0883526 4.92121 0
M  V30 4712 N 438.996 -1.55193 0.274407 0
M  V30 4713 C 439.943 -2.225 -0.613374 0
M  V30 4714 C 440.913 -1.19823 -1.15029 0
M  V30 4715 O 442.098 -1.48362 -1.19973 0
M  V30 4716 C 439.238 -2.94927 -1.79199 0
M  V30 4717 C 438.351 -4.12322 -1.28899 0
M  V30 4718 C 437.486 -4.72394 -2.42934 0
M  V30 4719 C 436.525 -5.81984 -1.89634 0
M  V30 4720 N 435.662 -6.36123 -2.9714 0
M  V30 4721 H 440.502 -2.97982 -0.032756 0
M  V30 4722 H 438.039 -1.47099 -0.00440146 0
M  V30 4723 H 439.997 -3.35134 -2.48478 0
M  V30 4724 H 438.627 -2.2187 -2.34465 0
M  V30 4725 H 437.679 -3.7724 -0.489327 0
M  V30 4726 H 438.991 -4.91355 -0.858587 0
M  V30 4727 H 438.145 -5.15317 -3.20208 0
M  V30 4728 H 436.884 -3.92636 -2.8929 0
M  V30 4729 H 435.889 -5.38511 -1.1084 0
M  V30 4730 H 437.114 -6.6361 -1.44215 0
M  V30 4731 H 435.06 -5.59259 -3.42878 0
M  V30 4732 H 434.977 -7.10427 -2.58515 0
M  V30 4733 H 436.245 -6.83704 -3.74391 0
M  V30 4734 N 440.474 -0.00167713 -1.576 0
M  V30 4735 C 441.751 0.719951 -1.81868 0
M  V30 4736 C 442.131 1.91895 -0.879747 0
M  V30 4737 O 441.479 2.28389 0.0711423 0
M  V30 4738 C 441.689 1.12409 -3.30402 0
M  V30 4739 C 443.037 1.52724 -3.96182 0
M  V30 4740 O 444.061 1.21784 -3.34734 0
M  V30 4741 O 442.92 2.10265 -5.04431 0
M  V30 4742 H 440.014 0.350707 -0.748955 0
M  V30 4743 H 442.56 -0.0272597 -1.69678 0
M  V30 4744 H 441.332 0.269532 -3.90371 0
M  V30 4745 H 440.955 1.93035 -3.47596 0
M  V30 4746 N 441.952 1.55251 0.271103 0
M  V30 4747 C 443.199 1.75946 1.00245 0
M  V30 4748 C 443.527 0.561611 1.86215 0
M  V30 4749 O 442.782 -0.455832 1.90317 0
M  V30 4750 C 443.081 3.01879 1.91321 0
M  V30 4751 C 442.747 4.34337 1.21086 0
M  V30 4752 C 441.409 4.70338 1.01666 0
M  V30 4753 C 443.761 5.16325 0.71119 0
M  V30 4754 C 441.089 5.8588 0.310099 0
M  V30 4755 C 443.441 6.32597 0.0182157 0
M  V30 4756 C 442.105 6.67236 -0.18768 0
M  V30 4757 H 441.375 0.643833 0.366824 0
M  V30 4758 H 444.022 1.89521 0.27458 0
M  V30 4759 H 442.327 2.83212 2.70736 0
M  V30 4760 H 444.024 3.15088 2.48033 0
M  V30 4761 H 440.614 4.06043 1.37213 0
M  V30 4762 H 444.798 4.88987 0.848844 0
M  V30 4763 H 440.054 6.1124 0.139873 0
M  V30 4764 H 444.228 6.9538 -0.376711 0
M  V30 4765 H 441.855 7.56618 -0.73715 0
M  V30 4766 N 443.43 -0.535701 1.48216 0
M  V30 4767 C 444.679 -1.28828 1.55197 0
M  V30 4768 C 444.992 -1.94263 0.228278 0
M  V30 4769 O 446.198 -2.70927 0.176278 0
M  V30 4770 C 444.654 -2.33727 2.73678 0
M  V30 4771 C 444.262 -1.74386 4.12666 0
M  V30 4772 C 446.006 -3.1003 2.89968 0
M  V30 4773 C 443.913 -2.77192 5.22416 0
M  V30 4774 H 442.843 -0.484484 0.577747 0
M  V30 4775 H 445.494 -0.56646 1.74538 0
M  V30 4776 H 443.876 -3.08919 2.4776 0
M  V30 4777 H 445.05 -1.05421 4.48579 0
M  V30 4778 H 443.365 -1.10595 4.01445 0
M  V30 4779 H 445.962 -3.86842 3.6913 0
M  V30 4780 H 446.305 -3.65542 1.9921 0
M  V30 4781 H 446.838 -2.41952 3.15759 0
M  V30 4782 H 443.577 -2.26507 6.15122 0
M  V30 4783 H 443.097 -3.44502 4.90998 0
M  V30 4784 H 444.776 -3.40285 5.50286 0
M  V30 4785 N 444.908 -1.36708 -0.784132 0
M  V30 4786 C 445.871 -1.31307 -1.87859 0
M  V30 4787 C 446.871 -0.219654 -1.59293 0
M  V30 4788 O 448.061 -0.47476 -1.67606 0
M  V30 4789 C 445.193 -1.03679 -3.24751 0
M  V30 4790 H 446.386 -2.28647 -1.94064 0
M  V30 4791 H 443.939 -1.21558 -0.98252 0
M  V30 4792 H 444.674 -0.0681936 -3.24228 0
M  V30 4793 H 444.459 -1.82811 -3.46876 0
M  V30 4794 H 445.949 -1.02518 -4.04821 0
M  V30 4795 N 446.386 1.0089 -1.21074 0
M  V30 4796 C 447.633 1.74607 -1.0256 0
M  V30 4797 C 447.961 1.89426 0.44136 0
M  V30 4798 O 447.216 1.42266 1.34384 0
M  V30 4799 C 447.515 3.16335 -1.66334 0
M  V30 4800 C 447.181 3.21474 -3.16173 0
M  V30 4801 C 445.843 3.22583 -3.57062 0
M  V30 4802 C 448.195 3.19025 -4.12156 0
M  V30 4803 C 445.523 3.18925 -4.92446 0
M  V30 4804 C 447.875 3.16909 -5.47496 0
M  V30 4805 C 446.539 3.16326 -5.87787 0
M  V30 4806 H 445.809 0.638933 -0.375294 0
M  V30 4807 H 448.456 1.18274 -1.50611 0
M  V30 4808 H 446.761 3.75876 -1.10566 0
M  V30 4809 H 448.458 3.72083 -1.49516 0
M  V30 4810 H 445.048 3.2135 -2.83605 0
M  V30 4811 H 449.232 3.17332 -3.81595 0
M  V30 4812 H 444.488 3.16809 -5.22917 0
M  V30 4813 H 448.662 3.13968 -6.21609 0
M  V30 4814 H 446.289 3.13246 -6.92662 0
M  V30 4815 N 447.864 1.01787 1.20321 0
M  V30 4816 C 449.104 0.716493 1.91431 0
M  V30 4817 C 449.468 -0.740352 1.77152 0
M  V30 4818 O 450.669 -1.1543 2.42754 0
M  V30 4819 C 448.94 1.14169 3.38674 0
M  V30 4820 S 450.499 0.962482 4.28114 0
M  V30 4821 H 447.317 0.261175 0.661293 0
M  V30 4822 H 449.919 1.30539 1.45533 0
M  V30 4823 H 448.623 2.19784 3.46588 0
M  V30 4824 H 448.154 0.545621 3.89598 0
M  V30 4825 H 450.169 -0.133253 4.96021 0
M  V30 4826 N 449.342 -1.36122 0.79427 0
M  V30 4827 C 450.567 -2.03891 0.379871 0
M  V30 4828 C 450.992 -1.59488 -0.997251 0
M  V30 4829 O 450.35 -0.765652 -1.64339 0
M  V30 4830 C 450.398 -3.57687 0.457442 0
M  V30 4831 O 449.502 -4.08931 -0.5338 0
M  V30 4832 H 448.843 -0.6443 0.160541 0
M  V30 4833 H 451.373 -1.73976 1.07673 0
M  V30 4834 H 451.383 -4.06721 0.322792 0
M  V30 4835 H 450.058 -3.89357 1.46199 0
M  V30 4836 H 448.635 -3.71154 -0.360409 0
M  V30 4837 N 450.82 -0.546701 -1.47814 0
M  V30 4838 C 452.045 -0.021268 -2.07389 0
M  V30 4839 C 452.47 1.25822 -1.39822 0
M  V30 4840 O 451.828 1.75111 -0.46968 0
M  V30 4841 C 451.876 0.168502 -3.60206 0
M  V30 4842 O 450.98 1.23347 -3.93522 0
M  V30 4843 H 450.321 -0.0466108 -0.662362 0
M  V30 4844 H 452.851 -0.759387 -1.89985 0
M  V30 4845 H 452.861 0.385982 -4.0617 0
M  V30 4846 H 451.536 -0.766075 -4.08784 0
M  V30 4847 H 450.113 0.997319 -3.59316 0
M  V30 4848 N 452.299 1.55045 -0.282633 0
M  V30 4849 C 453.527 2.04168 0.33512 0
M  V30 4850 C 453.942 1.16071 1.48906 0
M  V30 4851 O 453.299 0.182391 1.81586 0
M  V30 4852 C 453.35 3.52332 0.808957 0
M  V30 4853 O 453.071 4.37078 -0.299038 0
M  V30 4854 C 454.572 4.17375 1.49375 0
M  V30 4855 H 451.792 0.666744 0.0754543 0
M  V30 4856 H 454.336 2.00205 -0.416918 0
M  V30 4857 H 452.491 3.56715 1.51106 0
M  V30 4858 H 452.905 5.24458 0.0665514 0
M  V30 4859 H 454.379 5.22627 1.77664 0
M  V30 4860 H 454.856 3.65999 2.42778 0
M  V30 4861 H 455.462 4.17016 0.835305 0
M  V30 4862 N 453.777 0.010035 1.57597 0
M  V30 4863 C 455.188 -0.531426 1.78977 0
M  V30 4864 C 455.539 -1.73375 0.918454 0
M  V30 4865 O 454.664 -2.16047 0.123635 0
M  V30 4866 C 455.259 -0.97086 3.24592 0
M  V30 4867 C 453.818 -1.45756 3.47033 0
M  V30 4868 C 452.965 -0.413384 2.74201 0
M  V30 4869 H 455.916 0.236166 1.56933 0
M  V30 4870 H 455.937 -1.83633 3.33255 0
M  V30 4871 H 455.449 -0.0955893 3.87982 0
M  V30 4872 H 453.55 -2.35339 2.88871 0
M  V30 4873 H 453.663 -1.4781 4.55729 0
M  V30 4874 H 452.027 -0.877266 2.39115 0
M  V30 4875 H 452.81 0.453092 3.40297 0
M  V30 4876 N 455.255 -1.55392 -0.262866 0
M  V30 4877 C 456.205 -1.85355 -1.32768 0
M  V30 4878 C 457.189 -0.713188 -1.44231 0
M  V30 4879 O 458.381 -0.974765 -1.47741 0
M  V30 4880 C 455.51 -2.13781 -2.68612 0
M  V30 4881 C 454.596 -3.34104 -2.61219 0
M  V30 4882 N 454.987 -4.53766 -2.2345 0
M  V30 4883 C 453.285 -3.36895 -2.92263 0
M  V30 4884 C 453.986 -5.35877 -2.26298 0
M  V30 4885 N 452.962 -4.74536 -2.65172 0
M  V30 4886 H 456.764 -2.75413 -1.02591 0
M  V30 4887 H 454.278 -1.55405 -0.471503 0
M  V30 4888 H 456.275 -2.33407 -3.45437 0
M  V30 4889 H 454.935 -1.25013 -2.99669 0
M  V30 4890 H 455.946 -4.79682 -1.95258 0
M  V30 4891 H 452.623 -2.58351 -3.27965 0
M  V30 4892 H 454.013 -6.41577 -1.99572 0
M  V30 4893 N 456.733 0.527833 -1.48498 0
M  V30 4894 C 457.681 1.65313 -1.63628 0
M  V30 4895 C 458.675 1.6177 -0.502676 0
M  V30 4896 O 459.881 1.66601 -0.681469 0
M  V30 4897 H 456.256 0.547518 -0.515488 0
M  V30 4898 H 458.227 1.49696 -2.58135 0
M  V30 4899 C 456.976 3.03576 -1.6952 0
M  V30 4900 H 456.299 3.06997 -2.56111 0
M  V30 4901 H 457.739 3.81923 -1.84149 0
M  V30 4902 C 456.198 3.34089 -0.43432 0
M  V30 4903 O 456.728 3.99151 0.451852 0
M  V30 4904 N 454.934 2.88991 -0.305368 0
M  V30 4905 H 454.481 2.36222 -1.02747 0
M  V30 4906 H 454.439 3.09776 0.537249 0
M  V30 4907 N 458.211 1.37122 0.776871 0
M  V30 4908 C 459.457 1.32243 1.53752 0
M  V30 4909 C 459.79 -0.0944745 1.9397 0
M  V30 4910 O 459.065 -1.05068 1.6368 0
M  V30 4911 C 459.348 2.25681 2.80607 0
M  V30 4912 C 459.201 3.76127 2.46676 0
M  V30 4913 C 460.52 2.17657 3.82509 0
M  V30 4914 H 457.639 0.481704 0.557791 0
M  V30 4915 H 460.281 1.6778 0.891612 0
M  V30 4916 H 458.431 1.95505 3.35723 0
M  V30 4917 H 460.103 4.16877 1.97513 0
M  V30 4918 H 458.346 3.94946 1.79443 0
M  V30 4919 H 459.017 4.36933 3.37333 0
M  V30 4920 H 461.493 2.44245 3.36873 0
M  V30 4921 H 460.369 2.85185 4.69 0
M  V30 4922 H 460.63 1.16785 4.26396 0
M  V30 4923 N 459.689 -1.00246 1.21608 0
M  V30 4924 C 460.914 -1.78167 1.06167 0
M  V30 4925 C 461.339 -1.84138 -0.384035 0
M  V30 4926 O 460.697 -1.28683 -1.27712 0
M  V30 4927 C 460.745 -3.19786 1.66642 0
M  V30 4928 O 459.849 -4.02153 0.913613 0
M  V30 4929 H 459.19 -0.549 0.37349 0
M  V30 4930 H 461.72 -1.25994 1.61204 0
M  V30 4931 H 461.73 -3.70451 1.70969 0
M  V30 4932 H 460.405 -3.14754 2.7185 0
M  V30 4933 H 458.982 -3.60711 0.945635 0
M  V30 4934 N 461.167 -1.02423 -1.1978 0
M  V30 4935 C 462.413 -0.72878 -1.89896 0
M  V30 4936 C 462.768 0.734248 -1.77839 0
M  V30 4937 O 462.061 1.52733 -1.15685 0
M  V30 4938 C 462.255 -1.1088 -3.39765 0
M  V30 4939 C 462.084 -2.60722 -3.66407 0
M  V30 4940 C 460.854 -3.27623 -3.84696 0
M  V30 4941 C 463.052 -3.58924 -3.68345 0
M  V30 4942 N 461.034 -4.66617 -3.98926 0
M  V30 4943 C 462.405 -4.83514 -3.8809 0
M  V30 4944 C 464.46 -3.52788 -3.51347 0
M  V30 4945 C 463.163 -6.0271 -3.92598 0
M  V30 4946 C 465.189 -4.71394 -3.5713 0
M  V30 4947 C 464.551 -5.94796 -3.77356 0
M  V30 4948 H 460.65 -0.318473 -0.714212 0
M  V30 4949 H 463.234 -1.3106 -1.43984 0
M  V30 4950 H 461.405 -0.555233 -3.84411 0
M  V30 4951 H 463.137 -0.766082 -3.97383 0
M  V30 4952 H 459.892 -2.7804 -3.83393 0
M  V30 4953 H 460.316 -5.38805 -4.099 0
M  V30 4954 H 464.958 -2.58372 -3.3467 0
M  V30 4955 H 462.676 -6.97499 -4.08069 0
M  V30 4956 H 466.262 -4.6827 -3.45275 0
M  V30 4957 H 465.142 -6.85037 -3.81699 0
M  V30 4958 N 462.645 1.35699 -0.801477 0
M  V30 4959 C 464.061 1.52065 -0.484596 0
M  V30 4960 C 464.261 1.75215 0.995084 0
M  V30 4961 O 463.317 1.79061 1.78026 0
M  V30 4962 C 464.63 2.69908 -1.32552 0
M  V30 4963 C 466.178 2.83784 -1.32044 0
M  V30 4964 C 466.653 4.04646 -2.14536 0
M  V30 4965 N 468.144 4.11814 -2.12046 0
M  V30 4966 C 468.879 5.04437 -2.72636 0
M  V30 4967 N 468.375 6.02426 -3.42133 0
M  V30 4968 N 470.168 4.97144 -2.62305 0
M  V30 4969 H 462.319 1.18928 -1.75983 0
M  V30 4970 H 464.582 0.581455 -0.748741 0
M  V30 4971 H 464.288 2.59363 -2.37537 0
M  V30 4972 H 464.162 3.64376 -0.975181 0
M  V30 4973 H 466.549 2.93783 -0.27846 0
M  V30 4974 H 466.63 1.90188 -1.71062 0
M  V30 4975 H 466.274 3.95407 -3.18772 0
M  V30 4976 H 466.204 4.97413 -1.72882 0
M  V30 4977 H 468.695 3.41664 -1.61476 0
M  V30 4978 H 469.008 6.69688 -3.85666 0
M  V30 4979 H 467.353 6.02615 -3.46237 0
M  V30 4980 H 470.544 4.19546 -2.07603 0
M  V30 4981 H 470.717 5.69138 -3.09815 0
M  V30 4982 N 464.123 0.554532 1.47522 0
M  V30 4983 C 465.4 -0.0360704 1.95567 0
M  V30 4984 C 465.78 -1.48828 1.49711 0
M  V30 4985 O 465.128 -2.16366 0.734717 0
M  V30 4986 C 465.338 0.106631 3.48837 0
M  V30 4987 C 466.686 -0.0400899 4.24581 0
M  V30 4988 O 467.71 0.0340453 3.56184 0
M  V30 4989 O 466.569 -0.199111 5.46137 0
M  V30 4990 H 463.663 -0.0656294 0.824392 0
M  V30 4991 H 466.209 0.620867 1.57935 0
M  V30 4992 H 464.981 1.11727 3.7501 0
M  V30 4993 H 464.604 -0.58804 3.93227 0
M  V30 4994 N 465.601 -1.54893 0.290851 0
M  V30 4995 C 466.826 -2.04804 -0.32712 0
M  V30 4996 C 467.251 -1.16721 -1.47506 0
M  V30 4997 O 466.609 -0.169107 -1.8051 0
M  V30 4998 C 466.657 -3.52268 -0.770689 0
M  V30 4999 O 465.761 -3.67236 -1.87647 0
M  V30 5000 H 465.102 -0.660789 -0.0652227 0
M  V30 5001 H 467.632 -2.00036 0.429739 0
M  V30 5002 H 467.642 -3.9393 -1.06223 0
M  V30 5003 H 466.317 -4.15843 0.069096 0
M  V30 5004 H 464.894 -3.37479 -1.58626 0
M  V30 5005 N 467.08 -0.0183926 -1.57589 0
M  V30 5006 C 468.308 0.673046 -1.95647 0
M  V30 5007 C 468.723 1.66275 -0.894312 0
M  V30 5008 O 468.08 1.82072 0.124975 0
M  V30 5009 C 468.131 1.38884 -3.33756 0
M  V30 5010 O 467.852 0.438806 -4.35897 0
M  V30 5011 C 469.353 2.1731 -3.86383 0
M  V30 5012 H 466.573 0.186292 -0.644621 0
M  V30 5013 H 469.117 -0.0749748 -2.04363 0
M  V30 5014 H 467.272 2.08835 -3.26293 0
M  V30 5015 H 467.686 0.945869 -5.15901 0
M  V30 5016 H 469.16 2.62863 -4.85394 0
M  V30 5017 H 469.637 3.00764 -3.20059 0
M  V30 5018 H 470.243 1.52339 -3.97081 0
M  V30 5019 N 468.558 1.5553 0.254621 0
M  V30 5020 C 469.491 1.84624 1.34124 0
M  V30 5021 C 470.469 0.700693 1.46728 0
M  V30 5022 O 471.653 0.94564 1.63064 0
M  V30 5023 C 468.78 2.02412 2.71564 0
M  V30 5024 C 467.826 3.25028 2.7615 0
M  V30 5025 S 468.659 4.81893 2.33538 0
M  V30 5026 C 469.815 5.02677 3.72917 0
M  V30 5027 H 470.048 2.76501 1.09245 0
M  V30 5028 H 467.581 1.47537 0.455211 0
M  V30 5029 H 469.539 2.13345 3.50705 0
M  V30 5030 H 468.2 1.11391 2.93685 0
M  V30 5031 H 467.393 3.34418 3.77069 0
M  V30 5032 H 466.995 3.12781 2.05046 0
M  V30 5033 H 469.287 4.89546 4.68349 0
M  V30 5034 H 470.23 6.0468 3.68467 0
M  V30 5035 H 470.638 4.30561 3.65072 0
M  V30 5036 N 470.036 -0.519951 1.48776 0
M  V30 5037 C 471.284 -1.2727 1.56993 0
M  V30 5038 C 471.605 -1.9339 0.25004 0
M  V30 5039 O 470.875 -1.81822 -0.729216 0
M  V30 5040 H 469.455 -0.472732 0.578389 0
M  V30 5041 H 472.117 -0.604234 1.85297 0
M  V30 5042 H 471.213 -2.04669 2.3562 0
M  V30 5043 N 471.514 -1.37532 -0.769588 0
M  V30 5044 C 472.739 -1.36231 -1.56384 0
M  V30 5045 C 473.164 0.0495849 -1.88035 0
M  V30 5046 O 472.522 1.02723 -1.49391 0
M  V30 5047 C 472.57 -2.20986 -2.84952 0
M  V30 5048 O 471.674 -1.61597 -3.79421 0
M  V30 5049 H 471.015 -0.465387 -0.473615 0
M  V30 5050 H 473.545 -1.81085 -0.952342 0
M  V30 5051 H 473.555 -2.34277 -3.34034 0
M  V30 5052 H 472.23 -3.23612 -2.61243 0
M  V30 5053 H 470.807 -1.57359 -3.38072 0
M  V30 5054 N 472.992 0.995999 -1.22138 0
M  V30 5055 C 474.241 1.72928 -1.03821 0
M  V30 5056 C 474.554 1.90872 0.427444 0
M  V30 5057 O 475.76 2.61496 0.730212 0
M  V30 5058 C 474.216 3.11124 -1.80913 0
M  V30 5059 C 473.824 3.01122 -3.31707 0
M  V30 5060 C 475.568 3.8852 -1.71035 0
M  V30 5061 C 473.475 4.34453 -4.01253 0
M  V30 5062 H 472.405 0.648376 -0.384869 0
M  V30 5063 H 475.056 1.11213 -1.45959 0
M  V30 5064 H 473.438 3.73503 -1.31573 0
M  V30 5065 H 474.612 2.47926 -3.88419 0
M  V30 5066 H 472.927 2.3721 -3.42228 0
M  V30 5067 H 475.524 4.872 -2.20318 0
M  V30 5068 H 475.867 4.1087 -0.670196 0
M  V30 5069 H 476.4 3.32812 -2.17902 0
M  V30 5070 H 473.139 4.17303 -5.05508 0
M  V30 5071 H 472.659 4.87574 -3.49331 0
M  V30 5072 H 474.338 5.03215 -4.06674 0
M  V30 5073 N 474.47 1.03057 1.19235 0
M  V30 5074 C 475.717 0.728019 1.88961 0
M  V30 5075 C 476.045 -0.743515 1.79728 0
M  V30 5076 O 475.3 -1.55729 1.1852 0
M  V30 5077 C 475.599 1.1268 3.39172 0
M  V30 5078 C 475.265 2.5969 3.68608 0
M  V30 5079 C 473.927 2.99854 3.76352 0
M  V30 5080 C 476.279 3.54793 3.81801 0
M  V30 5081 C 473.607 4.34031 3.94758 0
M  V30 5082 C 475.959 4.88675 4.0172 0
M  V30 5083 C 474.623 5.28526 4.07697 0
M  V30 5084 H 473.893 0.266401 0.691456 0
M  V30 5085 H 476.54 1.29373 1.41191 0
M  V30 5086 H 474.845 0.479722 3.88852 0
M  V30 5087 H 476.542 0.870203 3.91444 0
M  V30 5088 H 473.132 2.27575 3.63191 0
M  V30 5089 H 477.316 3.24914 3.7516 0
M  V30 5090 H 472.572 4.6444 3.97625 0
M  V30 5091 H 476.746 5.6228 4.1087 0
M  V30 5092 H 474.373 6.32506 4.21712 0
M  V30 5093 N 475.948 -1.35272 0.808662 0
M  V30 5094 C 477.197 -1.97963 0.386483 0
M  V30 5095 C 477.51 -1.64866 -1.05255 0
M  V30 5096 O 478.716 -2.20937 -1.57794 0
M  V30 5097 C 477.172 -3.54162 0.640096 0
M  V30 5098 C 476.78 -3.96166 2.0918 0
M  V30 5099 C 478.524 -4.23553 0.283376 0
M  V30 5100 C 476.431 -5.4522 2.29106 0
M  V30 5101 H 475.361 -0.740742 0.140774 0
M  V30 5102 H 478.012 -1.5431 0.993012 0
M  V30 5103 H 476.394 -3.95983 -0.0364117 0
M  V30 5104 H 477.568 -3.65491 2.80629 0
M  V30 5105 H 475.883 -3.3967 2.40859 0
M  V30 5106 H 478.48 -5.33124 0.410273 0
M  V30 5107 H 478.823 -4.09105 -0.770659 0
M  V30 5108 H 479.356 -3.8716 0.913884 0
M  V30 5109 H 476.095 -5.64638 3.32962 0
M  V30 5110 H 475.615 -5.77457 1.62184 0
M  V30 5111 H 477.294 -6.1171 2.1076 0
M  V30 5112 N 477.426 -0.562348 -1.47226 0
M  V30 5113 C 478.654 -0.0452275 -2.06851 0
M  V30 5114 C 479.069 1.25078 -1.41424 0
M  V30 5115 O 478.426 1.75156 -0.512513 0
M  V30 5116 C 478.477 0.148674 -3.61194 0
M  V30 5117 O 478.198 -1.09602 -4.24169 0
M  V30 5118 C 479.699 0.702488 -4.37699 0
M  V30 5119 H 476.919 -0.0481775 -0.669268 0
M  V30 5120 H 479.463 -0.777223 -1.89155 0
M  V30 5121 H 477.618 0.830817 -3.78386 0
M  V30 5122 H 478.032 -0.896982 -5.16773 0
M  V30 5123 H 479.506 0.78743 -5.46355 0
M  V30 5124 H 479.983 1.71493 -4.04335 0
M  V30 5125 H 480.589 0.0558772 -4.25263 0
M  V30 5126 N 478.904 1.54736 -0.299062 0
M  V30 5127 C 479.836 2.20891 0.61153 0
M  V30 5128 C 480.849 1.20104 1.09904 0
M  V30 5129 O 482.038 1.46707 1.01683 0
M  V30 5130 C 479.138 2.84018 1.84897 0
M  V30 5131 C 478.311 4.10719 1.50428 0
M  V30 5132 C 477.37 4.57667 2.59667 0
M  V30 5133 O 476.396 5.2291 2.24842 0
M  V30 5134 N 477.598 4.29821 3.90172 0
M  V30 5135 H 480.363 2.99666 0.0452001 0
M  V30 5136 H 477.924 1.61446 -0.121178 0
M  V30 5137 H 479.916 3.1236 2.5732 0
M  V30 5138 H 478.486 2.09095 2.32375 0
M  V30 5139 H 477.706 3.89408 0.612781 0
M  V30 5140 H 478.994 4.93223 1.24934 0
M  V30 5141 H 478.392 3.77549 4.21276 0
M  V30 5142 H 476.949 4.62877 4.58899 0
M  V30 5143 N 480.382 0.0267497 1.57577 0
M  V30 5144 C 481.312 -0.954308 2.13108 0
M  V30 5145 C 482.293 -1.34088 1.04663 0
M  V30 5146 O 483.478 -1.41992 1.32484 0
M  V30 5147 C 480.608 -2.23744 2.65624 0
M  V30 5148 C 479.562 -1.99168 3.78835 0
M  V30 5149 C 478.888 -3.33726 4.17769 0
M  V30 5150 C 480.188 -1.33277 5.0501 0
M  V30 5151 H 481.882 -0.491848 2.95332 0
M  V30 5152 H 479.428 -0.23514 1.42067 0
M  V30 5153 H 481.381 -2.92754 3.03106 0
M  V30 5154 H 480.105 -2.72151 1.80558 0
M  V30 5155 H 478.764 -1.32577 3.41788 0
M  V30 5156 H 478.412 -3.79888 3.29688 0
M  V30 5157 H 478.112 -3.18089 4.94058 0
M  V30 5158 H 479.636 -4.04008 4.57832 0
M  V30 5159 H 481.05 -1.92283 5.40093 0
M  V30 5160 H 479.447 -1.28045 5.8628 0
M  V30 5161 H 480.517 -0.305411 4.83937 0
M  V30 5162 N 481.861 -1.55662 -0.24637 0
M  V30 5163 C 483.11 -1.7672 -0.972254 0
M  V30 5164 C 483.423 -0.59078 -1.86465 0
M  V30 5165 O 484.629 -0.684391 -2.62732 0
M  V30 5166 C 483.085 -3.12869 -1.7788 0
M  V30 5167 C 482.693 -4.38161 -0.933768 0
M  V30 5168 C 484.437 -3.43265 -2.49738 0
M  V30 5169 C 482.344 -5.6534 -1.73623 0
M  V30 5170 H 481.274 -0.658795 -0.366749 0
M  V30 5171 H 483.925 -1.82092 -0.226902 0
M  V30 5172 H 482.307 -3.01606 -2.56612 0
M  V30 5173 H 483.481 -4.60413 -0.188736 0
M  V30 5174 H 481.796 -4.15102 -0.328488 0
M  V30 5175 H 484.393 -4.35501 -3.10231 0
M  V30 5176 H 484.736 -2.64614 -3.2138 0
M  V30 5177 H 485.269 -3.55746 -1.78016 0
M  V30 5178 H 482.008 -6.46814 -1.06354 0
M  V30 5179 H 481.528 -5.47188 -2.45653 0
M  V30 5180 H 483.207 -6.04616 -2.30323 0
M  V30 5181 N 483.339 0.512053 -1.4905 0
M  V30 5182 C 484.567 1.29116 -1.61669 0
M  V30 5183 C 484.982 1.86655 -0.283787 0
M  V30 5184 O 484.339 1.67293 0.729331 0
M  V30 5185 C 484.39 2.4293 -2.67707 0
M  V30 5186 O 484.111 1.87758 -3.95826 0
M  V30 5187 C 485.612 3.34476 -2.90931 0
M  V30 5188 H 482.832 0.392009 -0.544583 0
M  V30 5189 H 485.376 0.615881 -1.95006 0
M  V30 5190 H 483.531 3.06308 -2.37179 0
M  V30 5191 H 483.945 2.62393 -4.54148 0
M  V30 5192 H 485.419 4.10642 -3.68886 0
M  V30 5193 H 485.896 3.90801 -2.00427 0
M  V30 5194 H 486.502 2.76874 -3.22832 0
M  V30 5195 N 484.817 1.37938 0.762283 0
M  V30 5196 C 486.057 1.35076 1.53407 0
M  V30 5197 C 486.421 -0.061546 1.91901 0
M  V30 5198 O 487.622 -0.214973 2.67939 0
M  V30 5199 C 485.893 2.27206 2.75884 0
M  V30 5200 S 487.452 2.42283 3.65848 0
M  V30 5201 H 484.27 0.479387 0.52508 0
M  V30 5202 H 486.872 1.7378 0.895586 0
M  V30 5203 H 485.576 3.28724 2.457 0
M  V30 5204 H 485.107 1.8962 3.44685 0
M  V30 5205 H 487.122 1.64044 4.68299 0
M  V30 5206 N 486.295 -0.989507 1.22664 0
M  V30 5207 C 487.542 -1.72953 1.05325 0
M  V30 5208 C 487.87 -1.90104 -0.411168 0
M  V30 5209 O 487.125 -1.44386 -1.32103 0
M  V30 5210 C 487.424 -3.13649 1.71345 0
M  V30 5211 C 487.09 -3.16403 3.21248 0
M  V30 5212 C 485.752 -3.16862 3.62149 0
M  V30 5213 C 488.104 -3.12428 4.17179 0
M  V30 5214 C 485.432 -3.11051 4.97458 0
M  V30 5215 C 487.784 -3.08159 5.52468 0
M  V30 5216 C 486.448 -3.06935 5.92746 0
M  V30 5217 H 485.718 -0.632881 0.385412 0
M  V30 5218 H 488.365 -1.15863 1.52473 0
M  V30 5219 H 486.67 -3.74069 1.16532 0
M  V30 5220 H 488.367 -3.69658 1.55416 0
M  V30 5221 H 484.957 -3.16798 2.88682 0
M  V30 5222 H 489.141 -3.11221 3.86595 0
M  V30 5223 H 484.397 -3.0845 5.27891 0
M  V30 5224 H 488.571 -3.04039 6.26525 0
M  V30 5225 H 486.198 -3.02186 6.97558 0
M  V30 5226 N 487.773 -1.03688 -1.18687 0
M  V30 5227 C 488.705 -0.582696 -2.21669 0
M  V30 5228 C 489.718 0.345656 -1.59088 0
M  V30 5229 O 490.907 0.140776 -1.77944 0
M  V30 5230 C 488.007 0.169204 -3.38477 0
M  V30 5231 C 487.18 -0.766079 -4.30639 0
M  V30 5232 C 486.239 -0.0581541 -5.26168 0
M  V30 5233 O 485.265 -0.687346 -5.65035 0
M  V30 5234 N 486.467 1.20981 -5.67753 0
M  V30 5235 H 489.232 -1.46843 -2.61261 0
M  V30 5236 H 486.793 -0.916896 -1.33434 0
M  V30 5237 H 488.785 0.652543 -3.99405 0
M  V30 5238 H 487.355 0.956435 -2.97609 0
M  V30 5239 H 486.575 -1.42935 -3.67373 0
M  V30 5240 H 487.863 -1.40146 -4.89118 0
M  V30 5241 H 487.261 1.74159 -5.38224 0
M  V30 5242 H 485.818 1.6375 -6.30896 0
M  V30 5243 N 489.251 1.34841 -0.815825 0
M  V30 5244 C 490.198 2.29644 -0.230664 0
M  V30 5245 C 491.168 1.53253 0.640533 0
M  V30 5246 O 492.353 1.81653 0.583672 0
M  V30 5247 C 489.493 3.39715 0.607275 0
M  V30 5248 C 488.606 4.31056 -0.28538 0
M  V30 5249 C 487.741 5.28225 0.561446 0
M  V30 5250 C 486.78 6.11204 -0.331035 0
M  V30 5251 N 485.917 7.00483 0.476302 0
M  V30 5252 H 490.757 2.79095 -1.0445 0
M  V30 5253 H 488.294 1.37351 -0.526595 0
M  V30 5254 H 490.252 4.02208 1.10835 0
M  V30 5255 H 488.882 2.91517 1.38629 0
M  V30 5256 H 487.934 3.69487 -0.904621 0
M  V30 5257 H 489.246 4.89239 -0.97193 0
M  V30 5258 H 488.4 5.96135 1.12728 0
M  V30 5259 H 487.139 4.70562 1.28153 0
M  V30 5260 H 486.144 5.42232 -0.909069 0
M  V30 5261 H 487.369 6.70947 -1.04912 0
M  V30 5262 H 485.315 6.45296 1.18019 0
M  V30 5263 H 485.232 7.55847 -0.152008 0
M  V30 5264 H 486.5 7.7273 1.02512 0
M  V30 5265 N 490.729 0.570148 1.46925 0
M  V30 5266 C 491.959 0.0561151 2.06524 0
M  V30 5267 C 492.367 -1.24874 1.42137 0
M  V30 5268 O 491.71 -1.76292 0.516417 0
M  V30 5269 C 491.772 -0.197035 3.5896 0
M  V30 5270 C 491.436 1.02033 4.45464 0
M  V30 5271 C 492.433 1.92921 4.82781 0
M  V30 5272 C 490.118 1.23864 4.86788 0
M  V30 5273 C 492.112 3.03999 5.60235 0
M  V30 5274 C 489.799 2.35249 5.64004 0
M  V30 5275 C 490.797 3.25146 6.0064 0
M  V30 5276 O 490.485 4.34598 6.76299 0
M  V30 5277 H 490.217 0.0487409 0.674241 0
M  V30 5278 H 492.771 0.786915 1.89728 0
M  V30 5279 H 491.001 -0.982299 3.74016 0
M  V30 5280 H 492.69 -0.658032 4.00531 0
M  V30 5281 H 493.456 1.77265 4.51444 0
M  V30 5282 H 489.335 0.54805 4.57731 0
M  V30 5283 H 492.879 3.74192 5.8875 0
M  V30 5284 H 488.776 2.50873 5.94755 0
M  V30 5285 H 489.544 4.32808 6.94708 0
M  V30 5286 N 492.207 -1.54576 0.307264 0
M  V30 5287 C 493.432 -2.05139 -0.305379 0
M  V30 5288 C 493.857 -1.18278 -1.46259 0
M  V30 5289 O 493.215 -0.188243 -1.8032 0
M  V30 5290 C 493.263 -3.53066 -0.733283 0
M  V30 5291 O 492.367 -3.69206 -1.83741 0
M  V30 5292 H 491.708 -0.661444 -0.0582105 0
M  V30 5293 H 494.238 -1.99569 0.450931 0
M  V30 5294 H 494.248 -3.95034 -1.02039 0
M  V30 5295 H 492.923 -4.15746 0.113198 0
M  V30 5296 H 491.5 -3.39143 -1.55037 0
M  V30 5297 N 493.685 -0.035106 -1.57561 0
M  V30 5298 C 494.931 0.637362 -1.93156 0
M  V30 5299 C 495.286 1.69391 -0.912392 0
M  V30 5300 O 494.579 1.91469 0.070735 0
M  V30 5301 C 494.773 1.29149 -3.3325 0
M  V30 5302 C 494.602 0.29983 -4.48699 0
M  V30 5303 C 493.372 -0.102454 -5.05196 0
M  V30 5304 C 495.57 -0.448297 -5.12342 0
M  V30 5305 N 493.552 -1.08866 -6.0417 0
M  V30 5306 C 494.923 -1.28807 -6.06472 0
M  V30 5307 C 496.978 -0.508351 -4.95298 0
M  V30 5308 C 495.681 -2.18248 -6.85391 0
M  V30 5309 C 497.707 -1.39013 -5.7483 0
M  V30 5310 C 497.069 -2.21766 -6.6858 0
M  V30 5311 H 493.168 0.205358 -0.754554 0
M  V30 5312 H 495.752 -0.103682 -1.94424 0
M  V30 5313 H 493.923 2.00264 -3.3279 0
M  V30 5314 H 495.655 1.92147 -3.56177 0
M  V30 5315 H 492.41 0.273223 -4.72811 0
M  V30 5316 H 492.834 -1.57817 -6.58348 0
M  V30 5317 H 497.476 0.117197 -4.22638 0
M  V30 5318 H 495.194 -2.81855 -7.57353 0
M  V30 5319 H 498.78 -1.44096 -5.63673 0
M  V30 5320 H 497.66 -2.88892 -7.29048 0
M  V30 5321 N 495.163 1.55791 0.238111 0
M  V30 5322 C 496.403 1.79801 0.972163 0
M  V30 5323 C 496.767 0.606027 1.82185 0
M  V30 5324 O 497.968 0.725079 2.58836 0
M  V30 5325 C 496.239 3.08608 1.80266 0
M  V30 5326 S 497.798 3.53872 2.59461 0
M  V30 5327 H 494.616 0.631418 0.326852 0
M  V30 5328 H 497.218 1.94031 0.239212 0
M  V30 5329 H 495.922 3.93419 1.1683 0
M  V30 5330 H 495.453 2.9714 2.57821 0
M  V30 5331 H 497.468 3.15899 3.82651 0
M  V30 5332 N 496.642 -0.504142 1.49319 0
M  V30 5333 C 497.882 -1.26867 1.60263 0
M  V30 5334 C 498.246 -1.89924 0.281578 0
M  V30 5335 O 499.447 -2.67479 0.266176 0
M  V30 5336 C 497.718 -2.30956 2.72753 0
M  V30 5337 S 499.277 -3.1679 3.03628 0
M  V30 5338 H 496.095 -0.431198 0.565322 0
M  V30 5339 H 498.697 -0.571407 1.86963 0
M  V30 5340 H 497.401 -1.83156 3.67263 0
M  V30 5341 H 496.932 -3.05356 2.48035 0
M  V30 5342 H 498.947 -4.31549 2.44908 0
M  V30 5343 N 498.12 -1.38341 -0.754957 0
M  V30 5344 C 499.07 -1.31964 -1.85929 0
M  V30 5345 C 500.054 -0.204181 -1.59599 0
M  V30 5346 O 501.246 -0.440036 -1.71443 0
M  V30 5347 C 498.375 -1.14565 -3.2362 0
M  V30 5348 C 497.461 -2.30727 -3.55846 0
M  V30 5349 N 497.852 -3.56165 -3.59138 0
M  V30 5350 C 496.15 -2.23249 -3.86104 0
M  V30 5351 C 496.851 -4.32865 -3.88591 0
M  V30 5352 N 495.827 -3.62203 -4.05351 0
M  V30 5353 H 499.629 -2.2694 -1.8675 0
M  V30 5354 H 497.143 -1.31553 -0.952243 0
M  V30 5355 H 499.14 -1.0808 -4.02647 0
M  V30 5356 H 497.8 -0.205212 -3.24051 0
M  V30 5357 H 498.811 -3.89854 -3.40932 0
M  V30 5358 H 495.488 -1.37357 -3.94258 0
M  V30 5359 H 496.878 -5.41504 -3.97773 0
M  V30 5360 N 499.598 0.982988 -1.23187 0
M  V30 5361 C 500.528 2.09301 -1.03515 0
M  V30 5362 C 501.509 1.70035 0.0471136 0
M  V30 5363 O 502.694 1.93847 -0.117029 0
M  V30 5364 C 499.824 3.4167 -0.622791 0
M  V30 5365 C 498.778 3.94828 -1.65211 0
M  V30 5366 C 498.104 5.23362 -1.09527 0
M  V30 5367 C 499.404 4.2439 -3.04451 0
M  V30 5368 H 501.098 2.26016 -1.96359 0
M  V30 5369 H 498.644 1.08611 -0.945501 0
M  V30 5370 H 500.597 4.18746 -0.472233 0
M  V30 5371 H 499.321 3.24811 0.341329 0
M  V30 5372 H 497.98 3.19895 -1.79061 0
M  V30 5373 H 497.628 5.02852 -0.122211 0
M  V30 5374 H 497.328 5.59895 -1.783 0
M  V30 5375 H 498.852 6.03062 -0.956511 0
M  V30 5376 H 500.266 4.92225 -2.93917 0
M  V30 5377 H 498.663 4.72118 -3.70438 0
M  V30 5378 H 499.733 3.31765 -3.53638 0
M  V30 5379 N 501.076 1.04316 1.18135 0
M  V30 5380 C 501.986 0.646876 2.25505 0
M  V30 5381 C 503.002 -0.328008 1.7088 0
M  V30 5382 O 504.178 -0.182309 2.00573 0
M  V30 5383 C 501.243 0.0185664 3.46695 0
M  V30 5384 C 500.304 1.04277 4.16443 0
M  V30 5385 C 499.537 0.444352 5.31847 0
M  V30 5386 O 499.76 -0.748735 5.65465 0
M  V30 5387 O 498.694 1.17428 5.90334 0
M  V30 5388 H 502.52 1.54147 2.61672 0
M  V30 5389 H 500.105 0.814188 1.25265 0
M  V30 5390 H 501.987 -0.331068 4.20097 0
M  V30 5391 H 500.662 -0.849814 3.12346 0
M  V30 5392 H 499.569 1.44425 3.45098 0
M  V30 5393 H 500.902 1.882 4.54798 0
M  V30 5394 N 502.554 -1.34406 0.822964 0
M  V30 5395 C 503.464 -2.33298 0.246838 0
M  V30 5396 C 504.48 -1.62625 -0.618797 0
M  V30 5397 O 505.656 -1.94391 -0.526685 0
M  V30 5398 C 502.721 -3.41785 -0.581731 0
M  V30 5399 C 501.782 -4.28206 0.306309 0
M  V30 5400 C 501.015 -5.31512 -0.48281 0
M  V30 5401 O 501.238 -5.43973 -1.71607 0
M  V30 5402 O 500.172 -6.01749 0.134884 0
M  V30 5403 H 503.998 -2.84401 1.06534 0
M  V30 5404 H 501.583 -1.37466 0.585108 0
M  V30 5405 H 503.465 -4.08028 -1.05313 0
M  V30 5406 H 502.14 -2.92925 -1.37756 0
M  V30 5407 H 501.047 -3.64885 0.825199 0
M  V30 5408 H 502.38 -4.80507 1.06649 0
M  V30 5409 N 504.032 -0.577932 -1.46621 0
M  V30 5410 C 505.278 -0.0617793 -2.02706 0
M  V30 5411 C 505.611 1.29294 -1.44903 0
M  V30 5412 O 504.886 1.8461 -0.61232 0
M  V30 5413 C 505.169 0.00911824 -3.60099 0
M  V30 5414 C 505.022 -1.37416 -4.28295 0
M  V30 5415 C 506.341 0.712159 -4.343 0
M  V30 5416 H 503.46 -0.0239246 -0.736612 0
M  V30 5417 H 506.102 -0.744211 -1.74818 0
M  V30 5418 H 504.252 0.590292 -3.83989 0
M  V30 5419 H 505.924 -2.00013 -4.15683 0
M  V30 5420 H 504.167 -1.94319 -3.87843 0
M  V30 5421 H 504.838 -1.27707 -5.37024 0
M  V30 5422 H 507.314 0.218486 -4.15526 0
M  V30 5423 H 506.19 0.730782 -5.44014 0
M  V30 5424 H 506.451 1.77251 -4.05012 0
M  V30 5425 N 505.51 1.54411 -0.315457 0
M  V30 5426 C 506.757 2.00419 0.289543 0
M  V30 5427 C 507.085 1.20373 1.52776 0
M  V30 5428 O 506.34 0.271769 1.93804 0
M  V30 5429 C 506.639 3.50936 0.676652 0
M  V30 5430 C 506.305 4.48532 -0.461472 0
M  V30 5431 C 504.967 4.74936 -0.773879 0
M  V30 5432 C 507.319 5.06567 -1.22637 0
M  V30 5433 C 504.647 5.56634 -1.85405 0
M  V30 5434 C 506.999 5.89441 -2.29657 0
M  V30 5435 C 505.663 6.1415 -2.61488 0
M  V30 5436 H 504.933 0.733386 0.105951 0
M  V30 5437 H 507.58 1.86434 -0.437554 0
M  V30 5438 H 505.885 3.62606 1.48405 0
M  V30 5439 H 507.582 3.83971 1.15618 0
M  V30 5440 H 504.172 4.28096 -0.207893 0
M  V30 5441 H 508.356 4.86157 -0.998271 0
M  V30 5442 H 503.612 5.74012 -2.10523 0
M  V30 5443 H 507.786 6.33432 -2.89374 0
M  V30 5444 H 505.413 6.77245 -3.45317 0
M  V30 5445 N 506.988 0.0434614 1.5754 0
M  V30 5446 C 508.404 -0.313039 1.565 0
M  V30 5447 C 508.604 -1.71954 1.05043 0
M  V30 5448 O 507.66 -2.425 0.703564 0
M  V30 5449 C 508.973 -0.148544 3.00333 0
M  V30 5450 C 510.521 -0.220231 3.12224 0
M  V30 5451 C 510.996 -0.0843565 4.57922 0
M  V30 5452 N 512.487 -0.140881 4.62986 0
M  V30 5453 C 513.222 -0.0597443 5.73369 0
M  V30 5454 N 512.718 0.0733004 6.92761 0
M  V30 5455 N 514.511 -0.11477 5.61983 0
M  V30 5456 H 506.662 0.96303 1.89313 0
M  V30 5457 H 508.925 0.373164 0.871466 0
M  V30 5458 H 508.631 0.820894 3.41986 0
M  V30 5459 H 508.505 -0.912798 3.65989 0
M  V30 5460 H 510.892 -1.18014 2.70475 0
M  V30 5461 H 510.973 0.574646 2.49262 0
M  V30 5462 H 510.617 0.872192 5.00355 0
M  V30 5463 H 510.547 -0.898281 5.18882 0
M  V30 5464 H 513.038 -0.243273 3.77116 0
M  V30 5465 H 513.351 0.128128 7.72694 0
M  V30 5466 H 511.696 0.10828 6.94916 0
M  V30 5467 H 514.887 -0.217212 4.67596 0
M  V30 5468 H 515.06 -0.0480779 6.47982 0
M  V30 5469 N 508.466 -1.55915 -0.229846 0
M  V30 5470 C 509.413 -1.91734 -1.28478 0
M  V30 5471 C 510.383 -0.773539 -1.46988 0
M  V30 5472 O 511.568 -1.02871 -1.60693 0
M  V30 5473 C 508.708 -2.23224 -2.63182 0
M  V30 5474 C 507.821 -3.50497 -2.52539 0
M  V30 5475 C 506.956 -3.71474 -3.79711 0
M  V30 5476 C 505.995 -4.92289 -3.63755 0
M  V30 5477 N 505.132 -5.09698 -4.82858 0
M  V30 5478 H 509.972 -2.81692 -0.972308 0
M  V30 5479 H 507.509 -1.39429 -0.468815 0
M  V30 5480 H 509.467 -2.3949 -3.41614 0
M  V30 5481 H 508.097 -1.36451 -2.92542 0
M  V30 5482 H 507.149 -3.4247 -1.65585 0
M  V30 5483 H 508.461 -4.39079 -2.36666 0
M  V30 5484 H 507.615 -3.87791 -4.66586 0
M  V30 5485 H 506.354 -2.81157 -3.985 0
M  V30 5486 H 505.359 -4.7593 -2.75264 0
M  V30 5487 H 506.584 -5.84083 -3.46445 0
M  V30 5488 H 504.53 -4.22322 -5.01976 0
M  V30 5489 H 504.447 -5.92399 -4.69681 0
M  V30 5490 H 505.715 -5.30443 -5.71183 0
M  V30 5491 N 509.944 0.496216 -1.49584 0
M  V30 5492 C 511.19 1.25189 -1.59548 0
M  V30 5493 C 511.523 1.9212 -0.283466 0
M  V30 5494 O 510.798 1.80947 0.713324 0
M  V30 5495 C 511.081 2.31516 -2.75812 0
M  V30 5496 C 510.934 1.69054 -4.16822 0
M  V30 5497 C 512.253 3.3304 -2.87702 0
M  V30 5498 H 509.372 0.45379 -0.580727 0
M  V30 5499 H 512.014 0.549327 -1.81886 0
M  V30 5500 H 510.164 2.91438 -2.56897 0
M  V30 5501 H 511.836 1.12923 -4.47265 0
M  V30 5502 H 510.079 0.994485 -4.22247 0
M  V30 5503 H 510.75 2.462 -4.94054 0
M  V30 5504 H 513.226 2.83114 -3.04936 0
M  V30 5505 H 512.102 4.04794 -3.7072 0
M  V30 5506 H 512.363 3.95655 -1.97255 0
M  V30 5507 N 511.423 1.38739 0.74761 0
M  V30 5508 C 512.355 1.32341 1.87132 0
M  V30 5509 C 513.368 0.234502 1.61102 0
M  V30 5510 O 514.557 0.492516 1.71571 0
M  V30 5511 C 511.657 1.02915 3.22896 0
M  V30 5512 C 510.83 2.22834 3.76383 0
M  V30 5513 C 509.889 1.90059 4.90677 0
M  V30 5514 O 508.915 2.62615 5.04997 0
M  V30 5515 N 510.117 0.859141 5.74107 0
M  V30 5516 H 512.882 2.29175 1.93129 0
M  V30 5517 H 510.443 1.32678 0.927805 0
M  V30 5518 H 512.435 0.79031 3.96908 0
M  V30 5519 H 511.005 0.148572 3.12247 0
M  V30 5520 H 510.225 2.62747 2.93867 0
M  V30 5521 H 511.513 3.02851 4.08851 0
M  V30 5522 H 510.911 0.257564 5.65113 0
M  V30 5523 H 509.468 0.680189 6.48241 0
M  V30 5524 N 512.901 -0.976442 1.23707 0
M  V30 5525 C 513.833 -2.07212 0.979574 0
M  V30 5526 C 514.846 -1.6273 -0.0478528 0
M  V30 5527 O 516.035 -1.77506 0.18815 0
M  V30 5528 C 513.135 -3.35835 0.45479 0
M  V30 5529 C 512.308 -4.09268 1.54331 0
M  V30 5530 C 511.367 -5.16166 1.02271 0
M  V30 5531 O 510.393 -5.42827 1.71254 0
M  V30 5532 N 511.595 -5.80313 -0.147419 0
M  V30 5533 H 514.36 -2.29878 1.92292 0
M  V30 5534 H 511.921 -1.14343 1.14618 0
M  V30 5535 H 513.913 -4.04597 0.0914631 0
M  V30 5536 H 512.483 -3.10106 -0.394068 0
M  V30 5537 H 511.703 -3.34906 2.07923 0
M  V30 5538 H 512.991 -4.55095 2.27522 0
M  V30 5539 H 512.389 -5.61043 -0.724353 0
M  V30 5540 H 510.946 -6.50231 -0.451972 0
M  V30 5541 N 514.379 -1.04941 -1.1758 0
M  V30 5542 C 515.604 -0.778253 -1.92245 0
M  V30 5543 C 516.029 0.659707 -1.76152 0
M  V30 5544 O 515.387 1.45803 -1.07755 0
M  V30 5545 C 515.435 -1.16051 -3.41416 0
M  V30 5546 O 514.539 -0.291153 -4.11371 0
M  V30 5547 H 513.88 -0.285619 -0.599431 0
M  V30 5548 H 516.41 -1.40159 -1.49052 0
M  V30 5549 H 516.42 -1.12619 -3.92149 0
M  V30 5550 H 515.095 -2.208 -3.52449 0
M  V30 5551 H 513.672 -0.385851 -3.70898 0
M  V30 5552 N 515.857 1.33968 -0.830081 0
M  V30 5553 C 517.104 1.98063 -0.421566 0
M  V30 5554 C 517.432 1.65787 1.0171 0
M  V30 5555 O 516.687 0.925348 1.72441 0
M  V30 5556 C 516.986 3.52679 -0.57898 0
M  V30 5557 C 516.652 4.04884 -1.98443 0
M  V30 5558 C 515.314 4.18852 -2.36888 0
M  V30 5559 C 517.666 4.32879 -2.90285 0
M  V30 5560 C 514.994 4.58145 -3.66497 0
M  V30 5561 C 517.346 4.7362 -4.19364 0
M  V30 5562 C 516.01 4.85794 -4.57778 0
M  V30 5563 H 515.28 0.724765 -0.154262 0
M  V30 5564 H 517.927 1.59792 -1.05541 0
M  V30 5565 H 516.232 3.91556 0.138219 0
M  V30 5566 H 517.929 4.00261 -0.243317 0
M  V30 5567 H 514.519 3.9448 -1.67581 0
M  V30 5568 H 518.703 4.21619 -2.61823 0
M  V30 5569 H 513.959 4.65762 -3.96075 0
M  V30 5570 H 518.133 4.9424 -4.90612 0
M  V30 5571 H 515.76 5.15998 -5.58256 0
M  V30 5572 N 517.335 0.585699 1.46312 0
M  V30 5573 C 518.245 -0.148236 2.34131 0
M  V30 5574 C 519.261 -0.882972 1.49932 0
M  V30 5575 O 520.437 -0.845484 1.82794 0
M  V30 5576 C 517.502 -1.14714 3.27172 0
M  V30 5577 C 516.563 -0.416746 4.27272 0
M  V30 5578 C 515.796 -1.36806 5.15868 0
M  V30 5579 O 516.019 -2.60475 5.07454 0
M  V30 5580 O 514.953 -0.877018 5.95476 0
M  V30 5581 H 518.779 0.572882 2.98248 0
M  V30 5582 H 516.364 0.346082 1.45336 0
M  V30 5583 H 518.246 -1.72303 3.84564 0
M  V30 5584 H 516.921 -1.84967 2.65648 0
M  V30 5585 H 515.828 0.201061 3.73559 0
M  V30 5586 H 517.161 0.244872 4.9159 0
M  V30 5587 N 518.813 -1.54241 0.323641 0
M  V30 5588 C 520.041 -2.04985 -0.280871 0
M  V30 5589 C 520.456 -1.19978 -1.45777 0
M  V30 5590 O 519.813 -0.230471 -1.81039 0
M  V30 5591 C 519.864 -3.54353 -0.715258 0
M  V30 5592 O 519.585 -4.36132 0.414817 0
M  V30 5593 C 521.086 -4.21189 -1.38257 0
M  V30 5594 H 518.306 -0.66851 -0.0577502 0
M  V30 5595 H 520.85 -1.99029 0.469852 0
M  V30 5596 H 519.005 -3.60596 -1.41596 0
M  V30 5597 H 519.419 -5.2445 0.0725227 0
M  V30 5598 H 520.893 -5.27154 -1.63745 0
M  V30 5599 H 521.37 -3.72307 -2.32989 0
M  V30 5600 H 521.976 -4.19085 -0.724447 0
M  V30 5601 N 520.291 -0.0518155 -1.57515 0
M  V30 5602 C 521.702 0.483787 -1.80323 0
M  V30 5603 C 522.053 1.70879 -0.964099 0
M  V30 5604 O 521.178 2.15643 -0.180872 0
M  V30 5605 C 521.773 0.884459 -3.27052 0
M  V30 5606 C 520.332 1.36504 -3.50776 0
M  V30 5607 C 519.479 0.340539 -2.75201 0
M  V30 5608 H 522.43 -0.277691 -1.56252 0
M  V30 5609 H 522.451 1.74733 -3.38007 0
M  V30 5610 H 521.963 -0.00731093 -3.88099 0
M  V30 5611 H 520.064 2.27598 -2.95009 0
M  V30 5612 H 520.177 1.35675 -4.59488 0
M  V30 5613 H 518.541 0.81356 -2.41357 0
M  V30 5614 H 519.324 -0.543156 -3.38976 0
M  V30 5615 N 521.769 1.56035 0.221574 0
M  V30 5616 C 523.185 1.49026 0.571271 0
M  V30 5617 C 523.385 0.746912 1.87146 0
M  V30 5618 O 522.441 0.286566 2.50869 0
M  V30 5619 C 523.754 2.93579 0.650522 0
M  V30 5620 C 525.302 3.04099 0.741151 0
M  V30 5621 C 525.777 4.5001 0.851747 0
M  V30 5622 N 527.268 4.54053 0.915968 0
M  V30 5623 C 528.003 5.64232 1.02125 0
M  V30 5624 N 527.499 6.84164 1.09049 0
M  V30 5625 N 529.292 5.52084 1.05639 0
M  V30 5626 H 521.443 2.02791 -0.63162 0
M  V30 5627 H 523.706 0.921736 -0.221602 0
M  V30 5628 H 523.412 3.50912 -0.235253 0
M  V30 5629 H 523.286 3.45476 1.51413 0
M  V30 5630 H 525.673 2.4683 1.61737 0
M  V30 5631 H 525.754 2.55371 -0.148128 0
M  V30 5632 H 525.398 5.07896 -0.0200117 0
M  V30 5633 H 525.328 4.96444 1.75644 0
M  V30 5634 H 527.819 3.67683 0.872782 0
M  V30 5635 H 528.132 7.63883 1.1706 0
M  V30 5636 H 526.477 6.86875 1.05962 0
M  V30 5637 H 529.668 4.57317 0.998953 0
M  V30 5638 H 529.841 6.37983 1.13498 0
M  V30 5639 N 523.247 -0.488276 1.49845 0
M  V30 5640 C 524.21 -1.57069 1.66919 0
M  V30 5641 C 525.21 -1.51445 0.540479 0
M  V30 5642 O 526.4 -1.5437 0.807188 0
M  V30 5643 C 523.532 -2.96718 1.67844 0
M  V30 5644 H 524.725 -1.43254 2.63474 0
M  V30 5645 H 522.278 -0.713435 1.39068 0
M  V30 5646 H 523.013 -3.15996 0.7292 0
M  V30 5647 H 522.798 -3.02208 2.49826 0
M  V30 5648 H 524.288 -3.75335 1.83066 0
M  V30 5649 N 524.725 -1.39134 -0.740242 0
M  V30 5650 C 525.672 -1.37434 -1.8542 0
M  V30 5651 C 526.642 -0.234822 -1.64432 0
M  V30 5652 O 527.827 -0.429125 -1.85912 0
M  V30 5653 C 524.967 -1.21844 -3.22875 0
M  V30 5654 C 524.08 -2.45296 -3.55603 0
M  V30 5655 C 523.215 -2.22334 -4.82432 0
M  V30 5656 C 522.254 -3.41488 -5.07988 0
M  V30 5657 N 521.391 -3.17877 -6.26018 0
M  V30 5658 H 526.231 -2.3266 -1.86207 0
M  V30 5659 H 523.768 -1.15578 -0.909946 0
M  V30 5660 H 525.726 -1.10818 -4.02213 0
M  V30 5661 H 524.356 -0.3025 -3.21379 0
M  V30 5662 H 523.408 -2.66945 -2.71006 0
M  V30 5663 H 524.72 -3.34063 -3.7041 0
M  V30 5664 H 523.874 -2.0852 -5.69741 0
M  V30 5665 H 522.613 -1.30954 -4.6979 0
M  V30 5666 H 521.618 -3.55807 -4.19144 0
M  V30 5667 H 522.843 -4.33763 -5.22519 0
M  V30 5668 H 520.789 -2.29156 -6.14673 0
M  V30 5669 H 520.706 -4.00198 -6.41387 0
M  V30 5670 H 521.974 -3.07746 -7.16179 0
M  V30 5671 N 526.204 0.969867 -1.24223 0
M  V30 5672 C 527.167 2.04564 -1.03373 0
M  V30 5673 C 528.167 1.60798 0.00819206 0
M  V30 5674 O 529.357 1.72641 -0.232567 0
M  V30 5675 C 526.489 3.36163 -0.566343 0
M  V30 5676 H 527.682 2.24494 -1.98853 0
M  V30 5677 H 525.235 1.1448 -1.06415 0
M  V30 5678 H 525.97 3.21925 0.391751 0
M  V30 5679 H 525.755 3.69273 -1.31834 0
M  V30 5680 H 527.245 4.1526 -0.441435 0
M  V30 5681 N 527.682 1.05563 1.17022 0
M  V30 5682 C 528.614 0.617888 2.20714 0
M  V30 5683 C 529.627 -0.320303 1.59618 0
M  V30 5684 O 530.816 -0.112449 1.78145 0
M  V30 5685 C 527.916 -0.115333 3.38704 0
M  V30 5686 C 527.089 0.834493 4.29366 0
M  V30 5687 C 526.148 0.141855 5.26009 0
M  V30 5688 O 525.174 0.777151 5.6387 0
M  V30 5689 N 526.376 -1.11934 5.69606 0
M  V30 5690 H 529.141 1.50981 2.58892 0
M  V30 5691 H 526.702 0.938008 1.31958 0
M  V30 5692 H 528.694 -0.588918 4.00392 0
M  V30 5693 H 527.264 -0.908967 2.99093 0
M  V30 5694 H 526.484 1.48762 3.65053 0
M  V30 5695 H 527.772 1.4791 4.86827 0
M  V30 5696 H 527.17 -1.65574 5.40927 0
M  V30 5697 H 525.727 -1.53692 6.33421 0
M  V30 5698 N 529.16 -1.33526 0.837174 0
M  V30 5699 C 530.093 -2.27192 0.214233 0
M  V30 5700 C 531.071 -1.49575 -0.637657 0
M  V30 5701 O 532.255 -1.78753 -0.598291 0
M  V30 5702 C 529.382 -3.31401 -0.699367 0
M  V30 5703 C 528.428 -4.26431 0.0768429 0
M  V30 5704 S 529.261 -5.15954 1.4336 0
M  V30 5705 C 530.417 -6.23692 0.525251 0
M  V30 5706 H 530.65 -2.79679 1.00831 0
M  V30 5707 H 528.183 -1.4079 0.633834 0
M  V30 5708 H 530.141 -3.91924 -1.22088 0
M  V30 5709 H 528.802 -2.77732 -1.46709 0
M  V30 5710 H 527.995 -5.00193 -0.618268 0
M  V30 5711 H 527.597 -3.70235 0.529364 0
M  V30 5712 H 529.889 -6.76931 -0.277575 0
M  V30 5713 H 530.832 -6.97283 1.23299 0
M  V30 5714 H 531.24 -5.64398 0.107351 0
M  V30 5715 N 530.638 -0.59345 -1.46 0
M  V30 5716 C 532.049 -0.169801 -1.85926 0
M  V30 5717 C 532.4 1.26984 -1.49565 0
M  V30 5718 O 531.525 1.96076 -0.915602 0
M  V30 5719 C 532.12 -0.301385 -3.37457 0
M  V30 5720 C 530.679 0.0674684 -3.7634 0
M  V30 5721 C 529.826 -0.632383 -2.69993 0
M  V30 5722 H 532.777 -0.801014 -1.37002 0
M  V30 5723 H 532.798 0.470331 -3.77582 0
M  V30 5724 H 532.31 -1.34927 -3.63891 0
M  V30 5725 H 530.411 1.11507 -3.55523 0
M  V30 5726 H 530.524 -0.316332 -4.78055 0
M  V30 5727 H 528.888 -0.0714961 -2.546 0
M  V30 5728 H 529.671 -1.68212 -2.99265 0
M  V30 5729 N 532.116 1.54067 -0.331816 0
M  V30 5730 C 533.344 2.05131 0.269996 0
M  V30 5731 C 533.759 1.20749 1.45138 0
M  V30 5732 O 533.116 0.240069 1.80914 0
M  V30 5733 C 533.167 3.54728 0.696456 0
M  V30 5734 O 532.888 4.35906 -0.43794 0
M  V30 5735 C 534.389 4.21916 1.36021 0
M  V30 5736 H 531.609 0.668807 0.0542042 0
M  V30 5737 H 534.153 1.98777 -0.4804 0
M  V30 5738 H 532.308 3.61342 1.39681 0
M  V30 5739 H 532.722 5.24404 -0.100334 0
M  V30 5740 H 534.196 5.28015 1.60947 0
M  V30 5741 H 534.673 3.73538 2.31011 0
M  V30 5742 H 535.279 4.19463 0.702212 0
M  V30 5743 N 533.594 0.0601682 1.57485 0
M  V30 5744 C 534.843 -0.611101 1.9222 0
M  V30 5745 C 535.156 -1.71469 0.941159 0
M  V30 5746 O 536.362 -2.44473 1.18089 0
M  V30 5747 C 534.818 -1.13832 3.41424 0
M  V30 5748 C 534.426 -0.0663596 4.47951 0
M  V30 5749 C 536.17 -1.78432 3.85178 0
M  V30 5750 C 534.077 -0.606965 5.88277 0
M  V30 5751 H 533.007 -0.232033 0.71741 0
M  V30 5752 H 535.658 0.130518 1.83035 0
M  V30 5753 H 534.04 -1.93254 3.45643 0
M  V30 5754 H 535.214 0.707682 4.55333 0
M  V30 5755 H 533.529 0.482715 4.13593 0
M  V30 5756 H 536.126 -2.1989 4.87394 0
M  V30 5757 H 536.469 -2.63966 3.21913 0
M  V30 5758 H 537.002 -1.05651 3.83514 0
M  V30 5759 H 533.741 0.21095 6.5516 0
M  V30 5760 H 533.261 -1.34879 5.84438 0
M  V30 5761 H 534.94 -1.08704 6.37803 0
M  V30 5762 N 535.072 -1.5615 -0.213296 0
M  V30 5763 C 535.982 -1.96265 -1.28519 0
M  V30 5764 C 536.998 -0.86765 -1.50824 0
M  V30 5765 O 538.174 -1.17191 -1.63793 0
M  V30 5766 C 535.239 -2.27836 -2.61327 0
M  V30 5767 C 534.3 -3.50949 -2.47252 0
M  V30 5768 C 533.533 -3.81004 -3.73727 0
M  V30 5769 O 533.756 -3.12612 -4.77106 0
M  V30 5770 O 532.69 -4.74477 -3.70344 0
M  V30 5771 H 536.516 -2.87631 -0.974795 0
M  V30 5772 H 534.101 -1.43467 -0.416832 0
M  V30 5773 H 535.983 -2.49299 -3.39747 0
M  V30 5774 H 534.658 -1.39643 -2.9203 0
M  V30 5775 H 533.565 -3.34754 -1.67004 0
M  V30 5776 H 534.898 -4.39551 -2.21486 0
M  V30 5777 N 536.55 0.480323 -1.50102 0
M  V30 5778 C 537.966 0.813295 -1.37323 0
M  V30 5779 C 538.166 1.97027 -0.422206 0
M  V30 5780 O 537.222 2.5212 0.138563 0
M  V30 5781 C 538.535 1.13404 -2.78496 0
M  V30 5782 C 540.083 1.24104 -2.87345 0
M  V30 5783 C 540.558 1.59497 -4.29331 0
M  V30 5784 N 542.049 1.66507 -4.32238 0
M  V30 5785 C 542.784 1.95378 -5.39087 0
M  V30 5786 N 542.28 2.22333 -6.56155 0
M  V30 5787 N 544.073 1.96803 -5.26522 0
M  V30 5788 H 536.224 -0.282291 -2.10516 0
M  V30 5789 H 538.487 -0.063752 -0.945854 0
M  V30 5790 H 538.193 0.357064 -3.49883 0
M  V30 5791 H 538.067 2.07251 -3.15162 0
M  V30 5792 H 540.454 2.00871 -2.16183 0
M  V30 5793 H 540.535 0.282593 -2.54234 0
M  V30 5794 H 540.179 0.832736 -5.01027 0
M  V30 5795 H 540.109 2.56477 -4.59921 0
M  V30 5796 H 542.6 1.47753 -3.47818 0
M  V30 5797 H 542.913 2.43611 -7.33399 0
M  V30 5798 H 541.258 2.19745 -6.59346 0
M  V30 5799 H 544.449 1.75235 -4.34062 0
M  V30 5800 H 544.622 2.18969 -6.09883 0
M  V30 5801 N 538.028 1.39524 0.732853 0
M  V30 5802 C 538.958 1.41153 1.86005 0
M  V30 5803 C 539.939 0.274614 1.67869 0
M  V30 5804 O 541.124 0.480745 1.88155 0
M  V30 5805 C 538.254 1.25638 3.23778 0
M  V30 5806 C 537.208 2.36752 3.56556 0
M  V30 5807 C 536.534 2.06326 4.93289 0
M  V30 5808 C 537.834 3.79069 3.5931 0
M  V30 5809 H 539.528 2.35484 1.84899 0
M  V30 5810 H 537.074 1.13348 0.888162 0
M  V30 5811 H 539.027 1.25398 4.0231 0
M  V30 5812 H 537.751 0.277772 3.25417 0
M  V30 5813 H 536.41 2.36213 2.80355 0
M  V30 5814 H 536.058 1.06897 4.9151 0
M  V30 5815 H 535.758 2.80757 5.16187 0
M  V30 5816 H 537.282 2.07739 5.74175 0
M  V30 5817 H 538.696 3.81526 4.27914 0
M  V30 5818 H 537.093 4.52878 3.93728 0
M  V30 5819 H 538.163 4.09893 2.59068 0
M  V30 5820 N 539.506 -0.963266 1.24736 0
M  V30 5821 C 540.731 -1.74699 1.11781 0
M  V30 5822 C 541.156 -1.85267 -0.325258 0
M  V30 5823 O 540.514 -1.32681 -1.23553 0
M  V30 5824 C 540.562 -3.14322 1.76731 0
M  V30 5825 O 539.666 -3.99043 1.04109 0
M  V30 5826 H 539.007 -0.53684 0.390767 0
M  V30 5827 H 541.537 -1.20801 1.65131 0
M  V30 5828 H 541.547 -3.64824 1.82668 0
M  V30 5829 H 540.222 -3.05946 2.81726 0
M  V30 5830 H 538.799 -3.5752 1.05991 0
M  V30 5831 N 540.985 -1.06182 -1.16461 0
M  V30 5832 C 541.918 -0.615859 -2.19733 0
M  V30 5833 C 542.896 0.360766 -1.58547 0
M  V30 5834 O 544.08 0.270009 -1.86556 0
M  V30 5835 C 541.207 0.097312 -3.3856 0
M  V30 5836 C 540.253 -0.835889 -4.18229 0
M  V30 5837 S 541.086 -2.33052 -4.82128 0
M  V30 5838 C 542.242 -1.62881 -6.04335 0
M  V30 5839 H 542.475 -1.49079 -2.57221 0
M  V30 5840 H 540.008 -0.874692 -1.27234 0
M  V30 5841 H 541.966 0.502563 -4.07412 0
M  V30 5842 H 540.627 0.948418 -2.99439 0
M  V30 5843 H 539.82 -0.283426 -5.03202 0
M  V30 5844 H 539.422 -1.18097 -3.54865 0
M  V30 5845 H 541.714 -0.933764 -6.71034 0
M  V30 5846 H 542.657 -2.45641 -6.64128 0
M  V30 5847 H 543.065 -1.11189 -5.53441 0
M  V30 5848 N 542.463 1.3308 -0.844243 0
M  V30 5849 C 543.691 2.01808 -0.456203 0
M  V30 5850 C 544.106 1.63498 0.944131 0
M  V30 5851 O 543.463 0.85102 1.61443 0
M  V30 5852 C 543.514 3.56922 -0.573513 0
M  V30 5853 O 543.235 3.93851 -1.91868 0
M  V30 5854 C 544.736 4.42922 -0.183125 0
M  V30 5855 H 541.956 0.646273 -0.180477 0
M  V30 5856 H 544.5 1.69891 -1.1383 0
M  V30 5857 H 542.655 3.87352 0.0607367 0
M  V30 5858 H 543.069 4.88564 -1.90802 0
M  V30 5859 H 544.543 5.51093 -0.316241 0
M  V30 5860 H 545.02 4.30386 0.875477 0
M  V30 5861 H 545.626 4.1786 -0.792027 0
M  V30 5862 N 543.941 0.601185 1.45683 0
M  V30 5863 C 545.357 0.264315 1.57396 0
M  V30 5864 C 545.557 -1.23324 1.59353 0
M  V30 5865 O 544.613 -2.01594 1.52039 0
M  V30 5866 C 545.926 0.929839 2.85962 0
M  V30 5867 C 547.474 0.905156 2.99626 0
M  V30 5868 C 547.949 1.55057 4.30954 0
M  V30 5869 N 549.44 1.51576 4.37697 0
M  V30 5870 C 550.175 1.98436 5.37969 0
M  V30 5871 N 549.671 2.53352 6.44813 0
M  V30 5872 N 551.464 1.89242 5.29286 0
M  V30 5873 H 543.615 1.57363 1.42656 0
M  V30 5874 H 545.878 0.658831 0.681649 0
M  V30 5875 H 545.584 1.98404 2.90394 0
M  V30 5876 H 545.458 0.449224 3.74515 0
M  V30 5877 H 547.845 -0.14048 2.94765 0
M  V30 5878 H 547.926 1.42397 2.12501 0
M  V30 5879 H 547.57 2.5955 4.36573 0
M  V30 5880 H 547.5 1.00682 5.16886 0
M  V30 5881 H 549.991 1.11452 3.61091 0
M  V30 5882 H 550.304 2.86918 7.17564 0
M  V30 5883 H 548.649 2.57388 6.45582 0
M  V30 5884 H 551.84 1.46083 4.44722 0
M  V30 5885 H 552.013 2.26075 6.07284 0
M  V30 5886 N 545.419 -1.53889 0.339982 0
M  V30 5887 C 546.649 -2.04973 -0.258738 0
M  V30 5888 C 547.057 -1.21485 -1.45045 0
M  V30 5889 O 546.4 -0.2422 -1.82096 0
M  V30 5890 C 546.462 -3.51783 -0.740853 0
M  V30 5891 C 546.126 -4.55802 0.330734 0
M  V30 5892 C 547.123 -5.06512 1.17226 0
M  V30 5893 C 544.808 -4.99966 0.483637 0
M  V30 5894 C 546.802 -5.99963 2.15227 0
M  V30 5895 C 544.489 -5.93229 1.46704 0
M  V30 5896 C 545.487 -6.43115 2.29981 0
M  V30 5897 O 545.175 -7.34545 3.26649 0
M  V30 5898 H 544.907 -0.673807 -0.0544037 0
M  V30 5899 H 547.461 -1.99492 0.489107 0
M  V30 5900 H 545.691 -3.54717 -1.53988 0
M  V30 5901 H 547.38 -3.85857 -1.25973 0
M  V30 5902 H 548.146 -4.73158 1.0652 0
M  V30 5903 H 544.025 -4.6074 -0.15471 0
M  V30 5904 H 547.569 -6.38825 2.80265 0
M  V30 5905 H 543.466 -6.25998 1.57468 0
M  V30 5906 H 544.234 -7.52468 3.22078 0
M  V30 5907 N 546.897 -0.0685191 -1.57451 0
M  V30 5908 C 548.144 0.601348 -1.93365 0
M  V30 5909 C 548.472 1.69816 -0.948294 0
M  V30 5910 O 547.727 1.95666 0.0366199 0
M  V30 5911 C 548.026 1.22051 -3.35914 0
M  V30 5912 C 547.692 0.250165 -4.50205 0
M  V30 5913 C 546.354 -0.0167954 -4.81197 0
M  V30 5914 C 548.706 -0.413867 -5.19554 0
M  V30 5915 C 546.034 -0.95493 -5.78876 0
M  V30 5916 C 548.386 -1.3403 -6.18238 0
M  V30 5917 C 547.05 -1.61576 -6.47649 0
M  V30 5918 H 546.32 0.220049 -0.707573 0
M  V30 5919 H 548.967 -0.138697 -1.90997 0
M  V30 5920 H 547.272 2.03622 -3.34732 0
M  V30 5921 H 548.969 1.74605 -3.6099 0
M  V30 5922 H 545.559 0.468421 -4.26033 0
M  V30 5923 H 549.743 -0.220733 -4.95809 0
M  V30 5924 H 544.999 -1.17563 -5.99991 0
M  V30 5925 H 549.173 -1.86081 -6.71079 0
M  V30 5926 H 546.8 -2.34431 -7.2315 0
M  V30 5927 N 548.375 1.56261 0.205012 0
M  V30 5928 C 549.605 1.83874 0.942018 0
M  V30 5929 C 550.013 0.647595 1.77772 0
M  V30 5930 O 549.356 -0.393098 1.79445 0
M  V30 5931 C 549.418 3.05453 1.89575 0
M  V30 5932 C 549.082 4.39772 1.24296 0
M  V30 5933 C 550.079 5.16133 0.624724 0
M  V30 5934 C 547.764 4.86504 1.24978 0
M  V30 5935 C 549.758 6.37396 0.0220117 0
M  V30 5936 C 547.445 6.07705 0.643232 0
M  V30 5937 C 548.443 6.82993 0.0304164 0
M  V30 5938 O 548.131 8.019 -0.566654 0
M  V30 5939 H 547.863 0.614896 0.280854 0
M  V30 5940 H 550.417 2.04215 0.220285 0
M  V30 5941 H 548.647 2.80972 2.65691 0
M  V30 5942 H 550.336 3.19797 2.4997 0
M  V30 5943 H 551.102 4.81127 0.611666 0
M  V30 5944 H 546.981 4.27865 1.71616 0
M  V30 5945 H 550.525 6.96102 -0.456926 0
M  V30 5946 H 546.422 6.42181 0.653759 0
M  V30 5947 H 547.19 8.17192 -0.462588 0
M  V30 5948 N 549.853 -0.472356 1.50355 0
M  V30 5949 C 550.783 -1.57859 1.72055 0
M  V30 5950 C 551.764 -1.60283 0.569505 0
M  V30 5951 O 552.949 -1.7657 0.808503 0
M  V30 5952 C 550.079 -2.96191 1.81351 0
M  V30 5953 C 549.033 -3.08633 2.96529 0
M  V30 5954 C 548.359 -4.486 2.90968 0
M  V30 5955 C 549.659 -2.85969 4.37057 0
M  V30 5956 H 551.353 -1.39953 2.64676 0
M  V30 5957 H 548.899 -0.671846 1.27367 0
M  V30 5958 H 550.852 -3.73507 1.95117 0
M  V30 5959 H 549.576 -3.15251 0.853502 0
M  V30 5960 H 548.235 -2.33749 2.82413 0
M  V30 5961 H 547.883 -4.64577 1.92815 0
M  V30 5962 H 547.583 -4.57861 3.68289 0
M  V30 5963 H 549.107 -5.27938 3.0678 0
M  V30 5964 H 550.521 -3.53036 4.51706 0
M  V30 5965 H 548.918 -3.06677 5.15819 0
M  V30 5966 H 549.988 -1.81838 4.49514 0
M  V30 5967 N 551.331 -1.39911 -0.725443 0
M  V30 5968 C 552.578 -1.37654 -1.48518 0
M  V30 5969 C 552.906 0.0243982 -1.94485 0
M  V30 5970 O 552.161 1.00708 -1.67799 0
M  V30 5971 C 552.46 -2.30368 -2.7325 0
M  V30 5972 C 552.126 -3.77817 -2.461 0
M  V30 5973 C 550.788 -4.17991 -2.38405 0
M  V30 5974 C 553.14 -4.71036 -2.23103 0
M  V30 5975 C 550.468 -5.49433 -2.05768 0
M  V30 5976 C 552.82 -6.02766 -1.9198 0
M  V30 5977 C 551.484 -6.41993 -1.82761 0
M  V30 5978 H 550.754 -0.503713 -0.543465 0
M  V30 5979 H 553.401 -1.7249 -0.831822 0
M  V30 5980 H 551.706 -1.88683 -3.43375 0
M  V30 5981 H 553.403 -2.2591 -3.31309 0
M  V30 5982 H 549.993 -3.45982 -2.52972 0
M  V30 5983 H 554.177 -4.40823 -2.2801 0
M  V30 5984 H 549.433 -5.78738 -1.9716 0
M  V30 5985 H 553.607 -6.74519 -1.73197 0
M  V30 5986 H 551.234 -7.43761 -1.57237 0
M  V30 5987 N 552.809 0.956637 -1.25245 0
M  V30 5988 C 554.22 1.51569 -1.09012 0
M  V30 5989 C 554.571 1.93322 0.334813 0
M  V30 5990 O 553.696 1.78421 1.22454 0
M  V30 5991 C 554.291 2.75444 -1.97271 0
M  V30 5992 C 552.85 3.27669 -1.8523 0
M  V30 5993 C 551.997 2.00517 -1.91542 0
M  V30 5994 H 554.948 0.773746 -1.3856 0
M  V30 5995 H 554.969 3.4919 -1.51151 0
M  V30 5996 H 554.481 2.45024 -3.00973 0
M  V30 5997 H 552.582 3.62914 -0.844045 0
M  V30 5998 H 552.695 3.9582 -2.69932 0
M  V30 5999 H 551.059 2.15727 -1.35404 0
M  V30 6000 H 551.842 1.72448 -2.96844 0
M  V30 6001 N 554.287 1.06798 1.15896 0
M  V30 6002 C 555.535 0.786211 1.8618 0
M  V30 6003 C 555.856 -0.689547 1.82401 0
M  V30 6004 O 555.126 -1.49913 1.26107 0
M  V30 6005 H 553.706 0.287843 0.689315 0
M  V30 6006 H 556.368 1.35055 1.40521 0
M  V30 6007 H 555.464 1.1157 2.91477 0
M  V30 6008 N 555.766 -1.3263 0.851289 0
M  V30 6009 C 556.714 -2.30882 0.282202 0
M  V30 6010 C 557.708 -1.58697 -0.592589 0
M  V30 6011 O 558.914 -1.73461 -0.480768 0
M  V30 6012 H 555.289 -0.748492 0.0725487 0
M  V30 6013 H 557.26 -2.76374 1.12516 0
M  V30 6014 C 556.009 -3.43828 -0.517449 0
M  V30 6015 H 555.332 -3.99532 0.146392 0
M  V30 6016 H 556.772 -4.1474 -0.88128 0
M  V30 6017 C 555.231 -2.90786 -1.70133 0
M  V30 6018 O 555.761 -2.88 -2.80034 0
M  V30 6019 N 553.967 -2.4723 -1.52728 0
M  V30 6020 H 553.514 -2.49695 -0.633257 0
M  V30 6021 H 553.472 -2.12094 -2.32085 0
M  V30 6022 O 557.283 -0.749239 -1.43069 0
M  V30 6023 H 557.974 -0.305579 -1.91274 0
M  V30 END ATOM
M  V30 BEGIN BOND
M  V30 END BOND
M  V30 END CTAB
M  END
$$$$
