drugbank_target|P49720 Proteasome subunit beta type-3 (DB08515)
 OpenBabel12092120433D

  0  0  0     0  0            999 V3000
M  V30 BEGIN CTAB
M  V30 COUNTS 3220 3249 0 0 0
M  V30 BEGIN ATOM
M  V30 1 H -0.908 1.98254 -0.117106 0
M  V30 2 N 0 1.576 0 0
M  V30 3 C 0.933 2.03868 1.02534 0
M  V30 4 C 1.911 0.928543 1.3348 0
M  V30 5 O 3.095 1.19667 1.45644 0
M  V30 6 C 0.222 2.43627 2.35294 0
M  V30 7 C -0.732 3.65373 2.2001 0
M  V30 8 S 0.101 5.13292 1.52614 0
M  V30 9 C 1.257 5.56322 2.86805 0
M  V30 10 H 1.49 2.90518 0.631377 0
M  V30 11 H -0.977 1.52953 0.210867 0
M  V30 12 H 0.981 2.67203 3.11629 0
M  V30 13 H -0.358 1.57376 2.7183 0
M  V30 14 H -1.165 3.90944 3.18086 0
M  V30 15 H -1.563 3.418 1.51819 0
M  V30 16 H 0.729 5.58782 3.83104 0
M  V30 17 H 1.672 6.56266 2.65933 0
M  V30 18 H 2.08 4.83886 2.90714 0
M  V30 19 N 1.4781 -0.272755 1.55222 0
M  V30 20 C 2.7031 -1.02683 1.80197 0
M  V30 21 C 3.1281 -1.79142 0.573551 0
M  V30 22 O 2.4861 -1.74917 -0.476849 0
M  V30 23 C 2.5341 -1.9609 3.02624 0
M  V30 24 O 1.6381 -3.04863 2.77727 0
M  V30 25 H 0.9791 -0.293557 0.595584 0
M  V30 26 H 3.5091 -0.30159 2.02365 0
M  V30 27 H 3.5191 -2.38039 3.31363 0
M  V30 28 H 2.1941 -1.39851 3.91682 0
M  V30 29 H 0.7711 -2.67228 2.60084 0
M  V30 30 N 2.9562 -1.48159 -0.537278 0
M  V30 31 C 4.2052 -1.5506 -1.28993 0
M  V30 32 C 4.5182 -0.226211 -1.94288 0
M  V30 33 O 5.7242 -0.173395 -2.70946 0
M  V30 34 C 4.1802 -2.73429 -2.34018 0
M  V30 35 C 3.7882 -4.1248 -1.74825 0
M  V30 36 C 5.5322 -2.89638 -3.10339 0
M  V30 37 C 3.4392 -5.22121 -2.77747 0
M  V30 38 H 2.3692 -0.577231 -0.485098 0
M  V30 39 H 5.0202 -1.74478 -0.568317 0
M  V30 40 H 3.4022 -2.47431 -3.09182 0
M  V30 41 H 4.5762 -4.48466 -1.05899 0
M  V30 42 H 2.8912 -4.01327 -1.11022 0
M  V30 43 H 5.4882 -3.68718 -3.87235 0
M  V30 44 H 5.8312 -1.9882 -3.65754 0
M  V30 45 H 6.3642 -3.15502 -2.42288 0
M  V30 46 H 3.1032 -6.1488 -2.27161 0
M  V30 47 H 2.6232 -4.90631 -3.45024 0
M  V30 48 H 4.3022 -5.49924 -3.4087 0
M  V30 49 N 4.4343 0.785586 -1.36625 0
M  V30 50 C 5.3673 1.90509 -1.25625 0
M  V30 51 C 6.3453 1.62 -0.139607 0
M  V30 52 O 7.5293 1.8591 -0.31141 0
M  V30 53 C 4.6563 3.25419 -0.939158 0
M  V30 54 C 3.7023 3.72856 -2.07077 0
M  V30 55 S 4.5353 3.88162 -3.68904 0
M  V30 56 C 5.6913 5.25942 -3.39317 0
M  V30 57 H 5.9243 1.99549 -2.20381 0
M  V30 58 H 3.4573 0.945226 -1.22085 0
M  V30 59 H 5.4153 4.03346 -0.763029 0
M  V30 60 H 4.0763 3.14099 -0.00931402 0
M  V30 61 H 3.2693 4.70624 -1.80357 0
M  V30 62 H 2.8713 3.01989 -2.20632 0
M  V30 63 H 5.1633 6.10651 -2.93447 0
M  V30 64 H 6.1063 5.57668 -4.36363 0
M  V30 65 H 6.5143 4.93224 -2.74573 0
M  V30 66 N 5.9124 1.20967 1.01018 0
M  V30 67 C 7.1374 1.0503 1.78839 0
M  V30 68 C 7.5624 -0.395752 1.8389 0
M  V30 69 O 6.9204 -1.28529 1.27867 0
M  V30 70 C 6.9684 1.64602 3.2084 0
M  V30 71 O 6.0724 0.887988 4.02726 0
M  V30 72 H 5.4134 0.369987 0.551367 0
M  V30 73 H 7.9434 1.60399 1.27018 0
M  V30 74 H 7.9534 1.68607 3.71532 0
M  V30 75 H 6.6284 2.69841 3.16479 0
M  V30 76 H 5.2054 0.922648 3.61305 0
M  V30 77 N 7.3905 -1.2043 1.01659 0
M  V30 78 C 8.6205 -1.93496 0.724081 0
M  V30 79 C 9.0285 -1.74998 -0.71918 0
M  V30 80 O 8.3715 -1.06118 -1.49949 0
M  V30 81 C 8.4335 -3.45886 0.97994 0
M  V30 82 C 8.0975 -3.88145 2.41232 0
M  V30 83 C 9.0945 -3.93907 3.39313 0
M  V30 84 C 6.7795 -4.20134 2.75305 0
M  V30 85 C 8.7735 -4.31069 4.6953 0
M  V30 86 C 6.4605 -4.56971 4.05735 0
M  V30 87 C 7.4585 -4.62411 5.02658 0
M  V30 88 O 7.1465 -4.98403 6.30754 0
M  V30 89 H 6.8785 -0.621824 0.265162 0
M  V30 90 H 9.4325 -1.53867 1.36066 0
M  V30 91 H 7.6625 -3.85639 0.286198 0
M  V30 92 H 9.3515 -4.0018 0.679021 0
M  V30 93 H 10.1175 -3.69357 3.14325 0
M  V30 94 H 5.9965 -4.1509 2.00551 0
M  V30 95 H 9.5405 -4.3523 5.45179 0
M  V30 96 H 5.4375 -4.80977 4.30502 0
M  V30 97 H 6.2055 -5.16395 6.35042 0
M  V30 98 N 8.8686 -0.792821 -1.36206 0
M  V30 99 C 9.8166 -0.181555 -2.3189 0
M  V30 100 C 10.8106 0.661025 -1.55971 0
M  V30 101 O 12.0166 0.555728 -1.71206 0
M  V30 102 H 8.3916 -0.0399382 -0.750939 0
M  V30 103 H 10.3626 -1.00394 -2.81005 0
M  V30 104 C 9.1116 0.666444 -3.41253 0
M  V30 105 H 8.4346 0.0274489 -3.99791 0
M  V30 106 H 9.8746 1.06076 -4.10517 0
M  V30 107 C 8.3336 1.82614 -2.83114 0
M  V30 108 O 8.8636 2.9229 -2.75553 0
M  V30 109 N 7.0696 1.63333 -2.40356 0
M  V30 110 H 6.6166 0.741217 -2.46706 0
M  V30 111 H 6.5746 2.41087 -2.01803 0
M  V30 112 N 10.3467 1.47872 -0.545128 0
M  V30 113 C 11.5947 2.02093 -0.016553 0
M  V30 114 C 11.9157 1.42305 1.3332 0
M  V30 115 O 11.1857 0.593853 1.86682 0
M  V30 116 H 9.7657 0.746993 -0.00313038 0
M  V30 117 H 12.4277 1.81414 -0.712397 0
M  V30 118 H 11.5237 3.11996 0.0805422 0
M  V30 119 N 11.8248 0.280983 1.55075 0
M  V30 120 C 13.0728 -0.333455 1.9933 0
M  V30 121 C 13.3938 -1.55937 1.17085 0
M  V30 122 O 12.6638 -1.94143 0.261805 0
M  V30 123 H 11.2438 -0.126197 0.736263 0
M  V30 124 H 13.9058 0.387678 1.91005 0
M  V30 125 H 13.0018 -0.619292 3.05894 0
M  V30 126 N 13.3029 -1.57598 0.00835791 0
M  V30 127 C 14.2659 -2.07884 -0.965242 0
M  V30 128 C 15.2659 -0.989825 -1.26725 0
M  V30 129 O 16.4559 -1.25218 -1.21104 0
M  V30 130 C 13.5879 -2.52731 -2.28779 0
M  V30 131 H 14.7809 -2.95178 -0.530112 0
M  V30 132 H 12.3339 -1.54458 -0.239283 0
M  V30 133 H 13.0689 -1.68705 -2.76964 0
M  V30 134 H 12.8539 -3.32272 -2.08177 0
M  V30 135 H 14.3439 -2.91933 -2.98605 0
M  V30 136 N 14.781 0.264519 -1.55364 0
M  V30 137 C 16.027 0.99646 -1.76631 0
M  V30 138 C 16.36 1.85632 -0.570478 0
M  V30 139 O 15.635 1.89647 0.43175 0
M  V30 140 C 15.918 1.87187 -3.07625 0
M  V30 141 C 15.771 1.04138 -4.37579 0
M  V30 142 C 17.09 2.85749 -3.34717 0
M  V30 143 H 14.209 0.360841 -0.642622 0
M  V30 144 H 16.851 0.268218 -1.88097 0
M  V30 145 H 15.001 2.49279 -2.9798 0
M  V30 146 H 16.673 0.440517 -4.59192 0
M  V30 147 H 14.916 0.345115 -4.32425 0
M  V30 148 H 15.587 1.68729 -5.2558 0
M  V30 149 H 18.063 2.33793 -3.4421 0
M  V30 150 H 16.939 3.44136 -4.27623 0
M  V30 151 H 17.2 3.61311 -2.54768 0
M  V30 152 N 16.2591 1.48442 0.529413 0
M  V30 153 C 17.1921 1.57577 1.65059 0
M  V30 154 C 18.1701 0.426198 1.56915 0
M  V30 155 O 19.3541 0.637877 1.77379 0
M  V30 156 C 16.4811 1.5043 3.03461 0
M  V30 157 C 15.5271 2.70235 3.29962 0
M  V30 158 S 16.3601 4.32198 3.16172 0
M  V30 159 C 17.5161 4.2765 4.57019 0
M  V30 160 H 17.7491 2.52427 1.5706 0
M  V30 161 H 15.2821 1.36982 0.712417 0
M  V30 162 H 17.2401 1.46992 3.8328 0
M  V30 163 H 15.9011 0.569167 3.089 0
M  V30 164 H 15.0941 2.61374 4.30929 0
M  V30 165 H 14.6961 2.70938 2.57815 0
M  V30 166 H 16.9881 3.97618 5.48549 0
M  V30 167 H 17.9311 5.28797 4.70934 0
M  V30 168 H 18.3391 3.5811 4.36368 0
M  V30 169 N 17.7372 -0.778329 1.37039 0
M  V30 170 C 18.7002 -1.87301 1.32102 0
M  V30 171 C 19.7002 -1.59198 0.226405 0
M  V30 172 O 20.8902 -1.67403 0.481861 0
M  V30 173 C 18.0222 -3.24309 1.05055 0
M  V30 174 H 19.2152 -1.93093 2.29467 0
M  V30 175 H 16.7682 -0.977358 1.21973 0
M  V30 176 H 17.5032 -3.24196 0.0819373 0
M  V30 177 H 17.2882 -3.46098 1.84279 0
M  V30 178 H 18.7782 -4.04382 1.04234 0
M  V30 179 N 19.2153 -1.21501 -1.00376 0
M  V30 180 C 20.1483 -0.918669 -2.08892 0
M  V30 181 C 21.1263 0.134277 -1.62045 0
M  V30 182 O 22.3103 0.00504255 -1.88499 0
M  V30 183 C 19.4373 -0.379645 -3.36566 0
M  V30 184 C 18.4833 -1.41559 -4.02323 0
M  V30 185 S 19.3163 -2.98521 -4.44574 0
M  V30 186 C 20.4723 -2.46228 -5.75433 0
M  V30 187 H 20.7053 -1.83761 -2.33707 0
M  V30 188 H 18.2383 -1.04489 -1.13673 0
M  V30 189 H 20.1963 -0.0752195 -4.10431 0
M  V30 190 H 18.8573 0.518008 -3.09799 0
M  V30 191 H 18.0503 -0.988076 -4.9422 0
M  V30 192 H 17.6523 -1.66815 -3.34737 0
M  V30 193 H 19.9443 -1.86791 -6.51241 0
M  V30 194 H 20.8873 -3.36572 -6.22997 0
M  V30 195 H 21.2953 -1.87894 -5.32312 0
M  V30 196 N 20.6934 1.19889 -1.02296 0
M  V30 197 C 21.6404 2.22901 -0.598651 0
M  V30 198 C 22.6104 1.61588 0.384521 0
M  V30 199 O 23.7954 1.88697 0.282522 0
M  V30 200 C 20.9354 3.45063 0.0504476 0
M  V30 201 C 20.0484 4.20783 -0.978053 0
M  V30 202 C 19.1834 5.30356 -0.299338 0
M  V30 203 C 18.2224 5.97826 -1.31416 0
M  V30 204 N 17.3594 6.98975 -0.661667 0
M  V30 205 H 22.1994 2.58554 -1.48169 0
M  V30 206 H 19.7364 1.27039 -0.741584 0
M  V30 207 H 21.6944 4.14831 0.443971 0
M  V30 208 H 20.3244 3.10084 0.897097 0
M  V30 209 H 19.3764 3.50018 -1.48969 0
M  V30 210 H 20.6884 4.67109 -1.74958 0
M  V30 211 H 19.8424 6.06516 0.149347 0
M  V30 212 H 18.5814 4.85084 0.504445 0
M  V30 213 H 17.5864 5.20422 -1.77317 0
M  V30 214 H 18.8114 6.45183 -2.11933 0
M  V30 215 H 16.7574 6.55886 0.122132 0
M  V30 216 H 16.6744 7.43461 -1.37117 0
M  V30 217 H 17.9424 7.7914 -0.236785 0
M  V30 218 N 22.1715 0.800033 1.35784 0
M  V30 219 C 23.4195 0.376597 1.9856 0
M  V30 220 C 23.7405 -1.05812 1.63795 0
M  V30 221 O 23.0105 -1.73103 0.917171 0
M  V30 222 H 21.5905 0.136261 0.734467 0
M  V30 223 H 24.2525 1.02442 1.65806 0
M  V30 224 H 23.3485 0.477002 3.08433 0
M  V30 225 N 23.6496 -1.47581 0.552962 0
M  V30 226 C 24.5966 -2.29957 -0.197108 0
M  V30 227 C 25.5666 -1.38799 -0.912359 0
M  V30 228 O 26.7516 -1.67761 -0.908888 0
M  V30 229 C 23.8916 -3.22672 -1.22379 0
M  V30 230 C 23.0046 -4.28919 -0.515038 0
M  V30 231 C 22.1396 -5.0879 -1.52664 0
M  V30 232 C 21.1786 -6.06815 -0.802631 0
M  V30 233 N 20.3156 -6.7966 -1.76086 0
M  V30 234 H 25.1556 -2.93578 0.511486 0
M  V30 235 H 22.6926 -1.4471 0.264067 0
M  V30 236 H 24.6506 -3.74845 -1.83159 0
M  V30 237 H 23.2806 -2.60925 -1.90047 0
M  V30 238 H 22.3326 -3.79835 0.207192 0
M  V30 239 H 23.6446 -4.98773 0.0523425 0
M  V30 240 H 22.7986 -5.65091 -2.20809 0
M  V30 241 H 21.5376 -4.38828 -2.12794 0
M  V30 242 H 20.5426 -5.49695 -0.107238 0
M  V30 243 H 21.7676 -6.78784 -0.207135 0
M  V30 244 H 19.7136 -6.12432 -2.35081 0
M  V30 245 H 19.6306 -7.45669 -1.24552 0
M  V30 246 H 20.8986 -7.40538 -2.43359 0
M  V30 247 N 25.1277 -0.289203 -1.54924 0
M  V30 248 C 26.0757 0.607966 -2.24514 0
M  V30 249 C 27.0697 1.14655 -1.24702 0
M  V30 250 O 28.2757 1.09856 -1.4259 0
M  V30 251 H 24.6507 0.21464 -0.720718 0
M  V30 252 H 26.6217 -0.00164182 -2.984 0
M  V30 253 C 25.3707 1.77406 -2.99036 0
M  V30 254 H 24.6937 1.36884 -3.75637 0
M  V30 255 H 26.1337 2.37814 -3.51028 0
M  V30 256 C 24.5927 2.67107 -2.05318 0
M  V30 257 O 25.1227 3.6787 -1.61353 0
M  V30 258 N 23.3287 2.34582 -1.71521 0
M  V30 259 H 22.8757 1.52688 -2.07471 0
M  V30 260 H 22.8337 2.94867 -1.0909 0
M  V30 261 N 26.6058 1.57591 -0.0167156 0
M  V30 262 C 27.8458 1.93145 0.668902 0
M  V30 263 C 28.2098 0.892406 1.7 0
M  V30 264 O 29.4108 1.13373 2.43721 0
M  V30 265 C 27.6818 3.33678 1.28039 0
M  V30 266 S 29.2408 3.91142 1.9888 0
M  V30 267 H 26.0588 0.67593 0.220545 0
M  V30 268 H 28.6608 1.95347 -0.0774105 0
M  V30 269 H 27.3648 4.07126 0.517339 0
M  V30 270 H 26.8958 3.3489 2.06427 0
M  V30 271 H 28.9108 3.73571 3.26587 0
M  V30 272 N 28.0839 -0.256276 1.55502 0
M  V30 273 C 29.3299 -0.987079 1.77157 0
M  V30 274 C 29.6629 -1.85327 0.580315 0
M  V30 275 O 28.9379 -1.89874 -0.421686 0
M  V30 276 C 29.2209 -1.85553 3.08613 0
M  V30 277 C 29.0739 -1.01816 4.38125 0
M  V30 278 C 30.3929 -2.8397 3.36228 0
M  V30 279 H 27.5119 -0.357428 0.644526 0
M  V30 280 H 30.1539 -0.258239 1.88237 0
M  V30 281 H 28.3039 -2.47695 2.99298 0
M  V30 282 H 29.9759 -0.416159 4.59419 0
M  V30 283 H 28.2189 -0.322178 4.32602 0
M  V30 284 H 28.8899 -1.65939 5.26468 0
M  V30 285 H 31.3659 -2.31964 3.45445 0
M  V30 286 H 30.2419 -3.41864 4.29442 0
M  V30 287 H 30.5029 -3.59955 2.56681 0
M  V30 288 N 29.562 -1.4872 -0.521534 0
M  V30 289 C 30.525 -1.63379 -1.60748 0
M  V30 290 C 31.525 -0.50661 -1.52611 0
M  V30 291 O 32.715 -0.772601 -1.5613 0
M  V30 292 C 29.847 -1.61192 -3.00383 0
M  V30 293 H 31.04 -2.60217 -1.49087 0
M  V30 294 H 28.593 -1.37444 -0.744235 0
M  V30 295 H 29.328 -0.65863 -3.17541 0
M  V30 296 H 29.113 -2.43032 -3.07698 0
M  V30 297 H 30.603 -1.7466 -3.7932 0
M  V30 298 N 31.0401 0.771051 -1.3745 0
M  V30 299 C 32.2891 1.52491 -1.3202 0
M  V30 300 C 32.6021 1.9538 0.0927347 0
M  V30 301 O 33.8081 2.70159 0.269503 0
M  V30 302 C 32.2641 2.75366 -2.31736 0
M  V30 303 C 31.8721 2.39573 -3.78562 0
M  V30 304 C 33.6161 3.53307 -2.35318 0
M  V30 305 C 31.5231 3.58954 -4.70007 0
M  V30 306 H 30.4531 0.572506 -0.490666 0
M  V30 307 H 33.1041 0.844474 -1.62914 0
M  V30 308 H 31.4861 3.45303 -1.93861 0
M  V30 309 H 32.6601 1.77415 -4.25277 0
M  V30 310 H 30.9751 1.74805 -3.77932 0
M  V30 311 H 33.5721 4.42039 -3.00842 0
M  V30 312 H 33.9151 3.93217 -1.36698 0
M  V30 313 H 34.4481 2.90367 -2.71904 0
M  V30 314 H 31.1871 3.24125 -5.69757 0
M  V30 315 H 30.7071 4.20214 -4.27996 0
M  V30 316 H 32.3861 4.25758 -4.87175 0
M  V30 317 N 32.5182 1.22032 0.997298 0
M  V30 318 C 33.4812 0.987909 2.06816 0
M  V30 319 C 34.4812 -0.0440084 1.6074 0
M  V30 320 O 35.6712 0.194053 1.73116 0
M  V30 321 C 32.8032 0.49132 3.37341 0
M  V30 322 H 33.9962 1.93803 2.28868 0
M  V30 323 H 31.5492 1.03838 1.16822 0
M  V30 324 H 32.2842 -0.463364 3.20973 0
M  V30 325 H 32.0692 1.23575 3.72118 0
M  V30 326 H 33.5592 0.348824 4.16141 0
M  V30 327 N 33.9963 -1.19345 1.0293 0
M  V30 328 C 34.9593 -2.20793 0.615069 0
M  V30 329 C 35.9593 -1.57553 -0.321533 0
M  V30 330 O 37.1493 -1.73862 -0.108483 0
M  V30 331 C 34.2813 -3.40754 -0.0999222 0
M  V30 332 H 35.4743 -2.58955 1.51269 0
M  V30 333 H 33.0273 -1.3303 0.820534 0
M  V30 334 H 33.7623 -3.0811 -1.01187 0
M  V30 335 H 33.5473 -3.87889 0.57309 0
M  V30 336 H 35.0373 -4.15898 -0.376645 0
M  V30 337 N 35.4744 -0.807222 -1.35358 0
M  V30 338 C 36.7514 -0.311126 -1.9311 0
M  V30 339 C 37.1314 1.19937 -1.73719 0
M  V30 340 O 36.4794 1.99918 -1.10657 0
M  V30 341 C 36.6894 -0.723226 -3.41424 0
M  V30 342 C 38.0374 -0.713078 -4.18569 0
M  V30 343 O 39.0614 -0.664811 -3.49941 0
M  V30 344 O 37.9204 -0.772022 -5.41019 0
M  V30 345 H 35.0144 -0.081526 -0.822972 0
M  V30 346 H 37.5604 -0.890962 -1.4443 0
M  V30 347 H 36.3324 -1.76426 -3.4927 0
M  V30 348 H 35.9554 -0.118232 -3.97424 0
M  V30 349 N 36.9525 1.47285 -0.560781 0
M  V30 350 C 38.3685 1.58065 -0.22081 0
M  V30 351 C 38.5685 1.55892 1.27671 0
M  V30 352 O 37.6245 1.46422 2.0571 0
M  V30 353 C 38.9375 2.88418 -0.850625 0
M  V30 354 C 40.4855 3.02009 -0.822184 0
M  V30 355 C 40.9605 4.35066 -1.43113 0
M  V30 356 N 42.4515 4.41711 -1.39448 0
M  V30 357 C 43.1865 5.43237 -1.83525 0
M  V30 358 N 42.6825 6.51555 -2.35474 0
M  V30 359 N 44.4755 5.34304 -1.74574 0
M  V30 360 H 36.6265 1.46941 -1.53369 0
M  V30 361 H 38.8895 0.699558 -0.639783 0
M  V30 362 H 38.5955 2.95755 -1.9032 0
M  V30 363 H 38.4695 3.75612 -0.345773 0
M  V30 364 H 40.8565 2.94266 0.221714 0
M  V30 365 H 40.9375 2.16347 -1.36483 0
M  V30 366 H 40.5815 4.43565 -2.47412 0
M  V30 367 H 40.5115 5.19465 -0.863899 0
M  V30 368 H 43.0025 3.64027 -1.01452 0
M  V30 369 H 43.3155 7.25203 -2.67021 0
M  V30 370 H 41.6605 6.52435 -2.39487 0
M  V30 371 H 44.8515 4.48581 -1.33763 0
M  V30 372 H 45.0245 6.13288 -2.09242 0
M  V30 373 N 38.4306 0.297415 1.54768 0
M  V30 374 C 39.8466 -0.0560823 1.59501 0
M  V30 375 C 40.0466 -1.52725 1.31444 0
M  V30 376 O 39.1026 -2.27947 1.08611 0
M  V30 377 C 40.4156 0.338631 2.98787 0
M  V30 378 C 41.9636 0.287097 3.11681 0
M  V30 379 C 42.4386 0.656579 4.53269 0
M  V30 380 N 43.9296 0.608977 4.59179 0
M  V30 381 C 44.6646 0.867385 5.66802 0
M  V30 382 N 44.1606 1.19157 6.82476 0
M  V30 383 N 45.9536 0.794687 5.56454 0
M  V30 384 H 38.1046 1.25624 1.71267 0
M  V30 385 H 40.3676 0.509057 0.799728 0
M  V30 386 H 40.0736 1.36263 3.2423 0
M  V30 387 H 39.9476 -0.309508 3.75928 0
M  V30 388 H 42.3346 -0.727649 2.85988 0
M  V30 389 H 42.4156 0.969809 2.36703 0
M  V30 390 H 42.0596 1.66912 4.7969 0
M  V30 391 H 41.9896 -0.0481649 5.26578 0
M  V30 392 H 44.4806 0.369198 3.76092 0
M  V30 393 H 44.7936 1.37482 7.60473 0
M  V30 394 H 43.1386 1.22958 6.84037 0
M  V30 395 H 46.3296 0.541098 4.64962 0
M  V30 396 H 46.5026 0.999445 6.40246 0
M  V30 397 N 39.9087 -1.5758 0.0250728 0
M  V30 398 C 41.1557 -1.91633 -0.654444 0
M  V30 399 C 41.4837 -0.901103 -1.72367 0
M  V30 400 O 40.7387 0.0905647 -1.9549 0
M  V30 401 C 41.0377 -3.32421 -1.31268 0
M  V30 402 C 40.7037 -4.49344 -0.374223 0
M  V30 403 C 39.3657 -4.8106 -0.115911 0
M  V30 404 C 41.7177 -5.20498 0.270432 0
M  V30 405 C 39.0457 -5.8129 0.79493 0
M  V30 406 C 41.3977 -6.21699 1.1693 0
M  V30 407 C 40.0617 -6.51859 1.43655 0
M  V30 408 H 39.3317 -0.701236 -0.239478 0
M  V30 409 H 41.9787 -1.91307 0.0859734 0
M  V30 410 H 40.2837 -3.28989 -2.12775 0
M  V30 411 H 41.9807 -3.56038 -1.84494 0
M  V30 412 H 38.5707 -4.24579 -0.58573 0
M  V30 413 H 42.7547 -4.96229 0.0839194 0
M  V30 414 H 38.0107 -6.03005 1.00973 0
M  V30 415 H 42.1847 -6.75955 1.67504 0
M  V30 416 H 39.8117 -7.2934 2.144 0
M  V30 417 N 41.3868 0.248026 -1.55636 0
M  V30 418 C 42.6348 0.974295 -1.77065 0
M  V30 419 C 42.9558 1.85897 -0.588849 0
M  V30 420 O 42.2258 1.91868 0.395407 0
M  V30 421 H 40.8058 0.362733 -0.653019 0
M  V30 422 H 43.4678 0.266244 -1.93073 0
M  V30 423 H 42.5638 1.59667 -2.68166 0
M  V30 424 N 42.8649 1.48995 0.513639 0
M  V30 425 C 44.1139 1.57093 1.2651 0
M  V30 426 C 44.4269 0.257091 1.93903 0
M  V30 427 O 45.6329 0.216478 2.70636 0
M  V30 428 C 44.0889 2.77118 2.29638 0
M  V30 429 C 43.6969 4.15209 1.68241 0
M  V30 430 C 45.4409 2.94538 3.05692 0
M  V30 431 C 43.3479 5.26474 2.69406 0
M  V30 432 H 42.2779 0.584876 0.475854 0
M  V30 433 H 44.9289 1.7536 0.540487 0
M  V30 434 H 43.3109 2.52319 3.05207 0
M  V30 435 H 44.4849 4.50094 0.987505 0
M  V30 436 H 42.7999 4.03042 1.04623 0
M  V30 437 H 45.3969 3.74832 3.8132 0
M  V30 438 H 45.7399 2.04614 3.62545 0
M  V30 439 H 46.2729 3.19316 2.37238 0
M  V30 440 H 43.0119 6.18417 2.17351 0
M  V30 441 H 42.5319 4.96058 3.37175 0
M  V30 442 H 44.2109 5.55277 3.32078 0
M  V30 443 N 44.343 -0.763751 1.37857 0
M  V30 444 C 45.275 -1.88664 1.30148 0
M  V30 445 C 46.288 -1.61365 0.215685 0
M  V30 446 O 47.477 -1.72134 0.472459 0
M  V30 447 C 44.577 -3.24075 0.991396 0
M  V30 448 C 43.75 -3.78958 2.18426 0
M  V30 449 C 42.809 -4.92862 1.8432 0
M  V30 450 O 41.835 -5.08027 2.56704 0
M  V30 451 N 43.037 -5.75071 0.792081 0
M  V30 452 H 45.802 -1.95791 2.26905 0
M  V30 453 H 43.363 -0.943226 1.31586 0
M  V30 454 H 45.355 -3.97804 0.743935 0
M  V30 455 H 43.925 -3.12399 0.112122 0
M  V30 456 H 43.145 -2.96913 2.59299 0
M  V30 457 H 44.433 -4.12357 2.98058 0
M  V30 458 H 43.831 -5.65375 0.191595 0
M  V30 459 H 42.388 -6.48991 0.60449 0
M  V30 460 N 45.8211 -1.22559 -0.990812 0
M  V30 461 C 46.7841 -0.998863 -2.0629 0
M  V30 462 C 47.7841 0.0354834 -1.60761 0
M  V30 463 O 48.9741 -0.203231 -1.7301 0
M  V30 464 C 46.1061 -0.509203 -3.37076 0
M  V30 465 H 47.2991 -1.95014 -2.27837 0
M  V30 466 H 44.8521 -1.04456 -1.16269 0
M  V30 467 H 45.5871 0.446335 -3.21214 0
M  V30 468 H 45.3721 -1.25547 -3.71457 0
M  V30 469 H 46.8621 -0.370888 -4.1595 0
M  V30 470 N 47.2992 1.18797 -1.03562 0
M  V30 471 C 48.2312 2.21731 -0.580337 0
M  V30 472 C 49.2442 1.59051 0.347349 0
M  V30 473 O 50.4332 1.77929 0.142669 0
M  V30 474 C 47.5332 3.38459 0.172805 0
M  V30 475 C 46.7062 4.3072 -0.761496 0
M  V30 476 C 45.7652 5.26174 -0.0525547 0
M  V30 477 O 44.7912 5.65108 -0.681333 0
M  V30 478 N 45.9932 5.67624 1.21586 0
M  V30 479 H 48.7582 2.61417 -1.46565 0
M  V30 480 H 46.3192 1.33531 -0.915476 0
M  V30 481 H 48.3112 3.99335 0.656793 0
M  V30 482 H 46.8812 2.97507 0.959602 0
M  V30 483 H 46.1012 3.67525 -1.42544 0
M  V30 484 H 47.3892 4.89267 -1.39626 0
M  V30 485 H 46.7872 5.38038 1.74732 0
M  V30 486 H 45.3442 6.30721 1.64421 0
M  V30 487 N 48.7773 0.814389 1.34928 0
M  V30 488 C 49.7103 0.175641 2.27523 0
M  V30 489 C 50.6883 -0.662953 1.48471 0
M  V30 490 O 51.8723 -0.628545 1.77712 0
M  V30 491 C 48.9993 -0.755516 3.30166 0
M  V30 492 C 48.0453 0.00445305 4.265 0
M  V30 493 S 48.8783 1.34582 5.18313 0
M  V30 494 C 50.0343 0.419315 6.24494 0
M  V30 495 H 50.2673 0.960691 2.8135 0
M  V30 496 H 47.8003 0.609846 1.41846 0
M  V30 497 H 49.7583 -1.28723 3.89796 0
M  V30 498 H 48.4193 -1.51402 2.75202 0
M  V30 499 H 47.6123 -0.703077 4.99072 0
M  V30 500 H 47.2143 0.466447 3.7108 0
M  V30 501 H 49.5063 -0.392432 6.76362 0
M  V30 502 H 50.4493 1.11446 6.99275 0
M  V30 503 H 50.8573 0.0115389 5.64499 0
M  V30 504 N 50.2554 -1.46986 0.568584 0
M  V30 505 C 51.5014 -2.02741 0.0488709 0
M  V30 506 C 51.8344 -1.44077 -1.30214 0
M  V30 507 O 51.1094 -0.600552 -1.84996 0
M  V30 508 C 51.3924 -3.60086 -0.032047 0
M  V30 509 C 51.2454 -4.29162 1.34686 0
M  V30 510 C 52.5644 -4.33838 -0.739798 0
M  V30 511 H 49.6834 -0.736749 0.0192338 0
M  V30 512 H 52.3254 -1.75289 0.733065 0
M  V30 513 H 50.4754 -3.83606 -0.61473 0
M  V30 514 H 52.1474 -4.16948 1.97362 0
M  V30 515 H 50.3904 -3.89073 1.91846 0
M  V30 516 H 51.0614 -5.37826 1.24285 0
M  V30 517 H 53.5374 -4.15378 -0.244939 0
M  V30 518 H 52.4134 -5.43537 -0.765406 0
M  V30 519 H 52.6744 -4.03875 -1.79827 0
M  V30 520 N 51.7335 -0.305618 -1.54608 0
M  V30 521 C 52.9615 0.304775 -2.04643 0
M  V30 522 C 53.3765 1.47167 -1.18268 0
M  V30 523 O 52.7335 1.81296 -0.209328 0
M  V30 524 C 52.7845 0.756564 -3.53495 0
M  V30 525 O 52.5055 -0.36389 -4.36586 0
M  V30 526 C 54.0065 1.43163 -4.19546 0
M  V30 527 H 51.2265 0.0655481 -0.667791 0
M  V30 528 H 53.7705 -0.446592 -1.99564 0
M  V30 529 H 51.9255 1.45794 -3.58919 0
M  V30 530 H 52.3395 -0.0113121 -5.24499 0
M  V30 531 H 53.8135 1.69886 -5.25207 0
M  V30 532 H 54.2905 2.37318 -3.69563 0
M  V30 533 H 54.8965 0.773307 -4.18211 0
M  V30 534 N 53.2116 1.57565 -0.0334293 0
M  V30 535 C 54.4396 1.9628 0.654347 0
M  V30 536 C 54.8546 0.910138 1.65414 0
M  V30 537 O 54.2116 -0.107595 1.82183 0
M  V30 538 C 54.2626 3.35067 1.35693 0
M  V30 539 O 53.9836 4.36296 0.397191 0
M  V30 540 C 55.4846 3.88439 2.13613 0
M  V30 541 H 52.7046 0.646369 0.180132 0
M  V30 542 H 55.2486 2.04282 -0.0944721 0
M  V30 543 H 53.4036 3.2827 2.05712 0
M  V30 544 H 53.8176 5.1678 0.896597 0
M  V30 545 H 55.2916 4.8788 2.58219 0
M  V30 546 H 55.7686 3.22914 2.97696 0
M  V30 547 H 56.3746 3.98516 1.48543 0
M  V30 548 N 54.6897 -0.239769 1.55765 0
M  V30 549 C 55.9667 -0.990056 1.68693 0
M  V30 550 C 56.3467 -2.03107 0.5754 0
M  V30 551 O 55.6947 -2.24604 -0.42017 0
M  V30 552 C 55.9047 -1.61696 3.09282 0
M  V30 553 C 57.2527 -2.11613 3.6811 0
M  V30 554 O 58.2767 -1.71624 3.12127 0
M  V30 555 O 57.1357 -2.85057 4.66267 0
M  V30 556 H 54.2297 -0.461299 0.686391 0
M  V30 557 H 56.7757 -0.232991 1.68093 0
M  V30 558 H 55.5477 -0.864357 3.81634 0
M  V30 559 H 55.1707 -2.44005 3.13923 0
M  V30 560 N 56.1678 -1.49265 -0.50573 0
M  V30 561 C 57.4148 -1.58513 -1.26015 0
M  V30 562 C 57.7428 -0.26972 -1.92621 0
M  V30 563 O 56.9978 0.741997 -1.81088 0
M  V30 564 C 57.2968 -2.69008 -2.35308 0
M  V30 565 C 56.9628 -4.10662 -1.86192 0
M  V30 566 C 55.6248 -4.49212 -1.72516 0
M  V30 567 C 57.9768 -4.99336 -1.49375 0
M  V30 568 C 55.3048 -5.74214 -1.20394 0
M  V30 569 C 57.6568 -6.24852 -0.987072 0
M  V30 570 C 56.3208 -6.62236 -0.836669 0
M  V30 571 H 55.5908 -0.580041 -0.461122 0
M  V30 572 H 58.2378 -1.83078 -0.561665 0
M  V30 573 H 56.5428 -2.38396 -3.10926 0
M  V30 574 H 58.2398 -2.73373 -2.93374 0
M  V30 575 H 54.8298 -3.8023 -1.97795 0
M  V30 576 H 59.0138 -4.70212 -1.5879 0
M  V30 577 H 54.2698 -6.01883 -1.07458 0
M  V30 578 H 58.4438 -6.92944 -0.692983 0
M  V30 579 H 56.0708 -7.58979 -0.430607 0
M  V30 580 N 57.6459 0.756429 -1.3826 0
M  V30 581 C 58.5779 1.87971 -1.31147 0
M  V30 582 C 59.5909 1.61248 -0.224239 0
M  V30 583 O 60.7799 1.71881 -0.481581 0
M  V30 584 C 57.8799 3.23545 -1.00857 0
M  V30 585 C 57.0529 3.77794 -2.20432 0
M  V30 586 C 56.1119 4.91877 -1.86931 0
M  V30 587 O 55.1379 5.06659 -2.59395 0
M  V30 588 N 56.3399 5.74643 -0.822568 0
M  V30 589 H 59.1049 1.94585 -2.2794 0
M  V30 590 H 56.6659 0.936234 -1.32084 0
M  V30 591 H 58.6579 3.97403 -0.765021 0
M  V30 592 H 57.2279 3.12335 -0.128687 0
M  V30 593 H 56.4479 2.95534 -2.6087 0
M  V30 594 H 57.7359 4.10771 -3.00241 0
M  V30 595 H 57.1339 5.65266 -0.221575 0
M  V30 596 H 55.6909 6.48661 -0.638899 0
M  V30 597 N 59.124 1.23083 0.984299 0
M  V30 598 C 60.071 1.00854 2.07598 0
M  V30 599 C 61.041 -0.0726709 1.65941 0
M  V30 600 O 62.226 0.0786535 1.90638 0
M  V30 601 C 59.366 0.601645 3.39815 0
M  V30 602 C 58.479 1.75456 3.94765 0
M  V30 603 C 57.614 1.29482 5.15177 0
M  V30 604 C 56.653 2.41873 5.62284 0
M  V30 605 N 55.79 1.96885 6.73929 0
M  V30 606 H 60.63 1.943 2.25946 0
M  V30 607 H 58.167 0.968001 1.10762 0
M  V30 608 H 60.125 0.346854 4.15756 0
M  V30 609 H 58.755 -0.295803 3.21442 0
M  V30 610 H 57.807 2.12346 3.15616 0
M  V30 611 H 59.119 2.59965 4.25699 0
M  V30 612 H 58.273 0.997923 5.98437 0
M  V30 613 H 57.012 0.420046 4.85888 0
M  V30 614 H 56.017 2.72342 4.77608 0
M  V30 615 H 57.242 3.29881 5.93595 0
M  V30 616 H 55.188 1.11782 6.46406 0
M  V30 617 H 55.105 2.74956 7.04227 0
M  V30 618 H 56.373 1.70289 7.60672 0
M  V30 619 N 60.6021 -1.18246 1.0419 0
M  V30 620 C 61.8511 -1.87588 0.741194 0
M  V30 621 C 62.1641 -1.81303 -0.734066 0
M  V30 622 O 63.3701 -2.46019 -1.14834 0
M  V30 623 C 61.8261 -3.36538 1.27555 0
M  V30 624 C 61.4341 -3.51349 2.77953 0
M  V30 625 C 63.1781 -4.11273 1.05143 0
M  V30 626 C 61.0851 -4.94265 3.2474 0
M  V30 627 H 60.0151 -0.702622 0.273565 0
M  V30 628 H 62.6661 -1.33601 1.25789 0
M  V30 629 H 61.0481 -3.9 0.686703 0
M  V30 630 H 62.2221 -3.08153 3.42605 0
M  V30 631 H 60.5371 -2.90022 2.98791 0
M  V30 632 H 63.1341 -5.16689 1.37611 0
M  V30 633 H 63.4771 -4.16298 -0.0112774 0
M  V30 634 H 64.0101 -3.63987 1.60495 0
M  V30 635 H 60.7491 -4.94408 4.30396 0
M  V30 636 H 60.2691 -5.38172 2.64823 0
M  V30 637 H 61.9481 -5.62987 3.18834 0
M  V30 638 N 62.0802 -0.821533 -1.34494 0
M  V30 639 C 63.3272 -0.408946 -1.98328 0
M  V30 640 C 63.6552 1.02764 -1.65136 0
M  V30 641 O 62.9102 1.73026 -0.914349 0
M  V30 642 C 63.2092 -0.556512 -3.53041 0
M  V30 643 C 62.8752 -1.95861 -4.0614 0
M  V30 644 C 61.5372 -2.34217 -4.20352 0
M  V30 645 C 63.8892 -2.87523 -4.34718 0
M  V30 646 C 61.2172 -3.63572 -4.6047 0
M  V30 647 C 63.5692 -4.1634 -4.76281 0
M  V30 648 C 62.2332 -4.54675 -4.88699 0
M  V30 649 H 61.5032 -0.149644 -0.725732 0
M  V30 650 H 64.1502 -1.04521 -1.6046 0
M  V30 651 H 62.4552 0.163148 -3.9146 0
M  V30 652 H 64.1522 -0.217826 -4.00408 0
M  V30 653 H 60.7422 -1.65066 -3.95539 0
M  V30 654 H 64.9262 -2.59133 -4.23277 0
M  V30 655 H 60.1822 -3.93101 -4.68275 0
M  V30 656 H 64.3562 -4.87455 -4.97354 0
M  V30 657 H 61.9832 -5.54959 -5.19542 0
M  V30 658 N 63.5583 1.46682 -0.576371 0
M  V30 659 C 64.9693 1.86112 -0.148091 0
M  V30 660 C 65.3203 1.48073 1.2872 0
M  V30 661 O 64.4453 0.892656 1.97131 0
M  V30 662 C 65.0403 3.37786 -0.261982 0
M  V30 663 C 63.5993 3.76235 0.111384 0
M  V30 664 C 62.7463 2.70713 -0.60083 0
M  V30 665 H 65.6973 1.37927 -0.78497 0
M  V30 666 H 65.7183 3.77007 0.514364 0
M  V30 667 H 65.2303 3.6544 -1.30671 0
M  V30 668 H 63.3313 3.54198 1.15649 0
M  V30 669 H 63.4443 4.78391 -0.26052 0
M  V30 670 H 61.8083 2.54666 -0.0417783 0
M  V30 671 H 62.5913 3.01208 -1.64708 0
M  V30 672 N 65.0364 0.313813 1.54444 0
M  V30 673 C 65.9694 -0.598866 2.20202 0
M  V30 674 C 66.9474 -1.12318 1.17573 0
M  V30 675 O 68.1314 -1.18899 1.46271 0
M  V30 676 C 65.2584 -1.82071 2.85601 0
M  V30 677 C 64.3044 -1.42851 4.01865 0
M  V30 678 S 65.1374 -0.473512 5.33402 0
M  V30 679 C 66.2934 -1.70286 6.0229 0
M  V30 680 H 66.5264 -0.0402532 2.97273 0
M  V30 681 H 64.0594 0.0979165 1.54089 0
M  V30 682 H 66.0174 -2.52184 3.23904 0
M  V30 683 H 64.6784 -2.3505 2.08351 0
M  V30 684 H 63.8714 -2.33871 4.46453 0
M  V30 685 H 63.4734 -0.807198 3.65185 0
M  V30 686 H 65.7654 -2.64168 6.23876 0
M  V30 687 H 66.7084 -1.29932 6.96077 0
M  V30 688 H 67.1164 -1.88541 5.32083 0
M  V30 689 N 66.5145 -1.57545 0.0417849 0
M  V30 690 C 67.7625 -1.91937 -0.632829 0
M  V30 691 C 68.0835 -0.919978 -1.71934 0
M  V30 692 O 67.3535 0.0366064 -1.95866 0
M  V30 693 H 65.9335 -0.708493 -0.236742 0
M  V30 694 H 68.5955 -1.9468 0.0925745 0
M  V30 695 H 67.6915 -2.92912 -1.07746 0
M  V30 696 N 67.9926 0.231505 -1.5589 0
M  V30 697 C 69.2696 0.981096 -1.69215 0
M  V30 698 C 69.6496 2.02799 -0.586164 0
M  V30 699 O 68.9976 2.24823 0.408253 0
M  V30 700 C 69.2076 1.60054 -3.10135 0
M  V30 701 C 70.5556 2.09658 -3.69227 0
M  V30 702 O 71.5796 1.69967 -3.13033 0
M  V30 703 O 70.4386 2.8258 -4.67772 0
M  V30 704 H 67.5326 0.457653 -0.688827 0
M  V30 705 H 70.0786 0.224073 -1.68214 0
M  V30 706 H 68.8506 0.844105 -3.82087 0
M  V30 707 H 68.4736 2.42336 -3.15212 0
M  V30 708 N 69.4707 1.49531 0.497807 0
M  V30 709 C 70.8867 1.36365 0.829266 0
M  V30 710 C 71.0867 0.399184 1.97506 0
M  V30 711 O 70.1427 -0.167977 2.51941 0
M  V30 712 C 71.4557 2.77153 1.16647 0
M  V30 713 C 73.0037 2.85877 1.27449 0
M  V30 714 C 73.4787 4.2744 1.64497 0
M  V30 715 N 74.9697 4.30265 1.7154 0
M  V30 716 C 75.7047 5.3677 2.01656 0
M  V30 717 N 75.2007 6.53516 2.29976 0
M  V30 718 N 76.9937 5.24189 2.02934 0
M  V30 719 H 69.1447 2.10831 -0.257703 0
M  V30 720 H 71.4077 0.946534 -0.0527091 0
M  V30 721 H 71.1137 3.49442 0.397872 0
M  V30 722 H 70.9877 3.12722 2.10915 0
M  V30 723 H 73.3747 2.13824 2.0338 0
M  V30 724 H 73.4557 2.53887 0.312244 0
M  V30 725 H 73.0997 5.00021 0.891151 0
M  V30 726 H 73.0297 4.56896 2.61827 0
M  V30 727 H 75.5207 3.4607 1.51802 0
M  V30 728 H 75.8337 7.30506 2.52153 0
M  V30 729 H 74.1787 6.56737 2.27425 0
M  V30 730 H 77.3697 4.31988 1.80289 0
M  V30 731 H 77.5427 6.07286 2.26071 0
M  V30 732 N 70.9488 -0.749086 1.3866 0
M  V30 733 C 71.8788 -1.8764 1.38973 0
M  V30 734 C 72.8598 -1.68178 0.255004 0
M  V30 735 O 74.0448 -1.88704 0.458754 0
M  V30 736 C 71.1748 -3.25222 1.21851 0
M  V30 737 C 70.1288 -3.59295 2.32575 0
M  V30 738 C 69.4548 -4.95663 2.00555 0
M  V30 739 C 70.7548 -3.63709 3.7485 0
M  V30 740 H 72.4488 -1.87635 2.3331 0
M  V30 741 H 69.9948 -0.901329 1.12303 0
M  V30 742 H 71.9478 -4.03746 1.20695 0
M  V30 743 H 70.6718 -3.25719 0.239775 0
M  V30 744 H 69.3308 -2.83093 2.32925 0
M  V30 745 H 68.9788 -4.92724 1.01154 0
M  V30 746 H 68.6788 -5.19429 2.74714 0
M  V30 747 H 70.2028 -5.7656 2.01024 0
M  V30 748 H 71.6168 -4.32338 3.76506 0
M  V30 749 H 70.0138 -3.98986 4.48252 0
M  V30 750 H 71.0838 -2.63834 4.06841 0
M  V30 751 N 72.4269 -1.23603 -0.977757 0
M  V30 752 C 73.6569 -1.09487 -1.75203 0
M  V30 753 C 74.0649 0.356321 -1.85814 0
M  V30 754 O 73.4079 1.25816 -1.33851 0
M  V30 755 C 73.4699 -1.64905 -3.19447 0
M  V30 756 C 73.1339 -3.13688 -3.32338 0
M  V30 757 C 74.1309 -4.10953 -3.18455 0
M  V30 758 C 71.8159 -3.53449 -3.56902 0
M  V30 759 C 73.8099 -5.45962 -3.28944 0
M  V30 760 C 71.4969 -4.88602 -3.6703 0
M  V30 761 C 72.4949 -5.84668 -3.53062 0
M  V30 762 O 72.1829 -7.17365 -3.62826 0
M  V30 763 H 71.9149 -0.38367 -0.556573 0
M  V30 764 H 74.4689 -1.6398 -1.23693 0
M  V30 765 H 72.6989 -1.04835 -3.72218 0
M  V30 766 H 74.3879 -1.46226 -3.78646 0
M  V30 767 H 75.1539 -3.81577 -2.99372 0
M  V30 768 H 71.0329 -2.79188 -3.66844 0
M  V30 769 H 74.5769 -6.20925 -3.17958 0
M  V30 770 H 70.4739 -5.17653 -3.85623 0
M  V30 771 H 71.2419 -7.2515 -3.79605 0
M  V30 772 N 73.905 1.17692 -1.04816 0
M  V30 773 C 75.154 1.87192 -0.751132 0
M  V30 774 C 75.467 1.8169 0.724441 0
M  V30 775 O 76.673 2.46625 1.13527 0
M  V30 776 C 75.129 3.35857 -1.29338 0
M  V30 777 C 74.737 3.4987 -2.79812 0
M  V30 778 C 76.481 4.10709 -1.07322 0
M  V30 779 C 74.388 4.92536 -3.27356 0
M  V30 780 H 73.318 0.701162 -0.277288 0
M  V30 781 H 75.969 1.32932 -1.26496 0
M  V30 782 H 74.351 3.89631 -0.707376 0
M  V30 783 H 75.525 3.06332 -3.44235 0
M  V30 784 H 73.84 2.88433 -3.00325 0
M  V30 785 H 76.437 5.15952 -1.4035 0
M  V30 786 H 76.78 4.16299 -0.0108001 0
M  V30 787 H 77.313 3.6313 -1.62423 0
M  V30 788 H 74.052 4.92119 -4.33012 0
M  V30 789 H 73.572 5.3676 -2.67673 0
M  V30 790 H 75.251 5.61288 -3.21815 0
M  V30 791 N 75.3831 0.828654 1.34056 0
M  V30 792 C 76.6311 0.41863 1.97717 0
M  V30 793 C 76.9521 -1.02314 1.66002 0
M  V30 794 O 76.2221 -1.71119 0.953683 0
M  V30 795 H 74.8021 0.151809 0.731412 0
M  V30 796 H 77.4641 1.05936 1.63596 0
M  V30 797 H 76.5601 0.542318 3.07352 0
M  V30 798 N 76.8612 -1.46375 0.584142 0
M  V30 799 C 77.7912 -2.33103 -0.136037 0
M  V30 800 C 78.7722 -1.45431 -0.882255 0
M  V30 801 O 79.9572 -1.74246 -0.857434 0
M  V30 802 C 77.0872 -3.27731 -1.14933 0
M  V30 803 C 76.0412 -4.24855 -0.517862 0
M  V30 804 C 75.3672 -5.09001 -1.63773 0
M  V30 805 C 76.6672 -5.19439 0.545886 0
M  V30 806 H 78.3612 -2.93568 0.588086 0
M  V30 807 H 75.9072 -1.41166 0.284259 0
M  V30 808 H 77.8602 -3.87261 -1.66153 0
M  V30 809 H 76.5842 -2.65377 -1.90375 0
M  V30 810 H 75.2432 -3.6659 -0.0267361 0
M  V30 811 H 74.8912 -4.43031 -2.38185 0
M  V30 812 H 74.5912 -5.74777 -1.22085 0
M  V30 813 H 76.1152 -5.71396 -2.15266 0
M  V30 814 H 77.5292 -5.73177 0.118704 0
M  V30 815 H 75.9262 -5.93566 0.88317 0
M  V30 816 H 76.9962 -4.63285 1.43162 0
M  V30 817 N 78.3393 -0.321999 -1.54275 0
M  V30 818 C 79.3023 0.531975 -2.22941 0
M  V30 819 C 80.3023 1.04478 -1.22234 0
M  V30 820 O 81.4923 0.937452 -1.46825 0
M  V30 821 C 78.6243 1.73874 -2.93224 0
M  V30 822 H 79.8173 -0.0682612 -2.99822 0
M  V30 823 H 77.3703 -0.0730644 -1.56129 0
M  V30 824 H 78.1053 2.37825 -2.20476 0
M  V30 825 H 77.8903 1.37847 -3.6707 0
M  V30 826 H 79.3803 2.34496 -3.45545 0
M  V30 827 N 79.8174 1.5752 -0.0501392 0
M  V30 828 C 81.0654 1.9227 0.622642 0
M  V30 829 C 81.3864 0.929083 1.71444 0
M  V30 830 O 80.6564 -0.0262186 1.95882 0
M  V30 831 H 79.2364 0.709739 0.232981 0
M  V30 832 H 81.8984 1.94628 -0.102898 0
M  V30 833 H 80.9944 2.93479 1.06191 0
M  V30 834 N 81.2955 -0.223234 1.56011 0
M  V30 835 C 82.2255 -1.27988 1.95298 0
M  V30 836 C 83.2065 -1.48976 0.820979 0
M  V30 837 O 84.3915 -1.61188 1.08315 0
M  V30 838 C 81.5215 -2.63 2.26822 0
M  V30 839 C 80.4755 -2.56671 3.42497 0
M  V30 840 C 79.8015 -3.95697 3.59622 0
M  V30 841 C 81.1015 -2.11601 4.77517 0
M  V30 842 H 82.7955 -0.953525 2.8381 0
M  V30 843 H 80.3415 -0.457244 1.36548 0
M  V30 844 H 82.2945 -3.37077 2.52898 0
M  V30 845 H 81.0185 -2.9732 1.35161 0
M  V30 846 H 79.6775 -1.85051 3.16467 0
M  V30 847 H 79.3255 -4.27322 2.6534 0
M  V30 848 H 79.0255 -3.92345 4.37424 0
M  V30 849 H 80.5495 -4.71438 3.88044 0
M  V30 850 H 81.9635 -2.7542 5.02809 0
M  V30 851 H 80.3605 -2.19311 5.5859 0
M  V30 852 H 81.4305 -1.06824 4.72987 0
M  V30 853 N 82.7736 -1.49793 -0.48987 0
M  V30 854 C 83.7366 -1.66752 -1.57246 0
M  V30 855 C 84.7366 -0.538867 -1.51502 0
M  V30 856 O 85.9266 -0.805545 -1.54456 0
M  V30 857 C 83.0586 -1.67528 -2.96896 0
M  V30 858 H 84.2516 -2.63321 -1.43534 0
M  V30 859 H 81.8046 -1.38992 -0.714914 0
M  V30 860 H 82.5396 -0.725837 -3.16073 0
M  V30 861 H 82.3246 -2.49504 -3.02473 0
M  V30 862 H 83.8146 -1.82667 -3.7553 0
M  V30 863 N 84.2517 0.741722 -1.39055 0
M  V30 864 C 85.4797 1.53098 -1.39171 0
M  V30 865 C 85.8947 1.88794 0.0155099 0
M  V30 866 O 85.2517 1.53626 0.985159 0
M  V30 867 C 85.3027 2.82274 -2.2584 0
M  V30 868 O 85.0237 2.48097 -3.61081 0
M  V30 869 C 86.5247 3.76343 -2.34266 0
M  V30 870 H 83.7447 0.473335 -0.4756 0
M  V30 871 H 86.2887 0.917045 -1.82785 0
M  V30 872 H 84.4437 3.40015 -1.85656 0
M  V30 873 H 84.8577 3.31029 -4.06842 0
M  V30 874 H 86.3317 4.63898 -2.9917 0
M  V30 875 H 86.8087 4.17619 -1.35982 0
M  V30 876 H 87.4147 3.24523 -2.74891 0
M  V30 877 N 85.7298 1.2412 0.971189 0
M  V30 878 C 87.0068 0.986867 1.6888 0
M  V30 879 C 87.3868 -0.491857 2.0529 0
M  V30 880 O 86.7348 -1.46531 1.75331 0
M  V30 881 C 86.9448 1.9063 2.92338 0
M  V30 882 C 88.2928 2.17515 3.64654 0
M  V30 883 O 89.3168 1.88254 3.02388 0
M  V30 884 O 88.1758 2.6719 4.7673 0
M  V30 885 H 85.2698 0.372944 0.738134 0
M  V30 886 H 87.8158 1.35203 1.02559 0
M  V30 887 H 86.5878 2.90552 2.62097 0
M  V30 888 H 86.2108 1.54408 3.66393 0
M  V30 889 N 87.2079 -1.17134 1.05439 0
M  V30 890 C 88.4539 -1.87733 0.767077 0
M  V30 891 C 88.7869 -1.8098 -0.704253 0
M  V30 892 O 88.0619 -1.21951 -1.5152 0
M  V30 893 C 88.3449 -3.37659 1.25133 0
M  V30 894 C 88.1979 -3.53149 2.78578 0
M  V30 895 C 89.5169 -4.31768 0.852324 0
M  V30 896 H 86.6359 -0.681687 0.280129 0
M  V30 897 H 89.2779 -1.37732 1.30881 0
M  V30 898 H 87.4279 -3.80373 0.790469 0
M  V30 899 H 89.0999 -3.19434 3.32806 0
M  V30 900 H 87.3429 -2.95345 3.17732 0
M  V30 901 H 88.0139 -4.58403 3.07523 0
M  V30 902 H 90.4899 -3.96909 1.24911 0
M  V30 903 H 89.3659 -5.35199 1.21873 0
M  V30 904 H 89.6269 -4.41429 -0.243485 0
M  V30 905 N 88.686 -0.835752 -1.33615 0
M  V30 906 C 89.618 -0.224151 -2.28101 0
M  V30 907 C 90.631 0.593331 -1.51603 0
M  V30 908 O 91.82 0.420911 -1.73466 0
M  V30 909 C 88.92 0.703309 -3.31522 0
M  V30 910 C 88.093 -0.0741528 -4.37337 0
M  V30 911 C 87.152 0.776176 -5.20444 0
M  V30 912 O 86.178 0.216506 -5.68788 0
M  V30 913 N 87.38 2.09401 -5.41416 0
M  V30 914 H 90.145 -1.03598 -2.81225 0
M  V30 915 H 87.706 -0.69392 -1.46275 0
M  V30 916 H 89.698 1.27707 -3.84022 0
M  V30 917 H 88.268 1.41585 -2.78698 0
M  V30 918 H 87.488 -0.82928 -3.85378 0
M  V30 919 H 88.776 -0.608863 -5.05144 0
M  V30 920 H 88.174 2.57229 -5.03835 0
M  V30 921 H 86.731 2.61633 -5.96985 0
M  V30 922 N 90.1641 1.46063 -0.591896 0
M  V30 923 C 91.3921 2.06717 -0.0868936 0
M  V30 924 C 91.8071 1.43916 1.22203 0
M  V30 925 O 91.1641 0.547698 1.74088 0
M  V30 926 C 91.2151 3.6142 0.0758725 0
M  V30 927 O 90.9361 4.21874 -1.18126 0
M  V30 928 C 92.4371 4.39025 0.61416 0
M  V30 929 H 89.6571 0.668162 -0.0616518 0
M  V30 930 H 92.2011 1.8755 -0.815175 0
M  V30 931 H 90.3561 3.79983 0.754413 0
M  V30 932 H 90.7701 5.14861 -1.00092 0
M  V30 933 H 92.2441 5.4783 0.677193 0
M  V30 934 H 92.7211 4.07708 1.63312 0
M  V30 935 H 93.3271 4.2529 -0.0298142 0
M  V30 936 N 91.6422 0.330177 1.54103 0
M  V30 937 C 92.8882 -0.270806 2.00984 0
M  V30 938 C 93.2212 -1.51265 1.21789 0
M  V30 939 O 92.4962 -1.92142 0.301927 0
M  V30 940 C 92.7792 -0.598339 3.55094 0
M  V30 941 C 92.6322 0.654674 4.4501 0
M  V30 942 C 93.9512 -1.41334 4.16789 0
M  V30 943 H 91.0702 -0.0969531 0.730595 0
M  V30 944 H 93.7122 0.448066 1.84641 0
M  V30 945 H 91.8622 -1.21078 3.69151 0
M  V30 946 H 93.5342 1.29285 4.42813 0
M  V30 947 H 91.7772 1.28224 4.14416 0
M  V30 948 H 92.4482 0.380944 5.50684 0
M  V30 949 H 94.9242 -0.895597 4.06347 0
M  V30 950 H 93.8002 -1.61127 5.24718 0
M  V30 951 H 94.0612 -2.41146 3.70541 0
M  V30 952 N 93.1203 -1.57491 0.0584922 0
M  V30 953 C 94.0833 -2.1085 -0.898617 0
M  V30 954 C 95.0833 -1.02964 -1.23511 0
M  V30 955 O 96.2733 -1.29007 -1.17059 0
M  V30 956 C 93.4053 -2.59881 -2.20623 0
M  V30 957 H 94.5983 -2.96715 -0.435936 0
M  V30 958 H 92.1513 -1.55141 -0.190023 0
M  V30 959 H 92.8863 -1.77431 -2.71457 0
M  V30 960 H 92.6713 -3.38727 -1.97501 0
M  V30 961 H 94.1613 -3.01285 -2.89166 0
M  V30 962 N 94.5984 0.214957 -1.56127 0
M  V30 963 C 95.5304 1.29004 -1.89448 0
M  V30 964 C 96.5434 1.42716 -0.783326 0
M  V30 965 O 97.7324 1.43496 -1.06166 0
M  V30 966 C 94.8324 2.66482 -2.09381 0
M  V30 967 C 94.0054 2.74633 -3.40434 0
M  V30 968 C 93.0644 3.9317 -3.49719 0
M  V30 969 O 92.0904 3.812 -4.227 0
M  V30 970 N 93.2924 5.07765 -2.81346 0
M  V30 971 H 96.0574 1.00743 -2.82261 0
M  V30 972 H 93.6184 0.40497 -1.56753 0
M  V30 973 H 95.6104 3.44173 -2.12901 0
M  V30 974 H 94.1804 2.87314 -1.23163 0
M  V30 975 H 93.4004 1.83368 -3.48955 0
M  V30 976 H 94.6884 2.77054 -4.26754 0
M  V30 977 H 94.0864 5.20386 -2.21843 0
M  V30 978 H 92.6434 5.83474 -2.90519 0
M  V30 979 N 96.0765 1.50051 0.48192 0
M  V30 980 C 97.4925 1.37237 0.814756 0
M  V30 981 C 97.6925 0.420109 1.97072 0
M  V30 982 O 96.7485 -0.141246 2.52105 0
M  V30 983 C 98.0615 2.78375 1.13701 0
M  V30 984 C 99.6095 2.87213 1.2441 0
M  V30 985 C 100.084 4.29161 1.59954 0
M  V30 986 N 101.575 4.32061 1.66967 0
M  V30 987 C 102.31 5.38879 1.95952 0
M  V30 988 N 101.806 6.55918 2.23031 0
M  V30 989 N 103.599 5.26312 1.97363 0
M  V30 990 H 95.7505 2.10546 -0.28005 0
M  V30 991 H 98.0135 0.945921 -0.0627454 0
M  V30 992 H 97.7195 3.49845 0.360787 0
M  V30 993 H 97.5935 3.14941 2.07586 0
M  V30 994 H 99.9805 2.15969 2.01101 0
M  V30 995 H 100.061 2.54204 0.285299 0
M  V30 996 H 99.7055 5.00938 0.838067 0
M  V30 997 H 99.6355 4.59648 2.56966 0
M  V30 998 H 102.126 3.47661 1.48123 0
M  V30 999 H 102.439 7.33139 2.44391 0
M  V30 1000 H 100.784 6.59112 2.20447 0
M  V30 1001 H 103.975 4.33876 1.75697 0
M  V30 1002 H 104.148 6.09649 2.19618 0
M  V30 1003 N 97.5546 -0.734337 1.39446 0
M  V30 1004 C 98.4846 -1.86155 1.40955 0
M  V30 1005 C 99.4656 -1.67898 0.272827 0
M  V30 1006 O 100.651 -1.88207 0.478743 0
M  V30 1007 C 97.7806 -3.23912 1.25294 0
M  V30 1008 C 96.7346 -3.56808 2.36373 0
M  V30 1009 C 96.0606 -4.93508 2.058 0
M  V30 1010 C 97.3606 -3.59713 3.78687 0
M  V30 1011 H 99.0546 -1.8515 2.35287 0
M  V30 1012 H 96.6006 -0.889367 1.13253 0
M  V30 1013 H 98.5536 -4.02443 1.2497 0
M  V30 1014 H 97.2776 -3.25446 0.274308 0
M  V30 1015 H 95.9366 -2.80606 2.35914 0
M  V30 1016 H 95.5846 -4.91623 1.06374 0
M  V30 1017 H 95.2846 -5.16486 2.80208 0
M  V30 1018 H 96.8086 -5.74396 2.07128 0
M  V30 1019 H 98.2226 -4.2832 3.81071 0
M  V30 1020 H 96.6196 -3.94209 4.52459 0
M  V30 1021 H 97.6896 -2.59504 4.09617 0
M  V30 1022 N 99.0327 -1.24633 -0.964593 0
M  V30 1023 C 99.9797 -1.04144 -2.05968 0
M  V30 1024 C 100.95 0.046262 -1.66036 0
M  V30 1025 O 102.135 -0.108972 -1.90489 0
M  V30 1026 C 99.2747 -0.65563 -3.38815 0
M  V30 1027 C 98.3877 -1.81714 -3.91923 0
M  V30 1028 C 97.5227 -1.37662 -5.13052 0
M  V30 1029 C 96.5617 -2.50788 -5.58365 0
M  V30 1030 N 95.6987 -2.07582 -6.70712 0
M  V30 1031 H 100.539 -1.9787 -2.22827 0
M  V30 1032 H 98.0757 -0.9855 -1.09208 0
M  V30 1033 H 100.034 -0.412954 -4.15151 0
M  V30 1034 H 98.6637 0.244627 -3.21872 0
M  V30 1035 H 97.7157 -2.1734 -3.12198 0
M  V30 1036 H 99.0277 -2.66705 -4.21509 0
M  V30 1037 H 98.1817 -1.093 -5.96773 0
M  V30 1038 H 96.9207 -0.497293 -4.85158 0
M  V30 1039 H 95.9257 -2.79906 -4.73215 0
M  V30 1040 H 97.1507 -3.39283 -5.88272 0
M  V30 1041 H 95.0967 -1.22051 -6.44546 0
M  V30 1042 H 95.0137 -2.86125 -6.99763 0
M  V30 1043 H 96.2817 -1.82369 -7.57867 0
M  V30 1044 N 100.511 1.16574 -1.06058 0
M  V30 1045 C 101.758 1.87047 -0.775873 0
M  V30 1046 C 102.086 1.81562 0.697534 0
M  V30 1047 O 101.341 1.22445 1.52662 0
M  V30 1048 C 101.64 3.36195 -1.21275 0
M  V30 1049 C 101.306 3.6188 -2.68986 0
M  V30 1050 C 99.9678 3.68599 -3.09335 0
M  V30 1051 C 102.32 3.72648 -3.64394 0
M  V30 1052 C 99.6478 3.83584 -4.43937 0
M  V30 1053 C 102 3.89154 -4.98741 0
M  V30 1054 C 100.664 3.94114 -5.3873 0
M  V30 1055 H 99.9338 0.684452 -0.283912 0
M  V30 1056 H 102.581 1.37853 -1.32925 0
M  V30 1057 H 100.886 3.87505 -0.578528 0
M  V30 1058 H 102.583 3.89103 -0.969542 0
M  V30 1059 H 99.1728 3.57281 -2.36744 0
M  V30 1060 H 103.357 3.66769 -3.34356 0
M  V30 1061 H 98.6128 3.85677 -4.74409 0
M  V30 1062 H 102.787 3.96427 -5.72554 0
M  V30 1063 H 100.414 4.05478 -6.43033 0
M  V30 1064 N 101.989 0.842826 1.3317 0
M  V30 1065 C 103.405 0.531128 1.50503 0
M  V30 1066 C 103.605 -0.940734 1.78192 0
M  V30 1067 O 102.661 -1.72436 1.84451 0
M  V30 1068 C 103.974 1.40789 2.65705 0
M  V30 1069 C 105.522 1.40708 2.79589 0
M  V30 1070 C 105.997 2.26878 3.97857 0
M  V30 1071 N 107.488 2.24609 4.05099 0
M  V30 1072 C 108.223 2.88019 4.95815 0
M  V30 1073 N 107.719 3.60496 5.9162 0
M  V30 1074 N 109.512 2.77469 4.88843 0
M  V30 1075 H 101.663 1.79557 1.1346 0
M  V30 1076 H 103.926 0.766267 0.558156 0
M  V30 1077 H 103.632 2.454 2.51936 0
M  V30 1078 H 103.506 1.08677 3.61205 0
M  V30 1079 H 105.893 0.368668 2.92788 0
M  V30 1080 H 105.974 1.76829 1.84838 0
M  V30 1081 H 105.618 3.3078 3.85418 0
M  V30 1082 H 105.548 1.88096 4.91861 0
M  V30 1083 H 108.039 1.71906 3.36536 0
M  V30 1084 H 108.352 4.06076 6.57512 0
M  V30 1085 H 106.697 3.64604 5.91683 0
M  V30 1086 H 109.888 2.20406 4.12963 0
M  V30 1087 H 110.061 3.2717 5.59342 0
M  V30 1088 N 103.467 -1.45747 0.599634 0
M  V30 1089 C 104.397 -2.33235 -0.111306 0
M  V30 1090 C 105.378 -1.46359 -0.866781 0
M  V30 1091 O 106.563 -1.75146 -0.838904 0
M  V30 1092 C 103.693 -3.28932 -1.11451 0
M  V30 1093 C 102.647 -4.25381 -0.472772 0
M  V30 1094 C 101.973 -5.1071 -1.58365 0
M  V30 1095 C 103.273 -5.18831 0.600948 0
M  V30 1096 H 104.967 -2.92927 0.61919 0
M  V30 1097 H 102.513 -1.40857 0.299215 0
M  V30 1098 H 104.466 -3.89002 -1.62036 0
M  V30 1099 H 103.19 -2.67381 -1.8755 0
M  V30 1100 H 101.849 -3.66598 0.0121472 0
M  V30 1101 H 101.497 -4.45533 -2.33473 0
M  V30 1102 H 101.197 -5.7604 -1.15982 0
M  V30 1103 H 102.721 -5.73647 -2.09194 0
M  V30 1104 H 104.135 -5.73019 0.179491 0
M  V30 1105 H 102.532 -5.92595 0.946076 0
M  V30 1106 H 103.602 -4.6174 1.48068 0
M  V30 1107 N 104.945 -0.338344 -1.53925 0
M  V30 1108 C 105.893 0.536231 -2.26335 0
M  V30 1109 C 106.887 1.1063 -1.28286 0
M  V30 1110 O 108.093 1.05264 -1.46012 0
M  V30 1111 H 104.468 0.191602 -0.727181 0
M  V30 1112 H 106.439 -0.0965747 -2.98244 0
M  V30 1113 C 105.188 1.67803 -3.04528 0
M  V30 1114 H 104.511 1.24864 -3.79801 0
M  V30 1115 H 105.951 2.26526 -3.58416 0
M  V30 1116 C 104.41 2.60439 -2.13712 0
M  V30 1117 O 104.94 3.6255 -1.72975 0
M  V30 1118 N 103.146 2.29006 -1.78898 0
M  V30 1119 H 102.693 1.46011 -2.12223 0
M  V30 1120 H 102.651 2.91248 -1.18416 0
M  V30 1121 N 106.423 1.57458 -0.0668435 0
M  V30 1122 C 107.353 2.15468 0.899764 0
M  V30 1123 C 108.334 1.08042 1.31381 0
M  V30 1124 O 109.519 1.36054 1.38574 0
M  V30 1125 C 106.649 2.71232 2.16911 0
M  V30 1126 C 105.603 3.83781 1.89463 0
M  V30 1127 C 104.929 4.26127 3.22986 0
M  V30 1128 C 106.229 5.08238 1.20381 0
M  V30 1129 H 107.923 2.96488 0.416529 0
M  V30 1130 H 105.469 1.4262 0.198908 0
M  V30 1131 H 107.422 3.10458 2.84945 0
M  V30 1132 H 106.146 1.87426 2.67468 0
M  V30 1133 H 104.805 3.45051 1.23836 0
M  V30 1134 H 104.453 3.39249 3.71374 0
M  V30 1135 H 104.153 5.01993 3.05413 0
M  V30 1136 H 105.677 4.67966 3.92225 0
M  V30 1137 H 107.091 5.44811 1.78475 0
M  V30 1138 H 105.488 5.89349 1.13083 0
M  V30 1139 H 106.558 4.84558 0.182153 0
M  V30 1140 N 107.901 -0.206675 1.56239 0
M  V30 1141 C 109.131 -0.943975 1.83773 0
M  V30 1142 C 109.539 -1.77841 0.645703 0
M  V30 1143 O 108.882 -1.79403 -0.395008 0
M  V30 1144 C 108.944 -1.899 3.05251 0
M  V30 1145 C 108.608 -1.24764 4.39639 0
M  V30 1146 C 109.605 -0.630216 5.16066 0
M  V30 1147 C 107.29 -1.25496 4.8637 0
M  V30 1148 C 109.284 -0.0287946 6.37393 0
M  V30 1149 C 106.971 -0.649698 6.07637 0
M  V30 1150 C 107.969 -0.0376845 6.8299 0
M  V30 1151 O 107.657 0.55812 8.0196 0
M  V30 1152 H 107.389 -0.281508 0.614597 0
M  V30 1153 H 109.943 -0.222458 2.04192 0
M  V30 1154 H 108.173 -2.6599 2.80689 0
M  V30 1155 H 109.862 -2.5031 3.1953 0
M  V30 1156 H 110.628 -0.616785 4.81062 0
M  V30 1157 H 106.507 -1.72072 4.27683 0
M  V30 1158 H 110.051 0.449518 6.9615 0
M  V30 1159 H 105.948 -0.660592 6.42111 0
M  V30 1160 H 106.716 0.453891 8.17241 0
M  V30 1161 N 109.379 -1.50304 -0.473955 0
M  V30 1162 C 110.289 -1.7174 -1.5982 0
M  V30 1163 C 111.305 -0.600457 -1.63311 0
M  V30 1164 O 112.481 -0.878441 -1.81233 0
M  V30 1165 C 109.546 -1.80427 -2.96052 0
M  V30 1166 C 108.607 -3.04148 -3.02972 0
M  V30 1167 C 107.84 -3.12411 -4.32706 0
M  V30 1168 O 108.063 -2.27542 -5.23049 0
M  V30 1169 O 106.997 -4.05113 -4.45159 0
M  V30 1170 H 110.823 -2.67035 -1.44657 0
M  V30 1171 H 108.408 -1.34366 -0.653148 0
M  V30 1172 H 110.29 -1.88338 -3.7697 0
M  V30 1173 H 108.965 -0.883156 -3.11419 0
M  V30 1174 H 107.872 -3.0174 -2.21142 0
M  V30 1175 H 109.205 -3.95829 -2.92541 0
M  V30 1176 N 110.857 0.726932 -1.39834 0
M  V30 1177 C 111.787 1.85405 -1.41941 0
M  V30 1178 C 112.768 1.67751 -0.281728 0
M  V30 1179 O 113.953 1.8795 -0.488717 0
M  V30 1180 C 111.083 3.23243 -1.2701 0
M  V30 1181 C 110.037 3.55549 -2.38262 0
M  V30 1182 C 109.363 4.9241 -2.08415 0
M  V30 1183 C 110.663 3.577 -3.80589 0
M  V30 1184 H 112.357 1.83899 -2.36266 0
M  V30 1185 H 109.903 0.883349 -1.13723 0
M  V30 1186 H 111.856 4.01775 -1.27103 0
M  V30 1187 H 110.58 3.25296 -0.291564 0
M  V30 1188 H 109.239 2.79351 -2.37399 0
M  V30 1189 H 108.887 4.91052 -1.0898 0
M  V30 1190 H 108.587 5.14992 -2.82943 0
M  V30 1191 H 110.111 5.73289 -2.10171 0
M  V30 1192 H 111.525 4.26293 -3.83337 0
M  V30 1193 H 109.922 3.91804 -4.54543 0
M  V30 1194 H 110.992 2.57328 -4.10987 0
M  V30 1195 N 112.336 1.25143 0.95797 0
M  V30 1196 C 113.283 1.05235 2.05412 0
M  V30 1197 C 114.253 -0.0374561 1.66058 0
M  V30 1198 O 115.438 0.119073 1.90428 0
M  V30 1199 C 112.578 0.673589 3.38462 0
M  V30 1200 C 111.691 1.8379 3.90954 0
M  V30 1201 C 110.826 1.40381 5.12315 0
M  V30 1202 C 109.865 2.53746 5.57027 0
M  V30 1203 N 109.002 2.11136 6.69601 0
M  V30 1204 H 113.842 1.99048 2.21774 0
M  V30 1205 H 111.379 0.991277 1.08683 0
M  V30 1206 H 113.337 0.434964 4.14926 0
M  V30 1207 H 111.967 -0.227554 3.21997 0
M  V30 1208 H 111.019 2.18992 3.11041 0
M  V30 1209 H 112.331 2.68937 4.20089 0
M  V30 1210 H 111.485 1.12464 5.96185 0
M  V30 1211 H 110.224 0.523015 4.84887 0
M  V30 1212 H 109.229 2.82412 4.71724 0
M  V30 1213 H 110.454 3.42398 5.86464 0
M  V30 1214 H 108.4 1.25468 6.4389 0
M  V30 1215 H 108.317 2.89832 6.98236 0
M  V30 1216 H 109.585 1.86385 7.56889 0
M  V30 1217 N 113.814 -1.1601 1.06675 0
M  V30 1218 C 114.724 -2.24156 0.692179 0
M  V30 1219 C 115.74 -1.71507 -0.293513 0
M  V30 1220 O 116.916 -2.009 -0.141861 0
M  V30 1221 C 113.981 -3.46587 0.0884131 0
M  V30 1222 C 113.042 -4.14257 1.12646 0
M  V30 1223 C 112.275 -5.30844 0.551416 0
M  V30 1224 O 112.498 -5.66858 -0.634656 0
M  V30 1225 O 111.432 -5.87848 1.29298 0
M  V30 1226 H 115.258 -2.58513 1.59388 0
M  V30 1227 H 112.843 -1.23599 0.83926 0
M  V30 1228 H 114.725 -4.20679 -0.246361 0
M  V30 1229 H 113.4 -3.13994 -0.786712 0
M  V30 1230 H 112.307 -3.42118 1.51348 0
M  V30 1231 H 113.64 -4.50914 1.97325 0
M  V30 1232 N 115.292 -0.849877 -1.32721 0
M  V30 1233 C 116.54 -0.450032 -1.97026 0
M  V30 1234 C 116.861 0.996604 -1.67609 0
M  V30 1235 O 116.131 1.6958 -0.980786 0
M  V30 1236 H 114.711 -0.163426 -0.728904 0
M  V30 1237 H 117.373 -1.08526 -1.6189 0
M  V30 1238 H 116.469 -0.591146 -3.0645 0
M  V30 1239 N 116.77 1.45427 -0.607355 0
M  V30 1240 C 118.186 1.57283 -0.270985 0
M  V30 1241 C 118.386 1.59875 1.22647 0
M  V30 1242 O 117.442 1.52893 2.00948 0
M  V30 1243 C 118.755 2.85566 -0.941952 0
M  V30 1244 C 120.303 2.9924 -0.917849 0
M  V30 1245 C 120.778 4.30293 -1.56882 0
M  V30 1246 N 122.269 4.37051 -1.5343 0
M  V30 1247 C 123.004 5.37123 -2.00715 0
M  V30 1248 N 122.5 6.43734 -2.56084 0
M  V30 1249 N 124.293 5.28479 -1.91484 0
M  V30 1250 H 116.444 1.41988 -1.57966 0
M  V30 1251 H 118.707 0.67885 -0.661715 0
M  V30 1252 H 118.413 2.8955 -1.99633 0
M  V30 1253 H 118.287 3.74322 -0.465096 0
M  V30 1254 H 120.674 2.94822 0.127984 0
M  V30 1255 H 120.755 2.11895 -1.43297 0
M  V30 1256 H 120.399 4.35469 -2.61398 0
M  V30 1257 H 120.329 5.16454 -1.02873 0
M  V30 1258 H 122.82 3.60615 -1.12982 0
M  V30 1259 H 123.133 7.16341 -2.89958 0
M  V30 1260 H 121.478 6.44485 -2.60122 0
M  V30 1261 H 124.669 4.44098 -1.47967 0
M  V30 1262 H 124.842 6.0632 -2.28648 0
M  V30 1263 N 118.248 0.346503 1.53744 0
M  V30 1264 C 119.18 -0.543316 2.22667 0
M  V30 1265 C 120.193 -1.06159 1.23427 0
M  V30 1266 O 121.382 -0.971235 1.49764 0
M  V30 1267 C 118.482 -1.76076 2.89569 0
M  V30 1268 C 117.655 -1.37727 4.15151 0
M  V30 1269 C 116.714 -2.45471 4.65436 0
M  V30 1270 O 115.74 -2.08655 5.29577 0
M  V30 1271 N 116.942 -3.7677 4.41616 0
M  V30 1272 H 119.707 0.0469703 2.99663 0
M  V30 1273 H 117.268 0.170766 1.60997 0
M  V30 1274 H 119.26 -2.47593 3.20125 0
M  V30 1275 H 117.83 -2.25835 2.16142 0
M  V30 1276 H 117.05 -0.492746 3.91108 0
M  V30 1277 H 118.338 -1.09708 4.96832 0
M  V30 1278 H 117.736 -4.09467 3.90325 0
M  V30 1279 H 116.293 -4.44448 4.7677 0
M  V30 1280 N 119.726 -1.57421 0.075193 0
M  V30 1281 C 120.975 -1.92794 -0.592731 0
M  V30 1282 C 121.288 -0.957478 -1.70563 0
M  V30 1283 O 122.494 -1.20417 -2.43335 0
M  V30 1284 C 120.95 -3.42495 -1.10569 0
M  V30 1285 C 120.558 -4.47994 -0.0236121 0
M  V30 1286 C 122.302 -3.86864 -1.74748 0
M  V30 1287 C 120.209 -5.88829 -0.550803 0
M  V30 1288 H 119.139 -0.719591 -0.225177 0
M  V30 1289 H 121.79 -1.82902 0.147978 0
M  V30 1290 H 120.172 -3.47471 -1.89947 0
M  V30 1291 H 121.346 -4.54637 0.751099 0
M  V30 1292 H 119.661 -4.13113 0.522159 0
M  V30 1293 H 122.258 -4.8947 -2.15229 0
M  V30 1294 H 122.601 -3.24417 -2.60882 0
M  V30 1295 H 123.134 -3.84504 -1.01986 0
M  V30 1296 H 119.873 -6.54929 0.273457 0
M  V30 1297 H 119.393 -5.85698 -1.29296 0
M  V30 1298 H 121.072 -6.38811 -1.02613 0
M  V30 1299 N 121.204 0.198386 -1.56346 0
M  V30 1300 C 122.151 1.24589 -1.94284 0
M  V30 1301 C 123.121 1.454 -0.802997 0
M  V30 1302 O 124.306 1.58588 -1.06087 0
M  V30 1303 C 121.446 2.58631 -2.28482 0
M  V30 1304 C 120.559 2.45426 -3.55514 0
M  V30 1305 C 119.694 3.7215 -3.79049 0
M  V30 1306 C 118.733 3.53763 -4.99518 0
M  V30 1307 N 117.87 4.72491 -5.19323 0
M  V30 1308 H 122.71 0.915356 -2.83593 0
M  V30 1309 H 120.247 0.440629 -1.40346 0
M  V30 1310 H 122.205 3.3672 -2.46324 0
M  V30 1311 H 120.835 2.89734 -1.42317 0
M  V30 1312 H 119.887 1.58652 -3.45737 0
M  V30 1313 H 121.199 2.27772 -4.43758 0
M  V30 1314 H 120.353 4.58679 -3.97113 0
M  V30 1315 H 119.092 3.92754 -2.89129 0
M  V30 1316 H 118.097 2.65619 -4.8138 0
M  V30 1317 H 119.322 3.34607 -5.90944 0
M  V30 1318 H 117.268 4.93365 -4.3235 0
M  V30 1319 H 117.185 4.5765 -6.01741 0
M  V30 1320 H 118.453 5.6038 -5.41843 0
M  V30 1321 N 122.682 1.50554 0.465978 0
M  V30 1322 C 124.093 1.54599 1.04671 0
M  V30 1323 C 124.444 0.352488 1.93008 0
M  V30 1324 O 123.569 -0.534044 2.09707 0
M  V30 1325 C 124.164 2.80166 1.90505 0
M  V30 1326 C 122.723 2.86876 2.43678 0
M  V30 1327 C 121.87 2.48947 1.22151 0
M  V30 1328 H 124.821 1.56744 0.248384 0
M  V30 1329 H 124.842 2.62311 2.75633 0
M  V30 1330 H 124.354 3.67013 1.26186 0
M  V30 1331 H 122.455 2.04393 3.11536 0
M  V30 1332 H 122.568 3.89885 2.78436 0
M  V30 1333 H 120.932 2.01498 1.5579 0
M  V30 1334 H 121.715 3.38107 0.594866 0
M  V30 1335 N 124.16 -0.719506 1.40217 0
M  V30 1336 C 125.39 -1.50646 1.41384 0
M  V30 1337 C 125.798 -1.89197 0.0107743 0
M  V30 1338 O 125.141 -1.55709 -0.974708 0
M  V30 1339 C 125.203 -2.81405 2.23722 0
M  V30 1340 C 124.867 -2.65199 3.72181 0
M  V30 1341 C 125.864 -2.32717 4.64907 0
M  V30 1342 C 123.549 -2.81586 4.1595 0
M  V30 1343 C 125.543 -2.16827 5.99387 0
M  V30 1344 C 123.23 -2.65313 5.50502 0
M  V30 1345 C 124.228 -2.32981 6.42035 0
M  V30 1346 O 123.916 -2.16827 7.74107 0
M  V30 1347 H 123.648 -0.471606 0.484318 0
M  V30 1348 H 126.202 -0.895456 1.84853 0
M  V30 1349 H 124.432 -3.44823 1.75026 0
M  V30 1350 H 126.121 -3.43102 2.16878 0
M  V30 1351 H 126.887 -2.19694 4.32388 0
M  V30 1352 H 122.766 -3.0574 3.45027 0
M  V30 1353 H 126.31 -1.91513 6.70797 0
M  V30 1354 H 122.207 -2.7792 5.82607 0
M  V30 1355 H 122.975 -2.31778 7.84998 0
M  V30 1356 N 125.638 -1.25649 -0.95132 0
M  V30 1357 C 126.866 -1.13343 -1.73092 0
M  V30 1358 C 127.281 0.312434 -1.86197 0
M  V30 1359 O 126.638 1.21465 -1.36207 0
M  V30 1360 C 126.689 -1.78602 -3.14299 0
M  V30 1361 O 126.41 -3.17537 -3.01831 0
M  V30 1362 C 127.911 -1.72119 -4.08522 0
M  V30 1363 H 125.131 -0.395181 -0.542285 0
M  V30 1364 H 127.675 -1.66076 -1.19328 0
M  V30 1365 H 125.83 -1.29832 -3.64996 0
M  V30 1366 H 126.244 -3.49676 -3.90931 0
M  V30 1367 H 127.718 -2.22435 -5.052 0
M  V30 1368 H 128.195 -0.685635 -4.33815 0
M  V30 1369 H 128.801 -2.20393 -3.63741 0
M  V30 1370 N 127.117 1.15442 -1.07289 0
M  V30 1371 C 128.047 2.22312 -0.714107 0
M  V30 1372 C 129.028 1.67467 0.298155 0
M  V30 1373 O 130.213 1.93445 0.171048 0
M  V30 1374 C 127.343 3.47124 -0.110448 0
M  V30 1375 C 126.297 4.14926 -1.04979 0
M  V30 1376 C 125.623 5.33807 -0.308924 0
M  V30 1377 C 126.923 4.64762 -2.38314 0
M  V30 1378 H 128.617 2.5258 -1.6076 0
M  V30 1379 H 126.163 1.21404 -0.77441 0
M  V30 1380 H 128.116 4.21124 0.152482 0
M  V30 1381 H 126.84 3.16187 0.81812 0
M  V30 1382 H 125.499 3.42866 -1.29764 0
M  V30 1383 H 125.147 4.99126 0.623084 0
M  V30 1384 H 124.847 5.80113 -0.935036 0
M  V30 1385 H 126.371 6.10576 -0.0537771 0
M  V30 1386 H 127.785 5.30292 -2.1786 0
M  V30 1387 H 126.182 5.21728 -2.96514 0
M  V30 1388 H 127.252 3.80434 -3.00663 0
M  V30 1389 N 128.595 0.856903 1.32268 0
M  V30 1390 C 129.528 0.247937 2.26849 0
M  V30 1391 C 130.506 -0.615382 1.50505 0
M  V30 1392 O 131.69 -0.571689 1.79622 0
M  V30 1393 C 128.817 -0.650093 3.32403 0
M  V30 1394 C 127.863 0.140138 4.2627 0
M  V30 1395 S 128.696 1.51004 5.13769 0
M  V30 1396 C 129.852 0.61778 6.22844 0
M  V30 1397 H 130.085 1.04971 2.78152 0
M  V30 1398 H 127.618 0.654665 1.39834 0
M  V30 1399 H 129.576 -1.16256 3.93694 0
M  V30 1400 H 128.237 -1.4257 2.7988 0
M  V30 1401 H 127.43 -0.543945 5.01056 0
M  V30 1402 H 127.032 0.584267 3.69408 0
M  V30 1403 H 129.324 -0.177053 6.77269 0
M  V30 1404 H 130.267 1.33636 6.95375 0
M  V30 1405 H 130.675 0.191124 5.64176 0
M  V30 1406 N 130.073 -1.45103 0.615059 0
M  V30 1407 C 131.298 -2.07064 0.117988 0
M  V30 1408 C 131.723 -1.4554 -1.19163 0
M  V30 1409 O 131.081 -0.550855 -1.72729 0
M  V30 1410 C 131.129 -3.606 -0.000288387 0
M  V30 1411 O 130.233 -3.98847 -1.04856 0
M  V30 1412 H 129.574 -0.659467 0.0774581 0
M  V30 1413 H 132.104 -1.86236 0.847186 0
M  V30 1414 H 132.114 -4.07529 -0.196091 0
M  V30 1415 H 130.789 -4.04765 0.955932 0
M  V30 1416 H 129.366 -3.63577 -0.828619 0
M  V30 1417 N 131.551 -0.354651 -1.53558 0
M  V30 1418 C 132.484 0.540273 -2.21712 0
M  V30 1419 C 133.462 1.09161 -1.2051 0
M  V30 1420 O 134.646 1.14979 -1.49372 0
M  V30 1421 C 131.773 1.74435 -2.90328 0
M  V30 1422 C 130.819 1.32146 -4.05512 0
M  V30 1423 S 131.652 0.331924 -5.3447 0
M  V30 1424 C 132.808 1.54258 -6.06593 0
M  V30 1425 H 133.041 -0.0385776 -2.97275 0
M  V30 1426 H 130.574 -0.138736 -1.53775 0
M  V30 1427 H 132.532 2.43507 -3.30476 0
M  V30 1428 H 131.193 2.29444 -2.1451 0
M  V30 1429 H 130.386 2.21952 -4.52497 0
M  V30 1430 H 129.988 0.710091 -3.67197 0
M  V30 1431 H 132.28 2.47534 -6.30661 0
M  V30 1432 H 133.223 1.11431 -6.99277 0
M  V30 1433 H 133.631 1.74367 -5.36895 0
M  V30 1434 N 133.029 1.57378 -0.0835403 0
M  V30 1435 C 134.275 1.94217 0.583733 0
M  V30 1436 C 134.608 0.964653 1.68547 0
M  V30 1437 O 133.883 -0.00422258 1.945 0
M  V30 1438 C 134.166 3.41253 1.14972 0
M  V30 1439 C 134.019 4.49768 0.0538277 0
M  V30 1440 C 135.338 3.89352 2.05166 0
M  V30 1441 H 132.457 0.706233 0.210724 0
M  V30 1442 H 135.099 1.89392 -0.1519 0
M  V30 1443 H 133.249 3.45496 1.77665 0
M  V30 1444 H 134.921 4.57641 -0.579851 0
M  V30 1445 H 133.164 4.29432 -0.614068 0
M  V30 1446 H 133.835 5.49817 0.490452 0
M  V30 1447 H 136.311 3.87189 1.52393 0
M  V30 1448 H 135.187 4.92822 2.41698 0
M  V30 1449 H 135.448 3.27973 2.96456 0
M  V30 1450 N 134.507 -0.190092 1.56449 0
M  V30 1451 C 135.47 -1.21925 1.9408 0
M  V30 1452 C 136.47 -1.38176 0.822431 0
M  V30 1453 O 137.66 -1.35903 1.08977 0
M  V30 1454 C 134.792 -2.58773 2.21922 0
M  V30 1455 H 135.985 -0.897464 2.86157 0
M  V30 1456 H 133.538 -0.43181 1.50217 0
M  V30 1457 H 134.273 -2.95998 1.32499 0
M  V30 1458 H 134.058 -2.48348 3.03424 0
M  V30 1459 H 135.548 -3.32978 2.52022 0
M  V30 1460 N 135.985 -1.50799 -0.457987 0
M  V30 1461 C 136.933 -1.71162 -1.575 0
M  V30 1462 C 137.927 -0.577592 -1.59249 0
M  V30 1463 O 139.133 -0.758443 -1.63241 0
M  V30 1464 H 135.508 -0.540468 -0.522875 0
M  V30 1465 H 137.479 -2.64837 -1.37492 0
M  V30 1466 C 136.228 -1.83496 -2.95338 0
M  V30 1467 H 135.551 -2.70153 -2.94716 0
M  V30 1468 H 136.991 -2.01765 -3.72917 0
M  V30 1469 C 135.45 -0.589694 -3.31699 0
M  V30 1470 O 135.98 0.265163 -4.00824 0
M  V30 1471 N 134.186 -0.439845 -2.87252 0
M  V30 1472 H 133.733 -1.13655 -2.31172 0
M  V30 1473 H 133.691 0.392159 -3.11945 0
M  V30 1474 N 137.463 0.71206 -1.40597 0
M  V30 1475 C 138.393 1.83889 -1.43899 0
M  V30 1476 C 139.374 1.67442 -0.299504 0
M  V30 1477 O 140.559 1.87421 -0.508624 0
M  V30 1478 C 137.689 3.21877 -1.30431 0
M  V30 1479 C 136.643 3.53002 -2.42019 0
M  V30 1480 C 135.969 4.90172 -2.13626 0
M  V30 1481 C 137.269 3.53643 -3.84362 0
M  V30 1482 H 138.963 1.81383 -2.38203 0
M  V30 1483 H 136.509 0.871237 -1.14654 0
M  V30 1484 H 138.462 4.00404 -1.31357 0
M  V30 1485 H 137.186 3.24968 -0.326049 0
M  V30 1486 H 135.845 2.76818 -2.40349 0
M  V30 1487 H 135.493 4.89869 -1.14182 0
M  V30 1488 H 135.193 5.11962 -2.88389 0
M  V30 1489 H 136.717 5.71028 -2.1624 0
M  V30 1490 H 138.131 4.22203 -3.87837 0
M  V30 1491 H 136.528 3.86961 -4.58673 0
M  V30 1492 H 137.598 2.52954 -4.13693 0
M  V30 1493 N 138.941 1.26152 0.944643 0
M  V30 1494 C 139.871 1.09902 2.06019 0
M  V30 1495 C 140.852 0.00519538 1.70099 0
M  V30 1496 O 142.037 0.176583 1.93396 0
M  V30 1497 C 139.167 0.727562 3.39594 0
M  V30 1498 C 138.121 1.77274 3.89561 0
M  V30 1499 C 137.447 1.25569 5.19747 0
M  V30 1500 C 138.747 3.17357 4.14827 0
M  V30 1501 H 140.441 2.03217 2.19871 0
M  V30 1502 H 137.987 0.978452 1.05652 0
M  V30 1503 H 139.94 0.600777 4.17095 0
M  V30 1504 H 138.664 -0.241287 3.25707 0
M  V30 1505 H 137.323 1.88814 3.14237 0
M  V30 1506 H 136.971 0.276783 5.02238 0
M  V30 1507 H 136.671 1.95433 5.54148 0
M  V30 1508 H 138.195 1.1415 5.99835 0
M  V30 1509 H 139.609 3.08914 4.82954 0
M  V30 1510 H 138.006 3.84781 4.60504 0
M  V30 1511 H 139.076 3.63673 3.20734 0
M  V30 1512 N 140.419 -1.14872 1.07899 0
M  V30 1513 C 141.649 -1.89386 0.825631 0
M  V30 1514 C 142.057 -1.78565 -0.625406 0
M  V30 1515 O 141.4 -1.13918 -1.44113 0
M  V30 1516 C 141.462 -3.40206 1.16191 0
M  V30 1517 C 141.126 -3.74812 2.61467 0
M  V30 1518 C 142.123 -3.75367 3.59716 0
M  V30 1519 C 139.808 -4.0495 2.97189 0
M  V30 1520 C 141.802 -4.05574 4.9172 0
M  V30 1521 C 139.489 -4.34821 4.29388 0
M  V30 1522 C 140.487 -4.35116 5.26463 0
M  V30 1523 O 140.175 -4.64267 6.56286 0
M  V30 1524 H 139.907 -0.606894 0.297751 0
M  V30 1525 H 142.461 -1.46438 1.44031 0
M  V30 1526 H 140.691 -3.8358 0.490214 0
M  V30 1527 H 142.38 -3.96018 0.890193 0
M  V30 1528 H 143.146 -3.52176 3.33462 0
M  V30 1529 H 139.025 -4.03876 2.22273 0
M  V30 1530 H 142.569 -4.05719 5.67484 0
M  V30 1531 H 138.466 -4.5748 4.55392 0
M  V30 1532 H 139.234 -4.82007 6.61522 0
M  V30 1533 N 141.898 -0.863906 -1.31812 0
M  V30 1534 C 142.808 -0.318461 -2.32428 0
M  V30 1535 C 143.824 0.568496 -1.64451 0
M  V30 1536 O 145 0.46666 -1.95919 0
M  V30 1537 C 142.065 0.476355 -3.43412 0
M  V30 1538 C 141.126 -0.43784 -4.27061 0
M  V30 1539 C 140.359 0.319138 -5.32745 0
M  V30 1540 O 140.582 1.54799 -5.48993 0
M  V30 1541 O 139.516 -0.319861 -6.01049 0
M  V30 1542 H 143.342 -1.15229 -2.80991 0
M  V30 1543 H 140.927 -0.627103 -1.35602 0
M  V30 1544 H 142.809 0.927156 -4.11074 0
M  V30 1545 H 141.484 1.28683 -2.97022 0
M  V30 1546 H 140.391 -0.937013 -3.62175 0
M  V30 1547 H 141.724 -1.21375 -4.77 0
M  V30 1548 N 143.376 1.44774 -0.622745 0
M  V30 1549 C 144.323 2.30635 0.0871679 0
M  V30 1550 C 145.293 1.42994 0.845097 0
M  V30 1551 O 146.478 1.71907 0.827812 0
M  V30 1552 C 143.618 3.28144 1.06844 0
M  V30 1553 C 142.731 4.30888 0.309809 0
M  V30 1554 C 141.866 5.15494 1.28215 0
M  V30 1555 C 140.905 6.09953 0.512198 0
M  V30 1556 N 140.042 6.87287 1.43458 0
M  V30 1557 H 144.882 2.90803 -0.650974 0
M  V30 1558 H 142.419 1.43286 -0.33281 0
M  V30 1559 H 144.377 3.83157 1.65066 0
M  V30 1560 H 143.007 2.69695 1.77382 0
M  V30 1561 H 142.059 3.78414 -0.388181 0
M  V30 1562 H 143.371 4.97955 -0.290254 0
M  V30 1563 H 142.525 5.74983 1.93596 0
M  V30 1564 H 141.264 4.48481 1.91614 0
M  V30 1565 H 140.269 5.49581 -0.155151 0
M  V30 1566 H 141.494 6.78999 -0.116958 0
M  V30 1567 H 139.44 6.2295 2.05594 0
M  V30 1568 H 139.357 7.50763 0.888335 0
M  V30 1569 H 140.625 7.51306 2.07749 0
M  V30 1570 N 144.854 0.36279 1.53368 0
M  V30 1571 C 146.27 0.0116182 1.59596 0
M  V30 1572 C 146.47 -1.47012 1.37803 0
M  V30 1573 O 145.526 -2.23136 1.18181 0
M  V30 1574 C 146.839 0.465052 2.97082 0
M  V30 1575 C 148.387 0.419033 3.10182 0
M  V30 1576 C 148.862 0.848235 4.50077 0
M  V30 1577 N 150.353 0.803183 4.56183 0
M  V30 1578 C 151.088 1.107 5.62613 0
M  V30 1579 N 150.584 1.47996 6.76808 0
M  V30 1580 N 152.377 1.02998 5.52583 0
M  V30 1581 H 144.528 1.32775 1.65785 0
M  V30 1582 H 146.791 0.542518 0.777417 0
M  V30 1583 H 146.497 1.49892 3.18159 0
M  V30 1584 H 146.371 -0.149786 3.76902 0
M  V30 1585 H 148.758 -0.605696 2.88817 0
M  V30 1586 H 148.839 1.06933 2.32377 0
M  V30 1587 H 148.483 1.87107 4.7218 0
M  V30 1588 H 148.413 0.175218 5.26308 0
M  V30 1589 H 150.904 0.52838 3.74188 0
M  V30 1590 H 151.217 1.69613 7.53957 0
M  V30 1591 H 149.562 1.51859 6.78206 0
M  V30 1592 H 152.753 0.737817 4.62249 0
M  V30 1593 H 152.926 1.2701 6.35431 0
M  V30 1594 N 146.332 -1.57332 0.0918853 0
M  V30 1595 C 147.579 -1.94236 -0.572577 0
M  V30 1596 C 147.907 -0.973398 -1.6839 0
M  V30 1597 O 147.162 0.00756912 -1.95699 0
M  V30 1598 C 147.461 -3.37689 -1.17051 0
M  V30 1599 C 147.127 -4.50527 -0.183304 0
M  V30 1600 C 145.789 -4.81119 0.0882276 0
M  V30 1601 C 148.141 -5.18883 0.49095 0
M  V30 1602 C 145.469 -5.77395 1.04076 0
M  V30 1603 C 147.821 -6.1618 1.43193 0
M  V30 1604 C 146.485 -6.45179 1.71173 0
M  V30 1605 H 145.755 -0.710762 -0.209521 0
M  V30 1606 H 148.402 -1.9077 0.167036 0
M  V30 1607 H 146.707 -3.37718 -1.9863 0
M  V30 1608 H 148.404 -3.63543 -1.69227 0
M  V30 1609 H 144.994 -4.26681 -0.405124 0
M  V30 1610 H 149.178 -4.95427 0.294312 0
M  V30 1611 H 144.434 -5.98179 1.26457 0
M  V30 1612 H 148.608 -6.68243 1.96023 0
M  V30 1613 H 146.235 -7.1959 2.4514 0
M  V30 1614 N 147.81 0.181792 -1.56548 0
M  V30 1615 C 149.058 0.89832 -1.81038 0
M  V30 1616 C 149.379 1.83232 -0.667164 0
M  V30 1617 O 148.649 1.93372 0.313673 0
M  V30 1618 H 147.229 0.33471 -0.667816 0
M  V30 1619 H 149.891 0.184116 -1.94028 0
M  V30 1620 H 148.987 1.4815 -2.74696 0
M  V30 1621 N 149.288 1.51039 0.449983 0
M  V30 1622 C 150.699 1.557 1.03026 0
M  V30 1623 C 151.05 0.372939 1.92623 0
M  V30 1624 O 150.175 -0.511771 2.10261 0
M  V30 1625 C 150.77 2.82171 1.87523 0
M  V30 1626 C 149.329 2.89444 2.40622 0
M  V30 1627 C 148.476 2.50228 1.19504 0
M  V30 1628 H 151.427 1.56999 0.231745 0
M  V30 1629 H 151.448 2.65219 2.72835 0
M  V30 1630 H 150.96 3.68331 1.22286 0
M  V30 1631 H 149.061 2.07685 3.0935 0
M  V30 1632 H 149.174 3.92816 2.74285 0
M  V30 1633 H 147.538 2.03139 1.53644 0
M  V30 1634 H 148.321 3.38719 0.558972 0
M  V30 1635 N 150.766 -0.704594 1.40972 0
M  V30 1636 C 151.996 -1.49138 1.42974 0
M  V30 1637 C 152.404 -1.89175 0.0308406 0
M  V30 1638 O 151.747 -1.56734 -0.958138 0
M  V30 1639 C 151.809 -2.79016 2.26694 0
M  V30 1640 C 151.473 -2.61236 3.74973 0
M  V30 1641 C 152.47 -2.27773 4.67349 0
M  V30 1642 C 150.155 -2.77158 4.18914 0
M  V30 1643 C 152.149 -2.10457 6.01653 0
M  V30 1644 C 149.836 -2.59459 5.53285 0
M  V30 1645 C 150.834 -2.26158 6.4447 0
M  V30 1646 O 150.522 -2.08605 7.76363 0
M  V30 1647 H 150.254 -0.466443 0.489292 0
M  V30 1648 H 152.808 -0.8758 1.85793 0
M  V30 1649 H 151.038 -3.42947 1.78673 0
M  V30 1650 H 152.727 -3.40782 2.20504 0
M  V30 1651 H 153.493 -2.15095 4.34694 0
M  V30 1652 H 149.372 -3.02064 3.48251 0
M  V30 1653 H 152.916 -1.84387 6.72791 0
M  V30 1654 H 148.813 -2.71725 5.85522 0
M  V30 1655 H 149.581 -2.23439 7.87412 0
M  V30 1656 N 152.244 -1.26651 -0.937939 0
M  V30 1657 C 153.474 -1.15006 -1.71631 0
M  V30 1658 C 153.882 0.297026 -1.86854 0
M  V30 1659 O 153.225 1.21493 -1.37786 0
M  V30 1660 C 153.287 -1.74984 -3.14039 0
M  V30 1661 C 152.951 -3.24103 -3.2219 0
M  V30 1662 C 153.948 -4.20877 -3.05219 0
M  V30 1663 C 151.633 -3.64625 -3.45476 0
M  V30 1664 C 153.627 -5.56151 -3.11408 0
M  V30 1665 C 151.314 -5.00032 -3.513 0
M  V30 1666 C 152.312 -5.95604 -3.34282 0
M  V30 1667 O 152 -7.28545 -3.3982 0
M  V30 1668 H 151.732 -0.401183 -0.544085 0
M  V30 1669 H 154.286 -1.67832 -1.18413 0
M  V30 1670 H 152.516 -1.16624 -3.68695 0
M  V30 1671 H 154.205 -1.58199 -3.73802 0
M  V30 1672 H 154.971 -3.90908 -2.87081 0
M  V30 1673 H 150.85 -2.90718 -3.57777 0
M  V30 1674 H 154.394 -6.30727 -2.98043 0
M  V30 1675 H 150.291 -5.29659 -3.68959 0
M  V30 1676 H 151.059 -7.3686 -3.56343 0
M  V30 1677 N 153.722 1.14298 -1.08507 0
M  V30 1678 C 154.95 1.89219 -0.836876 0
M  V30 1679 C 155.365 1.78638 0.611054 0
M  V30 1680 O 154.722 1.14643 1.41998 0
M  V30 1681 C 154.773 3.39158 -1.25116 0
M  V30 1682 O 154.494 3.49449 -2.64229 0
M  V30 1683 C 155.995 4.31073 -1.03398 0
M  V30 1684 H 153.215 0.599328 -0.301739 0
M  V30 1685 H 155.759 1.44746 -1.44461 0
M  V30 1686 H 153.914 3.81251 -0.687514 0
M  V30 1687 H 154.328 4.42589 -2.81452 0
M  V30 1688 H 155.802 5.34646 -1.37323 0
M  V30 1689 H 156.279 4.3919 0.0289259 0
M  V30 1690 H 156.885 3.94738 -1.58311 0
M  V30 1691 N 155.201 0.870884 1.31352 0
M  V30 1692 C 156.111 0.330783 2.32256 0
M  V30 1693 C 157.127 -0.559767 1.6475 0
M  V30 1694 O 158.303 -0.456263 1.96164 0
M  V30 1695 C 155.368 -0.458137 3.4366 0
M  V30 1696 C 154.429 0.460482 4.26823 0
M  V30 1697 C 153.662 -0.290881 5.32907 0
M  V30 1698 O 153.885 -1.51885 5.49806 0
M  V30 1699 O 152.819 0.351732 6.00871 0
M  V30 1700 H 156.645 1.16718 2.80376 0
M  V30 1701 H 154.23 0.634285 1.35267 0
M  V30 1702 H 156.112 -0.905343 4.1156 0
M  V30 1703 H 154.787 -1.27106 2.97701 0
M  V30 1704 H 153.694 0.956207 3.61673 0
M  V30 1705 H 155.027 1.23903 4.7635 0
M  V30 1706 N 156.679 -1.44442 0.630414 0
M  V30 1707 C 158.09 -1.85434 0.217063 0
M  V30 1708 C 158.441 -1.52748 -1.23136 0
M  V30 1709 O 157.566 -0.965205 -1.93682 0
M  V30 1710 C 158.161 -3.36581 0.387168 0
M  V30 1711 C 156.72 -3.76389 0.0283297 0
M  V30 1712 C 155.867 -2.68296 0.700889 0
M  V30 1713 H 158.818 -1.34919 0.83562 0
M  V30 1714 H 158.839 -3.78657 -0.374086 0
M  V30 1715 H 158.351 -3.60339 1.44144 0
M  V30 1716 H 156.452 -3.58246 -1.02423 0
M  V30 1717 H 156.565 -4.77095 0.437892 0
M  V30 1718 H 154.929 -2.54335 0.136267 0
M  V30 1719 H 155.712 -2.94887 1.75774 0
M  V30 1720 N 158.157 -0.370918 -1.53173 0
M  V30 1721 C 159.403 0.217423 -2.01631 0
M  V30 1722 C 159.736 1.47983 -1.25756 0
M  V30 1723 O 159.011 1.91274 -0.352764 0
M  V30 1724 C 159.294 0.503982 -3.56556 0
M  V30 1725 C 159.147 -0.77243 -4.43118 0
M  V30 1726 C 160.466 1.30234 -4.20389 0
M  V30 1727 H 157.585 0.0775486 -0.732909 0
M  V30 1728 H 160.227 -0.496863 -1.83388 0
M  V30 1729 H 158.377 1.11248 -3.72231 0
M  V30 1730 H 160.049 -1.4098 -4.39229 0
M  V30 1731 H 158.292 -1.39167 -4.10871 0
M  V30 1732 H 158.963 -0.526815 -5.4948 0
M  V30 1733 H 161.439 0.787546 -4.08579 0
M  V30 1734 H 160.315 1.47158 -5.28806 0
M  V30 1735 H 160.576 2.31237 -3.76805 0
M  V30 1736 N 159.635 1.57281 -0.100228 0
M  V30 1737 C 160.884 1.93713 0.561984 0
M  V30 1738 C 161.197 0.984492 1.69018 0
M  V30 1739 O 162.403 1.24273 2.41389 0
M  V30 1740 C 160.859 3.4421 1.05106 0
M  V30 1741 C 160.467 4.47975 -0.0476628 0
M  V30 1742 C 162.211 3.89595 1.68571 0
M  V30 1743 C 160.118 5.89631 0.457055 0
M  V30 1744 H 159.048 0.723082 0.2137 0
M  V30 1745 H 161.699 1.82644 -0.177057 0
M  V30 1746 H 160.081 3.50449 1.84395 0
M  V30 1747 H 161.255 4.53385 -0.823333 0
M  V30 1748 H 159.57 4.1223 -0.587816 0
M  V30 1749 H 162.167 4.92832 2.07414 0
M  V30 1750 H 162.51 3.28526 2.55688 0
M  V30 1751 H 163.043 3.86078 0.958562 0
M  V30 1752 H 159.782 6.54411 -0.377616 0
M  V30 1753 H 159.302 5.87681 1.19962 0
M  V30 1754 H 160.981 6.40363 0.92437 0
M  V30 1755 N 161.113 -0.173488 1.56642 0
M  V30 1756 C 162.076 -1.19859 1.95362 0
M  V30 1757 C 163.076 -1.37296 0.83704 0
M  V30 1758 O 164.266 -1.34739 1.10413 0
M  V30 1759 C 161.398 -2.56405 2.24654 0
M  V30 1760 H 162.591 -0.867062 2.87092 0
M  V30 1761 H 160.144 -0.415853 1.50666 0
M  V30 1762 H 160.879 -2.94576 1.35631 0
M  V30 1763 H 160.664 -2.45115 3.06041 0
M  V30 1764 H 162.154 -3.30287 2.5554 0
M  V30 1765 N 162.591 -1.51276 -0.441967 0
M  V30 1766 C 163.839 -1.63392 -1.18943 0
M  V30 1767 C 164.16 -0.350159 -1.9183 0
M  V30 1768 O 163.43 0.633784 -1.85364 0
M  V30 1769 H 162.01 -0.602164 -0.442049 0
M  V30 1770 H 164.672 -1.88186 -0.507165 0
M  V30 1771 H 163.768 -2.45934 -1.92154 0
M  V30 1772 N 164.069 0.697108 -1.41344 0
M  V30 1773 C 164.999 1.82353 -1.45841 0
M  V30 1774 C 165.98 1.67115 -0.317247 0
M  V30 1775 O 167.165 1.86871 -0.528474 0
M  V30 1776 C 164.295 3.20476 -1.33838 0
M  V30 1777 C 163.249 3.50415 -2.4575 0
M  V30 1778 C 162.575 4.87878 -2.18813 0
M  V30 1779 C 163.875 3.49546 -3.88091 0
M  V30 1780 H 165.569 1.78846 -2.40113 0
M  V30 1781 H 163.115 0.859028 -1.15571 0
M  V30 1782 H 165.068 3.98988 -1.35596 0
M  V30 1783 H 163.792 3.24604 -0.360498 0
M  V30 1784 H 162.451 2.74253 -2.43271 0
M  V30 1785 H 162.099 4.8863 -1.19371 0
M  V30 1786 H 161.799 5.08875 -2.93803 0
M  V30 1787 H 163.323 5.68702 -2.22284 0
M  V30 1788 H 164.737 4.18066 -3.92293 0
M  V30 1789 H 163.134 3.82075 -4.62751 0
M  V30 1790 H 164.204 2.48552 -4.16353 0
M  V30 1791 N 165.547 1.27147 0.931209 0
M  V30 1792 C 166.824 1.0401 1.65654 0
M  V30 1793 C 167.204 -0.426297 2.06751 0
M  V30 1794 O 166.552 -1.40879 1.79904 0
M  V30 1795 C 166.762 1.99834 2.86125 0
M  V30 1796 C 168.11 2.29007 3.57549 0
M  V30 1797 O 169.134 1.97779 2.96246 0
M  V30 1798 O 167.993 2.82222 4.67989 0
M  V30 1799 H 165.087 0.396239 0.725895 0
M  V30 1800 H 167.633 1.38397 0.982056 0
M  V30 1801 H 166.405 2.98744 2.52721 0
M  V30 1802 H 166.028 1.65987 3.61295 0
M  V30 1803 N 167.025 -1.13721 1.09112 0
M  V30 1804 C 168.436 -1.6648 0.845068 0
M  V30 1805 C 168.787 -1.85911 -0.62701 0
M  V30 1806 O 167.912 -1.57556 -1.48341 0
M  V30 1807 C 168.507 -3.02413 1.52748 0
M  V30 1808 C 167.066 -3.52176 1.32849 0
M  V30 1809 C 166.213 -2.27492 1.58564 0
M  V30 1810 H 169.164 -0.976872 1.25072 0
M  V30 1811 H 169.185 -3.68223 0.958752 0
M  V30 1812 H 168.697 -2.88238 2.59885 0
M  V30 1813 H 166.798 -3.7156 0.278137 0
M  V30 1814 H 166.911 -4.32499 2.0611 0
M  V30 1815 H 165.275 -2.33923 1.00758 0
M  V30 1816 H 166.058 -2.15886 2.66924 0
M  V30 1817 N 168.503 -0.877838 -1.30888 0
M  V30 1818 C 169.45 -0.337538 -2.28318 0
M  V30 1819 C 170.42 0.568346 -1.56074 0
M  V30 1820 O 171.605 0.498298 -1.84178 0
M  V30 1821 C 168.745 0.448142 -3.42178 0
M  V30 1822 C 167.858 -0.48615 -4.29256 0
M  V30 1823 C 166.993 0.314427 -5.30269 0
M  V30 1824 C 166.032 -0.615791 -6.08995 0
M  V30 1825 N 165.169 0.14902 -7.01942 0
M  V30 1826 H 170.009 -1.17356 -2.73919 0
M  V30 1827 H 167.546 -0.590094 -1.34745 0
M  V30 1828 H 169.504 0.919517 -4.06941 0
M  V30 1829 H 168.134 1.24879 -2.97666 0
M  V30 1830 H 167.186 -1.076 -3.64865 0
M  V30 1831 H 168.498 -1.19909 -4.84173 0
M  V30 1832 H 167.652 0.847969 -6.00745 0
M  V30 1833 H 166.391 1.06062 -4.76027 0
M  V30 1834 H 165.396 -1.16102 -5.37401 0
M  V30 1835 H 166.621 -1.36097 -6.65323 0
M  V30 1836 H 164.567 0.877884 -6.50099 0
M  V30 1837 H 164.484 -0.504433 -7.54315 0
M  V30 1838 H 165.752 0.663537 -7.76671 0
M  V30 1839 N 169.982 1.44106 -0.638065 0
M  V30 1840 C 171.21 2.06336 -0.152615 0
M  V30 1841 C 171.625 1.47731 1.17563 0
M  V30 1842 O 170.982 0.602806 1.72257 0
M  V30 1843 C 171.033 3.61479 -0.0391491 0
M  V30 1844 O 170.754 4.17903 -1.31487 0
M  V30 1845 C 172.255 4.40757 0.474176 0
M  V30 1846 H 169.475 0.665862 -0.0828776 0
M  V30 1847 H 172.019 1.84862 -0.87443 0
M  V30 1848 H 170.174 3.82191 0.633142 0
M  V30 1849 H 170.588 5.11416 -1.16421 0
M  V30 1850 H 172.062 5.49707 0.502562 0
M  V30 1851 H 172.539 4.12697 1.50258 0
M  V30 1852 H 173.145 4.24979 -0.165102 0
M  V30 1853 N 171.46 0.379036 1.52974 0
M  V30 1854 C 172.707 -0.206421 2.01445 0
M  V30 1855 C 173.035 -1.47668 1.26587 0
M  V30 1856 O 172.29 -1.92514 0.351675 0
M  V30 1857 C 172.589 -0.53096 3.53434 0
M  V30 1858 C 172.255 0.646546 4.46241 0
M  V30 1859 C 170.917 0.969604 4.7133 0
M  V30 1860 C 173.269 1.43479 5.01062 0
M  V30 1861 C 170.597 2.08263 5.48492 0
M  V30 1862 C 172.949 2.53834 5.7944 0
M  V30 1863 C 171.613 2.86659 6.02812 0
M  V30 1864 H 170.883 -0.0755349 0.73714 0
M  V30 1865 H 173.53 0.514271 1.84465 0
M  V30 1866 H 171.835 -1.33285 3.68432 0
M  V30 1867 H 173.532 -0.996417 3.88423 0
M  V30 1868 H 170.122 0.384734 4.2687 0
M  V30 1869 H 174.306 1.19844 4.81613 0
M  V30 1870 H 169.562 2.34078 5.64816 0
M  V30 1871 H 173.736 3.15319 6.20924 0
M  V30 1872 H 171.363 3.73026 6.62387 0
M  V30 1873 N 172.938 -1.57226 0.108567 0
M  V30 1874 C 173.885 -2.14756 -0.845481 0
M  V30 1875 C 174.855 -1.06971 -1.27068 0
M  V30 1876 O 176.04 -1.34827 -1.35005 0
M  V30 1877 C 173.18 -2.74298 -2.09415 0
M  V30 1878 C 172.293 -3.96358 -1.71826 0
M  V30 1879 C 171.428 -4.44021 -2.9158 0
M  V30 1880 C 170.467 -5.58637 -2.50181 0
M  V30 1881 N 169.604 -6.01091 -3.62814 0
M  V30 1882 H 174.444 -2.95961 -0.348035 0
M  V30 1883 H 171.981 -1.46226 -0.160106 0
M  V30 1884 H 173.939 -3.06945 -2.82561 0
M  V30 1885 H 172.569 -1.95801 -2.56636 0
M  V30 1886 H 171.621 -3.69939 -0.885947 0
M  V30 1887 H 172.933 -4.79504 -1.37394 0
M  V30 1888 H 172.087 -4.78522 -3.72963 0
M  V30 1889 H 170.826 -3.59803 -3.29231 0
M  V30 1890 H 169.831 -5.23751 -1.67228 0
M  V30 1891 H 171.056 -6.44613 -2.13659 0
M  V30 1892 H 169.002 -5.19817 -4.00158 0
M  V30 1893 H 168.919 -6.79066 -3.32273 0
M  V30 1894 H 170.187 -6.40227 -4.44668 0
M  V30 1895 N 174.416 0.165178 -1.56732 0
M  V30 1896 C 175.827 0.727046 -1.71962 0
M  V30 1897 C 176.178 1.82508 -0.720078 0
M  V30 1898 O 175.303 2.16082 0.117242 0
M  V30 1899 C 175.898 1.32559 -3.11791 0
M  V30 1900 C 174.457 1.83422 -3.28684 0
M  V30 1901 C 173.604 0.715567 -2.67908 0
M  V30 1902 H 176.555 -0.0602896 -1.58585 0
M  V30 1903 H 176.576 2.19533 -3.10782 0
M  V30 1904 H 176.088 0.526195 -3.84516 0
M  V30 1905 H 174.189 2.65986 -2.60926 0
M  V30 1906 H 174.302 1.97543 -4.36478 0
M  V30 1907 H 172.666 1.13758 -2.27884 0
M  V30 1908 H 173.449 -0.0720836 -3.43224 0
M  V30 1909 N 175.894 1.51508 0.433938 0
M  V30 1910 C 177.141 1.64345 1.18309 0
M  V30 1911 C 177.469 0.361315 1.91115 0
M  V30 1912 O 176.724 -0.654753 1.84422 0
M  V30 1913 C 177.023 2.79928 2.22205 0
M  V30 1914 C 176.689 4.19078 1.66387 0
M  V30 1915 C 175.351 4.56932 1.50887 0
M  V30 1916 C 177.703 5.05894 1.25381 0
M  V30 1917 C 175.031 5.79305 0.928608 0
M  V30 1918 C 177.383 6.2885 0.687823 0
M  V30 1919 C 176.047 6.65473 0.519755 0
M  V30 1920 H 175.317 0.601381 0.432923 0
M  V30 1921 H 177.964 1.85549 0.473676 0
M  V30 1922 H 176.269 2.52959 2.99197 0
M  V30 1923 H 177.966 2.87059 2.79997 0
M  V30 1924 H 174.556 3.89234 1.79428 0
M  V30 1925 H 178.74 4.77253 1.36175 0
M  V30 1926 H 173.996 6.06324 0.786186 0
M  V30 1927 H 178.17 6.95461 0.361581 0
M  V30 1928 H 175.797 7.6017 0.0679979 0
M  V30 1929 N 177.372 -0.689602 1.41712 0
M  V30 1930 C 178.621 -1.44534 1.40686 0
M  V30 1931 C 178.934 -1.95588 0.0213352 0
M  V30 1932 O 180.14 -2.71271 -0.111534 0
M  V30 1933 C 178.596 -2.61387 2.47396 0
M  V30 1934 C 178.204 -2.17094 3.91885 0
M  V30 1935 C 179.948 -3.38986 2.55517 0
M  V30 1936 C 177.855 -3.3094 4.90135 0
M  V30 1937 H 176.785 -0.542925 0.52321 0
M  V30 1938 H 179.436 -0.748054 1.6756 0
M  V30 1939 H 177.818 -3.33412 2.13664 0
M  V30 1940 H 178.992 -1.52318 4.34897 0
M  V30 1941 H 177.307 -1.52473 3.8748 0
M  V30 1942 H 179.904 -4.23747 3.26102 0
M  V30 1943 H 180.247 -3.84578 1.59391 0
M  V30 1944 H 180.78 -2.74021 2.8837 0
M  V30 1945 H 177.519 -2.90355 5.87685 0
M  V30 1946 H 177.039 -3.94546 4.51767 0
M  V30 1947 H 178.718 -3.9663 5.11169 0
M  V30 1948 N 178.85 -1.27639 -0.924453 0
M  V30 1949 C 180.09 -1.15407 -1.68703 0
M  V30 1950 C 180.454 0.294581 -1.89727 0
M  V30 1951 O 181.655 0.539385 -2.63333 0
M  V30 1952 C 179.926 -1.9195 -3.0148 0
M  V30 1953 S 181.485 -1.95969 -3.92609 0
M  V30 1954 H 178.303 -0.411937 -0.579507 0
M  V30 1955 H 180.905 -1.61592 -1.10038 0
M  V30 1956 H 179.609 -2.96387 -2.83871 0
M  V30 1957 H 179.14 -1.46272 -3.65196 0
M  V30 1958 H 181.155 -1.05846 -4.84779 0
M  V30 1959 N 180.328 1.1314 -1.09713 0
M  V30 1960 C 181.553 1.88862 -0.857081 0
M  V30 1961 C 181.978 1.78729 0.586304 0
M  V30 1962 O 181.336 1.13692 1.41222 0
M  V30 1963 C 181.384 3.36325 -1.30069 0
M  V30 1964 O 180.488 4.09815 -0.461007 0
M  V30 1965 H 179.829 0.587108 -0.310162 0
M  V30 1966 H 182.359 1.43129 -1.46203 0
M  V30 1967 H 182.369 3.87157 -1.28738 0
M  V30 1968 H 181.044 3.43017 -2.35185 0
M  V30 1969 H 179.621 3.68986 -0.538888 0
M  V30 1970 N 181.806 0.884767 1.30421 0
M  V30 1971 C 182.736 0.367574 2.30589 0
M  V30 1972 C 183.717 -0.549464 1.60981 0
M  V30 1973 O 184.902 -0.46336 1.88591 0
M  V30 1974 C 182.032 -0.418944 3.44764 0
M  V30 1975 C 180.986 0.406316 4.26067 0
M  V30 1976 C 180.312 -0.506793 5.32293 0
M  V30 1977 C 181.612 1.64832 4.95608 0
M  V30 1978 H 183.306 1.20462 2.74097 0
M  V30 1979 H 180.852 0.580695 1.31772 0
M  V30 1980 H 182.805 -0.791395 4.13902 0
M  V30 1981 H 181.529 -1.28964 3.0006 0
M  V30 1982 H 180.188 0.760903 3.58617 0
M  V30 1983 H 179.836 -1.37519 4.83836 0
M  V30 1984 H 179.536 0.0415828 5.87585 0
M  V30 1985 H 181.06 -0.875764 6.04287 0
M  V30 1986 H 182.474 1.34646 5.57264 0
M  V30 1987 H 180.871 2.13688 5.60765 0
M  V30 1988 H 181.941 2.39284 4.21748 0
M  V30 1989 N 183.284 -1.43765 0.645699 0
M  V30 1990 C 184.561 -1.9541 0.0862963 0
M  V30 1991 C 184.941 -1.58725 -1.39175 0
M  V30 1992 O 184.289 -0.868581 -2.11348 0
M  V30 1993 C 184.499 -3.47488 0.324565 0
M  V30 1994 C 185.847 -4.24001 0.225497 0
M  V30 1995 O 186.871 -3.55274 0.256715 0
M  V30 1996 O 185.73 -5.46313 0.142801 0
M  V30 1997 H 182.824 -0.826882 -0.0139483 0
M  V30 1998 H 185.37 -1.53743 0.718415 0
M  V30 1999 H 184.142 -3.67289 1.3496 0
M  V30 2000 H 183.765 -3.96135 -0.340987 0
M  V30 2001 N 184.763 -0.387143 -1.52771 0
M  V30 2002 C 185.693 0.440551 -2.29306 0
M  V30 2003 C 186.674 1.06535 -1.32606 0
M  V30 2004 O 187.859 1.07853 -1.61497 0
M  V30 2005 C 184.989 1.56919 -3.09829 0
M  V30 2006 C 183.943 1.07054 -4.14395 0
M  V30 2007 C 183.269 2.29109 -4.83129 0
M  V30 2008 C 184.569 0.140015 -5.22112 0
M  V30 2009 H 186.263 -0.198026 -2.98744 0
M  V30 2010 H 183.809 -0.09668 -1.43675 0
M  V30 2011 H 185.762 2.15503 -3.62128 0
M  V30 2012 H 184.486 2.23532 -2.3812 0
M  V30 2013 H 183.145 0.507247 -3.63074 0
M  V30 2014 H 182.793 2.94227 -4.0797 0
M  V30 2015 H 182.493 1.96406 -5.53804 0
M  V30 2016 H 184.017 2.88339 -5.38231 0
M  V30 2017 H 185.431 0.633978 -5.69784 0
M  V30 2018 H 183.828 -0.0971485 -6.00021 0
M  V30 2019 H 184.898 -0.811711 -4.78058 0
M  V30 2020 N 186.241 1.57166 -0.116904 0
M  V30 2021 C 187.49 1.94298 0.541407 0
M  V30 2022 C 187.803 1.00236 1.67964 0
M  V30 2023 O 189.009 1.26826 2.40057 0
M  V30 2024 C 187.465 3.45306 1.01449 0
M  V30 2025 C 187.073 4.47899 -0.0951738 0
M  V30 2026 C 188.817 3.91361 1.6443 0
M  V30 2027 C 186.724 5.90083 0.394491 0
M  V30 2028 H 185.654 0.725308 0.206019 0
M  V30 2029 H 188.305 1.82446 -0.196419 0
M  V30 2030 H 186.687 3.52385 1.80667 0
M  V30 2031 H 187.861 4.52486 -0.871374 0
M  V30 2032 H 186.176 4.11583 -0.631505 0
M  V30 2033 H 188.773 4.95004 2.02176 0
M  V30 2034 H 189.116 3.3122 2.52189 0
M  V30 2035 H 189.649 3.87073 0.917559 0
M  V30 2036 H 186.388 6.53974 -0.447004 0
M  V30 2037 H 185.908 5.88921 1.13722 0
M  V30 2038 H 187.587 6.41307 0.856399 0
M  V30 2039 N 187.719 -0.156864 1.56817 0
M  V30 2040 C 188.967 -0.869404 1.82444 0
M  V30 2041 C 189.288 -1.82147 0.69623 0
M  V30 2042 O 188.558 -1.93847 -0.28287 0
M  V30 2043 H 187.138 -0.324043 0.673056 0
M  V30 2044 H 189.8 -0.153224 1.94297 0
M  V30 2045 H 188.896 -1.43761 2.77019 0
M  V30 2046 N 189.197 -1.51736 -0.425897 0
M  V30 2047 C 190.437 -1.66636 -1.18371 0
M  V30 2048 C 190.801 -0.379854 -1.88205 0
M  V30 2049 O 192.002 -0.404758 -2.65735 0
M  V30 2050 C 190.273 -2.84382 -2.16476 0
M  V30 2051 S 191.832 -3.19673 -3.0059 0
M  V30 2052 H 188.65 -0.586957 -0.40125 0
M  V30 2053 H 191.252 -1.89679 -0.473518 0
M  V30 2054 H 189.956 -3.76281 -1.63831 0
M  V30 2055 H 189.487 -2.63562 -2.92059 0
M  V30 2056 H 191.502 -2.66994 -4.18245 0
M  V30 2057 N 190.675 0.682077 -1.42076 0
M  V30 2058 C 192.086 1.26246 -1.37546 0
M  V30 2059 C 192.437 1.96092 -0.0651481 0
M  V30 2060 O 191.562 1.99587 0.836297 0
M  V30 2061 C 192.157 2.29594 -2.49143 0
M  V30 2062 C 190.716 2.83175 -2.47969 0
M  V30 2063 C 189.863 1.57395 -2.28303 0
M  V30 2064 H 192.814 0.475937 -1.51395 0
M  V30 2065 H 192.835 3.11175 -2.18976 0
M  V30 2066 H 192.347 1.78729 -3.44496 0
M  V30 2067 H 190.448 3.3818 -1.56413 0
M  V30 2068 H 190.561 3.32687 -3.44755 0
M  V30 2069 H 188.925 1.83699 -1.76428 0
M  V30 2070 H 189.708 1.08507 -3.25701 0
M  V30 2071 N 192.153 1.28127 0.917671 0
M  V30 2072 C 193.086 1.06039 2.02067 0
M  V30 2073 C 194.064 -0.0223285 1.62585 0
M  V30 2074 O 195.248 0.124823 1.88086 0
M  V30 2075 C 192.375 0.610596 3.33151 0
M  V30 2076 C 191.421 1.68937 3.91615 0
M  V30 2077 S 192.254 3.28437 4.22953 0
M  V30 2078 C 193.41 2.85283 5.57103 0
M  V30 2079 H 193.643 1.99425 2.20493 0
M  V30 2080 H 191.176 1.12071 1.06205 0
M  V30 2081 H 193.134 0.357778 4.08938 0
M  V30 2082 H 191.795 -0.303364 3.12632 0
M  V30 2083 H 190.988 1.32619 4.86239 0
M  V30 2084 H 190.59 1.89478 3.2245 0
M  V30 2085 H 192.882 2.3121 6.36827 0
M  V30 2086 H 193.825 3.7869 5.98331 0
M  V30 2087 H 194.233 2.24118 5.18104 0
M  V30 2088 N 193.631 -1.12557 1.10312 0
M  V30 2089 C 194.877 -1.84311 0.846011 0
M  V30 2090 C 195.21 -1.83805 -0.626859 0
M  V30 2091 O 194.485 -1.28268 -1.46211 0
M  V30 2092 C 194.768 -3.32048 1.39341 0
M  V30 2093 C 194.621 -3.41016 2.93305 0
M  V30 2094 C 195.94 -4.27764 1.03468 0
M  V30 2095 H 193.059 -0.669192 0.30879 0
M  V30 2096 H 195.701 -1.32057 1.36605 0
M  V30 2097 H 193.851 -3.76678 0.951087 0
M  V30 2098 H 195.523 -3.05031 3.46055 0
M  V30 2099 H 193.766 -2.81603 3.29973 0
M  V30 2100 H 194.437 -4.44948 3.26689 0
M  V30 2101 H 196.913 -3.91253 1.41633 0
M  V30 2102 H 195.789 -5.29549 1.44463 0
M  V30 2103 H 196.05 -4.42064 -0.0560404 0
M  V30 2104 N 195.109 -0.891671 -1.2995 0
M  V30 2105 C 196.337 -0.52866 -2.00032 0
M  V30 2106 C 196.752 0.884574 -1.66795 0
M  V30 2107 O 196.109 1.5827 -0.908669 0
M  V30 2108 C 196.16 -0.701814 -3.54622 0
M  V30 2109 O 195.881 -2.05942 -3.86678 0
M  V30 2110 C 197.382 -0.342683 -4.41973 0
M  V30 2111 H 194.602 -0.203659 -0.639347 0
M  V30 2112 H 197.146 -1.19881 -1.65677 0
M  V30 2113 H 195.301 -0.0789468 -3.8732 0
M  V30 2114 H 195.715 -2.08291 -4.81368 0
M  V30 2115 H 197.189 -0.514709 -5.49595 0
M  V30 2116 H 197.666 0.71975 -4.33262 0
M  V30 2117 H 198.272 -0.942154 -4.14733 0
M  V30 2118 N 196.587 1.43421 -0.653314 0
M  V30 2119 C 197.864 1.95361 -0.0966581 0
M  V30 2120 C 198.244 1.59461 1.38331 0
M  V30 2121 O 197.592 0.879777 2.10884 0
M  V30 2122 C 197.802 3.47311 -0.342988 0
M  V30 2123 C 199.15 4.23875 -0.24798 0
M  V30 2124 O 200.174 3.55133 -0.275553 0
M  V30 2125 O 199.033 5.4623 -0.171771 0
M  V30 2126 H 196.127 0.826945 0.00956291 0
M  V30 2127 H 198.673 1.5336 -0.726558 0
M  V30 2128 H 197.445 3.66569 -1.36906 0
M  V30 2129 H 197.068 3.9631 0.319975 0
M  V30 2130 N 198.065 0.39524 1.52563 0
M  V30 2131 C 199.342 -0.242908 1.94086 0
M  V30 2132 C 199.722 -1.63841 1.33114 0
M  V30 2133 O 199.07 -2.22928 0.501529 0
M  V30 2134 C 199.28 -0.26327 3.48006 0
M  V30 2135 C 200.628 -0.489354 4.21771 0
M  V30 2136 O 201.652 -0.343226 3.54543 0
M  V30 2137 O 200.511 -0.776169 5.4096 0
M  V30 2138 H 197.605 -0.152536 0.812811 0
M  V30 2139 H 200.151 0.450178 1.6362 0
M  V30 2140 H 198.923 0.713985 3.84731 0
M  V30 2141 H 198.546 -1.00103 3.84792 0
M  V30 2142 N 199.544 -1.57102 0.125237 0
M  V30 2143 C 200.791 -1.95407 -0.531248 0
M  V30 2144 C 201.119 -1.0089 -1.66287 0
M  V30 2145 O 200.374 -0.0339431 -1.95671 0
M  V30 2146 C 200.673 -3.40096 -1.09862 0
M  V30 2147 C 200.339 -4.50815 -0.0876989 0
M  V30 2148 C 199.001 -4.80824 0.19026 0
M  V30 2149 C 201.353 -5.17724 0.600902 0
M  V30 2150 C 198.681 -5.75058 1.163 0
M  V30 2151 C 201.033 -6.13005 1.56231 0
M  V30 2152 C 199.697 -6.41403 1.8482 0
M  V30 2153 H 198.967 -0.715046 -0.194397 0
M  V30 2154 H 201.614 -1.90373 0.207463 0
M  V30 2155 H 199.919 -3.41855 -1.91422 0
M  V30 2156 H 201.616 -3.6705 -1.61478 0
M  V30 2157 H 198.206 -4.27444 -0.314528 0
M  V30 2158 H 202.39 -4.94691 0.399333 0
M  V30 2159 H 197.646 -5.95362 1.39117 0
M  V30 2160 H 201.82 -6.63934 2.10153 0
M  V30 2161 H 199.447 -7.14229 2.60349 0
M  V30 2162 N 201.022 0.148545 -1.56898 0
M  V30 2163 C 202.268 0.862694 -1.83536 0
M  V30 2164 C 202.601 1.80889 -0.706604 0
M  V30 2165 O 201.876 1.92328 0.289885 0
M  V30 2166 C 202.159 1.63853 -3.20662 0
M  V30 2167 C 202.012 0.713925 -4.44098 0
M  V30 2168 C 203.331 2.60133 -3.54991 0
M  V30 2169 H 200.45 0.312179 -0.667618 0
M  V30 2170 H 203.092 0.127953 -1.89569 0
M  V30 2171 H 201.242 2.26489 -3.1565 0
M  V30 2172 H 202.914 0.098686 -4.61194 0
M  V30 2173 H 201.157 0.0234019 -4.33794 0
M  V30 2174 H 201.828 1.29278 -5.36648 0
M  V30 2175 H 204.304 2.07616 -3.60603 0
M  V30 2176 H 203.18 3.11468 -4.51972 0
M  V30 2177 H 203.441 3.41417 -2.80868 0
M  V30 2178 N 202.5 1.5196 0.417844 0
M  V30 2179 C 203.746 1.65836 1.16732 0
M  V30 2180 C 204.079 0.382881 1.90388 0
M  V30 2181 O 203.354 -0.618368 1.84408 0
M  V30 2182 C 203.637 2.87466 2.16876 0
M  V30 2183 C 203.49 4.25041 1.47174 0
M  V30 2184 C 204.809 3.04613 3.17646 0
M  V30 2185 H 201.928 0.603515 0.423011 0
M  V30 2186 H 204.57 1.84494 0.454105 0
M  V30 2187 H 202.72 2.71689 2.777 0
M  V30 2188 H 204.392 4.52527 0.895376 0
M  V30 2189 H 202.635 4.26843 0.773806 0
M  V30 2190 H 203.306 5.06176 2.20204 0
M  V30 2191 H 205.782 3.1923 2.66892 0
M  V30 2192 H 204.658 3.91247 3.8499 0
M  V30 2193 H 204.919 2.17541 3.84874 0
M  V30 2194 N 203.978 -0.674533 1.42435 0
M  V30 2195 C 205.203 -1.46784 1.46524 0
M  V30 2196 C 205.628 -1.87938 0.078066 0
M  V30 2197 O 204.986 -1.56014 -0.92354 0
M  V30 2198 C 205.034 -2.69307 2.39805 0
M  V30 2199 O 204.138 -3.67587 1.86959 0
M  V30 2200 H 203.479 -0.440959 0.496439 0
M  V30 2201 H 206.009 -0.827326 1.87127 0
M  V30 2202 H 206.019 -3.17374 2.56393 0
M  V30 2203 H 204.694 -2.38692 3.40586 0
M  V30 2204 H 203.271 -3.2662 1.79927 0
M  V30 2205 N 205.456 -1.28612 -0.910864 0
M  V30 2206 C 206.704 -1.15705 -1.65701 0
M  V30 2207 C 207.025 0.29416 -1.92769 0
M  V30 2208 O 206.295 1.20331 -1.54588 0
M  V30 2209 H 204.875 -0.425216 -0.614167 0
M  V30 2210 H 207.537 -1.61381 -1.0928 0
M  V30 2211 H 206.633 -1.6988 -2.61815 0
M  V30 2212 N 206.934 1.1197 -1.10907 0
M  V30 2213 C 208.162 1.87402 -0.876824 0
M  V30 2214 C 208.577 1.79894 0.573025 0
M  V30 2215 O 207.934 1.17629 1.39534 0
M  V30 2216 C 207.985 3.36428 -1.32282 0
M  V30 2217 O 207.706 3.43765 -2.71582 0
M  V30 2218 C 209.207 4.28783 -1.12518 0
M  V30 2219 H 206.427 0.592793 -0.314384 0
M  V30 2220 H 208.971 1.41649 -1.47499 0
M  V30 2221 H 207.126 3.79706 -0.768229 0
M  V30 2222 H 207.54 4.3652 -2.90776 0
M  V30 2223 H 209.014 5.31613 -1.48633 0
M  V30 2224 H 209.491 4.39153 -0.0642394 0
M  V30 2225 H 210.097 3.91291 -1.66648 0
M  V30 2226 N 208.412 0.89855 1.29475 0
M  V30 2227 C 209.652 0.530771 1.97388 0
M  V30 2228 C 210.016 -0.905832 1.69289 0
M  V30 2229 O 211.217 -1.38042 2.30646 0
M  V30 2230 C 209.488 0.81369 3.48014 0
M  V30 2231 S 211.047 0.550048 4.35339 0
M  V30 2232 H 207.865 0.196956 0.683176 0
M  V30 2233 H 210.467 1.16074 1.57312 0
M  V30 2234 H 209.171 1.85749 3.65958 0
M  V30 2235 H 208.702 0.171795 3.93025 0
M  V30 2236 H 210.717 -0.605423 4.92493 0
M  V30 2237 N 209.89 -1.43072 0.660911 0
M  V30 2238 C 210.853 -2.29194 -0.0166406 0
M  V30 2239 C 211.853 -1.42609 -0.742912 0
M  V30 2240 O 213.043 -1.64155 -0.583004 0
M  V30 2241 C 210.175 -3.24831 -1.0343 0
M  V30 2242 H 211.368 -2.90596 0.741208 0
M  V30 2243 H 208.921 -1.5048 0.422532 0
M  V30 2244 H 209.656 -2.68339 -1.82111 0
M  V30 2245 H 209.441 -3.88676 -0.517082 0
M  V30 2246 H 210.931 -3.89451 -1.50723 0
M  V30 2247 N 211.368 -0.403325 -1.52352 0
M  V30 2248 C 212.278 0.432009 -2.30588 0
M  V30 2249 C 213.294 1.05884 -1.38075 0
M  V30 2250 O 214.47 1.06161 -1.71148 0
M  V30 2251 C 211.535 1.53669 -3.10784 0
M  V30 2252 C 210.596 0.933525 -4.19027 0
M  V30 2253 C 209.829 1.98557 -4.9539 0
M  V30 2254 O 210.052 3.20283 -4.71991 0
M  V30 2255 O 208.986 1.59504 -5.80381 0
M  V30 2256 H 212.812 -0.205739 -3.03002 0
M  V30 2257 H 210.397 -0.166675 -1.48467 0
M  V30 2258 H 212.279 2.17814 -3.60742 0
M  V30 2259 H 210.954 2.15915 -2.41169 0
M  V30 2260 H 209.861 0.254954 -3.7323 0
M  V30 2261 H 211.194 0.35508 -4.90918 0
M  V30 2262 N 212.846 1.57033 -0.133567 0
M  V30 2263 C 213.778 2.13176 0.841944 0
M  V30 2264 C 214.791 1.07794 1.22001 0
M  V30 2265 O 215.98 1.35117 1.16643 0
M  V30 2266 C 213.08 2.62847 2.13926 0
M  V30 2267 C 212.253 3.92486 1.93064 0
M  V30 2268 C 211.312 4.27605 3.0666 0
M  V30 2269 O 210.338 4.96168 2.78937 0
M  V30 2270 N 211.54 3.861 4.33483 0
M  V30 2271 H 214.305 2.97503 0.362192 0
M  V30 2272 H 211.866 1.61821 0.05042 0
M  V30 2273 H 213.858 2.83363 2.88942 0
M  V30 2274 H 212.428 1.83319 2.53205 0
M  V30 2275 H 211.648 3.80732 1.02159 0
M  V30 2276 H 212.936 4.77225 1.76447 0
M  V30 2277 H 212.334 3.30828 4.58878 0
M  V30 2278 H 210.891 4.11694 5.05323 0
M  V30 2279 N 214.325 -0.140222 1.56975 0
M  V30 2280 C 215.258 -1.20266 1.93936 0
M  V30 2281 C 216.236 -1.41212 0.806099 0
M  V30 2282 O 217.42 -1.55713 1.06234 0
M  V30 2283 C 214.547 -2.56037 2.21726 0
M  V30 2284 C 213.593 -2.51646 3.44349 0
M  V30 2285 S 214.426 -1.97678 4.97678 0
M  V30 2286 C 215.582 -3.35165 5.28597 0
M  V30 2287 H 215.815 -0.887358 2.83749 0
M  V30 2288 H 213.348 -0.346119 1.50471 0
M  V30 2289 H 215.306 -3.34167 2.38416 0
M  V30 2290 H 213.967 -2.84755 1.32566 0
M  V30 2291 H 213.16 -3.51608 3.61092 0
M  V30 2292 H 212.762 -1.81628 3.26936 0
M  V30 2293 H 215.054 -4.31302 5.2248 0
M  V30 2294 H 215.997 -3.23269 6.30002 0
M  V30 2295 H 216.405 -3.32614 4.56101 0
M  V30 2296 N 215.803 -1.52179 -0.40978 0
M  V30 2297 C 217.033 -1.69807 -1.17682 0
M  V30 2298 C 217.441 -0.406908 -1.84773 0
M  V30 2299 O 216.784 0.626863 -1.72673 0
M  V30 2300 C 216.846 -2.77712 -2.2829 0
M  V30 2301 C 216.51 -4.19481 -1.81341 0
M  V30 2302 C 217.507 -5.03345 -1.30154 0
M  V30 2303 C 215.192 -4.65713 -1.88194 0
M  V30 2304 C 217.186 -6.31511 -0.864416 0
M  V30 2305 C 214.873 -5.93869 -1.44093 0
M  V30 2306 C 215.871 -6.76597 -0.933023 0
M  V30 2307 O 215.559 -8.02354 -0.49838 0
M  V30 2308 H 215.291 -0.572372 -0.359675 0
M  V30 2309 H 217.845 -1.99511 -0.488311 0
M  V30 2310 H 216.075 -2.43383 -3.00502 0
M  V30 2311 H 217.764 -2.83946 -2.90051 0
M  V30 2312 H 218.53 -4.68819 -1.24232 0
M  V30 2313 H 214.409 -4.01424 -2.26671 0
M  V30 2314 H 217.953 -6.96033 -0.467286 0
M  V30 2315 H 213.85 -6.27903 -1.49694 0
M  V30 2316 H 214.618 -8.16135 -0.621747 0
M  V30 2317 N 217.281 0.66697 -1.42791 0
M  V30 2318 C 218.529 1.42417 -1.43394 0
M  V30 2319 C 218.85 1.94925 -0.0542373 0
M  V30 2320 O 218.12 1.73564 0.908415 0
M  V30 2321 H 216.7 0.528515 -0.527902 0
M  V30 2322 H 219.362 0.787562 -1.78279 0
M  V30 2323 H 218.458 2.27333 -2.13837 0
M  V30 2324 N 218.759 1.29093 0.90403 0
M  V30 2325 C 219.692 1.08176 2.00931 0
M  V30 2326 C 220.67 -0.005083 1.62599 0
M  V30 2327 O 221.854 0.144765 1.87943 0
M  V30 2328 C 218.981 0.645897 3.32484 0
M  V30 2329 C 218.027 1.73081 3.89801 0
M  V30 2330 S 218.86 3.32905 4.19446 0
M  V30 2331 C 220.016 2.91176 5.54046 0
M  V30 2332 H 220.249 2.01752 2.18365 0
M  V30 2333 H 217.782 1.13191 1.0501 0
M  V30 2334 H 219.74 0.401131 4.08535 0
M  V30 2335 H 218.401 -0.270188 3.12936 0
M  V30 2336 H 217.594 1.37768 4.84805 0
M  V30 2337 H 217.196 1.92888 3.20422 0
M  V30 2338 H 219.488 2.37952 6.34338 0
M  V30 2339 H 220.431 3.85014 5.94281 0
M  V30 2340 H 220.839 2.296 5.15698 0
M  V30 2341 N 220.237 -1.11381 1.11499 0
M  V30 2342 C 221.477 -1.84763 0.874188 0
M  V30 2343 C 221.841 -1.82726 -0.589496 0
M  V30 2344 O 223.042 -2.51562 -0.947089 0
M  V30 2345 C 221.313 -3.27931 1.42112 0
M  V30 2346 S 222.872 -4.18557 1.31739 0
M  V30 2347 H 219.69 -0.637115 0.315603 0
M  V30 2348 H 222.292 -1.34097 1.42261 0
M  V30 2349 H 220.996 -3.26978 2.48019 0
M  V30 2350 H 220.527 -3.83665 0.869761 0
M  V30 2351 H 222.542 -4.95396 0.282335 0
M  V30 2352 N 221.715 -0.905404 -1.28997 0
M  V30 2353 C 222.625 -0.392246 -2.31298 0
M  V30 2354 C 223.641 0.515889 -1.66176 0
M  V30 2355 O 224.817 0.404093 -1.97304 0
M  V30 2356 C 221.882 0.36686 -3.44754 0
M  V30 2357 C 220.943 -0.573485 -4.25452 0
M  V30 2358 C 220.176 0.149488 -5.33491 0
M  V30 2359 O 220.399 1.37255 -5.5364 0
M  V30 2360 O 219.333 -0.510919 -5.99728 0
M  V30 2361 H 223.159 -1.2411 -2.77183 0
M  V30 2362 H 220.744 -0.669926 -1.33538 0
M  V30 2363 H 222.626 0.795907 -4.13816 0
M  V30 2364 H 221.301 1.19169 -3.00966 0
M  V30 2365 H 220.208 -1.05176 -3.59011 0
M  V30 2366 H 221.541 -1.36489 -4.72897 0
M  V30 2367 N 223.193 1.4272 -0.668489 0
M  V30 2368 C 224.418 2.06484 -0.194758 0
M  V30 2369 C 224.843 1.49862 1.13679 0
M  V30 2370 O 224.201 0.614582 1.70565 0
M  V30 2371 C 224.249 3.60353 -0.133546 0
M  V30 2372 O 223.353 4.02464 0.899806 0
M  V30 2373 H 222.694 0.656137 -0.10188 0
M  V30 2374 H 225.224 1.82964 -0.915722 0
M  V30 2375 H 225.234 4.07976 0.0447041 0
M  V30 2376 H 223.909 4.00938 -1.1055 0
M  V30 2377 H 222.486 3.66402 0.693109 0
M  V30 2378 N 224.671 0.411399 1.52136 0
M  V30 2379 C 225.601 -0.404015 2.29978 0
M  V30 2380 C 226.582 -1.04412 1.34284 0
M  V30 2381 O 227.767 -1.0527 1.63192 0
M  V30 2382 C 224.897 -1.5197 3.12286 0
M  V30 2383 C 223.851 -1.00448 4.16046 0
M  V30 2384 C 223.177 -2.21393 4.86712 0
M  V30 2385 C 224.477 -0.0569336 5.22269 0
M  V30 2386 H 226.171 0.245529 2.98392 0
M  V30 2387 H 223.717 0.119525 1.43503 0
M  V30 2388 H 225.67 -2.09715 3.6551 0
M  V30 2389 H 224.394 -2.19716 2.41646 0
M  V30 2390 H 223.053 -0.449421 3.63835 0
M  V30 2391 H 222.701 -2.87699 4.12599 0
M  V30 2392 H 222.401 -1.87571 5.56858 0
M  V30 2393 H 223.925 -2.7974 5.4275 0
M  V30 2394 H 225.339 -0.54325 5.7072 0
M  V30 2395 H 223.736 0.192594 5.99791 0
M  V30 2396 H 224.806 0.887663 4.76706 0
M  V30 2397 N 226.149 -1.5696 0.141893 0
M  V30 2398 C 227.395 -1.97034 -0.504884 0
M  V30 2399 C 227.75 -1.02518 -1.62812 0
M  V30 2400 O 227.043 -0.0592943 -1.91508 0
M  V30 2401 C 227.237 -3.41242 -1.06249 0
M  V30 2402 C 227.066 -4.497 0.00519653 0
M  V30 2403 C 225.836 -5.03338 0.444873 0
M  V30 2404 C 228.034 -5.08122 0.794767 0
M  V30 2405 N 226.016 -5.95395 1.49593 0
M  V30 2406 C 227.387 -5.96339 1.69645 0
M  V30 2407 C 229.442 -4.9071 0.843122 0
M  V30 2408 C 228.145 -6.69009 2.64233 0
M  V30 2409 C 230.171 -5.64077 1.77681 0
M  V30 2410 C 229.533 -6.51999 2.66603 0
M  V30 2411 H 225.632 -0.766745 -0.153707 0
M  V30 2412 H 228.216 -1.93273 0.235313 0
M  V30 2413 H 226.387 -3.45606 -1.77231 0
M  V30 2414 H 228.119 -3.68389 -1.67546 0
M  V30 2415 H 224.874 -4.73576 0.0480959 0
M  V30 2416 H 225.298 -6.46128 2.02107 0
M  V30 2417 H 229.94 -4.22459 0.169732 0
M  V30 2418 H 227.658 -7.36492 3.32575 0
M  V30 2419 H 231.244 -5.52602 1.81996 0
M  V30 2420 H 230.124 -7.07775 3.37675 0
M  V30 2421 N 227.627 0.131896 -1.57047 0
M  V30 2422 C 228.537 1.1815 -2.02676 0
M  V30 2423 C 229.553 1.46113 -0.944824 0
M  V30 2424 O 230.729 1.57485 -1.25541 0
M  V30 2425 C 227.794 2.49139 -2.41103 0
M  V30 2426 C 226.855 2.28688 -3.63318 0
M  V30 2427 C 226.088 3.53431 -3.99903 0
M  V30 2428 O 226.311 4.60223 -3.36973 0
M  V30 2429 O 225.245 3.45198 -4.93074 0
M  V30 2430 H 229.071 0.824069 -2.92306 0
M  V30 2431 H 226.656 0.341745 -1.45439 0
M  V30 2432 H 228.538 3.26338 -2.66611 0
M  V30 2433 H 227.213 2.84382 -1.54624 0
M  V30 2434 H 226.12 1.4939 -3.42977 0
M  V30 2435 H 227.453 1.98355 -4.50462 0
M  V30 2436 N 229.106 1.52395 0.401703 0
M  V30 2437 C 230.517 1.58899 0.980202 0
M  V30 2438 C 230.868 0.434032 1.91339 0
M  V30 2439 O 229.993 -0.444619 2.11783 0
M  V30 2440 C 230.588 2.87994 1.78451 0
M  V30 2441 C 229.147 2.96953 2.31292 0
M  V30 2442 C 228.294 2.53903 1.11483 0
M  V30 2443 H 231.245 1.57657 0.18168 0
M  V30 2444 H 231.266 2.73765 2.64259 0
M  V30 2445 H 230.778 3.72035 1.10506 0
M  V30 2446 H 228.879 2.17422 3.02586 0
M  V30 2447 H 228.992 4.01344 2.61649 0
M  V30 2448 H 227.356 2.07925 1.47104 0
M  V30 2449 H 228.139 3.40326 0.450928 0
M  V30 2450 N 230.584 -0.659388 1.43143 0
M  V30 2451 C 231.532 -1.79374 1.4808 0
M  V30 2452 C 232.526 -1.65639 0.354988 0
M  V30 2453 O 233.732 -1.7206 0.528704 0
M  V30 2454 H 230.107 -0.591705 0.4641 0
M  V30 2455 H 232.078 -1.72329 2.43609 0
M  V30 2456 C 230.827 -3.17606 1.41499 0
M  V30 2457 H 230.15 -3.28809 2.27431 0
M  V30 2458 H 231.59 -3.96951 1.49015 0
M  V30 2459 C 230.049 -3.36642 0.131765 0
M  V30 2460 O 230.579 -3.93461 -0.809386 0
M  V30 2461 N 228.785 -2.90567 0.0439396 0
M  V30 2462 H 228.332 -2.44513 0.810619 0
M  V30 2463 H 228.29 -3.03681 -0.813969 0
M  V30 2464 N 232.062 -1.29571 -0.897171 0
M  V30 2465 C 232.995 -1.0924 -2.00354 0
M  V30 2466 C 233.973 -0.00354011 -1.626 0
M  V30 2467 O 235.157 -0.15473 -1.87864 0
M  V30 2468 C 232.284 -0.66352 -3.32137 0
M  V30 2469 C 231.33 -1.75146 -3.88878 0
M  V30 2470 S 232.163 -3.35124 -4.17674 0
M  V30 2471 C 233.319 -2.9411 -5.52494 0
M  V30 2472 H 233.552 -2.02907 -2.17292 0
M  V30 2473 H 231.085 -1.13746 -1.04408 0
M  V30 2474 H 233.043 -0.422791 -4.08317 0
M  V30 2475 H 231.704 0.253588 -3.13075 0
M  V30 2476 H 230.897 -1.40337 -4.84068 0
M  V30 2477 H 230.499 -1.94584 -3.19395 0
M  V30 2478 H 232.791 -2.41312 -6.33068 0
M  V30 2479 H 233.734 -3.88161 -5.9223 0
M  V30 2480 H 234.142 -2.32332 -5.14473 0
M  V30 2481 N 233.54 1.10788 -1.12088 0
M  V30 2482 C 234.817 1.79136 -0.785476 0
M  V30 2483 C 235.197 1.98246 0.725377 0
M  V30 2484 O 234.545 1.57258 1.65778 0
M  V30 2485 C 234.755 3.12375 -1.55636 0
M  V30 2486 C 236.103 3.8731 -1.74001 0
M  V30 2487 O 237.127 3.22085 -1.52117 0
M  V30 2488 O 235.986 5.04369 -2.10415 0
M  V30 2489 H 233.08 0.776226 -0.285311 0
M  V30 2490 H 235.626 1.1747 -1.2247 0
M  V30 2491 H 234.398 2.93863 -2.5838 0
M  V30 2492 H 234.021 3.81758 -1.11114 0
M  V30 2493 N 235.018 0.912232 1.28515 0
M  V30 2494 C 236.429 0.591352 1.77087 0
M  V30 2495 C 236.78 -0.8933 1.74684 0
M  V30 2496 O 235.905 -1.69876 1.34056 0
M  V30 2497 C 236.5 1.06668 3.2157 0
M  V30 2498 C 235.059 0.79675 3.67871 0
M  V30 2499 C 234.206 1.23427 2.48316 0
M  V30 2500 H 237.157 1.09365 1.15 0
M  V30 2501 H 237.178 0.407455 3.78312 0
M  V30 2502 H 236.69 2.14726 3.23287 0
M  V30 2503 H 234.791 -0.270679 3.71616 0
M  V30 2504 H 234.904 1.40343 4.58084 0
M  V30 2505 H 233.268 0.653036 2.46186 0
M  V30 2506 H 234.051 2.32316 2.52753 0
M  V30 2507 N 236.496 -1.42363 0.676048 0
M  V30 2508 C 237.773 -1.95183 0.127726 0
M  V30 2509 C 238.153 -1.61641 -1.35777 0
M  V30 2510 O 237.501 -0.913216 -2.09458 0
M  V30 2511 C 237.711 -3.46721 0.398199 0
M  V30 2512 C 239.059 -4.23427 0.315383 0
M  V30 2513 O 240.083 -3.54649 0.332016 0
M  V30 2514 O 238.942 -5.45888 0.25865 0
M  V30 2515 H 236.036 -0.826992 0.00359427 0
M  V30 2516 H 238.582 -1.52184 0.750864 0
M  V30 2517 H 237.354 -3.64344 1.4272 0
M  V30 2518 H 236.977 -3.96769 -0.256885 0
M  V30 2519 N 237.974 -0.419461 -1.51915 0
M  V30 2520 C 238.924 0.418496 -2.24126 0
M  V30 2521 C 239.908 1.00495 -1.25656 0
M  V30 2522 O 241.1 0.926058 -1.50842 0
M  V30 2523 C 238.229 1.52899 -3.07371 0
M  V30 2524 C 237.315 0.952797 -4.13258 0
M  V30 2525 N 237.706 0.104175 -5.05693 0
M  V30 2526 C 236.004 1.22224 -4.28926 0
M  V30 2527 C 236.705 -0.21752 -5.81293 0
M  V30 2528 N 235.681 0.394293 -5.42168 0
M  V30 2529 H 239.483 -0.236048 -2.92951 0
M  V30 2530 H 236.997 -0.230481 -1.60756 0
M  V30 2531 H 238.994 2.14199 -3.57665 0
M  V30 2532 H 237.654 2.18605 -2.40088 0
M  V30 2533 H 238.665 -0.260924 -5.17242 0
M  V30 2534 H 235.342 1.87812 -3.72871 0
M  V30 2535 H 236.732 -0.906992 -6.6575 0
M  V30 2536 N 239.452 1.56882 -0.150215 0
M  V30 2537 C 240.382 2.19935 0.784284 0
M  V30 2538 C 241.363 1.14854 1.25469 0
M  V30 2539 O 242.548 1.43209 1.31168 0
M  V30 2540 C 239.678 2.82349 2.02229 0
M  V30 2541 C 238.632 3.93285 1.68853 0
M  V30 2542 C 237.958 4.42649 2.99944 0
M  V30 2543 C 239.258 5.13904 0.932714 0
M  V30 2544 H 240.952 2.9828 0.258781 0
M  V30 2545 H 238.498 1.43473 0.123029 0
M  V30 2546 H 240.451 3.25126 2.68088 0
M  V30 2547 H 239.175 2.0134 2.57157 0
M  V30 2548 H 237.834 3.5113 1.05371 0
M  V30 2549 H 237.482 3.58458 3.52869 0
M  V30 2550 H 237.182 5.17476 2.78374 0
M  V30 2551 H 238.706 4.88099 3.66868 0
M  V30 2552 H 240.12 5.53506 1.49345 0
M  V30 2553 H 238.517 5.94515 0.81684 0
M  V30 2554 H 239.587 4.84842 -0.0749568 0
M  V30 2555 N 240.93 -0.123565 1.57115 0
M  V30 2556 C 242.177 -0.832153 1.84612 0
M  V30 2557 C 242.505 -1.80093 0.734627 0
M  V30 2558 O 241.76 -1.93766 -0.27442 0
M  V30 2559 C 242.059 -1.62016 3.18568 0
M  V30 2560 C 241.725 -0.796084 4.43817 0
M  V30 2561 C 240.387 -0.568816 4.77826 0
M  V30 2562 C 242.739 -0.221364 5.2073 0
M  V30 2563 C 240.067 0.243499 5.86194 0
M  V30 2564 C 242.419 0.578117 6.29953 0
M  V30 2565 C 241.083 0.815744 6.62497 0
M  V30 2566 H 240.353 -0.304507 0.675542 0
M  V30 2567 H 243 -0.0947248 1.91266 0
M  V30 2568 H 241.305 -2.42837 3.0747 0
M  V30 2569 H 243.002 -2.17231 3.37064 0
M  V30 2570 H 239.592 -0.983307 4.17168 0
M  V30 2571 H 243.776 -0.384173 4.94811 0
M  V30 2572 H 239.032 0.436871 6.09837 0
M  V30 2573 H 243.206 1.03046 6.88734 0
M  V30 2574 H 240.833 1.44701 7.46301 0
M  V30 2575 N 242.408 -1.52605 -0.393616 0
M  V30 2576 C 243.318 -1.79971 -1.50492 0
M  V30 2577 C 244.334 -0.686181 -1.59899 0
M  V30 2578 O 245.51 -0.973274 -1.76322 0
M  V30 2579 C 242.575 -1.95867 -2.86072 0
M  V30 2580 C 241.636 -3.19781 -2.86424 0
M  V30 2581 C 240.869 -3.34909 -4.15538 0
M  V30 2582 O 241.092 -2.54948 -5.10253 0
M  V30 2583 O 240.026 -4.28141 -4.23059 0
M  V30 2584 H 243.852 -2.74328 -1.30299 0
M  V30 2585 H 241.437 -1.3764 -0.581005 0
M  V30 2586 H 243.319 -2.08056 -3.66457 0
M  V30 2587 H 241.994 -1.04699 -3.063 0
M  V30 2588 H 240.901 -3.13038 -2.04837 0
M  V30 2589 H 242.234 -4.1078 -2.71147 0
M  V30 2590 N 243.887 0.651787 -1.4349 0
M  V30 2591 C 245.115 1.43937 -1.48626 0
M  V30 2592 C 245.53 1.8851 -0.104587 0
M  V30 2593 O 244.887 1.5958 0.885464 0
M  V30 2594 C 244.938 2.6734 -2.43334 0
M  V30 2595 O 244.659 2.24631 -3.76128 0
M  V30 2596 C 246.16 3.60683 -2.57726 0
M  V30 2597 H 243.38 0.44213 -0.504739 0
M  V30 2598 H 245.924 0.798944 -1.88248 0
M  V30 2599 H 244.079 3.2752 -2.06904 0
M  V30 2600 H 244.493 3.04485 -4.2707 0
M  V30 2601 H 245.967 4.43933 -3.28067 0
M  V30 2602 H 246.444 4.08126 -1.62265 0
M  V30 2603 H 247.05 3.06384 -2.94973 0
M  V30 2604 N 245.365 1.30045 0.890287 0
M  V30 2605 C 246.614 1.17929 1.63633 0
M  V30 2606 C 246.927 -0.266204 1.9378 0
M  V30 2607 O 248.133 -0.508804 2.6669 0
M  V30 2608 C 246.589 2.06317 2.94892 0
M  V30 2609 C 246.197 3.55745 2.72305 0
M  V30 2610 C 247.941 2.0295 3.72843 0
M  V30 2611 C 245.848 4.36205 3.99348 0
M  V30 2612 H 244.778 0.437782 0.613892 0
M  V30 2613 H 247.429 1.54754 0.986075 0
M  V30 2614 H 245.811 1.6237 3.61182 0
M  V30 2615 H 246.985 4.07805 2.1455 0
M  V30 2616 H 245.3 3.6088 2.07737 0
M  V30 2617 H 247.897 2.60319 4.67053 0
M  V30 2618 H 248.24 1.0117 4.0382 0
M  V30 2619 H 248.773 2.4499 3.13408 0
M  V30 2620 H 245.512 5.38659 3.73533 0
M  V30 2621 H 245.032 3.8891 4.56628 0
M  V30 2622 H 246.711 4.47362 4.67415 0
M  V30 2623 N 246.843 -1.10192 1.12674 0
M  V30 2624 C 248.068 -1.86523 0.906853 0
M  V30 2625 C 248.493 -1.80221 -0.538711 0
M  V30 2626 O 247.851 -1.17396 -1.38158 0
M  V30 2627 C 247.899 -3.32758 1.3894 0
M  V30 2628 O 247.003 -4.08449 0.5695 0
M  V30 2629 H 246.344 -0.578678 0.325619 0
M  V30 2630 H 248.874 -1.39203 1.49946 0
M  V30 2631 H 248.884 -3.83608 1.38958 0
M  V30 2632 H 247.559 -3.36661 2.44197 0
M  V30 2633 H 246.136 -3.67427 0.636528 0
M  V30 2634 N 248.321 -0.919034 -1.28029 0
M  V30 2635 C 249.253 -0.368762 -2.26214 0
M  V30 2636 C 250.266 0.495716 -1.55069 0
M  V30 2637 O 251.455 0.30974 -1.75792 0
M  V30 2638 C 248.555 0.491049 -3.35324 0
M  V30 2639 C 247.728 -0.352133 -4.3598 0
M  V30 2640 C 246.787 0.443622 -5.24327 0
M  V30 2641 O 245.813 -0.14566 -5.69014 0
M  V30 2642 N 247.015 1.74545 -5.53637 0
M  V30 2643 H 249.78 -1.21273 -2.74068 0
M  V30 2644 H 247.341 -0.785541 -1.41566 0
M  V30 2645 H 249.333 1.03026 -3.91366 0
M  V30 2646 H 247.903 1.23574 -2.87138 0
M  V30 2647 H 247.123 -1.07269 -3.79324 0
M  V30 2648 H 248.411 -0.928883 -5.00249 0
M  V30 2649 H 247.809 2.24666 -5.19174 0
M  V30 2650 H 246.366 2.23138 -6.12416 0
M  V30 2651 N 249.799 1.42003 -0.683588 0
M  V30 2652 C 250.762 2.29191 -0.0198243 0
M  V30 2653 C 251.762 1.43773 0.72013 0
M  V30 2654 O 252.952 1.65061 0.556815 0
M  V30 2655 C 250.084 3.26435 0.982487 0
M  V30 2656 H 251.277 2.8938 -0.787345 0
M  V30 2657 H 248.83 1.49789 -0.446418 0
M  V30 2658 H 249.565 2.71203 1.77819 0
M  V30 2659 H 249.35 3.89449 0.455182 0
M  V30 2660 H 250.84 3.918 1.44508 0
M  V30 2661 N 251.277 0.427512 1.51691 0
M  V30 2662 C 252.21 -0.433876 2.24037 0
M  V30 2663 C 253.188 -1.03287 1.25581 0
M  V30 2664 O 254.372 -1.07722 1.54688 0
M  V30 2665 C 251.499 -1.60385 2.98319 0
M  V30 2666 C 250.545 -1.12648 4.11355 0
M  V30 2667 S 251.378 -0.076543 5.35445 0
M  V30 2668 C 252.534 -1.25141 6.13262 0
M  V30 2669 H 252.767 0.180367 2.96752 0
M  V30 2670 H 250.3 0.211946 1.52938 0
M  V30 2671 H 252.258 -2.27462 3.41718 0
M  V30 2672 H 250.919 -2.18948 2.25213 0
M  V30 2673 H 250.112 -2.0011 4.62571 0
M  V30 2674 H 249.714 -0.534088 3.70167 0
M  V30 2675 H 252.006 -2.17162 6.41753 0
M  V30 2676 H 252.949 -0.779411 7.03797 0
M  V30 2677 H 253.357 -1.48553 5.44603 0
M  V30 2678 N 252.755 -1.56801 0.158532 0
M  V30 2679 C 253.685 -2.20347 -0.772609 0
M  V30 2680 C 254.666 -1.15518 -1.24859 0
M  V30 2681 O 255.851 -1.43902 -1.30406 0
M  V30 2682 C 252.981 -2.83417 -2.00729 0
M  V30 2683 C 251.935 -3.94174 -1.66765 0
M  V30 2684 C 251.261 -4.44233 -2.97592 0
M  V30 2685 C 252.561 -5.14392 -0.905447 0
M  V30 2686 H 254.255 -2.98413 -0.242959 0
M  V30 2687 H 251.801 -1.43537 -0.115419 0
M  V30 2688 H 253.754 -3.26543 -2.6636 0
M  V30 2689 H 252.478 -2.02701 -2.56086 0
M  V30 2690 H 251.137 -3.51684 -1.03508 0
M  V30 2691 H 250.785 -3.60325 -3.50963 0
M  V30 2692 H 250.485 -5.18945 -2.75626 0
M  V30 2693 H 252.009 -4.90037 -3.64274 0
M  V30 2694 H 253.423 -5.5429 -1.46408 0
M  V30 2695 H 251.82 -5.9494 -0.7853 0
M  V30 2696 H 252.89 -4.84795 0.100668 0
M  V30 2697 N 254.233 0.115231 -1.57178 0
M  V30 2698 C 255.181 1.16014 -2.01602 0
M  V30 2699 C 256.175 1.42653 -0.913587 0
M  V30 2700 O 257.381 1.42571 -1.09879 0
M  V30 2701 H 253.756 0.391252 -0.642204 0
M  V30 2702 H 255.727 0.758998 -2.88586 0
M  V30 2703 C 254.476 2.47767 -2.4394 0
M  V30 2704 H 253.799 2.28108 -3.28339 0
M  V30 2705 H 255.239 3.19432 -2.78818 0
M  V30 2706 C 253.698 3.10617 -1.30455 0
M  V30 2707 O 254.228 3.96846 -0.622585 0
M  V30 2708 N 252.434 2.70553 -1.06064 0
M  V30 2709 H 251.981 2.00527 -1.61699 0
M  V30 2710 H 251.939 3.12934 -0.303284 0
M  V30 2711 N 255.711 1.52812 0.385517 0
M  V30 2712 C 256.674 1.77188 1.45386 0
M  V30 2713 C 257.674 0.641953 1.4743 0
M  V30 2714 O 258.864 0.910033 1.4854 0
M  V30 2715 C 255.996 1.87582 2.8465 0
M  V30 2716 H 257.189 2.72583 1.25054 0
M  V30 2717 H 254.742 1.43586 0.617467 0
M  V30 2718 H 255.477 0.941849 3.10322 0
M  V30 2719 H 255.262 2.69748 2.84567 0
M  V30 2720 H 256.752 2.08102 3.62054 0
M  V30 2721 N 257.189 -0.644168 1.43834 0
M  V30 2722 C 258.435 -1.40603 1.46146 0
M  V30 2723 C 258.768 -1.93997 0.0887717 0
M  V30 2724 O 258.043 -1.72854 -0.891724 0
M  V30 2725 C 258.326 -2.58086 2.51124 0
M  V30 2726 C 258.179 -2.10126 3.97702 0
M  V30 2727 C 259.498 -3.60291 2.52742 0
M  V30 2728 H 256.617 -0.509905 0.532134 0
M  V30 2729 H 259.259 -0.729502 1.75437 0
M  V30 2730 H 257.409 -3.15801 2.26278 0
M  V30 2731 H 259.081 -1.57342 4.33637 0
M  V30 2732 H 257.324 -1.41419 4.10101 0
M  V30 2733 H 257.995 -2.94649 4.66783 0
M  V30 2734 H 260.471 -3.12352 2.7491 0
M  V30 2735 H 259.347 -4.40032 3.28121 0
M  V30 2736 H 259.608 -4.1349 1.56455 0
M  V30 2737 N 258.668 -1.30515 -0.883378 0
M  V30 2738 C 259.945 -1.10086 -1.6168 0
M  V30 2739 C 260.325 0.349269 -2.08191 0
M  V30 2740 O 259.673 1.34105 -1.85008 0
M  V30 2741 C 259.883 -2.10315 -2.78511 0
M  V30 2742 C 261.231 -2.42119 -3.48803 0
M  V30 2743 O 262.255 -2.08638 -2.88702 0
M  V30 2744 O 261.114 -2.99396 -4.57192 0
M  V30 2745 H 258.208 -0.422907 -0.710689 0
M  V30 2746 H 260.754 -1.41947 -0.930015 0
M  V30 2747 H 259.526 -3.07917 -2.41459 0
M  V30 2748 H 259.149 -1.79282 -3.54886 0
M  V30 2749 N 260.146 1.09593 -1.13257 0
M  V30 2750 C 261.562 1.33775 -0.870423 0
M  V30 2751 C 261.762 1.95327 0.494926 0
M  V30 2752 O 260.818 2.19853 1.2418 0
M  V30 2753 C 262.131 2.25106 -1.99369 0
M  V30 2754 C 263.679 2.3862 -2.02558 0
M  V30 2755 C 264.154 3.33285 -3.14142 0
M  V30 2756 N 265.645 3.40857 -3.13641 0
M  V30 2757 C 266.38 4.14101 -3.96621 0
M  V30 2758 N 265.876 4.90157 -4.8961 0
M  V30 2759 N 267.669 4.09808 -3.84726 0
M  V30 2760 H 259.82 0.680136 -2.01216 0
M  V30 2761 H 262.083 0.362133 -0.876107 0
M  V30 2762 H 261.789 1.87103 -2.97801 0
M  V30 2763 H 261.663 3.25481 -1.90635 0
M  V30 2764 H 264.05 2.75887 -1.0474 0
M  V30 2765 H 264.131 1.38028 -2.15364 0
M  V30 2766 H 263.775 2.96741 -4.12198 0
M  V30 2767 H 263.705 4.33776 -2.98574 0
M  V30 2768 H 266.196 2.86624 -2.46282 0
M  V30 2769 H 266.509 5.4347 -5.49418 0
M  V30 2770 H 264.854 4.89251 -4.93617 0
M  V30 2771 H 268.045 3.4949 -3.11408 0
M  V30 2772 H 268.218 4.66629 -4.49623 0
M  V30 2773 N 261.624 0.925811 1.2754 0
M  V30 2774 C 262.901 0.483726 1.89524 0
M  V30 2775 C 263.281 -1.03809 1.83812 0
M  V30 2776 O 262.629 -1.89143 1.28207 0
M  V30 2777 C 262.839 1.02769 3.33526 0
M  V30 2778 C 264.187 1.08703 4.10449 0
M  V30 2779 O 265.211 0.977175 3.42534 0
M  V30 2780 O 264.07 1.25599 5.31871 0
M  V30 2781 H 261.164 0.15529 0.812289 0
M  V30 2782 H 263.71 1.01738 1.35822 0
M  V30 2783 H 262.482 2.07155 3.31967 0
M  V30 2784 H 262.105 0.475567 3.94746 0
M  V30 2785 N 263.102 -1.41638 0.69111 0
M  V30 2786 C 264.065 -2.29178 0.0319786 0
M  V30 2787 C 265.065 -1.44153 -0.712496 0
M  V30 2788 O 266.255 -1.65354 -0.548053 0
M  V30 2789 C 263.387 -3.26952 -0.965161 0
M  V30 2790 H 264.58 -2.88959 0.802681 0
M  V30 2791 H 262.133 -1.4955 0.454356 0
M  V30 2792 H 262.868 -2.72142 -1.76378 0
M  V30 2793 H 262.653 -3.89685 -0.434522 0
M  V30 2794 H 264.143 -3.92561 -1.42428 0
M  V30 2795 N 264.58 -0.43555 -1.51462 0
M  V30 2796 C 265.826 0.131709 -2.02372 0
M  V30 2797 C 266.159 1.42516 -1.3192 0
M  V30 2798 O 265.434 1.89606 -0.433573 0
M  V30 2799 C 265.717 0.352301 -3.58373 0
M  V30 2800 C 265.57 -0.959676 -4.39443 0
M  V30 2801 C 266.889 1.12286 -4.25535 0
M  V30 2802 H 264.008 0.0463936 -0.735538 0
M  V30 2803 H 266.65 -0.574197 -1.81116 0
M  V30 2804 H 264.8 0.9536 -3.76615 0
M  V30 2805 H 266.472 -1.59482 -4.32855 0
M  V30 2806 H 264.715 -1.56468 -4.04599 0
M  V30 2807 H 265.386 -0.759394 -5.46752 0
M  V30 2808 H 267.862 0.613545 -4.11552 0
M  V30 2809 H 266.738 1.24598 -5.34571 0
M  V30 2810 H 266.999 2.15048 -3.86273 0
M  V30 2811 N 266.058 1.56714 -0.166846 0
M  V30 2812 C 267.283 2.01557 0.488833 0
M  V30 2813 C 267.708 1.0463 1.56314 0
M  V30 2814 O 267.066 0.0251304 1.81283 0
M  V30 2815 C 267.114 3.4503 1.04818 0
M  V30 2816 O 266.218 3.51163 2.16236 0
M  V30 2817 H 265.559 0.653516 0.117526 0
M  V30 2818 H 268.089 2.02818 -0.269421 0
M  V30 2819 H 268.099 3.84243 1.37191 0
M  V30 2820 H 266.774 4.15077 0.261572 0
M  V30 2821 H 265.351 3.23807 1.84942 0
M  V30 2822 N 267.536 -0.106894 1.57237 0
M  V30 2823 C 268.784 -0.810921 1.85117 0
M  V30 2824 C 269.105 -1.7984 0.753827 0
M  V30 2825 O 268.375 -1.94649 -0.221056 0
M  V30 2826 H 266.955 -0.302466 0.683025 0
M  V30 2827 H 269.617 -0.0913324 1.94686 0
M  V30 2828 H 268.713 -1.34875 2.81452 0
M  V30 2829 N 269.014 -1.53014 -0.377408 0
M  V30 2830 C 269.947 -1.73382 -1.48371 0
M  V30 2831 C 270.925 -0.581879 -1.51832 0
M  V30 2832 O 272.109 -0.81307 -1.70063 0
M  V30 2833 C 269.236 -1.80192 -2.8679 0
M  V30 2834 C 268.282 -3.02056 -3.01105 0
M  V30 2835 S 269.115 -4.61811 -2.71093 0
M  V30 2836 C 270.271 -4.71453 -4.11683 0
M  V30 2837 H 270.504 -2.66946 -1.30872 0
M  V30 2838 H 268.037 -1.43453 -0.571012 0
M  V30 2839 H 269.995 -1.84802 -3.6655 0
M  V30 2840 H 268.656 -0.877008 -3.01608 0
M  V30 2841 H 267.849 -3.03396 -4.02451 0
M  V30 2842 H 267.451 -2.95498 -2.29253 0
M  V30 2843 H 269.743 -4.50781 -5.0577 0
M  V30 2844 H 270.686 -5.73487 -4.15353 0
M  V30 2845 H 271.094 -4.00189 -3.98132 0
M  V30 2846 N 270.492 0.636531 -1.44174 0
M  V30 2847 C 271.74 1.39343 -1.46383 0
M  V30 2848 C 272.061 1.94766 -0.0955715 0
M  V30 2849 O 271.331 1.75452 0.871395 0
M  V30 2850 H 269.911 0.517199 -0.538994 0
M  V30 2851 H 272.573 0.74957 -1.7991 0
M  V30 2852 H 271.669 2.22746 -2.18611 0
M  V30 2853 N 271.97 1.30982 0.876444 0
M  V30 2854 C 273.216 1.20474 1.63138 0
M  V30 2855 C 273.549 -0.238096 1.92735 0
M  V30 2856 O 272.824 -1.1692 1.55435 0
M  V30 2857 C 273.107 2.04244 2.96574 0
M  V30 2858 C 272.96 3.56793 2.73896 0
M  V30 2859 C 274.279 1.88684 3.97601 0
M  V30 2860 H 271.398 0.439001 0.591985 0
M  V30 2861 H 274.04 1.60704 1.01361 0
M  V30 2862 H 272.19 1.70063 3.493 0
M  V30 2863 H 273.862 4.01077 2.27892 0
M  V30 2864 H 272.105 3.80548 2.08245 0
M  V30 2865 H 272.776 4.10706 3.68815 0
M  V30 2866 H 275.252 2.18584 3.54062 0
M  V30 2867 H 274.128 2.4961 4.88862 0
M  V30 2868 H 274.389 0.848343 4.33884 0
M  V30 2869 N 273.449 -1.08991 1.13837 0
M  V30 2870 C 274.698 -1.80631 0.897509 0
M  V30 2871 C 275.011 -1.86872 -0.57777 0
M  V30 2872 O 276.217 -2.54866 -0.935701 0
M  V30 2873 C 274.673 -3.24517 1.55618 0
M  V30 2874 C 274.281 -3.26529 3.0673 0
M  V30 2875 C 276.025 -4.00882 1.3962 0
M  V30 2876 C 273.932 -4.64965 3.65461 0
M  V30 2877 H 272.862 -0.67691 0.332129 0
M  V30 2878 H 275.513 -1.2246 1.3666 0
M  V30 2879 H 273.895 -3.82778 1.01476 0
M  V30 2880 H 275.069 -2.78008 3.67489 0
M  V30 2881 H 273.384 -2.63656 3.22296 0
M  V30 2882 H 275.981 -5.03167 1.80906 0
M  V30 2883 H 276.324 -4.14896 0.341578 0
M  V30 2884 H 276.857 -3.49075 1.90766 0
M  V30 2885 H 273.596 -4.56153 4.70749 0
M  V30 2886 H 273.116 -5.13792 3.09481 0
M  V30 2887 H 274.795 -5.3394 3.654 0
M  V30 2888 N 274.927 -0.932562 -1.27047 0
M  V30 2889 C 276.173 -0.576412 -1.94436 0
M  V30 2890 C 276.506 0.880891 -1.73072 0
M  V30 2891 O 275.781 1.62905 -1.06264 0
M  V30 2892 C 276.064 -0.909031 -3.48437 0
M  V30 2893 C 275.917 -2.42044 -3.79123 0
M  V30 2894 C 277.236 -0.418341 -4.38107 0
M  V30 2895 H 274.355 -0.210888 -0.706184 0
M  V30 2896 H 276.997 -1.16522 -1.50075 0
M  V30 2897 H 275.147 -0.407947 -3.86352 0
M  V30 2898 H 276.819 -2.99359 -3.50973 0
M  V30 2899 H 275.062 -2.86758 -3.25503 0
M  V30 2900 H 275.733 -2.6037 -4.86736 0
M  V30 2901 H 278.209 -0.847856 -4.0737 0
M  V30 2902 H 277.085 -0.679981 -5.44672 0
M  V30 2903 H 277.346 0.681642 -4.36814 0
M  V30 2904 N 276.405 1.4127 -0.698611 0
M  V30 2905 C 277.355 2.27997 -0.0119836 0
M  V30 2906 C 278.339 1.42363 0.749765 0
M  V30 2907 O 279.531 1.65607 0.624758 0
M  V30 2908 C 276.66 3.30702 0.921458 0
M  V30 2909 C 275.746 4.23814 0.155796 0
M  V30 2910 N 276.137 4.98572 -0.852015 0
M  V30 2911 C 274.435 4.44284 0.390836 0
M  V30 2912 C 275.136 5.66744 -1.3106 0
M  V30 2913 N 274.112 5.39867 -0.635944 0
M  V30 2914 H 277.914 2.83232 -0.784649 0
M  V30 2915 H 275.428 1.53518 -0.529711 0
M  V30 2916 H 277.425 3.91661 1.42854 0
M  V30 2917 H 276.085 2.77028 1.69369 0
M  V30 2918 H 277.096 5.03024 -1.23235 0
M  V30 2919 H 273.773 4.01614 1.14071 0
M  V30 2920 H 275.163 6.36672 -2.14707 0
M  V30 2921 N 277.883 0.443576 1.51229 0
M  V30 2922 C 279.132 -0.122332 2.01329 0
M  V30 2923 C 279.445 -1.43237 1.33201 0
M  V30 2924 O 280.651 -2.0816 1.74304 0
M  V30 2925 C 279.107 -0.268551 3.58897 0
M  V30 2926 C 278.715 1.03142 4.35965 0
M  V30 2927 C 280.459 -0.787894 4.17124 0
M  V30 2928 C 278.366 0.850504 5.85252 0
M  V30 2929 H 277.296 -0.0494929 0.752374 0
M  V30 2930 H 279.947 0.574289 1.74282 0
M  V30 2931 H 278.329 -1.02832 3.82415 0
M  V30 2932 H 279.503 1.80001 4.24189 0
M  V30 2933 H 277.818 1.47977 3.89219 0
M  V30 2934 H 280.415 -0.939841 5.26375 0
M  V30 2935 H 280.758 -1.77201 3.76703 0
M  V30 2936 H 281.291 -0.0862669 3.97706 0
M  V30 2937 H 278.03 1.80718 6.30096 0
M  V30 2938 H 277.55 0.121825 5.99676 0
M  V30 2939 H 279.229 0.506163 6.45017 0
M  V30 2940 N 279.361 -1.56624 0.175154 0
M  V30 2941 C 280.61 -1.96173 -0.468921 0
M  V30 2942 C 280.923 -1.06401 -1.64128 0
M  V30 2943 O 282.129 -1.35648 -2.35185 0
M  V30 2944 C 280.585 -3.48833 -0.885633 0
M  V30 2945 C 280.193 -4.47237 0.261343 0
M  V30 2946 C 281.937 -3.97194 -1.49791 0
M  V30 2947 C 279.844 -5.9114 -0.175214 0
M  V30 2948 H 278.774 -0.732455 -0.178958 0
M  V30 2949 H 281.425 -1.81591 0.263997 0
M  V30 2950 H 279.807 -3.58848 -1.67464 0
M  V30 2951 H 280.981 -4.4894 1.03871 0
M  V30 2952 H 279.296 -4.08956 0.783827 0
M  V30 2953 H 281.893 -5.02167 -1.83665 0
M  V30 2954 H 282.236 -3.40351 -2.39722 0
M  V30 2955 H 282.769 -3.90212 -0.773267 0
M  V30 2956 H 279.508 -6.51865 0.689414 0
M  V30 2957 H 279.028 -5.92735 -0.91786 0
M  V30 2958 H 280.707 -6.44044 -0.617792 0
M  V30 2959 N 280.839 0.0985539 -1.57292 0
M  V30 2960 C 281.749 1.13824 -2.05137 0
M  V30 2961 C 282.765 1.44076 -0.975604 0
M  V30 2962 O 283.941 1.54786 -1.28853 0
M  V30 2963 C 281.006 2.43969 -2.46333 0
M  V30 2964 C 280.067 2.2093 -3.68087 0
M  V30 2965 C 279.3 3.44869 -4.0731 0
M  V30 2966 O 279.523 4.52972 -3.46659 0
M  V30 2967 O 278.457 3.34661 -5.00285 0
M  V30 2968 H 282.283 0.761881 -2.93988 0
M  V30 2969 H 279.868 0.310818 -1.46131 0
M  V30 2970 H 281.75 3.20609 -2.73473 0
M  V30 2971 H 280.425 2.81038 -1.60621 0
M  V30 2972 H 279.332 1.42081 -3.46069 0
M  V30 2973 H 280.665 1.88755 -4.54568 0
M  V30 2974 N 282.317 1.53212 0.369288 0
M  V30 2975 C 283.264 1.79388 1.45219 0
M  V30 2976 C 284.234 0.638059 1.53356 0
M  V30 2977 O 285.419 0.879852 1.69302 0
M  V30 2978 C 282.559 1.98623 2.82211 0
M  V30 2979 C 281.672 3.26337 2.8307 0
M  V30 2980 C 280.807 3.35779 4.11614 0
M  V30 2981 C 279.846 4.5754 4.06601 0
M  V30 2982 N 278.983 4.64155 5.26787 0
M  V30 2983 H 283.823 2.71794 1.22198 0
M  V30 2984 H 281.36 1.34642 0.592444 0
M  V30 2985 H 283.318 2.07761 3.61789 0
M  V30 2986 H 281.948 1.09558 3.03639 0
M  V30 2987 H 281 3.26171 1.95747 0
M  V30 2988 H 282.312 4.15988 2.75237 0
M  V30 2989 H 281.466 3.44208 4.99606 0
M  V30 2990 H 280.205 2.44137 4.22195 0
M  V30 2991 H 279.21 4.49215 3.16996 0
M  V30 2992 H 280.435 5.50519 3.97625 0
M  V30 2993 H 278.381 3.75413 5.3796 0
M  V30 2994 H 278.298 5.47706 5.21109 0
M  V30 2995 H 279.566 4.76863 6.16621 0
M  V30 2996 N 283.795 -0.628877 1.44509 0
M  V30 2997 C 285.072 -1.38733 1.37886 0
M  V30 2998 C 285.452 -2.11065 0.0387008 0
M  V30 2999 O 284.8 -2.06476 -0.97878 0
M  V30 3000 C 285.01 -2.35188 2.57852 0
M  V30 3001 C 286.358 -2.9845 3.02014 0
M  V30 3002 O 287.382 -2.45513 2.58073 0
M  V30 3003 O 286.241 -3.94487 3.78209 0
M  V30 3004 H 283.335 -0.621015 0.54614 0
M  V30 3005 H 285.881 -0.653744 1.56602 0
M  V30 3006 H 284.653 -1.80855 3.46998 0
M  V30 3007 H 284.276 -3.1596 2.4136 0
M  V30 3008 N 285.273 -1.31445 -0.869486 0
M  V30 3009 C 286.22 -1.19135 -1.97675 0
M  V30 3010 C 287.19 -0.0770266 -1.65921 0
M  V30 3011 O 288.375 -0.249972 -1.89155 0
M  V30 3012 C 285.515 -0.905149 -3.33018 0
M  V30 3013 C 284.628 -2.10285 -3.77365 0
M  V30 3014 C 283.763 -1.75339 -5.01427 0
M  V30 3015 C 282.802 -2.91515 -5.38224 0
M  V30 3016 N 281.939 -2.56762 -6.53466 0
M  V30 3017 H 286.779 -2.13853 -2.07535 0
M  V30 3018 H 284.316 -1.06379 -1.01597 0
M  V30 3019 H 286.274 -0.719765 -4.10944 0
M  V30 3020 H 284.904 0.00519624 -3.228 0
M  V30 3021 H 283.956 -2.39899 -2.95216 0
M  V30 3022 H 285.268 -2.97237 -4.00564 0
M  V30 3023 H 284.422 -1.53266 -5.87022 0
M  V30 3024 H 283.161 -0.855801 -4.80133 0
M  V30 3025 H 282.166 -3.14237 -4.51149 0
M  V30 3026 H 283.391 -3.81985 -5.61484 0
M  V30 3027 H 281.337 -1.69526 -6.33717 0
M  V30 3028 H 281.254 -3.37243 -6.76612 0
M  V30 3029 H 282.522 -2.38083 -7.42251 0
M  V30 3030 N 286.751 1.08385 -1.14413 0
M  V30 3031 C 288 1.80153 -0.907076 0
M  V30 3032 C 288.313 1.87176 0.567851 0
M  V30 3033 O 289.519 2.55359 0.922172 0
M  V30 3034 C 287.975 3.23687 -1.57336 0
M  V30 3035 C 287.583 3.24897 -3.08457 0
M  V30 3036 C 289.327 4.00136 -1.41744 0
M  V30 3037 C 287.234 4.6302 -3.67921 0
M  V30 3038 H 286.164 0.675139 -0.335714 0
M  V30 3039 H 288.815 1.21733 -1.37307 0
M  V30 3040 H 287.197 3.82234 -1.03505 0
M  V30 3041 H 288.371 2.76055 -3.68958 0
M  V30 3042 H 286.686 2.61943 -3.2369 0
M  V30 3043 H 289.283 5.02201 -1.83572 0
M  V30 3044 H 289.626 4.14709 -0.363576 0
M  V30 3045 H 290.159 3.48058 -1.92614 0
M  V30 3046 H 286.898 4.5365 -4.73161 0
M  V30 3047 H 286.418 5.12143 -3.12201 0
M  V30 3048 H 288.097 5.31994 -3.68227 0
M  V30 3049 N 288.23 0.939286 1.26551 0
M  V30 3050 C 289.458 0.602536 1.97932 0
M  V30 3051 C 289.873 -0.82206 1.69964 0
M  V30 3052 O 289.23 -1.54789 0.966784 0
M  V30 3053 C 289.281 0.832946 3.51773 0
M  V30 3054 O 289.002 2.20151 3.78768 0
M  V30 3055 C 290.503 0.506483 4.40397 0
M  V30 3056 H 287.723 0.227248 0.631347 0
M  V30 3057 H 290.267 1.25948 1.61113 0
M  V30 3058 H 288.422 0.222644 3.8676 0
M  V30 3059 H 288.836 2.26013 4.73306 0
M  V30 3060 H 290.31 0.718333 5.47306 0
M  V30 3061 H 290.787 -0.558451 4.35635 0
M  V30 3062 H 291.393 1.09543 4.10951 0
M  V30 3063 N 289.708 -1.40897 0.706093 0
M  V30 3064 C 290.936 -2.05373 0.250887 0
M  V30 3065 C 291.351 -1.53172 -1.10381 0
M  V30 3066 O 290.708 -0.684305 -1.69185 0
M  V30 3067 C 290.759 -3.6088 0.211571 0
M  V30 3068 O 290.48 -4.11153 1.51276 0
M  V30 3069 C 291.981 -4.42517 -0.263346 0
M  V30 3070 H 289.201 -0.66115 0.114552 0
M  V30 3071 H 291.745 -1.80479 0.961635 0
M  V30 3072 H 289.9 -3.84777 -0.450073 0
M  V30 3073 H 290.314 -5.05279 1.40689 0
M  V30 3074 H 291.788 -5.51479 -0.239718 0
M  V30 3075 H 292.265 -4.19396 -1.30397 0
M  V30 3076 H 292.871 -4.23708 0.367677 0
M  V30 3077 N 291.186 -0.45159 -1.50991 0
M  V30 3078 C 292.602 -0.104647 -1.59257 0
M  V30 3079 C 292.802 1.38728 -1.4614 0
M  V30 3080 O 291.858 2.15866 -1.30989 0
M  V30 3081 C 293.171 -0.637468 -2.93865 0
M  V30 3082 C 294.719 -0.599166 -3.07212 0
M  V30 3083 C 295.194 -1.1092 -4.44366 0
M  V30 3084 N 296.685 -1.06778 -4.50725 0
M  V30 3085 C 297.42 -1.43314 -5.55201 0
M  V30 3086 N 296.916 -1.87204 -6.67028 0
M  V30 3087 N 298.709 -1.3504 -5.45638 0
M  V30 3088 H 290.86 -1.42214 -1.57762 0
M  V30 3089 H 293.123 -0.586921 -0.744465 0
M  V30 3090 H 292.829 -1.68187 -3.08879 0
M  V30 3091 H 292.703 -0.0702139 -3.77135 0
M  V30 3092 H 295.09 0.436277 -2.91857 0
M  V30 3093 H 295.171 -1.20299 -2.25747 0
M  V30 3094 H 294.815 -2.14318 -4.60467 0
M  V30 3095 H 294.745 -0.481773 -5.24392 0
M  V30 3096 H 297.236 -0.745643 -3.70471 0
M  V30 3097 H 297.549 -2.13282 -7.42786 0
M  V30 3098 H 295.894 -1.91142 -6.68199 0
M  V30 3099 H 299.085 -1.00607 -4.57161 0
M  V30 3100 H 299.258 -1.63841 -6.26945 0
M  V30 3101 N 292.664 1.56529 -0.183458 0
M  V30 3102 C 293.892 2.01623 0.464285 0
M  V30 3103 C 294.307 1.06366 1.55986 0
M  V30 3104 O 293.664 0.0665398 1.82379 0
M  V30 3105 C 293.715 3.46475 1.03139 0
M  V30 3106 O 293.436 4.38095 -0.0204675 0
M  V30 3107 C 294.937 4.0703 1.75617 0
M  V30 3108 H 292.157 0.660596 0.117704 0
M  V30 3109 H 294.701 2.02451 -0.288751 0
M  V30 3110 H 292.856 3.46383 1.73486 0
M  V30 3111 H 293.27 5.22973 0.399952 0
M  V30 3112 H 294.744 5.10271 2.10542 0
M  V30 3113 H 295.221 3.49819 2.65563 0
M  V30 3114 H 295.827 4.1086 1.09882 0
M  V30 3115 N 294.142 -0.090211 1.57342 0
M  V30 3116 C 295.072 -1.10976 2.05443 0
M  V30 3117 C 296.053 -1.41482 0.944284 0
M  V30 3118 O 297.238 -1.51428 1.21586 0
M  V30 3119 C 294.368 -2.42831 2.48295 0
M  V30 3120 C 293.322 -2.26721 3.63018 0
M  V30 3121 C 292.648 -3.63796 3.91863 0
M  V30 3122 C 293.948 -1.7037 4.93732 0
M  V30 3123 H 295.642 -0.709564 2.9087 0
M  V30 3124 H 293.188 -0.339874 1.39932 0
M  V30 3125 H 295.141 -3.14431 2.80555 0
M  V30 3126 H 293.865 -2.84795 1.59873 0
M  V30 3127 H 292.524 -1.57565 3.31012 0
M  V30 3128 H 292.172 -4.03297 3.00601 0
M  V30 3129 H 291.872 -3.53861 4.69101 0
M  V30 3130 H 293.396 -4.36855 4.26603 0
M  V30 3131 H 294.81 -2.31816 5.24342 0
M  V30 3132 H 293.207 -1.71181 5.75167 0
M  V30 3133 H 294.277 -0.663542 4.80339 0
M  V30 3134 N 295.62 -1.53406 -0.361157 0
M  V30 3135 C 296.567 -1.80156 -1.44265 0
M  V30 3136 C 297.537 -0.646183 -1.53015 0
M  V30 3137 O 298.722 -0.888818 -1.68833 0
M  V30 3138 C 295.862 -2.00116 -2.81154 0
M  V30 3139 C 294.975 -3.27833 -2.81335 0
M  V30 3140 C 294.11 -3.37957 -4.09828 0
M  V30 3141 C 293.149 -4.59689 -4.04168 0
M  V30 3142 N 292.286 -4.66942 -5.24318 0
M  V30 3143 H 297.126 -2.72438 -1.20754 0
M  V30 3144 H 294.663 -1.34954 -0.585296 0
M  V30 3145 H 296.621 -2.09677 -3.60682 0
M  V30 3146 H 295.251 -1.11167 -3.03054 0
M  V30 3147 H 294.303 -3.27204 -1.94014 0
M  V30 3148 H 295.615 -4.17442 -2.73027 0
M  V30 3149 H 294.769 -3.46853 -4.97773 0
M  V30 3150 H 293.508 -2.46372 -4.20894 0
M  V30 3151 H 292.513 -4.50889 -3.14609 0
M  V30 3152 H 293.738 -5.5262 -3.947 0
M  V30 3153 H 291.684 -3.7826 -5.35962 0
M  V30 3154 H 291.601 -5.50462 -5.18197 0
M  V30 3155 H 292.869 -4.80127 -6.14084 0
M  V30 3156 N 297.098 0.621204 -1.44841 0
M  V30 3157 C 298.061 1.71459 -1.521 0
M  V30 3158 C 299.061 1.55696 -0.401933 0
M  V30 3159 O 300.251 1.61011 -0.664925 0
M  V30 3160 C 297.383 3.10624 -1.40447 0
M  V30 3161 H 298.576 1.66394 -2.49506 0
M  V30 3162 H 296.129 0.835745 -1.3208 0
M  V30 3163 H 296.864 3.21277 -0.441737 0
M  V30 3164 H 296.649 3.23473 -2.21602 0
M  V30 3165 H 298.139 3.90293 -1.4853 0
M  V30 3166 N 298.576 1.31904 0.862503 0
M  V30 3167 C 299.992 1.10724 1.14945 0
M  V30 3168 C 300.192 -0.117421 2.01158 0
M  V30 3169 O 299.248 -0.804595 2.39338 0
M  V30 3170 C 300.561 2.38267 1.83437 0
M  V30 3171 C 302.109 2.43949 1.96106 0
M  V30 3172 C 302.584 3.71394 2.68013 0
M  V30 3173 N 304.075 3.72331 2.75543 0
M  V30 3174 C 304.81 4.67641 3.31812 0
M  V30 3175 N 304.306 5.73313 3.88953 0
M  V30 3176 N 306.099 4.5515 3.29841 0
M  V30 3177 H 298.25 2.10436 0.288191 0
M  V30 3178 H 300.513 0.928705 0.190292 0
M  V30 3179 H 300.219 3.27759 1.27542 0
M  V30 3180 H 300.093 2.48633 2.83657 0
M  V30 3181 H 302.48 1.54922 2.51164 0
M  V30 3182 H 302.561 2.37543 0.949059 0
M  V30 3183 H 302.205 4.60791 2.13621 0
M  V30 3184 H 302.135 3.75069 3.69636 0
M  V30 3185 H 304.626 2.95947 2.34997 0
M  V30 3186 H 304.939 6.42107 4.30022 0
M  V30 3187 H 303.284 5.77077 3.87308 0
M  V30 3188 H 306.475 3.71766 2.84443 0
M  V30 3189 H 306.648 5.29604 3.73394 0
M  V30 3190 N 300.054 -1.07777 1.14986 0
M  V30 3191 C 300.987 -2.14228 0.786243 0
M  V30 3192 C 301.965 -1.60888 -0.235347 0
M  V30 3193 O 303.149 -1.88099 -0.122909 0
M  V30 3194 C 300.276 -3.38281 0.168433 0
M  V30 3195 C 299.322 -4.10387 1.16123 0
M  V30 3196 S 300.155 -4.62371 2.70135 0
M  V30 3197 C 301.311 -5.89704 2.09762 0
M  V30 3198 H 301.544 -2.44741 1.68787 0
M  V30 3199 H 299.077 -1.19984 0.971756 0
M  V30 3200 H 301.035 -4.10098 -0.181588 0
M  V30 3201 H 299.696 -3.05953 -0.710725 0
M  V30 3202 H 298.889 -4.99431 0.677086 0
M  V30 3203 H 298.491 -3.44513 1.45556 0
M  V30 3204 H 300.783 -6.61648 1.45701 0
M  V30 3205 H 301.726 -6.42824 2.96955 0
M  V30 3206 H 302.134 -5.4302 1.54239 0
M  V30 3207 N 301.532 -0.945985 -1.26051 0
M  V30 3208 C 302.809 -0.513816 -1.88731 0
M  V30 3209 C 303.189 1.00872 -1.8544 0
M  V30 3210 O 302.537 1.8708 -1.312 0
M  V30 3211 C 302.747 -1.08062 -3.31849 0
M  V30 3212 C 304.095 -1.1522 -4.08668 0
M  V30 3213 O 305.119 -1.03155 -3.40936 0
M  V30 3214 O 303.978 -1.34044 -5.29806 0
M  V30 3215 H 301.072 -0.168193 -0.809716 0
M  V30 3216 H 303.618 -1.03886 -1.34186 0
M  V30 3217 H 302.39 -2.1241 -3.2863 0
M  V30 3218 H 302.013 -0.538307 -3.93939 0
M  V30 3219 O 303.049 1.37208 -0.85184 0
M  V30 3220 H 303.74 1.88528 -0.444614 0
M  V30 END ATOM
M  V30 BEGIN BOND
M  V30 END BOND
M  V30 END CTAB
M  END
$$$$
