drugbank_target|P49765 Vascular endothelial growth factor B (DB08885)
 OpenBabel12092120583D

  0  0  0     0  0            999 V3000
M  V30 BEGIN CTAB
M  V30 COUNTS 3027 3066 0 0 0
M  V30 BEGIN ATOM
M  V30 1 H -0.908 1.98254 -0.117106 0
M  V30 2 N 0 1.576 0 0
M  V30 3 C 0.933 2.03868 1.02534 0
M  V30 4 C 1.911 0.928543 1.3348 0
M  V30 5 O 3.095 1.19667 1.45644 0
M  V30 6 C 0.222 2.43627 2.35294 0
M  V30 7 C -0.732 3.65373 2.2001 0
M  V30 8 S 0.101 5.13292 1.52614 0
M  V30 9 C 1.257 5.56322 2.86805 0
M  V30 10 H 1.49 2.90518 0.631377 0
M  V30 11 H -0.977 1.52953 0.210867 0
M  V30 12 H 0.981 2.67203 3.11629 0
M  V30 13 H -0.358 1.57376 2.7183 0
M  V30 14 H -1.165 3.90944 3.18086 0
M  V30 15 H -1.563 3.418 1.51819 0
M  V30 16 H 0.729 5.58782 3.83104 0
M  V30 17 H 1.672 6.56266 2.65933 0
M  V30 18 H 2.08 4.83886 2.90714 0
M  V30 19 N 1.4781 -0.272755 1.55222 0
M  V30 20 C 2.7031 -1.02683 1.80197 0
M  V30 21 C 3.1281 -1.79142 0.573551 0
M  V30 22 O 2.4861 -1.74917 -0.476849 0
M  V30 23 C 2.5341 -1.9609 3.02624 0
M  V30 24 O 1.6381 -3.04863 2.77727 0
M  V30 25 H 0.9791 -0.293557 0.595584 0
M  V30 26 H 3.5091 -0.30159 2.02365 0
M  V30 27 H 3.5191 -2.38039 3.31363 0
M  V30 28 H 2.1941 -1.39851 3.91682 0
M  V30 29 H 0.7711 -2.67228 2.60084 0
M  V30 30 N 2.9562 -1.48159 -0.537278 0
M  V30 31 C 4.3672 -1.49429 -1.11928 0
M  V30 32 C 4.7182 -0.26 -1.9447 0
M  V30 33 O 3.8432 0.633489 -2.0692 0
M  V30 34 C 4.4382 -2.70758 -2.03656 0
M  V30 35 C 2.9972 -2.74923 -2.57088 0
M  V30 36 C 2.1442 -2.42835 -1.3389 0
M  V30 37 H 5.0952 -1.55381 -0.322886 0
M  V30 38 H 5.1162 -2.48861 -2.87834 0
M  V30 39 H 4.6282 -3.60575 -1.43553 0
M  V30 40 H 2.7292 -1.89296 -3.20933 0
M  V30 41 H 2.8422 -3.76157 -2.9672 0
M  V30 42 H 1.2062 -1.93836 -1.65226 0
M  V30 43 H 1.9892 -3.34884 -0.755504 0
M  V30 44 N 4.4343 0.785586 -1.36625 0
M  V30 45 C 5.3643 1.91259 -1.33949 0
M  V30 46 C 6.3453 1.68795 -0.210325 0
M  V30 47 O 7.5303 1.89854 -0.408561 0
M  V30 48 C 4.6603 3.28339 -1.13186 0
M  V30 49 C 3.6143 3.65335 -2.22967 0
M  V30 50 C 2.9403 5.00806 -1.87342 0
M  V30 51 C 4.2403 3.7352 -3.65075 0
M  V30 52 H 5.9343 1.93755 -2.28253 0
M  V30 53 H 3.4803 0.930788 -1.09874 0
M  V30 54 H 5.4333 4.06804 -1.09948 0
M  V30 55 H 4.1573 3.2624 -0.153332 0
M  V30 56 H 2.8163 2.89169 -2.25337 0
M  V30 57 H 2.4643 4.95233 -0.880545 0
M  V30 58 H 2.1643 5.26529 -2.60846 0
M  V30 59 H 3.6883 5.81687 -1.85667 0
M  V30 60 H 5.1023 4.42168 -3.64911 0
M  V30 61 H 3.4993 4.10731 -4.37516 0
M  V30 62 H 4.5693 2.74527 -3.99703 0
M  V30 63 N 5.9124 1.20967 1.01018 0
M  V30 64 C 6.8424 0.988272 2.11555 0
M  V30 65 C 7.8234 -0.0849778 1.69888 0
M  V30 66 O 9.0084 0.0738202 1.9406 0
M  V30 67 C 6.1384 0.546528 3.42973 0
M  V30 68 C 5.0924 1.56375 3.9841 0
M  V30 69 C 4.4184 0.97842 5.25672 0
M  V30 70 C 5.7184 2.94922 4.31066 0
M  V30 71 H 7.4124 1.91276 2.30334 0
M  V30 72 H 4.9584 0.921073 1.1069 0
M  V30 73 H 6.9114 0.378839 4.19694 0
M  V30 74 H 5.6354 -0.413598 3.23971 0
M  V30 75 H 4.2944 1.71891 3.23804 0
M  V30 76 H 3.9424 0.0101688 5.02999 0
M  V30 77 H 3.6424 1.65784 5.63728 0
M  V30 78 H 5.1664 0.821939 6.05043 0
M  V30 79 H 6.5804 2.8288 4.9865 0
M  V30 80 H 4.9774 3.5983 4.80253 0
M  V30 81 H 6.0474 3.4616 3.39561 0
M  V30 82 N 7.3905 -1.2043 1.01659 0
M  V30 83 C 8.8065 -1.41852 0.731442 0
M  V30 84 C 9.0065 -1.89358 -0.688898 0
M  V30 85 O 8.0625 -2.06247 -1.45666 0
M  V30 86 C 9.3755 -2.44019 1.75714 0
M  V30 87 C 10.9235 -2.57785 1.77527 0
M  V30 88 C 11.3985 -3.63194 2.79023 0
M  V30 89 N 12.8895 -3.70678 2.77763 0
M  V30 90 C 13.6245 -4.51897 3.52954 0
M  V30 91 N 13.1205 -5.36921 4.37821 0
M  V30 92 N 14.9135 -4.4643 3.41551 0
M  V30 93 H 7.0645 -0.879093 1.93354 0
M  V30 94 H 9.3275 -0.448425 0.835236 0
M  V30 95 H 9.0335 -2.1611 2.77469 0
M  V30 96 H 8.9075 -3.43007 1.56927 0
M  V30 97 H 11.2945 -2.85023 0.764569 0
M  V30 98 H 11.3755 -1.58992 2.00387 0
M  V30 99 H 11.0195 -3.36699 3.80258 0
M  V30 100 H 10.9495 -4.61609 2.53425 0
M  V30 101 H 13.4405 -3.09944 2.16201 0
M  V30 102 H 13.7535 -5.95981 4.91962 0
M  V30 103 H 12.0985 -5.36424 4.41899 0
M  V30 104 H 15.2895 -3.79042 2.74672 0
M  V30 105 H 15.4625 -5.09491 4.00404 0
M  V30 106 N 8.8686 -0.792821 -1.36206 0
M  V30 107 C 10.2846 -0.474903 -1.52371 0
M  V30 108 C 10.4846 1.00622 -1.74578 0
M  V30 109 O 9.5406 1.79162 -1.77924 0
M  V30 110 C 10.8536 -1.3083 -2.70747 0
M  V30 111 C 12.4016 -1.30234 -2.84619 0
M  V30 112 C 12.8766 -2.11956 -4.06004 0
M  V30 113 N 14.3676 -2.09419 -4.13156 0
M  V30 114 C 15.1026 -2.69419 -5.06163 0
M  V30 115 N 14.5986 -3.3829 -6.04592 0
M  V30 116 N 16.3916 -2.59134 -4.98804 0
M  V30 117 H 8.5426 -1.75222 -1.20046 0
M  V30 118 H 10.8056 -0.745024 -0.586211 0
M  V30 119 H 10.5116 -2.35881 -2.6087 0
M  V30 120 H 10.3856 -0.95196 -3.6499 0
M  V30 121 H 12.7726 -0.259748 -2.93955 0
M  V30 122 H 12.8536 -1.69847 -1.91274 0
M  V30 123 H 12.4976 -3.16248 -3.97429 0
M  V30 124 H 12.4276 -1.69711 -4.98503 0
M  V30 125 H 14.9186 -1.59297 -3.42685 0
M  V30 126 H 15.2316 -3.81394 -6.7213 0
M  V30 127 H 13.5766 -3.42393 -6.04807 0
M  V30 128 H 16.7676 -2.04927 -4.20859 0
M  V30 129 H 16.9406 -3.06185 -5.711 0
M  V30 130 N 10.3467 1.47872 -0.545128 0
M  V30 131 C 11.2767 2.32661 0.197793 0
M  V30 132 C 12.2577 1.43041 0.920504 0
M  V30 133 O 13.4427 1.71912 0.90333 0
M  V30 134 C 10.5727 3.24569 1.23582 0
M  V30 135 C 9.5267 4.23333 0.630323 0
M  V30 136 C 8.8527 5.0448 1.77211 0
M  V30 137 C 10.1527 5.20704 -0.407974 0
M  V30 138 H 11.8467 2.95024 -0.510045 0
M  V30 139 H 9.3927 1.4187 -0.246731 0
M  V30 140 H 11.3457 3.8272 1.76362 0
M  V30 141 H 10.0697 2.60236 1.97344 0
M  V30 142 H 8.7287 3.6639 0.123922 0
M  V30 143 H 8.3767 4.36561 2.49847 0
M  V30 144 H 8.0767 5.71339 1.37281 0
M  V30 145 H 9.6007 5.65487 2.3034 0
M  V30 146 H 11.0147 5.7329 0.033305 0
M  V30 147 H 9.4117 5.95699 -0.725486 0
M  V30 148 H 10.4817 4.66917 -1.30828 0
M  V30 149 N 11.8248 0.280983 1.55075 0
M  V30 150 C 12.7548 -0.597469 2.25727 0
M  V30 151 C 13.7358 -1.15417 1.24952 0
M  V30 152 O 14.9208 -1.18722 1.53684 0
M  V30 153 C 12.0508 -1.7789 2.98283 0
M  V30 154 C 11.0048 -1.35347 4.06036 0
M  V30 155 C 10.3308 -2.61846 4.66198 0
M  V30 156 C 11.6308 -0.499354 5.19907 0
M  V30 157 H 13.3248 -0.00824265 2.99399 0
M  V30 158 H 10.8708 -0.0025244 1.44 0
M  V30 159 H 12.8238 -2.39937 3.46422 0
M  V30 160 H 11.5478 -2.39405 2.22155 0
M  V30 161 H 10.2068 -0.756156 3.58717 0
M  V30 162 H 9.8548 -3.21632 3.86732 0
M  V30 163 H 9.5548 -2.3409 5.38958 0
M  V30 164 H 11.0788 -3.24732 5.1709 0
M  V30 165 H 12.4928 -1.02498 5.64063 0
M  V30 166 H 10.8898 -0.316424 5.99265 0
M  V30 167 H 11.9598 0.480459 4.82514 0
M  V30 168 N 13.3029 -1.57598 0.00835791 0
M  V30 169 C 14.2329 -2.1198 -0.979113 0
M  V30 170 C 15.2139 -1.03091 -1.35301 0
M  V30 171 O 16.3989 -1.30818 -1.43528 0
M  V30 172 C 13.5289 -2.62995 -2.26828 0
M  V30 173 C 12.4829 -3.76485 -2.03576 0
M  V30 174 C 11.8089 -4.13846 -3.38579 0
M  V30 175 C 13.1089 -5.0342 -1.39161 0
M  V30 176 H 14.8029 -2.94738 -0.526281 0
M  V30 177 H 12.3489 -1.41783 -0.251704 0
M  V30 178 H 14.3019 -2.99669 -2.96271 0
M  V30 179 H 13.0259 -1.7737 -2.7424 0
M  V30 180 H 11.6849 -3.40217 -1.36557 0
M  V30 181 H 11.3329 -3.25232 -3.83709 0
M  V30 182 H 11.0329 -4.90312 -3.23834 0
M  V30 183 H 12.5569 -4.53086 -4.09323 0
M  V30 184 H 13.9709 -5.37812 -1.98573 0
M  V30 185 H 12.3679 -5.84746 -1.34878 0
M  V30 186 H 13.4379 -4.83548 -0.361868 0
M  V30 187 N 14.781 0.264519 -1.55364 0
M  V30 188 C 15.744 1.31046 -1.88042 0
M  V30 189 C 16.744 1.41943 -0.755569 0
M  V30 190 O 17.934 1.40947 -1.02369 0
M  V30 191 C 15.066 2.69067 -2.09323 0
M  V30 192 H 16.259 1.03297 -2.81549 0
M  V30 193 H 13.812 0.502989 -1.47986 0
M  V30 194 H 14.547 3.01982 -1.18226 0
M  V30 195 H 14.332 2.62542 -2.91229 0
M  V30 196 H 15.822 3.44623 -2.35848 0
M  V30 197 N 16.2591 1.48442 0.529413 0
M  V30 198 C 17.2221 1.62524 1.61612 0
M  V30 199 C 18.2221 0.498509 1.52877 0
M  V30 200 O 19.4121 0.76431 1.56537 0
M  V30 201 C 16.5441 1.59597 3.01233 0
M  V30 202 H 17.7371 2.59423 1.50465 0
M  V30 203 H 15.2901 1.37047 0.751514 0
M  V30 204 H 16.0251 0.641781 3.17886 0
M  V30 205 H 15.8101 2.41397 3.08982 0
M  V30 206 H 17.3001 1.72646 3.80241 0
M  V30 207 N 17.7372 -0.778329 1.37039 0
M  V30 208 C 18.6672 -1.90546 1.34962 0
M  V30 209 C 19.6482 -1.68681 0.219274 0
M  V30 210 O 20.8332 -1.89634 0.418624 0
M  V30 211 C 17.9632 -3.27734 1.14925 0
M  V30 212 C 16.9172 -3.64147 2.24902 0
M  V30 213 C 16.2432 -4.99806 1.89996 0
M  V30 214 C 17.5432 -3.71579 3.67051 0
M  V30 215 H 19.2372 -1.92541 2.29277 0
M  V30 216 H 16.7832 -0.924948 1.10366 0
M  V30 217 H 18.7362 -4.06215 1.12104 0
M  V30 218 H 17.4602 -3.26154 0.170631 0
M  V30 219 H 16.1192 -2.8797 2.26868 0
M  V30 220 H 15.7672 -4.94759 0.906796 0
M  V30 221 H 15.4672 -5.25139 2.63634 0
M  V30 222 H 16.9912 -5.80694 1.88749 0
M  V30 223 H 18.4052 -4.40227 3.67251 0
M  V30 224 H 16.8022 -4.08405 4.39688 0
M  V30 225 H 17.8722 -2.72404 4.01154 0
M  V30 226 N 19.2153 -1.21501 -1.00376 0
M  V30 227 C 20.1453 -0.999478 -2.11028 0
M  V30 228 C 21.1263 0.0759671 -1.6993 0
M  V30 229 O 22.3113 -0.0841106 -1.94018 0
M  V30 230 C 19.4413 -0.564709 -3.42678 0
M  V30 231 C 18.3953 -1.58486 -3.97576 0
M  V30 232 C 17.7213 -1.00628 -5.25146 0
M  V30 233 C 19.0213 -2.97204 -4.29496 0
M  V30 234 H 20.7153 -1.92495 -2.29317 0
M  V30 235 H 18.2613 -0.92693 -1.102 0
M  V30 236 H 20.2143 -0.401091 -4.19487 0
M  V30 237 H 18.9383 0.396411 -3.24185 0
M  V30 238 H 17.5973 -1.73606 -3.22888 0
M  V30 239 H 17.2453 -0.0368439 -5.02987 0
M  V30 240 H 16.9453 -1.68771 -5.62841 0
M  V30 241 H 18.4693 -0.854015 -6.04598 0
M  V30 242 H 19.8833 -2.8552 -4.97143 0
M  V30 243 H 18.2803 -3.62372 -4.78338 0
M  V30 244 H 19.3503 -3.47956 -3.3772 0
M  V30 245 N 20.6934 1.19889 -1.02296 0
M  V30 246 C 21.6254 2.22334 -0.556787 0
M  V30 247 C 22.6384 1.58674 0.364199 0
M  V30 248 O 23.8274 1.77768 0.161533 0
M  V30 249 C 20.9274 3.38257 0.208694 0
M  V30 250 C 20.1004 4.31504 -0.71577 0
M  V30 251 C 19.1594 5.262 0.00325597 0
M  V30 252 O 18.1854 5.65798 -0.621357 0
M  V30 253 N 19.3874 5.66303 1.27599 0
M  V30 254 H 22.1524 2.62957 -1.43784 0
M  V30 255 H 19.7134 1.34495 -0.901261 0
M  V30 256 H 21.7054 3.98616 0.699111 0
M  V30 257 H 20.2754 2.96472 0.991102 0
M  V30 258 H 19.4954 3.69016 -1.38638 0
M  V30 259 H 20.7834 4.9072 -1.34428 0
M  V30 260 H 20.1814 5.36155 1.80429 0
M  V30 261 H 18.7384 6.28942 1.71102 0
M  V30 262 N 22.1715 0.800033 1.35784 0
M  V30 263 C 23.1015 0.220184 2.3246 0
M  V30 264 C 24.0825 -0.65073 1.57161 0
M  V30 265 O 25.2675 -0.582359 1.85263 0
M  V30 266 C 22.3975 -0.637353 3.41402 0
M  V30 267 C 21.3515 0.134531 4.27789 0
M  V30 268 C 20.6775 -0.844285 5.27992 0
M  V30 269 C 21.9775 1.32979 5.05088 0
M  V30 270 H 23.6715 1.02787 2.81203 0
M  V30 271 H 21.2175 0.495717 1.35199 0
M  V30 272 H 23.1705 -1.05302 4.08031 0
M  V30 273 H 21.8945 -1.47785 2.91251 0
M  V30 274 H 20.5535 0.531296 3.6273 0
M  V30 275 H 20.2015 -1.68011 4.74111 0
M  V30 276 H 19.9015 -0.332184 5.8666 0
M  V30 277 H 21.4255 -1.2583 5.97494 0
M  V30 278 H 22.8395 0.98934 5.64699 0
M  V30 279 H 21.2365 1.77593 5.7322 0
M  V30 280 H 22.3065 2.11978 4.36111 0
M  V30 281 N 23.6496 -1.47581 0.552962 0
M  V30 282 C 24.6126 -2.28439 -0.186605 0
M  V30 283 C 25.6126 -1.36706 -0.84665 0
M  V30 284 O 26.8026 -1.59378 -0.703164 0
M  V30 285 C 23.9346 -3.16264 -1.2724 0
M  V30 286 H 25.1276 -2.95294 0.523609 0
M  V30 287 H 22.6806 -1.532 0.309745 0
M  V30 288 H 23.4156 -2.54091 -2.01514 0
M  V30 289 H 23.2006 -3.83769 -0.803968 0
M  V30 290 H 24.6906 -3.77198 -1.79196 0
M  V30 291 N 25.1277 -0.289203 -1.54924 0
M  V30 292 C 26.5387 0.205791 -1.85562 0
M  V30 293 C 26.8897 1.54351 -1.2112 0
M  V30 294 O 26.0147 2.10435 -0.504601 0
M  V30 295 C 26.6097 0.380177 -3.3666 0
M  V30 296 C 25.1687 0.819395 -3.67373 0
M  V30 297 C 24.3157 -0.079159 -2.77187 0
M  V30 298 H 27.2667 -0.510577 -1.50262 0
M  V30 299 H 27.2877 1.21659 -3.60526 0
M  V30 300 H 26.7997 -0.593589 -3.83534 0
M  V30 301 H 24.9007 1.80413 -3.26009 0
M  V30 302 H 25.0137 0.646957 -4.74712 0
M  V30 303 H 23.3777 0.439565 -2.50878 0
M  V30 304 H 24.1607 -1.04906 -3.26878 0
M  V30 305 N 26.6058 1.57591 -0.0167156 0
M  V30 306 C 27.5688 2.08393 0.954204 0
M  V30 307 C 28.5688 0.996531 1.26198 0
M  V30 308 O 29.7588 1.25858 1.20438 0
M  V30 309 C 26.8908 2.5394 2.27436 0
M  V30 310 H 28.0838 2.95455 0.514451 0
M  V30 311 H 25.6368 1.54582 0.231089 0
M  V30 312 H 26.3718 1.70171 2.76066 0
M  V30 313 H 26.1568 3.33371 2.06412 0
M  V30 314 H 27.6468 2.93512 2.97053 0
M  V30 315 N 28.0839 -0.256276 1.55502 0
M  V30 316 C 29.0159 -1.33981 1.85962 0
M  V30 317 C 30.0289 -1.44743 0.745212 0
M  V30 318 O 31.2179 -1.4626 1.02324 0
M  V30 319 C 28.3179 -2.7194 2.02242 0
M  V30 320 C 27.4909 -2.83562 3.33033 0
M  V30 321 C 26.5499 -4.02304 3.39172 0
M  V30 322 O 25.5759 -3.92273 4.12444 0
M  V30 323 N 26.7779 -5.15045 2.67784 0
M  V30 324 H 29.5429 -1.08191 2.7949 0
M  V30 325 H 27.1039 -0.446388 1.55624 0
M  V30 326 H 29.0959 -3.49697 2.03701 0
M  V30 327 H 27.6659 -2.90479 1.15502 0
M  V30 328 H 26.8859 -1.92555 3.43971 0
M  V30 329 H 28.1739 -2.88271 4.19258 0
M  V30 330 H 27.5719 -5.26085 2.07968 0
M  V30 331 H 26.1289 -5.90972 2.74947 0
M  V30 332 N 29.562 -1.4872 -0.521534 0
M  V30 333 C 30.525 -1.63379 -1.60748 0
M  V30 334 C 31.525 -0.50661 -1.52611 0
M  V30 335 O 32.715 -0.772601 -1.5613 0
M  V30 336 C 29.847 -1.61192 -3.00383 0
M  V30 337 H 31.04 -2.60217 -1.49087 0
M  V30 338 H 28.593 -1.37444 -0.744235 0
M  V30 339 H 29.328 -0.65863 -3.17541 0
M  V30 340 H 29.113 -2.43032 -3.07698 0
M  V30 341 H 30.603 -1.7466 -3.7932 0
M  V30 342 N 31.0401 0.771051 -1.3745 0
M  V30 343 C 32.4511 1.34737 -1.29239 0
M  V30 344 C 32.8021 1.96109 0.0596908 0
M  V30 345 O 31.9271 1.93865 0.961534 0
M  V30 346 C 32.5221 2.44973 -2.34037 0
M  V30 347 C 31.0811 2.98372 -2.29458 0
M  V30 348 C 30.2281 1.71595 -2.17831 0
M  V30 349 H 33.1791 0.571256 -1.48062 0
M  V30 350 H 33.2001 3.24471 -1.98744 0
M  V30 351 H 32.7121 2.00276 -3.32432 0
M  V30 352 H 30.8131 3.47443 -1.34589 0
M  V30 353 H 30.9261 3.53939 -3.229 0
M  V30 354 H 29.2901 1.94547 -1.64388 0
M  V30 355 H 30.0731 1.29001 -3.18141 0
M  V30 356 N 32.5182 1.22032 0.997298 0
M  V30 357 C 33.7642 1.04376 1.73878 0
M  V30 358 C 34.0972 -0.420716 1.89588 0
M  V30 359 O 33.3722 -1.31202 1.43583 0
M  V30 360 C 33.6552 1.75047 3.14691 0
M  V30 361 C 33.5082 3.29062 3.06656 0
M  V30 362 C 34.8272 1.49928 4.13775 0
M  V30 363 H 31.9462 0.380578 0.631133 0
M  V30 364 H 34.5882 1.50312 1.16217 0
M  V30 365 H 32.7382 1.35996 3.63919 0
M  V30 366 H 34.4102 3.7753 2.65083 0
M  V30 367 H 32.6532 3.58967 2.43568 0
M  V30 368 H 33.3242 3.73683 4.06282 0
M  V30 369 H 35.8002 1.83842 3.73285 0
M  V30 370 H 34.6762 2.01878 5.10428 0
M  V30 371 H 34.9372 0.430929 4.39995 0
M  V30 372 N 33.9963 -1.19345 1.0293 0
M  V30 373 C 35.2213 -1.93538 0.745511 0
M  V30 374 C 35.6463 -1.75007 -0.689511 0
M  V30 375 O 35.0043 -1.05265 -1.47611 0
M  V30 376 C 35.0523 -3.43336 1.10239 0
M  V30 377 O 34.1563 -4.11806 0.221289 0
M  V30 378 H 33.4973 -0.604193 0.275404 0
M  V30 379 H 36.0273 -1.5141 1.37609 0
M  V30 380 H 36.0373 -3.94004 1.05947 0
M  V30 381 H 34.7123 -3.56146 2.14786 0
M  V30 382 H 33.2893 -3.715 0.322842 0
M  V30 383 N 35.4744 -0.807222 -1.35358 0
M  V30 384 C 36.4064 -0.175717 -2.28525 0
M  V30 385 C 37.4194 0.625354 -1.5031 0
M  V30 386 O 38.6084 0.457611 -1.72535 0
M  V30 387 C 35.7084 0.773471 -3.29956 0
M  V30 388 C 34.8814 0.0186296 -4.37396 0
M  V30 389 C 33.9404 0.886395 -5.18681 0
M  V30 390 O 32.9664 0.337106 -5.68201 0
M  V30 391 N 34.1684 2.20839 -5.36852 0
M  V30 392 H 36.9334 -0.976091 -2.83359 0
M  V30 393 H 34.4944 -0.662737 -1.47714 0
M  V30 394 H 36.4864 1.35824 -3.81227 0
M  V30 395 H 35.0564 1.47465 -2.75632 0
M  V30 396 H 34.2764 -0.747349 -3.87051 0
M  V30 397 H 35.5644 -0.501577 -5.06322 0
M  V30 398 H 34.9624 2.67858 -4.98265 0
M  V30 399 H 33.5194 2.74237 -5.91301 0
M  V30 400 N 36.9525 1.47285 -0.560781 0
M  V30 401 C 38.3635 1.86258 -0.128343 0
M  V30 402 C 38.7145 1.46699 1.30284 0
M  V30 403 O 37.8395 0.871698 1.98067 0
M  V30 404 C 38.4345 3.38044 -0.22614 0
M  V30 405 C 36.9935 3.76096 0.151283 0
M  V30 406 C 36.1405 2.71335 -0.572084 0
M  V30 407 H 39.0915 1.38752 -0.770297 0
M  V30 408 H 39.1125 3.76441 0.554322 0
M  V30 409 H 38.6245 3.66806 -1.26788 0
M  V30 410 H 36.7255 3.52951 1.19399 0
M  V30 411 H 36.8385 4.78641 -0.209765 0
M  V30 412 H 35.2025 2.54696 -0.0147653 0
M  V30 413 H 35.9855 3.02938 -1.61504 0
M  V30 414 N 38.4306 0.297415 1.54768 0
M  V30 415 C 39.7076 -0.365847 1.92148 0
M  V30 416 C 40.0876 -1.71975 1.22424 0
M  V30 417 O 39.4356 -2.25666 0.358739 0
M  V30 418 C 39.6456 -0.484056 3.45627 0
M  V30 419 C 40.9936 -0.756594 4.17805 0
M  V30 420 O 42.0176 -0.568007 3.51642 0
M  V30 421 O 40.8766 -1.11863 5.34929 0
M  V30 422 H 37.9706 -0.203919 0.801465 0
M  V30 423 H 40.5166 0.34521 1.66152 0
M  V30 424 H 39.2886 0.467865 3.88493 0
M  V30 425 H 38.9116 -1.24372 3.77647 0
M  V30 426 N 39.9087 -1.5758 0.0250728 0
M  V30 427 C 40.8717 -2.08896 -0.943139 0
M  V30 428 C 41.8717 -1.00321 -1.25668 0
M  V30 429 O 43.0617 -1.26495 -1.19769 0
M  V30 430 C 40.1937 -2.55143 -2.26086 0
M  V30 431 H 41.3867 -2.95723 -0.498775 0
M  V30 432 H 38.9397 -1.54703 -0.222888 0
M  V30 433 H 39.6747 -1.71633 -2.75159 0
M  V30 434 H 39.4597 -3.34461 -2.04641 0
M  V30 435 H 40.9497 -2.95083 -2.95492 0
M  V30 436 N 41.3868 0.248026 -1.55636 0
M  V30 437 C 42.7978 0.817177 -1.67866 0
M  V30 438 C 43.1488 1.86069 -0.622322 0
M  V30 439 O 42.2738 2.15157 0.231618 0
M  V30 440 C 42.8688 1.489 -3.04326 0
M  V30 441 C 41.4278 2.00587 -3.185 0
M  V30 442 C 40.5748 0.856573 -2.63739 0
M  V30 443 H 43.5258 0.0238579 -1.58682 0
M  V30 444 H 43.5468 2.35698 -2.98708 0
M  V30 445 H 43.0588 0.729279 -3.81186 0
M  V30 446 H 41.1598 2.79443 -2.4646 0
M  V30 447 H 41.2728 2.20402 -4.25393 0
M  V30 448 H 39.6368 1.25678 -2.21534 0
M  V30 449 H 40.4198 0.109953 -3.43124 0
M  V30 450 N 42.8649 1.48995 0.513639 0
M  V30 451 C 44.1129 1.57531 1.26604 0
M  V30 452 C 44.4339 0.258236 1.93283 0
M  V30 453 O 43.7039 -0.721502 1.8213 0
M  V30 454 H 42.2839 0.580387 0.470276 0
M  V30 455 H 44.9459 1.85552 0.596373 0
M  V30 456 H 44.0419 2.36486 2.03669 0
M  V30 457 N 44.343 -0.763751 1.37857 0
M  V30 458 C 45.293 -1.86765 1.30777 0
M  V30 459 C 46.277 -1.59726 0.194015 0
M  V30 460 O 47.469 -1.7172 0.42911 0
M  V30 461 C 44.598 -3.24343 1.12502 0
M  V30 462 C 43.684 -3.57307 2.28456 0
M  V30 463 N 44.075 -3.61398 3.53871 0
M  V30 464 C 42.373 -3.87517 2.20786 0
M  V30 465 C 43.074 -3.91339 4.30382 0
M  V30 466 N 42.05 -4.07649 3.59615 0
M  V30 467 H 45.852 -1.88191 2.25746 0
M  V30 468 H 43.366 -0.9606 1.30944 0
M  V30 469 H 45.363 -4.03327 1.05514 0
M  V30 470 H 44.023 -3.24175 0.184574 0
M  V30 471 H 45.034 -3.43407 3.87675 0
M  V30 472 H 41.711 -3.95125 1.34844 0
M  V30 473 H 43.101 -4.01213 5.3896 0
M  V30 474 N 45.8211 -1.22559 -0.990812 0
M  V30 475 C 46.7531 -0.955325 -2.08342 0
M  V30 476 C 47.7661 0.0668408 -1.62663 0
M  V30 477 O 48.9551 -0.167421 -1.77713 0
M  V30 478 C 46.0551 -0.415566 -3.36342 0
M  V30 479 C 45.2281 -1.49544 -4.11042 0
M  V30 480 C 44.2871 -0.962399 -5.17324 0
M  V30 481 O 43.3131 -1.64907 -5.44788 0
M  V30 482 N 44.5151 0.215134 -5.80101 0
M  V30 483 H 47.2801 -1.89596 -2.32106 0
M  V30 484 H 44.8411 -1.13276 -1.15673 0
M  V30 485 H 46.8331 -0.0442386 -4.04676 0
M  V30 486 H 45.4031 0.430232 -3.09625 0
M  V30 487 H 44.6231 -2.04 -3.37309 0
M  V30 488 H 45.9111 -2.22195 -4.57719 0
M  V30 489 H 45.3091 0.789779 -5.6016 0
M  V30 490 H 43.8661 0.527826 -6.49659 0
M  V30 491 N 47.2992 1.18797 -1.03562 0
M  V30 492 C 48.7152 1.40671 -0.753917 0
M  V30 493 C 48.9152 1.9043 0.658686 0
M  V30 494 O 47.9712 2.08538 1.42366 0
M  V30 495 C 49.2842 2.41192 -1.79574 0
M  V30 496 C 50.8322 2.54928 -1.81606 0
M  V30 497 C 51.3072 3.58709 -2.84766 0
M  V30 498 N 52.7982 3.66212 -2.83625 0
M  V30 499 C 53.5332 4.46225 -3.60098 0
M  V30 500 N 53.0292 5.29888 -4.46308 0
M  V30 501 N 54.8222 4.40939 -3.4861 0
M  V30 502 H 46.9732 0.848221 -1.94728 0
M  V30 503 H 49.2362 0.435081 -0.842264 0
M  V30 504 H 48.9422 2.11669 -2.80872 0
M  V30 505 H 48.8162 3.40467 -1.62365 0
M  V30 506 H 51.2032 2.83771 -0.809817 0
M  V30 507 H 51.2842 1.55784 -2.02891 0
M  V30 508 H 50.9282 3.30607 -3.85566 0
M  V30 509 H 50.8582 4.57519 -2.60737 0
M  V30 510 H 53.3492 3.06466 -2.21105 0
M  V30 511 H 53.6622 5.88078 -5.01382 0
M  V30 512 H 52.0072 5.29326 -4.50377 0
M  V30 513 H 55.1982 3.74624 -2.80668 0
M  V30 514 H 55.3712 5.03056 -4.08459 0
M  V30 515 N 48.7773 0.814389 1.34928 0
M  V30 516 C 49.7243 0.22822 2.29669 0
M  V30 517 C 50.6943 -0.642164 1.53184 0
M  V30 518 O 51.8793 -0.585605 1.81591 0
M  V30 519 C 49.0193 -0.61089 3.3965 0
M  V30 520 C 48.1323 0.280792 4.31086 0
M  V30 521 C 47.2673 -0.567067 5.28165 0
M  V30 522 C 46.3063 0.324531 6.11239 0
M  V30 523 N 45.4433 -0.483756 7.00431 0
M  V30 524 H 50.2833 1.04153 2.79206 0
M  V30 525 H 47.8203 0.525133 1.37407 0
M  V30 526 H 49.7783 -1.11263 4.0209 0
M  V30 527 H 48.4083 -1.38939 2.91369 0
M  V30 528 H 47.4603 0.900688 3.69583 0
M  V30 529 H 48.7723 0.966723 4.89342 0
M  V30 530 H 47.9263 -1.13363 5.96015 0
M  V30 531 H 46.6653 -1.28654 4.70425 0
M  V30 532 H 45.6703 0.903298 5.42329 0
M  V30 533 H 46.8953 1.04198 6.71059 0
M  V30 534 H 44.8413 -1.18706 6.45171 0
M  V30 535 H 44.7583 0.143965 7.55863 0
M  V30 536 H 46.0263 -1.03334 7.7262 0
M  V30 537 N 50.2554 -1.46986 0.568584 0
M  V30 538 C 51.5014 -2.02741 0.0488709 0
M  V30 539 C 51.8344 -1.44077 -1.30214 0
M  V30 540 O 51.1094 -0.600552 -1.84996 0
M  V30 541 C 51.3924 -3.60086 -0.032047 0
M  V30 542 C 51.2454 -4.29162 1.34686 0
M  V30 543 C 52.5644 -4.33838 -0.739798 0
M  V30 544 H 49.6834 -0.736749 0.0192338 0
M  V30 545 H 52.3254 -1.75289 0.733065 0
M  V30 546 H 50.4754 -3.83606 -0.61473 0
M  V30 547 H 52.1474 -4.16948 1.97362 0
M  V30 548 H 50.3904 -3.89073 1.91846 0
M  V30 549 H 51.0614 -5.37826 1.24285 0
M  V30 550 H 53.5374 -4.15378 -0.244939 0
M  V30 551 H 52.4134 -5.43537 -0.765406 0
M  V30 552 H 52.6744 -4.03875 -1.79827 0
M  V30 553 N 51.7335 -0.305618 -1.54608 0
M  V30 554 C 52.9795 0.302746 -2.00528 0
M  V30 555 C 53.3125 1.53184 -1.19367 0
M  V30 556 O 52.5875 1.92598 -0.271321 0
M  V30 557 C 52.8705 0.654756 -3.54097 0
M  V30 558 C 52.7235 -0.583793 -4.45995 0
M  V30 559 C 54.0425 1.47947 -4.14487 0
M  V30 560 H 51.1615 0.108564 -0.72896 0
M  V30 561 H 53.8035 -0.418634 -1.85331 0
M  V30 562 H 51.9535 1.26935 -3.67178 0
M  V30 563 H 53.6255 -1.22224 -4.44814 0
M  V30 564 H 51.8685 -1.21615 -4.16404 0
M  V30 565 H 52.5395 -0.293287 -5.5122 0
M  V30 566 H 55.0155 0.96013 -4.04871 0
M  V30 567 H 53.8915 1.69454 -5.22088 0
M  V30 568 H 54.1525 2.47011 -3.66658 0
M  V30 569 N 53.2116 1.57565 -0.0334293 0
M  V30 570 C 54.4366 1.96689 0.657895 0
M  V30 571 C 54.8616 0.910057 1.64619 0
M  V30 572 O 54.2196 -0.128598 1.80843 0
M  V30 573 C 54.2676 3.34905 1.33683 0
M  V30 574 O 53.3716 3.31574 2.45219 0
M  V30 575 H 52.7126 0.641205 0.172489 0
M  V30 576 H 55.2426 2.04372 -0.0965621 0
M  V30 577 H 55.2526 3.71234 1.69262 0
M  V30 578 H 53.9276 4.11366 0.612411 0
M  V30 579 H 52.5046 3.06968 2.11719 0
M  V30 580 N 54.6897 -0.239769 1.55765 0
M  V30 581 C 55.9357 -0.963942 1.79108 0
M  V30 582 C 56.2907 -1.82689 0.60352 0
M  V30 583 O 55.5837 -1.87313 -0.403033 0
M  V30 584 C 55.7777 -1.852 3.05672 0
M  V30 585 C 55.6067 -1.07651 4.36625 0
M  V30 586 C 54.3767 -0.778738 4.99263 0
M  V30 587 C 56.5747 -0.45062 5.12322 0
M  V30 588 N 54.5567 0.0200708 6.13897 0
M  V30 589 C 55.9277 0.212429 6.19636 0
M  V30 590 C 57.9827 -0.361806 4.96584 0
M  V30 591 C 56.6857 0.955772 7.12922 0
M  V30 592 C 58.7117 0.368023 5.90254 0
M  V30 593 C 58.0737 1.01968 6.96981 0
M  V30 594 H 54.1727 -0.333601 0.707272 0
M  V30 595 H 56.7567 -0.236425 1.93259 0
M  V30 596 H 54.9277 -2.55149 2.92837 0
M  V30 597 H 56.6597 -2.51228 3.1728 0
M  V30 598 H 53.4147 -1.09229 4.60832 0
M  V30 599 H 53.8387 0.407777 6.75771 0
M  V30 600 H 58.4807 -0.851286 4.14141 0
M  V30 601 H 56.1987 1.45683 7.9486 0
M  V30 602 H 59.7847 0.437504 5.80153 0
M  V30 603 H 58.6647 1.5754 7.68213 0
M  V30 604 N 56.1678 -1.49265 -0.50573 0
M  V30 605 C 57.4168 -1.57761 -1.25675 0
M  V30 606 C 57.7298 -0.267371 -1.93764 0
M  V30 607 O 58.9358 -0.230827 -2.70517 0
M  V30 608 C 57.3918 -2.78332 -2.28165 0
M  V30 609 C 56.9998 -4.16096 -1.66037 0
M  V30 610 C 58.7438 -2.96155 -3.04125 0
M  V30 611 C 56.6508 -5.27895 -2.6661 0
M  V30 612 H 55.5808 -0.587391 -0.472745 0
M  V30 613 H 58.2318 -1.75644 -0.53118 0
M  V30 614 H 56.6138 -2.53934 -3.03865 0
M  V30 615 H 57.7878 -4.50612 -0.963622 0
M  V30 616 H 56.1028 -4.03591 -1.02484 0
M  V30 617 H 58.6998 -3.76849 -3.79327 0
M  V30 618 H 59.0428 -2.06534 -3.61455 0
M  V30 619 H 59.5758 -3.2057 -2.35541 0
M  V30 620 H 56.3148 -6.1956 -2.14068 0
M  V30 621 H 55.8348 -4.97839 -3.34539 0
M  V30 622 H 57.5138 -5.57031 -3.29129 0
M  V30 623 N 57.6459 0.756429 -1.3826 0
M  V30 624 C 58.9229 1.50584 -1.24835 0
M  V30 625 C 59.3029 2.10556 0.151485 0
M  V30 626 O 58.6509 1.96825 1.1607 0
M  V30 627 C 58.8609 2.57448 -2.3563 0
M  V30 628 C 60.2089 3.24429 -2.73917 0
M  V30 629 O 61.2329 2.67751 -2.34921 0
M  V30 630 O 60.0919 4.26937 -3.41156 0
M  V30 631 H 57.1859 0.667664 -0.48801 0
M  V30 632 H 59.7319 0.792083 -1.5008 0
M  V30 633 H 58.5039 2.11362 -3.29305 0
M  V30 634 H 58.1269 3.36408 -2.11933 0
M  V30 635 N 59.124 1.23083 0.984299 0
M  V30 636 C 60.37 1.06214 1.72761 0
M  V30 637 C 60.703 -0.400584 1.90024 0
M  V30 638 O 59.978 -1.29672 1.44967 0
M  V30 639 C 60.261 1.78375 3.12817 0
M  V30 640 C 60.114 3.32296 3.03149 0
M  V30 641 C 61.433 1.54309 4.12161 0
M  V30 642 H 58.552 0.387251 0.627061 0
M  V30 643 H 61.194 1.51536 1.14616 0
M  V30 644 H 59.344 1.39848 3.62457 0
M  V30 645 H 61.016 3.8032 2.61064 0
M  V30 646 H 59.259 3.6153 2.39747 0
M  V30 647 H 59.93 3.77972 4.02295 0
M  V30 648 H 62.406 1.87791 3.71314 0
M  V30 649 H 61.282 2.07281 5.08258 0
M  V30 650 H 61.543 0.477572 4.39513 0
M  V30 651 N 60.6021 -1.18246 1.0419 0
M  V30 652 C 61.8321 -1.91916 0.764961 0
M  V30 653 C 62.2401 -1.76485 -0.681898 0
M  V30 654 O 61.5831 -1.09275 -1.47664 0
M  V30 655 C 61.6451 -3.4373 1.05309 0
M  V30 656 C 61.3091 -3.8294 2.4941 0
M  V30 657 C 62.3061 -3.86621 3.47592 0
M  V30 658 C 59.9911 -4.142 2.84155 0
M  V30 659 C 61.9851 -4.21013 4.78568 0
M  V30 660 C 59.6721 -4.48262 4.15337 0
M  V30 661 C 60.6701 -4.51645 5.12353 0
M  V30 662 O 60.3581 -4.84911 6.41183 0
M  V30 663 H 60.0901 -0.61606 0.278292 0
M  V30 664 H 62.6441 -1.50947 1.39299 0
M  V30 665 H 60.8741 -3.84946 0.367933 0
M  V30 666 H 62.5631 -3.9865 0.763752 0
M  V30 667 H 63.3291 -3.62607 3.22089 0
M  V30 668 H 59.2081 -4.10743 2.09311 0
M  V30 669 H 62.7521 -4.23568 5.54289 0
M  V30 670 H 58.6491 -4.71737 4.40607 0
M  V30 671 H 59.4171 -5.02809 6.45852 0
M  V30 672 N 62.0802 -0.821533 -1.34494 0
M  V30 673 C 63.3082 -0.421884 -2.02553 0
M  V30 674 C 63.7232 0.971745 -1.61872 0
M  V30 675 O 63.0802 1.62864 -0.823496 0
M  V30 676 C 63.1312 -0.51285 -3.57844 0
M  V30 677 O 62.8522 -1.85155 -3.97051 0
M  V30 678 C 64.3532 -0.107921 -4.43169 0
M  V30 679 H 61.5732 -0.169482 -0.649243 0
M  V30 680 H 64.1172 -1.1093 -1.71798 0
M  V30 681 H 62.2722 0.126474 -3.87193 0
M  V30 682 H 62.6862 -1.82482 -4.91732 0
M  V30 683 H 64.1602 -0.222657 -5.51551 0
M  V30 684 H 64.6372 0.948401 -4.28838 0
M  V30 685 H 65.2432 -0.720989 -4.19144 0
M  V30 686 N 63.5583 1.46682 -0.576371 0
M  V30 687 C 64.9743 1.57822 -0.237562 0
M  V30 688 C 65.1743 1.57237 1.26011 0
M  V30 689 O 64.2303 1.48596 2.04146 0
M  V30 690 C 65.5433 2.87499 -0.881168 0
M  V30 691 C 67.0913 3.01119 -0.85417 0
M  V30 692 C 67.5663 4.33524 -1.4772 0
M  V30 693 N 69.0573 4.40207 -1.44125 0
M  V30 694 C 69.7923 5.4126 -1.89276 0
M  V30 695 N 69.2883 6.49021 -2.42371 0
M  V30 696 N 71.0813 5.32422 -1.80231 0
M  V30 697 H 63.2323 1.45306 -1.54919 0
M  V30 698 H 65.4953 0.692733 -0.647167 0
M  V30 699 H 65.2013 2.9372 -1.93447 0
M  V30 700 H 65.0753 3.75224 -0.385592 0
M  V30 701 H 67.4623 2.94485 0.190491 0
M  V30 702 H 67.5433 2.14887 -1.3877 0
M  V30 703 H 67.1873 4.40916 -2.52103 0
M  V30 704 H 67.1173 5.1852 -0.918947 0
M  V30 705 H 69.6083 3.62931 -1.05307 0
M  V30 706 H 69.9213 7.2233 -2.74698 0
M  V30 707 H 68.2663 6.49858 -2.46393 0
M  V30 708 H 71.4573 4.47137 -1.38514 0
M  V30 709 H 71.6303 6.11034 -2.15735 0
M  V30 710 N 65.0364 0.313813 1.54444 0
M  V30 711 C 65.9994 -0.54379 2.22656 0
M  V30 712 C 66.9994 -1.05124 1.21678 0
M  V30 713 O 68.1894 -0.945225 1.46325 0
M  V30 714 C 65.3214 -1.75427 2.92298 0
M  V30 715 H 66.5144 0.0523599 2.99854 0
M  V30 716 H 64.0674 0.0647834 1.56166 0
M  V30 717 H 64.8024 -2.38991 2.19211 0
M  V30 718 H 64.5874 -1.39791 3.66334 0
M  V30 719 H 66.0774 -2.36325 3.44297 0
M  V30 720 N 66.5145 -1.57545 0.0417849 0
M  V30 721 C 67.7425 -1.96624 -0.643928 0
M  V30 722 C 68.1575 -0.918897 -1.64929 0
M  V30 723 O 67.5145 0.0979323 -1.82237 0
M  V30 724 C 67.5655 -3.35781 -1.33914 0
M  V30 725 O 67.2865 -4.365 -0.374048 0
M  V30 726 C 68.7875 -3.89566 -2.1155 0
M  V30 727 H 66.0075 -0.647316 -0.176702 0
M  V30 728 H 68.5515 -2.04229 0.105304 0
M  V30 729 H 66.7065 -3.29357 -2.03968 0
M  V30 730 H 67.1205 -5.17248 -0.869179 0
M  V30 731 H 68.5945 -4.89242 -2.55628 0
M  V30 732 H 69.0715 -3.24488 -2.9598 0
M  V30 733 H 69.6775 -3.99298 -1.46427 0
M  V30 734 N 67.9926 0.231505 -1.5589 0
M  V30 735 C 69.2326 0.964533 -1.80211 0
M  V30 736 C 69.5966 1.81926 -0.613744 0
M  V30 737 O 70.7976 2.58526 -0.736045 0
M  V30 738 C 69.0686 1.78956 -3.09369 0
M  V30 739 S 70.6276 2.57959 -3.54969 0
M  V30 740 H 67.4456 0.324173 -0.632798 0
M  V30 741 H 70.0476 0.230985 -1.94131 0
M  V30 742 H 68.7516 1.15161 -3.93911 0
M  V30 743 H 68.2826 2.56559 -2.9823 0
M  V30 744 H 70.2976 3.81309 -3.17519 0
M  V30 745 N 69.4707 1.49531 0.497807 0
M  V30 746 C 70.4027 1.62559 1.61578 0
M  V30 747 C 71.4157 0.508134 1.54667 0
M  V30 748 O 72.6047 0.780309 1.60541 0
M  V30 749 C 69.7047 1.56925 3.00379 0
M  V30 750 C 68.8777 2.84257 3.3244 0
M  V30 751 C 67.9367 2.71632 4.50669 0
M  V30 752 O 66.9627 3.4557 4.52294 0
M  V30 753 N 68.1647 1.83391 5.5077 0
M  V30 754 H 70.9297 2.58981 1.50828 0
M  V30 755 H 68.4907 1.4666 0.685743 0
M  V30 756 H 70.4827 1.46129 3.77397 0
M  V30 757 H 69.0527 0.683483 3.05037 0
M  V30 758 H 68.2727 3.09381 2.44289 0
M  V30 759 H 69.5607 3.68666 3.5066 0
M  V30 760 H 68.9587 1.22583 5.52259 0
M  V30 761 H 67.5157 1.78515 6.26878 0
M  V30 762 N 70.9488 -0.749086 1.3866 0
M  V30 763 C 72.3598 -1.32664 1.31366 0
M  V30 764 C 72.7108 -1.96179 -0.028484 0
M  V30 765 O 71.8358 -1.9537 -0.93057 0
M  V30 766 C 72.4308 -2.41219 2.37905 0
M  V30 767 C 70.9898 -2.94684 2.34176 0
M  V30 768 C 70.1368 -1.68108 2.20533 0
M  V30 769 H 73.0878 -0.547628 1.48952 0
M  V30 770 H 73.1088 -3.21268 2.0388 0
M  V30 771 H 72.6208 -1.94962 3.35576 0
M  V30 772 H 70.7218 -3.45258 1.401 0
M  V30 773 H 70.8348 -3.48757 3.2849 0
M  V30 774 H 69.1988 -1.91907 1.67463 0
M  V30 775 H 69.9818 -1.23923 3.20153 0
M  V30 776 N 72.4269 -1.23603 -0.977757 0
M  V30 777 C 73.8429 -0.999251 -1.24447 0
M  V30 778 C 74.0429 0.298053 -1.99283 0
M  V30 779 O 73.0989 1.01681 -2.31122 0
M  V30 780 C 74.4119 -2.20784 -2.04144 0
M  V30 781 C 75.9599 -2.25303 -2.17273 0
M  V30 782 C 76.4349 -3.45755 -3.00362 0
M  V30 783 N 77.9259 -3.4601 -3.07947 0
M  V30 784 C 78.6609 -4.35868 -3.72568 0
M  V30 785 N 78.1569 -5.35966 -4.38991 0
M  V30 786 N 79.9499 -4.23605 -3.6948 0
M  V30 787 H 72.1009 -2.06986 -0.476483 0
M  V30 788 H 74.3639 -0.907801 -0.273134 0
M  V30 789 H 74.0699 -3.14945 -1.56533 0
M  V30 790 H 73.9439 -2.22085 -3.04891 0
M  V30 791 H 76.3309 -1.3168 -2.64092 0
M  V30 792 H 76.4119 -2.28033 -1.15907 0
M  V30 793 H 76.0559 -4.39687 -2.5424 0
M  V30 794 H 75.9859 -3.40266 -4.01904 0
M  V30 795 H 78.4769 -2.73588 -2.60688 0
M  V30 796 H 78.7899 -6.00783 -4.86086 0
M  V30 797 H 77.1349 -5.39863 -4.37691 0
M  V30 798 H 80.3259 -3.44647 -3.16759 0
M  V30 799 H 80.4989 -4.93836 -4.1956 0
M  V30 800 N 73.905 1.17692 -1.04816 0
M  V30 801 C 74.815 2.25229 -0.65643 0
M  V30 802 C 75.831 1.71018 0.320761 0
M  V30 803 O 77.007 2.00649 0.173805 0
M  V30 804 C 74.072 3.46684 -0.0332629 0
M  V30 805 C 73.133 4.15997 -1.06042 0
M  V30 806 C 72.366 5.31654 -0.466893 0
M  V30 807 O 72.589 5.65777 0.724758 0
M  V30 808 O 71.523 5.89831 -1.1993 0
M  V30 809 H 75.349 2.61016 -1.55255 0
M  V30 810 H 72.934 1.24919 -0.81949 0
M  V30 811 H 74.816 4.20234 0.313256 0
M  V30 812 H 73.491 3.12703 0.836566 0
M  V30 813 H 72.398 3.44482 -1.45886 0
M  V30 814 H 73.731 4.53996 -1.90127 0
M  V30 815 N 75.3831 0.828654 1.34056 0
M  V30 816 C 76.6291 0.42008 1.98402 0
M  V30 817 C 76.9621 -1.01564 1.65525 0
M  V30 818 O 76.2371 -1.70834 0.929831 0
M  V30 819 C 76.5201 0.62927 3.54559 0
M  V30 820 C 76.3731 2.11152 3.97159 0
M  V30 821 C 77.6921 0.0688756 4.40046 0
M  V30 822 H 74.8111 0.154104 0.720709 0
M  V30 823 H 77.4531 1.04228 1.5886 0
M  V30 824 H 75.6031 0.0996418 3.88372 0
M  V30 825 H 77.2751 2.70522 3.73651 0
M  V30 826 H 75.5181 2.59985 3.47261 0
M  V30 827 H 76.1891 2.20868 5.05887 0
M  V30 828 H 78.6651 0.521458 4.1282 0
M  V30 829 H 77.5411 0.245006 5.48353 0
M  V30 830 H 77.8021 -1.0266 4.30015 0
M  V30 831 N 76.8612 -1.46375 0.584142 0
M  V30 832 C 78.1072 -2.02678 0.0703716 0
M  V30 833 C 78.4402 -1.4545 -1.28678 0
M  V30 834 O 77.7152 -0.62014 -1.84349 0
M  V30 835 C 77.9982 -3.60099 0.00614674 0
M  V30 836 C 77.8512 -4.27709 1.3923 0
M  V30 837 C 79.1702 -4.34598 -0.693742 0
M  V30 838 H 76.2892 -0.736504 0.027047 0
M  V30 839 H 78.9312 -1.74501 0.751615 0
M  V30 840 H 77.0812 -3.84236 -0.574009 0
M  V30 841 H 78.7532 -4.14832 2.01773 0
M  V30 842 H 76.9962 -3.87016 1.95962 0
M  V30 843 H 77.6672 -5.36478 1.29982 0
M  V30 844 H 80.1432 -4.15615 -0.200869 0
M  V30 845 H 79.0192 -5.44318 -0.707714 0
M  V30 846 H 79.2802 -4.05759 -1.75533 0
M  V30 847 N 78.3393 -0.321999 -1.54275 0
M  V30 848 C 79.5853 0.281461 -2.00837 0
M  V30 849 C 79.9183 1.51909 -1.20985 0
M  V30 850 O 79.1933 1.923 -0.291733 0
M  V30 851 C 79.4763 0.617162 -3.54772 0
M  V30 852 C 79.3293 -0.631064 -4.45351 0
M  V30 853 C 80.6483 1.43542 -4.16033 0
M  V30 854 H 77.7673 0.100826 -0.730071 0
M  V30 855 H 80.4093 -0.438268 -1.84876 0
M  V30 856 H 78.5593 1.23034 -3.68504 0
M  V30 857 H 80.2313 -1.26934 -4.43492 0
M  V30 858 H 78.4743 -1.26025 -4.15091 0
M  V30 859 H 79.1453 -0.351735 -5.50878 0
M  V30 860 H 81.6213 0.917134 -4.05867 0
M  V30 861 H 80.4973 1.63907 -5.23856 0
M  V30 862 H 80.7583 2.43108 -3.69257 0
M  V30 863 N 79.8174 1.5752 -0.0501392 0
M  V30 864 C 81.2284 1.80271 0.485705 0
M  V30 865 C 81.5794 0.96228 1.70981 0
M  V30 866 O 80.7044 0.178578 2.15662 0
M  V30 867 C 81.2994 3.26957 0.887938 0
M  V30 868 C 79.8584 3.5063 1.36877 0
M  V30 869 C 79.0054 2.75165 0.343468 0
M  V30 870 H 81.9564 1.56281 -0.276028 0
M  V30 871 H 81.9774 3.37821 1.75093 0
M  V30 872 H 81.4894 3.881 -0.0031809 0
M  V30 873 H 79.5904 2.94766 2.27911 0
M  V30 874 H 79.7034 4.59343 1.36164 0
M  V30 875 H 78.0674 2.4127 0.816128 0
M  V30 876 H 78.8504 3.39034 -0.539548 0
M  V30 877 N 81.2955 -0.223234 1.56011 0
M  V30 878 C 82.2255 -1.27988 1.95298 0
M  V30 879 C 83.2065 -1.48976 0.820979 0
M  V30 880 O 84.3915 -1.61188 1.08315 0
M  V30 881 C 81.5215 -2.63 2.26822 0
M  V30 882 C 80.4755 -2.56671 3.42497 0
M  V30 883 C 79.8015 -3.95697 3.59622 0
M  V30 884 C 81.1015 -2.11601 4.77517 0
M  V30 885 H 82.7955 -0.953525 2.8381 0
M  V30 886 H 80.3415 -0.457244 1.36548 0
M  V30 887 H 82.2945 -3.37077 2.52898 0
M  V30 888 H 81.0185 -2.9732 1.35161 0
M  V30 889 H 79.6775 -1.85051 3.16467 0
M  V30 890 H 79.3255 -4.27322 2.6534 0
M  V30 891 H 79.0255 -3.92345 4.37424 0
M  V30 892 H 80.5495 -4.71438 3.88044 0
M  V30 893 H 81.9635 -2.7542 5.02809 0
M  V30 894 H 80.3605 -2.19311 5.5859 0
M  V30 895 H 81.4305 -1.06824 4.72987 0
M  V30 896 N 82.7736 -1.49793 -0.48987 0
M  V30 897 C 84.0016 -1.63568 -1.26701 0
M  V30 898 C 84.4166 -0.311465 -1.86213 0
M  V30 899 O 83.7736 0.704416 -1.68357 0
M  V30 900 C 83.8246 -2.71284 -2.38929 0
M  V30 901 O 83.5456 -3.9857 -1.81861 0
M  V30 902 C 85.0466 -2.95864 -3.3012 0
M  V30 903 H 82.2666 -0.550342 -0.383881 0
M  V30 904 H 84.8106 -1.95898 -0.586864 0
M  V30 905 H 82.9656 -2.417 -3.02753 0
M  V30 906 H 83.3796 -4.57993 -2.55622 0
M  V30 907 H 84.8536 -3.74941 -4.05121 0
M  V30 908 H 85.3306 -2.06206 -3.87783 0
M  V30 909 H 85.9366 -3.26907 -2.72051 0
M  V30 910 N 84.2517 0.741722 -1.39055 0
M  V30 911 C 85.4977 1.50336 -1.36113 0
M  V30 912 C 85.8307 1.94148 0.0450796 0
M  V30 913 O 85.1057 1.66301 1.00868 0
M  V30 914 C 85.3887 2.74773 -2.32749 0
M  V30 915 C 85.2417 2.37023 -3.82283 0
M  V30 916 C 86.5607 3.76846 -2.27322 0
M  V30 917 H 83.6797 0.545351 -0.495743 0
M  V30 918 H 86.3217 0.848624 -1.69995 0
M  V30 919 H 84.4717 3.30639 -2.03986 0
M  V30 920 H 86.1437 1.8684 -4.21768 0
M  V30 921 H 84.3867 1.69334 -3.99385 0
M  V30 922 H 85.0577 3.26104 -4.45376 0
M  V30 923 H 87.5337 3.30548 -2.5274 0
M  V30 924 H 86.4097 4.6159 -2.97028 0
M  V30 925 H 86.6707 4.23286 -1.27599 0
M  V30 926 N 85.7298 1.2412 0.971189 0
M  V30 927 C 86.6398 1.04747 2.09917 0
M  V30 928 C 87.6558 -0.0107162 1.73997 0
M  V30 929 O 88.8318 0.186714 2.00533 0
M  V30 930 C 85.8968 0.650828 3.40537 0
M  V30 931 C 84.9578 1.7851 3.90426 0
M  V30 932 C 84.1908 1.40729 5.14812 0
M  V30 933 O 84.4138 0.29557 5.69634 0
M  V30 934 O 83.3478 2.23168 5.58999 0
M  V30 935 H 87.1738 1.99304 2.29154 0
M  V30 936 H 84.7588 1.02908 1.08307 0
M  V30 937 H 86.6408 0.440992 4.19086 0
M  V30 938 H 85.3158 -0.265649 3.22608 0
M  V30 939 H 84.2228 2.04966 3.12953 0
M  V30 940 H 85.5558 2.68023 4.12825 0
M  V30 941 N 87.2079 -1.17134 1.05439 0
M  V30 942 C 88.1379 -2.2342 0.678649 0
M  V30 943 C 89.1189 -1.66971 -0.32476 0
M  V30 944 O 90.3039 -1.93149 -0.201802 0
M  V30 945 C 87.4339 -3.47256 0.0552099 0
M  V30 946 C 86.3879 -4.16543 0.98365 0
M  V30 947 C 85.7139 -5.34231 0.223961 0
M  V30 948 C 87.0139 -4.68495 2.3089 0
M  V30 949 H 88.7079 -2.55105 1.56722 0
M  V30 950 H 86.2539 -1.2262 0.754998 0
M  V30 951 H 88.2069 -4.20828 -0.21946 0
M  V30 952 H 86.9309 -3.14846 -0.868319 0
M  V30 953 H 85.5899 -3.44887 1.24293 0
M  V30 954 H 85.2379 -4.98071 -0.702412 0
M  V30 955 H 84.9379 -5.81527 0.842627 0
M  V30 956 H 86.4619 -6.10585 -0.0433671 0
M  V30 957 H 87.8759 -5.33691 2.09396 0
M  V30 958 H 86.2729 -5.26379 2.88176 0
M  V30 959 H 87.3429 -3.85169 2.94572 0
M  V30 960 N 88.686 -0.835752 -1.33615 0
M  V30 961 C 89.619 -0.211815 -2.27215 0
M  V30 962 C 90.597 0.639249 -1.49507 0
M  V30 963 O 91.781 0.600193 -1.78689 0
M  V30 964 C 88.908 0.702893 -3.31326 0
M  V30 965 C 87.954 -0.0723049 -4.26439 0
M  V30 966 S 88.787 -1.42811 -5.16106 0
M  V30 967 C 89.943 -0.518613 -6.23748 0
M  V30 968 H 90.176 -1.00533 -2.79786 0
M  V30 969 H 87.709 -0.632336 -1.40858 0
M  V30 970 H 89.667 1.22505 -3.91794 0
M  V30 971 H 88.328 1.47004 -2.77576 0
M  V30 972 H 87.521 0.62359 -5.00127 0
M  V30 973 H 87.123 -0.525424 -3.70291 0
M  V30 974 H 89.415 0.284778 -6.76901 0
M  V30 975 H 90.358 -1.22556 -6.97413 0
M  V30 976 H 90.766 -0.101344 -5.64409 0
M  V30 977 N 90.1641 1.46063 -0.591896 0
M  V30 978 C 91.4121 2.01938 -0.0808391 0
M  V30 979 C 91.7331 1.46475 1.28725 0
M  V30 980 O 91.0031 0.652944 1.84698 0
M  V30 981 H 89.5831 0.746516 -0.0268938 0
M  V30 982 H 92.2451 1.79055 -0.769752 0
M  V30 983 H 91.3411 3.12094 -0.0187578 0
M  V30 984 N 91.6422 0.330177 1.54103 0
M  V30 985 C 92.8702 -0.272179 2.05102 0
M  V30 986 C 93.2852 -1.45267 1.20595 0
M  V30 987 O 92.6422 -1.8094 0.238144 0
M  V30 988 C 92.6932 -0.70023 3.54653 0
M  V30 989 O 92.4142 0.433301 4.35952 0
M  V30 990 C 93.9152 -1.3647 4.21771 0
M  V30 991 H 91.1352 -0.0549159 0.668749 0
M  V30 992 H 93.6792 0.478285 1.98828 0
M  V30 993 H 91.8342 -1.40066 3.61193 0
M  V30 994 H 92.2482 0.0947539 5.24414 0
M  V30 995 H 93.7222 -1.61509 5.27843 0
M  V30 996 H 94.1992 -2.31409 3.73292 0
M  V30 997 H 94.8052 -0.706675 4.19388 0
M  V30 998 N 93.1203 -1.57491 0.0584922 0
M  V30 999 C 94.3663 -1.93264 -0.614558 0
M  V30 1000 C 94.6993 -0.937717 -1.7006 0
M  V30 1001 O 93.9743 0.0351652 -1.94468 0
M  V30 1002 C 94.2573 -3.3938 -1.20386 0
M  V30 1003 C 94.1103 -4.49625 -0.125375 0
M  V30 1004 C 95.4293 -3.86039 -2.11334 0
M  V30 1005 H 92.5483 -0.702791 -0.221933 0
M  V30 1006 H 95.1903 -1.8961 0.12175 0
M  V30 1007 H 93.3403 -3.42626 -1.83139 0
M  V30 1008 H 95.0123 -4.58506 0.506971 0
M  V30 1009 H 93.2553 -4.30354 0.545672 0
M  V30 1010 H 93.9263 -5.48967 -0.577861 0
M  V30 1011 H 96.4023 -3.84716 -1.58534 0
M  V30 1012 H 95.2783 -4.88914 -2.49507 0
M  V30 1013 H 95.5393 -3.23215 -3.01636 0
M  V30 1014 N 94.5984 0.214957 -1.56127 0
M  V30 1015 C 95.5614 1.24997 -1.92116 0
M  V30 1016 C 96.5614 1.39467 -0.800344 0
M  V30 1017 O 97.7514 1.37619 -1.06802 0
M  V30 1018 C 94.8834 2.62271 -2.17777 0
M  V30 1019 H 96.0764 0.942875 -2.84693 0
M  V30 1020 H 93.6294 0.455654 -1.49511 0
M  V30 1021 H 94.3644 2.98068 -1.27773 0
M  V30 1022 H 94.1494 2.53143 -2.99434 0
M  V30 1023 H 95.6394 3.36946 -2.46693 0
M  V30 1024 N 96.0765 1.50051 0.48192 0
M  V30 1025 C 97.0235 1.68122 1.58125 0
M  V30 1026 C 97.9935 0.522545 1.57666 0
M  V30 1027 O 99.1785 0.751844 1.75362 0
M  V30 1028 C 96.3185 1.77142 2.96167 0
M  V30 1029 C 95.4315 3.0444 3.06497 0
M  V30 1030 C 94.5665 3.04321 4.35387 0
M  V30 1031 C 93.6055 4.26118 4.3942 0
M  V30 1032 N 92.7425 4.238 5.59766 0
M  V30 1033 H 97.5825 2.6198 1.42022 0
M  V30 1034 H 95.1195 1.29877 0.690687 0
M  V30 1035 H 97.0775 1.80352 3.76203 0
M  V30 1036 H 95.7075 0.867329 3.1093 0
M  V30 1037 H 94.7595 3.10752 2.19402 0
M  V30 1038 H 96.0715 3.94426 3.05336 0
M  V30 1039 H 95.2255 3.062 5.23762 0
M  V30 1040 H 93.9645 2.12147 4.39141 0
M  V30 1041 H 92.9695 4.24463 3.49444 0
M  V30 1042 H 94.1945 5.19507 4.37366 0
M  V30 1043 H 92.1405 3.34474 5.64326 0
M  V30 1044 H 92.0575 5.07542 5.60301 0
M  V30 1045 H 93.3255 4.2981 6.50295 0
M  V30 1046 N 97.5546 -0.734337 1.39446 0
M  V30 1047 C 98.4866 -1.85861 1.34121 0
M  V30 1048 C 99.4996 -1.60871 0.249864 0
M  V30 1049 O 100.689 -1.71093 0.508865 0
M  V30 1050 C 97.7886 -3.21899 1.05991 0
M  V30 1051 C 96.9616 -3.74239 2.26415 0
M  V30 1052 C 96.0206 -4.88841 1.94733 0
M  V30 1053 O 95.0466 -5.02468 2.67422 0
M  V30 1054 N 96.2486 -5.73261 0.913884 0
M  V30 1055 H 99.0136 -1.90934 2.31007 0
M  V30 1056 H 96.5746 -0.915102 1.33557 0
M  V30 1057 H 98.5666 -3.96136 0.828147 0
M  V30 1058 H 97.1366 -3.12091 0.178361 0
M  V30 1059 H 96.3566 -2.91347 2.65539 0
M  V30 1060 H 97.6446 -4.05942 3.06738 0
M  V30 1061 H 97.0426 -5.64842 0.311476 0
M  V30 1062 H 95.5996 -6.47563 0.742015 0
M  V30 1063 N 99.0327 -1.24633 -0.964593 0
M  V30 1064 C 99.9627 -1.06611 -2.07741 0
M  V30 1065 C 100.944 0.0218666 -1.70086 0
M  V30 1066 O 102.129 -0.145793 -1.93652 0
M  V30 1067 C 99.2587 -0.673444 -3.40708 0
M  V30 1068 C 98.2127 -1.71054 -3.92332 0
M  V30 1069 C 97.5387 -1.17285 -5.21678 0
M  V30 1070 C 98.8387 -3.10718 -4.19824 0
M  V30 1071 H 100.533 -1.99693 -2.23076 0
M  V30 1072 H 98.0787 -0.96152 -1.07195 0
M  V30 1073 H 100.032 -0.534345 -4.17998 0
M  V30 1074 H 98.7557 0.293073 -3.25282 0
M  V30 1075 H 97.4147 -1.83791 -3.17201 0
M  V30 1076 H 97.0627 -0.196847 -5.02615 0
M  V30 1077 H 96.7627 -1.86592 -5.57187 0
M  V30 1078 H 98.2867 -1.04593 -6.01575 0
M  V30 1079 H 99.7007 -3.01192 -4.87808 0
M  V30 1080 H 98.0977 -3.77406 -4.66567 0
M  V30 1081 H 99.1677 -3.58524 -3.26479 0
M  V30 1082 N 100.511 1.16574 -1.06058 0
M  V30 1083 C 101.757 1.87324 -0.777022 0
M  V30 1084 C 102.09 1.81351 0.694645 0
M  V30 1085 O 101.365 1.22753 1.50871 0
M  V30 1086 C 101.648 3.36991 -1.26922 0
M  V30 1087 C 101.501 3.51667 -2.80447 0
M  V30 1088 C 102.82 4.3131 -0.87521 0
M  V30 1089 H 99.9388 0.680191 -0.28374 0
M  V30 1090 H 102.581 1.37036 -1.3161 0
M  V30 1091 H 100.731 3.79949 -0.81063 0
M  V30 1092 H 102.403 3.17664 -3.34495 0
M  V30 1093 H 100.646 2.93656 -3.19294 0
M  V30 1094 H 101.317 4.56766 -3.0995 0
M  V30 1095 H 103.793 3.9624 -1.27014 0
M  V30 1096 H 102.669 5.34545 -1.2471 0
M  V30 1097 H 102.93 4.41552 0.220071 0
M  V30 1098 N 101.989 0.842826 1.3317 0
M  V30 1099 C 103.4 0.496651 1.79973 0
M  V30 1100 C 103.751 -0.984641 1.69703 0
M  V30 1101 O 102.876 -1.76743 1.24863 0
M  V30 1102 C 103.471 0.894727 3.26772 0
M  V30 1103 C 102.03 0.600629 3.71577 0
M  V30 1104 C 101.177 1.10091 2.5451 0
M  V30 1105 H 104.128 1.03116 1.20635 0
M  V30 1106 H 104.149 0.206347 3.7994 0
M  V30 1107 H 103.661 1.97287 3.34215 0
M  V30 1108 H 101.762 -0.467284 3.69658 0
M  V30 1109 H 101.875 1.15863 4.64879 0
M  V30 1110 H 100.239 0.52162 2.49301 0
M  V30 1111 H 101.022 2.18591 2.64713 0
M  V30 1112 N 103.467 -1.45747 0.599634 0
M  V30 1113 C 104.692 -2.07178 0.0960198 0
M  V30 1114 C 105.117 -1.44268 -1.207 0
M  V30 1115 O 104.475 -0.532503 -1.73303 0
M  V30 1116 C 104.523 -3.60579 -0.0385348 0
M  V30 1117 O 103.627 -3.97713 -1.0908 0
M  V30 1118 H 102.968 -0.660251 0.0704593 0
M  V30 1119 H 105.498 -1.87124 0.827385 0
M  V30 1120 H 105.508 -4.07298 -0.239304 0
M  V30 1121 H 104.183 -4.05756 0.912947 0
M  V30 1122 H 102.76 -3.62678 -0.867135 0
M  V30 1123 N 104.945 -0.338344 -1.53925 0
M  V30 1124 C 106.185 0.260168 -2.02737 0
M  V30 1125 C 106.549 1.48181 -1.22092 0
M  V30 1126 O 107.75 2.15416 -1.60777 0
M  V30 1127 C 106.021 0.571627 -3.52799 0
M  V30 1128 S 107.58 1.14769 -4.23525 0
M  V30 1129 H 104.398 0.077791 -0.706732 0
M  V30 1130 H 107 -0.474899 -1.89644 0
M  V30 1131 H 105.704 -0.325392 -4.09108 0
M  V30 1132 H 105.235 1.3365 -3.70002 0
M  V30 1133 H 107.25 2.43372 -4.32417 0
M  V30 1134 N 106.423 1.57458 -0.0668435 0
M  V30 1135 C 107.669 1.93587 0.6043 0
M  V30 1136 C 108.002 0.946722 1.69561 0
M  V30 1137 O 107.277 -0.0248516 1.94484 0
M  V30 1138 C 107.56 3.40014 1.18585 0
M  V30 1139 C 107.413 4.49685 0.101529 0
M  V30 1140 C 108.732 3.87154 2.09284 0
M  V30 1141 H 105.851 0.703958 0.218202 0
M  V30 1142 H 108.493 1.89542 -0.131804 0
M  V30 1143 H 106.643 3.43592 1.81319 0
M  V30 1144 H 108.315 4.5823 -0.531279 0
M  V30 1145 H 106.558 4.30059 -0.568487 0
M  V30 1146 H 107.229 5.49266 0.54874 0
M  V30 1147 H 109.705 3.85551 1.56491 0
M  V30 1148 H 108.581 4.90231 2.46911 0
M  V30 1149 H 108.842 3.2481 2.99918 0
M  V30 1150 N 107.901 -0.206675 1.56239 0
M  V30 1151 C 109.129 -0.945345 1.8404 0
M  V30 1152 C 109.544 -1.77336 0.647885 0
M  V30 1153 O 108.901 -1.78425 -0.383511 0
M  V30 1154 C 108.952 -1.8509 3.10522 0
M  V30 1155 O 108.673 -1.05634 4.25174 0
M  V30 1156 C 110.174 -2.70222 3.51418 0
M  V30 1157 H 107.394 -0.276372 0.61144 0
M  V30 1158 H 109.938 -0.217417 2.03341 0
M  V30 1159 H 108.093 -2.53259 2.93153 0
M  V30 1160 H 108.507 -1.67238 4.97124 0
M  V30 1161 H 109.981 -3.29438 4.42916 0
M  V30 1162 H 110.458 -3.43358 2.73864 0
M  V30 1163 H 111.064 -2.07443 3.71278 0
M  V30 1164 N 109.379 -1.50304 -0.473955 0
M  V30 1165 C 110.625 -1.61389 -1.22806 0
M  V30 1166 C 110.958 -0.311955 -1.91678 0
M  V30 1167 O 110.233 0.686384 -1.81986 0
M  V30 1168 C 110.516 -2.79219 -2.27396 0
M  V30 1169 C 110.369 -4.19286 -1.62848 0
M  V30 1170 C 111.688 -2.92614 -3.28732 0
M  V30 1171 H 108.807 -0.587399 -0.445119 0
M  V30 1172 H 111.449 -1.82681 -0.522265 0
M  V30 1173 H 109.599 -2.61195 -2.87592 0
M  V30 1174 H 111.271 -4.48892 -1.06271 0
M  V30 1175 H 109.514 -4.23677 -0.931693 0
M  V30 1176 H 110.185 -4.97655 -2.38838 0
M  V30 1177 H 112.661 -3.09105 -2.78556 0
M  V30 1178 H 111.537 -3.76688 -3.99246 0
M  V30 1179 H 111.798 -2.03107 -3.92683 0
M  V30 1180 N 110.857 0.726932 -1.39834 0
M  V30 1181 C 111.789 1.85147 -1.35104 0
M  V30 1182 C 112.802 1.60736 -0.258392 0
M  V30 1183 O 113.991 1.70821 -0.517931 0
M  V30 1184 C 111.091 3.21332 -1.07697 0
M  V30 1185 C 110.264 3.73033 -2.28396 0
M  V30 1186 C 109.323 4.87802 -1.97322 0
M  V30 1187 O 108.349 5.01043 -2.70083 0
M  V30 1188 N 109.551 5.72768 -0.944273 0
M  V30 1189 H 112.316 1.89706 -2.32017 0
M  V30 1190 H 109.877 0.908006 -1.3404 0
M  V30 1191 H 111.869 3.95691 -0.849144 0
M  V30 1192 H 110.439 3.11992 -0.194909 0
M  V30 1193 H 109.659 2.89934 -2.6708 0
M  V30 1194 H 110.947 4.0431 -3.08887 0
M  V30 1195 H 110.345 5.64669 -0.341427 0
M  V30 1196 H 108.902 6.4716 -0.776346 0
M  V30 1197 N 112.336 1.25143 0.95797 0
M  V30 1198 C 113.752 1.01892 1.22842 0
M  V30 1199 C 113.952 -0.266311 1.99732 0
M  V30 1200 O 113.008 -0.979913 2.3271 0
M  V30 1201 C 114.321 2.24004 2.00606 0
M  V30 1202 C 115.869 2.28731 2.13662 0
M  V30 1203 C 116.344 3.5049 2.94823 0
M  V30 1204 N 117.835 3.50866 3.02403 0
M  V30 1205 C 118.57 4.4174 3.65586 0
M  V30 1206 N 118.066 5.42882 4.30408 0
M  V30 1207 N 119.859 4.29429 3.62694 0
M  V30 1208 H 112.01 2.07718 0.443493 0
M  V30 1209 H 114.273 0.912031 0.258657 0
M  V30 1210 H 113.979 3.17395 1.51503 0
M  V30 1211 H 113.853 2.26907 3.01319 0
M  V30 1212 H 116.24 1.35865 2.61963 0
M  V30 1213 H 116.321 2.29848 1.12265 0
M  V30 1214 H 115.965 4.43676 2.47213 0
M  V30 1215 H 115.895 3.46617 3.96439 0
M  V30 1216 H 118.386 2.777 2.56302 0
M  V30 1217 H 118.699 6.0844 4.76467 0
M  V30 1218 H 117.044 5.46758 4.29047 0
M  V30 1219 H 120.235 3.49643 3.11236 0
M  V30 1220 H 120.408 5.00448 4.1165 0
M  V30 1221 N 113.814 -1.1601 1.06675 0
M  V30 1222 C 115.054 -1.88304 0.795037 0
M  V30 1223 C 115.418 -1.80062 -0.666466 0
M  V30 1224 O 116.619 -2.47319 -1.05293 0
M  V30 1225 C 114.89 -3.33664 1.28076 0
M  V30 1226 S 116.449 -4.23768 1.13868 0
M  V30 1227 H 113.267 -0.649928 0.288296 0
M  V30 1228 H 115.869 -1.4001 1.36445 0
M  V30 1229 H 114.573 -3.37203 2.33927 0
M  V30 1230 H 114.104 -3.87009 0.706253 0
M  V30 1231 H 116.119 -4.96148 0.0719668 0
M  V30 1232 N 115.292 -0.849877 -1.32721 0
M  V30 1233 C 116.54 -0.450032 -1.97026 0
M  V30 1234 C 116.861 0.996604 -1.67609 0
M  V30 1235 O 116.131 1.6958 -0.980786 0
M  V30 1236 H 114.711 -0.163426 -0.728904 0
M  V30 1237 H 117.373 -1.08526 -1.6189 0
M  V30 1238 H 116.469 -0.591146 -3.0645 0
M  V30 1239 N 116.77 1.45427 -0.607355 0
M  V30 1240 C 118.018 2.01841 -0.102253 0
M  V30 1241 C 118.339 1.47832 1.27164 0
M  V30 1242 O 117.609 0.672497 1.83995 0
M  V30 1243 H 116.189 0.746188 -0.0348101 0
M  V30 1244 H 118.851 1.78229 -0.7887 0
M  V30 1245 H 117.947 3.12057 -0.0518585 0
M  V30 1246 N 118.248 0.346503 1.53744 0
M  V30 1247 C 119.488 -0.249413 2.02873 0
M  V30 1248 C 119.852 -1.47532 1.22876 0
M  V30 1249 O 121.053 -2.1456 1.61918 0
M  V30 1250 C 119.324 -0.552909 3.53097 0
M  V30 1251 S 120.883 -1.12521 4.24128 0
M  V30 1252 H 117.701 -0.074042 0.707134 0
M  V30 1253 H 120.303 0.48495 1.8939 0
M  V30 1254 H 119.007 0.347083 4.0893 0
M  V30 1255 H 118.538 -1.31686 3.70705 0
M  V30 1256 H 120.553 -2.41075 4.33702 0
M  V30 1257 N 119.726 -1.57421 0.075193 0
M  V30 1258 C 120.966 -1.95495 -0.596757 0
M  V30 1259 C 121.33 -0.954886 -1.66571 0
M  V30 1260 O 122.531 -1.22341 -2.39345 0
M  V30 1261 C 120.802 -3.382 -1.15566 0
M  V30 1262 S 122.361 -3.98254 -1.84226 0
M  V30 1263 H 119.179 -0.683649 -0.195307 0
M  V30 1264 H 121.781 -1.94925 0.149859 0
M  V30 1265 H 120.485 -4.08766 -0.36588 0
M  V30 1266 H 120.016 -3.42321 -1.93856 0
M  V30 1267 H 122.031 -3.85435 -3.12497 0
M  V30 1268 N 121.204 0.198386 -1.56346 0
M  V30 1269 C 122.615 0.763358 -1.70381 0
M  V30 1270 C 122.966 1.83995 -0.681203 0
M  V30 1271 O 122.091 2.15785 0.16305 0
M  V30 1272 C 122.686 1.39143 -3.08909 0
M  V30 1273 C 121.245 1.90352 -3.2472 0
M  V30 1274 C 120.392 0.772233 -2.6633 0
M  V30 1275 H 123.343 -0.0266377 -1.58678 0
M  V30 1276 H 123.364 2.26076 -3.06055 0
M  V30 1277 H 122.876 0.607638 -3.83314 0
M  V30 1278 H 120.977 2.71461 -2.55225 0
M  V30 1279 H 121.09 2.06757 -4.3219 0
M  V30 1280 H 119.454 1.18566 -2.2542 0
M  V30 1281 H 120.237 0.00073556 -3.433 0
M  V30 1282 N 122.682 1.50554 0.465978 0
M  V30 1283 C 123.959 1.5232 1.22712 0
M  V30 1284 C 124.339 0.270807 2.09356 0
M  V30 1285 O 123.687 -0.745541 2.15995 0
M  V30 1286 C 123.897 2.82175 2.05374 0
M  V30 1287 C 125.245 3.33033 2.6339 0
M  V30 1288 O 126.269 2.83531 2.15612 0
M  V30 1289 O 125.128 4.19336 3.50456 0
M  V30 1290 H 122.222 0.611183 0.557122 0
M  V30 1291 H 124.768 1.62847 0.477381 0
M  V30 1292 H 123.54 3.64797 1.41558 0
M  V30 1293 H 123.163 2.74675 2.87471 0
M  V30 1294 N 124.16 -0.719506 1.40217 0
M  V30 1295 C 125.437 -1.47221 1.28784 0
M  V30 1296 C 125.817 -2.10883 -0.0956067 0
M  V30 1297 O 125.165 -1.99833 -1.10811 0
M  V30 1298 C 125.375 -2.5111 2.42373 0
M  V30 1299 C 126.723 -3.17053 2.82423 0
M  V30 1300 O 127.747 -2.61429 2.41937 0
M  V30 1301 O 126.606 -4.17742 3.52355 0
M  V30 1302 H 123.7 -0.654491 0.50554 0
M  V30 1303 H 126.246 -0.752014 1.52128 0
M  V30 1304 H 125.018 -2.02556 3.34793 0
M  V30 1305 H 124.641 -3.3067 2.20778 0
M  V30 1306 N 125.638 -1.25649 -0.95132 0
M  V30 1307 C 126.886 -1.10375 -1.69298 0
M  V30 1308 C 127.207 0.355339 -1.91735 0
M  V30 1309 O 126.477 1.25188 -1.50681 0
M  V30 1310 H 125.057 -0.405461 -0.627384 0
M  V30 1311 H 127.719 -1.57823 -1.14358 0
M  V30 1312 H 126.815 -1.61465 -2.67087 0
M  V30 1313 N 127.117 1.15442 -1.07289 0
M  V30 1314 C 128.047 2.22312 -0.714107 0
M  V30 1315 C 129.028 1.67467 0.298155 0
M  V30 1316 O 130.213 1.93445 0.171048 0
M  V30 1317 C 127.343 3.47124 -0.110448 0
M  V30 1318 C 126.297 4.14926 -1.04979 0
M  V30 1319 C 125.623 5.33807 -0.308924 0
M  V30 1320 C 126.923 4.64762 -2.38314 0
M  V30 1321 H 128.617 2.5258 -1.6076 0
M  V30 1322 H 126.163 1.21404 -0.77441 0
M  V30 1323 H 128.116 4.21124 0.152482 0
M  V30 1324 H 126.84 3.16187 0.81812 0
M  V30 1325 H 125.499 3.42866 -1.29764 0
M  V30 1326 H 125.147 4.99126 0.623084 0
M  V30 1327 H 124.847 5.80113 -0.935036 0
M  V30 1328 H 126.371 6.10576 -0.0537771 0
M  V30 1329 H 127.785 5.30292 -2.1786 0
M  V30 1330 H 126.182 5.21728 -2.96514 0
M  V30 1331 H 127.252 3.80434 -3.00663 0
M  V30 1332 N 128.595 0.856903 1.32268 0
M  V30 1333 C 129.505 0.306131 2.32594 0
M  V30 1334 C 130.521 -0.577209 1.64147 0
M  V30 1335 O 131.697 -0.477043 1.95669 0
M  V30 1336 C 128.762 -0.494561 3.43154 0
M  V30 1337 C 127.823 0.415186 4.27288 0
M  V30 1338 C 127.056 -0.347387 5.32568 0
M  V30 1339 O 127.279 -1.57708 5.48165 0
M  V30 1340 O 126.213 0.287982 6.01211 0
M  V30 1341 H 130.039 1.13737 2.81598 0
M  V30 1342 H 127.624 0.619902 1.35932 0
M  V30 1343 H 129.506 -0.948944 4.10576 0
M  V30 1344 H 128.181 -1.30257 2.96336 0
M  V30 1345 H 127.088 0.917793 3.62667 0
M  V30 1346 H 128.421 1.18844 4.77637 0
M  V30 1347 N 130.073 -1.45103 0.615059 0
M  V30 1348 C 131.313 -2.04069 0.116282 0
M  V30 1349 C 131.677 -1.4721 -1.2326 0
M  V30 1350 O 132.878 -1.97577 -1.82255 0
M  V30 1351 C 131.149 -3.57298 0.085482 0
M  V30 1352 S 132.708 -4.37394 -0.351015 0
M  V30 1353 H 129.526 -0.709006 0.0532183 0
M  V30 1354 H 132.128 -1.77709 0.81484 0
M  V30 1355 H 130.832 -3.9619 1.0706 0
M  V30 1356 H 130.363 -3.88244 -0.634835 0
M  V30 1357 H 132.378 -4.69734 -1.59889 0
M  V30 1358 N 131.551 -0.354651 -1.53558 0
M  V30 1359 C 132.797 0.238797 -2.01389 0
M  V30 1360 C 133.13 1.49309 -1.2418 0
M  V30 1361 O 132.405 1.91638 -0.332457 0
M  V30 1362 C 132.688 0.541771 -3.56001 0
M  V30 1363 C 132.541 -0.725388 -4.43912 0
M  V30 1364 C 133.86 1.34685 -4.18984 0
M  V30 1365 H 130.979 0.0853177 -0.732045 0
M  V30 1366 H 133.621 -0.477384 -1.83905 0
M  V30 1367 H 131.771 1.15189 -3.71031 0
M  V30 1368 H 133.443 -1.36313 -4.407 0
M  V30 1369 H 131.686 -1.34801 -4.12324 0
M  V30 1370 H 132.357 -0.468505 -5.50008 0
M  V30 1371 H 134.833 0.830837 -4.07721 0
M  V30 1372 H 133.709 1.52759 -5.27215 0
M  V30 1373 H 133.97 2.35221 -3.74331 0
M  V30 1374 N 133.029 1.57378 -0.0835403 0
M  V30 1375 C 134.44 1.81261 0.447358 0
M  V30 1376 C 134.791 0.998331 1.68902 0
M  V30 1377 O 133.916 0.224282 2.15235 0
M  V30 1378 C 134.511 3.28767 0.818386 0
M  V30 1379 C 133.07 3.53455 1.29409 0
M  V30 1380 C 132.217 2.75831 0.285024 0
M  V30 1381 H 135.168 1.5566 -0.309115 0
M  V30 1382 H 135.189 3.41459 1.67887 0
M  V30 1383 H 134.701 3.88006 -0.0855019 0
M  V30 1384 H 132.802 2.99534 2.21608 0
M  V30 1385 H 132.915 4.62128 1.2639 0
M  V30 1386 H 131.279 2.42947 0.764767 0
M  V30 1387 H 132.062 3.37813 -0.611341 0
M  V30 1388 N 134.507 -0.190092 1.56449 0
M  V30 1389 C 135.735 -0.925772 1.85033 0
M  V30 1390 C 136.15 -1.76638 0.666658 0
M  V30 1391 O 135.507 -1.78822 -0.364565 0
M  V30 1392 C 135.558 -1.81786 3.12468 0
M  V30 1393 O 135.279 -1.01118 4.26271 0
M  V30 1394 C 136.78 -2.6648 3.54265 0
M  V30 1395 H 134 -0.269872 0.614337 0
M  V30 1396 H 136.544 -0.195837 2.0356 0
M  V30 1397 H 134.699 -2.50136 2.95822 0
M  V30 1398 H 135.113 -1.61956 4.98869 0
M  V30 1399 H 136.587 -3.24722 4.46385 0
M  V30 1400 H 137.064 -3.40434 2.77491 0
M  V30 1401 H 137.67 -2.03493 3.73458 0
M  V30 1402 N 135.985 -1.50799 -0.457987 0
M  V30 1403 C 137.233 -1.62121 -1.2067 0
M  V30 1404 C 137.554 -0.329793 -1.92191 0
M  V30 1405 O 136.824 0.653409 -1.84682 0
M  V30 1406 H 135.404 -0.597441 -0.448411 0
M  V30 1407 H 138.066 -1.87637 -0.527096 0
M  V30 1408 H 137.162 -2.43882 -1.94751 0
M  V30 1409 N 137.463 0.71206 -1.40597 0
M  V30 1410 C 138.395 1.83704 -1.37061 0
M  V30 1411 C 139.408 1.60453 -0.275426 0
M  V30 1412 O 140.597 1.70262 -0.53602 0
M  V30 1413 C 137.697 3.20172 -1.11099 0
M  V30 1414 C 136.87 3.7059 -2.3234 0
M  V30 1415 C 135.929 4.85681 -2.02485 0
M  V30 1416 O 134.955 4.9815 -2.75382 0
M  V30 1417 N 136.157 5.71735 -1.00497 0
M  V30 1418 H 138.922 1.87235 -2.34016 0
M  V30 1419 H 136.483 0.893739 -1.34996 0
M  V30 1420 H 138.475 3.94768 -0.891064 0
M  V30 1421 H 137.045 3.11767 -0.227989 0
M  V30 1422 H 136.265 2.87085 -2.7014 0
M  V30 1423 H 137.553 4.01011 -3.13157 0
M  V30 1424 H 136.951 5.64275 -0.401298 0
M  V30 1425 H 135.508 6.463 -0.844942 0
M  V30 1426 N 138.941 1.26152 0.944643 0
M  V30 1427 C 139.891 1.04081 2.02857 0
M  V30 1428 C 140.875 -0.0256555 1.6088 0
M  V30 1429 O 142.067 0.190884 1.75968 0
M  V30 1430 C 139.196 0.672118 3.36656 0
M  V30 1431 C 138.282 1.77586 3.85128 0
M  V30 1432 N 138.673 3.01272 4.06287 0
M  V30 1433 C 136.971 1.65867 4.1401 0
M  V30 1434 C 137.672 3.72983 4.46384 0
M  V30 1435 N 136.648 3.00653 4.52889 0
M  V30 1436 H 140.45 1.97968 2.17223 0
M  V30 1437 H 137.964 1.16618 1.13022 0
M  V30 1438 H 139.961 0.495166 4.13949 0
M  V30 1439 H 138.621 -0.259307 3.23663 0
M  V30 1440 H 139.632 3.37213 3.93075 0
M  V30 1441 H 136.309 0.796907 4.09824 0
M  V30 1442 H 137.699 4.792 4.70975 0
M  V30 1443 N 140.419 -1.14872 1.07899 0
M  V30 1444 C 141.351 -2.19425 0.662231 0
M  V30 1445 C 142.364 -1.60231 -0.288079 0
M  V30 1446 O 143.553 -1.78336 -0.076534 0
M  V30 1447 C 140.653 -3.38867 -0.0470695 0
M  V30 1448 C 139.826 -4.27597 0.920831 0
M  V30 1449 C 138.885 -5.25616 0.247805 0
M  V30 1450 O 137.911 -5.62189 0.890599 0
M  V30 1451 N 139.113 -5.71746 -1.00435 0
M  V30 1452 H 141.878 -2.55797 1.56166 0
M  V30 1453 H 139.439 -1.30042 0.964404 0
M  V30 1454 H 141.431 -4.01497 -0.50813 0
M  V30 1455 H 140.001 -3.00864 -0.848523 0
M  V30 1456 H 139.221 -3.61982 1.56087 0
M  V30 1457 H 140.509 -4.83748 1.57688 0
M  V30 1458 H 139.907 -5.44153 -1.54642 0
M  V30 1459 H 138.464 -6.36389 -1.40899 0
M  V30 1460 N 141.898 -0.863906 -1.31812 0
M  V30 1461 C 143.144 -0.472535 -1.97218 0
M  V30 1462 C 143.477 0.971394 -1.68159 0
M  V30 1463 O 142.752 1.68309 -0.974798 0
M  V30 1464 C 143.035 -0.723054 -3.52766 0
M  V30 1465 C 142.888 -2.21608 -3.91421 0
M  V30 1466 C 144.207 -0.185522 -4.39709 0
M  V30 1467 H 141.326 -0.173158 -0.71637 0
M  V30 1468 H 143.968 -1.08403 -1.56041 0
M  V30 1469 H 142.118 -0.202577 -3.87971 0
M  V30 1470 H 143.79 -2.80334 -3.66347 0
M  V30 1471 H 142.033 -2.691 -3.40246 0
M  V30 1472 H 142.704 -2.34203 -4.99853 0
M  V30 1473 H 145.18 -0.630726 -4.11292 0
M  V30 1474 H 144.056 -0.390306 -5.47511 0
M  V30 1475 H 144.317 0.912229 -4.32586 0
M  V30 1476 N 143.376 1.44774 -0.622745 0
M  V30 1477 C 144.792 1.56986 -0.287652 0
M  V30 1478 C 144.992 1.61167 1.20944 0
M  V30 1479 O 144.048 1.55015 1.99315 0
M  V30 1480 C 145.361 2.84551 -0.972188 0
M  V30 1481 C 146.909 2.9825 -0.949536 0
M  V30 1482 C 147.384 4.28605 -1.61437 0
M  V30 1483 N 148.875 4.35399 -1.58057 0
M  V30 1484 C 149.61 5.34964 -2.064 0
M  V30 1485 N 149.106 6.40981 -2.62897 0
M  V30 1486 N 150.899 5.26419 -1.97078 0
M  V30 1487 H 143.05 1.40304 -1.59463 0
M  V30 1488 H 145.313 0.671794 -0.668878 0
M  V30 1489 H 145.019 2.87417 -2.02693 0
M  V30 1490 H 144.893 3.73807 -0.504771 0
M  V30 1491 H 147.28 2.94941 0.0967067 0
M  V30 1492 H 147.361 2.10364 -1.45536 0
M  V30 1493 H 147.005 4.32672 -2.66002 0
M  V30 1494 H 146.935 5.15334 -1.08344 0
M  V30 1495 H 149.426 3.59397 -1.16801 0
M  V30 1496 H 149.739 7.13225 -2.97539 0
M  V30 1497 H 148.084 6.4169 -2.66943 0
M  V30 1498 H 151.275 4.42504 -1.52669 0
M  V30 1499 H 151.448 6.03861 -2.35066 0
M  V30 1500 N 144.854 0.36279 1.53368 0
M  V30 1501 C 145.787 -0.528507 2.21996 0
M  V30 1502 C 146.765 -1.0852 1.21087 0
M  V30 1503 O 147.949 -1.14186 1.4998 0
M  V30 1504 C 145.076 -1.72893 2.91249 0
M  V30 1505 C 144.122 -1.29994 4.06207 0
M  V30 1506 S 144.955 -0.303575 5.34639 0
M  V30 1507 C 146.111 -1.51039 6.07403 0
M  V30 1508 H 146.344 0.0543423 2.9725 0
M  V30 1509 H 143.877 0.146889 1.537 0
M  V30 1510 H 145.835 -2.41751 3.31763 0
M  V30 1511 H 144.496 -2.28303 2.15724 0
M  V30 1512 H 143.689 -2.19549 4.53667 0
M  V30 1513 H 143.291 -0.690608 3.67569 0
M  V30 1514 H 145.583 -2.44186 6.31965 0
M  V30 1515 H 146.526 -1.07721 6.99858 0
M  V30 1516 H 146.934 -1.71518 5.37812 0
M  V30 1517 N 146.332 -1.57332 0.0918853 0
M  V30 1518 C 147.264 -2.10869 -0.898168 0
M  V30 1519 C 148.277 -1.04521 -1.24817 0
M  V30 1520 O 149.466 -1.31977 -1.20184 0
M  V30 1521 C 146.566 -2.57083 -2.2082 0
M  V30 1522 C 145.739 -3.87229 -2.03402 0
M  V30 1523 C 144.798 -4.19324 -3.17889 0
M  V30 1524 O 143.824 -4.88598 -2.91994 0
M  V30 1525 N 145.026 -3.74471 -4.43567 0
M  V30 1526 H 147.791 -2.96439 -0.440943 0
M  V30 1527 H 145.352 -1.61631 -0.0933064 0
M  V30 1528 H 147.344 -2.75602 -2.96354 0
M  V30 1529 H 145.914 -1.76541 -2.57977 0
M  V30 1530 H 145.134 -3.7789 -1.12218 0
M  V30 1531 H 146.422 -4.72379 -1.89038 0
M  V30 1532 H 145.82 -3.18546 -4.67488 0
M  V30 1533 H 144.377 -3.98151 -5.16061 0
M  V30 1534 N 147.81 0.181792 -1.56548 0
M  V30 1535 C 149.059 0.898348 -1.8059 0
M  V30 1536 C 149.372 1.83862 -0.667379 0
M  V30 1537 O 150.578 2.59678 -0.792446 0
M  V30 1538 C 149.034 1.64791 -3.19956 0
M  V30 1539 C 148.642 0.751789 -4.41647 0
M  V30 1540 C 150.386 2.35331 -3.53298 0
M  V30 1541 C 148.293 1.50098 -5.72035 0
M  V30 1542 H 147.223 0.339194 -0.673397 0
M  V30 1543 H 149.874 0.151413 -1.82874 0
M  V30 1544 H 148.256 2.43921 -3.11959 0
M  V30 1545 H 149.43 -0.0018076 -4.608 0
M  V30 1546 H 147.745 0.156562 -4.16106 0
M  V30 1547 H 150.342 2.91958 -4.47956 0
M  V30 1548 H 150.685 3.10164 -2.77676 0
M  V30 1549 H 151.218 1.63154 -3.62803 0
M  V30 1550 H 147.957 0.795175 -6.50659 0
M  V30 1551 H 147.477 2.22817 -5.56878 0
M  V30 1552 H 149.156 2.05125 -6.13622 0
M  V30 1553 N 149.288 1.51039 0.449983 0
M  V30 1554 C 150.218 1.74379 1.55288 0
M  V30 1555 C 151.199 0.593236 1.5942 0
M  V30 1556 O 152.384 0.834625 1.7535 0
M  V30 1557 C 149.514 1.85728 2.93466 0
M  V30 1558 C 148.468 3.01078 3.04197 0
M  V30 1559 C 147.794 2.97595 4.44231 0
M  V30 1560 C 149.094 4.41254 2.7945 0
M  V30 1561 H 150.788 2.66725 1.36008 0
M  V30 1562 H 148.334 1.2835 0.652864 0
M  V30 1563 H 150.287 2.0064 3.70569 0
M  V30 1564 H 149.011 0.900207 3.13949 0
M  V30 1565 H 147.67 2.85851 2.29531 0
M  V30 1566 H 147.318 1.99691 4.61663 0
M  V30 1567 H 147.018 3.75046 4.52343 0
M  V30 1568 H 148.542 3.14583 5.23326 0
M  V30 1569 H 149.956 4.56897 3.46292 0
M  V30 1570 H 148.353 5.20315 2.98985 0
M  V30 1571 H 149.423 4.52164 1.75144 0
M  V30 1572 N 150.766 -0.704594 1.40972 0
M  V30 1573 C 151.699 -1.82861 1.36518 0
M  V30 1574 C 152.677 -1.6091 0.23382 0
M  V30 1575 O 153.861 -1.83778 0.419271 0
M  V30 1576 C 150.988 -3.1939 1.12729 0
M  V30 1577 C 150.034 -3.60148 2.28463 0
M  V30 1578 S 150.867 -3.65994 3.90907 0
M  V30 1579 C 152.023 -5.05264 3.69403 0
M  V30 1580 H 152.256 -1.86361 2.3164 0
M  V30 1581 H 149.789 -0.872439 1.27389 0
M  V30 1582 H 151.747 -3.98211 0.996893 0
M  V30 1583 H 150.408 -3.1351 0.192427 0
M  V30 1584 H 149.601 -4.59309 2.07489 0
M  V30 1585 H 149.203 -2.88612 2.37863 0
M  V30 1586 H 151.495 -5.92504 3.28551 0
M  V30 1587 H 152.438 -5.31278 4.68134 0
M  V30 1588 H 152.846 -4.76377 3.02862 0
M  V30 1589 N 152.244 -1.26651 -0.937939 0
M  V30 1590 C 153.493 -1.11775 -1.67897 0
M  V30 1591 C 153.806 0.33794 -1.92659 0
M  V30 1592 O 155.012 0.607434 -2.64618 0
M  V30 1593 C 153.468 -1.9523 -3.02346 0
M  V30 1594 C 153.076 -3.45393 -2.8532 0
M  V30 1595 C 154.82 -1.88972 -3.80118 0
M  V30 1596 C 152.727 -4.21083 -4.15263 0
M  V30 1597 H 151.657 -0.414696 -0.629717 0
M  V30 1598 H 154.308 -1.50988 -1.04283 0
M  V30 1599 H 152.69 -1.48853 -3.66959 0
M  V30 1600 H 153.864 -3.99561 -2.29537 0
M  V30 1601 H 152.179 -3.52921 -2.20988 0
M  V30 1602 H 154.776 -2.42805 -4.76392 0
M  V30 1603 H 155.119 -0.86113 -4.07296 0
M  V30 1604 H 155.652 -2.33189 -3.22285 0
M  V30 1605 H 152.391 -5.24425 -3.93267 0
M  V30 1606 H 151.911 -3.71695 -4.70747 0
M  V30 1607 H 153.59 -4.29706 -4.83696 0
M  V30 1608 N 153.722 1.14298 -1.08507 0
M  V30 1609 C 155.138 1.37347 -0.812901 0
M  V30 1610 C 155.338 1.93052 0.577325 0
M  V30 1611 O 154.394 2.14389 1.33393 0
M  V30 1612 C 155.707 2.33359 -1.89642 0
M  V30 1613 C 157.255 2.46996 -1.92255 0
M  V30 1614 C 157.73 3.46309 -2.99724 0
M  V30 1615 N 159.221 3.53853 -2.98902 0
M  V30 1616 C 159.956 4.3055 -3.787 0
M  V30 1617 N 159.452 5.10482 -4.6838 0
M  V30 1618 N 161.245 4.25757 -3.66998 0
M  V30 1619 H 153.396 0.764867 -1.9815 0
M  V30 1620 H 155.659 0.398966 -0.859959 0
M  V30 1621 H 155.365 1.99565 -2.89597 0
M  V30 1622 H 155.239 3.33274 -1.76659 0
M  V30 1623 H 157.626 2.80081 -0.929445 0
M  V30 1624 H 157.707 1.47039 -2.09316 0
M  V30 1625 H 157.351 3.13957 -3.99241 0
M  V30 1626 H 157.281 4.46049 -2.79907 0
M  V30 1627 H 159.772 2.96812 -2.33904 0
M  V30 1628 H 160.085 5.66284 -5.25873 0
M  V30 1629 H 158.43 5.09747 -4.72422 0
M  V30 1630 H 161.621 3.62383 -2.96304 0
M  V30 1631 H 161.794 4.85279 -4.29427 0
M  V30 1632 N 155.201 0.870884 1.31352 0
M  V30 1633 C 156.431 0.496049 2.00557 0
M  V30 1634 C 156.839 -0.916241 1.65534 0
M  V30 1635 O 156.182 -1.61188 0.881134 0
M  V30 1636 C 156.244 0.574418 3.54881 0
M  V30 1637 C 155.908 1.94849 4.1338 0
M  V30 1638 C 156.905 2.91611 4.30417 0
M  V30 1639 C 154.59 2.25005 4.49086 0
M  V30 1640 C 156.584 4.16672 4.82352 0
M  V30 1641 C 154.271 3.50315 5.00722 0
M  V30 1642 C 155.269 4.45964 5.17306 0
M  V30 1643 O 154.957 5.69052 5.67833 0
M  V30 1644 H 154.689 0.191664 0.64826 0
M  V30 1645 H 157.243 1.17409 1.68536 0
M  V30 1646 H 155.473 -0.160549 3.86367 0
M  V30 1647 H 157.162 0.212879 4.05341 0
M  V30 1648 H 157.928 2.69622 4.03149 0
M  V30 1649 H 153.807 1.51332 4.35453 0
M  V30 1650 H 157.351 4.91336 4.95211 0
M  V30 1651 H 153.248 3.72147 5.27424 0
M  V30 1652 H 154.016 5.71236 5.86201 0
M  V30 1653 N 156.679 -1.44442 0.630414 0
M  V30 1654 C 158.09 -1.85434 0.217063 0
M  V30 1655 C 158.441 -1.52748 -1.23136 0
M  V30 1656 O 157.566 -0.965205 -1.93682 0
M  V30 1657 C 158.161 -3.36581 0.387168 0
M  V30 1658 C 156.72 -3.76389 0.0283297 0
M  V30 1659 C 155.867 -2.68296 0.700889 0
M  V30 1660 H 158.818 -1.34919 0.83562 0
M  V30 1661 H 158.839 -3.78657 -0.374086 0
M  V30 1662 H 158.351 -3.60339 1.44144 0
M  V30 1663 H 156.452 -3.58246 -1.02423 0
M  V30 1664 H 156.565 -4.77095 0.437892 0
M  V30 1665 H 154.929 -2.54335 0.136267 0
M  V30 1666 H 155.712 -2.94887 1.75774 0
M  V30 1667 N 158.157 -0.370918 -1.53173 0
M  V30 1668 C 159.382 0.220293 -2.06227 0
M  V30 1669 C 159.807 1.41243 -1.24225 0
M  V30 1670 O 159.165 1.79387 -0.262645 0
M  V30 1671 C 159.213 0.586663 -3.55796 0
M  V30 1672 O 158.317 1.68317 -3.76488 0
M  V30 1673 H 157.658 0.0308099 -0.663285 0
M  V30 1674 H 160.188 -0.533068 -1.97534 0
M  V30 1675 H 160.198 0.85617 -3.98916 0
M  V30 1676 H 158.873 -0.285013 -4.14922 0
M  V30 1677 H 157.45 1.40881 -3.45264 0
M  V30 1678 N 159.635 1.57281 -0.100228 0
M  V30 1679 C 160.86 1.99302 0.573881 0
M  V30 1680 C 161.285 0.979059 1.60611 0
M  V30 1681 O 160.643 -0.0517803 1.81226 0
M  V30 1682 C 160.691 3.40274 1.19358 0
M  V30 1683 O 159.795 3.41676 2.30935 0
M  V30 1684 H 159.136 0.647944 0.145138 0
M  V30 1685 H 161.666 2.03779 -0.183156 0
M  V30 1686 H 161.676 3.78078 1.53365 0
M  V30 1687 H 160.351 4.13594 0.437385 0
M  V30 1688 H 158.928 3.15672 1.98509 0
M  V30 1689 N 161.113 -0.173488 1.56642 0
M  V30 1690 C 162.045 -1.23935 1.92802 0
M  V30 1691 C 163.058 -1.40589 0.820889 0
M  V30 1692 O 164.247 -1.40631 1.09933 0
M  V30 1693 C 161.347 -2.60837 2.16373 0
M  V30 1694 C 160.52 -2.6551 3.47596 0
M  V30 1695 C 159.579 -3.8376 3.60021 0
M  V30 1696 O 158.605 -3.69859 4.32658 0
M  V30 1697 N 159.807 -5.00127 2.94709 0
M  V30 1698 H 162.572 -0.932236 2.84832 0
M  V30 1699 H 160.133 -0.363268 1.57772 0
M  V30 1700 H 162.125 -3.38407 2.21952 0
M  V30 1701 H 160.695 -2.83948 1.30738 0
M  V30 1702 H 159.915 -1.74052 3.53694 0
M  V30 1703 H 161.203 -2.65641 4.33949 0
M  V30 1704 H 160.601 -5.14322 2.35563 0
M  V30 1705 H 159.158 -5.75567 3.05886 0
M  V30 1706 N 162.591 -1.51276 -0.441967 0
M  V30 1707 C 163.521 -1.752 -1.54361 0
M  V30 1708 C 164.502 -0.601682 -1.59103 0
M  V30 1709 O 165.687 -0.843913 -1.74905 0
M  V30 1710 C 162.817 -1.87282 -2.92477 0
M  V30 1711 C 161.771 -3.02687 -3.02596 0
M  V30 1712 C 161.097 -2.99947 -4.42647 0
M  V30 1713 C 162.397 -4.4273 -2.77106 0
M  V30 1714 H 164.091 -2.67442 -1.34592 0
M  V30 1715 H 161.637 -1.28694 -0.646048 0
M  V30 1716 H 163.59 -2.02602 -3.695 0
M  V30 1717 H 162.314 -0.916844 -3.13467 0
M  V30 1718 H 160.973 -2.87065 -2.28012 0
M  V30 1719 H 160.621 -2.02136 -4.60597 0
M  V30 1720 H 160.321 -3.77439 -4.50348 0
M  V30 1721 H 161.845 -3.17354 -5.2165 0
M  V30 1722 H 163.259 -4.58727 -3.43864 0
M  V30 1723 H 161.656 -5.21893 -2.96222 0
M  V30 1724 H 162.726 -4.53087 -1.72744 0
M  V30 1725 N 164.069 0.697108 -1.41344 0
M  V30 1726 C 165.317 1.45426 -1.40341 0
M  V30 1727 C 165.638 1.94996 -0.0128787 0
M  V30 1728 O 164.908 1.71599 0.945027 0
M  V30 1729 H 163.488 0.539594 -0.516573 0
M  V30 1730 H 166.15 0.825201 -1.76569 0
M  V30 1731 H 165.246 2.31817 -2.08967 0
M  V30 1732 N 165.547 1.27147 0.931209 0
M  V30 1733 C 166.457 1.11372 2.06478 0
M  V30 1734 C 167.473 0.044645 1.73943 0
M  V30 1735 O 168.649 0.250417 1.99837 0
M  V30 1736 C 165.714 0.758838 3.38294 0
M  V30 1737 C 164.775 1.90841 3.84549 0
M  V30 1738 C 164.008 1.57036 5.10074 0
M  V30 1739 O 164.231 0.476645 5.68405 0
M  V30 1740 O 163.165 2.40839 5.51616 0
M  V30 1741 H 166.991 2.06493 2.22698 0
M  V30 1742 H 164.576 1.06301 1.04978 0
M  V30 1743 H 166.458 0.574098 4.17471 0
M  V30 1744 H 165.133 -0.162879 3.2329 0
M  V30 1745 H 164.04 2.14819 3.06274 0
M  V30 1746 H 165.373 2.81021 4.04089 0
M  V30 1747 N 167.025 -1.13721 1.09112 0
M  V30 1748 C 167.958 -2.18094 0.67158 0
M  V30 1749 C 168.936 -1.59414 -0.320299 0
M  V30 1750 O 170.12 -1.87183 -0.222444 0
M  V30 1751 C 167.247 -3.38698 -0.0111189 0
M  V30 1752 C 166.293 -4.15966 0.942055 0
M  V30 1753 S 167.126 -4.7604 2.45246 0
M  V30 1754 C 168.282 -5.99994 1.78208 0
M  V30 1755 H 168.515 -2.53344 1.55577 0
M  V30 1756 H 166.048 -1.24967 0.906789 0
M  V30 1757 H 168.006 -4.08559 -0.398716 0
M  V30 1758 H 166.667 -3.01756 -0.871905 0
M  V30 1759 H 165.86 -5.02318 0.411396 0
M  V30 1760 H 165.462 -3.51745 1.2709 0
M  V30 1761 H 167.754 -6.68441 1.10424 0
M  V30 1762 H 168.697 -6.57662 2.62463 0
M  V30 1763 H 169.105 -5.50432 1.25238 0
M  V30 1764 N 168.503 -0.877838 -1.30888 0
M  V30 1765 C 169.728 -0.506629 -2.01117 0
M  V30 1766 C 170.153 0.895564 -1.65412 0
M  V30 1767 O 169.511 1.5923 -0.866922 0
M  V30 1768 C 169.559 -0.680223 -3.54126 0
M  V30 1769 O 168.663 0.277033 -4.11468 0
M  V30 1770 H 168.004 -0.200518 -0.633 0
M  V30 1771 H 170.534 -1.18342 -1.66902 0
M  V30 1772 H 170.544 -0.5765 -4.03907 0
M  V30 1773 H 169.219 -1.70261 -3.79452 0
M  V30 1774 H 167.796 0.127606 -3.72682 0
M  V30 1775 N 169.982 1.44106 -0.638065 0
M  V30 1776 C 170.912 2.33448 0.0494287 0
M  V30 1777 C 171.893 1.48606 0.827672 0
M  V30 1778 O 173.078 1.77308 0.792173 0
M  V30 1779 C 170.208 3.31771 1.02691 0
M  V30 1780 C 169.162 4.26485 0.359823 0
M  V30 1781 C 168.488 5.14729 1.44769 0
M  V30 1782 C 169.788 5.17056 -0.738296 0
M  V30 1783 H 171.482 2.91183 -0.696636 0
M  V30 1784 H 169.028 1.40014 -0.336456 0
M  V30 1785 H 170.981 3.93161 1.51666 0
M  V30 1786 H 169.705 2.7226 1.80395 0
M  V30 1787 H 168.364 3.66437 -0.10934 0
M  V30 1788 H 168.012 4.51566 2.21578 0
M  V30 1789 H 167.712 5.78913 1.00668 0
M  V30 1790 H 169.236 5.78991 1.93911 0
M  V30 1791 H 170.65 5.72342 -0.331354 0
M  V30 1792 H 169.047 5.89879 -1.10286 0
M  V30 1793 H 170.117 4.57652 -1.60258 0
M  V30 1794 N 171.46 0.379036 1.52974 0
M  V30 1795 C 172.37 -0.468639 2.29872 0
M  V30 1796 C 173.386 -1.08067 1.36373 0
M  V30 1797 O 174.562 -1.08871 1.69438 0
M  V30 1798 C 171.627 -1.58594 3.083 0
M  V30 1799 C 170.688 -1.00007 4.17489 0
M  V30 1800 C 169.921 -2.06413 4.92168 0
M  V30 1801 O 170.144 -3.27751 4.66835 0
M  V30 1802 O 169.078 -1.68717 5.7777 0
M  V30 1803 H 172.904 0.157508 3.03291 0
M  V30 1804 H 170.489 0.143035 1.48714 0
M  V30 1805 H 172.371 -2.23525 3.57232 0
M  V30 1806 H 171.046 -2.19724 2.37703 0
M  V30 1807 H 169.953 -0.314299 3.72777 0
M  V30 1808 H 171.286 -0.433135 4.90291 0
M  V30 1809 N 172.938 -1.57226 0.108567 0
M  V30 1810 C 173.848 -2.18292 -0.859401 0
M  V30 1811 C 174.864 -1.15612 -1.30038 0
M  V30 1812 O 176.04 -1.48039 -1.36552 0
M  V30 1813 C 173.105 -2.762 -2.09558 0
M  V30 1814 C 172.166 -3.93881 -1.70752 0
M  V30 1815 C 171.399 -4.49018 -2.88477 0
M  V30 1816 O 171.622 -4.03068 -4.036 0
M  V30 1817 O 170.556 -5.39852 -2.66164 0
M  V30 1818 H 174.382 -3.01441 -0.369769 0
M  V30 1819 H 171.967 -1.48945 -0.1165 0
M  V30 1820 H 173.849 -3.13156 -2.81978 0
M  V30 1821 H 172.524 -1.96089 -2.57548 0
M  V30 1822 H 171.431 -3.61713 -0.954714 0
M  V30 1823 H 172.764 -4.75396 -1.27513 0
M  V30 1824 N 174.416 0.165178 -1.56732 0
M  V30 1825 C 175.366 1.20917 -1.93295 0
M  V30 1826 C 176.35 1.39488 -0.801985 0
M  V30 1827 O 177.542 1.41356 -1.06525 0
M  V30 1828 C 174.671 2.54718 -2.3016 0
M  V30 1829 C 173.757 2.39815 -3.49785 0
M  V30 1830 N 174.148 1.94637 -4.66851 0
M  V30 1831 C 172.446 2.70623 -3.54513 0
M  V30 1832 C 173.147 1.92344 -5.4898 0
M  V30 1833 N 172.123 2.34978 -4.9019 0
M  V30 1834 H 175.925 0.851675 -2.81289 0
M  V30 1835 H 173.439 0.373399 -1.58049 0
M  V30 1836 H 175.436 3.30165 -2.54552 0
M  V30 1837 H 174.096 2.91265 -1.43508 0
M  V30 1838 H 175.107 1.6488 -4.90953 0
M  V30 1839 H 171.784 3.11167 -2.78354 0
M  V30 1840 H 173.174 1.5906 -6.52801 0
M  V30 1841 N 175.894 1.51508 0.433938 0
M  V30 1842 C 177.119 1.68443 1.21003 0
M  V30 1843 C 177.544 0.382636 1.84167 0
M  V30 1844 O 176.902 -0.65755 1.68956 0
M  V30 1845 C 176.95 2.80405 2.26727 0
M  V30 1846 O 176.054 2.44245 3.32292 0
M  V30 1847 H 175.395 0.561536 0.354363 0
M  V30 1848 H 177.925 1.9809 0.512024 0
M  V30 1849 H 177.935 3.0459 2.71457 0
M  V30 1850 H 176.61 3.74867 1.80132 0
M  V30 1851 H 175.187 2.30644 2.93015 0
M  V30 1852 N 177.372 -0.689602 1.41712 0
M  V30 1853 C 178.304 -1.815 1.39966 0
M  V30 1854 C 179.317 -1.59995 0.300917 0
M  V30 1855 O 180.506 -1.69387 0.563039 0
M  V30 1856 C 177.606 -3.18364 1.16179 0
M  V30 1857 C 176.779 -3.66847 2.38206 0
M  V30 1858 C 175.838 -4.82398 2.10186 0
M  V30 1859 O 174.864 -4.93706 2.83272 0
M  V30 1860 N 176.066 -5.70064 1.0958 0
M  V30 1861 H 178.831 -1.83488 2.36965 0
M  V30 1862 H 176.392 -0.872149 1.36401 0
M  V30 1863 H 178.384 -3.93301 0.953756 0
M  V30 1864 H 176.954 -3.11365 0.27756 0
M  V30 1865 H 176.174 -2.82751 2.74673 0
M  V30 1866 H 177.462 -3.95978 3.19498 0
M  V30 1867 H 176.86 -5.63565 0.491019 0
M  V30 1868 H 175.417 -6.44874 0.947656 0
M  V30 1869 N 178.85 -1.27639 -0.924453 0
M  V30 1870 C 180.09 -1.15407 -1.68703 0
M  V30 1871 C 180.454 0.294581 -1.89727 0
M  V30 1872 O 181.655 0.539385 -2.63333 0
M  V30 1873 C 179.926 -1.9195 -3.0148 0
M  V30 1874 S 181.485 -1.95969 -3.92609 0
M  V30 1875 H 178.303 -0.411937 -0.579507 0
M  V30 1876 H 180.905 -1.61592 -1.10038 0
M  V30 1877 H 179.609 -2.96387 -2.83871 0
M  V30 1878 H 179.14 -1.46272 -3.65196 0
M  V30 1879 H 181.155 -1.05846 -4.84779 0
M  V30 1880 N 180.328 1.1314 -1.09713 0
M  V30 1881 C 181.238 2.22242 -0.751367 0
M  V30 1882 C 182.254 1.72224 0.247938 0
M  V30 1883 O 183.43 2.01205 0.0885463 0
M  V30 1884 C 180.495 3.46231 -0.180274 0
M  V30 1885 C 179.556 4.11125 -1.2359 0
M  V30 1886 C 178.789 5.29195 -0.691966 0
M  V30 1887 O 179.012 5.68342 0.48414 0
M  V30 1888 O 177.946 5.84214 -1.44838 0
M  V30 1889 H 181.772 2.54197 -1.66186 0
M  V30 1890 H 179.357 1.21331 -0.871735 0
M  V30 1891 H 181.239 4.21185 0.134739 0
M  V30 1892 H 179.914 3.1597 0.703185 0
M  V30 1893 H 178.821 3.37985 -1.60366 0
M  V30 1894 H 180.154 4.45524 -2.09211 0
M  V30 1895 N 181.806 0.884767 1.30421 0
M  V30 1896 C 183.046 0.509806 1.9794 0
M  V30 1897 C 183.41 -0.923736 1.68319 0
M  V30 1898 O 184.611 -1.40481 2.29169 0
M  V30 1899 C 182.882 0.776732 3.48858 0
M  V30 1900 S 184.441 0.503843 4.35898 0
M  V30 1901 H 181.259 0.189699 0.685227 0
M  V30 1902 H 183.861 1.14399 1.58535 0
M  V30 1903 H 182.565 1.81857 3.67908 0
M  V30 1904 H 182.096 0.1301 3.93185 0
M  V30 1905 H 184.111 -0.657625 4.91823 0
M  V30 1906 N 183.284 -1.43765 0.645699 0
M  V30 1907 C 184.7 -1.56509 0.312591 0
M  V30 1908 C 184.9 -1.6307 -1.18365 0
M  V30 1909 O 183.956 -1.58167 -1.96824 0
M  V30 1910 C 185.269 -2.82968 1.01733 0
M  V30 1911 C 186.817 -2.96701 0.996865 0
M  V30 1912 C 187.292 -4.25982 1.68236 0
M  V30 1913 N 188.783 -4.32829 1.64964 0
M  V30 1914 C 189.518 -5.31613 2.14885 0
M  V30 1915 N 189.014 -6.36718 2.73061 0
M  V30 1916 N 190.807 -5.23217 2.05428 0
M  V30 1917 H 182.958 -1.3775 1.61675 0
M  V30 1918 H 185.221 -0.661067 0.679481 0
M  V30 1919 H 184.927 -2.84156 2.0724 0
M  V30 1920 H 184.801 -3.72957 0.564177 0
M  V30 1921 H 187.188 -2.95058 -0.0497719 0
M  V30 1922 H 187.269 -2.08022 1.48865 0
M  V30 1923 H 186.913 -4.28386 2.72852 0
M  V30 1924 H 186.843 -5.13545 1.16529 0
M  V30 1925 H 189.334 -3.57493 1.22503 0
M  V30 1926 H 189.647 -7.08401 3.08848 0
M  V30 1927 H 187.992 -6.37362 2.77118 0
M  V30 1928 H 191.183 -4.40019 1.59689 0
M  V30 1929 H 191.356 -6.00045 2.44643 0
M  V30 1930 N 184.763 -0.387143 -1.52771 0
M  V30 1931 C 186.174 0.0873634 -1.86495 0
M  V30 1932 C 186.525 1.46336 -1.30691 0
M  V30 1933 O 185.65 2.068 -0.637409 0
M  V30 1934 C 186.245 0.165305 -3.38396 0
M  V30 1935 C 184.804 0.584101 -3.7184 0
M  V30 1936 C 183.951 -0.255279 -2.76122 0
M  V30 1937 H 186.902 -0.605104 -1.46711 0
M  V30 1938 H 186.923 0.984848 -3.67534 0
M  V30 1939 H 186.435 -0.836301 -3.78982 0
M  V30 1940 H 184.536 1.59315 -3.36823 0
M  V30 1941 H 184.649 0.343749 -4.77865 0
M  V30 1942 H 183.013 0.279126 -2.53166 0
M  V30 1943 H 183.796 -1.25482 -3.19545 0
M  V30 1944 N 186.241 1.57166 -0.116904 0
M  V30 1945 C 187.188 2.15202 0.83408 0
M  V30 1946 C 188.158 1.07644 1.26499 0
M  V30 1947 O 189.343 1.35541 1.34288 0
M  V30 1948 C 186.483 2.75405 2.07957 0
M  V30 1949 C 185.596 3.97264 1.69721 0
M  V30 1950 C 184.731 4.45561 2.89221 0
M  V30 1951 C 183.77 5.59956 2.47215 0
M  V30 1952 N 182.907 6.03006 3.59622 0
M  V30 1953 H 187.747 2.96141 0.332335 0
M  V30 1954 H 185.284 1.46309 0.152349 0
M  V30 1955 H 187.242 3.08439 2.80929 0
M  V30 1956 H 185.872 1.97159 2.55594 0
M  V30 1957 H 184.924 3.70404 0.866316 0
M  V30 1958 H 186.236 4.80226 1.34849 0
M  V30 1959 H 185.39 4.80493 3.7042 0
M  V30 1960 H 184.129 3.61544 3.27318 0
M  V30 1961 H 183.134 5.2463 1.64448 0
M  V30 1962 H 184.359 6.45738 2.10238 0
M  V30 1963 H 182.305 5.21931 3.97396 0
M  V30 1964 H 182.222 6.80819 3.28667 0
M  V30 1965 H 183.49 6.42576 4.41267 0
M  V30 1966 N 187.719 -0.156864 1.56817 0
M  V30 1967 C 188.666 -1.19394 1.97519 0
M  V30 1968 C 189.636 -1.4322 0.841265 0
M  V30 1969 O 190.821 -1.55719 1.10255 0
M  V30 1970 C 187.961 -2.52483 2.35258 0
M  V30 1971 C 187.074 -2.35914 3.61896 0
M  V30 1972 C 186.209 -3.61969 3.88782 0
M  V30 1973 C 185.248 -3.40395 5.08722 0
M  V30 1974 N 184.385 -4.58556 5.31668 0
M  V30 1975 H 189.225 -0.839845 2.85921 0
M  V30 1976 H 186.762 -0.403264 1.41464 0
M  V30 1977 H 188.72 -3.30071 2.55165 0
M  V30 1978 H 187.35 -2.85859 1.49949 0
M  V30 1979 H 186.402 -1.49429 3.49821 0
M  V30 1980 H 187.714 -2.15926 4.49641 0
M  V30 1981 H 186.868 -4.47989 4.09135 0
M  V30 1982 H 185.607 -3.84951 2.9944 0
M  V30 1983 H 184.612 -2.52763 4.88253 0
M  V30 1984 H 185.837 -3.18822 5.99608 0
M  V30 1985 H 183.783 -4.81729 4.45279 0
M  V30 1986 H 183.7 -4.41535 6.13664 0
M  V30 1987 H 184.968 -5.45817 5.5651 0
M  V30 1988 N 189.197 -1.51736 -0.425897 0
M  V30 1989 C 190.144 -1.73875 -1.51776 0
M  V30 1990 C 191.114 -0.580702 -1.55618 0
M  V30 1991 O 192.299 -0.81641 -1.72451 0
M  V30 1992 C 189.439 -1.88012 -2.89388 0
M  V30 1993 C 188.552 -3.15606 -2.94986 0
M  V30 1994 C 187.687 -3.20271 -4.23793 0
M  V30 1995 C 186.726 -4.42134 -4.23302 0
M  V30 1996 N 185.863 -4.44284 -5.43651 0
M  V30 1997 H 190.703 -2.67071 -1.32201 0
M  V30 1998 H 188.24 -1.32351 -0.642008 0
M  V30 1999 H 190.198 -1.9419 -3.69251 0
M  V30 2000 H 188.828 -0.98213 -3.07496 0
M  V30 2001 H 187.88 -3.18681 -2.07717 0
M  V30 2002 H 189.192 -4.05486 -2.90486 0
M  V30 2003 H 188.346 -3.25428 -5.12036 0
M  V30 2004 H 187.085 -2.28299 -4.30965 0
M  V30 2005 H 186.09 -4.3714 -3.3345 0
M  V30 2006 H 187.315 -5.35382 -4.17783 0
M  V30 2007 H 185.261 -3.55188 -5.51523 0
M  V30 2008 H 185.178 -5.27988 -5.41078 0
M  V30 2009 H 186.446 -4.53649 -6.33895 0
M  V30 2010 N 190.675 0.682077 -1.42076 0
M  V30 2011 C 191.952 1.43755 -1.32642 0
M  V30 2012 C 192.332 2.11063 0.0396611 0
M  V30 2013 O 191.68 2.02701 1.05474 0
M  V30 2014 C 191.89 2.44596 -2.48946 0
M  V30 2015 C 193.238 3.09454 -2.9073 0
M  V30 2016 O 194.262 2.54922 -2.48783 0
M  V30 2017 O 193.121 4.08253 -3.63307 0
M  V30 2018 H 190.215 0.640857 -0.522715 0
M  V30 2019 H 192.761 0.711415 -1.54068 0
M  V30 2020 H 191.533 1.93609 -3.40046 0
M  V30 2021 H 191.156 3.24701 -2.29467 0
M  V30 2022 N 192.153 1.28127 0.917671 0
M  V30 2023 C 193.378 1.18007 1.70555 0
M  V30 2024 C 193.803 -0.258257 1.86319 0
M  V30 2025 O 193.161 -1.1869 1.37049 0
M  V30 2026 C 193.209 1.87948 3.07746 0
M  V30 2027 O 192.313 1.18427 3.9503 0
M  V30 2028 H 191.654 0.409867 0.522403 0
M  V30 2029 H 194.184 1.69379 1.1477 0
M  V30 2030 H 194.194 1.95701 3.58001 0
M  V30 2031 H 192.869 2.92573 2.95591 0
M  V30 2032 H 191.446 1.18811 3.53466 0
M  V30 2033 N 193.631 -1.12557 1.10312 0
M  V30 2034 C 194.594 -2.16434 0.75424 0
M  V30 2035 C 195.594 -1.59278 -0.220685 0
M  V30 2036 O 196.784 -1.742 0.00230591 0
M  V30 2037 C 193.916 -3.40699 0.116987 0
M  V30 2038 H 195.109 -2.48811 1.67431 0
M  V30 2039 H 192.662 -1.27542 0.903475 0
M  V30 2040 H 193.397 -3.13921 -0.813877 0
M  V30 2041 H 193.182 -3.83459 0.818613 0
M  V30 2042 H 194.672 -4.17451 -0.111387 0
M  V30 2043 N 195.109 -0.891671 -1.2995 0
M  V30 2044 C 196.355 -0.514261 -1.96171 0
M  V30 2045 C 196.688 0.935506 -1.70182 0
M  V30 2046 O 195.963 1.66204 -1.01028 0
M  V30 2047 C 196.246 -0.797719 -3.51153 0
M  V30 2048 C 196.099 -2.2986 -3.86632 0
M  V30 2049 C 197.418 -0.278749 -4.39216 0
M  V30 2050 H 194.537 -0.188314 -0.712535 0
M  V30 2051 H 197.179 -1.11689 -1.53706 0
M  V30 2052 H 195.329 -0.284826 -3.87455 0
M  V30 2053 H 197.001 -2.88042 -3.60319 0
M  V30 2054 H 195.244 -2.76257 -3.34462 0
M  V30 2055 H 195.915 -2.44753 -4.94773 0
M  V30 2056 H 198.391 -0.717825 -4.09862 0
M  V30 2057 H 197.267 -0.506353 -5.46559 0
M  V30 2058 H 197.528 0.820266 -4.34424 0
M  V30 2059 N 196.587 1.43421 -0.653314 0
M  V30 2060 C 197.534 2.30768 0.0382271 0
M  V30 2061 C 198.504 1.44755 0.814576 0
M  V30 2062 O 199.689 1.73624 0.791162 0
M  V30 2063 C 196.829 3.30336 0.998599 0
M  V30 2064 C 195.942 4.31448 0.218342 0
M  V30 2065 C 195.077 5.18098 1.17252 0
M  V30 2066 C 194.116 6.10902 0.382702 0
M  V30 2067 N 193.253 6.90176 1.28848 0
M  V30 2068 H 198.093 2.89357 -0.712511 0
M  V30 2069 H 195.63 1.42548 -0.363128 0
M  V30 2070 H 197.588 3.86572 1.56901 0
M  V30 2071 H 196.218 2.73397 1.71621 0
M  V30 2072 H 195.27 3.77506 -0.46836 0
M  V30 2073 H 196.582 4.97227 -0.395812 0
M  V30 2074 H 195.736 5.7896 1.81356 0
M  V30 2075 H 194.475 4.52444 1.82058 0
M  V30 2076 H 193.48 5.49128 -0.27169 0
M  V30 2077 H 194.705 6.78598 -0.260957 0
M  V30 2078 H 192.651 6.27171 1.92334 0
M  V30 2079 H 192.568 7.52478 0.728887 0
M  V30 2080 H 193.836 7.55543 1.91766 0
M  V30 2081 N 198.065 0.39524 1.52563 0
M  V30 2082 C 199.476 -0.0774719 1.86539 0
M  V30 2083 C 199.827 -1.45641 1.31466 0
M  V30 2084 O 198.952 -2.06459 0.648367 0
M  V30 2085 C 199.547 -0.147356 3.38479 0
M  V30 2086 C 198.106 -0.564373 3.72145 0
M  V30 2087 C 197.253 0.269919 2.75983 0
M  V30 2088 H 200.204 0.612876 1.46388 0
M  V30 2089 H 200.225 -0.965343 3.68051 0
M  V30 2090 H 199.737 0.856387 3.78534 0
M  V30 2091 H 197.838 -1.57527 3.37663 0
M  V30 2092 H 197.951 -0.318402 4.78041 0
M  V30 2093 H 196.315 -0.265696 2.5331 0
M  V30 2094 H 197.098 1.27175 3.18875 0
M  V30 2095 N 199.544 -1.57102 0.125237 0
M  V30 2096 C 200.821 -1.86953 -0.575142 0
M  V30 2097 C 201.201 -1.02749 -1.84407 0
M  V30 2098 O 200.549 -0.108144 -2.28244 0
M  V30 2099 C 200.759 -3.38198 -0.861583 0
M  V30 2100 C 202.107 -4.06937 -1.21192 0
M  V30 2101 O 203.131 -3.43252 -0.951645 0
M  V30 2102 O 201.99 -5.19364 -1.70068 0
M  V30 2103 H 199.084 -0.774147 -0.290906 0
M  V30 2104 H 201.63 -1.68942 0.160211 0
M  V30 2105 H 200.402 -3.91282 0.0373647 0
M  V30 2106 H 200.025 -3.61661 -1.65188 0
M  V30 2107 N 201.022 0.148545 -1.56898 0
M  V30 2108 C 202.438 0.501131 -1.51528 0
M  V30 2109 C 202.638 1.83458 -0.833399 0
M  V30 2110 O 201.694 2.49259 -0.40328 0
M  V30 2111 C 203.007 0.512864 -2.96294 0
M  V30 2112 C 204.555 0.598487 -3.07225 0
M  V30 2113 C 205.03 0.640897 -4.53494 0
M  V30 2114 N 206.521 0.703163 -4.57832 0
M  V30 2115 C 207.256 0.756935 -5.68382 0
M  V30 2116 N 206.752 0.770147 -6.88506 0
M  V30 2117 N 208.545 0.797698 -5.56411 0
M  V30 2118 H 200.696 -0.725532 -1.99624 0
M  V30 2119 H 202.959 -0.264358 -0.910395 0
M  V30 2120 H 202.665 -0.398691 -3.49433 0
M  V30 2121 H 202.539 1.35133 -3.52163 0
M  V30 2122 H 204.926 1.50046 -2.54106 0
M  V30 2123 H 205.007 -0.267093 -2.54402 0
M  V30 2124 H 204.651 -0.256915 -5.0725 0
M  V30 2125 H 204.581 1.52295 -5.04097 0
M  V30 2126 H 207.072 0.700314 -3.71354 0
M  V30 2127 H 207.385 0.812983 -7.68512 0
M  V30 2128 H 205.73 0.738049 -6.9107 0
M  V30 2129 H 208.921 0.784535 -4.61479 0
M  V30 2130 H 209.094 0.83614 -6.42583 0
M  V30 2131 N 202.5 1.5196 0.417844 0
M  V30 2132 C 203.463 1.74065 1.49111 0
M  V30 2133 C 204.463 0.610537 1.48758 0
M  V30 2134 O 205.653 0.87832 1.50437 0
M  V30 2135 C 202.785 1.81502 2.88565 0
M  V30 2136 H 203.978 2.69869 1.30807 0
M  V30 2137 H 201.531 1.42244 0.647785 0
M  V30 2138 H 202.266 0.875813 3.1225 0
M  V30 2139 H 202.051 2.63651 2.90225 0
M  V30 2140 H 203.541 2.00376 3.66387 0
M  V30 2141 N 203.978 -0.674533 1.42435 0
M  V30 2142 C 204.941 -1.76986 1.45632 0
M  V30 2143 C 205.941 -1.5708 0.343871 0
M  V30 2144 O 207.131 -1.63367 0.604709 0
M  V30 2145 C 204.263 -3.15623 1.28822 0
M  V30 2146 H 205.456 -1.75539 2.43158 0
M  V30 2147 H 203.009 -0.884189 1.28887 0
M  V30 2148 H 203.744 -3.22696 0.322193 0
M  V30 2149 H 203.529 -3.31475 2.09444 0
M  V30 2150 H 205.019 -3.95537 1.33942 0
M  V30 2151 N 205.456 -1.28612 -0.910864 0
M  V30 2152 C 206.684 -1.18792 -1.69399 0
M  V30 2153 C 207.099 0.253039 -1.87097 0
M  V30 2154 O 206.456 1.17071 -1.40003 0
M  V30 2155 C 206.507 -1.88511 -3.08457 0
M  V30 2156 O 206.228 -3.26979 -2.91576 0
M  V30 2157 C 207.729 -1.85029 -4.02839 0
M  V30 2158 H 204.949 -0.412233 -0.529438 0
M  V30 2159 H 207.493 -1.69788 -1.13984 0
M  V30 2160 H 205.648 -1.41379 -3.60681 0
M  V30 2161 H 206.062 -3.61936 -3.79608 0
M  V30 2162 H 207.536 -2.38395 -4.97867 0
M  V30 2163 H 208.013 -0.823303 -4.31414 0
M  V30 2164 H 208.619 -2.31853 -3.56545 0
M  V30 2165 N 206.934 1.1197 -1.10907 0
M  V30 2166 C 208.345 1.65114 -0.871446 0
M  V30 2167 C 208.696 1.86885 0.597353 0
M  V30 2168 O 207.821 1.59896 1.45816 0
M  V30 2169 C 208.416 2.99944 -1.5754 0
M  V30 2170 C 206.975 3.50018 -1.38435 0
M  V30 2171 C 206.122 2.24941 -1.62164 0
M  V30 2172 H 209.073 0.956851 -1.2661 0
M  V30 2173 H 209.094 3.66651 -1.01721 0
M  V30 2174 H 208.606 2.84067 -2.64438 0
M  V30 2175 H 206.707 3.71071 -0.337214 0
M  V30 2176 H 206.82 4.29165 -2.12965 0
M  V30 2177 H 205.184 2.3229 -1.04467 0
M  V30 2178 H 205.967 2.11612 -2.70324 0
M  V30 2179 N 208.412 0.89855 1.29475 0
M  V30 2180 C 209.362 0.346767 2.25348 0
M  V30 2181 C 210.346 -0.532509 1.51833 0
M  V30 2182 O 211.538 -0.374714 1.72988 0
M  V30 2183 C 208.667 -0.425681 3.40651 0
M  V30 2184 C 207.753 0.46845 4.21505 0
M  V30 2185 N 208.144 1.57514 4.80648 0
M  V30 2186 C 206.442 0.26603 4.45206 0
M  V30 2187 C 207.143 2.12889 5.41344 0
M  V30 2188 N 206.119 1.42208 5.24669 0
M  V30 2189 H 209.921 1.19219 2.68634 0
M  V30 2190 H 207.435 0.749473 1.44072 0
M  V30 2191 H 209.432 -0.837716 4.08397 0
M  V30 2192 H 208.092 -1.26838 2.98902 0
M  V30 2193 H 209.103 1.95789 4.79465 0
M  V30 2194 H 205.78 -0.538394 4.14014 0
M  V30 2195 H 207.17 3.05901 5.98226 0
M  V30 2196 N 209.89 -1.43072 0.660911 0
M  V30 2197 C 210.84 -2.27948 -0.04847 0
M  V30 2198 C 211.824 -1.40325 -0.787246 0
M  V30 2199 O 213.016 -1.63893 -0.668446 0
M  V30 2200 C 210.145 -3.28143 -1.00881 0
M  V30 2201 C 209.231 -4.23252 -0.268108 0
M  V30 2202 N 209.622 -5.00656 0.719528 0
M  V30 2203 C 207.92 -4.43092 -0.508493 0
M  V30 2204 C 208.621 -5.70019 1.15988 0
M  V30 2205 N 207.597 -5.41364 0.492584 0
M  V30 2206 H 211.399 -2.85213 0.709279 0
M  V30 2207 H 208.913 -1.54869 0.488822 0
M  V30 2208 H 210.91 -3.87736 -1.53188 0
M  V30 2209 H 209.57 -2.7244 -1.76654 0
M  V30 2210 H 210.581 -5.06115 1.09855 0
M  V30 2211 H 207.258 -3.98449 -1.24679 0
M  V30 2212 H 208.648 -6.4214 1.97751 0
M  V30 2213 N 211.368 -0.403325 -1.52352 0
M  V30 2214 C 212.784 -0.0539281 -1.59509 0
M  V30 2215 C 212.984 1.43307 -1.41652 0
M  V30 2216 O 212.04 2.19924 -1.24056 0
M  V30 2217 C 213.353 -0.543654 -2.95745 0
M  V30 2218 C 214.901 -0.501125 -3.08962 0
M  V30 2219 C 215.376 -0.967267 -4.47669 0
M  V30 2220 N 216.867 -0.923849 -4.53893 0
M  V30 2221 C 217.602 -1.25578 -5.5948 0
M  V30 2222 N 217.098 -1.65889 -6.72646 0
M  V30 2223 N 218.891 -1.17613 -5.49658 0
M  V30 2224 H 211.042 -1.37123 -1.62206 0
M  V30 2225 H 213.305 -0.56294 -0.76276 0
M  V30 2226 H 213.011 -1.58275 -3.14073 0
M  V30 2227 H 212.885 0.0498042 -3.77167 0
M  V30 2228 H 215.272 0.528909 -2.90321 0
M  V30 2229 H 215.353 -1.13056 -2.2946 0
M  V30 2230 H 214.997 -1.9956 -4.67053 0
M  V30 2231 H 214.927 -0.314698 -5.25659 0
M  V30 2232 H 217.418 -0.627403 -3.72655 0
M  V30 2233 H 217.731 -1.89543 -7.49195 0
M  V30 2234 H 216.076 -1.69787 -6.73942 0
M  V30 2235 H 219.267 -0.860115 -4.6013 0
M  V30 2236 H 219.44 -1.43812 -6.3184 0
M  V30 2237 N 212.846 1.57033 -0.133567 0
M  V30 2238 C 214.257 1.82593 0.389464 0
M  V30 2239 C 214.608 1.05156 1.6564 0
M  V30 2240 O 213.733 0.292644 2.14412 0
M  V30 2241 C 214.328 3.31204 0.713377 0
M  V30 2242 C 212.887 3.57393 1.18098 0
M  V30 2243 C 212.034 2.76598 0.197126 0
M  V30 2244 H 214.985 1.54598 -0.358481 0
M  V30 2245 H 215.006 3.46627 1.56939 0
M  V30 2246 H 214.518 3.87537 -0.2089 0
M  V30 2247 H 212.619 3.06433 2.11966 0
M  V30 2248 H 212.732 4.65915 1.11624 0
M  V30 2249 H 211.096 2.45257 0.687088 0
M  V30 2250 H 211.879 3.35697 -0.718504 0
M  V30 2251 N 214.325 -0.140222 1.56975 0
M  V30 2252 C 215.257 -1.19818 1.95388 0
M  V30 2253 C 216.27 -1.38816 0.850525 0
M  V30 2254 O 217.459 -1.38267 1.12891 0
M  V30 2255 C 214.559 -2.56189 2.21857 0
M  V30 2256 C 213.732 -2.58077 3.5315 0
M  V30 2257 C 212.791 -3.76037 3.6808 0
M  V30 2258 O 211.817 -3.60598 4.40406 0
M  V30 2259 N 213.019 -4.93763 3.05251 0
M  V30 2260 H 215.784 -0.871609 2.86746 0
M  V30 2261 H 213.345 -0.32972 1.58507 0
M  V30 2262 H 215.337 -3.33623 2.2908 0
M  V30 2263 H 213.907 -2.81111 1.36731 0
M  V30 2264 H 213.127 -1.6651 3.57307 0
M  V30 2265 H 214.415 -2.56377 4.39486 0
M  V30 2266 H 213.813 -5.09209 2.46419 0
M  V30 2267 H 212.37 -5.68949 3.18026 0
M  V30 2268 N 215.803 -1.52179 -0.40978 0
M  V30 2269 C 217.214 -1.58377 -0.988615 0
M  V30 2270 C 217.565 -0.423879 -1.91566 0
M  V30 2271 O 216.69 0.455844 -2.11544 0
M  V30 2272 C 217.285 -2.87044 -1.79976 0
M  V30 2273 C 215.844 -2.95722 -2.32863 0
M  V30 2274 C 214.991 -2.53309 -1.12828 0
M  V30 2275 H 217.942 -1.57558 -0.190039 0
M  V30 2276 H 217.963 -2.7236 -2.65707 0
M  V30 2277 H 217.475 -3.71444 -1.12478 0
M  V30 2278 H 215.576 -2.15814 -3.03735 0
M  V30 2279 H 215.689 -3.99951 -2.63773 0
M  V30 2280 H 214.053 -2.07142 -1.48204 0
M  V30 2281 H 214.836 -3.40082 -0.46897 0
M  V30 2282 N 217.281 0.66697 -1.42791 0
M  V30 2283 C 218.697 0.981027 -1.25889 0
M  V30 2284 C 218.897 2.00793 -0.168695 0
M  V30 2285 O 217.953 2.48321 0.45747 0
M  V30 2286 C 219.266 1.47838 -2.61848 0
M  V30 2287 C 220.814 1.59575 -2.69267 0
M  V30 2288 C 221.289 2.12704 -4.05612 0
M  V30 2289 N 222.78 2.20026 -4.07606 0
M  V30 2290 C 223.515 2.62227 -5.09926 0
M  V30 2291 N 223.011 3.03824 -6.22626 0
M  V30 2292 N 224.804 2.62045 -4.97281 0
M  V30 2293 H 216.955 -0.0127891 -2.12396 0
M  V30 2294 H 219.218 0.0568258 -0.946295 0
M  V30 2295 H 218.924 0.798299 -3.4252 0
M  V30 2296 H 218.798 2.45579 -2.86305 0
M  V30 2297 H 221.185 2.26687 -1.88936 0
M  V30 2298 H 221.266 0.60302 -2.48591 0
M  V30 2299 H 220.91 1.46198 -4.86404 0
M  V30 2300 H 220.84 3.12782 -4.23645 0
M  V30 2301 H 223.331 1.90708 -3.2625 0
M  V30 2302 H 223.644 3.34734 -6.96544 0
M  V30 2303 H 221.989 3.01662 -6.26119 0
M  V30 2304 H 225.18 2.28916 -4.08308 0
M  V30 2305 H 225.353 2.94613 -5.77154 0
M  V30 2306 N 218.759 1.29093 0.90403 0
M  V30 2307 C 219.984 1.19809 1.69294 0
M  V30 2308 C 220.409 -0.238481 1.86582 0
M  V30 2309 O 219.767 -1.1723 1.383 0
M  V30 2310 C 219.815 1.91202 3.05736 0
M  V30 2311 O 218.919 1.22611 3.93752 0
M  V30 2312 H 218.26 0.415385 0.518027 0
M  V30 2313 H 220.79 1.70586 1.12967 0
M  V30 2314 H 220.8 1.99487 3.55906 0
M  V30 2315 H 219.475 2.95692 2.92471 0
M  V30 2316 H 218.052 1.22554 3.52186 0
M  V30 2317 N 220.237 -1.11381 1.11499 0
M  V30 2318 C 221.483 -1.83403 0.865512 0
M  V30 2319 C 221.816 -1.84459 -0.607329 0
M  V30 2320 O 221.091 -1.29811 -1.44842 0
M  V30 2321 C 221.374 -3.30552 1.42855 0
M  V30 2322 C 221.227 -3.37886 2.96906 0
M  V30 2323 C 222.546 -4.26643 1.08 0
M  V30 2324 H 219.665 -0.665879 0.31587 0
M  V30 2325 H 222.307 -1.30601 1.37998 0
M  V30 2326 H 220.457 -3.75648 0.990985 0
M  V30 2327 H 222.129 -3.01343 3.49271 0
M  V30 2328 H 220.372 -2.78088 3.32941 0
M  V30 2329 H 221.043 -4.41458 3.31389 0
M  V30 2330 H 223.519 -3.89729 1.45775 0
M  V30 2331 H 222.395 -5.27986 1.50072 0
M  V30 2332 H 222.656 -4.42099 -0.00915037 0
M  V30 2333 N 221.715 -0.905404 -1.28997 0
M  V30 2334 C 223.126 -0.581953 -1.77398 0
M  V30 2335 C 223.477 0.902552 -1.74208 0
M  V30 2336 O 222.602 1.70584 -1.33154 0
M  V30 2337 C 223.197 -1.04961 -3.22131 0
M  V30 2338 C 221.756 -0.777229 -3.68288 0
M  V30 2339 C 220.903 -1.22109 -2.48967 0
M  V30 2340 H 223.854 -1.08754 -1.15578 0
M  V30 2341 H 223.875 -0.387387 -3.78523 0
M  V30 2342 H 223.387 -2.13008 -3.24421 0
M  V30 2343 H 221.488 0.290383 -3.71467 0
M  V30 2344 H 221.601 -1.37911 -4.58822 0
M  V30 2345 H 219.965 -0.639971 -2.46529 0
M  V30 2346 H 220.748 -2.30972 -2.53982 0
M  V30 2347 N 223.193 1.4272 -0.668489 0
M  V30 2348 C 224.441 2.01226 -0.187769 0
M  V30 2349 C 224.762 1.53092 1.2078 0
M  V30 2350 O 224.032 0.74993 1.80977 0
M  V30 2351 H 222.612 0.744041 -0.0664272 0
M  V30 2352 H 225.274 1.74723 -0.863583 0
M  V30 2353 H 224.37 3.11556 -0.184166 0
M  V30 2354 N 224.671 0.411399 1.52136 0
M  V30 2355 C 225.917 -0.156262 2.02799 0
M  V30 2356 C 226.272 -1.42613 1.29149 0
M  V30 2357 O 225.565 -1.87592 0.389839 0
M  V30 2358 C 225.759 -0.455872 3.54481 0
M  V30 2359 C 225.588 0.783404 4.42824 0
M  V30 2360 C 224.358 1.30928 4.88043 0
M  V30 2361 C 226.556 1.66217 4.86699 0
M  V30 2362 N 224.538 2.5038 5.6052 0
M  V30 2363 C 225.909 2.70292 5.5798 0
M  V30 2364 C 227.964 1.67966 4.68713 0
M  V30 2365 C 226.667 3.7603 6.13184 0
M  V30 2366 C 228.693 2.72624 5.24815 0
M  V30 2367 C 228.055 3.7542 5.9602 0
M  V30 2368 H 224.154 -0.0186886 0.781777 0
M  V30 2369 H 226.738 0.566255 1.86284 0
M  V30 2370 H 224.909 -1.14743 3.71064 0
M  V30 2371 H 226.641 -1.01261 3.91827 0
M  V30 2372 H 223.396 0.866977 4.65597 0
M  V30 2373 H 223.82 3.10881 6.014 0
M  V30 2374 H 228.462 0.898312 4.13147 0
M  V30 2375 H 226.18 4.55019 6.6782 0
M  V30 2376 H 229.766 2.74887 5.12765 0
M  V30 2377 H 228.646 4.55073 6.38654 0
M  V30 2378 N 226.149 -1.5696 0.141893 0
M  V30 2379 C 227.426 -1.87553 -0.555281 0
M  V30 2380 C 227.806 -1.04699 -1.83306 0
M  V30 2381 O 227.154 -0.132346 -2.28116 0
M  V30 2382 C 227.364 -3.39093 -0.825664 0
M  V30 2383 C 228.712 -4.08199 -1.16869 0
M  V30 2384 O 229.736 -3.44242 -0.915185 0
M  V30 2385 O 228.595 -5.21139 -1.6455 0
M  V30 2386 H 225.689 -0.777188 -0.282679 0
M  V30 2387 H 228.235 -1.68763 0.17812 0
M  V30 2388 H 227.007 -3.91221 0.0788633 0
M  V30 2389 H 226.63 -3.63393 -1.61343 0
M  V30 2390 N 227.627 0.131896 -1.57047 0
M  V30 2391 C 228.852 0.860418 -1.8871 0
M  V30 2392 C 229.277 1.73251 -0.73251 0
M  V30 2393 O 228.635 1.785 0.317429 0
M  V30 2394 C 228.683 1.68047 -3.19049 0
M  V30 2395 O 227.787 2.7862 -3.04047 0
M  V30 2396 H 227.128 0.238743 -0.619595 0
M  V30 2397 H 229.658 0.118169 -2.04258 0
M  V30 2398 H 229.668 2.07238 -3.51449 0
M  V30 2399 H 228.343 1.04018 -4.02682 0
M  V30 2400 H 226.92 2.42726 -2.83088 0
M  V30 2401 N 229.106 1.52395 0.401703 0
M  V30 2402 C 230.069 1.75636 1.47257 0
M  V30 2403 C 231.069 0.62628 1.48103 0
M  V30 2404 O 232.259 0.894227 1.49497 0
M  V30 2405 C 229.391 1.84553 2.86624 0
M  V30 2406 H 230.584 2.71241 1.27938 0
M  V30 2407 H 228.137 1.42923 0.632662 0
M  V30 2408 H 228.872 0.908882 3.11303 0
M  V30 2409 H 228.657 2.66715 2.87412 0
M  V30 2410 H 230.147 2.04251 3.64241 0
M  V30 2411 N 230.584 -0.659388 1.43143 0
M  V30 2412 C 231.995 -1.24041 1.39537 0
M  V30 2413 C 232.346 -1.95963 0.0963364 0
M  V30 2414 O 231.471 -2.00892 -0.804438 0
M  V30 2415 C 232.066 -2.25601 2.52764 0
M  V30 2416 C 230.625 -2.79195 2.52443 0
M  V30 2417 C 229.772 -1.53743 2.30778 0
M  V30 2418 H 232.723 -0.451792 1.52133 0
M  V30 2419 H 232.744 -3.07651 2.23899 0
M  V30 2420 H 232.256 -1.73226 3.47296 0
M  V30 2421 H 230.357 -3.35649 1.61773 0
M  V30 2422 H 230.47 -3.2716 3.50004 0
M  V30 2423 H 228.834 -1.80869 1.79328 0
M  V30 2424 H 229.617 -1.03312 3.27386 0
M  V30 2425 N 232.062 -1.29571 -0.897171 0
M  V30 2426 C 233.31 -1.17456 -1.64464 0
M  V30 2427 C 233.631 0.273698 -1.9307 0
M  V30 2428 O 232.901 1.18684 -1.55855 0
M  V30 2429 H 231.481 -0.431706 -0.609622 0
M  V30 2430 H 234.143 -1.62531 -1.07562 0
M  V30 2431 H 233.239 -1.72648 -2.59998 0
M  V30 2432 N 233.54 1.10788 -1.12088 0
M  V30 2433 C 234.503 2.15207 -0.788577 0
M  V30 2434 C 235.503 1.59609 0.195317 0
M  V30 2435 O 236.693 1.74174 -0.0300193 0
M  V30 2436 C 233.825 3.4047 -0.171174 0
M  V30 2437 H 235.018 2.46116 -1.71368 0
M  V30 2438 H 232.571 1.26089 -0.923652 0
M  V30 2439 H 233.306 3.15176 0.763832 0
M  V30 2440 H 233.091 3.82109 -0.879514 0
M  V30 2441 H 234.581 4.17576 0.04496 0
M  V30 2442 N 235.018 0.912232 1.28515 0
M  V30 2443 C 236.429 0.591352 1.77087 0
M  V30 2444 C 236.78 -0.8933 1.74684 0
M  V30 2445 O 235.905 -1.69876 1.34056 0
M  V30 2446 C 236.5 1.06668 3.2157 0
M  V30 2447 C 235.059 0.79675 3.67871 0
M  V30 2448 C 234.206 1.23427 2.48316 0
M  V30 2449 H 237.157 1.09365 1.15 0
M  V30 2450 H 237.178 0.407455 3.78312 0
M  V30 2451 H 236.69 2.14726 3.23287 0
M  V30 2452 H 234.791 -0.270679 3.71616 0
M  V30 2453 H 234.904 1.40343 4.58084 0
M  V30 2454 H 233.268 0.653036 2.46186 0
M  V30 2455 H 234.051 2.32316 2.52753 0
M  V30 2456 N 236.496 -1.42363 0.676048 0
M  V30 2457 C 237.721 -2.06377 0.205705 0
M  V30 2458 C 238.146 -1.50463 -1.12883 0
M  V30 2459 O 237.504 -0.623619 -1.70237 0
M  V30 2460 C 237.552 -3.60277 0.152655 0
M  V30 2461 O 236.656 -4.02935 -0.87845 0
M  V30 2462 H 235.997 -0.655588 0.105359 0
M  V30 2463 H 238.527 -1.82475 0.925412 0
M  V30 2464 H 238.537 -4.07993 -0.0230675 0
M  V30 2465 H 237.212 -4.00346 1.12675 0
M  V30 2466 H 235.789 -3.66764 -0.673668 0
M  V30 2467 N 237.974 -0.419461 -1.51915 0
M  V30 2468 C 239.385 0.0477853 -1.86639 0
M  V30 2469 C 239.736 1.43531 -1.33766 0
M  V30 2470 O 238.861 2.05401 -0.68113 0
M  V30 2471 C 239.456 0.0934885 -3.38671 0
M  V30 2472 C 238.015 0.505097 -3.72996 0
M  V30 2473 C 237.162 -0.313792 -2.75519 0
M  V30 2474 H 240.113 -0.636088 -1.45395 0
M  V30 2475 H 240.134 0.906667 -3.6954 0
M  V30 2476 H 239.646 -0.916501 -3.77123 0
M  V30 2477 H 237.747 1.52135 -3.40126 0
M  V30 2478 H 237.86 0.242309 -4.78487 0
M  V30 2479 H 236.224 0.225363 -2.53701 0
M  V30 2480 H 237.007 -1.32232 -3.16812 0
M  V30 2481 N 239.452 1.56882 -0.150215 0
M  V30 2482 C 240.415 2.1573 0.774157 0
M  V30 2483 C 241.415 1.0999 1.17298 0
M  V30 2484 O 242.605 1.35613 1.09338 0
M  V30 2485 C 239.737 2.72302 2.05096 0
M  V30 2486 H 240.93 2.98752 0.262201 0
M  V30 2487 H 238.483 1.55985 0.099248 0
M  V30 2488 H 239.218 1.92956 2.6065 0
M  V30 2489 H 239.003 3.49665 1.77416 0
M  V30 2490 H 240.493 3.17632 2.71109 0
M  V30 2491 N 240.93 -0.123565 1.57115 0
M  V30 2492 C 242.207 -0.862196 1.75572 0
M  V30 2493 C 242.587 -1.98279 0.724475 0
M  V30 2494 O 241.935 -2.27102 -0.252407 0
M  V30 2495 C 242.145 -1.38309 3.20424 0
M  V30 2496 C 243.493 -1.83724 3.82793 0
M  V30 2497 O 244.517 -1.47999 3.23998 0
M  V30 2498 O 243.376 -2.49685 4.86127 0
M  V30 2499 H 240.47 -0.409113 0.718718 0
M  V30 2500 H 243.016 -0.107661 1.69358 0
M  V30 2501 H 241.788 -0.578889 3.86994 0
M  V30 2502 H 241.411 -2.20046 3.31158 0
M  V30 2503 N 242.408 -1.52605 -0.393616 0
M  V30 2504 C 243.657 -1.66649 -1.13627 0
M  V30 2505 C 243.97 -0.410364 -1.91247 0
M  V30 2506 O 245.176 -0.430854 -2.68059 0
M  V30 2507 C 243.632 -2.9449 -2.06891 0
M  V30 2508 C 243.24 -4.27266 -1.34714 0
M  V30 2509 C 244.984 -3.17899 -2.81319 0
M  V30 2510 C 242.891 -5.46217 -2.26717 0
M  V30 2511 H 241.821 -0.62084 -0.427871 0
M  V30 2512 H 244.472 -1.791 -0.399428 0
M  V30 2513 H 242.854 -2.75774 -2.84191 0
M  V30 2514 H 244.028 -4.56518 -0.626714 0
M  V30 2515 H 242.343 -4.10081 -0.722643 0
M  V30 2516 H 244.94 -4.03949 -3.50328 0
M  V30 2517 H 245.283 -2.32777 -3.45139 0
M  V30 2518 H 245.816 -3.37159 -2.11113 0
M  V30 2519 H 242.555 -6.33733 -1.67521 0
M  V30 2520 H 242.075 -5.21283 -2.96689 0
M  V30 2521 H 243.754 -5.7991 -2.86903 0
M  V30 2522 N 243.887 0.651787 -1.4349 0
M  V30 2523 C 245.115 1.43937 -1.48626 0
M  V30 2524 C 245.53 1.8851 -0.104587 0
M  V30 2525 O 244.887 1.5958 0.885464 0
M  V30 2526 C 244.938 2.6734 -2.43334 0
M  V30 2527 O 244.659 2.24631 -3.76128 0
M  V30 2528 C 246.16 3.60683 -2.57726 0
M  V30 2529 H 243.38 0.44213 -0.504739 0
M  V30 2530 H 245.924 0.798944 -1.88248 0
M  V30 2531 H 244.079 3.2752 -2.06904 0
M  V30 2532 H 244.493 3.04485 -4.2707 0
M  V30 2533 H 245.967 4.43933 -3.28067 0
M  V30 2534 H 246.444 4.08126 -1.62265 0
M  V30 2535 H 247.05 3.06384 -2.94973 0
M  V30 2536 N 245.365 1.30045 0.890287 0
M  V30 2537 C 246.315 1.12592 1.9826 0
M  V30 2538 C 247.299 0.0426021 1.60844 0
M  V30 2539 O 248.491 0.265346 1.75 0
M  V30 2540 C 245.62 0.814301 3.33503 0
M  V30 2541 C 244.706 1.93761 3.7725 0
M  V30 2542 N 245.097 3.18232 3.93143 0
M  V30 2543 C 243.395 1.83277 4.06602 0
M  V30 2544 C 244.096 3.9158 4.30163 0
M  V30 2545 N 243.072 3.19591 4.3973 0
M  V30 2546 H 246.874 2.07003 2.08631 0
M  V30 2547 H 244.388 1.21307 1.07974 0
M  V30 2548 H 246.385 0.67029 4.11476 0
M  V30 2549 H 245.045 -0.121797 3.24471 0
M  V30 2550 H 246.056 3.53581 3.78419 0
M  V30 2551 H 242.733 0.97001 4.06075 0
M  V30 2552 H 244.123 4.98744 4.50226 0
M  V30 2553 N 246.843 -1.10192 1.12674 0
M  V30 2554 C 248.254 -1.63707 0.897604 0
M  V30 2555 C 248.605 -1.87812 -0.567546 0
M  V30 2556 O 247.73 -1.62196 -1.43253 0
M  V30 2557 C 248.325 -2.974 1.62292 0
M  V30 2558 C 246.884 -3.47772 1.43986 0
M  V30 2559 C 246.031 -2.22332 1.65722 0
M  V30 2560 H 248.982 -0.936587 1.28116 0
M  V30 2561 H 249.003 -3.64986 1.07541 0
M  V30 2562 H 248.515 -2.79824 2.68924 0
M  V30 2563 H 246.616 -3.70487 0.396206 0
M  V30 2564 H 246.729 -4.25723 2.19765 0
M  V30 2565 H 245.093 -2.30599 1.08149 0
M  V30 2566 H 245.876 -2.07285 2.73657 0
M  V30 2567 N 248.321 -0.919034 -1.28029 0
M  V30 2568 C 249.549 -0.570971 -1.98866 0
M  V30 2569 C 249.964 0.848996 -1.68634 0
M  V30 2570 O 249.321 1.56307 -0.942036 0
M  V30 2571 C 249.372 -0.776876 -3.53054 0
M  V30 2572 O 249.093 -2.14097 -3.82222 0
M  V30 2573 C 250.594 -0.436356 -4.41147 0
M  V30 2574 H 247.814 -0.217175 -0.634883 0
M  V30 2575 H 250.358 -1.23368 -1.63097 0
M  V30 2576 H 248.513 -0.161085 -3.87065 0
M  V30 2577 H 248.927 -2.18455 -4.76841 0
M  V30 2578 H 250.401 -0.63117 -5.4838 0
M  V30 2579 H 250.878 0.627686 -4.34692 0
M  V30 2580 H 251.484 -1.02991 -4.12641 0
M  V30 2581 N 249.799 1.42003 -0.683588 0
M  V30 2582 C 251.21 1.84501 -0.285736 0
M  V30 2583 C 251.561 1.57213 1.17382 0
M  V30 2584 O 250.686 1.03642 1.89966 0
M  V30 2585 C 251.281 3.34912 -0.511821 0
M  V30 2586 C 249.84 3.76025 -0.168005 0
M  V30 2587 C 248.987 2.6551 -0.799983 0
M  V30 2588 H 251.938 1.31724 -0.885119 0
M  V30 2589 H 251.959 3.79784 0.233292 0
M  V30 2590 H 251.471 3.54741 -1.57418 0
M  V30 2591 H 249.572 3.61801 0.890567 0
M  V30 2592 H 249.685 4.75141 -0.614661 0
M  V30 2593 H 248.049 2.53654 -0.230568 0
M  V30 2594 H 248.832 2.8816 -1.86597 0
M  V30 2595 N 251.277 0.427512 1.51691 0
M  V30 2596 C 252.24 -0.377132 2.26076 0
M  V30 2597 C 253.24 -0.958089 1.29141 0
M  V30 2598 O 254.43 -0.83408 1.52934 0
M  V30 2599 C 251.562 -1.53262 3.04506 0
M  V30 2600 H 252.755 0.27464 2.9864 0
M  V30 2601 H 250.308 0.180445 1.55255 0
M  V30 2602 H 251.043 -2.22072 2.36335 0
M  V30 2603 H 250.828 -1.12232 3.75694 0
M  V30 2604 H 252.318 -2.10135 3.60878 0
M  V30 2605 N 252.755 -1.56801 0.158532 0
M  V30 2606 C 254.166 -1.83189 -0.360366 0
M  V30 2607 C 254.517 -1.07778 -1.63946 0
M  V30 2608 O 253.642 -0.326718 -2.13919 0
M  V30 2609 C 254.237 -3.32297 -0.660595 0
M  V30 2610 C 252.796 -3.59227 -1.12398 0
M  V30 2611 C 251.943 -2.76877 -0.153097 0
M  V30 2612 H 254.894 -1.54008 0.383031 0
M  V30 2613 H 254.915 -3.4908 -1.51405 0
M  V30 2614 H 254.427 -3.87156 0.270527 0
M  V30 2615 H 252.528 -3.09766 -2.07064 0
M  V30 2616 H 252.641 -4.67632 -1.04197 0
M  V30 2617 H 251.005 -2.46319 -0.647983 0
M  V30 2618 H 251.788 -3.34511 0.77182 0
M  V30 2619 N 254.233 0.115231 -1.57178 0
M  V30 2620 C 255.481 0.820727 -1.84685 0
M  V30 2621 C 255.802 1.80237 -0.744279 0
M  V30 2622 O 255.072 1.94529 0.231375 0
M  V30 2623 H 253.652 0.306084 -0.681411 0
M  V30 2624 H 256.314 0.101656 -1.94635 0
M  V30 2625 H 255.41 1.36366 -2.80733 0
M  V30 2626 N 255.711 1.52812 0.385517 0
M  V30 2627 C 257.122 1.5993 0.963293 0
M  V30 2628 C 257.473 0.454302 1.90868 0
M  V30 2629 O 256.598 -0.422132 2.12243 0
M  V30 2630 C 257.193 2.89871 1.75387 0
M  V30 2631 C 255.752 2.99389 2.28129 0
M  V30 2632 C 254.899 2.55071 1.08783 0
M  V30 2633 H 257.85 1.5784 0.164948 0
M  V30 2634 H 257.871 2.76553 2.61341 0
M  V30 2635 H 257.383 3.73186 1.06554 0
M  V30 2636 H 255.484 2.20619 3.00263 0
M  V30 2637 H 255.597 4.04096 2.57377 0
M  V30 2638 H 253.961 2.09473 1.4489 0
M  V30 2639 H 254.744 3.40785 0.414807 0
M  V30 2640 N 257.189 -0.644168 1.43834 0
M  V30 2641 C 258.414 -1.43642 1.49605 0
M  V30 2642 C 258.839 -1.8773 0.117913 0
M  V30 2643 O 258.197 -1.57938 -0.890239 0
M  V30 2644 C 258.245 -2.6416 2.45463 0
M  V30 2645 O 257.349 -3.63538 1.94714 0
M  V30 2646 H 256.69 -0.430329 0.50568 0
M  V30 2647 H 259.22 -0.787448 1.8884 0
M  V30 2648 H 259.23 -3.11864 2.63068 0
M  V30 2649 H 257.905 -2.31414 3.45572 0
M  V30 2650 H 256.482 -3.2273 1.86814 0
M  V30 2651 N 258.668 -1.30515 -0.883378 0
M  V30 2652 C 259.631 -1.1701 -1.97082 0
M  V30 2653 C 260.631 -0.10089 -1.60483 0
M  V30 2654 O 261.821 -0.349127 -1.70666 0
M  V30 2655 C 258.953 -0.793045 -3.31547 0
M  V30 2656 H 260.146 -2.13622 -2.10489 0
M  V30 2657 H 257.699 -1.13935 -1.06998 0
M  V30 2658 H 258.434 0.172499 -3.23841 0
M  V30 2659 H 258.219 -1.56576 -3.5948 0
M  V30 2660 H 259.709 -0.722073 -4.1131 0
M  V30 2661 N 260.146 1.09593 -1.13257 0
M  V30 2662 C 261.096 2.14345 -0.777179 0
M  V30 2663 C 262.08 1.59277 0.227966 0
M  V30 2664 O 263.272 1.76971 0.0321413 0
M  V30 2665 C 260.401 3.42439 -0.242991 0
M  V30 2666 C 259.487 4.04419 -1.27694 0
M  V30 2667 N 259.878 4.40979 -2.47732 0
M  V30 2668 C 258.176 4.31596 -1.12432 0
M  V30 2669 C 258.877 4.89784 -3.13826 0
M  V30 2670 N 257.853 4.87133 -2.41252 0
M  V30 2671 H 261.655 2.40415 -1.69049 0
M  V30 2672 H 259.169 1.26803 -1.01463 0
M  V30 2673 H 261.166 4.16889 0.0298496 0
M  V30 2674 H 259.826 3.17824 0.66467 0
M  V30 2675 H 260.837 4.32396 -2.85051 0
M  V30 2676 H 257.514 4.16595 -0.274684 0
M  V30 2677 H 258.904 5.2755 -4.16102 0
M  V30 2678 N 261.624 0.925811 1.2754 0
M  V30 2679 C 262.587 0.428129 2.25166 0
M  V30 2680 C 263.587 -0.452261 1.54309 0
M  V30 2681 O 264.777 -0.253608 1.72344 0
M  V30 2682 C 261.909 -0.384749 3.38722 0
M  V30 2683 H 263.102 1.29066 2.70706 0
M  V30 2684 H 260.655 0.706323 1.3943 0
M  V30 2685 H 261.39 -1.26618 2.98561 0
M  V30 2686 H 261.175 0.246454 3.91325 0
M  V30 2687 H 262.665 -0.723389 4.11287 0
M  V30 2688 N 263.102 -1.41638 0.69111 0
M  V30 2689 C 264.065 -2.29178 0.0319786 0
M  V30 2690 C 265.065 -1.44153 -0.712496 0
M  V30 2691 O 266.255 -1.65354 -0.548053 0
M  V30 2692 C 263.387 -3.26952 -0.965161 0
M  V30 2693 H 264.58 -2.88959 0.802681 0
M  V30 2694 H 262.133 -1.4955 0.454356 0
M  V30 2695 H 262.868 -2.72142 -1.76378 0
M  V30 2696 H 262.653 -3.89685 -0.434522 0
M  V30 2697 H 264.143 -3.92561 -1.42428 0
M  V30 2698 N 264.58 -0.43555 -1.51462 0
M  V30 2699 C 265.991 0.0279871 -1.86679 0
M  V30 2700 C 266.342 1.42104 -1.35281 0
M  V30 2701 O 265.467 2.04667 -0.702878 0
M  V30 2702 C 266.062 0.0575626 -3.38751 0
M  V30 2703 C 264.621 0.465507 -3.7351 0
M  V30 2704 C 263.768 -0.342996 -2.75171 0
M  V30 2705 H 266.719 -0.651473 -1.44712 0
M  V30 2706 H 266.74 0.867421 -3.70481 0
M  V30 2707 H 266.252 -0.956448 -3.7613 0
M  V30 2708 H 264.353 1.48519 -3.41721 0
M  V30 2709 H 264.466 0.191546 -4.78717 0
M  V30 2710 H 262.83 0.198442 -2.53926 0
M  V30 2711 H 263.613 -1.35585 -3.15391 0
M  V30 2712 N 266.058 1.56714 -0.166846 0
M  V30 2713 C 267.283 2.01557 0.488833 0
M  V30 2714 C 267.708 1.0463 1.56314 0
M  V30 2715 O 267.066 0.0251304 1.81283 0
M  V30 2716 C 267.114 3.4503 1.04818 0
M  V30 2717 O 266.218 3.51163 2.16236 0
M  V30 2718 H 265.559 0.653516 0.117526 0
M  V30 2719 H 268.089 2.02818 -0.269421 0
M  V30 2720 H 268.099 3.84243 1.37191 0
M  V30 2721 H 266.774 4.15077 0.261572 0
M  V30 2722 H 265.351 3.23807 1.84942 0
M  V30 2723 N 267.536 -0.106894 1.57237 0
M  V30 2724 C 268.764 -0.826389 1.8968 0
M  V30 2725 C 269.179 -1.72856 0.759353 0
M  V30 2726 O 268.536 -1.80503 -0.269263 0
M  V30 2727 C 268.587 -1.64967 3.21665 0
M  V30 2728 O 268.308 -0.783804 4.31031 0
M  V30 2729 C 269.809 -2.47326 3.67892 0
M  V30 2730 H 267.029 -0.236927 0.627779 0
M  V30 2731 H 269.573 -0.0876593 2.04312 0
M  V30 2732 H 267.728 -2.34103 3.08666 0
M  V30 2733 H 268.142 -1.35284 5.06753 0
M  V30 2734 H 269.616 -3.00604 4.6297 0
M  V30 2735 H 270.093 -3.25247 2.95146 0
M  V30 2736 H 270.699 -1.83411 3.83719 0
M  V30 2737 N 269.014 -1.53014 -0.377408 0
M  V30 2738 C 270.242 -1.72515 -1.14219 0
M  V30 2739 C 270.657 -0.448735 -1.8339 0
M  V30 2740 O 270.014 0.577592 -1.73119 0
M  V30 2741 C 270.065 -2.8826 -2.18148 0
M  V30 2742 O 269.786 -4.10962 -1.51795 0
M  V30 2743 C 271.287 -3.19536 -3.07264 0
M  V30 2744 H 268.507 -0.577301 -0.342001 0
M  V30 2745 H 271.051 -1.99712 -0.439935 0
M  V30 2746 H 269.206 -2.63492 -2.83991 0
M  V30 2747 H 269.62 -4.75693 -2.20945 0
M  V30 2748 H 271.094 -4.03959 -3.76193 0
M  V30 2749 H 271.571 -2.34403 -3.71419 0
M  V30 2750 H 272.177 -3.46186 -2.47053 0
M  V30 2751 N 270.492 0.636531 -1.44174 0
M  V30 2752 C 271.717 1.42847 -1.50364 0
M  V30 2753 C 272.142 1.87665 -0.127867 0
M  V30 2754 O 271.5 1.58408 0.88185 0
M  V30 2755 C 271.548 2.62854 -2.4686 0
M  V30 2756 O 270.652 3.62501 -1.9664 0
M  V30 2757 H 269.993 0.427642 -0.507955 0
M  V30 2758 H 272.523 0.777422 -1.89255 0
M  V30 2759 H 272.533 3.10465 -2.64718 0
M  V30 2760 H 271.208 2.29578 -3.46795 0
M  V30 2761 H 269.785 3.21735 -1.88523 0
M  V30 2762 N 271.97 1.30982 0.876444 0
M  V30 2763 C 272.933 1.18054 1.96459 0
M  V30 2764 C 273.933 0.109399 1.60427 0
M  V30 2765 O 275.123 0.358173 1.70478 0
M  V30 2766 C 272.255 0.810616 3.31122 0
M  V30 2767 H 273.448 2.14735 2.09354 0
M  V30 2768 H 271.001 1.145 1.06392 0
M  V30 2769 H 271.736 -0.155322 3.23928 0
M  V30 2770 H 271.521 1.58481 3.58645 0
M  V30 2771 H 273.011 0.743876 4.10921 0
M  V30 2772 N 273.449 -1.08991 1.13837 0
M  V30 2773 C 274.379 -2.17771 0.842507 0
M  V30 2774 C 275.36 -1.6892 -0.20001 0
M  V30 2775 O 276.545 -1.94113 -0.0579731 0
M  V30 2776 C 273.675 -3.4589 0.312644 0
M  V30 2777 C 272.629 -4.08099 1.28992 0
M  V30 2778 C 271.955 -5.31098 0.619623 0
M  V30 2779 C 273.255 -4.50077 2.65005 0
M  V30 2780 H 274.949 -2.42777 1.75213 0
M  V30 2781 H 272.495 -1.16682 0.843875 0
M  V30 2782 H 274.448 -4.21297 0.0933043 0
M  V30 2783 H 273.172 -3.20419 -0.632382 0
M  V30 2784 H 271.831 -3.34717 1.49533 0
M  V30 2785 H 271.479 -5.0191 -0.33102 0
M  V30 2786 H 271.179 -5.73674 1.27167 0
M  V30 2787 H 272.703 -6.09224 0.409669 0
M  V30 2788 H 274.117 -5.16688 2.48407 0
M  V30 2789 H 272.514 -5.03553 3.26427 0
M  V30 2790 H 273.584 -3.62257 3.22332 0
M  V30 2791 N 274.927 -0.932562 -1.27047 0
M  V30 2792 C 276.155 -0.592031 -1.98249 0
M  V30 2793 C 276.57 0.831062 -1.69525 0
M  V30 2794 O 275.927 1.55299 -0.958561 0
M  V30 2795 C 275.978 -0.814279 -3.5221 0
M  V30 2796 O 275.699 -2.18139 -3.7993 0
M  V30 2797 C 277.2 -0.483121 -4.4066 0
M  V30 2798 H 274.42 -0.223896 -0.632544 0
M  V30 2799 H 276.964 -1.25091 -1.61779 0
M  V30 2800 H 275.119 -0.20213 -3.86872 0
M  V30 2801 H 275.533 -2.235 -4.74498 0
M  V30 2802 H 277.007 -0.689298 -5.47679 0
M  V30 2803 H 277.484 0.581546 -4.35333 0
M  V30 2804 H 278.09 -1.07362 -4.11526 0
M  V30 2805 N 276.405 1.4127 -0.698611 0
M  V30 2806 C 277.816 1.84187 -0.305289 0
M  V30 2807 C 278.167 1.58449 1.15708 0
M  V30 2808 O 277.292 1.05651 1.88856 0
M  V30 2809 C 277.887 3.3435 -0.547314 0
M  V30 2810 C 276.446 3.75826 -0.207878 0
M  V30 2811 C 275.593 2.64647 -0.828099 0
M  V30 2812 H 278.544 1.30778 -0.89904 0
M  V30 2813 H 278.565 3.8001 0.192998 0
M  V30 2814 H 278.077 3.53051 -1.61172 0
M  V30 2815 H 276.178 3.62725 0.852143 0
M  V30 2816 H 276.291 4.74462 -0.665021 0
M  V30 2817 H 274.655 2.53395 -0.257458 0
M  V30 2818 H 275.438 2.86165 -1.89643 0
M  V30 2819 N 277.883 0.443576 1.51229 0
M  V30 2820 C 279.131 -0.120557 2.0174 0
M  V30 2821 C 279.452 -1.42665 1.32935 0
M  V30 2822 O 278.722 -1.9028 0.465866 0
M  V30 2823 H 277.302 -0.0475426 0.745486 0
M  V30 2824 H 279.964 0.587711 1.85828 0
M  V30 2825 H 279.06 -0.291972 3.10731 0
M  V30 2826 N 279.361 -1.56624 0.175154 0
M  V30 2827 C 280.772 -1.83561 -0.340916 0
M  V30 2828 C 281.123 -1.09511 -1.62794 0
M  V30 2829 O 280.248 -0.349389 -2.13561 0
M  V30 2830 C 280.843 -3.32979 -0.625313 0
M  V30 2831 C 279.402 -3.60399 -1.08581 0
M  V30 2832 C 278.549 -2.77024 -0.123722 0
M  V30 2833 H 281.5 -1.53593 0.399344 0
M  V30 2834 H 281.521 -3.50666 -1.47694 0
M  V30 2835 H 281.033 -3.86847 0.311575 0
M  V30 2836 H 279.134 -3.11945 -2.03767 0
M  V30 2837 H 279.247 -4.68711 -0.992317 0
M  V30 2838 H 277.611 -2.46993 -0.621821 0
M  V30 2839 H 278.394 -3.33674 0.807256 0
M  V30 2840 N 280.839 0.0985539 -1.57292 0
M  V30 2841 C 281.802 1.10402 -2.00858 0
M  V30 2842 C 282.802 1.33146 -0.901593 0
M  V30 2843 O 283.992 1.29318 -1.16716 0
M  V30 2844 C 281.124 2.45394 -2.36632 0
M  V30 2845 H 282.317 0.729099 -2.90902 0
M  V30 2846 H 279.87 0.343495 -1.52479 0
M  V30 2847 H 280.605 2.87769 -1.49531 0
M  V30 2848 H 280.39 2.30235 -3.17387 0
M  V30 2849 H 281.88 3.17718 -2.71007 0
M  V30 2850 N 282.317 1.53212 0.369288 0
M  V30 2851 C 283.28 1.7872 1.43498 0
M  V30 2852 C 284.28 0.657554 1.46741 0
M  V30 2853 O 285.47 0.925736 1.47566 0
M  V30 2854 C 282.602 1.90591 2.82645 0
M  V30 2855 H 283.795 2.73894 1.22156 0
M  V30 2856 H 281.348 1.44233 0.602203 0
M  V30 2857 H 282.083 0.974709 3.09306 0
M  V30 2858 H 281.868 2.72751 2.8169 0
M  V30 2859 H 283.358 2.11931 3.59826 0
M  V30 2860 N 283.795 -0.628877 1.44509 0
M  V30 2861 C 284.758 -1.72263 1.51188 0
M  V30 2862 C 285.758 -1.55907 0.39367 0
M  V30 2863 O 286.948 -1.61361 0.656377 0
M  V30 2864 C 284.08 -3.11365 1.38798 0
M  V30 2865 H 285.273 -1.67714 2.4862 0
M  V30 2866 H 282.826 -0.842737 1.31634 0
M  V30 2867 H 283.561 -3.21507 0.424693 0
M  V30 2868 H 283.346 -3.24644 2.19884 0
M  V30 2869 H 284.836 -3.91075 1.46458 0
M  V30 2870 N 285.273 -1.31445 -0.869486 0
M  V30 2871 C 286.236 -1.19094 -1.9583 0
M  V30 2872 C 287.236 -0.117906 -1.60367 0
M  V30 2873 O 288.426 -0.367208 -1.70286 0
M  V30 2874 C 285.558 -0.828165 -3.30688 0
M  V30 2875 H 286.751 -2.15842 -2.08212 0
M  V30 2876 H 284.304 -1.15063 -1.05784 0
M  V30 2877 H 285.039 0.138142 -3.24006 0
M  V30 2878 H 284.824 -1.6038 -3.578 0
M  V30 2879 H 286.314 -0.765658 -4.10521 0
M  V30 2880 N 286.751 1.08385 -1.14413 0
M  V30 2881 C 287.714 2.13486 -0.834048 0
M  V30 2882 C 288.714 1.59988 0.161418 0
M  V30 2883 O 289.904 1.74071 -0.0669575 0
M  V30 2884 C 287.036 3.4003 -0.243354 0
M  V30 2885 H 288.229 2.42425 -1.7655 0
M  V30 2886 H 285.782 1.24101 -0.950189 0
M  V30 2887 H 286.517 3.16726 0.696807 0
M  V30 2888 H 286.302 3.80157 -0.960367 0
M  V30 2889 H 287.792 4.17577 -0.0436242 0
M  V30 2890 N 288.23 0.939286 1.26551 0
M  V30 2891 C 289.507 0.5038 1.89001 0
M  V30 2892 C 289.887 -1.01854 1.84903 0
M  V30 2893 O 289.235 -1.87773 1.30206 0
M  V30 2894 C 289.445 1.063 3.32417 0
M  V30 2895 C 290.793 1.13051 4.09273 0
M  V30 2896 O 291.817 1.01345 3.41479 0
M  V30 2897 O 290.676 1.31233 5.30509 0
M  V30 2898 H 287.77 0.163897 0.810597 0
M  V30 2899 H 290.316 1.03173 1.34735 0
M  V30 2900 H 289.088 2.10665 3.29752 0
M  V30 2901 H 288.711 0.517408 3.94219 0
M  V30 2902 N 289.708 -1.40897 0.706093 0
M  V30 2903 C 290.671 -2.29131 0.0562841 0
M  V30 2904 C 291.671 -1.44901 -0.697166 0
M  V30 2905 O 292.861 -1.65926 -0.530484 0
M  V30 2906 C 289.993 -3.27957 -0.93043 0
M  V30 2907 H 291.186 -2.88091 0.833284 0
M  V30 2908 H 288.739 -1.4906 0.470192 0
M  V30 2909 H 289.474 -2.73997 -1.73482 0
M  V30 2910 H 289.259 -3.90124 -0.393166 0
M  V30 2911 H 290.749 -3.94049 -1.38256 0
M  V30 2912 N 291.186 -0.45159 -1.50991 0
M  V30 2913 C 292.149 0.341117 -2.26647 0
M  V30 2914 C 293.149 0.937422 -1.30649 0
M  V30 2915 O 294.339 0.809644 -1.54241 0
M  V30 2916 C 291.471 1.48398 -3.06905 0
M  V30 2917 H 292.664 -0.322117 -2.98165 0
M  V30 2918 H 290.217 -0.205122 -1.54948 0
M  V30 2919 H 290.952 2.18284 -2.39838 0
M  V30 2920 H 290.737 1.06241 -3.77432 0
M  V30 2921 H 292.227 2.04367 -3.64176 0
M  V30 2922 N 292.664 1.56529 -0.183458 0
M  V30 2923 C 293.627 2.17324 0.728223 0
M  V30 2924 C 294.627 1.12453 1.14939 0
M  V30 2925 O 295.817 1.37902 1.06437 0
M  V30 2926 C 292.949 2.76591 1.99274 0
M  V30 2927 H 294.142 2.99241 0.198772 0
M  V30 2928 H 291.695 1.5616 0.0661391 0
M  V30 2929 H 292.43 1.98441 2.56499 0
M  V30 2930 H 292.215 3.5335 1.69959 0
M  V30 2931 H 293.705 3.23311 2.6431 0
M  V30 2932 N 294.142 -0.090211 1.57342 0
M  V30 2933 C 295.367 -0.810082 1.90925 0
M  V30 2934 C 295.792 -1.71248 0.778187 0
M  V30 2935 O 295.15 -1.79278 -0.269991 0
M  V30 2936 C 295.198 -1.59529 3.23393 0
M  V30 2937 O 294.302 -2.70461 3.11327 0
M  V30 2938 H 293.643 -0.222231 0.625707 0
M  V30 2939 H 296.173 -0.0639716 2.045 0
M  V30 2940 H 296.183 -1.97847 3.5682 0
M  V30 2941 H 294.858 -0.933055 4.05299 0
M  V30 2942 H 293.435 -2.35135 2.89423 0
M  V30 2943 N 295.62 -1.53406 -0.361157 0
M  V30 2944 C 296.845 -1.74024 -1.12829 0
M  V30 2945 C 297.27 -0.470069 -1.82132 0
M  V30 2946 O 296.628 0.57619 -1.719 0
M  V30 2947 C 296.676 -2.90903 -2.13091 0
M  V30 2948 O 295.78 -2.59821 -3.20261 0
M  V30 2949 H 295.121 -0.577804 -0.327168 0
M  V30 2950 H 297.651 -2.00307 -0.41693 0
M  V30 2951 H 297.661 -3.17194 -2.56616 0
M  V30 2952 H 296.336 -3.83034 -1.62042 0
M  V30 2953 H 294.913 -2.44362 -2.81677 0
M  V30 2954 N 297.098 0.621204 -1.44841 0
M  V30 2955 C 298.344 1.3826 -1.48365 0
M  V30 2956 C 298.677 1.93831 -0.119624 0
M  V30 2957 O 297.952 1.74251 0.864111 0
M  V30 2958 C 298.235 2.54058 -2.55199 0
M  V30 2959 C 298.088 2.03772 -4.00995 0
M  V30 2960 C 299.407 3.56225 -2.58442 0
M  V30 2961 H 296.526 0.501374 -0.540179 0
M  V30 2962 H 299.168 0.7015 -1.76576 0
M  V30 2963 H 297.318 3.12162 -2.31274 0
M  V30 2964 H 298.99 1.50423 -4.36086 0
M  V30 2965 H 297.233 1.34876 -4.12299 0
M  V30 2966 H 297.904 2.87185 -4.71411 0
M  V30 2967 H 300.38 3.07939 -2.79844 0
M  V30 2968 H 299.256 4.34756 -3.3508 0
M  V30 2969 H 299.517 4.10949 -1.63013 0
M  V30 2970 N 298.576 1.31904 0.862503 0
M  V30 2971 C 299.539 1.20131 1.95195 0
M  V30 2972 C 300.539 0.126409 1.60302 0
M  V30 2973 O 301.729 0.376234 1.70089 0
M  V30 2974 C 298.861 0.845691 3.30244 0
M  V30 2975 H 300.054 2.16943 2.07064 0
M  V30 2976 H 297.607 1.15622 1.05172 0
M  V30 2977 H 298.342 -0.120957 3.24074 0
M  V30 2978 H 298.127 1.62276 3.56944 0
M  V30 2979 H 299.617 0.787418 4.10109 0
M  V30 2980 N 300.054 -1.07777 1.14986 0
M  V30 2981 C 301.001 -2.14867 0.842672 0
M  V30 2982 C 301.971 -1.6486 -0.202552 0
M  V30 2983 O 303.156 -1.90668 -0.0710568 0
M  V30 2984 C 300.296 -3.43486 0.333363 0
M  V30 2985 C 299.409 -4.07306 1.43965 0
M  V30 2986 C 298.544 -5.23744 0.886914 0
M  V30 2987 C 297.583 -5.79517 1.97043 0
M  V30 2988 N 296.72 -6.87291 1.4344 0
M  V30 2989 H 301.56 -2.40485 1.75986 0
M  V30 2990 H 299.097 -1.1801 0.878179 0
M  V30 2991 H 301.055 -4.17195 0.0198163 0
M  V30 2992 H 299.685 -3.18133 -0.546916 0
M  V30 2993 H 298.737 -3.31293 1.86946 0
M  V30 2994 H 300.049 -4.44771 2.25788 0
M  V30 2995 H 299.203 -6.04419 0.525651 0
M  V30 2996 H 297.942 -4.87685 0.0377957 0
M  V30 2997 H 296.947 -4.97491 2.34057 0
M  V30 2998 H 298.172 -6.17632 2.82325 0
M  V30 2999 H 296.118 -6.5318 0.607567 0
M  V30 3000 H 296.035 -7.23617 2.18895 0
M  V30 3001 H 297.303 -7.71682 1.10124 0
M  V30 3002 N 301.532 -0.945985 -1.26051 0
M  V30 3003 C 302.78 -0.594941 -1.93145 0
M  V30 3004 C 303.101 0.86953 -1.7454 0
M  V30 3005 O 302.371 1.61838 -1.10387 0
M  V30 3006 H 300.951 -0.217044 -0.714773 0
M  V30 3007 H 303.613 -1.20235 -1.53393 0
M  V30 3008 H 302.709 -0.816835 -3.01221 0
M  V30 3009 N 303.011 1.40521 -0.713556 0
M  V30 3010 C 304.259 2.00527 -0.251692 0
M  V30 3011 C 304.58 1.56857 1.15848 0
M  V30 3012 O 303.85 0.807127 1.785 0
M  V30 3013 H 302.43 0.741551 -0.0900646 0
M  V30 3014 H 305.092 1.71887 -0.918733 0
M  V30 3015 H 304.188 3.10813 -0.283192 0
M  V30 3016 N 304.489 0.459591 1.5075 0
M  V30 3017 C 305.452 -0.329093 2.26825 0
M  V30 3018 C 306.452 -0.930481 1.31144 0
M  V30 3019 O 307.642 -0.801453 1.54669 0
M  V30 3020 C 304.774 -1.46768 3.07688 0
M  V30 3021 H 305.967 0.337924 2.9799 0
M  V30 3022 H 303.52 0.213336 1.54837 0
M  V30 3023 H 304.255 -2.17009 2.40993 0
M  V30 3024 H 304.04 -1.04238 3.77991 0
M  V30 3025 H 305.53 -2.02433 3.65254 0
M  V30 3026 O 306.006 -1.58029 0.333053 0
M  V30 3027 H 306.697 -1.92392 -0.224736 0
M  V30 END ATOM
M  V30 BEGIN BOND
M  V30 END BOND
M  V30 END CTAB
M  END
$$$$
