drugbank_target|P49789 Bis(5'-adenosyl)-triphosphatase (DB02373; DB04389)
 OpenBabel12092119583D

  0  0  0     0  0            999 V3000
M  V30 BEGIN CTAB
M  V30 COUNTS 2359 2392 0 0 0
M  V30 BEGIN ATOM
M  V30 1 H -0.908 1.98254 -0.117106 0
M  V30 2 N 0 1.576 0 0
M  V30 3 C 0.933 2.03868 1.02534 0
M  V30 4 C 1.911 0.928543 1.3348 0
M  V30 5 O 3.095 1.19667 1.45644 0
M  V30 6 C 0.222 2.43627 2.35294 0
M  V30 7 C -0.732 3.65373 2.2001 0
M  V30 8 S 0.101 5.13292 1.52614 0
M  V30 9 C 1.257 5.56322 2.86805 0
M  V30 10 H 1.49 2.90518 0.631377 0
M  V30 11 H -0.977 1.52953 0.210867 0
M  V30 12 H 0.981 2.67203 3.11629 0
M  V30 13 H -0.358 1.57376 2.7183 0
M  V30 14 H -1.165 3.90944 3.18086 0
M  V30 15 H -1.563 3.418 1.51819 0
M  V30 16 H 0.729 5.58782 3.83104 0
M  V30 17 H 1.672 6.56266 2.65933 0
M  V30 18 H 2.08 4.83886 2.90714 0
M  V30 19 N 1.4781 -0.272755 1.55222 0
M  V30 20 C 2.7031 -1.02683 1.80197 0
M  V30 21 C 3.1281 -1.79142 0.573551 0
M  V30 22 O 2.4861 -1.74917 -0.476849 0
M  V30 23 C 2.5341 -1.9609 3.02624 0
M  V30 24 O 1.6381 -3.04863 2.77727 0
M  V30 25 H 0.9791 -0.293557 0.595584 0
M  V30 26 H 3.5091 -0.30159 2.02365 0
M  V30 27 H 3.5191 -2.38039 3.31363 0
M  V30 28 H 2.1941 -1.39851 3.91682 0
M  V30 29 H 0.7711 -2.67228 2.60084 0
M  V30 30 N 2.9562 -1.48159 -0.537278 0
M  V30 31 C 4.2032 -1.55804 -1.29349 0
M  V30 32 C 4.5312 -0.228802 -1.9315 0
M  V30 33 O 3.7862 0.780242 -1.79473 0
M  V30 34 C 4.0852 -2.63956 -2.40961 0
M  V30 35 C 3.7512 -4.0662 -1.94861 0
M  V30 36 C 2.4132 -4.45452 -1.82006 0
M  V30 37 C 4.7652 -4.96055 -1.59933 0
M  V30 38 C 2.0932 -5.71531 -1.32547 0
M  V30 39 C 4.4452 -6.22617 -1.11939 0
M  V30 40 C 3.1092 -6.60312 -0.976951 0
M  V30 41 H 2.3792 -0.570129 -0.473322 0
M  V30 42 H 5.0262 -1.81845 -0.600372 0
M  V30 43 H 3.3312 -2.31747 -3.15912 0
M  V30 44 H 5.0282 -2.67089 -2.99107 0
M  V30 45 H 1.6182 -3.75949 -2.05815 0
M  V30 46 H 5.8022 -4.66738 -1.68728 0
M  V30 47 H 1.0582 -5.99468 -1.202 0
M  V30 48 H 5.2322 -6.91318 -0.839811 0
M  V30 49 H 2.8592 -7.57895 -0.591501 0
M  V30 50 N 4.4343 0.785586 -1.36625 0
M  V30 51 C 5.8503 1.08419 -1.17122 0
M  V30 52 C 6.0503 2.015 0.00208491 0
M  V30 53 O 5.1063 2.43551 0.666278 0
M  V30 54 C 6.4193 1.69498 -2.48377 0
M  V30 55 C 7.9673 1.81821 -2.54775 0
M  V30 56 C 8.4423 2.46315 -3.86126 0
M  V30 57 N 9.9333 2.53779 -3.87492 0
M  V30 58 C 10.6683 3.045 -4.85868 0
M  V30 59 N 10.1643 3.55499 -5.94637 0
M  V30 60 N 11.9573 3.03247 -4.73284 0
M  V30 61 H 4.1083 0.167264 -2.1174 0
M  V30 62 H 6.3713 0.13682 -0.938075 0
M  V30 63 H 6.0773 1.08571 -3.34522 0
M  V30 64 H 5.9513 2.6896 -2.64462 0
M  V30 65 H 8.3383 2.41884 -1.69045 0
M  V30 66 H 8.4193 0.811532 -2.42586 0
M  V30 67 H 8.0633 1.86895 -4.72263 0
M  V30 68 H 7.9933 3.47561 -3.95612 0
M  V30 69 H 10.4843 2.17672 -3.08913 0
M  V30 70 H 10.7973 3.92562 -6.65669 0
M  V30 71 H 9.1423 3.5364 -5.98301 0
M  V30 72 H 12.3333 2.62696 -3.87438 0
M  V30 73 H 12.5063 3.42467 -5.50109 0
M  V30 74 N 5.9124 1.20967 1.01018 0
M  V30 75 C 7.1594 1.02374 1.74716 0
M  V30 76 C 7.4874 -0.443375 1.89379 0
M  V30 77 O 6.7424 -1.34535 1.42123 0
M  V30 78 C 7.0414 1.65997 3.16512 0
M  V30 79 C 6.7074 3.15831 3.2181 0
M  V30 80 C 5.3694 3.56719 3.22963 0
M  V30 81 C 7.7214 4.11816 3.19464 0
M  V30 82 C 5.0494 4.92107 3.19449 0
M  V30 83 C 7.4014 5.47158 3.17491 0
M  V30 84 C 6.0654 5.87451 3.16951 0
M  V30 85 H 5.3354 0.374614 0.639332 0
M  V30 86 H 7.9824 1.50485 1.18434 0
M  V30 87 H 6.2874 1.10166 3.75993 0
M  V30 88 H 7.9844 1.49119 3.72242 0
M  V30 89 H 4.5744 2.83263 3.21652 0
M  V30 90 H 8.7584 3.81257 3.17737 0
M  V30 91 H 4.0144 5.22579 3.17366 0
M  V30 92 H 8.1884 6.21274 3.14629 0
M  V30 93 H 5.8154 6.92329 3.13983 0
M  V30 94 N 7.3905 -1.2043 1.01659 0
M  V30 95 C 8.6385 -1.89423 0.704522 0
M  V30 96 C 8.9595 -1.79231 -0.768197 0
M  V30 97 O 8.2295 -1.1947 -1.55254 0
M  V30 98 H 6.8095 -0.701178 0.257602 0
M  V30 99 H 9.4715 -1.4626 1.28818 0
M  V30 100 H 8.5675 -2.96052 0.987916 0
M  V30 101 N 8.8686 -0.792821 -1.36206 0
M  V30 102 C 9.8006 -0.151469 -2.28699 0
M  V30 103 C 10.8136 0.641262 -1.49638 0
M  V30 104 O 12.0026 0.475885 -1.72039 0
M  V30 105 C 9.1026 0.808424 -3.29117 0
M  V30 106 C 8.2756 0.0650202 -4.37352 0
M  V30 107 C 7.3346 0.941358 -5.17711 0
M  V30 108 O 6.3606 0.397352 -5.67811 0
M  V30 109 N 7.5626 2.2652 -5.3448 0
M  V30 110 H 10.3276 -0.945982 -2.84379 0
M  V30 111 H 7.8886 -0.647032 -1.48409 0
M  V30 112 H 9.8806 1.3986 -3.79765 0
M  V30 113 H 8.4506 1.5038 -2.74052 0
M  V30 114 H 7.6706 -0.706255 -3.87822 0
M  V30 115 H 8.9586 -0.447847 -5.06825 0
M  V30 116 H 8.3566 2.73128 -4.95396 0
M  V30 117 H 6.9136 2.80493 -5.88359 0
M  V30 118 N 10.3467 1.47872 -0.545128 0
M  V30 119 C 11.2967 2.26842 0.229456 0
M  V30 120 C 12.2807 1.33626 0.896267 0
M  V30 121 O 13.4727 1.58063 0.79657 0
M  V30 122 C 10.6017 3.19089 1.26638 0
M  V30 123 C 9.6877 4.19783 0.603598 0
M  V30 124 N 10.0787 5.0479 -0.319405 0
M  V30 125 C 8.3767 4.3765 0.858989 0
M  V30 126 C 9.0777 5.77433 -0.703241 0
M  V30 127 N 8.0537 5.43566 -0.0608309 0
M  V30 128 H 11.8557 2.89947 -0.480391 0
M  V30 129 H 9.3697 1.58263 -0.364209 0
M  V30 130 H 11.3667 3.74337 1.83515 0
M  V30 131 H 10.0267 2.5754 1.97745 0
M  V30 132 H 11.0377 5.13244 -0.692889 0
M  V30 133 H 7.7147 3.87281 1.55948 0
M  V30 134 H 9.1047 6.55824 -1.46098 0
M  V30 135 N 11.8248 0.280983 1.55075 0
M  V30 136 C 12.7548 -0.597469 2.25727 0
M  V30 137 C 13.7358 -1.15417 1.24952 0
M  V30 138 O 14.9208 -1.18722 1.53684 0
M  V30 139 C 12.0508 -1.7789 2.98283 0
M  V30 140 C 11.0048 -1.35347 4.06036 0
M  V30 141 C 10.3308 -2.61846 4.66198 0
M  V30 142 C 11.6308 -0.499354 5.19907 0
M  V30 143 H 13.3248 -0.00824265 2.99399 0
M  V30 144 H 10.8708 -0.0025244 1.44 0
M  V30 145 H 12.8238 -2.39937 3.46422 0
M  V30 146 H 11.5478 -2.39405 2.22155 0
M  V30 147 H 10.2068 -0.756156 3.58717 0
M  V30 148 H 9.8548 -3.21632 3.86732 0
M  V30 149 H 9.5548 -2.3409 5.38958 0
M  V30 150 H 11.0788 -3.24732 5.1709 0
M  V30 151 H 12.4928 -1.02498 5.64063 0
M  V30 152 H 10.8898 -0.316424 5.99265 0
M  V30 153 H 11.9598 0.480459 4.82514 0
M  V30 154 N 13.3029 -1.57598 0.00835791 0
M  V30 155 C 14.5519 -1.90107 -0.673968 0
M  V30 156 C 14.8649 -0.884275 -1.7447 0
M  V30 157 O 16.0709 -1.09987 -2.48224 0
M  V30 158 C 14.5269 -3.37497 -1.24995 0
M  V30 159 C 14.1349 -4.47491 -0.2136 0
M  V30 160 C 15.8789 -3.79104 -1.90999 0
M  V30 161 C 13.7859 -5.85963 -0.80005 0
M  V30 162 H 12.7159 -0.709393 -0.255495 0
M  V30 163 H 15.3669 -1.83365 0.0702693 0
M  V30 164 H 13.7489 -3.39102 -2.04513 0
M  V30 165 H 14.9229 -4.57414 0.557596 0
M  V30 166 H 13.2379 -4.14956 0.346474 0
M  V30 167 H 15.8349 -4.79901 -2.35795 0
M  V30 168 H 16.1779 -3.1306 -2.74407 0
M  V30 169 H 16.7109 -3.79833 -1.18203 0
M  V30 170 H 13.4499 -6.555 -0.00456708 0
M  V30 171 H 12.9699 -5.79687 -1.54021 0
M  V30 172 H 14.6489 -6.33884 -1.29615 0
M  V30 173 N 14.781 0.264519 -1.55364 0
M  V30 174 C 15.728 1.32717 -1.88825 0
M  V30 175 C 16.698 1.48675 -0.740605 0
M  V30 176 O 17.883 1.62945 -0.992657 0
M  V30 177 C 15.023 2.68089 -2.17307 0
M  V30 178 C 14.136 2.60284 -3.44785 0
M  V30 179 C 13.271 3.87892 -3.62924 0
M  V30 180 C 12.31 3.74631 -4.84064 0
M  V30 181 N 11.447 4.94092 -4.98816 0
M  V30 182 H 16.287 1.03481 -2.79456 0
M  V30 183 H 13.824 0.499757 -1.3835 0
M  V30 184 H 15.782 3.46864 -2.31821 0
M  V30 185 H 14.412 2.95509 -1.299 0
M  V30 186 H 13.464 1.73173 -3.38697 0
M  V30 187 H 14.776 2.46388 -4.33698 0
M  V30 188 H 13.93 4.75109 -3.77302 0
M  V30 189 H 12.669 4.04664 -2.7221 0
M  V30 190 H 11.674 2.85797 -4.69681 0
M  V30 191 H 12.899 3.5937 -5.76221 0
M  V30 192 H 10.845 5.11259 -4.11036 0
M  V30 193 H 10.762 4.8276 -5.81789 0
M  V30 194 H 12.03 5.82857 -5.17588 0
M  V30 195 N 16.2591 1.48442 0.529413 0
M  V30 196 C 17.6701 1.5002 1.11134 0
M  V30 197 C 18.0211 0.27031 1.94329 0
M  V30 198 O 17.1461 -0.622507 2.07253 0
M  V30 199 C 17.7411 2.71834 2.02217 0
M  V30 200 C 16.3001 2.76283 2.55627 0
M  V30 201 C 15.4471 2.43542 1.326 0
M  V30 202 H 18.3981 1.5555 0.314641 0
M  V30 203 H 18.4191 2.50384 2.8651 0
M  V30 204 H 17.9311 3.61331 1.41639 0
M  V30 205 H 16.0321 1.90995 3.19924 0
M  V30 206 H 16.1451 3.77725 2.94721 0
M  V30 207 H 14.5091 1.94709 1.64196 0
M  V30 208 H 15.2921 3.3528 0.737734 0
M  V30 209 N 17.7372 -0.778329 1.37039 0
M  V30 210 C 18.9622 -1.57248 1.35233 0
M  V30 211 C 19.3872 -1.87999 -0.0615568 0
M  V30 212 O 18.7452 -1.48734 -1.03672 0
M  V30 213 C 18.7932 -2.86353 2.19167 0
M  V30 214 O 17.8972 -3.80442 1.59178 0
M  V30 215 H 17.2382 -0.476569 0.462362 0
M  V30 216 H 19.7682 -0.963853 1.80474 0
M  V30 217 H 19.7782 -3.35519 2.32145 0
M  V30 218 H 18.4532 -2.63299 3.21942 0
M  V30 219 H 17.0302 -3.39067 1.55203 0
M  V30 220 N 19.2153 -1.21501 -1.00376 0
M  V30 221 C 20.4613 -1.03452 -1.74429 0
M  V30 222 C 20.7943 0.430764 -1.89362 0
M  V30 223 O 20.0693 1.31962 -1.42886 0
M  V30 224 C 20.3523 -1.73375 -3.15615 0
M  V30 225 C 20.2053 -3.27431 -3.08397 0
M  V30 226 C 21.5243 -1.47732 -4.14564 0
M  V30 227 H 18.6433 -0.377226 -0.633143 0
M  V30 228 H 21.2853 -1.49693 -1.17013 0
M  V30 229 H 19.4353 -1.34064 -3.64636 0
M  V30 230 H 21.1073 -3.76119 -2.67081 0
M  V30 231 H 19.3503 -3.5767 -2.45468 0
M  V30 232 H 20.0213 -3.71524 -4.08258 0
M  V30 233 H 22.4973 -1.8186 -3.74254 0
M  V30 234 H 21.3733 -1.99169 -5.11491 0
M  V30 235 H 21.6343 -0.407589 -4.40217 0
M  V30 236 N 20.6934 1.19889 -1.02296 0
M  V30 237 C 21.9394 1.89701 -0.717033 0
M  V30 238 C 22.2724 1.7905 0.751989 0
M  V30 239 O 21.5474 1.17891 1.547 0
M  V30 240 C 21.8304 3.40858 -1.16136 0
M  V30 241 C 21.6834 3.60411 -2.69117 0
M  V30 242 C 23.0024 4.33876 -0.737549 0
M  V30 243 H 20.1214 0.688874 -0.261957 0
M  V30 244 H 22.7634 1.41154 -1.27183 0
M  V30 245 H 20.9134 3.82335 -0.689342 0
M  V30 246 H 22.5854 3.28145 -3.2422 0
M  V30 247 H 20.8284 3.03665 -3.0979 0
M  V30 248 H 21.4994 4.66396 -2.95261 0
M  V30 249 H 23.9754 4.00081 -1.14344 0
M  V30 250 H 22.8514 5.38242 -1.0764 0
M  V30 251 H 23.1124 4.40628 0.360436 0
M  V30 252 N 22.1715 0.800033 1.35784 0
M  V30 253 C 23.4185 0.377342 1.98953 0
M  V30 254 C 23.7465 -1.05378 1.6348 0
M  V30 255 O 23.0015 -1.74459 0.886707 0
M  V30 256 C 23.3005 0.500276 3.53881 0
M  V30 257 C 22.9665 1.89375 4.09204 0
M  V30 258 C 21.6285 2.27499 4.24025 0
M  V30 259 C 23.9805 2.8057 4.39238 0
M  V30 260 C 21.3085 3.562 4.66195 0
M  V30 261 C 23.6605 4.0871 4.82844 0
M  V30 262 C 22.3245 4.46843 4.95871 0
M  V30 263 H 21.5945 0.138079 0.728021 0
M  V30 264 H 24.2415 1.01955 1.62103 0
M  V30 265 H 22.5465 -0.225405 3.91151 0
M  V30 266 H 24.2435 0.154097 4.00704 0
M  V30 267 H 20.8335 1.58753 3.98115 0
M  V30 268 H 25.0175 2.52367 4.27346 0
M  V30 269 H 20.2735 3.85602 4.74469 0
M  V30 270 H 24.4475 4.79481 5.05046 0
M  V30 271 H 22.0745 5.46623 5.28306 0
M  V30 272 N 23.6496 -1.47581 0.552962 0
M  V30 273 C 24.5796 -2.32762 -0.185451 0
M  V30 274 C 25.5606 -1.43527 -0.912905 0
M  V30 275 O 26.7456 -1.72388 -0.894201 0
M  V30 276 C 23.8756 -3.25219 -1.21859 0
M  V30 277 C 22.8296 -4.23661 -0.607864 0
M  V30 278 C 22.1556 -5.05413 -1.74533 0
M  V30 279 C 23.4556 -5.20481 0.435582 0
M  V30 280 H 25.1496 -2.94749 0.525684 0
M  V30 281 H 22.6956 -1.41738 0.254251 0
M  V30 282 H 24.6486 -3.8365 -1.7433 0
M  V30 283 H 23.3726 -2.61279 -1.95961 0
M  V30 284 H 22.0316 -3.66451 -0.104489 0
M  V30 285 H 21.6796 -4.3788 -2.47529 0
M  V30 286 H 21.3796 -5.72059 -1.34249 0
M  V30 287 H 22.9036 -5.66701 -2.27338 0
M  V30 288 H 24.3176 -5.733 -0.00290157 0
M  V30 289 H 22.7146 -5.95305 0.757067 0
M  V30 290 H 23.7846 -4.66217 1.33303 0
M  V30 291 N 25.1277 -0.289203 -1.54924 0
M  V30 292 C 26.0747 0.592115 -2.23075 0
M  V30 293 C 27.0447 1.13881 -1.20915 0
M  V30 294 O 28.2297 1.18551 -1.495 0
M  V30 295 C 25.3697 1.76376 -2.96623 0
M  V30 296 C 24.4827 1.24959 -4.13533 0
M  V30 297 C 23.6177 2.38416 -4.74691 0
M  V30 298 C 22.6567 1.84072 -5.83767 0
M  V30 299 N 21.7937 2.91057 -6.38929 0
M  V30 300 H 26.6337 0.00432038 -2.98 0
M  V30 301 H 24.1707 -0.00963529 -1.47097 0
M  V30 302 H 26.1287 2.45268 -3.3749 0
M  V30 303 H 24.7587 2.32337 -2.24097 0
M  V30 304 H 23.8107 0.453307 -3.77689 0
M  V30 305 H 25.1227 0.811662 -4.92152 0
M  V30 306 H 24.2767 3.15276 -5.18349 0
M  V30 307 H 23.0157 2.8553 -3.95378 0
M  V30 308 H 22.0207 1.05697 -5.39545 0
M  V30 309 H 23.2457 1.37877 -6.64956 0
M  V30 310 H 21.1917 3.37526 -5.62505 0
M  V30 311 H 21.1087 2.51724 -7.12861 0
M  V30 312 H 22.3767 3.6785 -6.87246 0
M  V30 313 N 26.6058 1.57591 -0.0167156 0
M  V30 314 C 27.8338 1.95575 0.675128 0
M  V30 315 C 28.2488 0.892542 1.6637 0
M  V30 316 O 27.6058 -0.126912 1.82058 0
M  V30 317 C 27.6568 3.33608 1.39239 0
M  V30 318 O 27.3778 4.3585 0.443444 0
M  V30 319 C 28.8788 3.86151 2.17721 0
M  V30 320 H 26.0988 0.644423 0.186978 0
M  V30 321 H 28.6428 2.0437 -0.0728 0
M  V30 322 H 26.7978 3.2607 2.09182 0
M  V30 323 H 27.2118 5.158 0.951358 0
M  V30 324 H 28.6858 4.85114 2.63379 0
M  V30 325 H 29.1628 3.19738 3.01105 0
M  V30 326 H 29.7688 3.96918 1.52761 0
M  V30 327 N 28.0839 -0.256276 1.55502 0
M  V30 328 C 28.9939 -1.33882 1.92647 0
M  V30 329 C 30.0099 -1.53159 0.825727 0
M  V30 330 O 31.1859 -1.66963 1.12629 0
M  V30 331 C 28.2509 -2.6751 2.20543 0
M  V30 332 C 27.3119 -2.56836 3.43997 0
M  V30 333 C 26.5449 -3.84092 3.70553 0
M  V30 334 O 26.7679 -4.85545 2.99336 0
M  V30 335 O 25.7019 -3.83288 4.64084 0
M  V30 336 H 29.5279 -1.05374 2.84833 0
M  V30 337 H 27.1129 -0.456237 1.42263 0
M  V30 338 H 28.9949 -3.46492 2.39835 0
M  V30 339 H 27.6699 -2.9577 1.31536 0
M  V30 340 H 26.5769 -1.76172 3.30021 0
M  V30 341 H 27.9099 -2.33523 4.33275 0
M  V30 342 N 29.562 -1.4872 -0.521534 0
M  V30 343 C 30.492 -1.66771 -1.63431 0
M  V30 344 C 31.473 -0.516499 -1.62069 0
M  V30 345 O 32.658 -0.750013 -1.79132 0
M  V30 346 C 29.788 -1.71515 -3.01993 0
M  V30 347 C 28.742 -2.86222 -3.18216 0
M  V30 348 C 28.068 -2.76061 -4.57924 0
M  V30 349 C 29.368 -4.27419 -3.00184 0
M  V30 350 H 31.062 -2.59932 -1.48579 0
M  V30 351 H 28.608 -1.25089 -0.713358 0
M  V30 352 H 30.561 -1.82731 -3.7972 0
M  V30 353 H 29.285 -0.749393 -3.17886 0
M  V30 354 H 27.944 -2.74575 -2.42908 0
M  V30 355 H 27.592 -1.77437 -4.70665 0
M  V30 356 H 27.292 -3.53037 -4.69722 0
M  V30 357 H 28.816 -2.89256 -5.37739 0
M  V30 358 H 30.23 -4.39855 -3.67697 0
M  V30 359 H 28.627 -5.05458 -3.2347 0
M  V30 360 H 29.697 -4.43293 -1.96518 0
M  V30 361 N 31.0401 0.771051 -1.3745 0
M  V30 362 C 32.2651 1.56529 -1.36065 0
M  V30 363 C 32.6901 1.88029 0.0515859 0
M  V30 364 O 32.0481 1.49282 1.02882 0
M  V30 365 C 32.0961 2.85187 -2.20683 0
M  V30 366 O 31.2001 3.79593 -1.61193 0
M  V30 367 H 30.5411 0.47411 -0.464883 0
M  V30 368 H 33.0711 0.954269 -1.80983 0
M  V30 369 H 33.0811 3.34283 -2.33921 0
M  V30 370 H 31.7561 2.61588 -3.23334 0
M  V30 371 H 30.3331 3.38239 -1.56999 0
M  V30 372 N 32.5182 1.22032 0.997298 0
M  V30 373 C 33.7652 1.04222 1.73621 0
M  V30 374 C 34.0932 -0.423264 1.89839 0
M  V30 375 O 33.3482 -1.3302 1.43542 0
M  V30 376 C 33.6472 1.69345 3.14733 0
M  V30 377 C 33.3132 3.19226 3.18442 0
M  V30 378 C 31.9752 3.60124 3.19161 0
M  V30 379 C 34.3272 4.15181 3.15078 0
M  V30 380 C 31.6552 4.95467 3.14212 0
M  V30 381 C 34.0072 5.50495 3.1167 0
M  V30 382 C 32.6712 5.90779 3.10703 0
M  V30 383 H 31.9412 0.381374 0.635323 0
M  V30 384 H 34.5882 1.51732 1.16831 0
M  V30 385 H 32.8932 1.14147 3.74803 0
M  V30 386 H 34.5902 1.53059 3.7064 0
M  V30 387 H 31.1802 2.86659 3.18629 0
M  V30 388 H 35.3642 3.84605 3.13676 0
M  V30 389 H 30.6202 5.25916 3.11805 0
M  V30 390 H 34.7942 6.24576 3.08022 0
M  V30 391 H 32.4212 6.9562 3.06622 0
M  V30 392 N 33.9963 -1.19345 1.0293 0
M  V30 393 C 34.9593 -2.20793 0.615069 0
M  V30 394 C 35.9593 -1.57553 -0.321533 0
M  V30 395 O 37.1493 -1.73862 -0.108483 0
M  V30 396 C 34.2813 -3.40754 -0.0999222 0
M  V30 397 H 35.4743 -2.58955 1.51269 0
M  V30 398 H 33.0273 -1.3303 0.820534 0
M  V30 399 H 33.7623 -3.0811 -1.01187 0
M  V30 400 H 33.5473 -3.87889 0.57309 0
M  V30 401 H 35.0373 -4.15898 -0.376645 0
M  V30 402 N 35.4744 -0.807222 -1.35358 0
M  V30 403 C 36.4044 -0.232509 -2.3234 0
M  V30 404 C 37.3854 0.642386 -1.57504 0
M  V30 405 O 38.5704 0.572526 -1.85569 0
M  V30 406 C 35.7004 0.619238 -3.41735 0
M  V30 407 C 34.6544 -0.157215 -4.27711 0
M  V30 408 C 33.9804 0.816273 -5.28433 0
M  V30 409 C 35.2804 -1.35656 -5.04376 0
M  V30 410 H 36.9744 -1.04276 -2.80654 0
M  V30 411 H 34.5204 -0.50288 -1.34934 0
M  V30 412 H 36.4734 1.03137 -4.08584 0
M  V30 413 H 35.1974 1.46239 -2.92031 0
M  V30 414 H 33.8564 -0.550525 -3.62443 0
M  V30 415 H 33.5044 1.65494 -4.74996 0
M  V30 416 H 33.2044 0.301067 -5.86828 0
M  V30 417 H 34.7284 1.22659 -5.98153 0
M  V30 418 H 36.1424 -1.01927 -5.64166 0
M  V30 419 H 34.5394 -1.8063 -5.7227 0
M  V30 420 H 35.6094 -2.14288 -4.34981 0
M  V30 421 N 36.9525 1.47285 -0.560781 0
M  V30 422 C 38.1985 2.02764 -0.0381184 0
M  V30 423 C 38.5315 1.43384 1.30976 0
M  V30 424 O 37.8065 0.590733 1.85312 0
M  V30 425 C 38.0895 3.60064 0.0511427 0
M  V30 426 C 37.9425 4.2987 -1.32408 0
M  V30 427 C 39.2615 4.33439 0.762795 0
M  V30 428 H 36.3805 0.736841 -0.0153264 0
M  V30 429 H 39.0225 1.75675 -0.723759 0
M  V30 430 H 37.1725 3.83274 0.635065 0
M  V30 431 H 38.8445 4.17989 -1.95148 0
M  V30 432 H 37.0875 3.90085 -1.8978 0
M  V30 433 H 37.7585 5.38478 -1.21431 0
M  V30 434 H 40.2345 4.15243 0.266965 0
M  V30 435 H 39.1105 5.43124 0.794221 0
M  V30 436 H 39.3715 4.02915 1.81966 0
M  V30 437 N 38.4306 0.297415 1.54768 0
M  V30 438 C 39.3786 -0.596051 2.24833 0
M  V30 439 C 40.3726 -1.13992 1.25308 0
M  V30 440 O 41.5786 -1.09098 1.4317 0
M  V30 441 H 37.9536 -0.210814 0.721846 0
M  V30 442 H 39.9246 0.0174667 2.98395 0
M  V30 443 C 38.6736 -1.75818 2.99972 0
M  V30 444 H 37.9966 -1.3489 3.76357 0
M  V30 445 H 39.4366 -2.35949 3.52284 0
M  V30 446 C 37.8956 -2.66014 2.06732 0
M  V30 447 O 38.4256 -3.67009 1.63302 0
M  V30 448 N 36.6316 -2.33669 1.72763 0
M  V30 449 H 36.1786 -1.51586 2.08277 0
M  V30 450 H 36.1366 -2.94285 1.10652 0
M  V30 451 N 39.9087 -1.5758 0.0250728 0
M  V30 452 C 41.3247 -1.56124 -0.331282 0
M  V30 453 C 41.5247 -1.03029 -1.73169 0
M  V30 454 O 40.5807 -0.675215 -2.43305 0
M  V30 455 C 41.8937 -3.00139 -0.183584 0
M  V30 456 C 43.4417 -3.11946 -0.256654 0
M  V30 457 C 43.9167 -4.57793 -0.137792 0
M  V30 458 N 45.4077 -4.6279 -0.194904 0
M  V30 459 C 46.1427 -5.7326 -0.126655 0
M  V30 460 N 45.6387 -6.928 -0.00755288 0
M  V30 461 N 47.4317 -5.61811 -0.180348 0
M  V30 462 H 39.5827 -1.90424 0.94087 0
M  V30 463 H 41.8457 -0.875761 0.362968 0
M  V30 464 H 41.5517 -3.4292 0.780927 0
M  V30 465 H 41.4257 -3.64899 -0.955448 0
M  V30 466 H 43.8127 -2.69079 -1.21162 0
M  V30 467 H 43.8937 -2.49915 0.545517 0
M  V30 468 H 43.5377 -5.01339 0.813739 0
M  V30 469 H 43.4677 -5.17798 -0.958775 0
M  V30 470 H 45.9587 -3.76807 -0.287267 0
M  V30 471 H 46.2717 -7.72791 0.0379428 0
M  V30 472 H 44.6167 -6.94995 0.0271731 0
M  V30 473 H 47.8077 -4.6731 -0.271767 0
M  V30 474 H 47.9807 -6.47882 -0.123697 0
M  V30 475 N 41.3868 0.248026 -1.55636 0
M  V30 476 C 42.3338 1.30707 -1.90222 0
M  V30 477 C 43.3038 1.47881 -0.756332 0
M  V30 478 O 44.4888 1.61883 -1.00988 0
M  V30 479 C 41.6288 2.65769 -2.20138 0
M  V30 480 C 40.7418 2.56612 -3.47526 0
M  V30 481 C 39.8768 3.8402 -3.67017 0
M  V30 482 C 38.9158 3.69476 -4.8801 0
M  V30 483 N 38.0528 4.88774 -5.04029 0
M  V30 484 H 42.8928 1.00512 -2.80538 0
M  V30 485 H 40.4298 0.485055 -1.38873 0
M  V30 486 H 42.3878 3.44386 -2.35487 0
M  V30 487 H 41.0178 2.94115 -1.33027 0
M  V30 488 H 40.0698 1.69571 -3.40514 0
M  V30 489 H 41.3818 2.41774 -4.36287 0
M  V30 490 H 40.5358 4.7108 -3.8232 0
M  V30 491 H 39.2748 4.01754 -2.76487 0
M  V30 492 H 38.2798 2.80799 -4.72686 0
M  V30 493 H 39.5048 3.53238 -5.8 0
M  V30 494 H 37.4508 5.0687 -4.16435 0
M  V30 495 H 37.3678 4.76562 -5.86877 0
M  V30 496 H 38.6358 5.77335 -5.23741 0
M  V30 497 N 42.8649 1.48995 0.513639 0
M  V30 498 C 44.2759 1.5119 1.09537 0
M  V30 499 C 44.6269 0.290906 1.94031 0
M  V30 500 O 43.7519 -0.60049 2.07902 0
M  V30 501 C 44.3469 2.73964 1.99322 0
M  V30 502 C 42.9059 2.78978 2.52682 0
M  V30 503 C 42.0529 2.44934 1.30009 0
M  V30 504 H 45.0039 1.55875 0.298125 0
M  V30 505 H 45.0249 2.53409 2.83838 0
M  V30 506 H 44.5369 3.62813 1.37799 0
M  V30 507 H 42.6379 1.94378 3.1788 0
M  V30 508 H 42.7509 3.8083 2.90698 0
M  V30 509 H 41.1149 1.9644 1.62122 0
M  V30 510 H 41.8979 3.36043 0.702131 0
M  V30 511 N 44.343 -0.763751 1.37857 0
M  V30 512 C 45.589 -1.52483 1.33704 0
M  V30 513 C 45.922 -1.94051 -0.0759612 0
M  V30 514 O 45.197 -1.64675 -1.03501 0
M  V30 515 C 45.48 -2.78441 2.28348 0
M  V30 516 C 45.333 -2.43075 3.78463 0
M  V30 517 C 46.652 -3.80415 2.21298 0
M  V30 518 H 43.771 -0.553169 0.487005 0
M  V30 519 H 46.413 -0.875562 1.68624 0
M  V30 520 H 44.563 -3.33842 1.987 0
M  V30 521 H 46.235 -1.93527 4.18742 0
M  V30 522 H 44.478 -1.75666 3.96641 0
M  V30 523 H 45.149 -3.33149 4.40132 0
M  V30 524 H 47.625 -3.34527 2.47449 0
M  V30 525 H 46.501 -4.66257 2.89647 0
M  V30 526 H 46.762 -4.25262 1.20849 0
M  V30 527 N 45.8211 -1.22559 -0.990812 0
M  V30 528 C 47.0671 -1.05297 -1.73322 0
M  V30 529 C 47.4001 0.410655 -1.89808 0
M  V30 530 O 46.6751 1.30439 -1.44277 0
M  V30 531 C 46.9581 -1.76713 -3.13759 0
M  V30 532 C 46.8111 -3.30684 -3.04907 0
M  V30 533 C 48.1301 -1.52121 -4.12974 0
M  V30 534 H 45.2491 -0.38392 -0.629106 0
M  V30 535 H 47.8911 -1.50926 -1.15418 0
M  V30 536 H 46.0411 -1.37924 -3.63193 0
M  V30 537 H 47.7131 -3.7893 -2.63077 0
M  V30 538 H 45.9561 -3.60253 -2.41661 0
M  V30 539 H 46.6271 -3.75833 -4.04294 0
M  V30 540 H 49.1031 -1.85819 -3.72304 0
M  V30 541 H 47.9791 -2.04582 -5.0935 0
M  V30 542 H 48.2401 -0.454257 -4.3976 0
M  V30 543 N 47.2992 1.18797 -1.03562 0
M  V30 544 C 48.7102 1.70322 -0.764676 0
M  V30 545 C 49.0612 1.82708 0.714996 0
M  V30 546 O 48.1862 1.50299 1.55689 0
M  V30 547 C 48.7812 3.09356 -1.38145 0
M  V30 548 C 47.3402 3.58114 -1.15895 0
M  V30 549 C 46.4872 2.34798 -1.4753 0
M  V30 550 H 49.4382 1.03543 -1.20268 0
M  V30 551 H 49.4592 3.72378 -0.781977 0
M  V30 552 H 48.9712 3.00309 -2.45837 0
M  V30 553 H 47.0722 3.72464 -0.100544 0
M  V30 554 H 47.1852 4.4184 -1.8524 0
M  V30 555 H 45.5492 2.38464 -0.894829 0
M  V30 556 H 46.3322 2.28375 -2.56319 0
M  V30 557 N 48.7773 0.814389 1.34928 0
M  V30 558 C 50.0253 0.397636 1.9815 0
M  V30 559 C 50.3463 -1.04069 1.64908 0
M  V30 560 O 49.6163 -1.72121 0.93548 0
M  V30 561 H 48.1963 0.144043 0.732981 0
M  V30 562 H 50.8583 1.04195 1.6471 0
M  V30 563 H 49.9543 0.509688 3.0791 0
M  V30 564 N 50.2554 -1.46986 0.568584 0
M  V30 565 C 51.2054 -2.27179 -0.193339 0
M  V30 566 C 52.1894 -1.35035 -0.874895 0
M  V30 567 O 53.3814 -1.5931 -0.771322 0
M  V30 568 C 50.5104 -3.21063 -1.21546 0
M  V30 569 C 49.5964 -4.2069 -0.536738 0
M  V30 570 N 49.9874 -5.04218 0.399673 0
M  V30 571 C 48.2854 -4.38961 -0.789254 0
M  V30 572 C 48.9864 -5.76242 0.795017 0
M  V30 573 N 47.9624 -5.434 0.1473 0
M  V30 574 H 51.7644 -2.89146 0.526458 0
M  V30 575 H 49.2784 -1.57664 0.389342 0
M  V30 576 H 51.2754 -3.77209 -1.77536 0
M  V30 577 H 49.9354 -2.60654 -1.93623 0
M  V30 578 H 50.9464 -5.12077 0.774454 0
M  V30 579 H 47.6234 -3.89713 -1.49767 0
M  V30 580 H 49.0134 -6.53417 1.56513 0
M  V30 581 N 51.7335 -0.305618 -1.54608 0
M  V30 582 C 52.9795 0.302746 -2.00528 0
M  V30 583 C 53.3125 1.53184 -1.19367 0
M  V30 584 O 52.5875 1.92598 -0.271321 0
M  V30 585 C 52.8705 0.654756 -3.54097 0
M  V30 586 C 52.7235 -0.583793 -4.45995 0
M  V30 587 C 54.0425 1.47947 -4.14487 0
M  V30 588 H 51.1615 0.108564 -0.72896 0
M  V30 589 H 53.8035 -0.418634 -1.85331 0
M  V30 590 H 51.9535 1.26935 -3.67178 0
M  V30 591 H 53.6255 -1.22224 -4.44814 0
M  V30 592 H 51.8685 -1.21615 -4.16404 0
M  V30 593 H 52.5395 -0.293287 -5.5122 0
M  V30 594 H 55.0155 0.96013 -4.04871 0
M  V30 595 H 53.8915 1.69454 -5.22088 0
M  V30 596 H 54.1525 2.47011 -3.66658 0
M  V30 597 N 53.2116 1.57565 -0.0334293 0
M  V30 598 C 54.1416 2.13511 0.945265 0
M  V30 599 C 55.1226 1.05231 1.33643 0
M  V30 600 O 56.3076 1.33084 1.41429 0
M  V30 601 C 53.4376 2.6657 2.22616 0
M  V30 602 C 52.3916 3.79676 1.97561 0
M  V30 603 C 51.7176 4.1918 3.31952 0
M  V30 604 C 53.0176 5.0557 1.31135 0
M  V30 605 H 54.7116 2.95538 0.479325 0
M  V30 606 H 52.2576 1.42166 0.229115 0
M  V30 607 H 54.2106 3.04344 2.91466 0
M  V30 608 H 52.9346 1.8171 2.71384 0
M  V30 609 H 51.5936 3.42347 1.31127 0
M  V30 610 H 51.2416 3.31296 3.78487 0
M  V30 611 H 50.9416 4.95402 3.15992 0
M  V30 612 H 52.4656 4.59541 4.02063 0
M  V30 613 H 53.8796 5.40903 1.89992 0
M  V30 614 H 52.2766 5.86818 1.25559 0
M  V30 615 H 53.3466 4.84062 0.284894 0
M  V30 616 N 54.6897 -0.239769 1.55765 0
M  V30 617 C 55.9357 -0.968234 1.78194 0
M  V30 618 C 56.2687 -1.84701 0.599938 0
M  V30 619 O 55.5437 -1.9031 -0.401524 0
M  V30 620 C 55.8267 -1.8227 3.10564 0
M  V30 621 C 55.6797 -0.971633 4.3918 0
M  V30 622 C 56.9987 -2.80388 3.39221 0
M  V30 623 H 54.1177 -0.350572 0.648281 0
M  V30 624 H 56.7597 -0.238259 1.885 0
M  V30 625 H 54.9097 -2.44507 3.01908 0
M  V30 626 H 56.5817 -0.367408 4.59835 0
M  V30 627 H 54.8247 -0.276276 4.32919 0
M  V30 628 H 55.4957 -1.60346 5.28198 0
M  V30 629 H 57.9717 -2.28287 3.47885 0
M  V30 630 H 56.8477 -3.3729 4.33044 0
M  V30 631 H 57.1087 -3.57212 2.60484 0
M  V30 632 N 56.1678 -1.49265 -0.50573 0
M  V30 633 C 57.4078 -1.60128 -1.27038 0
M  V30 634 C 57.7718 -0.279557 -1.89954 0
M  V30 635 O 58.9728 -0.263329 -2.67507 0
M  V30 636 C 57.2438 -2.72507 -2.31246 0
M  V30 637 S 58.8028 -3.0329 -3.17113 0
M  V30 638 H 55.6208 -0.564863 -0.4318 0
M  V30 639 H 58.2228 -1.86902 -0.573397 0
M  V30 640 H 56.9268 -3.67068 -1.83546 0
M  V30 641 H 56.4578 -2.4771 -3.05619 0
M  V30 642 H 58.4728 -2.44448 -4.31809 0
M  V30 643 N 57.6459 0.756429 -1.3826 0
M  V30 644 C 59.0569 1.33359 -1.30661 0
M  V30 645 C 59.4079 1.96161 0.0388875 0
M  V30 646 O 58.5329 1.94874 0.940918 0
M  V30 647 C 59.1279 2.42477 -2.36622 0
M  V30 648 C 57.6869 2.95922 -2.3261 0
M  V30 649 C 56.8339 1.69275 -2.19639 0
M  V30 650 H 59.7849 0.55552 -1.4866 0
M  V30 651 H 59.8059 3.22345 -2.02174 0
M  V30 652 H 59.3179 1.96739 -3.34538 0
M  V30 653 H 57.4189 3.45996 -1.38267 0
M  V30 654 H 57.5319 3.50494 -3.26636 0
M  V30 655 H 55.8959 1.92793 -1.66442 0
M  V30 656 H 56.6789 1.25619 -3.19491 0
M  V30 657 N 59.124 1.23083 0.984299 0
M  V30 658 C 60.054 1.03292 2.09411 0
M  V30 659 C 61.035 -0.048923 1.7003 0
M  V30 660 O 62.22 0.114967 1.93859 0
M  V30 661 C 59.35 0.619155 3.41736 0
M  V30 662 C 58.304 1.64791 3.95004 0
M  V30 663 C 57.63 1.0897 5.23478 0
M  V30 664 C 58.93 3.03999 4.24714 0
M  V30 665 H 60.624 1.96119 2.26225 0
M  V30 666 H 58.17 0.944344 1.08711 0
M  V30 667 H 60.123 0.467777 4.18796 0
M  V30 668 H 58.847 -0.344786 3.24775 0
M  V30 669 H 57.506 1.78721 3.20085 0
M  V30 670 H 57.154 0.11686 5.02864 0
M  V30 671 H 56.854 1.77704 5.60085 0
M  V30 672 H 58.378 0.950093 6.03163 0
M  V30 673 H 59.792 2.93393 4.92538 0
M  V30 674 H 58.189 3.69936 4.72512 0
M  V30 675 H 59.259 3.53285 3.32142 0
M  V30 676 N 60.6021 -1.18246 1.0419 0
M  V30 677 C 62.0181 -1.40269 0.761366 0
M  V30 678 C 62.2181 -1.90777 -0.648578 0
M  V30 679 O 61.2741 -2.0929 -1.41258 0
M  V30 680 C 62.5871 -2.40237 1.8085 0
M  V30 681 C 64.1351 -2.53961 1.82955 0
M  V30 682 C 64.6101 -3.57194 2.86664 0
M  V30 683 N 66.1011 -3.64702 2.85563 0
M  V30 684 C 66.8361 -4.44309 3.6246 0
M  V30 685 N 66.3321 -5.27514 4.49111 0
M  V30 686 N 68.1251 -4.39084 3.50944 0
M  V30 687 H 60.2761 -0.837882 1.95175 0
M  V30 688 H 62.5391 -0.430608 0.84456 0
M  V30 689 H 62.2451 -2.10176 2.81991 0
M  V30 690 H 62.1191 -3.39601 1.64168 0
M  V30 691 H 64.5061 -2.83338 0.824855 0
M  V30 692 H 64.5871 -1.54706 2.03715 0
M  V30 693 H 64.2311 -3.28558 3.87314 0
M  V30 694 H 64.1611 -4.5613 2.6316 0
M  V30 695 H 66.6521 -3.05289 2.22727 0
M  V30 696 H 66.9651 -5.85411 5.04493 0
M  V30 697 H 65.3101 -5.2693 4.53178 0
M  V30 698 H 68.5011 -3.7313 2.82651 0
M  V30 699 H 68.6741 -5.00883 4.11121 0
M  V30 700 N 62.0802 -0.821533 -1.34494 0
M  V30 701 C 63.4912 -0.467956 -1.8074 0
M  V30 702 C 63.8422 1.01151 -1.68116 0
M  V30 703 O 62.9672 1.78707 -1.22036 0
M  V30 704 C 63.5622 -0.842627 -3.28154 0
M  V30 705 C 62.1212 -0.541439 -3.72485 0
M  V30 706 C 61.2682 -1.06028 -2.56229 0
M  V30 707 H 64.2192 -1.01183 -1.22261 0
M  V30 708 H 64.2402 -0.145876 -3.8022 0
M  V30 709 H 63.7522 -1.91945 -3.37311 0
M  V30 710 H 61.8532 0.526034 -3.68868 0
M  V30 711 H 61.9662 -1.08453 -4.66663 0
M  V30 712 H 60.3302 -0.481892 -2.501 0
M  V30 713 H 61.1132 -2.14352 -2.68157 0
M  V30 714 N 63.5583 1.46682 -0.576371 0
M  V30 715 C 64.8043 2.02712 -0.0596221 0
M  V30 716 C 65.1373 1.44765 1.29448 0
M  V30 717 O 64.4123 0.610355 1.84675 0
M  V30 718 C 64.6953 3.60098 0.0129503 0
M  V30 719 C 64.5483 4.28441 -1.3696 0
M  V30 720 C 65.8673 4.34224 0.71678 0
M  V30 721 H 62.9863 0.736637 -0.0231407 0
M  V30 722 H 65.6283 1.74898 -0.742351 0
M  V30 723 H 63.7783 3.83926 0.594378 0
M  V30 724 H 65.4503 4.15896 -1.9957 0
M  V30 725 H 63.6933 3.8805 -1.93907 0
M  V30 726 H 64.3643 5.3716 -1.27135 0
M  V30 727 H 66.8403 4.15503 0.222908 0
M  V30 728 H 65.7163 5.43936 0.73657 0
M  V30 729 H 65.9773 4.04823 1.77682 0
M  V30 730 N 65.0364 0.313813 1.54444 0
M  V30 731 C 65.9464 -0.565714 2.27677 0
M  V30 732 C 66.9624 -1.13754 1.31666 0
M  V30 733 O 68.1384 -1.15959 1.64668 0
M  V30 734 C 65.2034 -1.71528 3.01296 0
M  V30 735 C 64.2644 -1.17624 4.12872 0
M  V30 736 C 63.4974 -2.27102 4.8297 0
M  V30 737 O 63.7204 -3.47256 4.52514 0
M  V30 738 O 62.6544 -1.9307 5.70094 0
M  V30 739 H 66.4804 0.0287296 3.03686 0
M  V30 740 H 64.0654 0.0798312 1.49187 0
M  V30 741 H 65.9474 -2.38476 3.4743 0
M  V30 742 H 64.6224 -2.29608 2.2817 0
M  V30 743 H 63.5294 -0.472124 3.71109 0
M  V30 744 H 64.8624 -0.640695 4.88012 0
M  V30 745 N 66.5145 -1.57545 0.0417849 0
M  V30 746 C 67.9305 -1.56467 -0.314704 0
M  V30 747 C 68.1305 -1.04859 -1.72066 0
M  V30 748 O 67.1865 -0.700983 -2.42575 0
M  V30 749 C 68.4995 -3.00317 -0.15174 0
M  V30 750 C 70.0475 -3.12201 -0.223553 0
M  V30 751 C 70.5225 -4.57913 -0.0892295 0
M  V30 752 N 72.0135 -4.6297 -0.145808 0
M  V30 753 C 72.7485 -5.73362 -0.0658459 0
M  V30 754 N 72.2445 -6.92769 0.0659282 0
M  V30 755 N 74.0375 -5.6197 -0.12075 0
M  V30 756 H 66.1885 -1.89416 0.961014 0
M  V30 757 H 68.4515 -0.871862 0.372237 0
M  V30 758 H 68.1575 -3.42073 0.817254 0
M  V30 759 H 68.0315 -3.65892 -0.916692 0
M  V30 760 H 70.4185 -2.70349 -1.18301 0
M  V30 761 H 70.4995 -2.49323 0.571994 0
M  V30 762 H 70.1435 -5.00448 0.866867 0
M  V30 763 H 70.0735 -5.18786 -0.903802 0
M  V30 764 H 72.5645 -3.7709 -0.247286 0
M  V30 765 H 72.8775 -7.72707 0.119905 0
M  V30 766 H 71.2225 -6.94927 0.100885 0
M  V30 767 H 74.4135 -4.67572 -0.222187 0
M  V30 768 H 74.5865 -6.47977 -0.0549735 0
M  V30 769 N 67.9926 0.231505 -1.5589 0
M  V30 770 C 69.2396 0.957352 -1.78441 0
M  V30 771 C 69.5676 1.84726 -0.60882 0
M  V30 772 O 68.8226 1.91416 0.40725 0
M  V30 773 C 69.1216 1.83577 -3.0665 0
M  V30 774 C 68.7876 1.09993 -4.37278 0
M  V30 775 C 67.4496 0.896629 -4.72773 0
M  V30 776 C 69.8016 0.579558 -5.17968 0
M  V30 777 C 67.1296 0.160896 -5.86479 0
M  V30 778 C 69.4816 -0.142783 -6.32439 0
M  V30 779 C 68.1456 -0.357427 -6.66542 0
M  V30 780 H 67.4156 0.35032 -0.65296 0
M  V30 781 H 70.0626 0.226259 -1.90159 0
M  V30 782 H 68.3676 2.63441 -2.90011 0
M  V30 783 H 70.0646 2.39934 -3.21298 0
M  V30 784 H 66.6546 1.26835 -4.09403 0
M  V30 785 H 70.8386 0.724125 -4.90989 0
M  V30 786 H 66.0946 -0.0157293 -6.11398 0
M  V30 787 H 70.2686 -0.553559 -6.94196 0
M  V30 788 H 67.8956 -0.929466 -7.54497 0
M  V30 789 N 69.4707 1.49531 0.497807 0
M  V30 790 C 70.4207 1.62829 1.59596 0
M  V30 791 C 71.4047 0.483824 1.53453 0
M  V30 792 O 72.5967 0.736937 1.60929 0
M  V30 793 C 69.7257 1.7011 2.98191 0
M  V30 794 C 68.8117 2.90144 3.09317 0
M  V30 795 N 69.2027 4.1418 2.90324 0
M  V30 796 C 67.5007 2.88148 3.40422 0
M  V30 797 C 68.2017 4.94886 3.05717 0
M  V30 798 N 67.1777 4.28314 3.34736 0
M  V30 799 H 70.9797 2.56446 1.4357 0
M  V30 800 H 68.4937 1.46347 0.704001 0
M  V30 801 H 70.4907 1.77735 3.77115 0
M  V30 802 H 69.1507 0.776315 3.15283 0
M  V30 803 H 70.1617 4.44109 2.66436 0
M  V30 804 H 66.8387 2.05061 3.63671 0
M  V30 805 H 68.2287 6.03432 2.95499 0
M  V30 806 N 70.9488 -0.749086 1.3866 0
M  V30 807 C 72.2258 -1.4992 1.25632 0
M  V30 808 C 72.6058 -2.10633 -0.140317 0
M  V30 809 O 71.9538 -1.97437 -1.15025 0
M  V30 810 C 72.1638 -2.56195 2.36992 0
M  V30 811 C 73.5118 -3.22972 2.75634 0
M  V30 812 O 74.5358 -2.66502 2.36337 0
M  V30 813 O 73.3948 -4.25122 3.43415 0
M  V30 814 H 70.4888 -0.665067 0.491544 0
M  V30 815 H 73.0348 -0.784113 1.50498 0
M  V30 816 H 71.8068 -2.09612 3.30422 0
M  V30 817 H 71.4298 -3.35279 2.13714 0
M  V30 818 N 72.4269 -1.23603 -0.977757 0
M  V30 819 C 73.3569 -1.04401 -2.0886 0
M  V30 820 C 74.3379 0.0399052 -1.70053 0
M  V30 821 O 75.5229 -0.125246 -1.93796 0
M  V30 822 C 72.6529 -0.637269 -3.41403 0
M  V30 823 C 71.6069 -1.66883 -3.94124 0
M  V30 824 C 70.9329 -1.11745 -5.22893 0
M  V30 825 C 72.2329 -3.06247 -4.23096 0
M  V30 826 H 73.9269 -1.97316 -2.25182 0
M  V30 827 H 71.4729 -0.950096 -1.08209 0
M  V30 828 H 73.4259 -0.48998 -4.18542 0
M  V30 829 H 72.1499 0.327557 -3.24953 0
M  V30 830 H 70.8089 -1.80416 -3.19133 0
M  V30 831 H 70.4569 -0.143527 -5.02795 0
M  V30 832 H 70.1569 -1.80672 -5.59134 0
M  V30 833 H 71.6809 -0.982067 -6.02651 0
M  V30 834 H 73.0949 -2.96001 -4.90975 0
M  V30 835 H 71.4919 -3.72436 -4.70544 0
M  V30 836 H 72.5619 -3.55041 -3.30263 0
M  V30 837 N 73.905 1.17692 -1.04816 0
M  V30 838 C 75.321 1.39863 -0.768794 0
M  V30 839 C 75.521 1.91118 0.638451 0
M  V30 840 O 74.577 2.10036 1.40146 0
M  V30 841 C 75.89 2.39274 -1.82122 0
M  V30 842 C 77.438 2.52987 -1.843 0
M  V30 843 C 77.913 3.55669 -2.88555 0
M  V30 844 N 79.404 3.63183 -2.87493 0
M  V30 845 C 80.139 4.42381 -3.64811 0
M  V30 846 N 79.635 5.25125 -4.51903 0
M  V30 847 N 81.428 4.37217 -3.53267 0
M  V30 848 H 73.579 0.82752 -1.95617 0
M  V30 849 H 75.842 0.426123 -0.846831 0
M  V30 850 H 75.548 2.08678 -2.83102 0
M  V30 851 H 75.422 3.38725 -1.65967 0
M  V30 852 H 77.809 2.82896 -0.839869 0
M  V30 853 H 77.89 1.53623 -2.04532 0
M  V30 854 H 77.534 3.26499 -3.89051 0
M  V30 855 H 77.464 4.54728 -2.65575 0
M  V30 856 H 79.955 3.04103 -2.24343 0
M  V30 857 H 80.268 5.82728 -5.07591 0
M  V30 858 H 78.613 5.24519 -4.55966 0
M  V30 859 H 81.804 3.71626 -2.84625 0
M  V30 860 H 81.977 4.98696 -4.13771 0
M  V30 861 N 75.3831 0.828654 1.34056 0
M  V30 862 C 76.7941 0.477534 1.8049 0
M  V30 863 C 77.1451 -1.00258 1.6865 0
M  V30 864 O 76.2701 -1.78057 1.22982 0
M  V30 865 C 76.8651 0.860018 3.27703 0
M  V30 866 C 75.4241 0.561185 3.72193 0
M  V30 867 C 74.5711 1.07385 2.55663 0
M  V30 868 H 77.5221 1.0183 1.21722 0
M  V30 869 H 77.5431 0.166038 3.80138 0
M  V30 870 H 77.0551 1.93731 3.36288 0
M  V30 871 H 75.1561 -0.506465 3.69142 0
M  V30 872 H 75.2691 1.10926 4.66082 0
M  V30 873 H 73.6331 0.495149 2.49841 0
M  V30 874 H 74.4161 2.15771 2.67016 0
M  V30 875 N 76.8612 -1.46375 0.584142 0
M  V30 876 C 78.1382 -1.956 0.0033388 0
M  V30 877 C 78.5182 -1.52679 -1.45782 0
M  V30 878 O 77.8662 -0.77816 -2.14842 0
M  V30 879 C 78.0762 -3.48551 0.176891 0
M  V30 880 C 79.4242 -4.24576 0.0454609 0
M  V30 881 O 80.4482 -3.56043 0.105801 0
M  V30 882 O 79.3072 -5.46427 -0.0890376 0
M  V30 883 H 76.4012 -0.825547 -0.0490066 0
M  V30 884 H 78.9472 -1.56652 0.65256 0
M  V30 885 H 77.7192 -3.72683 1.1926 0
M  V30 886 H 77.3422 -3.94332 -0.508695 0
M  V30 887 N 78.3393 -0.321999 -1.54275 0
M  V30 888 C 79.2493 0.553631 -2.27974 0
M  V30 889 C 80.2653 1.13054 -1.32268 0
M  V30 890 O 81.4413 1.15084 -1.6528 0
M  V30 891 C 78.5063 1.69927 -3.02201 0
M  V30 892 C 77.5673 1.15433 -4.1349 0
M  V30 893 C 76.8003 2.24537 -4.84168 0
M  V30 894 O 77.0233 3.44852 -4.5435 0
M  V30 895 O 75.9573 1.90044 -5.7111 0
M  V30 896 H 79.7833 -0.0448345 -3.03667 0
M  V30 897 H 77.3683 -0.0877418 -1.49142 0
M  V30 898 H 79.2503 2.3663 -3.48689 0
M  V30 899 H 77.9253 2.28395 -2.29385 0
M  V30 900 H 76.8323 0.452436 -3.71354 0
M  V30 901 H 78.1653 0.614805 -4.88345 0
M  V30 902 N 79.8174 1.5752 -0.0501392 0
M  V30 903 C 81.0634 1.92936 0.624798 0
M  V30 904 C 81.3964 0.928685 1.70555 0
M  V30 905 O 80.6714 -0.0454779 1.94447 0
M  V30 906 C 80.9544 3.38737 1.22185 0
M  V30 907 C 80.8074 4.49552 0.149218 0
M  V30 908 C 82.1264 3.84913 2.13378 0
M  V30 909 H 79.2454 0.701604 0.225657 0
M  V30 910 H 81.8874 1.89671 -0.111693 0
M  V30 911 H 80.0374 3.4165 1.84953 0
M  V30 912 H 81.7094 4.58768 -0.482648 0
M  V30 913 H 79.9524 4.30638 -0.522841 0
M  V30 914 H 80.6234 5.48653 0.606966 0
M  V30 915 H 83.0994 3.8387 1.60572 0
M  V30 916 H 81.9754 4.87584 2.52097 0
M  V30 917 H 82.2364 3.21611 3.03346 0
M  V30 918 N 81.2955 -0.223234 1.56011 0
M  V30 919 C 82.2585 -1.26014 1.9145 0
M  V30 920 C 83.2585 -1.3989 0.792937 0
M  V30 921 O 84.4485 -1.38184 1.0607 0
M  V30 922 C 81.5805 -2.63422 2.16383 0
M  V30 923 H 82.7735 -0.95796 2.84189 0
M  V30 924 H 80.3265 -0.463576 1.49267 0
M  V30 925 H 81.0615 -2.98741 1.2619 0
M  V30 926 H 80.8465 -2.54728 2.98088 0
M  V30 927 H 82.3365 -3.38249 2.44903 0
M  V30 928 N 82.7736 -1.49793 -0.48987 0
M  V30 929 C 84.0506 -1.50348 -1.25119 0
M  V30 930 C 84.4306 -0.237466 -2.0976 0
M  V30 931 O 83.7786 0.77981 -2.14782 0
M  V30 932 C 83.9886 -2.78872 -2.09837 0
M  V30 933 C 85.3366 -3.288 -2.68655 0
M  V30 934 O 86.3606 -2.80065 -2.20096 0
M  V30 935 O 85.2196 -4.13707 -3.57083 0
M  V30 936 H 82.3136 -0.602242 -0.566775 0
M  V30 937 H 84.8596 -1.62067 -0.503229 0
M  V30 938 H 83.6316 -3.62499 -1.47343 0
M  V30 939 H 83.2546 -2.70066 -2.91805 0
M  V30 940 N 84.2517 0.741722 -1.39055 0
M  V30 941 C 85.1817 1.869 -1.39966 0
M  V30 942 C 86.1627 1.6804 -0.26392 0
M  V30 943 O 87.3477 1.88458 -0.468755 0
M  V30 944 C 84.4777 3.24572 -1.23574 0
M  V30 945 C 83.4317 3.58056 -2.34477 0
M  V30 946 C 82.7577 4.94593 -2.0318 0
M  V30 947 C 84.0577 3.61716 -3.76774 0
M  V30 948 H 85.7517 1.86395 -2.34302 0
M  V30 949 H 83.2977 0.895361 -1.1278 0
M  V30 950 H 85.2507 4.031 -1.22834 0
M  V30 951 H 83.9747 3.25587 -0.257045 0
M  V30 952 H 82.6337 2.81854 -2.34423 0
M  V30 953 H 82.2817 4.92181 -1.03765 0
M  V30 954 H 81.9817 5.17964 -2.77465 0
M  V30 955 H 83.5057 5.75486 -2.04079 0
M  V30 956 H 84.9197 4.30335 -3.78794 0
M  V30 957 H 83.3167 3.96603 -4.50362 0
M  V30 958 H 84.3867 2.61672 -4.08235 0
M  V30 959 N 85.7298 1.2412 0.971189 0
M  V30 960 C 86.9768 1.07881 1.71371 0
M  V30 961 C 87.3048 -0.382901 1.90694 0
M  V30 962 O 86.5598 -1.29945 1.46331 0
M  V30 963 C 86.8588 1.75983 3.11071 0
M  V30 964 C 86.5248 3.25909 3.11599 0
M  V30 965 C 85.1868 3.66813 3.11451 0
M  V30 966 C 87.5388 4.21771 3.062 0
M  V30 967 C 84.8668 5.02021 3.03631 0
M  V30 968 C 87.2188 5.56982 2.99923 0
M  V30 969 C 85.8828 5.97237 2.98102 0
M  V30 970 H 85.1528 0.394764 0.62709 0
M  V30 971 H 87.7998 1.54176 1.13587 0
M  V30 972 H 86.1048 1.22072 3.72298 0
M  V30 973 H 87.8018 1.60887 3.6731 0
M  V30 974 H 84.3918 2.93353 3.12477 0
M  V30 975 H 88.5758 3.91172 3.05447 0
M  V30 976 H 83.8318 5.32411 3.0058 0
M  V30 977 H 88.0058 6.30969 2.94704 0
M  V30 978 H 85.6328 7.01967 2.91798 0
M  V30 979 N 87.2079 -1.17134 1.05439 0
M  V30 980 C 88.1399 -2.2078 0.615539 0
M  V30 981 C 89.1529 -1.59584 -0.322001 0
M  V30 982 O 90.3419 -1.78133 -0.114344 0
M  V30 983 C 87.4419 -3.38691 -0.118938 0
M  V30 984 C 86.6149 -4.29454 0.829924 0
M  V30 985 C 85.6739 -5.26024 0.136258 0
M  V30 986 O 84.6999 -5.63952 0.77115 0
M  V30 987 N 85.9019 -5.69487 -1.1254 0
M  V30 988 H 88.6669 -2.59052 1.50705 0
M  V30 989 H 86.2279 -1.32058 0.936603 0
M  V30 990 H 88.2199 -4.00329 -0.593179 0
M  V30 991 H 86.7899 -2.98996 -0.91215 0
M  V30 992 H 86.0099 -3.65211 1.48373 0
M  V30 993 H 87.2979 -4.86984 1.47392 0
M  V30 994 H 86.6959 -5.4075 -1.6615 0
M  V30 995 H 85.2529 -6.33257 -1.54366 0
M  V30 996 N 88.686 -0.835752 -1.33615 0
M  V30 997 C 89.914 -0.443344 -2.02094 0
M  V30 998 C 90.329 0.954522 -1.62894 0
M  V30 999 O 89.686 1.61982 -0.840723 0
M  V30 1000 C 89.737 -0.550775 -3.5728 0
M  V30 1001 O 89.458 -1.89356 -3.95065 0
M  V30 1002 C 90.959 -0.154919 -4.43029 0
M  V30 1003 H 88.179 -0.176359 -0.647409 0
M  V30 1004 H 90.723 -1.12746 -1.70612 0
M  V30 1005 H 88.878 0.0853997 -3.87306 0
M  V30 1006 H 89.292 -1.87687 -4.89769 0
M  V30 1007 H 90.766 -0.281144 -5.51284 0
M  V30 1008 H 91.243 0.902863 -4.2982 0
M  V30 1009 H 91.849 -0.765404 -4.18356 0
M  V30 1010 N 90.1641 1.46063 -0.591896 0
M  V30 1011 C 91.3921 2.06717 -0.0868936 0
M  V30 1012 C 91.8071 1.43916 1.22203 0
M  V30 1013 O 91.1641 0.547698 1.74088 0
M  V30 1014 C 91.2151 3.6142 0.0758725 0
M  V30 1015 O 90.9361 4.21874 -1.18126 0
M  V30 1016 C 92.4371 4.39025 0.61416 0
M  V30 1017 H 89.6571 0.668162 -0.0616518 0
M  V30 1018 H 92.2011 1.8755 -0.815175 0
M  V30 1019 H 90.3561 3.79983 0.754413 0
M  V30 1020 H 90.7701 5.14861 -1.00092 0
M  V30 1021 H 92.2441 5.4783 0.677193 0
M  V30 1022 H 92.7211 4.07708 1.63312 0
M  V30 1023 H 93.3271 4.2529 -0.0298142 0
M  V30 1024 N 91.6422 0.330177 1.54103 0
M  V30 1025 C 92.5742 -0.566902 2.22079 0
M  V30 1026 C 93.5872 -1.07462 1.22294 0
M  V30 1027 O 94.7762 -0.987065 1.48726 0
M  V30 1028 C 91.8762 -1.79138 2.87685 0
M  V30 1029 C 91.0492 -1.42123 4.13666 0
M  V30 1030 C 90.1082 -2.50394 4.62806 0
M  V30 1031 O 89.1342 -2.14261 5.27334 0
M  V30 1032 N 90.3362 -3.81433 4.37595 0
M  V30 1033 H 93.1012 0.0151844 2.99696 0
M  V30 1034 H 90.6622 0.153681 1.61169 0
M  V30 1035 H 92.6542 -2.50975 3.1748 0
M  V30 1036 H 91.2242 -2.28115 2.13734 0
M  V30 1037 H 90.4442 -0.534201 3.90564 0
M  V30 1038 H 91.7322 -1.14971 4.9564 0
M  V30 1039 H 91.1302 -4.13584 3.8596 0
M  V30 1040 H 89.6872 -4.4948 4.72029 0
M  V30 1041 N 93.1203 -1.57491 0.0584922 0
M  V30 1042 C 94.5363 -1.56792 -0.298091 0
M  V30 1043 C 94.7363 -1.06679 -1.70944 0
M  V30 1044 O 93.7923 -0.726672 -2.41818 0
M  V30 1045 C 95.1053 -3.00461 -0.119879 0
M  V30 1046 C 96.6533 -3.1242 -0.190428 0
M  V30 1047 C 97.1283 -4.57982 -0.0406567 0
M  V30 1048 N 98.6193 -4.63099 -0.0966958 0
M  V30 1049 C 99.3543 -5.734 -0.00502943 0
M  V30 1050 N 98.8503 -6.9266 0.139402 0
M  V30 1051 N 100.643 -5.62067 -0.0611391 0
M  V30 1052 H 92.7943 -1.88386 0.98105 0
M  V30 1053 H 95.0573 -0.867865 0.381463 0
M  V30 1054 H 94.7633 -3.41187 0.85349 0
M  V30 1055 H 94.6373 -3.66843 -0.877833 0
M  V30 1056 H 97.0243 -2.71589 -1.15427 0
M  V30 1057 H 97.1053 -2.48702 0.598405 0
M  V30 1058 H 96.7493 -4.995 0.919897 0
M  V30 1059 H 96.6793 -5.19715 -0.848727 0
M  V30 1060 H 99.1703 -3.77331 -0.207277 0
M  V30 1061 H 99.4833 -7.72536 0.201855 0
M  V30 1062 H 97.8283 -6.94781 0.174586 0
M  V30 1063 H 101.019 -4.67782 -0.172583 0
M  V30 1064 H 101.192 -6.47999 0.0137562 0
M  V30 1065 N 94.5984 0.214957 -1.56127 0
M  V30 1066 C 95.8444 0.939762 -1.79712 0
M  V30 1067 C 96.1774 1.83723 -0.629247 0
M  V30 1068 O 95.4524 1.90925 0.371197 0
M  V30 1069 C 95.7354 1.77306 -3.13424 0
M  V30 1070 C 95.5884 0.90164 -4.40671 0
M  V30 1071 C 96.9074 2.74956 -3.43638 0
M  V30 1072 H 94.0264 0.340214 -0.653776 0
M  V30 1073 H 96.6684 0.20824 -1.88855 0
M  V30 1074 H 94.8184 2.39673 -3.0576 0
M  V30 1075 H 96.4904 0.294206 -4.60361 0
M  V30 1076 H 94.7334 0.207368 -4.33304 0
M  V30 1077 H 95.4044 1.51923 -5.30682 0
M  V30 1078 H 97.8804 2.22724 -3.51473 0
M  V30 1079 H 96.7564 3.30358 -4.38355 0
M  V30 1080 H 97.0174 3.53023 -2.66134 0
M  V30 1081 N 96.0765 1.50051 0.48192 0
M  V30 1082 C 97.3245 1.60181 1.23234 0
M  V30 1083 C 97.6455 0.299176 1.92691 0
M  V30 1084 O 96.9155 -0.682708 1.83619 0
M  V30 1085 H 95.4955 0.590232 0.457859 0
M  V30 1086 H 98.1575 1.86775 0.556881 0
M  V30 1087 H 97.2535 2.40753 1.98607 0
M  V30 1088 N 97.5546 -0.734337 1.39446 0
M  V30 1089 C 98.7826 -1.52358 1.39981 0
M  V30 1090 C 99.1976 -1.88799 -0.0054975 0
M  V30 1091 O 98.5546 -1.54146 -0.976998 0
M  V30 1092 C 98.6056 -2.81072 2.27333 0
M  V30 1093 O 98.3266 -2.46178 3.62392 0
M  V30 1094 C 99.8276 -3.75096 2.36259 0
M  V30 1095 H 97.0476 -0.470806 0.478103 0
M  V30 1096 H 99.5916 -0.907339 1.83269 0
M  V30 1097 H 97.7466 -3.39026 1.87457 0
M  V30 1098 H 98.1606 -3.28866 4.08592 0
M  V30 1099 H 99.6346 -4.62305 3.01626 0
M  V30 1100 H 100.112 -4.16892 1.38194 0
M  V30 1101 H 100.718 -3.23061 2.76608 0
M  V30 1102 N 99.0327 -1.24633 -0.964593 0
M  V30 1103 C 100.279 -1.08949 -1.71049 0
M  V30 1104 C 100.612 0.370302 -1.90637 0
M  V30 1105 O 99.8867 1.27349 -1.47011 0
M  V30 1106 C 100.17 -1.83329 -3.0994 0
M  V30 1107 C 100.023 -3.37077 -2.97824 0
M  V30 1108 C 101.342 -1.60846 -4.09654 0
M  V30 1109 H 98.4607 -0.397178 -0.620821 0
M  V30 1110 H 101.103 -1.5334 -1.12191 0
M  V30 1111 H 99.2527 -1.45597 -3.60186 0
M  V30 1112 H 100.925 -3.84425 -2.5498 0
M  V30 1113 H 99.1677 -3.65298 -2.33965 0
M  V30 1114 H 99.8387 -3.84324 -3.96231 0
M  V30 1115 H 102.315 -1.93674 -3.68279 0
M  V30 1116 H 101.191 -2.1534 -5.04896 0
M  V30 1117 H 101.452 -0.547434 -4.38698 0
M  V30 1118 N 100.511 1.16574 -1.06058 0
M  V30 1119 C 101.757 1.87324 -0.777022 0
M  V30 1120 C 102.09 1.81351 0.694645 0
M  V30 1121 O 101.365 1.22753 1.50871 0
M  V30 1122 C 101.648 3.36991 -1.26922 0
M  V30 1123 C 101.501 3.51667 -2.80447 0
M  V30 1124 C 102.82 4.3131 -0.87521 0
M  V30 1125 H 99.9388 0.680191 -0.28374 0
M  V30 1126 H 102.581 1.37036 -1.3161 0
M  V30 1127 H 100.731 3.79949 -0.81063 0
M  V30 1128 H 102.403 3.17664 -3.34495 0
M  V30 1129 H 100.646 2.93656 -3.19294 0
M  V30 1130 H 101.317 4.56766 -3.0995 0
M  V30 1131 H 103.793 3.9624 -1.27014 0
M  V30 1132 H 102.669 5.34545 -1.2471 0
M  V30 1133 H 102.93 4.41552 0.220071 0
M  V30 1134 N 101.989 0.842826 1.3317 0
M  V30 1135 C 102.899 0.281444 2.32906 0
M  V30 1136 C 103.915 -0.594587 1.63526 0
M  V30 1137 O 105.091 -0.49777 1.95152 0
M  V30 1138 C 102.156 -0.530929 3.42611 0
M  V30 1139 C 101.217 0.369843 4.27704 0
M  V30 1140 C 100.45 -0.403853 5.3217 0
M  V30 1141 O 100.673 -1.63513 5.46461 0
M  V30 1142 O 99.6069 0.224199 6.01482 0
M  V30 1143 H 103.433 1.10744 2.82789 0
M  V30 1144 H 101.018 0.60545 1.36582 0
M  V30 1145 H 102.9 -0.992437 4.09547 0
M  V30 1146 H 101.575 -1.33392 2.94938 0
M  V30 1147 H 100.482 0.879275 3.6362 0
M  V30 1148 H 101.815 1.13771 4.78871 0
M  V30 1149 N 103.467 -1.45747 0.599634 0
M  V30 1150 C 104.414 -2.30467 -0.123849 0
M  V30 1151 C 105.384 -1.41632 -0.86774 0
M  V30 1152 O 106.569 -1.70568 -0.855056 0
M  V30 1153 C 103.709 -3.26402 -1.12051 0
M  V30 1154 C 102.822 -4.3034 -0.37832 0
M  V30 1155 C 101.957 -5.13389 -1.364 0
M  V30 1156 C 100.996 -6.09061 -0.609171 0
M  V30 1157 N 100.133 -6.84918 -1.54374 0
M  V30 1158 H 104.973 -2.91802 0.604627 0
M  V30 1159 H 102.51 -1.43797 0.309972 0
M  V30 1160 H 104.468 -3.80482 -1.7114 0
M  V30 1161 H 103.098 -2.66839 -1.8165 0
M  V30 1162 H 102.15 -3.78984 0.327929 0
M  V30 1163 H 103.462 -4.98354 0.210997 0
M  V30 1164 H 102.616 -5.7183 -2.02719 0
M  V30 1165 H 101.355 -4.45376 -1.98725 0
M  V30 1166 H 100.36 -5.49758 0.0676979 0
M  V30 1167 H 101.585 -6.79099 0.00891991 0
M  V30 1168 H 99.531 -6.19601 -2.15478 0
M  V30 1169 H 99.448 -7.49254 -1.00766 0
M  V30 1170 H 100.716 -7.47906 -2.19676 0
M  V30 1171 N 104.945 -0.338344 -1.53925 0
M  V30 1172 C 105.895 0.536712 -2.21593 0
M  V30 1173 C 106.879 1.07015 -1.20153 0
M  V30 1174 O 108.071 1.00471 -1.45721 0
M  V30 1175 C 105.2 1.68977 -2.98834 0
M  V30 1176 C 104.286 1.17052 -4.07627 0
M  V30 1177 N 104.677 0.372085 -5.0443 0
M  V30 1178 C 102.975 1.44789 -4.21844 0
M  V30 1179 C 103.676 0.0909171 -5.81629 0
M  V30 1180 N 102.652 0.681131 -5.39316 0
M  V30 1181 H 106.454 -0.0804298 -2.9379 0
M  V30 1182 H 103.968 -0.144943 -1.61752 0
M  V30 1183 H 105.965 2.32857 -3.45808 0
M  V30 1184 H 104.625 2.31024 -2.28162 0
M  V30 1185 H 105.636 0.0136217 -5.17898 0
M  V30 1186 H 102.313 2.07313 -3.62391 0
M  V30 1187 H 103.703 -0.552817 -6.69622 0
M  V30 1188 N 106.423 1.57458 -0.0668435 0
M  V30 1189 C 107.67 1.93301 0.603406 0
M  V30 1190 C 107.998 0.946486 1.69917 0
M  V30 1191 O 107.253 -0.0387021 1.95662 0
M  V30 1192 C 107.552 3.35784 1.22409 0
M  V30 1193 C 107.218 4.50179 0.254955 0
M  V30 1194 C 105.88 4.81199 -0.0116746 0
M  V30 1195 C 108.232 5.19598 -0.408338 0
M  V30 1196 C 105.56 5.78978 -0.94877 0
M  V30 1197 C 107.912 6.18381 -1.33372 0
M  V30 1198 C 106.576 6.47821 -1.60887 0
M  V30 1199 H 105.846 0.707338 0.220802 0
M  V30 1200 H 108.493 1.91012 -0.136665 0
M  V30 1201 H 106.798 3.34515 2.03978 0
M  V30 1202 H 108.495 3.60804 1.74989 0
M  V30 1203 H 105.085 4.25983 0.472954 0
M  V30 1204 H 109.269 4.95832 -0.215456 0
M  V30 1205 H 104.525 6.00115 -1.16925 0
M  V30 1206 H 108.699 6.71277 -1.85367 0
M  V30 1207 H 106.326 7.23399 -2.33661 0
M  V30 1208 N 107.901 -0.206675 1.56239 0
M  V30 1209 C 108.851 -1.26 1.90021 0
M  V30 1210 C 109.835 -1.41566 0.764721 0
M  V30 1211 O 111.027 -1.44131 1.02739 0
M  V30 1212 C 108.156 -2.6073 2.23326 0
M  V30 1213 C 107.242 -2.49005 3.43304 0
M  V30 1214 N 107.633 -2.06946 4.61527 0
M  V30 1215 C 105.931 -2.79927 3.47213 0
M  V30 1216 C 106.632 -2.06832 5.43687 0
M  V30 1217 N 105.608 -2.47892 4.83788 0
M  V30 1218 H 109.41 -0.925955 2.78932 0
M  V30 1219 H 106.924 -0.415172 1.57003 0
M  V30 1220 H 108.921 -3.36798 2.45708 0
M  V30 1221 H 107.581 -2.94968 1.35735 0
M  V30 1222 H 108.592 -1.77839 4.86409 0
M  V30 1223 H 105.269 -3.18438 2.70006 0
M  V30 1224 H 106.659 -1.76312 6.48354 0
M  V30 1225 N 109.379 -1.50304 -0.473955 0
M  V30 1226 C 110.627 -1.60832 -1.22382 0
M  V30 1227 C 110.948 -0.30939 -1.9253 0
M  V30 1228 O 110.218 0.67296 -1.83978 0
M  V30 1229 H 108.798 -0.592652 -0.454723 0
M  V30 1230 H 111.46 -1.87068 -0.546968 0
M  V30 1231 H 110.556 -2.41803 -1.97327 0
M  V30 1232 N 110.857 0.726932 -1.39834 0
M  V30 1233 C 112.085 1.51613 -1.40787 0
M  V30 1234 C 112.5 1.88799 -0.00451505 0
M  V30 1235 O 111.857 1.54662 0.968809 0
M  V30 1236 C 111.908 2.79863 -2.28821 0
M  V30 1237 O 111.629 2.44253 -3.63692 0
M  V30 1238 C 113.13 3.73837 -2.38245 0
M  V30 1239 H 110.35 0.468264 -0.480593 0
M  V30 1240 H 112.894 0.897607 -1.83748 0
M  V30 1241 H 111.049 3.38027 -1.89252 0
M  V30 1242 H 111.463 3.26695 -4.1033 0
M  V30 1243 H 112.937 4.60699 -3.04073 0
M  V30 1244 H 113.414 4.16153 -1.40403 0
M  V30 1245 H 114.02 3.21589 -2.78317 0
M  V30 1246 N 112.336 1.25143 0.95797 0
M  V30 1247 C 113.561 1.12521 1.74223 0
M  V30 1248 C 113.986 -0.317402 1.85403 0
M  V30 1249 O 113.344 -1.2299 1.33204 0
M  V30 1250 C 113.392 1.78062 3.1357 0
M  V30 1251 O 112.496 1.058 3.98598 0
M  V30 1252 H 111.837 0.39304 0.535178 0
M  V30 1253 H 114.367 1.65641 1.201 0
M  V30 1254 H 114.377 1.84213 3.64046 0
M  V30 1255 H 113.052 2.83021 3.04749 0
M  V30 1256 H 111.629 1.07506 3.57067 0
M  V30 1257 N 113.814 -1.1601 1.06675 0
M  V30 1258 C 114.744 -2.22688 0.702307 0
M  V30 1259 C 115.725 -1.67306 -0.307032 0
M  V30 1260 O 116.91 -1.93352 -0.181305 0
M  V30 1261 C 114.04 -3.47178 0.092038 0
M  V30 1262 C 112.994 -4.15477 1.02777 0
M  V30 1263 C 112.32 -5.33963 0.28061 0
M  V30 1264 C 113.62 -4.66019 2.35846 0
M  V30 1265 H 115.314 -2.53429 1.59419 0
M  V30 1266 H 112.86 -1.21813 0.767961 0
M  V30 1267 H 114.813 -4.21037 -0.174814 0
M  V30 1268 H 113.537 -3.15749 -0.834877 0
M  V30 1269 H 112.196 -3.43549 1.27944 0
M  V30 1270 H 111.844 -4.98788 -0.649545 0
M  V30 1271 H 111.544 -5.806 0.904258 0
M  V30 1272 H 113.068 -6.10596 0.021396 0
M  V30 1273 H 114.482 -5.3144 2.15045 0
M  V30 1274 H 112.879 -5.23293 2.93743 0
M  V30 1275 H 113.949 -3.82023 2.98641 0
M  V30 1276 N 115.292 -0.849877 -1.32721 0
M  V30 1277 C 116.52 -0.464754 -2.01613 0
M  V30 1278 C 116.935 0.937191 -1.63897 0
M  V30 1279 O 116.292 1.61081 -0.857856 0
M  V30 1280 C 116.343 -0.588638 -3.56675 0
M  V30 1281 O 116.064 -1.93535 -3.93034 0
M  V30 1282 C 117.565 -0.2019 -4.4284 0
M  V30 1283 H 114.785 -0.183215 -0.645502 0
M  V30 1284 H 117.329 -1.1455 -1.69407 0
M  V30 1285 H 115.484 0.0443159 -3.87375 0
M  V30 1286 H 115.898 -1.92871 -4.87751 0
M  V30 1287 H 117.372 -0.339599 -5.50954 0
M  V30 1288 H 117.849 0.857224 -4.30753 0
M  V30 1289 H 118.455 -0.809733 -4.17521 0
M  V30 1290 N 116.77 1.45427 -0.607355 0
M  V30 1291 C 118.017 2.02241 -0.102455 0
M  V30 1292 C 118.345 1.4758 1.26691 0
M  V30 1293 O 117.6 0.640468 1.84923 0
M  V30 1294 C 117.899 3.57398 -0.0129263 0
M  V30 1295 C 117.565 4.3121 -1.31792 0
M  V30 1296 C 116.227 4.51092 -1.67539 0
M  V30 1297 C 118.579 4.73401 -2.18039 0
M  V30 1298 C 115.907 5.10422 -2.89285 0
M  V30 1299 C 118.259 5.34078 -3.39034 0
M  V30 1300 C 116.923 5.52184 -3.75033 0
M  V30 1301 H 116.193 0.740051 -0.037491 0
M  V30 1302 H 118.84 1.74494 -0.788926 0
M  V30 1303 H 117.145 3.84421 0.756806 0
M  V30 1304 H 118.842 3.99061 0.393881 0
M  V30 1305 H 115.432 4.16047 -1.02968 0
M  V30 1306 H 119.616 4.57774 -1.91721 0
M  V30 1307 H 114.872 5.22629 -3.17283 0
M  V30 1308 H 119.046 5.65724 -4.06115 0
M  V30 1309 H 116.673 5.97925 -4.69457 0
M  V30 1310 N 118.248 0.346503 1.53744 0
M  V30 1311 C 119.473 -0.253074 2.0585 0
M  V30 1312 C 119.898 -1.43202 1.21962 0
M  V30 1313 O 119.256 -1.79783 0.234073 0
M  V30 1314 C 119.304 -0.643193 3.54817 0
M  V30 1315 O 118.408 -1.74286 3.73762 0
M  V30 1316 H 117.749 -0.0413583 0.662711 0
M  V30 1317 H 120.279 0.501574 1.98357 0
M  V30 1318 H 120.289 -0.919526 3.97503 0
M  V30 1319 H 118.964 0.218966 4.15323 0
M  V30 1320 H 117.541 -1.46356 3.42979 0
M  V30 1321 N 119.726 -1.57421 0.075193 0
M  V30 1322 C 120.659 -2.08528 -0.926904 0
M  V30 1323 C 121.637 -0.991171 -1.28898 0
M  V30 1324 O 122.821 -1.26479 -1.39769 0
M  V30 1325 C 119.948 -2.54576 -2.23402 0
M  V30 1326 C 118.994 -3.75454 -2.02327 0
M  V30 1327 S 119.827 -5.19989 -1.27951 0
M  V30 1328 C 120.983 -5.69372 -2.59935 0
M  V30 1329 H 121.216 -2.932 -0.492048 0
M  V30 1330 H 118.749 -1.53785 -0.137651 0
M  V30 1331 H 120.707 -2.81767 -2.98526 0
M  V30 1332 H 119.368 -1.70166 -2.64012 0
M  V30 1333 H 118.561 -4.05675 -2.99071 0
M  V30 1334 H 118.163 -3.48654 -1.35339 0
M  V30 1335 H 120.455 -5.76424 -3.56008 0
M  V30 1336 H 121.398 -6.68207 -2.34319 0
M  V30 1337 H 121.806 -4.97205 -2.67296 0
M  V30 1338 N 121.204 0.198386 -1.56346 0
M  V30 1339 C 122.136 1.26987 -1.90806 0
M  V30 1340 C 123.149 1.41877 -0.798419 0
M  V30 1341 O 124.338 1.42362 -1.07682 0
M  V30 1342 C 121.438 2.64246 -2.12196 0
M  V30 1343 C 120.611 2.71007 -3.43328 0
M  V30 1344 C 119.67 3.89439 -3.5387 0
M  V30 1345 O 118.696 3.76695 -4.26719 0
M  V30 1346 N 119.898 5.04752 -2.86715 0
M  V30 1347 H 122.663 0.977433 -2.83313 0
M  V30 1348 H 120.224 0.388322 -1.57174 0
M  V30 1349 H 122.216 3.41896 -2.1654 0
M  V30 1350 H 120.786 2.85992 -1.26204 0
M  V30 1351 H 120.006 1.79657 -3.50881 0
M  V30 1352 H 121.294 2.72512 -4.29668 0
M  V30 1353 H 120.692 5.18004 -2.2735 0
M  V30 1354 H 119.249 5.8036 -2.96691 0
M  V30 1355 N 122.682 1.50554 0.465978 0
M  V30 1356 C 123.959 1.5232 1.22712 0
M  V30 1357 C 124.339 0.270807 2.09356 0
M  V30 1358 O 123.687 -0.745541 2.15995 0
M  V30 1359 C 123.897 2.82175 2.05374 0
M  V30 1360 C 125.245 3.33033 2.6339 0
M  V30 1361 O 126.269 2.83531 2.15612 0
M  V30 1362 O 125.128 4.19336 3.50456 0
M  V30 1363 H 122.222 0.611183 0.557122 0
M  V30 1364 H 124.768 1.62847 0.477381 0
M  V30 1365 H 123.54 3.64797 1.41558 0
M  V30 1366 H 123.163 2.74675 2.87471 0
M  V30 1367 N 124.16 -0.719506 1.40217 0
M  V30 1368 C 125.408 -1.47641 1.3801 0
M  V30 1369 C 125.729 -1.94992 -0.018145 0
M  V30 1370 O 124.999 -1.70073 -0.972207 0
M  V30 1371 H 123.579 -0.547744 0.507923 0
M  V30 1372 H 126.241 -0.853187 1.75233 0
M  V30 1373 H 125.337 -2.35112 2.05253 0
M  V30 1374 N 125.638 -1.25649 -0.95132 0
M  V30 1375 C 127.049 -1.09654 -1.51106 0
M  V30 1376 C 127.4 0.326615 -1.93462 0
M  V30 1377 O 126.525 1.21697 -1.78938 0
M  V30 1378 C 127.12 -1.98437 -2.74605 0
M  V30 1379 C 125.679 -1.86618 -3.2688 0
M  V30 1380 C 124.826 -1.9239 -1.99703 0
M  V30 1381 H 127.777 -1.38887 -0.767865 0
M  V30 1382 H 127.798 -1.5263 -3.48546 0
M  V30 1383 H 127.31 -3.02009 -2.43746 0
M  V30 1384 H 125.411 -0.859421 -3.62553 0
M  V30 1385 H 125.524 -2.71607 -3.94673 0
M  V30 1386 H 123.888 -1.36317 -2.15151 0
M  V30 1387 H 124.671 -2.97573 -1.71188 0
M  V30 1388 N 127.117 1.15442 -1.07289 0
M  V30 1389 C 128.027 2.23786 -0.704057 0
M  V30 1390 C 129.043 1.7166 0.284413 0
M  V30 1391 O 130.219 2.00972 0.131205 0
M  V30 1392 C 127.284 3.46535 -0.106792 0
M  V30 1393 C 126.345 4.13654 -1.14842 0
M  V30 1394 C 125.578 5.30544 -0.57956 0
M  V30 1395 O 125.801 5.67187 0.604585 0
M  V30 1396 O 124.735 5.87154 -1.32414 0
M  V30 1397 H 128.561 2.57664 -1.60757 0
M  V30 1398 H 126.146 1.23152 -0.845803 0
M  V30 1399 H 128.028 4.20804 0.224048 0
M  V30 1400 H 126.703 3.14407 0.770049 0
M  V30 1401 H 125.61 3.4131 -1.5316 0
M  V30 1402 H 126.943 4.49861 -1.99714 0
M  V30 1403 N 128.595 0.856903 1.32268 0
M  V30 1404 C 129.558 0.308171 2.27119 0
M  V30 1405 C 130.558 -0.533421 1.51695 0
M  V30 1406 O 131.748 -0.344607 1.70757 0
M  V30 1407 C 128.88 -0.563757 3.36206 0
M  V30 1408 H 130.073 1.14535 2.77167 0
M  V30 1409 H 127.626 0.631421 1.42978 0
M  V30 1410 H 128.361 -1.42266 2.91429 0
M  V30 1411 H 128.146 0.0386749 3.92081 0
M  V30 1412 H 129.636 -0.940386 4.06874 0
M  V30 1413 N 130.073 -1.45103 0.615059 0
M  V30 1414 C 131.321 -2.01784 0.112955 0
M  V30 1415 C 131.642 -1.48504 -1.26378 0
M  V30 1416 O 130.912 -0.682245 -1.83636 0
M  V30 1417 H 129.492 -0.745993 0.0387668 0
M  V30 1418 H 132.154 -1.77808 0.798141 0
M  V30 1419 H 131.25 -3.12025 0.0684069 0
M  V30 1420 N 131.551 -0.354651 -1.53558 0
M  V30 1421 C 132.483 0.5315 -2.22952 0
M  V30 1422 C 133.496 1.05503 -1.23988 0
M  V30 1423 O 134.685 0.963279 -1.50277 0
M  V30 1424 C 131.785 1.74538 -2.90499 0
M  V30 1425 C 130.958 1.35524 -4.15875 0
M  V30 1426 C 130.017 2.42999 -4.66731 0
M  V30 1427 O 129.043 2.05844 -5.30676 0
M  V30 1428 N 130.245 3.74423 -4.43608 0
M  V30 1429 H 133.01 -0.0628615 -2.99634 0
M  V30 1430 H 130.571 -0.179302 -1.60904 0
M  V30 1431 H 132.563 2.45892 -3.21433 0
M  V30 1432 H 131.133 2.24686 -2.17336 0
M  V30 1433 H 130.353 0.471998 -3.91364 0
M  V30 1434 H 131.641 1.07071 -4.97406 0
M  V30 1435 H 131.039 4.07391 -3.92491 0
M  V30 1436 H 129.596 4.41913 -4.7912 0
M  V30 1437 N 133.029 1.57378 -0.0835403 0
M  V30 1438 C 134.257 1.98263 0.59157 0
M  V30 1439 C 134.672 0.962302 1.62435 0
M  V30 1440 O 134.029 -0.049581 1.82433 0
M  V30 1441 C 134.08 3.39214 1.24965 0
M  V30 1442 O 133.801 4.37339 0.258186 0
M  V30 1443 C 135.302 3.95038 2.01147 0
M  V30 1444 H 132.522 0.651773 0.159477 0
M  V30 1445 H 135.066 2.03878 -0.159415 0
M  V30 1446 H 133.221 3.34649 1.95164 0
M  V30 1447 H 133.635 5.19371 0.731734 0
M  V30 1448 H 135.109 4.95848 2.42567 0
M  V30 1449 H 135.586 3.32222 2.87272 0
M  V30 1450 H 136.192 4.0304 1.35789 0
M  V30 1451 N 134.507 -0.190092 1.56449 0
M  V30 1452 C 135.753 -0.911052 1.81184 0
M  V30 1453 C 136.086 -1.82699 0.658396 0
M  V30 1454 O 135.361 -1.91491 -0.340775 0
M  V30 1455 C 135.644 -1.72297 3.16205 0
M  V30 1456 C 135.497 -0.831419 4.42049 0
M  V30 1457 C 136.816 -2.69454 3.47969 0
M  V30 1458 H 133.935 -0.32977 0.659106 0
M  V30 1459 H 136.577 -0.178169 1.89163 0
M  V30 1460 H 134.727 -2.34778 3.09534 0
M  V30 1461 H 136.399 -0.220929 4.60771 0
M  V30 1462 H 134.642 -0.138406 4.33579 0
M  V30 1463 H 135.313 -1.43461 5.33032 0
M  V30 1464 H 137.789 -2.17104 3.54972 0
M  V30 1465 H 136.665 -3.23342 4.43555 0
M  V30 1466 H 136.926 -3.48744 2.71717 0
M  V30 1467 N 135.985 -1.50799 -0.457987 0
M  V30 1468 C 136.932 -1.70617 -1.5543 0
M  V30 1469 C 137.902 -0.547562 -1.56815 0
M  V30 1470 O 139.087 -0.779647 -1.74144 0
M  V30 1471 C 136.227 -1.81831 -2.93311 0
M  V30 1472 C 135.34 -3.09278 -3.01615 0
M  V30 1473 C 134.475 -3.11209 -4.30491 0
M  V30 1474 C 133.514 -4.33055 -4.32585 0
M  V30 1475 N 132.651 -4.32652 -5.52952 0
M  V30 1476 H 137.491 -2.64207 -1.37836 0
M  V30 1477 H 135.028 -1.30959 -0.669937 0
M  V30 1478 H 136.986 -1.86314 -3.73287 0
M  V30 1479 H 135.616 -0.916685 -3.0951 0
M  V30 1480 H 134.668 -3.14203 -2.1443 0
M  V30 1481 H 135.98 -3.99233 -2.99022 0
M  V30 1482 H 135.134 -3.14494 -5.18824 0
M  V30 1483 H 133.873 -2.19106 -4.35711 0
M  V30 1484 H 132.878 -4.29969 -3.42647 0
M  V30 1485 H 134.103 -5.264 -4.29046 0
M  V30 1486 H 132.049 -3.43409 -5.58933 0
M  V30 1487 H 131.966 -5.16392 -5.52155 0
M  V30 1488 H 133.234 -4.40101 -6.43375 0
M  V30 1489 N 137.463 0.71206 -1.40597 0
M  V30 1490 C 138.413 1.81783 -1.37619 0
M  V30 1491 C 139.397 1.58896 -0.253162 0
M  V30 1492 O 140.589 1.70009 -0.492547 0
M  V30 1493 C 137.718 3.19944 -1.24462 0
M  V30 1494 C 136.804 3.48582 -2.4156 0
M  V30 1495 N 137.195 3.48016 -3.67041 0
M  V30 1496 C 135.493 3.79056 -2.35016 0
M  V30 1497 C 136.194 3.75096 -4.44609 0
M  V30 1498 N 135.17 3.94022 -3.74497 0
M  V30 1499 H 138.972 1.79683 -2.32575 0
M  V30 1500 H 136.486 0.91134 -1.34419 0
M  V30 1501 H 138.483 3.99133 -1.20411 0
M  V30 1502 H 137.143 3.23267 -0.304762 0
M  V30 1503 H 138.154 3.28782 -4.00153 0
M  V30 1504 H 134.831 3.89848 -1.49415 0
M  V30 1505 H 136.221 3.80934 -5.53479 0
M  V30 1506 N 138.941 1.26152 0.944643 0
M  V30 1507 C 140.187 1.11657 1.69294 0
M  V30 1508 C 140.52 -0.339926 1.91202 0
M  V30 1509 O 139.795 -1.24994 1.49019 0
M  V30 1510 C 140.078 1.88236 3.06984 0
M  V30 1511 C 139.931 3.41772 2.92424 0
M  V30 1512 C 141.25 1.67343 4.07043 0
M  V30 1513 H 138.369 0.407004 0.614424 0
M  V30 1514 H 141.011 1.55106 1.09737 0
M  V30 1515 H 139.161 1.51308 3.57824 0
M  V30 1516 H 140.833 3.88433 2.48832 0
M  V30 1517 H 139.076 3.68974 2.28124 0
M  V30 1518 H 139.747 3.90579 3.90067 0
M  V30 1519 H 142.223 1.99509 3.65151 0
M  V30 1520 H 141.099 2.23346 5.01406 0
M  V30 1521 H 141.36 0.617158 4.37771 0
M  V30 1522 N 140.419 -1.14872 1.07899 0
M  V30 1523 C 141.369 -2.17809 0.674027 0
M  V30 1524 C 142.353 -1.58008 -0.303699 0
M  V30 1525 O 143.545 -1.76616 -0.11654 0
M  V30 1526 C 140.674 -3.43208 0.0793318 0
M  V30 1527 C 139.76 -4.10051 1.08253 0
M  V30 1528 N 140.151 -4.52296 2.2641 0
M  V30 1529 C 138.449 -4.36469 0.917124 0
M  V30 1530 C 139.15 -5.04199 2.901 0
M  V30 1531 N 138.126 -4.98088 2.17736 0
M  V30 1532 H 141.928 -2.48207 1.57386 0
M  V30 1533 H 139.442 -1.315 0.952976 0
M  V30 1534 H 141.439 -4.16272 -0.228719 0
M  V30 1535 H 140.099 -3.14291 -0.815551 0
M  V30 1536 H 141.11 -4.45504 2.64096 0
M  V30 1537 H 137.787 -4.17432 0.0756078 0
M  V30 1538 H 139.177 -5.46802 3.90458 0
M  V30 1539 N 141.898 -0.863906 -1.31812 0
M  V30 1540 C 143.144 -0.472535 -1.97218 0
M  V30 1541 C 143.477 0.971394 -1.68159 0
M  V30 1542 O 142.752 1.68309 -0.974798 0
M  V30 1543 C 143.035 -0.723054 -3.52766 0
M  V30 1544 C 142.888 -2.21608 -3.91421 0
M  V30 1545 C 144.207 -0.185522 -4.39709 0
M  V30 1546 H 141.326 -0.173158 -0.71637 0
M  V30 1547 H 143.968 -1.08403 -1.56041 0
M  V30 1548 H 142.118 -0.202577 -3.87971 0
M  V30 1549 H 143.79 -2.80334 -3.66347 0
M  V30 1550 H 142.033 -2.691 -3.40246 0
M  V30 1551 H 142.704 -2.34203 -4.99853 0
M  V30 1552 H 145.18 -0.630726 -4.11292 0
M  V30 1553 H 144.056 -0.390306 -5.47511 0
M  V30 1554 H 144.317 0.912229 -4.32586 0
M  V30 1555 N 143.376 1.44774 -0.622745 0
M  V30 1556 C 144.326 2.2774 0.108889 0
M  V30 1557 C 145.31 1.38189 0.824175 0
M  V30 1558 O 146.502 1.62063 0.711664 0
M  V30 1559 C 143.631 3.25353 1.09546 0
M  V30 1560 C 142.717 4.22392 0.380232 0
M  V30 1561 N 143.108 5.02388 -0.586535 0
M  V30 1562 C 141.406 4.41588 0.625792 0
M  V30 1563 C 142.107 5.72894 -1.00834 0
M  V30 1564 N 141.083 5.42479 -0.348878 0
M  V30 1565 H 144.885 2.86993 -0.63341 0
M  V30 1566 H 142.399 1.5611 -0.447589 0
M  V30 1567 H 144.396 3.83538 1.63414 0
M  V30 1568 H 143.056 2.6766 1.83815 0
M  V30 1569 H 144.067 5.0885 -0.963975 0
M  V30 1570 H 140.744 3.95003 1.352 0
M  V30 1571 H 142.134 6.47158 -1.80656 0
M  V30 1572 N 144.854 0.36279 1.53368 0
M  V30 1573 C 146.1 -0.228113 2.01513 0
M  V30 1574 C 146.433 -1.48648 1.2497 0
M  V30 1575 O 145.708 -1.91459 0.342616 0
M  V30 1576 C 145.991 -0.522884 3.56284 0
M  V30 1577 C 145.844 0.74892 4.43521 0
M  V30 1578 C 147.163 -1.32461 4.19693 0
M  V30 1579 H 144.282 -0.0814343 0.732487 0
M  V30 1580 H 146.924 0.48713 1.83649 0
M  V30 1581 H 145.074 -1.1322 3.71636 0
M  V30 1582 H 146.746 1.38648 4.39971 0
M  V30 1583 H 144.989 1.36986 4.11603 0
M  V30 1584 H 145.66 0.497667 5.49752 0
M  V30 1585 H 148.136 -0.809203 4.08156 0
M  V30 1586 H 147.012 -1.49961 5.28018 0
M  V30 1587 H 147.273 -2.33232 3.75573 0
M  V30 1588 N 146.332 -1.57332 0.0918853 0
M  V30 1589 C 147.262 -2.16872 -0.865371 0
M  V30 1590 C 148.243 -1.10118 -1.29646 0
M  V30 1591 O 149.428 -1.38242 -1.36392 0
M  V30 1592 C 146.558 -2.74649 -2.12569 0
M  V30 1593 C 145.512 -3.86747 -1.83333 0
M  V30 1594 C 144.838 -4.31212 -3.16166 0
M  V30 1595 C 146.138 -5.10089 -1.1228 0
M  V30 1596 H 147.832 -2.97114 -0.369307 0
M  V30 1597 H 145.378 -1.42918 -0.176194 0
M  V30 1598 H 147.331 -3.14952 -2.7997 0
M  V30 1599 H 146.055 -1.91657 -2.64452 0
M  V30 1600 H 144.714 -3.46978 -1.18331 0
M  V30 1601 H 144.362 -3.45115 -3.6593 0
M  V30 1602 H 144.062 -5.06788 -2.97388 0
M  V30 1603 H 145.586 -4.74146 -3.84731 0
M  V30 1604 H 147 -5.47582 -1.69785 0
M  V30 1605 H 145.397 -5.91073 -1.03693 0
M  V30 1606 H 146.467 -4.84786 -0.105041 0
M  V30 1607 N 147.81 0.181792 -1.56548 0
M  V30 1608 C 149.221 0.745244 -1.71181 0
M  V30 1609 C 149.572 1.83262 -0.70068 0
M  V30 1610 O 148.697 2.15946 0.140154 0
M  V30 1611 C 149.292 1.35859 -3.10367 0
M  V30 1612 C 147.851 1.86898 -3.2672 0
M  V30 1613 C 146.998 0.743942 -2.67134 0
M  V30 1614 H 149.949 -0.0434661 -1.5864 0
M  V30 1615 H 149.97 2.22817 -3.08436 0
M  V30 1616 H 149.482 0.566948 -3.83937 0
M  V30 1617 H 147.583 2.68738 -2.5809 0
M  V30 1618 H 147.696 2.02162 -4.34359 0
M  V30 1619 H 146.06 1.16169 -2.26665 0
M  V30 1620 H 146.843 -0.035676 -3.43281 0
M  V30 1621 N 149.288 1.51039 0.449983 0
M  V30 1622 C 150.704 1.38934 0.785462 0
M  V30 1623 C 150.904 0.461817 1.96136 0
M  V30 1624 O 149.96 -0.0877389 2.52348 0
M  V30 1625 C 151.273 2.80724 1.0777 0
M  V30 1626 C 152.821 2.89787 1.1829 0
M  V30 1627 C 153.296 4.32457 1.50815 0
M  V30 1628 N 154.787 4.35505 1.57764 0
M  V30 1629 C 155.522 5.42914 1.84477 0
M  V30 1630 N 155.018 6.60502 2.09068 0
M  V30 1631 N 156.811 5.3038 1.86155 0
M  V30 1632 H 148.962 2.09904 -0.324647 0
M  V30 1633 H 151.225 0.944378 -0.0827957 0
M  V30 1634 H 150.931 3.50531 0.286498 0
M  V30 1635 H 150.805 3.19273 2.00859 0
M  V30 1636 H 153.192 2.20186 1.96474 0
M  V30 1637 H 153.273 2.54752 0.231314 0
M  V30 1638 H 152.917 5.02603 0.731622 0
M  V30 1639 H 152.847 4.64995 2.47158 0
M  V30 1640 H 155.338 3.50724 1.40715 0
M  V30 1641 H 155.651 7.38158 2.28785 0
M  V30 1642 H 153.996 6.63639 2.06416 0
M  V30 1643 H 157.187 4.37505 1.66454 0
M  V30 1644 H 157.36 6.1417 2.06637 0
M  V30 1645 N 150.766 -0.704594 1.40972 0
M  V30 1646 C 151.713 -1.81862 1.42109 0
M  V30 1647 C 152.683 -1.63781 0.276593 0
M  V30 1648 O 153.868 -1.84759 0.4763 0
M  V30 1649 C 151.008 -3.19669 1.30022 0
M  V30 1650 C 150.121 -3.49246 2.54267 0
M  V30 1651 C 149.256 -4.76618 2.3454 0
M  V30 1652 C 148.295 -4.99133 3.54306 0
M  V30 1653 N 147.432 -6.17726 3.33706 0
M  V30 1654 H 152.272 -1.80226 2.37324 0
M  V30 1655 H 149.809 -0.880238 1.17857 0
M  V30 1656 H 151.767 -3.99263 1.21018 0
M  V30 1657 H 150.397 -3.20506 0.384192 0
M  V30 1658 H 149.449 -2.64125 2.73756 0
M  V30 1659 H 150.761 -3.61788 3.43381 0
M  V30 1660 H 149.915 -5.64249 2.22952 0
M  V30 1661 H 148.654 -4.66305 1.42867 0
M  V30 1662 H 147.659 -4.09953 3.66359 0
M  V30 1663 H 148.884 -5.11311 4.4692 0
M  V30 1664 H 146.83 -6.08642 2.44725 0
M  V30 1665 H 146.747 -6.30995 4.16391 0
M  V30 1666 H 148.015 -7.08115 3.25873 0
M  V30 1667 N 152.244 -1.26651 -0.937939 0
M  V30 1668 C 153.207 -1.08546 -2.01867 0
M  V30 1669 C 154.207 -0.0327327 -1.60767 0
M  V30 1670 O 155.397 -0.276427 -1.71993 0
M  V30 1671 C 152.529 -0.651711 -3.34613 0
M  V30 1672 H 153.722 -2.04502 -2.1936 0
M  V30 1673 H 151.275 -1.09294 -1.11734 0
M  V30 1674 H 152.01 0.309696 -3.22818 0
M  V30 1675 H 151.795 -1.41189 -3.65798 0
M  V30 1676 H 153.285 -0.546973 -4.14002 0
M  V30 1677 N 153.722 1.14298 -1.08507 0
M  V30 1678 C 154.97 1.84993 -0.813763 0
M  V30 1679 C 155.291 1.83405 0.662393 0
M  V30 1680 O 154.561 1.28319 1.48024 0
M  V30 1681 H 153.141 0.684966 -0.298045 0
M  V30 1682 H 155.803 1.385 -1.37126 0
M  V30 1683 H 154.899 2.89788 -1.15884 0
M  V30 1684 N 155.201 0.870884 1.31352 0
M  V30 1685 C 156.478 0.402907 1.91405 0
M  V30 1686 C 156.858 -1.11512 1.79244 0
M  V30 1687 O 156.206 -1.94411 1.2007 0
M  V30 1688 C 156.416 0.885301 3.37585 0
M  V30 1689 C 157.764 0.911971 4.14691 0
M  V30 1690 O 158.788 0.831016 3.46371 0
M  V30 1691 O 157.647 1.02927 5.3672 0
M  V30 1692 H 154.741 0.120698 0.818145 0
M  V30 1693 H 157.287 0.958857 1.40014 0
M  V30 1694 H 156.059 1.92889 3.40455 0
M  V30 1695 H 155.682 0.307714 3.96407 0
M  V30 1696 N 156.679 -1.44442 0.630414 0
M  V30 1697 C 157.926 -2.02052 0.134617 0
M  V30 1698 C 158.254 -1.49576 -1.24327 0
M  V30 1699 O 157.509 -0.669806 -1.83881 0
M  V30 1700 C 157.808 -3.57332 0.0697835 0
M  V30 1701 C 157.474 -4.29058 1.38635 0
M  V30 1702 C 156.136 -4.4837 1.74694 0
M  V30 1703 C 158.488 -4.69872 2.25543 0
M  V30 1704 C 155.816 -5.05756 2.97369 0
M  V30 1705 C 158.168 -5.28616 3.47487 0
M  V30 1706 C 156.832 -5.46147 3.8377 0
M  V30 1707 H 156.102 -0.739361 0.0492598 0
M  V30 1708 H 158.749 -1.73217 0.816586 0
M  V30 1709 H 157.054 -3.85577 -0.695553 0
M  V30 1710 H 158.751 -3.99637 -0.330344 0
M  V30 1711 H 155.341 -4.14357 1.09574 0
M  V30 1712 H 159.525 -4.54666 1.98979 0
M  V30 1713 H 154.781 -5.17515 3.25558 0
M  V30 1714 H 158.955 -5.59192 4.15063 0
M  V30 1715 H 156.582 -5.9038 4.7891 0
M  V30 1716 N 158.157 -0.370918 -1.53173 0
M  V30 1717 C 159.107 0.489588 -2.22681 0
M  V30 1718 C 160.091 1.04442 -1.22395 0
M  V30 1719 O 161.283 0.973578 -1.47819 0
M  V30 1720 C 158.412 1.626 -3.02351 0
M  V30 1721 C 157.498 1.08379 -4.10018 0
M  V30 1722 N 157.889 0.265004 -5.05105 0
M  V30 1723 C 156.187 1.35809 -4.2482 0
M  V30 1724 C 156.888 -0.0324755 -5.81691 0
M  V30 1725 N 155.864 0.566581 -5.40639 0
M  V30 1726 H 159.666 -0.142729 -2.93553 0
M  V30 1727 H 157.18 -0.179221 -1.61408 0
M  V30 1728 H 159.177 2.2547 -3.50669 0
M  V30 1729 H 157.837 2.26132 -2.33011 0
M  V30 1730 H 158.848 -0.0962352 -5.17811 0
M  V30 1731 H 155.525 1.9958 -3.66707 0
M  V30 1732 H 156.915 -0.69473 -6.68299 0
M  V30 1733 N 159.635 1.57281 -0.100228 0
M  V30 1734 C 161.051 1.57527 0.256416 0
M  V30 1735 C 161.251 1.11173 1.68056 0
M  V30 1736 O 160.307 0.79053 2.39806 0
M  V30 1737 C 161.62 3.00673 0.0401747 0
M  V30 1738 C 163.168 3.12815 0.107528 0
M  V30 1739 C 163.643 4.57929 -0.0807834 0
M  V30 1740 N 165.134 4.63193 -0.0261207 0
M  V30 1741 C 165.869 5.73212 -0.146999 0
M  V30 1742 N 165.365 6.92047 -0.322999 0
M  V30 1743 N 167.158 5.62031 -0.0879044 0
M  V30 1744 H 159.309 1.85718 -1.03065 0
M  V30 1745 H 161.572 0.857446 -0.404339 0
M  V30 1746 H 161.278 3.38804 -0.943649 0
M  V30 1747 H 161.152 3.69042 0.780262 0
M  V30 1748 H 163.539 2.74554 1.08186 0
M  V30 1749 H 163.62 2.47028 -0.664134 0
M  V30 1750 H 163.264 4.96886 -1.05201 0
M  V30 1751 H 163.194 5.21783 0.710635 0
M  V30 1752 H 165.685 3.77748 0.107161 0
M  V30 1753 H 165.998 7.7173 -0.406608 0
M  V30 1754 H 164.343 6.94074 -0.358733 0
M  V30 1755 H 167.534 4.68075 0.048498 0
M  V30 1756 H 167.707 6.47734 -0.185557 0
M  V30 1757 N 161.113 -0.173488 1.56642 0
M  V30 1758 C 162.061 -1.23417 1.97157 0
M  V30 1759 C 163.055 -1.45946 0.860013 0
M  V30 1760 O 164.261 -1.46551 1.04512 0
M  V30 1761 H 160.636 -0.414818 0.62724 0
M  V30 1762 H 162.607 -0.865582 2.8557 0
M  V30 1763 C 161.356 -2.5665 2.34576 0
M  V30 1764 H 160.679 -2.40137 3.19647 0
M  V30 1765 H 162.119 -3.2956 2.6677 0
M  V30 1766 C 160.578 -3.15245 1.18836 0
M  V30 1767 O 161.108 -3.98883 0.474869 0
M  V30 1768 N 159.314 -2.74303 0.959497 0
M  V30 1769 H 158.861 -2.0639 1.54146 0
M  V30 1770 H 158.819 -3.13844 0.186932 0
M  V30 1771 N 162.591 -1.51276 -0.441967 0
M  V30 1772 C 163.868 -1.54252 -1.20273 0
M  V30 1773 C 164.248 -0.30408 -2.08898 0
M  V30 1774 O 163.596 0.711084 -2.17154 0
M  V30 1775 C 163.806 -2.85406 -2.00859 0
M  V30 1776 C 165.154 -3.37181 -2.58059 0
M  V30 1777 O 166.178 -2.86925 -2.11074 0
M  V30 1778 O 165.037 -4.24858 -3.43741 0
M  V30 1779 H 162.131 -0.619969 -0.547328 0
M  V30 1780 H 164.677 -1.63586 -0.451413 0
M  V30 1781 H 163.449 -3.67003 -1.35736 0
M  V30 1782 H 163.072 -2.79213 -2.83065 0
M  V30 1783 N 164.069 0.697108 -1.41344 0
M  V30 1784 C 165.294 1.49096 -1.44171 0
M  V30 1785 C 165.719 1.88038 -0.0481568 0
M  V30 1786 O 165.077 1.54525 0.948243 0
M  V30 1787 C 165.125 2.73088 -2.3549 0
M  V30 1788 O 164.229 3.70514 -1.81088 0
M  V30 1789 H 163.57 0.448801 -0.489361 0
M  V30 1790 H 166.1 0.856992 -1.85787 0
M  V30 1791 H 166.11 3.21413 -2.51312 0
M  V30 1792 H 164.785 2.44081 -3.36745 0
M  V30 1793 H 163.362 3.29441 -1.74708 0
M  V30 1794 N 165.547 1.27147 0.931209 0
M  V30 1795 C 166.796 1.12664 1.67302 0
M  V30 1796 C 167.109 -0.327718 1.92835 0
M  V30 1797 O 168.315 -0.593392 2.64936 0
M  V30 1798 C 166.771 1.9683 3.01307 0
M  V30 1799 C 166.379 3.46901 2.83485 0
M  V30 1800 C 168.123 1.90985 3.79111 0
M  V30 1801 C 166.03 4.23279 4.13024 0
M  V30 1802 H 164.96 0.41803 0.627509 0
M  V30 1803 H 167.611 1.51539 1.03481 0
M  V30 1804 H 165.993 1.50797 3.66164 0
M  V30 1805 H 167.167 4.00773 2.27415 0
M  V30 1806 H 165.482 3.54088 2.19113 0
M  V30 1807 H 168.079 2.45328 4.75098 0
M  V30 1808 H 168.422 0.882718 4.06834 0
M  V30 1809 H 168.955 2.34895 3.21044 0
M  V30 1810 H 165.694 5.26503 3.90481 0
M  V30 1811 H 165.214 3.74186 4.6877 0
M  V30 1812 H 166.893 4.32265 4.81411 0
M  V30 1813 N 167.025 -1.13721 1.09112 0
M  V30 1814 C 168.255 -1.88499 0.845671 0
M  V30 1815 C 168.663 -1.79218 -0.606432 0
M  V30 1816 O 168.006 -1.1544 -1.42896 0
M  V30 1817 C 168.068 -3.38954 1.19793 0
M  V30 1818 C 167.732 -3.72018 2.65428 0
M  V30 1819 C 168.729 -3.7153 3.63677 0
M  V30 1820 C 166.414 -4.01775 3.01467 0
M  V30 1821 C 168.408 -4.00336 4.95994 0
M  V30 1822 C 166.095 -4.30243 4.33975 0
M  V30 1823 C 167.093 -4.29508 5.31048 0
M  V30 1824 O 166.781 -4.5728 6.61173 0
M  V30 1825 H 166.513 -0.603702 0.304171 0
M  V30 1826 H 169.067 -1.44903 1.45576 0
M  V30 1827 H 167.297 -3.83039 0.530871 0
M  V30 1828 H 168.986 -3.95052 0.932146 0
M  V30 1829 H 169.752 -3.4862 3.37179 0
M  V30 1830 H 165.631 -4.01496 2.26544 0
M  V30 1831 H 169.175 -3.99678 5.71755 0
M  V30 1832 H 165.072 -4.52625 4.60219 0
M  V30 1833 H 165.84 -4.74964 6.66597 0
M  V30 1834 N 168.503 -0.877838 -1.30888 0
M  V30 1835 C 169.413 -0.343096 -2.32078 0
M  V30 1836 C 170.429 0.551022 -1.65045 0
M  V30 1837 O 171.605 0.445854 -1.96403 0
M  V30 1838 C 168.67 0.439905 -3.43898 0
M  V30 1839 C 167.731 -0.483111 -4.26573 0
M  V30 1840 C 166.964 0.262616 -5.33053 0
M  V30 1841 O 167.187 1.48967 -5.50604 0
M  V30 1842 O 166.121 -0.383593 -6.00676 0
M  V30 1843 H 169.947 -1.18203 -2.79753 0
M  V30 1844 H 167.532 -0.64145 -1.34929 0
M  V30 1845 H 169.414 0.883504 -4.12034 0
M  V30 1846 H 168.089 1.25526 -2.98371 0
M  V30 1847 H 166.996 -0.975374 -3.61161 0
M  V30 1848 H 168.329 -1.26427 -4.75686 0
M  V30 1849 N 169.982 1.44106 -0.638065 0
M  V30 1850 C 170.892 2.34513 0.0637334 0
M  V30 1851 C 171.908 1.53018 0.828346 0
M  V30 1852 O 173.084 1.85723 0.779036 0
M  V30 1853 C 170.149 3.31095 1.02844 0
M  V30 1854 C 169.21 4.28497 0.26244 0
M  V30 1855 C 168.443 5.20465 1.1812 0
M  V30 1856 O 168.666 5.16514 2.42011 0
M  V30 1857 O 167.6 5.98251 0.661774 0
M  V30 1858 H 171.426 2.95989 -0.68003 0
M  V30 1859 H 169.011 1.43994 -0.398252 0
M  V30 1860 H 170.893 3.90526 1.58327 0
M  V30 1861 H 169.568 2.72144 1.7527 0
M  V30 1862 H 168.475 3.72592 -0.335602 0
M  V30 1863 H 169.808 4.90388 -0.421936 0
M  V30 1864 N 171.46 0.379036 1.52974 0
M  V30 1865 C 172.39 -0.452706 2.29069 0
M  V30 1866 C 173.371 -1.07237 1.32039 0
M  V30 1867 O 174.556 -1.08708 1.60923 0
M  V30 1868 C 171.686 -1.5856 3.08992 0
M  V30 1869 C 170.64 -1.0925 4.13822 0
M  V30 1870 C 169.966 -2.31668 4.81907 0
M  V30 1871 C 171.266 -0.167702 5.22031 0
M  V30 1872 H 172.96 0.182181 2.98845 0
M  V30 1873 H 170.506 0.0890592 1.43724 0
M  V30 1874 H 172.459 -2.1742 3.6098 0
M  V30 1875 H 171.183 -2.24792 2.36931 0
M  V30 1876 H 169.842 -0.526494 3.628 0
M  V30 1877 H 169.49 -2.96386 4.06404 0
M  V30 1878 H 169.19 -1.9934 5.52754 0
M  V30 1879 H 170.714 -2.91189 5.36695 0
M  V30 1880 H 172.128 -0.664186 5.6944 0
M  V30 1881 H 170.525 0.0653265 6.00064 0
M  V30 1882 H 171.595 0.786347 4.78482 0
M  V30 1883 N 172.938 -1.57226 0.108567 0
M  V30 1884 C 173.87 -2.11809 -0.875752 0
M  V30 1885 C 174.883 -1.05839 -1.23701 0
M  V30 1886 O 176.072 -1.33245 -1.18778 0
M  V30 1887 C 173.172 -2.59411 -2.18081 0
M  V30 1888 C 172.345 -3.89364 -1.99284 0
M  V30 1889 C 171.404 -4.22672 -3.13424 0
M  V30 1890 O 170.43 -4.91668 -2.86795 0
M  V30 1891 N 171.632 -3.79154 -4.3957 0
M  V30 1892 H 174.397 -2.9689 -0.409477 0
M  V30 1893 H 171.958 -1.61721 -0.076158 0
M  V30 1894 H 173.95 -2.7873 -2.93414 0
M  V30 1895 H 172.52 -1.79268 -2.5609 0
M  V30 1896 H 171.74 -3.79059 -1.08203 0
M  V30 1897 H 173.028 -4.74358 -1.84017 0
M  V30 1898 H 172.426 -3.23486 -4.64083 0
M  V30 1899 H 170.983 -4.03602 -5.11809 0
M  V30 1900 N 174.416 0.165178 -1.56732 0
M  V30 1901 C 175.363 1.2044 -1.96883 0
M  V30 1902 C 176.333 1.43664 -0.833657 0
M  V30 1903 O 177.518 1.56302 -1.09427 0
M  V30 1904 C 174.658 2.53727 -2.33916 0
M  V30 1905 C 173.771 2.3783 -3.6064 0
M  V30 1906 C 172.906 3.64026 -3.86857 0
M  V30 1907 C 171.945 3.43088 -5.06909 0
M  V30 1908 N 171.082 4.61369 -5.29229 0
M  V30 1909 H 175.922 0.854996 -2.85471 0
M  V30 1910 H 173.459 0.41076 -1.41249 0
M  V30 1911 H 175.417 3.31419 -2.53411 0
M  V30 1912 H 174.047 2.8665 -1.48431 0
M  V30 1913 H 173.099 1.51282 -3.49024 0
M  V30 1914 H 174.411 2.18308 -4.4849 0
M  V30 1915 H 173.565 4.50152 -4.06753 0
M  V30 1916 H 172.304 3.86533 -2.97394 0
M  V30 1917 H 171.309 2.55349 -4.86906 0
M  V30 1918 H 172.534 3.21997 -5.97909 0
M  V30 1919 H 170.48 4.84084 -4.42718 0
M  V30 1920 H 170.397 4.44783 -6.11313 0
M  V30 1921 H 171.665 5.48761 -5.53608 0
M  V30 1922 N 175.894 1.51508 0.433938 0
M  V30 1923 C 176.844 1.69451 1.52546 0
M  V30 1924 C 177.828 0.548474 1.51263 0
M  V30 1925 O 179.02 0.804529 1.57659 0
M  V30 1926 C 176.149 1.82604 2.90707 0
M  V30 1927 C 175.235 3.03002 2.96733 0
M  V30 1928 N 175.626 4.26121 2.72496 0
M  V30 1929 C 173.924 3.02327 3.27894 0
M  V30 1930 C 174.625 5.07407 2.84452 0
M  V30 1931 N 173.601 4.42126 3.16269 0
M  V30 1932 H 177.403 2.62305 1.32564 0
M  V30 1933 H 174.917 1.49202 0.641297 0
M  V30 1934 H 176.914 1.93569 3.69238 0
M  V30 1935 H 175.574 0.909339 3.11707 0
M  V30 1936 H 176.585 4.55009 2.4736 0
M  V30 1937 H 173.262 2.20301 3.54646 0
M  V30 1938 H 174.652 6.15422 2.69639 0
M  V30 1939 N 177.372 -0.689602 1.41712 0
M  V30 1940 C 178.649 -1.44457 1.31877 0
M  V30 1941 C 179.029 -2.11039 -0.0508537 0
M  V30 1942 O 178.377 -2.02138 -1.06547 0
M  V30 1943 C 178.587 -2.45913 2.47645 0
M  V30 1944 C 179.935 -3.10991 2.89084 0
M  V30 1945 O 180.959 -2.56238 2.47428 0
M  V30 1946 O 179.818 -4.10174 3.61137 0
M  V30 1947 H 176.912 -0.64362 0.519309 0
M  V30 1948 H 179.458 -0.719576 1.53689 0
M  V30 1949 H 178.23 -1.95409 3.39015 0
M  V30 1950 H 177.853 -3.25913 2.27742 0
M  V30 1951 N 178.85 -1.27639 -0.924453 0
M  V30 1952 C 179.797 -1.10644 -2.0255 0
M  V30 1953 C 180.767 -0.00658438 -1.66099 0
M  V30 1954 O 181.952 -0.16952 -1.90045 0
M  V30 1955 C 179.092 -0.76309 -3.36557 0
M  V30 1956 C 178.205 -1.94091 -3.85944 0
M  V30 1957 C 177.34 -1.53914 -5.08413 0
M  V30 1958 C 176.379 -2.68425 -5.50104 0
M  V30 1959 N 175.516 -2.28815 -6.63768 0
M  V30 1960 H 180.356 -2.04858 -2.16419 0
M  V30 1961 H 177.893 -1.01974 -1.06017 0
M  V30 1962 H 179.851 -0.544822 -4.13627 0
M  V30 1963 H 178.481 0.142102 -3.22487 0
M  V30 1964 H 177.533 -2.27162 -3.05125 0
M  V30 1965 H 178.845 -2.7998 -4.12811 0
M  V30 1966 H 177.999 -1.28231 -5.92994 0
M  V30 1967 H 176.738 -0.651391 -4.8333 0
M  V30 1968 H 175.743 -2.94819 -4.64071 0
M  V30 1969 H 176.968 -3.57826 -5.7718 0
M  V30 1970 H 174.914 -1.42495 -6.40337 0
M  V30 1971 H 174.831 -3.08242 -6.90306 0
M  V30 1972 H 176.099 -2.06387 -7.51681 0
M  V30 1973 N 180.328 1.1314 -1.09713 0
M  V30 1974 C 181.238 2.22242 -0.751367 0
M  V30 1975 C 182.254 1.72224 0.247938 0
M  V30 1976 O 183.43 2.01205 0.0885463 0
M  V30 1977 C 180.495 3.46231 -0.180274 0
M  V30 1978 C 179.556 4.11125 -1.2359 0
M  V30 1979 C 178.789 5.29195 -0.691966 0
M  V30 1980 O 179.012 5.68342 0.48414 0
M  V30 1981 O 177.946 5.84214 -1.44838 0
M  V30 1982 H 181.772 2.54197 -1.66186 0
M  V30 1983 H 179.357 1.21331 -0.871735 0
M  V30 1984 H 181.239 4.21185 0.134739 0
M  V30 1985 H 179.914 3.1597 0.703185 0
M  V30 1986 H 178.821 3.37985 -1.60366 0
M  V30 1987 H 180.154 4.45524 -2.09211 0
M  V30 1988 N 181.806 0.884767 1.30421 0
M  V30 1989 C 183.083 0.423185 1.90967 0
M  V30 1990 C 183.463 -1.09605 1.80416 0
M  V30 1991 O 182.811 -1.93126 1.22125 0
M  V30 1992 C 183.021 0.921056 3.36627 0
M  V30 1993 C 184.369 0.955903 4.137 0
M  V30 1994 O 185.393 0.867706 3.4547 0
M  V30 1995 O 184.252 1.08614 5.35598 0
M  V30 1996 H 181.346 0.129369 0.816819 0
M  V30 1997 H 183.892 0.973653 1.3899 0
M  V30 1998 H 182.664 1.96489 3.3839 0
M  V30 1999 H 182.287 0.349741 3.96059 0
M  V30 2000 N 183.284 -1.43765 0.645699 0
M  V30 2001 C 184.531 -2.01898 0.15604 0
M  V30 2002 C 184.859 -1.50887 -1.22733 0
M  V30 2003 O 184.114 -0.689271 -1.8316 0
M  V30 2004 C 184.413 -3.57238 0.107679 0
M  V30 2005 C 184.079 -4.27564 1.43178 0
M  V30 2006 C 182.741 -4.46492 1.7944 0
M  V30 2007 C 185.093 -4.67454 2.30513 0
M  V30 2008 C 182.421 -5.02573 3.02716 0
M  V30 2009 C 184.773 -5.24901 3.53074 0
M  V30 2010 C 183.437 -5.42046 3.89541 0
M  V30 2011 H 182.707 -0.738797 0.057099 0
M  V30 2012 H 185.354 -1.72341 0.834912 0
M  V30 2013 H 183.659 -3.86293 -0.654618 0
M  V30 2014 H 185.356 -3.99965 -0.287938 0
M  V30 2015 H 181.946 -4.13171 1.13963 0
M  V30 2016 H 186.13 -4.5253 2.0379 0
M  V30 2017 H 181.386 -5.14033 3.31028 0
M  V30 2018 H 185.56 -5.54758 4.20971 0
M  V30 2019 H 183.187 -5.85268 4.85145 0
M  V30 2020 N 184.763 -0.387143 -1.52771 0
M  V30 2021 C 186.174 0.0873634 -1.86495 0
M  V30 2022 C 186.525 1.46336 -1.30691 0
M  V30 2023 O 185.65 2.068 -0.637409 0
M  V30 2024 C 186.245 0.165305 -3.38396 0
M  V30 2025 C 184.804 0.584101 -3.7184 0
M  V30 2026 C 183.951 -0.255279 -2.76122 0
M  V30 2027 H 186.902 -0.605104 -1.46711 0
M  V30 2028 H 186.923 0.984848 -3.67534 0
M  V30 2029 H 186.435 -0.836301 -3.78982 0
M  V30 2030 H 184.536 1.59315 -3.36823 0
M  V30 2031 H 184.649 0.343749 -4.77865 0
M  V30 2032 H 183.013 0.279126 -2.53166 0
M  V30 2033 H 183.796 -1.25482 -3.19545 0
M  V30 2034 N 186.241 1.57166 -0.116904 0
M  V30 2035 C 187.204 2.14039 0.819742 0
M  V30 2036 C 188.204 1.07477 1.19605 0
M  V30 2037 O 189.394 1.33263 1.1219 0
M  V30 2038 C 186.526 2.67891 2.10826 0
M  V30 2039 H 187.719 2.98128 0.325511 0
M  V30 2040 H 185.272 1.55739 0.132312 0
M  V30 2041 H 186.007 1.87384 2.64685 0
M  V30 2042 H 185.792 3.45823 1.84793 0
M  V30 2043 H 187.282 3.11809 2.77785 0
M  V30 2044 N 187.719 -0.156864 1.56817 0
M  V30 2045 C 188.944 -0.890331 1.87318 0
M  V30 2046 C 189.369 -1.74394 0.704855 0
M  V30 2047 O 188.727 -1.77972 -0.345786 0
M  V30 2048 C 188.775 -1.73102 3.16336 0
M  V30 2049 O 187.879 -2.83422 2.99576 0
M  V30 2050 H 187.22 -0.24857 0.615718 0
M  V30 2051 H 189.75 -0.150649 2.04045 0
M  V30 2052 H 189.76 -2.12803 3.48107 0
M  V30 2053 H 188.435 -1.10412 4.00976 0
M  V30 2054 H 187.012 -2.47199 2.7919 0
M  V30 2055 N 189.197 -1.51736 -0.425897 0
M  V30 2056 C 190.443 -1.66174 -1.17294 0
M  V30 2057 C 190.798 -0.37876 -1.88635 0
M  V30 2058 O 190.091 0.626021 -1.81084 0
M  V30 2059 C 190.285 -2.81103 -2.20717 0
M  V30 2060 C 190.114 -4.20453 -1.59529 0
M  V30 2061 C 188.884 -4.86225 -1.37525 0
M  V30 2062 C 191.082 -5.03146 -1.06528 0
M  V30 2063 N 189.064 -6.09657 -0.720537 0
M  V30 2064 C 190.435 -6.17674 -0.536506 0
M  V30 2065 C 192.49 -4.88594 -0.958127 0
M  V30 2066 C 191.193 -7.19245 0.0888917 0
M  V30 2067 C 193.219 -5.90383 -0.346608 0
M  V30 2068 C 192.581 -7.04191 0.171564 0
M  V30 2069 H 188.68 -0.661871 -0.416475 0
M  V30 2070 H 191.264 -1.88997 -0.467801 0
M  V30 2071 H 189.435 -2.59924 -2.88607 0
M  V30 2072 H 191.167 -2.84662 -2.87663 0
M  V30 2073 H 187.922 -4.44293 -1.64015 0
M  V30 2074 H 188.346 -6.75756 -0.410292 0
M  V30 2075 H 192.988 -4.0085 -1.34459 0
M  V30 2076 H 190.706 -8.06628 0.48746 0
M  V30 2077 H 194.292 -5.81194 -0.265451 0
M  V30 2078 H 193.172 -7.81606 0.637309 0
M  V30 2079 N 190.675 0.682077 -1.42076 0
M  V30 2080 C 192.091 0.994324 -1.24841 0
M  V30 2081 C 192.291 2.0096 -0.147389 0
M  V30 2082 O 191.347 2.47822 0.483782 0
M  V30 2083 C 192.66 1.50607 -2.60265 0
M  V30 2084 C 194.208 1.62421 -2.6756 0
M  V30 2085 C 194.683 2.16994 -4.03333 0
M  V30 2086 N 196.174 2.24337 -4.0525 0
M  V30 2087 C 196.909 2.67621 -5.07116 0
M  V30 2088 N 196.405 3.1041 -6.19368 0
M  V30 2089 N 198.198 2.67305 -4.94474 0
M  V30 2090 H 190.349 0.00973908 -2.12398 0
M  V30 2091 H 192.612 0.0668593 -0.945639 0
M  V30 2092 H 192.318 0.834583 -3.41654 0
M  V30 2093 H 192.192 2.48602 -2.83684 0
M  V30 2094 H 194.579 2.28678 -1.86521 0
M  V30 2095 H 194.66 0.629352 -2.47937 0
M  V30 2096 H 194.304 1.51349 -4.84826 0
M  V30 2097 H 194.234 3.17258 -4.20304 0
M  V30 2098 H 196.725 1.94158 -3.24209 0
M  V30 2099 H 197.038 3.42103 -6.92954 0
M  V30 2100 H 195.383 3.08286 -6.22884 0
M  V30 2101 H 198.574 2.33233 -4.05857 0
M  V30 2102 H 198.747 3.00718 -5.73997 0
M  V30 2103 N 192.153 1.28127 0.917671 0
M  V30 2104 C 193.378 1.18007 1.70555 0
M  V30 2105 C 193.803 -0.258257 1.86319 0
M  V30 2106 O 193.161 -1.1869 1.37049 0
M  V30 2107 C 193.209 1.87948 3.07746 0
M  V30 2108 O 192.313 1.18427 3.9503 0
M  V30 2109 H 191.654 0.409867 0.522403 0
M  V30 2110 H 194.184 1.69379 1.1477 0
M  V30 2111 H 194.194 1.95701 3.58001 0
M  V30 2112 H 192.869 2.92573 2.95591 0
M  V30 2113 H 191.446 1.18811 3.53466 0
M  V30 2114 N 193.631 -1.12557 1.10312 0
M  V30 2115 C 194.541 -2.21841 0.763142 0
M  V30 2116 C 195.557 -1.72354 -0.238801 0
M  V30 2117 O 196.733 -2.01249 -0.0778746 0
M  V30 2118 C 193.798 -3.46131 0.198632 0
M  V30 2119 C 192.859 -4.10464 1.25769 0
M  V30 2120 C 192.092 -5.28821 0.72002 0
M  V30 2121 O 192.315 -5.6859 -0.453993 0
M  V30 2122 O 191.249 -5.83437 1.47935 0
M  V30 2123 H 195.075 -2.53312 1.67532 0
M  V30 2124 H 192.66 -1.20867 0.878157 0
M  V30 2125 H 194.542 -4.2125 -0.112401 0
M  V30 2126 H 193.217 -3.16338 -0.686419 0
M  V30 2127 H 192.124 -3.3713 1.62156 0
M  V30 2128 H 193.457 -4.44408 2.11571 0
M  V30 2129 N 195.109 -0.891671 -1.2995 0
M  V30 2130 C 196.019 -0.367691 -2.31701 0
M  V30 2131 C 197.035 0.533486 -1.6562 0
M  V30 2132 O 198.211 0.424997 -1.96865 0
M  V30 2133 C 195.276 0.403406 -3.44345 0
M  V30 2134 C 194.337 -0.528328 -4.26037 0
M  V30 2135 C 193.57 0.206063 -5.33302 0
M  V30 2136 O 193.793 1.43119 -5.52153 0
M  V30 2137 O 192.727 -0.447281 -6.00236 0
M  V30 2138 H 196.553 -1.21163 -2.78484 0
M  V30 2139 H 194.138 -0.655725 -1.34241 0
M  V30 2140 H 196.02 0.839753 -4.12948 0
M  V30 2141 H 194.695 1.22354 -2.99685 0
M  V30 2142 H 193.602 -1.01362 -3.60106 0
M  V30 2143 H 194.935 -1.31465 -4.74318 0
M  V30 2144 N 196.587 1.43421 -0.653314 0
M  V30 2145 C 197.497 2.34568 0.0388565 0
M  V30 2146 C 198.513 1.53888 0.81207 0
M  V30 2147 O 199.689 1.86539 0.759294 0
M  V30 2148 C 196.754 3.32167 0.993269 0
M  V30 2149 C 195.815 4.28751 0.216977 0
M  V30 2150 C 195.048 5.21688 1.12593 0
M  V30 2151 O 195.271 5.19052 2.36519 0
M  V30 2152 O 194.205 5.98919 0.598284 0
M  V30 2153 H 198.031 2.95251 -0.711386 0
M  V30 2154 H 195.616 1.43564 -0.413502 0
M  V30 2155 H 197.498 3.92183 1.54176 0
M  V30 2156 H 196.173 2.73987 1.72374 0
M  V30 2157 H 195.08 3.72215 -0.375101 0
M  V30 2158 H 196.413 4.89913 -0.473924 0
M  V30 2159 N 198.065 0.39524 1.52563 0
M  V30 2160 C 198.998 -0.4813 2.23067 0
M  V30 2161 C 199.976 -1.05927 1.23362 0
M  V30 2162 O 201.16 -1.10979 1.52368 0
M  V30 2163 C 198.287 -1.66676 2.9485 0
M  V30 2164 C 197.333 -1.21348 4.08873 0
M  V30 2165 S 198.166 -0.190102 5.35162 0
M  V30 2166 C 199.322 -1.38121 6.1047 0
M  V30 2167 H 199.555 0.117381 2.97068 0
M  V30 2168 H 197.088 0.179458 1.53354 0
M  V30 2169 H 199.046 -2.3466 3.36816 0
M  V30 2170 H 197.707 -2.23676 2.20518 0
M  V30 2171 H 196.9 -2.09877 4.58222 0
M  V30 2172 H 196.502 -0.612486 3.68951 0
M  V30 2173 H 198.794 -2.30726 6.37002 0
M  V30 2174 H 199.737 -0.928521 7.01986 0
M  V30 2175 H 200.145 -1.60071 5.41329 0
M  V30 2176 N 199.544 -1.57102 0.125237 0
M  V30 2177 C 200.507 -2.14471 -0.80838 0
M  V30 2178 C 201.507 -1.0811 -1.19033 0
M  V30 2179 O 202.697 -1.33856 -1.11482 0
M  V30 2180 C 199.829 -2.69005 -2.09402 0
M  V30 2181 H 201.022 -2.98297 -0.309696 0
M  V30 2182 H 198.575 -1.55807 -0.124051 0
M  V30 2183 H 199.31 -1.88785 -2.63687 0
M  V30 2184 H 199.095 -3.46799 -1.82957 0
M  V30 2185 H 200.585 -3.13278 -2.76128 0
M  V30 2186 N 201.022 0.148545 -1.56898 0
M  V30 2187 C 201.985 1.16736 -1.97244 0
M  V30 2188 C 202.985 1.35947 -0.858777 0
M  V30 2189 O 204.175 1.32966 -1.12542 0
M  V30 2190 C 201.307 2.52798 -2.28705 0
M  V30 2191 H 202.5 0.821279 -2.88435 0
M  V30 2192 H 200.053 0.391831 -1.51309 0
M  V30 2193 H 200.788 2.92381 -1.403 0
M  V30 2194 H 200.573 2.40216 -3.09901 0
M  V30 2195 H 202.063 3.26179 -2.60762 0
M  V30 2196 N 202.5 1.5196 0.417844 0
M  V30 2197 C 203.41 1.77554 1.53336 0
M  V30 2198 C 204.426 0.660655 1.6097 0
M  V30 2199 O 205.602 0.945099 1.77848 0
M  V30 2200 C 202.667 1.91291 2.89152 0
M  V30 2201 C 201.728 3.15183 2.91475 0
M  V30 2202 C 200.961 3.28256 4.20813 0
M  V30 2203 O 201.184 2.46798 5.14244 0
M  V30 2204 O 200.118 4.21356 4.29817 0
M  V30 2205 H 203.944 2.7222 1.34647 0
M  V30 2206 H 201.529 1.36698 0.602828 0
M  V30 2207 H 203.411 2.02199 3.69721 0
M  V30 2208 H 202.086 0.998129 3.07927 0
M  V30 2209 H 200.993 3.09739 2.09791 0
M  V30 2210 H 202.326 4.06414 2.77648 0
M  V30 2211 N 203.978 -0.674533 1.42435 0
M  V30 2212 C 204.941 -1.76986 1.45632 0
M  V30 2213 C 205.941 -1.5708 0.343871 0
M  V30 2214 O 207.131 -1.63367 0.604709 0
M  V30 2215 C 204.263 -3.15623 1.28822 0
M  V30 2216 H 205.456 -1.75539 2.43158 0
M  V30 2217 H 203.009 -0.884189 1.28887 0
M  V30 2218 H 203.744 -3.22696 0.322193 0
M  V30 2219 H 203.529 -3.31475 2.09444 0
M  V30 2220 H 205.019 -3.95537 1.33942 0
M  V30 2221 N 205.456 -1.28612 -0.910864 0
M  V30 2222 C 206.419 -1.12803 -1.9952 0
M  V30 2223 C 207.419 -0.0668264 -1.60661 0
M  V30 2224 O 208.609 -0.312847 -1.71368 0
M  V30 2225 C 205.741 -0.72254 -3.33155 0
M  V30 2226 H 206.934 -2.09109 -2.14973 0
M  V30 2227 H 204.487 -1.11639 -1.09391 0
M  V30 2228 H 205.222 0.241152 -3.23402 0
M  V30 2229 H 205.007 -1.48916 -3.62721 0
M  V30 2230 H 206.497 -0.634666 -4.12749 0
M  V30 2231 N 206.934 1.1197 -1.10907 0
M  V30 2232 C 207.897 2.16031 -0.765707 0
M  V30 2233 C 208.897 1.59393 0.212235 0
M  V30 2234 O 210.087 1.74196 -0.0115441 0
M  V30 2235 C 207.219 3.40632 -0.135053 0
M  V30 2236 H 208.412 2.47919 -1.68748 0
M  V30 2237 H 205.965 1.27061 -0.910226 0
M  V30 2238 H 206.7 3.14348 0.797218 0
M  V30 2239 H 206.485 3.8302 -0.838937 0
M  V30 2240 H 207.975 4.17505 0.0892469 0
M  V30 2241 N 208.412 0.89855 1.29475 0
M  V30 2242 C 209.342 0.39201 2.30186 0
M  V30 2243 C 210.323 -0.532359 1.61555 0
M  V30 2244 O 211.508 -0.443331 1.89072 0
M  V30 2245 C 208.638 -0.382353 3.45189 0
M  V30 2246 C 207.592 0.451483 4.25612 0
M  V30 2247 C 206.918 -0.450307 5.328 0
M  V30 2248 C 208.218 1.70079 4.93832 0
M  V30 2249 H 209.912 1.23362 2.72804 0
M  V30 2250 H 207.458 0.594638 1.31149 0
M  V30 2251 H 209.411 -0.747451 4.14718 0
M  V30 2252 H 208.135 -1.25774 3.01411 0
M  V30 2253 H 206.794 0.798897 3.57789 0
M  V30 2254 H 206.442 -1.32379 4.85268 0
M  V30 2255 H 206.142 0.103902 5.87508 0
M  V30 2256 H 207.666 -0.811623 6.05182 0
M  V30 2257 H 209.08 1.40549 5.55805 0
M  V30 2258 H 207.477 2.19623 5.58467 0
M  V30 2259 H 208.547 2.43744 4.19186 0
M  V30 2260 N 209.89 -1.43072 0.660911 0
M  V30 2261 C 211.306 -1.56169 0.329173 0
M  V30 2262 C 211.506 -1.64317 -1.16629 0
M  V30 2263 O 210.562 -1.60245 -1.95135 0
M  V30 2264 C 211.875 -2.81873 1.04729 0
M  V30 2265 C 213.423 -2.95627 1.02828 0
M  V30 2266 C 213.898 -4.24174 1.72744 0
M  V30 2267 N 215.389 -4.31055 1.69545 0
M  V30 2268 C 216.124 -5.29304 2.20511 0
M  V30 2269 N 215.62 -6.33786 2.79799 0
M  V30 2270 N 217.413 -5.21008 2.10966 0
M  V30 2271 H 209.564 -1.36027 1.63127 0
M  V30 2272 H 211.827 -0.653823 0.686454 0
M  V30 2273 H 211.533 -2.81942 2.10242 0
M  V30 2274 H 211.407 -3.72338 0.603702 0
M  V30 2275 H 213.794 -2.95094 -0.0184742 0
M  V30 2276 H 213.875 -2.06431 1.51063 0
M  V30 2277 H 213.519 -4.25467 2.7738 0
M  V30 2278 H 213.449 -5.1228 1.2197 0
M  V30 2279 H 215.94 -3.56174 1.26288 0
M  V30 2280 H 216.253 -7.05086 3.16344 0
M  V30 2281 H 214.598 -6.34387 2.83863 0
M  V30 2282 H 217.789 -4.38301 1.64347 0
M  V30 2283 H 217.962 -5.97416 2.50993 0
M  V30 2284 N 211.368 -0.403325 -1.52352 0
M  V30 2285 C 212.614 0.174605 -2.02047 0
M  V30 2286 C 212.947 1.45282 -1.28867 0
M  V30 2287 O 212.222 1.90483 -0.393257 0
M  V30 2288 C 212.505 0.428238 -3.57545 0
M  V30 2289 C 212.358 -0.866248 -4.4138 0
M  V30 2290 C 213.677 1.21287 -4.23057 0
M  V30 2291 H 210.796 0.0619851 -0.734389 0
M  V30 2292 H 213.438 -0.53565 -1.82293 0
M  V30 2293 H 211.588 1.03327 -3.74507 0
M  V30 2294 H 213.26 -1.50265 -4.3614 0
M  V30 2295 H 211.503 -1.47851 -4.07827 0
M  V30 2296 H 212.174 -0.643249 -5.48239 0
M  V30 2297 H 214.65 0.700703 -4.10158 0
M  V30 2298 H 213.526 1.35909 -5.31808 0
M  V30 2299 H 213.787 2.23193 -3.81625 0
M  V30 2300 N 212.846 1.57033 -0.133567 0
M  V30 2301 C 214.076 1.99754 0.527429 0
M  V30 2302 C 214.484 1.01245 1.59832 0
M  V30 2303 O 213.827 -0.000645496 1.837 0
M  V30 2304 C 213.889 3.38903 1.19939 0
M  V30 2305 C 213.553 4.56174 0.274709 0
M  V30 2306 C 214.55 5.17563 -0.492398 0
M  V30 2307 C 212.235 5.01972 0.18153 0
M  V30 2308 C 214.229 6.2315 -1.34027 0
M  V30 2309 C 211.916 6.07416 -0.669958 0
M  V30 2310 C 212.914 6.67874 -1.42947 0
M  V30 2311 O 212.602 7.71279 -2.2668 0
M  V30 2312 H 212.334 0.660702 0.142999 0
M  V30 2313 H 214.888 2.04207 -0.221099 0
M  V30 2314 H 213.118 3.31248 1.99528 0
M  V30 2315 H 214.807 3.65818 1.75875 0
M  V30 2316 H 215.573 4.83087 -0.430367 0
M  V30 2317 H 211.452 4.54652 0.762422 0
M  V30 2318 H 214.996 6.70268 -1.93357 0
M  V30 2319 H 210.893 6.41321 -0.73333 0
M  V30 2320 H 211.661 7.88441 -2.1978 0
M  V30 2321 N 214.325 -0.140222 1.56975 0
M  V30 2322 C 215.572 -0.851687 1.83719 0
M  V30 2323 C 215.9 -1.80862 0.715485 0
M  V30 2324 O 215.155 -1.93464 -0.294956 0
M  V30 2325 C 215.454 -1.65386 3.16832 0
M  V30 2326 C 215.12 -0.843112 4.42947 0
M  V30 2327 C 213.782 -0.619464 4.77196 0
M  V30 2328 C 216.134 -0.276582 5.20466 0
M  V30 2329 C 213.462 0.181312 5.8642 0
M  V30 2330 C 215.814 0.51127 6.30531 0
M  V30 2331 C 214.478 0.745432 6.63325 0
M  V30 2332 H 213.748 -0.311654 0.672274 0
M  V30 2333 H 216.395 -0.115006 1.91154 0
M  V30 2334 H 214.7 -2.46084 3.04877 0
M  V30 2335 H 216.397 -2.20793 3.34741 0
M  V30 2336 H 212.987 -1.0275 4.16101 0
M  V30 2337 H 217.171 -0.436632 4.94376 0
M  V30 2338 H 212.427 0.372165 6.10266 0
M  V30 2339 H 216.601 0.957354 6.89788 0
M  V30 2340 H 214.228 1.36778 7.47794 0
M  V30 2341 N 215.803 -1.52179 -0.40978 0
M  V30 2342 C 216.735 -1.71703 -1.51825 0
M  V30 2343 C 217.748 -0.597445 -1.51441 0
M  V30 2344 O 218.937 -0.872582 -1.55719 0
M  V30 2345 C 216.037 -1.74171 -2.90719 0
M  V30 2346 C 215.21 -3.03156 -3.15302 0
M  V30 2347 C 214.269 -2.97445 -4.34065 0
M  V30 2348 O 213.295 -3.71352 -4.31377 0
M  V30 2349 N 214.497 -2.15191 -5.39141 0
M  V30 2350 H 217.262 -2.67334 -1.35472 0
M  V30 2351 H 214.823 -1.50409 -0.599069 0
M  V30 2352 H 216.815 -1.67884 -3.68235 0
M  V30 2353 H 215.385 -0.860166 -3.00533 0
M  V30 2354 H 214.605 -3.23097 -2.25836 0
M  V30 2355 H 215.893 -3.88484 -3.28569 0
M  V30 2356 H 215.291 -1.54573 -5.44173 0
M  V30 2357 H 213.848 -2.1476 -6.15403 0
M  V30 2358 O 217.32 0.555659 -1.5164 0
M  V30 2359 H 218.011 1.21079 -1.51194 0
M  V30 END ATOM
M  V30 BEGIN BOND
M  V30 END BOND
M  V30 END CTAB
M  END
$$$$
