drugbank_target|P49747 Cartilage oligomeric matrix protein (DB01373)
 OpenBabel12092119423D

  0  0  0     0  0            999 V3000
M  V30 BEGIN CTAB
M  V30 COUNTS 11087 11204 0 0 0
M  V30 BEGIN ATOM
M  V30 1 H -0.908 1.98254 -0.117106 0
M  V30 2 N 0 1.576 0 0
M  V30 3 C 0.933 2.03868 1.02534 0
M  V30 4 C 1.911 0.928543 1.3348 0
M  V30 5 O 3.095 1.19667 1.45644 0
M  V30 6 C 0.222 2.43627 2.35294 0
M  V30 7 C -0.732 3.65373 2.2001 0
M  V30 8 S 0.101 5.13292 1.52614 0
M  V30 9 C 1.257 5.56322 2.86805 0
M  V30 10 H 1.49 2.90518 0.631377 0
M  V30 11 H -0.977 1.52953 0.210867 0
M  V30 12 H 0.981 2.67203 3.11629 0
M  V30 13 H -0.358 1.57376 2.7183 0
M  V30 14 H -1.165 3.90944 3.18086 0
M  V30 15 H -1.563 3.418 1.51819 0
M  V30 16 H 0.729 5.58782 3.83104 0
M  V30 17 H 1.672 6.56266 2.65933 0
M  V30 18 H 2.08 4.83886 2.90714 0
M  V30 19 N 1.4781 -0.272755 1.55222 0
M  V30 20 C 2.7241 -1.00581 1.761 0
M  V30 21 C 3.0571 -1.85932 0.560625 0
M  V30 22 O 2.3321 -1.89416 -0.441801 0
M  V30 23 C 2.6151 -1.88816 3.06628 0
M  V30 24 C 2.4681 -1.06457 4.37021 0
M  V30 25 C 3.7871 -2.8752 3.33197 0
M  V30 26 H 0.9061 -0.364244 0.640699 0
M  V30 27 H 3.5481 -0.278189 1.87952 0
M  V30 28 H 1.6981 -2.50856 2.96654 0
M  V30 29 H 3.3701 -0.464863 4.58952 0
M  V30 30 H 1.6131 -0.368043 4.32236 0
M  V30 31 H 2.2841 -1.71514 5.24678 0
M  V30 32 H 4.7601 -2.35615 3.42965 0
M  V30 33 H 3.6361 -3.46399 4.25792 0
M  V30 34 H 3.8971 -3.62657 2.52849 0
M  V30 35 N 2.9562 -1.48159 -0.537278 0
M  V30 36 C 4.3672 -1.49429 -1.11928 0
M  V30 37 C 4.7182 -0.26 -1.9447 0
M  V30 38 O 3.8432 0.633489 -2.0692 0
M  V30 39 C 4.4382 -2.70758 -2.03656 0
M  V30 40 C 2.9972 -2.74923 -2.57088 0
M  V30 41 C 2.1442 -2.42835 -1.3389 0
M  V30 42 H 5.0952 -1.55381 -0.322886 0
M  V30 43 H 5.1162 -2.48861 -2.87834 0
M  V30 44 H 4.6282 -3.60575 -1.43553 0
M  V30 45 H 2.7292 -1.89296 -3.20933 0
M  V30 46 H 2.8422 -3.76157 -2.9672 0
M  V30 47 H 1.2062 -1.93836 -1.65226 0
M  V30 48 H 1.9892 -3.34884 -0.755504 0
M  V30 49 N 4.4343 0.785586 -1.36625 0
M  V30 50 C 5.7113 1.53198 -1.21613 0
M  V30 51 C 6.0913 2.10187 0.196113 0
M  V30 52 O 5.4393 1.94318 1.20219 0
M  V30 53 C 5.6493 2.62388 -2.30116 0
M  V30 54 C 6.9973 3.30167 -2.66974 0
M  V30 55 O 8.0213 2.72674 -2.29188 0
M  V30 56 O 6.8803 4.34077 -3.32023 0
M  V30 57 H 3.9743 0.677865 -0.473738 0
M  V30 58 H 6.5203 0.823739 -1.48367 0
M  V30 59 H 5.2923 2.18299 -3.24748 0
M  V30 60 H 4.9153 3.40827 -2.0475 0
M  V30 61 N 5.9124 1.20967 1.01018 0
M  V30 62 C 7.1404 1.04956 1.78303 0
M  V30 63 C 7.5554 -0.400915 1.84494 0
M  V30 64 O 6.9124 -1.27826 1.30257 0
M  V30 65 C 6.9634 1.63403 3.22462 0
M  V30 66 O 6.6844 3.02775 3.16637 0
M  V30 67 C 8.1854 1.52432 4.16268 0
M  V30 68 H 5.4054 0.368858 0.560522 0
M  V30 69 H 7.9494 1.60193 1.27116 0
M  V30 70 H 6.1044 1.1227 3.70775 0
M  V30 71 H 6.5184 3.30626 4.07169 0
M  V30 72 H 7.9924 1.98078 5.15237 0
M  V30 73 H 8.4694 0.477875 4.36592 0
M  V30 74 H 9.0754 2.02787 3.73841 0
M  V30 75 N 7.3905 -1.2043 1.01659 0
M  V30 76 C 8.3535 -2.21433 0.591616 0
M  V30 77 C 9.3535 -1.57203 -0.338226 0
M  V30 78 O 10.5435 -1.73737 -0.126918 0
M  V30 79 C 7.6755 -3.40628 -0.136058 0
M  V30 80 H 8.8685 -2.60545 1.48514 0
M  V30 81 H 6.4215 -1.33893 0.806379 0
M  V30 82 H 7.1565 -3.07019 -1.04449 0
M  V30 83 H 6.9415 -3.88475 0.531917 0
M  V30 84 H 8.4315 -4.15475 -0.420735 0
M  V30 85 N 8.8686 -0.792821 -1.36206 0
M  V30 86 C 10.1086 -0.372238 -2.00982 0
M  V30 87 C 10.4726 1.03749 -1.61555 0
M  V30 88 O 11.6736 1.55934 -2.18948 0
M  V30 89 C 9.9446 -0.534566 -3.5338 0
M  V30 90 S 11.5036 -0.202365 -4.38333 0
M  V30 91 H 8.3216 -0.142044 -0.696667 0
M  V30 92 H 10.9236 -1.03206 -1.66039 0
M  V30 93 H 9.6276 -1.5608 -3.79562 0
M  V30 94 H 9.1586 0.141065 -3.93147 0
M  V30 95 H 11.1736 0.994869 -4.86124 0
M  V30 96 N 10.3467 1.47872 -0.545128 0
M  V30 97 C 11.5927 2.02793 -0.0166104 0
M  V30 98 C 11.9257 1.41987 1.32489 0
M  V30 99 O 11.2007 0.571045 1.85928 0
M  V30 100 C 11.4837 3.59989 0.0893294 0
M  V30 101 C 11.3367 4.3125 -1.27841 0
M  V30 102 C 12.6557 4.32606 0.808724 0
M  V30 103 H 9.7747 0.736962 -0.00751035 0
M  V30 104 H 12.4167 1.76433 -0.705085 0
M  V30 105 H 10.5667 3.82579 0.675681 0
M  V30 106 H 12.2387 4.20035 -1.90704 0
M  V30 107 H 10.4817 3.92076 -1.85632 0
M  V30 108 H 11.1527 5.39736 -1.15713 0
M  V30 109 H 13.6287 4.14936 0.310992 0
M  V30 110 H 12.5047 5.42251 0.851782 0
M  V30 111 H 12.7657 4.00963 1.86229 0
M  V30 112 N 11.8248 0.280983 1.55075 0
M  V30 113 C 12.7548 -0.597469 2.25727 0
M  V30 114 C 13.7358 -1.15417 1.24952 0
M  V30 115 O 14.9208 -1.18722 1.53684 0
M  V30 116 C 12.0508 -1.7789 2.98283 0
M  V30 117 C 11.0048 -1.35347 4.06036 0
M  V30 118 C 10.3308 -2.61846 4.66198 0
M  V30 119 C 11.6308 -0.499354 5.19907 0
M  V30 120 H 13.3248 -0.00824265 2.99399 0
M  V30 121 H 10.8708 -0.0025244 1.44 0
M  V30 122 H 12.8238 -2.39937 3.46422 0
M  V30 123 H 11.5478 -2.39405 2.22155 0
M  V30 124 H 10.2068 -0.756156 3.58717 0
M  V30 125 H 9.8548 -3.21632 3.86732 0
M  V30 126 H 9.5548 -2.3409 5.38958 0
M  V30 127 H 11.0788 -3.24732 5.1709 0
M  V30 128 H 12.4928 -1.02498 5.64063 0
M  V30 129 H 10.8898 -0.316424 5.99265 0
M  V30 130 H 11.9598 0.480459 4.82514 0
M  V30 131 N 13.3029 -1.57598 0.00835791 0
M  V30 132 C 14.2329 -2.1198 -0.979113 0
M  V30 133 C 15.2139 -1.03091 -1.35301 0
M  V30 134 O 16.3989 -1.30818 -1.43528 0
M  V30 135 C 13.5289 -2.62995 -2.26828 0
M  V30 136 C 12.4829 -3.76485 -2.03576 0
M  V30 137 C 11.8089 -4.13846 -3.38579 0
M  V30 138 C 13.1089 -5.0342 -1.39161 0
M  V30 139 H 14.8029 -2.94738 -0.526281 0
M  V30 140 H 12.3489 -1.41783 -0.251704 0
M  V30 141 H 14.3019 -2.99669 -2.96271 0
M  V30 142 H 13.0259 -1.7737 -2.7424 0
M  V30 143 H 11.6849 -3.40217 -1.36557 0
M  V30 144 H 11.3329 -3.25232 -3.83709 0
M  V30 145 H 11.0329 -4.90312 -3.23834 0
M  V30 146 H 12.5569 -4.53086 -4.09323 0
M  V30 147 H 13.9709 -5.37812 -1.98573 0
M  V30 148 H 12.3679 -5.84746 -1.34878 0
M  V30 149 H 13.4379 -4.83548 -0.361868 0
M  V30 150 N 14.781 0.264519 -1.55364 0
M  V30 151 C 15.711 1.33121 -1.91836 0
M  V30 152 C 16.692 1.51101 -0.781192 0
M  V30 153 O 17.877 1.64003 -1.04003 0
M  V30 154 C 15.007 2.68921 -2.19769 0
M  V30 155 C 13.961 2.65661 -3.35571 0
M  V30 156 C 13.287 4.05093 -3.49004 0
M  V30 157 C 14.587 2.24187 -4.71739 0
M  V30 158 H 16.281 1.02844 -2.81182 0
M  V30 159 H 13.827 0.493286 -1.35287 0
M  V30 160 H 15.78 3.43663 -2.43872 0
M  V30 161 H 14.504 3.00799 -1.27231 0
M  V30 162 H 13.163 1.93377 -3.1145 0
M  V30 163 H 12.811 4.34206 -2.53917 0
M  V30 164 H 12.511 4.03804 -4.26868 0
M  V30 165 H 14.035 4.81561 -3.75408 0
M  V30 166 H 15.449 2.88654 -4.9533 0
M  V30 167 H 13.846 2.34044 -5.52579 0
M  V30 168 H 14.916 1.19327 -4.69988 0
M  V30 169 N 16.2591 1.48442 0.529413 0
M  V30 170 C 17.4871 1.60151 1.30994 0
M  V30 171 C 17.9021 0.261985 1.86973 0
M  V30 172 O 17.2591 -0.748805 1.66431 0
M  V30 173 C 17.3101 2.64854 2.46038 0
M  V30 174 O 17.0311 3.93608 1.92365 0
M  V30 175 C 18.5321 2.87007 3.37849 0
M  V30 176 H 15.7521 0.539971 0.398338 0
M  V30 177 H 18.2961 1.94273 0.638597 0
M  V30 178 H 16.4511 2.33589 3.09055 0
M  V30 179 H 16.8651 4.51055 2.67675 0
M  V30 180 H 18.3391 3.64068 4.14919 0
M  V30 181 H 18.8161 1.95852 3.93114 0
M  V30 182 H 19.4221 3.19579 2.80623 0
M  V30 183 N 17.7372 -0.778329 1.37039 0
M  V30 184 C 18.6672 -1.90546 1.34962 0
M  V30 185 C 19.6482 -1.68681 0.219274 0
M  V30 186 O 20.8332 -1.89634 0.418624 0
M  V30 187 C 17.9632 -3.27734 1.14925 0
M  V30 188 C 16.9172 -3.64147 2.24902 0
M  V30 189 C 16.2432 -4.99806 1.89996 0
M  V30 190 C 17.5432 -3.71579 3.67051 0
M  V30 191 H 19.2372 -1.92541 2.29277 0
M  V30 192 H 16.7832 -0.924948 1.10366 0
M  V30 193 H 18.7362 -4.06215 1.12104 0
M  V30 194 H 17.4602 -3.26154 0.170631 0
M  V30 195 H 16.1192 -2.8797 2.26868 0
M  V30 196 H 15.7672 -4.94759 0.906796 0
M  V30 197 H 15.4672 -5.25139 2.63634 0
M  V30 198 H 16.9912 -5.80694 1.88749 0
M  V30 199 H 18.4052 -4.40227 3.67251 0
M  V30 200 H 16.8022 -4.08405 4.39688 0
M  V30 201 H 17.8722 -2.72404 4.01154 0
M  V30 202 N 19.2153 -1.21501 -1.00376 0
M  V30 203 C 20.1783 -0.976927 -2.07337 0
M  V30 204 C 21.1783 0.0525322 -1.60714 0
M  V30 205 O 22.3683 -0.184869 -1.73216 0
M  V30 206 C 19.5003 -0.473423 -3.37597 0
M  V30 207 H 20.6933 -1.92587 -2.29892 0
M  V30 208 H 18.2463 -1.03217 -1.17371 0
M  V30 209 H 18.9813 0.480379 -3.20722 0
M  V30 210 H 18.7663 -1.216 -3.72768 0
M  V30 211 H 20.2563 -0.32675 -4.1632 0
M  V30 212 N 20.6934 1.19889 -1.02296 0
M  V30 213 C 21.6564 2.21116 -0.603351 0
M  V30 214 C 22.6564 1.5738 0.329884 0
M  V30 215 O 23.8464 1.73802 0.117702 0
M  V30 216 C 20.9784 3.40696 0.117992 0
M  V30 217 H 22.1714 2.59754 -1.49893 0
M  V30 218 H 19.7244 1.33463 -0.813468 0
M  V30 219 H 20.4594 3.07569 1.0282 0
M  V30 220 H 20.2444 3.88188 -0.552511 0
M  V30 221 H 21.7344 4.15692 0.398696 0
M  V30 222 N 22.1715 0.800033 1.35784 0
M  V30 223 C 23.1015 0.220184 2.3246 0
M  V30 224 C 24.0825 -0.65073 1.57161 0
M  V30 225 O 25.2675 -0.582359 1.85263 0
M  V30 226 C 22.3975 -0.637353 3.41402 0
M  V30 227 C 21.3515 0.134531 4.27789 0
M  V30 228 C 20.6775 -0.844285 5.27992 0
M  V30 229 C 21.9775 1.32979 5.05088 0
M  V30 230 H 23.6715 1.02787 2.81203 0
M  V30 231 H 21.2175 0.495717 1.35199 0
M  V30 232 H 23.1705 -1.05302 4.08031 0
M  V30 233 H 21.8945 -1.47785 2.91251 0
M  V30 234 H 20.5535 0.531296 3.6273 0
M  V30 235 H 20.2015 -1.68011 4.74111 0
M  V30 236 H 19.9015 -0.332184 5.8666 0
M  V30 237 H 21.4255 -1.2583 5.97494 0
M  V30 238 H 22.8395 0.98934 5.64699 0
M  V30 239 H 21.2365 1.77593 5.7322 0
M  V30 240 H 22.3065 2.11978 4.36111 0
M  V30 241 N 23.6496 -1.47581 0.552962 0
M  V30 242 C 24.8976 -2.02082 0.0272703 0
M  V30 243 C 25.2186 -1.4301 -1.32563 0
M  V30 244 O 24.4886 -0.603745 -1.86365 0
M  V30 245 H 23.0686 -0.746966 0.00709182 0
M  V30 246 H 25.7306 -1.81033 0.722008 0
M  V30 247 H 24.8266 -3.12034 -0.0639951 0
M  V30 248 N 25.1277 -0.289203 -1.54924 0
M  V30 249 C 26.0907 0.579144 -2.21762 0
M  V30 250 C 27.0907 1.07047 -1.1999 0
M  V30 251 O 28.2807 0.968384 -1.44803 0
M  V30 252 C 25.4127 1.80055 -2.8947 0
M  V30 253 H 26.6057 -0.00464908 -2.999 0
M  V30 254 H 24.1587 -0.0399306 -1.56249 0
M  V30 255 H 24.8937 2.42449 -2.15381 0
M  V30 256 H 24.6787 1.45602 -3.64064 0
M  V30 257 H 26.1687 2.41773 -3.40493 0
M  V30 258 N 26.6058 1.57591 -0.0167156 0
M  V30 259 C 27.8308 1.9598 0.67872 0
M  V30 260 C 28.2558 0.892546 1.65575 0
M  V30 261 O 27.6138 -0.147772 1.80697 0
M  V30 262 C 27.6618 3.33468 1.37227 0
M  V30 263 O 26.7658 3.28954 2.48722 0
M  V30 264 H 26.1068 0.639339 0.17928 0
M  V30 265 H 28.6368 2.04463 -0.0748802 0
M  V30 266 H 28.6468 3.69417 1.7319 0
M  V30 267 H 27.3218 4.10694 0.656007 0
M  V30 268 H 25.8988 3.04705 2.14963 0
M  V30 269 N 28.0839 -0.256276 1.55502 0
M  V30 270 C 29.3319 -0.983672 1.76545 0
M  V30 271 C 29.6529 -1.86206 0.578982 0
M  V30 272 O 28.9229 -1.91656 -0.405577 0
M  V30 273 H 27.5029 -0.366191 0.651086 0
M  V30 274 H 30.1649 -0.276479 1.92929 0
M  V30 275 H 29.2609 -1.61087 2.67315 0
M  V30 276 N 29.562 -1.4872 -0.521534 0
M  V30 277 C 30.494 -1.59968 -1.64143 0
M  V30 278 C 31.507 -0.483463 -1.55456 0
M  V30 279 O 32.696 -0.75467 -1.61762 0
M  V30 280 C 29.796 -1.52127 -3.02838 0
M  V30 281 C 28.969 -2.78932 -3.36921 0
M  V30 282 C 28.028 -2.64428 -4.54933 0
M  V30 283 O 27.054 -3.38331 -4.57735 0
M  V30 284 N 28.256 -1.74606 -5.53618 0
M  V30 285 H 31.021 -2.56548 -1.54929 0
M  V30 286 H 28.582 -1.45551 -0.708988 0
M  V30 287 H 30.574 -1.40106 -3.79674 0
M  V30 288 H 29.144 -0.634868 -3.06085 0
M  V30 289 H 28.364 -3.05455 -2.4918 0
M  V30 290 H 29.652 -3.63041 -3.56481 0
M  V30 291 H 29.05 -1.13782 -5.54139 0
M  V30 292 H 27.607 -1.6852 -6.29638 0
M  V30 293 N 31.0401 0.771051 -1.3745 0
M  V30 294 C 32.2881 1.52661 -1.32435 0
M  V30 295 C 32.6091 1.9479 0.0905024 0
M  V30 296 O 31.8791 1.66348 1.03466 0
M  V30 297 H 30.4591 0.566218 -0.487244 0
M  V30 298 H 33.1211 0.917636 -1.71946 0
M  V30 299 H 32.2171 2.42568 -1.96385 0
M  V30 300 N 32.5182 1.22032 0.997298 0
M  V30 301 C 33.4502 0.944263 2.08845 0
M  V30 302 C 34.4632 -0.0754663 1.62625 0
M  V30 303 O 35.6522 0.157994 1.77799 0
M  V30 304 C 32.7522 0.397723 3.36558 0
M  V30 305 C 31.9252 1.47362 4.11829 0
M  V30 306 C 30.9842 0.934951 5.17827 0
M  V30 307 O 30.0102 1.62016 5.45655 0
M  V30 308 N 31.2122 -0.245895 5.79979 0
M  V30 309 H 33.9772 1.88363 2.33109 0
M  V30 310 H 31.5382 1.12661 1.16272 0
M  V30 311 H 33.5302 0.0227771 4.04694 0
M  V30 312 H 32.1002 -0.446646 3.09393 0
M  V30 313 H 31.3202 2.02208 3.38386 0
M  V30 314 H 32.6082 2.19764 4.58891 0
M  V30 315 H 32.0062 -0.819475 5.59733 0
M  V30 316 H 30.5632 -0.562272 6.4937 0
M  V30 317 N 33.9963 -1.19345 1.0293 0
M  V30 318 C 35.2213 -1.93538 0.745511 0
M  V30 319 C 35.6463 -1.75007 -0.689511 0
M  V30 320 O 35.0043 -1.05265 -1.47611 0
M  V30 321 C 35.0523 -3.43336 1.10239 0
M  V30 322 O 34.1563 -4.11806 0.221289 0
M  V30 323 H 33.4973 -0.604193 0.275404 0
M  V30 324 H 36.0273 -1.5141 1.37609 0
M  V30 325 H 36.0373 -3.94004 1.05947 0
M  V30 326 H 34.7123 -3.56146 2.14786 0
M  V30 327 H 33.2893 -3.715 0.322842 0
M  V30 328 N 35.4744 -0.807222 -1.35358 0
M  V30 329 C 36.8854 -0.44876 -1.81226 0
M  V30 330 C 37.2364 1.02929 -1.67033 0
M  V30 331 O 36.3614 1.79991 -1.20133 0
M  V30 332 C 36.9564 -0.807774 -3.2903 0
M  V30 333 C 35.5154 -0.501901 -3.73039 0
M  V30 334 C 34.6624 -1.03304 -2.57339 0
M  V30 335 H 37.6134 -0.998808 -1.23327 0
M  V30 336 H 37.6344 -0.10554 -3.80354 0
M  V30 337 H 37.1464 -1.88357 -3.39328 0
M  V30 338 H 35.2474 0.565128 -3.68289 0
M  V30 339 H 35.3604 -1.03497 -4.67787 0
M  V30 340 H 33.7244 -0.455339 -2.50597 0
M  V30 341 H 34.5074 -2.11496 -2.70415 0
M  V30 342 N 36.9525 1.47285 -0.560781 0
M  V30 343 C 37.8825 2.32857 0.173105 0
M  V30 344 C 38.8635 1.44009 0.905281 0
M  V30 345 O 40.0485 1.7286 0.885046 0
M  V30 346 C 37.1785 3.25861 1.20133 0
M  V30 347 C 36.1325 4.23978 0.585388 0
M  V30 348 C 35.4585 5.06332 1.7185 0
M  V30 349 C 36.7585 5.20242 -0.463178 0
M  V30 350 H 38.4525 2.94466 -0.541307 0
M  V30 351 H 35.9985 1.41601 -0.261764 0
M  V30 352 H 37.9515 3.84569 1.72293 0
M  V30 353 H 36.6755 2.62315 1.94573 0
M  V30 354 H 35.3345 3.66501 0.085054 0
M  V30 355 H 34.9825 4.39186 2.45203 0
M  V30 356 H 34.6825 5.72762 1.31213 0
M  V30 357 H 36.2065 5.67899 2.24329 0
M  V30 358 H 37.6205 5.73293 -0.027502 0
M  V30 359 H 36.0175 5.94896 -0.788627 0
M  V30 360 H 37.0875 4.65504 -1.35773 0
M  V30 361 N 38.4306 0.297415 1.54768 0
M  V30 362 C 39.6786 -0.312295 1.99673 0
M  V30 363 C 39.9996 -1.54686 1.18732 0
M  V30 364 O 39.2696 -1.93854 0.282382 0
M  V30 365 H 37.8496 -0.118381 0.73756 0
M  V30 366 H 40.5116 0.407915 1.90583 0
M  V30 367 H 39.6076 -0.586813 3.06534 0
M  V30 368 N 39.9087 -1.5758 0.0250728 0
M  V30 369 C 41.1337 -1.96337 -0.668317 0
M  V30 370 C 41.5587 -0.901314 -1.651 0
M  V30 371 O 40.9167 0.138187 -1.80773 0
M  V30 372 C 40.9647 -3.34191 -1.35457 0
M  V30 373 O 40.0687 -3.30269 -2.46974 0
M  V30 374 H 39.4097 -0.640281 -0.175887 0
M  V30 375 H 41.9397 -2.0442 0.0857224 0
M  V30 376 H 41.9497 -3.70331 -1.71228 0
M  V30 377 H 40.6247 -4.11036 -0.634218 0
M  V30 378 H 39.2017 -3.05841 -2.13344 0
M  V30 379 N 41.3868 0.248026 -1.55636 0
M  V30 380 C 42.6638 0.998988 -1.68165 0
M  V30 381 C 43.0438 2.03409 -0.564621 0
M  V30 382 O 42.3918 2.24378 0.432076 0
M  V30 383 C 42.6018 1.63334 -3.0842 0
M  V30 384 C 43.9498 2.13562 -3.66983 0
M  V30 385 O 44.9738 1.73277 -3.11213 0
M  V30 386 O 43.8328 2.87526 -4.64749 0
M  V30 387 H 40.9268 0.464933 -0.683935 0
M  V30 388 H 43.4728 0.241902 -1.67967 0
M  V30 389 H 42.2448 0.884583 -3.8117 0
M  V30 390 H 41.8678 2.45666 -3.12624 0
M  V30 391 N 42.8649 1.48995 0.513639 0
M  V30 392 C 43.7949 1.67636 1.62544 0
M  V30 393 C 44.7759 0.525087 1.61793 0
M  V30 394 O 45.9609 0.759502 1.78732 0
M  V30 395 C 43.0909 1.73114 3.01079 0
M  V30 396 C 42.0449 2.87905 3.16693 0
M  V30 397 C 41.3709 2.78486 4.56453 0
M  V30 398 C 42.6709 4.29005 2.97913 0
M  V30 399 H 44.3649 2.60716 1.47198 0
M  V30 400 H 41.9109 1.25465 0.706714 0
M  V30 401 H 43.8639 1.84742 3.78746 0
M  V30 402 H 42.5879 0.766241 3.17484 0
M  V30 403 H 41.2469 2.75859 2.41448 0
M  V30 404 H 40.8949 1.7993 4.69717 0
M  V30 405 H 40.5949 3.55523 4.67843 0
M  V30 406 H 42.1189 2.92104 5.36197 0
M  V30 407 H 43.5329 4.41798 3.65359 0
M  V30 408 H 41.9299 5.07166 3.20785 0
M  V30 409 H 42.9999 4.44329 1.94165 0
M  V30 410 N 44.343 -0.763751 1.37857 0
M  V30 411 C 45.591 -1.51957 1.33243 0
M  V30 412 C 45.912 -1.94835 -0.0801709 0
M  V30 413 O 45.182 -1.66894 -1.02582 0
M  V30 414 H 43.762 -0.563626 0.49024 0
M  V30 415 H 46.424 -0.908504 1.7243 0
M  V30 416 H 45.52 -2.41523 1.97669 0
M  V30 417 N 45.8211 -1.22559 -0.990812 0
M  V30 418 C 47.2321 -1.04791 -1.54518 0
M  V30 419 C 47.5831 0.387998 -1.92325 0
M  V30 420 O 46.7081 1.27328 -1.74976 0
M  V30 421 C 47.3031 -1.896 -2.80779 0
M  V30 422 C 45.8621 -1.76124 -3.32652 0
M  V30 423 C 45.0091 -1.8594 -2.05722 0
M  V30 424 H 47.9601 -1.36374 -0.811662 0
M  V30 425 H 47.9811 -1.41464 -3.53225 0
M  V30 426 H 47.4931 -2.94101 -2.53231 0
M  V30 427 H 45.5941 -0.743643 -3.65104 0
M  V30 428 H 45.7071 -2.58913 -4.03114 0
M  V30 429 H 44.0711 -1.29403 -2.19379 0
M  V30 430 H 44.8541 -2.91976 -1.80568 0
M  V30 431 N 47.2992 1.18797 -1.03562 0
M  V30 432 C 48.2312 2.21731 -0.580337 0
M  V30 433 C 49.2442 1.59051 0.347349 0
M  V30 434 O 50.4332 1.77929 0.142669 0
M  V30 435 C 47.5332 3.38459 0.172805 0
M  V30 436 C 46.7062 4.3072 -0.761496 0
M  V30 437 C 45.7652 5.26174 -0.0525547 0
M  V30 438 O 44.7912 5.65108 -0.681333 0
M  V30 439 N 45.9932 5.67624 1.21586 0
M  V30 440 H 48.7582 2.61417 -1.46565 0
M  V30 441 H 46.3192 1.33531 -0.915476 0
M  V30 442 H 48.3112 3.99335 0.656793 0
M  V30 443 H 46.8812 2.97507 0.959602 0
M  V30 444 H 46.1012 3.67525 -1.42544 0
M  V30 445 H 47.3892 4.89267 -1.39626 0
M  V30 446 H 46.7872 5.38038 1.74732 0
M  V30 447 H 45.3442 6.30721 1.64421 0
M  V30 448 N 48.7773 0.814389 1.34928 0
M  V30 449 C 49.7103 0.175641 2.27523 0
M  V30 450 C 50.6883 -0.662953 1.48471 0
M  V30 451 O 51.8723 -0.628545 1.77712 0
M  V30 452 C 48.9993 -0.755516 3.30166 0
M  V30 453 C 48.0453 0.00445305 4.265 0
M  V30 454 S 48.8783 1.34582 5.18313 0
M  V30 455 C 50.0343 0.419315 6.24494 0
M  V30 456 H 50.2673 0.960691 2.8135 0
M  V30 457 H 47.8003 0.609846 1.41846 0
M  V30 458 H 49.7583 -1.28723 3.89796 0
M  V30 459 H 48.4193 -1.51402 2.75202 0
M  V30 460 H 47.6123 -0.703077 4.99072 0
M  V30 461 H 47.2143 0.466447 3.7108 0
M  V30 462 H 49.5063 -0.392432 6.76362 0
M  V30 463 H 50.4493 1.11446 6.99275 0
M  V30 464 H 50.8573 0.0115389 5.64499 0
M  V30 465 N 50.2554 -1.46986 0.568584 0
M  V30 466 C 51.1854 -2.32946 -0.160753 0
M  V30 467 C 52.1664 -1.44487 -0.897631 0
M  V30 468 O 53.3514 -1.73327 -0.875867 0
M  V30 469 C 50.4814 -3.26494 -1.18403 0
M  V30 470 C 49.4354 -4.24282 -0.562895 0
M  V30 471 C 48.7614 -5.07236 -1.69163 0
M  V30 472 C 50.0614 -5.19989 0.490761 0
M  V30 473 H 51.7554 -2.94175 0.556916 0
M  V30 474 H 49.3014 -1.4146 0.26927 0
M  V30 475 H 51.2544 -3.85477 -1.70251 0
M  V30 476 H 49.9784 -2.63343 -1.93179 0
M  V30 477 H 48.6374 -3.66541 -0.0656164 0
M  V30 478 H 48.2854 -4.4048 -2.42871 0
M  V30 479 H 47.9854 -5.7345 -1.28174 0
M  V30 480 H 49.5094 -5.6908 -2.21314 0
M  V30 481 H 50.9234 -5.73271 0.0579047 0
M  V30 482 H 49.3204 -5.94469 0.820165 0
M  V30 483 H 50.3904 -4.64777 1.3824 0
M  V30 484 N 51.7335 -0.305618 -1.54608 0
M  V30 485 C 53.1495 0.0476228 -1.59529 0
M  V30 486 C 53.3495 1.52025 -1.32252 0
M  V30 487 O 52.4055 2.27368 -1.09818 0
M  V30 488 C 53.7185 -0.354471 -2.98603 0
M  V30 489 C 55.2665 -0.303622 -3.11524 0
M  V30 490 C 55.7415 -0.680608 -4.52915 0
M  V30 491 N 57.2325 -0.63332 -4.5885 0
M  V30 492 C 57.9675 -0.897432 -5.66334 0
M  V30 493 N 57.4635 -1.22775 -6.81834 0
M  V30 494 N 59.2565 -0.824186 -5.56025 0
M  V30 495 H 51.4075 -1.2653 -1.70599 0
M  V30 496 H 53.6705 -0.513291 -0.797017 0
M  V30 497 H 53.3765 -1.3798 -3.23503 0
M  V30 498 H 53.2505 0.289568 -3.76087 0
M  V30 499 H 55.6375 0.712472 -2.8637 0
M  V30 500 H 55.7185 -0.982348 -2.36185 0
M  V30 501 H 55.3625 -1.69453 -4.78799 0
M  V30 502 H 55.2925 0.0202385 -5.26596 0
M  V30 503 H 57.7835 -0.389138 -3.75891 0
M  V30 504 H 58.0965 -1.41513 -7.59733 0
M  V30 505 H 56.4415 -1.26583 -6.83375 0
M  V30 506 H 59.6325 -0.565748 -4.64669 0
M  V30 507 H 59.8055 -1.03338 -6.39707 0
M  V30 508 N 53.2116 1.57565 -0.0334293 0
M  V30 509 C 54.1216 2.13943 0.962572 0
M  V30 510 C 55.1376 1.09276 1.35406 0
M  V30 511 O 56.3136 1.41355 1.4346 0
M  V30 512 C 53.3786 2.65887 2.22497 0
M  V30 513 C 52.4396 3.85286 1.8935 0
M  V30 514 C 51.6726 4.34743 3.09571 0
M  V30 515 O 51.8956 3.83352 4.22371 0
M  V30 516 O 50.8296 5.26538 2.91618 0
M  V30 517 H 54.6556 2.99333 0.513169 0
M  V30 518 H 52.2406 1.4822 0.18743 0
M  V30 519 H 54.1226 2.99346 2.96598 0
M  V30 520 H 52.7976 1.83578 2.6661 0
M  V30 521 H 51.7046 3.56746 1.1262 0
M  V30 522 H 53.0376 4.68771 1.5005 0
M  V30 523 N 54.6897 -0.239769 1.55765 0
M  V30 524 C 55.6197 -1.30052 1.9393 0
M  V30 525 C 56.6007 -1.49839 0.805132 0
M  V30 526 O 57.7857 -1.62328 1.06599 0
M  V30 527 C 54.9157 -2.65391 2.2402 0
M  V30 528 C 53.8697 -2.60289 3.39755 0
M  V30 529 C 53.1957 -3.99489 3.55405 0
M  V30 530 C 54.4957 -2.16654 4.75246 0
M  V30 531 H 56.1897 -0.983573 2.82783 0
M  V30 532 H 53.7357 -0.471701 1.36055 0
M  V30 533 H 55.6887 -3.3974 2.49308 0
M  V30 534 H 54.4127 -2.98736 1.32 0
M  V30 535 H 53.0717 -1.88398 3.14487 0
M  V30 536 H 52.7197 -4.30112 2.60793 0
M  V30 537 H 52.4197 -3.96962 4.33238 0
M  V30 538 H 53.9437 -4.75528 3.83022 0
M  V30 539 H 55.3577 -2.80737 4.99859 0
M  V30 540 H 53.7547 -2.25223 5.56232 0
M  V30 541 H 54.8247 -1.11835 4.71827 0
M  V30 542 N 56.1678 -1.49265 -0.50573 0
M  V30 543 C 57.0998 -1.617 -1.62437 0
M  V30 544 C 58.1128 -0.499924 -1.54934 0
M  V30 545 O 59.3018 -0.771785 -1.60953 0
M  V30 546 C 56.4018 -1.5533 -3.01207 0
M  V30 547 C 55.5748 -2.8249 -3.33943 0
M  V30 548 C 54.6338 -2.69238 -4.52103 0
M  V30 549 O 53.6598 -3.43167 -4.5412 0
M  V30 550 N 54.8618 -1.80468 -5.51735 0
M  V30 551 H 57.6268 -2.58177 -1.52199 0
M  V30 552 H 55.1878 -1.46294 -0.693511 0
M  V30 553 H 57.1798 -1.44125 -3.78167 0
M  V30 554 H 55.7498 -0.667297 -3.05395 0
M  V30 555 H 54.9698 -3.08081 -2.45926 0
M  V30 556 H 56.2578 -3.66802 -3.5261 0
M  V30 557 H 55.6558 -1.19653 -5.52901 0
M  V30 558 H 54.2128 -1.75188 -6.27816 0
M  V30 559 N 57.6459 0.756429 -1.3826 0
M  V30 560 C 58.5559 1.9009 -1.37488 0
M  V30 561 C 59.5719 1.71855 -0.272366 0
M  V30 562 O 60.7479 1.94827 -0.510318 0
M  V30 563 C 57.8129 3.25421 -1.19592 0
M  V30 564 C 56.8739 3.56202 -2.39622 0
M  V30 565 C 56.1069 4.85075 -2.2257 0
M  V30 566 O 56.3299 5.57246 -1.21793 0
M  V30 567 O 55.2639 5.15269 -3.11098 0
M  V30 568 H 59.0899 1.93695 -2.33914 0
M  V30 569 H 56.6749 0.901313 -1.1915 0
M  V30 570 H 58.5569 4.06337 -1.11661 0
M  V30 571 H 57.2319 3.22634 -0.262486 0
M  V30 572 H 56.1389 2.75458 -2.53128 0
M  V30 573 H 57.4719 3.63747 -3.31586 0
M  V30 574 N 59.124 1.23083 0.984299 0
M  V30 575 C 60.352 1.08714 1.76037 0
M  V30 576 C 60.767 -0.361691 1.85303 0
M  V30 577 O 60.124 -1.25034 1.32939 0
M  V30 578 C 60.175 1.70206 3.18923 0
M  V30 579 O 59.896 3.09423 3.10144 0
M  V30 580 C 61.397 1.61227 4.12941 0
M  V30 581 H 58.617 0.380664 0.552572 0
M  V30 582 H 61.161 1.62853 1.23689 0
M  V30 583 H 59.316 1.20109 3.6831 0
M  V30 584 H 59.73 3.39188 4.00065 0
M  V30 585 H 61.204 2.08962 5.10919 0
M  V30 586 H 61.681 0.570375 4.35481 0
M  V30 587 H 62.287 2.10671 3.69456 0
M  V30 588 N 60.6021 -1.18246 1.0419 0
M  V30 589 C 61.5501 -2.23968 0.627792 0
M  V30 590 C 62.5441 -1.65828 -0.346019 0
M  V30 591 O 63.7501 -1.78733 -0.213175 0
M  V30 592 H 60.1251 -0.728939 0.184802 0
M  V30 593 H 62.0961 -2.56202 1.52981 0
M  V30 594 C 60.8451 -3.47699 0.00796591 0
M  V30 595 H 60.1681 -3.92734 0.748347 0
M  V30 596 H 61.6081 -4.23294 -0.24455 0
M  V30 597 C 60.0671 -3.13153 -1.24246 0
M  V30 598 O 60.5971 -3.27003 -2.33307 0
M  V30 599 N 58.8031 -2.67467 -1.13622 0
M  V30 600 H 58.3501 -2.56396 -0.248734 0
M  V30 601 H 58.3081 -2.44724 -1.97377 0
M  V30 602 N 62.0802 -0.821533 -1.34494 0
M  V30 603 C 63.0432 -0.247847 -2.27856 0
M  V30 604 C 64.0432 0.573453 -1.50227 0
M  V30 605 O 65.2332 0.389759 -1.69784 0
M  V30 606 C 62.3652 0.652698 -3.34593 0
M  V30 607 H 63.5582 -1.07146 -2.80107 0
M  V30 608 H 61.1112 -0.593291 -1.44602 0
M  V30 609 H 61.8462 1.49943 -2.87555 0
M  V30 610 H 61.6312 0.065292 -3.92046 0
M  V30 611 H 63.1212 1.04793 -4.04238 0
M  V30 612 N 63.5583 1.46682 -0.576371 0
M  V30 613 C 64.5213 2.28707 0.150239 0
M  V30 614 C 65.5213 1.38035 0.824794 0
M  V30 615 O 66.7113 1.60476 0.677719 0
M  V30 616 C 63.8433 3.18248 1.22192 0
M  V30 617 H 65.0363 2.94423 -0.570521 0
M  V30 618 H 62.5893 1.52688 -0.334078 0
M  V30 619 H 63.3243 2.57265 1.97447 0
M  V30 620 H 63.1093 3.85 0.742812 0
M  V30 621 H 64.5993 3.80001 1.73172 0
M  V30 622 N 65.0364 0.313813 1.54444 0
M  V30 623 C 65.9664 -0.549454 2.26943 0
M  V30 624 C 66.9474 -1.12741 1.27372 0
M  V30 625 O 68.1324 -1.15436 1.56167 0
M  V30 626 C 65.2624 -1.71523 3.01989 0
M  V30 627 C 64.2164 -1.26703 4.08816 0
M  V30 628 C 63.5424 -2.51898 4.71647 0
M  V30 629 C 64.8424 -0.388962 5.2085 0
M  V30 630 H 66.5364 0.0552661 2.99349 0
M  V30 631 H 64.0824 0.0280207 1.43973 0
M  V30 632 H 66.0354 -2.32535 3.51433 0
M  V30 633 H 64.7594 -2.34639 2.27183 0
M  V30 634 H 63.4184 -0.679896 3.6024 0
M  V30 635 H 63.0664 -3.13356 3.93468 0
M  V30 636 H 62.7664 -2.22605 5.43802 0
M  V30 637 H 64.2904 -3.1369 5.23861 0
M  V30 638 H 65.7044 -0.905107 5.6611 0
M  V30 639 H 64.1014 -0.18924 5.99802 0
M  V30 640 H 65.1714 0.582699 4.81386 0
M  V30 641 N 66.5145 -1.57545 0.0417849 0
M  V30 642 C 67.4465 -2.07904 -0.964799 0
M  V30 643 C 68.4595 -1.00497 -1.28079 0
M  V30 644 O 69.6485 -1.28087 -1.24322 0
M  V30 645 C 66.7485 -2.49928 -2.28887 0
M  V30 646 C 65.9215 -3.80562 -2.15619 0
M  V30 647 C 64.9805 -4.08999 -3.31069 0
M  V30 648 O 64.0065 -4.79061 -3.0739 0
M  V30 649 N 65.2085 -3.6017 -4.55256 0
M  V30 650 H 67.9735 -2.94886 -0.535029 0
M  V30 651 H 65.5345 -1.61252 -0.144681 0
M  V30 652 H 67.5265 -2.66034 -3.04972 0
M  V30 653 H 66.0965 -1.68245 -2.63463 0
M  V30 654 H 65.3165 -3.74129 -1.24183 0
M  V30 655 H 66.6045 -4.66126 -2.03971 0
M  V30 656 H 66.0025 -3.03512 -4.77386 0
M  V30 657 H 64.5595 -3.81532 -5.28466 0
M  V30 658 N 67.9926 0.231505 -1.5589 0
M  V30 659 C 69.2696 0.981096 -1.69215 0
M  V30 660 C 69.6496 2.02799 -0.586164 0
M  V30 661 O 68.9976 2.24823 0.408253 0
M  V30 662 C 69.2076 1.60054 -3.10135 0
M  V30 663 C 70.5556 2.09658 -3.69227 0
M  V30 664 O 71.5796 1.69967 -3.13033 0
M  V30 665 O 70.4386 2.8258 -4.67772 0
M  V30 666 H 67.5326 0.457653 -0.688827 0
M  V30 667 H 70.0786 0.224073 -1.68214 0
M  V30 668 H 68.8506 0.844105 -3.82087 0
M  V30 669 H 68.4736 2.42336 -3.15212 0
M  V30 670 N 69.4707 1.49531 0.497807 0
M  V30 671 C 70.7167 1.59415 1.25358 0
M  V30 672 C 71.0497 0.281422 1.9215 0
M  V30 673 O 70.3247 -0.715249 1.80871 0
M  V30 674 C 70.6077 2.75566 2.3181 0
M  V30 675 C 70.4607 4.16642 1.69498 0
M  V30 676 C 71.7797 2.87347 3.33346 0
M  V30 677 H 68.8987 0.580244 0.454408 0
M  V30 678 H 71.5407 1.81827 0.551262 0
M  V30 679 H 69.6907 2.56587 2.91711 0
M  V30 680 H 71.3627 4.47145 1.13399 0
M  V30 681 H 69.6057 4.22141 0.998978 0
M  V30 682 H 70.2767 4.93792 2.46725 0
M  V30 683 H 72.7527 3.04634 2.83438 0
M  V30 684 H 71.6287 3.70289 4.05188 0
M  V30 685 H 71.8897 1.96834 3.95865 0
M  V30 686 N 70.9488 -0.749086 1.3866 0
M  V30 687 C 72.3648 -1.05276 1.19955 0
M  V30 688 C 72.5648 -2.01435 0.05134 0
M  V30 689 O 71.6208 -2.45232 -0.60147 0
M  V30 690 C 72.9338 -1.62853 2.52783 0
M  V30 691 C 74.4818 -1.75002 2.59506 0
M  V30 692 C 74.9568 -2.35991 3.92521 0
M  V30 693 N 76.4478 -2.43416 3.94085 0
M  V30 694 C 77.1828 -2.91511 4.9377 0
M  V30 695 N 76.6788 -3.39608 6.03853 0
M  V30 696 N 78.4718 -2.90592 4.81157 0
M  V30 697 H 70.6228 -0.111066 2.12109 0
M  V30 698 H 72.8858 -0.111901 0.941373 0
M  V30 699 H 72.5918 -0.99664 3.37283 0
M  V30 700 H 72.4658 -2.61854 2.715 0
M  V30 701 H 74.8528 -2.37317 1.75398 0
M  V30 702 H 74.9338 -0.74693 2.44652 0
M  V30 703 H 74.5778 -1.74308 4.77053 0
M  V30 704 H 74.5078 -3.3695 4.04688 0
M  V30 705 H 76.9988 -2.09405 3.14576 0
M  V30 706 H 77.3118 -3.74775 6.75843 0
M  V30 707 H 75.6568 -3.37653 6.07466 0
M  V30 708 H 78.8478 -2.52332 3.94267 0
M  V30 709 H 79.0208 -3.27762 5.58996 0
M  V30 710 N 72.4269 -1.23603 -0.977757 0
M  V30 711 C 73.3369 -1.03632 -2.1047 0
M  V30 712 C 74.3529 0.0199435 -1.73989 0
M  V30 713 O 75.5289 -0.176076 -2.00629 0
M  V30 714 C 72.5939 -0.63276 -3.40877 0
M  V30 715 C 71.6549 -1.76437 -3.91367 0
M  V30 716 C 70.8879 -1.37997 -5.15551 0
M  V30 717 O 71.1109 -0.265357 -5.69782 0
M  V30 718 O 70.0449 -2.20201 -5.60174 0
M  V30 719 H 73.8709 -1.98086 -2.30208 0
M  V30 720 H 71.4559 -1.02332 -1.08851 0
M  V30 721 H 73.3379 -0.418761 -4.19314 0
M  V30 722 H 72.0129 0.282754 -3.22463 0
M  V30 723 H 70.9199 -2.03304 -3.14036 0
M  V30 724 H 72.2529 -2.6583 -4.14241 0
M  V30 725 N 73.905 1.17692 -1.04816 0
M  V30 726 C 74.835 2.23777 -0.666791 0
M  V30 727 C 75.816 1.66796 0.33361 0
M  V30 728 O 77.001 1.93039 0.212042 0
M  V30 729 C 74.131 3.47281 -0.0367933 0
M  V30 730 C 73.085 4.17059 -0.961546 0
M  V30 731 C 72.411 5.34342 -0.195626 0
M  V30 732 C 73.711 4.69713 -2.28402 0
M  V30 733 H 75.405 2.55933 -1.55367 0
M  V30 734 H 72.951 1.23019 -0.748484 0
M  V30 735 H 74.904 4.20706 0.241775 0
M  V30 736 H 73.628 3.14381 0.885004 0
M  V30 737 H 72.287 3.45541 -1.22462 0
M  V30 738 H 71.935 4.97692 0.728816 0
M  V30 739 H 71.635 5.81966 -0.811775 0
M  V30 740 H 73.159 6.10553 0.0757473 0
M  V30 741 H 74.573 5.34794 -2.06563 0
M  V30 742 H 72.97 5.279 -2.8538 0
M  V30 743 H 74.04 3.86726 -2.92525 0
M  V30 744 N 75.3831 0.828654 1.34056 0
M  V30 745 C 76.3131 0.269443 2.3194 0
M  V30 746 C 77.2941 -0.617247 1.58506 0
M  V30 747 O 78.4791 -0.542931 1.86456 0
M  V30 748 C 75.6091 -0.564793 3.42677 0
M  V30 749 C 74.5631 0.225241 4.27407 0
M  V30 750 C 73.8891 -0.7321 5.29664 0
M  V30 751 C 75.1891 1.43663 5.02154 0
M  V30 752 H 76.8831 1.08728 2.7896 0
M  V30 753 H 74.4291 0.524283 1.34117 0
M  V30 754 H 76.3821 -0.966233 4.10173 0
M  V30 755 H 75.1061 -1.41574 2.9432 0
M  V30 756 H 73.7651 0.608117 3.61521 0
M  V30 757 H 73.4131 -1.57916 4.77568 0
M  V30 758 H 73.1131 -0.20767 5.87233 0
M  V30 759 H 74.6371 -1.13128 6.00029 0
M  V30 760 H 76.0511 1.1089 5.62473 0
M  V30 761 H 74.4481 1.89711 5.69324 0
M  V30 762 H 75.5181 2.21181 4.31517 0
M  V30 763 N 76.8612 -1.46375 0.584142 0
M  V30 764 C 78.2772 -1.57694 0.245929 0
M  V30 765 C 78.4772 -1.57903 -1.25175 0
M  V30 766 O 77.5332 -1.49676 -2.03355 0
M  V30 767 C 78.8462 -2.87028 0.896402 0
M  V30 768 C 80.3942 -3.00662 0.870127 0
M  V30 769 C 80.8692 -4.32734 1.50017 0
M  V30 770 N 82.3602 -4.39436 1.46458 0
M  V30 771 C 83.0952 -5.40248 1.92144 0
M  V30 772 N 82.5912 -6.47726 2.4581 0
M  V30 773 N 84.3842 -5.31459 1.83052 0
M  V30 774 H 76.5352 -1.44483 1.55687 0
M  V30 775 H 78.7982 -0.689291 0.650831 0
M  V30 776 H 78.5042 -2.9269 1.95002 0
M  V30 777 H 78.3782 -3.75014 0.405486 0
M  V30 778 H 80.7652 -2.94581 -0.174871 0
M  V30 779 H 80.8462 -2.14148 1.39908 0
M  V30 780 H 80.4902 -4.39573 2.54437 0
M  V30 781 H 80.4202 -5.18025 0.946432 0
M  V30 782 H 82.9112 -3.62367 1.07231 0
M  V30 783 H 83.2242 -7.20863 2.78525 0
M  V30 784 H 81.5692 -6.48542 2.49836 0
M  V30 785 H 84.7602 -4.46396 1.40883 0
M  V30 786 H 84.9332 -6.09881 2.18973 0
M  V30 787 N 78.3393 -0.321999 -1.54275 0
M  V30 788 C 79.2713 0.578671 -2.21775 0
M  V30 789 C 80.2843 1.08109 -1.21722 0
M  V30 790 O 81.4733 0.994938 -1.482 0
M  V30 791 C 78.5733 1.80661 -2.86731 0
M  V30 792 C 77.7463 1.44314 -4.12907 0
M  V30 793 C 76.8053 2.52845 -4.61472 0
M  V30 794 O 75.8313 2.17054 -5.2619 0
M  V30 795 N 77.0333 3.83748 -4.35566 0
M  V30 796 H 79.7983 0.000709447 -2.997 0
M  V30 797 H 77.3593 -0.145132 -1.61248 0
M  V30 798 H 79.3513 2.52655 -3.16145 0
M  V30 799 H 77.9213 2.29245 -2.12521 0
M  V30 800 H 77.1413 0.554906 -3.90275 0
M  V30 801 H 78.4293 1.17598 -4.95023 0
M  V30 802 H 77.8273 4.15625 -3.83761 0
M  V30 803 H 76.3843 4.51977 -4.69638 0
M  V30 804 N 79.8174 1.5752 -0.0501392 0
M  V30 805 C 80.7494 2.08413 0.95376 0
M  V30 806 C 81.7624 1.01175 1.27544 0
M  V30 807 O 82.9514 1.28744 1.23641 0
M  V30 808 C 80.0514 2.51138 2.27559 0
M  V30 809 C 79.2244 3.817 2.13598 0
M  V30 810 C 78.2834 4.10749 3.28895 0
M  V30 811 O 77.3094 4.80685 3.04845 0
M  V30 812 N 78.5114 3.62579 4.5334 0
M  V30 813 H 81.2764 2.95165 0.519383 0
M  V30 814 H 78.8374 1.61327 0.136127 0
M  V30 815 H 80.8294 2.67648 3.03557 0
M  V30 816 H 79.3994 1.6964 2.62567 0
M  V30 817 H 78.6194 3.74782 1.22197 0
M  V30 818 H 79.9074 4.67201 2.01496 0
M  V30 819 H 79.3054 3.06039 4.75769 0
M  V30 820 H 77.8624 3.84329 5.26436 0
M  V30 821 N 81.2955 -0.223234 1.56011 0
M  V30 822 C 82.5415 -0.949279 1.79211 0
M  V30 823 C 82.8745 -1.84054 0.619494 0
M  V30 824 O 82.1495 -1.90726 -0.381317 0
M  V30 825 C 82.4325 -1.78965 3.12479 0
M  V30 826 C 82.2855 -0.924997 4.40186 0
M  V30 827 C 83.6045 -2.76774 3.42175 0
M  V30 828 H 80.7235 -0.343676 0.651963 0
M  V30 829 H 83.3655 -0.218253 1.88742 0
M  V30 830 H 81.5155 -2.41291 3.04485 0
M  V30 831 H 83.1875 -0.318615 4.60198 0
M  V30 832 H 81.4305 -0.230344 4.33188 0
M  V30 833 H 82.1015 -1.54735 5.29869 0
M  V30 834 H 84.5775 -2.24584 3.50287 0
M  V30 835 H 83.4535 -3.32678 4.36597 0
M  V30 836 H 83.7145 -3.54429 2.64258 0
M  V30 837 N 82.7736 -1.49793 -0.48987 0
M  V30 838 C 84.1896 -1.36803 -0.822022 0
M  V30 839 C 84.3896 -0.409652 -1.97292 0
M  V30 840 O 83.4456 0.154614 -2.52026 0
M  V30 841 C 84.7586 -2.77768 -1.15175 0
M  V30 842 C 86.3066 -2.86549 -1.25931 0
M  V30 843 C 86.7816 -4.28306 -1.62228 0
M  V30 844 N 88.2726 -4.31169 -1.69256 0
M  V30 845 C 89.0076 -5.37832 -1.98807 0
M  V30 846 N 88.5036 -6.54726 -2.26507 0
M  V30 847 N 90.2966 -5.25258 -2.00152 0
M  V30 848 H 82.4476 -2.10691 0.268881 0
M  V30 849 H 84.7106 -0.946241 0.057728 0
M  V30 850 H 84.4166 -3.49648 -0.379335 0
M  V30 851 H 84.2906 -3.13836 -2.09253 0
M  V30 852 H 86.6776 -2.14899 -2.02243 0
M  V30 853 H 86.7586 -2.54049 -0.298776 0
M  V30 854 H 86.4026 -5.00486 -0.864622 0
M  V30 855 H 86.3326 -4.58279 -2.594 0
M  V30 856 H 88.8236 -3.4687 -1.49965 0
M  V30 857 H 89.1366 -7.31833 -2.48276 0
M  V30 858 H 87.4816 -6.57933 -2.23939 0
M  V30 859 H 90.6726 -4.32938 -1.77996 0
M  V30 860 H 90.8456 -6.08476 -2.22848 0
M  V30 861 N 84.2517 0.741722 -1.39055 0
M  V30 862 C 85.1617 1.88621 -1.39496 0
M  V30 863 C 86.1777 1.71557 -0.290578 0
M  V30 864 O 87.3537 1.94275 -0.530954 0
M  V30 865 C 84.4187 3.24134 -1.23037 0
M  V30 866 C 83.4797 3.5364 -2.43387 0
M  V30 867 C 82.7127 4.82687 -2.27703 0
M  V30 868 O 82.9357 5.55922 -1.27696 0
M  V30 869 O 81.8697 5.1194 -3.16545 0
M  V30 870 H 85.6957 1.91203 -2.35956 0
M  V30 871 H 83.2807 0.888625 -1.20099 0
M  V30 872 H 85.1627 4.0513 -1.15964 0
M  V30 873 H 83.8377 3.22337 -0.296691 0
M  V30 874 H 82.7447 2.72758 -2.56035 0
M  V30 875 H 84.0777 3.60209 -3.35425 0
M  V30 876 N 85.7298 1.2412 0.971189 0
M  V30 877 C 86.9788 1.07284 1.70801 0
M  V30 878 C 87.2918 -0.388902 1.91695 0
M  V30 879 O 88.4978 -0.677379 2.62914 0
M  V30 880 C 86.9538 1.87145 3.07416 0
M  V30 881 C 86.5618 3.37707 2.94377 0
M  V30 882 C 88.3058 1.78828 3.84995 0
M  V30 883 C 86.2128 4.09925 4.26281 0
M  V30 884 H 85.1428 0.397854 0.64049 0
M  V30 885 H 87.7938 1.4817 1.0825 0
M  V30 886 H 86.1758 1.39071 3.70777 0
M  V30 887 H 87.3498 3.93335 2.4005 0
M  V30 888 H 85.6648 3.46938 2.30267 0
M  V30 889 H 88.2618 2.30089 4.82662 0
M  V30 890 H 88.6048 0.75284 4.09436 0
M  V30 891 H 89.1378 2.24563 3.28354 0
M  V30 892 H 85.8768 5.13813 4.07033 0
M  V30 893 H 85.3968 3.59083 4.80437 0
M  V30 894 H 87.0758 4.1673 4.94919 0
M  V30 895 N 87.2079 -1.17134 1.05439 0
M  V30 896 C 88.4359 -1.91372 0.786414 0
M  V30 897 C 88.8509 -1.76955 -0.658202 0
M  V30 898 O 88.2079 -1.10838 -1.44987 0
M  V30 899 C 88.2589 -3.42356 1.1608 0
M  V30 900 O 87.9799 -3.56332 2.54871 0
M  V30 901 C 89.4809 -4.33663 0.919322 0
M  V30 902 H 86.7009 -0.607118 0.285743 0
M  V30 903 H 89.2449 -1.48525 1.40572 0
M  V30 904 H 87.3999 -3.82939 0.586191 0
M  V30 905 H 87.8139 -4.49896 2.69618 0
M  V30 906 H 89.2879 -5.38099 1.231 0
M  V30 907 H 89.7649 -4.38959 -0.145359 0
M  V30 908 H 90.3709 -3.98796 1.47789 0
M  V30 909 N 88.686 -0.835752 -1.33615 0
M  V30 910 C 89.933 -0.429959 -1.97883 0
M  V30 911 C 90.261 1.01006 -1.66217 0
M  V30 912 O 89.516 1.72047 -0.93265 0
M  V30 913 C 89.815 -0.593925 -3.52431 0
M  V30 914 C 89.481 -2.00158 -4.04039 0
M  V30 915 C 88.143 -2.38662 -4.17844 0
M  V30 916 C 90.495 -2.92117 -4.31644 0
M  V30 917 C 87.823 -3.68435 -4.56588 0
M  V30 918 C 90.175 -4.21368 -4.71838 0
M  V30 919 C 88.839 -4.59833 -4.83849 0
M  V30 920 H 88.109 -0.157333 -0.724104 0
M  V30 921 H 90.756 -1.06217 -1.59343 0
M  V30 922 H 89.061 0.121619 -3.91611 0
M  V30 923 H 90.758 -0.260282 -4.00154 0
M  V30 924 H 87.348 -1.69252 -3.93766 0
M  V30 925 H 91.532 -2.63608 -4.20505 0
M  V30 926 H 86.788 -3.98046 -4.64079 0
M  V30 927 H 90.962 -4.92703 -4.92155 0
M  V30 928 H 88.589 -5.60438 -5.13627 0
M  V30 929 N 90.1641 1.46063 -0.591896 0
M  V30 930 C 91.0941 2.33172 0.123673 0
M  V30 931 C 92.0751 1.45897 0.87453 0
M  V30 932 O 93.2601 1.74698 0.848181 0
M  V30 933 C 90.3901 3.28336 1.13194 0
M  V30 934 C 89.3441 4.25124 0.495324 0
M  V30 935 C 88.6701 5.09863 1.61071 0
M  V30 936 C 89.9701 5.19143 -0.573425 0
M  V30 937 H 91.6641 2.93252 -0.603646 0
M  V30 938 H 89.2101 1.41014 -0.291741 0
M  V30 939 H 91.1631 3.88137 1.64097 0
M  V30 940 H 89.8871 2.66383 1.88965 0
M  V30 941 H 88.5461 3.66599 0.00729452 0
M  V30 942 H 88.1941 4.44288 2.35832 0
M  V30 943 H 87.8941 5.75417 1.19035 0
M  V30 944 H 89.4181 5.72529 2.12233 0
M  V30 945 H 90.8321 5.73106 -0.1491 0
M  V30 946 H 89.2291 5.93089 -0.914636 0
M  V30 947 H 90.2991 4.62519 -1.45617 0
M  V30 948 N 91.6422 0.330177 1.54103 0
M  V30 949 C 92.5892 -0.532762 2.24567 0
M  V30 950 C 93.5592 -1.10635 1.23892 0
M  V30 951 O 94.7442 -1.14546 1.5259 0
M  V30 952 C 91.8842 -1.6845 3.01195 0
M  V30 953 C 90.9972 -1.13951 4.167 0
M  V30 954 C 90.1322 -2.25746 4.80845 0
M  V30 955 C 89.1712 -1.6853 5.88442 0
M  V30 956 N 88.3082 -2.74014 6.46421 0
M  V30 957 H 93.1482 0.0746905 2.97906 0
M  V30 958 H 90.6852 0.048632 1.4702 0
M  V30 959 H 92.6432 -2.36234 3.43874 0
M  V30 960 H 91.2732 -2.26314 2.30178 0
M  V30 961 H 90.3252 -0.35301 3.78758 0
M  V30 962 H 91.6372 -0.680892 4.94131 0
M  V30 963 H 90.7912 -3.01422 5.26526 0
M  V30 964 H 89.5302 -2.74947 4.0281 0
M  V30 965 H 88.5352 -0.913543 5.42157 0
M  V30 966 H 89.7602 -1.20198 6.68378 0
M  V30 967 H 87.7062 -3.22494 5.71256 0
M  V30 968 H 87.6232 -2.32735 7.19285 0
M  V30 969 H 88.8912 -3.49499 6.96757 0
M  V30 970 N 93.1203 -1.57491 0.0584922 0
M  V30 971 C 94.0683 -2.13148 -0.931168 0
M  V30 972 C 95.0623 -1.06507 -1.31729 0
M  V30 973 O 96.2683 -1.24906 -1.29609 0
M  V30 974 H 92.6433 -0.68137 -0.31818 0
M  V30 975 H 94.6143 -2.95187 -0.436707 0
M  V30 976 C 93.3633 -2.69732 -2.19408 0
M  V30 977 H 92.6863 -3.51454 -1.90578 0
M  V30 978 H 94.1263 -3.12287 -2.86798 0
M  V30 979 C 92.5853 -1.63855 -2.94369 0
M  V30 980 O 93.1153 -1.05565 -3.87581 0
M  V30 981 N 91.3213 -1.35202 -2.57233 0
M  V30 982 H 90.8683 -1.82791 -1.81508 0
M  V30 983 H 90.8263 -0.645922 -3.07693 0
M  V30 984 N 94.5984 0.214957 -1.56127 0
M  V30 985 C 95.8264 0.955092 -1.83536 0
M  V30 986 C 96.2414 1.77677 -0.638472 0
M  V30 987 O 95.5984 1.78219 0.392968 0
M  V30 988 C 95.6494 1.86734 -3.09536 0
M  V30 989 O 95.3704 1.07887 -4.24608 0
M  V30 990 C 96.8714 2.72082 -3.4998 0
M  V30 991 H 94.0914 0.279611 -0.609966 0
M  V30 992 H 96.6354 0.228197 -2.03223 0
M  V30 993 H 94.7904 2.5481 -2.91806 0
M  V30 994 H 95.2044 1.69872 -4.9623 0
M  V30 995 H 96.6784 3.31782 -4.41163 0
M  V30 996 H 97.1554 3.44806 -2.7204 0
M  V30 997 H 97.7614 2.09409 -3.70173 0
M  V30 998 N 96.0765 1.50051 0.48192 0
M  V30 999 C 97.3225 1.60736 1.2366 0
M  V30 1000 C 97.6555 0.301786 1.91841 0
M  V30 1001 O 96.9305 -0.696025 1.8162 0
M  V30 1002 C 97.2135 2.78009 2.28874 0
M  V30 1003 C 97.0665 4.18416 1.65069 0
M  V30 1004 C 98.3855 2.90867 3.30279 0
M  V30 1005 H 95.5045 0.585031 0.448228 0
M  V30 1006 H 98.1465 1.82402 0.531946 0
M  V30 1007 H 96.2965 2.59667 2.88973 0
M  V30 1008 H 97.9685 4.48322 1.0865 0
M  V30 1009 H 96.2115 4.23177 0.954148 0
M  V30 1010 H 96.8825 4.96381 2.41474 0
M  V30 1011 H 99.3585 3.07623 2.80191 0
M  V30 1012 H 98.2345 3.74566 4.01238 0
M  V30 1013 H 98.4955 2.01021 3.93755 0
M  V30 1014 N 97.5546 -0.734337 1.39446 0
M  V30 1015 C 98.4876 -1.85715 1.32609 0
M  V30 1016 C 99.4656 -1.6137 0.199636 0
M  V30 1017 O 100.65 -1.84626 0.380195 0
M  V30 1018 C 97.7766 -3.21709 1.05929 0
M  V30 1019 C 96.8226 -3.64913 2.20773 0
M  V30 1020 S 97.6556 -3.74203 3.83056 0
M  V30 1021 C 98.8116 -5.12986 3.58603 0
M  V30 1022 H 99.0446 -1.91232 2.27635 0
M  V30 1023 H 96.5776 -0.899263 1.25509 0
M  V30 1024 H 98.5356 -4.00236 0.912203 0
M  V30 1025 H 97.1966 -3.13848 0.125883 0
M  V30 1026 H 96.3896 -4.63606 1.97699 0
M  V30 1027 H 95.9916 -2.93593 2.31688 0
M  V30 1028 H 98.2836 -5.99339 3.15909 0
M  V30 1029 H 99.2266 -5.41088 4.5676 0
M  V30 1030 H 99.6346 -4.82694 2.9269 0
M  V30 1031 N 99.0327 -1.24633 -0.964593 0
M  V30 1032 C 99.9427 -1.05859 -2.09359 0
M  V30 1033 C 100.959 0.00148855 -1.74 0
M  V30 1034 O 102.135 -0.197346 -2.00431 0
M  V30 1035 C 99.1997 -0.668879 -3.40187 0
M  V30 1036 C 98.2607 -1.80578 -3.89474 0
M  V30 1037 C 97.4937 -1.43457 -5.14058 0
M  V30 1038 O 97.7167 -0.325775 -5.69469 0
M  V30 1039 O 96.6507 -2.2613 -5.57807 0
M  V30 1040 H 100.477 -2.00516 -2.28094 0
M  V30 1041 H 98.0617 -1.03481 -1.0776 0
M  V30 1042 H 99.9437 -0.463211 -4.18846 0
M  V30 1043 H 98.6187 0.248536 -3.22744 0
M  V30 1044 H 97.5257 -2.06623 -3.11862 0
M  V30 1045 H 98.8587 -2.70208 -4.11398 0
M  V30 1046 N 100.511 1.16574 -1.06058 0
M  V30 1047 C 101.751 1.88723 -0.78504 0
M  V30 1048 C 102.115 1.79706 0.676006 0
M  V30 1049 O 103.316 2.46757 1.06603 0
M  V30 1050 C 101.587 3.34338 -1.26304 0
M  V30 1051 S 103.146 4.24366 -1.1162 0
M  V30 1052 H 99.9638 0.651448 -0.284846 0
M  V30 1053 H 102.566 1.40732 -1.35701 0
M  V30 1054 H 101.27 3.38439 -2.32136 0
M  V30 1055 H 100.801 3.87378 -0.685719 0
M  V30 1056 H 102.816 4.96179 -0.0456539 0
M  V30 1057 N 101.989 0.842826 1.3317 0
M  V30 1058 C 103.266 0.362216 1.92217 0
M  V30 1059 C 103.646 -1.15289 1.76838 0
M  V30 1060 O 102.994 -1.96914 1.15919 0
M  V30 1061 C 103.204 0.813495 3.39387 0
M  V30 1062 C 104.552 0.823804 4.16532 0
M  V30 1063 O 105.576 0.757358 3.48055 0
M  V30 1064 O 104.435 0.915193 5.38782 0
M  V30 1065 H 101.529 0.103317 0.820521 0
M  V30 1066 H 104.075 0.928942 1.42017 0
M  V30 1067 H 102.847 1.85624 3.4447 0
M  V30 1068 H 102.47 0.223561 3.96971 0
M  V30 1069 N 103.467 -1.45747 0.599634 0
M  V30 1070 C 104.43 -2.28917 -0.113835 0
M  V30 1071 C 105.43 -1.3933 -0.802729 0
M  V30 1072 O 106.62 -1.61534 -0.652103 0
M  V30 1073 C 103.752 -3.20152 -1.17114 0
M  V30 1074 H 104.945 -2.93478 0.617289 0
M  V30 1075 H 102.498 -1.52137 0.358327 0
M  V30 1076 H 103.233 -2.60374 -1.93329 0
M  V30 1077 H 103.018 -3.86133 -0.681468 0
M  V30 1078 H 104.508 -3.82708 -1.67105 0
M  V30 1079 N 104.945 -0.338344 -1.53925 0
M  V30 1080 C 106.185 0.260168 -2.02737 0
M  V30 1081 C 106.549 1.48181 -1.22092 0
M  V30 1082 O 107.75 2.15416 -1.60777 0
M  V30 1083 C 106.021 0.571627 -3.52799 0
M  V30 1084 S 107.58 1.14769 -4.23525 0
M  V30 1085 H 104.398 0.077791 -0.706732 0
M  V30 1086 H 107 -0.474899 -1.89644 0
M  V30 1087 H 105.704 -0.325392 -4.09108 0
M  V30 1088 H 105.235 1.3365 -3.70002 0
M  V30 1089 H 107.25 2.43372 -4.32417 0
M  V30 1090 N 106.423 1.57458 -0.0668435 0
M  V30 1091 C 107.671 1.92919 0.602214 0
M  V30 1092 C 107.992 0.947215 1.70449 0
M  V30 1093 O 107.262 -0.00544117 1.95899 0
M  V30 1094 H 105.842 0.71217 0.22544 0
M  V30 1095 H 108.504 1.94508 -0.123535 0
M  V30 1096 H 107.6 2.94589 1.03073 0
M  V30 1097 N 107.901 -0.206675 1.56239 0
M  V30 1098 C 108.834 -1.28383 1.88661 0
M  V30 1099 C 109.812 -1.44504 0.745481 0
M  V30 1100 O 110.996 -1.60079 0.995336 0
M  V30 1101 C 108.123 -2.65211 2.10667 0
M  V30 1102 C 107.169 -2.66025 3.33366 0
M  V30 1103 S 108.002 -2.18609 4.88846 0
M  V30 1104 C 109.158 -3.57283 5.13906 0
M  V30 1105 H 109.391 -1.00691 2.7973 0
M  V30 1106 H 106.924 -0.409627 1.48867 0
M  V30 1107 H 108.882 -3.43979 2.24029 0
M  V30 1108 H 107.543 -2.90121 1.20369 0
M  V30 1109 H 106.736 -3.66607 3.45855 0
M  V30 1110 H 106.338 -1.95331 3.18938 0
M  V30 1111 H 108.63 -4.53074 5.03717 0
M  V30 1112 H 109.573 -3.49699 6.15724 0
M  V30 1113 H 109.981 -3.51659 4.41583 0
M  V30 1114 N 109.379 -1.50304 -0.473955 0
M  V30 1115 C 110.311 -1.65109 -1.58971 0
M  V30 1116 C 111.324 -0.532676 -1.53839 0
M  V30 1117 O 112.513 -0.805751 -1.59279 0
M  V30 1118 C 109.613 -1.61684 -2.97845 0
M  V30 1119 C 108.786 -2.8951 -3.27876 0
M  V30 1120 C 107.845 -2.78768 -4.4629 0
M  V30 1121 O 106.871 -3.52722 -4.46739 0
M  V30 1122 N 108.073 -1.9213 -5.47783 0
M  V30 1123 H 110.838 -2.61347 -1.46689 0
M  V30 1124 H 108.399 -1.47732 -0.662324 0
M  V30 1125 H 110.391 -1.52114 -3.75024 0
M  V30 1126 H 108.961 -0.731925 -3.03911 0
M  V30 1127 H 108.181 -3.13228 -2.39336 0
M  V30 1128 H 109.469 -3.74199 -3.4475 0
M  V30 1129 H 108.867 -1.31353 -5.50239 0
M  V30 1130 H 107.424 -1.88466 -6.23958 0
M  V30 1131 N 110.857 0.726932 -1.39834 0
M  V30 1132 C 111.789 1.85147 -1.35104 0
M  V30 1133 C 112.802 1.60736 -0.258392 0
M  V30 1134 O 113.991 1.70821 -0.517931 0
M  V30 1135 C 111.091 3.21332 -1.07697 0
M  V30 1136 C 110.264 3.73033 -2.28396 0
M  V30 1137 C 109.323 4.87802 -1.97322 0
M  V30 1138 O 108.349 5.01043 -2.70083 0
M  V30 1139 N 109.551 5.72768 -0.944273 0
M  V30 1140 H 112.316 1.89706 -2.32017 0
M  V30 1141 H 109.877 0.908006 -1.3404 0
M  V30 1142 H 111.869 3.95691 -0.849144 0
M  V30 1143 H 110.439 3.11992 -0.194909 0
M  V30 1144 H 109.659 2.89934 -2.6708 0
M  V30 1145 H 110.947 4.0431 -3.08887 0
M  V30 1146 H 110.345 5.64669 -0.341427 0
M  V30 1147 H 108.902 6.4716 -0.776346 0
M  V30 1148 N 112.336 1.25143 0.95797 0
M  V30 1149 C 113.561 1.12521 1.74223 0
M  V30 1150 C 113.986 -0.317402 1.85403 0
M  V30 1151 O 113.344 -1.2299 1.33204 0
M  V30 1152 C 113.392 1.78062 3.1357 0
M  V30 1153 O 112.496 1.058 3.98598 0
M  V30 1154 H 111.837 0.39304 0.535178 0
M  V30 1155 H 114.367 1.65641 1.201 0
M  V30 1156 H 114.377 1.84213 3.64046 0
M  V30 1157 H 113.052 2.83021 3.04749 0
M  V30 1158 H 111.629 1.07506 3.57067 0
M  V30 1159 N 113.814 -1.1601 1.06675 0
M  V30 1160 C 115.06 -1.86909 0.786945 0
M  V30 1161 C 115.393 -1.81717 -0.685018 0
M  V30 1162 O 114.668 -1.23551 -1.50218 0
M  V30 1163 C 114.951 -3.36313 1.28707 0
M  V30 1164 C 114.804 -3.50175 2.82308 0
M  V30 1165 C 116.123 -4.3084 0.898071 0
M  V30 1166 H 113.242 -0.678677 0.287343 0
M  V30 1167 H 115.884 -1.36336 1.32334 0
M  V30 1168 H 114.034 -3.79513 0.830768 0
M  V30 1169 H 115.706 -3.15886 3.36175 0
M  V30 1170 H 113.949 -2.91959 3.20847 0
M  V30 1171 H 114.62 -4.55116 3.12368 0
M  V30 1172 H 117.096 -3.95561 1.29114 0
M  V30 1173 H 115.972 -5.33876 1.27543 0
M  V30 1174 H 116.233 -4.41662 -0.196651 0
M  V30 1175 N 115.292 -0.849877 -1.32721 0
M  V30 1176 C 116.708 -0.539102 -1.50219 0
M  V30 1177 C 116.908 0.931271 -1.78689 0
M  V30 1178 O 115.964 1.71455 -1.85363 0
M  V30 1179 C 117.277 -1.42196 -2.64954 0
M  V30 1180 C 118.825 -1.42189 -2.78839 0
M  V30 1181 C 119.3 -2.28985 -3.96648 0
M  V30 1182 N 120.791 -2.26754 -4.03902 0
M  V30 1183 C 121.526 -2.90644 -4.94281 0
M  V30 1184 N 121.022 -3.63629 -5.897 0
M  V30 1185 N 122.815 -2.80057 -4.87365 0
M  V30 1186 H 114.966 -1.80156 -1.12506 0
M  V30 1187 H 117.229 -0.769217 -0.554085 0
M  V30 1188 H 116.935 -2.46733 -2.50631 0
M  V30 1189 H 116.809 -1.10591 -3.60624 0
M  V30 1190 H 119.196 -0.38419 -2.92588 0
M  V30 1191 H 119.277 -1.77807 -1.83898 0
M  V30 1192 H 118.921 -3.32819 -3.83658 0
M  V30 1193 H 118.851 -1.90702 -4.90857 0
M  V30 1194 H 121.342 -1.73688 -3.3562 0
M  V30 1195 H 121.655 -4.09558 -6.55349 0
M  V30 1196 H 120 -3.67737 -5.89741 0
M  V30 1197 H 123.191 -2.22593 -4.11789 0
M  V30 1198 H 123.364 -3.30132 -5.57599 0
M  V30 1199 N 116.77 1.45427 -0.607355 0
M  V30 1200 C 117.998 2.06614 -0.108814 0
M  V30 1201 C 118.413 1.45204 1.2067 0
M  V30 1202 O 117.77 0.566132 1.73497 0
M  V30 1203 C 117.821 3.61481 0.0375347 0
M  V30 1204 O 117.542 4.20598 -1.22593 0
M  V30 1205 C 119.043 4.39652 0.567561 0
M  V30 1206 H 116.263 0.66747 -0.0687351 0
M  V30 1207 H 118.807 1.86675 -0.835022 0
M  V30 1208 H 116.962 3.80762 0.714068 0
M  V30 1209 H 117.376 5.1377 -1.05547 0
M  V30 1210 H 118.85 5.48518 0.61905 0
M  V30 1211 H 119.327 4.09417 1.58978 0
M  V30 1212 H 119.933 4.25234 -0.0749202 0
M  V30 1213 N 118.248 0.346503 1.53744 0
M  V30 1214 C 119.496 -0.248612 2.00565 0
M  V30 1215 C 119.817 -1.5083 1.23593 0
M  V30 1216 O 119.087 -1.92858 0.343912 0
M  V30 1217 H 117.667 -0.0948564 0.740953 0
M  V30 1218 H 120.329 0.468341 1.89189 0
M  V30 1219 H 119.425 -0.488994 3.08245 0
M  V30 1220 N 119.726 -1.57421 0.075193 0
M  V30 1221 C 120.656 -2.15942 -0.888324 0
M  V30 1222 C 121.637 -1.08737 -1.30806 0
M  V30 1223 O 122.822 -1.36787 -1.37851 0
M  V30 1224 C 119.952 -2.72379 -2.1547 0
M  V30 1225 C 118.906 -3.8478 -1.87425 0
M  V30 1226 C 118.232 -4.27834 -3.20721 0
M  V30 1227 C 119.532 -5.08869 -1.17684 0
M  V30 1228 H 121.226 -2.96705 -0.400799 0
M  V30 1229 H 118.772 -1.42723 -0.191342 0
M  V30 1230 H 120.725 -3.11965 -2.83295 0
M  V30 1231 H 119.449 -1.88841 -2.6647 0
M  V30 1232 H 118.108 -3.45703 -1.22004 0
M  V30 1233 H 117.756 -3.41214 -3.6957 0
M  V30 1234 H 117.456 -5.03605 -3.02746 0
M  V30 1235 H 118.98 -4.70039 -3.89738 0
M  V30 1236 H 120.394 -5.4575 -1.75584 0
M  V30 1237 H 118.791 -5.8994 -1.09956 0
M  V30 1238 H 119.861 -4.84648 -0.156453 0
M  V30 1239 N 121.204 0.198386 -1.56346 0
M  V30 1240 C 122.615 0.763358 -1.70381 0
M  V30 1241 C 122.966 1.83995 -0.681203 0
M  V30 1242 O 122.091 2.15785 0.16305 0
M  V30 1243 C 122.686 1.39143 -3.08909 0
M  V30 1244 C 121.245 1.90352 -3.2472 0
M  V30 1245 C 120.392 0.772233 -2.6633 0
M  V30 1246 H 123.343 -0.0266377 -1.58678 0
M  V30 1247 H 123.364 2.26076 -3.06055 0
M  V30 1248 H 122.876 0.607638 -3.83314 0
M  V30 1249 H 120.977 2.71461 -2.55225 0
M  V30 1250 H 121.09 2.06757 -4.3219 0
M  V30 1251 H 119.454 1.18566 -2.2542 0
M  V30 1252 H 120.237 0.00073556 -3.433 0
M  V30 1253 N 122.682 1.50554 0.465978 0
M  V30 1254 C 123.907 1.65838 1.24549 0
M  V30 1255 C 124.332 0.343486 1.84937 0
M  V30 1256 O 123.69 -0.69324 1.67523 0
M  V30 1257 C 123.738 2.75533 2.32624 0
M  V30 1258 O 122.842 2.37142 3.37398 0
M  V30 1259 H 122.183 0.553893 0.366194 0
M  V30 1260 H 124.713 1.96959 0.553927 0
M  V30 1261 H 124.723 2.98763 2.77857 0
M  V30 1262 H 123.398 3.70962 1.88043 0
M  V30 1263 H 121.975 2.24377 2.97841 0
M  V30 1264 N 124.16 -0.719506 1.40217 0
M  V30 1265 C 125.406 -1.48152 1.38488 0
M  V30 1266 C 125.739 -1.94195 -0.0141867 0
M  V30 1267 O 125.014 -1.67884 -0.982096 0
M  V30 1268 C 125.297 -2.71035 2.37091 0
M  V30 1269 C 125.15 -2.30912 3.86005 0
M  V30 1270 C 126.469 -3.73182 2.33288 0
M  V30 1271 H 123.588 -0.537395 0.504357 0
M  V30 1272 H 126.23 -0.821472 1.71324 0
M  V30 1273 H 124.38 -3.27352 2.0922 0
M  V30 1274 H 126.052 -1.80107 4.24687 0
M  V30 1275 H 124.295 -1.62958 4.02029 0
M  V30 1276 H 124.966 -3.18978 4.50508 0
M  V30 1277 H 127.442 -3.26485 2.57966 0
M  V30 1278 H 126.318 -4.56806 3.04334 0
M  V30 1279 H 126.579 -4.21202 1.34317 0
M  V30 1280 N 125.638 -1.25649 -0.95132 0
M  V30 1281 C 127.054 -1.02542 -1.223 0
M  V30 1282 C 127.254 0.255715 -1.99871 0
M  V30 1283 O 126.31 0.967558 -2.33226 0
M  V30 1284 C 127.623 -2.25065 -1.99415 0
M  V30 1285 C 129.171 -2.29861 -2.12446 0
M  V30 1286 C 129.646 -3.52048 -2.92961 0
M  V30 1287 N 131.137 -3.52465 -3.00538 0
M  V30 1288 C 131.872 -4.43672 -3.63239 0
M  V30 1289 N 131.368 -5.45157 -4.27523 0
M  V30 1290 N 133.161 -4.31346 -3.60412 0
M  V30 1291 H 125.312 -2.07951 -0.432471 0
M  V30 1292 H 127.575 -0.91339 -0.253816 0
M  V30 1293 H 127.281 -3.18194 -1.49817 0
M  V30 1294 H 127.155 -2.28502 -3.00111 0
M  V30 1295 H 129.542 -1.37252 -2.61239 0
M  V30 1296 H 129.623 -2.3044 -1.11044 0
M  V30 1297 H 129.267 -4.44981 -2.44856 0
M  V30 1298 H 129.197 -3.48715 -3.94596 0
M  V30 1299 H 131.688 -2.79056 -2.54826 0
M  V30 1300 H 132.001 -6.10958 -4.73234 0
M  V30 1301 H 130.346 -5.49025 -4.26141 0
M  V30 1302 H 133.537 -3.51288 -3.09377 0
M  V30 1303 H 133.71 -5.02624 -4.0899 0
M  V30 1304 N 127.117 1.15442 -1.07289 0
M  V30 1305 C 128.528 1.67803 -0.818475 0
M  V30 1306 C 128.879 1.8489 0.656507 0
M  V30 1307 O 128.004 1.55176 1.50829 0
M  V30 1308 C 128.599 3.04805 -1.47917 0
M  V30 1309 C 127.158 3.54245 -1.27229 0
M  V30 1310 C 126.305 2.29986 -1.54925 0
M  V30 1311 H 129.256 0.996646 -1.23502 0
M  V30 1312 H 129.277 3.69702 -0.90005 0
M  V30 1313 H 128.789 2.92336 -2.55267 0
M  V30 1314 H 126.89 3.71956 -0.21899 0
M  V30 1315 H 127.003 4.35723 -1.99203 0
M  V30 1316 H 125.367 2.35496 -0.970242 0
M  V30 1317 H 126.15 2.20105 -2.63455 0
M  V30 1318 N 128.595 0.856903 1.32268 0
M  V30 1319 C 129.525 0.31858 2.31316 0
M  V30 1320 C 130.506 -0.583487 1.59779 0
M  V30 1321 O 131.691 -0.503259 1.87566 0
M  V30 1322 C 128.821 -0.491979 3.43798 0
M  V30 1323 C 127.775 0.315849 4.26833 0
M  V30 1324 C 127.101 -0.619586 5.31098 0
M  V30 1325 C 128.401 1.54282 4.98993 0
M  V30 1326 H 130.095 1.14621 2.76591 0
M  V30 1327 H 127.641 0.552613 1.32974 0
M  V30 1328 H 129.594 -0.879012 4.1213 0
M  V30 1329 H 128.318 -1.35299 2.97257 0
M  V30 1330 H 126.977 0.684664 3.6015 0
M  V30 1331 H 126.625 -1.47751 4.8081 0
M  V30 1332 H 126.325 -0.0830621 5.87541 0
M  V30 1333 H 127.849 -1.00375 6.02293 0
M  V30 1334 H 129.263 1.22796 5.59995 0
M  V30 1335 H 127.66 2.01745 5.65172 0
M  V30 1336 H 128.73 2.30285 4.26728 0
M  V30 1337 N 130.073 -1.45103 0.615059 0
M  V30 1338 C 131.003 -2.33339 -0.0865619 0
M  V30 1339 C 131.984 -1.4727 -0.851209 0
M  V30 1340 O 133.169 -1.76026 -0.820281 0
M  V30 1341 C 130.299 -3.30095 -1.07956 0
M  V30 1342 C 129.253 -4.25858 -0.427628 0
M  V30 1343 C 128.579 -5.12361 -1.5294 0
M  V30 1344 C 129.879 -5.18165 0.655944 0
M  V30 1345 H 131.573 -2.92254 0.650224 0
M  V30 1346 H 129.119 -1.40532 0.314138 0
M  V30 1347 H 131.072 -3.90698 -1.57901 0
M  V30 1348 H 129.796 -2.69355 -1.84703 0
M  V30 1349 H 128.455 -3.66564 0.0510292 0
M  V30 1350 H 128.103 -4.47984 -2.28734 0
M  V30 1351 H 127.803 -5.77238 -1.09865 0
M  V30 1352 H 129.327 -5.75833 -2.03098 0
M  V30 1353 H 130.741 -5.72796 0.240257 0
M  V30 1354 H 129.138 -5.91559 1.00888 0
M  V30 1355 H 130.208 -4.60144 1.52957 0
M  V30 1356 N 131.551 -0.354651 -1.53558 0
M  V30 1357 C 132.501 0.513179 -2.2215 0
M  V30 1358 C 133.485 1.05734 -1.21281 0
M  V30 1359 O 134.677 0.989202 -1.46778 0
M  V30 1360 C 131.806 1.65798 -3.00609 0
M  V30 1361 C 130.892 1.12722 -4.08845 0
M  V30 1362 N 131.283 0.318563 -5.04796 0
M  V30 1363 C 129.581 1.40307 -4.23356 0
M  V30 1364 C 130.282 0.0292224 -5.81693 0
M  V30 1365 N 129.258 0.623891 -5.40008 0
M  V30 1366 H 133.06 -0.111586 -2.93688 0
M  V30 1367 H 130.574 -0.162091 -1.61589 0
M  V30 1368 H 132.571 2.29176 -3.48258 0
M  V30 1369 H 131.231 2.28591 -2.306 0
M  V30 1370 H 132.242 -0.0413091 -5.17884 0
M  V30 1371 H 128.919 2.03458 -3.6457 0
M  V30 1372 H 130.309 -0.623808 -6.68998 0
M  V30 1373 N 133.029 1.57378 -0.0835403 0
M  V30 1374 C 134.269 1.95808 0.586381 0
M  V30 1375 C 134.633 0.963706 1.66062 0
M  V30 1376 O 135.834 1.23608 2.38693 0
M  V30 1377 C 134.105 3.38808 1.13771 0
M  V30 1378 S 135.664 3.99225 1.82112 0
M  V30 1379 H 132.482 0.684675 0.191679 0
M  V30 1380 H 135.084 1.94843 -0.160194 0
M  V30 1381 H 133.788 4.08954 0.344197 0
M  V30 1382 H 133.319 3.43344 1.92038 0
M  V30 1383 H 135.334 3.87087 3.10449 0
M  V30 1384 N 134.507 -0.190092 1.56449 0
M  V30 1385 C 135.47 -1.21925 1.9408 0
M  V30 1386 C 136.47 -1.38176 0.822431 0
M  V30 1387 O 137.66 -1.35903 1.08977 0
M  V30 1388 C 134.792 -2.58773 2.21922 0
M  V30 1389 H 135.985 -0.897464 2.86157 0
M  V30 1390 H 133.538 -0.43181 1.50217 0
M  V30 1391 H 134.273 -2.95998 1.32499 0
M  V30 1392 H 134.058 -2.48348 3.03424 0
M  V30 1393 H 135.548 -3.32978 2.52022 0
M  V30 1394 N 135.985 -1.50799 -0.457987 0
M  V30 1395 C 137.396 -1.55152 -1.0385 0
M  V30 1396 C 137.747 -0.362719 -1.92818 0
M  V30 1397 O 136.872 0.522915 -2.09987 0
M  V30 1398 C 137.467 -2.81173 -1.89017 0
M  V30 1399 C 136.026 -2.88164 -2.42154 0
M  V30 1400 C 135.173 -2.49591 -1.20829 0
M  V30 1401 H 138.124 -1.56874 -0.240068 0
M  V30 1402 H 138.145 -2.63769 -2.74238 0
M  V30 1403 H 137.657 -3.67677 -1.24238 0
M  V30 1404 H 135.758 -2.06042 -3.10447 0
M  V30 1405 H 135.871 -3.91356 -2.76364 0
M  V30 1406 H 134.235 -2.02322 -1.54719 0
M  V30 1407 H 135.018 -3.38418 -0.576927 0
M  V30 1408 N 137.463 0.71206 -1.40597 0
M  V30 1409 C 138.711 1.46907 -1.38791 0
M  V30 1410 C 139.032 1.94998 0.00780391 0
M  V30 1411 O 138.302 1.70587 0.963174 0
M  V30 1412 H 136.882 0.545043 -0.51082 0
M  V30 1413 H 139.544 0.843882 -1.75683 0
M  V30 1414 H 138.64 2.34021 -2.06496 0
M  V30 1415 N 138.941 1.26152 0.944643 0
M  V30 1416 C 140.188 1.11492 1.69044 0
M  V30 1417 C 140.516 -0.342366 1.91463 0
M  V30 1418 O 139.771 -1.26812 1.49054 0
M  V30 1419 C 140.07 1.82541 3.07268 0
M  V30 1420 C 139.736 3.32445 3.04616 0
M  V30 1421 C 138.398 3.73337 3.036 0
M  V30 1422 C 140.75 4.28171 2.97185 0
M  V30 1423 C 138.078 5.08348 2.92915 0
M  V30 1424 C 140.43 5.63218 2.88041 0
M  V30 1425 C 139.094 6.03426 2.85366 0
M  V30 1426 H 138.364 0.407977 0.618576 0
M  V30 1427 H 141.011 1.56551 1.10291 0
M  V30 1428 H 139.316 1.29941 3.69625 0
M  V30 1429 H 141.013 1.68642 3.63815 0
M  V30 1430 H 137.603 2.99915 3.06185 0
M  V30 1431 H 141.787 3.97563 2.97081 0
M  V30 1432 H 137.043 5.38667 2.89219 0
M  V30 1433 H 141.217 6.37078 2.81254 0
M  V30 1434 H 138.844 7.07999 2.76842 0
M  V30 1435 N 140.419 -1.14872 1.07899 0
M  V30 1436 C 141.659 -1.8745 0.814965 0
M  V30 1437 C 142.023 -1.80758 -0.64733 0
M  V30 1438 O 143.224 -2.48422 -1.02664 0
M  V30 1439 C 141.495 -3.32286 1.31607 0
M  V30 1440 S 143.054 -4.22537 1.18357 0
M  V30 1441 H 139.872 -0.646833 0.295174 0
M  V30 1442 H 142.474 -1.38555 1.37923 0
M  V30 1443 H 141.178 -3.34703 2.37491 0
M  V30 1444 H 140.709 -3.86238 0.747261 0
M  V30 1445 H 142.724 -4.96044 0.124586 0
M  V30 1446 N 141.898 -0.863906 -1.31812 0
M  V30 1447 C 143.145 -0.471836 -1.96926 0
M  V30 1448 C 143.473 0.974578 -1.68322 0
M  V30 1449 O 142.728 1.7003 -0.968933 0
M  V30 1450 C 143.027 -0.668547 -3.51091 0
M  V30 1451 C 142.693 -2.08683 -3.99703 0
M  V30 1452 C 141.355 -2.47471 -4.12688 0
M  V30 1453 C 143.707 -3.01207 -4.25351 0
M  V30 1454 C 141.035 -3.78037 -4.4867 0
M  V30 1455 C 143.387 -4.31282 -4.62794 0
M  V30 1456 C 142.051 -4.69992 -4.73987 0
M  V30 1457 H 141.321 -0.172657 -0.720604 0
M  V30 1458 H 143.968 -1.09573 -1.57054 0
M  V30 1459 H 142.273 0.0385252 -3.91781 0
M  V30 1460 H 143.97 -0.345102 -3.99512 0
M  V30 1461 H 140.56 -1.77566 -3.90087 0
M  V30 1462 H 144.744 -2.72469 -4.14819 0
M  V30 1463 H 140 -4.078 -4.55532 0
M  V30 1464 H 144.174 -5.03031 -4.81594 0
M  V30 1465 H 141.801 -5.71207 -5.01624 0
M  V30 1466 N 143.376 1.44774 -0.622745 0
M  V30 1467 C 144.787 1.85546 -0.207226 0
M  V30 1468 C 145.138 1.52093 1.23944 0
M  V30 1469 O 144.263 0.95492 1.94191 0
M  V30 1470 C 144.858 3.36781 -0.369313 0
M  V30 1471 C 143.417 3.76399 -0.00836847 0
M  V30 1472 C 142.564 2.68664 -0.686651 0
M  V30 1473 H 145.515 1.3536 -0.828454 0
M  V30 1474 H 145.536 3.78453 0.394162 0
M  V30 1475 H 145.048 3.61098 -1.42231 0
M  V30 1476 H 143.149 3.57698 1.04322 0
M  V30 1477 H 143.262 4.7732 -0.412584 0
M  V30 1478 H 141.626 2.54404 -0.122777 0
M  V30 1479 H 142.409 2.95815 -1.74208 0
M  V30 1480 N 144.854 0.36279 1.53368 0
M  V30 1481 C 146.102 -0.227326 2.00817 0
M  V30 1482 C 146.423 -1.49511 1.25186 0
M  V30 1483 O 145.693 -1.92482 0.364348 0
M  V30 1484 H 144.273 -0.0869923 0.741917 0
M  V30 1485 H 146.935 0.488381 1.88682 0
M  V30 1486 H 146.031 -0.456273 3.08747 0
M  V30 1487 N 146.332 -1.57332 0.0918853 0
M  V30 1488 C 147.578 -1.94524 -0.573425 0
M  V30 1489 C 147.911 -0.973578 -1.68033 0
M  V30 1490 O 147.186 -0.00609226 -1.94499 0
M  V30 1491 C 147.469 -3.41858 -1.13161 0
M  V30 1492 C 147.322 -4.4979 -0.0299747 0
M  V30 1493 C 148.641 -3.90435 -2.03098 0
M  V30 1494 H 145.76 -0.70734 -0.206975 0
M  V30 1495 H 148.402 -1.89309 0.161942 0
M  V30 1496 H 146.552 -3.46433 -1.7583 0
M  V30 1497 H 148.224 -4.57327 0.604112 0
M  V30 1498 H 146.467 -4.291 0.636833 0
M  V30 1499 H 147.138 -5.50069 -0.461287 0
M  V30 1500 H 149.614 -3.87992 -1.50338 0
M  V30 1501 H 148.49 -4.94097 -2.39081 0
M  V30 1502 H 148.751 -3.29541 -2.94712 0
M  V30 1503 N 147.81 0.181792 -1.56548 0
M  V30 1504 C 148.773 1.20894 -1.94724 0
M  V30 1505 C 149.773 1.37738 -0.829747 0
M  V30 1506 O 150.963 1.35323 -1.09697 0
M  V30 1507 C 148.095 2.57593 -2.23291 0
M  V30 1508 H 149.288 0.882275 -2.86629 0
M  V30 1509 H 146.841 0.423838 -1.50444 0
M  V30 1510 H 147.576 2.95291 -1.34067 0
M  V30 1511 H 147.361 2.46735 -3.04736 0
M  V30 1512 H 148.851 3.31637 -2.53785 0
M  V30 1513 N 149.288 1.51039 0.449983 0
M  V30 1514 C 150.528 1.64732 1.21007 0
M  V30 1515 C 150.892 0.349865 1.88785 0
M  V30 1516 O 152.093 0.362431 2.66345 0
M  V30 1517 C 150.364 2.80902 2.20973 0
M  V30 1518 S 151.923 3.14851 3.05638 0
M  V30 1519 H 148.741 0.5805 0.410538 0
M  V30 1520 H 151.343 1.88901 0.503634 0
M  V30 1521 H 150.047 3.73627 1.69796 0
M  V30 1522 H 149.578 2.58882 2.96215 0
M  V30 1523 H 151.593 2.60306 4.22439 0
M  V30 1524 N 150.766 -0.704594 1.40972 0
M  V30 1525 C 152.015 -1.46018 1.39146 0
M  V30 1526 C 152.328 -1.956 0.000589254 0
M  V30 1527 O 153.534 -2.71137 -0.1403 0
M  V30 1528 C 151.99 -2.63996 2.4461 0
M  V30 1529 C 151.598 -2.21238 3.89561 0
M  V30 1530 C 153.342 -3.41677 2.51907 0
M  V30 1531 C 151.249 -3.3612 4.86598 0
M  V30 1532 H 150.179 -0.548444 0.517422 0
M  V30 1533 H 152.83 -0.765784 1.66757 0
M  V30 1534 H 151.212 -3.3566 2.10115 0
M  V30 1535 H 152.386 -1.56923 4.33257 0
M  V30 1536 H 150.701 -1.56574 3.85841 0
M  V30 1537 H 153.298 -4.27182 3.2159 0
M  V30 1538 H 153.641 -3.86247 1.55303 0
M  V30 1539 H 154.174 -2.77064 2.85448 0
M  V30 1540 H 150.913 -2.96572 5.84573 0
M  V30 1541 H 150.433 -3.99315 4.47557 0
M  V30 1542 H 152.112 -4.02029 5.06934 0
M  V30 1543 N 152.244 -1.26651 -0.937939 0
M  V30 1544 C 153.176 -1.04283 -2.04102 0
M  V30 1545 C 154.189 -0.00221014 -1.628 0
M  V30 1546 O 155.378 -0.242645 -1.76843 0
M  V30 1547 C 152.478 -0.557846 -3.34277 0
M  V30 1548 C 151.651 -1.66843 -4.04329 0
M  V30 1549 C 150.71 -1.18095 -5.12777 0
M  V30 1550 O 149.736 -1.87865 -5.37304 0
M  V30 1551 N 150.938 -0.0311006 -5.80492 0
M  V30 1552 H 153.703 -1.9927 -2.23856 0
M  V30 1553 H 151.264 -1.1808 -1.10764 0
M  V30 1554 H 153.256 -0.215836 -4.04124 0
M  V30 1555 H 151.826 0.298523 -3.11171 0
M  V30 1556 H 151.046 -2.18123 -3.28353 0
M  V30 1557 H 152.334 -2.41408 -4.47883 0
M  V30 1558 H 151.732 0.551486 -5.63005 0
M  V30 1559 H 150.289 0.251809 -6.51313 0
M  V30 1560 N 153.722 1.14298 -1.08507 0
M  V30 1561 C 154.95 1.89219 -0.836876 0
M  V30 1562 C 155.365 1.78638 0.611054 0
M  V30 1563 O 154.722 1.14643 1.41998 0
M  V30 1564 C 154.773 3.39158 -1.25116 0
M  V30 1565 O 154.494 3.49449 -2.64229 0
M  V30 1566 C 155.995 4.31073 -1.03398 0
M  V30 1567 H 153.215 0.599328 -0.301739 0
M  V30 1568 H 155.759 1.44746 -1.44461 0
M  V30 1569 H 153.914 3.81251 -0.687514 0
M  V30 1570 H 154.328 4.42589 -2.81452 0
M  V30 1571 H 155.802 5.34646 -1.37323 0
M  V30 1572 H 156.279 4.3919 0.0289259 0
M  V30 1573 H 156.885 3.94738 -1.58311 0
M  V30 1574 N 155.201 0.870884 1.31352 0
M  V30 1575 C 156.111 0.330783 2.32256 0
M  V30 1576 C 157.127 -0.559767 1.6475 0
M  V30 1577 O 158.303 -0.456263 1.96164 0
M  V30 1578 C 155.368 -0.458137 3.4366 0
M  V30 1579 C 154.429 0.460482 4.26823 0
M  V30 1580 C 153.662 -0.290881 5.32907 0
M  V30 1581 O 153.885 -1.51885 5.49806 0
M  V30 1582 O 152.819 0.351732 6.00871 0
M  V30 1583 H 156.645 1.16718 2.80376 0
M  V30 1584 H 154.23 0.634285 1.35267 0
M  V30 1585 H 156.112 -0.905343 4.1156 0
M  V30 1586 H 154.787 -1.27106 2.97701 0
M  V30 1587 H 153.694 0.956207 3.61673 0
M  V30 1588 H 155.027 1.23903 4.7635 0
M  V30 1589 N 156.679 -1.44442 0.630414 0
M  V30 1590 C 157.904 -2.06927 0.139944 0
M  V30 1591 C 158.329 -1.46795 -1.17613 0
M  V30 1592 O 157.687 -0.569144 -1.72135 0
M  V30 1593 C 157.735 -3.6058 0.0379581 0
M  V30 1594 O 156.839 -3.99937 -1.0062 0
M  V30 1595 H 156.18 -0.658608 0.0844483 0
M  V30 1596 H 158.71 -1.85327 0.866891 0
M  V30 1597 H 158.72 -4.07714 -0.152856 0
M  V30 1598 H 157.395 -4.03728 0.998809 0
M  V30 1599 H 155.972 -3.64436 -0.79001 0
M  V30 1600 N 158.157 -0.370918 -1.53173 0
M  V30 1601 C 159.405 0.216673 -2.00935 0
M  V30 1602 C 159.726 1.48845 -1.25977 0
M  V30 1603 O 158.996 1.92286 -0.374551 0
M  V30 1604 H 157.576 0.0830565 -0.742368 0
M  V30 1605 H 160.238 -0.49838 -1.8842 0
M  V30 1606 H 159.334 0.439893 -3.08984 0
M  V30 1607 N 159.635 1.57281 -0.100228 0
M  V30 1608 C 160.598 2.13158 0.842398 0
M  V30 1609 C 161.598 1.06202 1.20738 0
M  V30 1610 O 162.788 1.32066 1.13597 0
M  V30 1611 C 159.92 2.65639 2.13655 0
M  V30 1612 H 161.113 2.97766 0.357114 0
M  V30 1613 H 158.666 1.5559 0.148823 0
M  V30 1614 H 159.401 1.84566 2.66657 0
M  V30 1615 H 159.186 3.43844 1.88451 0
M  V30 1616 H 160.676 3.08846 2.81077 0
M  V30 1617 N 161.113 -0.173488 1.56642 0
M  V30 1618 C 162.529 -0.525174 1.50712 0
M  V30 1619 C 162.729 -1.8476 0.804107 0
M  V30 1620 O 161.785 -2.49869 0.363574 0
M  V30 1621 C 163.098 -0.559937 2.95441 0
M  V30 1622 C 164.646 -0.647288 3.06234 0
M  V30 1623 C 165.121 -0.712963 4.52417 0
M  V30 1624 N 166.612 -0.775911 4.56655 0
M  V30 1625 C 167.347 -0.847264 5.67106 0
M  V30 1626 N 166.843 -0.879585 6.87194 0
M  V30 1627 N 168.636 -0.886117 5.55071 0
M  V30 1628 H 160.787 0.693681 2.00753 0
M  V30 1629 H 163.05 0.249841 0.914485 0
M  V30 1630 H 162.756 0.343049 3.50023 0
M  V30 1631 H 162.63 -1.40718 3.49969 0
M  V30 1632 H 165.017 -1.5407 2.51687 0
M  V30 1633 H 165.098 0.226586 2.54794 0
M  V30 1634 H 164.742 0.176183 5.07594 0
M  V30 1635 H 164.672 -1.60295 5.0161 0
M  V30 1636 H 167.163 -0.759304 3.70193 0
M  V30 1637 H 167.476 -0.935144 7.67121 0
M  V30 1638 H 165.821 -0.847898 6.89808 0
M  V30 1639 H 169.012 -0.857853 4.60172 0
M  V30 1640 H 169.185 -0.938263 6.41171 0
M  V30 1641 N 162.591 -1.51276 -0.441967 0
M  V30 1642 C 163.831 -1.65372 -1.20132 0
M  V30 1643 C 164.195 -0.359871 -1.88597 0
M  V30 1644 O 165.396 -0.376551 -2.66149 0
M  V30 1645 C 163.667 -2.8207 -2.1948 0
M  V30 1646 S 165.226 -3.16467 -3.03964 0
M  V30 1647 H 162.044 -0.582669 -0.407453 0
M  V30 1648 H 164.646 -1.89166 -0.493609 0
M  V30 1649 H 163.35 -3.74523 -1.67812 0
M  V30 1650 H 162.881 -2.6045 -2.94838 0
M  V30 1651 H 164.896 -2.62543 -4.21053 0
M  V30 1652 N 164.069 0.697108 -1.41344 0
M  V30 1653 C 165.317 1.45426 -1.40341 0
M  V30 1654 C 165.638 1.94996 -0.0128787 0
M  V30 1655 O 164.908 1.71599 0.945027 0
M  V30 1656 H 163.488 0.539594 -0.516573 0
M  V30 1657 H 166.15 0.825201 -1.76569 0
M  V30 1658 H 165.246 2.31817 -2.08967 0
M  V30 1659 N 165.547 1.27147 0.931209 0
M  V30 1660 C 166.958 1.12044 1.49342 0
M  V30 1661 C 167.309 -0.295795 1.93957 0
M  V30 1662 O 166.434 -1.18835 1.80852 0
M  V30 1663 C 167.029 2.02781 2.71414 0
M  V30 1664 C 165.588 1.91794 3.2387 0
M  V30 1665 C 164.735 1.95543 1.96617 0
M  V30 1666 H 167.686 1.40091 0.745672 0
M  V30 1667 H 167.707 1.58156 3.46074 0
M  V30 1668 H 167.219 3.05848 2.38911 0
M  V30 1669 H 165.32 0.916992 3.6114 0
M  V30 1670 H 165.433 2.77852 3.90302 0
M  V30 1671 H 163.797 1.39722 2.12955 0
M  V30 1672 H 164.58 3.00259 1.66432 0
M  V30 1673 N 167.025 -1.13721 1.09112 0
M  V30 1674 C 168.265 -1.86576 0.834801 0
M  V30 1675 C 168.629 -1.81435 -0.628122 0
M  V30 1676 O 169.83 -2.49497 -1.00024 0
M  V30 1677 C 168.101 -3.30872 1.35124 0
M  V30 1678 S 169.66 -4.21257 1.22832 0
M  V30 1679 H 166.478 -0.643666 0.302017 0
M  V30 1680 H 169.08 -1.37085 1.39385 0
M  V30 1681 H 167.784 -3.32166 2.41027 0
M  V30 1682 H 167.315 -3.85423 0.788185 0
M  V30 1683 H 169.33 -4.95884 0.177191 0
M  V30 1684 N 168.503 -0.877838 -1.30888 0
M  V30 1685 C 169.914 -0.544193 -1.78593 0
M  V30 1686 C 170.265 0.939301 -1.72254 0
M  V30 1687 O 169.39 1.7337 -1.29505 0
M  V30 1688 C 169.985 -0.98105 -3.24285 0
M  V30 1689 C 168.544 -0.698935 -3.69854 0
M  V30 1690 C 167.691 -1.168 -2.51502 0
M  V30 1691 H 170.642 -1.06278 -1.17859 0
M  V30 1692 H 170.663 -0.307009 -3.79259 0
M  V30 1693 H 170.175 -2.06079 -3.28866 0
M  V30 1694 H 168.276 0.369112 -3.70767 0
M  V30 1695 H 168.389 -1.28148 -4.61644 0
M  V30 1696 H 166.753 -0.587535 -2.47831 0
M  V30 1697 H 167.536 -2.25533 -2.58824 0
M  V30 1698 N 169.982 1.44106 -0.638065 0
M  V30 1699 C 170.945 2.29138 0.0531013 0
M  V30 1700 C 171.945 1.41409 0.765506 0
M  V30 1701 O 173.135 1.63206 0.609046 0
M  V30 1702 C 170.267 3.23144 1.08584 0
M  V30 1703 H 171.46 2.91739 -0.694883 0
M  V30 1704 H 169.013 1.51134 -0.398538 0
M  V30 1705 H 169.748 2.65408 1.86357 0
M  V30 1706 H 169.533 3.87804 0.578852 0
M  V30 1707 H 171.023 3.87004 1.56899 0
M  V30 1708 N 171.46 0.379036 1.52974 0
M  V30 1709 C 172.708 -0.206014 2.01047 0
M  V30 1710 C 173.029 -1.48175 1.26765 0
M  V30 1711 O 172.299 -1.92085 0.384743 0
M  V30 1712 H 170.879 -0.0791184 0.742798 0
M  V30 1713 H 173.541 0.508366 1.88153 0
M  V30 1714 H 172.637 -0.423501 3.09213 0
M  V30 1715 N 172.938 -1.57226 0.108567 0
M  V30 1716 C 174.185 -1.94833 -0.551943 0
M  V30 1717 C 174.513 -0.991204 -1.67348 0
M  V30 1718 O 173.768 -0.0131878 -1.95696 0
M  V30 1719 C 174.067 -3.38911 -1.13463 0
M  V30 1720 C 173.733 -4.50696 -0.135509 0
M  V30 1721 C 172.395 -4.80998 0.139252 0
M  V30 1722 C 174.747 -5.18333 0.545957 0
M  V30 1723 C 172.075 -5.76259 1.10194 0
M  V30 1724 C 174.427 -6.14627 1.49721 0
M  V30 1725 C 173.091 -6.43327 1.78006 0
M  V30 1726 H 172.361 -0.712944 -0.20197 0
M  V30 1727 H 175.008 -1.90582 0.18726 0
M  V30 1728 H 173.313 -3.39805 -1.95037 0
M  V30 1729 H 175.01 -3.65317 -1.65362 0
M  V30 1730 H 171.6 -4.27087 -0.359846 0
M  V30 1731 H 175.784 -4.95087 0.346842 0
M  V30 1732 H 171.04 -5.96804 1.32795 0
M  V30 1733 H 175.214 -6.66126 2.03099 0
M  V30 1734 H 172.841 -7.1695 2.52759 0
M  V30 1735 N 174.416 0.165178 -1.56732 0
M  V30 1736 C 175.644 0.896218 -1.86482 0
M  V30 1737 C 176.059 1.75555 -0.694675 0
M  V30 1738 O 175.416 1.79379 0.33607 0
M  V30 1739 C 175.467 1.76792 -3.1532 0
M  V30 1740 O 175.188 0.943239 -4.27825 0
M  V30 1741 C 176.689 2.6081 -3.58459 0
M  V30 1742 H 173.909 0.260064 -0.618553 0
M  V30 1743 H 176.453 0.163428 -2.03846 0
M  V30 1744 H 174.608 2.45398 -2.99764 0
M  V30 1745 H 175.022 1.53998 -5.01383 0
M  V30 1746 H 176.496 3.17579 -4.51495 0
M  V30 1747 H 176.973 3.35977 -2.82872 0
M  V30 1748 H 177.579 1.97526 -3.76648 0
M  V30 1749 N 175.894 1.51508 0.433938 0
M  V30 1750 C 177.142 1.6402 1.18075 0
M  V30 1751 C 177.463 0.360328 1.91642 0
M  V30 1752 O 176.733 -0.623945 1.85698 0
M  V30 1753 H 175.313 0.6045 0.43885 0
M  V30 1754 H 177.975 1.88452 0.497178 0
M  V30 1755 H 177.071 2.46949 1.90847 0
M  V30 1756 N 177.372 -0.689602 1.41712 0
M  V30 1757 C 178.32 -1.82475 1.44242 0
M  V30 1758 C 179.314 -1.66354 0.319774 0
M  V30 1759 O 180.52 -1.73143 0.492089 0
M  V30 1760 H 176.895 -0.601416 0.451445 0
M  V30 1761 H 178.866 -1.77458 2.39899 0
M  V30 1762 C 177.615 -3.20535 1.3473 0
M  V30 1763 H 176.938 -3.33559 2.20405 0
M  V30 1764 H 178.378 -4.00023 1.40562 0
M  V30 1765 C 176.837 -3.36846 0.0603281 0
M  V30 1766 O 177.367 -3.91656 -0.892663 0
M  V30 1767 N 175.573 -2.90595 -0.0177039 0
M  V30 1768 H 175.12 -2.46178 0.758572 0
M  V30 1769 H 175.078 -3.01886 -0.878201 0
M  V30 1770 N 178.85 -1.27639 -0.924453 0
M  V30 1771 C 180.098 -1.13941 -1.66918 0
M  V30 1772 C 180.419 0.314589 -1.92446 0
M  V30 1773 O 179.689 1.21964 -1.53303 0
M  V30 1774 H 178.269 -0.418678 -0.618642 0
M  V30 1775 H 180.931 -1.60213 -1.10985 0
M  V30 1776 H 180.027 -1.67094 -2.63602 0
M  V30 1777 N 180.328 1.1314 -1.09713 0
M  V30 1778 C 181.553 1.88862 -0.857081 0
M  V30 1779 C 181.978 1.78729 0.586304 0
M  V30 1780 O 181.336 1.13692 1.41222 0
M  V30 1781 C 181.384 3.36325 -1.30069 0
M  V30 1782 O 180.488 4.09815 -0.461007 0
M  V30 1783 H 179.829 0.587108 -0.310162 0
M  V30 1784 H 182.359 1.43129 -1.46203 0
M  V30 1785 H 182.369 3.87157 -1.28738 0
M  V30 1786 H 181.044 3.43017 -2.35185 0
M  V30 1787 H 179.621 3.68986 -0.538888 0
M  V30 1788 N 181.806 0.884767 1.30421 0
M  V30 1789 C 182.756 0.322846 2.25703 0
M  V30 1790 C 183.74 -0.548582 1.51259 0
M  V30 1791 O 184.932 -0.39304 1.72581 0
M  V30 1792 C 182.061 -0.461787 3.4018 0
M  V30 1793 C 181.147 0.423717 4.21978 0
M  V30 1794 N 181.538 1.52408 4.82292 0
M  V30 1795 C 179.836 0.218795 4.45463 0
M  V30 1796 C 180.537 2.07136 5.43571 0
M  V30 1797 N 179.513 1.36635 5.26148 0
M  V30 1798 H 183.315 1.16363 2.69883 0
M  V30 1799 H 180.829 0.73415 1.44859 0
M  V30 1800 H 182.826 -0.880985 4.07485 0
M  V30 1801 H 181.486 -1.30001 2.9754 0
M  V30 1802 H 182.497 1.90693 4.81515 0
M  V30 1803 H 179.174 -0.582275 4.1342 0
M  V30 1804 H 180.564 2.99538 6.01437 0
M  V30 1805 N 183.284 -1.43765 0.645699 0
M  V30 1806 C 184.524 -2.03776 0.159542 0
M  V30 1807 C 184.888 -1.49792 -1.2011 0
M  V30 1808 O 186.089 -2.01398 -1.78023 0
M  V30 1809 C 184.36 -3.57036 0.161251 0
M  V30 1810 S 185.919 -4.3804 -0.258159 0
M  V30 1811 H 182.737 -0.707717 0.0682454 0
M  V30 1812 H 185.339 -1.75941 0.852352 0
M  V30 1813 H 184.043 -3.9383 1.15439 0
M  V30 1814 H 183.574 -3.89503 -0.552339 0
M  V30 1815 H 185.589 -4.7302 -1.49889 0
M  V30 1816 N 184.763 -0.387143 -1.52771 0
M  V30 1817 C 185.991 0.195869 -2.05971 0
M  V30 1818 C 186.406 1.40691 -1.25903 0
M  V30 1819 O 185.763 1.79931 -0.305134 0
M  V30 1820 C 185.814 0.56812 -3.57008 0
M  V30 1821 O 185.535 -0.594803 -4.34043 0
M  V30 1822 C 187.036 1.20723 -4.26545 0
M  V30 1823 H 184.256 0.0300578 -0.670326 0
M  V30 1824 H 186.8 -0.551749 -1.96916 0
M  V30 1825 H 184.955 1.26564 -3.66143 0
M  V30 1826 H 185.369 -0.289322 -5.23701 0
M  V30 1827 H 186.843 1.41807 -5.33474 0
M  V30 1828 H 187.32 2.17395 -3.81623 0
M  V30 1829 H 187.926 0.550535 -4.21722 0
M  V30 1830 N 186.241 1.57166 -0.116904 0
M  V30 1831 C 187.518 1.86645 0.585049 0
M  V30 1832 C 187.898 1.0177 1.84949 0
M  V30 1833 O 187.246 0.0960379 2.28298 0
M  V30 1834 C 187.456 3.37736 0.879507 0
M  V30 1835 C 188.804 4.06289 1.23348 0
M  V30 1836 O 189.828 3.42743 0.969836 0
M  V30 1837 O 188.687 5.18455 1.7282 0
M  V30 1838 H 185.781 0.772593 0.295007 0
M  V30 1839 H 188.327 1.69025 -0.151249 0
M  V30 1840 H 187.099 3.91296 -0.0166136 0
M  V30 1841 H 186.722 3.6078 1.67103 0
M  V30 1842 N 187.719 -0.156864 1.56817 0
M  V30 1843 C 188.965 -0.872416 1.83076 0
M  V30 1844 C 189.298 -1.81261 0.697001 0
M  V30 1845 O 188.573 -1.92171 -0.30008 0
M  V30 1846 C 188.856 -1.65551 3.19789 0
M  V30 1847 C 188.709 -0.737467 4.43713 0
M  V30 1848 C 190.028 -2.62012 3.53606 0
M  V30 1849 H 187.147 -0.315715 0.665953 0
M  V30 1850 H 189.789 -0.138004 1.89498 0
M  V30 1851 H 187.939 -2.28159 3.14445 0
M  V30 1852 H 189.611 -0.123143 4.61136 0
M  V30 1853 H 187.854 -0.0464067 4.33775 0
M  V30 1854 H 188.525 -1.32122 5.35955 0
M  V30 1855 H 191.001 -2.09525 3.59497 0
M  V30 1856 H 189.877 -3.13861 4.50314 0
M  V30 1857 H 190.138 -3.42902 2.79053 0
M  V30 1858 N 189.197 -1.51736 -0.425897 0
M  V30 1859 C 190.145 -1.74464 -1.53834 0
M  V30 1860 C 191.139 -0.611241 -1.57988 0
M  V30 1861 O 192.345 -0.792899 -1.61596 0
M  V30 1862 H 188.72 -0.551437 -0.511293 0
M  V30 1863 H 190.691 -2.67694 -1.31843 0
M  V30 1864 C 189.44 -1.8972 -2.91379 0
M  V30 1865 H 188.763 -2.76344 -2.88919 0
M  V30 1866 H 190.203 -2.09629 -3.68553 0
M  V30 1867 C 188.662 -0.65992 -3.30374 0
M  V30 1868 O 189.192 0.180083 -4.01296 0
M  V30 1869 N 187.398 -0.500677 -2.86254 0
M  V30 1870 H 186.945 -1.18532 -2.28709 0
M  V30 1871 H 186.903 0.325903 -3.12706 0
M  V30 1872 N 190.675 0.682077 -1.42076 0
M  V30 1873 C 191.585 1.82535 -1.47371 0
M  V30 1874 C 192.601 1.7017 -0.363079 0
M  V30 1875 O 193.777 1.91848 -0.612875 0
M  V30 1876 C 190.842 3.18624 -1.36674 0
M  V30 1877 C 189.903 3.42999 -2.58167 0
M  V30 1878 C 189.136 4.72595 -2.4797 0
M  V30 1879 O 189.359 5.50006 -1.5116 0
M  V30 1880 O 188.293 4.98054 -3.37974 0
M  V30 1881 H 192.119 1.81023 -2.43853 0
M  V30 1882 H 189.704 0.836887 -1.2376 0
M  V30 1883 H 191.586 3.99847 -1.33043 0
M  V30 1884 H 190.261 3.20789 -0.433138 0
M  V30 1885 H 189.168 2.61653 -2.67373 0
M  V30 1886 H 190.501 3.45659 -3.50401 0
M  V30 1887 N 192.153 1.28127 0.917671 0
M  V30 1888 C 193.393 1.163 1.68088 0
M  V30 1889 C 193.757 -0.284515 1.8988 0
M  V30 1890 O 194.958 -0.525413 2.63615 0
M  V30 1891 C 193.229 1.93546 3.00457 0
M  V30 1892 S 194.788 1.98048 3.91564 0
M  V30 1893 H 191.606 0.415005 0.577315 0
M  V30 1894 H 194.208 1.62173 1.09179 0
M  V30 1895 H 192.912 2.97888 2.82295 0
M  V30 1896 H 192.443 1.48207 3.64415 0
M  V30 1897 H 194.458 1.08415 4.84211 0
M  V30 1898 N 193.631 -1.12557 1.10312 0
M  V30 1899 C 194.579 -2.20325 0.745629 0
M  V30 1900 C 195.573 -1.67429 -0.25763 0
M  V30 1901 O 196.779 -1.79612 -0.118132 0
M  V30 1902 H 193.154 -0.718118 0.223182 0
M  V30 1903 H 195.125 -2.47733 1.66346 0
M  V30 1904 C 193.874 -3.47168 0.192262 0
M  V30 1905 H 193.197 -3.88215 0.955475 0
M  V30 1906 H 194.637 -4.23995 -0.0198274 0
M  V30 1907 C 193.096 -3.19298 -1.07472 0
M  V30 1908 O 193.626 -3.3891 -2.15645 0
M  V30 1909 N 191.832 -2.73113 -0.992847 0
M  V30 1910 H 191.379 -2.57354 -0.112474 0
M  V30 1911 H 191.337 -2.54842 -1.84127 0
M  V30 1912 N 195.109 -0.891671 -1.2995 0
M  V30 1913 C 196.072 -0.36828 -2.26222 0
M  V30 1914 C 197.072 0.493014 -1.53056 0
M  V30 1915 O 198.262 0.299213 -1.71611 0
M  V30 1916 C 195.394 0.47442 -3.37583 0
M  V30 1917 H 196.587 -1.21844 -2.74033 0
M  V30 1918 H 194.14 -0.669107 -1.41254 0
M  V30 1919 H 194.875 1.34489 -2.95099 0
M  V30 1920 H 194.66 -0.142615 -3.91841 0
M  V30 1921 H 196.15 0.83218 -4.09224 0
M  V30 1922 N 196.587 1.43421 -0.653314 0
M  V30 1923 C 197.537 2.2792 0.060558 0
M  V30 1924 C 198.521 1.39906 0.794677 0
M  V30 1925 O 199.713 1.63536 0.677128 0
M  V30 1926 C 196.842 3.27603 1.0262 0
M  V30 1927 C 195.928 4.23104 0.290551 0
M  V30 1928 N 196.319 5.01031 -0.692967 0
M  V30 1929 C 194.617 4.42816 0.531984 0
M  V30 1930 C 195.318 5.70626 -1.12963 0
M  V30 1931 N 194.294 5.41617 -0.463867 0
M  V30 1932 H 198.096 2.85585 -0.694143 0
M  V30 1933 H 195.61 1.55126 -0.480602 0
M  V30 1934 H 197.607 3.86918 1.55242 0
M  V30 1935 H 196.267 2.71499 1.78096 0
M  V30 1936 H 197.278 5.0669 -1.07169 0
M  V30 1937 H 193.955 3.97782 1.26791 0
M  V30 1938 H 195.345 6.4318 -1.94343 0
M  V30 1939 N 198.065 0.39524 1.52563 0
M  V30 1940 C 199.476 -0.0774719 1.86539 0
M  V30 1941 C 199.827 -1.45641 1.31466 0
M  V30 1942 O 198.952 -2.06459 0.648367 0
M  V30 1943 C 199.547 -0.147356 3.38479 0
M  V30 1944 C 198.106 -0.564373 3.72145 0
M  V30 1945 C 197.253 0.269919 2.75983 0
M  V30 1946 H 200.204 0.612876 1.46388 0
M  V30 1947 H 200.225 -0.965343 3.68051 0
M  V30 1948 H 199.737 0.856387 3.78534 0
M  V30 1949 H 197.838 -1.57527 3.37663 0
M  V30 1950 H 197.951 -0.318402 4.78041 0
M  V30 1951 H 196.315 -0.265696 2.5331 0
M  V30 1952 H 197.098 1.27175 3.18875 0
M  V30 1953 N 199.544 -1.57102 0.125237 0
M  V30 1954 C 200.784 -1.97294 -0.534259 0
M  V30 1955 C 201.148 -1.0074 -1.63449 0
M  V30 1956 O 202.349 -1.29893 -2.35332 0
M  V30 1957 C 200.62 -3.41705 -1.04748 0
M  V30 1958 S 202.179 -4.03913 -1.71463 0
M  V30 1959 H 198.997 -0.689517 -0.173458 0
M  V30 1960 H 201.599 -1.94349 0.211797 0
M  V30 1961 H 200.303 -4.09723 -0.235649 0
M  V30 1962 H 199.834 -3.48315 -1.82867 0
M  V30 1963 H 201.849 -3.95182 -3.00077 0
M  V30 1964 N 201.022 0.148545 -1.56898 0
M  V30 1965 C 202.269 0.861418 -1.83264 0
M  V30 1966 C 202.597 1.81239 -0.705883 0
M  V30 1967 O 201.852 1.93305 0.305212 0
M  V30 1968 C 202.151 1.67064 -3.1595 0
M  V30 1969 C 201.817 0.866591 -4.42494 0
M  V30 1970 C 200.479 0.644762 -4.76861 0
M  V30 1971 C 202.831 0.30418 -5.20312 0
M  V30 1972 C 200.159 -0.15021 -5.86508 0
M  V30 1973 C 202.511 -0.477824 -6.30793 0
M  V30 1974 C 201.175 -0.710244 -6.63711 0
M  V30 1975 H 200.445 0.315215 -0.670612 0
M  V30 1976 H 203.092 0.125142 -1.91091 0
M  V30 1977 H 201.397 2.47698 -3.03567 0
M  V30 1978 H 203.094 2.22566 -3.33565 0
M  V30 1979 H 199.684 1.04955 -4.15551 0
M  V30 1980 H 203.868 0.462844 -4.94137 0
M  V30 1981 H 199.124 -0.339796 -6.10455 0
M  V30 1982 H 203.298 -0.92076 -6.90286 0
M  V30 1983 H 200.925 -1.3281 -7.48509 0
M  V30 1984 N 202.5 1.5196 0.417844 0
M  V30 1985 C 203.911 1.57851 0.997 0
M  V30 1986 C 204.262 0.413714 1.91789 0
M  V30 1987 O 203.387 -0.467057 2.113 0
M  V30 1988 C 203.982 2.86085 1.81496 0
M  V30 1989 C 202.541 2.94483 2.34428 0
M  V30 1990 C 201.688 2.52707 1.14169 0
M  V30 1991 H 204.639 1.57455 0.198392 0
M  V30 1992 H 204.66 2.70947 2.67148 0
M  V30 1993 H 204.172 3.70842 1.14446 0
M  V30 1994 H 202.273 2.142 3.04875 0
M  V30 1995 H 202.386 3.98546 2.65891 0
M  V30 1996 H 200.75 2.06353 1.49301 0
M  V30 1997 H 201.533 3.39828 0.486999 0
M  V30 1998 N 203.978 -0.674533 1.42435 0
M  V30 1999 C 205.394 -0.98769 1.25367 0
M  V30 2000 C 205.594 -2.00879 0.158044 0
M  V30 2001 O 204.65 -2.48075 -0.470633 0
M  V30 2002 C 205.963 -1.49224 2.6106 0
M  V30 2003 C 207.511 -1.61 2.68417 0
M  V30 2004 C 207.986 -2.14852 4.04478 0
M  V30 2005 N 209.477 -2.22185 4.06434 0
M  V30 2006 C 210.212 -2.64928 5.08528 0
M  V30 2007 N 209.708 -3.07121 6.21006 0
M  V30 2008 N 211.501 -2.64679 4.95885 0
M  V30 2009 H 203.652 0.00152503 2.124 0
M  V30 2010 H 205.915 -0.0618434 0.945981 0
M  V30 2011 H 205.621 -0.816453 3.42092 0
M  V30 2012 H 205.495 -2.47094 2.84999 0
M  V30 2013 H 207.882 -2.27686 1.87732 0
M  V30 2014 H 207.963 -0.616195 2.48267 0
M  V30 2015 H 207.607 -1.48775 4.85622 0
M  V30 2016 H 207.537 -3.15024 4.2198 0
M  V30 2017 H 210.028 -1.92435 3.25234 0
M  V30 2018 H 210.341 -3.38423 6.94759 0
M  V30 2019 H 208.686 -3.04978 6.24511 0
M  V30 2020 H 211.877 -2.31078 4.07088 0
M  V30 2021 H 212.05 -2.9767 5.75584 0
M  V30 2022 N 205.456 -1.28612 -0.910864 0
M  V30 2023 C 206.702 -1.16106 -1.66274 0
M  V30 2024 C 207.035 0.289113 -1.92036 0
M  V30 2025 O 206.31 1.21 -1.52281 0
M  V30 2026 C 206.593 -1.96309 -3.01885 0
M  V30 2027 C 206.446 -3.49405 -2.8326 0
M  V30 2028 C 207.765 -1.78076 -4.02463 0
M  V30 2029 H 204.884 -0.423152 -0.603417 0
M  V30 2030 H 207.526 -1.57961 -1.05586 0
M  V30 2031 H 205.676 -1.60742 -3.53687 0
M  V30 2032 H 207.348 -3.94894 -2.38446 0
M  V30 2033 H 205.591 -3.74893 -2.18261 0
M  V30 2034 H 206.262 -4.00784 -3.79574 0
M  V30 2035 H 208.738 -2.0912 -3.59733 0
M  V30 2036 H 207.614 -2.36561 -4.95308 0
M  V30 2037 H 207.875 -0.733008 -4.35981 0
M  V30 2038 N 206.934 1.1197 -1.10907 0
M  V30 2039 C 208.35 1.35591 -0.841852 0
M  V30 2040 C 208.55 1.94233 0.536246 0
M  V30 2041 O 207.606 2.1717 1.28816 0
M  V30 2042 C 208.919 2.29284 -1.94549 0
M  V30 2043 C 210.467 2.42862 -1.97451 0
M  V30 2044 C 210.942 3.39873 -3.07002 0
M  V30 2045 N 212.433 3.47433 -3.06341 0
M  V30 2046 C 213.168 4.22421 -3.87748 0
M  V30 2047 N 212.664 5.00432 -4.79103 0
M  V30 2048 N 214.457 4.17876 -3.75946 0
M  V30 2049 H 206.608 0.722664 -1.99728 0
M  V30 2050 H 208.871 0.380635 -0.868229 0
M  V30 2051 H 208.577 1.93378 -2.93765 0
M  V30 2052 H 208.451 3.29452 -1.83688 0
M  V30 2053 H 210.838 2.78046 -0.988645 0
M  V30 2054 H 210.919 1.42566 -2.12388 0
M  V30 2055 H 210.563 3.05417 -4.05811 0
M  V30 2056 H 210.493 4.40011 -2.89306 0
M  V30 2057 H 212.984 2.91784 -2.40147 0
M  V30 2058 H 213.297 5.55002 -5.37766 0
M  V30 2059 H 211.642 4.99612 -4.83128 0
M  V30 2060 H 214.833 3.56016 -3.03924 0
M  V30 2061 H 215.006 4.76061 -4.39624 0
M  V30 2062 N 208.412 0.89855 1.29475 0
M  V30 2063 C 209.652 0.530771 1.97388 0
M  V30 2064 C 210.016 -0.905832 1.69289 0
M  V30 2065 O 211.217 -1.38042 2.30646 0
M  V30 2066 C 209.488 0.81369 3.48014 0
M  V30 2067 S 211.047 0.550048 4.35339 0
M  V30 2068 H 207.865 0.196956 0.683176 0
M  V30 2069 H 210.467 1.16074 1.57312 0
M  V30 2070 H 209.171 1.85749 3.65958 0
M  V30 2071 H 208.702 0.171795 3.93025 0
M  V30 2072 H 210.717 -0.605423 4.92493 0
M  V30 2073 N 209.89 -1.43072 0.660911 0
M  V30 2074 C 211.139 -2.00942 0.174735 0
M  V30 2075 C 211.452 -1.52797 -1.22117 0
M  V30 2076 O 212.658 -2.02991 -1.80297 0
M  V30 2077 C 211.114 -3.58948 0.261559 0
M  V30 2078 C 210.722 -4.16085 1.66064 0
M  V30 2079 C 212.466 -4.24173 -0.166617 0
M  V30 2080 C 210.373 -5.6641 1.70098 0
M  V30 2081 H 209.303 -0.751483 0.0615631 0
M  V30 2082 H 211.954 -1.63955 0.824069 0
M  V30 2083 H 210.336 -3.93372 -0.455421 0
M  V30 2084 H 211.51 -3.93147 2.40359 0
M  V30 2085 H 209.825 -3.6326 2.03546 0
M  V30 2086 H 212.422 -5.34471 -0.156433 0
M  V30 2087 H 212.765 -3.98647 -1.19943 0
M  V30 2088 H 213.298 -3.94659 0.498875 0
M  V30 2089 H 210.037 -5.96715 2.71315 0
M  V30 2090 H 209.557 -5.91382 1.00139 0
M  V30 2091 H 211.236 -6.30585 1.44816 0
M  V30 2092 N 211.368 -0.403325 -1.52352 0
M  V30 2093 C 212.316 0.439752 -2.28405 0
M  V30 2094 C 213.31 1.05089 -1.32863 0
M  V30 2095 O 214.516 0.989759 -1.50345 0
M  V30 2096 H 210.891 0.160587 -0.734653 0
M  V30 2097 H 212.862 -0.222983 -2.97566 0
M  V30 2098 C 211.611 1.54736 -3.11371 0
M  V30 2099 H 210.934 1.08643 -3.84755 0
M  V30 2100 H 212.374 2.1112 -3.67701 0
M  V30 2101 C 210.833 2.51141 -2.24566 0
M  V30 2102 O 211.363 3.54887 -1.88196 0
M  V30 2103 N 209.569 2.21213 -1.8845 0
M  V30 2104 H 209.116 1.36878 -2.18225 0
M  V30 2105 H 209.074 2.85963 -1.30662 0
M  V30 2106 N 212.846 1.57033 -0.133567 0
M  V30 2107 C 214.074 2.00044 0.528195 0
M  V30 2108 C 214.489 1.01349 1.59291 0
M  V30 2109 O 213.846 0.00848369 1.82498 0
M  V30 2110 C 213.897 3.43018 1.1411 0
M  V30 2111 O 213.618 4.37939 0.11892 0
M  V30 2112 C 215.119 4.01237 1.88477 0
M  V30 2113 H 212.339 0.656517 0.138661 0
M  V30 2114 H 214.883 2.03267 -0.224196 0
M  V30 2115 H 213.038 3.40688 1.84418 0
M  V30 2116 H 213.452 5.21436 0.56613 0
M  V30 2117 H 214.926 5.03314 2.26669 0
M  V30 2118 H 215.403 3.41193 2.76558 0
M  V30 2119 H 216.009 4.07156 1.22898 0
M  V30 2120 N 214.325 -0.140222 1.56975 0
M  V30 2121 C 215.55 -0.870414 1.88251 0
M  V30 2122 C 215.975 -1.73637 0.723312 0
M  V30 2123 O 215.333 -1.78329 -0.32689 0
M  V30 2124 C 215.381 -1.69737 3.18154 0
M  V30 2125 O 214.485 -2.80229 3.02565 0
M  V30 2126 H 213.826 -0.242025 0.61832 0
M  V30 2127 H 216.356 -0.128999 2.04193 0
M  V30 2128 H 216.366 -2.09099 3.50345 0
M  V30 2129 H 215.041 -1.06152 4.02125 0
M  V30 2130 H 213.618 -2.44224 2.81796 0
M  V30 2131 N 215.803 -1.52179 -0.40978 0
M  V30 2132 C 217.214 -1.58377 -0.988615 0
M  V30 2133 C 217.565 -0.423879 -1.91566 0
M  V30 2134 O 216.69 0.455844 -2.11544 0
M  V30 2135 C 217.285 -2.87044 -1.79976 0
M  V30 2136 C 215.844 -2.95722 -2.32863 0
M  V30 2137 C 214.991 -2.53309 -1.12828 0
M  V30 2138 H 217.942 -1.57558 -0.190039 0
M  V30 2139 H 217.963 -2.7236 -2.65707 0
M  V30 2140 H 217.475 -3.71444 -1.12478 0
M  V30 2141 H 215.576 -2.15814 -3.03735 0
M  V30 2142 H 215.689 -3.99951 -2.63773 0
M  V30 2143 H 214.053 -2.07142 -1.48204 0
M  V30 2144 H 214.836 -3.40082 -0.46897 0
M  V30 2145 N 217.281 0.66697 -1.42791 0
M  V30 2146 C 218.529 1.42417 -1.43394 0
M  V30 2147 C 218.85 1.94925 -0.0542373 0
M  V30 2148 O 218.12 1.73564 0.908415 0
M  V30 2149 H 216.7 0.528515 -0.527902 0
M  V30 2150 H 219.362 0.787562 -1.78279 0
M  V30 2151 H 218.458 2.27333 -2.13837 0
M  V30 2152 N 218.759 1.29093 0.90403 0
M  V30 2153 C 220.006 1.16813 1.65411 0
M  V30 2154 C 220.334 -0.28128 1.92455 0
M  V30 2155 O 219.589 -1.22006 1.53013 0
M  V30 2156 C 219.888 1.92224 3.01305 0
M  V30 2157 C 219.554 3.41968 2.93885 0
M  V30 2158 C 218.216 3.82807 2.91569 0
M  V30 2159 C 220.568 4.37409 2.83413 0
M  V30 2160 C 217.896 5.1741 2.76594 0
M  V30 2161 C 220.248 5.72097 2.69977 0
M  V30 2162 C 218.912 6.12199 2.66024 0
M  V30 2163 H 218.182 0.42745 0.605283 0
M  V30 2164 H 220.829 1.59981 1.05254 0
M  V30 2165 H 219.134 1.41635 3.65304 0
M  V30 2166 H 220.831 1.80131 3.58265 0
M  V30 2167 H 217.421 3.09504 2.96488 0
M  V30 2168 H 221.605 4.06813 2.84283 0
M  V30 2169 H 216.861 5.47596 2.71935 0
M  V30 2170 H 221.035 6.45704 2.60844 0
M  V30 2171 H 218.662 7.16448 2.54178 0
M  V30 2172 N 220.237 -1.11381 1.11499 0
M  V30 2173 C 221.653 -1.35143 0.849031 0
M  V30 2174 C 221.853 -1.94515 -0.525938 0
M  V30 2175 O 220.909 -2.1785 -1.27662 0
M  V30 2176 C 222.222 -2.28249 1.95762 0
M  V30 2177 C 223.77 -2.41812 1.98736 0
M  V30 2178 C 224.245 -3.3824 3.088 0
M  V30 2179 N 225.736 -3.45803 3.08179 0
M  V30 2180 C 226.471 -4.20358 3.89982 0
M  V30 2181 N 225.967 -4.97884 4.8175 0
M  V30 2182 N 227.76 -4.15877 3.78157 0
M  V30 2183 H 219.911 -0.712062 2.00109 0
M  V30 2184 H 222.174 -0.376025 0.870235 0
M  V30 2185 H 221.88 -1.91817 2.94787 0
M  V30 2186 H 221.754 -3.28473 1.85433 0
M  V30 2187 H 224.141 -2.77518 1.00338 0
M  V30 2188 H 224.222 -1.41437 2.13141 0
M  V30 2189 H 223.866 -3.03261 4.07425 0
M  V30 2190 H 223.796 -4.38471 2.91635 0
M  V30 2191 H 226.287 -2.90506 2.41691 0
M  V30 2192 H 226.6 -5.52142 5.40702 0
M  V30 2193 H 224.945 -4.97043 4.85771 0
M  V30 2194 H 228.136 -3.544 3.05808 0
M  V30 2195 H 228.309 -4.73723 4.42143 0
M  V30 2196 N 221.715 -0.905404 -1.28997 0
M  V30 2197 C 222.955 -0.541232 -1.97104 0
M  V30 2198 C 223.319 0.896841 -1.69767 0
M  V30 2199 O 224.52 1.36817 -2.31375 0
M  V30 2200 C 222.791 -0.832134 -3.47578 0
M  V30 2201 S 224.35 -0.573127 -4.35041 0
M  V30 2202 H 221.168 -0.200576 -0.682122 0
M  V30 2203 H 223.77 -1.16906 -1.56694 0
M  V30 2204 H 222.474 -1.87687 -3.64968 0
M  V30 2205 H 222.005 -0.192636 -3.92928 0
M  V30 2206 H 224.02 0.579297 -4.92807 0
M  V30 2207 N 223.193 1.4272 -0.668489 0
M  V30 2208 C 224.103 2.34596 0.0139753 0
M  V30 2209 C 225.119 1.5474 0.795703 0
M  V30 2210 O 226.295 1.87334 0.739466 0
M  V30 2211 C 223.36 3.33202 0.957982 0
M  V30 2212 C 222.421 4.28957 0.17149 0
M  V30 2213 C 221.654 5.22853 1.07053 0
M  V30 2214 O 221.877 5.21531 2.31001 0
M  V30 2215 O 220.811 5.9952 0.534727 0
M  V30 2216 H 224.637 2.9448 -0.742661 0
M  V30 2217 H 222.222 1.43117 -0.428705 0
M  V30 2218 H 224.104 3.93796 1.50008 0
M  V30 2219 H 222.779 2.758 1.69458 0
M  V30 2220 H 221.686 3.71796 -0.414558 0
M  V30 2221 H 223.019 4.89383 -0.52586 0
M  V30 2222 N 224.671 0.411399 1.52136 0
M  V30 2223 C 225.634 -0.401089 2.25663 0
M  V30 2224 C 226.634 -0.971732 1.28117 0
M  V30 2225 O 227.824 -0.850254 1.52041 0
M  V30 2226 C 224.956 -1.56483 3.02863 0
M  V30 2227 H 226.149 0.24295 2.98914 0
M  V30 2228 H 223.702 0.163968 1.55438 0
M  V30 2229 H 224.437 -2.24567 2.33967 0
M  V30 2230 H 224.222 -1.16211 3.74483 0
M  V30 2231 H 225.712 -2.13951 3.58629 0
M  V30 2232 N 226.149 -1.5696 0.141893 0
M  V30 2233 C 227.389 -1.9785 -0.513304 0
M  V30 2234 C 227.753 -1.02467 -1.62371 0
M  V30 2235 O 228.954 -1.32382 -2.33941 0
M  V30 2236 C 227.225 -3.42797 -1.01118 0
M  V30 2237 S 228.784 -4.05709 -1.67169 0
M  V30 2238 H 225.602 -0.691318 -0.166135 0
M  V30 2239 H 228.204 -1.94114 0.232398 0
M  V30 2240 H 226.908 -4.0995 -0.192179 0
M  V30 2241 H 226.439 -3.50235 -1.79162 0
M  V30 2242 H 228.454 -3.98342 -2.95868 0
M  V30 2243 N 227.627 0.131896 -1.57047 0
M  V30 2244 C 229.038 0.690407 -1.73465 0
M  V30 2245 C 229.389 1.8094 -0.758629 0
M  V30 2246 O 228.514 2.16282 0.0713813 0
M  V30 2247 C 229.109 1.25916 -3.14532 0
M  V30 2248 C 227.668 1.76409 -3.32501 0
M  V30 2249 C 226.815 0.658579 -2.69366 0
M  V30 2250 H 229.766 -0.0939144 -1.58422 0
M  V30 2251 H 229.787 2.12892 -3.15369 0
M  V30 2252 H 229.299 0.444515 -3.85546 0
M  V30 2253 H 227.4 2.60391 -2.66509 0
M  V30 2254 H 227.513 1.88241 -4.4057 0
M  V30 2255 H 225.877 1.08899 -2.30246 0
M  V30 2256 H 226.66 -0.14487 -3.42994 0
M  V30 2257 N 229.106 1.52395 0.401703 0
M  V30 2258 C 230.517 1.58899 0.980202 0
M  V30 2259 C 230.868 0.434032 1.91339 0
M  V30 2260 O 229.993 -0.444619 2.11783 0
M  V30 2261 C 230.588 2.87994 1.78451 0
M  V30 2262 C 229.147 2.96953 2.31292 0
M  V30 2263 C 228.294 2.53903 1.11483 0
M  V30 2264 H 231.245 1.57657 0.18168 0
M  V30 2265 H 231.266 2.73765 2.64259 0
M  V30 2266 H 230.778 3.72035 1.10506 0
M  V30 2267 H 228.879 2.17422 3.02586 0
M  V30 2268 H 228.992 4.01344 2.61649 0
M  V30 2269 H 227.356 2.07925 1.47104 0
M  V30 2270 H 228.139 3.40326 0.450928 0
M  V30 2271 N 230.584 -0.659388 1.43143 0
M  V30 2272 C 231.832 -1.41654 1.44147 0
M  V30 2273 C 232.153 -1.94893 0.0645739 0
M  V30 2274 O 231.423 -1.74044 -0.899198 0
M  V30 2275 H 230.003 -0.525708 0.530697 0
M  V30 2276 H 232.665 -0.778097 1.78694 0
M  V30 2277 H 231.761 -2.26195 2.1504 0
M  V30 2278 N 232.062 -1.29571 -0.897171 0
M  V30 2279 C 233.292 -1.20408 -1.67886 0
M  V30 2280 C 233.7 0.237429 -1.87704 0
M  V30 2281 O 233.043 1.17048 -1.41582 0
M  V30 2282 C 233.105 -1.84887 -3.08314 0
M  V30 2283 C 232.769 -3.34189 -3.11716 0
M  V30 2284 C 233.766 -4.30374 -2.91675 0
M  V30 2285 C 231.451 -3.75431 -3.33701 0
M  V30 2286 C 233.445 -5.65776 -2.93557 0
M  V30 2287 C 231.132 -5.10955 -3.35214 0
M  V30 2288 C 232.13 -6.05938 -3.15164 0
M  V30 2289 O 231.818 -7.38987 -3.1647 0
M  V30 2290 H 231.55 -0.418289 -0.531046 0
M  V30 2291 H 234.104 -1.71514 -1.13014 0
M  V30 2292 H 232.334 -1.28295 -3.64798 0
M  V30 2293 H 234.023 -1.70011 -3.6858 0
M  V30 2294 H 234.789 -3.99844 -2.74499 0
M  V30 2295 H 230.668 -3.01953 -3.48347 0
M  V30 2296 H 234.212 -6.39889 -2.77826 0
M  V30 2297 H 230.109 -5.4113 -3.51922 0
M  V30 2298 H 230.877 -7.47823 -3.3272 0
M  V30 2299 N 233.54 1.10788 -1.12088 0
M  V30 2300 C 234.765 1.87002 -0.896949 0
M  V30 2301 C 235.19 1.79933 0.548261 0
M  V30 2302 O 234.548 1.16662 1.38779 0
M  V30 2303 C 234.596 3.3349 -1.37174 0
M  V30 2304 O 233.7 4.08745 -0.547831 0
M  V30 2305 H 233.041 0.580397 -0.322545 0
M  V30 2306 H 235.571 1.39996 -1.49206 0
M  V30 2307 H 235.581 3.84339 -1.36922 0
M  V30 2308 H 234.256 3.37951 -2.42408 0
M  V30 2309 H 232.833 3.6776 -0.617034 0
M  V30 2310 N 235.018 0.912232 1.28515 0
M  V30 2311 C 236.266 0.543523 1.94654 0
M  V30 2312 C 236.587 -0.9155 1.72173 0
M  V30 2313 O 235.857 -1.64708 1.06058 0
M  V30 2314 H 234.437 0.198017 0.720277 0
M  V30 2315 H 237.099 1.16126 1.56527 0
M  V30 2316 H 236.195 0.736684 3.03281 0
M  V30 2317 N 236.496 -1.42363 0.676048 0
M  V30 2318 C 237.907 -1.84649 0.275948 0
M  V30 2319 C 238.258 -1.56588 -1.18214 0
M  V30 2320 O 237.383 -1.02634 -1.90513 0
M  V30 2321 C 237.978 -3.35178 0.494053 0
M  V30 2322 C 236.537 -3.76109 0.148061 0
M  V30 2323 C 235.684 -2.65931 0.785891 0
M  V30 2324 H 238.635 -1.32192 0.878121 0
M  V30 2325 H 238.656 -3.79655 -0.25343 0
M  V30 2326 H 238.168 -3.55571 1.55535 0
M  V30 2327 H 236.269 -3.61323 -0.909742 0
M  V30 2328 H 236.382 -4.7546 0.589454 0
M  V30 2329 H 234.746 -2.53773 0.217113 0
M  V30 2330 H 235.529 -2.89146 1.85067 0
M  V30 2331 N 237.974 -0.419461 -1.51915 0
M  V30 2332 C 239.202 0.152136 -2.0634 0
M  V30 2333 C 239.617 1.37988 -1.28859 0
M  V30 2334 O 238.974 1.79243 -0.343232 0
M  V30 2335 C 239.025 0.492266 -3.58133 0
M  V30 2336 O 238.746 -0.686736 -4.32684 0
M  V30 2337 C 240.247 1.11648 -4.2901 0
M  V30 2338 H 237.467 0.0158325 -0.670813 0
M  V30 2339 H 240.011 -0.593394 -1.95702 0
M  V30 2340 H 238.166 1.18769 -3.68745 0
M  V30 2341 H 238.58 -0.400341 -5.2297 0
M  V30 2342 H 240.054 1.3046 -5.36362 0
M  V30 2343 H 240.531 2.09251 -3.86148 0
M  V30 2344 H 241.137 0.460958 -4.22795 0
M  V30 2345 N 239.452 1.56882 -0.150215 0
M  V30 2346 C 240.402 2.13501 0.800071 0
M  V30 2347 C 241.386 1.06368 1.20726 0
M  V30 2348 O 242.578 1.32538 1.17314 0
M  V30 2349 C 239.707 2.76271 2.03787 0
M  V30 2350 C 238.793 3.90533 1.65364 0
M  V30 2351 N 239.184 4.96259 0.977794 0
M  V30 2352 C 237.482 4.013 1.94613 0
M  V30 2353 C 238.183 5.76286 0.791794 0
M  V30 2354 N 237.159 5.27163 1.32666 0
M  V30 2355 H 240.961 2.92615 0.274517 0
M  V30 2356 H 238.475 1.62319 0.0512144 0
M  V30 2357 H 240.472 3.15197 2.72867 0
M  V30 2358 H 239.132 1.98631 2.56857 0
M  V30 2359 H 240.143 5.13953 0.638193 0
M  V30 2360 H 236.82 3.3474 2.4951 0
M  V30 2361 H 238.21 6.71401 0.258894 0
M  V30 2362 N 240.93 -0.123565 1.57115 0
M  V30 2363 C 241.862 -1.17739 1.96648 0
M  V30 2364 C 242.875 -1.37906 0.865201 0
M  V30 2365 O 244.064 -1.37062 1.14351 0
M  V30 2366 C 241.164 -2.53821 2.24562 0
M  V30 2367 C 240.337 -2.54317 3.55867 0
M  V30 2368 C 239.396 -3.72112 3.72047 0
M  V30 2369 O 238.422 -3.55907 4.44206 0
M  V30 2370 N 239.624 -4.90498 3.10471 0
M  V30 2371 H 242.389 -0.841147 2.87654 0
M  V30 2372 H 239.95 -0.31289 1.58848 0
M  V30 2373 H 241.942 -3.31175 2.32606 0
M  V30 2374 H 240.512 -2.79645 1.39705 0
M  V30 2375 H 239.732 -1.62711 3.59053 0
M  V30 2376 H 241.02 -2.51701 4.42181 0
M  V30 2377 H 240.418 -5.06567 2.51806 0
M  V30 2378 H 238.975 -5.65544 3.24043 0
M  V30 2379 N 242.408 -1.52605 -0.393616 0
M  V30 2380 C 243.656 -1.67093 -1.13685 0
M  V30 2381 C 243.977 -0.411011 -1.90619 0
M  V30 2382 O 243.247 0.574491 -1.87287 0
M  V30 2383 H 241.827 -0.615923 -0.422668 0
M  V30 2384 H 244.489 -1.89704 -0.447039 0
M  V30 2385 H 243.585 -2.51922 -1.84232 0
M  V30 2386 N 243.887 0.651787 -1.4349 0
M  V30 2387 C 245.133 1.41376 -1.45398 0
M  V30 2388 C 245.466 1.94041 -0.0784823 0
M  V30 2389 O 244.741 1.72379 0.900878 0
M  V30 2390 C 245.024 2.59414 -2.49752 0
M  V30 2391 C 244.877 2.12232 -3.96582 0
M  V30 2392 C 246.196 3.61626 -2.50827 0
M  V30 2393 H 243.315 0.512719 -0.529422 0
M  V30 2394 H 245.957 0.738796 -1.75048 0
M  V30 2395 H 244.107 3.16997 -2.246 0
M  V30 2396 H 245.779 1.59639 -4.32797 0
M  V30 2397 H 244.022 1.43592 -4.09346 0
M  V30 2398 H 244.693 2.9712 -4.65214 0
M  V30 2399 H 247.169 3.13805 -2.7325 0
M  V30 2400 H 246.045 4.41766 -3.25783 0
M  V30 2401 H 246.306 4.14314 -1.5426 0
M  V30 2402 N 245.365 1.30045 0.890287 0
M  V30 2403 C 246.613 1.18327 1.63839 0
M  V30 2404 C 246.934 -0.263455 1.93212 0
M  V30 2405 O 246.204 -1.17856 1.56482 0
M  V30 2406 H 244.784 0.434933 0.607324 0
M  V30 2407 H 247.446 1.631 1.06698 0
M  V30 2408 H 246.542 1.74024 2.59079 0
M  V30 2409 N 246.843 -1.10192 1.12674 0
M  V30 2410 C 247.773 -2.18652 0.819362 0
M  V30 2411 C 248.754 -1.68698 -0.217915 0
M  V30 2412 O 249.939 -1.94041 -0.0785581 0
M  V30 2413 C 247.069 -3.46202 0.27594 0
M  V30 2414 C 246.023 -4.09444 1.24656 0
M  V30 2415 C 245.349 -5.31725 0.563258 0
M  V30 2416 C 246.649 -4.52863 2.60217 0
M  V30 2417 H 248.343 -2.44622 1.72628 0
M  V30 2418 H 245.889 -1.17571 0.831451 0
M  V30 2419 H 247.842 -4.21372 0.0486149 0
M  V30 2420 H 246.566 -3.1973 -0.666331 0
M  V30 2421 H 245.225 -3.36284 1.45974 0
M  V30 2422 H 244.873 -5.0153 -0.384235 0
M  V30 2423 H 244.573 -5.74991 1.21075 0
M  V30 2424 H 246.097 -6.09624 0.34503 0
M  V30 2425 H 247.511 -5.19294 2.42913 0
M  V30 2426 H 245.908 -5.06986 3.21068 0
M  V30 2427 H 246.978 -3.65656 3.18471 0
M  V30 2428 N 248.321 -0.919034 -1.28029 0
M  V30 2429 C 249.284 -0.416182 -2.2539 0
M  V30 2430 C 250.284 0.460438 -1.54067 0
M  V30 2431 O 251.474 0.262744 -1.72207 0
M  V30 2432 C 248.606 0.402707 -3.38513 0
M  V30 2433 H 249.799 -1.27629 -2.71387 0
M  V30 2434 H 247.352 -0.698919 -1.39803 0
M  V30 2435 H 248.087 1.282 -2.97885 0
M  V30 2436 H 247.872 -0.225698 -3.9145 0
M  V30 2437 H 249.362 0.745191 -4.10897 0
M  V30 2438 N 249.799 1.42003 -0.683588 0
M  V30 2439 C 251.046 2.01413 -0.209514 0
M  V30 2440 C 251.374 1.54088 1.1869 0
M  V30 2441 O 250.629 0.737591 1.81268 0
M  V30 2442 C 250.928 3.56827 -0.202357 0
M  V30 2443 C 250.594 4.23617 -1.54464 0
M  V30 2444 C 249.256 4.41577 -1.91215 0
M  V30 2445 C 251.608 4.61178 -2.42826 0
M  V30 2446 C 248.936 4.9437 -3.15935 0
M  V30 2447 C 251.288 5.15355 -3.66867 0
M  V30 2448 C 249.952 5.31528 -4.03776 0
M  V30 2449 H 249.222 0.737023 -0.0766668 0
M  V30 2450 H 251.869 1.70067 -0.880312 0
M  V30 2451 H 250.174 3.87892 0.551969 0
M  V30 2452 H 251.871 4.00588 0.181793 0
M  V30 2453 H 248.461 4.10004 -1.24877 0
M  V30 2454 H 252.645 4.46968 -2.15717 0
M  V30 2455 H 247.901 5.05076 -3.44541 0
M  V30 2456 H 252.075 5.43402 -4.35531 0
M  V30 2457 H 249.702 5.72199 -5.00492 0
M  V30 2458 N 251.277 0.427512 1.51691 0
M  V30 2459 C 252.24 -0.377132 2.26076 0
M  V30 2460 C 253.24 -0.958089 1.29141 0
M  V30 2461 O 254.43 -0.83408 1.52934 0
M  V30 2462 C 251.562 -1.53262 3.04506 0
M  V30 2463 H 252.755 0.27464 2.9864 0
M  V30 2464 H 250.308 0.180445 1.55255 0
M  V30 2465 H 251.043 -2.22072 2.36335 0
M  V30 2466 H 250.828 -1.12232 3.75694 0
M  V30 2467 H 252.318 -2.10135 3.60878 0
M  V30 2468 N 252.755 -1.56801 0.158532 0
M  V30 2469 C 253.702 -2.17337 -0.776729 0
M  V30 2470 C 254.672 -1.1096 -1.23601 0
M  V30 2471 O 255.857 -1.39054 -1.30647 0
M  V30 2472 C 252.997 -2.80822 -2.00582 0
M  V30 2473 C 252.11 -4.01624 -1.59129 0
M  V30 2474 C 251.245 -4.53072 -2.77306 0
M  V30 2475 C 250.284 -5.66314 -2.32282 0
M  V30 2476 N 249.421 -6.12329 -3.43508 0
M  V30 2477 H 254.261 -2.96918 -0.253701 0
M  V30 2478 H 251.798 -1.46661 -0.113504 0
M  V30 2479 H 253.756 -3.15779 -2.72652 0
M  V30 2480 H 252.386 -2.03866 -2.50277 0
M  V30 2481 H 251.438 -3.72571 -0.767806 0
M  V30 2482 H 252.75 -4.83633 -1.2207 0
M  V30 2483 H 251.904 -4.90145 -3.57551 0
M  V30 2484 H 250.643 -3.70095 -3.17617 0
M  V30 2485 H 249.648 -5.28806 -1.5048 0
M  V30 2486 H 250.873 -6.51085 -1.93043 0
M  V30 2487 H 248.819 -5.32284 -3.83418 0
M  V30 2488 H 248.736 -6.89293 -3.105 0
M  V30 2489 H 250.004 -6.5405 -4.24075 0
M  V30 2490 N 254.233 0.115231 -1.57178 0
M  V30 2491 C 255.196 1.12526 -1.99676 0
M  V30 2492 C 256.196 1.34095 -0.88742 0
M  V30 2493 O 257.386 1.30548 -1.15337 0
M  V30 2494 C 254.518 2.4789 -2.34015 0
M  V30 2495 H 255.711 0.759912 -2.90113 0
M  V30 2496 H 253.264 0.359648 -1.52106 0
M  V30 2497 H 253.999 2.89339 -1.4647 0
M  V30 2498 H 253.784 2.33588 -3.14927 0
M  V30 2499 H 255.274 3.20575 -2.67622 0
M  V30 2500 N 255.711 1.52812 0.385517 0
M  V30 2501 C 256.659 1.78482 1.49155 0
M  V30 2502 C 257.653 0.652914 1.56312 0
M  V30 2503 O 258.859 0.835464 1.59436 0
M  V30 2504 H 255.234 0.5648 0.496493 0
M  V30 2505 H 257.205 2.71095 1.24699 0
M  V30 2506 C 255.954 1.97378 2.86247 0
M  V30 2507 H 255.277 2.83907 2.81491 0
M  V30 2508 H 256.717 2.19327 3.62866 0
M  V30 2509 C 255.176 0.74728 3.28508 0
M  V30 2510 O 255.706 -0.0736232 4.01633 0
M  V30 2511 N 253.912 0.576396 2.84826 0
M  V30 2512 H 253.459 1.24555 2.25486 0
M  V30 2513 H 253.417 -0.24288 3.1346 0
M  V30 2514 N 257.189 -0.644168 1.43834 0
M  V30 2515 C 258.136 -1.75671 1.49694 0
M  V30 2516 C 259.106 -1.6246 0.345809 0
M  V30 2517 O 260.291 -1.82573 0.554234 0
M  V30 2518 C 257.431 -3.13867 1.43463 0
M  V30 2519 C 256.544 -3.38147 2.6885 0
M  V30 2520 C 255.679 -4.66241 2.54544 0
M  V30 2521 C 254.718 -4.83657 3.75157 0
M  V30 2522 N 253.855 -6.03016 3.59605 0
M  V30 2523 H 258.695 -1.69998 2.44754 0
M  V30 2524 H 256.232 -0.829458 1.21484 0
M  V30 2525 H 258.19 -3.9377 1.37843 0
M  V30 2526 H 256.82 -3.18588 0.519783 0
M  V30 2527 H 255.872 -2.52276 2.84712 0
M  V30 2528 H 257.184 -3.46899 3.58417 0
M  V30 2529 H 256.338 -5.54285 2.46683 0
M  V30 2530 H 255.077 -4.59826 1.62516 0
M  V30 2531 H 254.082 -3.94046 3.83416 0
M  V30 2532 H 255.307 -4.91896 4.68204 0
M  V30 2533 H 253.253 -5.97715 2.7032 0
M  V30 2534 H 253.17 -6.12766 4.42779 0
M  V30 2535 H 254.438 -6.93657 3.55613 0
M  V30 2536 N 258.668 -1.30515 -0.883378 0
M  V30 2537 C 259.6 -1.12846 -1.99496 0
M  V30 2538 C 260.613 -0.0712571 -1.62644 0
M  V30 2539 O 261.802 -0.317432 -1.75655 0
M  V30 2540 C 258.902 -0.699123 -3.3161 0
M  V30 2541 C 258.075 -1.83842 -3.96889 0
M  V30 2542 C 257.134 -1.39737 -5.07307 0
M  V30 2543 O 256.16 -2.10485 -5.28852 0
M  V30 2544 N 257.362 -0.277279 -5.79837 0
M  V30 2545 H 260.127 -2.08585 -2.15203 0
M  V30 2546 H 257.688 -1.22672 -1.05656 0
M  V30 2547 H 259.68 -0.387044 -4.02845 0
M  V30 2548 H 258.25 0.166276 -3.12157 0
M  V30 2549 H 257.47 -2.31853 -3.18807 0
M  V30 2550 H 258.758 -2.60187 -4.37241 0
M  V30 2551 H 258.156 0.3122 -5.64838 0
M  V30 2552 H 256.713 -0.0246623 -6.51795 0
M  V30 2553 N 260.146 1.09593 -1.13257 0
M  V30 2554 C 261.392 1.82003 -0.89458 0
M  V30 2555 C 261.725 1.85402 0.577906 0
M  V30 2556 O 261 1.32099 1.42759 0
M  V30 2557 C 261.283 3.28237 -1.48096 0
M  V30 2558 C 261.136 3.3312 -3.02244 0
M  V30 2559 C 262.455 4.24871 -1.14774 0
M  V30 2560 H 259.574 0.66077 -0.326424 0
M  V30 2561 H 262.216 1.28389 -1.40058 0
M  V30 2562 H 260.366 3.74024 -1.05062 0
M  V30 2563 H 262.038 2.95748 -3.54021 0
M  V30 2564 H 260.281 2.72756 -3.37323 0
M  V30 2565 H 260.952 4.3613 -3.38371 0
M  V30 2566 H 263.428 3.87361 -1.51957 0
M  V30 2567 H 262.304 5.25532 -1.58452 0
M  V30 2568 H 262.565 4.42058 -0.0611849 0
M  V30 2569 N 261.624 0.925811 1.2754 0
M  V30 2570 C 262.864 0.572521 1.96218 0
M  V30 2571 C 263.228 -0.869719 1.71172 0
M  V30 2572 O 264.429 -1.33119 2.33523 0
M  V30 2573 C 262.7 0.887325 3.4621 0
M  V30 2574 S 264.259 0.642266 4.34074 0
M  V30 2575 H 261.077 0.211403 0.678845 0
M  V30 2576 H 263.679 1.19384 1.54815 0
M  V30 2577 H 262.383 1.93469 3.61936 0
M  V30 2578 H 261.914 0.255123 3.92572 0
M  V30 2579 H 263.929 -0.500822 4.93666 0
M  V30 2580 N 263.102 -1.41638 0.69111 0
M  V30 2581 C 264.33 -2.05628 0.22909 0
M  V30 2582 C 264.745 -1.51992 -1.11999 0
M  V30 2583 O 264.102 -0.666322 -1.69901 0
M  V30 2584 C 264.153 -3.61084 0.173283 0
M  V30 2585 O 263.874 -4.12735 1.46907 0
M  V30 2586 C 265.375 -4.42213 -0.310266 0
M  V30 2587 H 262.595 -0.662327 0.107534 0
M  V30 2588 H 265.139 -1.81489 0.942438 0
M  V30 2589 H 263.294 -3.84278 -0.490858 0
M  V30 2590 H 263.708 -5.06743 1.35322 0
M  V30 2591 H 265.182 -5.51194 -0.298196 0
M  V30 2592 H 265.659 -4.1799 -1.34838 0
M  V30 2593 H 266.265 -4.24074 0.322716 0
M  V30 2594 N 264.58 -0.43555 -1.51462 0
M  V30 2595 C 265.857 0.191364 -1.94662 0
M  V30 2596 C 266.237 1.60254 -1.37411 0
M  V30 2597 O 265.585 2.2152 -0.560458 0
M  V30 2598 C 265.795 0.17091 -3.48581 0
M  V30 2599 C 267.143 0.377357 -4.2292 0
M  V30 2600 O 268.167 0.249104 -3.55328 0
M  V30 2601 O 267.026 0.63247 -5.42828 0
M  V30 2602 H 264.12 0.130932 -0.816569 0
M  V30 2603 H 266.666 -0.4934 -1.62369 0
M  V30 2604 H 265.438 -0.815738 -3.82703 0
M  V30 2605 H 265.061 0.898659 -3.87311 0
M  V30 2606 N 266.058 1.56714 -0.166846 0
M  V30 2607 C 267.307 1.95922 0.479318 0
M  V30 2608 C 267.62 1.05529 1.6469 0
M  V30 2609 O 268.826 1.34399 2.35901 0
M  V30 2610 C 267.282 3.48359 0.90412 0
M  V30 2611 C 266.89 4.47369 -0.237621 0
M  V30 2612 C 268.634 3.96394 1.51896 0
M  V30 2613 C 266.541 5.91039 0.206561 0
M  V30 2614 H 265.471 0.731495 0.18284 0
M  V30 2615 H 268.122 1.81728 -0.254363 0
M  V30 2616 H 266.504 3.57955 1.69365 0
M  V30 2617 H 267.678 4.49485 -1.01489 0
M  V30 2618 H 265.993 4.09366 -0.762128 0
M  V30 2619 H 268.59 5.01186 1.86325 0
M  V30 2620 H 268.933 3.39075 2.41524 0
M  V30 2621 H 269.466 3.89796 0.79395 0
M  V30 2622 H 266.205 6.52221 -0.654834 0
M  V30 2623 H 265.725 5.9224 0.949282 0
M  V30 2624 H 267.404 6.43707 0.651939 0
M  V30 2625 N 267.536 -0.106894 1.57237 0
M  V30 2626 C 268.484 -1.14944 2.02215 0
M  V30 2627 C 269.478 -1.42167 0.92114 0
M  V30 2628 O 270.684 -1.41987 1.10634 0
M  V30 2629 H 267.059 -0.387841 0.64427 0
M  V30 2630 H 269.03 -0.743683 2.88984 0
M  V30 2631 C 267.779 -2.4647 2.4525 0
M  V30 2632 H 267.102 -2.26363 3.29545 0
M  V30 2633 H 268.542 -3.17948 2.80508 0
M  V30 2634 C 267.001 -3.09921 1.321 0
M  V30 2635 O 267.531 -3.9651 0.643622 0
M  V30 2636 N 265.737 -2.69986 1.07497 0
M  V30 2637 H 265.284 -1.99667 1.62761 0
M  V30 2638 H 265.242 -3.12769 0.319876 0
M  V30 2639 N 269.014 -1.53014 -0.377408 0
M  V30 2640 C 269.924 -1.81557 -1.48574 0
M  V30 2641 C 270.94 -0.703102 -1.59162 0
M  V30 2642 O 272.116 -0.99192 -1.75279 0
M  V30 2643 C 269.181 -1.9889 -2.83978 0
M  V30 2644 C 268.242 -3.22801 -2.83016 0
M  V30 2645 C 267.475 -3.39298 -4.11962 0
M  V30 2646 O 267.698 -2.60345 -5.0752 0
M  V30 2647 O 266.632 -4.32604 -4.18494 0
M  V30 2648 H 270.458 -2.75695 -1.27382 0
M  V30 2649 H 268.043 -1.38248 -0.566373 0
M  V30 2650 H 269.925 -2.11931 -3.6423 0
M  V30 2651 H 268.6 -1.07942 -3.05172 0
M  V30 2652 H 267.507 -3.15193 -2.01505 0
M  V30 2653 H 268.84 -4.13632 -2.66775 0
M  V30 2654 N 270.492 0.636531 -1.44174 0
M  V30 2655 C 271.732 1.40781 -1.48189 0
M  V30 2656 C 272.096 1.91688 -0.10944 0
M  V30 2657 O 273.297 2.68789 -0.0242741 0
M  V30 2658 C 271.568 2.54575 -2.50851 0
M  V30 2659 S 273.127 3.4284 -2.73873 0
M  V30 2660 H 269.945 0.480345 -0.524204 0
M  V30 2661 H 272.547 0.737416 -1.81059 0
M  V30 2662 H 271.251 2.15478 -3.49281 0
M  V30 2663 H 270.782 3.26447 -2.19536 0
M  V30 2664 H 272.797 4.51846 -2.05059 0
M  V30 2665 N 271.97 1.30982 0.876444 0
M  V30 2666 C 272.88 1.2003 2.01569 0
M  V30 2667 C 273.896 0.11838 1.73597 0
M  V30 2668 O 275.072 0.33495 1.98595 0
M  V30 2669 C 272.137 0.901637 3.34771 0
M  V30 2670 C 271.198 2.06979 3.76109 0
M  V30 2671 C 270.431 1.78529 5.02954 0
M  V30 2672 O 270.654 0.717296 5.65872 0
M  V30 2673 O 269.588 2.64019 5.40905 0
M  V30 2674 H 273.414 2.15753 2.13739 0
M  V30 2675 H 270.999 1.10658 1.00375 0
M  V30 2676 H 272.881 0.750645 4.1466 0
M  V30 2677 H 271.556 -0.0256141 3.2369 0
M  V30 2678 H 270.463 2.27616 2.96887 0
M  V30 2679 H 271.796 2.97907 3.91807 0
M  V30 2680 N 273.449 -1.08991 1.13837 0
M  V30 2681 C 274.677 -1.85011 0.926202 0
M  V30 2682 C 275.092 -1.8135 -0.525127 0
M  V30 2683 O 274.449 -1.21287 -1.36366 0
M  V30 2684 C 274.5 -3.32802 1.41155 0
M  V30 2685 O 274.221 -3.36444 2.80601 0
M  V30 2686 C 275.722 -4.25649 1.23847 0
M  V30 2687 H 272.942 -0.584249 0.32999 0
M  V30 2688 H 275.486 -1.37688 1.51202 0
M  V30 2689 H 273.641 -3.77536 0.868631 0
M  V30 2690 H 274.055 -4.28657 3.02248 0
M  V30 2691 H 275.529 -5.27485 1.62675 0
M  V30 2692 H 276.006 -4.38828 0.18065 0
M  V30 2693 H 276.612 -3.86735 1.76964 0
M  V30 2694 N 274.927 -0.932562 -1.27047 0
M  V30 2695 C 276.175 -0.574422 -1.93765 0
M  V30 2696 C 276.496 0.887993 -1.73608 0
M  V30 2697 O 275.766 1.62999 -1.08665 0
M  V30 2698 H 274.346 -0.209451 -0.717035 0
M  V30 2699 H 277.008 -1.18601 -1.5466 0
M  V30 2700 H 276.104 -0.784841 -3.02071 0
M  V30 2701 N 276.405 1.4127 -0.698611 0
M  V30 2702 C 277.337 2.292 0.00399731 0
M  V30 2703 C 278.35 1.44944 0.741279 0
M  V30 2704 O 279.539 1.68416 0.591477 0
M  V30 2705 C 276.639 3.22875 1.02979 0
M  V30 2706 C 275.812 4.35904 0.36151 0
M  V30 2707 C 274.871 5.10134 1.29033 0
M  V30 2708 O 273.897 5.63809 0.781562 0
M  V30 2709 N 275.099 5.17885 2.6225 0
M  V30 2710 H 277.864 2.9014 -0.750921 0
M  V30 2711 H 275.425 1.52455 -0.544882 0
M  V30 2712 H 277.417 3.69404 1.65296 0
M  V30 2713 H 275.987 2.63221 1.68622 0
M  V30 2714 H 275.207 3.91719 -0.441584 0
M  V30 2715 H 276.495 5.08696 -0.103055 0
M  V30 2716 H 275.893 4.7573 3.061 0
M  V30 2717 H 274.45 5.6798 3.19754 0
M  V30 2718 N 277.883 0.443576 1.51229 0
M  V30 2719 C 278.833 -0.382787 2.24764 0
M  V30 2720 C 279.817 -0.984836 1.27239 0
M  V30 2721 O 281.009 -0.901943 1.52296 0
M  V30 2722 C 278.138 -1.47989 3.09765 0
M  V30 2723 C 277.224 -0.886931 4.14722 0
M  V30 2724 N 277.615 -0.0237103 5.05794 0
M  V30 2725 C 275.913 -1.15385 4.30816 0
M  V30 2726 C 276.614 0.309971 5.80874 0
M  V30 2727 N 275.59 -0.307989 5.42727 0
M  V30 2728 H 279.392 0.282624 2.92538 0
M  V30 2729 H 276.906 0.256027 1.60369 0
M  V30 2730 H 278.903 -2.08482 3.61027 0
M  V30 2731 H 277.563 -2.14758 2.43535 0
M  V30 2732 H 278.574 0.34318 5.16762 0
M  V30 2733 H 275.251 -1.81857 3.75812 0
M  V30 2734 H 276.641 1.01279 6.64223 0
M  V30 2735 N 279.361 -1.56624 0.175154 0
M  V30 2736 C 280.309 -2.19468 -0.770495 0
M  V30 2737 C 281.303 -1.15985 -1.23466 0
M  V30 2738 O 282.509 -1.34176 -1.19987 0
M  V30 2739 H 278.884 -0.703095 -0.266761 0
M  V30 2740 H 280.855 -2.97613 -0.216542 0
M  V30 2741 C 279.604 -2.85264 -1.98796 0
M  V30 2742 H 278.927 -3.64623 -1.63983 0
M  V30 2743 H 280.367 -3.327 -2.62843 0
M  V30 2744 C 278.826 -1.85239 -2.81404 0
M  V30 2745 O 279.356 -1.34024 -3.78682 0
M  V30 2746 N 277.562 -1.53911 -2.46495 0
M  V30 2747 H 277.109 -1.95751 -1.67449 0
M  V30 2748 H 277.067 -0.872382 -3.02054 0
M  V30 2749 N 280.839 0.0985539 -1.57292 0
M  V30 2750 C 282.079 0.808332 -1.87737 0
M  V30 2751 C 282.443 1.7607 -0.76572 0
M  V30 2752 O 283.644 2.51358 -0.952499 0
M  V30 2753 C 281.915 1.52093 -3.23423 0
M  V30 2754 S 283.474 2.26947 -3.75554 0
M  V30 2755 H 280.292 0.269377 -0.657995 0
M  V30 2756 H 282.894 0.0656269 -1.9539 0
M  V30 2757 H 281.598 0.81363 -4.02254 0
M  V30 2758 H 281.129 2.30361 -3.189 0
M  V30 2759 H 283.144 3.53027 -3.48692 0
M  V30 2760 N 282.317 1.53212 0.369288 0
M  V30 2761 C 283.563 1.69466 1.11397 0
M  V30 2762 C 283.896 0.443257 1.89074 0
M  V30 2763 O 283.171 -0.559386 1.86282 0
M  V30 2764 C 283.454 2.9422 2.07621 0
M  V30 2765 C 283.307 4.29508 1.33577 0
M  V30 2766 C 284.626 3.14565 3.07794 0
M  V30 2767 H 281.745 0.616667 0.403597 0
M  V30 2768 H 284.387 1.85845 0.395179 0
M  V30 2769 H 282.537 2.80387 2.68916 0
M  V30 2770 H 284.209 4.55147 0.750955 0
M  V30 2771 H 282.452 4.29088 0.637618 0
M  V30 2772 H 283.123 5.12926 2.03989 0
M  V30 2773 H 285.599 3.2756 2.56601 0
M  V30 2774 H 284.475 4.03297 3.72348 0
M  V30 2775 H 284.736 2.29675 3.77759 0
M  V30 2776 N 283.795 -0.628877 1.44509 0
M  V30 2777 C 285.206 -1.21054 1.42137 0
M  V30 2778 C 285.557 -1.95715 0.137881 0
M  V30 2779 O 284.682 -2.02554 -0.761645 0
M  V30 2780 C 285.277 -2.20189 2.57493 0
M  V30 2781 C 283.836 -2.73777 2.58308 0
M  V30 2782 C 282.983 -1.48813 2.33987 0
M  V30 2783 H 285.934 -0.41942 1.53057 0
M  V30 2784 H 285.955 -3.02833 2.30375 0
M  V30 2785 H 285.467 -1.6582 3.50892 0
M  V30 2786 H 283.568 -3.32142 1.68856 0
M  V30 2787 H 283.681 -3.19662 3.56865 0
M  V30 2788 H 282.045 -1.77024 1.83124 0
M  V30 2789 H 282.828 -0.963442 3.29504 0
M  V30 2790 N 285.273 -1.31445 -0.869486 0
M  V30 2791 C 286.221 -1.19067 -1.99814 0
M  V30 2792 C 287.215 -0.0988569 -1.69111 0
M  V30 2793 O 288.421 -0.260781 -1.78101 0
M  V30 2794 H 284.796 -0.368677 -0.655425 0
M  V30 2795 H 286.767 -2.14555 -2.07385 0
M  V30 2796 C 285.516 -0.915323 -3.35436 0
M  V30 2797 H 284.839 -1.74759 -3.59582 0
M  V30 2798 H 286.279 -0.868895 -4.15001 0
M  V30 2799 C 284.738 0.381928 -3.34728 0
M  V30 2800 O 285.268 1.39857 -3.76567 0
M  V30 2801 N 283.474 0.398633 -2.87853 0
M  V30 2802 H 283.021 -0.429186 -2.54 0
M  V30 2803 H 282.979 1.26651 -2.87762 0
M  V30 2804 N 286.751 1.08385 -1.14413 0
M  V30 2805 C 287.976 1.85057 -0.936413 0
M  V30 2806 C 288.401 1.81055 0.509971 0
M  V30 2807 O 287.759 1.1958 1.36273 0
M  V30 2808 C 287.807 3.30505 -1.44217 0
M  V30 2809 O 286.911 4.07491 -0.634409 0
M  V30 2810 H 286.252 0.573425 -0.334784 0
M  V30 2811 H 288.782 1.36799 -1.52142 0
M  V30 2812 H 288.792 3.81348 -1.45043 0
M  V30 2813 H 287.467 3.32734 -2.49522 0
M  V30 2814 H 286.044 3.66368 -0.694902 0
M  V30 2815 N 288.23 0.939286 1.26551 0
M  V30 2816 C 289.476 0.586715 1.94128 0
M  V30 2817 C 289.809 -0.8717 1.73537 0
M  V30 2818 O 289.084 -1.62339 1.07127 0
M  V30 2819 C 289.367 0.927497 3.4795 0
M  V30 2820 C 289.22 2.44052 3.77834 0
M  V30 2821 C 290.539 0.441569 4.37879 0
M  V30 2822 H 287.658 0.21463 0.705055 0
M  V30 2823 H 290.3 1.17316 1.49455 0
M  V30 2824 H 288.45 0.428431 3.8613 0
M  V30 2825 H 290.122 3.01216 3.4938 0
M  V30 2826 H 288.365 2.8848 3.23978 0
M  V30 2827 H 289.036 2.62947 4.85348 0
M  V30 2828 H 291.512 0.869448 4.06915 0
M  V30 2829 H 290.388 0.708856 5.44304 0
M  V30 2830 H 290.649 -0.658467 4.37169 0
M  V30 2831 N 289.708 -1.40897 0.706093 0
M  V30 2832 C 290.948 -2.02916 0.245827 0
M  V30 2833 C 291.312 -1.54751 -1.13649 0
M  V30 2834 O 292.513 -2.08768 -1.69321 0
M  V30 2835 C 290.784 -3.56031 0.312537 0
M  V30 2836 S 292.343 -4.38741 -0.0721388 0
M  V30 2837 H 289.161 -0.704186 0.0982007 0
M  V30 2838 H 291.763 -1.72168 0.926207 0
M  V30 2839 H 290.467 -3.88579 1.32039 0
M  V30 2840 H 289.998 -3.91495 -0.386641 0
M  V30 2841 H 292.013 -4.78952 -1.29692 0
M  V30 2842 N 291.186 -0.45159 -1.50991 0
M  V30 2843 C 292.435 0.111653 -2.01391 0
M  V30 2844 C 292.748 1.42529 -1.33959 0
M  V30 2845 O 293.954 2.07232 -1.75405 0
M  V30 2846 C 292.41 0.249514 -3.59034 0
M  V30 2847 C 292.018 -1.05453 -4.35412 0
M  V30 2848 C 293.762 0.765762 -4.17536 0
M  V30 2849 C 291.669 -0.881529 -5.84793 0
M  V30 2850 H 290.599 0.0455022 -0.752626 0
M  V30 2851 H 293.25 -0.583524 -1.73975 0
M  V30 2852 H 291.632 1.00803 -3.82955 0
M  V30 2853 H 292.806 -1.82248 -4.23229 0
M  V30 2854 H 291.121 -1.50039 -3.88429 0
M  V30 2855 H 293.718 0.911913 -5.26866 0
M  V30 2856 H 294.061 1.75201 -3.77638 0
M  V30 2857 H 294.594 0.0651744 -3.97747 0
M  V30 2858 H 291.333 -1.84057 -6.29129 0
M  V30 2859 H 290.853 -0.153625 -5.99603 0
M  V30 2860 H 292.532 -0.540363 -6.4474 0
M  V30 2861 N 292.664 1.56529 -0.183458 0
M  V30 2862 C 293.612 2.19873 0.758845 0
M  V30 2863 C 294.606 1.16638 1.22849 0
M  V30 2864 O 295.812 1.3481 1.19274 0
M  V30 2865 H 292.187 0.7045 0.263029 0
M  V30 2866 H 294.158 2.97724 0.200755 0
M  V30 2867 C 292.907 2.86314 1.9728 0
M  V30 2868 H 292.23 3.65487 1.62047 0
M  V30 2869 H 293.67 3.3409 2.61075 0
M  V30 2870 C 292.129 1.86729 2.80418 0
M  V30 2871 O 292.659 1.36031 3.77966 0
M  V30 2872 N 290.865 1.55216 2.45675 0
M  V30 2873 H 290.412 1.96636 1.66409 0
M  V30 2874 H 290.37 0.888388 3.01588 0
M  V30 2875 N 294.142 -0.090211 1.57342 0
M  V30 2876 C 295.37 -0.806224 1.90546 0
M  V30 2877 C 295.785 -1.72041 0.777644 0
M  V30 2878 O 295.142 -1.80778 -0.250103 0
M  V30 2879 C 295.193 -1.61546 3.23396 0
M  V30 2880 O 294.914 -0.738043 4.31839 0
M  V30 2881 C 296.415 -2.4341 3.70495 0
M  V30 2882 H 293.635 -0.230256 0.630257 0
M  V30 2883 H 296.179 -0.0659843 2.04394 0
M  V30 2884 H 294.334 -2.30816 3.11131 0
M  V30 2885 H 294.748 -1.29901 5.08159 0
M  V30 2886 H 296.222 -2.95676 4.66133 0
M  V30 2887 H 296.699 -3.22098 2.98579 0
M  V30 2888 H 297.305 -1.79331 3.85643 0
M  V30 2889 N 295.62 -1.53406 -0.361157 0
M  V30 2890 C 297.036 -1.43277 -0.703124 0
M  V30 2891 C 297.236 -0.575384 -1.9311 0
M  V30 2892 O 296.292 -0.0595362 -2.5243 0
M  V30 2893 C 297.605 -2.8653 -0.9122 0
M  V30 2894 C 299.153 -2.96191 -1.01193 0
M  V30 2895 C 299.628 -4.40514 -1.25345 0
M  V30 2896 N 301.119 -4.43962 -1.32105 0
M  V30 2897 C 301.854 -5.52746 -1.5251 0
M  V30 2898 N 301.35 -6.71567 -1.70203 0
M  V30 2899 N 303.143 -5.40331 -1.54916 0
M  V30 2900 H 295.294 -2.07654 0.446475 0
M  V30 2901 H 297.557 -0.937944 0.137715 0
M  V30 2902 H 297.263 -3.51605 -0.0816414 0
M  V30 2903 H 297.137 -3.30441 -1.81903 0
M  V30 2904 H 299.524 -2.31266 -1.83303 0
M  V30 2905 H 299.605 -2.55667 -0.0823929 0
M  V30 2906 H 299.249 -5.06014 -0.437346 0
M  V30 2907 H 299.179 -4.78614 -2.19627 0
M  V30 2908 H 301.67 -3.58332 -1.20028 0
M  V30 2909 H 301.983 -7.50241 -1.85359 0
M  V30 2910 H 300.328 -6.74545 -1.67373 0
M  V30 2911 H 303.519 -4.46465 -1.40663 0
M  V30 2912 H 303.692 -6.25173 -1.70477 0
M  V30 2913 N 297.098 0.621204 -1.44841 0
M  V30 2914 C 298.346 1.37783 -1.47852 0
M  V30 2915 C 298.667 1.94653 -0.116224 0
M  V30 2916 O 297.937 1.76367 0.852737 0
M  V30 2917 H 296.517 0.511453 -0.544449 0
M  V30 2918 H 299.179 0.730446 -1.80694 0
M  V30 2919 H 298.275 2.20414 -2.20961 0
M  V30 2920 N 298.576 1.31904 0.862503 0
M  V30 2921 C 299.801 1.25135 1.65397 0
M  V30 2922 C 300.226 -0.179 1.87246 0
M  V30 2923 O 299.584 -1.1277 1.4196 0
M  V30 2924 C 299.632 2.00832 2.99498 0
M  V30 2925 O 298.736 1.35075 3.89652 0
M  V30 2926 H 298.077 0.431655 0.504549 0
M  V30 2927 H 300.607 1.74094 1.07483 0
M  V30 2928 H 300.617 2.10709 3.49379 0
M  V30 2929 H 299.292 3.04847 2.82916 0
M  V30 2930 H 297.869 1.33696 3.48109 0
M  V30 2931 N 300.054 -1.07777 1.14986 0
M  V30 2932 C 301.301 -1.8029 0.922056 0
M  V30 2933 C 301.629 -1.86531 -0.55105 0
M  V30 2934 O 300.884 -1.34189 -1.42449 0
M  V30 2935 C 301.183 -3.25495 1.47608 0
M  V30 2936 C 300.849 -3.39361 2.96893 0
M  V30 2937 C 299.511 -3.42852 3.37647 0
M  V30 2938 C 301.863 -3.42512 3.92854 0
M  V30 2939 C 299.191 -3.47094 4.73015 0
M  V30 2940 C 301.543 -3.4829 5.28088 0
M  V30 2941 C 300.207 -3.50058 5.68345 0
M  V30 2942 H 299.477 -0.659727 0.337404 0
M  V30 2943 H 302.124 -1.26854 1.43459 0
M  V30 2944 H 300.429 -3.81683 0.88463 0
M  V30 2945 H 302.126 -3.80168 1.27568 0
M  V30 2946 H 298.716 -3.37339 2.64387 0
M  V30 2947 H 302.9 -3.3904 3.62444 0
M  V30 2948 H 298.156 -3.46758 5.03556 0
M  V30 2949 H 302.33 -3.49675 6.02246 0
M  V30 2950 H 299.957 -3.53097 6.73221 0
M  V30 2951 N 301.532 -0.945985 -1.26051 0
M  V30 2952 C 302.464 -0.416662 -2.25381 0
M  V30 2953 C 303.477 0.462712 -1.56086 0
M  V30 2954 O 304.666 0.272383 -1.7641 0
M  V30 2955 C 301.766 0.419812 -3.3629 0
M  V30 2956 C 300.939 -0.444531 -4.35135 0
M  V30 2957 C 299.998 0.332305 -5.2515 0
M  V30 2958 O 299.024 -0.266324 -5.68577 0
M  V30 2959 N 300.226 1.62763 -5.57215 0
M  V30 2960 H 302.991 -1.27059 -2.71433 0
M  V30 2961 H 300.552 -0.815392 -1.39868 0
M  V30 2962 H 302.544 0.947013 -3.93464 0
M  V30 2963 H 301.114 1.17456 -2.89694 0
M  V30 2964 H 300.334 -1.15291 -3.76964 0
M  V30 2965 H 301.622 -1.03478 -4.98166 0
M  V30 2966 H 301.02 2.13603 -5.23823 0
M  V30 2967 H 299.577 2.10097 -6.17011 0
M  V30 2968 N 303.011 1.40521 -0.713556 0
M  V30 2969 C 304.251 2.02783 -0.256584 0
M  V30 2970 C 304.615 1.55352 1.12827 0
M  V30 2971 O 305.816 2.09663 1.68211 0
M  V30 2972 C 304.087 3.5586 -0.331414 0
M  V30 2973 S 305.646 4.38773 0.0488703 0
M  V30 2974 H 302.464 0.703655 -0.101934 0
M  V30 2975 H 305.066 1.71674 -0.935325 0
M  V30 2976 H 303.77 3.87874 -1.34098 0
M  V30 2977 H 303.301 3.91695 0.365873 0
M  V30 2978 H 305.316 4.79633 1.2715 0
M  V30 2979 N 304.489 0.459591 1.5075 0
M  V30 2980 C 305.737 -0.0991532 2.01857 0
M  V30 2981 C 306.058 -1.41247 1.34441 0
M  V30 2982 O 305.328 -1.89775 0.486022 0
M  V30 2983 H 303.908 -0.039633 0.745948 0
M  V30 2984 H 306.57 0.607387 1.85194 0
M  V30 2985 H 305.666 -0.258998 3.11023 0
M  V30 2986 N 305.967 -1.56429 0.191757 0
M  V30 2987 C 307.378 -1.83912 -0.321428 0
M  V30 2988 C 307.729 -1.11231 -1.61623 0
M  V30 2989 O 306.854 -0.37202 -2.13178 0
M  V30 2990 C 307.449 -3.33624 -0.589961 0
M  V30 2991 C 306.008 -3.6153 -1.04753 0
M  V30 2992 C 305.155 -2.7714 -0.0943327 0
M  V30 2993 H 308.106 -1.53161 0.415612 0
M  V30 2994 H 308.127 -3.52213 -1.43966 0
M  V30 2995 H 307.639 -3.86495 0.352588 0
M  V30 2996 H 305.74 -3.14089 -2.00447 0
M  V30 2997 H 305.853 -4.69737 -0.942549 0
M  V30 2998 H 304.217 -2.47638 -0.595589 0
M  V30 2999 H 305 -3.32799 0.842601 0
M  V30 3000 N 307.445 0.0818655 -1.57387 0
M  V30 3001 C 308.685 0.788375 -1.88584 0
M  V30 3002 C 309.049 1.75248 -0.784351 0
M  V30 3003 O 310.25 2.50334 -0.979105 0
M  V30 3004 C 308.521 1.48654 -3.25018 0
M  V30 3005 S 310.08 2.22951 -3.7794 0
M  V30 3006 H 306.898 0.262383 -0.660815 0
M  V30 3007 H 309.5 0.0448995 -1.95448 0
M  V30 3008 H 308.204 0.770919 -4.03094 0
M  V30 3009 H 307.735 2.26965 -3.21326 0
M  V30 3010 H 309.75 3.49309 -3.52417 0
M  V30 3011 N 308.923 1.53595 0.353017 0
M  V30 3012 C 309.855 1.77219 1.45348 0
M  V30 3013 C 310.868 0.65324 1.49119 0
M  V30 3014 O 312.057 0.929775 1.52373 0
M  V30 3015 C 309.157 1.84841 2.84055 0
M  V30 3016 C 308.33 3.14649 3.03833 0
M  V30 3017 C 307.389 3.13351 4.22727 0
M  V30 3018 O 306.415 3.87107 4.17297 0
M  V30 3019 N 307.617 2.35052 5.30783 0
M  V30 3020 H 310.382 2.72178 1.25457 0
M  V30 3021 H 307.943 1.52528 0.542833 0
M  V30 3022 H 309.935 1.81435 3.61751 0
M  V30 3023 H 308.505 0.971114 2.97133 0
M  V30 3024 H 307.725 3.31256 2.13689 0
M  V30 3025 H 309.013 4.00411 3.13925 0
M  V30 3026 H 308.411 1.74663 5.38061 0
M  V30 3027 H 306.968 2.37453 6.07009 0
M  V30 3028 N 310.401 -0.613514 1.45168 0
M  V30 3029 C 311.812 -1.19539 1.43413 0
M  V30 3030 C 312.163 -1.95558 0.158632 0
M  V30 3031 O 311.288 -2.0335 -0.740119 0
M  V30 3032 C 311.883 -2.17445 2.59813 0
M  V30 3033 C 310.442 -2.71022 2.61197 0
M  V30 3034 C 309.589 -1.46323 2.35552 0
M  V30 3035 H 312.54 -0.403163 1.53494 0
M  V30 3036 H 312.561 -3.00373 2.33574 0
M  V30 3037 H 312.073 -1.62089 3.52631 0
M  V30 3038 H 310.174 -3.30332 1.7237 0
M  V30 3039 H 310.287 -3.15859 3.60236 0
M  V30 3040 H 308.651 -1.75072 1.84992 0
M  V30 3041 H 309.434 -0.92844 3.30507 0
M  V30 3042 N 311.879 -1.3236 -0.855495 0
M  V30 3043 C 313.127 -1.22629 -1.60644 0
M  V30 3044 C 313.448 0.212136 -1.93843 0
M  V30 3045 O 312.718 1.13666 -1.59552 0
M  V30 3046 H 311.298 -0.450882 -0.595579 0
M  V30 3047 H 313.96 -1.65871 -1.02337 0
M  V30 3048 H 313.056 -1.80832 -2.54374 0
M  V30 3049 N 313.357 1.07166 -1.15556 0
M  V30 3050 C 314.604 1.79798 -0.931604 0
M  V30 3051 C 314.932 1.8682 0.54115 0
M  V30 3052 O 314.187 1.34942 1.41736 0
M  V30 3053 C 314.486 3.24707 -1.49332 0
M  V30 3054 C 314.152 3.37781 -2.98688 0
M  V30 3055 C 312.814 3.41057 -3.39461 0
M  V30 3056 C 315.166 3.40424 -3.94665 0
M  V30 3057 C 312.494 3.4458 -4.74849 0
M  V30 3058 C 314.846 3.45485 -5.29927 0
M  V30 3059 C 313.51 3.47039 -5.70193 0
M  V30 3060 H 312.78 0.657928 -0.340898 0
M  V30 3061 H 315.427 1.26091 -1.44129 0
M  V30 3062 H 313.732 3.81208 -0.904859 0
M  V30 3063 H 315.429 3.79486 -1.29582 0
M  V30 3064 H 312.019 3.35932 -2.66172 0
M  V30 3065 H 316.203 3.37113 -3.64237 0
M  V30 3066 H 311.459 3.44083 -5.05388 0
M  V30 3067 H 315.633 3.46476 -6.04092 0
M  V30 3068 H 313.26 3.49522 -6.75084 0
M  V30 3069 N 314.835 0.952656 1.25548 0
M  V30 3070 C 316.081 0.607272 1.93494 0
M  V30 3071 C 316.414 -0.853245 1.74452 0
M  V30 3072 O 315.689 -1.61194 1.08843 0
M  V30 3073 C 315.972 0.96435 3.46947 0
M  V30 3074 C 315.825 2.48045 3.75225 0
M  V30 3075 C 317.144 0.487987 4.37386 0
M  V30 3076 H 314.263 0.222096 0.702739 0
M  V30 3077 H 316.905 1.18895 1.48203 0
M  V30 3078 H 315.055 0.469361 3.85654 0
M  V30 3079 H 316.727 3.04905 3.46166 0
M  V30 3080 H 314.97 2.919 3.209 0
M  V30 3081 H 315.641 2.6808 4.82532 0
M  V30 3082 H 318.117 0.912558 4.0597 0
M  V30 3083 H 316.993 0.766547 5.43521 0
M  V30 3084 H 317.254 -0.612063 4.37843 0
M  V30 3085 N 316.313 -1.40141 0.720998 0
M  V30 3086 C 317.561 -2.0039 0.262323 0
M  V30 3087 C 317.882 -1.57469 -1.15015 0
M  V30 3088 O 317.152 -0.816582 -1.78069 0
M  V30 3089 H 315.732 -0.741063 0.093996 0
M  V30 3090 H 318.394 -1.71398 0.927835 0
M  V30 3091 H 317.49 -3.10658 0.299671 0
M  V30 3092 N 317.792 -0.46758 -1.50504 0
M  V30 3093 C 319.069 0.15003 -1.95024 0
M  V30 3094 C 319.449 1.57304 -1.40779 0
M  V30 3095 O 318.797 2.20281 -0.607319 0
M  V30 3096 C 319.007 0.0969324 -3.48865 0
M  V30 3097 C 320.355 0.287565 -4.23625 0
M  V30 3098 O 321.379 0.173678 -3.55776 0
M  V30 3099 O 320.238 0.517186 -5.44047 0
M  V30 3100 H 317.332 0.113582 -0.819163 0
M  V30 3101 H 319.878 -0.52773 -1.61286 0
M  V30 3102 H 318.65 -0.896732 -3.80886 0
M  V30 3103 H 318.273 0.816303 -3.8913 0
M  V30 3104 N 319.27 1.56325 -0.20005 0
M  V30 3105 C 320.202 2.16555 0.750771 0
M  V30 3106 C 321.215 1.12871 1.1732 0
M  V30 3107 O 322.404 1.39943 1.10807 0
M  V30 3108 C 319.504 2.71684 2.02586 0
M  V30 3109 C 318.677 4.00321 1.76244 0
M  V30 3110 C 317.736 4.40227 2.88248 0
M  V30 3111 O 316.762 5.07552 2.57642 0
M  V30 3112 N 317.964 4.04138 4.16717 0
M  V30 3113 H 320.729 2.98772 0.235685 0
M  V30 3114 H 318.29 1.6189 -0.0182594 0
M  V30 3115 H 320.282 2.95363 2.76664 0
M  V30 3116 H 318.852 1.93893 2.45202 0
M  V30 3117 H 318.072 3.84723 0.85919 0
M  V30 3118 H 319.36 4.84279 1.56048 0
M  V30 3119 H 318.758 3.49993 4.44434 0
M  V30 3120 H 317.315 4.32756 4.87407 0
M  V30 3121 N 320.748 -0.0735177 1.57428 0
M  V30 3122 C 321.711 -1.07192 2.02589 0
M  V30 3123 C 322.711 -1.31695 0.922661 0
M  V30 3124 O 323.901 -1.27445 1.18758 0
M  V30 3125 C 321.033 -2.41599 2.40506 0
M  V30 3126 H 322.226 -0.682727 2.92025 0
M  V30 3127 H 319.779 -0.319193 1.53006 0
M  V30 3128 H 320.514 -2.85354 1.5409 0
M  V30 3129 H 320.299 -2.25156 3.21009 0
M  V30 3130 H 321.789 -3.13367 2.76027 0
M  V30 3131 N 322.226 -1.5378 -0.344866 0
M  V30 3132 C 323.451 -1.75211 -1.10977 0
M  V30 3133 C 323.876 -0.48936 -1.81623 0
M  V30 3134 O 323.234 0.557925 -1.72502 0
M  V30 3135 C 323.282 -2.93147 -2.09993 0
M  V30 3136 O 322.386 -2.63203 -3.17487 0
M  V30 3137 H 321.727 -0.581241 -0.321021 0
M  V30 3138 H 324.257 -2.00738 -0.395661 0
M  V30 3139 H 324.267 -3.19898 -2.53237 0
M  V30 3140 H 322.942 -3.84731 -1.5797 0
M  V30 3141 H 321.519 -2.47336 -2.79069 0
M  V30 3142 N 323.704 0.605807 -1.45491 0
M  V30 3143 C 324.952 1.36207 -1.49305 0
M  V30 3144 C 325.273 1.94519 -0.136863 0
M  V30 3145 O 324.543 1.77261 0.833983 0
M  V30 3146 H 323.123 0.50565 -0.549843 0
M  V30 3147 H 325.785 0.711239 -1.81459 0
M  V30 3148 H 324.881 2.18058 -2.23287 0
M  V30 3149 N 325.182 1.32811 0.848464 0
M  V30 3150 C 326.422 1.25046 1.61687 0
M  V30 3151 C 326.786 -0.183464 1.91121 0
M  V30 3152 O 327.987 -0.384937 2.66029 0
M  V30 3153 C 326.258 2.09201 2.89775 0
M  V30 3154 S 327.817 2.18526 3.80515 0
M  V30 3155 H 324.635 0.445023 0.554505 0
M  V30 3156 H 327.237 1.67733 1.00429 0
M  V30 3157 H 325.941 3.12433 2.66108 0
M  V30 3158 H 325.472 1.67315 3.56047 0
M  V30 3159 H 327.487 1.3393 4.77784 0
M  V30 3160 N 326.66 -1.06551 1.16123 0
M  V30 3161 C 327.592 -2.13908 0.823171 0
M  V30 3162 C 328.605 -1.61926 -0.16843 0
M  V30 3163 O 329.794 -1.78412 0.055962 0
M  V30 3164 C 326.894 -3.38283 0.204424 0
M  V30 3165 C 326.067 -4.19589 1.23548 0
M  V30 3166 C 325.126 -5.2233 0.637011 0
M  V30 3167 O 324.152 -5.54034 1.30516 0
M  V30 3168 N 325.354 -5.77621 -0.577474 0
M  V30 3169 H 328.119 -2.43508 1.74711 0
M  V30 3170 H 325.68 -1.2253 1.05821 0
M  V30 3171 H 327.672 -4.0416 -0.208909 0
M  V30 3172 H 326.242 -3.06329 -0.623012 0
M  V30 3173 H 325.462 -3.49406 1.82507 0
M  V30 3174 H 326.75 -4.70718 1.93137 0
M  V30 3175 H 326.148 -5.54125 -1.13853 0
M  V30 3176 H 324.705 -6.45087 -0.933053 0
M  V30 3177 N 328.138 -0.959301 -1.25041 0
M  V30 3178 C 329.554 -0.664474 -1.4511 0
M  V30 3179 C 329.754 0.776481 -1.85938 0
M  V30 3180 O 328.81 1.55128 -1.99227 0
M  V30 3181 C 330.123 -1.64139 -2.5195 0
M  V30 3182 C 331.671 -1.65309 -2.65786 0
M  V30 3183 C 332.146 -2.61777 -3.75815 0
M  V30 3184 N 333.637 -2.60169 -3.83231 0
M  V30 3185 C 334.372 -3.31489 -4.6787 0
M  V30 3186 N 333.868 -4.12298 -5.56761 0
M  V30 3187 N 335.661 -3.20354 -4.61876 0
M  V30 3188 H 327.812 -1.89043 -0.968332 0
M  V30 3189 H 330.075 -0.813408 -0.4869 0
M  V30 3190 H 329.781 -2.67086 -2.28819 0
M  V30 3191 H 329.655 -1.40756 -3.49954 0
M  V30 3192 H 332.042 -0.630778 -2.8828 0
M  V30 3193 H 332.123 -1.92753 -1.68167 0
M  V30 3194 H 331.767 -3.64137 -3.54071 0
M  V30 3195 H 331.697 -2.31616 -4.72929 0
M  V30 3196 H 334.188 -2.01507 -3.19692 0
M  V30 3197 H 334.501 -4.63625 -6.18281 0
M  V30 3198 H 332.846 -4.16395 -5.56454 0
M  V30 3199 H 336.037 -2.56692 -3.91442 0
M  V30 3200 H 336.21 -3.76201 -5.27614 0
M  V30 3201 N 329.616 1.39756 -0.72842 0
M  V30 3202 C 331.032 1.5442 -0.403308 0
M  V30 3203 C 331.232 1.69694 1.08656 0
M  V30 3204 O 330.288 1.69373 1.87267 0
M  V30 3205 C 331.601 2.76555 -1.18058 0
M  V30 3206 C 333.149 2.90384 -1.16815 0
M  V30 3207 C 333.624 4.15449 -1.92785 0
M  V30 3208 N 335.115 4.22475 -1.89918 0
M  V30 3209 C 335.85 5.1818 -2.45514 0
M  V30 3210 N 335.346 6.19714 -3.09719 0
M  V30 3211 N 337.139 5.1035 -2.35584 0
M  V30 3212 H 329.29 1.28089 -1.69431 0
M  V30 3213 H 331.553 0.620327 -0.716867 0
M  V30 3214 H 331.259 2.7159 -2.23455 0
M  V30 3215 H 331.133 3.69033 -0.780662 0
M  V30 3216 H 333.52 2.94846 -0.12234 0
M  V30 3217 H 333.601 1.98988 -1.6074 0
M  V30 3218 H 333.245 4.11749 -2.97364 0
M  V30 3219 H 333.175 5.05877 -1.46272 0
M  V30 3220 H 335.666 3.49743 -1.43138 0
M  V30 3221 H 335.979 6.8919 -3.49625 0
M  V30 3222 H 334.324 6.20121 -3.13807 0
M  V30 3223 H 337.515 4.2996 -1.85072 0
M  V30 3224 H 337.688 5.84761 -2.79211 0
M  V30 3225 N 331.094 0.475555 1.50254 0
M  V30 3226 C 332.057 -0.305016 2.27161 0
M  V30 3227 C 333.057 -0.916519 1.32123 0
M  V30 3228 O 334.247 -0.785003 1.5551 0
M  V30 3229 C 331.379 -1.43496 3.09227 0
M  V30 3230 H 332.572 0.369511 2.97615 0
M  V30 3231 H 330.125 0.229747 1.54602 0
M  V30 3232 H 330.86 -2.14441 2.43281 0
M  V30 3233 H 330.645 -1.00223 3.79075 0
M  V30 3234 H 332.135 -1.98548 3.67381 0
M  V30 3235 N 332.573 -1.56217 0.208337 0
M  V30 3236 C 333.505 -2.1695 -0.739276 0
M  V30 3237 C 334.518 -1.13492 -1.1672 0
M  V30 3238 O 335.707 -1.40529 -1.10063 0
M  V30 3239 C 332.807 -2.72755 -2.01142 0
M  V30 3240 C 331.98 -4.0125 -1.74118 0
M  V30 3241 C 331.039 -4.41749 -2.85909 0
M  V30 3242 O 330.065 -5.08912 -2.54946 0
M  V30 3243 N 331.267 -4.06342 -4.14568 0
M  V30 3244 H 334.032 -2.98893 -0.219837 0
M  V30 3245 H 331.593 -1.61878 0.0268445 0
M  V30 3246 H 333.585 -2.96826 -2.75094 0
M  V30 3247 H 332.155 -1.95191 -2.4417 0
M  V30 3248 H 331.375 -3.85173 -0.838775 0
M  V30 3249 H 332.663 -4.851 -1.53477 0
M  V30 3250 H 332.061 -3.52345 -4.42571 0
M  V30 3251 H 330.618 -4.35335 -4.85105 0
M  V30 3252 N 334.051 0.0651679 -1.57465 0
M  V30 3253 C 335.467 0.420105 -1.53972 0
M  V30 3254 C 335.667 1.78782 -0.929474 0
M  V30 3255 O 334.723 2.46771 -0.534839 0
M  V30 3256 C 336.036 0.355084 -2.98596 0
M  V30 3257 C 337.584 0.434792 -3.09965 0
M  V30 3258 C 338.059 0.399609 -4.56253 0
M  V30 3259 N 339.55 0.459488 -4.60915 0
M  V30 3260 C 340.285 0.454584 -5.71595 0
M  V30 3261 N 339.781 0.404102 -6.9162 0
M  V30 3262 N 341.574 0.501635 -5.59857 0
M  V30 3263 H 333.725 -0.830328 -1.95498 0
M  V30 3264 H 335.988 -0.312244 -0.895102 0
M  V30 3265 H 335.694 -0.583357 -3.46828 0
M  V30 3266 H 335.568 1.16275 -3.58831 0
M  V30 3267 H 337.955 1.36366 -2.61703 0
M  V30 3268 H 338.036 -0.40157 -2.52628 0
M  V30 3269 H 337.68 -0.525436 -5.05175 0
M  V30 3270 H 337.61 1.25359 -5.11461 0
M  V30 3271 H 340.101 0.502482 -3.74544 0
M  V30 3272 H 340.414 0.404468 -7.71741 0
M  V30 3273 H 338.759 0.37069 -6.94011 0
M  V30 3274 H 341.95 0.538812 -4.64989 0
M  V30 3275 H 342.123 0.494345 -6.46112 0
M  V30 3276 N 335.529 1.53961 0.336706 0
M  V30 3277 C 336.776 1.71536 1.07618 0
M  V30 3278 C 337.104 0.482125 1.8843 0
M  V30 3279 O 336.359 -0.536142 1.88213 0
M  V30 3280 C 336.658 2.93493 2.03953 0
M  V30 3281 C 336.324 4.28811 1.39399 0
M  V30 3282 C 334.986 4.65602 1.21523 0
M  V30 3283 C 337.338 5.12844 0.929541 0
M  V30 3284 C 334.666 5.84037 0.558312 0
M  V30 3285 C 337.018 6.31951 0.286505 0
M  V30 3286 C 335.682 6.67432 0.0954869 0
M  V30 3287 H 334.952 0.627696 0.393801 0
M  V30 3288 H 337.599 1.88186 0.354715 0
M  V30 3289 H 335.904 2.71475 2.82504 0
M  V30 3290 H 337.601 3.04285 2.61174 0
M  V30 3291 H 334.191 3.99858 1.54311 0
M  V30 3292 H 338.375 4.84947 1.05548 0
M  V30 3293 H 333.631 6.10097 0.398995 0
M  V30 3294 H 337.805 6.96352 -0.0814376 0
M  V30 3295 H 335.432 7.59063 -0.415579 0
M  V30 3296 N 337.007 -0.598083 1.45811 0
M  V30 3297 C 338.247 -1.36802 1.5187 0
M  V30 3298 C 338.611 -1.9133 0.160224 0
M  V30 3299 O 339.812 -2.6863 0.0955302 0
M  V30 3300 C 338.083 -2.47835 2.57513 0
M  V30 3301 S 339.642 -3.35458 2.82866 0
M  V30 3302 H 336.46 -0.466278 0.536755 0
M  V30 3303 H 339.062 -0.689152 1.82951 0
M  V30 3304 H 337.766 -2.06141 3.54872 0
M  V30 3305 H 337.297 -3.20512 2.28114 0
M  V30 3306 H 339.312 -4.46251 2.16967 0
M  V30 3307 N 338.485 -1.33259 -0.841409 0
M  V30 3308 C 339.896 -1.22066 -1.41269 0
M  V30 3309 C 340.247 0.161479 -1.95534 0
M  V30 3310 O 339.372 1.06094 -1.88608 0
M  V30 3311 C 339.967 -2.20996 -2.568 0
M  V30 3312 C 338.526 -2.13649 -3.09888 0
M  V30 3313 C 337.673 -2.08623 -1.82679 0
M  V30 3314 H 340.624 -1.44895 -0.647395 0
M  V30 3315 H 340.645 -1.81621 -3.34356 0
M  V30 3316 H 340.157 -3.2158 -2.17274 0
M  V30 3317 H 338.258 -1.16359 -3.53965 0
M  V30 3318 H 338.371 -3.04079 -3.70234 0
M  V30 3319 H 336.735 -1.54061 -2.02824 0
M  V30 3320 H 337.518 -3.1101 -1.45353 0
M  V30 3321 N 339.963 1.05934 -1.16686 0
M  V30 3322 C 341.24 1.75643 -0.860747 0
M  V30 3323 C 341.62 2.01144 0.640641 0
M  V30 3324 O 340.968 1.64147 1.58959 0
M  V30 3325 C 341.178 3.05493 -1.68745 0
M  V30 3326 C 342.526 3.79581 -1.90271 0
M  V30 3327 O 343.55 3.15344 -1.65641 0
M  V30 3328 O 342.409 4.9499 -2.31618 0
M  V30 3329 H 339.503 0.763426 -0.317977 0
M  V30 3330 H 342.049 1.1217 -1.27342 0
M  V30 3331 H 340.821 2.8264 -2.70611 0
M  V30 3332 H 340.444 3.76702 -1.27206 0
M  V30 3333 N 341.441 0.965919 1.2453 0
M  V30 3334 C 342.689 0.625593 1.92174 0
M  V30 3335 C 343.01 -0.841652 1.75901 0
M  V30 3336 O 342.28 -1.60061 1.12948 0
M  V30 3337 H 340.86 0.228388 0.71123 0
M  V30 3338 H 343.522 1.2266 1.51461 0
M  V30 3339 H 342.618 0.864653 2.99884 0
M  V30 3340 N 342.919 -1.39368 0.735821 0
M  V30 3341 C 344.144 -2.05319 0.293052 0
M  V30 3342 C 344.569 -1.55115 -1.064 0
M  V30 3343 O 343.927 -0.695261 -1.67439 0
M  V30 3344 C 343.975 -3.59305 0.305323 0
M  V30 3345 O 343.079 -4.06299 -0.706761 0
M  V30 3346 H 342.42 -0.650529 0.13307 0
M  V30 3347 H 344.95 -1.78386 1.00197 0
M  V30 3348 H 344.96 -4.07724 0.149997 0
M  V30 3349 H 343.635 -3.95207 1.29553 0
M  V30 3350 H 342.212 -3.69292 -0.517504 0
M  V30 3351 N 344.397 -0.483516 -1.5 0
M  V30 3352 C 345.808 -0.0314176 -1.86674 0
M  V30 3353 C 346.159 1.37728 -1.39733 0
M  V30 3354 O 345.284 2.02327 -0.767635 0
M  V30 3355 C 345.879 -0.0502376 -3.38763 0
M  V30 3356 C 344.438 0.346442 -3.74802 0
M  V30 3357 C 343.585 -0.430366 -2.7394 0
M  V30 3358 H 346.536 -0.697182 -1.42566 0
M  V30 3359 H 346.557 0.749116 -3.73053 0
M  V30 3360 H 346.069 -1.07563 -3.72897 0
M  V30 3361 H 344.17 1.37572 -3.46273 0
M  V30 3362 H 344.283 0.0391486 -4.79084 0
M  V30 3363 H 342.647 0.117557 -2.54429 0
M  V30 3364 H 343.43 -1.4555 -3.10918 0
M  V30 3365 N 345.875 1.56104 -0.216619 0
M  V30 3366 C 347.1 2.0301 0.424462 0
M  V30 3367 C 347.525 1.0955 1.52907 0
M  V30 3368 O 346.883 0.0827914 1.81111 0
M  V30 3369 C 346.931 3.4819 0.937883 0
M  V30 3370 O 346.035 3.57865 2.04955 0
M  V30 3371 H 345.376 0.656925 0.0966755 0
M  V30 3372 H 347.906 2.01859 -0.33381 0
M  V30 3373 H 347.916 3.88413 1.24897 0
M  V30 3374 H 346.591 4.15699 0.129387 0
M  V30 3375 H 345.168 3.29527 1.74546 0
M  V30 3376 N 347.353 -0.0568162 1.57498 0
M  V30 3377 C 348.263 -1.08346 2.08083 0
M  V30 3378 C 349.279 -1.41439 1.01346 0
M  V30 3379 O 350.455 -1.51316 1.32912 0
M  V30 3380 C 347.52 -2.37352 2.52715 0
M  V30 3381 C 346.581 -2.11093 3.73816 0
M  V30 3382 C 345.814 -3.33949 4.1631 0
M  V30 3383 O 346.037 -4.43622 3.58547 0
M  V30 3384 O 344.971 -3.21279 5.08983 0
M  V30 3385 H 348.797 -0.683667 2.95905 0
M  V30 3386 H 346.382 -0.271965 1.46904 0
M  V30 3387 H 348.264 -3.13246 2.81877 0
M  V30 3388 H 346.939 -2.76681 1.68016 0
M  V30 3389 H 345.846 -1.32856 3.49714 0
M  V30 3390 H 347.179 -1.76637 4.59413 0
M  V30 3391 N 348.832 -1.54138 -0.328536 0
M  V30 3392 C 350.072 -1.73827 -1.07534 0
M  V30 3393 C 350.436 -0.498777 -1.85408 0
M  V30 3394 O 351.637 -0.572937 -2.62623 0
M  V30 3395 C 349.908 -2.97573 -1.97952 0
M  V30 3396 S 351.467 -3.38143 -2.79652 0
M  V30 3397 H 348.285 -0.611287 -0.36311 0
M  V30 3398 H 350.887 -1.92306 -0.351931 0
M  V30 3399 H 349.591 -3.85939 -1.39569 0
M  V30 3400 H 349.122 -2.81603 -2.74706 0
M  V30 3401 H 351.137 -2.93052 -4.00418 0
M  V30 3402 N 350.31 0.590341 -1.46126 0
M  V30 3403 C 351.26 1.69466 -1.5253 0
M  V30 3404 C 352.244 1.56179 -0.386917 0
M  V30 3405 O 353.436 1.65223 -0.634858 0
M  V30 3406 C 350.565 3.08245 -1.5113 0
M  V30 3407 C 349.651 3.26856 -2.70233 0
M  V30 3408 N 350.042 3.15657 -3.95214 0
M  V30 3409 C 348.34 3.57775 -2.66296 0
M  V30 3410 C 349.041 3.36066 -4.74799 0
M  V30 3411 N 348.017 3.60865 -4.06543 0
M  V30 3412 H 351.819 1.59326 -2.46966 0
M  V30 3413 H 349.333 0.79414 -1.41659 0
M  V30 3414 H 351.33 3.87492 -1.53804 0
M  V30 3415 H 349.99 3.19521 -0.577636 0
M  V30 3416 H 351.001 2.93686 -4.26578 0
M  V30 3417 H 347.678 3.75782 -1.81918 0
M  V30 3418 H 349.068 3.32655 -5.83772 0
M  V30 3419 N 351.788 1.33704 0.83433 0
M  V30 3420 C 352.698 1.26382 1.97648 0
M  V30 3421 C 353.714 0.173548 1.73132 0
M  V30 3422 O 354.89 0.397962 1.97429 0
M  V30 3423 C 351.955 1.00769 3.31733 0
M  V30 3424 C 351.016 2.1884 3.69334 0
M  V30 3425 C 350.249 1.9444 4.9702 0
M  V30 3426 O 350.472 0.896961 5.63303 0
M  V30 3427 O 349.406 2.81093 5.32231 0
M  V30 3428 H 353.232 2.22444 2.06767 0
M  V30 3429 H 350.817 1.13795 0.968037 0
M  V30 3430 H 352.699 0.882186 4.12062 0
M  V30 3431 H 351.374 0.0773783 3.23608 0
M  V30 3432 H 350.281 2.36946 2.89495 0
M  V30 3433 H 351.614 3.10221 3.82131 0
M  V30 3434 N 353.266 -1.05314 1.17247 0
M  V30 3435 C 354.216 -2.11313 0.856196 0
M  V30 3436 C 355.2 -1.60013 -0.168694 0
M  V30 3437 O 356.392 -1.76968 0.0335624 0
M  V30 3438 C 353.521 -3.41301 0.369917 0
M  V30 3439 C 352.607 -3.99401 1.42616 0
M  V30 3440 N 352.998 -4.31481 2.63928 0
M  V30 3441 C 351.296 -4.27126 1.28373 0
M  V30 3442 C 351.997 -4.77799 3.31787 0
M  V30 3443 N 350.973 -4.77843 2.59166 0
M  V30 3444 H 354.775 -2.33976 1.77856 0
M  V30 3445 H 352.289 -1.2295 1.06099 0
M  V30 3446 H 354.286 -4.16713 0.124897 0
M  V30 3447 H 352.946 -3.20072 -0.546253 0
M  V30 3448 H 353.957 -4.21519 3.00902 0
M  V30 3449 H 350.634 -4.15289 0.429111 0
M  V30 3450 H 352.024 -5.11743 4.35395 0
M  V30 3451 N 354.744 -0.972509 -1.24016 0
M  V30 3452 C 355.707 -0.511403 -2.23422 0
M  V30 3453 C 356.707 0.394679 -1.55881 0
M  V30 3454 O 357.897 0.189469 -1.73167 0
M  V30 3455 C 355.029 0.258769 -3.39916 0
M  V30 3456 H 356.222 -1.39024 -2.6573 0
M  V30 3457 H 353.775 -0.757585 -1.36713 0
M  V30 3458 H 354.51 1.1545 -3.03054 0
M  V30 3459 H 354.295 -0.391522 -3.9014 0
M  V30 3460 H 355.785 0.570244 -4.13688 0
M  V30 3461 N 356.222 1.38976 -0.743202 0
M  V30 3462 C 357.499 1.94351 -0.220705 0
M  V30 3463 C 357.879 1.67935 1.2791 0
M  V30 3464 O 357.227 1.01211 2.04862 0
M  V30 3465 C 357.437 3.44426 -0.563171 0
M  V30 3466 C 358.785 4.2144 -0.517046 0
M  V30 3467 O 359.809 3.52661 -0.500846 0
M  V30 3468 O 358.668 5.44032 -0.518806 0
M  V30 3469 H 355.762 0.825879 -0.043047 0
M  V30 3470 H 358.308 1.48429 -0.822618 0
M  V30 3471 H 357.08 3.5712 -1.59941 0
M  V30 3472 H 356.703 3.97543 0.0672883 0
M  V30 3473 N 357.7 0.491464 1.49741 0
M  V30 3474 C 358.94 -0.0549118 2.04326 0
M  V30 3475 C 359.304 -1.35148 1.36378 0
M  V30 3476 O 360.505 -1.9815 1.81631 0
M  V30 3477 C 358.776 -0.213841 3.5676 0
M  V30 3478 S 360.335 -0.715839 4.32922 0
M  V30 3479 H 357.153 -0.00630513 0.710972 0
M  V30 3480 H 359.755 0.663257 1.83905 0
M  V30 3481 H 358.459 0.73527 4.0376 0
M  V30 3482 H 357.99 -0.957529 3.81569 0
M  V30 3483 H 360.005 -1.9864 4.54705 0
M  V30 3484 N 359.178 -1.55987 0.224894 0
M  V30 3485 C 360.424 -1.98684 -0.406502 0
M  V30 3486 C 360.757 -1.11248 -1.59177 0
M  V30 3487 O 360.032 -0.170909 -1.93748 0
M  V30 3488 C 360.315 -3.50218 -0.837808 0
M  V30 3489 C 360.168 -4.48426 0.351332 0
M  V30 3490 C 361.487 -4.06243 -1.69278 0
M  V30 3491 H 358.606 -0.722337 -0.146283 0
M  V30 3492 H 361.248 -1.87255 0.321799 0
M  V30 3493 H 359.398 -3.60089 -1.45837 0
M  V30 3494 H 361.07 -4.50562 0.989526 0
M  V30 3495 H 359.313 -4.22159 0.998207 0
M  V30 3496 H 359.984 -5.52 0.00655905 0
M  V30 3497 H 362.46 -3.99337 -1.16914 0
M  V30 3498 H 361.336 -5.12581 -1.96346 0
M  V30 3499 H 361.597 -3.53332 -2.65723 0
M  V30 3500 N 360.656 0.0484629 -1.57525 0
M  V30 3501 C 361.586 1.0549 -2.08313 0
M  V30 3502 C 362.567 1.38929 -0.981463 0
M  V30 3503 O 363.752 1.48151 -1.25558 0
M  V30 3504 C 360.882 2.36162 -2.54646 0
M  V30 3505 C 359.836 2.17016 -3.68901 0
M  V30 3506 C 359.162 3.53278 -4.01371 0
M  V30 3507 C 360.462 1.57219 -4.98076 0
M  V30 3508 H 362.156 0.632195 -2.92649 0
M  V30 3509 H 359.702 0.302654 -1.40784 0
M  V30 3510 H 361.655 3.06882 -2.88793 0
M  V30 3511 H 360.379 2.80456 -1.67368 0
M  V30 3512 H 359.038 1.48733 -3.35073 0
M  V30 3513 H 358.686 3.95185 -3.11188 0
M  V30 3514 H 358.386 3.41299 -4.78318 0
M  V30 3515 H 359.91 4.25391 -4.38035 0
M  V30 3516 H 361.324 2.17832 -5.30304 0
M  V30 3517 H 359.721 1.55871 -5.79503 0
M  V30 3518 H 360.791 0.535956 -4.81929 0
M  V30 3519 N 362.134 1.5431 0.320358 0
M  V30 3520 C 363.044 1.86946 1.41734 0
M  V30 3521 C 364.06 0.761689 1.56443 0
M  V30 3522 O 365.236 1.05629 1.71477 0
M  V30 3523 C 362.301 2.09293 2.76401 0
M  V30 3524 C 361.362 3.33082 2.70841 0
M  V30 3525 C 360.595 3.54353 3.99086 0
M  V30 3526 O 360.818 2.79002 4.97508 0
M  V30 3527 O 359.752 4.47838 4.0215 0
M  V30 3528 H 363.578 2.80232 1.17062 0
M  V30 3529 H 361.163 1.40255 0.514673 0
M  V30 3530 H 363.045 2.25303 3.56113 0
M  V30 3531 H 361.72 1.19194 3.00956 0
M  V30 3532 H 360.627 3.22454 1.89668 0
M  V30 3533 H 361.96 4.23249 2.5124 0
M  V30 3534 N 363.613 -0.582584 1.46437 0
M  V30 3535 C 365.029 -0.905962 1.31394 0
M  V30 3536 C 365.229 -1.99468 0.285476 0
M  V30 3537 O 364.285 -2.50566 -0.311914 0
M  V30 3538 C 365.598 -1.3232 2.70022 0
M  V30 3539 C 367.146 -1.43604 2.78113 0
M  V30 3540 C 367.621 -1.88694 4.17323 0
M  V30 3541 N 369.112 -1.95887 4.19741 0
M  V30 3542 C 369.847 -2.32051 5.24347 0
M  V30 3543 N 369.343 -2.67006 6.39281 0
M  V30 3544 N 371.136 -2.32606 5.11713 0
M  V30 3545 H 363.287 0.1366 2.1196 0
M  V30 3546 H 365.55 -0.00155736 0.947999 0
M  V30 3547 H 365.256 -0.597242 3.46592 0
M  V30 3548 H 365.13 -2.28469 3.00136 0
M  V30 3549 H 367.517 -2.15286 2.01832 0
M  V30 3550 H 367.598 -0.457059 2.51684 0
M  V30 3551 H 367.242 -1.1759 4.941 0
M  V30 3552 H 367.172 -2.8755 4.4116 0
M  V30 3553 H 369.663 -1.71362 3.36814 0
M  V30 3554 H 369.976 -2.93554 7.14875 0
M  V30 3555 H 368.321 -2.64644 6.42642 0
M  V30 3556 H 371.512 -2.04721 4.2096 0
M  V30 3557 H 371.685 -2.60462 5.93349 0
M  V30 3558 N 365.091 -1.34144 -0.827227 0
M  V30 3559 C 366.368 -1.16844 -1.56865 0
M  V30 3560 C 366.748 0.260654 -2.09485 0
M  V30 3561 O 366.096 1.26138 -1.9053 0
M  V30 3562 C 366.306 -2.21939 -2.6934 0
M  V30 3563 C 367.654 -2.56695 -3.3822 0
M  V30 3564 O 368.678 -2.20695 -2.79593 0
M  V30 3565 O 367.537 -3.18518 -4.44082 0
M  V30 3566 H 364.631 -0.452669 -0.692112 0
M  V30 3567 H 367.177 -1.45763 -0.868973 0
M  V30 3568 H 365.949 -3.17882 -2.28182 0
M  V30 3569 H 365.572 -1.94172 -3.46962 0
M  V30 3570 N 366.569 1.04691 -1.17803 0
M  V30 3571 C 367.817 1.7743 -0.967617 0
M  V30 3572 C 368.138 1.88359 0.504574 0
M  V30 3573 O 367.408 1.40402 1.36617 0
M  V30 3574 H 365.988 0.657242 -0.355024 0
M  V30 3575 H 368.65 1.2638 -1.48371 0
M  V30 3576 H 367.746 2.78924 -1.40027 0
M  V30 3577 N 368.047 0.979072 1.23499 0
M  V30 3578 C 369.272 0.664845 1.96455 0
M  V30 3579 C 369.697 -0.761287 1.72006 0
M  V30 3580 O 369.055 -1.51837 0.990713 0
M  V30 3581 C 369.103 0.959479 3.47601 0
M  V30 3582 O 368.207 0.0508168 4.12369 0
M  V30 3583 H 367.548 0.250185 0.615064 0
M  V30 3584 H 370.078 1.31231 1.5697 0
M  V30 3585 H 370.088 0.895642 3.98048 0
M  V30 3586 H 368.763 1.99876 3.64723 0
M  V30 3587 H 367.34 0.16895 3.72517 0
M  V30 3588 N 369.525 -1.3858 0.750561 0
M  V30 3589 C 370.941 -1.53759 0.427824 0
M  V30 3590 C 371.141 -1.71401 -1.05943 0
M  V30 3591 O 370.197 -1.72331 -1.84549 0
M  V30 3592 C 371.51 -2.74642 1.22443 0
M  V30 3593 C 373.058 -2.88489 1.2142 0
M  V30 3594 C 373.533 -4.12329 1.9937 0
M  V30 3595 N 375.024 -4.194 1.96616 0
M  V30 3596 C 375.759 -5.14209 2.53727 0
M  V30 3597 N 375.255 -6.14709 3.19539 0
M  V30 3598 N 377.048 -5.06537 2.43673 0
M  V30 3599 H 369.199 -1.25377 1.71447 0
M  V30 3600 H 371.462 -0.608844 0.726645 0
M  V30 3601 H 371.168 -2.68 2.27747 0
M  V30 3602 H 371.042 -3.67745 0.839273 0
M  V30 3603 H 373.429 -2.94614 0.169232 0
M  V30 3604 H 373.51 -1.96406 1.63885 0
M  V30 3605 H 373.154 -4.06966 3.03877 0
M  V30 3606 H 373.084 -5.03486 1.54302 0
M  V30 3607 H 375.575 -3.47421 1.48684 0
M  V30 3608 H 375.888 -6.8354 3.60545 0
M  V30 3609 H 374.233 -6.1505 3.23633 0
M  V30 3610 H 377.424 -4.26962 1.91889 0
M  V30 3611 H 377.597 -5.80245 2.88479 0
M  V30 3612 N 371.003 -0.499398 -1.49478 0
M  V30 3613 C 372.228 0.044722 -2.07352 0
M  V30 3614 C 372.653 1.30207 -1.35749 0
M  V30 3615 O 372.011 1.76516 -0.413732 0
M  V30 3616 C 372.059 0.283013 -3.59488 0
M  V30 3617 O 371.163 1.35804 -3.89398 0
M  V30 3618 H 370.504 -0.0255147 -0.66351 0
M  V30 3619 H 373.034 -0.698561 -1.92305 0
M  V30 3620 H 373.044 0.515007 -4.04737 0
M  V30 3621 H 371.719 -0.635636 -4.11014 0
M  V30 3622 H 370.296 1.11113 -3.55961 0
M  V30 3623 N 372.481 1.55866 -0.233164 0
M  V30 3624 C 373.721 2.00506 0.397078 0
M  V30 3625 C 374.085 1.1176 1.56121 0
M  V30 3626 O 375.286 1.45796 2.25825 0
M  V30 3627 C 373.557 3.4811 0.809601 0
M  V30 3628 S 375.116 4.14765 1.43231 0
M  V30 3629 H 371.934 0.699828 0.125547 0
M  V30 3630 H 374.536 1.92429 -0.345177 0
M  V30 3631 H 373.24 4.10373 -0.0471601 0
M  V30 3632 H 372.771 3.60085 1.58438 0
M  V30 3633 H 374.786 4.14914 2.7214 0
M  V30 3634 N 373.959 -0.0401083 1.57549 0
M  V30 3635 C 375.205 -0.734211 1.89043 0
M  V30 3636 C 375.538 -1.75591 0.829535 0
M  V30 3637 O 374.813 -1.93868 -0.156706 0
M  V30 3638 C 375.096 -1.41374 3.31188 0
M  V30 3639 C 374.949 -0.406299 4.47961 0
M  V30 3640 C 376.268 -2.35061 3.72068 0
M  V30 3641 H 373.387 -0.265447 0.687537 0
M  V30 3642 H 376.029 0.00294087 1.9 0
M  V30 3643 H 374.179 -2.04206 3.30503 0
M  V30 3644 H 375.851 0.219255 4.60779 0
M  V30 3645 H 374.094 0.275485 4.32924 0
M  V30 3646 H 374.765 -0.920022 5.44279 0
M  V30 3647 H 377.241 -1.82282 3.74049 0
M  V30 3648 H 376.117 -2.79593 4.72355 0
M  V30 3649 H 376.378 -3.21258 3.0372 0
M  V30 3650 N 375.437 -1.54477 -0.31217 0
M  V30 3651 C 376.677 -1.74958 -1.05684 0
M  V30 3652 C 377.041 -0.518414 -1.84869 0
M  V30 3653 O 378.242 -0.600759 -2.62001 0
M  V30 3654 C 376.513 -2.99656 -1.94785 0
M  V30 3655 S 378.072 -3.4109 -2.76049 0
M  V30 3656 H 374.89 -0.615104 -0.356606 0
M  V30 3657 H 377.492 -1.92669 -0.331514 0
M  V30 3658 H 376.196 -3.87397 -1.35468 0
M  V30 3659 H 375.727 -2.845 -2.71704 0
M  V30 3660 H 377.742 -2.97283 -3.97287 0
M  V30 3661 N 376.915 0.57481 -1.46744 0
M  V30 3662 C 377.878 1.66533 -1.57478 0
M  V30 3663 C 378.878 1.54338 -0.451263 0
M  V30 3664 O 380.068 1.58814 -0.715813 0
M  V30 3665 C 377.2 3.05999 -1.50259 0
M  V30 3666 H 378.393 1.58372 -2.54673 0
M  V30 3667 H 375.946 0.793301 -1.34672 0
M  V30 3668 H 376.681 3.19709 -0.543725 0
M  V30 3669 H 376.466 3.16259 -2.31781 0
M  V30 3670 H 377.956 3.8537 -1.60872 0
M  V30 3671 N 378.394 1.34581 0.820102 0
M  V30 3672 C 379.64 1.27285 1.57881 0
M  V30 3673 C 379.973 -0.156137 1.93571 0
M  V30 3674 O 379.248 -1.10222 1.60254 0
M  V30 3675 C 379.531 2.16639 2.87645 0
M  V30 3676 C 379.384 3.68088 2.58517 0
M  V30 3677 C 380.703 2.05378 3.8924 0
M  V30 3678 H 377.822 0.463714 0.572833 0
M  V30 3679 H 380.464 1.64859 0.944539 0
M  V30 3680 H 378.614 1.84725 3.41773 0
M  V30 3681 H 380.286 4.10382 2.10676 0
M  V30 3682 H 378.529 3.89038 1.91917 0
M  V30 3683 H 379.2 4.2598 3.51063 0
M  V30 3684 H 381.676 2.33404 3.44473 0
M  V30 3685 H 380.552 2.7012 4.77835 0
M  V30 3686 H 380.813 1.0316 4.29896 0
M  V30 3687 N 379.872 -1.04064 1.18357 0
M  V30 3688 C 381.12 -1.76915 0.977013 0
M  V30 3689 C 381.441 -1.88624 -0.494577 0
M  V30 3690 O 380.711 -1.41125 -1.3587 0
M  V30 3691 H 379.291 -0.65535 0.358504 0
M  V30 3692 H 381.953 -1.25592 1.49039 0
M  V30 3693 H 381.049 -2.78178 1.41504 0
M  V30 3694 N 381.35 -0.985608 -1.22978 0
M  V30 3695 C 382.596 -0.667998 -1.92118 0
M  V30 3696 C 382.951 0.790454 -1.75413 0
M  V30 3697 O 382.244 1.56336 -1.10768 0
M  V30 3698 C 382.438 -1.00014 -3.43121 0
M  V30 3699 C 382.267 -2.48933 -3.74516 0
M  V30 3700 C 381.037 -3.15218 -3.94925 0
M  V30 3701 C 383.235 -3.47024 -3.79577 0
M  V30 3702 N 381.217 -4.53689 -4.13569 0
M  V30 3703 C 382.588 -4.70923 -4.03276 0
M  V30 3704 C 384.643 -3.41432 -3.62393 0
M  V30 3705 C 383.346 -5.89914 -4.11574 0
M  V30 3706 C 385.372 -4.59793 -3.71947 0
M  V30 3707 C 384.734 -5.82489 -3.96088 0
M  V30 3708 H 380.833 -0.295589 -0.723983 0
M  V30 3709 H 383.417 -1.26413 -1.4808 0
M  V30 3710 H 381.588 -0.432655 -3.85983 0
M  V30 3711 H 383.32 -0.63927 -3.99619 0
M  V30 3712 H 380.075 -2.65702 -3.92045 0
M  V30 3713 H 380.499 -5.25492 -4.26834 0
M  V30 3714 H 385.141 -2.47594 -3.4272 0
M  V30 3715 H 382.859 -6.84164 -4.30053 0
M  V30 3716 H 386.445 -4.57048 -3.59998 0
M  V30 3717 H 385.325 -6.72546 -4.033 0
M  V30 3718 N 382.828 1.3818 -0.7579 0
M  V30 3719 C 383.791 2.28764 -0.141286 0
M  V30 3720 C 384.791 1.47388 0.642907 0
M  V30 3721 O 385.981 1.67781 0.468536 0
M  V30 3722 C 383.113 3.31184 0.808069 0
M  V30 3723 H 384.306 2.848 -0.939633 0
M  V30 3724 H 381.859 1.47212 -0.525191 0
M  V30 3725 H 382.594 2.80247 1.63193 0
M  V30 3726 H 382.379 3.91314 0.248104 0
M  V30 3727 H 383.869 3.98909 1.23536 0
M  V30 3728 N 384.306 0.507319 1.49211 0
M  V30 3729 C 385.554 -0.0348839 2.0207 0
M  V30 3730 C 385.875 -1.36898 1.38866 0
M  V30 3731 O 385.145 -1.88133 0.546151 0
M  V30 3732 H 383.725 -0.0158812 0.746831 0
M  V30 3733 H 386.387 0.665998 1.83168 0
M  V30 3734 H 385.483 -0.159917 3.1169 0
M  V30 3735 N 385.784 -1.5574 0.241426 0
M  V30 3736 C 386.732 -2.22538 -0.676718 0
M  V30 3737 C 387.726 -1.21117 -1.18436 0
M  V30 3738 O 388.932 -1.39144 -1.14188 0
M  V30 3739 H 385.307 -0.713776 -0.236701 0
M  V30 3740 H 387.278 -2.98264 -0.0901187 0
M  V30 3741 C 386.027 -2.93439 -1.86518 0
M  V30 3742 H 385.35 -3.7125 -1.4837 0
M  V30 3743 H 386.79 -3.43549 -2.48495 0
M  V30 3744 C 385.249 -1.97008 -2.73294 0
M  V30 3745 O 385.779 -1.49965 -3.72657 0
M  V30 3746 N 383.985 -1.64227 -2.39745 0
M  V30 3747 H 383.532 -2.02677 -1.58996 0
M  V30 3748 H 383.49 -0.999708 -2.98083 0
M  V30 3749 N 387.262 0.0317525 -1.57568 0
M  V30 3750 C 388.51 0.721676 -1.88776 0
M  V30 3751 C 388.831 1.76039 -0.838772 0
M  V30 3752 O 388.101 1.95482 0.127935 0
M  V30 3753 H 386.681 0.269534 -0.696678 0
M  V30 3754 H 389.343 -0.00165879 -1.949 0
M  V30 3755 H 388.439 1.21293 -2.87566 0
M  V30 3756 N 388.74 1.54641 0.303973 0
M  V30 3757 C 389.989 1.7299 1.03717 0
M  V30 3758 C 390.302 0.521168 1.88529 0
M  V30 3759 O 391.508 0.586408 2.65092 0
M  V30 3760 C 389.964 3.06051 1.89369 0
M  V30 3761 C 389.572 4.34393 1.09574 0
M  V30 3762 C 391.316 3.3376 2.62306 0
M  V30 3763 C 389.223 5.58506 1.94486 0
M  V30 3764 H 388.153 0.64473 0.390947 0
M  V30 3765 H 390.804 1.81124 0.294328 0
M  V30 3766 H 389.186 2.91874 2.67629 0
M  V30 3767 H 390.36 4.59396 0.359485 0
M  V30 3768 H 388.675 4.13597 0.482324 0
M  V30 3769 H 391.272 4.23687 3.26181 0
M  V30 3770 H 391.615 2.52503 3.3098 0
M  V30 3771 H 392.148 3.48894 1.91097 0
M  V30 3772 H 388.887 6.42422 1.30287 0
M  V30 3773 H 388.407 5.37694 2.65792 0
M  V30 3774 H 390.086 5.95651 2.52605 0
M  V30 3775 N 390.218 -0.567019 1.47046 0
M  V30 3776 C 391.148 -1.68482 1.61667 0
M  V30 3777 C 392.129 -1.6358 0.466418 0
M  V30 3778 O 393.314 -1.81354 0.694574 0
M  V30 3779 C 390.444 -3.07124 1.62148 0
M  V30 3780 C 389.398 -3.26867 2.76301 0
M  V30 3781 C 388.724 -4.66196 2.61849 0
M  V30 3782 C 390.024 -3.13186 4.17986 0
M  V30 3783 H 391.718 -1.56502 2.5524 0
M  V30 3784 H 389.264 -0.751486 1.22836 0
M  V30 3785 H 391.217 -3.8516 1.70968 0
M  V30 3786 H 389.941 -3.2004 0.651287 0
M  V30 3787 H 388.6 -2.51237 2.66975 0
M  V30 3788 H 388.248 -4.75898 1.62879 0
M  V30 3789 H 387.948 -4.80356 3.38425 0
M  V30 3790 H 389.472 -5.46379 2.72584 0
M  V30 3791 H 390.886 -3.81049 4.2834 0
M  V30 3792 H 389.283 -3.3886 4.95272 0
M  V30 3793 H 390.353 -2.10057 4.3704 0
M  V30 3794 N 391.696 -1.35014 -0.812953 0
M  V30 3795 C 392.936 -1.29289 -1.58315 0
M  V30 3796 C 393.3 0.132727 -1.91541 0
M  V30 3797 O 394.501 0.314269 -2.66957 0
M  V30 3798 C 392.772 -2.1681 -2.84127 0
M  V30 3799 S 394.331 -2.28538 -3.74588 0
M  V30 3800 H 391.149 -0.459569 -0.542511 0
M  V30 3801 H 393.751 -1.70336 -0.959467 0
M  V30 3802 H 392.455 -3.19379 -2.57731 0
M  V30 3803 H 391.986 -1.76697 -3.51485 0
M  V30 3804 H 394.001 -1.4655 -4.74065 0
M  V30 3805 N 393.175 1.03435 -1.18907 0
M  V30 3806 C 394.423 1.76394 -0.986382 0
M  V30 3807 C 394.744 1.88883 0.484567 0
M  V30 3808 O 394.014 1.41843 1.3512 0
M  V30 3809 H 392.594 0.65344 -0.361975 0
M  V30 3810 H 395.256 1.248 -1.49703 0
M  V30 3811 H 394.352 2.77424 -1.42978 0
M  V30 3812 N 394.653 0.992116 1.22453 0
M  V30 3813 C 396.069 0.702713 1.43297 0
M  V30 3814 C 396.269 -0.726909 1.87932 0
M  V30 3815 O 395.325 -1.49792 2.0327 0
M  V30 3816 C 396.638 1.70762 2.47509 0
M  V30 3817 C 398.186 1.72298 2.61309 0
M  V30 3818 C 398.661 2.71649 3.68742 0
M  V30 3819 N 400.152 2.70239 3.76199 0
M  V30 3820 C 400.887 3.43778 4.58917 0
M  V30 3821 N 400.383 4.26914 5.45633 0
M  V30 3822 N 402.176 3.32487 4.5322 0
M  V30 3823 H 394.327 1.91543 0.917871 0
M  V30 3824 H 396.59 0.826031 0.465162 0
M  V30 3825 H 396.296 2.73059 2.21657 0
M  V30 3826 H 396.17 1.49985 3.46099 0
M  V30 3827 H 398.557 0.706989 2.86506 0
M  V30 3828 H 398.638 1.97143 1.62997 0
M  V30 3829 H 398.282 3.73397 3.44292 0
M  V30 3830 H 398.212 2.44074 4.66622 0
M  V30 3831 H 400.703 2.09912 3.14237 0
M  V30 3832 H 401.016 4.79855 6.05771 0
M  V30 3833 H 399.361 4.31002 5.45218 0
M  V30 3834 H 402.552 2.6698 3.84499 0
M  V30 3835 H 402.725 3.90058 5.17454 0
M  V30 3836 N 396.131 -1.37776 0.765217 0
M  V30 3837 C 397.408 -1.93975 0.251596 0
M  V30 3838 C 397.788 -1.69949 -1.25222 0
M  V30 3839 O 397.136 -1.04457 -2.03226 0
M  V30 3840 C 397.346 -3.43487 0.617895 0
M  V30 3841 C 398.694 -4.20564 0.584029 0
M  V30 3842 O 399.718 -3.5182 0.556888 0
M  V30 3843 O 398.577 -5.43138 0.605291 0
M  V30 3844 H 395.671 -0.82509 0.0561806 0
M  V30 3845 H 398.217 -1.47101 0.846128 0
M  V30 3846 H 396.989 -3.5453 1.65602 0
M  V30 3847 H 396.612 -3.976 -0.00403411 0
M  V30 3848 N 397.609 -0.515225 -1.4894 0
M  V30 3849 C 398.837 0.0206034 -2.0689 0
M  V30 3850 C 399.252 1.29514 -1.37374 0
M  V30 3851 O 398.609 1.76698 -0.456529 0
M  V30 3852 C 398.66 0.26351 -3.60538 0
M  V30 3853 O 398.381 -0.960517 -4.27441 0
M  V30 3854 C 399.882 0.841383 -4.35242 0
M  V30 3855 H 397.102 -0.0268608 -0.670462 0
M  V30 3856 H 399.646 -0.716651 -1.91532 0
M  V30 3857 H 397.801 0.950777 -3.75552 0
M  V30 3858 H 398.215 -0.73212 -5.19365 0
M  V30 3859 H 399.689 0.96085 -5.43573 0
M  V30 3860 H 400.166 1.8427 -3.98674 0
M  V30 3861 H 400.772 0.191143 -4.2487 0
M  V30 3862 N 399.087 1.5561 -0.249682 0
M  V30 3863 C 400.364 1.90932 0.424761 0
M  V30 3864 C 400.744 1.17078 1.75658 0
M  V30 3865 O 400.092 0.289176 2.26663 0
M  V30 3866 C 400.302 3.43975 0.590109 0
M  V30 3867 C 401.65 4.15281 0.884714 0
M  V30 3868 O 402.674 3.49729 0.67587 0
M  V30 3869 O 401.533 5.31236 1.28259 0
M  V30 3870 H 398.627 0.794815 0.228468 0
M  V30 3871 H 401.173 1.67135 -0.293954 0
M  V30 3872 H 399.945 3.89748 -0.34818 0
M  V30 3873 H 399.568 3.73644 1.35926 0
M  V30 3874 N 400.565 -0.0233959 1.57583 0
M  V30 3875 C 401.495 -1.02162 2.09965 0
M  V30 3876 C 402.476 -1.3735 1.00344 0
M  V30 3877 O 403.661 -1.46135 1.27899 0
M  V30 3878 C 400.791 -2.32081 2.58371 0
M  V30 3879 C 399.745 -2.1112 3.72307 0
M  V30 3880 C 399.071 -3.46848 4.06941 0
M  V30 3881 C 400.371 -1.49276 5.00514 0
M  V30 3882 H 402.065 -0.585557 2.93618 0
M  V30 3883 H 399.611 -0.280218 1.41247 0
M  V30 3884 H 401.564 -3.02249 2.93639 0
M  V30 3885 H 400.288 -2.77758 1.71808 0
M  V30 3886 H 398.947 -1.43384 3.37397 0
M  V30 3887 H 398.595 -3.90184 3.17436 0
M  V30 3888 H 398.295 -3.33646 4.83688 0
M  V30 3889 H 399.819 -4.18369 4.44747 0
M  V30 3890 H 401.233 -2.09368 5.33702 0
M  V30 3891 H 399.63 -1.46632 5.8191 0
M  V30 3892 H 400.7 -0.459217 4.82721 0
M  V30 3893 N 402.043 -1.548 -0.295768 0
M  V30 3894 C 403.32 -1.65014 -1.05023 0
M  V30 3895 C 403.7 -0.501805 -2.05049 0
M  V30 3896 O 403.048 0.500869 -2.22943 0
M  V30 3897 C 403.258 -3.03252 -1.72741 0
M  V30 3898 C 404.606 -3.60242 -2.24746 0
M  V30 3899 O 405.63 -3.05737 -1.82765 0
M  V30 3900 O 404.489 -4.55687 -3.01681 0
M  V30 3901 H 401.583 -0.669314 -0.485744 0
M  V30 3902 H 404.129 -1.67144 -0.293438 0
M  V30 3903 H 402.901 -3.7827 -1.00138 0
M  V30 3904 H 402.524 -3.04922 -2.55163 0
M  V30 3905 N 403.521 0.559213 -1.47345 0
M  V30 3906 C 404.769 1.31388 -1.53563 0
M  V30 3907 C 405.09 1.93985 -0.198678 0
M  V30 3908 O 404.36 1.79825 0.777167 0
M  V30 3909 H 402.94 0.487901 -0.565652 0
M  V30 3910 H 405.602 0.65315 -1.8363 0
M  V30 3911 H 404.698 2.10844 -2.30111 0
M  V30 3912 N 404.999 1.35443 0.805782 0
M  V30 3913 C 406.246 1.28761 1.56291 0
M  V30 3914 C 406.574 -0.137747 1.94012 0
M  V30 3915 O 405.829 -1.1032 1.61642 0
M  V30 3916 C 406.128 2.14045 2.86216 0
M  V30 3917 C 405.794 3.62826 2.67709 0
M  V30 3918 C 404.456 4.0338 2.6237 0
M  V30 3919 C 406.808 4.57227 2.50186 0
M  V30 3920 C 404.136 5.36501 2.37451 0
M  V30 3921 C 406.488 5.90547 2.26797 0
M  V30 3922 C 405.152 6.30245 2.1988 0
M  V30 3923 H 404.422 0.471171 0.571908 0
M  V30 3924 H 407.069 1.67347 0.930974 0
M  V30 3925 H 405.374 1.68342 3.53791 0
M  V30 3926 H 407.071 2.0621 3.43917 0
M  V30 3927 H 403.661 3.30644 2.72713 0
M  V30 3928 H 407.845 4.2678 2.53323 0
M  V30 3929 H 403.101 5.66259 2.30567 0
M  V30 3930 H 407.275 6.63274 2.12228 0
M  V30 3931 H 404.902 7.33328 2.00333 0
M  V30 3932 N 406.477 -1.02803 1.19454 0
M  V30 3933 C 407.888 -1.57667 0.999899 0
M  V30 3934 C 408.239 -1.91041 -0.446956 0
M  V30 3935 O 407.364 -1.70978 -1.32648 0
M  V30 3936 C 407.959 -2.86477 1.80877 0
M  V30 3937 C 406.518 -3.37911 1.65811 0
M  V30 3938 C 405.665 -2.11343 1.79526 0
M  V30 3939 H 408.616 -0.853214 1.33813 0
M  V30 3940 H 408.637 -3.57408 1.30536 0
M  V30 3941 H 408.149 -2.62155 2.86175 0
M  V30 3942 H 406.25 -3.67218 0.63102 0
M  V30 3943 H 406.363 -4.10885 2.46395 0
M  V30 3944 H 404.727 -2.23254 1.22596 0
M  V30 3945 H 405.51 -1.89461 2.86285 0
M  V30 3946 N 407.956 -0.998596 -1.21925 0
M  V30 3947 C 409.233 -0.593401 -1.86382 0
M  V30 3948 C 409.613 0.92916 -1.89552 0
M  V30 3949 O 408.961 1.81347 -1.39017 0
M  V30 3950 C 409.171 -1.22039 -3.26967 0
M  V30 3951 C 410.519 -1.32449 -4.03413 0
M  V30 3952 O 411.543 -1.17522 -3.36254 0
M  V30 3953 O 410.402 -1.56395 -5.23644 0
M  V30 3954 H 407.496 -0.202385 -0.801854 0
M  V30 3955 H 410.042 -1.09484 -1.29659 0
M  V30 3956 H 408.814 -2.26158 -3.19325 0
M  V30 3957 H 408.437 -0.704906 -3.91301 0
M  V30 3958 N 409.434 1.37368 -0.772513 0
M  V30 3959 C 410.344 2.34053 -0.160081 0
M  V30 3960 C 411.36 1.60216 0.678728 0
M  V30 3961 O 412.536 1.92303 0.59847 0
M  V30 3962 C 409.601 3.3939 0.708182 0
M  V30 3963 C 408.662 4.29048 -0.147172 0
M  V30 3964 C 407.895 5.29354 0.679744 0
M  V30 3965 O 408.118 5.3723 1.91678 0
M  V30 3966 O 407.052 6.01835 0.0885444 0
M  V30 3967 H 410.878 2.88159 -0.959053 0
M  V30 3968 H 408.463 1.39543 -0.533685 0
M  V30 3969 H 410.345 4.03839 1.20384 0
M  V30 3970 H 409.02 2.8761 1.48533 0
M  V30 3971 H 407.927 3.67697 -0.689205 0
M  V30 3972 H 409.26 4.84134 -0.887423 0
M  V30 3973 N 410.912 0.523116 1.48665 0
M  V30 3974 C 411.859 -0.243398 2.29513 0
M  V30 3975 C 412.829 -0.940139 1.36933 0
M  V30 3976 O 414.014 -0.942503 1.65896 0
M  V30 3977 C 411.154 -1.28855 3.20141 0
M  V30 3978 C 410.267 -0.60135 4.27794 0
M  V30 3979 C 409.402 -1.62884 5.05611 0
M  V30 3980 C 408.441 -0.924726 6.05075 0
M  V30 3981 N 407.578 -1.89744 6.75975 0
M  V30 3982 H 412.418 0.452234 2.94549 0
M  V30 3983 H 409.955 0.234858 1.45213 0
M  V30 3984 H 411.913 -1.90674 3.71079 0
M  V30 3985 H 410.543 -1.95266 2.57043 0
M  V30 3986 H 409.595 0.130623 3.80176 0
M  V30 3987 H 410.907 -0.0481585 4.98777 0
M  V30 3988 H 410.061 -2.32149 5.60528 0
M  V30 3989 H 408.8 -2.21592 4.34452 0
M  V30 3990 H 407.805 -0.217966 5.49368 0
M  V30 3991 H 409.03 -0.343851 6.78229 0
M  V30 3992 H 406.976 -2.47373 6.07571 0
M  V30 3993 H 406.893 -1.3955 7.43009 0
M  V30 3994 H 408.161 -2.58229 7.35485 0
M  V30 3995 N 412.39 -1.55475 0.257931 0
M  V30 3996 C 413.32 -2.24815 -0.630912 0
M  V30 3997 C 414.301 -1.23224 -1.17259 0
M  V30 3998 O 415.486 -1.51904 -1.20991 0
M  V30 3999 C 412.616 -2.95609 -1.82298 0
M  V30 4000 C 411.57 -4.03982 -1.41359 0
M  V30 4001 C 410.896 -4.6226 -2.68738 0
M  V30 4002 C 412.196 -5.19109 -0.57648 0
M  V30 4003 H 413.89 -2.99354 -0.0526878 0
M  V30 4004 H 411.436 -1.4398 -0.023901 0
M  V30 4005 H 413.389 -3.42822 -2.45054 0
M  V30 4006 H 412.113 -2.18577 -2.42676 0
M  V30 4007 H 410.772 -3.57555 -0.809324 0
M  V30 4008 H 410.42 -3.81915 -3.27338 0
M  V30 4009 H 410.12 -5.35424 -2.42065 0
M  V30 4010 H 411.644 -5.12212 -3.32372 0
M  V30 4011 H 413.058 -5.62479 -1.10861 0
M  V30 4012 H 411.455 -5.98729 -0.405351 0
M  V30 4013 H 412.525 -4.83174 0.408776 0
M  V30 4014 N 413.868 0.0150385 -1.57593 0
M  V30 4015 C 415.284 0.370907 -1.5523 0
M  V30 4016 C 415.484 1.75735 -0.985882 0
M  V30 4017 O 414.54 2.44944 -0.613077 0
M  V30 4018 C 415.853 0.259908 -2.99575 0
M  V30 4019 C 417.401 0.335959 -3.11192 0
M  V30 4020 C 417.876 0.254253 -4.57294 0
M  V30 4021 N 419.367 0.312618 -4.62144 0
M  V30 4022 C 420.102 0.272505 -5.72752 0
M  V30 4023 N 419.598 0.183864 -6.92556 0
M  V30 4024 N 421.391 0.323267 -5.6117 0
M  V30 4025 H 413.542 -0.892104 -1.92757 0
M  V30 4026 H 415.805 -0.340563 -0.884715 0
M  V30 4027 H 415.511 -0.693403 -3.44797 0
M  V30 4028 H 415.385 1.048 -3.62349 0
M  V30 4029 H 417.772 1.27971 -2.65909 0
M  V30 4030 H 417.853 -0.481739 -2.51223 0
M  V30 4031 H 417.497 -0.685887 -5.03247 0
M  V30 4032 H 417.427 1.09024 -5.15191 0
M  V30 4033 H 419.918 0.38307 -3.75953 0
M  V30 4034 H 420.231 0.15874 -7.72637 0
M  V30 4035 H 418.576 0.149708 -6.94839 0
M  V30 4036 H 421.767 0.390607 -4.66467 0
M  V30 4037 H 421.94 0.288539 -6.47357 0
M  V30 4038 N 415.346 1.54954 0.287554 0
M  V30 4039 C 416.586 1.76617 1.02887 0
M  V30 4040 C 416.95 0.547759 1.84021 0
M  V30 4041 O 418.151 0.642365 2.61012 0
M  V30 4042 C 416.422 3.02717 1.89993 0
M  V30 4043 S 417.981 3.45438 2.70588 0
M  V30 4044 H 414.799 0.6207 0.346775 0
M  V30 4045 H 417.401 1.93172 0.30082 0
M  V30 4046 H 416.105 3.89503 1.29287 0
M  V30 4047 H 415.636 2.88787 2.67144 0
M  V30 4048 H 417.651 3.03566 3.92508 0
M  V30 4049 N 416.824 -0.551391 1.4764 0
M  V30 4050 C 418.235 -1.13349 1.48354 0
M  V30 4051 C 418.586 -1.94709 0.241432 0
M  V30 4052 O 417.711 -2.06306 -0.653205 0
M  V30 4053 C 418.306 -2.0623 2.68802 0
M  V30 4054 C 416.865 -2.597 2.72457 0
M  V30 4055 C 416.012 -1.36201 2.41546 0
M  V30 4056 H 418.963 -0.337698 1.55065 0
M  V30 4057 H 418.984 -2.90196 2.46103 0
M  V30 4058 H 418.496 -1.46987 3.59188 0
M  V30 4059 H 416.597 -3.22724 1.86225 0
M  V30 4060 H 416.71 -3.00296 3.73308 0
M  V30 4061 H 415.074 -1.67068 1.9225 0
M  V30 4062 H 415.857 -0.787425 3.34147 0
M  V30 4063 N 418.302 -1.35869 -0.798587 0
M  V30 4064 C 419.212 -1.31578 -1.94228 0
M  V30 4065 C 420.228 -0.21939 -1.72611 0
M  V30 4066 O 421.404 -0.450167 -1.96305 0
M  V30 4067 C 418.469 -1.09528 -3.28944 0
M  V30 4068 C 417.53 -2.28556 -3.63402 0
M  V30 4069 C 416.763 -2.07549 -4.9169 0
M  V30 4070 O 416.986 -1.046 -5.60727 0
M  V30 4071 O 415.92 -2.95106 -5.24591 0
M  V30 4072 H 419.746 -2.27847 -2.00796 0
M  V30 4073 H 417.331 -1.16322 -0.937526 0
M  V30 4074 H 419.213 -0.991127 -4.09579 0
M  V30 4075 H 417.888 -0.16315 -3.23289 0
M  V30 4076 H 416.795 -2.44538 -2.83112 0
M  V30 4077 H 418.128 -3.20244 -3.73771 0
M  V30 4078 N 419.78 1.02168 -1.19998 0
M  V30 4079 C 421.196 1.27969 -0.953737 0
M  V30 4080 C 421.396 1.98079 0.369703 0
M  V30 4081 O 420.452 2.27306 1.09947 0
M  V30 4082 C 421.765 2.11971 -2.13281 0
M  V30 4083 C 423.313 2.25255 -2.17323 0
M  V30 4084 C 423.788 3.12632 -3.34702 0
M  V30 4085 N 425.279 3.2022 -3.34684 0
M  V30 4086 C 426.014 3.88039 -4.22153 0
M  V30 4087 N 425.51 4.58027 -5.19791 0
M  V30 4088 N 427.303 3.84511 -4.10009 0
M  V30 4089 H 419.454 0.550794 -2.05134 0
M  V30 4090 H 421.717 0.305683 -0.897364 0
M  V30 4091 H 421.423 1.67785 -3.09097 0
M  V30 4092 H 421.297 3.12699 -2.10949 0
M  V30 4093 H 423.684 2.68667 -1.22073 0
M  V30 4094 H 423.765 1.24053 -2.23706 0
M  V30 4095 H 423.409 2.69926 -4.30235 0
M  V30 4096 H 423.339 4.13909 -3.25556 0
M  V30 4097 H 425.83 2.70382 -2.64012 0
M  V30 4098 H 426.143 5.07429 -5.82868 0
M  V30 4099 H 424.488 4.56869 -5.23733 0
M  V30 4100 H 427.679 3.28978 -3.33003 0
M  V30 4101 H 427.852 4.3709 -4.78389 0
M  V30 4102 N 421.258 1.00505 1.21394 0
M  V30 4103 C 422.19 0.52372 2.23136 0
M  V30 4104 C 423.203 -0.387714 1.58116 0
M  V30 4105 O 424.392 -0.187905 1.77508 0
M  V30 4106 C 421.492 -0.258885 3.3791 0
M  V30 4107 C 420.665 0.651634 4.32519 0
M  V30 4108 C 419.724 -0.0813705 5.26137 0
M  V30 4109 O 418.75 0.537295 5.66658 0
M  V30 4110 N 419.952 -1.35992 5.64346 0
M  V30 4111 H 422.717 1.39865 2.65062 0
M  V30 4112 H 420.278 0.881196 1.35818 0
M  V30 4113 H 422.27 -0.758208 3.97534 0
M  V30 4114 H 420.84 -1.035 2.94968 0
M  V30 4115 H 420.06 1.33145 3.71034 0
M  V30 4116 H 421.348 1.27129 4.92662 0
M  V30 4117 H 420.746 -1.88368 5.33417 0
M  V30 4118 H 419.303 -1.8042 6.26332 0
M  V30 4119 N 422.737 -1.36956 0.779787 0
M  V30 4120 C 423.977 -2.01328 0.353043 0
M  V30 4121 C 424.341 -1.60558 -1.05286 0
M  V30 4122 O 425.542 -2.1745 -1.58016 0
M  V30 4123 C 423.813 -3.53874 0.500822 0
M  V30 4124 S 425.372 -4.38506 0.16053 0
M  V30 4125 H 422.19 -0.69799 0.13539 0
M  V30 4126 H 424.792 -1.67016 1.01617 0
M  V30 4127 H 423.496 -3.81034 1.52451 0
M  V30 4128 H 423.027 -3.92994 -0.178574 0
M  V30 4129 H 425.042 -4.85153 -1.04121 0
M  V30 4130 N 424.215 -0.530993 -1.48385 0
M  V30 4131 C 425.631 -0.188919 -1.58478 0
M  V30 4132 C 425.831 1.30786 -1.53288 0
M  V30 4133 O 424.887 2.08619 -1.42248 0
M  V30 4134 C 426.2 -0.792343 -2.90073 0
M  V30 4135 C 427.748 -0.76117 -3.03604 0
M  V30 4136 C 428.223 -1.34319 -4.37861 0
M  V30 4137 N 429.714 -1.3052 -4.44431 0
M  V30 4138 C 430.449 -1.72543 -5.46824 0
M  V30 4139 N 429.945 -2.22299 -6.56167 0
M  V30 4140 N 431.738 -1.63773 -5.37712 0
M  V30 4141 H 423.889 -1.50377 -1.50002 0
M  V30 4142 H 426.152 -0.625559 -0.712306 0
M  V30 4143 H 425.858 -1.84323 -2.99529 0
M  V30 4144 H 425.732 -0.270026 -3.76232 0
M  V30 4145 H 428.119 0.280957 -2.93759 0
M  V30 4146 H 428.2 -1.32097 -2.19053 0
M  V30 4147 H 427.844 -2.38425 -4.4846 0
M  V30 4148 H 427.774 -0.759064 -5.21101 0
M  V30 4149 H 430.265 -0.940973 -3.65997 0
M  V30 4150 H 430.578 -2.52356 -7.30436 0
M  V30 4151 H 428.923 -2.26293 -6.57127 0
M  V30 4152 H 432.114 -1.24698 -4.51185 0
M  V30 4153 H 432.287 -1.96844 -6.17379 0
M  V30 4154 N 425.693 1.55336 -0.266172 0
M  V30 4155 C 426.64 2.22172 0.625165 0
M  V30 4156 C 427.61 1.19211 1.15663 0
M  V30 4157 O 428.795 1.47723 1.20758 0
M  V30 4158 C 425.935 2.93972 1.8076 0
M  V30 4159 C 425.048 4.11632 1.31084 0
M  V30 4160 C 424.183 4.71099 2.45436 0
M  V30 4161 C 423.222 5.8097 1.92718 0
M  V30 4162 N 422.359 6.34538 3.00509 0
M  V30 4163 H 427.199 2.9796 0.0485582 0
M  V30 4164 H 424.736 1.47095 0.0122024 0
M  V30 4165 H 426.694 3.33811 2.50251 0
M  V30 4166 H 425.324 2.20623 2.35638 0
M  V30 4167 H 424.376 3.76975 0.509326 0
M  V30 4168 H 425.688 4.90893 0.884633 0
M  V30 4169 H 424.842 5.13612 3.22936 0
M  V30 4170 H 423.581 3.91096 2.91368 0
M  V30 4171 H 422.586 5.37916 1.13695 0
M  V30 4172 H 423.811 6.62836 1.47733 0
M  V30 4173 H 421.757 5.57433 3.45839 0
M  V30 4174 H 421.674 7.09046 2.62279 0
M  V30 4175 H 422.942 6.81709 3.78011 0
M  V30 4176 N 427.171 -0.0066808 1.57599 0
M  V30 4177 C 428.448 -0.729586 1.81484 0
M  V30 4178 C 428.828 -1.92359 0.869558 0
M  V30 4179 O 428.176 -2.28348 -0.0832533 0
M  V30 4180 C 428.386 -1.1416 3.29801 0
M  V30 4181 C 429.734 -1.54823 3.95367 0
M  V30 4182 O 430.758 -1.23558 3.34084 0
M  V30 4183 O 429.617 -2.12937 5.03309 0
M  V30 4184 H 426.711 -0.354674 0.747085 0
M  V30 4185 H 429.257 0.0182609 1.6969 0
M  V30 4186 H 428.029 -0.290231 3.90222 0
M  V30 4187 H 427.652 -1.94876 3.46568 0
M  V30 4188 N 428.649 -1.55105 -0.279332 0
M  V30 4189 C 429.597 -1.88333 -1.36505 0
M  V30 4190 C 430.591 -0.759043 -1.51443 0
M  V30 4191 O 431.797 -0.943312 -1.53302 0
M  V30 4192 H 428.172 -0.59766 -0.456406 0
M  V30 4193 H 430.143 -2.79041 -1.05728 0
M  V30 4194 C 428.892 -2.16628 -2.7197 0
M  V30 4195 H 428.215 -3.02624 -2.61264 0
M  V30 4196 H 429.655 -2.43803 -3.46895 0
M  V30 4197 C 428.114 -0.971807 -3.22579 0
M  V30 4198 O 428.644 -0.203228 -4.01186 0
M  V30 4199 N 426.85 -0.771238 -2.80179 0
M  V30 4200 H 426.397 -1.39792 -2.1637 0
M  V30 4201 H 426.355 0.0263667 -3.14389 0
M  V30 4202 N 430.127 0.543554 -1.4793 0
M  V30 4203 C 431.367 1.31072 -1.56843 0
M  V30 4204 C 431.731 1.90604 -0.231124 0
M  V30 4205 O 432.932 2.68091 -0.195165 0
M  V30 4206 C 431.203 2.38106 -2.66533 0
M  V30 4207 S 432.762 3.24729 -2.95122 0
M  V30 4208 H 429.58 0.446035 -0.553691 0
M  V30 4209 H 432.182 0.620777 -1.85382 0
M  V30 4210 H 430.886 1.92828 -3.62278 0
M  V30 4211 H 430.417 3.11824 -2.39852 0
M  V30 4212 H 432.432 4.37891 -2.3338 0
M  V30 4213 N 431.605 1.3629 0.791371 0
M  V30 4214 C 432.851 1.30605 1.55146 0
M  V30 4215 C 433.184 -0.115042 1.93859 0
M  V30 4216 O 432.459 -1.06798 1.62556 0
M  V30 4217 C 432.742 2.22692 2.82985 0
M  V30 4218 C 432.595 3.73489 2.50651 0
M  V30 4219 C 433.914 2.13588 3.84796 0
M  V30 4220 H 431.033 0.475761 0.562868 0
M  V30 4221 H 433.675 1.66825 0.909358 0
M  V30 4222 H 431.825 1.91933 3.37778 0
M  V30 4223 H 433.497 4.14758 2.01924 0
M  V30 4224 H 431.74 3.93021 1.83622 0
M  V30 4225 H 432.411 4.3333 3.41949 0
M  V30 4226 H 434.887 2.40659 3.39445 0
M  V30 4227 H 433.763 2.80195 4.71998 0
M  V30 4228 H 434.024 1.12256 4.27611 0
M  V30 4229 N 433.083 -1.0153 1.20538 0
M  V30 4230 C 434.311 -1.78746 1.04199 0
M  V30 4231 C 434.726 -1.84323 -0.408733 0
M  V30 4232 O 434.083 -1.29714 -1.28377 0
M  V30 4233 C 434.134 -3.23152 1.62035 0
M  V30 4234 O 433.855 -3.17918 3.0143 0
M  V30 4235 C 435.356 -4.16911 1.50666 0
M  V30 4236 H 432.576 -0.56208 0.366479 0
M  V30 4237 H 435.12 -1.27794 1.59653 0
M  V30 4238 H 433.275 -3.71248 1.10697 0
M  V30 4239 H 433.689 -4.08567 3.28897 0
M  V30 4240 H 435.163 -5.16072 1.95892 0
M  V30 4241 H 435.64 -4.36791 0.459363 0
M  V30 4242 H 436.246 -3.74698 2.01201 0
M  V30 4243 N 434.561 -1.01147 -1.20859 0
M  V30 4244 C 435.807 -0.698899 -1.90377 0
M  V30 4245 C 436.14 0.76904 -1.78324 0
M  V30 4246 O 435.415 1.55817 -1.16409 0
M  V30 4247 C 435.698 -1.12878 -3.41951 0
M  V30 4248 C 435.551 -2.65665 -3.62963 0
M  V30 4249 C 436.87 -0.696114 -4.3456 0
M  V30 4250 H 433.989 -0.255372 -0.691342 0
M  V30 4251 H 436.631 -1.25831 -1.42361 0
M  V30 4252 H 434.781 -0.652827 -3.82976 0
M  V30 4253 H 436.453 -3.21074 -3.31224 0
M  V30 4254 H 434.696 -3.06878 -3.06608 0
M  V30 4255 H 435.367 -2.90797 -4.69192 0
M  V30 4256 H 437.843 -1.10521 -4.01154 0
M  V30 4257 H 436.719 -1.025 -5.39245 0
M  V30 4258 H 436.98 0.402465 -4.40264 0
M  V30 4259 N 436.039 1.36541 -0.78704 0
M  V30 4260 C 437.45 1.81873 -0.421807 0
M  V30 4261 C 437.801 1.65487 1.05397 0
M  V30 4262 O 436.926 1.17448 1.81755 0
M  V30 4263 C 437.521 3.30192 -0.758841 0
M  V30 4264 C 436.08 3.73743 -0.446468 0
M  V30 4265 C 435.227 2.58844 -0.994728 0
M  V30 4266 H 438.178 1.24796 -0.98039 0
M  V30 4267 H 438.199 3.80468 -0.0490648 0
M  V30 4268 H 437.711 3.42087 -1.83299 0
M  V30 4269 H 435.812 3.6741 0.619739 0
M  V30 4270 H 435.925 4.69272 -0.965415 0
M  V30 4271 H 434.289 2.51245 -0.418087 0
M  V30 4272 H 435.072 2.73525 -2.07458 0
M  V30 4273 N 437.518 0.538854 1.48102 0
M  V30 4274 C 438.466 -0.232325 2.31437 0
M  V30 4275 C 439.46 -0.927004 1.41785 0
M  V30 4276 O 440.666 -0.850378 1.58646 0
M  V30 4277 H 437.041 -0.0937916 0.746128 0
M  V30 4278 H 439.012 0.489986 2.9435 0
M  V30 4279 C 437.761 -1.26074 3.24038 0
M  V30 4280 H 437.084 -0.735609 3.92974 0
M  V30 4281 H 438.524 -1.77157 3.85216 0
M  V30 4282 C 436.983 -2.29902 2.46265 0
M  V30 4283 O 437.513 -3.36502 2.19384 0
M  V30 4284 N 435.719 -2.03348 2.07601 0
M  V30 4285 H 435.266 -1.16675 2.29662 0
M  V30 4286 H 435.224 -2.73038 1.55877 0
M  V30 4287 N 438.996 -1.55193 0.274407 0
M  V30 4288 C 440.221 -2.04446 -0.348824 0
M  V30 4289 C 440.646 -1.15149 -1.48735 0
M  V30 4290 O 440.004 -0.149952 -1.80679 0
M  V30 4291 C 440.052 -3.51431 -0.808009 0
M  V30 4292 O 439.156 -3.65225 -1.91531 0
M  V30 4293 H 438.497 -0.66006 -0.0722276 0
M  V30 4294 H 441.027 -2.00481 0.408498 0
M  V30 4295 H 441.037 -3.92781 -1.10395 0
M  V30 4296 H 439.712 -4.15892 0.0249865 0
M  V30 4297 H 438.289 -3.35778 -1.62196 0
M  V30 4298 N 440.474 -0.00167713 -1.576 0
M  V30 4299 C 441.722 0.681471 -1.90264 0
M  V30 4300 C 442.043 1.7422 -0.875924 0
M  V30 4301 O 441.313 1.95709 0.0864412 0
M  V30 4302 H 439.893 0.254696 -0.702239 0
M  V30 4303 H 442.555 -0.0429996 -1.94853 0
M  V30 4304 H 441.651 1.15166 -2.90075 0
M  V30 4305 N 441.952 1.55251 0.271103 0
M  V30 4306 C 442.884 1.84675 1.35749 0
M  V30 4307 C 443.897 0.731366 1.45447 0
M  V30 4308 O 445.086 1.00924 1.4723 0
M  V30 4309 C 442.186 1.99638 2.73857 0
M  V30 4310 C 441.359 3.30312 2.86727 0
M  V30 4311 C 440.418 3.35318 4.05522 0
M  V30 4312 O 439.444 4.08682 3.96191 0
M  V30 4313 N 440.646 2.62857 5.17577 0
M  V30 4314 H 443.411 2.78445 1.10853 0
M  V30 4315 H 440.972 1.55191 0.461218 0
M  V30 4316 H 442.964 2.00355 3.51625 0
M  V30 4317 H 441.534 1.12725 2.91568 0
M  V30 4318 H 440.754 3.42118 1.95829 0
M  V30 4319 H 442.042 4.16488 2.92258 0
M  V30 4320 H 441.44 2.02939 5.28046 0
M  V30 4321 H 439.997 2.69295 5.93568 0
M  V30 4322 N 443.43 -0.535701 1.48216 0
M  V30 4323 C 444.34 -1.66785 1.64985 0
M  V30 4324 C 445.356 -1.65654 0.532414 0
M  V30 4325 O 446.532 -1.8471 0.80275 0
M  V30 4326 C 443.597 -3.0326 1.68031 0
M  V30 4327 C 442.658 -3.1529 2.9136 0
M  V30 4328 C 441.891 -4.45255 2.94252 0
M  V30 4329 O 442.114 -5.32011 2.05719 0
M  V30 4330 O 441.048 -4.6153 3.86359 0
M  V30 4331 H 444.874 -1.55576 2.60825 0
M  V30 4332 H 442.459 -0.70815 1.31551 0
M  V30 4333 H 444.341 -3.84436 1.72589 0
M  V30 4334 H 443.016 -3.14805 0.753628 0
M  V30 4335 H 441.923 -2.3343 2.92337 0
M  V30 4336 H 443.256 -3.08658 3.83394 0
M  V30 4337 N 444.908 -1.36708 -0.784132 0
M  V30 4338 C 446.185 -1.21776 -1.53069 0
M  V30 4339 C 446.565 0.193876 -2.10208 0
M  V30 4340 O 445.913 1.20012 -1.94446 0
M  V30 4341 C 446.123 -2.30395 -2.62143 0
M  V30 4342 C 447.471 -2.67325 -3.29882 0
M  V30 4343 O 448.495 -2.29478 -2.7243 0
M  V30 4344 O 447.354 -3.32485 -4.33724 0
M  V30 4345 H 444.448 -0.474459 -0.677361 0
M  V30 4346 H 446.994 -1.48454 -0.82216 0
M  V30 4347 H 445.766 -3.2498 -2.17953 0
M  V30 4348 H 445.389 -2.05112 -3.40609 0
M  V30 4349 N 446.386 1.0089 -1.21074 0
M  V30 4350 C 447.632 1.74866 -1.02712 0
M  V30 4351 C 447.965 1.89178 0.438787 0
M  V30 4352 O 447.24 1.42325 1.32567 0
M  V30 4353 C 447.523 3.16347 -1.72036 0
M  V30 4354 C 447.376 3.09782 -3.26121 0
M  V30 4355 C 448.695 4.15187 -1.45973 0
M  V30 4356 H 445.814 0.634736 -0.374539 0
M  V30 4357 H 448.456 1.17646 -1.49196 0
M  V30 4358 H 446.606 3.65201 -1.32517 0
M  V30 4359 H 448.278 2.68673 -3.74983 0
M  V30 4360 H 446.521 2.46982 -3.56626 0
M  V30 4361 H 447.192 4.09829 -3.6979 0
M  V30 4362 H 449.668 3.75022 -1.80272 0
M  V30 4363 H 448.544 5.12331 -1.96999 0
M  V30 4364 H 448.805 4.40386 -0.388924 0
M  V30 4365 N 447.864 1.01787 1.20321 0
M  V30 4366 C 449.141 0.622978 1.85414 0
M  V30 4367 C 449.521 -0.898887 1.91006 0
M  V30 4368 O 448.869 -1.79112 1.41884 0
M  V30 4369 C 449.079 1.27226 3.24984 0
M  V30 4370 C 450.427 1.3885 4.01255 0
M  V30 4371 O 451.451 1.22857 3.34342 0
M  V30 4372 O 450.31 1.64705 5.2109 0
M  V30 4373 H 447.404 0.215116 0.798533 0
M  V30 4374 H 449.95 1.11533 1.27901 0
M  V30 4375 H 448.722 2.31209 3.15687 0
M  V30 4376 H 448.345 0.767069 3.90131 0
M  V30 4377 N 449.342 -1.36122 0.79427 0
M  V30 4378 C 450.758 -1.5232 0.476525 0
M  V30 4379 C 450.958 -1.74685 -1.00436 0
M  V30 4380 O 450.014 -1.78115 -1.78973 0
M  V30 4381 C 451.327 -2.70607 1.31119 0
M  V30 4382 C 452.875 -2.8448 1.30537 0
M  V30 4383 C 453.35 -4.05778 2.12387 0
M  V30 4384 N 454.841 -4.12933 2.09859 0
M  V30 4385 C 455.576 -5.05876 2.69957 0
M  V30 4386 N 455.072 -6.04232 3.38934 0
M  V30 4387 N 456.865 -4.98528 2.59665 0
M  V30 4388 H 449.016 -1.1986 1.75349 0
M  V30 4389 H 451.279 -0.585418 0.745647 0
M  V30 4390 H 450.985 -2.60619 2.36158 0
M  V30 4391 H 450.859 -3.64888 0.955843 0
M  V30 4392 H 453.246 -2.93927 0.262876 0
M  V30 4393 H 453.327 -1.91093 1.70051 0
M  V30 4394 H 452.971 -3.97092 3.1667 0
M  V30 4395 H 452.901 -4.98323 1.70242 0
M  V30 4396 H 455.392 -3.42515 1.59662 0
M  V30 4397 H 455.705 -6.71724 3.82109 0
M  V30 4398 H 454.05 -6.04443 3.43036 0
M  V30 4399 H 457.241 -4.20641 2.05375 0
M  V30 4400 H 457.414 -5.70773 3.06793 0
M  V30 4401 N 450.82 -0.546701 -1.47814 0
M  V30 4402 C 452.097 0.0464413 -1.95545 0
M  V30 4403 C 452.477 1.4962 -1.48919 0
M  V30 4404 O 451.825 2.16752 -0.723232 0
M  V30 4405 C 452.035 -0.0881298 -3.48889 0
M  V30 4406 C 453.383 0.0626059 -4.24554 0
M  V30 4407 O 454.407 -0.0151555 -3.56197 0
M  V30 4408 O 453.266 0.228071 -5.46024 0
M  V30 4409 H 450.36 0.0700004 -0.824032 0
M  V30 4410 H 452.906 -0.612482 -1.58262 0
M  V30 4411 H 451.678 -1.09737 -3.75597 0
M  V30 4412 H 451.301 0.608886 -3.9291 0
M  V30 4413 N 452.299 1.55045 -0.282633 0
M  V30 4414 C 453.547 1.99365 0.331334 0
M  V30 4415 C 453.868 1.1725 1.55812 0
M  V30 4416 O 453.138 0.263871 1.94115 0
M  V30 4417 H 451.718 0.736397 0.125414 0
M  V30 4418 H 454.38 1.90964 -0.389711 0
M  V30 4419 H 453.476 3.0596 0.616036 0
M  V30 4420 N 453.777 0.010035 1.57597 0
M  V30 4421 C 455.026 -0.671945 1.90178 0
M  V30 4422 C 455.339 -1.74376 0.886131 0
M  V30 4423 O 456.545 -2.48107 1.10252 0
M  V30 4424 C 455.001 -1.24636 3.3763 0
M  V30 4425 C 454.609 -0.208838 4.47513 0
M  V30 4426 C 456.353 -1.90595 3.79307 0
M  V30 4427 C 454.26 -0.793814 5.86048 0
M  V30 4428 H 453.19 -0.25474 0.709665 0
M  V30 4429 H 455.841 0.0722206 1.83358 0
M  V30 4430 H 454.223 -2.04152 3.3932 0
M  V30 4431 H 455.397 0.562463 4.57354 0
M  V30 4432 H 453.712 0.350889 4.14919 0
M  V30 4433 H 456.309 -2.35284 4.80151 0
M  V30 4434 H 456.652 -2.74074 3.13352 0
M  V30 4435 H 457.185 -1.17798 3.79958 0
M  V30 4436 H 453.924 0.00240855 6.555 0
M  V30 4437 H 453.444 -1.53404 5.79851 0
M  V30 4438 H 455.123 -1.2894 6.34022 0
M  V30 4439 N 455.255 -1.55392 -0.262866 0
M  V30 4440 C 456.503 -1.76127 -0.991147 0
M  V30 4441 C 456.824 -0.571083 -1.8645 0
M  V30 4442 O 456.094 0.413698 -1.91482 0
M  V30 4443 H 454.674 -0.649528 -0.368948 0
M  V30 4444 H 457.336 -1.9281 -0.284655 0
M  V30 4445 H 456.432 -2.6663 -1.62219 0
M  V30 4446 N 456.733 0.527833 -1.48498 0
M  V30 4447 C 458.01 1.28905 -1.47115 0
M  V30 4448 C 458.39 2.10297 -0.184007 0
M  V30 4449 O 457.738 2.12728 0.834218 0
M  V30 4450 C 457.948 2.16866 -2.73441 0
M  V30 4451 C 459.296 2.76936 -3.21857 0
M  V30 4452 O 460.32 2.27152 -2.74373 0
M  V30 4453 O 459.179 3.67496 -4.04486 0
M  V30 4454 H 456.273 0.581918 -0.587623 0
M  V30 4455 H 458.819 0.544311 -1.60734 0
M  V30 4456 H 457.591 1.56521 -3.58632 0
M  V30 4457 H 457.214 2.98583 -2.62553 0
M  V30 4458 N 458.211 1.37122 0.776871 0
M  V30 4459 C 459.174 1.32301 1.8716 0
M  V30 4460 C 460.174 0.228099 1.59174 0
M  V30 4461 O 461.364 0.483642 1.67352 0
M  V30 4462 C 458.496 1.054 3.24197 0
M  V30 4463 H 459.689 2.29673 1.92848 0
M  V30 4464 H 457.242 1.22077 0.97606 0
M  V30 4465 H 457.977 0.0853872 3.24188 0
M  V30 4466 H 457.762 1.84648 3.45901 0
M  V30 4467 H 459.252 1.04664 4.04271 0
M  V30 4468 N 459.689 -1.00246 1.21608 0
M  V30 4469 C 460.929 -1.75589 1.04631 0
M  V30 4470 C 461.293 -1.87513 -0.412648 0
M  V30 4471 O 462.494 -2.59444 -0.703003 0
M  V30 4472 C 460.765 -3.12893 1.72722 0
M  V30 4473 S 462.324 -4.04095 1.71034 0
M  V30 4474 H 459.142 -0.604133 0.374892 0
M  V30 4475 H 461.744 -1.19927 1.54395 0
M  V30 4476 H 460.448 -3.0185 2.78055 0
M  V30 4477 H 459.979 -3.73628 1.23149 0
M  V30 4478 H 461.994 -4.9045 0.753231 0
M  V30 4479 N 461.167 -1.02423 -1.1978 0
M  V30 4480 C 462.444 -0.632802 -1.85081 0
M  V30 4481 C 462.824 0.888745 -1.9148 0
M  V30 4482 O 462.172 1.78357 -1.42832 0
M  V30 4483 C 462.382 -1.28947 -3.24305 0
M  V30 4484 C 463.73 -1.40976 -4.00513 0
M  V30 4485 O 464.754 -1.24628 -3.33686 0
M  V30 4486 O 463.613 -1.67467 -5.20209 0
M  V30 4487 H 460.707 -0.219348 -0.79738 0
M  V30 4488 H 463.253 -1.12209 -1.27307 0
M  V30 4489 H 462.025 -2.3288 -3.14456 0
M  V30 4490 H 461.648 -0.787748 -3.89718 0
M  V30 4491 N 462.645 1.35699 -0.801477 0
M  V30 4492 C 464.056 1.81415 -0.441073 0
M  V30 4493 C 464.407 1.66595 1.03636 0
M  V30 4494 O 463.532 1.19369 1.80499 0
M  V30 4495 C 464.127 3.29369 -0.793819 0
M  V30 4496 C 462.686 3.73248 -0.486083 0
M  V30 4497 C 461.833 2.57775 -1.02213 0
M  V30 4498 H 464.784 1.23749 -0.993572 0
M  V30 4499 H 464.805 3.80395 -0.0894158 0
M  V30 4500 H 464.317 3.40123 -1.86917 0
M  V30 4501 H 462.418 3.68046 0.580735 0
M  V30 4502 H 462.531 4.68222 -1.01513 0
M  V30 4503 H 460.895 2.50788 -0.444712 0
M  V30 4504 H 461.678 2.71309 -2.10348 0
M  V30 4505 N 464.123 0.554532 1.47522 0
M  V30 4506 C 465.4 -0.0360704 1.95567 0
M  V30 4507 C 465.78 -1.48828 1.49711 0
M  V30 4508 O 465.128 -2.16366 0.734717 0
M  V30 4509 C 465.338 0.106631 3.48837 0
M  V30 4510 C 466.686 -0.0400899 4.24581 0
M  V30 4511 O 467.71 0.0340453 3.56184 0
M  V30 4512 O 466.569 -0.199111 5.46137 0
M  V30 4513 H 463.663 -0.0656294 0.824392 0
M  V30 4514 H 466.209 0.620867 1.57935 0
M  V30 4515 H 464.981 1.11727 3.7501 0
M  V30 4516 H 464.604 -0.58804 3.93227 0
M  V30 4517 N 465.601 -1.54893 0.290851 0
M  V30 4518 C 466.564 -2.21824 -0.576784 0
M  V30 4519 C 467.564 -1.20104 -1.06919 0
M  V30 4520 O 468.754 -1.44906 -0.966843 0
M  V30 4521 C 465.886 -2.89662 -1.79747 0
M  V30 4522 H 467.079 -2.99899 0.00784051 0
M  V30 4523 H 464.632 -1.56245 0.0415934 0
M  V30 4524 H 465.367 -2.15639 -2.42219 0
M  V30 4525 H 465.152 -3.64219 -1.45214 0
M  V30 4526 H 466.642 -3.4075 -2.4141 0
M  V30 4527 N 467.08 -0.0183926 -1.57589 0
M  V30 4528 C 468.357 0.700621 -1.82622 0
M  V30 4529 C 468.737 1.90951 -0.90005 0
M  V30 4530 O 468.085 2.28452 0.0469145 0
M  V30 4531 C 468.295 1.08899 -3.31575 0
M  V30 4532 C 469.643 1.48514 -3.9778 0
M  V30 4533 O 470.667 1.18227 -3.36007 0
M  V30 4534 O 469.526 2.04903 -5.06633 0
M  V30 4535 H 466.62 0.342743 -0.752633 0
M  V30 4536 H 469.166 -0.0452548 -1.6964 0
M  V30 4537 H 467.938 0.228113 -3.90635 0
M  V30 4538 H 467.561 1.89338 -3.49624 0
M  V30 4539 N 468.558 1.5553 0.254621 0
M  V30 4540 C 469.806 1.7665 0.981793 0
M  V30 4541 C 470.127 0.580963 1.86145 0
M  V30 4542 O 469.397 -0.403537 1.91699 0
M  V30 4543 H 467.977 0.651475 0.365498 0
M  V30 4544 H 470.639 1.92958 0.274426 0
M  V30 4545 H 469.735 2.67486 1.60802 0
M  V30 4546 N 470.036 -0.519951 1.48776 0
M  V30 4547 C 471.313 -1.28123 1.47797 0
M  V30 4548 C 471.693 -2.10196 0.195157 0
M  V30 4549 O 471.041 -2.13167 -0.822925 0
M  V30 4550 C 471.251 -2.15413 2.74587 0
M  V30 4551 C 472.599 -2.75225 3.23321 0
M  V30 4552 O 473.623 -2.25694 2.75574 0
M  V30 4553 O 472.482 -3.65346 4.06429 0
M  V30 4554 H 469.576 -0.578793 0.590701 0
M  V30 4555 H 472.122 -0.535779 1.6102 0
M  V30 4556 H 470.894 -1.54617 3.59457 0
M  V30 4557 H 470.517 -2.97186 2.64132 0
M  V30 4558 N 471.514 -1.37532 -0.769588 0
M  V30 4559 C 472.762 -1.32597 -1.5252 0
M  V30 4560 C 473.083 0.0884294 -1.94799 0
M  V30 4561 O 472.353 1.03289 -1.66458 0
M  V30 4562 H 470.933 -0.487846 -0.565699 0
M  V30 4563 H 473.595 -1.72044 -0.915806 0
M  V30 4564 H 472.691 -1.96643 -2.42359 0
M  V30 4565 N 472.992 0.995999 -1.22138 0
M  V30 4566 C 474.238 1.73767 -1.04561 0
M  V30 4567 C 474.571 1.89633 0.418698 0
M  V30 4568 O 473.846 1.43723 1.3105 0
M  V30 4569 C 474.129 3.14505 -1.75382 0
M  V30 4570 C 473.982 3.06306 -3.29388 0
M  V30 4571 C 475.301 4.13615 -1.50369 0
M  V30 4572 H 472.42 0.630728 -0.38125 0
M  V30 4573 H 475.062 1.16057 -1.50435 0
M  V30 4574 H 473.212 3.63775 -1.36383 0
M  V30 4575 H 474.884 2.64681 -3.77812 0
M  V30 4576 H 473.127 2.43186 -3.59226 0
M  V30 4577 H 473.798 4.05884 -3.74116 0
M  V30 4578 H 476.274 3.73089 -1.84239 0
M  V30 4579 H 475.15 5.10212 -2.02421 0
M  V30 4580 H 475.411 4.39949 -0.435611 0
M  V30 4581 N 474.47 1.03057 1.19235 0
M  V30 4582 C 475.881 0.757449 1.70645 0
M  V30 4583 C 476.232 -0.722735 1.82403 0
M  V30 4584 O 475.357 -1.56325 1.49638 0
M  V30 4585 C 475.952 1.36833 3.09939 0
M  V30 4586 C 474.511 1.14375 3.58602 0
M  V30 4587 C 473.658 1.46533 2.35422 0
M  V30 4588 H 476.609 1.19828 1.04052 0
M  V30 4589 H 476.63 0.766184 3.72706 0
M  V30 4590 H 476.142 2.44562 3.01349 0
M  V30 4591 H 474.243 0.0847542 3.72504 0
M  V30 4592 H 474.356 1.83366 4.42622 0
M  V30 4593 H 472.72 0.884712 2.38841 0
M  V30 4594 H 473.503 2.55349 2.2946 0
M  V30 4595 N 475.948 -1.35272 0.808662 0
M  V30 4596 C 476.896 -2.31663 0.208606 0
M  V30 4597 C 477.89 -1.56731 -0.642778 0
M  V30 4598 O 479.096 -1.71843 -0.53571 0
M  V30 4599 H 475.471 -0.750421 0.0486993 0
M  V30 4600 H 477.442 -2.79814 1.03666 0
M  V30 4601 C 476.191 -3.42008 -0.626573 0
M  V30 4602 H 475.514 -3.99795 0.0192103 0
M  V30 4603 H 476.954 -4.11727 -1.01278 0
M  V30 4604 C 475.413 -2.85226 -1.79298 0
M  V30 4605 O 475.943 -2.78945 -2.89055 0
M  V30 4606 N 474.149 -2.42245 -1.60516 0
M  V30 4607 H 473.696 -2.47554 -0.712375 0
M  V30 4608 H 473.654 -2.04603 -2.38715 0
M  V30 4609 N 477.426 -0.562348 -1.47226 0
M  V30 4610 C 478.336 0.185466 -2.33866 0
M  V30 4611 C 479.352 0.906713 -1.48508 0
M  V30 4612 O 480.528 0.874458 -1.81425 0
M  V30 4613 C 477.593 1.19904 -3.25306 0
M  V30 4614 C 476.654 0.484669 -4.26555 0
M  V30 4615 C 475.887 1.44996 -5.13626 0
M  V30 4616 O 476.11 2.68515 -5.03245 0
M  V30 4617 O 475.044 0.971642 -5.94006 0
M  V30 4618 H 478.87 -0.525361 -2.99121 0
M  V30 4619 H 476.455 -0.322916 -1.45868 0
M  V30 4620 H 478.337 1.78399 -3.81774 0
M  V30 4621 H 477.012 1.8917 -2.62672 0
M  V30 4622 H 475.919 -0.141605 -3.73832 0
M  V30 4623 H 477.252 -0.166634 -4.91918 0
M  V30 4624 N 478.904 1.54736 -0.299062 0
M  V30 4625 C 479.851 2.23448 0.577899 0
M  V30 4626 C 480.821 1.21637 1.13109 0
M  V30 4627 O 482.006 1.50252 1.17597 0
M  V30 4628 C 479.146 2.9774 1.74484 0
M  V30 4629 C 478.259 4.1432 1.22323 0
M  V30 4630 C 477.394 4.76199 2.35388 0
M  V30 4631 C 476.433 5.84927 1.80351 0
M  V30 4632 N 475.57 6.4077 2.86982 0
M  V30 4633 H 480.41 2.97996 -0.0146545 0
M  V30 4634 H 477.947 1.47088 -0.0190013 0
M  V30 4635 H 479.905 3.39045 2.43114 0
M  V30 4636 H 478.535 2.25572 2.30905 0
M  V30 4637 H 477.587 3.7797 0.429249 0
M  V30 4638 H 478.899 4.92659 0.780309 0
M  V30 4639 H 478.053 5.20346 3.11969 0
M  V30 4640 H 476.792 3.97188 2.83006 0
M  V30 4641 H 475.797 5.40207 1.02259 0
M  V30 4642 H 477.022 6.65821 1.3364 0
M  V30 4643 H 474.968 5.64643 3.33938 0
M  V30 4644 H 474.885 7.1445 2.4718 0
M  V30 4645 H 476.153 6.89574 3.63466 0
M  V30 4646 N 480.382 0.0267497 1.57577 0
M  V30 4647 C 481.659 -0.690926 1.82991 0
M  V30 4648 C 482.039 -1.90471 0.910164 0
M  V30 4649 O 481.387 -2.28474 -0.0347985 0
M  V30 4650 C 481.597 -1.07139 3.32148 0
M  V30 4651 C 482.945 -1.46402 3.98562 0
M  V30 4652 O 483.969 -1.16443 3.36629 0
M  V30 4653 O 482.828 -2.02214 5.07712 0
M  V30 4654 H 479.922 -0.338747 0.75444 0
M  V30 4655 H 482.468 0.0542506 1.69613 0
M  V30 4656 H 481.24 -0.207394 3.9075 0
M  V30 4657 H 480.863 -1.87481 3.50623 0
M  V30 4658 N 481.861 -1.55662 -0.24637 0
M  V30 4659 C 482.809 -1.91186 -1.3248 0
M  V30 4660 C 483.803 -0.790996 -1.49799 0
M  V30 4661 O 485.009 -0.975617 -1.51267 0
M  V30 4662 H 481.384 -0.607207 -0.443626 0
M  V30 4663 H 483.355 -2.81221 -0.997853 0
M  V30 4664 C 482.104 -2.22349 -2.67313 0
M  V30 4665 H 481.427 -3.08097 -2.54786 0
M  V30 4666 H 482.867 -2.51107 -3.41645 0
M  V30 4667 C 481.326 -1.04001 -3.20446 0
M  V30 4668 O 481.856 -0.28828 -4.00664 0
M  V30 4669 N 480.062 -0.830494 -2.7848 0
M  V30 4670 H 479.609 -1.4435 -2.13356 0
M  V30 4671 H 479.567 -0.0403258 -3.14374 0
M  V30 4672 N 483.339 0.512053 -1.4905 0
M  V30 4673 C 484.579 1.27715 -1.59588 0
M  V30 4674 C 484.943 1.90071 -0.271502 0
M  V30 4675 O 486.144 2.67616 -0.251987 0
M  V30 4676 C 484.415 2.32399 -2.71524 0
M  V30 4677 S 485.974 3.18396 -3.01943 0
M  V30 4678 H 482.792 0.43419 -0.563027 0
M  V30 4679 H 485.394 0.581315 -1.86657 0
M  V30 4680 H 484.098 1.85101 -3.66287 0
M  V30 4681 H 483.629 3.06667 -2.46412 0
M  V30 4682 H 485.644 4.32842 -2.42616 0
M  V30 4683 N 484.817 1.37938 0.762283 0
M  V30 4684 C 486.228 1.30094 1.33912 0
M  V30 4685 C 486.579 -0.0472026 1.96143 0
M  V30 4686 O 485.704 -0.94917 1.94473 0
M  V30 4687 C 486.299 2.35592 2.43478 0
M  V30 4688 C 484.858 2.31353 2.96905 0
M  V30 4689 C 484.005 2.18919 1.70205 0
M  V30 4690 H 486.956 1.48423 0.561816 0
M  V30 4691 H 486.977 2.00806 3.23199 0
M  V30 4692 H 486.489 3.33701 1.98155 0
M  V30 4693 H 484.59 1.36799 3.46579 0
M  V30 4694 H 484.703 3.25147 3.51875 0
M  V30 4695 H 483.067 1.65624 1.93496 0
M  V30 4696 H 483.85 3.18956 1.26973 0
M  V30 4697 N 486.295 -0.989507 1.22664 0
M  V30 4698 C 487.225 -2.09847 1.02404 0
M  V30 4699 C 488.206 -1.70007 -0.0561303 0
M  V30 4700 O 489.391 -1.93906 0.106748 0
M  V30 4701 C 486.521 -3.41996 0.604663 0
M  V30 4702 C 485.475 -3.95699 1.63115 0
M  V30 4703 C 484.801 -5.23936 1.0675 0
M  V30 4704 C 486.101 -4.25999 3.02196 0
M  V30 4705 H 487.795 -2.27054 1.95158 0
M  V30 4706 H 485.341 -1.09111 0.939727 0
M  V30 4707 H 487.294 -4.1899 0.45002 0
M  V30 4708 H 486.018 -3.24626 -0.35855 0
M  V30 4709 H 484.677 -3.2084 1.77362 0
M  V30 4710 H 484.325 -5.02909 0.0955422 0
M  V30 4711 H 484.025 -5.60833 1.75328 0
M  V30 4712 H 485.549 -6.0356 0.924516 0
M  V30 4713 H 486.963 -4.93777 2.91303 0
M  V30 4714 H 485.36 -4.74076 3.67929 0
M  V30 4715 H 486.43 -3.33636 3.51873 0
M  V30 4716 N 487.773 -1.03688 -1.18687 0
M  V30 4717 C 489.019 -0.739123 -1.88851 0
M  V30 4718 C 489.352 0.731042 -1.79915 0
M  V30 4719 O 488.627 1.53313 -1.19688 0
M  V30 4720 C 488.91 -1.20106 -3.3948 0
M  V30 4721 C 488.763 -2.73304 -3.57246 0
M  V30 4722 C 490.082 -0.788134 -4.32986 0
M  V30 4723 H 487.201 -0.269978 -0.68577 0
M  V30 4724 H 489.843 -1.28822 -1.3966 0
M  V30 4725 H 487.993 -0.733915 -3.81505 0
M  V30 4726 H 489.665 -3.28027 -3.24339 0
M  V30 4727 H 487.908 -3.13313 -3.00029 0
M  V30 4728 H 488.579 -3.00684 -4.62918 0
M  V30 4729 H 491.055 -1.19005 -3.98719 0
M  V30 4730 H 489.931 -1.13915 -5.36949 0
M  V30 4731 H 490.192 0.308988 -4.41019 0
M  V30 4732 N 489.251 1.34841 -0.815825 0
M  V30 4733 C 490.667 1.51543 -0.500697 0
M  V30 4734 C 490.867 1.76261 0.976444 0
M  V30 4735 O 489.923 1.8094 1.76117 0
M  V30 4736 C 491.236 2.68487 -1.35407 0
M  V30 4737 C 492.784 2.82368 -1.35046 0
M  V30 4738 C 493.259 4.02347 -2.18816 0
M  V30 4739 N 494.75 4.09542 -2.16402 0
M  V30 4740 C 495.485 5.01517 -2.77971 0
M  V30 4741 N 494.981 5.98763 -3.48503 0
M  V30 4742 N 496.774 4.94334 -2.67563 0
M  V30 4743 H 488.925 1.17055 -1.77234 0
M  V30 4744 H 491.188 0.573481 -0.754866 0
M  V30 4745 H 490.894 2.56829 -2.40274 0
M  V30 4746 H 490.768 3.63321 -1.01377 0
M  V30 4747 H 493.155 2.93471 -0.309604 0
M  V30 4748 H 493.236 1.88363 -1.73069 0
M  V30 4749 H 492.88 3.92004 -3.22948 0
M  V30 4750 H 492.81 4.95551 -1.78148 0
M  V30 4751 H 495.301 3.39932 -1.65091 0
M  V30 4752 H 495.614 6.6556 -3.92747 0
M  V30 4753 H 493.959 5.98909 -3.52609 0
M  V30 4754 H 497.15 4.1732 -2.12041 0
M  V30 4755 H 497.323 5.6582 -3.15834 0
M  V30 4756 N 490.729 0.570148 1.46925 0
M  V30 4757 C 491.677 -0.183181 2.31878 0
M  V30 4758 C 492.671 -0.896721 1.43719 0
M  V30 4759 O 493.877 -0.816536 1.60414 0
M  V30 4760 H 490.252 -0.077944 0.74795 0
M  V30 4761 H 492.223 0.552312 2.93244 0
M  V30 4762 C 490.972 -1.19172 3.2664 0
M  V30 4763 H 490.295 -0.652088 3.94446 0
M  V30 4764 H 491.735 -1.68946 3.88887 0
M  V30 4765 C 490.194 -2.24627 2.51086 0
M  V30 4766 O 490.724 -3.31773 2.26472 0
M  V30 4767 N 488.93 -1.98898 2.11867 0
M  V30 4768 H 488.477 -1.11777 2.32086 0
M  V30 4769 H 488.435 -2.6967 1.61634 0
M  V30 4770 N 492.207 -1.54576 0.307264 0
M  V30 4771 C 493.618 -1.8579 -0.184121 0
M  V30 4772 C 493.969 -1.22914 -1.52927 0
M  V30 4773 O 493.094 -0.529126 -2.09831 0
M  V30 4774 C 493.689 -3.37081 -0.340862 0
M  V30 4775 C 492.248 -3.68304 -0.776465 0
M  V30 4776 C 491.395 -2.77076 0.111503 0
M  V30 4777 H 494.346 -1.49656 0.528078 0
M  V30 4778 H 494.367 -3.61922 -1.17443 0
M  V30 4779 H 493.879 -3.82815 0.638309 0
M  V30 4780 H 491.98 -3.28092 -1.76596 0
M  V30 4781 H 492.093 -4.75434 -0.591512 0
M  V30 4782 H 490.457 -2.51374 -0.410256 0
M  V30 4783 H 491.24 -3.25632 1.08714 0
M  V30 4784 N 493.685 -0.035106 -1.57561 0
M  V30 4785 C 494.962 0.681212 -1.83354 0
M  V30 4786 C 495.342 1.89986 -0.920252 0
M  V30 4787 O 494.69 2.28489 0.0226815 0
M  V30 4788 C 494.9 1.05376 -3.32712 0
M  V30 4789 C 496.248 1.44286 -3.99333 0
M  V30 4790 O 497.272 1.14656 -3.37242 0
M  V30 4791 O 496.131 1.99518 -5.08778 0
M  V30 4792 H 493.225 0.334741 -0.756226 0
M  V30 4793 H 495.771 -0.0632448 -1.69582 0
M  V30 4794 H 494.543 0.186668 -3.90854 0
M  V30 4795 H 494.166 1.85619 -3.51613 0
M  V30 4796 N 495.163 1.55791 0.238111 0
M  V30 4797 C 496.095 1.87513 1.31802 0
M  V30 4798 C 497.108 0.762053 1.43863 0
M  V30 4799 O 498.297 1.04024 1.45056 0
M  V30 4800 C 495.397 2.05402 2.69561 0
M  V30 4801 C 494.57 3.3632 2.79656 0
M  V30 4802 C 493.629 3.43844 3.98319 0
M  V30 4803 O 492.655 4.16994 3.87433 0
M  V30 4804 N 493.857 2.73777 5.11885 0
M  V30 4805 H 496.622 2.80734 1.04922 0
M  V30 4806 H 494.183 1.56135 0.428196 0
M  V30 4807 H 496.175 2.07769 3.47296 0
M  V30 4808 H 494.745 1.18884 2.89111 0
M  V30 4809 H 493.965 3.46195 1.88528 0
M  V30 4810 H 495.253 4.22594 2.83358 0
M  V30 4811 H 494.651 2.14094 5.23622 0
M  V30 4812 H 493.208 2.81825 5.87723 0
M  V30 4813 N 496.642 -0.504142 1.49319 0
M  V30 4814 C 498.058 -0.835039 1.36012 0
M  V30 4815 C 498.258 -1.97674 0.390808 0
M  V30 4816 O 497.314 -2.51867 -0.178655 0
M  V30 4817 C 498.627 -1.17821 2.76656 0
M  V30 4818 C 500.175 -1.2866 2.85334 0
M  V30 4819 C 500.65 -1.66307 4.26739 0
M  V30 4820 N 502.141 -1.73362 4.29534 0
M  V30 4821 C 502.876 -2.0393 5.35911 0
M  V30 4822 N 502.372 -2.32744 6.52535 0
M  V30 4823 N 504.165 -2.05155 5.23324 0
M  V30 4824 H 496.316 0.248764 2.10938 0
M  V30 4825 H 498.579 0.0486962 0.946748 0
M  V30 4826 H 498.285 -0.412682 3.4927 0
M  V30 4827 H 498.159 -2.12239 3.11825 0
M  V30 4828 H 500.546 -2.04285 2.1296 0
M  V30 4829 H 500.627 -0.323004 2.53752 0
M  V30 4830 H 500.271 -0.91234 4.99639 0
M  V30 4831 H 500.201 -2.63761 4.55782 0
M  V30 4832 H 502.692 -1.53268 3.45424 0
M  V30 4833 H 503.005 -2.55248 7.2943 0
M  V30 4834 H 501.35 -2.30207 6.55767 0
M  V30 4835 H 504.541 -1.82119 4.3122 0
M  V30 4836 H 504.714 -2.28644 6.06322 0
M  V30 4837 N 498.12 -1.38341 -0.754957 0
M  V30 4838 C 499.068 -1.35573 -1.89005 0
M  V30 4839 C 500.062 -0.241824 -1.67665 0
M  V30 4840 O 501.268 -0.410785 -1.7525 0
M  V30 4841 H 497.643 -0.422898 -0.621821 0
M  V30 4842 H 499.614 -2.31359 -1.88455 0
M  V30 4843 C 498.363 -1.19631 -3.26471 0
M  V30 4844 H 497.686 -2.04605 -3.43477 0
M  V30 4845 H 499.126 -1.21748 -4.06144 0
M  V30 4846 C 497.585 0.0968705 -3.36761 0
M  V30 4847 O 498.115 1.07439 -3.87066 0
M  V30 4848 N 496.321 0.153242 -2.90196 0
M  V30 4849 H 495.868 -0.642908 -2.49448 0
M  V30 4850 H 495.826 1.01807 -2.9746 0
M  V30 4851 N 499.598 0.982988 -1.23187 0
M  V30 4852 C 500.826 1.75921 -1.08901 0
M  V30 4853 C 501.241 1.85341 0.359719 0
M  V30 4854 O 500.598 1.33072 1.24892 0
M  V30 4855 C 500.649 3.18742 -1.70545 0
M  V30 4856 O 500.37 3.09814 -3.09753 0
M  V30 4857 C 501.871 4.1277 -1.61667 0
M  V30 4858 H 499.091 0.552166 -0.381252 0
M  V30 4859 H 501.635 1.23516 -1.62985 0
M  V30 4860 H 499.79 3.68182 -1.20501 0
M  V30 4861 H 500.204 3.99703 -3.39614 0
M  V30 4862 H 501.678 5.10697 -2.09506 0
M  V30 4863 H 502.155 4.3542 -0.575009 0
M  V30 4864 H 502.761 3.69232 -2.11064 0
M  V30 4865 N 501.076 1.04316 1.18135 0
M  V30 4866 C 502.353 0.662166 1.84051 0
M  V30 4867 C 502.733 -0.858169 1.9287 0
M  V30 4868 O 502.081 -1.76062 1.45652 0
M  V30 4869 C 502.291 1.3409 3.22212 0
M  V30 4870 C 503.639 1.4733 3.9822 0
M  V30 4871 O 504.663 1.29921 3.31661 0
M  V30 4872 O 503.522 1.75722 5.17479 0
M  V30 4873 H 500.616 0.232005 0.79379 0
M  V30 4874 H 503.162 1.1422 1.25506 0
M  V30 4875 H 501.934 2.37853 3.10711 0
M  V30 4876 H 501.557 0.849649 3.88416 0
M  V30 4877 N 502.554 -1.34406 0.822964 0
M  V30 4878 C 503.464 -2.33298 0.246838 0
M  V30 4879 C 504.48 -1.62625 -0.618797 0
M  V30 4880 O 505.656 -1.94391 -0.526685 0
M  V30 4881 C 502.721 -3.41785 -0.581731 0
M  V30 4882 C 501.782 -4.28206 0.306309 0
M  V30 4883 C 501.015 -5.31512 -0.48281 0
M  V30 4884 O 501.238 -5.43973 -1.71607 0
M  V30 4885 O 500.172 -6.01749 0.134884 0
M  V30 4886 H 503.998 -2.84401 1.06534 0
M  V30 4887 H 501.583 -1.37466 0.585108 0
M  V30 4888 H 503.465 -4.08028 -1.05313 0
M  V30 4889 H 502.14 -2.92925 -1.37756 0
M  V30 4890 H 501.047 -3.64885 0.825199 0
M  V30 4891 H 502.38 -4.80507 1.06649 0
M  V30 4892 N 504.032 -0.577932 -1.46621 0
M  V30 4893 C 505.309 0.00495287 -1.95599 0
M  V30 4894 C 505.689 1.46428 -1.5206 0
M  V30 4895 O 505.037 2.1517 -0.769046 0
M  V30 4896 C 505.247 -0.162114 -3.48623 0
M  V30 4897 C 506.595 -0.0274623 -4.24591 0
M  V30 4898 O 507.619 -0.0907067 -3.56084 0
M  V30 4899 O 506.478 0.1122 -5.46385 0
M  V30 4900 H 503.572 0.0525057 -0.825332 0
M  V30 4901 H 506.118 -0.645914 -1.56927 0
M  V30 4902 H 504.89 -1.17679 -3.73185 0
M  V30 4903 H 504.513 0.525407 -3.94113 0
M  V30 4904 N 505.51 1.54411 -0.315457 0
M  V30 4905 C 506.457 2.24048 0.554166 0
M  V30 4906 C 507.427 1.2283 1.11812 0
M  V30 4907 O 508.612 1.51491 1.15997 0
M  V30 4908 C 505.752 2.99574 1.71316 0
M  V30 4909 C 504.865 4.15594 1.17922 0
M  V30 4910 C 504 4.78669 2.30324 0
M  V30 4911 C 503.039 5.86807 1.74137 0
M  V30 4912 N 502.176 6.43777 2.8017 0
M  V30 4913 H 507.016 2.97964 -0.0462602 0
M  V30 4914 H 504.553 1.47059 -0.0346009 0
M  V30 4915 H 506.511 3.41604 2.39505 0
M  V30 4916 H 505.141 2.28008 2.285 0
M  V30 4917 H 504.193 3.78404 0.389136 0
M  V30 4918 H 505.505 4.93459 0.728012 0
M  V30 4919 H 504.659 5.23626 3.06433 0
M  V30 4920 H 503.398 4.00168 2.78778 0
M  V30 4921 H 502.403 5.41261 0.965236 0
M  V30 4922 H 503.628 6.67201 1.2657 0
M  V30 4923 H 501.574 5.68153 3.2793 0
M  V30 4924 H 501.491 7.17031 2.39588 0
M  V30 4925 H 502.759 6.9339 3.56132 0
M  V30 4926 N 506.988 0.0434614 1.5754 0
M  V30 4927 C 508.234 -0.627109 1.93491 0
M  V30 4928 C 508.589 -1.68904 0.921362 0
M  V30 4929 O 507.882 -1.91504 -0.0605799 0
M  V30 4930 C 508.076 -1.2738 3.3393 0
M  V30 4931 C 507.905 -0.27603 4.48852 0
M  V30 4932 C 506.675 0.129244 5.05135 0
M  V30 4933 C 508.873 0.475462 5.12098 0
M  V30 4934 N 506.855 1.12068 6.03584 0
M  V30 4935 C 508.226 1.32021 6.05781 0
M  V30 4936 C 510.281 0.534611 4.95022 0
M  V30 4937 C 508.984 2.2188 6.84223 0
M  V30 4938 C 511.01 1.42059 5.74085 0
M  V30 4939 C 510.372 2.25309 6.67394 0
M  V30 4940 H 506.471 -0.201354 0.755633 0
M  V30 4941 H 509.055 0.113991 1.94366 0
M  V30 4942 H 507.226 -1.98496 3.33847 0
M  V30 4943 H 508.958 -1.90255 3.57191 0
M  V30 4944 H 505.713 -0.248145 4.72949 0
M  V30 4945 H 506.137 1.61306 6.57502 0
M  V30 4946 H 510.779 -0.0947817 4.22694 0
M  V30 4947 H 508.497 2.85868 7.55847 0
M  V30 4948 H 512.083 1.47083 5.62901 0
M  V30 4949 H 510.963 2.92754 7.27506 0
M  V30 4950 N 508.466 -1.55915 -0.229846 0
M  V30 4951 C 509.714 -1.7819 -0.953565 0
M  V30 4952 C 510.035 -0.610504 -1.85197 0
M  V30 4953 O 509.305 0.372988 -1.92316 0
M  V30 4954 H 507.885 -0.657208 -0.355087 0
M  V30 4955 H 510.547 -1.9337 -0.243693 0
M  V30 4956 H 509.643 -2.70011 -1.56527 0
M  V30 4957 N 509.944 0.496216 -1.49584 0
M  V30 4958 C 511.221 1.25755 -1.49816 0
M  V30 4959 C 511.601 2.09859 -0.228572 0
M  V30 4960 O 510.949 2.14449 0.788908 0
M  V30 4961 C 511.159 2.11017 -2.7798 0
M  V30 4962 C 512.507 2.70047 -3.27658 0
M  V30 4963 O 513.531 2.21281 -2.79129 0
M  V30 4964 O 512.39 3.58834 -4.1219 0
M  V30 4965 H 509.484 0.569322 -0.599834 0
M  V30 4966 H 512.03 0.510094 -1.61852 0
M  V30 4967 H 510.802 1.48879 -3.61871 0
M  V30 4968 H 510.425 2.92947 -2.68827 0
M  V30 4969 N 511.423 1.38739 0.74761 0
M  V30 4970 C 512.386 1.36241 1.84312 0
M  V30 4971 C 513.386 0.261811 1.58654 0
M  V30 4972 O 514.576 0.519031 1.66288 0
M  V30 4973 C 511.708 1.12253 3.21888 0
M  V30 4974 H 512.901 2.33712 1.87933 0
M  V30 4975 H 510.454 1.2412 0.949946 0
M  V30 4976 H 511.189 0.154133 3.23934 0
M  V30 4977 H 510.974 1.91943 3.41907 0
M  V30 4978 H 512.464 1.13215 4.0196 0
M  V30 4979 N 512.901 -0.976442 1.23707 0
M  V30 4980 C 514.141 -1.73331 1.08332 0
M  V30 4981 C 514.505 -1.88346 -0.372781 0
M  V30 4982 O 515.706 -2.60877 -0.647813 0
M  V30 4983 C 513.977 -3.09159 1.7932 0
M  V30 4984 S 515.536 -4.00376 1.79567 0
M  V30 4985 H 512.354 -0.596045 0.387622 0
M  V30 4986 H 514.956 -1.16625 1.56904 0
M  V30 4987 H 513.66 -2.95884 2.84395 0
M  V30 4988 H 513.191 -3.70932 1.31046 0
M  V30 4989 H 515.206 -4.88742 0.857094 0
M  V30 4990 N 514.379 -1.04941 -1.1758 0
M  V30 4991 C 515.656 -0.671918 -1.83697 0
M  V30 4992 C 516.036 0.847929 -1.93322 0
M  V30 4993 O 515.384 1.75287 -1.46583 0
M  V30 4994 C 515.594 -1.35797 -3.21497 0
M  V30 4995 C 516.942 -1.4944 -3.97433 0
M  V30 4996 O 517.966 -1.31678 -3.30967 0
M  V30 4997 O 516.825 -1.78463 -5.1654 0
M  V30 4998 H 513.919 -0.236212 -0.792548 0
M  V30 4999 H 516.465 -1.14884 -1.24899 0
M  V30 5000 H 515.237 -2.39498 -3.09446 0
M  V30 5001 H 514.86 -0.870236 -3.8796 0
M  V30 5002 N 515.857 1.33968 -0.830081 0
M  V30 5003 C 516.805 2.31301 -0.245435 0
M  V30 5004 C 517.799 1.57734 0.617762 0
M  V30 5005 O 519.005 1.72674 0.508303 0
M  V30 5006 H 515.38 0.749552 -0.0606316 0
M  V30 5007 H 517.351 2.78129 -1.08105 0
M  V30 5008 C 516.1 3.42961 0.572084 0
M  V30 5009 H 515.423 3.99714 -0.0828118 0
M  V30 5010 H 516.863 4.13286 0.94715 0
M  V30 5011 C 515.322 2.88043 1.74737 0
M  V30 5012 O 515.852 2.83508 2.8458 0
M  V30 5013 N 514.058 2.44768 1.56642 0
M  V30 5014 H 513.605 2.48656 0.672901 0
M  V30 5015 H 513.563 2.08375 2.3543 0
M  V30 5016 N 517.335 0.585699 1.46312 0
M  V30 5017 C 518.575 0.0751432 2.04262 0
M  V30 5018 C 518.939 -1.26201 1.44697 0
M  V30 5019 O 520.14 -1.86198 1.93865 0
M  V30 5020 C 518.411 0.013478 3.57397 0
M  V30 5021 S 519.97 -0.439068 4.36598 0
M  V30 5022 H 516.788 0.0389228 0.709934 0
M  V30 5023 H 519.39 0.778871 1.79315 0
M  V30 5024 H 518.094 0.990558 3.98266 0
M  V30 5025 H 517.625 -0.712927 3.86886 0
M  V30 5026 H 519.64 -1.6932 4.66417 0
M  V30 5027 N 518.813 -1.54241 0.323641 0
M  V30 5028 C 520.229 -1.59574 -0.0290018 0
M  V30 5029 C 520.429 -1.34017 -1.50472 0
M  V30 5030 O 519.485 -1.12464 -2.26071 0
M  V30 5031 C 520.798 -2.98169 0.389295 0
M  V30 5032 C 522.346 -3.11148 0.339958 0
M  V30 5033 C 522.821 -4.5209 0.733418 0
M  V30 5034 N 524.312 -4.5808 0.686827 0
M  V30 5035 C 525.047 -5.65248 0.963464 0
M  V30 5036 N 524.543 -6.80355 1.30724 0
M  V30 5037 N 526.336 -5.55025 0.88902 0
M  V30 5038 H 518.487 -1.6911 1.28512 0
M  V30 5039 H 520.75 -0.790972 0.522558 0
M  V30 5040 H 520.456 -3.21871 1.41746 0
M  V30 5041 H 520.33 -3.76399 -0.245657 0
M  V30 5042 H 522.717 -2.87182 -0.679002 0
M  V30 5043 H 522.798 -2.35023 1.00985 0
M  V30 5044 H 522.442 -4.76788 1.75029 0
M  V30 5045 H 522.372 -5.26584 0.0412189 0
M  V30 5046 H 524.863 -3.75411 0.43298 0
M  V30 5047 H 525.176 -7.58029 1.5037 0
M  V30 5048 H 523.521 -6.81851 1.3455 0
M  V30 5049 H 526.712 -4.63977 0.619939 0
M  V30 5050 H 526.885 -6.38458 1.10797 0
M  V30 5051 N 520.291 -0.0518155 -1.57515 0
M  V30 5052 C 521.516 0.634896 -1.97443 0
M  V30 5053 C 521.941 1.63546 -0.929207 0
M  V30 5054 O 521.299 1.80981 0.107484 0
M  V30 5055 C 521.347 1.29765 -3.36442 0
M  V30 5056 O 520.451 2.41333 -3.34413 0
M  V30 5057 H 519.792 0.164994 -0.643174 0
M  V30 5058 H 522.322 -0.120407 -2.04245 0
M  V30 5059 H 522.332 1.64918 -3.73184 0
M  V30 5060 H 521.007 0.564361 -4.12053 0
M  V30 5061 H 519.584 2.08122 -3.09418 0
M  V30 5062 N 521.769 1.56035 0.221574 0
M  V30 5063 C 522.701 1.889 1.29805 0
M  V30 5064 C 523.714 0.777269 1.43047 0
M  V30 5065 O 524.903 1.05557 1.43945 0
M  V30 5066 C 522.003 2.0825 2.67367 0
M  V30 5067 C 521.176 3.39267 2.76073 0
M  V30 5068 C 520.235 3.48049 3.94649 0
M  V30 5069 O 519.261 4.2108 3.82988 0
M  V30 5070 N 520.463 2.79191 5.08953 0
M  V30 5071 H 523.228 2.81831 1.01938 0
M  V30 5072 H 520.789 1.5658 0.411612 0
M  V30 5073 H 522.781 2.11441 3.45072 0
M  V30 5074 H 521.351 1.21944 2.87834 0
M  V30 5075 H 520.571 3.48175 1.84846 0
M  V30 5076 H 521.859 4.25575 2.7886 0
M  V30 5077 H 521.257 2.19635 5.21322 0
M  V30 5078 H 519.814 2.88043 5.84701 0
M  V30 5079 N 523.247 -0.488276 1.49845 0
M  V30 5080 C 524.194 -1.58836 1.67451 0
M  V30 5081 C 525.164 -1.57886 0.515857 0
M  V30 5082 O 526.349 -1.75679 0.744403 0
M  V30 5083 C 523.489 -2.96915 1.75885 0
M  V30 5084 C 522.602 -3.07784 3.03138 0
M  V30 5085 C 521.737 -4.36673 3.02473 0
M  V30 5086 C 520.776 -4.41222 4.24252 0
M  V30 5087 N 519.913 -5.61557 4.21424 0
M  V30 5088 H 524.753 -1.43131 2.61376 0
M  V30 5089 H 522.29 -0.696186 1.29583 0
M  V30 5090 H 524.248 -3.76965 1.78755 0
M  V30 5091 H 522.878 -3.11295 0.85414 0
M  V30 5092 H 521.93 -2.20717 3.09819 0
M  V30 5093 H 523.242 -3.07005 3.93128 0
M  V30 5094 H 522.396 -5.25055 3.03977 0
M  V30 5095 H 521.135 -4.40037 2.10283 0
M  V30 5096 H 520.14 -3.5124 4.22978 0
M  V30 5097 H 521.365 -4.39564 5.17649 0
M  V30 5098 H 519.311 -5.65738 3.32078 0
M  V30 5099 H 519.228 -5.62447 5.05163 0
M  V30 5100 H 520.496 -6.52111 4.2705 0
M  V30 5101 N 524.725 -1.39134 -0.740242 0
M  V30 5102 C 525.673 -1.3757 -1.87556 0
M  V30 5103 C 526.667 -0.259593 -1.67399 0
M  V30 5104 O 527.873 -0.429349 -1.74804 0
M  V30 5105 H 524.248 -0.42947 -0.6173 0
M  V30 5106 H 526.219 -2.33345 -1.85991 0
M  V30 5107 C 524.968 -1.23087 -3.25184 0
M  V30 5108 H 524.291 -2.08237 -3.41288 0
M  V30 5109 H 525.731 -1.26049 -4.0483 0
M  V30 5110 C 524.19 0.0611471 -3.36845 0
M  V30 5111 O 524.72 1.03328 -3.88183 0
M  V30 5112 N 522.926 0.122454 -2.90342 0
M  V30 5113 H 522.473 -0.669329 -2.48752 0
M  V30 5114 H 522.431 0.986463 -2.98523 0
M  V30 5115 N 526.204 0.969867 -1.24223 0
M  V30 5116 C 527.481 1.68774 -0.988664 0
M  V30 5117 C 527.861 2.05342 0.489673 0
M  V30 5118 O 527.209 1.75486 1.46345 0
M  V30 5119 C 527.419 2.92135 -1.90941 0
M  V30 5120 C 528.767 3.64422 -2.17903 0
M  V30 5121 O 529.791 3.02188 -1.88576 0
M  V30 5122 O 528.65 4.76446 -2.67697 0
M  V30 5123 H 525.744 0.737736 -0.37373 0
M  V30 5124 H 528.29 1.02415 -1.35312 0
M  V30 5125 H 527.062 2.61788 -2.90831 0
M  V30 5126 H 526.685 3.66228 -1.54798 0
M  V30 5127 N 527.682 1.05563 1.17022 0
M  V30 5128 C 528.959 0.68165 1.83338 0
M  V30 5129 C 529.339 -0.837665 1.93769 0
M  V30 5130 O 528.687 -1.74507 1.47511 0
M  V30 5131 C 528.897 1.375 3.20772 0
M  V30 5132 C 530.245 1.51545 3.96635 0
M  V30 5133 O 531.269 1.33431 3.30264 0
M  V30 5134 O 530.128 1.812 5.15586 0
M  V30 5135 H 527.222 0.240412 0.791285 0
M  V30 5136 H 529.768 1.15545 1.24288 0
M  V30 5137 H 528.54 2.41135 3.08171 0
M  V30 5138 H 528.163 0.890798 3.87493 0
M  V30 5139 N 529.16 -1.33526 0.837174 0
M  V30 5140 C 530.092 -2.28077 0.226579 0
M  V30 5141 C 531.105 -1.51666 -0.591717 0
M  V30 5142 O 532.294 -1.73511 -0.419064 0
M  V30 5143 C 529.394 -3.31597 -0.69978 0
M  V30 5144 C 528.567 -4.37329 0.0788067 0
M  V30 5145 C 527.626 -5.20526 -0.770637 0
M  V30 5146 O 526.652 -5.68811 -0.210453 0
M  V30 5147 N 527.854 -5.41639 -2.08825 0
M  V30 5148 H 530.619 -2.81115 1.03897 0
M  V30 5149 H 528.18 -1.46201 0.695476 0
M  V30 5150 H 530.172 -3.84158 -1.27298 0
M  V30 5151 H 528.742 -2.78848 -1.41288 0
M  V30 5152 H 527.962 -3.8529 0.833381 0
M  V30 5153 H 529.25 -5.05079 0.614238 0
M  V30 5154 H 528.648 -5.04108 -2.56693 0
M  V30 5155 H 527.205 -5.97263 -2.60998 0
M  V30 5156 N 530.638 -0.59345 -1.46 0
M  V30 5157 C 531.585 0.133618 -2.30413 0
M  V30 5158 C 532.555 0.873736 -1.41262 0
M  V30 5159 O 533.74 0.862279 -1.70204 0
M  V30 5160 C 530.88 1.13434 -3.25924 0
M  V30 5161 C 529.993 0.39656 -4.30176 0
M  V30 5162 C 529.128 1.38575 -5.12806 0
M  V30 5163 C 528.167 0.634984 -6.08797 0
M  V30 5164 N 527.304 1.57276 -6.84258 0
M  V30 5165 H 532.144 -0.592252 -2.92055 0
M  V30 5166 H 529.681 -0.303874 -1.43927 0
M  V30 5167 H 531.639 1.72752 -3.79753 0
M  V30 5168 H 530.269 1.82779 -2.66067 0
M  V30 5169 H 529.321 -0.311861 -3.79119 0
M  V30 5170 H 530.633 -0.189869 -4.98438 0
M  V30 5171 H 529.787 2.05141 -5.70966 0
M  V30 5172 H 528.526 2.00611 -4.44529 0
M  V30 5173 H 527.531 -0.0443925 -5.49782 0
M  V30 5174 H 528.756 0.0198678 -6.79097 0
M  V30 5175 H 526.702 2.18103 -6.18682 0
M  V30 5176 H 526.619 1.03941 -7.48821 0
M  V30 5177 H 527.887 2.22844 -7.46968 0
M  V30 5178 N 532.116 1.54067 -0.331816 0
M  V30 5179 C 533.393 1.92915 0.322955 0
M  V30 5180 C 533.773 1.26225 1.69205 0
M  V30 5181 O 533.121 0.408919 2.24811 0
M  V30 5182 C 533.331 3.46619 0.406946 0
M  V30 5183 C 534.679 4.19386 0.663339 0
M  V30 5184 O 535.703 3.5282 0.489536 0
M  V30 5185 O 534.562 5.37288 0.999193 0
M  V30 5186 H 531.656 0.805808 0.186016 0
M  V30 5187 H 534.202 1.65342 -0.382135 0
M  V30 5188 H 532.974 3.87354 -0.554287 0
M  V30 5189 H 532.597 3.80324 1.15929 0
M  V30 5190 N 533.594 0.0601682 1.57485 0
M  V30 5191 C 534.822 -0.620937 1.97363 0
M  V30 5192 C 535.237 -1.63846 0.938082 0
M  V30 5193 O 534.594 -1.82339 -0.0766578 0
M  V30 5194 C 534.645 -1.29987 3.37321 0
M  V30 5195 O 534.366 -0.323081 4.36907 0
M  V30 5196 C 535.867 -2.06989 3.92008 0
M  V30 5197 H 533.087 -0.169135 0.649334 0
M  V30 5198 H 535.631 0.129132 2.04092 0
M  V30 5199 H 533.786 -2.0011 3.31715 0
M  V30 5200 H 534.2 -0.808754 5.18227 0
M  V30 5201 H 535.674 -2.49901 4.92192 0
M  V30 5202 H 536.151 -2.92173 3.2792 0
M  V30 5203 H 536.757 -1.41757 4.0098 0
M  V30 5204 N 535.072 -1.5615 -0.213296 0
M  V30 5205 C 536.349 -1.70349 -0.961281 0
M  V30 5206 C 536.729 -0.609791 -2.02101 0
M  V30 5207 O 536.077 0.381987 -2.25285 0
M  V30 5208 C 536.287 -3.11982 -1.56424 0
M  V30 5209 C 537.635 -3.71649 -2.05334 0
M  V30 5210 O 538.659 -3.14995 -1.66302 0
M  V30 5211 O 537.518 -4.71038 -2.77102 0
M  V30 5212 H 534.612 -0.694121 -0.449582 0
M  V30 5213 H 537.158 -1.68464 -0.204426 0
M  V30 5214 H 535.93 -3.83046 -0.799457 0
M  V30 5215 H 535.553 -3.18019 -2.38641 0
M  V30 5216 N 536.55 0.480323 -1.50102 0
M  V30 5217 C 537.482 1.59669 -1.64433 0
M  V30 5218 C 538.495 1.54063 -0.52615 0
M  V30 5219 O 539.684 1.59619 -0.798992 0
M  V30 5220 C 536.784 2.98527 -1.6042 0
M  V30 5221 C 535.957 3.291 -2.88117 0
M  V30 5222 C 535.016 4.47468 -2.76873 0
M  V30 5223 O 534.042 4.4823 -3.50825 0
M  V30 5224 N 535.244 5.48593 -1.89806 0
M  V30 5225 H 538.009 1.47795 -2.60723 0
M  V30 5226 H 535.57 0.66858 -1.4745 0
M  V30 5227 H 537.562 3.75666 -1.50523 0
M  V30 5228 H 536.132 3.04218 -0.719036 0
M  V30 5229 H 535.352 2.40662 -3.12211 0
M  V30 5230 H 536.64 3.46334 -3.72734 0
M  V30 5231 H 536.038 5.50791 -1.2902 0
M  V30 5232 H 534.595 6.24752 -1.85819 0
M  V30 5233 N 538.028 1.39524 0.732853 0
M  V30 5234 C 539.305 1.27373 1.48444 0
M  V30 5235 C 539.685 -0.115725 2.10783 0
M  V30 5236 O 539.033 -1.12713 1.98766 0
M  V30 5237 C 539.243 2.39966 2.53412 0
M  V30 5238 C 540.591 2.79384 3.19733 0
M  V30 5239 O 541.615 2.39431 2.63725 0
M  V30 5240 O 540.474 3.48353 4.21085 0
M  V30 5241 H 537.568 0.499272 0.659285 0
M  V30 5242 H 540.114 1.51403 0.766496 0
M  V30 5243 H 538.886 3.32845 2.05742 0
M  V30 5244 H 538.509 2.17612 3.32762 0
M  V30 5245 N 539.506 -0.963266 1.24736 0
M  V30 5246 C 540.754 -1.70343 1.08755 0
M  V30 5247 C 541.075 -1.91387 -0.373619 0
M  V30 5248 O 540.345 -1.4948 -1.2662 0
M  V30 5249 H 538.925 -0.631224 0.399456 0
M  V30 5250 H 541.587 -1.15859 1.56725 0
M  V30 5251 H 540.683 -2.68616 1.58909 0
M  V30 5252 N 540.985 -1.06182 -1.16461 0
M  V30 5253 C 542.401 -0.785065 -1.38956 0
M  V30 5254 C 542.601 0.616103 -1.9185 0
M  V30 5255 O 541.657 1.37686 -2.11657 0
M  V30 5256 C 542.97 -1.84902 -2.37132 0
M  V30 5257 C 544.518 -1.8724 -2.50819 0
M  V30 5258 C 544.993 -2.92686 -3.52277 0
M  V30 5259 N 546.484 -2.91712 -3.59803 0
M  V30 5260 C 547.219 -3.69949 -4.38093 0
M  V30 5261 N 546.715 -4.58 -5.19815 0
M  V30 5262 N 548.508 -3.58346 -4.33064 0
M  V30 5263 H 540.659 -1.96569 -0.804634 0
M  V30 5264 H 542.922 -0.851747 -0.416211 0
M  V30 5265 H 542.628 -2.85518 -2.0536 0
M  V30 5266 H 542.502 -1.69908 -3.36766 0
M  V30 5267 H 544.889 -0.872827 -2.81897 0
M  V30 5268 H 544.97 -2.06311 -1.51226 0
M  V30 5269 H 544.614 -3.92835 -3.21937 0
M  V30 5270 H 544.544 -2.70864 -4.51598 0
M  V30 5271 H 547.035 -2.27876 -3.01464 0
M  V30 5272 H 547.348 -5.14357 -5.76764 0
M  V30 5273 H 545.693 -4.62056 -5.19162 0
M  V30 5274 H 548.884 -2.88943 -3.68279 0
M  V30 5275 H 549.057 -4.19563 -4.93833 0
M  V30 5276 N 542.463 1.3308 -0.844243 0
M  V30 5277 C 543.711 1.97215 -0.441676 0
M  V30 5278 C 544.032 1.67185 1.0037 0
M  V30 5279 O 543.302 0.973588 1.69994 0
M  V30 5280 H 541.882 0.72959 -0.160335 0
M  V30 5281 H 544.544 1.62348 -1.07838 0
M  V30 5282 H 543.64 3.06698 -0.57815 0
M  V30 5283 N 543.941 0.601185 1.45683 0
M  V30 5284 C 545.218 0.0261659 1.95582 0
M  V30 5285 C 545.598 -1.4399 1.5437 0
M  V30 5286 O 544.946 -2.13919 0.80318 0
M  V30 5287 C 545.156 0.217557 3.48321 0
M  V30 5288 C 546.504 0.0950076 4.24494 0
M  V30 5289 O 547.528 0.147345 3.55895 0
M  V30 5290 O 546.387 -0.025261 5.46494 0
M  V30 5291 H 543.481 -0.0393688 0.826062 0
M  V30 5292 H 546.027 0.670798 1.55879 0
M  V30 5293 H 544.799 1.23601 3.71266 0
M  V30 5294 H 544.422 -0.46264 3.94899 0
M  V30 5295 N 545.419 -1.53889 0.339982 0
M  V30 5296 C 546.382 -2.23547 -0.50592 0
M  V30 5297 C 547.382 -1.23445 -1.03044 0
M  V30 5298 O 548.572 -1.47909 -0.920253 0
M  V30 5299 C 545.704 -2.95234 -1.7044 0
M  V30 5300 H 546.897 -2.99722 0.103247 0
M  V30 5301 H 544.45 -1.56033 0.0912804 0
M  V30 5302 H 545.185 -2.23236 -2.35236 0
M  V30 5303 H 544.97 -3.68654 -1.33553 0
M  V30 5304 H 546.46 -3.48258 -2.30447 0
M  V30 5305 N 546.897 -0.0685191 -1.57451 0
M  V30 5306 C 548.137 0.605038 -1.9524 0
M  V30 5307 C 548.501 1.66974 -0.947816 0
M  V30 5308 O 549.702 2.39862 -1.21325 0
M  V30 5309 C 547.973 1.16999 -3.37707 0
M  V30 5310 S 549.532 1.85913 -3.97469 0
M  V30 5311 H 546.35 0.198203 -0.682815 0
M  V30 5312 H 548.952 -0.141594 -1.94987 0
M  V30 5313 H 547.656 0.383205 -4.08607 0
M  V30 5314 H 547.187 1.95305 -3.41496 0
M  V30 5315 H 549.202 3.14128 -3.84107 0
M  V30 5316 N 548.375 1.56261 0.205012 0
M  V30 5317 C 549.652 1.70856 0.952233 0
M  V30 5318 C 550.032 0.620501 2.01775 0
M  V30 5319 O 549.38 -0.370035 2.25484 0
M  V30 5320 C 549.59 3.12807 1.54767 0
M  V30 5321 C 550.938 3.72733 2.0336 0
M  V30 5322 O 551.962 3.15873 1.64629 0
M  V30 5323 O 550.821 4.72501 2.746 0
M  V30 5324 H 547.915 0.696496 0.445895 0
M  V30 5325 H 550.461 1.6857 0.195489 0
M  V30 5326 H 549.233 3.83465 0.779132 0
M  V30 5327 H 548.856 3.1928 2.36951 0
M  V30 5328 N 549.853 -0.472356 1.50355 0
M  V30 5329 C 551.13 -1.23356 1.51798 0
M  V30 5330 C 551.51 -2.09469 0.26193 0
M  V30 5331 O 550.858 -2.15677 -0.754691 0
M  V30 5332 C 551.068 -2.06568 2.81302 0
M  V30 5333 C 552.416 -2.648 3.31913 0
M  V30 5334 O 553.44 -2.16812 2.82614 0
M  V30 5335 O 552.299 -3.52231 4.17846 0
M  V30 5336 H 549.393 -0.559707 0.608816 0
M  V30 5337 H 551.939 -0.48428 1.62643 0
M  V30 5338 H 550.711 -1.43103 3.64194 0
M  V30 5339 H 550.334 -2.88633 2.73454 0
M  V30 5340 N 551.331 -1.39911 -0.725443 0
M  V30 5341 C 552.608 -1.28158 -1.47766 0
M  V30 5342 C 552.988 0.104545 -2.10841 0
M  V30 5343 O 552.336 1.11657 -1.99361 0
M  V30 5344 C 552.546 -2.41306 -2.52135 0
M  V30 5345 C 553.894 -2.81076 -3.18247 0
M  V30 5346 O 554.918 -2.40827 -2.62452 0
M  V30 5347 O 553.777 -3.50581 -4.19231 0
M  V30 5348 H 550.871 -0.502761 -0.656628 0
M  V30 5349 H 553.417 -1.51808 -0.758456 0
M  V30 5350 H 552.189 -3.33932 -2.03974 0
M  V30 5351 H 551.812 -2.19374 -3.31603 0
M  V30 5352 N 552.809 0.956637 -1.25245 0
M  V30 5353 C 554.058 1.69537 -1.0927 0
M  V30 5354 C 554.371 1.92136 0.366503 0
M  V30 5355 O 555.577 2.63687 0.64665 0
M  V30 5356 C 554.033 3.05211 -1.9072 0
M  V30 5357 C 553.641 2.90416 -3.41119 0
M  V30 5358 C 555.385 3.82882 -1.83308 0
M  V30 5359 C 553.292 4.21468 -4.14872 0
M  V30 5360 H 552.222 0.635804 -0.405302 0
M  V30 5361 H 554.873 1.06513 -1.49423 0
M  V30 5362 H 553.255 3.69128 -1.43389 0
M  V30 5363 H 554.429 2.35444 -3.9611 0
M  V30 5364 H 552.744 2.26203 -3.49602 0
M  V30 5365 H 555.341 4.79944 -2.35706 0
M  V30 5366 H 555.684 4.0853 -0.800572 0
M  V30 5367 H 556.217 3.25711 -2.28379 0
M  V30 5368 H 552.956 4.01009 -5.18529 0
M  V30 5369 H 552.476 4.76213 -3.64665 0
M  V30 5370 H 554.155 4.90022 -4.22478 0
M  V30 5371 N 554.287 1.06798 1.15896 0
M  V30 5372 C 555.564 0.701057 1.82605 0
M  V30 5373 C 555.944 -0.817066 1.94646 0
M  V30 5374 O 555.292 -1.72933 1.49353 0
M  V30 5375 C 555.502 1.40895 3.19296 0
M  V30 5376 C 556.85 1.55744 3.95005 0
M  V30 5377 O 557.874 1.36927 3.28831 0
M  V30 5378 O 556.733 1.86658 5.13635 0
M  V30 5379 H 553.827 0.248791 0.78869 0
M  V30 5380 H 556.373 1.16857 1.23055 0
M  V30 5381 H 555.145 2.4439 3.05596 0
M  V30 5382 H 554.768 0.931847 3.86526 0
M  V30 5383 N 555.766 -1.3263 0.851289 0
M  V30 5384 C 557.014 -1.96978 0.452128 0
M  V30 5385 C 557.335 -1.67715 -0.99482 0
M  V30 5386 O 556.605 -0.98259 -1.69476 0
M  V30 5387 H 555.185 -0.72873 0.164202 0
M  V30 5388 H 557.847 -1.61774 1.08698 0
M  V30 5389 H 556.943 -3.06387 0.594407 0
M  V30 5390 N 557.244 -0.608902 -1.45362 0
M  V30 5391 C 558.521 -0.0365378 -1.95566 0
M  V30 5392 C 558.901 1.43169 -1.55131 0
M  V30 5393 O 558.249 2.1349 -0.814513 0
M  V30 5394 C 558.459 -0.236026 -3.48201 0
M  V30 5395 C 559.807 -0.117518 -4.24437 0
M  V30 5396 O 560.831 -0.166217 -3.55812 0
M  V30 5397 O 559.69 -0.00372127 -5.465 0
M  V30 5398 H 556.784 0.0349874 -0.82626 0
M  V30 5399 H 559.33 -0.679055 -1.55521 0
M  V30 5400 H 558.102 -1.25569 -3.70605 0
M  V30 5401 H 557.725 0.441691 -3.95139 0
M  V30 5402 N 558.722 1.53707 -0.348139 0
M  V30 5403 C 560.138 1.596 0.00361134 0
M  V30 5404 C 560.338 1.36394 1.4832 0
M  V30 5405 O 559.394 1.16046 2.24253 0
M  V30 5406 C 560.707 2.97512 -0.436682 0
M  V30 5407 C 562.255 3.10568 -0.389416 0
M  V30 5408 C 562.73 4.50866 -0.805249 0
M  V30 5409 N 564.221 4.56929 -0.759616 0
M  V30 5410 C 564.956 5.63643 -1.05327 0
M  V30 5411 N 564.452 6.78189 -1.41531 0
M  V30 5412 N 566.245 5.5354 -0.977207 0
M  V30 5413 H 558.396 1.67044 -1.31187 0
M  V30 5414 H 560.659 0.782559 -0.535075 0
M  V30 5415 H 560.365 3.19575 -1.46849 0
M  V30 5416 H 560.239 3.76742 0.185744 0
M  V30 5417 H 562.626 2.88226 0.633228 0
M  V30 5418 H 562.707 2.33387 -1.04711 0
M  V30 5419 H 562.351 4.73943 -1.82593 0
M  V30 5420 H 562.281 5.26452 -0.124989 0
M  V30 5421 H 564.772 3.74675 -0.49265 0
M  V30 5422 H 565.085 7.55541 -1.62411 0
M  V30 5423 H 563.43 6.79624 -1.45381 0
M  V30 5424 H 566.621 4.62932 -0.693675 0
M  V30 5425 H 566.794 6.36614 -1.2094 0
M  V30 5426 N 560.2 0.0768682 1.57412 0
M  V30 5427 C 561.449 -0.590679 1.92857 0
M  V30 5428 C 561.762 -1.70461 0.959293 0
M  V30 5429 O 562.968 -2.43207 1.20675 0
M  V30 5430 C 561.424 -1.10204 3.42612 0
M  V30 5431 C 561.032 -0.0188447 4.47996 0
M  V30 5432 C 562.776 -1.74336 3.87049 0
M  V30 5433 C 560.683 -0.544536 5.88888 0
M  V30 5434 H 559.613 -0.224411 0.71983 0
M  V30 5435 H 562.264 0.149924 1.82887 0
M  V30 5436 H 560.646 -1.89577 3.47673 0
M  V30 5437 H 561.82 0.755936 4.54557 0
M  V30 5438 H 560.135 0.526555 4.13057 0
M  V30 5439 H 562.732 -2.14708 4.89699 0
M  V30 5440 H 563.075 -2.60537 3.24694 0
M  V30 5441 H 563.608 -1.01577 3.84613 0
M  V30 5442 H 560.347 0.280426 6.549 0
M  V30 5443 H 559.867 -1.28673 5.85836 0
M  V30 5444 H 561.546 -1.01933 6.3892 0
M  V30 5445 N 561.678 -1.56367 -0.196722 0
M  V30 5446 C 563.094 -1.49916 -0.54749 0
M  V30 5447 C 563.294 -0.77659 -1.85934 0
M  V30 5448 O 562.35 -0.32644 -2.50381 0
M  V30 5449 C 563.663 -2.94577 -0.603734 0
M  V30 5450 C 565.211 -3.05239 -0.692677 0
M  V30 5451 C 565.686 -4.51308 -0.780046 0
M  V30 5452 N 567.177 -4.55453 -0.843616 0
M  V30 5453 C 567.912 -5.65786 -0.931358 0
M  V30 5454 N 567.408 -6.85812 -0.981503 0
M  V30 5455 N 569.201 -5.53695 -0.968421 0
M  V30 5456 H 561.352 -2.01761 0.663803 0
M  V30 5457 H 563.615 -0.918094 0.236238 0
M  V30 5458 H 563.321 -3.50494 0.29105 0
M  V30 5459 H 563.195 -3.47841 -1.45898 0
M  V30 5460 H 565.582 -2.49372 -1.57789 0
M  V30 5461 H 565.663 -2.55103 0.188736 0
M  V30 5462 H 565.307 -5.078 0.100811 0
M  V30 5463 H 565.237 -4.99176 -1.67724 0
M  V30 5464 H 567.728 -3.69025 -0.814176 0
M  V30 5465 H 568.041 -7.65648 -1.04892 0
M  V30 5466 H 566.386 -6.88474 -0.950208 0
M  V30 5467 H 569.577 -4.58848 -0.926072 0
M  V30 5468 H 569.75 -6.39708 -1.03334 0
M  V30 5469 N 563.156 0.464375 -1.50603 0
M  V30 5470 C 564.104 1.58224 -1.70493 0
M  V30 5471 C 565.098 1.59492 -0.570836 0
M  V30 5472 O 566.304 1.63561 -0.751517 0
M  V30 5473 H 562.679 0.525161 -0.538247 0
M  V30 5474 H 564.65 1.38613 -2.64252 0
M  V30 5475 C 563.399 2.96113 -1.82243 0
M  V30 5476 H 562.722 2.95858 -2.68901 0
M  V30 5477 H 564.162 3.73769 -2.00182 0
M  V30 5478 C 562.621 3.31946 -0.575628 0
M  V30 5479 O 563.151 4.00708 0.282152 0
M  V30 5480 N 561.357 2.87436 -0.427665 0
M  V30 5481 H 560.904 2.31652 -1.12674 0
M  V30 5482 H 560.862 3.11776 0.405379 0
M  V30 5483 N 564.634 1.40294 0.718013 0
M  V30 5484 C 565.566 1.36281 1.84283 0
M  V30 5485 C 566.579 0.268621 1.60569 0
M  V30 5486 O 567.768 0.528798 1.70487 0
M  V30 5487 C 564.868 1.09741 3.2064 0
M  V30 5488 C 564.041 2.30767 3.71571 0
M  V30 5489 C 563.1 2.00424 4.86535 0
M  V30 5490 O 562.126 2.73268 4.99313 0
M  V30 5491 N 563.328 0.980724 5.72156 0
M  V30 5492 H 566.093 2.3322 1.88225 0
M  V30 5493 H 563.654 1.34616 0.899453 0
M  V30 5494 H 565.646 0.874322 3.95143 0
M  V30 5495 H 564.216 0.214771 3.11861 0
M  V30 5496 H 563.436 2.68921 2.88228 0
M  V30 5497 H 564.724 3.11455 4.02335 0
M  V30 5498 H 564.122 0.377375 5.6444 0
M  V30 5499 H 562.679 0.817538 6.46653 0
M  V30 5500 N 566.112 -0.949982 1.2575 0
M  V30 5501 C 567.075 -2.02894 1.06615 0
M  V30 5502 C 568.075 -1.60791 0.0173905 0
M  V30 5503 O 569.265 -1.72249 0.260003 0
M  V30 5504 C 566.397 -3.35219 0.619751 0
M  V30 5505 H 567.59 -2.21302 2.02399 0
M  V30 5506 H 565.143 -1.12772 1.08223 0
M  V30 5507 H 565.878 -3.22508 -0.340486 0
M  V30 5508 H 565.663 -3.67129 1.37692 0
M  V30 5509 H 567.153 -4.14505 0.507443 0
M  V30 5510 N 567.59 -1.07411 -1.15328 0
M  V30 5511 C 568.867 -0.710732 -1.82231 0
M  V30 5512 C 569.247 0.806732 -1.95077 0
M  V30 5513 O 568.595 1.72139 -1.50268 0
M  V30 5514 C 568.805 -1.42586 -3.18544 0
M  V30 5515 C 570.153 -1.57836 -3.94174 0
M  V30 5516 O 571.177 -1.38669 -3.281 0
M  V30 5517 O 570.036 -1.8938 -5.12638 0
M  V30 5518 H 567.13 -0.25297 -0.78736 0
M  V30 5519 H 569.676 -1.17508 -1.22434 0
M  V30 5520 H 568.448 -2.46008 -3.04296 0
M  V30 5521 H 568.071 -0.952332 -3.86026 0
M  V30 5522 N 569.068 1.32177 -0.85831 0
M  V30 5523 C 570.016 2.30729 -0.294442 0
M  V30 5524 C 571.01 1.59009 0.584165 0
M  V30 5525 O 572.216 1.73713 0.471562 0
M  V30 5526 H 568.591 0.748097 -0.0765171 0
M  V30 5527 H 570.562 2.75774 -1.1398 0
M  V30 5528 C 569.311 3.44098 0.499208 0
M  V30 5529 H 568.634 3.99449 -0.167579 0
M  V30 5530 H 570.074 4.15202 0.859273 0
M  V30 5531 C 568.533 2.91684 1.68588 0
M  V30 5532 O 569.063 2.89481 2.78503 0
M  V30 5533 N 567.269 2.48036 1.51415 0
M  V30 5534 H 566.816 2.50027 0.620006 0
M  V30 5535 H 566.774 2.13322 2.30957 0
M  V30 5536 N 570.547 0.616602 1.45037 0
M  V30 5537 C 571.787 0.118453 2.04056 0
M  V30 5538 C 572.151 -1.23104 1.47341 0
M  V30 5539 O 573.352 -1.82044 1.97771 0
M  V30 5540 C 571.623 0.0892842 3.57288 0
M  V30 5541 S 573.182 -0.346361 4.37431 0
M  V30 5542 H 570 0.0539728 0.708948 0
M  V30 5543 H 572.602 0.816731 1.77623 0
M  V30 5544 H 571.306 1.07481 3.96076 0
M  V30 5545 H 570.837 -0.630703 3.88311 0
M  V30 5546 H 572.852 -1.59389 4.69904 0
M  V30 5547 N 572.025 -1.5352 0.356285 0
M  V30 5548 C 573.436 -1.86282 -0.12492 0
M  V30 5549 C 573.787 -1.27717 -1.48939 0
M  V30 5550 O 572.912 -0.595614 -2.08042 0
M  V30 5551 C 573.507 -3.37995 -0.23345 0
M  V30 5552 C 572.066 -3.70588 -0.658899 0
M  V30 5553 C 571.213 -2.76581 0.199596 0
M  V30 5554 H 574.164 -1.47901 0.575423 0
M  V30 5555 H 574.185 -3.65475 -1.0587 0
M  V30 5556 H 573.697 -3.8059 0.759776 0
M  V30 5557 H 571.798 -3.33544 -1.66069 0
M  V30 5558 H 571.911 -4.77076 -0.439957 0
M  V30 5559 H 570.275 -2.52552 -0.330076 0
M  V30 5560 H 571.058 -3.22008 1.19019 0
M  V30 5561 N 573.503 -0.0852151 -1.57369 0
M  V30 5562 C 574.919 0.271436 -1.57275 0
M  V30 5563 C 575.119 1.69109 -1.09565 0
M  V30 5564 O 574.175 2.40549 -0.767611 0
M  V30 5565 C 575.488 0.0688638 -3.00621 0
M  V30 5566 C 577.036 0.137373 -3.12698 0
M  V30 5567 C 577.511 -0.0370832 -4.57985 0
M  V30 5568 N 579.002 0.0180794 -4.63196 0
M  V30 5569 C 579.737 -0.0922953 -5.73326 0
M  V30 5570 N 579.233 -0.256948 -6.92323 0
M  V30 5571 N 581.026 -0.0342702 -5.6209 0
M  V30 5572 H 573.177 -1.01288 -1.86693 0
M  V30 5573 H 575.44 -0.396138 -0.861266 0
M  V30 5574 H 575.146 -0.911277 -3.39689 0
M  V30 5575 H 575.02 0.815442 -3.6828 0
M  V30 5576 H 577.407 1.10801 -2.73509 0
M  V30 5577 H 577.488 -0.640532 -2.47651 0
M  V30 5578 H 577.132 -1.00455 -4.97867 0
M  V30 5579 H 577.062 0.760392 -5.21081 0
M  V30 5580 H 579.553 0.143202 -3.77629 0
M  V30 5581 H 579.866 -0.332949 -7.72082 0
M  V30 5582 H 578.211 -0.292487 -6.94384 0
M  V30 5583 H 581.402 0.0931605 -4.68007 0
M  V30 5584 H 581.575 -0.12374 -6.47882 0
M  V30 5585 N 574.981 1.5647 0.188427 0
M  V30 5586 C 576.227 1.81281 0.909124 0
M  V30 5587 C 576.56 0.66034 1.82628 0
M  V30 5588 O 575.835 -0.338737 1.91528 0
M  V30 5589 C 576.118 3.16388 1.7196 0
M  V30 5590 C 575.971 4.42137 0.826714 0
M  V30 5591 C 577.29 3.48256 2.69083 0
M  V30 5592 H 574.409 0.659457 0.329068 0
M  V30 5593 H 577.051 1.89182 0.176156 0
M  V30 5594 H 575.201 3.09784 2.34448 0
M  V30 5595 H 576.873 4.60794 0.216025 0
M  V30 5596 H 575.116 4.33594 0.133792 0
M  V30 5597 H 575.787 5.33184 1.42893 0
M  V30 5598 H 578.263 3.55203 2.16726 0
M  V30 5599 H 577.139 4.43899 3.2287 0
M  V30 5600 H 577.4 2.72088 3.48455 0
M  V30 5601 N 576.459 -0.456382 1.50847 0
M  V30 5602 C 577.87 -1.03685 1.55262 0
M  V30 5603 C 578.221 -1.92779 0.364771 0
M  V30 5604 O 577.346 -2.10043 -0.52068 0
M  V30 5605 C 577.941 -1.88718 2.81374 0
M  V30 5606 C 576.5 -2.41847 2.88422 0
M  V30 5607 C 575.647 -1.20564 2.49719 0
M  V30 5608 H 578.598 -0.238399 1.56899 0
M  V30 5609 H 578.619 -2.73957 2.6406 0
M  V30 5610 H 578.131 -1.23847 3.67809 0
M  V30 5611 H 576.232 -3.10228 2.06372 0
M  V30 5612 H 576.345 -2.75947 3.9165 0
M  V30 5613 H 574.709 -1.54504 2.02486 0
M  V30 5614 H 575.492 -0.573326 3.38479 0
M  V30 5615 N 577.937 -1.40673 -0.710563 0
M  V30 5616 C 578.885 -1.41517 -1.84596 0
M  V30 5617 C 579.879 -0.295043 -1.66811 0
M  V30 5618 O 581.085 -0.466331 -1.73854 0
M  V30 5619 H 577.46 -0.442467 -0.608052 0
M  V30 5620 H 579.431 -2.37238 -1.80999 0
M  V30 5621 C 578.18 -1.29957 -3.225 0
M  V30 5622 H 577.503 -2.15429 -3.36794 0
M  V30 5623 H 578.943 -1.34608 -4.02066 0
M  V30 5624 C 577.402 -0.0103164 -3.36898 0
M  V30 5625 O 577.932 0.950707 -3.90288 0
M  V30 5626 N 576.138 0.0608409 -2.90536 0
M  V30 5627 H 575.685 -0.721943 -2.47277 0
M  V30 5628 H 575.643 0.92292 -3.00549 0
M  V30 5629 N 579.415 0.9433 -1.26252 0
M  V30 5630 C 580.64 1.72898 -1.14547 0
M  V30 5631 C 581.065 1.85761 0.295743 0
M  V30 5632 O 580.423 1.3463 1.21427 0
M  V30 5633 C 580.471 3.11471 -1.8171 0
M  V30 5634 O 579.575 3.97336 -1.10445 0
M  V30 5635 H 578.916 0.530555 -0.399259 0
M  V30 5636 H 581.446 1.18159 -1.67032 0
M  V30 5637 H 581.456 3.61872 -1.88449 0
M  V30 5638 H 580.131 3.01425 -2.86558 0
M  V30 5639 H 578.708 3.55788 -1.11666 0
M  V30 5640 N 580.893 1.08022 1.14757 0
M  V30 5641 C 582.17 0.720386 1.81851 0
M  V30 5642 C 582.55 -0.796375 1.95502 0
M  V30 5643 O 581.898 -1.71339 1.51179 0
M  V30 5644 C 582.108 1.44273 3.17783 0
M  V30 5645 C 583.456 1.59925 3.93331 0
M  V30 5646 O 584.48 1.40407 3.2736 0
M  V30 5647 O 583.339 1.92096 5.11626 0
M  V30 5648 H 580.433 0.257142 0.786007 0
M  V30 5649 H 582.979 1.18155 1.21809 0
M  V30 5650 H 581.751 2.47618 3.02987 0
M  V30 5651 H 581.374 0.97279 3.85516 0
M  V30 5652 N 582.371 -1.3172 0.865308 0
M  V30 5653 C 583.303 -2.27545 0.274906 0
M  V30 5654 C 584.316 -1.52887 -0.559413 0
M  V30 5655 O 585.505 -1.74361 -0.382166 0
M  V30 5656 C 582.605 -3.33006 -0.629286 0
M  V30 5657 C 581.778 -4.37063 0.171553 0
M  V30 5658 C 580.837 -5.22044 -0.660052 0
M  V30 5659 O 579.863 -5.69129 -0.0897527 0
M  V30 5660 N 581.065 -5.45946 -1.97289 0
M  V30 5661 H 583.83 -2.78848 1.09836 0
M  V30 5662 H 581.391 -1.44693 0.726331 0
M  V30 5663 H 583.383 -3.86772 -1.19121 0
M  V30 5664 H 581.953 -2.81782 -1.35342 0
M  V30 5665 H 581.173 -3.83436 0.914919 0
M  V30 5666 H 582.461 -5.03662 0.721235 0
M  V30 5667 H 581.859 -5.0944 -2.45942 0
M  V30 5668 H 580.416 -6.02665 -2.4827 0
M  V30 5669 N 583.85 -0.624285 -1.44708 0
M  V30 5670 C 584.797 0.0847135 -2.30644 0
M  V30 5671 C 585.767 0.843575 -1.43084 0
M  V30 5672 O 586.952 0.825982 -1.71995 0
M  V30 5673 C 584.091 1.06495 -3.28257 0
M  V30 5674 C 583.205 0.305224 -4.3092 0
M  V30 5675 C 582.34 1.27667 -5.1563 0
M  V30 5676 C 581.379 0.505706 -6.10007 0
M  V30 5677 N 580.516 1.42727 -6.8744 0
M  V30 5678 H 585.356 -0.654068 -2.90733 0
M  V30 5679 H 582.893 -0.334334 -1.4325 0
M  V30 5680 H 584.851 1.64658 -3.83332 0
M  V30 5681 H 583.481 1.77094 -2.69884 0
M  V30 5682 H 582.533 -0.392207 -3.78373 0
M  V30 5683 H 583.845 -0.295553 -4.97924 0
M  V30 5684 H 582.999 1.92984 -5.75189 0
M  V30 5685 H 581.738 1.91137 -4.48685 0
M  V30 5686 H 580.743 -0.160999 -5.49564 0
M  V30 5687 H 581.968 -0.124183 -6.78986 0
M  V30 5688 H 579.913 2.04931 -6.23169 0
M  V30 5689 H 579.831 0.880345 -7.50857 0
M  V30 5690 H 581.099 2.0695 -7.51526 0
M  V30 5691 N 585.328 1.53329 -0.364422 0
M  V30 5692 C 586.605 1.93557 0.281962 0
M  V30 5693 C 586.985 1.29786 1.6649 0
M  V30 5694 O 586.333 0.456512 2.23893 0
M  V30 5695 C 586.543 3.47405 0.333331 0
M  V30 5696 C 587.891 4.20699 0.574231 0
M  V30 5697 O 588.915 3.53779 0.414588 0
M  V30 5698 O 587.774 5.39287 0.885002 0
M  V30 5699 H 584.868 0.809573 0.168881 0
M  V30 5700 H 587.414 1.64494 -0.417121 0
M  V30 5701 H 586.186 3.86091 -0.636326 0
M  V30 5702 H 585.809 3.82697 1.07836 0
M  V30 5703 N 586.806 0.0935595 1.57322 0
M  V30 5704 C 588.031 -0.582324 1.99057 0
M  V30 5705 C 588.456 -1.61025 0.972242 0
M  V30 5706 O 587.814 -1.81202 -0.0594622 0
M  V30 5707 C 587.862 -1.20799 3.39765 0
M  V30 5708 O 586.966 -2.32382 3.40694 0
M  V30 5709 H 586.307 -0.147884 0.647323 0
M  V30 5710 H 588.837 0.174516 2.03854 0
M  V30 5711 H 588.847 -1.54966 3.77425 0
M  V30 5712 H 587.522 -0.454914 4.13405 0
M  V30 5713 H 586.099 -1.99845 3.14827 0
M  V30 5714 N 588.284 -1.56567 -0.180126 0
M  V30 5715 C 589.561 -1.7235 -0.924931 0
M  V30 5716 C 589.941 -0.652523 -2.00762 0
M  V30 5717 O 589.289 0.334115 -2.26044 0
M  V30 5718 C 589.499 -3.1523 -1.49771 0
M  V30 5719 C 590.847 -3.75921 -1.97405 0
M  V30 5720 O 591.871 -3.18452 -1.59583 0
M  V30 5721 O 590.73 -4.7681 -2.67048 0
M  V30 5722 H 587.824 -0.703502 -0.434758 0
M  V30 5723 H 590.37 -1.6886 -0.168647 0
M  V30 5724 H 589.142 -3.84656 -0.718027 0
M  V30 5725 H 588.765 -3.23009 -2.31842 0
M  V30 5726 N 589.762 0.448376 -1.51087 0
M  V30 5727 C 591.01 1.19635 -1.62886 0
M  V30 5728 C 591.331 1.91977 -0.342024 0
M  V30 5729 O 590.601 1.85094 0.641636 0
M  V30 5730 H 589.181 0.444598 -0.600285 0
M  V30 5731 H 591.843 0.515138 -1.87969 0
M  V30 5732 H 590.939 1.93194 -2.45117 0
M  V30 5733 N 591.24 1.41047 0.703093 0
M  V30 5734 C 592.517 1.30493 1.45708 0
M  V30 5735 C 592.897 -0.0709892 2.10981 0
M  V30 5736 O 592.245 -1.08471 2.01113 0
M  V30 5737 C 592.455 2.45287 2.48265 0
M  V30 5738 C 593.803 2.86104 3.13735 0
M  V30 5739 O 594.827 2.44971 2.58587 0
M  V30 5740 O 593.686 3.57206 4.13601 0
M  V30 5741 H 590.78 0.513144 0.648546 0
M  V30 5742 H 593.326 1.52995 0.734208 0
M  V30 5743 H 592.098 3.37135 1.98635 0
M  V30 5744 H 591.721 2.24622 3.28071 0
M  V30 5745 N 592.718 -0.936591 1.26751 0
M  V30 5746 C 593.966 -1.67998 1.12343 0
M  V30 5747 C 594.287 -1.92137 -0.332938 0
M  V30 5748 O 593.557 -1.52132 -1.23421 0
M  V30 5749 H 592.137 -0.622609 0.412756 0
M  V30 5750 H 594.799 -1.12509 1.59147 0
M  V30 5751 H 593.895 -2.65185 1.64571 0
M  V30 5752 N 594.196 -1.08629 -1.14182 0
M  V30 5753 C 595.445 -0.812271 -1.84621 0
M  V30 5754 C 595.758 0.664313 -1.83973 0
M  V30 5755 O 596.964 1.05357 -2.50224 0
M  V30 5756 C 595.42 -1.4031 -3.31423 0
M  V30 5757 C 595.028 -2.91164 -3.40481 0
M  V30 5758 C 596.772 -1.20767 -4.06959 0
M  V30 5759 C 594.679 -3.43373 -4.81507 0
M  V30 5760 H 593.609 -0.30019 -0.691666 0
M  V30 5761 H 596.26 -1.30798 -1.28701 0
M  V30 5762 H 594.642 -0.835096 -3.87094 0
M  V30 5763 H 595.816 -3.5412 -2.94848 0
M  V30 5764 H 594.131 -3.09646 -2.78403 0
M  V30 5765 H 596.728 -1.57237 -5.11058 0
M  V30 5766 H 597.071 -0.147664 -4.16038 0
M  V30 5767 H 597.604 -1.74274 -3.57594 0
M  V30 5768 H 594.343 -4.48958 -4.77616 0
M  V30 5769 H 593.863 -2.85176 -5.27669 0
M  V30 5770 H 595.542 -3.40095 -5.50404 0
M  V30 5771 N 595.674 1.31259 -0.872281 0
M  V30 5772 C 596.922 1.96233 -0.483409 0
M  V30 5773 C 597.243 1.69276 0.968012 0
M  V30 5774 O 596.513 1.00943 1.67891 0
M  V30 5775 H 595.093 0.726025 -0.175774 0
M  V30 5776 H 597.755 1.60024 -1.11258 0
M  V30 5777 H 596.851 3.05403 -0.643075 0
M  V30 5778 N 597.152 0.631951 1.44375 0
M  V30 5779 C 598.429 0.067646 1.95483 0
M  V30 5780 C 598.809 -1.40683 1.57389 0
M  V30 5781 O 598.157 -2.12167 0.848375 0
M  V30 5782 C 598.367 0.291392 3.47781 0
M  V30 5783 C 599.715 0.185028 4.24197 0
M  V30 5784 O 600.739 0.222803 3.55503 0
M  V30 5785 O 599.598 0.0906642 5.46425 0
M  V30 5786 H 596.692 -0.0218379 0.826712 0
M  V30 5787 H 599.238 0.703711 1.54421 0
M  V30 5788 H 598.01 1.31449 3.68561 0
M  V30 5789 H 597.633 -0.378772 3.95792 0
M  V30 5790 N 598.631 -1.53133 0.372548 0
M  V30 5791 C 599.594 -2.24569 -0.458389 0
M  V30 5792 C 600.594 -1.25603 -1.00402 0
M  V30 5793 O 601.784 -1.49827 -0.888672 0
M  V30 5794 C 598.916 -2.98783 -1.6414 0
M  V30 5795 H 600.109 -2.99436 0.166799 0
M  V30 5796 H 597.662 -1.55805 0.124357 0
M  V30 5797 H 598.397 -2.28176 -2.30448 0
M  V30 5798 H 598.182 -3.71404 -1.25704 0
M  V30 5799 H 599.672 -3.53068 -2.23008 0
M  V30 5800 N 600.109 -0.101901 -1.5727 0
M  V30 5801 C 601.349 0.563489 -1.96479 0
M  V30 5802 C 601.713 1.64926 -0.983021 0
M  V30 5803 O 602.914 2.37234 -1.26386 0
M  V30 5804 C 601.185 1.09809 -3.40113 0
M  V30 5805 S 602.744 1.7744 -4.01323 0
M  V30 5806 H 599.562 0.183675 -0.686866 0
M  V30 5807 H 602.164 -0.182922 -1.94642 0
M  V30 5808 H 600.868 0.296447 -4.09328 0
M  V30 5809 H 600.399 1.88018 -3.45562 0
M  V30 5810 H 602.414 3.0591 -3.90683 0
M  V30 5811 N 601.587 1.56661 0.17182 0
M  V30 5812 C 602.864 1.72838 0.915778 0
M  V30 5813 C 603.244 0.66316 2.00413 0
M  V30 5814 O 602.592 -0.322123 2.26218 0
M  V30 5815 C 602.802 3.16019 1.48097 0
M  V30 5816 C 604.15 3.76962 1.95408 0
M  V30 5817 O 605.174 3.19294 1.57892 0
M  V30 5818 O 604.033 4.78219 2.64516 0
M  V30 5819 H 601.127 0.705797 0.431021 0
M  V30 5820 H 603.673 1.68947 0.159689 0
M  V30 5821 H 602.445 3.85031 0.697618 0
M  V30 5822 H 602.068 3.24234 2.30126 0
M  V30 5823 N 603.065 -0.440357 1.51323 0
M  V30 5824 C 604.013 -1.55492 1.72988 0
M  V30 5825 C 605.007 -1.58564 0.596138 0
M  V30 5826 O 606.213 -1.62345 0.777443 0
M  V30 5827 H 602.588 -0.516532 0.546533 0
M  V30 5828 H 604.559 -1.34392 2.66423 0
M  V30 5829 C 603.308 -2.93176 1.86931 0
M  V30 5830 H 602.631 -2.91543 2.73574 0
M  V30 5831 H 604.071 -3.70537 2.06103 0
M  V30 5832 C 602.53 -3.30988 0.628365 0
M  V30 5833 O 603.06 -4.01106 -0.218367 0
M  V30 5834 N 601.266 -2.86719 0.473339 0
M  V30 5835 H 600.813 -2.2983 1.16345 0
M  V30 5836 H 600.771 -3.12381 -0.355727 0
M  V30 5837 N 604.543 -1.41418 -0.695603 0
M  V30 5838 C 605.783 -1.42241 -1.46788 0
M  V30 5839 C 606.147 -0.0300827 -1.91976 0
M  V30 5840 O 607.348 0.0868914 -2.6866 0
M  V30 5841 C 605.619 -2.4011 -2.6473 0
M  V30 5842 S 607.178 -2.59462 -3.53871 0
M  V30 5843 H 603.996 -0.503893 -0.50161 0
M  V30 5844 H 606.598 -1.77855 -0.811654 0
M  V30 5845 H 605.302 -3.40073 -2.29736 0
M  V30 5846 H 604.833 -2.05849 -3.35246 0
M  V30 5847 H 606.848 -1.862 -4.59939 0
M  V30 5848 N 606.021 0.929856 -1.27246 0
M  V30 5849 C 607.432 1.49223 -1.12203 0
M  V30 5850 C 607.783 1.93989 0.293731 0
M  V30 5851 O 606.908 1.80978 1.18642 0
M  V30 5852 C 607.503 2.71198 -2.0307 0
M  V30 5853 C 606.062 3.23666 -1.92139 0
M  V30 5854 C 605.209 1.96409 -1.95752 0
M  V30 5855 H 608.16 0.744181 -1.4017 0
M  V30 5856 H 608.181 3.45905 -1.58524 0
M  V30 5857 H 607.693 2.38585 -3.06102 0
M  V30 5858 H 605.794 3.61042 -0.920834 0
M  V30 5859 H 605.907 3.90006 -2.78267 0
M  V30 5860 H 604.271 2.12806 -1.39949 0
M  V30 5861 H 605.054 1.66113 -3.00436 0
M  V30 5862 N 607.499 1.09233 1.13605 0
M  V30 5863 C 608.431 0.687794 2.18637 0
M  V30 5864 C 609.444 -0.26936 1.60556 0
M  V30 5865 O 610.633 -0.0557162 1.78413 0
M  V30 5866 C 607.733 -0.00751901 3.38899 0
M  V30 5867 C 606.906 0.97067 4.26494 0
M  V30 5868 C 605.965 0.309129 5.25291 0
M  V30 5869 O 604.991 0.956149 5.61112 0
M  V30 5870 N 606.193 -0.937555 5.72879 0
M  V30 5871 H 608.958 1.59141 2.53957 0
M  V30 5872 H 606.519 0.979515 1.28907 0
M  V30 5873 H 608.511 -0.461238 4.02063 0
M  V30 5874 H 607.081 -0.813353 3.01833 0
M  V30 5875 H 606.301 1.603 3.60135 0
M  V30 5876 H 607.589 1.63323 4.81875 0
M  V30 5877 H 606.987 -1.48281 5.4592 0
M  V30 5878 H 605.544 -1.33463 6.3799 0
M  V30 5879 N 608.977 -1.30795 0.87923 0
M  V30 5880 C 609.924 -2.28282 0.339968 0
M  V30 5881 C 610.894 -1.56134 -0.566685 0
M  V30 5882 O 612.079 -1.84231 -0.496338 0
M  V30 5883 C 609.219 -3.42225 -0.444501 0
M  V30 5884 C 608.332 -4.29204 0.490717 0
M  V30 5885 C 607.467 -5.30302 -0.308784 0
M  V30 5886 C 606.506 -6.08929 0.622272 0
M  V30 5887 N 605.643 -7.01957 -0.14155 0
M  V30 5888 H 610.483 -2.73794 1.17647 0
M  V30 5889 H 608.02 -1.34682 0.591527 0
M  V30 5890 H 609.978 -4.07038 -0.915186 0
M  V30 5891 H 608.608 -2.97799 -1.24562 0
M  V30 5892 H 607.66 -3.6475 1.07988 0
M  V30 5893 H 608.972 -4.84045 1.20425 0
M  V30 5894 H 608.126 -6.00835 -0.841575 0
M  V30 5895 H 606.865 -4.7614 -1.05556 0
M  V30 5896 H 605.87 -5.37278 1.16674 0
M  V30 5897 H 607.095 -6.65178 1.36804 0
M  V30 5898 H 605.041 -6.50192 -0.870966 0
M  V30 5899 H 604.958 -7.54261 0.51246 0
M  V30 5900 H 606.226 -7.76741 -0.655271 0
M  V30 5901 N 610.455 -0.639598 -1.44038 0
M  V30 5902 C 611.68 -0.153117 -2.06834 0
M  V30 5903 C 612.105 1.16676 -1.47541 0
M  V30 5904 O 611.463 1.71769 -0.580093 0
M  V30 5905 C 611.511 -0.0609169 -3.60549 0
M  V30 5906 O 610.615 0.98071 -4.00569 0
M  V30 5907 H 609.956 -0.0886402 -0.658057 0
M  V30 5908 H 612.486 -0.878674 -1.84771 0
M  V30 5909 H 612.496 0.126892 -4.07803 0
M  V30 5910 H 611.171 -1.0245 -4.03084 0
M  V30 5911 H 609.748 0.766789 -3.64931 0
M  V30 5912 N 611.933 1.52934 -0.380664 0
M  V30 5913 C 612.881 2.27727 0.47361 0
M  V30 5914 C 613.875 1.31288 1.0705 0
M  V30 5915 O 615.081 1.4886 1.01197 0
M  V30 5916 H 611.456 0.732189 0.171475 0
M  V30 5917 H 613.427 2.97864 -0.178785 0
M  V30 5918 C 612.176 3.0904 1.59341 0
M  V30 5919 H 611.499 3.831 1.14343 0
M  V30 5920 H 612.939 3.64527 2.16555 0
M  V30 5921 C 611.398 2.20813 2.54447 0
M  V30 5922 O 611.928 1.82907 3.57642 0
M  V30 5923 N 610.134 1.85145 2.23986 0
M  V30 5924 H 609.681 2.16169 1.40103 0
M  V30 5925 H 609.639 1.26402 2.87871 0
M  V30 5926 N 613.412 0.11024 1.57214 0
M  V30 5927 C 614.823 -0.416527 1.81994 0
M  V30 5928 C 615.174 -1.67183 1.02686 0
M  V30 5929 O 614.299 -2.14823 0.260782 0
M  V30 5930 C 614.894 -0.762466 3.30109 0
M  V30 5931 C 613.453 -1.23391 3.556 0
M  V30 5932 C 612.6 -0.238166 2.76275 0
M  V30 5933 H 615.551 0.335491 1.55113 0
M  V30 5934 H 615.572 -1.62068 3.44259 0
M  V30 5935 H 615.084 0.151346 3.87805 0
M  V30 5936 H 613.185 -2.16492 3.03253 0
M  V30 5937 H 613.298 -1.18528 4.64207 0
M  V30 5938 H 611.662 -0.723421 2.4421 0
M  V30 5939 H 612.445 0.668591 3.36727 0
M  V30 5940 N 614.89 -1.56749 -0.16351 0
M  V30 5941 C 616.167 -1.73321 -0.906599 0
M  V30 5942 C 616.547 -0.673779 -2.00059 0
M  V30 5943 O 615.895 0.310121 -2.26386 0
M  V30 5944 C 616.105 -3.168 -1.46419 0
M  V30 5945 C 617.453 -3.77993 -1.93407 0
M  V30 5946 O 618.477 -3.20127 -1.56196 0
M  V30 5947 O 617.336 -4.79615 -2.61976 0
M  V30 5948 H 614.43 -0.708073 -0.427272 0
M  V30 5949 H 616.976 -1.69029 -0.150727 0
M  V30 5950 H 615.748 -3.85396 -0.677189 0
M  V30 5951 H 615.371 -3.2545 -2.28403 0
M  V30 5952 N 616.368 0.432326 -1.51554 0
M  V30 5953 C 617.3 1.54357 -1.6943 0
M  V30 5954 C 618.313 1.52311 -0.574897 0
M  V30 5955 O 619.502 1.56997 -0.849369 0
M  V30 5956 C 616.602 2.93273 -1.69836 0
M  V30 5957 C 615.775 3.19768 -2.98442 0
M  V30 5958 C 614.834 4.38433 -2.90969 0
M  V30 5959 O 613.86 4.36842 -3.64908 0
M  V30 5960 N 615.062 5.42276 -2.07163 0
M  V30 5961 H 617.827 1.39426 -2.65293 0
M  V30 5962 H 615.388 0.621331 -1.49503 0
M  V30 5963 H 617.38 3.70687 -1.62399 0
M  V30 5964 H 615.95 3.01777 -0.815456 0
M  V30 5965 H 615.17 2.30607 -3.19709 0
M  V30 5966 H 616.458 3.343 -3.83563 0
M  V30 5967 H 615.856 5.46407 -1.46477 0
M  V30 5968 H 614.413 6.18524 -2.05601 0
M  V30 5969 N 617.846 1.41785 0.688094 0
M  V30 5970 C 618.809 1.43936 1.78368 0
M  V30 5971 C 619.809 0.328866 1.57401 0
M  V30 5972 O 620.999 0.589093 1.63937 0
M  V30 5973 C 618.131 1.25804 3.16838 0
M  V30 5974 H 619.324 2.41472 1.77852 0
M  V30 5975 H 616.877 1.28037 0.896448 0
M  V30 5976 H 617.612 0.291386 3.22988 0
M  V30 5977 H 617.397 2.06272 3.33458 0
M  V30 5978 H 618.887 1.30162 3.96797 0
M  V30 5979 N 619.324 -0.923095 1.27737 0
M  V30 5980 C 620.601 -1.64989 1.05062 0
M  V30 5981 C 620.981 -2.07018 -0.413124 0
M  V30 5982 O 620.329 -1.80797 -1.39731 0
M  V30 5983 C 620.539 -2.84847 2.01652 0
M  V30 5984 C 621.887 -3.56083 2.31279 0
M  V30 5985 O 622.911 -2.94981 1.99662 0
M  V30 5986 O 621.77 -4.66182 2.85196 0
M  V30 5987 H 618.864 -0.723357 0.400853 0
M  V30 5988 H 621.41 -0.973224 1.3902 0
M  V30 5989 H 620.182 -2.50814 3.00347 0
M  V30 5990 H 619.805 -3.60231 1.68284 0
M  V30 5991 N 620.802 -1.09834 -1.13024 0
M  V30 5992 C 622.048 -0.83819 -1.84668 0
M  V30 5993 C 622.381 0.634645 -1.83537 0
M  V30 5994 O 621.656 1.46753 -1.27647 0
M  V30 5995 C 621.939 -1.37933 -3.32636 0
M  V30 5996 C 621.792 -2.91857 -3.42257 0
M  V30 5997 C 623.111 -1.01654 -4.28199 0
M  V30 5998 H 620.23 -0.30595 -0.670495 0
M  V30 5999 H 622.872 -1.36044 -1.32635 0
M  V30 6000 H 621.022 -0.935111 -3.77078 0
M  V30 6001 H 622.694 -3.44759 -3.06495 0
M  V30 6002 H 620.937 -3.28776 -2.83 0
M  V30 6003 H 621.608 -3.24799 -4.46329 0
M  V30 6004 H 624.084 -1.39973 -3.9185 0
M  V30 6005 H 622.96 -1.42217 -5.30156 0
M  V30 6006 H 623.221 0.0747794 -4.42037 0
M  V30 6007 N 622.28 1.30327 -0.886154 0
M  V30 6008 C 623.557 1.90922 -0.425217 0
M  V30 6009 C 623.937 1.80533 1.09413 0
M  V30 6010 O 623.285 1.2233 1.92996 0
M  V30 6011 C 623.495 3.36529 -0.924638 0
M  V30 6012 C 624.843 4.13598 -0.960305 0
M  V30 6013 O 625.867 3.45377 -0.871382 0
M  V30 6014 O 624.726 5.35482 -1.09184 0
M  V30 6015 H 621.82 0.81668 -0.130238 0
M  V30 6016 H 624.366 1.38886 -0.975132 0
M  V30 6017 H 623.138 3.38181 -1.96849 0
M  V30 6018 H 622.761 3.96021 -0.353955 0
M  V30 6019 N 623.758 0.647228 1.43697 0
M  V30 6020 C 624.708 -0.0702191 2.27892 0
M  V30 6021 C 625.692 -0.800601 1.39568 0
M  V30 6022 O 626.884 -0.684055 1.63247 0
M  V30 6023 C 624.013 -1.04008 3.27165 0
M  V30 6024 C 623.099 -0.308484 4.22977 0
M  V30 6025 N 623.49 0.671721 5.0132 0
M  V30 6026 C 621.788 -0.550751 4.42586 0
M  V30 6027 C 622.489 1.10543 5.711 0
M  V30 6028 N 621.465 0.440903 5.41809 0
M  V30 6029 H 625.267 0.682031 2.85877 0
M  V30 6030 H 622.781 0.474022 1.55328 0
M  V30 6031 H 624.778 -1.56881 3.86256 0
M  V30 6032 H 623.438 -1.79246 2.70742 0
M  V30 6033 H 624.449 1.0502 5.0714 0
M  V30 6034 H 621.126 -1.28476 3.97241 0
M  V30 6035 H 622.516 1.91614 6.43998 0
M  V30 6036 N 625.236 -1.5273 0.388769 0
M  V30 6037 C 626.513 -1.93981 -0.251133 0
M  V30 6038 C 626.893 -1.32418 -1.64404 0
M  V30 6039 O 626.241 -0.492074 -2.23139 0
M  V30 6040 C 626.451 -3.47891 -0.27802 0
M  V30 6041 C 627.799 -4.21559 -0.507229 0
M  V30 6042 O 628.823 -3.54394 -0.358252 0
M  V30 6043 O 627.682 -5.40626 -0.799094 0
M  V30 6044 H 624.776 -0.812157 -0.15598 0
M  V30 6045 H 627.322 -1.63809 0.443237 0
M  V30 6046 H 626.094 -3.8503 0.697669 0
M  V30 6047 H 625.717 -3.84364 -1.01733 0
M  V30 6048 N 626.714 -0.118576 -1.57153 0
M  V30 6049 C 627.961 0.539526 -1.9518 0
M  V30 6050 C 628.289 1.66714 -1.00184 0
M  V30 6051 O 627.544 1.95683 -0.0256482 0
M  V30 6052 C 627.843 1.11303 -3.39627 0
M  V30 6053 C 627.509 0.106809 -4.50773 0
M  V30 6054 C 626.171 -0.169876 -4.809 0
M  V30 6055 C 628.523 -0.57895 -5.17975 0
M  V30 6056 C 625.851 -1.13861 -5.75545 0
M  V30 6057 C 628.203 -1.53631 -6.13661 0
M  V30 6058 C 626.867 -1.82099 -6.42181 0
M  V30 6059 H 626.137 0.197427 -0.714215 0
M  V30 6060 H 628.784 -0.199391 -1.90459 0
M  V30 6061 H 627.089 1.92869 -3.4104 0
M  V30 6062 H 628.786 1.63032 -3.66363 0
M  V30 6063 H 625.376 0.332645 -4.27307 0
M  V30 6064 H 629.56 -0.378359 -4.94856 0
M  V30 6065 H 624.816 -1.36592 -5.95947 0
M  V30 6066 H 628.99 -2.07337 -6.64819 0
M  V30 6067 H 626.617 -2.57319 -7.15326 0
M  V30 6068 N 628.193 1.56834 0.155195 0
M  V30 6069 C 629.439 1.83169 0.870467 0
M  V30 6070 C 629.772 0.698929 1.81187 0
M  V30 6071 O 629.047 -0.298035 1.92203 0
M  V30 6072 C 629.33 3.19965 1.65211 0
M  V30 6073 C 629.183 4.43792 0.732744 0
M  V30 6074 C 630.502 3.53885 2.61636 0
M  V30 6075 H 627.621 0.666288 0.315006 0
M  V30 6076 H 630.263 1.89513 0.135988 0
M  V30 6077 H 628.413 3.14687 2.27825 0
M  V30 6078 H 630.085 4.61148 0.118236 0
M  V30 6079 H 628.328 4.3378 0.0417906 0
M  V30 6080 H 628.999 5.36095 1.31552 0
M  V30 6081 H 631.475 3.5972 2.09143 0
M  V30 6082 H 630.351 4.50648 3.13381 0
M  V30 6083 H 630.612 2.79418 3.42605 0
M  V30 6084 N 629.671 -0.424282 1.51781 0
M  V30 6085 C 630.919 -1.17028 1.64769 0
M  V30 6086 C 631.24 -1.91409 0.372523 0
M  V30 6087 O 630.51 -1.86091 -0.612108 0
M  V30 6088 H 629.09 -0.434992 0.607282 0
M  V30 6089 H 631.752 -0.485169 1.88765 0
M  V30 6090 H 630.848 -1.8927 2.4816 0
M  V30 6091 N 631.149 -1.42148 -0.680565 0
M  V30 6092 C 632.426 -1.32795 -1.43614 0
M  V30 6093 C 632.806 0.037415 -2.11067 0
M  V30 6094 O 632.154 1.05258 -2.02813 0
M  V30 6095 C 632.364 -2.49206 -2.44331 0
M  V30 6096 C 633.712 -2.91059 -3.09144 0
M  V30 6097 O 634.736 -2.49054 -2.54657 0
M  V30 6098 O 633.595 -3.63741 -4.07866 0
M  V30 6099 H 630.689 -0.523397 -0.640301 0
M  V30 6100 H 633.235 -1.54144 -0.709775 0
M  V30 6101 H 632.007 -3.40252 -1.93247 0
M  V30 6102 H 631.63 -2.29813 -3.24456 0
M  V30 6103 N 632.627 0.916307 -1.28225 0
M  V30 6104 C 633.59 1.99996 -1.11957 0
M  V30 6105 C 634.59 1.60688 -0.0600152 0
M  V30 6106 O 635.78 1.71499 -0.30558 0
M  V30 6107 C 632.912 3.33458 -0.708411 0
M  V30 6108 H 634.105 2.15858 -2.08196 0
M  V30 6109 H 631.658 1.09863 -1.11175 0
M  V30 6110 H 632.393 3.23297 0.254859 0
M  V30 6111 H 632.178 3.63349 -1.47377 0
M  V30 6112 H 633.668 4.13014 -0.617164 0
M  V30 6113 N 634.105 1.10431 1.1244 0
M  V30 6114 C 635.345 0.856518 1.85589 0
M  V30 6115 C 635.709 -0.606905 1.82156 0
M  V30 6116 O 636.91 -0.97105 2.50647 0
M  V30 6117 C 635.181 1.38977 3.29272 0
M  V30 6118 S 636.74 1.27739 4.19795 0
M  V30 6119 H 633.558 0.309509 0.640098 0
M  V30 6120 H 636.16 1.40975 1.35449 0
M  V30 6121 H 634.864 2.44887 3.2933 0
M  V30 6122 H 634.395 0.833112 3.84477 0
M  V30 6123 H 636.41 0.235051 4.95643 0
M  V30 6124 N 635.583 -1.29855 0.893053 0
M  V30 6125 C 636.86 -1.90694 0.435336 0
M  V30 6126 C 637.24 -1.8111 -1.08454 0
M  V30 6127 O 636.588 -1.23352 -1.92345 0
M  V30 6128 C 636.798 -3.36033 0.942472 0
M  V30 6129 C 638.146 -4.13083 0.982226 0
M  V30 6130 O 639.17 -3.4491 0.889686 0
M  V30 6131 O 638.029 -5.34896 1.12022 0
M  V30 6132 H 635.123 -0.815978 0.134567 0
M  V30 6133 H 637.669 -1.38367 0.982484 0
M  V30 6134 H 636.441 -3.37132 1.9864 0
M  V30 6135 H 636.064 -3.95828 0.374952 0
M  V30 6136 N 637.061 -0.65484 -1.43351 0
M  V30 6137 C 638.286 -0.175046 -2.0666 0
M  V30 6138 C 638.711 1.15104 -1.4877 0
M  V30 6139 O 638.069 1.71144 -0.598279 0
M  V30 6140 C 638.117 -0.0991544 -3.60464 0
M  V30 6141 O 637.221 0.938169 -4.01587 0
M  V30 6142 H 636.562 -0.0956148 -0.65708 0
M  V30 6143 H 639.092 -0.898222 -1.83829 0
M  V30 6144 H 639.102 0.083632 -4.07914 0
M  V30 6145 H 637.777 -1.06719 -4.01975 0
M  V30 6146 H 636.354 0.72804 -3.65724 0
M  V30 6147 N 638.539 1.52521 -0.396863 0
M  V30 6148 C 639.816 1.94112 0.240842 0
M  V30 6149 C 640.196 1.33288 1.637 0
M  V30 6150 O 639.544 0.503901 2.22875 0
M  V30 6151 C 639.754 3.48033 0.259567 0
M  V30 6152 C 641.102 4.21822 0.484866 0
M  V30 6153 O 642.126 3.54579 0.339453 0
M  V30 6154 O 640.985 5.41042 0.770412 0
M  V30 6155 H 638.079 0.812973 0.151671 0
M  V30 6156 H 640.625 1.63572 -0.451918 0
M  V30 6157 H 639.397 3.84655 -0.718078 0
M  V30 6158 H 639.02 3.84899 0.996937 0
M  V30 6159 N 640.017 0.126909 1.57088 0
M  V30 6160 C 640.949 -0.850973 2.12817 0
M  V30 6161 C 641.962 -1.22457 1.07276 0
M  V30 6162 O 643.151 -1.17215 1.34622 0
M  V30 6163 C 640.251 -2.15039 2.61938 0
M  V30 6164 C 639.424 -1.94726 3.91664 0
M  V30 6165 C 638.483 -3.0847 4.26301 0
M  V30 6166 O 637.509 -2.81038 4.94981 0
M  V30 6167 N 638.711 -4.35116 3.84259 0
M  V30 6168 H 641.476 -0.3748 2.97347 0
M  V30 6169 H 639.037 -0.0572793 1.61799 0
M  V30 6170 H 641.029 -2.90141 2.82135 0
M  V30 6171 H 639.599 -2.5398 1.82244 0
M  V30 6172 H 638.819 -1.03772 3.80296 0
M  V30 6173 H 640.107 -1.78469 4.76473 0
M  V30 6174 H 639.505 -4.60276 3.2888 0
M  V30 6175 H 638.062 -5.07064 4.09548 0
M  V30 6176 N 641.495 -1.56914 -0.146875 0
M  V30 6177 C 642.772 -1.74273 -0.888165 0
M  V30 6178 C 643.152 -0.69496 -1.99333 0
M  V30 6179 O 642.5 0.286093 -2.26702 0
M  V30 6180 C 642.71 -3.18336 -1.43051 0
M  V30 6181 C 644.058 -3.80024 -1.89387 0
M  V30 6182 O 645.082 -3.21765 -1.52792 0
M  V30 6183 O 643.941 -4.82367 -2.56874 0
M  V30 6184 H 641.035 -0.712565 -0.419738 0
M  V30 6185 H 643.581 -1.6918 -0.132791 0
M  V30 6186 H 642.353 -3.86092 -0.636274 0
M  V30 6187 H 641.976 -3.27854 -2.24938 0
M  V30 6188 N 642.974 0.416227 -1.52004 0
M  V30 6189 C 643.906 1.52552 -1.71058 0
M  V30 6190 C 644.919 1.51693 -0.59102 0
M  V30 6191 O 646.108 1.56087 -0.865973 0
M  V30 6192 C 643.208 2.91455 -1.72937 0
M  V30 6193 C 642.381 3.16584 -3.01816 0
M  V30 6194 C 641.44 4.35322 -2.95603 0
M  V30 6195 O 640.466 4.32947 -3.6952 0
M  V30 6196 N 641.668 5.40049 -2.12903 0
M  V30 6197 H 644.433 1.36604 -2.66757 0
M  V30 6198 H 641.994 0.60544 -1.50153 0
M  V30 6199 H 643.986 3.68944 -1.66321 0
M  V30 6200 H 642.556 3.00895 -0.847418 0
M  V30 6201 H 641.776 2.27203 -3.22137 0
M  V30 6202 H 643.064 3.30213 -3.87088 0
M  V30 6203 H 642.462 5.44823 -1.52265 0
M  V30 6204 H 641.019 6.16308 -2.1215 0
M  V30 6205 N 644.452 1.42507 0.673017 0
M  V30 6206 C 645.729 1.33554 1.42908 0
M  V30 6207 C 646.109 -0.0262211 2.11084 0
M  V30 6208 O 645.457 -1.04181 2.03368 0
M  V30 6209 C 645.667 2.50498 2.43006 0
M  V30 6210 C 647.015 2.92694 3.07596 0
M  V30 6211 O 648.039 2.50401 2.53333 0
M  V30 6212 O 646.898 3.65899 4.05931 0
M  V30 6213 H 643.992 0.526785 0.637516 0
M  V30 6214 H 646.538 1.54518 0.701591 0
M  V30 6215 H 645.31 3.41272 1.9144 0
M  V30 6216 H 644.933 2.3153 3.23233 0
M  V30 6217 N 645.93 -0.909495 1.28709 0
M  V30 6218 C 647.178 -1.65577 1.15882 0
M  V30 6219 C 647.499 -1.928 -0.292108 0
M  V30 6220 O 646.769 -1.54716 -1.20166 0
M  V30 6221 H 645.349 -0.613714 0.425869 0
M  V30 6222 H 648.011 -1.09108 1.61498 0
M  V30 6223 H 647.107 -2.61634 1.70159 0
M  V30 6224 N 647.408 -1.11026 -1.11852 0
M  V30 6225 C 648.685 -0.768347 -1.79877 0
M  V30 6226 C 649.065 0.744261 -1.97545 0
M  V30 6227 O 648.413 1.67271 -1.55669 0
M  V30 6228 C 648.623 -1.52648 -3.13846 0
M  V30 6229 C 649.971 -1.70297 -3.88953 0
M  V30 6230 O 650.995 -1.49037 -3.23522 0
M  V30 6231 O 649.854 -2.05593 -5.06353 0
M  V30 6232 H 646.948 -0.277891 -0.778913 0
M  V30 6233 H 649.494 -1.21343 -1.18633 0
M  V30 6234 H 648.266 -2.55564 -2.96315 0
M  V30 6235 H 647.889 -1.07466 -3.82801 0
M  V30 6236 N 648.886 1.2938 -0.899927 0
M  V30 6237 C 650.134 1.95164 -0.524924 0
M  V30 6238 C 650.455 1.71292 0.931888 0
M  V30 6239 O 649.725 1.04481 1.65712 0
M  V30 6240 H 648.305 0.722133 -0.191135 0
M  V30 6241 H 650.967 1.57628 -1.14627 0
M  V30 6242 H 650.063 3.0397 -0.707711 0
M  V30 6243 N 650.364 0.662433 1.43002 0
M  V30 6244 C 651.314 -0.0460442 2.27954 0
M  V30 6245 C 652.298 -0.785753 1.40409 0
M  V30 6246 O 653.49 -0.666701 1.63964 0
M  V30 6247 C 650.619 -1.00532 3.2825 0
M  V30 6248 C 649.705 -0.263604 4.2328 0
M  V30 6249 N 650.096 0.724855 5.00579 0
M  V30 6250 C 648.394 -0.503778 4.43146 0
M  V30 6251 C 649.095 1.16594 5.69895 0
M  V30 6252 N 648.071 0.498345 5.41311 0
M  V30 6253 H 651.873 0.712314 2.85137 0
M  V30 6254 H 649.387 0.490469 1.54817 0
M  V30 6255 H 651.384 -1.52775 3.87899 0
M  V30 6256 H 650.044 -1.76364 2.72628 0
M  V30 6257 H 651.055 1.10393 5.05998 0
M  V30 6258 H 647.732 -1.24255 3.98581 0
M  V30 6259 H 649.122 1.98434 6.4193 0
M  V30 6260 N 651.842 -1.52309 0.404946 0
M  V30 6261 C 652.774 -2.24579 -0.45791 0
M  V30 6262 C 653.787 -1.2739 -1.01369 0
M  V30 6263 O 654.976 -1.53363 -0.91335 0
M  V30 6264 C 652.076 -2.9608 -1.64893 0
M  V30 6265 C 651.249 -4.20106 -1.21777 0
M  V30 6266 C 650.308 -4.74468 -2.27523 0
M  V30 6267 O 649.334 -5.37157 -1.88285 0
M  V30 6268 N 650.536 -4.55678 -3.59635 0
M  V30 6269 H 653.301 -2.99265 0.161341 0
M  V30 6270 H 650.862 -1.60228 0.232107 0
M  V30 6271 H 652.854 -3.29344 -2.35191 0
M  V30 6272 H 651.424 -2.24606 -2.17419 0
M  V30 6273 H 650.644 -3.92704 -0.343071 0
M  V30 6274 H 651.932 -5.00658 -0.906596 0
M  V30 6275 H 651.33 -4.05673 -3.94266 0
M  V30 6276 H 649.887 -4.9339 -4.25922 0
M  V30 6277 N 653.32 -0.135238 -1.57019 0
M  V30 6278 C 654.597 0.563227 -1.87316 0
M  V30 6279 C 654.977 1.83749 -1.03921 0
M  V30 6280 O 654.325 2.2817 -0.122675 0
M  V30 6281 C 654.535 0.840031 -3.3874 0
M  V30 6282 C 655.883 1.18598 -4.077 0
M  V30 6283 O 656.907 0.92977 -3.43851 0
M  V30 6284 O 655.766 1.66758 -5.20436 0
M  V30 6285 H 652.86 0.285971 -0.775983 0
M  V30 6286 H 655.406 -0.170965 -1.68837 0
M  V30 6287 H 654.178 -0.0622785 -3.9125 0
M  V30 6288 H 653.801 1.62882 -3.62706 0
M  V30 6289 N 654.798 1.5699 0.138552 0
M  V30 6290 C 656.023 1.88344 0.86841 0
M  V30 6291 C 656.448 0.725159 1.7356 0
M  V30 6292 O 655.806 -0.324992 1.78363 0
M  V30 6293 C 655.854 3.18334 1.69398 0
M  V30 6294 O 654.958 3.02863 2.79907 0
M  V30 6295 H 654.299 0.618577 0.241367 0
M  V30 6296 H 656.829 2.04207 0.126826 0
M  V30 6297 H 656.839 3.50567 2.08726 0
M  V30 6298 H 655.514 4.02238 1.05725 0
M  V30 6299 H 654.091 2.82056 2.43924 0
M  V30 6300 N 656.276 -0.40816 1.52223 0
M  V30 6301 C 657.692 -0.74685 1.41047 0
M  V30 6302 C 657.892 -1.94788 0.51573 0
M  V30 6303 O 656.948 -2.52494 -0.0181156 0
M  V30 6304 C 658.261 -0.999878 2.83589 0
M  V30 6305 C 659.809 -1.10253 2.92939 0
M  V30 6306 C 660.284 -1.38832 4.36451 0
M  V30 6307 N 661.775 -1.45694 4.3969 0
M  V30 6308 C 662.51 -1.69435 5.47795 0
M  V30 6309 N 662.006 -1.90774 6.66016 0
M  V30 6310 N 663.799 -1.71458 5.35312 0
M  V30 6311 H 655.95 0.382409 2.08929 0
M  V30 6312 H 658.213 0.108807 0.941735 0
M  V30 6313 H 657.919 -0.189723 3.51188 0
M  V30 6314 H 657.793 -1.91978 3.24691 0
M  V30 6315 H 660.18 -1.90328 2.2552 0
M  V30 6316 H 660.261 -0.160973 2.55293 0
M  V30 6317 H 659.905 -0.592741 5.04429 0
M  V30 6318 H 659.835 -2.34241 4.71634 0
M  V30 6319 H 662.326 -1.3099 3.54472 0
M  V30 6320 H 662.639 -2.08342 7.44186 0
M  V30 6321 H 660.984 -1.88037 6.69079 0
M  V30 6322 H 664.175 -1.54326 4.41929 0
M  V30 6323 H 664.348 -1.89621 6.19635 0
M  V30 6324 N 657.755 -1.42862 -0.66545 0
M  V30 6325 C 659.032 -1.3431 -1.42197 0
M  V30 6326 C 659.412 0.0150265 -2.11095 0
M  V30 6327 O 658.76 1.03101 -2.03918 0
M  V30 6328 C 658.97 -2.51783 -2.41674 0
M  V30 6329 C 660.318 -2.94321 -3.0604 0
M  V30 6330 O 661.342 -2.51741 -2.52001 0
M  V30 6331 O 660.201 -3.68047 -4.03985 0
M  V30 6332 H 657.295 -0.530159 -0.634713 0
M  V30 6333 H 659.841 -1.54888 -0.693386 0
M  V30 6334 H 658.613 -3.42282 -1.89627 0
M  V30 6335 H 658.236 -2.33241 -3.22001 0
M  V30 6336 N 659.233 0.902656 -1.29189 0
M  V30 6337 C 660.181 2.0278 -1.13943 0
M  V30 6338 C 661.175 1.69308 -0.055787 0
M  V30 6339 O 662.381 1.78707 -0.215371 0
M  V30 6340 H 658.756 0.664595 -0.351877 0
M  V30 6341 H 660.727 2.12778 -2.09208 0
M  V30 6342 C 659.476 3.37657 -0.82966 0
M  V30 6343 H 658.799 3.63913 -1.65551 0
M  V30 6344 H 660.239 4.17078 -0.762998 0
M  V30 6345 C 658.698 3.33648 0.466991 0
M  V30 6346 O 659.228 3.72886 1.49395 0
M  V30 6347 N 657.434 2.86745 0.471761 0
M  V30 6348 H 656.981 2.55009 -0.364406 0
M  V30 6349 H 656.939 2.84446 1.33933 0
M  V30 6350 N 660.711 1.11618 1.11262 0
M  V30 6351 C 661.951 0.876154 1.8467 0
M  V30 6352 C 662.315 -0.587551 1.82789 0
M  V30 6353 O 663.516 -0.944411 2.51663 0
M  V30 6354 C 661.787 1.42461 3.2778 0
M  V30 6355 S 663.346 1.32185 4.18417 0
M  V30 6356 H 660.164 0.31628 0.636779 0
M  V30 6357 H 662.766 1.42404 1.33946 0
M  V30 6358 H 661.47 2.48367 3.26714 0
M  V30 6359 H 661.001 0.873844 3.83572 0
M  V30 6360 H 663.016 0.287607 4.95366 0
M  V30 6361 N 662.189 -1.289 0.906776 0
M  V30 6362 C 663.6 -1.77336 0.58384 0
M  V30 6363 C 663.951 -1.74304 -0.900697 0
M  V30 6364 O 663.076 -1.33335 -1.70443 0
M  V30 6365 C 663.671 -3.22019 1.05304 0
M  V30 6366 C 662.23 -3.68205 0.781148 0
M  V30 6367 C 661.377 -2.48837 1.22373 0
M  V30 6368 H 664.328 -1.15462 1.08877 0
M  V30 6369 H 664.349 -3.78481 0.391414 0
M  V30 6370 H 663.861 -3.24194 2.13353 0
M  V30 6371 H 661.962 -3.71497 -0.28643 0
M  V30 6372 H 662.075 -4.58675 1.384 0
M  V30 6373 H 660.439 -2.46461 0.642594 0
M  V30 6374 H 661.222 -2.53736 2.31242 0
M  V30 6375 N 663.667 -0.670007 -1.42649 0
M  V30 6376 C 664.895 -0.19854 -2.05945 0
M  V30 6377 C 665.31 1.14243 -1.50313 0
M  V30 6378 O 664.667 1.70872 -0.641027 0
M  V30 6379 C 664.718 -0.11966 -3.61302 0
M  V30 6380 O 664.439 -1.40764 -4.1487 0
M  V30 6381 C 665.94 0.375878 -4.41704 0
M  V30 6382 H 663.16 -0.0976894 -0.663851 0
M  V30 6383 H 665.704 -0.915392 -1.82868 0
M  V30 6384 H 663.859 0.547851 -3.83507 0
M  V30 6385 H 664.273 -1.27784 -5.08696 0
M  V30 6386 H 665.747 0.379988 -5.50691 0
M  V30 6387 H 666.224 1.41028 -4.15942 0
M  V30 6388 H 666.83 -0.259727 -4.24506 0
M  V30 6389 N 665.145 1.52092 -0.413018 0
M  V30 6390 C 666.391 2.02154 0.161737 0
M  V30 6391 C 666.724 1.29789 1.44459 0
M  V30 6392 O 665.999 0.405378 1.90229 0
M  V30 6393 C 666.282 3.5781 0.405463 0
M  V30 6394 C 666.135 4.40819 -0.894335 0
M  V30 6395 C 667.454 4.23821 1.18591 0
M  V30 6396 H 664.573 0.734769 0.0573077 0
M  V30 6397 H 667.215 1.81948 -0.547247 0
M  V30 6398 H 665.365 3.75158 1.0094 0
M  V30 6399 H 667.037 4.35175 -1.53039 0
M  V30 6400 H 665.28 4.06877 -1.50444 0
M  V30 6401 H 665.951 5.47819 -0.678144 0
M  V30 6402 H 668.427 4.10596 0.674573 0
M  V30 6403 H 667.303 5.32663 1.3252 0
M  V30 6404 H 667.564 3.83038 2.20758 0
M  V30 6405 N 666.623 0.143563 1.56945 0
M  V30 6406 C 668.034 -0.37783 1.82837 0
M  V30 6407 C 668.385 -1.64967 1.06209 0
M  V30 6408 O 667.51 -2.14221 0.306291 0
M  V30 6409 C 668.105 -0.692274 3.31652 0
M  V30 6410 C 666.664 -1.1582 3.58138 0
M  V30 6411 C 665.811 -0.17951 2.76718 0
M  V30 6412 H 668.762 0.368317 1.54367 0
M  V30 6413 H 668.783 -1.54729 3.47619 0
M  V30 6414 H 668.295 0.233572 3.87397 0
M  V30 6415 H 666.396 -2.10011 3.07776 0
M  V30 6416 H 666.509 -1.08655 4.66616 0
M  V30 6417 H 664.873 -0.671458 2.4569 0
M  V30 6418 H 665.656 0.739865 3.35233 0
M  V30 6419 N 668.101 -1.57061 -0.130224 0
M  V30 6420 C 669.049 -2.00486 -1.17933 0
M  V30 6421 C 670.043 -0.899933 -1.43519 0
M  V30 6422 O 671.249 -1.08514 -1.43613 0
M  V30 6423 H 667.624 -0.638441 -0.397363 0
M  V30 6424 H 669.595 -2.87848 -0.786501 0
M  V30 6425 C 668.344 -2.41565 -2.50084 0
M  V30 6426 H 667.667 -3.26148 -2.31231 0
M  V30 6427 H 669.107 -2.75757 -3.22078 0
M  V30 6428 C 667.566 -1.27485 -3.11848 0
M  V30 6429 O 668.096 -0.584688 -3.97422 0
M  V30 6430 N 666.302 -1.03478 -2.71552 0
M  V30 6431 H 665.849 -1.59779 -2.02061 0
M  V30 6432 H 665.807 -0.27341 -3.13209 0
M  V30 6433 N 669.579 0.400081 -1.52437 0
M  V30 6434 C 670.804 1.17221 -1.71096 0
M  V30 6435 C 671.229 1.83269 -0.423565 0
M  V30 6436 O 670.587 1.70378 0.619751 0
M  V30 6437 C 670.635 2.20425 -2.85386 0
M  V30 6438 O 669.739 3.26769 -2.51586 0
M  V30 6439 H 669.08 0.341766 -0.569291 0
M  V30 6440 H 671.61 0.467772 -1.99181 0
M  V30 6441 H 671.62 2.64605 -3.10561 0
M  V30 6442 H 670.295 1.71737 -3.78786 0
M  V30 6443 H 668.872 2.87804 -2.37114 0
M  V30 6444 N 671.057 1.43213 0.657864 0
M  V30 6445 C 672.02 1.47687 1.75275 0
M  V30 6446 C 673.02 0.362179 1.56668 0
M  V30 6447 O 674.21 0.623734 1.62651 0
M  V30 6448 C 671.342 1.32497 3.14098 0
M  V30 6449 H 672.535 2.4519 1.7269 0
M  V30 6450 H 670.088 1.2991 0.869087 0
M  V30 6451 H 670.823 0.359831 3.22298 0
M  V30 6452 H 670.608 2.13299 3.29008 0
M  V30 6453 H 672.098 1.38549 3.93946 0
M  V30 6454 N 672.536 -0.895792 1.29666 0
M  V30 6455 C 673.468 -2.00563 1.10937 0
M  V30 6456 C 674.481 -1.62705 0.055734 0
M  V30 6457 O 675.67 -1.7595 0.300656 0
M  V30 6458 C 672.77 -3.32262 0.667448 0
M  V30 6459 C 671.943 -3.98625 1.80047 0
M  V30 6460 C 671.002 -5.08617 1.3489 0
M  V30 6461 O 670.028 -5.30837 2.05429 0
M  V30 6462 N 671.23 -5.80076 0.221937 0
M  V30 6463 H 673.995 -2.17184 2.06522 0
M  V30 6464 H 671.556 -1.06822 1.21658 0
M  V30 6465 H 673.548 -4.03196 0.348586 0
M  V30 6466 H 672.118 -3.11985 -0.196055 0
M  V30 6467 H 671.338 -3.21005 2.28801 0
M  V30 6468 H 672.626 -4.39704 2.56003 0
M  V30 6469 H 672.024 -5.64514 -0.366084 0
M  V30 6470 H 670.581 -6.51789 -0.0375346 0
M  V30 6471 N 674.014 -1.12206 -1.10668 0
M  V30 6472 C 674.924 -0.800686 -2.20513 0
M  V30 6473 C 675.94 0.209512 -1.72734 0
M  V30 6474 O 677.116 0.043705 -2.01353 0
M  V30 6475 C 674.181 -0.257353 -3.45744 0
M  V30 6476 C 673.242 -1.32718 -4.0827 0
M  V30 6477 C 672.475 -0.809674 -5.27522 0
M  V30 6478 O 672.698 0.35742 -5.69279 0
M  V30 6479 O 671.632 -1.57816 -5.80842 0
M  V30 6480 H 675.458 -1.71807 -2.50432 0
M  V30 6481 H 673.043 -0.898546 -1.19359 0
M  V30 6482 H 674.925 0.0408849 -4.2138 0
M  V30 6483 H 673.6 0.632627 -3.17458 0
M  V30 6484 H 672.507 -1.67855 -3.34329 0
M  V30 6485 H 673.84 -2.19083 -4.40753 0
M  V30 6486 N 675.492 1.28418 -0.913599 0
M  V30 6487 C 676.769 1.89977 -0.465619 0
M  V30 6488 C 677.149 1.82813 1.05559 0
M  V30 6489 O 676.497 1.26397 1.90358 0
M  V30 6490 C 676.707 3.34492 -0.995813 0
M  V30 6491 C 678.055 4.11468 -1.04782 0
M  V30 6492 O 679.079 3.43451 -0.944445 0
M  V30 6493 O 677.938 5.33046 -1.20518 0
M  V30 6494 H 675.032 0.813734 -0.147532 0
M  V30 6495 H 677.578 1.36786 -1.00437 0
M  V30 6496 H 676.35 3.33929 -2.03978 0
M  V30 6497 H 675.973 3.95181 -0.437878 0
M  V30 6498 N 676.97 0.677563 1.42291 0
M  V30 6499 C 678.195 0.207901 2.06355 0
M  V30 6500 C 678.62 -1.12723 1.50583 0
M  V30 6501 O 677.978 -1.70171 0.62543 0
M  V30 6502 C 678.026 0.156489 3.6026 0
M  V30 6503 O 677.13 -0.874162 4.03029 0
M  V30 6504 H 676.471 0.106056 0.655475 0
M  V30 6505 H 679.001 0.927354 1.82377 0
M  V30 6506 H 679.011 -0.0187258 4.07996 0
M  V30 6507 H 677.686 1.13101 4.00226 0
M  V30 6508 H 676.263 -0.669764 3.66836 0
M  V30 6509 N 678.448 -1.51871 0.421078 0
M  V30 6510 C 679.725 -1.9447 -0.20993 0
M  V30 6511 C 680.105 -1.35875 -1.61558 0
M  V30 6512 O 679.453 -0.539294 -2.22045 0
M  V30 6513 C 679.663 -3.48402 -0.204165 0
M  V30 6514 C 681.011 -4.2254 -0.417696 0
M  V30 6515 O 682.035 -3.55074 -0.282999 0
M  V30 6516 O 680.894 -5.422 -0.684239 0
M  V30 6517 H 677.988 -0.815283 -0.138718 0
M  V30 6518 H 680.534 -1.62832 0.477884 0
M  V30 6519 H 679.306 -3.83464 0.779183 0
M  V30 6520 H 678.929 -3.86436 -0.935576 0
M  V30 6521 N 679.926 -0.151884 -1.56866 0
M  V30 6522 C 680.876 0.797799 -2.13586 0
M  V30 6523 C 681.86 1.20613 -1.06496 0
M  V30 6524 O 683.052 1.17173 -1.32663 0
M  V30 6525 C 680.181 2.03493 -2.76488 0
M  V30 6526 C 679.267 1.64948 -3.90708 0
M  V30 6527 N 679.658 0.972513 -4.96363 0
M  V30 6528 C 677.956 1.94186 -4.01507 0
M  V30 6529 C 678.657 0.785661 -5.7637 0
M  V30 6530 N 677.633 1.32105 -5.27304 0
M  V30 6531 H 681.435 0.271403 -2.92644 0
M  V30 6532 H 678.949 0.049487 -1.62325 0
M  V30 6533 H 680.946 2.72532 -3.15487 0
M  V30 6534 H 679.606 2.56646 -1.98904 0
M  V30 6535 H 680.617 0.632724 -5.1402 0
M  V30 6536 H 677.294 2.49154 -3.35005 0
M  V30 6537 H 678.684 0.251749 -6.71428 0
M  V30 6538 N 681.404 1.57128 0.121893 0
M  V30 6539 C 682.681 1.75664 0.860327 0
M  V30 6540 C 683.061 0.726585 1.98202 0
M  V30 6541 O 682.409 -0.24999 2.27128 0
M  V30 6542 C 682.619 3.20571 1.37968 0
M  V30 6543 C 683.967 3.82988 1.83317 0
M  V30 6544 O 684.991 3.24156 1.47654 0
M  V30 6545 O 683.85 4.86393 2.49168 0
M  V30 6546 H 680.944 0.719153 0.408348 0
M  V30 6547 H 683.49 1.6937 0.105859 0
M  V30 6548 H 682.262 3.87056 0.57477 0
M  V30 6549 H 681.885 3.31392 2.19694 0
M  V30 6550 N 682.882 -0.391992 1.52647 0
M  V30 6551 C 684.13 -1.13507 1.67214 0
M  V30 6552 C 684.451 -1.90575 0.41304 0
M  V30 6553 O 683.721 -1.87348 -0.572498 0
M  V30 6554 H 682.301 -0.422013 0.616372 0
M  V30 6555 H 684.963 -0.44502 1.89751 0
M  V30 6556 H 684.059 -1.83964 2.52118 0
M  V30 6557 N 684.36 -1.4356 -0.65026 0
M  V30 6558 C 685.292 -1.44918 -1.77571 0
M  V30 6559 C 686.305 -0.344925 -1.59104 0
M  V30 6560 O 687.494 -0.609537 -1.6777 0
M  V30 6561 C 684.594 -1.24914 -3.15039 0
M  V30 6562 C 683.767 -2.48232 -3.60138 0
M  V30 6563 C 682.826 -2.23409 -4.76419 0
M  V30 6564 O 681.852 -2.9678 -4.85706 0
M  V30 6565 N 683.054 -1.25259 -5.66825 0
M  V30 6566 H 685.819 -2.41935 -1.76883 0
M  V30 6567 H 683.38 -1.38754 -0.834202 0
M  V30 6568 H 685.372 -1.06185 -3.90521 0
M  V30 6569 H 683.942 -0.363319 -3.10481 0
M  V30 6570 H 683.162 -2.82366 -2.75069 0
M  V30 6571 H 684.45 -3.30296 -3.87017 0
M  V30 6572 H 683.848 -0.646246 -5.61997 0
M  V30 6573 H 682.405 -1.12513 -6.42016 0
M  V30 6574 N 685.838 0.888903 -1.30139 0
M  V30 6575 C 687.086 1.63713 -1.18501 0
M  V30 6576 C 687.407 1.9324 0.261399 0
M  V30 6577 O 686.677 1.56608 1.17689 0
M  V30 6578 H 685.257 0.606861 -0.435579 0
M  V30 6579 H 687.919 1.06525 -1.63213 0
M  V30 6580 H 687.015 2.58894 -1.743 0
M  V30 6581 N 687.317 1.12792 1.10072 0
M  V30 6582 C 688.594 0.796867 1.78632 0
M  V30 6583 C 688.974 -0.712739 1.98704 0
M  V30 6584 O 688.322 -1.64773 1.5831 0
M  V30 6585 C 688.532 1.57622 3.11378 0
M  V30 6586 C 689.88 1.76463 3.86194 0
M  V30 6587 O 690.904 1.54165 3.2111 0
M  V30 6588 O 689.763 2.13623 5.03018 0
M  V30 6589 H 686.857 0.290248 0.774394 0
M  V30 6590 H 689.403 1.23215 1.16688 0
M  V30 6591 H 688.175 2.60246 2.92212 0
M  V30 6592 H 687.798 1.13543 3.81043 0
M  V30 6593 N 688.795 -1.27931 0.920396 0
M  V30 6594 C 689.758 -2.25345 0.41858 0
M  V30 6595 C 690.758 -1.54116 -0.458798 0
M  V30 6596 O 691.948 -1.72235 -0.260912 0
M  V30 6597 C 689.08 -3.38556 -0.399104 0
M  V30 6598 H 690.273 -2.71251 1.27918 0
M  V30 6599 H 687.826 -1.39728 0.700406 0
M  V30 6600 H 688.561 -2.98021 -1.27882 0
M  V30 6601 H 688.346 -3.91426 0.229863 0
M  V30 6602 H 689.836 -4.10976 -0.740817 0
M  V30 6603 N 690.273 -0.685099 -1.4193 0
M  V30 6604 C 691.513 -0.215676 -2.03259 0
M  V30 6605 C 691.877 1.15934 -1.53047 0
M  V30 6606 O 693.078 1.72401 -2.06231 0
M  V30 6607 C 691.349 -0.259649 -3.56456 0
M  V30 6608 S 692.908 0.137262 -4.38585 0
M  V30 6609 H 689.726 -0.0877362 -0.705566 0
M  V30 6610 H 692.328 -0.900547 -1.73523 0
M  V30 6611 H 691.032 -1.26256 -3.90497 0
M  V30 6612 H 690.563 0.444716 -3.90878 0
M  V30 6613 H 692.578 1.36787 -4.76973 0
M  V30 6614 N 691.751 1.51645 -0.429126 0
M  V30 6615 C 693.028 1.94579 0.199614 0
M  V30 6616 C 693.408 1.3673 1.60836 0
M  V30 6617 O 692.756 0.551062 2.21756 0
M  V30 6618 C 692.966 3.48506 0.185685 0
M  V30 6619 C 694.314 4.22756 0.395282 0
M  V30 6620 O 695.338 3.55219 0.264165 0
M  V30 6621 O 694.197 5.42555 0.655475 0
M  V30 6622 H 691.291 0.816007 0.134393 0
M  V30 6623 H 693.837 1.62577 -0.486513 0
M  V30 6624 H 692.609 3.83045 -0.799508 0
M  V30 6625 H 692.232 3.86927 0.91507 0
M  V30 6626 N 693.229 0.160201 1.56784 0
M  V30 6627 C 694.506 -0.533355 1.88188 0
M  V30 6628 C 694.886 -1.82072 1.06831 0
M  V30 6629 O 694.234 -2.27946 0.158959 0
M  V30 6630 C 694.444 -0.786034 3.40033 0
M  V30 6631 C 695.792 -1.12097 4.09536 0
M  V30 6632 O 696.816 -0.874949 3.45287 0
M  V30 6633 O 695.675 -1.58457 5.23023 0
M  V30 6634 H 692.769 -0.273589 0.780434 0
M  V30 6635 H 695.315 0.197803 1.68543 0
M  V30 6636 H 694.087 0.124515 3.91102 0
M  V30 6637 H 693.71 -1.57091 3.65251 0
M  V30 6638 N 694.707 -1.5719 -0.113559 0
M  V30 6639 C 695.984 -1.76117 -0.850999 0
M  V30 6640 C 696.364 -0.737085 -1.97814 0
M  V30 6641 O 695.712 0.237942 -2.27258 0
M  V30 6642 C 695.922 -3.21298 -1.36266 0
M  V30 6643 C 697.27 -3.83955 -1.81283 0
M  V30 6644 O 698.294 -3.24934 -1.45933 0
M  V30 6645 O 697.153 -4.87707 -2.46585 0
M  V30 6646 H 694.247 -0.721308 -0.404529 0
M  V30 6647 H 696.793 -1.69423 -0.0968756 0
M  V30 6648 H 695.565 -3.87355 -0.554235 0
M  V30 6649 H 695.188 -3.32552 -2.17933 0
M  V30 6650 N 696.185 0.383891 -1.52853 0
M  V30 6651 C 697.462 1.14296 -1.58732 0
M  V30 6652 C 697.842 2.07585 -0.383611 0
M  V30 6653 O 697.19 2.1971 0.627661 0
M  V30 6654 C 697.4 1.89816 -2.92867 0
M  V30 6655 C 698.748 2.44998 -3.46787 0
M  V30 6656 O 699.772 1.99966 -2.94774 0
M  V30 6657 O 698.631 3.2727 -4.37672 0
M  V30 6658 H 695.725 0.52326 -0.640413 0
M  V30 6659 H 698.271 0.388631 -1.6519 0
M  V30 6660 H 697.043 1.21626 -3.71918 0
M  V30 6661 H 696.666 2.72199 -2.89816 0
M  V30 6662 N 697.663 1.43903 0.642637 0
M  V30 6663 C 698.94 1.36556 1.40043 0
M  V30 6664 C 699.32 0.0185588 2.11092 0
M  V30 6665 O 698.668 -0.998438 2.05532 0
M  V30 6666 C 698.878 2.55596 2.37638 0
M  V30 6667 C 700.226 2.99153 3.01318 0
M  V30 6668 O 701.25 2.55719 2.47965 0
M  V30 6669 O 700.109 3.74427 3.98078 0
M  V30 6670 H 697.203 0.540189 0.626198 0
M  V30 6671 H 699.749 1.55971 0.668657 0
M  V30 6672 H 698.521 3.45256 1.84158 0
M  V30 6673 H 698.144 2.38334 3.18249 0
M  V30 6674 N 699.141 -0.881989 1.30609 0
M  V30 6675 C 700.089 -2.00942 1.17155 0
M  V30 6676 C 701.083 -1.69198 0.0827154 0
M  V30 6677 O 702.289 -1.78342 0.243775 0
M  V30 6678 H 698.664 -0.658913 0.362406 0
M  V30 6679 H 700.635 -2.09423 2.12567 0
M  V30 6680 C 699.384 -3.36294 0.883273 0
M  V30 6681 H 698.707 -3.61233 1.7132 0
M  V30 6682 H 700.147 -4.15812 0.829255 0
M  V30 6683 C 698.606 -3.34348 -0.413851 0
M  V30 6684 O 699.136 -3.75216 -1.43444 0
M  V30 6685 N 697.342 -2.87459 -0.426082 0
M  V30 6686 H 696.889 -2.54397 0.40493 0
M  V30 6687 H 696.847 -2.8654 -1.29391 0
M  V30 6688 N 700.619 -1.13374 -1.09472 0
M  V30 6689 C 701.896 -0.806329 -1.78207 0
M  V30 6690 C 702.276 0.702191 -1.99079 0
M  V30 6691 O 701.624 1.63931 -1.59182 0
M  V30 6692 C 701.834 -1.59271 -3.10538 0
M  V30 6693 C 703.182 -1.78509 -3.85253 0
M  V30 6694 O 704.206 -1.55866 -3.20288 0
M  V30 6695 O 703.065 -2.16287 -5.01879 0
M  V30 6696 H 700.159 -0.29435 -0.772843 0
M  V30 6697 H 702.705 -1.23833 -1.16033 0
M  V30 6698 H 701.477 -2.61792 -2.90828 0
M  V30 6699 H 701.1 -1.15562 -3.80436 0
M  V30 6700 N 702.098 1.27442 -0.927168 0
M  V30 6701 C 703.346 1.94007 -0.566203 0
M  V30 6702 C 703.667 1.7323 0.895345 0
M  V30 6703 O 702.937 1.07973 1.63459 0
M  V30 6704 H 701.517 0.717917 -0.206409 0
M  V30 6705 H 704.179 1.55161 -1.17945 0
M  V30 6706 H 703.275 3.02401 -0.772028 0
M  V30 6707 N 703.576 0.692616 1.41565 0
M  V30 6708 C 704.822 0.222664 2.01574 0
M  V30 6709 C 705.155 -1.1737 1.54719 0
M  V30 6710 O 704.43 -1.79161 0.757084 0
M  V30 6711 C 704.713 0.277064 3.59033 0
M  V30 6712 C 704.566 1.71016 4.16021 0
M  V30 6713 C 705.885 -0.36479 4.38586 0
M  V30 6714 H 703.004 0.0823839 0.732381 0
M  V30 6715 H 705.646 0.880778 1.68352 0
M  V30 6716 H 703.796 -0.283288 3.87466 0
M  V30 6717 H 705.468 2.32413 3.98475 0
M  V30 6718 H 703.711 2.24525 3.71175 0
M  V30 6719 H 704.382 1.69978 5.25178 0
M  V30 6720 H 706.858 0.112404 4.15948 0
M  V30 6721 H 705.734 -0.296169 5.481 0
M  V30 6722 H 705.995 -1.44506 4.17816 0
M  V30 6723 N 705.054 -1.51416 0.437162 0
M  V30 6724 C 706.465 -1.86682 -0.0260005 0
M  V30 6725 C 706.816 -1.35432 -1.4196 0
M  V30 6726 O 705.941 -0.705055 -2.04592 0
M  V30 6727 C 706.536 -3.38757 -0.0539577 0
M  V30 6728 C 705.095 -3.7356 -0.461532 0
M  V30 6729 C 704.242 -2.75134 0.345924 0
M  V30 6730 H 707.193 -1.44642 0.653013 0
M  V30 6731 H 707.214 -3.70573 -0.863478 0
M  V30 6732 H 706.726 -3.76028 0.96045 0
M  V30 6733 H 704.827 -3.41878 -1.48155 0
M  V30 6734 H 704.94 -4.78737 -0.186451 0
M  V30 6735 H 703.304 -2.53947 -0.195739 0
M  V30 6736 H 704.087 -3.15247 1.35921 0
M  V30 6737 N 706.532 -0.168513 -1.56696 0
M  V30 6738 C 707.809 0.523367 -1.88468 0
M  V30 6739 C 708.189 1.81503 -1.07796 0
M  V30 6740 O 707.537 2.27859 -0.171045 0
M  V30 6741 C 707.747 0.767991 -3.40445 0
M  V30 6742 C 709.095 1.09924 -4.10124 0
M  V30 6743 O 710.119 0.856625 -3.45746 0
M  V30 6744 O 708.978 1.55681 -5.23856 0
M  V30 6745 H 706.072 0.269447 -0.781874 0
M  V30 6746 H 708.618 -0.206739 -1.68436 0
M  V30 6747 H 707.39 -0.145254 -3.9103 0
M  V30 6748 H 707.013 1.55151 -3.66079 0
M  V30 6749 N 708.01 1.57248 0.105221 0
M  V30 6750 C 709.235 1.90143 0.828264 0
M  V30 6751 C 709.66 0.761811 1.71983 0
M  V30 6752 O 709.018 -0.287086 1.79013 0
M  V30 6753 C 709.066 3.21856 1.62608 0
M  V30 6754 O 708.17 3.08732 2.7342 0
M  V30 6755 H 707.511 0.623558 0.228192 0
M  V30 6756 H 710.041 2.0443 0.0834826 0
M  V30 6757 H 710.051 3.54916 2.01243 0
M  V30 6758 H 708.726 4.0439 0.971687 0
M  V30 6759 H 707.303 2.87167 2.37886 0
M  V30 6760 N 709.488 -0.375779 1.53054 0
M  V30 6761 C 710.904 -0.716764 1.426 0
M  V30 6762 C 711.104 -1.93651 0.556931 0
M  V30 6763 O 710.16 -2.52475 0.0354461 0
M  V30 6764 C 711.473 -0.939499 2.85646 0
M  V30 6765 C 713.021 -1.04015 2.95212 0
M  V30 6766 C 713.496 -1.29543 4.39298 0
M  V30 6767 N 714.987 -1.36335 4.42682 0
M  V30 6768 C 715.722 -1.57778 5.51266 0
M  V30 6769 N 715.218 -1.76604 6.69913 0
M  V30 6770 N 717.011 -1.60065 5.38828 0
M  V30 6771 H 709.162 0.42664 2.08071 0
M  V30 6772 H 711.425 0.128758 0.939215 0
M  V30 6773 H 711.131 -0.115189 3.51511 0
M  V30 6774 H 711.005 -1.85048 3.2869 0
M  V30 6775 H 713.392 -1.85501 2.29507 0
M  V30 6776 H 713.473 -0.106785 2.55577 0
M  V30 6777 H 713.117 -0.485611 5.05573 0
M  V30 6778 H 713.047 -2.24184 4.76497 0
M  V30 6779 H 715.538 -1.23441 3.5717 0
M  V30 6780 H 715.851 -1.9251 7.48438 0
M  V30 6781 H 714.196 -1.73802 6.72917 0
M  V30 6782 H 717.387 -1.44917 4.45103 0
M  V30 6783 H 717.56 -1.76435 6.23518 0
M  V30 6784 N 710.966 -1.44241 -0.634997 0
M  V30 6785 C 712.243 -1.37296 -1.39317 0
M  V30 6786 C 712.623 -0.0297532 -2.11079 0
M  V30 6787 O 711.971 0.987524 -2.06059 0
M  V30 6788 C 712.181 -2.56853 -2.36279 0
M  V30 6789 C 713.529 -3.00747 -2.99728 0
M  V30 6790 O 714.553 -2.5703 -2.46605 0
M  V30 6791 O 713.412 -3.76533 -3.96087 0
M  V30 6792 H 710.506 -0.543503 -0.623325 0
M  V30 6793 H 713.052 -1.56324 -0.660376 0
M  V30 6794 H 711.824 -3.46228 -1.82324 0
M  V30 6795 H 711.447 -2.40019 -3.16981 0
M  V30 6796 N 712.444 0.87505 -1.31075 0
M  V30 6797 C 713.392 2.00317 -1.18219 0
M  V30 6798 C 714.386 1.69152 -0.0916872 0
M  V30 6799 O 715.592 1.7821 -0.253229 0
M  V30 6800 H 711.967 0.656981 -0.365895 0
M  V30 6801 H 713.938 2.08293 -2.13674 0
M  V30 6802 C 712.687 3.35821 -0.901095 0
M  V30 6803 H 712.01 3.6032 -1.73233 0
M  V30 6804 H 713.45 4.15366 -0.851295 0
M  V30 6805 C 711.909 3.34563 0.396114 0
M  V30 6806 O 712.439 3.75971 1.41452 0
M  V30 6807 N 710.645 2.87681 0.410832 0
M  V30 6808 H 710.192 2.54179 -0.418415 0
M  V30 6809 H 710.15 2.87223 1.27869 0
M  V30 6810 N 713.922 1.13953 1.08869 0
M  V30 6811 C 715.162 0.915128 1.8277 0
M  V30 6812 C 715.526 -0.548647 1.83994 0
M  V30 6813 O 716.727 -0.890817 2.5361 0
M  V30 6814 C 714.998 1.49382 3.24684 0
M  V30 6815 S 716.557 1.4103 4.15519 0
M  V30 6816 H 713.375 0.329716 0.629927 0
M  V30 6817 H 715.977 1.45213 1.30895 0
M  V30 6818 H 714.681 2.55241 3.21372 0
M  V30 6819 H 714.212 0.955008 3.81632 0
M  V30 6820 H 716.227 0.392617 4.94644 0
M  V30 6821 N 715.4 -1.26948 0.933913 0
M  V30 6822 C 716.816 -1.46419 0.635103 0
M  V30 6823 C 717.016 -1.84336 -0.813785 0
M  V30 6824 O 716.072 -1.96061 -1.59111 0
M  V30 6825 C 717.385 -2.55206 1.5903 0
M  V30 6826 C 718.933 -2.69062 1.5992 0
M  V30 6827 C 719.408 -3.81013 2.54152 0
M  V30 6828 N 720.899 -3.88395 2.52395 0
M  V30 6829 C 721.634 -4.74454 3.21996 0
M  V30 6830 N 721.13 -5.64954 4.00997 0
M  V30 6831 N 722.923 -4.68237 3.10983 0
M  V30 6832 H 715.074 -1.00622 1.87053 0
M  V30 6833 H 717.337 -0.503189 0.803433 0
M  V30 6834 H 717.043 -2.34153 2.62422 0
M  V30 6835 H 716.917 -3.52719 1.33677 0
M  V30 6836 H 719.304 -2.89492 0.572569 0
M  V30 6837 H 719.385 -1.72016 1.89325 0
M  V30 6838 H 719.029 -3.61336 3.5693 0
M  V30 6839 H 718.959 -4.77499 2.22041 0
M  V30 6840 H 721.45 -3.23687 1.95025 0
M  V30 6841 H 721.763 -6.27496 4.51074 0
M  V30 6842 H 720.108 -5.6473 4.05099 0
M  V30 6843 H 723.299 -3.96535 2.48753 0
M  V30 6844 H 723.472 -5.35087 3.65494 0
M  V30 6845 N 716.879 -0.700114 -1.41195 0
M  V30 6846 C 717.809 -0.0521132 -2.33442 0
M  V30 6847 C 718.79 0.76228 -1.52063 0
M  V30 6848 O 719.975 0.714336 -1.80585 0
M  V30 6849 C 717.105 0.881693 -3.35922 0
M  V30 6850 C 716.059 0.174062 -4.27646 0
M  V30 6851 C 715.385 1.22254 -5.20536 0
M  V30 6852 C 716.685 -0.962396 -5.13357 0
M  V30 6853 H 718.379 -0.822574 -2.87879 0
M  V30 6854 H 715.925 -0.397011 -1.38419 0
M  V30 6855 H 717.878 1.34429 -3.99383 0
M  V30 6856 H 716.602 1.68387 -2.79845 0
M  V30 6857 H 715.261 -0.268551 -3.65615 0
M  V30 6858 H 714.909 2.01736 -4.60773 0
M  V30 6859 H 714.609 0.754038 -5.82742 0
M  V30 6860 H 716.133 1.68555 -5.86874 0
M  V30 6861 H 717.547 -0.579875 -5.7036 0
M  V30 6862 H 715.944 -1.35828 -5.84526 0
M  V30 6863 H 717.014 -1.80003 -4.50252 0
M  V30 6864 N 718.357 1.51182 -0.445186 0
M  V30 6865 C 719.603 2.02452 0.11882 0
M  V30 6866 C 719.936 1.32824 1.41673 0
M  V30 6867 O 719.211 0.445637 1.89326 0
M  V30 6868 C 719.494 3.5859 0.329475 0
M  V30 6869 C 719.347 4.38823 -0.987638 0
M  V30 6870 C 720.666 4.26241 1.09575 0
M  V30 6871 H 717.785 0.735819 0.0417092 0
M  V30 6872 H 720.427 1.80747 -0.585718 0
M  V30 6873 H 718.577 3.77214 0.9296 0
M  V30 6874 H 720.249 4.3183 -1.62235 0
M  V30 6875 H 718.492 4.03594 -1.59041 0
M  V30 6876 H 719.163 5.46257 -0.794192 0
M  V30 6877 H 721.639 4.11934 0.587328 0
M  V30 6878 H 720.515 5.35354 1.21191 0
M  V30 6879 H 720.776 3.87635 2.12584 0
M  V30 6880 N 719.835 0.176821 1.56605 0
M  V30 6881 C 721.246 -0.338963 1.83597 0
M  V30 6882 C 721.597 -1.62677 1.09684 0
M  V30 6883 O 720.722 -2.13524 0.351661 0
M  V30 6884 C 721.317 -0.62177 3.33046 0
M  V30 6885 C 719.876 -1.08198 3.60514 0
M  V30 6886 C 719.023 -0.120774 2.77037 0
M  V30 6887 H 721.974 0.400978 1.53551 0
M  V30 6888 H 721.995 -1.47321 3.50823 0
M  V30 6889 H 721.507 0.315692 3.86814 0
M  V30 6890 H 719.608 -2.03435 3.12162 0
M  V30 6891 H 719.721 -0.987329 4.68816 0
M  V30 6892 H 718.085 -0.619192 2.47059 0
M  V30 6893 H 718.868 0.810806 3.33588 0
M  V30 6894 N 721.313 -1.57302 -0.09688 0
M  V30 6895 C 722.261 -2.02942 -1.13654 0
M  V30 6896 C 723.255 -0.930173 -1.41577 0
M  V30 6897 O 724.461 -1.11535 -1.41279 0
M  V30 6898 H 720.836 -0.646726 -0.383731 0
M  V30 6899 H 722.807 -2.89452 -0.725267 0
M  V30 6900 C 721.556 -2.46815 -2.44903 0
M  V30 6901 H 720.879 -3.30979 -2.24261 0
M  V30 6902 H 722.319 -2.82527 -3.16156 0
M  V30 6903 C 720.778 -1.34071 -3.09074 0
M  V30 6904 O 721.308 -0.668856 -3.96092 0
M  V30 6905 N 719.514 -1.09214 -2.69296 0
M  V30 6906 H 719.061 -1.64029 -1.98626 0
M  V30 6907 H 719.019 -0.339785 -3.12559 0
M  V30 6908 N 722.791 0.367657 -1.53252 0
M  V30 6909 C 724.202 0.944563 -1.61043 0
M  V30 6910 C 724.553 1.90325 -0.476546 0
M  V30 6911 O 723.678 2.12721 0.397333 0
M  V30 6912 C 724.273 1.71992 -2.91898 0
M  V30 6913 C 722.832 2.2462 -3.02031 0
M  V30 6914 C 721.979 1.05799 -2.56324 0
M  V30 6915 H 724.93 0.146516 -1.58022 0
M  V30 6916 H 724.951 2.58095 -2.79584 0
M  V30 6917 H 724.463 1.02192 -3.74404 0
M  V30 6918 H 722.564 2.97668 -2.24108 0
M  V30 6919 H 722.677 2.52644 -4.07073 0
M  V30 6920 H 721.041 1.42435 -2.1115 0
M  V30 6921 H 721.824 0.375008 -3.41246 0
M  V30 6922 N 724.269 1.44576 0.627338 0
M  V30 6923 C 725.517 1.47267 1.38408 0
M  V30 6924 C 725.838 0.107971 1.94701 0
M  V30 6925 O 725.108 -0.860206 1.76004 0
M  V30 6926 H 723.688 0.542276 0.513756 0
M  V30 6927 H 726.35 1.80383 0.738099 0
M  V30 6928 H 725.446 2.20025 2.21349 0
M  V30 6929 N 725.747 -0.868086 1.31537 0
M  V30 6930 C 726.679 -1.98165 1.15166 0
M  V30 6931 C 727.692 -1.6255 0.0902335 0
M  V30 6932 O 728.881 -1.75272 0.33791 0
M  V30 6933 C 725.981 -3.30772 0.737776 0
M  V30 6934 C 725.154 -3.94716 1.88462 0
M  V30 6935 C 724.213 -5.05641 1.45648 0
M  V30 6936 O 723.239 -5.2636 2.16642 0
M  V30 6937 N 724.441 -5.79474 0.34493 0
M  V30 6938 H 727.206 -2.12754 2.11083 0
M  V30 6939 H 724.767 -1.04217 1.23897 0
M  V30 6940 H 726.759 -4.02366 0.434032 0
M  V30 6941 H 725.329 -3.1233 -0.129834 0
M  V30 6942 H 724.549 -3.16079 2.35558 0
M  V30 6943 H 725.837 -4.34175 2.65273 0
M  V30 6944 H 725.235 -5.65164 -0.246259 0
M  V30 6945 H 723.792 -6.51722 0.100728 0
M  V30 6946 N 727.225 -1.14528 -1.08264 0
M  V30 6947 C 728.135 -0.84728 -2.18765 0
M  V30 6948 C 729.151 0.172826 -1.7314 0
M  V30 6949 O 730.327 0.000985336 -2.014 0
M  V30 6950 C 727.392 -0.330633 -3.4512 0
M  V30 6951 C 726.453 -1.41348 -4.05363 0
M  V30 6952 C 725.686 -0.921387 -5.25686 0
M  V30 6953 O 725.909 0.236587 -5.69909 0
M  V30 6954 O 724.843 -1.70101 -5.77364 0
M  V30 6955 H 728.669 -1.7708 -2.46731 0
M  V30 6956 H 726.254 -0.923661 -1.17426 0
M  V30 6957 H 728.136 -0.0485053 -4.21372 0
M  V30 6958 H 726.811 0.565147 -3.18728 0
M  V30 6959 H 725.718 -1.74908 -3.30693 0
M  V30 6960 H 727.051 -2.28383 -4.36007 0
M  V30 6961 N 728.703 1.26451 -0.940633 0
M  V30 6962 C 729.98 1.88947 -0.505811 0
M  V30 6963 C 730.36 1.85011 1.01657 0
M  V30 6964 O 729.708 1.30406 1.87634 0
M  V30 6965 C 729.918 3.32304 -1.06654 0
M  V30 6966 C 731.266 4.09153 -1.13486 0
M  V30 6967 O 732.29 3.41371 -1.01708 0
M  V30 6968 O 731.149 5.30369 -1.31797 0
M  V30 6969 H 728.243 0.810422 -0.164759 0
M  V30 6970 H 730.789 1.34625 -1.03316 0
M  V30 6971 H 729.561 3.29527 -2.11015 0
M  V30 6972 H 729.184 3.94164 -0.521603 0
M  V30 6973 N 730.181 0.707592 1.40822 0
M  V30 6974 C 731.144 0.0587224 2.29125 0
M  V30 6975 C 732.144 -0.695624 1.44975 0
M  V30 6976 O 733.334 -0.528718 1.65983 0
M  V30 6977 C 730.466 -0.926939 3.28056 0
M  V30 6978 H 731.659 0.836349 2.88002 0
M  V30 6979 H 729.212 0.471778 1.4901 0
M  V30 6980 H 729.947 -1.7319 2.74182 0
M  V30 6981 H 729.732 -0.389015 3.90165 0
M  V30 6982 H 731.222 -1.37837 3.94196 0
M  V30 6983 N 731.66 -1.50943 0.453197 0
M  V30 6984 C 732.937 -1.94872 -0.168633 0
M  V30 6985 C 733.317 -1.39272 -1.5864 0
M  V30 6986 O 732.665 -0.586272 -2.20851 0
M  V30 6987 C 732.875 -3.48757 -0.130217 0
M  V30 6988 C 734.223 -4.23331 -0.327975 0
M  V30 6989 O 735.247 -3.55594 -0.207619 0
M  V30 6990 O 734.106 -5.43529 -0.569077 0
M  V30 6991 H 731.2 -0.818042 -0.121394 0
M  V30 6992 H 733.746 -1.61782 0.512316 0
M  V30 6993 H 732.518 -3.81725 0.860346 0
M  V30 6994 H 732.141 -3.88333 -0.853397 0
M  V30 6995 N 733.138 -0.185124 -1.56509 0
M  V30 6996 C 734.554 0.170865 -1.58683 0
M  V30 6997 C 734.754 1.61799 -1.20098 0
M  V30 6998 O 733.81 2.35181 -0.919038 0
M  V30 6999 C 735.123 -0.122459 -3.00451 0
M  V30 7000 C 736.671 -0.0617699 -3.12939 0
M  V30 7001 C 737.146 -0.328269 -4.56822 0
M  V30 7002 N 738.637 -0.276533 -4.62374 0
M  V30 7003 C 739.372 -0.456722 -5.71578 0
M  V30 7004 N 738.868 -0.69672 -6.89288 0
M  V30 7005 N 740.661 -0.391669 -5.60734 0
M  V30 7006 H 732.812 -1.12956 -1.79874 0
M  V30 7007 H 735.075 -0.45011 -0.834329 0
M  V30 7008 H 734.781 -1.12546 -3.33206 0
M  V30 7009 H 734.655 0.579578 -3.72721 0
M  V30 7010 H 737.042 0.931826 -2.80002 0
M  V30 7011 H 737.123 -0.796732 -2.43076 0
M  V30 7012 H 736.767 -1.31914 -4.9047 0
M  V30 7013 H 736.697 0.427465 -5.24862 0
M  V30 7014 H 739.188 -0.0972458 -3.77775 0
M  V30 7015 H 739.501 -0.823291 -7.68402 0
M  V30 7016 H 737.846 -0.733497 -6.91119 0
M  V30 7017 H 741.037 -0.204663 -4.67652 0
M  V30 7018 H 741.21 -0.535518 -6.45783 0
M  V30 7019 N 734.616 1.57351 0.0885366 0
M  V30 7020 C 735.893 1.77449 0.822873 0
M  V30 7021 C 736.273 0.768463 1.96616 0
M  V30 7022 O 735.621 -0.201757 2.27608 0
M  V30 7023 C 735.831 3.23425 1.31137 0
M  V30 7024 C 737.179 3.86791 1.75152 0
M  V30 7025 O 738.203 3.27215 1.40745 0
M  V30 7026 O 737.062 4.91568 2.38794 0
M  V30 7027 H 734.156 0.727653 0.393002 0
M  V30 7028 H 736.702 1.69556 0.0699095 0
M  V30 7029 H 735.474 3.88188 0.49254 0
M  V30 7030 H 735.097 3.35977 2.12615 0
M  V30 7031 N 736.094 -0.359525 1.53444 0
M  V30 7032 C 737.342 -1.09935 1.69584 0
M  V30 7033 C 737.663 -1.89656 0.453371 0
M  V30 7034 O 736.933 -1.8852 -0.53263 0
M  V30 7035 H 735.513 -0.408843 0.625185 0
M  V30 7036 H 738.175 -0.40467 1.90653 0
M  V30 7037 H 737.271 -1.78575 2.55964 0
M  V30 7038 N 737.572 -1.44907 -0.619662 0
M  V30 7039 C 738.818 -1.48512 -1.38102 0
M  V30 7040 C 739.151 -0.121686 -1.93818 0
M  V30 7041 O 738.426 0.862256 -1.74343 0
M  V30 7042 C 738.709 -2.55469 -2.53787 0
M  V30 7043 C 738.562 -4.01212 -2.03345 0
M  V30 7044 C 739.881 -2.58821 -3.55949 0
M  V30 7045 H 737 -0.540712 -0.500799 0
M  V30 7046 H 739.642 -1.7665 -0.69962 0
M  V30 7047 H 737.792 -2.31606 -3.11915 0
M  V30 7048 H 739.464 -4.36245 -1.49959 0
M  V30 7049 H 737.707 -4.12443 -1.34438 0
M  V30 7050 H 738.378 -4.71717 -2.86683 0
M  V30 7051 H 740.854 -2.80172 -3.07641 0
M  V30 7052 H 739.73 -3.35542 -4.34399 0
M  V30 7053 H 739.991 -1.63451 -4.10775 0
M  V30 7054 N 739.05 0.861098 -1.31996 0
M  V30 7055 C 740.298 1.61162 -1.21947 0
M  V30 7056 C 740.619 1.93751 0.220351 0
M  V30 7057 O 739.889 1.59069 1.14341 0
M  V30 7058 H 738.469 0.597485 -0.448353 0
M  V30 7059 H 741.131 1.03039 -1.65436 0
M  V30 7060 H 740.227 2.55138 -1.79752 0
M  V30 7061 N 740.528 1.15101 1.07655 0
M  V30 7062 C 741.805 0.834578 1.76902 0
M  V30 7063 C 742.185 -0.670431 2.00171 0
M  V30 7064 O 741.533 -1.61378 1.6177 0
M  V30 7065 C 741.743 1.64191 3.07965 0
M  V30 7066 C 743.091 1.84615 3.82364 0
M  V30 7067 O 744.115 1.60941 3.17768 0
M  V30 7068 O 742.974 2.24244 4.98374 0
M  V30 7069 H 740.068 0.306608 0.768063 0
M  V30 7070 H 742.614 1.25663 1.14048 0
M  V30 7071 H 741.386 2.66386 2.86626 0
M  V30 7072 H 741.009 1.216 3.78549 0
M  V30 7073 N 742.006 -1.2595 0.947325 0
M  V30 7074 C 743.252 -1.9375 0.599064 0
M  V30 7075 C 743.585 -1.74088 -0.860632 0
M  V30 7076 O 742.86 -1.08158 -1.61654 0
M  V30 7077 C 743.143 -3.47353 0.949634 0
M  V30 7078 C 742.996 -3.76273 2.46452 0
M  V30 7079 C 744.315 -4.37589 0.469442 0
M  V30 7080 H 741.434 -0.703674 0.219115 0
M  V30 7081 H 744.076 -1.48705 1.18266 0
M  V30 7082 H 742.226 -3.8585 0.453008 0
M  V30 7083 H 743.898 -3.47455 3.03435 0
M  V30 7084 H 742.141 -3.22135 2.90537 0
M  V30 7085 H 742.812 -4.83664 2.66032 0
M  V30 7086 H 745.288 -4.06353 0.89534 0
M  V30 7087 H 744.164 -5.43841 0.7435 0
M  V30 7088 H 744.425 -4.37579 -0.630618 0
M  V30 7089 N 743.484 -0.715051 -1.40445 0
M  V30 7090 C 744.724 -0.258742 -2.02756 0
M  V30 7091 C 745.088 1.12661 -1.55472 0
M  V30 7092 O 746.289 1.67988 -2.09842 0
M  V30 7093 C 744.56 -0.335201 -3.55825 0
M  V30 7094 S 746.119 0.044201 -4.38778 0
M  V30 7095 H 742.937 -0.102683 -0.703546 0
M  V30 7096 H 745.539 -0.937151 -1.71574 0
M  V30 7097 H 744.243 -1.34511 -3.87731 0
M  V30 7098 H 743.774 0.361705 -3.91734 0
M  V30 7099 H 745.789 1.26639 -4.79768 0
M  V30 7100 N 744.962 1.50701 -0.461195 0
M  V30 7101 C 745.894 2.26124 0.374244 0
M  V30 7102 C 746.907 1.31064 0.965715 0
M  V30 7103 O 748.096 1.56647 0.855801 0
M  V30 7104 C 745.196 3.01996 1.5379 0
M  V30 7105 C 744.369 4.24336 1.06101 0
M  V30 7106 C 743.428 4.82585 2.09756 0
M  V30 7107 O 742.454 5.43775 1.68219 0
M  V30 7108 N 743.656 4.68712 3.42475 0
M  V30 7109 H 746.421 2.9846 -0.2723 0
M  V30 7110 H 743.982 1.59256 -0.291415 0
M  V30 7111 H 745.974 3.37846 2.22806 0
M  V30 7112 H 744.544 2.32521 2.08933 0
M  V30 7113 H 743.764 3.93707 0.197085 0
M  V30 7114 H 745.052 5.03678 0.720156 0
M  V30 7115 H 744.45 4.20026 3.78938 0
M  V30 7116 H 743.007 5.08858 4.07317 0
M  V30 7117 N 746.441 0.193421 1.56409 0
M  V30 7118 C 747.718 -0.493318 1.89277 0
M  V30 7119 C 748.098 -1.79765 1.10669 0
M  V30 7120 O 747.446 -2.27558 0.207274 0
M  V30 7121 C 747.656 -0.713732 3.41624 0
M  V30 7122 C 749.004 -1.03385 4.11821 0
M  V30 7123 O 750.028 -0.801511 3.47065 0
M  V30 7124 O 748.887 -1.47327 5.26267 0
M  V30 7125 H 745.981 -0.256973 0.786062 0
M  V30 7126 H 748.527 0.23351 1.68086 0
M  V30 7127 H 747.299 0.207446 3.9075 0
M  V30 7128 H 746.922 -1.49308 3.68501 0
M  V30 7129 N 747.919 -1.57396 -0.0801906 0
M  V30 7130 C 749.196 -1.77883 -0.813451 0
M  V30 7131 C 749.576 -0.778879 -1.96206 0
M  V30 7132 O 748.924 0.189683 -2.27711 0
M  V30 7133 C 749.134 -3.24116 -1.2942 0
M  V30 7134 C 750.482 -3.87714 -1.73098 0
M  V30 7135 O 751.506 -3.27956 -1.39007 0
M  V30 7136 O 750.365 -4.92828 -2.36184 0
M  V30 7137 H 747.459 -0.729727 -0.389138 0
M  V30 7138 H 750.005 -1.69591 -0.0609166 0
M  V30 7139 H 748.777 -3.88443 -0.471947 0
M  V30 7140 H 748.4 -3.371 -2.1083 0
M  V30 7141 N 749.397 0.351382 -1.53633 0
M  V30 7142 C 750.644 1.0925 -1.70502 0
M  V30 7143 C 750.972 1.88881 -0.464123 0
M  V30 7144 O 750.227 1.87693 0.554077 0
M  V30 7145 C 750.526 2.06744 -2.91533 0
M  V30 7146 C 750.192 1.43484 -4.27461 0
M  V30 7147 C 748.854 1.2596 -4.64422 0
M  V30 7148 C 751.206 0.978436 -5.11934 0
M  V30 7149 C 748.534 0.614017 -5.83478 0
M  V30 7150 C 750.886 0.346795 -6.31649 0
M  V30 7151 C 749.55 0.15917 -6.6731 0
M  V30 7152 H 748.82 0.399773 -0.623909 0
M  V30 7153 H 751.467 0.372656 -1.87839 0
M  V30 7154 H 749.772 2.85082 -2.68767 0
M  V30 7155 H 751.469 2.64066 -3.01778 0
M  V30 7156 H 748.059 1.5812 -3.98367 0
M  V30 7157 H 752.243 1.1017 -4.83918 0
M  V30 7158 H 747.499 0.457194 -6.09688 0
M  V30 7159 H 751.673 -0.0149864 -6.96398 0
M  V30 7160 H 749.3 -0.343129 -7.59425 0
M  V30 7161 N 750.875 1.45233 0.611969 0
M  V30 7162 C 752.152 1.39495 1.37115 0
M  V30 7163 C 752.532 0.0633303 2.11005 0
M  V30 7164 O 751.88 -0.954617 2.07604 0
M  V30 7165 C 752.09 2.60579 2.32163 0
M  V30 7166 C 753.438 3.05477 2.94905 0
M  V30 7167 O 754.462 2.60921 2.42485 0
M  V30 7168 O 753.321 3.82787 3.90047 0
M  V30 7169 H 750.415 0.55335 0.614599 0
M  V30 7170 H 752.961 1.57355 0.635423 0
M  V30 7171 H 751.733 3.49085 1.76793 0
M  V30 7172 H 751.356 2.45031 3.13122 0
M  V30 7173 N 752.353 -0.854086 1.3245 0
M  V30 7174 C 753.316 -1.94427 1.21371 0
M  V30 7175 C 754.316 -1.60219 0.136613 0
M  V30 7176 O 755.506 -1.69846 0.387057 0
M  V30 7177 C 752.638 -3.29698 0.866701 0
M  V30 7178 H 753.831 -2.05679 2.18257 0
M  V30 7179 H 751.384 -1.04434 1.1629 0
M  V30 7180 H 752.119 -3.24145 -0.100319 0
M  V30 7181 H 751.904 -3.55903 1.64545 0
M  V30 7182 H 753.394 -4.09599 0.813515 0
M  V30 7183 N 753.831 -1.1567 -1.07043 0
M  V30 7184 C 755.108 -0.843948 -1.76456 0
M  V30 7185 C 755.488 0.659806 -2.00524 0
M  V30 7186 O 754.836 1.60518 -1.62623 0
M  V30 7187 C 755.046 -1.65822 -3.0709 0
M  V30 7188 C 756.394 -1.8664 -3.8138 0
M  V30 7189 O 757.418 -1.62624 -3.1691 0
M  V30 7190 O 756.277 -2.26884 -4.97178 0
M  V30 7191 H 753.371 -0.310677 -0.766426 0
M  V30 7192 H 755.917 -1.26266 -1.1338 0
M  V30 7193 H 754.689 -2.67902 -2.85209 0
M  V30 7194 H 754.312 -1.23605 -3.77899 0
M  V30 7195 N 755.309 1.25446 -0.953992 0
M  V30 7196 C 756.256 2.25912 -0.472485 0
M  V30 7197 C 757.226 1.59173 0.47469 0
M  V30 7198 O 758.411 1.86812 0.388082 0
M  V30 7199 C 755.551 3.44235 0.244218 0
M  V30 7200 C 754.664 4.25613 -0.740121 0
M  V30 7201 C 753.799 5.312 -0.000922267 0
M  V30 7202 C 752.838 6.04265 -0.976236 0
M  V30 7203 N 751.975 7.01589 -0.267952 0
M  V30 7204 H 756.815 2.66469 -1.3341 0
M  V30 7205 H 754.352 1.31005 -0.669045 0
M  V30 7206 H 756.31 4.11682 0.676314 0
M  V30 7207 H 754.94 3.04554 1.06988 0
M  V30 7208 H 753.992 3.57834 -1.2907 0
M  V30 7209 H 755.304 4.762 -1.48441 0
M  V30 7210 H 754.458 6.04719 0.48984 0
M  V30 7211 H 753.197 4.81484 0.776159 0
M  V30 7212 H 752.202 5.29561 -1.478 0
M  V30 7213 H 753.427 6.5607 -1.75354 0
M  V30 7214 H 751.373 6.54164 0.490403 0
M  V30 7215 H 751.29 7.4999 -0.951344 0
M  V30 7216 H 752.558 7.7924 0.201294 0
M  V30 7217 N 756.787 0.722489 1.40064 0
M  V30 7218 C 758.033 0.265371 2.01056 0
M  V30 7219 C 758.366 -1.14062 1.57174 0
M  V30 7220 O 757.641 -1.77514 0.794916 0
M  V30 7221 C 757.924 0.353157 3.58364 0
M  V30 7222 C 757.777 1.79802 4.123 0
M  V30 7223 C 759.096 -0.271677 4.39261 0
M  V30 7224 H 756.215 0.0979002 0.730469 0
M  V30 7225 H 758.857 0.916289 1.66446 0
M  V30 7226 H 757.007 -0.201037 3.87979 0
M  V30 7227 H 758.679 2.40813 3.93455 0
M  V30 7228 H 756.922 2.32348 3.66329 0
M  V30 7229 H 757.593 1.81079 5.21454 0
M  V30 7230 H 760.069 0.200607 4.15616 0
M  V30 7231 H 758.945 -0.179843 5.48605 0
M  V30 7232 H 759.206 -1.35611 4.20787 0
M  V30 7233 N 758.265 -1.50454 0.469181 0
M  V30 7234 C 759.511 -2.02615 -0.0865971 0
M  V30 7235 C 759.844 -1.35062 -1.39542 0
M  V30 7236 O 759.119 -0.475701 -1.88593 0
M  V30 7237 C 759.402 -3.59068 -0.272385 0
M  V30 7238 C 759.255 -4.37196 1.05733 0
M  V30 7239 C 760.574 -4.2793 -1.0278 0
M  V30 7240 H 757.693 -0.736389 -0.0299977 0
M  V30 7241 H 760.335 -1.79792 0.614399 0
M  V30 7242 H 758.485 -3.78646 -0.869471 0
M  V30 7243 H 760.157 -4.29195 1.69084 0
M  V30 7244 H 758.4 -4.01013 1.65442 0
M  V30 7245 H 759.071 -5.44924 0.880997 0
M  V30 7246 H 761.547 -4.12816 -0.521718 0
M  V30 7247 H 760.423 -5.37214 -1.12659 0
M  V30 7248 H 760.684 -3.90968 -2.0639 0
M  V30 7249 N 759.743 -0.201713 -1.56304 0
M  V30 7250 C 761.02 0.483273 -1.89536 0
M  V30 7251 C 761.4 1.79176 -1.11621 0
M  V30 7252 O 760.748 2.27445 -0.219339 0
M  V30 7253 C 760.958 0.695604 -3.41998 0
M  V30 7254 C 762.306 1.012 -4.12364 0
M  V30 7255 O 763.33 0.783094 -3.47485 0
M  V30 7256 O 762.189 1.44534 -5.27041 0
M  V30 7257 H 759.283 0.252801 -0.787414 0
M  V30 7258 H 761.829 -0.24242 -1.6796 0
M  V30 7259 H 760.601 -0.228165 -3.90634 0
M  V30 7260 H 760.224 1.47351 -3.69288 0
M  V30 7261 N 761.222 1.57436 0.0718424 0
M  V30 7262 C 762.169 2.03686 1.08539 0
M  V30 7263 C 763.139 0.917474 1.38462 0
M  V30 7264 O 764.324 1.18513 1.4953 0
M  V30 7265 C 761.464 2.48566 2.39393 0
M  V30 7266 C 760.577 3.74122 2.16001 0
M  V30 7267 C 759.712 4.07786 3.40418 0
M  V30 7268 C 758.751 5.26383 3.1239 0
M  V30 7269 N 757.888 5.55685 4.29138 0
M  V30 7270 H 762.728 2.90043 0.684018 0
M  V30 7271 H 760.265 1.43438 0.326183 0
M  V30 7272 H 762.223 2.72639 3.15791 0
M  V30 7273 H 760.853 1.65186 2.77333 0
M  V30 7274 H 759.905 3.57389 1.30296 0
M  V30 7275 H 761.217 4.60659 1.91298 0
M  V30 7276 H 760.371 4.32759 4.25211 0
M  V30 7277 H 759.11 3.19817 3.68197 0
M  V30 7278 H 758.115 5.01206 2.25993 0
M  V30 7279 H 759.34 6.1597 2.85934 0
M  V30 7280 H 757.286 4.70675 4.56948 0
M  V30 7281 H 757.203 6.3664 4.07708 0
M  V30 7282 H 758.471 5.85209 5.14928 0
M  V30 7283 N 762.7 -0.34323 1.53817 0
M  V30 7284 C 763.949 -1.08086 1.70295 0
M  V30 7285 C 764.262 -1.89794 0.47302 0
M  V30 7286 O 765.468 -2.66498 0.518754 0
M  V30 7287 C 763.924 -1.97097 3.01133 0
M  V30 7288 C 763.532 -1.20594 4.31464 0
M  V30 7289 C 765.276 -2.70715 3.26976 0
M  V30 7290 C 763.183 -2.08636 5.53376 0
M  V30 7291 H 762.113 -0.407228 0.634572 0
M  V30 7292 H 764.764 -0.340328 1.80316 0
M  V30 7293 H 763.146 -2.74971 2.84969 0
M  V30 7294 H 764.32 -0.476282 4.58332 0
M  V30 7295 H 762.635 -0.587426 4.12236 0
M  V30 7296 H 765.232 -3.36857 4.15248 0
M  V30 7297 H 765.575 -3.37299 2.43998 0
M  V30 7298 H 766.108 -1.99914 3.43917 0
M  V30 7299 H 762.847 -1.46594 6.38898 0
M  V30 7300 H 762.367 -2.7939 5.30755 0
M  V30 7301 H 764.046 -2.67682 5.89029 0
M  V30 7302 N 764.178 -1.45556 -0.604258 0
M  V30 7303 C 765.455 -1.40221 -1.36373 0
M  V30 7304 C 765.835 -0.0745195 -2.10968 0
M  V30 7305 O 765.183 0.943594 -2.08107 0
M  V30 7306 C 765.393 -2.61807 -2.30777 0
M  V30 7307 C 766.741 -3.07037 -2.93281 0
M  V30 7308 O 767.765 -2.62203 -2.41097 0
M  V30 7309 O 766.624 -3.8485 -3.88011 0
M  V30 7310 H 763.718 -0.556602 -0.611656 0
M  V30 7311 H 766.264 -1.57689 -0.627069 0
M  V30 7312 H 765.036 -3.50017 -1.74939 0
M  V30 7313 H 764.659 -2.46688 -3.11818 0
M  V30 7314 N 765.656 0.84705 -1.32902 0
M  V30 7315 C 766.902 1.60414 -1.24078 0
M  V30 7316 C 767.235 1.93217 0.195105 0
M  V30 7317 O 766.51 1.58001 1.13428 0
M  V30 7318 C 766.793 2.91951 -2.108 0
M  V30 7319 C 766.646 2.6588 -3.62805 0
M  V30 7320 C 767.965 3.93299 -1.97494 0
M  V30 7321 H 765.084 0.58206 -0.452079 0
M  V30 7322 H 767.726 0.977562 -1.62922 0
M  V30 7323 H 765.876 3.45425 -1.77802 0
M  V30 7324 H 767.548 2.18902 -4.06054 0
M  V30 7325 H 765.791 1.99716 -3.85092 0
M  V30 7326 H 766.462 3.59574 -4.1882 0
M  V30 7327 H 768.938 3.49105 -2.26417 0
M  V30 7328 H 767.814 4.8318 -2.60438 0
M  V30 7329 H 768.075 4.31887 -0.944782 0
M  V30 7330 N 767.134 1.16236 1.06428 0
M  V30 7331 C 768.374 0.95369 1.80787 0
M  V30 7332 C 768.738 -0.509495 1.85117 0
M  V30 7333 O 769.939 -0.836822 2.55442 0
M  V30 7334 C 768.21 1.56235 3.21443 0
M  V30 7335 S 769.769 1.49812 4.12434 0
M  V30 7336 H 766.587 0.343004 0.622792 0
M  V30 7337 H 769.189 1.47957 1.27785 0
M  V30 7338 H 767.893 2.62 3.15886 0
M  V30 7339 H 767.424 1.03574 3.79521 0
M  V30 7340 H 769.439 0.49745 4.937 0
M  V30 7341 N 768.612 -1.24939 0.960631 0
M  V30 7342 C 770.023 -1.74701 0.658529 0
M  V30 7343 C 770.374 -1.77967 -0.825959 0
M  V30 7344 O 769.499 -1.40444 -1.64634 0
M  V30 7345 C 770.094 -3.17263 1.18867 0
M  V30 7346 C 768.653 -3.64561 0.936614 0
M  V30 7347 C 767.8 -2.43423 1.32817 0
M  V30 7348 H 770.751 -1.10741 1.13676 0
M  V30 7349 H 770.772 -3.76481 0.551589 0
M  V30 7350 H 770.284 -3.14854 2.26912 0
M  V30 7351 H 768.385 -3.72378 -0.128608 0
M  V30 7352 H 768.498 -4.52392 1.57729 0
M  V30 7353 H 766.862 -2.43513 0.746548 0
M  V30 7354 H 767.645 -2.437 2.41796 0
M  V30 7355 N 770.09 -0.729906 -1.39679 0
M  V30 7356 C 771 -0.0880322 -2.34435 0
M  V30 7357 C 772.016 0.727674 -1.58053 0
M  V30 7358 O 773.192 0.657321 -1.90371 0
M  V30 7359 C 770.257 0.812211 -3.37052 0
M  V30 7360 C 769.318 -0.0151681 -4.29297 0
M  V30 7361 C 768.551 0.842202 -5.27013 0
M  V30 7362 O 768.774 2.08108 -5.31081 0
M  V30 7363 O 767.708 0.27357 -6.01278 0
M  V30 7364 H 771.534 -0.869989 -2.90972 0
M  V30 7365 H 769.119 -0.490522 -1.41118 0
M  V30 7366 H 771.001 1.32745 -3.99946 0
M  V30 7367 H 769.676 1.57307 -2.82907 0
M  V30 7368 H 768.583 -0.575811 -3.69642 0
M  V30 7369 H 769.916 -0.738129 -4.86634 0
M  V30 7370 N 771.568 1.50203 -0.477153 0
M  V30 7371 C 772.516 2.30278 0.327826 0
M  V30 7372 C 773.51 1.37831 0.984839 0
M  V30 7373 O 774.716 1.54994 0.915251 0
M  V30 7374 H 771.091 0.741612 0.124564 0
M  V30 7375 H 773.062 2.96124 -0.367853 0
M  V30 7376 C 771.811 3.18548 1.39365 0
M  V30 7377 H 771.134 3.89596 0.897475 0
M  V30 7378 H 772.574 3.77561 1.92934 0
M  V30 7379 C 771.033 2.36548 2.39889 0
M  V30 7380 O 771.563 2.05282 3.45286 0
M  V30 7381 N 769.769 1.99015 2.11758 0
M  V30 7382 H 769.316 2.24641 1.26071 0
M  V30 7383 H 769.274 1.44454 2.7925 0
M  V30 7384 N 773.046 0.209999 1.56195 0
M  V30 7385 C 774.009 -0.691232 2.18528 0
M  V30 7386 C 775.009 -1.13013 1.14388 0
M  V30 7387 O 776.199 -1.04081 1.39688 0
M  V30 7388 C 773.331 -1.94551 2.79934 0
M  V30 7389 H 774.524 -0.147953 2.99535 0
M  V30 7390 H 772.077 -0.0396243 1.5625 0
M  V30 7391 H 772.812 -2.53094 2.02766 0
M  V30 7392 H 772.597 -1.63938 3.56184 0
M  V30 7393 H 774.087 -2.58785 3.2775 0
M  V30 7394 N 774.524 -1.57472 -0.0634922 0
M  V30 7395 C 775.434 -2.07621 -1.09227 0
M  V30 7396 C 776.45 -1.00746 -1.41867 0
M  V30 7397 O 777.626 -1.32269 -1.51878 0
M  V30 7398 C 774.691 -2.51707 -2.38421 0
M  V30 7399 C 773.752 -3.72917 -2.12676 0
M  V30 7400 C 772.985 -4.14891 -3.3571 0
M  V30 7401 O 773.208 -3.56663 -4.45137 0
M  V30 7402 O 772.142 -5.07616 -3.23434 0
M  V30 7403 H 775.968 -2.95612 -0.696205 0
M  V30 7404 H 773.553 -1.46787 -0.27819 0
M  V30 7405 H 775.435 -2.80547 -3.14438 0
M  V30 7406 H 774.11 -1.66842 -2.77391 0
M  V30 7407 H 773.017 -3.49148 -1.34337 0
M  V30 7408 H 774.35 -4.5866 -1.78583 0
M  V30 7409 N 776.003 0.335068 -1.53997 0
M  V30 7410 C 777.249 1.07594 -1.71905 0
M  V30 7411 C 777.582 1.88039 -0.485264 0
M  V30 7412 O 776.857 1.87482 0.517752 0
M  V30 7413 C 777.14 2.01016 -2.98772 0
M  V30 7414 C 776.993 1.23977 -4.32377 0
M  V30 7415 C 778.312 3.0071 -3.21343 0
M  V30 7416 H 775.431 0.38976 -0.625505 0
M  V30 7417 H 778.073 0.353684 -1.86679 0
M  V30 7418 H 776.223 2.62603 -2.86307 0
M  V30 7419 H 777.895 0.649383 -4.56706 0
M  V30 7420 H 776.138 0.541878 -4.30402 0
M  V30 7421 H 776.809 1.92512 -5.17342 0
M  V30 7422 H 779.285 2.4924 -3.33194 0
M  V30 7423 H 778.161 3.63272 -4.11491 0
M  V30 7424 H 778.422 3.72549 -2.38033 0
M  V30 7425 N 777.481 1.45874 0.596531 0
M  V30 7426 C 778.709 1.54013 1.38158 0
M  V30 7427 C 779.124 0.17648 1.87973 0
M  V30 7428 O 778.481 -0.823895 1.62844 0
M  V30 7429 C 778.532 2.53363 2.57855 0
M  V30 7430 O 778.253 3.8443 2.10108 0
M  V30 7431 C 779.754 2.71308 3.50581 0
M  V30 7432 H 776.974 0.521251 0.422538 0
M  V30 7433 H 779.518 1.9116 0.726493 0
M  V30 7434 H 777.673 2.19257 3.19382 0
M  V30 7435 H 778.087 4.38384 2.87958 0
M  V30 7436 H 779.561 3.44776 4.31084 0
M  V30 7437 H 780.038 1.77728 4.01633 0
M  V30 7438 H 780.644 3.06455 2.94899 0
M  V30 7439 N 778.959 -0.83999 1.33349 0
M  V30 7440 C 779.889 -1.965 1.26135 0
M  V30 7441 C 780.87 -1.69505 0.142152 0
M  V30 7442 O 782.055 -1.91346 0.331743 0
M  V30 7443 C 779.185 -3.32632 0.99866 0
M  V30 7444 C 778.139 -3.74021 2.08068 0
M  V30 7445 C 777.465 -5.07947 1.67014 0
M  V30 7446 C 778.765 -3.87925 3.49731 0
M  V30 7447 H 780.459 -2.02793 2.20262 0
M  V30 7448 H 778.005 -0.974297 1.06035 0
M  V30 7449 H 779.958 -4.10903 0.934696 0
M  V30 7450 H 778.682 -3.26593 0.0217759 0
M  V30 7451 H 777.341 -2.98012 2.13505 0
M  V30 7452 H 776.989 -4.98378 0.680316 0
M  V30 7453 H 776.689 -5.36611 2.39422 0
M  V30 7454 H 778.213 -5.88695 1.62082 0
M  V30 7455 H 779.627 -4.5651 3.46802 0
M  V30 7456 H 778.024 -4.28023 4.20614 0
M  V30 7457 H 779.094 -2.90407 3.88319 0
M  V30 7458 N 780.437 -1.16799 -1.0581 0
M  V30 7459 C 781.665 -0.97687 -1.82387 0
M  V30 7460 C 782.08 0.474917 -1.82729 0
M  V30 7461 O 781.437 1.3297 -1.25001 0
M  V30 7462 C 781.488 -1.50279 -3.28783 0
M  V30 7463 O 781.209 -2.89772 -3.28578 0
M  V30 7464 C 782.71 -1.35538 -4.22071 0
M  V30 7465 H 779.93 -0.345977 -0.574927 0
M  V30 7466 H 782.474 -1.54942 -1.33466 0
M  V30 7467 H 780.629 -0.972414 -3.74997 0
M  V30 7468 H 781.043 -3.13954 -4.20159 0
M  V30 7469 H 782.517 -1.7716 -5.22799 0
M  V30 7470 H 782.994 -0.301598 -4.38163 0
M  V30 7471 H 783.6 -1.87562 -3.81708 0
M  V30 7472 N 781.915 1.24427 -0.967243 0
M  V30 7473 C 783.192 1.87831 -0.545776 0
M  V30 7474 C 783.572 1.87126 0.977099 0
M  V30 7475 O 782.92 1.34357 1.84826 0
M  V30 7476 C 783.13 3.29967 -1.13679 0
M  V30 7477 C 784.478 4.06654 -1.22139 0
M  V30 7478 O 785.502 3.39136 -1.08926 0
M  V30 7479 O 784.361 5.27455 -1.43017 0
M  V30 7480 H 781.455 0.806745 -0.181912 0
M  V30 7481 H 784.001 1.32403 -1.06148 0
M  V30 7482 H 782.773 3.24977 -2.17958 0
M  V30 7483 H 782.396 3.92969 -0.605093 0
M  V30 7484 N 783.393 0.737304 1.3929 0
M  V30 7485 C 784.64 0.286257 2.00467 0
M  V30 7486 C 784.968 -1.1272 1.58507 0
M  V30 7487 O 784.223 -1.7832 0.806257 0
M  V30 7488 C 784.522 0.338438 3.55794 0
M  V30 7489 C 784.188 1.70524 4.17411 0
M  V30 7490 C 782.85 2.07934 4.33955 0
M  V30 7491 C 785.202 2.60256 4.51571 0
M  V30 7492 C 782.53 3.34578 4.81948 0
M  V30 7493 C 784.882 3.86275 5.00974 0
M  V30 7494 C 783.546 4.23774 5.15725 0
M  V30 7495 H 782.816 0.104749 0.733559 0
M  V30 7496 H 785.463 0.944598 1.66582 0
M  V30 7497 H 783.768 -0.403478 3.89717 0
M  V30 7498 H 785.465 -0.0287255 4.0099 0
M  V30 7499 H 782.055 1.40439 4.04938 0
M  V30 7500 H 786.239 2.32624 4.38406 0
M  V30 7501 H 781.495 3.63572 4.91554 0
M  V30 7502 H 785.669 4.5596 5.26378 0
M  V30 7503 H 783.296 5.21972 5.52674 0
M  V30 7504 N 784.871 -1.49948 0.485112 0
M  V30 7505 C 786.287 -1.58984 0.140096 0
M  V30 7506 C 786.487 -1.49194 -1.35438 0
M  V30 7507 O 785.543 -1.35765 -2.12894 0
M  V30 7508 C 786.856 -2.92372 0.702769 0
M  V30 7509 C 788.404 -3.05801 0.66745 0
M  V30 7510 C 788.879 -4.41785 1.20791 0
M  V30 7511 N 790.37 -4.48234 1.16792 0
M  V30 7512 C 791.105 -5.51871 1.55646 0
M  V30 7513 N 790.601 -6.62692 2.02016 0
M  V30 7514 N 792.394 -5.42494 1.47161 0
M  V30 7515 H 784.545 -1.54555 1.45693 0
M  V30 7516 H 786.808 -0.731206 0.603359 0
M  V30 7517 H 786.514 -3.05056 1.75025 0
M  V30 7518 H 786.388 -3.76885 0.154205 0
M  V30 7519 H 788.775 -2.92757 -0.371157 0
M  V30 7520 H 788.856 -2.23011 1.25298 0
M  V30 7521 H 788.5 -4.55579 2.24522 0
M  V30 7522 H 788.43 -5.23188 0.598464 0
M  V30 7523 H 790.921 -3.68718 0.827982 0
M  V30 7524 H 791.234 -7.3785 2.29775 0
M  V30 7525 H 789.579 -6.63775 2.05979 0
M  V30 7526 H 792.77 -4.54806 1.10765 0
M  V30 7527 H 792.943 -6.2314 1.77766 0
M  V30 7528 N 786.349 -0.21828 -1.56081 0
M  V30 7529 C 787.312 0.679633 -2.18892 0
M  V30 7530 C 788.312 1.12405 -1.14986 0
M  V30 7531 O 789.502 1.03339 -1.40238 0
M  V30 7532 C 786.634 1.93063 -2.80962 0
M  V30 7533 H 787.827 0.132066 -2.99609 0
M  V30 7534 H 785.38 0.0313374 -1.56269 0
M  V30 7535 H 786.115 2.52015 -2.04106 0
M  V30 7536 H 785.9 1.62046 -3.57048 0
M  V30 7537 H 787.39 2.57043 -3.29118 0
M  V30 7538 N 787.827 1.57504 0.0551401 0
M  V30 7539 C 789.074 1.88055 0.751104 0
M  V30 7540 C 789.402 0.812231 1.76729 0
M  V30 7541 O 788.657 -0.189918 1.94776 0
M  V30 7542 C 788.956 3.25311 1.48013 0
M  V30 7543 C 788.622 4.46858 0.602375 0
M  V30 7544 C 787.284 4.79847 0.360536 0
M  V30 7545 C 789.636 5.212 -0.00524047 0
M  V30 7546 C 786.964 5.84582 -0.498127 0
M  V30 7547 C 789.316 6.26844 -0.851453 0
M  V30 7548 C 787.98 6.58324 -1.103 0
M  V30 7549 H 787.25 0.688142 0.274848 0
M  V30 7550 H 789.897 1.91497 0.0114795 0
M  V30 7551 H 788.202 3.17737 2.29239 0
M  V30 7552 H 789.899 3.46189 2.02371 0
M  V30 7553 H 786.489 4.21049 0.801007 0
M  V30 7554 H 790.673 4.96013 0.168682 0
M  V30 7555 H 785.929 6.07361 -0.701594 0
M  V30 7556 H 790.103 6.83603 -1.32893 0
M  V30 7557 H 787.73 7.39304 -1.77011 0
M  V30 7558 N 789.305 -0.326896 1.54172 0
M  V30 7559 C 790.237 -1.42319 1.79661 0
M  V30 7560 C 791.25 -1.47989 0.678456 0
M  V30 7561 O 792.439 -1.50773 0.955503 0
M  V30 7562 C 789.539 -2.80876 1.89636 0
M  V30 7563 C 788.712 -2.98449 3.19761 0
M  V30 7564 C 787.771 -4.17347 3.2048 0
M  V30 7565 O 786.797 -4.10667 3.94134 0
M  V30 7566 N 787.999 -5.26717 2.44027 0
M  V30 7567 H 790.764 -1.20819 2.74268 0
M  V30 7568 H 788.325 -0.516866 1.53428 0
M  V30 7569 H 790.317 -3.58619 1.87549 0
M  V30 7570 H 788.887 -2.95442 1.02141 0
M  V30 7571 H 788.107 -2.08035 3.34836 0
M  V30 7572 H 789.395 -3.07083 4.05681 0
M  V30 7573 H 788.793 -5.35019 1.8377 0
M  V30 7574 H 787.35 -6.02891 2.47721 0
M  V30 7575 N 790.784 -1.46188 -0.588786 0
M  V30 7576 C 792.012 -1.54743 -1.37339 0
M  V30 7577 C 792.427 -0.186446 -1.87877 0
M  V30 7578 O 791.784 0.815247 -1.63279 0
M  V30 7579 C 791.835 -2.54727 -2.56508 0
M  V30 7580 O 791.556 -3.85539 -2.08066 0
M  V30 7581 C 793.057 -2.73163 -3.49137 0
M  V30 7582 H 790.277 -0.523484 -0.419768 0
M  V30 7583 H 792.821 -1.91543 -0.716345 0
M  V30 7584 H 790.976 -2.20948 -3.18215 0
M  V30 7585 H 791.39 -4.39905 -2.85629 0
M  V30 7586 H 792.864 -3.47057 -4.2925 0
M  V30 7587 H 793.341 -1.79856 -4.00685 0
M  V30 7588 H 793.947 -3.08014 -2.9327 0
M  V30 7589 N 792.262 0.832906 -1.33792 0
M  V30 7590 C 793.508 1.59089 -1.25772 0
M  V30 7591 C 793.841 1.93414 0.174601 0
M  V30 7592 O 793.116 1.59195 1.11746 0
M  V30 7593 C 793.399 2.89699 -2.13885 0
M  V30 7594 C 793.252 2.62017 -3.65605 0
M  V30 7595 C 794.571 3.91182 -2.01654 0
M  V30 7596 H 791.69 0.577232 -0.458227 0
M  V30 7597 H 794.332 0.960227 -1.6395 0
M  V30 7598 H 792.482 3.4352 -1.81456 0
M  V30 7599 H 794.154 2.14582 -4.08353 0
M  V30 7600 H 792.397 1.95621 -3.87189 0
M  V30 7601 H 793.068 3.55112 -4.2261 0
M  V30 7602 H 795.544 3.46684 -2.30107 0
M  V30 7603 H 794.42 4.80391 -2.65548 0
M  V30 7604 H 794.681 4.30861 -0.990536 0
M  V30 7605 N 793.74 1.17359 1.05189 0
M  V30 7606 C 794.986 0.963413 1.78455 0
M  V30 7607 C 795.319 -0.506703 1.87473 0
M  V30 7608 O 794.594 -1.37611 1.37453 0
M  V30 7609 C 794.877 1.60519 3.22344 0
M  V30 7610 C 794.73 3.14741 3.21338 0
M  V30 7611 C 796.049 1.3091 4.20179 0
M  V30 7612 H 793.168 0.351412 0.647826 0
M  V30 7613 H 795.81 1.44858 1.22948 0
M  V30 7614 H 793.96 1.19265 3.69741 0
M  V30 7615 H 795.632 3.65053 2.82017 0
M  V30 7616 H 793.875 3.4749 2.59679 0
M  V30 7617 H 794.546 3.54775 4.22894 0
M  V30 7618 H 797.022 1.66635 3.81277 0
M  V30 7619 H 795.898 1.784 5.191 0
M  V30 7620 H 796.159 0.229908 4.41502 0
M  V30 7621 N 795.218 -1.23913 0.973828 0
M  V30 7622 C 796.148 -2.27453 0.527969 0
M  V30 7623 C 797.129 -1.6443 -0.435513 0
M  V30 7624 O 798.314 -1.9137 -0.330306 0
M  V30 7625 C 795.444 -3.4685 -0.176757 0
M  V30 7626 C 794.398 -4.22181 0.703352 0
M  V30 7627 C 793.724 -5.34534 -0.133215 0
M  V30 7628 C 795.024 -4.82865 1.99096 0
M  V30 7629 H 796.718 -2.65 1.3934 0
M  V30 7630 H 794.264 -1.27388 0.671446 0
M  V30 7631 H 796.217 -4.18424 -0.499934 0
M  V30 7632 H 794.941 -3.08346 -1.07659 0
M  V30 7633 H 793.6 -3.52416 1.00989 0
M  V30 7634 H 793.248 -4.92271 -1.03338 0
M  V30 7635 H 792.948 -5.85855 0.452494 0
M  V30 7636 H 794.472 -6.08933 -0.450924 0
M  V30 7637 H 795.886 -5.46481 1.73297 0
M  V30 7638 H 794.283 -5.44444 2.52389 0
M  V30 7639 H 795.353 -4.03977 2.68199 0
M  V30 7640 N 796.696 -0.74468 -1.38897 0
M  V30 7641 C 797.973 -0.222773 -1.94327 0
M  V30 7642 C 798.353 1.27731 -1.68071 0
M  V30 7643 O 797.701 2.04754 -1.01429 0
M  V30 7644 C 797.911 -0.566836 -3.44366 0
M  V30 7645 C 799.259 -0.521531 -4.21385 0
M  V30 7646 O 800.283 -0.504599 -3.52608 0
M  V30 7647 O 799.142 -0.524595 -5.43976 0
M  V30 7648 H 796.236 -0.0439259 -0.825833 0
M  V30 7649 H 798.782 -0.824197 -1.48341 0
M  V30 7650 H 797.554 -1.60321 -3.56949 0
M  V30 7651 H 797.177 0.0630577 -3.9755 0
M  V30 7652 N 798.174 1.49689 -0.493057 0
M  V30 7653 C 799.585 1.8665 -0.0433032 0
M  V30 7654 C 799.936 1.40607 1.36836 0
M  V30 7655 O 799.061 0.780503 2.01834 0
M  V30 7656 C 799.656 3.38724 -0.0718069 0
M  V30 7657 C 798.215 3.75015 0.32257 0
M  V30 7658 C 797.362 2.7366 -0.4478 0
M  V30 7659 H 800.313 1.42119 -0.706246 0
M  V30 7660 H 800.334 3.73522 0.725347 0
M  V30 7661 H 799.846 3.72204 -1.09935 0
M  V30 7662 H 797.947 3.47142 1.35364 0
M  V30 7663 H 798.06 4.79099 0.00864259 0
M  V30 7664 H 796.424 2.54498 0.101354 0
M  V30 7665 H 797.207 3.09985 -1.47527 0
M  V30 7666 N 799.652 0.226554 1.55963 0
M  V30 7667 C 800.562 -0.692725 2.24139 0
M  V30 7668 C 801.578 -1.20971 1.25068 0
M  V30 7669 O 802.754 -1.25027 1.57893 0
M  V30 7670 C 799.819 -1.88183 2.91184 0
M  V30 7671 C 798.88 -1.40633 4.05612 0
M  V30 7672 C 798.113 -2.53875 4.6945 0
M  V30 7673 O 798.336 -3.72129 4.32292 0
M  V30 7674 O 797.27 -2.24792 5.58348 0
M  V30 7675 H 801.096 -0.141921 3.03368 0
M  V30 7676 H 798.681 -0.0041049 1.49399 0
M  V30 7677 H 800.563 -2.57617 3.33484 0
M  V30 7678 H 799.238 -2.42064 2.14911 0
M  V30 7679 H 798.145 -0.67986 3.67871 0
M  V30 7680 H 799.478 -0.913838 4.83642 0
M  V30 7681 N 801.13 -1.57531 -0.0467866 0
M  V30 7682 C 802.378 -1.88078 -0.739656 0
M  V30 7683 C 802.699 -0.821936 -1.76831 0
M  V30 7684 O 801.969 0.146582 -1.95351 0
M  V30 7685 H 800.549 -0.694075 -0.276169 0
M  V30 7686 H 803.211 -1.94893 -0.0169391 0
M  V30 7687 H 802.307 -2.86396 -1.24031 0
M  V30 7688 N 802.608 0.318715 -1.54344 0
M  V30 7689 C 803.885 1.07461 -1.63437 0
M  V30 7690 C 804.265 2.05771 -0.47131 0
M  V30 7691 O 803.613 2.22175 0.53391 0
M  V30 7692 C 803.823 1.77224 -3.00654 0
M  V30 7693 C 805.171 2.30069 -3.56866 0
M  V30 7694 O 806.195 1.87284 -3.0299 0
M  V30 7695 O 805.054 3.08412 -4.51159 0
M  V30 7696 H 802.148 0.495627 -0.66203 0
M  V30 7697 H 804.694 0.318218 -1.6669 0
M  V30 7698 H 803.466 1.05742 -3.76742 0
M  V30 7699 H 803.089 2.59662 -3.01101 0
M  V30 7700 N 804.086 1.46499 0.581025 0
M  V30 7701 C 805.049 1.5677 1.672 0
M  V30 7702 C 806.049 0.444716 1.54528 0
M  V30 7703 O 807.239 0.709074 1.59116 0
M  V30 7704 C 804.371 1.4896 3.06633 0
M  V30 7705 H 805.564 2.54 1.5945 0
M  V30 7706 H 803.117 1.34334 0.799003 0
M  V30 7707 H 803.852 0.530168 3.19937 0
M  V30 7708 H 803.637 2.30439 3.17239 0
M  V30 7709 H 805.127 1.59237 3.86048 0
M  V30 7710 N 805.565 -0.825799 1.34232 0
M  V30 7711 C 806.497 -1.94401 1.21413 0
M  V30 7712 C 807.51 -1.6218 0.141902 0
M  V30 7713 O 808.699 -1.74109 0.3935 0
M  V30 7714 C 805.799 -3.28257 0.842635 0
M  V30 7715 C 804.972 -3.88521 2.00924 0
M  V30 7716 C 804.031 -5.00752 1.61661 0
M  V30 7717 O 803.057 -5.19201 2.33279 0
M  V30 7718 N 804.259 -5.78084 0.52911 0
M  V30 7719 H 807.024 -2.05931 2.17744 0
M  V30 7720 H 804.585 -1.00223 1.27149 0
M  V30 7721 H 806.577 -4.00781 0.561822 0
M  V30 7722 H 805.147 -3.12585 -0.0304029 0
M  V30 7723 H 804.367 -3.08425 2.45495 0
M  V30 7724 H 805.655 -4.25516 2.78951 0
M  V30 7725 H 805.053 -5.65661 -0.0663322 0
M  V30 7726 H 803.61 -6.51072 0.308017 0
M  V30 7727 N 807.043 -1.17915 -1.04565 0
M  V30 7728 C 808.292 -0.965816 -1.77073 0
M  V30 7729 C 808.605 0.506005 -1.88942 0
M  V30 7730 O 809.811 0.837717 -2.58253 0
M  V30 7731 C 808.267 -1.67894 -3.18339 0
M  V30 7732 C 807.875 -3.18972 -3.1458 0
M  V30 7733 C 809.619 -1.54823 -3.9526 0
M  V30 7734 C 807.526 -3.82946 -4.50674 0
M  V30 7735 H 806.456 -0.357729 -0.663736 0
M  V30 7736 H 809.107 -1.41235 -1.17153 0
M  V30 7737 H 807.489 -1.16016 -3.78624 0
M  V30 7738 H 808.663 -3.77835 -2.63776 0
M  V30 7739 H 806.978 -3.32127 -2.51159 0
M  V30 7740 H 809.575 -1.99984 -4.95894 0
M  V30 7741 H 809.918 -0.499727 -4.1329 0
M  V30 7742 H 810.451 -2.03953 -3.41538 0
M  V30 7743 H 807.19 -4.8782 -4.37849 0
M  V30 7744 H 806.71 -3.2887 -5.01602 0
M  V30 7745 H 808.389 -3.85518 -5.196 0
M  V30 7746 N 808.521 1.23394 -0.980386 0
M  V30 7747 C 809.798 1.87242 -0.565667 0
M  V30 7748 C 810.178 1.88151 0.957197 0
M  V30 7749 O 809.526 1.36309 1.8339 0
M  V30 7750 C 809.736 3.28743 -1.17172 0
M  V30 7751 C 811.084 4.05335 -1.26446 0
M  V30 7752 O 812.108 3.37962 -1.12517 0
M  V30 7753 O 810.967 5.25908 -1.48604 0
M  V30 7754 H 808.061 0.80477 -0.190459 0
M  V30 7755 H 810.607 1.3127 -1.07547 0
M  V30 7756 H 809.379 3.22647 -2.21392 0
M  V30 7757 H 809.002 3.92305 -0.646739 0
M  V30 7758 N 809.999 0.752036 1.385 0
M  V30 7759 C 811.41 0.375385 1.82887 0
M  V30 7760 C 811.761 -1.09575 1.62751 0
M  V30 7761 O 810.886 -1.84685 1.12785 0
M  V30 7762 C 811.481 0.674563 3.32017 0
M  V30 7763 C 810.04 0.351208 3.74758 0
M  V30 7764 C 809.187 0.928531 2.61292 0
M  V30 7765 H 812.138 0.948313 1.27251 0
M  V30 7766 H 812.159 -0.0477781 3.8047 0
M  V30 7767 H 811.671 1.74533 3.46641 0
M  V30 7768 H 809.772 -0.713042 3.65714 0
M  V30 7769 H 809.885 0.845675 4.71577 0
M  V30 7770 H 808.249 0.354012 2.52228 0
M  V30 7771 H 809.032 2.0043 2.78716 0
M  V30 7772 N 811.477 -1.49425 0.500989 0
M  V30 7773 C 812.425 -2.30771 -0.291149 0
M  V30 7774 C 813.419 -1.3938 -0.962787 0
M  V30 7775 O 814.625 -1.56431 -0.890477 0
M  V30 7776 H 811 -0.743499 -0.11275 0
M  V30 7777 H 812.971 -2.95501 0.414917 0
M  V30 7778 C 811.72 -3.20725 -1.34279 0
M  V30 7779 H 811.043 -3.90975 -0.83538 0
M  V30 7780 H 812.483 -3.80583 -1.86903 0
M  V30 7781 C 810.942 -2.40334 -2.36095 0
M  V30 7782 O 811.472 -2.10749 -3.41976 0
M  V30 7783 N 809.678 -2.02359 -2.08565 0
M  V30 7784 H 809.225 -2.26619 -1.22482 0
M  V30 7785 H 809.183 -1.48878 -2.76916 0
M  V30 7786 N 812.955 -0.234822 -1.55841 0
M  V30 7787 C 814.201 0.387023 -1.99684 0
M  V30 7788 C 814.556 1.56439 -1.12003 0
M  V30 7789 O 813.849 1.90818 -0.172879 0
M  V30 7790 C 814.043 0.858032 -3.46947 0
M  V30 7791 C 813.872 -0.272152 -4.48876 0
M  V30 7792 C 812.642 -0.742896 -4.99809 0
M  V30 7793 C 814.84 -1.09501 -5.02508 0
M  V30 7794 N 812.822 -1.84675 -5.85464 0
M  V30 7795 C 814.193 -2.04748 -5.85217 0
M  V30 7796 C 816.248 -1.13295 -4.84839 0
M  V30 7797 C 814.951 -3.03483 -6.52143 0
M  V30 7798 C 816.977 -2.10854 -5.52535 0
M  V30 7799 C 816.339 -3.04838 -6.35022 0
M  V30 7800 H 812.438 0.107918 -0.774518 0
M  V30 7801 H 815.022 -0.349635 -1.91535 0
M  V30 7802 H 813.193 1.56401 -3.55518 0
M  V30 7803 H 814.925 1.45381 -3.77686 0
M  V30 7804 H 811.68 -0.32915 -4.72455 0
M  V30 7805 H 812.104 -2.40108 -6.32991 0
M  V30 7806 H 816.746 -0.420226 -4.20706 0
M  V30 7807 H 814.464 -3.7571 -7.15449 0
M  V30 7808 H 818.05 -2.1448 -5.40823 0
M  V30 7809 H 816.93 -3.79097 -6.8648 0
M  V30 7810 N 814.433 1.57553 0.0384317 0
M  V30 7811 C 815.679 1.89121 0.732199 0
M  V30 7812 C 816.012 0.831404 1.75503 0
M  V30 7813 O 815.287 -0.154642 1.93884 0
M  V30 7814 C 815.57 3.31338 1.41021 0
M  V30 7815 C 815.423 4.48004 0.401532 0
M  V30 7816 C 816.742 3.72318 2.34665 0
M  V30 7817 H 813.861 0.687819 0.264715 0
M  V30 7818 H 816.503 1.89999 -0.00496279 0
M  V30 7819 H 814.653 3.3072 2.03854 0
M  V30 7820 H 816.325 4.60755 -0.224159 0
M  V30 7821 H 814.568 4.32895 -0.280092 0
M  V30 7822 H 815.239 5.44377 0.91423 0
M  V30 7823 H 817.715 3.74243 1.81883 0
M  V30 7824 H 816.591 4.72652 2.7909 0
M  V30 7825 H 816.852 3.04062 3.20934 0
M  V30 7826 N 815.911 -0.310526 1.54511 0
M  V30 7827 C 817.157 -1.04846 1.73595 0
M  V30 7828 C 817.49 -1.87244 0.515118 0
M  V30 7829 O 816.765 -1.88282 -0.48786 0
M  V30 7830 C 817.048 -1.96237 3.01932 0
M  V30 7831 C 816.901 -1.17082 4.34295 0
M  V30 7832 C 818.22 -2.9556 3.26086 0
M  V30 7833 H 815.339 -0.37976 0.631626 0
M  V30 7834 H 817.981 -0.32394 1.87218 0
M  V30 7835 H 816.131 -2.58015 2.90449 0
M  V30 7836 H 817.803 -0.576643 4.57682 0
M  V30 7837 H 816.046 -0.473336 4.3121 0
M  V30 7838 H 816.717 -1.84257 5.20339 0
M  V30 7839 H 819.193 -2.43908 3.37117 0
M  V30 7840 H 818.069 -3.5668 4.17218 0
M  V30 7841 H 818.33 -3.68715 2.4393 0
M  V30 7842 N 817.389 -1.46805 -0.573248 0
M  V30 7843 C 818.319 -1.60951 -1.69165 0
M  V30 7844 C 819.3 -0.45948 -1.63777 0
M  V30 7845 O 820.485 -0.68688 -1.81647 0
M  V30 7846 C 817.615 -1.60844 -3.07809 0
M  V30 7847 C 816.569 -2.74913 -3.28035 0
M  V30 7848 C 815.895 -2.59871 -4.67302 0
M  V30 7849 C 817.195 -4.16654 -3.14955 0
M  V30 7850 H 818.889 -2.54574 -1.57582 0
M  V30 7851 H 816.435 -1.22516 -0.756686 0
M  V30 7852 H 818.388 -1.69334 -3.85881 0
M  V30 7853 H 817.112 -0.637714 -3.20314 0
M  V30 7854 H 815.771 -2.65908 -2.52366 0
M  V30 7855 H 815.419 -1.60861 -4.76585 0
M  V30 7856 H 815.119 -3.36386 -4.81786 0
M  V30 7857 H 816.643 -2.70265 -5.4753 0
M  V30 7858 H 818.057 -4.26721 -3.82861 0
M  V30 7859 H 816.454 -4.93831 -3.40956 0
M  V30 7860 H 817.524 -4.36146 -2.11908 0
M  V30 7861 N 818.867 0.818669 -1.34668 0
M  V30 7862 C 819.815 1.95123 -1.26609 0
M  V30 7863 C 820.809 1.68611 -0.163348 0
M  V30 7864 O 822.015 1.76975 -0.328586 0
M  V30 7865 H 818.39 0.640871 -0.393431 0
M  V30 7866 H 820.361 1.99043 -2.22316 0
M  V30 7867 C 819.11 3.31697 -1.04272 0
M  V30 7868 H 818.433 3.52648 -1.8836 0
M  V30 7869 H 819.873 4.11382 -1.0267 0
M  V30 7870 C 818.332 3.35942 0.253858 0
M  V30 7871 O 818.862 3.81632 1.25378 0
M  V30 7872 N 817.068 2.89165 0.288447 0
M  V30 7873 H 816.615 2.52176 -0.525845 0
M  V30 7874 H 816.573 2.92387 1.15572 0
M  V30 7875 N 820.346 1.18468 1.03938 0
M  V30 7876 C 821.278 0.870615 2.12021 0
M  V30 7877 C 822.291 -0.132318 1.62261 0
M  V30 7878 O 823.48 0.0956901 1.78243 0
M  V30 7879 C 820.58 0.279727 3.37744 0
M  V30 7880 C 819.753 1.32863 4.16733 0
M  V30 7881 C 818.812 0.753204 5.20781 0
M  V30 7882 O 817.838 1.42825 5.5099 0
M  V30 7883 N 819.04 -0.448664 5.78764 0
M  V30 7884 H 821.805 1.80091 2.39556 0
M  V30 7885 H 819.366 1.08524 1.20142 0
M  V30 7886 H 821.358 -0.118829 4.04526 0
M  V30 7887 H 819.928 -0.554621 3.07641 0
M  V30 7888 H 819.148 1.90245 3.45254 0
M  V30 7889 H 820.436 2.03574 4.66299 0
M  V30 7890 H 819.834 -1.01481 5.56523 0
M  V30 7891 H 818.391 -0.789125 6.47005 0
M  V30 7892 N 821.824 -1.22873 0.986916 0
M  V30 7893 C 823.072 -1.91084 0.658121 0
M  V30 7894 C 823.393 -1.77304 -0.811675 0
M  V30 7895 O 822.663 -1.15649 -1.58121 0
M  V30 7896 H 821.243 -0.707251 0.240427 0
M  V30 7897 H 823.905 -1.49357 1.25213 0
M  V30 7898 H 823.001 -2.98373 0.915428 0
M  V30 7899 N 823.302 -0.75937 -1.38099 0
M  V30 7900 C 824.718 -0.437606 -1.53483 0
M  V30 7901 C 824.918 1.04849 -1.72072 0
M  V30 7902 O 823.974 1.83448 -1.73502 0
M  V30 7903 C 825.287 -1.24189 -2.73857 0
M  V30 7904 C 826.835 -1.23255 -2.8771 0
M  V30 7905 C 827.31 -2.01992 -4.11051 0
M  V30 7906 N 828.801 -1.99282 -4.1814 0
M  V30 7907 C 829.536 -2.56996 -5.12583 0
M  V30 7908 N 829.032 -3.23446 -6.12662 0
M  V30 7909 N 830.825 -2.46894 -5.04975 0
M  V30 7910 H 822.976 -1.72242 -1.24283 0
M  V30 7911 H 825.239 -0.730507 -0.604205 0
M  V30 7912 H 824.945 -2.29449 -2.66545 0
M  V30 7913 H 824.819 -0.862672 -3.67203 0
M  V30 7914 H 827.206 -0.187988 -2.94501 0
M  V30 7915 H 827.287 -1.65132 -1.95359 0
M  V30 7916 H 826.931 -3.06462 -4.05023 0
M  V30 7917 H 826.861 -1.57505 -5.02494 0
M  V30 7918 H 829.352 -1.50893 -3.46467 0
M  V30 7919 H 829.665 -3.6489 -6.81231 0
M  V30 7920 H 828.01 -3.27543 -6.12977 0
M  V30 7921 H 831.201 -1.94604 -4.25731 0
M  V30 7922 H 831.374 -2.92168 -5.78396 0
M  V30 7923 N 824.78 1.49157 -0.508906 0
M  V30 7924 C 825.69 2.33045 0.269656 0
M  V30 7925 C 826.706 1.45143 0.959662 0
M  V30 7926 O 827.882 1.78155 0.939295 0
M  V30 7927 C 824.947 3.20772 1.31554 0
M  V30 7928 C 824.008 4.24531 0.638131 0
M  V30 7929 C 823.241 5.08065 1.63418 0
M  V30 7930 O 823.464 4.93238 2.86483 0
M  V30 7931 O 822.398 5.90117 1.18516 0
M  V30 7932 H 826.224 3.00821 -0.417183 0
M  V30 7933 H 823.809 1.46938 -0.270119 0
M  V30 7934 H 825.691 3.75095 1.92047 0
M  V30 7935 H 824.366 2.55681 1.98516 0
M  V30 7936 H 823.273 3.74099 -0.00674357 0
M  V30 7937 H 824.606 4.92199 0.0108155 0
M  V30 7938 N 826.258 0.243083 1.55714 0
M  V30 7939 C 827.507 -0.383188 1.98027 0
M  V30 7940 C 827.82 -1.59347 1.13436 0
M  V30 7941 O 829.026 -2.29065 1.45745 0
M  V30 7942 C 827.482 -0.733135 3.52354 0
M  V30 7943 C 827.09 0.455539 4.45678 0
M  V30 7944 C 828.834 -1.32381 4.03331 0
M  V30 7945 C 826.741 0.0819591 5.91343 0
M  V30 7946 H 825.671 -0.146944 0.739543 0
M  V30 7947 H 828.322 0.342697 1.80272 0
M  V30 7948 H 826.704 -1.51704 3.65789 0
M  V30 7949 H 827.878 1.23291 4.44 0
M  V30 7950 H 826.193 0.960886 4.05162 0
M  V30 7951 H 828.79 -1.61658 5.09677 0
M  V30 7952 H 829.133 -2.24698 3.50452 0
M  V30 7953 H 829.666 -0.602885 3.93205 0
M  V30 7954 H 826.405 0.972171 6.48251 0
M  V30 7955 H 825.925 -0.659291 5.96166 0
M  V30 7956 H 827.604 -0.3372 6.46121 0
M  V30 7957 N 827.736 -1.57571 -0.0300757 0
M  V30 7958 C 828.982 -1.89506 -0.722159 0
M  V30 7959 C 829.315 -0.840699 -1.7506 0
M  V30 7960 O 828.59 0.144358 -1.93964 0
M  V30 7961 C 828.873 -3.32081 -1.39262 0
M  V30 7962 C 828.726 -4.48211 -0.377768 0
M  V30 7963 C 830.045 -3.73557 -2.32687 0
M  V30 7964 H 827.164 -0.689213 -0.261064 0
M  V30 7965 H 829.806 -1.89994 0.0150388 0
M  V30 7966 H 827.956 -3.31796 -2.02098 0
M  V30 7967 H 829.628 -4.6063 0.248591 0
M  V30 7968 H 827.871 -4.3274 0.303045 0
M  V30 7969 H 828.542 -5.44854 -0.885347 0
M  V30 7970 H 831.018 -3.75202 -1.79896 0
M  V30 7971 H 829.894 -4.74125 -2.7658 0
M  V30 7972 H 830.155 -3.05759 -3.19317 0
M  V30 7973 N 829.214 0.302327 -1.54673 0
M  V30 7974 C 830.146 1.39443 -1.81902 0
M  V30 7975 C 831.159 1.46891 -0.701914 0
M  V30 7976 O 832.348 1.49233 -0.979369 0
M  V30 7977 C 829.448 2.77824 -1.9408 0
M  V30 7978 C 828.621 2.93324 -3.24468 0
M  V30 7979 C 827.68 4.12196 -3.27079 0
M  V30 7980 O 826.706 4.04344 -4.00617 0
M  V30 7981 N 827.908 5.22768 -2.52376 0
M  V30 7982 H 830.673 1.1644 -2.76155 0
M  V30 7983 H 828.234 0.492392 -1.54231 0
M  V30 7984 H 830.226 3.5559 -1.9323 0
M  V30 7985 H 828.796 2.9378 -1.06828 0
M  V30 7986 H 828.016 2.02682 -3.38103 0
M  V30 7987 H 829.304 3.0059 -4.10516 0
M  V30 7988 H 828.702 5.32027 -1.92259 0
M  V30 7989 H 827.259 5.98874 -2.57281 0
M  V30 7990 N 830.692 1.47107 0.565454 0
M  V30 7991 C 831.92 1.56909 1.3486 0
M  V30 7992 C 832.335 0.216312 1.87557 0
M  V30 7993 O 831.692 -0.789168 1.64555 0
M  V30 7994 C 831.743 2.58776 2.52423 0
M  V30 7995 O 831.464 3.888 2.01906 0
M  V30 7996 C 832.965 2.78683 3.44747 0
M  V30 7997 H 830.185 0.530096 0.411387 0
M  V30 7998 H 832.729 1.92658 0.685782 0
M  V30 7999 H 830.884 2.25983 3.1466 0
M  V30 8000 H 831.298 4.44393 2.78595 0
M  V30 8001 H 832.772 3.53842 4.23674 0
M  V30 8002 H 833.249 1.86208 3.97773 0
M  V30 8003 H 833.855 3.12641 2.88333 0
M  V30 8004 N 832.17 -0.811516 1.35101 0
M  V30 8005 C 833.103 -1.92872 1.21966 0
M  V30 8006 C 834.081 -1.62236 0.108667 0
M  V30 8007 O 835.265 -1.8647 0.275875 0
M  V30 8008 C 832.392 -3.27152 0.876886 0
M  V30 8009 C 831.438 -3.7674 1.99924 0
M  V30 8010 S 832.271 -3.95132 3.61429 0
M  V30 8011 C 833.427 -5.32322 3.29218 0
M  V30 8012 H 833.66 -2.03718 2.16532 0
M  V30 8013 H 831.193 -0.968352 1.20259 0
M  V30 8014 H 833.151 -4.04729 0.685917 0
M  V30 8015 H 831.812 -3.14059 -0.0506289 0
M  V30 8016 H 831.005 -4.73981 1.71343 0
M  V30 8017 H 830.607 -3.06145 2.14829 0
M  V30 8018 H 832.899 -6.1614 2.8174 0
M  V30 8019 H 833.842 -5.65893 4.25641 0
M  V30 8020 H 834.25 -4.98374 2.65111 0
M  V30 8021 N 833.648 -1.19017 -1.03309 0
M  V30 8022 C 834.596 -0.920627 -2.13605 0
M  V30 8023 C 835.59 0.121969 -1.6896 0
M  V30 8024 O 836.796 -0.0268854 -1.7998 0
M  V30 8025 H 833.171 -0.280284 -0.697814 0
M  V30 8026 H 835.142 -1.85755 -2.33533 0
M  V30 8027 C 833.891 -0.471198 -3.44492 0
M  V30 8028 H 833.214 -1.26499 -3.7926 0
M  V30 8029 H 834.654 -0.321663 -4.22778 0
M  V30 8030 C 833.113 0.81411 -3.26916 0
M  V30 8031 O 833.643 1.87654 -3.55175 0
M  V30 8032 N 831.849 0.769695 -2.80221 0
M  V30 8033 H 831.396 -0.0951278 -2.57424 0
M  V30 8034 H 831.354 1.63008 -2.68842 0
M  V30 8035 N 835.127 1.22348 -0.993418 0
M  V30 8036 C 836.352 1.95666 -0.687727 0
M  V30 8037 C 836.777 1.72883 0.741161 0
M  V30 8038 O 836.135 1.00837 1.50671 0
M  V30 8039 C 836.183 3.46457 -0.99998 0
M  V30 8040 O 835.287 4.12281 -0.0989386 0
M  V30 8041 H 834.628 0.612102 -0.257346 0
M  V30 8042 H 837.158 1.55428 -1.33054 0
M  V30 8043 H 837.168 3.96976 -0.942035 0
M  V30 8044 H 835.843 3.62365 -2.04118 0
M  V30 8045 H 834.42 3.72295 -0.212413 0
M  V30 8046 N 836.605 0.766683 1.37694 0
M  V30 8047 C 837.882 0.25366 1.93948 0
M  V30 8048 C 838.262 -1.25041 1.70082 0
M  V30 8049 O 837.61 -2.03115 1.04674 0
M  V30 8050 C 837.82 0.621549 3.43421 0
M  V30 8051 C 839.168 0.588504 4.20502 0
M  V30 8052 O 840.192 0.560632 3.5176 0
M  V30 8053 O 839.051 0.61107 5.43073 0
M  V30 8054 H 836.145 0.0570586 0.825029 0
M  V30 8055 H 838.691 0.847693 1.47011 0
M  V30 8056 H 837.463 1.65979 3.54354 0
M  V30 8057 H 837.086 0.000197027 3.976 0
M  V30 8058 N 838.083 -1.48885 0.516809 0
M  V30 8059 C 839.494 -1.86557 0.0729921 0
M  V30 8060 C 839.845 -1.42767 -1.34581 0
M  V30 8061 O 838.97 -0.812514 -2.00567 0
M  V30 8062 C 839.565 -3.38567 0.125686 0
M  V30 8063 C 838.124 -3.75481 -0.262867 0
M  V30 8064 C 837.271 -2.72913 0.491281 0
M  V30 8065 H 840.222 -1.40978 0.728767 0
M  V30 8066 H 840.243 -3.74629 -0.665831 0
M  V30 8067 H 839.755 -3.70408 1.15842 0
M  V30 8068 H 837.856 -3.49251 -1.29824 0
M  V30 8069 H 837.969 -4.79052 0.067579 0
M  V30 8070 H 836.333 -2.54627 -0.0608525 0
M  V30 8071 H 837.116 -3.07599 1.5244 0
M  V30 8072 N 839.561 -0.251338 -1.55583 0
M  V30 8073 C 840.809 0.371434 -1.98657 0
M  V30 8074 C 841.13 1.58143 -1.14087 0
M  V30 8075 O 840.4 1.94607 -0.224708 0
M  V30 8076 H 838.98 0.140225 -0.733721 0
M  V30 8077 H 841.642 -0.351157 -1.9171 0
M  V30 8078 H 840.738 0.677554 -3.04657 0
M  V30 8079 N 841.039 1.57585 0.0217189 0
M  V30 8080 C 841.969 2.10073 1.01939 0
M  V30 8081 C 842.95 1.0049 1.37243 0
M  V30 8082 O 844.135 1.28055 1.45999 0
M  V30 8083 C 841.265 2.58618 2.31806 0
M  V30 8084 C 840.219 3.72531 2.10724 0
M  V30 8085 C 839.545 4.07309 3.46415 0
M  V30 8086 C 840.845 5.00672 1.48743 0
M  V30 8087 H 842.539 2.9368 0.582432 0
M  V30 8088 H 840.085 1.41277 0.278715 0
M  V30 8089 H 842.038 2.9396 3.01936 0
M  V30 8090 H 840.762 1.72104 2.77575 0
M  V30 8091 H 839.421 3.37549 1.43025 0
M  V30 8092 H 839.069 3.17851 3.89846 0
M  V30 8093 H 838.769 4.84042 3.33132 0
M  V30 8094 H 840.293 4.45192 4.17895 0
M  V30 8095 H 841.707 5.33925 2.088 0
M  V30 8096 H 840.104 5.82065 1.46013 0
M  V30 8097 H 841.174 4.82769 0.45408 0
M  V30 8098 N 842.517 -0.29412 1.54831 0
M  V30 8099 C 843.48 -1.3461 1.85507 0
M  V30 8100 C 844.48 -1.43359 0.728343 0
M  V30 8101 O 845.67 -1.42875 0.996609 0
M  V30 8102 C 842.802 -2.73012 2.0415 0
M  V30 8103 H 843.995 -1.08651 2.79526 0
M  V30 8104 H 841.548 -0.531138 1.46999 0
M  V30 8105 H 842.283 -3.04183 1.12441 0
M  V30 8106 H 842.068 -2.68051 2.86166 0
M  V30 8107 H 843.558 -3.49061 2.29229 0
M  V30 8108 N 843.995 -1.47404 -0.557645 0
M  V30 8109 C 845.241 -1.54235 -1.31679 0
M  V30 8110 C 845.574 -0.203782 -1.93128 0
M  V30 8111 O 844.849 0.787536 -1.77843 0
M  V30 8112 C 845.132 -2.66003 -2.42723 0
M  V30 8113 C 844.985 -4.09475 -1.86145 0
M  V30 8114 C 846.304 -2.73685 -3.44652 0
M  V30 8115 H 843.423 -0.561466 -0.477415 0
M  V30 8116 H 846.065 -1.79459 -0.624067 0
M  V30 8117 H 844.215 -2.44627 -3.01811 0
M  V30 8118 H 845.887 -4.42213 -1.31321 0
M  V30 8119 H 844.13 -4.17774 -1.16823 0
M  V30 8120 H 844.801 -4.83451 -2.66418 0
M  V30 8121 H 847.277 -2.92968 -2.95481 0
M  V30 8122 H 846.153 -3.53665 -4.19777 0
M  V30 8123 H 846.414 -1.80726 -4.03473 0
M  V30 8124 N 845.473 0.80434 -1.35529 0
M  V30 8125 C 846.721 1.55845 -1.28673 0
M  V30 8126 C 847.042 1.94511 0.137976 0
M  V30 8127 O 846.312 1.63775 1.07492 0
M  V30 8128 H 844.892 0.577931 -0.473291 0
M  V30 8129 H 847.554 0.959293 -1.69657 0
M  V30 8130 H 846.65 2.47285 -1.90411 0
M  V30 8131 N 846.951 1.19563 1.02676 0
M  V30 8132 C 848.181 1.0234 1.79472 0
M  V30 8133 C 848.589 -0.430891 1.84228 0
M  V30 8134 O 847.932 -1.31106 1.28674 0
M  V30 8135 C 847.994 1.51901 3.25832 0
M  V30 8136 C 847.658 3.00045 3.44706 0
M  V30 8137 C 848.655 3.9779 3.34752 0
M  V30 8138 C 846.34 3.38784 3.70851 0
M  V30 8139 C 848.334 5.32267 3.50672 0
M  V30 8140 C 846.021 4.73419 3.86416 0
M  V30 8141 C 847.019 5.69969 3.7633 0
M  V30 8142 O 846.707 7.02165 3.91432 0
M  V30 8143 H 846.439 0.360936 0.571578 0
M  V30 8144 H 848.993 1.58863 1.30198 0
M  V30 8145 H 847.223 0.897546 3.7614 0
M  V30 8146 H 848.912 1.30853 3.84229 0
M  V30 8147 H 849.678 3.69207 3.14502 0
M  V30 8148 H 845.557 2.64183 3.77794 0
M  V30 8149 H 849.101 6.07612 3.42715 0
M  V30 8150 H 844.998 5.01697 4.06165 0
M  V30 8151 H 845.766 7.09268 4.08511 0
M  V30 8152 N 848.429 -1.21819 0.999893 0
M  V30 8153 C 849.657 -1.94758 0.698359 0
M  V30 8154 C 850.072 -1.73771 -0.738183 0
M  V30 8155 O 849.429 -1.04113 -1.49889 0
M  V30 8156 C 849.48 -3.47292 1.00353 0
M  V30 8157 O 849.201 -3.67579 2.38363 0
M  V30 8158 C 850.702 -4.37403 0.72068 0
M  V30 8159 H 847.922 -0.619512 0.257771 0
M  V30 8160 H 850.466 -1.54778 1.33656 0
M  V30 8161 H 848.621 -3.85213 0.411018 0
M  V30 8162 H 849.035 -4.61719 2.48829 0
M  V30 8163 H 850.509 -5.43151 0.984422 0
M  V30 8164 H 850.986 -4.3784 -0.345309 0
M  V30 8165 H 851.592 -4.05119 1.29456 0
M  V30 8166 N 849.908 -0.773975 -1.37286 0
M  V30 8167 C 850.871 -0.167974 -2.28584 0
M  V30 8168 C 851.871 0.625662 -1.48129 0
M  V30 8169 O 853.061 0.448924 -1.68316 0
M  V30 8170 C 850.193 0.769364 -3.32105 0
M  V30 8171 H 851.386 -0.972806 -2.83684 0
M  V30 8172 H 848.939 -0.542335 -1.46589 0
M  V30 8173 H 849.674 1.59912 -2.82132 0
M  V30 8174 H 849.459 0.202419 -3.91577 0
M  V30 8175 H 850.949 1.18872 -4.00324 0
M  V30 8176 N 851.386 1.48609 -0.524698 0
M  V30 8177 C 852.633 2.02497 0.0113214 0
M  V30 8178 C 852.961 1.40229 1.34781 0
M  V30 8179 O 852.216 0.53557 1.88229 0
M  V30 8180 C 852.515 3.56906 0.187873 0
M  V30 8181 C 852.181 4.37932 -1.07359 0
M  V30 8182 C 850.843 4.59792 -1.41933 0
M  V30 8183 C 853.195 4.84902 -1.911 0
M  V30 8184 C 850.523 5.25868 -2.60154 0
M  V30 8185 C 852.875 5.52281 -3.08495 0
M  V30 8186 C 851.539 5.7238 -3.4342 0
M  V30 8187 H 850.809 0.740988 0.0041428 0
M  V30 8188 H 853.456 1.78651 -0.689652 0
M  V30 8189 H 851.761 3.79563 0.971572 0
M  V30 8190 H 853.458 3.96218 0.617443 0
M  V30 8191 H 850.048 4.21175 -0.794331 0
M  V30 8192 H 854.232 4.67821 -1.65701 0
M  V30 8193 H 849.488 5.39628 -2.87422 0
M  V30 8194 H 853.662 5.87645 -3.73692 0
M  V30 8195 H 851.289 6.23354 -4.35126 0
M  V30 8196 N 852.864 0.259585 1.55447 0
M  V30 8197 C 853.812 -0.6507 2.23313 0
M  V30 8198 C 854.806 -1.17014 1.22491 0
M  V30 8199 O 856.012 -1.12557 1.40467 0
M  V30 8200 H 852.387 -0.228354 0.71649 0
M  V30 8201 H 854.358 -0.0553039 2.98349 0
M  V30 8202 C 853.107 -1.83081 2.95596 0
M  V30 8203 H 852.43 -1.44027 3.72956 0
M  V30 8204 H 853.87 -2.44469 3.46426 0
M  V30 8205 C 852.329 -2.70976 2.00184 0
M  V30 8206 O 852.859 -3.70882 1.54304 0
M  V30 8207 N 851.065 -2.37813 1.67014 0
M  V30 8208 H 850.612 -1.5662 2.04519 0
M  V30 8209 H 850.57 -2.96896 1.03443 0
M  V30 8210 N 854.342 -1.57594 -0.0133615 0
M  V30 8211 C 855.59 -1.89605 -0.699596 0
M  V30 8212 C 855.911 -0.85926 -1.75048 0
M  V30 8213 O 855.181 0.105112 -1.95618 0
M  V30 8214 H 853.761 -0.699776 -0.261385 0
M  V30 8215 H 856.423 -1.94885 0.0244044 0
M  V30 8216 H 855.519 -2.88962 -1.17928 0
M  V30 8217 N 855.82 0.285905 -1.54985 0
M  V30 8218 C 857.066 1.02071 -1.75241 0
M  V30 8219 C 857.399 1.864 -0.544842 0
M  V30 8220 O 856.674 1.89034 0.457844 0
M  V30 8221 C 856.957 1.91409 -3.05016 0
M  V30 8222 C 856.81 1.10158 -4.36102 0
M  V30 8223 C 858.129 2.90335 -3.30747 0
M  V30 8224 H 855.248 0.369663 -0.637588 0
M  V30 8225 H 857.89 0.294114 -1.8771 0
M  V30 8226 H 856.04 2.53362 -2.94517 0
M  V30 8227 H 857.712 0.503756 -4.58541 0
M  V30 8228 H 855.955 0.404675 -4.31908 0
M  V30 8229 H 856.626 1.75956 -5.23205 0
M  V30 8230 H 859.102 2.38514 -3.40955 0
M  V30 8231 H 857.978 3.49997 -4.2284 0
M  V30 8232 H 858.239 3.64787 -2.49765 0
M  V30 8233 N 857.298 1.47698 0.54982 0
M  V30 8234 C 858.575 1.45185 1.31075 0
M  V30 8235 C 858.955 0.152768 2.10547 0
M  V30 8236 O 858.303 -0.865706 2.11466 0
M  V30 8237 C 858.513 2.70192 2.20902 0
M  V30 8238 C 859.861 3.1771 2.81683 0
M  V30 8239 O 860.885 2.70971 2.312 0
M  V30 8240 O 859.744 3.98986 3.7346 0
M  V30 8241 H 856.838 0.57892 0.590577 0
M  V30 8242 H 859.384 1.59908 0.568112 0
M  V30 8243 H 858.156 3.56269 1.61828 0
M  V30 8244 H 857.779 2.58091 3.02448 0
M  V30 8245 N 858.776 -0.797141 1.35954 0
M  V30 8246 C 860.023 -1.55468 1.29754 0
M  V30 8247 C 860.351 -1.94095 -0.125391 0
M  V30 8248 O 859.606 -1.62341 -1.09288 0
M  V30 8249 C 859.905 -2.84847 2.15863 0
M  V30 8250 C 859.571 -2.65394 3.64523 0
M  V30 8251 C 858.233 -2.59796 4.05042 0
M  V30 8252 C 860.585 -2.4727 4.58811 0
M  V30 8253 C 857.913 -2.3403 5.38002 0
M  V30 8254 C 860.265 -2.23032 5.91979 0
M  V30 8255 C 858.929 -2.15862 6.31633 0
M  V30 8256 H 858.199 -0.568897 0.474803 0
M  V30 8257 H 860.846 -0.920299 1.67937 0
M  V30 8258 H 859.151 -3.52712 1.70591 0
M  V30 8259 H 860.848 -3.42597 2.08395 0
M  V30 8260 H 857.438 -2.70602 3.32374 0
M  V30 8261 H 861.622 -2.506 4.28384 0
M  V30 8262 H 856.878 -2.26956 5.67715 0
M  V30 8263 H 861.052 -2.08001 6.64612 0
M  V30 8264 H 858.679 -1.9566 7.34589 0
M  V30 8265 N 860.254 -1.20106 -1.0204 0
M  V30 8266 C 861.164 -0.962051 -2.13967 0
M  V30 8267 C 862.18 0.0808053 -1.73812 0
M  V30 8268 O 863.356 -0.105774 -2.01122 0
M  V30 8269 C 860.421 -0.513108 -3.42882 0
M  V30 8270 C 859.482 -1.62636 -3.97301 0
M  V30 8271 C 858.715 -1.19875 -5.20063 0
M  V30 8272 O 858.938 -0.0658423 -5.70362 0
M  V30 8273 O 857.872 -2.00467 -5.67536 0
M  V30 8274 H 861.698 -1.8991 -2.36998 0
M  V30 8275 H 859.283 -0.984608 -1.12365 0
M  V30 8276 H 861.165 -0.271797 -4.20523 0
M  V30 8277 H 859.84 0.395402 -3.21276 0
M  V30 8278 H 858.747 -1.92192 -3.20957 0
M  V30 8279 H 860.08 -2.51174 -4.23288 0
M  V30 8280 N 861.732 1.21287 -1.00634 0
M  V30 8281 C 862.98 1.90013 -0.688438 0
M  V30 8282 C 863.301 1.78573 0.783365 0
M  V30 8283 O 862.571 1.1815 1.56261 0
M  V30 8284 H 861.151 0.703336 -0.251648 0
M  V30 8285 H 863.813 1.47346 -1.27574 0
M  V30 8286 H 862.909 2.96879 -0.962781 0
M  V30 8287 N 863.21 0.781244 1.36873 0
M  V30 8288 C 864.438 0.361566 2.03716 0
M  V30 8289 C 864.853 -1.01937 1.58916 0
M  V30 8290 O 864.21 -1.65237 0.774783 0
M  V30 8291 C 864.261 0.406391 3.59208 0
M  V30 8292 O 863.982 1.73286 4.02372 0
M  V30 8293 C 865.483 -0.0236894 4.43294 0
M  V30 8294 H 862.703 0.150133 0.653988 0
M  V30 8295 H 865.247 1.05781 1.75016 0
M  V30 8296 H 863.402 -0.241364 3.86647 0
M  V30 8297 H 863.816 1.67804 4.96933 0
M  V30 8298 H 865.29 0.0588205 5.51969 0
M  V30 8299 H 865.767 -1.07529 4.25833 0
M  V30 8300 H 866.373 0.59624 4.211 0
M  V30 8301 N 864.689 -1.48329 0.532571 0
M  V30 8302 C 865.936 -2.025 -0.000582356 0
M  V30 8303 C 866.264 -1.40942 -1.34036 0
M  V30 8304 O 865.519 -0.545545 -1.87942 0
M  V30 8305 C 865.818 -3.57 -0.168943 0
M  V30 8306 C 865.484 -4.37357 1.0968 0
M  V30 8307 C 864.146 -4.59033 1.44369 0
M  V30 8308 C 866.498 -4.83882 1.93669 0
M  V30 8309 C 863.826 -5.24481 2.62939 0
M  V30 8310 C 866.178 -5.50637 3.11419 0
M  V30 8311 C 864.842 -5.70551 3.46451 0
M  V30 8312 H 864.112 -0.741 -0.000213099 0
M  V30 8313 H 866.759 -1.78282 0.699117 0
M  V30 8314 H 865.064 -3.80072 -0.951429 0
M  V30 8315 H 866.761 -3.9654 -0.596422 0
M  V30 8316 H 863.351 -4.20748 0.816655 0
M  V30 8317 H 867.535 -4.66936 1.6818 0
M  V30 8318 H 862.791 -5.38096 2.9028 0
M  V30 8319 H 866.965 -5.85655 3.76803 0
M  V30 8320 H 864.592 -6.21037 4.38425 0
M  V30 8321 N 866.167 -0.267825 -1.55308 0
M  V30 8322 C 867.117 0.637168 -2.18916 0
M  V30 8323 C 868.101 1.12381 -1.15149 0
M  V30 8324 O 869.293 1.0701 -1.40989 0
M  V30 8325 C 866.422 1.82423 -2.90821 0
M  V30 8326 C 865.508 1.35512 -4.01867 0
M  V30 8327 N 865.899 0.601644 -5.02209 0
M  V30 8328 C 864.197 1.63868 -4.14805 0
M  V30 8329 C 864.898 0.35596 -5.8061 0
M  V30 8330 N 863.874 0.926271 -5.3565 0
M  V30 8331 H 867.676 0.0535787 -2.93851 0
M  V30 8332 H 865.19 -0.0710577 -1.62244 0
M  V30 8333 H 867.187 2.48379 -3.34834 0
M  V30 8334 H 865.847 2.41185 -2.17394 0
M  V30 8335 H 866.858 0.249693 -5.17298 0
M  V30 8336 H 863.535 2.23618 -3.52564 0
M  V30 8337 H 864.925 -0.246994 -6.71446 0
M  V30 8338 N 867.645 1.57599 0.00500368 0
M  V30 8339 C 868.891 1.90631 0.691919 0
M  V30 8340 C 869.224 0.868443 1.737 0
M  V30 8341 O 868.499 -0.113482 1.94169 0
M  V30 8342 C 868.782 3.34255 1.33961 0
M  V30 8343 C 868.635 4.48755 0.306413 0
M  V30 8344 C 869.954 3.77211 2.26715 0
M  V30 8345 H 867.073 0.693279 0.250066 0
M  V30 8346 H 869.715 1.89946 -0.0452634 0
M  V30 8347 H 867.865 3.3497 1.96793 0
M  V30 8348 H 869.537 4.60176 -0.321841 0
M  V30 8349 H 867.78 4.32203 -0.371852 0
M  V30 8350 H 868.451 5.46193 0.798554 0
M  V30 8351 H 870.927 3.78017 1.73904 0
M  V30 8352 H 869.803 4.78466 2.69002 0
M  V30 8353 H 870.064 3.10801 3.14413 0
M  V30 8354 N 869.123 -0.277682 1.55134 0
M  V30 8355 C 870.071 -1.36305 1.88478 0
M  V30 8356 C 871.065 -1.51362 0.760654 0
M  V30 8357 O 872.271 -1.53202 0.944943 0
M  V30 8358 H 868.646 -0.45577 0.598146 0
M  V30 8359 H 870.617 -1.05431 2.79154 0
M  V30 8360 C 869.366 -2.71739 2.16918 0
M  V30 8361 H 868.689 -2.60942 3.02901 0
M  V30 8362 H 870.129 -3.46635 2.44172 0
M  V30 8363 C 868.588 -3.22476 0.975239 0
M  V30 8364 O 869.118 -4.01164 0.207497 0
M  V30 8365 N 867.324 -2.80097 0.774219 0
M  V30 8366 H 866.871 -2.16221 1.40022 0
M  V30 8367 H 866.829 -3.14392 -0.023021 0
M  V30 8368 N 870.601 -1.47988 -0.541979 0
M  V30 8369 C 871.829 -1.59034 -1.32347 0
M  V30 8370 C 872.244 -0.246123 -1.87189 0
M  V30 8371 O 871.601 0.762889 -1.6579 0
M  V30 8372 C 871.652 -2.62759 -2.48274 0
M  V30 8373 O 871.373 -3.91963 -1.95695 0
M  V30 8374 C 872.874 -2.84133 -3.4027 0
M  V30 8375 H 870.094 -0.536574 -0.402901 0
M  V30 8376 H 872.638 -1.93725 -0.655045 0
M  V30 8377 H 870.793 -2.3096 -3.11025 0
M  V30 8378 H 871.207 -4.48769 -2.7149 0
M  V30 8379 H 872.681 -3.60538 -4.17991 0
M  V30 8380 H 873.158 -1.92512 -3.9476 0
M  V30 8381 H 873.764 -3.17188 -2.83322 0
M  V30 8382 N 872.079 0.78992 -1.36375 0
M  V30 8383 C 873.325 1.55007 -1.3077 0
M  V30 8384 C 873.658 1.93871 0.112979 0
M  V30 8385 O 872.933 1.6267 1.06625 0
M  V30 8386 C 873.216 2.82748 -2.22993 0
M  V30 8387 C 873.069 2.50253 -3.73756 0
M  V30 8388 C 874.388 3.84569 -2.13998 0
M  V30 8389 H 871.507 0.562362 -0.476359 0
M  V30 8390 H 874.149 0.907582 -1.66922 0
M  V30 8391 H 872.299 3.37573 -1.92292 0
M  V30 8392 H 873.971 2.01482 -4.14973 0
M  V30 8393 H 872.214 1.83203 -3.93216 0
M  V30 8394 H 872.885 3.41487 -4.33694 0
M  V30 8395 H 875.361 3.39188 -2.4102 0
M  V30 8396 H 874.237 4.717 -2.80697 0
M  V30 8397 H 874.498 4.27491 -1.12711 0
M  V30 8398 N 873.557 1.20646 1.01402 0
M  V30 8399 C 874.785 1.04389 1.78635 0
M  V30 8400 C 875.2 -0.406771 1.84366 0
M  V30 8401 O 874.557 -1.28239 1.2985 0
M  V30 8402 C 874.608 1.62378 3.22979 0
M  V30 8403 O 874.329 3.01768 3.17597 0
M  V30 8404 C 875.83 1.5111 4.1675 0
M  V30 8405 H 873.05 0.367077 0.56169 0
M  V30 8406 H 875.594 1.59789 1.27624 0
M  V30 8407 H 873.749 1.11092 3.7113 0
M  V30 8408 H 874.163 3.29331 4.08217 0
M  V30 8409 H 875.637 1.96441 5.15863 0
M  V30 8410 H 876.114 0.464011 4.36742 0
M  V30 8411 H 876.72 2.01599 3.74483 0
M  V30 8412 N 875.035 -1.20752 1.01276 0
M  V30 8413 C 876.312 -1.85676 0.615112 0
M  V30 8414 C 876.692 -1.90623 -0.906976 0
M  V30 8415 O 876.04 -1.41124 -1.79712 0
M  V30 8416 C 876.25 -3.2552 1.25847 0
M  V30 8417 C 877.598 -4.0184 1.37148 0
M  V30 8418 O 878.622 -3.3486 1.21438 0
M  V30 8419 O 877.481 -5.21783 1.62495 0
M  V30 8420 H 874.575 -0.799437 0.211729 0
M  V30 8421 H 877.121 -1.28372 1.10989 0
M  V30 8422 H 875.893 -3.16664 2.29869 0
M  V30 8423 H 875.516 -3.90452 0.750524 0
M  V30 8424 N 876.513 -0.788492 -1.36457 0
M  V30 8425 C 877.79 -0.284484 -1.9352 0
M  V30 8426 C 878.17 1.2232 -1.7205 0
M  V30 8427 O 877.518 2.01424 -1.07892 0
M  V30 8428 C 877.728 -0.676106 -3.42388 0
M  V30 8429 C 879.076 -0.655327 -4.19512 0
M  V30 8430 O 880.1 -0.616523 -3.50824 0
M  V30 8431 O 878.959 -0.697391 -5.42032 0
M  V30 8432 H 876.053 -0.0701769 -0.824017 0
M  V30 8433 H 878.599 -0.870974 -1.45644 0
M  V30 8434 H 877.371 -1.71596 -3.51668 0
M  V30 8435 H 876.994 -0.0634517 -3.97549 0
M  V30 8436 N 877.991 1.48044 -0.54043 0
M  V30 8437 C 879.268 1.95523 0.0547302 0
M  V30 8438 C 879.648 1.48284 1.5025 0
M  V30 8439 O 878.996 0.714037 2.17057 0
M  V30 8440 C 879.206 3.48923 -0.0733393 0
M  V30 8441 C 880.554 4.24523 0.0806026 0
M  V30 8442 O 881.578 3.562 -5.58687e-05 0
M  V30 8443 O 880.437 5.45922 0.251216 0
M  V30 8444 H 877.531 0.823728 0.073493 0
M  V30 8445 H 880.077 1.5852 -0.605768 0
M  V30 8446 H 878.849 3.76059 -1.08144 0
M  V30 8447 H 878.472 3.92648 0.625536 0
M  V30 8448 N 879.47 0.276058 1.55163 0
M  V30 8449 C 880.7 -0.343274 2.03728 0
M  V30 8450 C 881.108 -1.49945 1.15383 0
M  V30 8451 O 880.451 -1.82942 0.166696 0
M  V30 8452 C 880.513 -0.885683 3.48419 0
M  V30 8453 C 880.177 0.141976 4.56779 0
M  V30 8454 C 881.174 0.961816 5.10926 0
M  V30 8455 C 878.859 0.276487 5.01538 0
M  V30 8456 C 880.853 1.90234 6.0835 0
M  V30 8457 C 878.54 1.22049 5.98788 0
M  V30 8458 C 879.538 2.03192 6.52075 0
M  V30 8459 O 879.226 2.95996 7.47423 0
M  V30 8460 H 878.958 -0.0822192 0.670981 0
M  V30 8461 H 881.512 0.406199 2.01343 0
M  V30 8462 H 879.742 -1.68524 3.48047 0
M  V30 8463 H 881.431 -1.4182 3.80318 0
M  V30 8464 H 882.197 0.868637 4.77158 0
M  V30 8465 H 878.076 -0.345095 4.59707 0
M  V30 8466 H 881.62 2.5361 6.49867 0
M  V30 8467 H 877.517 1.31448 6.31974 0
M  V30 8468 H 878.285 2.90688 7.65142 0
M  V30 8469 N 880.948 -1.576 0.00335426 0
M  V30 8470 C 881.911 -2.07576 -0.971838 0
M  V30 8471 C 882.911 -0.985796 -1.27038 0
M  V30 8472 O 884.101 -1.24833 -1.21501 0
M  V30 8473 C 881.233 -2.52003 -2.29581 0
M  V30 8474 H 882.426 -2.95008 -0.539481 0
M  V30 8475 H 879.979 -1.54381 -0.244186 0
M  V30 8476 H 880.714 -1.67825 -2.77498 0
M  V30 8477 H 880.499 -3.31609 -2.09231 0
M  V30 8478 H 881.989 -2.90983 -2.99531 0
M  V30 8479 N 882.426 0.269451 -1.5528 0
M  V30 8480 C 883.674 0.998604 -1.75705 0
M  V30 8481 C 883.995 1.86691 -0.563175 0
M  V30 8482 O 883.265 1.91305 0.421811 0
M  V30 8483 H 881.845 0.371698 -0.647958 0
M  V30 8484 H 884.507 0.292826 -1.92688 0
M  V30 8485 H 883.603 1.63348 -2.6594 0
M  V30 8486 N 883.904 1.48273 0.534124 0
M  V30 8487 C 885.151 1.56079 1.29017 0
M  V30 8488 C 885.479 0.232912 1.931 0
M  V30 8489 O 884.734 -0.77642 1.79639 0
M  V30 8490 C 885.033 2.64468 2.40398 0
M  V30 8491 C 884.699 4.07034 1.93995 0
M  V30 8492 C 883.361 4.45838 1.81058 0
M  V30 8493 C 885.713 4.96395 1.58877 0
M  V30 8494 C 883.041 5.71812 1.31331 0
M  V30 8495 C 885.393 6.22854 1.10614 0
M  V30 8496 C 884.057 6.60518 0.962895 0
M  V30 8497 H 883.327 0.571135 0.472108 0
M  V30 8498 H 885.974 1.81973 0.5965 0
M  V30 8499 H 884.279 2.32419 3.15418 0
M  V30 8500 H 885.976 2.67725 2.98537 0
M  V30 8501 H 882.566 3.76387 2.05015 0
M  V30 8502 H 886.75 4.67096 1.67734 0
M  V30 8503 H 882.006 5.99722 1.18924 0
M  V30 8504 H 886.18 6.91495 0.825095 0
M  V30 8505 H 883.807 7.58019 0.575369 0
M  V30 8506 N 885.382 -0.782676 1.36792 0
M  V30 8507 C 886.631 -1.53605 1.30723 0
M  V30 8508 C 886.944 -1.95294 -0.109296 0
M  V30 8509 O 888.15 -2.69921 -0.292398 0
M  V30 8510 C 886.606 -2.77321 2.29393 0
M  V30 8511 C 886.214 -2.42774 3.76517 0
M  V30 8512 C 887.958 -3.55289 2.32314 0
M  V30 8513 C 885.865 -3.62926 4.66947 0
M  V30 8514 H 884.795 -0.576646 0.485794 0
M  V30 8515 H 887.446 -0.858255 1.62192 0
M  V30 8516 H 885.828 -3.46934 1.90927 0
M  V30 8517 H 887.002 -1.81014 4.23758 0
M  V30 8518 H 885.317 -1.78002 3.76436 0
M  V30 8519 H 887.914 -4.44573 2.97083 0
M  V30 8520 H 888.257 -3.94361 1.3336 0
M  V30 8521 H 888.79 -2.92662 2.69432 0
M  V30 8522 H 885.529 -3.28944 5.66989 0
M  V30 8523 H 885.049 -4.23828 4.24418 0
M  V30 8524 H 886.728 -4.29873 4.83548 0
M  V30 8525 N 886.86 -1.21182 -1.00761 0
M  V30 8526 C 888.107 -1.02746 -1.74498 0
M  V30 8527 C 888.435 0.439344 -1.89473 0
M  V30 8528 O 887.69 1.34232 -1.42409 0
M  V30 8529 C 887.989 -1.6667 -3.16158 0
M  V30 8530 C 887.655 -3.16515 -3.21137 0
M  V30 8531 C 886.317 -3.57405 -3.22203 0
M  V30 8532 C 888.669 -4.12495 -3.18587 0
M  V30 8533 C 885.997 -4.92786 -3.18401 0
M  V30 8534 C 888.349 -5.47833 -3.16326 0
M  V30 8535 C 887.013 -5.88124 -3.157 0
M  V30 8536 H 886.283 -0.375974 -0.638533 0
M  V30 8537 H 888.93 -1.50736 -1.18114 0
M  V30 8538 H 887.235 -1.10966 -3.75758 0
M  V30 8539 H 888.932 -1.49911 -3.71924 0
M  V30 8540 H 885.522 -2.83947 -3.21048 0
M  V30 8541 H 889.706 -3.81932 -3.16925 0
M  V30 8542 H 884.962 -5.23253 -3.16253 0
M  V30 8543 H 889.136 -6.21942 -3.13306 0
M  V30 8544 H 886.763 -6.92995 -3.12508 0
M  V30 8545 N 888.338 1.20213 -1.01915 0
M  V30 8546 C 889.586 1.89272 -0.708552 0
M  V30 8547 C 889.907 1.79394 0.76438 0
M  V30 8548 O 889.177 1.198 1.54999 0
M  V30 8549 H 887.757 0.700628 -0.259094 0
M  V30 8550 H 890.419 1.45985 -1.29129 0
M  V30 8551 H 889.515 2.95841 -0.994215 0
M  V30 8552 N 889.816 0.795718 1.36037 0
M  V30 8553 C 891.046 0.382597 2.03026 0
M  V30 8554 C 891.454 -1.00779 1.60126 0
M  V30 8555 O 890.797 -1.65884 0.78919 0
M  V30 8556 C 890.859 0.374145 3.57548 0
M  V30 8557 C 890.523 1.71318 4.23673 0
M  V30 8558 C 891.52 2.6697 4.4612 0
M  V30 8559 C 889.205 1.99421 4.61017 0
M  V30 8560 C 891.199 3.88916 5.04998 0
M  V30 8561 C 888.886 3.21632 5.19611 0
M  V30 8562 C 889.884 4.16198 5.41542 0
M  V30 8563 O 889.572 5.36254 5.98905 0
M  V30 8564 H 889.304 0.154944 0.658003 0
M  V30 8565 H 891.858 1.07756 1.74865 0
M  V30 8566 H 890.088 -0.377349 3.84854 0
M  V30 8567 H 891.777 -0.01517 4.05897 0
M  V30 8568 H 892.543 2.46548 4.17659 0
M  V30 8569 H 888.422 1.2663 4.43267 0
M  V30 8570 H 891.966 4.6274 5.22032 0
M  V30 8571 H 887.863 3.4193 5.47498 0
M  V30 8572 H 888.631 5.37403 6.17366 0
M  V30 8573 N 891.294 -1.47756 0.548274 0
M  V30 8574 C 892.226 -2.27921 -0.24177 0
M  V30 8575 C 893.239 -1.36471 -0.887658 0
M  V30 8576 O 894.428 -1.6137 -0.763016 0
M  V30 8577 C 891.528 -3.10449 -1.35922 0
M  V30 8578 C 890.701 -4.298 -0.811808 0
M  V30 8579 C 889.76 -4.93994 -1.81264 0
M  V30 8580 O 888.786 -5.52657 -1.3623 0
M  V30 8581 N 889.988 -4.87882 -3.14566 0
M  V30 8582 H 892.753 -2.96365 0.445848 0
M  V30 8583 H 890.314 -1.57286 0.383769 0
M  V30 8584 H 892.306 -3.50261 -2.02729 0
M  V30 8585 H 890.876 -2.44306 -1.95021 0
M  V30 8586 H 890.096 -3.94186 0.0327929 0
M  V30 8587 H 891.384 -5.0702 -0.425272 0
M  V30 8588 H 890.782 -4.41405 -3.53805 0
M  V30 8589 H 889.339 -5.3174 -3.76956 0
M  V30 8590 N 892.772 -0.284283 -1.55015 0
M  V30 8591 C 894.049 0.382125 -1.91831 0
M  V30 8592 C 894.429 1.73007 -1.20962 0
M  V30 8593 O 893.777 2.25962 -0.339594 0
M  V30 8594 C 893.987 0.513341 -3.45204 0
M  V30 8595 C 895.335 0.791989 -4.17148 0
M  V30 8596 O 896.359 0.597799 -3.51148 0
M  V30 8597 O 895.218 1.16394 -5.33961 0
M  V30 8598 H 892.312 0.210707 -0.799707 0
M  V30 8599 H 894.858 -0.331111 -1.66438 0
M  V30 8600 H 893.63 -0.434911 -3.88876 0
M  V30 8601 H 893.253 1.27569 -3.76579 0
M  V30 8602 N 894.251 1.57596 -0.0117121 0
M  V30 8603 C 895.476 1.95764 0.684938 0
M  V30 8604 C 895.901 0.887285 1.65858 0
M  V30 8605 O 895.259 -0.153508 1.80649 0
M  V30 8606 C 895.307 3.33031 1.38285 0
M  V30 8607 O 894.411 3.28163 2.49765 0
M  V30 8608 H 893.752 0.638767 0.181309 0
M  V30 8609 H 896.282 2.04486 -0.0683883 0
M  V30 8610 H 896.292 3.68866 1.74362 0
M  V30 8611 H 894.967 4.10483 0.669043 0
M  V30 8612 H 893.544 3.04021 2.15929 0
M  V30 8613 N 895.729 -0.261212 1.5542 0
M  V30 8614 C 896.954 -1.01341 1.80955 0
M  V30 8615 C 897.379 -1.78711 0.586849 0
M  V30 8616 O 896.737 -1.75266 -0.463837 0
M  V30 8617 C 896.785 -1.93835 3.04073 0
M  V30 8618 O 895.889 -3.02791 2.79985 0
M  V30 8619 H 895.23 -0.289123 0.597749 0
M  V30 8620 H 897.76 -0.286543 2.02584 0
M  V30 8621 H 897.77 -2.3557 3.33123 0
M  V30 8622 H 896.445 -1.36936 3.9271 0
M  V30 8623 H 895.022 -2.65287 2.62063 0
M  V30 8624 N 897.207 -1.48554 -0.526253 0
M  V30 8625 C 898.432 -1.60686 -1.31129 0
M  V30 8626 C 898.857 -0.268701 -1.86171 0
M  V30 8627 O 898.215 0.760167 -1.64594 0
M  V30 8628 C 898.263 -2.65938 -2.43536 0
M  V30 8629 O 897.367 -2.23356 -3.46678 0
M  V30 8630 H 896.708 -0.538691 -0.388211 0
M  V30 8631 H 899.238 -1.94567 -0.632826 0
M  V30 8632 H 899.248 -2.87327 -2.89668 0
M  V30 8633 H 897.923 -3.63085 -2.02835 0
M  V30 8634 H 896.5 -2.12196 -3.06639 0
M  V30 8635 N 898.685 0.775411 -1.37205 0
M  V30 8636 C 899.932 1.53384 -1.32211 0
M  V30 8637 C 900.26 1.9427 0.0944958 0
M  V30 8638 O 899.515 1.64059 1.06692 0
M  V30 8639 C 899.814 2.81377 -2.20367 0
M  V30 8640 C 899.48 2.59561 -3.68699 0
M  V30 8641 C 898.142 2.53319 -4.09124 0
M  V30 8642 C 900.494 2.39939 -4.62686 0
M  V30 8643 C 897.822 2.25442 -5.41658 0
M  V30 8644 C 900.174 2.13586 -5.95453 0
M  V30 8645 C 898.838 2.05786 -6.34987 0
M  V30 8646 H 898.108 0.561271 -0.483793 0
M  V30 8647 H 900.755 0.893466 -1.6938 0
M  V30 8648 H 899.06 3.49954 -1.76181 0
M  V30 8649 H 900.757 3.39238 -2.13819 0
M  V30 8650 H 897.347 2.6528 -3.36637 0
M  V30 8651 H 901.531 2.43753 -4.32317 0
M  V30 8652 H 896.787 2.17896 -5.71254 0
M  V30 8653 H 900.961 1.97401 -6.67837 0
M  V30 8654 H 898.588 1.83948 -7.37609 0
M  V30 8655 N 900.163 1.21714 1.00117 0
M  V30 8656 C 901.393 1.06124 1.77261 0
M  V30 8657 C 901.801 -0.391717 1.85101 0
M  V30 8658 O 901.144 -1.28347 1.31426 0
M  V30 8659 C 901.206 1.58778 3.22536 0
M  V30 8660 C 900.87 3.07289 3.38264 0
M  V30 8661 C 901.867 4.04801 3.26239 0
M  V30 8662 C 899.552 3.46574 3.63582 0
M  V30 8663 C 901.546 5.39585 3.39303 0
M  V30 8664 C 899.233 4.81509 3.76288 0
M  V30 8665 C 900.231 5.77824 3.64155 0
M  V30 8666 O 899.919 7.1031 3.7645 0
M  V30 8667 H 899.651 0.372979 0.563793 0
M  V30 8668 H 902.205 1.61589 1.26799 0
M  V30 8669 H 900.435 0.977129 3.74151 0
M  V30 8670 H 902.124 1.38974 3.81367 0
M  V30 8671 H 902.89 3.75795 3.066 0
M  V30 8672 H 898.769 2.72137 3.72106 0
M  V30 8673 H 902.313 6.14744 3.2975 0
M  V30 8674 H 898.21 5.102 3.95432 0
M  V30 8675 H 898.978 7.17774 3.93374 0
M  V30 8676 N 901.641 -1.19671 1.02551 0
M  V30 8677 C 902.887 -1.89548 0.721069 0
M  V30 8678 C 903.22 -1.79209 -0.748176 0
M  V30 8679 O 902.495 -1.1822 -1.54448 0
M  V30 8680 C 902.778 -3.4061 1.16861 0
M  V30 8681 C 902.631 -3.59838 2.69883 0
M  V30 8682 C 903.95 -4.33718 0.746782 0
M  V30 8683 H 901.069 -0.688315 0.263422 0
M  V30 8684 H 903.711 -1.40883 1.27483 0
M  V30 8685 H 901.861 -3.82188 0.697477 0
M  V30 8686 H 903.533 -3.27454 3.24917 0
M  V30 8687 H 901.776 -3.03005 3.10435 0
M  V30 8688 H 902.447 -4.65766 2.96253 0
M  V30 8689 H 904.923 -3.99837 1.15195 0
M  V30 8690 H 903.799 -5.38012 1.08786 0
M  V30 8691 H 904.06 -4.40704 -0.351057 0
M  V30 8692 N 903.119 -0.802921 -1.35613 0
M  V30 8693 C 904.365 -0.382141 -1.99167 0
M  V30 8694 C 904.698 1.04704 -1.63556 0
M  V30 8695 O 903.973 1.72578 -0.89706 0
M  V30 8696 C 904.256 -0.561493 -3.55695 0
M  V30 8697 C 904.109 -2.03534 -4.01116 0
M  V30 8698 C 905.428 0.0151135 -4.40097 0
M  V30 8699 H 902.547 -0.140322 -0.723518 0
M  V30 8700 H 905.189 -1.01177 -1.6082 0
M  V30 8701 H 903.339 -0.0255083 -3.88492 0
M  V30 8702 H 905.011 -2.63343 -3.78746 0
M  V30 8703 H 903.254 -2.5331 -3.52159 0
M  V30 8704 H 903.925 -2.11173 -5.1001 0
M  V30 8705 H 906.401 -0.442582 -4.1374 0
M  V30 8706 H 905.277 -0.140316 -5.48721 0
M  V30 8707 H 905.538 1.10848 -4.27978 0
M  V30 8708 N 904.597 1.47463 -0.556102 0
M  V30 8709 C 905.53 2.26934 0.240027 0
M  V30 8710 C 906.508 1.33981 0.921297 0
M  V30 8711 O 907.692 1.63361 0.940506 0
M  V30 8712 C 904.819 3.10982 1.34194 0
M  V30 8713 C 903.865 4.19504 0.769342 0
M  V30 8714 S 904.698 5.34127 -0.383209 0
M  V30 8715 C 905.854 6.21739 0.720548 0
M  V30 8716 H 906.087 2.9411 -0.434348 0
M  V30 8717 H 903.62 1.50556 -0.342402 0
M  V30 8718 H 905.578 3.59976 1.973 0
M  V30 8719 H 904.239 2.4317 1.98814 0
M  V30 8720 H 903.432 4.78036 1.59679 0
M  V30 8721 H 903.034 3.73385 0.214475 0
M  V30 8722 H 905.326 6.58021 1.61292 0
M  V30 8723 H 906.269 7.0789 0.172602 0
M  V30 8724 H 906.677 5.55342 1.01272 0
M  V30 8725 N 906.075 0.2925 1.54862 0
M  V30 8726 C 907.321 -0.312645 2.00983 0
M  V30 8727 C 907.676 -1.52174 1.17732 0
M  V30 8728 O 906.969 -1.90045 0.243581 0
M  V30 8729 C 907.163 -0.728674 3.49893 0
M  V30 8730 C 906.992 0.438562 4.47556 0
M  V30 8731 C 905.762 0.927885 4.96708 0
M  V30 8732 C 907.96 1.28076 4.98097 0
M  V30 8733 N 905.942 2.06277 5.78207 0
M  V30 8734 C 907.313 2.26326 5.77214 0
M  V30 8735 C 909.368 1.31211 4.803 0
M  V30 8736 C 908.071 3.27478 6.4043 0
M  V30 8737 C 910.097 2.31216 5.44328 0
M  V30 8738 C 909.459 3.28197 6.23271 0
M  V30 8739 H 905.558 -0.0790979 0.777989 0
M  V30 8740 H 908.142 0.420481 1.90105 0
M  V30 8741 H 906.313 -1.43099 3.61078 0
M  V30 8742 H 908.045 -1.31263 3.82821 0
M  V30 8743 H 904.8 0.504272 4.70908 0
M  V30 8744 H 905.224 2.63436 6.23643 0
M  V30 8745 H 909.866 0.576079 4.18857 0
M  V30 8746 H 907.584 4.02005 7.01012 0
M  V30 8747 H 911.17 2.34405 5.3249 0
M  V30 8748 H 910.05 4.04314 6.71937 0
M  V30 8749 N 907.553 -1.57587 0.0200696 0
M  V30 8750 C 908.5 -2.09667 -0.964791 0
M  V30 8751 C 909.47 -0.99664 -1.32877 0
M  V30 8752 O 910.655 -1.2703 -1.42366 0
M  V30 8753 C 907.795 -2.62101 -2.24493 0
M  V30 8754 C 906.908 -3.8608 -1.93821 0
M  V30 8755 C 906.043 -4.26939 -3.16064 0
M  V30 8756 C 905.082 -5.43701 -2.81169 0
M  V30 8757 N 904.219 -5.79759 -3.9601 0
M  V30 8758 H 909.059 -2.93538 -0.513751 0
M  V30 8759 H 906.596 -1.45096 -0.242 0
M  V30 8760 H 908.554 -2.90587 -2.99358 0
M  V30 8761 H 907.184 -1.81074 -2.6723 0
M  V30 8762 H 906.236 -3.64378 -1.09237 0
M  V30 8763 H 907.548 -4.71028 -1.64115 0
M  V30 8764 H 906.702 -4.56814 -3.99257 0
M  V30 8765 H 905.441 -3.40739 -3.48924 0
M  V30 8766 H 904.446 -5.13529 -1.96387 0
M  V30 8767 H 905.671 -6.31593 -2.49535 0
M  V30 8768 H 903.617 -4.96516 -4.28729 0
M  V30 8769 H 903.534 -6.59327 -3.69896 0
M  V30 8770 H 904.802 -6.14235 -4.79933 0
M  V30 8771 N 909.032 0.252966 -1.55557 0
M  V30 8772 C 909.964 1.33585 -1.86246 0
M  V30 8773 C 910.977 1.44584 -0.748291 0
M  V30 8774 O 912.166 1.46042 -1.02635 0
M  V30 8775 C 909.266 2.71509 -2.02821 0
M  V30 8776 C 908.439 2.82853 -3.33636 0
M  V30 8777 C 907.498 4.01581 -3.40028 0
M  V30 8778 O 906.524 3.91394 -4.13278 0
M  V30 8779 N 907.726 5.14474 -2.6888 0
M  V30 8780 H 910.491 1.07596 -2.7972 0
M  V30 8781 H 908.052 0.443075 -1.55719 0
M  V30 8782 H 910.044 3.49262 -2.04445 0
M  V30 8783 H 908.614 2.90232 -1.1612 0
M  V30 8784 H 907.834 1.91823 -3.4438 0
M  V30 8785 H 909.122 2.87378 -4.19871 0
M  V30 8786 H 908.52 5.25641 -2.09087 0
M  V30 8787 H 907.077 5.90385 -2.76204 0
M  V30 8788 N 910.51 1.48831 0.518367 0
M  V30 8789 C 911.443 1.588 1.63884 0
M  V30 8790 C 912.421 0.437847 1.56594 0
M  V30 8791 O 913.605 0.651042 1.769 0
M  V30 8792 C 910.732 1.52681 3.02335 0
M  V30 8793 C 909.778 2.7268 3.27945 0
M  V30 8794 S 910.611 4.34536 3.12951 0
M  V30 8795 C 911.767 4.31034 4.53828 0
M  V30 8796 H 912 2.53587 1.5518 0
M  V30 8797 H 909.533 1.37507 0.702218 0
M  V30 8798 H 911.491 1.49837 3.82177 0
M  V30 8799 H 910.152 0.592107 3.08469 0
M  V30 8800 H 909.345 2.64569 4.28974 0
M  V30 8801 H 908.947 2.72847 2.55794 0
M  V30 8802 H 911.239 4.01683 5.45579 0
M  V30 8803 H 912.182 5.32282 4.66991 0
M  V30 8804 H 912.59 3.61343 4.33695 0
M  V30 8805 N 911.988 -0.768124 1.37614 0
M  V30 8806 C 912.898 -1.91249 1.35871 0
M  V30 8807 C 913.914 -1.7208 0.257786 0
M  V30 8808 O 915.09 -1.95253 0.493782 0
M  V30 8809 C 912.155 -3.26423 1.16829 0
M  V30 8810 C 911.216 -3.5822 2.36594 0
M  V30 8811 C 910.449 -4.86945 2.1845 0
M  V30 8812 O 910.672 -5.58258 1.17064 0
M  V30 8813 O 909.606 -5.17888 3.06718 0
M  V30 8814 H 913.432 -1.95671 2.32264 0
M  V30 8815 H 911.017 -0.911382 1.18382 0
M  V30 8816 H 912.899 -4.07269 1.08212 0
M  V30 8817 H 911.574 -3.22845 0.235123 0
M  V30 8818 H 910.481 -2.77594 2.50783 0
M  V30 8819 H 911.814 -3.66545 3.2849 0
M  V30 8820 N 913.466 -1.22244 -0.994698 0
M  V30 8821 C 914.398 -0.948706 -2.08644 0
M  V30 8822 C 915.411 0.0720049 -1.62641 0
M  V30 8823 O 916.6 -0.161778 -1.77765 0
M  V30 8824 C 913.7 -0.404885 -3.36473 0
M  V30 8825 C 912.873 -1.48239 -4.11514 0
M  V30 8826 C 911.932 -0.94597 -5.17627 0
M  V30 8827 O 910.958 -1.63177 -5.45309 0
M  V30 8828 N 912.16 0.23355 -5.8003 0
M  V30 8829 H 914.925 -1.88858 -2.32707 0
M  V30 8830 H 912.486 -1.12908 -1.16032 0
M  V30 8831 H 914.478 -0.0313903 -4.04688 0
M  V30 8832 H 913.048 0.440061 -3.09487 0
M  V30 8833 H 912.268 -2.02928 -3.37955 0
M  V30 8834 H 913.556 -2.20741 -4.58422 0
M  V30 8835 H 912.954 0.80756 -5.59906 0
M  V30 8836 H 911.511 0.54845 -6.49488 0
M  V30 8837 N 914.944 1.19125 -1.03184 0
M  V30 8838 C 916.172 1.92838 -0.74975 0
M  V30 8839 C 916.587 1.75667 0.691851 0
M  V30 8840 O 915.944 1.0805 1.47076 0
M  V30 8841 C 915.995 3.44509 -1.09525 0
M  V30 8842 O 915.716 3.6113 -2.48025 0
M  V30 8843 C 917.217 4.35338 -0.836397 0
M  V30 8844 H 914.437 0.61246 -0.274105 0
M  V30 8845 H 916.981 1.5118 -1.37712 0
M  V30 8846 H 915.136 3.83988 -0.513006 0
M  V30 8847 H 915.55 4.54959 -2.60984 0
M  V30 8848 H 917.024 5.4035 -1.12808 0
M  V30 8849 H 917.501 4.38602 0.229102 0
M  V30 8850 H 918.107 4.01544 -1.40152 0
M  V30 8851 N 916.422 0.810101 1.35185 0
M  V30 8852 C 917.652 0.404109 2.02609 0
M  V30 8853 C 918.06 -0.990748 1.61186 0
M  V30 8854 O 917.403 -1.65038 0.80674 0
M  V30 8855 C 917.465 0.412047 3.57131 0
M  V30 8856 C 917.129 1.75802 4.21832 0
M  V30 8857 C 918.126 2.71687 4.43263 0
M  V30 8858 C 915.811 2.04299 4.58876 0
M  V30 8859 C 917.805 3.9425 5.00845 0
M  V30 8860 C 915.492 3.27125 5.16171 0
M  V30 8861 C 916.49 4.21918 5.37098 0
M  V30 8862 O 916.178 5.42576 5.93184 0
M  V30 8863 H 915.91 0.161914 0.656323 0
M  V30 8864 H 918.464 1.09605 1.73712 0
M  V30 8865 H 916.694 -0.336509 3.85233 0
M  V30 8866 H 918.383 0.0278817 4.0589 0
M  V30 8867 H 919.149 2.50964 4.15021 0
M  V30 8868 H 915.028 1.31324 4.41899 0
M  V30 8869 H 918.572 4.68251 5.17094 0
M  V30 8870 H 914.469 3.47718 5.43841 0
M  V30 8871 H 915.237 5.43921 6.11631 0
M  V30 8872 N 917.9 -1.47166 0.563914 0
M  V30 8873 C 919.146 -2.03337 0.0506932 0
M  V30 8874 C 919.501 -1.42976 -1.28746 0
M  V30 8875 O 918.794 -0.578508 -1.82658 0
M  V30 8876 C 918.988 -3.57279 -0.0931797 0
M  V30 8877 C 918.817 -4.32567 1.22948 0
M  V30 8878 C 917.587 -4.72206 1.79859 0
M  V30 8879 C 919.785 -4.67282 2.14829 0
M  V30 8880 N 917.767 -5.32166 3.0606 0
M  V30 8881 C 919.138 -5.27615 3.25611 0
M  V30 8882 C 921.193 -4.49211 2.14741 0
M  V30 8883 C 919.896 -5.71784 4.36412 0
M  V30 8884 C 921.922 -4.94384 3.24559 0
M  V30 8885 C 921.284 -5.54771 4.34061 0
M  V30 8886 H 917.383 -0.779627 0.0608761 0
M  V30 8887 H 919.967 -1.79563 0.75268 0
M  V30 8888 H 918.138 -3.80806 -0.764301 0
M  V30 8889 H 919.87 -4.0009 -0.609075 0
M  V30 8890 H 916.625 -4.54372 1.33577 0
M  V30 8891 H 917.049 -5.66684 3.70404 0
M  V30 8892 H 921.691 -4.01875 1.31362 0
M  V30 8893 H 919.409 -6.18108 5.20546 0
M  V30 8894 H 922.995 -4.82167 3.25586 0
M  V30 8895 H 921.875 -5.89087 5.17635 0
M  V30 8896 N 919.378 -0.300708 -1.54705 0
M  V30 8897 C 920.31 0.609179 -2.20956 0
M  V30 8898 C 921.323 1.09776 -1.20221 0
M  V30 8899 O 922.512 1.01527 -1.46815 0
M  V30 8900 C 919.612 1.84595 -2.84214 0
M  V30 8901 C 918.785 1.49991 -4.10879 0
M  V30 8902 C 917.844 2.5918 -4.57943 0
M  V30 8903 O 916.87 2.24285 -5.23149 0
M  V30 8904 N 918.072 3.89714 -4.30236 0
M  V30 8905 H 920.837 0.0420111 -2.99671 0
M  V30 8906 H 918.398 -0.122896 -1.61433 0
M  V30 8907 H 920.39 2.56988 -3.12633 0
M  V30 8908 H 918.96 2.32152 -2.09342 0
M  V30 8909 H 918.18 0.608637 -3.89473 0
M  V30 8910 H 919.468 1.24409 -4.93356 0
M  V30 8911 H 918.866 4.20874 -3.77997 0
M  V30 8912 H 917.423 4.58406 -4.63365 0
M  V30 8913 N 920.856 1.57574 -0.0284266 0
M  V30 8914 C 921.819 2.09096 0.938691 0
M  V30 8915 C 922.819 1.00588 1.25454 0
M  V30 8916 O 924.009 1.2675 1.19499 0
M  V30 8917 C 921.141 2.55624 2.25542 0
M  V30 8918 H 922.334 2.95829 0.49248 0
M  V30 8919 H 919.887 1.5475 0.219594 0
M  V30 8920 H 920.622 1.72218 2.74793 0
M  V30 8921 H 920.407 3.34896 2.03929 0
M  V30 8922 H 921.897 2.95712 2.94863 0
M  V30 8923 N 922.334 -0.244713 1.55689 0
M  V30 8924 C 923.282 -1.32276 1.91326 0
M  V30 8925 C 924.276 -1.49714 0.792589 0
M  V30 8926 O 925.482 -1.51163 0.977227 0
M  V30 8927 H 921.857 -0.442979 0.607679 0
M  V30 8928 H 923.828 -0.99486 2.81327 0
M  V30 8929 C 922.577 -2.67077 2.22633 0
M  V30 8930 H 921.9 -2.54458 3.08368 0
M  V30 8931 H 923.34 -3.41378 2.5147 0
M  V30 8932 C 921.799 -3.20335 1.04342 0
M  V30 8933 O 922.329 -4.00633 0.292543 0
M  V30 8934 N 920.535 -2.78392 0.833457 0
M  V30 8935 H 920.082 -2.13202 1.44577 0
M  V30 8936 H 920.04 -3.1437 0.0436713 0
M  V30 8937 N 923.813 -1.49104 -0.510467 0
M  V30 8938 C 925.224 -1.51423 -1.09215 0
M  V30 8939 C 925.575 -0.295035 -1.93969 0
M  V30 8940 O 924.7 0.596064 -2.08029 0
M  V30 8941 C 925.295 -2.74387 -1.98739 0
M  V30 8942 C 923.854 -2.79515 -2.52088 0
M  V30 8943 C 923.001 -2.4521 -1.29488 0
M  V30 8944 H 925.952 -1.55938 -0.294807 0
M  V30 8945 H 925.973 -2.54012 -2.83298 0
M  V30 8946 H 925.485 -3.63105 -1.37026 0
M  V30 8947 H 923.586 -1.95054 -3.17466 0
M  V30 8948 H 923.699 -3.81447 -2.89887 0
M  V30 8949 H 922.063 -1.96785 -1.61703 0
M  V30 8950 H 922.846 -3.36192 -0.694978 0
M  V30 8951 N 925.291 0.760815 -1.38019 0
M  V30 8952 C 926.538 1.51973 -1.3383 0
M  V30 8953 C 926.866 1.9436 0.0738855 0
M  V30 8954 O 926.121 1.65181 1.04946 0
M  V30 8955 C 926.42 2.79024 -2.23339 0
M  V30 8956 C 926.086 2.55636 -3.71431 0
M  V30 8957 C 924.748 2.48966 -4.11788 0
M  V30 8958 C 927.1 2.35018 -4.65205 0
M  V30 8959 C 924.428 2.19684 -5.44018 0
M  V30 8960 C 926.78 2.07258 -5.97685 0
M  V30 8961 C 925.444 1.9904 -6.37134 0
M  V30 8962 H 924.714 0.556108 -0.489719 0
M  V30 8963 H 927.361 0.87545 -1.70318 0
M  V30 8964 H 925.666 3.48065 -1.79883 0
M  V30 8965 H 927.363 3.36951 -2.17405 0
M  V30 8966 H 923.953 2.61695 -3.39432 0
M  V30 8967 H 928.137 2.39154 -4.34878 0
M  V30 8968 H 923.393 2.11825 -5.73533 0
M  V30 8969 H 927.567 1.90307 -6.69893 0
M  V30 8970 H 925.194 1.76115 -7.39519 0
M  V30 8971 N 926.769 1.22769 0.988202 0
M  V30 8972 C 928.185 0.988665 1.2529 0
M  V30 8973 C 928.385 -0.314938 1.99024 0
M  V30 8974 O 927.441 -1.03637 2.30251 0
M  V30 8975 C 928.754 2.19046 2.06009 0
M  V30 8976 C 930.302 2.23452 2.19176 0
M  V30 8977 C 930.777 3.43196 3.03283 0
M  V30 8978 N 932.268 3.43387 3.10869 0
M  V30 8979 C 933.003 4.32693 3.7625 0
M  V30 8980 N 932.499 5.32224 4.43519 0
M  V30 8981 N 934.292 4.20457 3.73058 0
M  V30 8982 H 926.443 2.06575 0.494014 0
M  V30 8983 H 928.706 0.905452 0.28082 0
M  V30 8984 H 928.412 3.13607 1.59197 0
M  V30 8985 H 928.286 2.19492 3.06763 0
M  V30 8986 H 930.673 1.29436 2.65199 0
M  V30 8987 H 930.754 2.27042 1.17836 0
M  V30 8988 H 930.398 4.37515 2.57959 0
M  V30 8989 H 930.328 3.36847 4.04774 0
M  V30 8990 H 932.819 2.71368 2.62998 0
M  V30 8991 H 933.132 5.9664 4.91163 0
M  V30 8992 H 931.477 5.36133 4.42252 0
M  V30 8993 H 934.668 3.41949 3.19669 0
M  V30 8994 H 934.841 4.90261 4.23731 0
M  V30 8995 N 928.247 -1.18576 1.03814 0
M  V30 8996 C 929.21 -2.2033 0.63146 0
M  V30 8997 C 930.21 -1.57787 -0.309816 0
M  V30 8998 O 931.4 -1.73938 -0.0955598 0
M  V30 8999 C 928.532 -3.40818 -0.0745963 0
M  V30 9000 H 929.725 -2.57824 1.53189 0
M  V30 9001 H 927.278 -1.32416 0.830398 0
M  V30 9002 H 928.013 -3.08853 -0.988947 0
M  V30 9003 H 927.798 -3.87453 0.6019 0
M  V30 9004 H 929.288 -4.16166 -0.345727 0
M  V30 9005 N 929.725 -0.817259 -1.34754 0
M  V30 9006 C 930.971 -0.403244 -1.98751 0
M  V30 9007 C 931.304 1.02963 -1.64658 0
M  V30 9008 O 930.579 1.71617 -0.915314 0
M  V30 9009 C 930.862 -0.599188 -3.5508 0
M  V30 9010 C 930.715 -2.07777 -3.98934 0
M  V30 9011 C 932.034 -0.0315656 -4.40089 0
M  V30 9012 H 929.153 -0.147988 -0.721989 0
M  V30 9013 H 931.795 -1.02877 -1.59738 0
M  V30 9014 H 929.945 -0.0667116 -3.88443 0
M  V30 9015 H 931.617 -2.67345 -3.75931 0
M  V30 9016 H 929.86 -2.57031 -3.49453 0
M  V30 9017 H 930.531 -2.16571 -5.07741 0
M  V30 9018 H 933.007 -0.48644 -4.13247 0
M  V30 9019 H 931.883 -0.198507 -5.48541 0
M  V30 9020 H 932.144 1.06302 -4.2913 0
M  V30 9021 N 931.203 1.46865 -0.571711 0
M  V30 9022 C 932.166 2.28658 0.157499 0
M  V30 9023 C 933.166 1.37773 0.829172 0
M  V30 9024 O 934.356 1.6026 0.682811 0
M  V30 9025 C 931.488 3.17859 1.23202 0
M  V30 9026 H 932.681 2.94603 -0.561171 0
M  V30 9027 H 930.234 1.52793 -0.329229 0
M  V30 9028 H 930.969 2.56637 1.98262 0
M  V30 9029 H 930.754 3.84762 0.755031 0
M  V30 9030 H 932.244 3.7945 1.74378 0
M  V30 9031 N 932.681 0.308908 1.54543 0
M  V30 9032 C 933.591 -0.572939 2.27496 0
M  V30 9033 C 934.607 -1.14171 1.31305 0
M  V30 9034 O 935.783 -1.16481 1.64299 0
M  V30 9035 C 932.848 -1.72483 3.0075 0
M  V30 9036 C 931.909 -1.18934 4.12496 0
M  V30 9037 C 931.142 -2.28634 4.82247 0
M  V30 9038 O 931.365 -3.48691 4.5141 0
M  V30 9039 O 930.299 -1.94879 5.69478 0
M  V30 9040 H 934.125 0.0190877 3.03694 0
M  V30 9041 H 931.71 0.0750943 1.49211 0
M  V30 9042 H 933.592 -2.39578 3.46671 0
M  V30 9043 H 932.267 -2.30332 2.2744 0
M  V30 9044 H 931.174 -0.483904 3.70957 0
M  V30 9045 H 932.507 -0.656185 4.87806 0
M  V30 9046 N 934.159 -1.57557 0.0367827 0
M  V30 9047 C 935.57 -1.79853 -0.500971 0
M  V30 9048 C 935.921 -0.947749 -1.71791 0
M  V30 9049 O 935.046 -0.160287 -2.15806 0
M  V30 9050 C 935.641 -3.26193 -0.915626 0
M  V30 9051 C 934.2 -3.49457 -1.39845 0
M  V30 9052 C 933.347 -2.74864 -0.366784 0
M  V30 9053 H 936.298 -1.56509 0.262768 0
M  V30 9054 H 936.319 -3.36324 -1.7795 0
M  V30 9055 H 935.831 -3.88089 -0.0297227 0
M  V30 9056 H 933.932 -2.92823 -2.30402 0
M  V30 9057 H 934.045 -4.58172 -1.40054 0
M  V30 9058 H 932.409 -2.4057 -0.836554 0
M  V30 9059 H 933.192 -3.39479 0.510785 0
M  V30 9060 N 935.637 0.236453 -1.55816 0
M  V30 9061 C 936.885 0.96111 -1.77784 0
M  V30 9062 C 937.206 1.85454 -0.602648 0
M  V30 9063 O 936.476 1.92157 0.381137 0
M  V30 9064 H 935.056 0.35787 -0.655697 0
M  V30 9065 H 937.718 0.251888 -1.93265 0
M  V30 9066 H 936.814 1.5767 -2.69345 0
M  V30 9067 N 937.115 1.49373 0.502552 0
M  V30 9068 C 938.364 1.58028 1.25339 0
M  V30 9069 C 938.677 0.271494 1.93707 0
M  V30 9070 O 939.883 0.236584 2.70467 0
M  V30 9071 C 938.339 2.78817 2.27572 0
M  V30 9072 C 937.947 4.16448 1.65151 0
M  V30 9073 C 939.691 2.96802 3.03494 0
M  V30 9074 C 937.598 5.28461 2.65486 0
M  V30 9075 H 936.528 0.588396 0.471494 0
M  V30 9076 H 939.179 1.75756 0.52744 0
M  V30 9077 H 937.561 2.5458 3.03323 0
M  V30 9078 H 938.735 4.50816 0.954029 0
M  V30 9079 H 937.05 4.03809 1.01625 0
M  V30 9080 H 939.647 3.77656 3.78524 0
M  V30 9081 H 939.99 2.07303 3.61014 0
M  V30 9082 H 940.523 3.21071 2.34858 0
M  V30 9083 H 937.262 6.20015 2.12749 0
M  V30 9084 H 936.782 4.9855 3.33479 0
M  V30 9085 H 938.461 5.5773 3.27943 0
M  V30 9086 N 938.594 -0.753485 1.38421 0
M  V30 9087 C 939.526 -1.87692 1.31547 0
M  V30 9088 C 940.539 -1.612 0.227671 0
M  V30 9089 O 941.728 -1.71778 0.485238 0
M  V30 9090 C 938.828 -3.23329 1.01545 0
M  V30 9091 C 938.001 -3.77324 2.21236 0
M  V30 9092 C 937.06 -4.91478 1.87977 0
M  V30 9093 O 936.086 -5.06106 2.60472 0
M  V30 9094 N 937.288 -5.74466 0.834796 0
M  V30 9095 H 940.053 -1.94099 2.28354 0
M  V30 9096 H 937.614 -0.933421 1.32283 0
M  V30 9097 H 939.606 -3.9724 0.773477 0
M  V30 9098 H 938.176 -3.12307 0.135334 0
M  V30 9099 H 937.396 -2.94978 2.61498 0
M  V30 9100 H 938.684 -4.10131 3.01115 0
M  V30 9101 H 938.082 -5.65217 0.233606 0
M  V30 9102 H 936.639 -6.48524 0.652703 0
M  V30 9103 N 940.072 -1.23292 -0.981677 0
M  V30 9104 C 941.002 -1.03738 -2.09191 0
M  V30 9105 C 941.983 0.0453041 -1.7004 0
M  V30 9106 O 943.168 -0.119092 -1.93834 0
M  V30 9107 C 940.298 -0.626426 -3.41604 0
M  V30 9108 C 939.252 -1.65631 -3.94652 0
M  V30 9109 C 938.578 -1.10084 -5.23245 0
M  V30 9110 C 939.878 -3.04903 -4.24066 0
M  V30 9111 H 941.572 -1.966 -2.25807 0
M  V30 9112 H 939.118 -0.946656 -1.0851 0
M  V30 9113 H 941.071 -0.476689 -4.18695 0
M  V30 9114 H 939.795 0.337873 -3.24848 0
M  V30 9115 H 938.454 -1.79402 -3.19704 0
M  V30 9116 H 938.102 -0.127562 -5.02838 0
M  V30 9117 H 937.802 -1.78896 -5.59705 0
M  V30 9118 H 939.326 -0.962928 -6.02959 0
M  V30 9119 H 940.74 -2.94441 -4.91912 0
M  V30 9120 H 939.137 -3.70941 -4.71724 0
M  V30 9121 H 940.207 -3.53991 -3.31389 0
M  V30 9122 N 941.55 1.18024 -1.04442 0
M  V30 9123 C 942.497 2.21785 -0.638759 0
M  V30 9124 C 943.467 1.62255 0.355312 0
M  V30 9125 O 944.652 1.89176 0.24844 0
M  V30 9126 C 941.792 3.45098 -0.0118002 0
M  V30 9127 C 940.905 4.1895 -1.05379 0
M  V30 9128 C 940.04 5.2973 -0.394951 0
M  V30 9129 C 939.079 5.95359 -1.42178 0
M  V30 9130 N 938.216 6.97668 -0.787635 0
M  V30 9131 H 943.056 2.55839 -1.52808 0
M  V30 9132 H 940.593 1.25681 -0.764378 0
M  V30 9133 H 942.551 4.15564 0.369075 0
M  V30 9134 H 941.181 3.11652 0.84102 0
M  V30 9135 H 940.233 3.47274 -1.55258 0
M  V30 9136 H 941.545 4.63877 -1.83355 0
M  V30 9137 H 940.699 6.06687 0.0399244 0
M  V30 9138 H 939.438 4.85915 0.416867 0
M  V30 9139 H 938.443 5.17139 -1.86675 0
M  V30 9140 H 939.668 6.41255 -2.23536 0
M  V30 9141 H 937.614 6.56 0.00380893 0
M  V30 9142 H 937.531 7.40867 -1.50505 0
M  V30 9143 H 938.799 7.78586 -0.377282 0
M  V30 9144 N 943.028 0.824394 1.34319 0
M  V30 9145 C 943.991 0.252696 2.27803 0
M  V30 9146 C 944.991 -0.570254 1.50349 0
M  V30 9147 O 946.181 -0.386145 1.69866 0
M  V30 9148 C 943.313 -0.645575 3.34731 0
M  V30 9149 H 944.506 1.07742 2.79878 0
M  V30 9150 H 942.059 0.596367 1.44475 0
M  V30 9151 H 942.794 -1.4933 2.87873 0
M  V30 9152 H 942.579 -0.0569478 3.92059 0
M  V30 9153 H 944.069 -1.03933 4.0446 0
M  V30 9154 N 944.506 -1.46559 0.579492 0
M  V30 9155 C 945.752 -2.02699 0.0639363 0
M  V30 9156 C 946.085 -1.4504 -1.29139 0
M  V30 9157 O 945.36 -0.614284 -1.84545 0
M  V30 9158 C 945.643 -3.601 -0.00528618 0
M  V30 9159 C 945.496 -4.28149 1.37871 0
M  V30 9160 C 946.815 -4.34375 -0.707537 0
M  V30 9161 H 943.934 -0.736586 0.0247085 0
M  V30 9162 H 946.576 -1.74739 0.746071 0
M  V30 9163 H 944.726 -3.84052 -0.586206 0
M  V30 9164 H 946.398 -4.1547 2.00455 0
M  V30 9165 H 944.641 -3.87636 1.94732 0
M  V30 9166 H 945.312 -5.36888 1.28278 0
M  V30 9167 H 947.788 -4.15549 -0.214064 0
M  V30 9168 H 946.664 -5.44091 -0.724992 0
M  V30 9169 H 946.925 -4.052 -1.7682 0
M  V30 9170 N 945.984 -0.3171 -1.54377 0
M  V30 9171 C 946.931 0.551782 -2.24107 0
M  V30 9172 C 947.901 1.11681 -1.22949 0
M  V30 9173 O 949.086 1.15836 -1.51614 0
M  V30 9174 C 946.226 1.70997 -2.99756 0
M  V30 9175 C 945.339 1.17479 -4.15719 0
M  V30 9176 C 944.474 2.29815 -4.78914 0
M  V30 9177 C 943.513 1.73513 -5.86992 0
M  V30 9178 N 942.65 2.79485 -6.44075 0
M  V30 9179 H 947.49 -0.049431 -2.97959 0
M  V30 9180 H 945.027 -0.0361658 -1.47056 0
M  V30 9181 H 946.985 2.39141 -3.41859 0
M  V30 9182 H 945.615 2.28257 -2.28251 0
M  V30 9183 H 944.667 0.385109 -3.78446 0
M  V30 9184 H 945.979 0.72276 -4.93536 0
M  V30 9185 H 945.133 3.05875 -5.23952 0
M  V30 9186 H 943.872 2.78352 -4.00464 0
M  V30 9187 H 942.877 0.959475 -5.41363 0
M  V30 9188 H 944.102 1.2586 -6.67335 0
M  V30 9189 H 942.048 3.27325 -5.68502 0
M  V30 9190 H 941.965 2.38825 -7.17286 0
M  V30 9191 H 943.233 3.55394 -6.93769 0
M  V30 9192 N 947.462 1.57535 -0.0451378 0
M  V30 9193 C 948.687 1.97172 0.64326 0
M  V30 9194 C 949.112 0.922266 1.63939 0
M  V30 9195 O 948.47 -0.115155 1.80934 0
M  V30 9196 C 948.518 3.35889 1.3119 0
M  V30 9197 O 947.622 3.33387 2.42748 0
M  V30 9198 H 946.963 0.642469 0.167719 0
M  V30 9199 H 949.493 2.04295 -0.111747 0
M  V30 9200 H 949.503 3.72481 1.66499 0
M  V30 9201 H 948.178 4.1181 0.581823 0
M  V30 9202 H 946.755 3.08533 2.09432 0
M  V30 9203 N 948.94 -0.228186 1.55939 0
M  V30 9204 C 950.165 -0.974795 1.83064 0
M  V30 9205 C 950.59 -1.77426 0.624624 0
M  V30 9206 O 949.948 -1.76211 -0.426556 0
M  V30 9207 C 949.996 -1.87342 3.08116 0
M  V30 9208 O 949.1 -2.96784 2.86344 0
M  V30 9209 H 948.441 -0.276379 0.603747 0
M  V30 9210 H 950.971 -0.243507 2.03146 0
M  V30 9211 H 950.981 -2.28451 3.38045 0
M  V30 9212 H 949.656 -1.28575 3.95526 0
M  V30 9213 H 948.233 -2.59669 2.67631 0
M  V30 9214 N 950.418 -1.49637 -0.494624 0
M  V30 9215 C 951.646 -1.63164 -1.2722 0
M  V30 9216 C 952.061 -0.305552 -1.86311 0
M  V30 9217 O 951.418 0.709758 -1.68133 0
M  V30 9218 C 951.469 -2.70524 -2.39789 0
M  V30 9219 O 951.19 -3.97991 -1.83126 0
M  V30 9220 C 952.691 -2.94814 -3.31058 0
M  V30 9221 H 949.911 -0.54912 -0.385627 0
M  V30 9222 H 952.455 -1.95711 -0.593081 0
M  V30 9223 H 950.61 -2.40738 -3.03519 0
M  V30 9224 H 951.024 -4.57179 -2.57075 0
M  V30 9225 H 952.498 -3.73653 -4.06309 0
M  V30 9226 H 952.975 -2.04974 -3.88436 0
M  V30 9227 H 953.581 -3.26042 -2.73088 0
M  V30 9228 N 951.896 0.746133 -1.38819 0
M  V30 9229 C 953.144 1.50247 -1.35167 0
M  V30 9230 C 953.465 1.94921 0.0553531 0
M  V30 9231 O 952.735 1.68187 1.00449 0
M  V30 9232 H 951.315 0.557337 -0.497377 0
M  V30 9233 H 953.977 0.886472 -1.73573 0
M  V30 9234 H 953.073 2.38986 -2.00728 0
M  V30 9235 N 953.375 1.23811 0.975125 0
M  V30 9236 C 954.786 1.0675 1.53171 0
M  V30 9237 C 955.137 -0.363475 1.92804 0
M  V30 9238 O 954.262 -1.25089 1.76583 0
M  V30 9239 C 954.857 1.93161 2.78342 0
M  V30 9240 C 953.416 1.80346 3.30382 0
M  V30 9241 C 952.563 1.88544 2.03338 0
M  V30 9242 H 955.514 1.37396 0.79423 0
M  V30 9243 H 955.535 1.45951 3.51395 0
M  V30 9244 H 955.047 2.97302 2.49465 0
M  V30 9245 H 953.148 0.790077 3.64127 0
M  V30 9246 H 953.261 2.64026 3.99784 0
M  V30 9247 H 951.625 1.32186 2.17713 0
M  V30 9248 H 952.408 2.94252 1.76836 0
M  V30 9249 N 954.853 -1.17469 1.05066 0
M  V30 9250 C 956.101 -1.87327 0.758485 0
M  V30 9251 C 956.422 -1.81358 -0.716549 0
M  V30 9252 O 955.692 -1.23868 -1.51768 0
M  V30 9253 H 954.272 -0.693512 0.277579 0
M  V30 9254 H 956.934 -1.4251 1.32954 0
M  V30 9255 H 956.03 -2.93101 1.0723 0
M  V30 9256 N 956.331 -0.831506 -1.3388 0
M  V30 9257 C 957.241 -0.261688 -2.33136 0
M  V30 9258 C 958.257 0.608429 -1.63016 0
M  V30 9259 O 959.433 0.514297 -1.94723 0
M  V30 9260 C 956.498 0.559957 -3.42148 0
M  V30 9261 C 955.559 -0.333569 -4.28002 0
M  V30 9262 C 954.792 0.448956 -5.31808 0
M  V30 9263 O 955.015 1.6814 -5.45055 0
M  V30 9264 O 953.949 -0.173197 -6.01651 0
M  V30 9265 H 957.775 -1.08343 -2.83717 0
M  V30 9266 H 955.36 -0.593849 -1.3709 0
M  V30 9267 H 957.242 1.02712 -4.08691 0
M  V30 9268 H 955.917 1.35888 -2.93796 0
M  V30 9269 H 954.824 -0.848416 -3.64352 0
M  V30 9270 H 956.157 -1.09707 -4.79818 0
M  V30 9271 N 957.809 1.4625 -0.587256 0
M  V30 9272 C 958.741 2.28482 0.181256 0
M  V30 9273 C 959.754 1.38777 0.851163 0
M  V30 9274 O 960.943 1.63336 0.719963 0
M  V30 9275 C 958.043 3.13944 1.27643 0
M  V30 9276 C 957.216 4.31802 0.697569 0
M  V30 9277 C 956.275 4.98626 1.68102 0
M  V30 9278 O 955.301 5.56075 1.21529 0
M  V30 9279 N 956.503 4.96051 3.0152 0
M  V30 9280 H 959.268 2.95079 -0.524267 0
M  V30 9281 H 956.829 1.56213 -0.425336 0
M  V30 9282 H 958.821 3.55513 1.93371 0
M  V30 9283 H 957.391 2.49391 1.88475 0
M  V30 9284 H 956.611 3.93961 -0.137293 0
M  V30 9285 H 957.899 5.07969 0.290696 0
M  V30 9286 H 957.297 4.5063 3.41978 0
M  V30 9287 H 955.854 5.41547 3.62725 0
M  V30 9288 N 959.287 0.325282 1.54207 0
M  V30 9289 C 960.217 -0.532574 2.27345 0
M  V30 9290 C 961.198 -1.11791 1.28206 0
M  V30 9291 O 962.383 -1.14272 1.57021 0
M  V30 9292 C 959.513 -1.69274 3.03255 0
M  V30 9293 C 958.467 -1.23662 4.09746 0
M  V30 9294 C 957.793 -2.48386 4.73506 0
M  V30 9295 C 959.093 -0.350244 5.21124 0
M  V30 9296 H 960.787 0.0775108 2.993 0
M  V30 9297 H 958.333 0.0387193 1.43948 0
M  V30 9298 H 960.286 -2.29917 3.53152 0
M  V30 9299 H 959.01 -2.32944 2.28921 0
M  V30 9300 H 957.669 -0.653106 3.60735 0
M  V30 9301 H 957.317 -3.10424 3.95786 0
M  V30 9302 H 957.017 -2.18558 5.45441 0
M  V30 9303 H 958.541 -3.09789 5.26178 0
M  V30 9304 H 959.955 -0.863011 5.66767 0
M  V30 9305 H 958.352 -0.14466 5.99926 0
M  V30 9306 H 959.422 0.618457 4.8094 0
M  V30 9307 N 960.765 -1.57509 0.0534917 0
M  V30 9308 C 962.181 -1.56696 -0.303067 0
M  V30 9309 C 962.381 -1.06135 -1.71282 0
M  V30 9310 O 961.437 -0.71899 -2.42047 0
M  V30 9311 C 962.75 -3.00421 -0.129418 0
M  V30 9312 C 964.298 -3.12358 -0.200346 0
M  V30 9313 C 964.773 -4.57967 -0.0551971 0
M  V30 9314 N 966.264 -4.63066 -0.111398 0
M  V30 9315 C 966.999 -5.73395 -0.0232344 0
M  V30 9316 N 966.495 -6.92701 0.11741 0
M  V30 9317 N 968.288 -5.62045 -0.078984 0
M  V30 9318 H 960.439 -1.88696 0.975064 0
M  V30 9319 H 962.702 -0.869072 0.378706 0
M  V30 9320 H 962.408 -3.41456 0.842653 0
M  V30 9321 H 962.282 -3.66563 -0.889476 0
M  V30 9322 H 964.669 -2.71221 -1.16289 0
M  V30 9323 H 964.75 -2.48891 0.590506 0
M  V30 9324 H 964.394 -4.9979 0.904034 0
M  V30 9325 H 964.324 -5.19443 -0.865223 0
M  V30 9326 H 966.815 -3.77263 -0.219256 0
M  V30 9327 H 967.128 -7.72597 0.177326 0
M  V30 9328 H 965.473 -6.94833 0.152526 0
M  V30 9329 H 968.664 -4.67725 -0.187434 0
M  V30 9330 H 968.837 -6.48 -0.00681731 0
M  V30 9331 N 962.243 0.219913 -1.56058 0
M  V30 9332 C 963.191 1.29215 -1.93407 0
M  V30 9333 C 964.185 1.48434 -0.816307 0
M  V30 9334 O 965.391 1.49589 -1.00115 0
M  V30 9335 H 961.766 0.433256 -0.614649 0
M  V30 9336 H 963.737 0.949977 -2.82875 0
M  V30 9337 C 962.486 2.63501 -2.26854 0
M  V30 9338 H 961.809 2.4952 -3.12377 0
M  V30 9339 H 963.249 3.37334 -2.56869 0
M  V30 9340 C 961.708 3.18634 -1.09425 0
M  V30 9341 O 962.238 4.00117 -0.356243 0
M  V30 9342 N 960.444 2.7703 -0.877642 0
M  V30 9343 H 959.991 2.10875 -1.47951 0
M  V30 9344 H 959.949 3.1426 -0.0936792 0
M  V30 9345 N 963.721 1.49897 0.486681 0
M  V30 9346 C 964.684 1.67086 1.56891 0
M  V30 9347 C 965.684 0.54209 1.51387 0
M  V30 9348 O 966.874 0.80883 1.54284 0
M  V30 9349 C 964.006 1.68159 2.96539 0
M  V30 9350 H 965.199 2.63626 1.42974 0
M  V30 9351 H 962.752 1.39143 0.711954 0
M  V30 9352 H 963.487 0.732562 3.15918 0
M  V30 9353 H 963.272 2.50147 3.01942 0
M  V30 9354 H 964.762 1.83466 3.7514 0
M  V30 9355 N 965.199 -0.738761 1.39212 0
M  V30 9356 C 966.129 -1.86602 1.40364 0
M  V30 9357 C 967.11 -1.67984 0.267495 0
M  V30 9358 O 968.295 -1.88358 0.472765 0
M  V30 9359 C 965.425 -3.24308 1.24265 0
M  V30 9360 C 964.379 -3.57557 2.35239 0
M  V30 9361 C 963.705 -4.94159 2.04233 0
M  V30 9362 C 965.005 -3.60914 3.77543 0
M  V30 9363 H 966.699 -1.85896 2.34698 0
M  V30 9364 H 964.245 -0.892959 1.1297 0
M  V30 9365 H 966.198 -4.02838 1.23692 0
M  V30 9366 H 964.922 -3.25531 0.263974 0
M  V30 9367 H 963.581 -2.81354 2.35022 0
M  V30 9368 H 963.229 -4.91959 1.04813 0
M  V30 9369 H 962.929 -5.17373 2.78567 0
M  V30 9370 H 964.453 -5.7505 2.05303 0
M  V30 9371 H 965.867 -4.29528 3.79709 0
M  V30 9372 H 964.264 -3.95644 4.51205 0
M  V30 9373 H 965.334 -2.60803 4.08791 0
M  V30 9374 N 966.677 -1.24326 -0.968545 0
M  V30 9375 C 967.923 -1.09413 -1.71465 0
M  V30 9376 C 968.278 0.363422 -1.88937 0
M  V30 9377 O 967.571 1.26486 -1.43916 0
M  V30 9378 C 967.765 -1.76644 -3.10695 0
M  V30 9379 C 967.594 -3.28787 -3.06805 0
M  V30 9380 C 966.364 -3.97995 -3.11333 0
M  V30 9381 C 968.562 -4.25389 -2.89047 0
M  V30 9382 N 966.544 -5.37024 -2.97453 0
M  V30 9383 C 967.915 -5.51411 -2.83454 0
M  V30 9384 C 969.97 -4.15976 -2.73621 0
M  V30 9385 C 968.673 -6.69096 -2.64013 0
M  V30 9386 C 970.699 -5.33338 -2.55547 0
M  V30 9387 C 970.061 -6.58291 -2.50663 0
M  V30 9388 H 966.16 -0.454986 -0.636012 0
M  V30 9389 H 968.744 -1.57228 -1.14837 0
M  V30 9390 H 966.915 -1.31344 -3.65518 0
M  V30 9391 H 968.647 -1.54599 -3.74007 0
M  V30 9392 H 965.402 -3.49155 -3.19981 0
M  V30 9393 H 965.826 -6.09948 -2.93756 0
M  V30 9394 H 970.468 -3.20131 -2.76181 0
M  V30 9395 H 968.186 -7.65064 -2.60197 0
M  V30 9396 H 971.772 -5.27904 -2.44557 0
M  V30 9397 H 970.652 -7.47575 -2.36856 0
M  V30 9398 N 968.156 1.1691 -1.05688 0
M  V30 9399 C 969.106 2.19056 -0.632339 0
M  V30 9400 C 970.09 1.574 0.333797 0
M  V30 9401 O 971.282 1.76361 0.150223 0
M  V30 9402 C 968.411 3.43297 -0.0138209 0
M  V30 9403 C 967.497 4.12042 -1.00408 0
M  V30 9404 N 967.888 4.56535 -2.17737 0
M  V30 9405 C 966.186 4.38139 -0.833663 0
M  V30 9406 C 966.887 5.09644 -2.80425 0
M  V30 9407 N 965.863 5.02153 -2.08191 0
M  V30 9408 H 969.665 2.51165 -1.52621 0
M  V30 9409 H 967.179 1.33294 -0.927707 0
M  V30 9410 H 969.176 4.1576 0.308117 0
M  V30 9411 H 967.836 3.12677 0.87538 0
M  V30 9412 H 968.847 4.50463 -2.55546 0
M  V30 9413 H 965.524 4.175 0.00406684 0
M  V30 9414 H 966.914 5.54153 -3.79952 0
M  V30 9415 N 969.634 0.838594 1.33437 0
M  V30 9416 C 970.862 0.447644 2.01999 0
M  V30 9417 C 971.277 -0.951053 1.63096 0
M  V30 9418 O 970.634 -1.61802 0.844169 0
M  V30 9419 C 970.685 0.558378 3.57162 0
M  V30 9420 O 970.406 1.90196 3.94661 0
M  V30 9421 C 971.907 0.164348 4.42995 0
M  V30 9422 H 969.127 0.177736 0.647032 0
M  V30 9423 H 971.671 1.13109 1.70372 0
M  V30 9424 H 969.826 -0.0771563 3.87323 0
M  V30 9425 H 970.24 1.88729 4.89369 0
M  V30 9426 H 971.714 0.292876 5.51222 0
M  V30 9427 H 972.191 -0.893713 4.30011 0
M  V30 9428 H 972.797 0.774306 4.18192 0
M  V30 9429 N 971.112 -1.45937 0.595003 0
M  V30 9430 C 972.36 -2.01921 0.0851368 0
M  V30 9431 C 972.681 -1.46748 -1.28413 0
M  V30 9432 O 971.951 -0.656873 -1.84559 0
M  V30 9433 H 970.531 -0.746457 0.0284826 0
M  V30 9434 H 973.193 -1.78891 0.773561 0
M  V30 9435 H 972.289 -3.1209 0.0254002 0
M  V30 9436 N 972.59 -0.333456 -1.54032 0
M  V30 9437 C 973.867 0.320902 -1.9295 0
M  V30 9438 C 974.247 1.69071 -1.26405 0
M  V30 9439 O 973.595 2.24768 -0.411311 0
M  V30 9440 C 973.805 0.403257 -3.46662 0
M  V30 9441 C 975.153 0.658875 -4.19457 0
M  V30 9442 O 976.177 0.485781 -3.52872 0
M  V30 9443 O 975.036 0.993475 -5.37394 0
M  V30 9444 H 972.13 0.185158 -0.806006 0
M  V30 9445 H 974.676 -0.383895 -1.65301 0
M  V30 9446 H 973.448 -0.558409 -3.87295 0
M  V30 9447 H 973.071 1.15524 -3.80447 0
M  V30 9448 N 974.068 1.57479 -0.061844 0
M  V30 9449 C 975.296 1.97429 0.618837 0
M  V30 9450 C 975.711 0.939826 1.63746 0
M  V30 9451 O 975.068 -0.0747173 1.82347 0
M  V30 9452 C 975.119 3.3746 1.29628 0
M  V30 9453 O 974.84 4.36941 0.318431 0
M  V30 9454 C 976.341 3.92228 2.06572 0
M  V30 9455 H 973.561 0.649513 0.168444 0
M  V30 9456 H 976.105 2.04078 -0.131303 0
M  V30 9457 H 974.26 3.31928 1.99757 0
M  V30 9458 H 974.674 5.18313 0.803239 0
M  V30 9459 H 976.148 4.92458 2.49377 0
M  V30 9460 H 976.625 3.28231 2.91824 0
M  V30 9461 H 977.231 4.01131 1.4133 0
M  V30 9462 N 975.546 -0.211634 1.56173 0
M  V30 9463 C 976.456 -1.2831 1.96402 0
M  V30 9464 C 977.472 -1.50731 0.869254 0
M  V30 9465 O 978.648 -1.63669 1.17365 0
M  V30 9466 C 975.713 -2.61084 2.28114 0
M  V30 9467 C 974.774 -2.46879 3.51211 0
M  V30 9468 C 974.007 -3.73321 3.81401 0
M  V30 9469 O 974.23 -4.76773 3.13119 0
M  V30 9470 O 973.164 -3.69839 4.74871 0
M  V30 9471 H 976.99 -0.971733 2.87734 0
M  V30 9472 H 974.575 -0.415305 1.43512 0
M  V30 9473 H 976.457 -3.39481 2.49661 0
M  V30 9474 H 975.132 -2.91881 1.39954 0
M  V30 9475 H 974.039 -1.66648 3.34932 0
M  V30 9476 H 975.372 -2.21018 4.39786 0
M  V30 9477 N 977.024 -1.50153 -0.478725 0
M  V30 9478 C 978.249 -1.64776 -1.2595 0
M  V30 9479 C 978.674 -0.327794 -1.85222 0
M  V30 9480 O 978.032 0.707418 -1.66929 0
M  V30 9481 C 978.08 -2.73551 -2.34952 0
M  V30 9482 O 977.184 -2.34273 -3.39397 0
M  V30 9483 H 976.525 -0.550769 -0.370877 0
M  V30 9484 H 979.055 -1.96482 -0.570605 0
M  V30 9485 H 979.065 -2.96397 -2.8038 0
M  V30 9486 H 977.74 -3.69354 -1.91181 0
M  V30 9487 H 976.317 -2.21844 -2.99733 0
M  V30 9488 N 978.502 0.731368 -1.39602 0
M  V30 9489 C 979.434 1.85575 -1.34516 0
M  V30 9490 C 980.447 1.60818 -0.253287 0
M  V30 9491 O 981.636 1.70984 -0.512505 0
M  V30 9492 C 978.736 3.21673 -1.06676 0
M  V30 9493 C 977.909 3.73757 -2.27211 0
M  V30 9494 C 976.968 4.88426 -1.95773 0
M  V30 9495 O 975.994 5.01898 -2.68491 0
M  V30 9496 N 977.196 5.73065 -0.926083 0
M  V30 9497 H 979.961 1.90442 -2.31413 0
M  V30 9498 H 977.522 0.912258 -1.33752 0
M  V30 9499 H 979.514 3.95959 -0.836577 0
M  V30 9500 H 978.084 3.12052 -0.185003 0
M  V30 9501 H 977.304 2.90781 -2.66158 0
M  V30 9502 H 978.592 4.05289 -3.07601 0
M  V30 9503 H 977.99 5.64774 -0.323497 0
M  V30 9504 H 976.547 6.47403 -0.755795 0
M  V30 9505 N 979.98 1.24838 0.961938 0
M  V30 9506 C 981.226 1.09313 1.70817 0
M  V30 9507 C 981.559 -0.366244 1.90715 0
M  V30 9508 O 980.834 -1.27036 1.47282 0
M  V30 9509 C 981.117 1.83988 3.09549 0
M  V30 9510 C 980.97 3.3771 2.97106 0
M  V30 9511 C 982.289 1.61718 4.09311 0
M  V30 9512 H 979.408 0.398498 0.619974 0
M  V30 9513 H 982.05 1.53579 1.11864 0
M  V30 9514 H 980.2 1.46363 3.59875 0
M  V30 9515 H 981.872 3.84967 2.54161 0
M  V30 9516 H 980.115 3.65795 2.33187 0
M  V30 9517 H 980.786 3.85166 3.95412 0
M  V30 9518 H 983.262 1.94458 3.67866 0
M  V30 9519 H 982.138 2.16415 5.04436 0
M  V30 9520 H 982.399 0.55677 4.3858 0
M  V30 9521 N 981.458 -1.16348 1.06306 0
M  V30 9522 C 982.874 -1.38873 0.786543 0
M  V30 9523 C 983.074 -1.91915 -0.614061 0
M  V30 9524 O 982.13 -2.11804 -1.3746 0
M  V30 9525 C 983.443 -2.36936 1.85154 0
M  V30 9526 C 984.991 -2.5062 1.87506 0
M  V30 9527 C 985.466 -3.51965 2.9306 0
M  V30 9528 N 986.957 -3.59492 2.92095 0
M  V30 9529 C 987.692 -4.37699 3.70415 0
M  V30 9530 N 987.188 -5.19327 4.58553 0
M  V30 9531 N 988.981 -4.32683 3.58806 0
M  V30 9532 H 981.132 -0.802542 1.96655 0
M  V30 9533 H 983.395 -0.415304 0.852189 0
M  V30 9534 H 983.101 -2.05056 2.85736 0
M  V30 9535 H 982.975 -3.36585 1.70267 0
M  V30 9536 H 985.362 -2.81804 0.875827 0
M  V30 9537 H 985.443 -1.51006 2.06472 0
M  V30 9538 H 985.087 -3.21518 3.93177 0
M  V30 9539 H 985.017 -4.51309 2.71344 0
M  V30 9540 H 987.508 -3.01222 2.28197 0
M  V30 9541 H 987.821 -5.76216 5.1497 0
M  V30 9542 H 986.166 -5.1867 4.62608 0
M  V30 9543 H 989.357 -3.67971 2.89335 0
M  V30 9544 H 989.53 -4.93386 4.20088 0
M  V30 9545 N 982.937 -0.845659 -1.3299 0
M  V30 9546 C 983.867 -0.298957 -2.31578 0
M  V30 9547 C 984.848 0.597012 -1.59279 0
M  V30 9548 O 986.033 0.519142 -1.87132 0
M  V30 9549 C 983.163 0.521109 -3.43368 0
M  V30 9550 C 982.117 -0.279651 -4.27085 0
M  V30 9551 C 981.443 0.664591 -5.30554 0
M  V30 9552 C 982.743 -1.50046 -5.00283 0
M  V30 9553 H 984.437 -1.12272 -2.77552 0
M  V30 9554 H 981.983 -0.54132 -1.33438 0
M  V30 9555 H 983.936 0.913921 -4.1137 0
M  V30 9556 H 982.66 1.37815 -2.96099 0
M  V30 9557 H 981.319 -0.654106 -3.60717 0
M  V30 9558 H 980.967 1.51822 -4.79541 0
M  V30 9559 H 980.667 0.132871 -5.8745 0
M  V30 9560 H 982.191 1.05477 -6.01421 0
M  V30 9561 H 983.605 -1.18044 -5.61016 0
M  V30 9562 H 982.002 -1.96946 -5.66862 0
M  V30 9563 H 983.072 -2.26659 -4.28665 0
M  V30 9564 N 984.415 1.45619 -0.602734 0
M  V30 9565 C 985.345 2.33258 0.106342 0
M  V30 9566 C 986.326 1.46543 0.863664 0
M  V30 9567 O 987.511 1.75324 0.835175 0
M  V30 9568 C 984.641 3.29168 1.10751 0
M  V30 9569 C 983.595 4.25481 0.463717 0
M  V30 9570 C 982.921 5.11046 1.57278 0
M  V30 9571 C 984.221 5.18702 -0.61199 0
M  V30 9572 H 985.915 2.92795 -0.625423 0
M  V30 9573 H 983.461 1.40793 -0.302213 0
M  V30 9574 H 985.414 3.89346 1.61208 0
M  V30 9575 H 984.138 2.6778 1.8698 0
M  V30 9576 H 982.797 3.66595 -0.0199496 0
M  V30 9577 H 982.445 4.46029 2.32524 0
M  V30 9578 H 982.145 5.76286 1.14755 0
M  V30 9579 H 983.669 5.74091 2.07972 0
M  V30 9580 H 985.083 5.72979 -0.191686 0
M  V30 9581 H 983.48 5.92393 -0.958686 0
M  V30 9582 H 984.55 4.61424 -1.4905 0
M  V30 9583 N 985.893 0.34162 1.53853 0
M  V30 9584 C 987.139 -0.248546 2.01876 0
M  V30 9585 C 987.494 -1.48352 1.22513 0
M  V30 9586 O 986.787 -1.89174 0.303919 0
M  V30 9587 C 986.981 -0.616989 3.52034 0
M  V30 9588 C 986.81 0.580727 4.45935 0
M  V30 9589 C 985.58 1.08544 4.93504 0
M  V30 9590 C 987.778 1.43858 4.93771 0
M  V30 9591 N 985.76 2.24568 5.71351 0
M  V30 9592 C 987.131 2.44575 5.69722 0
M  V30 9593 C 989.186 1.46425 4.75882 0
M  V30 9594 C 987.889 3.47687 6.29688 0
M  V30 9595 C 989.915 2.48416 5.36697 0
M  V30 9596 C 989.277 3.4786 6.12514 0
M  V30 9597 H 985.376 -0.0543067 0.780112 0
M  V30 9598 H 987.96 0.480749 1.88671 0
M  V30 9599 H 986.131 -1.31539 3.65448 0
M  V30 9600 H 987.863 -1.19018 3.86803 0
M  V30 9601 H 984.618 0.653832 4.69065 0
M  V30 9602 H 985.042 2.83143 6.14946 0
M  V30 9603 H 989.684 0.709044 4.16812 0
M  V30 9604 H 987.402 4.24103 6.87868 0
M  V30 9605 H 990.988 2.51227 5.24763 0
M  V30 9606 H 989.868 4.25486 6.58734 0
M  V30 9607 N 987.371 -1.57444 0.0701946 0
M  V30 9608 C 988.318 -2.12631 -0.897599 0
M  V30 9609 C 989.288 -1.03841 -1.29639 0
M  V30 9610 O 990.473 -1.31495 -1.38253 0
M  V30 9611 C 987.613 -2.6911 -2.16041 0
M  V30 9612 C 986.726 -3.9205 -1.8144 0
M  V30 9613 C 985.861 -4.36778 -3.02321 0
M  V30 9614 C 984.9 -5.52371 -2.63729 0
M  V30 9615 N 984.037 -5.92065 -3.77364 0
M  V30 9616 H 988.877 -2.95024 -0.420104 0
M  V30 9617 H 986.414 -1.45792 -0.195716 0
M  V30 9618 H 988.372 -2.99963 -2.89962 0
M  V30 9619 H 987.002 -1.89484 -2.61334 0
M  V30 9620 H 986.054 -3.67669 -0.975896 0
M  V30 9621 H 987.366 -4.76011 -1.49046 0
M  V30 9622 H 986.52 -4.69285 -3.84521 0
M  V30 9623 H 985.259 -3.51668 -3.37907 0
M  V30 9624 H 984.264 -5.19517 -1.7995 0
M  V30 9625 H 985.489 -6.39212 -2.29315 0
M  V30 9626 H 983.435 -5.09904 -4.12715 0
M  V30 9627 H 983.352 -6.70762 -3.48733 0
M  V30 9628 H 984.62 -6.29193 -4.60148 0
M  V30 9629 N 988.849 0.203349 -1.56283 0
M  V30 9630 C 990.126 0.950415 -1.70958 0
M  V30 9631 C 990.506 2.01708 -0.622647 0
M  V30 9632 O 989.854 2.25523 0.367635 0
M  V30 9633 C 990.064 1.54434 -3.12971 0
M  V30 9634 C 991.412 2.02964 -3.72949 0
M  V30 9635 O 992.436 1.64293 -3.16048 0
M  V30 9636 O 991.295 2.74097 -4.72793 0
M  V30 9637 H 988.389 0.445154 -0.69697 0
M  V30 9638 H 990.935 0.193695 -1.68591 0
M  V30 9639 H 989.707 0.77505 -3.83547 0
M  V30 9640 H 989.33 2.36611 -3.19532 0
M  V30 9641 N 990.327 1.50405 0.470755 0
M  V30 9642 C 991.738 1.54266 1.05162 0
M  V30 9643 C 992.089 0.346359 1.93119 0
M  V30 9644 O 991.214 -0.540699 2.09536 0
M  V30 9645 C 991.809 2.7956 1.91394 0
M  V30 9646 C 990.368 2.86101 2.44588 0
M  V30 9647 C 989.515 2.48557 1.22941 0
M  V30 9648 H 992.466 1.56665 0.253359 0
M  V30 9649 H 992.487 2.61434 2.76464 0
M  V30 9650 H 991.999 3.66611 1.27351 0
M  V30 9651 H 990.1 2.03403 3.12183 0
M  V30 9652 H 990.213 3.88999 2.79672 0
M  V30 9653 H 988.577 2.01003 1.56429 0
M  V30 9654 H 989.36 3.37916 0.605598 0
M  V30 9655 N 991.805 -0.723954 1.39988 0
M  V30 9656 C 993.221 -1.03095 1.21834 0
M  V30 9657 C 993.421 -2.01309 0.0876647 0
M  V30 9658 O 992.477 -2.46277 -0.55714 0
M  V30 9659 C 993.79 -1.58267 2.5568 0
M  V30 9660 C 995.338 -1.70293 2.6262 0
M  V30 9661 C 995.813 -2.28872 3.96713 0
M  V30 9662 N 997.304 -2.36269 3.98411 0
M  V30 9663 C 998.039 -2.82557 4.98948 0
M  V30 9664 N 997.535 -3.28661 6.0988 0
M  V30 9665 N 999.328 -2.81866 4.86321 0
M  V30 9666 H 991.479 -0.0727891 2.12275 0
M  V30 9667 H 993.742 -0.0949029 0.943238 0
M  V30 9668 H 993.448 -0.935642 3.39026 0
M  V30 9669 H 993.322 -2.56914 2.76179 0
M  V30 9670 H 995.709 -2.34115 1.7965 0
M  V30 9671 H 995.79 -0.70268 2.45959 0
M  V30 9672 H 995.434 -1.65675 4.80119 0
M  V30 9673 H 995.364 -3.29595 4.107 0
M  V30 9674 H 997.855 -2.03697 3.18302 0
M  V30 9675 H 998.168 -3.62524 6.82493 0
M  V30 9676 H 996.513 -3.26641 6.13458 0
M  V30 9677 H 999.704 -2.45179 3.98754 0
M  V30 9678 H 999.877 -3.17626 5.64817 0
M  V30 9679 N 993.283 -1.25346 -0.955304 0
M  V30 9680 C 994.231 -1.05461 -2.07318 0
M  V30 9681 C 995.225 0.0142699 -1.69394 0
M  V30 9682 O 996.431 -0.141292 -1.79445 0
M  V30 9683 H 992.806 -0.324095 -0.678577 0
M  V30 9684 H 994.777 -2.00231 -2.21247 0
M  V30 9685 C 993.526 -0.689329 -3.40798 0
M  V30 9686 H 992.849 -1.50362 -3.70447 0
M  V30 9687 H 994.289 -0.589883 -4.19877 0
M  V30 9688 C 992.748 0.604556 -3.31431 0
M  V30 9689 O 993.278 1.64686 -3.6639 0
M  V30 9690 N 991.484 0.589927 -2.84549 0
M  V30 9691 H 991.031 -0.258647 -2.56298 0
M  V30 9692 H 990.989 1.4558 -2.78664 0
M  V30 9693 N 994.761 1.15782 -1.06922 0
M  V30 9694 C 996.007 1.86741 -0.790922 0
M  V30 9695 C 996.34 1.81863 0.681149 0
M  V30 9696 O 995.615 1.23871 1.49954 0
M  V30 9697 C 995.898 3.36038 -1.29422 0
M  V30 9698 C 995.751 3.49573 -2.83052 0
M  V30 9699 C 997.07 4.30647 -0.907239 0
M  V30 9700 H 994.189 0.678064 -0.288787 0
M  V30 9701 H 996.831 1.36054 -1.32624 0
M  V30 9702 H 994.981 3.79336 -0.838843 0
M  V30 9703 H 996.653 3.1517 -3.36847 0
M  V30 9704 H 994.896 2.91275 -3.21467 0
M  V30 9705 H 995.567 4.5445 -3.13335 0
M  V30 9706 H 998.043 3.95286 -1.29956 0
M  V30 9707 H 996.919 5.33604 -1.28679 0
M  V30 9708 H 997.18 4.41703 0.187251 0
M  V30 9709 N 996.239 0.8527 1.3254 0
M  V30 9710 C 997.487 0.454224 1.96929 0
M  V30 9711 C 997.808 -0.993034 1.67821 0
M  V30 9712 O 997.078 -1.69371 0.984393 0
M  V30 9713 H 995.658 0.164977 0.728554 0
M  V30 9714 H 998.32 1.0887 1.61658 0
M  V30 9715 H 997.416 0.597667 3.06324 0
M  V30 9716 N 997.718 -1.45297 0.610449 0
M  V30 9717 C 998.964 -2.03073 0.115358 0
M  V30 9718 C 999.319 -1.47 -1.24132 0
M  V30 9719 O 998.612 -0.636326 -1.80725 0
M  V30 9720 C 998.806 -3.57394 0.0205329 0
M  V30 9721 C 998.635 -4.28436 1.36647 0
M  V30 9722 C 997.405 -4.66245 1.94791 0
M  V30 9723 C 999.603 -4.60211 2.29587 0
M  V30 9724 N 997.585 -5.22159 3.22835 0
M  V30 9725 C 998.956 -5.16989 3.42232 0
M  V30 9726 C 1001.01 -4.42152 2.28923 0
M  V30 9727 C 999.714 -5.5761 4.54382 0
M  V30 9728 C 1001.74 -4.83808 3.40123 0
M  V30 9729 C 1001.1 -5.40681 4.5149 0
M  V30 9730 H 997.201 -0.777296 0.0856485 0
M  V30 9731 H 999.785 -1.77077 0.809426 0
M  V30 9732 H 997.956 -3.83045 -0.642763 0
M  V30 9733 H 999.688 -4.01826 -0.481481 0
M  V30 9734 H 996.443 -4.49893 1.47965 0
M  V30 9735 H 996.867 -5.54613 3.88245 0
M  V30 9736 H 1001.51 -3.97493 1.44081 0
M  V30 9737 H 999.227 -6.01234 5.39947 0
M  V30 9738 H 1002.81 -4.71565 3.40761 0
M  V30 9739 H 1001.69 -5.72321 5.36114 0
M  V30 9740 N 999.196 -0.349774 -1.5367 0
M  V30 9741 C 1000.14 0.504121 -2.25227 0
M  V30 9742 C 1001.11 1.09048 -1.2529 0
M  V30 9743 O 1002.3 1.12594 -1.54037 0
M  V30 9744 C 999.438 1.64601 -3.03316 0
M  V30 9745 C 998.551 1.08635 -4.18118 0
M  V30 9746 C 997.686 2.19605 -4.83681 0
M  V30 9747 C 996.725 1.61023 -5.90541 0
M  V30 9748 N 995.862 2.6576 -6.49858 0
M  V30 9749 H 1000.7 -0.112621 -2.97787 0
M  V30 9750 H 998.239 -0.0673503 -1.46946 0
M  V30 9751 H 1000.2 2.31836 -3.46854 0
M  V30 9752 H 998.827 2.23364 -2.33041 0
M  V30 9753 H 997.879 0.304748 -3.79177 0
M  V30 9754 H 999.191 0.617911 -4.94958 0
M  V30 9755 H 998.345 2.94693 -5.30322 0
M  V30 9756 H 997.084 2.69795 -4.06278 0
M  V30 9757 H 996.089 0.844428 -5.43277 0
M  V30 9758 H 997.314 1.11677 -6.69855 0
M  V30 9759 H 995.26 3.15193 -5.75317 0
M  V30 9760 H 995.177 2.23557 -7.2219 0
M  V30 9761 H 996.445 3.40598 -7.01151 0
M  V30 9762 N 1000.67 1.57404 -0.0785433 0
M  V30 9763 C 1001.95 1.85163 0.630389 0
M  V30 9764 C 1002.33 0.972295 1.87376 0
M  V30 9765 O 1001.68 0.0403375 2.28464 0
M  V30 9766 C 1001.89 3.35491 0.961604 0
M  V30 9767 C 1003.24 4.0316 1.33219 0
M  V30 9768 O 1004.26 3.40276 1.05313 0
M  V30 9769 O 1003.12 5.14086 1.85412 0
M  V30 9770 H 1000.21 0.765169 0.31376 0
M  V30 9771 H 1002.76 1.69343 -0.109986 0
M  V30 9772 H 1001.53 3.91221 0.0788113 0
M  V30 9773 H 1001.15 3.56598 1.75852 0
M  V30 9774 N 1002.15 -0.195058 1.56388 0
M  V30 9775 C 1003.1 -1.24175 1.94549 0
M  V30 9776 C 1004.07 -1.45229 0.806089 0
M  V30 9777 O 1005.25 -1.58362 1.06425 0
M  V30 9778 C 1002.39 -2.58145 2.29031 0
M  V30 9779 C 1001.51 -2.44669 3.56035 0
M  V30 9780 C 1000.64 -3.71342 3.7984 0
M  V30 9781 C 999.681 -3.52699 5.0027 0
M  V30 9782 N 998.818 -4.71385 5.20328 0
M  V30 9783 H 1003.66 -0.909319 2.83788 0
M  V30 9784 H 1001.19 -0.437641 1.40439 0
M  V30 9785 H 1003.15 -3.36195 2.4704 0
M  V30 9786 H 1001.78 -2.8943 1.42933 0
M  V30 9787 H 1000.83 -1.57916 3.46073 0
M  V30 9788 H 1002.15 -2.26827 4.44242 0
M  V30 9789 H 1001.3 -4.57832 3.98088 0
M  V30 9790 H 1000.04 -3.92138 2.89964 0
M  V30 9791 H 999.045 -2.64594 4.81944 0
M  V30 9792 H 1000.27 -3.33349 5.91655 0
M  V30 9793 H 998.216 -4.92444 4.33399 0
M  V30 9794 H 998.133 -4.56368 6.02714 0
M  V30 9795 H 999.401 -5.59226 5.43035 0
M  V30 9796 N 1003.63 -1.50653 -0.462772 0
M  V30 9797 C 1004.58 -1.70122 -1.55971 0
M  V30 9798 C 1005.55 -0.542581 -1.56988 0
M  V30 9799 O 1006.73 -0.774114 -1.74391 0
M  V30 9800 C 1003.87 -1.80899 -2.93887 0
M  V30 9801 C 1002.98 -3.08318 -3.02595 0
M  V30 9802 C 1002.12 -3.09841 -4.31477 0
M  V30 9803 C 1001.16 -4.3168 -4.33957 0
M  V30 9804 N 1000.3 -4.30894 -5.54323 0
M  V30 9805 H 1005.14 -2.63768 -1.38674 0
M  V30 9806 H 1002.67 -1.30746 -0.674091 0
M  V30 9807 H 1004.63 -1.85128 -3.73876 0
M  V30 9808 H 1003.26 -0.906854 -3.098 0
M  V30 9809 H 1002.31 -3.13521 -2.15427 0
M  V30 9810 H 1003.62 -3.98282 -3.00288 0
M  V30 9811 H 1002.78 -3.12845 -5.1982 0
M  V30 9812 H 1001.52 -2.17722 -4.36404 0
M  V30 9813 H 1000.52 -4.28879 -3.4401 0
M  V30 9814 H 1001.75 -5.25035 -4.30715 0
M  V30 9815 H 999.694 -3.41633 -5.6002 0
M  V30 9816 H 999.611 -5.14636 -5.53792 0
M  V30 9817 H 1000.88 -4.38056 -6.44769 0
M  V30 9818 N 1005.11 0.71652 -1.4037 0
M  V30 9819 C 1006.33 1.51069 -1.42102 0
M  V30 9820 C 1006.76 1.88087 -0.0222387 0
M  V30 9821 O 1006.12 1.53204 0.969448 0
M  V30 9822 C 1006.16 2.76307 -2.31704 0
M  V30 9823 O 1005.27 3.72975 -1.75964 0
M  V30 9824 H 1004.61 0.455502 -0.483129 0
M  V30 9825 H 1007.14 0.882514 -1.84588 0
M  V30 9826 H 1007.15 3.24846 -2.46859 0
M  V30 9827 H 1005.82 2.48698 -3.3335 0
M  V30 9828 H 1004.4 3.31818 -1.70151 0
M  V30 9829 N 1006.59 1.25851 0.948643 0
M  V30 9830 C 1007.82 1.13546 1.726 0
M  V30 9831 C 1008.22 -0.312857 1.86595 0
M  V30 9832 O 1007.57 -1.22657 1.36751 0
M  V30 9833 C 1007.63 1.72315 3.15512 0
M  V30 9834 C 1007.29 3.2136 3.24926 0
M  V30 9835 C 1008.29 4.18274 3.08777 0
M  V30 9836 C 1005.98 3.61683 3.48555 0
M  V30 9837 C 1007.97 5.53491 3.16112 0
M  V30 9838 C 1005.66 4.97035 3.55526 0
M  V30 9839 C 1006.65 5.92749 3.3932 0
M  V30 9840 O 1006.34 7.25637 3.45985 0
M  V30 9841 H 1006.07 0.396555 0.547467 0
M  V30 9842 H 1008.63 1.66822 1.19832 0
M  V30 9843 H 1006.86 1.13494 3.6967 0
M  V30 9844 H 1008.55 1.55024 3.7513 0
M  V30 9845 H 1009.31 3.88461 2.90385 0
M  V30 9846 H 1005.19 2.87674 3.60229 0
M  V30 9847 H 1008.74 6.28177 3.0338 0
M  V30 9848 H 1004.63 5.26512 3.73437 0
M  V30 9849 H 1005.4 7.33812 3.62577 0
M  V30 9850 N 1008.06 -1.15214 1.07534 0
M  V30 9851 C 1009.48 -1.38031 0.801228 0
M  V30 9852 C 1009.68 -1.92556 -0.593672 0
M  V30 9853 O 1008.74 -2.1325 -1.35206 0
M  V30 9854 C 1010.05 -2.34958 1.87657 0
M  V30 9855 C 1011.6 -2.48617 1.90154 0
M  V30 9856 C 1012.07 -3.48837 2.96777 0
M  V30 9857 N 1013.56 -3.56374 2.95892 0
M  V30 9858 C 1014.3 -4.33746 3.75036 0
M  V30 9859 N 1013.79 -5.14435 4.64036 0
M  V30 9860 N 1015.59 -4.28853 3.63375 0
M  V30 9861 H 1007.74 -0.781639 1.97495 0
M  V30 9862 H 1010 -0.406243 0.856546 0
M  V30 9863 H 1009.71 -2.02013 2.87895 0
M  V30 9864 H 1009.58 -3.3476 1.73827 0
M  V30 9865 H 1011.97 -2.80859 0.905666 0
M  V30 9866 H 1012.05 -1.48808 2.08062 0
M  V30 9867 H 1011.69 -3.1733 3.96565 0
M  V30 9868 H 1011.62 -4.48406 2.76116 0
M  V30 9869 H 1014.11 -2.98784 2.31379 0
M  V30 9870 H 1014.43 -5.70722 5.21053 0
M  V30 9871 H 1012.77 -5.13734 4.68084 0
M  V30 9872 H 1015.96 -3.64882 2.93221 0
M  V30 9873 H 1016.14 -4.88903 4.25298 0
M  V30 9874 N 1009.54 -0.859717 -1.32086 0
M  V30 9875 C 1010.79 -0.475565 -1.97762 0
M  V30 9876 C 1011.14 0.959348 -1.66776 0
M  V30 9877 O 1010.44 1.66484 -0.948343 0
M  V30 9878 C 1010.63 -0.657397 -3.51302 0
M  V30 9879 C 1010.46 -2.10843 -3.97209 0
M  V30 9880 C 1009.23 -2.74796 -4.24046 0
M  V30 9881 C 1011.43 -3.07959 -4.11905 0
M  V30 9882 N 1009.41 -4.10758 -4.56236 0
M  V30 9883 C 1010.78 -4.28922 -4.4769 0
M  V30 9884 C 1012.84 -3.04086 -3.94254 0
M  V30 9885 C 1011.54 -5.46518 -4.67665 0
M  V30 9886 C 1013.56 -4.20931 -4.15416 0
M  V30 9887 C 1012.93 -5.40654 -4.51522 0
M  V30 9888 H 1009.03 -0.222859 -0.749572 0
M  V30 9889 H 1011.61 -1.11217 -1.59809 0
M  V30 9890 H 1009.78 -0.0504597 -3.88367 0
M  V30 9891 H 1011.51 -0.242642 -4.03972 0
M  V30 9892 H 1008.27 -2.25805 -4.16304 0
M  V30 9893 H 1008.69 -4.80905 -4.76507 0
M  V30 9894 H 1013.33 -2.12641 -3.65436 0
M  V30 9895 H 1011.05 -6.3849 -4.95335 0
M  V30 9896 H 1014.64 -4.19376 -4.03255 0
M  V30 9897 H 1013.52 -6.29563 -4.67568 0
M  V30 9898 N 1011.02 1.44971 -0.618145 0
M  V30 9899 C 1012.27 2.02159 -0.117482 0
M  V30 9900 C 1012.6 1.48517 1.2559 0
M  V30 9901 O 1011.85 0.654192 1.84442 0
M  V30 9902 C 1012.15 3.57378 -0.0394861 0
M  V30 9903 C 1011.82 4.30218 -1.34993 0
M  V30 9904 C 1010.48 4.49835 -1.70886 0
M  V30 9905 C 1012.83 4.71768 -2.21551 0
M  V30 9906 C 1010.16 5.08258 -2.9307 0
M  V30 9907 C 1012.51 5.31543 -3.42993 0
M  V30 9908 C 1011.17 5.49381 -3.79126 0
M  V30 9909 H 1010.44 0.739752 -0.0429897 0
M  V30 9910 H 1013.09 1.73903 -0.801871 0
M  V30 9911 H 1011.4 3.84973 0.728217 0
M  V30 9912 H 1013.09 3.99343 0.364213 0
M  V30 9913 H 1009.68 4.15271 -1.06057 0
M  V30 9914 H 1013.87 4.56336 -1.95117 0
M  V30 9915 H 1009.12 5.20257 -3.21158 0
M  V30 9916 H 1013.3 5.62691 -4.10308 0
M  V30 9917 H 1010.92 5.94419 -4.73888 0
M  V30 9918 N 1012.5 0.357919 1.53482 0
M  V30 9919 C 1013.43 -0.484231 2.28424 0
M  V30 9920 C 1014.41 -1.09046 1.30548 0
M  V30 9921 O 1015.59 -1.10916 1.59409 0
M  V30 9922 C 1012.72 -1.62803 3.06778 0
M  V30 9923 C 1011.68 -1.14943 4.12277 0
M  V30 9924 C 1011 -2.38287 4.78669 0
M  V30 9925 C 1012.3 -0.239627 5.2175 0
M  V30 9926 H 1014 0.140979 2.99068 0
M  V30 9927 H 1011.54 0.069244 1.43833 0
M  V30 9928 H 1013.5 -2.22374 3.57949 0
M  V30 9929 H 1012.22 -2.28036 2.3381 0
M  V30 9930 H 1010.88 -0.576442 3.6204 0
M  V30 9931 H 1010.53 -3.01959 4.02281 0
M  V30 9932 H 1010.23 -2.06939 5.49955 0
M  V30 9933 H 1011.75 -2.98558 5.32631 0
M  V30 9934 H 1013.17 -0.742597 5.6847 0
M  V30 9935 H 1011.56 -0.0173747 6.00097 0
M  V30 9936 H 1012.63 0.720333 4.7952 0
M  V30 9937 N 1013.98 -1.5736 0.0868897 0
M  V30 9938 C 1014.91 -2.10582 -0.904858 0
M  V30 9939 C 1015.92 -1.04124 -1.25148 0
M  V30 9940 O 1017.11 -1.31595 -1.20603 0
M  V30 9941 C 1014.21 -2.56381 -2.21635 0
M  V30 9942 C 1013.38 -3.86581 -2.04631 0
M  V30 9943 C 1012.44 -4.18313 -3.19219 0
M  V30 9944 O 1011.47 -4.87669 -2.93544 0
M  V30 9945 N 1012.67 -3.73061 -4.44754 0
M  V30 9946 H 1015.44 -2.96297 -0.450352 0
M  V30 9947 H 1013 -1.616 -0.0984376 0
M  V30 9948 H 1014.99 -2.7466 -2.97227 0
M  V30 9949 H 1013.56 -1.75721 -2.58536 0
M  V30 9950 H 1012.78 -3.77532 -1.13417 0
M  V30 9951 H 1014.07 -4.71777 -1.90537 0
M  V30 9952 H 1013.46 -3.1706 -4.68497 0
M  V30 9953 H 1012.02 -3.96511 -5.17322 0
M  V30 9954 N 1015.45 0.186762 -1.56489 0
M  V30 9955 C 1016.4 1.2357 -1.9161 0
M  V30 9956 C 1017.39 1.4058 -0.782686 0
M  V30 9957 O 1018.58 1.42811 -1.04566 0
M  V30 9958 C 1015.71 2.57865 -2.26628 0
M  V30 9959 C 1014.8 2.44613 -3.46447 0
M  V30 9960 N 1015.19 2.01052 -4.64125 0
M  V30 9961 C 1013.48 2.75483 -3.50749 0
M  V30 9962 C 1014.19 1.99891 -5.46277 0
M  V30 9963 N 1013.16 2.41711 -4.86905 0
M  V30 9964 H 1016.96 0.890359 -2.80089 0
M  V30 9965 H 1014.48 0.395144 -1.57519 0
M  V30 9966 H 1016.47 3.33642 -2.49977 0
M  V30 9967 H 1015.13 2.93215 -1.39481 0
M  V30 9968 H 1016.15 1.7163 -4.88634 0
M  V30 9969 H 1012.82 3.14974 -2.7404 0
M  V30 9970 H 1014.21 1.68042 -6.50547 0
M  V30 9971 N 1016.93 1.50896 0.454776 0
M  V30 9972 C 1018.35 1.38684 0.78987 0
M  V30 9973 C 1018.55 0.455587 1.96282 0
M  V30 9974 O 1017.6 -0.0957503 2.52318 0
M  V30 9975 C 1018.92 2.80381 1.08661 0
M  V30 9976 C 1020.47 2.8941 1.19209 0
M  V30 9977 C 1020.94 4.31976 1.52187 0
M  V30 9978 N 1022.43 4.35002 1.59146 0
M  V30 9979 C 1023.17 5.42326 1.862 0
M  V30 9980 N 1022.66 6.59835 2.11164 0
M  V30 9981 N 1024.46 5.29786 1.87838 0
M  V30 9982 H 1016.61 2.10006 -0.317981 0
M  V30 9983 H 1018.87 0.944636 -0.0797969 0
M  V30 9984 H 1018.58 3.50438 0.297626 0
M  V30 9985 H 1018.45 3.18634 2.01872 0
M  V30 9986 H 1020.84 2.19561 1.97173 0
M  V30 9987 H 1020.92 2.54677 0.239401 0
M  V30 9988 H 1020.56 5.02368 0.747576 0
M  V30 9989 H 1020.49 4.64208 2.48633 0
M  V30 9990 H 1022.98 3.50276 1.41828 0
M  V30 9991 H 1023.3 7.37428 2.31128 0
M  V30 9992 H 1021.64 6.62981 2.08522 0
M  V30 9993 H 1024.83 4.36974 1.67843 0
M  V30 9994 H 1025 6.13511 2.08585 0
M  V30 9995 N 1018.41 -0.709066 1.40748 0
M  V30 9996 C 1019.82 -1.28847 1.35112 0
M  V30 9997 C 1020.17 -1.9618 0.0277149 0
M  V30 9998 O 1019.3 -1.97955 -0.874233 0
M  V30 9999 C 1019.89 -2.34306 2.44716 0
M  V30 10000 C 1018.45 -2.87856 2.4252 0
M  V30 10001 C 1017.6 -1.61723 2.25257 0
M  V30 10002 H 1020.55 -0.504742 1.50459 0
M  V30 10003 H 1020.57 -3.15297 2.12998 0
M  V30 10004 H 1020.08 -1.85271 3.41022 0
M  V30 10005 H 1018.18 -3.41103 1.49931 0
M  V30 10006 H 1018.3 -3.39205 3.38344 0
M  V30 10007 H 1016.66 -1.87032 1.7289 0
M  V30 10008 H 1017.44 -1.14703 3.23571 0
M  V30 10009 N 1019.89 -1.26353 -0.941956 0
M  V30 10010 C 1020.82 -1.03634 -2.04432 0
M  V30 10011 C 1021.83 0.00295864 -1.628 0
M  V30 10012 O 1023.02 -0.237029 -1.76919 0
M  V30 10013 C 1020.12 -0.547231 -3.34453 0
M  V30 10014 C 1019.3 -1.65559 -4.04857 0
M  V30 10015 C 1018.36 -1.16466 -5.13149 0
M  V30 10016 O 1017.38 -1.86158 -5.37898 0
M  V30 10017 N 1018.58 -0.0126703 -5.80499 0
M  V30 10018 H 1021.35 -1.98558 -2.24488 0
M  V30 10019 H 1018.91 -1.17728 -1.11138 0
M  V30 10020 H 1020.9 -0.203004 -4.04191 0
M  V30 10021 H 1019.47 0.308401 -3.11075 0
M  V30 10022 H 1018.69 -2.17079 -3.29044 0
M  V30 10023 H 1019.98 -2.39985 -4.48647 0
M  V30 10024 H 1019.38 0.569358 -5.62828 0
M  V30 10025 H 1017.93 0.272486 -6.5123 0
M  V30 10026 N 1021.37 1.14642 -1.08144 0
M  V30 10027 C 1022.61 1.85892 -0.810683 0
M  V30 10028 C 1022.95 1.82575 0.661821 0
M  V30 10029 O 1022.22 1.25454 1.48632 0
M  V30 10030 C 1022.5 3.34647 -1.32979 0
M  V30 10031 C 1022.36 3.46551 -2.86744 0
M  V30 10032 C 1023.68 4.29661 -0.952864 0
M  V30 10033 H 1020.8 0.674963 -0.295963 0
M  V30 10034 H 1023.44 1.3464 -1.3406 0
M  V30 10035 H 1021.59 3.78425 -0.87903 0
M  V30 10036 H 1023.26 3.11579 -3.40171 0
M  V30 10037 H 1021.5 2.87849 -3.24539 0
M  V30 10038 H 1022.17 4.51101 -3.18138 0
M  V30 10039 H 1024.65 3.93885 -1.34141 0
M  V30 10040 H 1023.53 5.32209 -1.34331 0
M  V30 10041 H 1023.79 4.41877 0.140392 0
M  V30 10042 N 1022.85 0.866709 1.31628 0
M  V30 10043 C 1024.09 0.475086 1.96437 0
M  V30 10044 C 1024.41 -0.975179 1.68865 0
M  V30 10045 O 1023.68 -1.68317 1.0023 0
M  V30 10046 H 1022.26 0.172695 0.726764 0
M  V30 10047 H 1024.93 1.10578 1.60494 0
M  V30 10048 H 1024.02 0.630123 3.05673 0
M  V30 10049 N 1024.32 -1.44642 0.625825 0
M  V30 10050 C 1025.55 -2.06159 0.13492 0
M  V30 10051 C 1025.96 -1.46801 -1.19357 0
M  V30 10052 O 1025.3 -0.583345 -1.74192 0
M  V30 10053 C 1025.37 -3.5945 -0.0598481 0
M  V30 10054 C 1025.03 -4.41244 1.18965 0
M  V30 10055 C 1026.03 -4.75064 2.11212 0
M  V30 10056 C 1023.71 -4.81705 1.42359 0
M  V30 10057 C 1025.71 -5.48221 3.25165 0
M  V30 10058 C 1023.39 -5.54612 2.5661 0
M  V30 10059 C 1024.39 -5.87789 3.4784 0
M  V30 10060 O 1024.08 -6.59213 4.60101 0
M  V30 10061 H 1023.81 -0.671888 0.0744464 0
M  V30 10062 H 1026.37 -1.86586 0.858775 0
M  V30 10063 H 1024.6 -3.77493 -0.838792 0
M  V30 10064 H 1026.28 -4.02751 -0.504639 0
M  V30 10065 H 1027.05 -4.44348 1.94371 0
M  V30 10066 H 1022.93 -4.55305 0.722401 0
M  V30 10067 H 1026.47 -5.74035 3.96396 0
M  V30 10068 H 1022.37 -5.84743 2.73396 0
M  V30 10069 H 1023.14 -6.77678 4.59015 0
M  V30 10070 N 1025.8 -0.366053 -1.5329 0
M  V30 10071 C 1027.05 0.224614 -2.00445 0
M  V30 10072 C 1027.36 1.49829 -1.2574 0
M  V30 10073 O 1028.57 2.16759 -1.63487 0
M  V30 10074 C 1027.03 0.450818 -3.57065 0
M  V30 10075 C 1026.63 -0.808257 -4.40649 0
M  V30 10076 C 1028.38 0.999116 -4.12575 0
M  V30 10077 C 1026.28 -0.551612 -5.88822 0
M  V30 10078 H 1025.21 0.0877114 -0.748881 0
M  V30 10079 H 1027.87 -0.484866 -1.76978 0
M  V30 10080 H 1026.25 1.22157 -3.76688 0
M  V30 10081 H 1027.42 -1.58184 -4.32798 0
M  V30 10082 H 1025.74 -1.27981 -3.96245 0
M  V30 10083 H 1028.33 1.20646 -5.20911 0
M  V30 10084 H 1028.68 1.96139 -3.67199 0
M  V30 10085 H 1029.21 0.288518 -3.96752 0
M  V30 10086 H 1025.95 -1.48423 -6.38475 0
M  V30 10087 H 1025.47 0.183462 -5.99519 0
M  V30 10088 H 1027.15 -0.177307 -6.46757 0
M  V30 10089 N 1027.28 1.57312 -0.0952337 0
M  V30 10090 C 1028.7 1.57445 0.261416 0
M  V30 10091 C 1028.9 1.10639 1.68408 0
M  V30 10092 O 1027.95 0.782912 2.40056 0
M  V30 10093 C 1029.26 3.00659 0.0497206 0
M  V30 10094 C 1030.81 3.1278 0.117459 0
M  V30 10095 C 1031.29 4.57952 -0.0662441 0
M  V30 10096 N 1032.78 4.63199 -0.0114146 0
M  V30 10097 C 1033.51 5.73255 -0.128799 0
M  V30 10098 N 1033.01 6.92146 -0.301026 0
M  V30 10099 N 1034.8 5.62056 -0.0700599 0
M  V30 10100 H 1026.95 1.86045 -1.02475 0
M  V30 10101 H 1029.22 0.858726 -0.401614 0
M  V30 10102 H 1028.92 3.39102 -0.932888 0
M  V30 10103 H 1028.8 3.68792 0.791975 0
M  V30 10104 H 1031.18 2.74209 1.09057 0
M  V30 10105 H 1031.26 2.47238 -0.656288 0
M  V30 10106 H 1030.91 4.97217 -1.03623 0
M  V30 10107 H 1030.84 5.21555 0.727198 0
M  V30 10108 H 1033.33 3.77712 0.119154 0
M  V30 10109 H 1033.64 7.71855 -0.382104 0
M  V30 10110 H 1031.99 6.94184 -0.336695 0
M  V30 10111 H 1035.18 4.68057 0.0633587 0
M  V30 10112 H 1035.35 6.4779 -0.164991 0
M  V30 10113 N 1028.76 -0.17846 1.56586 0
M  V30 10114 C 1030 -0.897562 1.81856 0
M  V30 10115 C 1030.34 -1.82204 0.671955 0
M  V30 10116 O 1029.61 -1.91739 -0.326535 0
M  V30 10117 C 1029.89 -1.69942 3.17477 0
M  V30 10118 C 1029.75 -0.798545 4.42655 0
M  V30 10119 C 1031.07 -2.66861 3.49962 0
M  V30 10120 H 1028.19 -0.324863 0.661539 0
M  V30 10121 H 1030.83 -0.164106 1.8929 0
M  V30 10122 H 1028.98 -2.32471 3.11271 0
M  V30 10123 H 1030.65 -0.18668 4.60922 0
M  V30 10124 H 1028.89 -0.106181 4.3367 0
M  V30 10125 H 1029.56 -1.39496 5.34083 0
M  V30 10126 H 1032.04 -2.1446 3.56576 0
M  V30 10127 H 1030.92 -3.20037 4.45946 0
M  V30 10128 H 1031.18 -3.46715 2.74301 0
M  V30 10129 N 1030.24 -1.51135 -0.446768 0
M  V30 10130 C 1031.65 -1.39101 -0.782504 0
M  V30 10131 C 1031.85 -0.46599 -1.96038 0
M  V30 10132 O 1030.91 0.0823679 -2.52366 0
M  V30 10133 C 1032.22 -2.80953 -1.07173 0
M  V30 10134 C 1033.77 -2.90038 -1.17673 0
M  V30 10135 C 1034.24 -4.32777 -1.49894 0
M  V30 10136 N 1035.73 -4.3584 -1.56837 0
M  V30 10137 C 1036.47 -5.43305 -1.83322 0
M  V30 10138 N 1035.97 -6.60945 -2.07662 0
M  V30 10139 N 1037.76 -5.30775 -1.85026 0
M  V30 10140 H 1029.91 -2.09835 0.329114 0
M  V30 10141 H 1032.17 -0.944199 0.0848054 0
M  V30 10142 H 1031.88 -3.50591 -0.279037 0
M  V30 10143 H 1031.75 -3.197 -2.00179 0
M  V30 10144 H 1034.14 -2.20603 -1.96005 0
M  V30 10145 H 1034.22 -2.54801 -0.225892 0
M  V30 10146 H 1033.86 -5.02757 -0.720924 0
M  V30 10147 H 1033.79 -4.6552 -2.46168 0
M  V30 10148 H 1036.29 -3.51023 -1.39968 0
M  V30 10149 H 1036.6 -7.38643 -2.27214 0
M  V30 10150 H 1034.94 -6.64077 -2.05003 0
M  V30 10151 H 1038.13 -4.37858 -1.65523 0
M  V30 10152 H 1038.31 -6.14609 -2.05329 0
M  V30 10153 N 1031.71 0.701592 -1.41122 0
M  V30 10154 C 1032.96 1.4616 -1.40155 0
M  V30 10155 C 1033.29 1.94498 -0.00861553 0
M  V30 10156 O 1032.54 1.69484 0.978452 0
M  V30 10157 C 1032.84 2.693 -2.34973 0
M  V30 10158 C 1032.51 2.39652 -3.81939 0
M  V30 10159 C 1031.17 2.31277 -4.21977 0
M  V30 10160 C 1033.52 2.15076 -4.74755 0
M  V30 10161 C 1030.85 1.96413 -5.52846 0
M  V30 10162 C 1033.2 1.81722 -6.05937 0
M  V30 10163 C 1031.87 1.71838 -6.45002 0
M  V30 10164 H 1031.14 0.534837 -0.512865 0
M  V30 10165 H 1033.78 0.802425 -1.73878 0
M  V30 10166 H 1032.09 3.40123 -1.94484 0
M  V30 10167 H 1033.79 3.27427 -2.31501 0
M  V30 10168 H 1030.38 2.47063 -3.50226 0
M  V30 10169 H 1034.56 2.20495 -4.4463 0
M  V30 10170 H 1029.82 1.87308 -5.82001 0
M  V30 10171 H 1033.99 1.61723 -6.77362 0
M  V30 10172 H 1031.62 1.44591 -7.46323 0
M  V30 10173 N 1033.19 1.2685 0.935242 0
M  V30 10174 C 1034.42 1.15371 1.71386 0
M  V30 10175 C 1034.83 -0.293048 1.86917 0
M  V30 10176 O 1034.17 -1.212 1.38044 0
M  V30 10177 C 1034.23 1.75652 3.13666 0
M  V30 10178 C 1033.9 3.24788 3.215 0
M  V30 10179 C 1034.9 4.21525 3.04323 0
M  V30 10180 C 1032.58 3.65359 3.447 0
M  V30 10181 C 1034.57 5.56812 3.10224 0
M  V30 10182 C 1032.26 5.00778 3.50235 0
M  V30 10183 C 1033.26 5.96314 3.33014 0
M  V30 10184 O 1032.95 7.29266 3.38269 0
M  V30 10185 H 1032.68 0.40234 0.54323 0
M  V30 10186 H 1035.23 1.68083 1.18056 0
M  V30 10187 H 1033.46 1.17408 3.68446 0
M  V30 10188 H 1035.15 1.58994 3.73465 0
M  V30 10189 H 1035.92 3.91519 2.86249 0
M  V30 10190 H 1031.8 2.91479 3.57157 0
M  V30 10191 H 1035.34 6.3136 2.967 0
M  V30 10192 H 1031.24 5.30444 3.67831 0
M  V30 10193 H 1032.01 7.37616 3.54774 0
M  V30 10194 N 1034.67 -1.14067 1.0875 0
M  V30 10195 C 1035.58 -2.22871 0.732498 0
M  V30 10196 C 1036.6 -1.72008 -0.26253 0
M  V30 10197 O 1037.77 -2.01123 -0.105601 0
M  V30 10198 C 1034.84 -3.46371 0.150913 0
M  V30 10199 C 1033.9 -4.12158 1.201 0
M  V30 10200 C 1033.13 -5.29763 0.647075 0
M  V30 10201 O 1033.35 -5.67911 -0.532307 0
M  V30 10202 O 1032.29 -5.8542 1.3988 0
M  V30 10203 H 1036.11 -2.55596 1.64025 0
M  V30 10204 H 1033.7 -1.22065 0.861417 0
M  V30 10205 H 1035.58 -4.21055 -0.170442 0
M  V30 10206 H 1034.26 -3.15362 -0.729948 0
M  V30 10207 H 1033.16 -3.39332 1.57494 0
M  V30 10208 H 1034.5 -4.47282 2.05426 0
M  V30 10209 N 1036.15 -0.873678 -1.31166 0
M  V30 10210 C 1037.4 -0.485497 -1.96182 0
M  V30 10211 C 1037.72 0.96621 -1.69379 0
M  V30 10212 O 1036.99 1.67783 -1.01121 0
M  V30 10213 H 1035.57 -0.176547 -0.725838 0
M  V30 10214 H 1038.23 -1.11428 -1.59906 0
M  V30 10215 H 1037.33 -0.646325 -3.05334 0
M  V30 10216 N 1037.63 1.44308 -0.633487 0
M  V30 10217 C 1039.04 1.85387 -0.221009 0
M  V30 10218 C 1039.39 1.5301 1.22811 0
M  V30 10219 O 1038.51 0.969325 1.93476 0
M  V30 10220 C 1039.11 3.36497 -0.394331 0
M  V30 10221 C 1037.67 3.76382 -0.0363405 0
M  V30 10222 C 1036.81 2.68146 -0.706598 0
M  V30 10223 H 1039.77 1.34741 -0.83849 0
M  V30 10224 H 1039.79 3.78735 0.366026 0
M  V30 10225 H 1039.3 3.60031 -1.44911 0
M  V30 10226 H 1037.4 3.58463 1.01661 0
M  V30 10227 H 1037.51 4.77 -0.448045 0
M  V30 10228 H 1035.88 2.54306 -0.14168 0
M  V30 10229 H 1036.66 2.94512 -1.76401 0
M  V30 10230 N 1039.1 0.374177 1.53094 0
M  V30 10231 C 1040.01 -0.475935 2.29722 0
M  V30 10232 C 1041.03 -1.085 1.36029 0
M  V30 10233 O 1042.21 -1.09408 1.69091 0
M  V30 10234 C 1039.27 -1.59572 3.07795 0
M  V30 10235 C 1038.33 -1.01332 4.17169 0
M  V30 10236 C 1037.57 -2.07975 4.9151 0
M  V30 10237 O 1037.79 -3.29232 4.65793 0
M  V30 10238 O 1036.72 -1.7055 5.77232 0
M  V30 10239 H 1040.55 0.147877 3.0334 0
M  V30 10240 H 1038.13 0.138312 1.48758 0
M  V30 10241 H 1040.02 -2.24658 3.5652 0
M  V30 10242 H 1038.69 -2.20478 2.37005 0
M  V30 10243 H 1037.6 -0.326133 3.72676 0
M  V30 10244 H 1038.93 -0.4487 4.90151 0
M  V30 10245 N 1040.58 -1.57259 0.103575 0
M  V30 10246 C 1041.51 -2.17509 -0.84923 0
M  V30 10247 C 1042.49 -1.11079 -1.28824 0
M  V30 10248 O 1043.68 -1.39252 -1.35361 0
M  V30 10249 C 1040.81 -2.76221 -2.10522 0
M  V30 10250 C 1039.76 -3.88098 -1.80454 0
M  V30 10251 C 1039.09 -4.33549 -3.12952 0
M  V30 10252 C 1040.39 -5.10909 -1.08486 0
M  V30 10253 H 1042.08 -2.9738 -0.347217 0
M  V30 10254 H 1039.63 -1.43045 -0.165568 0
M  V30 10255 H 1041.58 -3.17024 -2.77621 0
M  V30 10256 H 1040.31 -1.93617 -2.63021 0
M  V30 10257 H 1038.96 -3.47847 -1.15749 0
M  V30 10258 H 1038.61 -3.47825 -3.63355 0
M  V30 10259 H 1038.31 -5.08984 -2.93614 0
M  V30 10260 H 1039.84 -4.76992 -3.81196 0
M  V30 10261 H 1041.25 -5.48828 -1.65711 0
M  V30 10262 H 1039.65 -5.91828 -0.992973 0
M  V30 10263 H 1040.72 -4.84851 -0.0690108 0
M  V30 10264 N 1042.06 0.170153 -1.56679 0
M  V30 10265 C 1043.31 0.887906 -1.8233 0
M  V30 10266 C 1043.64 1.81845 -0.681608 0
M  V30 10267 O 1042.91 1.9191 0.316362 0
M  V30 10268 C 1043.2 1.68256 -3.18374 0
M  V30 10269 C 1043.05 0.775059 -4.43072 0
M  V30 10270 C 1044.37 2.65001 -3.51372 0
M  V30 10271 H 1041.49 0.32135 -0.663252 0
M  V30 10272 H 1044.13 0.154065 -1.89374 0
M  V30 10273 H 1042.28 2.30817 -3.12499 0
M  V30 10274 H 1043.95 0.162234 -4.61015 0
M  V30 10275 H 1042.2 0.0831809 -4.3372 0
M  V30 10276 H 1042.87 1.36661 -5.34816 0
M  V30 10277 H 1045.34 2.12566 -3.57708 0
M  V30 10278 H 1044.22 3.17667 -4.47637 0
M  V30 10279 H 1044.48 3.45255 -2.76136 0
M  V30 10280 N 1043.54 1.5137 0.438746 0
M  V30 10281 C 1044.5 1.71993 1.51496 0
M  V30 10282 C 1045.5 0.589978 1.49586 0
M  V30 10283 O 1046.69 0.857505 1.51633 0
M  V30 10284 C 1043.82 1.77508 2.91039 0
M  V30 10285 H 1045.02 2.68041 1.34514 0
M  V30 10286 H 1042.57 1.41338 0.667326 0
M  V30 10287 H 1043.3 0.832698 3.13427 0
M  V30 10288 H 1043.09 2.59627 2.9383 0
M  V30 10289 H 1044.58 1.95308 3.69113 0
M  V30 10290 N 1045.02 -0.694098 1.41492 0
M  V30 10291 C 1046.29 -1.44875 1.31418 0
M  V30 10292 C 1046.67 -2.11022 -0.0575538 0
M  V30 10293 O 1046.02 -2.01799 -1.07188 0
M  V30 10294 C 1046.23 -2.46698 2.46863 0
M  V30 10295 C 1047.58 -3.11907 2.88095 0
M  V30 10296 O 1048.6 -2.57022 2.46613 0
M  V30 10297 O 1047.46 -4.11318 3.59833 0
M  V30 10298 H 1044.56 -0.645266 0.517263 0
M  V30 10299 H 1047.1 -0.724452 1.53459 0
M  V30 10300 H 1045.87 -1.96485 3.38392 0
M  V30 10301 H 1045.5 -3.26634 2.26706 0
M  V30 10302 N 1046.49 -1.27344 -0.928501 0
M  V30 10303 C 1047.72 -1.16557 -1.7155 0
M  V30 10304 C 1048.14 0.274044 -1.86093 0
M  V30 10305 O 1047.5 1.19847 -1.36038 0
M  V30 10306 C 1047.55 -1.85332 -3.09329 0
M  V30 10307 O 1046.65 -1.15074 -3.9602 0
M  V30 10308 H 1046 -0.405423 -0.525859 0
M  V30 10309 H 1048.53 -1.68399 -1.16202 0
M  V30 10310 H 1048.54 -1.92659 -3.59648 0
M  V30 10311 H 1047.21 -2.90056 -2.98061 0
M  V30 10312 H 1045.79 -1.1581 -3.54461 0
M  V30 10313 N 1047.97 1.13488 -1.09353 0
M  V30 10314 C 1048.92 2.20949 -0.726923 0
M  V30 10315 C 1049.91 1.67205 0.271816 0
M  V30 10316 O 1051.12 1.79505 0.133356 0
M  V30 10317 H 1047.5 0.719985 -0.217086 0
M  V30 10318 H 1049.47 2.49134 -1.6424 0
M  V30 10319 C 1048.22 3.47319 -0.162822 0
M  V30 10320 H 1047.54 3.89011 -0.922527 0
M  V30 10321 H 1048.98 4.23963 0.0557734 0
M  V30 10322 C 1047.44 3.18376 1.10175 0
M  V30 10323 O 1047.97 3.3707 2.18511 0
M  V30 10324 N 1046.17 2.72262 1.01597 0
M  V30 10325 H 1045.72 2.5725 0.134289 0
M  V30 10326 H 1045.68 2.53272 1.86281 0
M  V30 10327 N 1049.45 0.880621 1.30701 0
M  V30 10328 C 1050.7 0.497611 1.966 0
M  V30 10329 C 1051.03 -0.949901 1.69383 0
M  V30 10330 O 1050.31 -1.67054 0.996152 0
M  V30 10331 C 1050.59 0.767919 3.51817 0
M  V30 10332 C 1050.44 2.26574 3.88567 0
M  V30 10333 C 1051.76 0.241502 4.39437 0
M  V30 10334 H 1048.88 0.182267 0.714106 0
M  V30 10335 H 1051.52 1.10382 1.54648 0
M  V30 10336 H 1049.67 0.251967 3.87682 0
M  V30 10337 H 1051.34 2.84977 3.62748 0
M  V30 10338 H 1049.59 2.73411 3.36792 0
M  V30 10339 H 1050.26 2.40549 4.9683 0
M  V30 10340 H 1052.73 0.683051 4.10455 0
M  V30 10341 H 1051.61 0.459997 5.46969 0
M  V30 10342 H 1051.87 -0.857068 4.33713 0
M  V30 10343 N 1050.93 -1.4397 0.641131 0
M  V30 10344 C 1052.18 -2.02246 0.14985 0
M  V30 10345 C 1052.51 -1.50387 -1.22871 0
M  V30 10346 O 1051.78 -0.692003 -1.81773 0
M  V30 10347 C 1052.07 -3.59798 0.147449 0
M  V30 10348 C 1051.92 -4.21916 1.55907 0
M  V30 10349 C 1053.24 -4.36985 -0.522667 0
M  V30 10350 H 1050.36 -0.734875 0.0559274 0
M  V30 10351 H 1053 -1.71418 0.819513 0
M  V30 10352 H 1051.15 -3.86193 -0.422789 0
M  V30 10353 H 1052.82 -4.06594 2.17896 0
M  V30 10354 H 1051.06 -3.79028 2.10998 0
M  V30 10355 H 1051.74 -5.30964 1.50934 0
M  V30 10356 H 1054.21 -4.16083 -0.0376226 0
M  V30 10357 H 1053.09 -5.46676 -0.493572 0
M  V30 10358 H 1053.35 -4.12335 -1.59475 0
M  V30 10359 N 1052.41 -0.382291 -1.52893 0
M  V30 10360 C 1053.34 0.447829 -2.29165 0
M  V30 10361 C 1054.32 1.06956 -1.32267 0
M  V30 10362 O 1055.5 1.08365 -1.61154 0
M  V30 10363 C 1052.63 1.57902 -3.09329 0
M  V30 10364 C 1051.59 1.08369 -4.14053 0
M  V30 10365 C 1050.91 2.30641 -4.82399 0
M  V30 10366 C 1052.21 0.156591 -5.22065 0
M  V30 10367 H 1053.91 -0.188541 -2.98806 0
M  V30 10368 H 1051.45 -0.0921179 -1.43705 0
M  V30 10369 H 1053.41 2.16652 -3.61442 0
M  V30 10370 H 1052.13 2.24287 -2.37409 0
M  V30 10371 H 1050.79 0.518772 -3.62911 0
M  V30 10372 H 1050.44 2.9552 -4.07034 0
M  V30 10373 H 1050.14 1.98163 -5.53177 0
M  V30 10374 H 1051.66 2.90047 -5.37313 0
M  V30 10375 H 1053.08 0.652065 -5.6958 0
M  V30 10376 H 1051.47 -0.0780978 -6.00049 0
M  V30 10377 H 1052.54 -0.796529 -4.78313 0
M  V30 10378 N 1053.89 1.57202 -0.111913 0
M  V30 10379 C 1055.16 1.86459 0.590972 0
M  V30 10380 C 1055.54 1.01182 1.85271 0
M  V30 10381 O 1054.89 0.0887891 2.28327 0
M  V30 10382 C 1055.1 3.37455 0.890225 0
M  V30 10383 C 1056.45 4.05895 1.24638 0
M  V30 10384 O 1057.47 3.42433 0.980713 0
M  V30 10385 O 1056.33 5.17903 1.74466 0
M  V30 10386 H 1053.43 0.771652 0.297459 0
M  V30 10387 H 1055.97 1.69072 -0.145882 0
M  V30 10388 H 1054.74 3.913 -0.00419012 0
M  V30 10389 H 1054.37 3.60248 1.68248 0
M  V30 10390 N 1055.36 -0.161842 1.56767 0
M  V30 10391 C 1056.59 -0.892247 1.86672 0
M  V30 10392 C 1057.01 -1.75407 0.69841 0
M  V30 10393 O 1056.36 -1.7945 -0.332251 0
M  V30 10394 C 1056.41 -1.7612 3.15696 0
M  V30 10395 O 1056.14 -0.934131 4.28025 0
M  V30 10396 C 1057.64 -2.60046 3.59014 0
M  V30 10397 H 1054.86 -0.258747 0.619105 0
M  V30 10398 H 1057.4 -0.159089 2.0388 0
M  V30 10399 H 1055.56 -2.44759 3.00286 0
M  V30 10400 H 1055.97 -1.52931 5.01709 0
M  V30 10401 H 1057.44 -3.16618 4.5217 0
M  V30 10402 H 1057.92 -3.35374 2.83586 0
M  V30 10403 H 1058.53 -1.96724 3.77067 0
M  V30 10404 N 1056.84 -1.516 -0.430713 0
M  V30 10405 C 1058.07 -1.68414 -1.20185 0
M  V30 10406 C 1058.48 -0.384297 -1.84847 0
M  V30 10407 O 1057.84 0.637808 -1.70992 0
M  V30 10408 C 1057.89 -2.80451 -2.28099 0
M  V30 10409 O 1057.61 -4.05399 -1.66081 0
M  V30 10410 C 1059.11 -3.0859 -3.18256 0
M  V30 10411 H 1056.33 -0.564982 -0.361989 0
M  V30 10412 H 1058.88 -1.9805 -0.50954 0
M  V30 10413 H 1057.03 -2.53395 -2.93036 0
M  V30 10414 H 1057.45 -4.67671 -2.37453 0
M  V30 10415 H 1058.92 -3.9055 -3.90096 0
M  V30 10416 H 1059.4 -2.21264 -3.79393 0
M  V30 10417 H 1060 -3.37331 -2.59014 0
M  V30 10418 N 1058.32 0.686584 -1.41858 0
M  V30 10419 C 1059.25 1.81107 -1.38836 0
M  V30 10420 C 1060.23 1.60599 -0.254293 0
M  V30 10421 O 1061.41 1.83229 -0.442641 0
M  V30 10422 C 1058.54 3.17928 -1.16787 0
M  V30 10423 C 1057.59 3.5721 -2.33031 0
M  V30 10424 S 1058.42 3.60986 -3.95536 0
M  V30 10425 C 1059.58 5.00519 -3.75808 0
M  V30 10426 H 1059.81 1.83396 -2.33994 0
M  V30 10427 H 1057.34 0.856146 -1.28489 0
M  V30 10428 H 1059.3 3.9691 -1.04752 0
M  V30 10429 H 1057.96 3.1324 -0.232335 0
M  V30 10430 H 1057.15 4.56629 -2.13321 0
M  V30 10431 H 1056.76 2.8556 -2.41519 0
M  V30 10432 H 1059.05 5.88272 -3.36069 0
M  V30 10433 H 1059.99 5.25273 -4.74862 0
M  V30 10434 H 1060.4 4.72481 -3.08904 0
M  V30 10435 N 1059.8 1.27835 0.921735 0
M  V30 10436 C 1061.21 1.05369 1.19873 0
M  V30 10437 C 1061.41 -0.208997 2.00413 0
M  V30 10438 O 1060.47 -0.912861 2.35421 0
M  V30 10439 C 1061.78 2.29658 1.94108 0
M  V30 10440 C 1063.33 2.34756 2.07023 0
M  V30 10441 C 1063.81 3.5879 2.84664 0
M  V30 10442 N 1065.3 3.59383 2.9223 0
M  V30 10443 C 1066.03 4.52029 3.52785 0
M  V30 10444 N 1065.53 5.54986 4.14683 0
M  V30 10445 N 1067.32 4.39641 3.50246 0
M  V30 10446 H 1059.47 2.08903 0.383819 0
M  V30 10447 H 1061.73 0.919065 0.232429 0
M  V30 10448 H 1061.44 3.21604 1.4235 0
M  V30 10449 H 1061.31 2.35444 2.94696 0
M  V30 10450 H 1063.7 1.43312 2.57965 0
M  V30 10451 H 1063.78 2.32969 1.05636 0
M  V30 10452 H 1063.43 4.50574 2.34404 0
M  V30 10453 H 1063.36 3.57829 3.86349 0
M  V30 10454 H 1065.85 2.84927 2.48244 0
M  V30 10455 H 1066.16 6.21837 4.58845 0
M  V30 10456 H 1064.51 5.58822 4.13211 0
M  V30 10457 H 1067.7 3.58413 3.01094 0
M  V30 10458 H 1067.87 5.12033 3.97148 0
M  V30 10459 N 1061.28 -1.12907 1.09954 0
M  V30 10460 C 1062.52 -1.83941 0.837255 0
M  V30 10461 C 1062.84 -1.84234 -0.638984 0
M  V30 10462 O 1062.11 -1.30193 -1.46378 0
M  V30 10463 H 1060.69 -0.681115 0.306743 0
M  V30 10464 H 1063.36 -1.36743 1.38879 0
M  V30 10465 H 1062.45 -2.88289 1.19565 0
M  V30 10466 N 1062.75 -0.88754 -1.30232 0
M  V30 10467 C 1064 -0.506277 -1.95656 0
M  V30 10468 C 1064.32 0.948191 -1.70395 0
M  V30 10469 O 1063.59 1.66701 -1.02895 0
M  V30 10470 H 1062.17 -0.184235 -0.723924 0
M  V30 10471 H 1064.83 -1.13118 -1.58715 0
M  V30 10472 H 1063.93 -0.678673 -3.04632 0
M  V30 10473 N 1064.23 1.43628 -0.648757 0
M  V30 10474 C 1065.65 1.56442 -0.315921 0
M  V30 10475 C 1065.85 1.63322 1.18018 0
M  V30 10476 O 1064.9 1.58585 1.96487 0
M  V30 10477 C 1066.22 2.82751 -1.02335 0
M  V30 10478 C 1067.77 2.96488 -1.00318 0
M  V30 10479 C 1068.24 4.25623 -1.69142 0
M  V30 10480 N 1069.73 4.32477 -1.65885 0
M  V30 10481 C 1070.47 5.31154 -2.16016 0
M  V30 10482 N 1069.96 6.36135 -2.74415 0
M  V30 10483 N 1071.76 5.22778 -2.06541 0
M  V30 10484 H 1063.91 1.37405 -1.61968 0
M  V30 10485 H 1066.17 0.65962 -0.680886 0
M  V30 10486 H 1065.88 2.83714 -2.07844 0
M  V30 10487 H 1065.75 3.72836 -0.572114 0
M  V30 10488 H 1068.14 2.95068 0.0434919 0
M  V30 10489 H 1068.22 2.07704 -1.49307 0
M  V30 10490 H 1067.86 4.27804 -2.73763 0
M  V30 10491 H 1067.79 5.13296 -1.17622 0
M  V30 10492 H 1070.28 3.57232 -1.23264 0
M  V30 10493 H 1070.6 7.07743 -3.10355 0
M  V30 10494 H 1068.94 6.36771 -2.78474 0
M  V30 10495 H 1072.13 4.39678 -1.60625 0
M  V30 10496 H 1072.3 5.99523 -2.45919 0
M  V30 10497 N 1065.71 0.390394 1.52688 0
M  V30 10498 C 1066.64 -0.43567 2.294 0
M  V30 10499 C 1067.62 -1.06253 1.32832 0
M  V30 10500 O 1068.81 -1.07509 1.61726 0
M  V30 10501 C 1065.94 -1.56259 3.10162 0
M  V30 10502 C 1064.89 -1.06172 4.14622 0
M  V30 10503 C 1064.22 -2.2808 4.83615 0
M  V30 10504 C 1065.52 -0.128902 5.22141 0
M  V30 10505 H 1067.21 0.204384 2.98702 0
M  V30 10506 H 1064.76 0.0997377 1.43654 0
M  V30 10507 H 1066.71 -2.14732 3.62585 0
M  V30 10508 H 1065.43 -2.23025 2.38595 0
M  V30 10509 H 1064.09 -0.499518 3.63181 0
M  V30 10510 H 1063.74 -2.93358 4.08595 0
M  V30 10511 H 1063.44 -1.95227 5.5422 0
M  V30 10512 H 1064.96 -2.87193 5.38844 0
M  V30 10513 H 1066.38 -0.621849 5.69917 0
M  V30 10514 H 1064.78 0.109919 5.99999 0
M  V30 10515 H 1065.85 0.821884 4.77884 0
M  V30 10516 N 1067.19 -1.57141 0.120249 0
M  V30 10517 C 1068.44 -1.94852 -0.536387 0
M  V30 10518 C 1068.76 -1.00452 -1.67136 0
M  V30 10519 O 1068.03 -0.061053 -1.95805 0
M  V30 10520 H 1066.61 -0.719411 -0.201138 0
M  V30 10521 H 1069.27 -1.93977 0.189482 0
M  V30 10522 H 1068.37 -2.97917 -0.930145 0
M  V30 10523 N 1068.67 0.153526 -1.5685 0
M  V30 10524 C 1069.91 0.868517 -1.83261 0
M  V30 10525 C 1070.25 1.81112 -0.700857 0
M  V30 10526 O 1069.52 1.92235 0.295989 0
M  V30 10527 C 1069.8 1.6487 -3.2014 0
M  V30 10528 C 1069.66 0.728021 -4.43869 0
M  V30 10529 C 1070.98 2.61259 -3.54163 0
M  V30 10530 H 1068.09 0.314297 -0.666623 0
M  V30 10531 H 1070.74 0.133971 -1.89527 0
M  V30 10532 H 1068.89 2.2749 -3.1493 0
M  V30 10533 H 1070.56 0.113328 -4.61161 0
M  V30 10534 H 1068.8 0.0371744 -4.33784 0
M  V30 10535 H 1069.47 1.30981 -5.36235 0
M  V30 10536 H 1071.95 2.0876 -3.59942 0
M  V30 10537 H 1070.82 3.12902 -4.50981 0
M  V30 10538 H 1071.09 3.42307 -2.79782 0
M  V30 10539 N 1070.14 1.51827 0.422667 0
M  V30 10540 C 1071.39 1.6522 1.17084 0
M  V30 10541 C 1071.72 0.375508 1.90841 0
M  V30 10542 O 1070.97 -0.641029 1.84903 0
M  V30 10543 C 1071.27 2.81572 2.20119 0
M  V30 10544 C 1070.94 4.20303 1.63268 0
M  V30 10545 C 1069.6 4.5804 1.47488 0
M  V30 10546 C 1071.95 5.06812 1.21618 0
M  V30 10547 C 1069.28 5.79979 0.885531 0
M  V30 10548 C 1071.63 6.29343 0.641071 0
M  V30 10549 C 1070.3 6.65841 0.470286 0
M  V30 10550 H 1069.57 0.604581 0.428442 0
M  V30 10551 H 1072.21 1.85896 0.459874 0
M  V30 10552 H 1070.52 2.55175 2.97309 0
M  V30 10553 H 1072.22 2.89132 2.77856 0
M  V30 10554 H 1068.81 3.90557 1.76531 0
M  V30 10555 H 1072.99 4.78251 1.32624 0
M  V30 10556 H 1068.25 6.06892 0.741105 0
M  V30 10557 H 1072.42 6.9571 0.309888 0
M  V30 10558 H 1070.05 7.60199 0.0115038 0
M  V30 10559 N 1071.62 -0.679052 1.4222 0
M  V30 10560 C 1072.86 -1.45118 1.43945 0
M  V30 10561 C 1073.23 -1.91928 0.0524851 0
M  V30 10562 O 1074.43 -2.68743 -0.0555318 0
M  V30 10563 C 1072.7 -2.6191 2.43183 0
M  V30 10564 S 1074.26 -3.50819 2.63574 0
M  V30 10565 H 1071.08 -0.495695 0.509713 0
M  V30 10566 H 1073.68 -0.790842 1.7879 0
M  V30 10567 H 1072.38 -2.25752 3.42731 0
M  V30 10568 H 1071.91 -3.3282 2.09748 0
M  V30 10569 H 1073.93 -4.57735 1.91555 0
M  V30 10570 N 1073.1 -1.28322 -0.914942 0
M  V30 10571 C 1074.35 -1.15407 -1.66396 0
M  V30 10572 C 1074.68 0.297587 -1.9221 0
M  V30 10573 O 1073.93 1.23299 -1.51973 0
M  V30 10574 C 1074.23 -1.89663 -3.02924 0
M  V30 10575 C 1073.9 -3.39464 -2.96774 0
M  V30 10576 C 1072.56 -3.80321 -2.94804 0
M  V30 10577 C 1074.91 -4.3499 -2.87111 0
M  V30 10578 C 1072.24 -5.15046 -2.8097 0
M  V30 10579 C 1074.59 -5.69788 -2.74818 0
M  V30 10580 C 1073.25 -6.09921 -2.71205 0
M  V30 10581 H 1072.52 -0.422303 -0.608885 0
M  V30 10582 H 1075.17 -1.59082 -1.06607 0
M  V30 10583 H 1073.48 -1.38533 -3.66491 0
M  V30 10584 H 1075.17 -1.77087 -3.59779 0
M  V30 10585 H 1071.76 -3.06979 -2.99101 0
M  V30 10586 H 1075.95 -4.04389 -2.87721 0
M  V30 10587 H 1071.2 -5.45271 -2.76568 0
M  V30 10588 H 1075.38 -6.43469 -2.66309 0
M  V30 10589 H 1073 -7.14267 -2.60243 0
M  V30 10590 N 1074.58 1.12322 -1.10551 0
M  V30 10591 C 1075.8 1.8822 -0.871093 0
M  V30 10592 C 1076.23 1.7916 0.573005 0
M  V30 10593 O 1075.59 1.14738 1.40374 0
M  V30 10594 C 1075.63 3.35349 -1.32565 0
M  V30 10595 O 1074.74 4.09461 -0.49145 0
M  V30 10596 H 1074.08 0.584787 -0.314516 0
M  V30 10597 H 1076.61 1.42039 -1.47262 0
M  V30 10598 H 1076.62 3.86189 -1.31612 0
M  V30 10599 H 1075.29 3.4126 -2.37728 0
M  V30 10600 H 1073.87 3.68575 -0.566294 0
M  V30 10601 N 1076.06 0.894434 1.2976 0
M  V30 10602 C 1076.99 0.325525 2.26877 0
M  V30 10603 C 1078 -0.525218 1.54095 0
M  V30 10604 O 1079.19 -0.343231 1.75169 0
M  V30 10605 C 1076.29 -0.554952 3.34325 0
M  V30 10606 C 1075.46 0.268868 4.36573 0
M  V30 10607 C 1074.52 -0.543601 5.23385 0
M  V30 10608 O 1073.55 0.0370454 5.69188 0
M  V30 10609 N 1074.75 -1.85079 5.50205 0
M  V30 10610 H 1077.52 1.16021 2.76332 0
M  V30 10611 H 1075.08 0.758382 1.43039 0
M  V30 10612 H 1077.07 -1.10476 3.89329 0
M  V30 10613 H 1075.64 -1.29031 2.84727 0
M  V30 10614 H 1074.86 1.0001 3.81302 0
M  V30 10615 H 1076.15 0.833248 5.01931 0
M  V30 10616 H 1075.54 -2.34533 5.14792 0
M  V30 10617 H 1074.1 -2.34784 6.08046 0
M  V30 10618 N 1077.53 -1.43282 0.656365 0
M  V30 10619 C 1078.44 -2.34576 -0.033864 0
M  V30 10620 C 1079.46 -1.5406 -0.808793 0
M  V30 10621 O 1080.64 -1.867 -0.755322 0
M  V30 10622 C 1077.7 -3.32378 -0.986197 0
M  V30 10623 C 1076.76 -4.28797 -0.207851 0
M  V30 10624 C 1076 -5.21927 -1.11482 0
M  V30 10625 O 1076.22 -5.19554 -2.35414 0
M  V30 10626 O 1075.15 -5.99045 -0.585536 0
M  V30 10627 H 1078.98 -2.95099 0.717668 0
M  V30 10628 H 1076.56 -1.43475 0.416556 0
M  V30 10629 H 1078.45 -3.9251 -1.53341 0
M  V30 10630 H 1077.12 -2.74354 -1.7179 0
M  V30 10631 H 1076.03 -3.72134 0.383022 0
M  V30 10632 H 1077.36 -4.89811 0.48435 0
M  V30 10633 N 1079.01 -0.398486 -1.52479 0
M  V30 10634 C 1079.96 0.447001 -2.28264 0
M  V30 10635 C 1080.96 1.05511 -1.32529 0
M  V30 10636 O 1082.16 0.994528 -1.5003 0
M  V30 10637 H 1078.54 0.162919 -0.73414 0
M  V30 10638 H 1080.51 -0.213534 -2.97635 0
M  V30 10639 C 1079.26 1.55724 -3.10879 0
M  V30 10640 H 1078.58 1.09864 -3.84409 0
M  V30 10641 H 1080.02 2.12286 -3.67029 0
M  V30 10642 C 1078.48 2.51853 -2.23768 0
M  V30 10643 O 1079.01 3.55483 -1.87069 0
M  V30 10644 N 1077.21 2.2181 -1.87746 0
M  V30 10645 H 1076.76 1.3757 -2.17789 0
M  V30 10646 H 1076.72 2.86376 -1.29753 0
M  V30 10647 N 1080.49 1.57075 -0.12858 0
M  V30 10648 C 1081.74 1.94695 0.526952 0
M  V30 10649 C 1082.05 1.01482 1.67215 0
M  V30 10650 O 1083.26 1.28606 2.39108 0
M  V30 10651 C 1081.72 3.4605 0.988801 0
M  V30 10652 C 1081.32 4.47816 -0.128457 0
M  V30 10653 C 1083.07 3.92572 1.61517 0
M  V30 10654 C 1080.97 5.9036 0.350628 0
M  V30 10655 H 1079.9 0.726819 0.200623 0
M  V30 10656 H 1082.56 1.82295 -0.209972 0
M  V30 10657 H 1080.94 3.53718 1.78043 0
M  V30 10658 H 1082.11 4.51826 -0.904976 0
M  V30 10659 H 1080.43 4.11103 -0.662075 0
M  V30 10660 H 1083.02 4.96493 1.98491 0
M  V30 10661 H 1083.37 3.33085 2.49721 0
M  V30 10662 H 1083.9 3.87744 0.888768 0
M  V30 10663 H 1080.64 6.53624 -0.495592 0
M  V30 10664 H 1080.16 5.89749 1.09342 0
M  V30 10665 H 1081.84 6.41926 0.808717 0
M  V30 10666 N 1081.97 -0.145205 1.5693 0
M  V30 10667 C 1083.22 -0.855955 1.82637 0
M  V30 10668 C 1083.53 -1.82255 0.710109 0
M  V30 10669 O 1084.74 -2.57758 0.852837 0
M  V30 10670 C 1083.19 -1.57278 3.23715 0
M  V30 10671 C 1082.8 -0.648507 4.43281 0
M  V30 10672 C 1084.55 -2.27021 3.58695 0
M  V30 10673 C 1082.45 -1.36706 5.75383 0
M  V30 10674 H 1081.38 -0.323385 0.68113 0
M  V30 10675 H 1084.03 -0.10869 1.83178 0
M  V30 10676 H 1082.42 -2.36574 3.17567 0
M  V30 10677 H 1083.59 0.109355 4.6067 0
M  V30 10678 H 1081.9 -0.0594029 4.16358 0
M  V30 10679 H 1084.5 -2.81423 4.54648 0
M  V30 10680 H 1084.84 -3.03598 2.8484 0
M  V30 10681 H 1085.38 -1.54642 3.66512 0
M  V30 10682 H 1082.12 -0.6431 6.52338 0
M  V30 10683 H 1081.64 -2.09759 5.61926 0
M  V30 10684 H 1083.32 -1.90748 6.18243 0
M  V30 10685 N 1083.45 -1.52049 -0.414609 0
M  V30 10686 C 1084.69 -1.67041 -1.16056 0
M  V30 10687 C 1085.05 -0.392768 -1.88348 0
M  V30 10688 O 1084.34 0.612547 -1.81545 0
M  V30 10689 C 1084.54 -2.82735 -2.18622 0
M  V30 10690 C 1084.36 -4.21627 -1.564 0
M  V30 10691 C 1083.13 -4.87234 -1.33907 0
M  V30 10692 C 1085.33 -5.03924 -1.02785 0
M  V30 10693 N 1083.31 -6.10175 -0.67521 0
M  V30 10694 C 1084.69 -6.18056 -0.490589 0
M  V30 10695 C 1086.74 -4.89293 -0.921791 0
M  V30 10696 C 1085.44 -7.19159 0.14234 0
M  V30 10697 C 1087.47 -5.90625 -0.302724 0
M  V30 10698 C 1086.83 -7.04044 0.223891 0
M  V30 10699 H 1082.93 -0.664947 -0.411544 0
M  V30 10700 H 1085.51 -1.89339 -0.453743 0
M  V30 10701 H 1083.69 -2.62062 -2.86668 0
M  V30 10702 H 1085.42 -2.86792 -2.85539 0
M  V30 10703 H 1082.17 -4.45499 -1.60709 0
M  V30 10704 H 1082.6 -6.76042 -0.360062 0
M  V30 10705 H 1087.24 -4.01838 -1.31477 0
M  V30 10706 H 1084.96 -8.06244 0.547392 0
M  V30 10707 H 1088.54 -5.81375 -0.222252 0
M  V30 10708 H 1087.42 -7.81111 0.695377 0
M  V30 10709 N 1084.93 0.6715 -1.42579 0
M  V30 10710 C 1085.89 1.76676 -1.46008 0
M  V30 10711 C 1086.89 1.57007 -0.347213 0
M  V30 10712 O 1088.08 1.63238 -0.608185 0
M  V30 10713 C 1085.21 3.15348 -1.29494 0
M  V30 10714 H 1086.4 1.75021 -2.43531 0
M  V30 10715 H 1083.96 0.881444 -1.29075 0
M  V30 10716 H 1084.69 3.22626 -0.32906 0
M  V30 10717 H 1084.48 3.31028 -2.10149 0
M  V30 10718 H 1085.97 3.95251 -1.34784 0
M  V30 10719 N 1086.4 1.28806 0.908124 0
M  V30 10720 C 1087.35 1.13083 2.03261 0
M  V30 10721 C 1088.35 0.0486094 1.6933 0
M  V30 10722 O 1089.55 0.207794 1.78797 0
M  V30 10723 H 1085.93 0.349057 0.666081 0
M  V30 10724 H 1087.9 2.08304 2.13663 0
M  V30 10725 C 1086.65 0.815339 3.38005 0
M  V30 10726 H 1085.97 1.64007 3.64612 0
M  V30 10727 H 1087.41 0.745311 4.17398 0
M  V30 10728 C 1085.87 -0.48113 3.33447 0
M  V30 10729 O 1086.4 -1.50974 3.7225 0
M  V30 10730 N 1084.6 -0.483912 2.86543 0
M  V30 10731 H 1084.15 0.353593 2.55162 0
M  V30 10732 H 1084.11 -1.35138 2.83875 0
M  V30 10733 N 1087.88 -1.11734 1.11145 0
M  V30 10734 C 1088.81 -2.1976 0.789152 0
M  V30 10735 C 1089.79 -1.68382 -0.241143 0
M  V30 10736 O 1090.98 -1.93914 -0.105292 0
M  V30 10737 C 1088.11 -3.46549 0.228204 0
M  V30 10738 C 1087.06 -4.11123 1.19002 0
M  V30 10739 C 1086.39 -5.32451 0.489928 0
M  V30 10740 C 1087.69 -4.56406 2.53951 0
M  V30 10741 H 1089.38 -2.46978 1.69241 0
M  V30 10742 H 1086.93 -1.18705 0.81517 0
M  V30 10743 H 1088.88 -4.21399 -0.00945908 0
M  V30 10744 H 1087.6 -3.18782 -0.71033 0
M  V30 10745 H 1086.26 -3.38264 1.41326 0
M  V30 10746 H 1085.91 -5.00953 -0.453315 0
M  V30 10747 H 1085.61 -5.76605 1.1314 0
M  V30 10748 H 1087.14 -6.10042 0.260984 0
M  V30 10749 H 1088.55 -5.22592 2.35733 0
M  V30 10750 H 1086.95 -5.11363 3.14051 0
M  V30 10751 H 1088.02 -3.7001 3.13402 0
M  V30 10752 N 1089.36 -0.901303 -1.29284 0
M  V30 10753 C 1090.78 -0.597634 -1.47988 0
M  V30 10754 C 1090.98 0.860434 -1.82205 0
M  V30 10755 O 1090.03 1.64049 -1.91948 0
M  V30 10756 C 1091.34 -1.52484 -2.5917 0
M  V30 10757 C 1092.89 -1.53021 -2.73045 0
M  V30 10758 C 1093.37 -2.44373 -3.87357 0
M  V30 10759 N 1094.86 -2.42429 -3.94693 0
M  V30 10760 C 1095.59 -3.09817 -4.82495 0
M  V30 10761 N 1095.09 -3.86489 -5.74976 0
M  V30 10762 N 1096.88 -2.98966 -4.76 0
M  V30 10763 H 1089.03 -1.84432 -1.0535 0
M  V30 10764 H 1091.3 -0.790367 -0.523473 0
M  V30 10765 H 1091 -2.56378 -2.40756 0
M  V30 10766 H 1090.88 -1.24657 -3.56006 0
M  V30 10767 H 1093.26 -0.498709 -2.90855 0
M  V30 10768 H 1093.34 -1.84886 -1.76779 0
M  V30 10769 H 1092.99 -3.47618 -3.70302 0
M  V30 10770 H 1092.92 -2.09817 -4.82995 0
M  V30 10771 H 1095.41 -1.86724 -3.28546 0
M  V30 10772 H 1095.72 -4.34959 -6.38773 0
M  V30 10773 H 1094.07 -3.90596 -5.74857 0
M  V30 10774 H 1097.26 -2.38581 -4.02737 0
M  V30 10775 H 1097.43 -3.51758 -5.44215 0
M  V30 10776 N 1090.84 1.42931 -0.663954 0
M  V30 10777 C 1092.07 2.05729 -0.189532 0
M  V30 10778 C 1092.48 1.49914 1.15423 0
M  V30 10779 O 1091.82 0.629324 1.72584 0
M  V30 10780 C 1091.88 3.59482 -0.0354748 0
M  V30 10781 C 1091.54 4.37935 -1.30622 0
M  V30 10782 C 1092.54 4.69297 -2.23733 0
M  V30 10783 C 1090.23 4.77761 -1.5508 0
M  V30 10784 C 1092.22 5.39407 -3.39586 0
M  V30 10785 C 1089.91 5.47613 -2.71224 0
M  V30 10786 C 1090.91 5.7836 -3.63302 0
M  V30 10787 O 1090.59 6.46783 -4.77417 0
M  V30 10788 H 1090.33 0.669678 -0.0922342 0
M  V30 10789 H 1092.88 1.84243 -0.907943 0
M  V30 10790 H 1091.11 3.79584 0.738412 0
M  V30 10791 H 1092.8 4.03947 0.397679 0
M  V30 10792 H 1093.56 4.39038 -2.06084 0
M  V30 10793 H 1089.44 4.53229 -0.842863 0
M  V30 10794 H 1092.99 5.63323 -4.11476 0
M  V30 10795 H 1088.88 5.77289 -2.88804 0
M  V30 10796 H 1089.65 6.6527 -4.76821 0
M  V30 10797 N 1092.32 0.406567 1.52266 0
M  V30 10798 C 1093.73 0.0573228 1.59497 0
M  V30 10799 C 1093.93 -1.43005 1.41957 0
M  V30 10800 O 1092.99 -2.19659 1.24523 0
M  V30 10801 C 1094.3 0.549947 2.95628 0
M  V30 10802 C 1095.85 0.5077 3.08855 0
M  V30 10803 C 1096.32 0.976792 4.47463 0
M  V30 10804 N 1097.81 0.933508 4.53696 0
M  V30 10805 C 1098.55 1.26769 5.59211 0
M  V30 10806 N 1098.05 1.6732 6.72292 0
M  V30 10807 N 1099.84 1.18782 5.49406 0
M  V30 10808 H 1091.99 1.37468 1.61914 0
M  V30 10809 H 1094.25 0.564562 0.76156 0
M  V30 10810 H 1093.96 1.58943 3.13736 0
M  V30 10811 H 1093.83 -0.0417767 3.77177 0
M  V30 10812 H 1096.22 -0.522728 2.90433 0
M  V30 10813 H 1096.3 1.13545 2.29219 0
M  V30 10814 H 1095.94 2.00554 4.66627 0
M  V30 10815 H 1095.87 0.325885 5.25591 0
M  V30 10816 H 1098.37 0.635333 3.72521 0
M  V30 10817 H 1098.68 1.91137 7.4879 0
M  V30 10818 H 1097.02 1.71221 6.73579 0
M  V30 10819 H 1100.21 0.869906 4.59946 0
M  V30 10820 H 1100.39 1.45157 6.31533 0
M  V30 10821 N 1093.79 -1.57004 0.136909 0
M  V30 10822 C 1095.03 -1.97686 -0.519583 0
M  V30 10823 C 1095.4 -1.01951 -1.62696 0
M  V30 10824 O 1096.6 -1.31639 -2.3436 0
M  V30 10825 C 1094.87 -3.42474 -1.02206 0
M  V30 10826 S 1096.43 -4.05176 -1.68457 0
M  V30 10827 H 1093.25 -0.690787 -0.168329 0
M  V30 10828 H 1095.85 -1.94187 0.226234 0
M  V30 10829 H 1094.55 -4.09887 -0.205194 0
M  V30 10830 H 1094.08 -3.49664 -1.80273 0
M  V30 10831 H 1096.1 -3.97401 -2.97131 0
M  V30 10832 N 1095.27 0.136881 -1.57004 0
M  V30 10833 C 1096.22 1.18782 -1.99984 0
M  V30 10834 C 1097.21 1.43899 -0.893841 0
M  V30 10835 O 1098.42 1.44072 -1.07904 0
M  V30 10836 H 1094.8 0.400065 -0.636751 0
M  V30 10837 H 1096.77 0.798696 -2.87512 0
M  V30 10838 C 1095.52 2.51105 -2.40502 0
M  V30 10839 H 1094.84 2.32611 -3.25165 0
M  V30 10840 H 1096.28 3.23244 -2.74389 0
M  V30 10841 C 1094.74 3.12386 -1.26161 0
M  V30 10842 O 1095.27 3.97666 -0.567836 0
M  V30 10843 N 1093.47 2.71989 -1.02326 0
M  V30 10844 H 1093.02 2.02736 -1.58921 0
M  V30 10845 H 1092.98 3.13322 -0.26013 0
M  V30 10846 N 1096.75 1.52266 0.40654 0
M  V30 10847 C 1098.03 1.57018 1.1664 0
M  V30 10848 C 1098.41 0.352752 2.08132 0
M  V30 10849 O 1097.76 -0.660208 2.18754 0
M  V30 10850 C 1097.97 2.90016 1.94143 0
M  V30 10851 C 1099.31 3.43112 2.50119 0
M  V30 10852 O 1100.34 2.91773 2.0432 0
M  V30 10853 O 1099.2 4.32765 3.33731 0
M  V30 10854 H 1096.29 0.632574 0.532709 0
M  V30 10855 H 1098.84 1.64595 0.413111 0
M  V30 10856 H 1097.61 3.70071 1.27134 0
M  V30 10857 H 1097.23 2.85744 2.76471 0
M  V30 10858 N 1098.23 -0.663929 1.42933 0
M  V30 10859 C 1099.46 -1.45192 1.474 0
M  V30 10860 C 1099.87 -1.88592 0.0886014 0
M  V30 10861 O 1099.23 -1.58824 -0.898962 0
M  V30 10862 C 1099.28 -2.69394 2.41059 0
M  V30 10863 O 1099 -2.27812 3.7421 0
M  V30 10864 C 1100.5 -3.62855 2.54659 0
M  V30 10865 H 1097.72 -0.446394 0.500973 0
M  V30 10866 H 1100.27 -0.814875 1.87563 0
M  V30 10867 H 1098.42 -3.29262 2.0412 0
M  V30 10868 H 1098.83 -3.08095 4.24474 0
M  V30 10869 H 1100.31 -4.46698 3.24291 0
M  V30 10870 H 1100.79 -4.09487 1.58799 0
M  V30 10871 H 1101.39 -3.08874 2.92364 0
M  V30 10872 N 1099.71 -1.29285 -0.901281 0
M  V30 10873 C 1100.96 -1.16538 -1.64626 0
M  V30 10874 C 1101.27 0.282623 -1.93547 0
M  V30 10875 O 1102.47 0.531396 -2.66249 0
M  V30 10876 C 1100.93 -2.03809 -2.96631 0
M  V30 10877 C 1100.54 -3.53423 -2.75311 0
M  V30 10878 C 1102.28 -1.99782 -3.7455 0
M  V30 10879 C 1100.19 -4.32804 -4.03032 0
M  V30 10880 H 1099.12 -0.432561 -0.617581 0
M  V30 10881 H 1101.77 -1.53912 -0.999159 0
M  V30 10882 H 1100.15 -1.59302 -3.62545 0
M  V30 10883 H 1101.33 -4.05971 -2.18 0
M  V30 10884 H 1099.64 -3.59106 -2.10789 0
M  V30 10885 H 1102.24 -2.5635 -4.69243 0
M  V30 10886 H 1102.58 -0.97743 -4.04663 0
M  V30 10887 H 1103.11 -2.42324 -3.15474 0
M  V30 10888 H 1099.85 -5.35473 -3.78086 0
M  V30 10889 H 1099.37 -3.85025 -4.59909 0
M  V30 10890 H 1101.05 -4.43383 -4.71191 0
M  V30 10891 N 1101.18 1.11143 -1.11736 0
M  V30 10892 C 1102.6 1.64462 -0.883693 0
M  V30 10893 C 1102.95 1.87324 0.583448 0
M  V30 10894 O 1102.07 1.60975 1.44623 0
M  V30 10895 C 1102.67 2.98765 -1.59764 0
M  V30 10896 C 1101.23 3.4898 -1.41032 0
M  V30 10897 C 1100.37 2.23729 -1.63831 0
M  V30 10898 H 1103.32 0.947415 -1.27317 0
M  V30 10899 H 1103.34 3.65885 -1.04443 0
M  V30 10900 H 1102.86 2.82094 -2.66542 0
M  V30 10901 H 1100.96 3.7081 -0.364781 0
M  V30 10902 H 1101.07 4.27571 -2.16148 0
M  V30 10903 H 1099.43 2.31507 -1.06191 0
M  V30 10904 H 1100.22 2.09597 -2.7189 0
M  V30 10905 N 1102.66 0.908147 1.28804 0
M  V30 10906 C 1103.57 0.397167 2.31214 0
M  V30 10907 C 1104.59 -0.512352 1.66286 0
M  V30 10908 O 1105.76 -0.399893 1.9739 0
M  V30 10909 C 1102.83 -0.359522 3.44831 0
M  V30 10910 C 1101.89 0.582539 4.25329 0
M  V30 10911 C 1101.12 -0.138133 5.33521 0
M  V30 10912 O 1101.35 -1.36076 5.53931 0
M  V30 10913 O 1100.28 0.523682 5.99618 0
M  V30 10914 H 1104.11 1.247 2.76918 0
M  V30 10915 H 1101.69 0.672766 1.33395 0
M  V30 10916 H 1103.57 -0.787098 4.13984 0
M  V30 10917 H 1102.25 -1.18528 3.01219 0
M  V30 10918 H 1101.16 1.0594 3.58786 0
M  V30 10919 H 1102.49 1.37495 4.72605 0
M  V30 10920 N 1104.14 -1.42577 0.671525 0
M  V30 10921 C 1105.42 -1.95222 0.121529 0
M  V30 10922 C 1105.8 -1.61209 -1.36289 0
M  V30 10923 O 1105.15 -0.906561 -2.09747 0
M  V30 10924 C 1105.36 -3.46846 0.387189 0
M  V30 10925 C 1106.7 -4.23525 0.301938 0
M  V30 10926 O 1107.73 -3.54753 0.320755 0
M  V30 10927 O 1106.59 -5.45967 0.241317 0
M  V30 10928 H 1103.68 -0.826999 0.000968615 0
M  V30 10929 H 1106.23 -1.52422 0.746029 0
M  V30 10930 H 1105 -3.64795 1.41563 0
M  V30 10931 H 1104.62 -3.96686 -0.26948 0
M  V30 10932 N 1105.62 -0.414636 -1.52048 0
M  V30 10933 C 1106.85 0.158456 -2.05991 0
M  V30 10934 C 1107.26 1.38947 -1.28415 0
M  V30 10935 O 1106.6 1.80698 -0.330728 0
M  V30 10936 C 1106.66 0.568392 -3.54978 0
M  V30 10937 C 1106.33 -0.552654 -4.53646 0
M  V30 10938 C 1107.32 -1.41791 -5.00191 0
M  V30 10939 C 1105.01 -0.726917 -4.97012 0
M  V30 10940 C 1107 -2.44234 -5.88752 0
M  V30 10941 C 1104.69 -1.75464 -5.85368 0
M  V30 10942 C 1105.69 -2.61075 -6.31133 0
M  V30 10943 O 1105.37 -3.62087 -7.17738 0
M  V30 10944 H 1105.11 0.0214746 -0.675659 0
M  V30 10945 H 1107.66 -0.585825 -1.96869 0
M  V30 10946 H 1105.89 1.36504 -3.61806 0
M  V30 10947 H 1107.58 1.07003 -3.91542 0
M  V30 10948 H 1108.35 -1.29471 -4.67399 0
M  V30 10949 H 1104.22 -0.0701964 -4.60947 0
M  V30 10950 H 1107.77 -3.1109 -6.24395 0
M  V30 10951 H 1103.67 -1.87813 -6.17573 0
M  V30 10952 H 1104.43 -3.58396 -7.35863 0
M  V30 10953 N 1107.1 1.56929 -0.145233 0
M  V30 10954 C 1108.01 2.20238 0.808219 0
M  V30 10955 C 1109.02 1.18615 1.27304 0
M  V30 10956 O 1110.2 1.51186 1.3306 0
M  V30 10957 C 1107.26 2.81016 2.03055 0
M  V30 10958 C 1106.32 3.97759 1.61512 0
M  V30 10959 C 1105.56 4.55628 2.77918 0
M  V30 10960 O 1105.78 4.12378 3.94082 0
M  V30 10961 O 1104.71 5.45917 2.53492 0
M  V30 10962 H 1108.54 3.02221 0.299314 0
M  V30 10963 H 1106.13 1.49176 0.0817051 0
M  V30 10964 H 1108.01 3.19652 2.74592 0
M  V30 10965 H 1106.68 2.02047 2.52901 0
M  V30 10966 H 1105.59 3.63842 0.870033 0
M  V30 10967 H 1106.92 4.78242 1.16383 0
M  V30 10968 N 1108.58 -0.128553 1.57075 0
M  V30 10969 C 1109.8 -0.85245 1.88523 0
M  V30 10970 C 1110.22 -1.73886 0.735459 0
M  V30 10971 O 1109.58 -1.80114 -0.294113 0
M  V30 10972 C 1109.63 -1.69384 3.19361 0
M  V30 10973 O 1109.35 -0.84313 4.2991 0
M  V30 10974 C 1110.85 -2.52373 3.64449 0
M  V30 10975 H 1108.07 -0.245556 0.624454 0
M  V30 10976 H 1110.61 -0.115807 2.04172 0
M  V30 10977 H 1108.77 -2.38335 3.0541 0
M  V30 10978 H 1109.18 -1.42255 5.0484 0
M  V30 10979 H 1110.66 -3.06955 4.58784 0
M  V30 10980 H 1111.13 -3.29283 2.90636 0
M  V30 10981 H 1111.74 -1.88681 3.81155 0
M  V30 10982 N 1110.05 -1.5248 -0.398459 0
M  V30 10983 C 1111 -1.72965 -1.4855 0
M  V30 10984 C 1111.99 -0.583628 -1.49942 0
M  V30 10985 O 1113.18 -0.841106 -1.55738 0
M  V30 10986 C 1110.31 -1.89339 -2.86366 0
M  V30 10987 C 1109.39 -3.09845 -2.8958 0
M  V30 10988 N 1109.79 -4.32365 -2.62477 0
M  V30 10989 C 1108.08 -3.09897 -3.20749 0
M  V30 10990 C 1108.78 -5.13908 -2.72532 0
M  V30 10991 N 1107.76 -4.49387 -3.05864 0
M  V30 10992 H 1111.56 -2.65327 -1.26406 0
M  V30 10993 H 1109.08 -1.50658 -0.606299 0
M  V30 10994 H 1111.07 -2.02134 -3.64619 0
M  V30 10995 H 1109.73 -0.981841 -3.095 0
M  V30 10996 H 1110.74 -4.60659 -2.36673 0
M  V30 10997 H 1107.42 -2.28518 -3.49408 0
M  V30 10998 H 1108.81 -6.21548 -2.55202 0
M  V30 10999 N 1111.53 0.65634 -1.43283 0
M  V30 11000 C 1112.46 1.78184 -1.44164 0
M  V30 11001 C 1113.48 1.59249 -0.338177 0
M  V30 11002 O 1114.67 1.68027 -0.60242 0
M  V30 11003 C 1111.77 3.15566 -1.23577 0
M  V30 11004 C 1110.94 3.61187 -2.46704 0
M  V30 11005 C 1110 4.77361 -2.21388 0
M  V30 11006 O 1109.02 4.8696 -2.94718 0
M  V30 11007 N 1110.23 5.67351 -1.22855 0
M  V30 11008 H 1112.99 1.77907 -2.41183 0
M  V30 11009 H 1110.55 0.840076 -1.38399 0
M  V30 11010 H 1112.54 3.90968 -1.04529 0
M  V30 11011 H 1111.11 3.10633 -0.350155 0
M  V30 11012 H 1110.33 2.76263 -2.81198 0
M  V30 11013 H 1111.62 3.88413 -3.28652 0
M  V30 11014 H 1111.02 5.62265 -0.622417 0
M  V30 11015 H 1109.58 6.42487 -1.09791 0
M  V30 11016 N 1113.01 1.29761 0.894412 0
M  V30 11017 C 1113.94 1.17902 2.01547 0
M  V30 11018 C 1114.92 0.0719402 1.69948 0
M  V30 11019 O 1116.11 0.252338 1.92554 0
M  V30 11020 C 1113.24 0.860262 3.36477 0
M  V30 11021 C 1112.19 1.92424 3.82305 0
M  V30 11022 C 1111.52 1.45868 5.14419 0
M  V30 11023 C 1112.82 3.33391 4.02054 0
M  V30 11024 H 1114.51 2.11688 2.11727 0
M  V30 11025 H 1112.06 1.01916 1.01731 0
M  V30 11026 H 1114.01 0.763987 4.14417 0
M  V30 11027 H 1112.73 -0.113289 3.26403 0
M  V30 11028 H 1111.39 2.00999 3.06586 0
M  V30 11029 H 1111.04 0.473654 5.00765 0
M  V30 11030 H 1110.74 2.17028 5.46052 0
M  V30 11031 H 1112.26 1.37601 5.94894 0
M  V30 11032 H 1113.68 3.27628 4.7046 0
M  V30 11033 H 1112.07 4.02555 4.4505 0
M  V30 11034 H 1113.14 3.75978 3.06216 0
M  V30 11035 N 1114.49 -1.10549 1.12324 0
M  V30 11036 C 1115.9 -1.34508 0.85905 0
M  V30 11037 C 1116.1 -1.94901 -0.511468 0
M  V30 11038 O 1115.16 -2.18793 -1.2604 0
M  V30 11039 C 1116.47 -2.26788 1.97453 0
M  V30 11040 C 1118.02 -2.40328 2.00528 0
M  V30 11041 C 1118.5 -3.35936 3.11305 0
M  V30 11042 N 1119.99 -3.43504 3.1074 0
M  V30 11043 C 1120.72 -4.17449 3.93096 0
M  V30 11044 N 1120.22 -4.9429 4.85437 0
M  V30 11045 N 1122.01 -4.13055 3.81237 0
M  V30 11046 H 1114.16 -0.697171 2.00632 0
M  V30 11047 H 1116.42 -0.369548 0.873005 0
M  V30 11048 H 1116.13 -1.89621 2.96204 0
M  V30 11049 H 1116 -3.27086 1.87869 0
M  V30 11050 H 1118.39 -2.76765 1.02397 0
M  V30 11051 H 1118.47 -1.39849 2.14186 0
M  V30 11052 H 1118.12 -3.00225 4.09667 0
M  V30 11053 H 1118.05 -4.36291 2.94886 0
M  V30 11054 H 1120.54 -2.88702 2.43843 0
M  V30 11055 H 1120.85 -5.48109 5.4479 0
M  V30 11056 H 1119.2 -4.93419 4.89452 0
M  V30 11057 H 1122.39 -3.52117 3.08433 0
M  V30 11058 H 1122.56 -4.70424 4.45651 0
M  V30 11059 N 1115.97 -0.914965 -1.28321 0
M  V30 11060 C 1116.9 -0.361578 -2.2633 0
M  V30 11061 C 1117.91 0.500637 -1.54911 0
M  V30 11062 O 1119.1 0.31532 -1.75693 0
M  V30 11063 C 1116.2 0.501693 -3.35166 0
M  V30 11064 C 1115.37 -0.338289 -4.3609 0
M  V30 11065 C 1114.43 0.460267 -5.24183 0
M  V30 11066 O 1113.46 -0.127594 -5.69057 0
M  V30 11067 N 1114.66 1.76302 -5.5308 0
M  V30 11068 H 1117.42 -1.20402 -2.74451 0
M  V30 11069 H 1114.99 -0.781042 -1.41814 0
M  V30 11070 H 1116.98 1.04268 -3.91037 0
M  V30 11071 H 1115.55 1.24485 -2.86744 0
M  V30 11072 H 1114.77 -1.06064 -3.79663 0
M  V30 11073 H 1116.06 -0.912996 -5.00542 0
M  V30 11074 H 1115.45 2.26314 -5.18458 0
M  V30 11075 H 1114.01 2.25081 -6.11704 0
M  V30 11076 N 1117.44 1.42219 -0.679077 0
M  V30 11077 C 1118.41 2.29197 -0.0125475 0
M  V30 11078 C 1119.41 1.43544 0.724691 0
M  V30 11079 O 1120.6 1.64884 0.562052 0
M  V30 11080 C 1117.73 3.26122 0.992846 0
M  V30 11081 H 1118.92 2.89629 -0.778154 0
M  V30 11082 H 1116.47 1.4993 -0.44166 0
M  V30 11083 H 1117.21 2.70637 1.78679 0
M  V30 11084 H 1116.99 3.89302 0.467544 0
M  V30 11085 H 1118.48 3.91339 1.45751 0
M  V30 11086 O 1118.96 0.564796 1.51302 0
M  V30 11087 H 1119.65 0.0644337 1.93593 0
M  V30 END ATOM
M  V30 BEGIN BOND
M  V30 END BOND
M  V30 END CTAB
M  END
$$$$
