drugbank_target|P49840 Glycogen synthase kinase-3 alpha (DB12010)
 OpenBabel12092121153D

  0  0  0     0  0            999 V3000
M  V30 BEGIN CTAB
M  V30 COUNTS 7168 7253 0 0 0
M  V30 BEGIN ATOM
M  V30 1 H -0.908 1.98254 -0.117106 0
M  V30 2 N 0 1.576 0 0
M  V30 3 C 0.933 2.03868 1.02534 0
M  V30 4 C 1.911 0.928543 1.3348 0
M  V30 5 O 3.095 1.19667 1.45644 0
M  V30 6 C 0.222 2.43627 2.35294 0
M  V30 7 C -0.732 3.65373 2.2001 0
M  V30 8 S 0.101 5.13292 1.52614 0
M  V30 9 C 1.257 5.56322 2.86805 0
M  V30 10 H 1.49 2.90518 0.631377 0
M  V30 11 H -0.977 1.52953 0.210867 0
M  V30 12 H 0.981 2.67203 3.11629 0
M  V30 13 H -0.358 1.57376 2.7183 0
M  V30 14 H -1.165 3.90944 3.18086 0
M  V30 15 H -1.563 3.418 1.51819 0
M  V30 16 H 0.729 5.58782 3.83104 0
M  V30 17 H 1.672 6.56266 2.65933 0
M  V30 18 H 2.08 4.83886 2.90714 0
M  V30 19 N 1.4781 -0.272755 1.55222 0
M  V30 20 C 2.7031 -1.02683 1.80197 0
M  V30 21 C 3.1281 -1.79142 0.573551 0
M  V30 22 O 2.4861 -1.74917 -0.476849 0
M  V30 23 C 2.5341 -1.9609 3.02624 0
M  V30 24 O 1.6381 -3.04863 2.77727 0
M  V30 25 H 0.9791 -0.293557 0.595584 0
M  V30 26 H 3.5091 -0.30159 2.02365 0
M  V30 27 H 3.5191 -2.38039 3.31363 0
M  V30 28 H 2.1941 -1.39851 3.91682 0
M  V30 29 H 0.7711 -2.67228 2.60084 0
M  V30 30 N 2.9562 -1.48159 -0.537278 0
M  V30 31 C 4.2042 -1.55497 -1.29094 0
M  V30 32 C 4.5252 -0.227454 -1.93669 0
M  V30 33 O 3.7952 0.750386 -1.80959 0
M  V30 34 H 2.3752 -0.572832 -0.47945 0
M  V30 35 H 5.0372 -1.84579 -0.625818 0
M  V30 36 H 4.1332 -2.33216 -2.07405 0
M  V30 37 N 4.4343 0.785586 -1.36625 0
M  V30 38 C 5.6823 1.54057 -1.30808 0
M  V30 39 C 6.0033 1.94683 0.111157 0
M  V30 40 O 5.2733 1.65241 1.05224 0
M  V30 41 H 3.8533 0.571354 -0.481211 0
M  V30 42 H 6.5153 0.935821 -1.70963 0
M  V30 43 H 5.6113 2.44637 -1.93801 0
M  V30 44 N 5.9124 1.20967 1.01018 0
M  V30 45 C 7.1604 1.02172 1.74371 0
M  V30 46 C 7.4814 -0.446414 1.89821 0
M  V30 47 O 6.7514 -1.32234 1.44537 0
M  V30 48 H 5.3314 0.375066 0.646014 0
M  V30 49 H 7.9934 1.52187 1.21758 0
M  V30 50 H 7.0894 1.48538 2.74487 0
M  V30 51 N 7.3905 -1.2043 1.01659 0
M  V30 52 C 8.8015 -1.71517 0.737482 0
M  V30 53 C 9.1525 -1.81547 -0.743973 0
M  V30 54 O 8.2775 -1.47803 -1.58061 0
M  V30 55 C 8.8725 -3.11515 1.33206 0
M  V30 56 C 7.4315 -3.59912 1.10183 0
M  V30 57 C 6.5785 -2.37116 1.43776 0
M  V30 58 H 9.5295 -1.05444 1.18606 0
M  V30 59 H 9.5505 -3.73575 0.722636 0
M  V30 60 H 9.0625 -3.04182 2.41028 0
M  V30 61 H 7.1635 -3.72577 0.0412756 0
M  V30 62 H 7.2765 -4.44731 1.78188 0
M  V30 63 H 5.6405 -2.39857 0.856778 0
M  V30 64 H 6.4235 -2.32424 2.52654 0
M  V30 65 N 8.8686 -0.792821 -1.36206 0
M  V30 66 C 10.0936 -0.377701 -2.03932 0
M  V30 67 C 10.5186 0.998947 -1.59382 0
M  V30 68 O 9.8766 1.64421 -0.763903 0
M  V30 69 C 9.9246 -0.453635 -3.57735 0
M  V30 70 O 9.0286 0.538151 -4.08874 0
M  V30 71 H 8.3696 -0.159855 -0.644471 0
M  V30 72 H 10.8996 -1.07488 -1.7409 0
M  V30 73 H 10.9096 -0.318464 -4.06755 0
M  V30 74 H 9.5846 -1.45784 -3.89512 0
M  V30 75 H 8.1616 0.364359 -3.71116 0
M  V30 76 N 10.3467 1.47872 -0.545128 0
M  V30 77 C 11.5947 2.02093 -0.016553 0
M  V30 78 C 11.9157 1.42305 1.3332 0
M  V30 79 O 11.1857 0.593853 1.86682 0
M  V30 80 H 9.7657 0.746993 -0.00313038 0
M  V30 81 H 12.4277 1.81414 -0.712397 0
M  V30 82 H 11.5237 3.11996 0.0805422 0
M  V30 83 N 11.8248 0.280983 1.55075 0
M  V30 84 C 13.0728 -0.333455 1.9933 0
M  V30 85 C 13.3938 -1.55937 1.17085 0
M  V30 86 O 12.6638 -1.94143 0.261805 0
M  V30 87 H 11.2438 -0.126197 0.736263 0
M  V30 88 H 13.9058 0.387678 1.91005 0
M  V30 89 H 13.0018 -0.619292 3.05894 0
M  V30 90 N 13.3029 -1.57598 0.00835791 0
M  V30 91 C 14.5509 -1.90551 -0.6734 0
M  V30 92 C 14.8719 -0.883301 -1.73847 0
M  V30 93 O 14.1419 0.0781442 -1.95744 0
M  V30 94 H 12.7219 -0.703312 -0.251717 0
M  V30 95 H 15.3839 -1.94833 0.0512592 0
M  V30 96 H 14.4799 -2.9056 -1.13935 0
M  V30 97 N 14.781 0.264519 -1.55364 0
M  V30 98 C 16.192 0.834936 -1.6699 0
M  V30 99 C 16.543 1.86718 -0.602552 0
M  V30 100 O 15.668 2.14899 0.254425 0
M  V30 101 C 16.263 1.5212 -3.02729 0
M  V30 102 C 14.822 2.03954 -3.16354 0
M  V30 103 C 13.969 0.884498 -2.62815 0
M  V30 104 H 16.92 0.0406869 -1.58648 0
M  V30 105 H 16.941 2.38853 -2.96191 0
M  V30 106 H 16.453 0.769668 -3.80392 0
M  V30 107 H 14.554 2.82041 -2.43482 0
M  V30 108 H 14.667 2.24902 -4.23032 0
M  V30 109 H 13.031 1.2802 -2.20188 0
M  V30 110 H 13.814 0.14634 -3.42988 0
M  V30 111 N 16.2591 1.48442 0.529413 0
M  V30 112 C 17.5071 1.56179 1.28267 0
M  V30 113 C 17.8281 0.237721 1.93546 0
M  V30 114 O 17.0981 -0.740779 1.81354 0
M  V30 115 H 15.6781 0.575367 0.476405 0
M  V30 116 H 18.3401 1.84909 0.61602 0
M  V30 117 H 17.4361 2.34312 2.06165 0
M  V30 118 N 17.7372 -0.778329 1.37039 0
M  V30 119 C 18.9852 -1.53361 1.31623 0
M  V30 120 C 19.3062 -1.94739 -0.100831 0
M  V30 121 O 18.5762 -1.65797 -1.04347 0
M  V30 122 H 17.1562 -0.568794 0.484234 0
M  V30 123 H 19.8182 -0.926742 1.71457 0
M  V30 124 H 18.9142 -2.43606 1.95096 0
M  V30 125 N 19.2153 -1.21501 -1.00376 0
M  V30 126 C 20.4403 -1.05977 -1.78279 0
M  V30 127 C 20.8653 0.385994 -1.84097 0
M  V30 128 O 20.2233 1.27849 -1.28547 0
M  V30 129 C 20.2713 -1.66302 -3.19963 0
M  V30 130 O 19.3753 -0.909333 -4.0225 0
M  V30 131 H 18.7163 -0.372906 -0.549397 0
M  V30 132 H 21.2463 -1.6107 -1.26165 0
M  V30 133 H 21.2563 -1.70574 -3.70632 0
M  V30 134 H 19.9313 -2.71515 -3.15043 0
M  V30 135 H 18.5083 -0.941795 -3.60811 0
M  V30 136 N 20.6934 1.19889 -1.02296 0
M  V30 137 C 21.9414 1.89046 -0.714558 0
M  V30 138 C 22.2624 1.79636 0.758681 0
M  V30 139 O 21.5324 1.20292 1.54618 0
M  V30 140 H 20.1124 0.699802 -0.261317 0
M  V30 141 H 22.7744 1.45574 -1.29592 0
M  V30 142 H 21.8704 2.95524 -1.0036 0
M  V30 143 N 22.1715 0.800033 1.35784 0
M  V30 144 C 23.5875 0.482977 1.52117 0
M  V30 145 C 23.7875 -0.996948 1.75109 0
M  V30 146 O 22.8435 -1.78216 1.78872 0
M  V30 147 C 24.1565 1.32264 2.70049 0
M  V30 148 C 25.7045 1.31742 2.83924 0
M  V30 149 C 26.1795 2.14106 4.04874 0
M  V30 150 N 27.6705 2.11607 4.12039 0
M  V30 151 C 28.4055 2.72099 5.04727 0
M  V30 152 N 27.9015 3.41492 6.02789 0
M  V30 153 N 29.6945 2.61776 4.97423 0
M  V30 154 H 21.8455 1.75856 1.19115 0
M  V30 155 H 24.1085 0.748122 0.582252 0
M  V30 156 H 23.8145 2.37261 2.59616 0
M  V30 157 H 23.6885 0.971303 3.6448 0
M  V30 158 H 26.0755 0.275333 2.93813 0
M  V30 159 H 26.1565 1.70859 1.9037 0
M  V30 160 H 25.8005 3.18351 3.95746 0
M  V30 161 H 25.7305 1.72353 4.97596 0
M  V30 162 H 28.2215 1.61112 3.41835 0
M  V30 163 H 28.5345 3.84953 6.70098 0
M  V30 164 H 26.8795 3.45596 6.02983 0
M  V30 165 H 30.0705 2.07157 4.19766 0
M  V30 166 H 30.2435 3.0921 5.69468 0
M  V30 167 N 23.6496 -1.47581 0.552962 0
M  V30 168 C 24.6126 -2.28439 -0.186605 0
M  V30 169 C 25.6126 -1.36706 -0.84665 0
M  V30 170 O 26.8026 -1.59378 -0.703164 0
M  V30 171 C 23.9346 -3.16264 -1.2724 0
M  V30 172 H 25.1276 -2.95294 0.523609 0
M  V30 173 H 22.6806 -1.532 0.309745 0
M  V30 174 H 23.4156 -2.54091 -2.01514 0
M  V30 175 H 23.2006 -3.83769 -0.803968 0
M  V30 176 H 24.6906 -3.77198 -1.79196 0
M  V30 177 N 25.1277 -0.289203 -1.54924 0
M  V30 178 C 26.5437 0.0645403 -1.59469 0
M  V30 179 C 26.7437 1.53419 -1.30632 0
M  V30 180 O 25.7997 2.2852 -1.074 0
M  V30 181 C 27.1127 -0.32278 -2.98963 0
M  V30 182 C 28.6607 -0.270564 -3.11828 0
M  V30 183 C 29.1357 -0.632532 -4.53611 0
M  V30 184 N 30.6267 -0.584617 -4.59496 0
M  V30 185 C 31.3617 -0.837314 -5.67254 0
M  V30 186 N 30.8577 -1.15536 -6.83098 0
M  V30 187 N 32.6507 -0.765166 -5.56868 0
M  V30 188 H 24.8017 -1.24714 -1.71931 0
M  V30 189 H 27.0647 -0.504809 -0.802416 0
M  V30 190 H 26.7707 -1.34541 -3.24948 0
M  V30 191 H 26.6447 0.32944 -3.75759 0
M  V30 192 H 29.0317 0.742805 -2.85598 0
M  V30 193 H 29.1127 -0.957242 -2.37214 0
M  V30 194 H 28.7567 -1.64365 -4.80569 0
M  V30 195 H 28.6867 0.07609 -5.26545 0
M  V30 196 H 31.1777 -0.349248 -3.76283 0
M  V30 197 H 31.4907 -1.33447 -7.61191 0
M  V30 198 H 29.8357 -1.19328 -6.84679 0
M  V30 199 H 33.0267 -0.516432 -4.65243 0
M  V30 200 H 33.1997 -0.965477 -6.40767 0
M  V30 201 N 26.6058 1.57591 -0.0167156 0
M  V30 202 C 27.8338 1.95575 0.675128 0
M  V30 203 C 28.2488 0.892542 1.6637 0
M  V30 204 O 27.6058 -0.126912 1.82058 0
M  V30 205 C 27.6568 3.33608 1.39239 0
M  V30 206 O 27.3778 4.3585 0.443444 0
M  V30 207 C 28.8788 3.86151 2.17721 0
M  V30 208 H 26.0988 0.644423 0.186978 0
M  V30 209 H 28.6428 2.0437 -0.0728 0
M  V30 210 H 26.7978 3.2607 2.09182 0
M  V30 211 H 27.2118 5.158 0.951358 0
M  V30 212 H 28.6858 4.85114 2.63379 0
M  V30 213 H 29.1628 3.19738 3.01105 0
M  V30 214 H 29.7688 3.96918 1.52761 0
M  V30 215 N 28.0839 -0.256276 1.55502 0
M  V30 216 C 29.3089 -1.00766 1.81276 0
M  V30 217 C 29.7339 -1.78524 0.59252 0
M  V30 218 O 29.0919 -1.75413 -0.45827 0
M  V30 219 C 29.1399 -1.92869 3.04687 0
M  V30 220 O 28.2439 -3.019 2.80945 0
M  V30 221 H 27.5849 -0.287224 0.598664 0
M  V30 222 H 30.1149 -0.280109 2.02674 0
M  V30 223 H 30.1249 -2.34511 3.33869 0
M  V30 224 H 28.7999 -1.35689 3.93143 0
M  V30 225 H 27.3769 -2.64454 2.62904 0
M  V30 226 N 29.562 -1.4872 -0.521534 0
M  V30 227 C 30.787 -1.61101 -1.30618 0
M  V30 228 C 31.212 -0.274611 -1.86085 0
M  V30 229 O 30.57 0.754937 -1.64834 0
M  V30 230 C 30.618 -2.66709 -2.4269 0
M  V30 231 O 29.722 -2.24456 -3.45967 0
M  V30 232 H 29.063 -0.539921 -0.386499 0
M  V30 233 H 31.593 -1.94767 -0.626645 0
M  V30 234 H 31.603 -2.88245 -2.88754 0
M  V30 235 H 30.278 -3.63727 -2.01682 0
M  V30 236 H 28.855 -2.13168 -3.05964 0
M  V30 237 N 31.0401 0.771051 -1.3745 0
M  V30 238 C 32.2871 1.52963 -1.32697 0
M  V30 239 C 32.6151 1.94299 0.0883274 0
M  V30 240 O 31.8701 1.64397 1.0617 0
M  V30 241 C 32.1691 2.80676 -2.2126 0
M  V30 242 C 31.8351 2.58389 -3.69521 0
M  V30 243 C 30.4971 2.52019 -4.09927 0
M  V30 244 C 32.8491 2.38469 -4.63446 0
M  V30 245 C 30.1771 2.23721 -5.42371 0
M  V30 246 C 32.5291 2.11694 -5.96128 0
M  V30 247 C 31.1931 2.03769 -6.35637 0
M  V30 248 H 30.4631 0.559732 -0.485573 0
M  V30 249 H 33.1101 0.888083 -1.69662 0
M  V30 250 H 31.4151 3.49392 -1.77291 0
M  V30 251 H 33.1121 3.38557 -2.14895 0
M  V30 252 H 29.7021 2.6421 -3.37478 0
M  V30 253 H 33.8861 2.4238 -4.33089 0
M  V30 254 H 29.1421 2.16081 -5.71943 0
M  V30 255 H 33.3161 1.9528 -6.6846 0
M  V30 256 H 30.9431 1.81606 -7.38189 0
M  V30 257 N 32.5182 1.22032 0.997298 0
M  V30 258 C 33.4812 0.987909 2.06816 0
M  V30 259 C 34.4812 -0.0440084 1.6074 0
M  V30 260 O 35.6712 0.194053 1.73116 0
M  V30 261 C 32.8032 0.49132 3.37341 0
M  V30 262 H 33.9962 1.93803 2.28868 0
M  V30 263 H 31.5492 1.03838 1.16822 0
M  V30 264 H 32.2842 -0.463364 3.20973 0
M  V30 265 H 32.0692 1.23575 3.72118 0
M  V30 266 H 33.5592 0.348824 4.16141 0
M  V30 267 N 33.9963 -1.19345 1.0293 0
M  V30 268 C 34.9063 -2.26245 0.620515 0
M  V30 269 C 35.9223 -1.70486 -0.347928 0
M  V30 270 O 37.0983 -2.00347 -0.205704 0
M  V30 271 C 34.1633 -3.46693 -0.0218957 0
M  V30 272 C 33.2243 -4.17632 0.994102 0
M  V30 273 C 32.4573 -5.32329 0.382253 0
M  V30 274 O 32.6803 -5.64552 -0.814676 0
M  V30 275 O 31.6143 -5.91664 1.10531 0
M  V30 276 H 35.4403 -2.63453 1.51083 0
M  V30 277 H 33.0253 -1.26207 0.799513 0
M  V30 278 H 34.9073 -4.19683 -0.380072 0
M  V30 279 H 33.5823 -3.11333 -0.886209 0
M  V30 280 H 32.4893 -3.4676 1.40387 0
M  V30 281 H 33.8223 -4.56964 1.8288 0
M  V30 282 N 35.4744 -0.807222 -1.35358 0
M  V30 283 C 36.8854 -0.44876 -1.81226 0
M  V30 284 C 37.2364 1.02929 -1.67033 0
M  V30 285 O 36.3614 1.79991 -1.20133 0
M  V30 286 C 36.9564 -0.807774 -3.2903 0
M  V30 287 C 35.5154 -0.501901 -3.73039 0
M  V30 288 C 34.6624 -1.03304 -2.57339 0
M  V30 289 H 37.6134 -0.998808 -1.23327 0
M  V30 290 H 37.6344 -0.10554 -3.80354 0
M  V30 291 H 37.1464 -1.88357 -3.39328 0
M  V30 292 H 35.2474 0.565128 -3.68289 0
M  V30 293 H 35.3604 -1.03497 -4.67787 0
M  V30 294 H 33.7244 -0.455339 -2.50597 0
M  V30 295 H 34.5074 -2.11496 -2.70415 0
M  V30 296 N 36.9525 1.47285 -0.560781 0
M  V30 297 C 38.2005 2.02064 -0.0379868 0
M  V30 298 C 38.5215 1.43711 1.31803 0
M  V30 299 O 37.7915 0.61362 1.86042 0
M  V30 300 H 36.3715 0.746918 -0.0110531 0
M  V30 301 H 39.0335 1.80648 -0.731598 0
M  V30 302 H 38.1295 3.12064 0.0474463 0
M  V30 303 N 38.4306 0.297415 1.54768 0
M  V30 304 C 39.6786 -0.312295 1.99673 0
M  V30 305 C 39.9996 -1.54686 1.18732 0
M  V30 306 O 39.2696 -1.93854 0.282382 0
M  V30 307 H 37.8496 -0.118381 0.73756 0
M  V30 308 H 40.5116 0.407915 1.90583 0
M  V30 309 H 39.6076 -0.586813 3.06534 0
M  V30 310 N 39.9087 -1.5758 0.0250728 0
M  V30 311 C 41.1567 -1.91255 -0.653151 0
M  V30 312 C 41.4777 -0.901691 -1.729 0
M  V30 313 O 40.7477 0.0573785 -1.95816 0
M  V30 314 H 39.3277 -0.705942 -0.244243 0
M  V30 315 H 41.9897 -1.94767 0.0719209 0
M  V30 316 H 41.0857 -2.91752 -1.10847 0
M  V30 317 N 41.3868 0.248026 -1.55636 0
M  V30 318 C 42.6348 0.974295 -1.77065 0
M  V30 319 C 42.9558 1.85897 -0.588849 0
M  V30 320 O 42.2258 1.91868 0.395407 0
M  V30 321 H 40.8058 0.362733 -0.653019 0
M  V30 322 H 43.4678 0.266244 -1.93073 0
M  V30 323 H 42.5638 1.59667 -2.68166 0
M  V30 324 N 42.8649 1.48995 0.513639 0
M  V30 325 C 44.1129 1.57531 1.26604 0
M  V30 326 C 44.4339 0.258236 1.93283 0
M  V30 327 O 43.7039 -0.721502 1.8213 0
M  V30 328 H 42.2839 0.580387 0.470276 0
M  V30 329 H 44.9459 1.85552 0.596373 0
M  V30 330 H 44.0419 2.36486 2.03669 0
M  V30 331 N 44.343 -0.763751 1.37857 0
M  V30 332 C 45.591 -1.51957 1.33243 0
M  V30 333 C 45.912 -1.94835 -0.0801709 0
M  V30 334 O 45.182 -1.66894 -1.02582 0
M  V30 335 H 43.762 -0.563626 0.49024 0
M  V30 336 H 46.424 -0.908504 1.7243 0
M  V30 337 H 45.52 -2.41523 1.97669 0
M  V30 338 N 45.8211 -1.22559 -0.990812 0
M  V30 339 C 47.0691 -1.04933 -1.72724 0
M  V30 340 C 47.3901 0.416158 -1.90508 0
M  V30 341 O 46.6601 1.29918 -1.46622 0
M  V30 342 H 45.2401 -0.385296 -0.639965 0
M  V30 343 H 47.9021 -1.54105 -1.19322 0
M  V30 344 H 46.9981 -1.52886 -2.72089 0
M  V30 345 N 47.2992 1.18797 -1.03562 0
M  V30 346 C 48.5472 1.88278 -0.734569 0
M  V30 347 C 48.8682 1.8043 0.739586 0
M  V30 348 O 48.1382 1.21925 1.53333 0
M  V30 349 H 46.7182 0.696991 -0.268725 0
M  V30 350 H 49.3802 1.44192 -1.31129 0
M  V30 351 H 48.4762 2.94443 -1.03489 0
M  V30 352 N 48.7773 0.814389 1.34928 0
M  V30 353 C 50.0253 0.397636 1.9815 0
M  V30 354 C 50.3463 -1.04069 1.64908 0
M  V30 355 O 49.6163 -1.72121 0.93548 0
M  V30 356 H 48.1963 0.144043 0.732981 0
M  V30 357 H 50.8583 1.04195 1.6471 0
M  V30 358 H 49.9543 0.509688 3.0791 0
M  V30 359 N 50.2554 -1.46986 0.568584 0
M  V30 360 C 51.5034 -2.02041 0.0487022 0
M  V30 361 C 51.8244 -1.44408 -1.31039 0
M  V30 362 O 51.0944 -0.623477 -1.85714 0
M  V30 363 H 49.6744 -0.746849 0.015014 0
M  V30 364 H 52.3364 -1.80257 0.741168 0
M  V30 365 H 51.4324 -3.12085 -0.0308961 0
M  V30 366 N 51.7335 -0.305618 -1.54608 0
M  V30 367 C 53.1445 0.186098 -1.8577 0
M  V30 368 C 53.4955 1.53058 -1.22751 0
M  V30 369 O 52.6205 2.09888 -0.526893 0
M  V30 370 C 53.2155 0.344449 -3.37044 0
M  V30 371 C 51.7745 0.780384 -3.68221 0
M  V30 372 C 50.9215 -0.108554 -2.77087 0
M  V30 373 H 53.8725 -0.526485 -1.49712 0
M  V30 374 H 53.8935 1.17828 -3.61796 0
M  V30 375 H 53.4055 -0.634235 -3.82883 0
M  V30 376 H 51.5065 1.76945 -3.27904 0
M  V30 377 H 51.6195 0.596572 -4.75371 0
M  V30 378 H 49.9835 0.412931 -2.5133 0
M  V30 379 H 50.7665 -1.08368 -3.25747 0
M  V30 380 N 53.2116 1.57565 -0.0334293 0
M  V30 381 C 54.4596 1.91598 0.642999 0
M  V30 382 C 54.7806 0.910847 1.7242 0
M  V30 383 O 54.0506 -0.0469931 1.95844 0
M  V30 384 H 52.6306 0.707228 0.240496 0
M  V30 385 H 55.2926 1.94726 -0.0822488 0
M  V30 386 H 54.3886 2.92336 1.09298 0
M  V30 387 N 54.6897 -0.239769 1.55765 0
M  V30 388 C 55.9377 -0.964892 1.77579 0
M  V30 389 C 56.2587 -1.85582 0.598699 0
M  V30 390 O 55.5287 -1.92075 -0.385226 0
M  V30 391 H 54.1087 -0.359265 0.654933 0
M  V30 392 H 56.7707 -0.256001 1.93211 0
M  V30 393 H 55.8667 -1.58243 2.69009 0
M  V30 394 N 56.1678 -1.49265 -0.50573 0
M  V30 395 C 57.3928 -1.62478 -1.28902 0
M  V30 396 C 57.8178 -0.294332 -1.85783 0
M  V30 397 O 57.1758 0.737412 -1.65626 0
M  V30 398 C 57.2238 -2.69268 -2.39848 0
M  V30 399 O 56.3278 -2.28113 -3.43567 0
M  V30 400 H 55.6688 -0.54399 -0.380751 0
M  V30 401 H 58.1988 -1.95421 -0.605952 0
M  V30 402 H 58.2088 -2.91291 -2.85681 0
M  V30 403 H 56.8838 -3.65846 -1.97812 0
M  V30 404 H 55.4608 -2.16401 -3.03685 0
M  V30 405 N 57.6459 0.756429 -1.3826 0
M  V30 406 C 58.6089 1.85176 -1.35065 0
M  V30 407 C 59.6089 1.58818 -0.251703 0
M  V30 408 O 60.7989 1.66615 -0.508433 0
M  V30 409 C 57.9309 3.22596 -1.10201 0
M  V30 410 H 59.1239 1.89417 -2.3251 0
M  V30 411 H 56.6769 0.95783 -1.23512 0
M  V30 412 H 57.4119 3.24025 -0.133504 0
M  V30 413 H 57.1969 3.43122 -1.89762 0
M  V30 414 H 58.6869 4.02673 -1.10654 0
M  V30 415 N 59.124 1.23083 0.984299 0
M  V30 416 C 60.349 1.088 1.76571 0
M  V30 417 C 60.774 -0.356657 1.84688 0
M  V30 418 O 60.132 -1.25788 1.30565 0
M  V30 419 C 60.18 1.71371 3.17277 0
M  V30 420 O 59.284 0.973213 4.00752 0
M  V30 421 H 58.625 0.381599 0.543395 0
M  V30 422 H 61.155 1.63057 1.23587 0
M  V30 423 H 61.165 1.76449 3.67872 0
M  V30 424 H 59.84 2.76493 3.10684 0
M  V30 425 H 58.417 0.999078 3.59267 0
M  V30 426 N 60.6021 -1.18246 1.0419 0
M  V30 427 C 61.8501 -1.87886 0.744543 0
M  V30 428 C 62.1711 -1.8082 -0.730006 0
M  V30 429 O 61.4411 -1.22736 -1.52685 0
M  V30 430 H 60.0211 -0.695556 0.272417 0
M  V30 431 H 62.6831 -1.43494 1.31892 0
M  V30 432 H 61.7791 -2.9389 1.05049 0
M  V30 433 N 62.0802 -0.821533 -1.34494 0
M  V30 434 C 63.4912 -0.467956 -1.8074 0
M  V30 435 C 63.8422 1.01151 -1.68116 0
M  V30 436 O 62.9672 1.78707 -1.22036 0
M  V30 437 C 63.5622 -0.842627 -3.28154 0
M  V30 438 C 62.1212 -0.541439 -3.72485 0
M  V30 439 C 61.2682 -1.06028 -2.56229 0
M  V30 440 H 64.2192 -1.01183 -1.22261 0
M  V30 441 H 64.2402 -0.145876 -3.8022 0
M  V30 442 H 63.7522 -1.91945 -3.37311 0
M  V30 443 H 61.8532 0.526034 -3.68868 0
M  V30 444 H 61.9662 -1.08453 -4.66663 0
M  V30 445 H 60.3302 -0.481892 -2.501 0
M  V30 446 H 61.1132 -2.14352 -2.68157 0
M  V30 447 N 63.5583 1.46682 -0.576371 0
M  V30 448 C 64.8063 2.02013 -0.0594163 0
M  V30 449 C 65.1273 1.45101 1.30271 0
M  V30 450 O 64.3973 0.633317 1.8538 0
M  V30 451 H 62.9773 0.746759 -0.0189745 0
M  V30 452 H 65.6393 1.79862 -0.750717 0
M  V30 453 H 64.7353 3.12097 0.014345 0
M  V30 454 N 65.0364 0.313813 1.54444 0
M  V30 455 C 66.2844 -0.291099 1.99993 0
M  V30 456 C 66.6054 -1.53418 1.20366 0
M  V30 457 O 65.8754 -1.93544 0.302927 0
M  V30 458 H 64.4554 -0.110552 0.738774 0
M  V30 459 H 67.1174 0.428106 1.9014 0
M  V30 460 H 66.2134 -0.554268 3.07139 0
M  V30 461 N 66.5145 -1.57545 0.0417849 0
M  V30 462 C 67.7425 -1.96624 -0.643928 0
M  V30 463 C 68.1575 -0.918897 -1.64929 0
M  V30 464 O 67.5145 0.0979323 -1.82237 0
M  V30 465 C 67.5655 -3.35781 -1.33914 0
M  V30 466 O 67.2865 -4.365 -0.374048 0
M  V30 467 C 68.7875 -3.89566 -2.1155 0
M  V30 468 H 66.0075 -0.647316 -0.176702 0
M  V30 469 H 68.5515 -2.04229 0.105304 0
M  V30 470 H 66.7065 -3.29357 -2.03968 0
M  V30 471 H 67.1205 -5.17248 -0.869179 0
M  V30 472 H 68.5945 -4.89242 -2.55628 0
M  V30 473 H 69.0715 -3.24488 -2.9598 0
M  V30 474 H 69.6775 -3.99298 -1.46427 0
M  V30 475 N 67.9926 0.231505 -1.5589 0
M  V30 476 C 69.2406 0.955461 -1.78088 0
M  V30 477 C 69.5616 1.85262 -0.608533 0
M  V30 478 O 68.8316 1.92277 0.375035 0
M  V30 479 H 67.4116 0.355787 -0.656829 0
M  V30 480 H 70.0736 0.245751 -1.93344 0
M  V30 481 H 69.1696 1.56814 -2.69844 0
M  V30 482 N 69.4707 1.49531 0.497807 0
M  V30 483 C 70.7187 1.58865 1.24926 0
M  V30 484 C 71.0397 0.278721 1.92998 0
M  V30 485 O 70.3097 -0.702144 1.82885 0
M  V30 486 H 68.8897 0.585343 0.464094 0
M  V30 487 H 71.5517 1.86174 0.57666 0
M  V30 488 H 70.6477 2.38633 2.01149 0
M  V30 489 N 70.9488 -0.749086 1.3866 0
M  V30 490 C 72.1968 -1.50535 1.34847 0
M  V30 491 C 72.5178 -1.94909 -0.0595016 0
M  V30 492 O 71.7878 -1.67973 -1.00806 0
M  V30 493 H 70.3678 -0.558395 0.49619 0
M  V30 494 H 73.0298 -0.890165 1.73384 0
M  V30 495 H 72.1258 -2.39413 2.00219 0
M  V30 496 N 72.4269 -1.23603 -0.977757 0
M  V30 497 C 73.3739 -1.01954 -2.07061 0
M  V30 498 C 74.3439 0.0638697 -1.65977 0
M  V30 499 O 75.5289 -0.0887624 -1.90593 0
M  V30 500 C 72.6689 -0.619658 -3.39491 0
M  V30 501 C 71.7819 -1.77547 -3.93829 0
M  V30 502 C 70.9169 -1.32212 -5.14484 0
M  V30 503 C 69.9559 -2.44852 -5.60994 0
M  V30 504 N 69.0929 -2.00456 -6.72876 0
M  V30 505 H 73.9329 -1.95495 -2.24913 0
M  V30 506 H 71.4699 -0.973861 -1.10247 0
M  V30 507 H 73.4279 -0.368898 -4.15566 0
M  V30 508 H 72.0579 0.278752 -3.21594 0
M  V30 509 H 71.1099 -2.14016 -3.14486 0
M  V30 510 H 72.4219 -2.62219 -4.24314 0
M  V30 511 H 71.5759 -1.02965 -5.97899 0
M  V30 512 H 70.3149 -0.445808 -4.85658 0
M  V30 513 H 69.3199 -2.74871 -4.76157 0
M  V30 514 H 70.5449 -3.33024 -5.91837 0
M  V30 515 H 68.4909 -1.15208 -6.45804 0
M  V30 516 H 68.4079 -2.78687 -7.02759 0
M  V30 517 H 69.6759 -1.7432 -7.59758 0
M  V30 518 N 73.905 1.17692 -1.04816 0
M  V30 519 C 74.868 2.19787 -0.650117 0
M  V30 520 C 75.868 1.58044 0.296427 0
M  V30 521 O 77.058 1.74012 0.0808097 0
M  V30 522 C 74.19 3.40869 0.0456987 0
M  V30 523 H 75.383 2.56516 -1.5537 0
M  V30 524 H 72.936 1.31708 -0.841594 0
M  V30 525 H 73.671 3.09681 0.962726 0
M  V30 526 H 73.456 3.86928 -0.634727 0
M  V30 527 H 74.946 4.16445 0.310432 0
M  V30 528 N 75.3831 0.828654 1.34056 0
M  V30 529 C 76.6081 0.431637 2.02859 0
M  V30 530 C 77.0331 -0.956339 1.61975 0
M  V30 531 O 76.3911 -1.62338 0.807228 0
M  V30 532 C 76.4391 0.548323 3.56407 0
M  V30 533 O 75.5431 -0.429556 4.10157 0
M  V30 534 H 74.8841 0.176886 0.640006 0
M  V30 535 H 77.4141 1.12066 1.71179 0
M  V30 536 H 77.4241 0.426196 4.05768 0
M  V30 537 H 76.0991 1.5606 3.8551 0
M  V30 538 H 74.6761 -0.265836 3.71951 0
M  V30 539 N 76.8612 -1.46375 0.584142 0
M  V30 540 C 78.1072 -2.02678 0.0703716 0
M  V30 541 C 78.4402 -1.4545 -1.28678 0
M  V30 542 O 77.7152 -0.62014 -1.84349 0
M  V30 543 C 77.9982 -3.60099 0.00614674 0
M  V30 544 C 77.8512 -4.27709 1.3923 0
M  V30 545 C 79.1702 -4.34598 -0.693742 0
M  V30 546 H 76.2892 -0.736504 0.027047 0
M  V30 547 H 78.9312 -1.74501 0.751615 0
M  V30 548 H 77.0812 -3.84236 -0.574009 0
M  V30 549 H 78.7532 -4.14832 2.01773 0
M  V30 550 H 76.9962 -3.87016 1.95962 0
M  V30 551 H 77.6672 -5.36478 1.29982 0
M  V30 552 H 80.1432 -4.15615 -0.200869 0
M  V30 553 H 79.0192 -5.44318 -0.707714 0
M  V30 554 H 79.2802 -4.05759 -1.75533 0
M  V30 555 N 78.3393 -0.321999 -1.54275 0
M  V30 556 C 79.5873 0.280489 -2.00144 0
M  V30 557 C 79.9083 1.52777 -1.21178 0
M  V30 558 O 79.1783 1.9338 -0.313187 0
M  V30 559 H 77.7583 0.106632 -0.73935 0
M  V30 560 H 80.4203 -0.438184 -1.8991 0
M  V30 561 H 79.5163 0.537972 -3.07428 0
M  V30 562 N 79.8174 1.5752 -0.0501392 0
M  V30 563 C 80.7804 2.1037 0.909786 0
M  V30 564 C 81.7804 1.02308 1.24056 0
M  V30 565 O 82.9704 1.28385 1.17741 0
M  V30 566 C 80.1024 2.58708 2.21998 0
M  V30 567 H 81.2954 2.96479 0.451665 0
M  V30 568 H 78.8484 1.55038 0.198248 0
M  V30 569 H 79.5834 1.75989 2.72394 0
M  V30 570 H 79.3684 3.37675 1.99295 0
M  V30 571 H 80.8584 2.99747 2.9076 0
M  V30 572 N 81.2955 -0.223234 1.56011 0
M  V30 573 C 82.2285 -1.30377 1.87289 0
M  V30 574 C 83.2065 -1.45286 0.730112 0
M  V30 575 O 84.3905 -1.61126 0.978302 0
M  V30 576 C 81.5175 -2.67431 2.07843 0
M  V30 577 C 80.5635 -2.69546 3.30526 0
M  V30 578 S 81.3965 -2.23781 4.865 0
M  V30 579 C 82.5525 -3.62714 5.10088 0
M  V30 580 H 82.7855 -1.03652 2.78646 0
M  V30 581 H 80.3185 -0.425393 1.48424 0
M  V30 582 H 82.2765 -3.46336 2.20368 0
M  V30 583 H 80.9375 -2.91381 1.17285 0
M  V30 584 H 80.1305 -3.70255 3.41947 0
M  V30 585 H 79.7325 -1.98703 3.16849 0
M  V30 586 H 82.0245 -4.58391 4.98883 0
M  V30 587 H 82.9675 -3.5621 6.11981 0
M  V30 588 H 83.3755 -3.56323 4.37829 0
M  V30 589 N 82.7736 -1.49793 -0.48987 0
M  V30 590 C 84.0216 -1.59525 -1.24081 0
M  V30 591 C 84.3426 -0.288953 -1.92847 0
M  V30 592 O 83.6126 0.692436 -1.83254 0
M  V30 593 H 82.1926 -0.587796 -0.460983 0
M  V30 594 H 84.8546 -1.86477 -0.566778 0
M  V30 595 H 83.9506 -2.39696 -1.99881 0
M  V30 596 N 84.2517 0.741722 -1.39055 0
M  V30 597 C 85.4997 1.49818 -1.35643 0
M  V30 598 C 85.8207 1.94938 0.0491642 0
M  V30 599 O 85.0907 1.68505 0.999141 0
M  V30 600 H 83.6707 0.555755 -0.499144 0
M  V30 601 H 86.3327 0.880957 -1.73854 0
M  V30 602 H 85.4287 2.38348 -2.01486 0
M  V30 603 N 85.7298 1.2412 0.971189 0
M  V30 604 C 86.9778 1.07668 1.71032 0
M  V30 605 C 87.2988 -0.385797 1.91146 0
M  V30 606 O 86.5688 -1.27569 1.4867 0
M  V30 607 H 85.1488 0.395429 0.633755 0
M  V30 608 H 87.8108 1.55984 1.16855 0
M  V30 609 H 86.9068 1.57195 2.69622 0
M  V30 610 N 87.2079 -1.17134 1.05439 0
M  V30 611 C 88.4539 -1.87733 0.767077 0
M  V30 612 C 88.7869 -1.8098 -0.704253 0
M  V30 613 O 88.0619 -1.21951 -1.5152 0
M  V30 614 C 88.3449 -3.37659 1.25133 0
M  V30 615 C 88.1979 -3.53149 2.78578 0
M  V30 616 C 89.5169 -4.31768 0.852324 0
M  V30 617 H 86.6359 -0.681687 0.280129 0
M  V30 618 H 89.2779 -1.37732 1.30881 0
M  V30 619 H 87.4279 -3.80373 0.790469 0
M  V30 620 H 89.0999 -3.19434 3.32806 0
M  V30 621 H 87.3429 -2.95345 3.17732 0
M  V30 622 H 88.0139 -4.58403 3.07523 0
M  V30 623 H 90.4899 -3.96909 1.24911 0
M  V30 624 H 89.3659 -5.35199 1.21873 0
M  V30 625 H 89.6269 -4.41429 -0.243485 0
M  V30 626 N 88.686 -0.835752 -1.33615 0
M  V30 627 C 89.934 -0.429109 -1.97492 0
M  V30 628 C 90.255 1.01433 -1.66543 0
M  V30 629 O 89.525 1.70611 -0.962744 0
M  V30 630 H 88.105 -0.155686 -0.730596 0
M  V30 631 H 90.767 -1.06802 -1.63031 0
M  V30 632 H 89.863 -0.55861 -3.0706 0
M  V30 633 N 90.1641 1.46063 -0.591896 0
M  V30 634 C 91.1271 2.28854 0.125973 0
M  V30 635 C 92.1271 1.38903 0.810107 0
M  V30 636 O 93.3171 1.61186 0.66066 0
M  V30 637 C 90.4491 3.19526 1.1881 0
M  V30 638 H 91.6421 2.93802 -0.601717 0
M  V30 639 H 89.1951 1.52325 -0.350254 0
M  V30 640 H 89.9301 2.59345 1.94707 0
M  V30 641 H 89.7151 3.85766 0.701936 0
M  V30 642 H 91.2051 3.81817 1.69132 0
M  V30 643 N 91.6422 0.330177 1.54103 0
M  V30 644 C 92.8672 -0.274893 2.0557 0
M  V30 645 C 93.2922 -1.44487 1.20437 0
M  V30 646 O 92.6502 -1.80021 0.214991 0
M  V30 647 C 92.6982 -0.68079 3.54115 0
M  V30 648 O 91.8022 -1.7824 3.71893 0
M  V30 649 H 91.1432 -0.0483849 0.662235 0
M  V30 650 H 93.6732 0.480508 1.98878 0
M  V30 651 H 93.6832 -0.961635 3.96505 0
M  V30 652 H 92.3582 0.174903 4.15532 0
M  V30 653 H 90.9352 -1.49985 3.41407 0
M  V30 654 N 93.1203 -1.57491 0.0584922 0
M  V30 655 C 94.3453 -1.97711 -0.62652 0
M  V30 656 C 94.7703 -0.936132 -1.63151 0
M  V30 657 O 94.1283 0.099811 -1.81025 0
M  V30 658 C 94.1763 -3.36989 -1.28338 0
M  V30 659 O 93.2803 -3.35433 -2.39913 0
M  V30 660 H 92.6213 -0.643868 -0.162266 0
M  V30 661 H 95.1513 -2.04193 0.129064 0
M  V30 662 H 95.1613 -3.73879 -1.63335 0
M  V30 663 H 93.8363 -4.12289 -0.546889 0
M  V30 664 H 92.4133 -3.10298 -2.06809 0
M  V30 665 N 94.5984 0.214957 -1.56127 0
M  V30 666 C 95.8234 0.95924 -1.83884 0
M  V30 667 C 96.2484 1.7689 -0.639644 0
M  V30 668 O 95.6064 1.76566 0.411601 0
M  V30 669 C 95.6544 1.84723 -3.09693 0
M  V30 670 O 94.7584 2.94346 -2.8885 0
M  V30 671 H 94.0994 0.27125 -0.606069 0
M  V30 672 H 96.6294 0.226276 -2.03345 0
M  V30 673 H 96.6394 2.25576 -3.39969 0
M  V30 674 H 95.3144 1.25218 -3.96602 0
M  V30 675 H 93.8914 2.57391 -2.69823 0
M  V30 676 N 96.0765 1.50051 0.48192 0
M  V30 677 C 97.3245 1.60181 1.23234 0
M  V30 678 C 97.6455 0.299176 1.92691 0
M  V30 679 O 96.9155 -0.682708 1.83619 0
M  V30 680 H 95.4955 0.590232 0.457859 0
M  V30 681 H 98.1575 1.86775 0.556881 0
M  V30 682 H 97.2535 2.40753 1.98607 0
M  V30 683 N 97.5546 -0.734337 1.39446 0
M  V30 684 C 98.8026 -1.49096 1.36436 0
M  V30 685 C 99.1236 -1.94961 -0.0388255 0
M  V30 686 O 98.3936 -1.69033 -0.990191 0
M  V30 687 H 96.9736 -0.5531 0.502085 0
M  V30 688 H 99.6356 -0.871725 1.74319 0
M  V30 689 H 98.7316 -2.37276 2.02747 0
M  V30 690 N 99.0327 -1.24633 -0.964593 0
M  V30 691 C 100.281 -1.08573 -1.70459 0
M  V30 692 C 100.602 0.375655 -1.91347 0
M  V30 693 O 99.8717 1.26779 -1.49345 0
M  V30 694 H 98.4517 -0.398784 -0.631649 0
M  V30 695 H 101.114 -1.56601 -1.16026 0
M  V30 696 H 100.21 -1.58623 -2.68785 0
M  V30 697 N 100.511 1.16574 -1.06058 0
M  V30 698 C 101.922 1.68662 -0.800632 0
M  V30 699 C 102.273 1.84184 0.67608 0
M  V30 700 O 101.398 1.53568 1.52466 0
M  V30 701 C 101.993 3.06356 -1.44676 0
M  V30 702 C 100.552 3.55575 -1.23465 0
M  V30 703 C 99.6988 2.31616 -1.52477 0
M  V30 704 H 102.65 1.00969 -1.22438 0
M  V30 705 H 102.671 3.70636 -0.860788 0
M  V30 706 H 102.183 2.95027 -2.52152 0
M  V30 707 H 100.284 3.72167 -0.179527 0
M  V30 708 H 100.397 4.37812 -1.94571 0
M  V30 709 H 98.7608 2.36512 -0.945209 0
M  V30 710 H 99.5438 2.22887 -2.61106 0
M  V30 711 N 101.989 0.842826 1.3317 0
M  V30 712 C 103.237 0.439577 1.97262 0
M  V30 713 C 103.558 -1.00548 1.67078 0
M  V30 714 O 102.828 -1.70098 0.971779 0
M  V30 715 H 101.408 0.159558 0.72976 0
M  V30 716 H 104.07 1.07665 1.62463 0
M  V30 717 H 103.166 0.574886 3.0676 0
M  V30 718 N 103.467 -1.45747 0.599634 0
M  V30 719 C 104.715 -2.01893 0.0915472 0
M  V30 720 C 105.036 -1.47155 -1.27946 0
M  V30 721 O 104.306 -0.66273 -1.84349 0
M  V30 722 H 102.886 -0.746363 0.0308524 0
M  V30 723 H 105.548 -1.78645 0.779237 0
M  V30 724 H 104.644 -3.1208 0.0353086 0
M  V30 725 N 104.945 -0.338344 -1.53925 0
M  V30 726 C 106.17 0.263987 -2.05713 0
M  V30 727 C 106.595 1.43847 -1.21201 0
M  V30 728 O 105.953 1.79904 -0.224535 0
M  V30 729 C 106.001 0.662 -3.54471 0
M  V30 730 O 105.105 1.76265 -3.72833 0
M  V30 731 H 104.446 0.0448722 -0.662482 0
M  V30 732 H 106.976 -0.491048 -1.9862 0
M  V30 733 H 106.986 0.940594 -3.9701 0
M  V30 734 H 105.661 -0.196937 -4.15433 0
M  V30 735 H 104.238 1.48173 -3.42198 0
M  V30 736 N 106.423 1.57458 -0.0668435 0
M  V30 737 C 107.671 1.92919 0.602214 0
M  V30 738 C 107.992 0.947215 1.70449 0
M  V30 739 O 107.262 -0.00544117 1.95899 0
M  V30 740 H 105.842 0.71217 0.22544 0
M  V30 741 H 108.504 1.94508 -0.123535 0
M  V30 742 H 107.6 2.94589 1.03073 0
M  V30 743 N 107.901 -0.206675 1.56239 0
M  V30 744 C 109.149 -0.927007 1.79586 0
M  V30 745 C 109.47 -1.8427 0.637929 0
M  V30 746 O 108.74 -1.92849 -0.344398 0
M  V30 747 H 107.32 -0.345292 0.662407 0
M  V30 748 H 109.982 -0.21496 1.93711 0
M  V30 749 H 109.078 -1.52501 2.72305 0
M  V30 750 N 109.379 -1.50304 -0.473955 0
M  V30 751 C 110.627 -1.60832 -1.22382 0
M  V30 752 C 110.948 -0.30939 -1.9253 0
M  V30 753 O 110.218 0.67296 -1.83978 0
M  V30 754 H 108.798 -0.592652 -0.454723 0
M  V30 755 H 111.46 -1.87068 -0.546968 0
M  V30 756 H 110.556 -2.41803 -1.97327 0
M  V30 757 N 110.857 0.726932 -1.39834 0
M  V30 758 C 112.105 1.4837 -1.37225 0
M  V30 759 C 112.426 1.94979 0.0284857 0
M  V30 760 O 111.696 1.69555 0.981213 0
M  V30 761 H 110.276 0.55043 -0.505011 0
M  V30 762 H 112.938 0.862468 -1.74778 0
M  V30 763 H 112.034 2.36198 -2.04003 0
M  V30 764 N 112.336 1.25143 0.95797 0
M  V30 765 C 113.561 1.12521 1.74223 0
M  V30 766 C 113.986 -0.317402 1.85403 0
M  V30 767 O 113.344 -1.2299 1.33204 0
M  V30 768 C 113.392 1.78062 3.1357 0
M  V30 769 O 112.496 1.058 3.98598 0
M  V30 770 H 111.837 0.39304 0.535178 0
M  V30 771 H 114.367 1.65641 1.201 0
M  V30 772 H 114.377 1.84213 3.64046 0
M  V30 773 H 113.052 2.83021 3.04749 0
M  V30 774 H 111.629 1.07506 3.57067 0
M  V30 775 N 113.814 -1.1601 1.06675 0
M  V30 776 C 115.062 -1.86264 0.784229 0
M  V30 777 C 115.383 -1.82328 -0.691488 0
M  V30 778 O 114.653 -1.25947 -1.50047 0
M  V30 779 H 113.233 -0.689621 0.28711 0
M  V30 780 H 115.895 -1.40664 1.34906 0
M  V30 781 H 114.991 -2.91595 1.11259 0
M  V30 782 N 115.292 -0.849877 -1.32721 0
M  V30 783 C 116.54 -0.450032 -1.97026 0
M  V30 784 C 116.861 0.996604 -1.67609 0
M  V30 785 O 116.131 1.6958 -0.980786 0
M  V30 786 H 114.711 -0.163426 -0.728904 0
M  V30 787 H 117.373 -1.08526 -1.6189 0
M  V30 788 H 116.469 -0.591146 -3.0645 0
M  V30 789 N 116.77 1.45427 -0.607355 0
M  V30 790 C 118.181 1.85756 -0.187535 0
M  V30 791 C 118.532 1.5077 1.25551 0
M  V30 792 O 117.657 0.93427 1.95193 0
M  V30 793 C 118.252 3.37154 -0.333572 0
M  V30 794 C 116.811 3.76387 0.0315542 0
M  V30 795 C 115.958 2.69377 -0.658117 0
M  V30 796 H 118.909 1.36231 -0.81405 0
M  V30 797 H 118.93 3.78014 0.43428 0
M  V30 798 H 118.442 3.62586 -1.38393 0
M  V30 799 H 116.543 3.56571 1.0811 0
M  V30 800 H 116.656 4.77731 -0.361935 0
M  V30 801 H 115.02 2.5452 -0.0957873 0
M  V30 802 H 115.803 2.97646 -1.7106 0
M  V30 803 N 118.248 0.346503 1.53744 0
M  V30 804 C 119.496 -0.248612 2.00565 0
M  V30 805 C 119.817 -1.5083 1.23593 0
M  V30 806 O 119.087 -1.92858 0.343912 0
M  V30 807 H 117.667 -0.0948564 0.740953 0
M  V30 808 H 120.329 0.468341 1.89189 0
M  V30 809 H 119.425 -0.488994 3.08245 0
M  V30 810 N 119.726 -1.57421 0.075193 0
M  V30 811 C 120.689 -2.11791 -0.876203 0
M  V30 812 C 121.689 -1.04268 -1.22412 0
M  V30 813 O 122.879 -1.30242 -1.15684 0
M  V30 814 C 120.011 -2.62207 -2.17854 0
M  V30 815 H 121.204 -2.9716 -0.40444 0
M  V30 816 H 118.757 -1.55333 -0.173557 0
M  V30 817 H 119.492 -1.803 -2.6956 0
M  V30 818 H 119.277 -3.40802 -1.93897 0
M  V30 819 H 120.767 -3.04335 -2.85955 0
M  V30 820 N 121.204 0.198386 -1.56346 0
M  V30 821 C 122.452 0.91747 -1.80075 0
M  V30 822 C 122.773 1.83929 -0.647692 0
M  V30 823 O 122.043 1.93029 0.334166 0
M  V30 824 H 120.623 0.341774 -0.664228 0
M  V30 825 H 123.285 0.204684 -1.93822 0
M  V30 826 H 122.381 1.51055 -2.7311 0
M  V30 827 N 122.682 1.50554 0.465978 0
M  V30 828 C 123.91 1.65563 1.24083 0
M  V30 829 C 124.325 0.341051 1.85694 0
M  V30 830 O 123.682 -0.677543 1.69457 0
M  V30 831 C 123.733 2.75051 2.34583 0
M  V30 832 O 123.454 4.01413 1.75497 0
M  V30 833 C 124.955 3.01078 3.25372 0
M  V30 834 H 122.175 0.55638 0.375077 0
M  V30 835 H 124.719 1.96807 0.555624 0
M  V30 836 H 122.874 2.46486 2.9887 0
M  V30 837 H 123.288 4.62002 2.48303 0
M  V30 838 H 124.762 3.81339 3.99105 0
M  V30 839 H 125.239 2.12349 3.84453 0
M  V30 840 H 125.845 3.31194 2.66816 0
M  V30 841 N 124.16 -0.719506 1.40217 0
M  V30 842 C 125.385 -1.51371 1.4178 0
M  V30 843 C 125.81 -1.88091 0.0182355 0
M  V30 844 O 125.168 -1.52997 -0.972707 0
M  V30 845 C 125.216 -2.768 2.31115 0
M  V30 846 O 124.32 -3.73349 1.7517 0
M  V30 847 H 123.661 -0.456529 0.482159 0
M  V30 848 H 126.191 -0.88644 1.844 0
M  V30 849 H 126.201 -3.25371 2.46167 0
M  V30 850 H 124.876 -2.49407 3.3282 0
M  V30 851 H 123.453 -3.32179 1.69444 0
M  V30 852 N 125.638 -1.25649 -0.95132 0
M  V30 853 C 126.885 -1.10594 -1.69633 0
M  V30 854 C 127.213 0.352515 -1.91279 0
M  V30 855 O 126.468 1.27601 -1.4838 0
M  V30 856 C 126.767 -1.80909 -3.08231 0
M  V30 857 C 126.433 -3.30825 -3.06375 0
M  V30 858 C 125.095 -3.71722 -3.05576 0
M  V30 859 C 127.447 -4.26589 -2.99452 0
M  V30 860 C 124.775 -5.06788 -2.95606 0
M  V30 861 C 127.127 -5.61683 -2.91024 0
M  V30 862 C 125.791 -6.01904 -2.88562 0
M  V30 863 H 125.061 -0.404691 -0.620731 0
M  V30 864 H 127.708 -1.55964 -1.11119 0
M  V30 865 H 126.013 -1.27979 -3.70309 0
M  V30 866 H 127.71 -1.6671 -3.64704 0
M  V30 867 H 124.3 -2.98287 -3.07771 0
M  V30 868 H 128.484 -3.95982 -2.99185 0
M  V30 869 H 123.74 -5.37126 -2.92071 0
M  V30 870 H 127.914 -6.35578 -2.84629 0
M  V30 871 H 125.541 -7.06521 -2.80593 0
M  V30 872 N 127.117 1.15442 -1.07289 0
M  V30 873 C 128.528 1.67803 -0.818475 0
M  V30 874 C 128.879 1.8489 0.656507 0
M  V30 875 O 128.004 1.55176 1.50829 0
M  V30 876 C 128.599 3.04805 -1.47917 0
M  V30 877 C 127.158 3.54245 -1.27229 0
M  V30 878 C 126.305 2.29986 -1.54925 0
M  V30 879 H 129.256 0.996646 -1.23502 0
M  V30 880 H 129.277 3.69702 -0.90005 0
M  V30 881 H 128.789 2.92336 -2.55267 0
M  V30 882 H 126.89 3.71956 -0.21899 0
M  V30 883 H 127.003 4.35723 -1.99203 0
M  V30 884 H 125.367 2.35496 -0.970242 0
M  V30 885 H 126.15 2.20105 -2.63455 0
M  V30 886 N 128.595 0.856903 1.32268 0
M  V30 887 C 130.006 0.515711 1.79436 0
M  V30 888 C 130.357 -0.966586 1.70738 0
M  V30 889 O 129.482 -1.75409 1.26731 0
M  V30 890 C 130.077 0.929335 3.25805 0
M  V30 891 C 128.636 0.640006 3.70919 0
M  V30 892 C 127.783 1.12784 2.53328 0
M  V30 893 H 130.734 1.04389 1.19535 0
M  V30 894 H 130.755 0.246633 3.797 0
M  V30 895 H 130.267 2.00821 3.32103 0
M  V30 896 H 128.368 -0.428051 3.70133 0
M  V30 897 H 128.481 1.20788 4.63624 0
M  V30 898 H 126.845 0.548033 2.48734 0
M  V30 899 H 127.628 2.21387 2.62379 0
M  V30 900 N 130.073 -1.45103 0.615059 0
M  V30 901 C 131.484 -1.85654 0.197383 0
M  V30 902 C 131.835 -1.51433 -1.24749 0
M  V30 903 O 130.96 -0.944608 -1.94695 0
M  V30 904 C 131.555 -3.36972 0.351448 0
M  V30 905 C 130.114 -3.76398 -0.011593 0
M  V30 906 C 129.261 -2.69024 0.672394 0
M  V30 907 H 132.212 -1.35797 0.821263 0
M  V30 908 H 132.233 -3.78239 -0.414227 0
M  V30 909 H 131.745 -3.61847 1.40314 0
M  V30 910 H 129.846 -3.5714 -1.06217 0
M  V30 911 H 129.959 -4.77532 0.387265 0
M  V30 912 H 128.323 -2.54465 0.109284 0
M  V30 913 H 129.106 -2.96735 1.72636 0
M  V30 914 N 131.551 -0.354651 -1.53558 0
M  V30 915 C 132.799 0.237972 -2.00694 0
M  V30 916 C 133.12 1.50173 -1.24391 0
M  V30 917 O 132.39 1.92673 -0.354135 0
M  V30 918 H 130.97 0.0909256 -0.741446 0
M  V30 919 H 133.632 -0.478368 -1.88938 0
M  V30 920 H 132.728 0.47264 -3.085 0
M  V30 921 N 133.029 1.57378 -0.0835403 0
M  V30 922 C 134.275 1.94217 0.583733 0
M  V30 923 C 134.608 0.964653 1.68547 0
M  V30 924 O 133.883 -0.00422258 1.945 0
M  V30 925 C 134.166 3.41253 1.14972 0
M  V30 926 C 134.019 4.49768 0.0538277 0
M  V30 927 C 135.338 3.89352 2.05166 0
M  V30 928 H 132.457 0.706233 0.210724 0
M  V30 929 H 135.099 1.89392 -0.1519 0
M  V30 930 H 133.249 3.45496 1.77665 0
M  V30 931 H 134.921 4.57641 -0.579851 0
M  V30 932 H 133.164 4.29432 -0.614068 0
M  V30 933 H 133.835 5.49817 0.490452 0
M  V30 934 H 136.311 3.87189 1.52393 0
M  V30 935 H 135.187 4.92822 2.41698 0
M  V30 936 H 135.448 3.27973 2.96456 0
M  V30 937 N 134.507 -0.190092 1.56449 0
M  V30 938 C 135.454 -1.23557 1.94942 0
M  V30 939 C 136.424 -1.44972 0.810696 0
M  V30 940 O 137.609 -1.58023 1.06927 0
M  V30 941 C 134.749 -2.57416 2.2985 0
M  V30 942 C 133.862 -2.43537 3.5681 0
M  V30 943 C 132.997 -3.70134 3.81017 0
M  V30 944 C 132.036 -3.51109 5.01387 0
M  V30 945 N 131.173 -4.6973 5.21822 0
M  V30 946 H 136.013 -0.900304 2.84075 0
M  V30 947 H 133.55 -0.43318 1.40577 0
M  V30 948 H 135.508 -3.35409 2.48106 0
M  V30 949 H 134.138 -2.88975 1.43852 0
M  V30 950 H 133.19 -1.56816 3.46573 0
M  V30 951 H 134.502 -2.25415 4.4496 0
M  V30 952 H 133.656 -4.56566 3.9954 0
M  V30 953 H 132.395 -3.91215 2.91207 0
M  V30 954 H 131.4 -2.63063 4.82782 0
M  V30 955 H 132.625 -3.31468 5.9271 0
M  V30 956 H 130.571 -4.91065 4.34961 0
M  V30 957 H 130.488 -4.54452 6.0416 0
M  V30 958 H 131.756 -5.57499 5.44808 0
M  V30 959 N 135.985 -1.50799 -0.457987 0
M  V30 960 C 136.915 -1.73553 -1.5621 0
M  V30 961 C 137.896 -0.584774 -1.59732 0
M  V30 962 O 139.081 -0.825314 -1.7579 0
M  V30 963 C 136.211 -1.84169 -2.94447 0
M  V30 964 C 135.165 -2.99461 -3.0579 0
M  V30 965 C 134.491 -2.95235 -4.45803 0
M  V30 966 C 135.791 -4.39766 -2.81786 0
M  V30 967 H 137.485 -2.66 -1.37421 0
M  V30 968 H 135.031 -1.28002 -0.659662 0
M  V30 969 H 136.984 -1.98672 -3.71628 0
M  V30 970 H 135.708 -0.883545 -3.14422 0
M  V30 971 H 134.367 -2.8463 -2.31044 0
M  V30 972 H 134.015 -1.97239 -4.62715 0
M  V30 973 H 133.715 -3.72642 -4.54326 0
M  V30 974 H 135.239 -3.11803 -5.24987 0
M  V30 975 H 136.653 -4.55054 -3.4871 0
M  V30 976 H 135.05 -5.18722 -3.0174 0
M  V30 977 H 136.12 -4.51229 -1.7754 0
M  V30 978 N 137.463 0.71206 -1.40597 0
M  V30 979 C 138.711 1.46907 -1.38791 0
M  V30 980 C 139.032 1.94998 0.00780391 0
M  V30 981 O 138.302 1.70587 0.963174 0
M  V30 982 H 136.882 0.545043 -0.51082 0
M  V30 983 H 139.544 0.843882 -1.75683 0
M  V30 984 H 138.64 2.34021 -2.06496 0
M  V30 985 N 138.941 1.26152 0.944643 0
M  V30 986 C 140.357 1.03189 1.21754 0
M  V30 987 C 140.557 -0.245112 2.00004 0
M  V30 988 O 139.613 -0.955176 2.33736 0
M  V30 989 C 140.926 2.26119 1.98219 0
M  V30 990 C 142.474 2.30984 2.11224 0
M  V30 991 C 142.949 3.53597 2.91089 0
M  V30 992 N 144.44 3.54053 2.98664 0
M  V30 993 C 145.175 4.45593 3.60881 0
M  V30 994 N 144.671 5.47416 4.24626 0
M  V30 995 N 146.464 4.33252 3.58119 0
M  V30 996 H 138.615 2.08177 0.421437 0
M  V30 997 H 140.878 0.914723 0.248969 0
M  V30 998 H 140.584 3.18984 1.48128 0
M  V30 999 H 140.458 2.3009 2.98895 0
M  V30 1000 H 142.845 1.38635 2.60508 0
M  V30 1001 H 142.926 2.31026 1.09821 0
M  V30 1002 H 142.57 4.46273 2.42493 0
M  V30 1003 H 142.5 3.50802 3.92741 0
M  V30 1004 H 144.991 2.80403 2.53343 0
M  V30 1005 H 145.304 6.13459 4.69987 0
M  V30 1006 H 143.649 5.51278 4.23223 0
M  V30 1007 H 146.84 3.52924 3.0751 0
M  V30 1008 H 147.013 5.04786 4.06319 0
M  V30 1009 N 140.419 -1.14872 1.07899 0
M  V30 1010 C 141.696 -1.81928 0.71845 0
M  V30 1011 C 142.076 -1.95417 -0.798455 0
M  V30 1012 O 141.424 -1.50997 -1.715 0
M  V30 1013 C 141.634 -3.17937 1.43935 0
M  V30 1014 C 142.982 -3.93501 1.59506 0
M  V30 1015 O 144.006 -3.27509 1.40058 0
M  V30 1016 O 142.865 -5.1183 1.91551 0
M  V30 1017 H 139.959 -0.78628 0.256305 0
M  V30 1018 H 142.505 -1.21934 1.18026 0
M  V30 1019 H 141.277 -3.0325 2.47295 0
M  V30 1020 H 140.9 -3.85619 0.968687 0
M  V30 1021 N 141.898 -0.863906 -1.31812 0
M  V30 1022 C 143.123 -0.48527 -2.01643 0
M  V30 1023 C 143.548 0.913058 -1.64453 0
M  V30 1024 O 142.906 1.6014 -0.849985 0
M  V30 1025 C 142.954 -0.642625 -3.54828 0
M  V30 1026 O 142.058 0.320659 -4.11151 0
M  V30 1027 H 141.399 -0.193793 -0.635091 0
M  V30 1028 H 143.929 -1.16565 -1.68148 0
M  V30 1029 H 143.939 -0.533628 -4.04495 0
M  V30 1030 H 142.614 -1.66227 -3.81237 0
M  V30 1031 H 141.191 0.167126 -3.72525 0
M  V30 1032 N 143.376 1.44774 -0.622745 0
M  V30 1033 C 144.624 2.01721 -0.123655 0
M  V30 1034 C 144.945 1.49172 1.25589 0
M  V30 1035 O 144.215 0.691974 1.83272 0
M  V30 1036 H 142.795 0.745777 -0.0427225 0
M  V30 1037 H 145.457 1.77382 -0.807559 0
M  V30 1038 H 144.553 3.11984 -0.0849534 0
M  V30 1039 N 144.854 0.36279 1.53368 0
M  V30 1040 C 145.801 -0.485008 2.25646 0
M  V30 1041 C 146.771 -1.07982 1.2621 0
M  V30 1042 O 147.956 -1.11284 1.54986 0
M  V30 1043 C 145.096 -1.62023 3.04701 0
M  V30 1044 C 144.209 -1.05086 4.19024 0
M  V30 1045 C 143.344 -2.15496 4.85525 0
M  V30 1046 C 142.383 -1.5601 5.91884 0
M  V30 1047 N 141.52 -2.60241 6.52088 0
M  V30 1048 H 146.36 0.137864 2.97681 0
M  V30 1049 H 143.897 0.0798061 1.46883 0
M  V30 1050 H 145.855 -2.28887 3.48807 0
M  V30 1051 H 144.485 -2.2138 2.34927 0
M  V30 1052 H 143.537 -0.27259 3.79422 0
M  V30 1053 H 144.849 -0.575926 4.95464 0
M  V30 1054 H 144.003 -2.90186 5.32801 0
M  V30 1055 H 142.742 -2.66341 4.08551 0
M  V30 1056 H 141.747 -0.798338 5.43973 0
M  V30 1057 H 142.972 -1.05994 6.70777 0
M  V30 1058 H 140.918 -3.10304 5.77968 0
M  V30 1059 H 140.835 -2.17426 7.24059 0
M  V30 1060 H 142.103 -3.34641 7.04014 0
M  V30 1061 N 146.332 -1.57332 0.0918853 0
M  V30 1062 C 147.578 -1.94524 -0.573425 0
M  V30 1063 C 147.911 -0.973578 -1.68033 0
M  V30 1064 O 147.186 -0.00609226 -1.94499 0
M  V30 1065 C 147.469 -3.41858 -1.13161 0
M  V30 1066 C 147.322 -4.4979 -0.0299747 0
M  V30 1067 C 148.641 -3.90435 -2.03098 0
M  V30 1068 H 145.76 -0.70734 -0.206975 0
M  V30 1069 H 148.402 -1.89309 0.161942 0
M  V30 1070 H 146.552 -3.46433 -1.7583 0
M  V30 1071 H 148.224 -4.57327 0.604112 0
M  V30 1072 H 146.467 -4.291 0.636833 0
M  V30 1073 H 147.138 -5.50069 -0.461287 0
M  V30 1074 H 149.614 -3.87992 -1.50338 0
M  V30 1075 H 148.49 -4.94097 -2.39081 0
M  V30 1076 H 148.751 -3.29541 -2.94712 0
M  V30 1077 N 147.81 0.181792 -1.56548 0
M  V30 1078 C 149.038 0.915947 -1.85521 0
M  V30 1079 C 149.453 1.76282 -0.676016 0
M  V30 1080 O 148.81 1.79012 0.355077 0
M  V30 1081 C 148.861 1.80126 -3.13427 0
M  V30 1082 O 148.582 0.988562 -4.26801 0
M  V30 1083 C 150.083 2.64597 -3.55673 0
M  V30 1084 H 147.303 0.26661 -0.61576 0
M  V30 1085 H 149.847 0.185039 -2.03661 0
M  V30 1086 H 148.002 2.48563 -2.97145 0
M  V30 1087 H 148.416 1.59308 -4.99721 0
M  V30 1088 H 149.89 3.2235 -4.48101 0
M  V30 1089 H 150.367 3.38958 -2.79292 0
M  V30 1090 H 150.973 2.0151 -3.74532 0
M  V30 1091 N 149.288 1.51039 0.449983 0
M  V30 1092 C 150.516 1.66869 1.2232 0
M  V30 1093 C 150.931 0.360727 1.85322 0
M  V30 1094 O 150.288 -0.659531 1.70166 0
M  V30 1095 C 150.339 2.77524 2.31652 0
M  V30 1096 O 150.06 4.03252 1.7123 0
M  V30 1097 C 151.561 3.04512 3.2216 0
M  V30 1098 H 148.781 0.560326 0.369155 0
M  V30 1099 H 151.325 1.97385 0.534719 0
M  V30 1100 H 149.48 2.49642 2.96239 0
M  V30 1101 H 149.894 4.64609 2.43389 0
M  V30 1102 H 151.368 3.85551 3.95038 0
M  V30 1103 H 151.845 2.16415 3.8218 0
M  V30 1104 H 152.451 3.34005 2.63288 0
M  V30 1105 N 150.766 -0.704594 1.40972 0
M  V30 1106 C 152.012 -1.46675 1.40051 0
M  V30 1107 C 152.345 -1.94199 0.00641102 0
M  V30 1108 O 151.62 -1.68916 -0.964235 0
M  V30 1109 C 151.903 -2.68505 2.39952 0
M  V30 1110 C 151.756 -2.26805 3.88432 0
M  V30 1111 C 153.075 -3.70686 2.37233 0
M  V30 1112 H 150.194 -0.532015 0.510028 0
M  V30 1113 H 152.836 -0.803255 1.72185 0
M  V30 1114 H 150.986 -3.25114 2.1268 0
M  V30 1115 H 152.658 -1.75592 4.26574 0
M  V30 1116 H 150.901 -1.58685 4.03734 0
M  V30 1117 H 151.572 -3.14181 4.53866 0
M  V30 1118 H 154.048 -3.23731 2.61415 0
M  V30 1119 H 152.924 -4.53553 3.09162 0
M  V30 1120 H 153.185 -4.19754 1.38777 0
M  V30 1121 N 152.244 -1.26651 -0.937939 0
M  V30 1122 C 153.49 -1.12553 -1.687 0
M  V30 1123 C 153.823 0.329782 -1.91379 0
M  V30 1124 O 153.098 1.24202 -1.4968 0
M  V30 1125 C 153.381 -1.89862 -3.05981 0
M  V30 1126 C 153.234 -3.43318 -2.90607 0
M  V30 1127 C 154.553 -1.69499 -4.0615 0
M  V30 1128 H 151.672 -0.410257 -0.612257 0
M  V30 1129 H 154.314 -1.55685 -1.08913 0
M  V30 1130 H 152.464 -1.53204 -3.57017 0
M  V30 1131 H 154.136 -3.89747 -2.46769 0
M  V30 1132 H 152.379 -3.70179 -2.26164 0
M  V30 1133 H 153.05 -3.92642 -3.8799 0
M  V30 1134 H 155.526 -2.01442 -3.64088 0
M  V30 1135 H 154.402 -2.26002 -5.00214 0
M  V30 1136 H 154.663 -0.640365 -4.37438 0
M  V30 1137 N 153.722 1.14298 -1.08507 0
M  V30 1138 C 154.685 2.17607 -0.719711 0
M  V30 1139 C 155.685 1.58907 0.245997 0
M  V30 1140 O 156.875 1.74181 0.0254081 0
M  V30 1141 C 154.007 3.40842 -0.0627695 0
M  V30 1142 H 155.2 2.51443 -1.63452 0
M  V30 1143 H 152.753 1.28963 -0.88307 0
M  V30 1144 H 153.488 3.12587 0.863716 0
M  V30 1145 H 153.273 3.84713 -0.757504 0
M  V30 1146 H 154.763 4.17221 0.177786 0
M  V30 1147 N 155.201 0.870884 1.31352 0
M  V30 1148 C 156.429 0.49677 2.00848 0
M  V30 1149 C 156.844 -0.910998 1.65367 0
M  V30 1150 O 156.201 -1.59696 0.883374 0
M  V30 1151 C 156.252 0.645308 3.55694 0
M  V30 1152 O 155.973 1.99764 3.89905 0
M  V30 1153 C 157.474 0.272326 4.42463 0
M  V30 1154 H 154.694 0.193462 0.642506 0
M  V30 1155 H 157.238 1.1723 1.67563 0
M  V30 1156 H 155.393 0.0173176 3.87396 0
M  V30 1157 H 155.807 2.00607 4.84621 0
M  V30 1158 H 157.281 0.427208 5.50344 0
M  V30 1159 H 157.758 -0.788587 4.32062 0
M  V30 1160 H 158.364 0.876054 4.1618 0
M  V30 1161 N 156.679 -1.44442 0.630414 0
M  V30 1162 C 157.609 -2.33418 -0.0618083 0
M  V30 1163 C 158.59 -1.48165 -0.835541 0
M  V30 1164 O 159.775 -1.76886 -0.801564 0
M  V30 1165 C 156.905 -3.31222 -1.04449 0
M  V30 1166 C 155.859 -4.26288 -0.382436 0
M  V30 1167 C 155.185 -5.13954 -1.47497 0
M  V30 1168 C 156.485 -5.1744 0.710865 0
M  V30 1169 H 158.179 -2.91548 0.681184 0
M  V30 1170 H 155.725 -1.40191 0.329026 0
M  V30 1171 H 157.678 -3.92351 -1.53748 0
M  V30 1172 H 156.402 -2.71299 -1.81836 0
M  V30 1173 H 155.061 -3.6649 0.0899054 0
M  V30 1174 H 154.709 -4.50385 -2.2397 0
M  V30 1175 H 154.409 -5.7837 -1.03737 0
M  V30 1176 H 155.933 -5.77955 -1.96979 0
M  V30 1177 H 157.347 -5.72509 0.300996 0
M  V30 1178 H 155.744 -5.90455 1.07156 0
M  V30 1179 H 156.814 -4.58496 1.57829 0
M  V30 1180 N 158.157 -0.370918 -1.53173 0
M  V30 1181 C 159.405 0.216673 -2.00935 0
M  V30 1182 C 159.726 1.48845 -1.25977 0
M  V30 1183 O 158.996 1.92286 -0.374551 0
M  V30 1184 H 157.576 0.0830565 -0.742368 0
M  V30 1185 H 160.238 -0.49838 -1.8842 0
M  V30 1186 H 159.334 0.439893 -3.08984 0
M  V30 1187 N 159.635 1.57281 -0.100228 0
M  V30 1188 C 160.567 2.11342 0.886972 0
M  V30 1189 C 161.58 1.05182 1.24261 0
M  V30 1190 O 162.769 1.32613 1.19483 0
M  V30 1191 C 159.869 2.5825 2.19454 0
M  V30 1192 C 159.042 3.88302 2.01346 0
M  V30 1193 C 158.101 4.21004 3.15661 0
M  V30 1194 O 157.127 4.9014 2.89398 0
M  V30 1195 N 158.329 3.76818 4.41575 0
M  V30 1196 H 161.094 2.96668 0.425216 0
M  V30 1197 H 158.655 1.61678 0.0847334 0
M  V30 1198 H 160.647 2.7717 2.94888 0
M  V30 1199 H 159.217 1.77907 2.57037 0
M  V30 1200 H 158.437 3.7848 1.10212 0
M  V30 1201 H 159.725 4.73375 1.8653 0
M  V30 1202 H 159.123 3.2102 4.65792 0
M  V30 1203 H 157.68 4.00882 5.13942 0
M  V30 1204 N 161.113 -0.173488 1.56642 0
M  V30 1205 C 162.361 -0.888706 1.81512 0
M  V30 1206 C 162.682 -1.82875 0.676872 0
M  V30 1207 O 161.952 -1.93536 -0.303414 0
M  V30 1208 H 160.532 -0.331164 0.669582 0
M  V30 1209 H 163.194 -0.173823 1.94123 0
M  V30 1210 H 162.29 -1.46691 2.75478 0
M  V30 1211 N 162.591 -1.51276 -0.441967 0
M  V30 1212 C 164.002 -1.56244 -1.02199 0
M  V30 1213 C 164.353 -0.383149 -1.92422 0
M  V30 1214 O 163.478 0.500613 -2.1053 0
M  V30 1215 C 164.073 -2.83162 -1.86024 0
M  V30 1216 C 162.632 -2.90716 -2.39084 0
M  V30 1217 C 161.779 -2.50858 -1.18175 0
M  V30 1218 H 164.73 -1.5712 -0.223416 0
M  V30 1219 H 164.751 -2.66663 -2.71425 0
M  V30 1220 H 164.263 -3.68974 -1.20331 0
M  V30 1221 H 162.364 -2.09323 -3.08244 0
M  V30 1222 H 162.477 -3.94266 -2.72198 0
M  V30 1223 H 160.841 -2.03951 -1.52565 0
M  V30 1224 H 161.624 -3.3901 -0.541001 0
M  V30 1225 N 164.069 0.697108 -1.41344 0
M  V30 1226 C 164.979 1.84088 -1.45427 0
M  V30 1227 C 165.995 1.70545 -0.34501 0
M  V30 1228 O 167.171 1.92488 -0.592492 0
M  V30 1229 C 164.236 3.20056 -1.33286 0
M  V30 1230 C 163.297 3.45718 -2.54514 0
M  V30 1231 C 162.53 4.75199 -2.42944 0
M  V30 1232 O 162.753 5.51579 -1.45318 0
M  V30 1233 O 161.687 5.0161 -3.32672 0
M  V30 1234 H 165.513 1.836 -2.41919 0
M  V30 1235 H 163.098 0.849966 -1.22866 0
M  V30 1236 H 164.98 4.01236 -1.28794 0
M  V30 1237 H 163.655 3.2123 -0.39909 0
M  V30 1238 H 162.562 2.64474 -2.64583 0
M  V30 1239 H 163.895 3.49356 -3.46715 0
M  V30 1240 N 165.547 1.27147 0.931209 0
M  V30 1241 C 166.963 1.04475 1.20653 0
M  V30 1242 C 167.163 -0.223885 2.00252 0
M  V30 1243 O 166.219 -0.930332 2.34736 0
M  V30 1244 C 167.532 2.28209 1.95809 0
M  V30 1245 C 169.08 2.33211 2.08762 0
M  V30 1246 C 169.555 3.56665 2.87323 0
M  V30 1247 N 171.046 3.57201 2.94892 0
M  V30 1248 C 171.781 4.49395 3.56134 0
M  V30 1249 N 171.277 5.51889 4.18796 0
M  V30 1250 N 173.07 4.37026 3.53504 0
M  V30 1251 H 165.221 2.08612 0.399333 0
M  V30 1252 H 167.484 0.917312 0.239253 0
M  V30 1253 H 167.19 3.20538 1.44736 0
M  V30 1254 H 167.064 2.33247 2.96438 0
M  V30 1255 H 169.451 1.41391 2.59023 0
M  V30 1256 H 169.532 2.32178 1.07364 0
M  V30 1257 H 169.176 4.4882 2.37746 0
M  V30 1258 H 169.106 3.54948 3.88998 0
M  V30 1259 H 171.597 2.83074 2.50354 0
M  V30 1260 H 171.91 6.18409 4.63454 0
M  V30 1261 H 170.255 5.55735 4.17353 0
M  V30 1262 H 173.446 3.56166 3.03749 0
M  V30 1263 H 173.619 5.09067 4.00942 0
M  V30 1264 N 167.025 -1.13721 1.09112 0
M  V30 1265 C 168.25 -1.89314 0.847053 0
M  V30 1266 C 168.675 -1.78416 -0.595774 0
M  V30 1267 O 168.033 -1.12942 -1.41823 0
M  V30 1268 C 168.081 -3.3701 1.28284 0
M  V30 1269 O 167.185 -4.10054 0.439267 0
M  V30 1270 H 166.526 -0.588745 0.307044 0
M  V30 1271 H 169.056 -1.43902 1.45442 0
M  V30 1272 H 169.066 -3.87834 1.26683 0
M  V30 1273 H 167.741 -3.4426 2.33363 0
M  V30 1274 H 166.318 -3.69266 0.519312 0
M  V30 1275 N 168.503 -0.877838 -1.30888 0
M  V30 1276 C 169.435 -0.296607 -2.27273 0
M  V30 1277 C 170.448 0.544799 -1.53414 0
M  V30 1278 O 171.637 0.365511 -1.74718 0
M  V30 1279 C 168.737 0.597481 -3.33592 0
M  V30 1280 C 167.91 -0.213251 -4.3688 0
M  V30 1281 C 166.969 0.610208 -5.2265 0
M  V30 1282 O 165.995 0.035441 -5.69189 0
M  V30 1283 N 167.197 1.92071 -5.47804 0
M  V30 1284 H 169.962 -1.12492 -2.77787 0
M  V30 1285 H 167.523 -0.740105 -1.43993 0
M  V30 1286 H 169.515 1.15425 -3.87891 0
M  V30 1287 H 168.085 1.32647 -2.83061 0
M  V30 1288 H 167.305 -0.951466 -3.82545 0
M  V30 1289 H 168.593 -0.769262 -5.02951 0
M  V30 1290 H 167.991 2.4107 -5.11763 0
M  V30 1291 H 166.548 2.42508 -6.05007 0
M  V30 1292 N 169.982 1.44106 -0.638065 0
M  V30 1293 C 170.892 2.34513 0.0637334 0
M  V30 1294 C 171.908 1.53018 0.828346 0
M  V30 1295 O 173.084 1.85723 0.779036 0
M  V30 1296 C 170.149 3.31095 1.02844 0
M  V30 1297 C 169.21 4.28497 0.26244 0
M  V30 1298 C 168.443 5.20465 1.1812 0
M  V30 1299 O 168.666 5.16514 2.42011 0
M  V30 1300 O 167.6 5.98251 0.661774 0
M  V30 1301 H 171.426 2.95989 -0.68003 0
M  V30 1302 H 169.011 1.43994 -0.398252 0
M  V30 1303 H 170.893 3.90526 1.58327 0
M  V30 1304 H 169.568 2.72144 1.7527 0
M  V30 1305 H 168.475 3.72592 -0.335602 0
M  V30 1306 H 169.808 4.90388 -0.421936 0
M  V30 1307 N 171.46 0.379036 1.52974 0
M  V30 1308 C 172.706 -0.206727 2.01744 0
M  V30 1309 C 173.039 -1.47314 1.26539 0
M  V30 1310 O 172.314 -1.91084 0.362903 0
M  V30 1311 C 172.597 -0.485066 3.56818 0
M  V30 1312 C 172.45 0.795919 4.42702 0
M  V30 1313 C 173.769 -1.28003 4.21074 0
M  V30 1314 H 170.888 -0.0736607 0.73331 0
M  V30 1315 H 173.53 0.506581 1.83122 0
M  V30 1316 H 171.68 -1.09272 3.72816 0
M  V30 1317 H 173.352 1.43307 4.38476 0
M  V30 1318 H 171.595 1.41344 4.10127 0
M  V30 1319 H 172.266 0.555947 5.49193 0
M  V30 1320 H 174.742 -0.765867 4.08991 0
M  V30 1321 H 173.618 -1.44352 5.29579 0
M  V30 1322 H 173.879 -2.29236 3.78026 0
M  V30 1323 N 172.938 -1.57226 0.108567 0
M  V30 1324 C 173.901 -2.13602 -0.831082 0
M  V30 1325 C 174.901 -1.06841 -1.20173 0
M  V30 1326 O 176.091 -1.32666 -1.12895 0
M  V30 1327 C 173.223 -2.66769 -2.12243 0
M  V30 1328 H 174.416 -2.97951 -0.341317 0
M  V30 1329 H 171.969 -1.55667 -0.14057 0
M  V30 1330 H 172.704 -1.85977 -2.65675 0
M  V30 1331 H 172.489 -3.44839 -1.86625 0
M  V30 1332 H 173.979 -3.10332 -2.79435 0
M  V30 1333 N 174.416 0.165178 -1.56732 0
M  V30 1334 C 175.646 0.894919 -1.86212 0
M  V30 1335 C 176.054 1.76066 -0.692627 0
M  V30 1336 O 175.397 1.80387 0.347303 0
M  V30 1337 C 175.459 1.8174 -3.10179 0
M  V30 1338 C 175.123 1.13064 -4.42793 0
M  V30 1339 C 176.12 0.493169 -5.17556 0
M  V30 1340 C 173.805 1.12556 -4.89527 0
M  V30 1341 C 175.799 -0.140209 -6.37246 0
M  V30 1342 C 173.486 0.488366 -6.09145 0
M  V30 1343 C 174.484 -0.143411 -6.82849 0
M  V30 1344 O 174.172 -0.77055 -8.00199 0
M  V30 1345 H 173.904 0.265114 -0.621844 0
M  V30 1346 H 176.458 0.168242 -2.0471 0
M  V30 1347 H 174.688 2.58455 -2.87642 0
M  V30 1348 H 176.377 2.4175 -3.26055 0
M  V30 1349 H 177.143 0.489023 -4.82528 0
M  V30 1350 H 173.022 1.60672 -4.32094 0
M  V30 1351 H 176.566 -0.633932 -6.94714 0
M  V30 1352 H 172.463 0.490116 -6.43637 0
M  V30 1353 H 173.231 -0.670408 -8.1575 0
M  V30 1354 N 175.894 1.51508 0.433938 0
M  V30 1355 C 177.122 1.68157 1.20543 0
M  V30 1356 C 177.537 0.380362 1.84929 0
M  V30 1357 O 176.894 -0.641446 1.70856 0
M  V30 1358 C 176.945 2.79965 2.28696 0
M  V30 1359 O 176.666 4.05045 1.66943 0
M  V30 1360 C 178.167 3.07912 3.18912 0
M  V30 1361 H 175.387 0.56421 0.363191 0
M  V30 1362 H 177.931 1.97941 0.513754 0
M  V30 1363 H 176.086 2.5277 2.93574 0
M  V30 1364 H 176.5 4.67165 2.38448 0
M  V30 1365 H 177.974 3.89719 3.90926 0
M  V30 1366 H 178.451 2.20456 3.79863 0
M  V30 1367 H 179.057 3.36779 2.59731 0
M  V30 1368 N 177.372 -0.689602 1.41712 0
M  V30 1369 C 178.649 -1.44457 1.31877 0
M  V30 1370 C 179.029 -2.11039 -0.0508537 0
M  V30 1371 O 178.377 -2.02138 -1.06547 0
M  V30 1372 C 178.587 -2.45913 2.47645 0
M  V30 1373 C 179.935 -3.10991 2.89084 0
M  V30 1374 O 180.959 -2.56238 2.47428 0
M  V30 1375 O 179.818 -4.10174 3.61137 0
M  V30 1376 H 176.912 -0.64362 0.519309 0
M  V30 1377 H 179.458 -0.719576 1.53689 0
M  V30 1378 H 178.23 -1.95409 3.39015 0
M  V30 1379 H 177.853 -3.25913 2.27742 0
M  V30 1380 N 178.85 -1.27639 -0.924453 0
M  V30 1381 C 180.099 -1.13549 -1.66702 0
M  V30 1382 C 180.412 0.317487 -1.93006 0
M  V30 1383 O 181.618 0.579333 -2.65247 0
M  V30 1384 C 180.074 -1.98426 -3.00259 0
M  V30 1385 C 179.682 -3.484 -2.81641 0
M  V30 1386 C 181.426 -1.92993 -3.78092 0
M  V30 1387 C 179.333 -4.25464 -4.10773 0
M  V30 1388 H 178.263 -0.421351 -0.625283 0
M  V30 1389 H 180.914 -1.52085 -1.02676 0
M  V30 1390 H 179.296 -1.52736 -3.6536 0
M  V30 1391 H 180.47 -4.01973 -2.25287 0
M  V30 1392 H 178.785 -3.55245 -2.17232 0
M  V30 1393 H 181.382 -2.47844 -4.7379 0
M  V30 1394 H 181.725 -0.904281 -4.0636 0
M  V30 1395 H 182.258 -2.36595 -3.19793 0
M  V30 1396 H 178.997 -5.28566 -3.87683 0
M  V30 1397 H 178.517 -3.76667 -4.66779 0
M  V30 1398 H 180.196 -4.34812 -4.79111 0
M  V30 1399 N 180.328 1.1314 -1.09713 0
M  V30 1400 C 181.275 2.18642 -0.739196 0
M  V30 1401 C 182.245 1.63706 0.280978 0
M  V30 1402 O 183.43 1.90111 0.161946 0
M  V30 1403 C 180.57 3.44685 -0.169102 0
M  V30 1404 C 179.683 4.13711 -1.24367 0
M  V30 1405 C 178.818 5.27379 -0.636019 0
M  V30 1406 C 177.857 5.88259 -1.69169 0
M  V30 1407 N 176.994 6.93352 -1.10485 0
M  V30 1408 H 181.834 2.48607 -1.64312 0
M  V30 1409 H 179.371 1.22066 -0.820875 0
M  V30 1410 H 181.329 4.16815 0.179256 0
M  V30 1411 H 179.959 3.15161 0.698079 0
M  V30 1412 H 179.011 3.39835 -1.70927 0
M  V30 1413 H 180.323 4.55037 -2.04311 0
M  V30 1414 H 179.477 6.06238 -0.236677 0
M  V30 1415 H 178.216 4.8731 0.194928 0
M  V30 1416 H 177.221 5.08092 -2.10055 0
M  V30 1417 H 178.446 6.30399 -2.52536 0
M  V30 1418 H 176.392 6.55335 -0.295234 0
M  V30 1419 H 176.309 7.33236 -1.84121 0
M  V30 1420 H 177.577 7.76057 -0.73181 0
M  V30 1421 N 181.806 0.884767 1.30421 0
M  V30 1422 C 183.052 0.503851 1.96441 0
M  V30 1423 C 183.385 -0.944518 1.69684 0
M  V30 1424 O 182.66 -1.66737 1.00145 0
M  V30 1425 C 182.943 0.779085 3.51571 0
M  V30 1426 C 182.796 2.27807 3.87846 0
M  V30 1427 C 184.115 0.255452 4.39358 0
M  V30 1428 H 181.234 0.184533 0.713524 0
M  V30 1429 H 183.876 1.10872 1.54297 0
M  V30 1430 H 182.026 0.264274 3.876 0
M  V30 1431 H 183.698 2.86127 3.61841 0
M  V30 1432 H 181.941 2.74479 3.35922 0
M  V30 1433 H 182.612 2.42125 4.96064 0
M  V30 1434 H 185.088 0.696079 4.10236 0
M  V30 1435 H 183.964 0.477361 5.4682 0
M  V30 1436 H 184.225 -0.843293 4.33983 0
M  V30 1437 N 183.284 -1.43765 0.645699 0
M  V30 1438 C 184.533 -2.01116 0.153412 0
M  V30 1439 C 184.846 -1.51493 -1.23731 0
M  V30 1440 O 186.052 -2.01067 -1.8244 0
M  V30 1441 C 184.508 -3.59206 0.223473 0
M  V30 1442 C 184.116 -4.17823 1.61642 0
M  V30 1443 C 185.86 -4.23972 -0.211597 0
M  V30 1444 C 183.767 -5.68183 1.64081 0
M  V30 1445 H 182.697 -0.752093 0.0535891 0
M  V30 1446 H 185.348 -1.6482 0.806633 0
M  V30 1447 H 183.73 -3.92867 -0.497118 0
M  V30 1448 H 184.904 -3.95674 2.36176 0
M  V30 1449 H 183.219 -3.65399 1.99681 0
M  V30 1450 H 185.816 -5.34275 -0.213112 0
M  V30 1451 H 186.159 -3.97352 -1.24165 0
M  V30 1452 H 186.692 -3.95166 0.456988 0
M  V30 1453 H 183.431 -5.99559 2.64971 0
M  V30 1454 H 182.951 -5.9241 0.938611 0
M  V30 1455 H 184.63 -6.32085 1.3812 0
M  V30 1456 N 184.763 -0.387143 -1.52771 0
M  V30 1457 C 186.011 0.195349 -2.01154 0
M  V30 1458 C 186.332 1.475 -1.27549 0
M  V30 1459 O 185.602 1.91878 -0.394924 0
M  V30 1460 H 184.182 0.075178 -0.743207 0
M  V30 1461 H 186.844 -0.518337 -1.87881 0
M  V30 1462 H 185.94 0.407096 -3.09434 0
M  V30 1463 N 186.241 1.57166 -0.116904 0
M  V30 1464 C 187.189 2.16457 0.851418 0
M  V30 1465 C 188.183 1.11323 1.27686 0
M  V30 1466 O 189.389 1.2963 1.24884 0
M  V30 1467 H 185.764 0.69271 0.292672 0
M  V30 1468 H 187.735 2.96605 0.32685 0
M  V30 1469 C 186.484 2.77689 2.09246 0
M  V30 1470 H 185.807 3.58285 1.77402 0
M  V30 1471 H 187.247 3.22716 2.7501 0
M  V30 1472 C 185.706 1.74667 2.88085 0
M  V30 1473 O 186.236 1.19877 3.83396 0
M  V30 1474 N 184.442 1.44656 2.52038 0
M  V30 1475 H 183.989 1.89402 1.74599 0
M  V30 1476 H 183.947 0.759675 3.05084 0
M  V30 1477 N 187.719 -0.156864 1.56817 0
M  V30 1478 C 188.967 -0.869404 1.82444 0
M  V30 1479 C 189.288 -1.82147 0.69623 0
M  V30 1480 O 188.558 -1.93847 -0.28287 0
M  V30 1481 H 187.138 -0.324043 0.673056 0
M  V30 1482 H 189.8 -0.153224 1.94297 0
M  V30 1483 H 188.896 -1.43761 2.77019 0
M  V30 1484 N 189.197 -1.51736 -0.425897 0
M  V30 1485 C 190.422 -1.69082 -1.20108 0
M  V30 1486 C 190.847 -0.392398 -1.83962 0
M  V30 1487 O 190.205 0.64858 -1.69302 0
M  V30 1488 C 190.253 -2.81604 -2.25237 0
M  V30 1489 O 189.357 -2.46004 -3.30992 0
M  V30 1490 H 188.698 -0.563408 -0.35138 0
M  V30 1491 H 191.228 -1.98358 -0.501512 0
M  V30 1492 H 191.238 -3.06025 -2.69838 0
M  V30 1493 H 189.913 -3.75817 -1.78142 0
M  V30 1494 H 188.49 -2.32195 -2.91787 0
M  V30 1495 N 190.675 0.682077 -1.42076 0
M  V30 1496 C 191.922 1.44215 -1.42156 0
M  V30 1497 C 192.25 1.94468 -0.0354186 0
M  V30 1498 O 191.505 1.70816 0.955002 0
M  V30 1499 C 191.804 2.66036 -2.38662 0
M  V30 1500 C 191.47 2.34366 -3.85206 0
M  V30 1501 C 190.132 2.25439 -4.25124 0
M  V30 1502 C 192.484 2.08513 -4.77673 0
M  V30 1503 C 189.812 1.88775 -5.55501 0
M  V30 1504 C 192.164 1.73354 -6.08384 0
M  V30 1505 C 190.828 1.62933 -6.47309 0
M  V30 1506 H 190.098 0.527718 -0.520187 0
M  V30 1507 H 192.745 0.778387 -1.74967 0
M  V30 1508 H 191.05 3.3741 -1.99152 0
M  V30 1509 H 192.747 3.24205 -2.35991 0
M  V30 1510 H 189.337 2.42213 -3.53597 0
M  V30 1511 H 193.521 2.14346 -4.47626 0
M  V30 1512 H 188.777 1.7927 -5.84527 0
M  V30 1513 H 192.951 1.52373 -6.79526 0
M  V30 1514 H 190.578 1.34292 -7.48244 0
M  V30 1515 N 192.153 1.28127 0.917671 0
M  V30 1516 C 193.401 1.14825 1.66312 0
M  V30 1517 C 193.722 -0.304379 1.9261 0
M  V30 1518 O 192.992 -1.21149 1.53947 0
M  V30 1519 H 191.572 0.421953 0.616413 0
M  V30 1520 H 194.234 1.608 1.10134 0
M  V30 1521 H 193.33 1.68489 2.62712 0
M  V30 1522 N 193.631 -1.12557 1.10312 0
M  V30 1523 C 194.877 -1.84311 0.846011 0
M  V30 1524 C 195.21 -1.83805 -0.626859 0
M  V30 1525 O 194.485 -1.28268 -1.46211 0
M  V30 1526 C 194.768 -3.32048 1.39341 0
M  V30 1527 C 194.621 -3.41016 2.93305 0
M  V30 1528 C 195.94 -4.27764 1.03468 0
M  V30 1529 H 193.059 -0.669192 0.30879 0
M  V30 1530 H 195.701 -1.32057 1.36605 0
M  V30 1531 H 193.851 -3.76678 0.951087 0
M  V30 1532 H 195.523 -3.05031 3.46055 0
M  V30 1533 H 193.766 -2.81603 3.29973 0
M  V30 1534 H 194.437 -4.44948 3.26689 0
M  V30 1535 H 196.913 -3.91253 1.41633 0
M  V30 1536 H 195.789 -5.29549 1.44463 0
M  V30 1537 H 196.05 -4.42064 -0.0560404 0
M  V30 1538 N 195.109 -0.891671 -1.2995 0
M  V30 1539 C 196.355 -0.514261 -1.96171 0
M  V30 1540 C 196.688 0.935506 -1.70182 0
M  V30 1541 O 195.963 1.66204 -1.01028 0
M  V30 1542 C 196.246 -0.797719 -3.51153 0
M  V30 1543 C 196.099 -2.2986 -3.86632 0
M  V30 1544 C 197.418 -0.278749 -4.39216 0
M  V30 1545 H 194.537 -0.188314 -0.712535 0
M  V30 1546 H 197.179 -1.11689 -1.53706 0
M  V30 1547 H 195.329 -0.284826 -3.87455 0
M  V30 1548 H 197.001 -2.88042 -3.60319 0
M  V30 1549 H 195.244 -2.76257 -3.34462 0
M  V30 1550 H 195.915 -2.44753 -4.94773 0
M  V30 1551 H 198.391 -0.717825 -4.09862 0
M  V30 1552 H 197.267 -0.506353 -5.46559 0
M  V30 1553 H 197.528 0.820266 -4.34424 0
M  V30 1554 N 196.587 1.43421 -0.653314 0
M  V30 1555 C 197.817 2.05864 -0.174238 0
M  V30 1556 C 198.225 1.49052 1.16534 0
M  V30 1557 O 197.568 0.616481 1.73047 0
M  V30 1558 C 197.63 3.59499 -0.00875873 0
M  V30 1559 C 197.294 4.38893 -1.27364 0
M  V30 1560 C 198.291 4.70947 -2.20239 0
M  V30 1561 C 195.976 4.789 -1.51525 0
M  V30 1562 C 197.97 5.41916 -3.35568 0
M  V30 1563 C 195.657 5.49614 -2.67147 0
M  V30 1564 C 196.655 5.81044 -3.58994 0
M  V30 1565 O 196.343 6.50313 -4.72597 0
M  V30 1566 H 196.075 0.670345 -0.0872549 0
M  V30 1567 H 198.629 1.84913 -0.894226 0
M  V30 1568 H 196.859 3.79025 0.7666 0
M  V30 1569 H 198.548 4.0364 0.427687 0
M  V30 1570 H 199.314 4.40558 -2.02815 0
M  V30 1571 H 195.193 4.53843 -0.809158 0
M  V30 1572 H 198.737 5.66365 -4.07279 0
M  V30 1573 H 194.634 5.79419 -2.84505 0
M  V30 1574 H 195.402 6.68795 -4.71864 0
M  V30 1575 N 198.065 0.39524 1.52563 0
M  V30 1576 C 198.997 -0.472201 2.24283 0
M  V30 1577 C 200.01 -1.02178 1.26742 0
M  V30 1578 O 201.199 -0.923097 1.52778 0
M  V30 1579 C 198.299 -1.66775 2.95024 0
M  V30 1580 C 197.472 -1.2445 4.19322 0
M  V30 1581 C 196.531 -2.30539 4.7301 0
M  V30 1582 O 195.557 -1.91702 5.35947 0
M  V30 1583 N 196.759 -3.6253 4.53379 0
M  V30 1584 H 199.524 0.142282 2.99362 0
M  V30 1585 H 197.085 0.2219 1.60372 0
M  V30 1586 H 199.077 -2.37283 3.27839 0
M  V30 1587 H 197.647 -2.18845 2.23217 0
M  V30 1588 H 196.867 -0.368069 3.92478 0
M  V30 1589 H 198.155 -0.938457 5.0007 0
M  V30 1590 H 197.553 -3.96841 4.03154 0
M  V30 1591 H 196.11 -4.29055 4.90668 0
M  V30 1592 N 199.544 -1.57102 0.125237 0
M  V30 1593 C 200.507 -2.14471 -0.80838 0
M  V30 1594 C 201.507 -1.0811 -1.19033 0
M  V30 1595 O 202.697 -1.33856 -1.11482 0
M  V30 1596 C 199.829 -2.69005 -2.09402 0
M  V30 1597 H 201.022 -2.98297 -0.309696 0
M  V30 1598 H 198.575 -1.55807 -0.124051 0
M  V30 1599 H 199.31 -1.88785 -2.63687 0
M  V30 1600 H 199.095 -3.46799 -1.82957 0
M  V30 1601 H 200.585 -3.13278 -2.76128 0
M  V30 1602 N 201.022 0.148545 -1.56898 0
M  V30 1603 C 202.438 0.501131 -1.51528 0
M  V30 1604 C 202.638 1.83458 -0.833399 0
M  V30 1605 O 201.694 2.49259 -0.40328 0
M  V30 1606 C 203.007 0.512864 -2.96294 0
M  V30 1607 C 204.555 0.598487 -3.07225 0
M  V30 1608 C 205.03 0.640897 -4.53494 0
M  V30 1609 N 206.521 0.703163 -4.57832 0
M  V30 1610 C 207.256 0.756935 -5.68382 0
M  V30 1611 N 206.752 0.770147 -6.88506 0
M  V30 1612 N 208.545 0.797698 -5.56411 0
M  V30 1613 H 200.696 -0.725532 -1.99624 0
M  V30 1614 H 202.959 -0.264358 -0.910395 0
M  V30 1615 H 202.665 -0.398691 -3.49433 0
M  V30 1616 H 202.539 1.35133 -3.52163 0
M  V30 1617 H 204.926 1.50046 -2.54106 0
M  V30 1618 H 205.007 -0.267093 -2.54402 0
M  V30 1619 H 204.651 -0.256915 -5.0725 0
M  V30 1620 H 204.581 1.52295 -5.04097 0
M  V30 1621 H 207.072 0.700314 -3.71354 0
M  V30 1622 H 207.385 0.812983 -7.68512 0
M  V30 1623 H 205.73 0.738049 -6.9107 0
M  V30 1624 H 208.921 0.784535 -4.61479 0
M  V30 1625 H 209.094 0.83614 -6.42583 0
M  V30 1626 N 202.5 1.5196 0.417844 0
M  V30 1627 C 203.43 1.77634 1.51554 0
M  V30 1628 C 204.411 0.626918 1.58126 0
M  V30 1629 O 205.596 0.871632 1.7354 0
M  V30 1630 C 202.726 1.91911 2.8946 0
M  V30 1631 C 201.68 3.07463 2.97743 0
M  V30 1632 C 201.006 3.06951 4.37819 0
M  V30 1633 C 202.306 4.47082 2.70027 0
M  V30 1634 H 204 2.6955 1.3032 0
M  V30 1635 H 201.546 1.29706 0.625492 0
M  V30 1636 H 203.499 2.08455 3.6623 0
M  V30 1637 H 202.223 0.966598 3.11969 0
M  V30 1638 H 200.882 2.90656 2.23416 0
M  V30 1639 H 200.53 2.09438 4.57323 0
M  V30 1640 H 200.23 3.84556 4.44286 0
M  V30 1641 H 201.754 3.25613 5.16535 0
M  V30 1642 H 203.168 4.6414 3.36522 0
M  V30 1643 H 201.565 5.2654 2.87881 0
M  V30 1644 H 202.635 4.55777 1.65514 0
M  V30 1645 N 203.978 -0.674533 1.42435 0
M  V30 1646 C 204.941 -1.76986 1.45632 0
M  V30 1647 C 205.941 -1.5708 0.343871 0
M  V30 1648 O 207.131 -1.63367 0.604709 0
M  V30 1649 C 204.263 -3.15623 1.28822 0
M  V30 1650 H 205.456 -1.75539 2.43158 0
M  V30 1651 H 203.009 -0.884189 1.28887 0
M  V30 1652 H 203.744 -3.22696 0.322193 0
M  V30 1653 H 203.529 -3.31475 2.09444 0
M  V30 1654 H 205.019 -3.95537 1.33942 0
M  V30 1655 N 205.456 -1.28612 -0.910864 0
M  V30 1656 C 206.366 -1.14643 -2.0468 0
M  V30 1657 C 207.382 -0.0723121 -1.7385 0
M  V30 1658 O 208.558 -0.282178 -1.99413 0
M  V30 1659 C 205.623 -0.812561 -3.37044 0
M  V30 1660 C 204.684 -1.96935 -3.81465 0
M  V30 1661 C 203.917 -1.65131 -5.07511 0
M  V30 1662 O 204.14 -0.567013 -5.67575 0
M  V30 1663 O 203.074 -2.49585 -5.47714 0
M  V30 1664 H 206.9 -2.1001 -2.19384 0
M  V30 1665 H 204.485 -1.07958 -1.03274 0
M  V30 1666 H 206.367 -0.640441 -4.16505 0
M  V30 1667 H 205.042 0.111426 -3.23508 0
M  V30 1668 H 203.949 -2.19664 -3.02818 0
M  V30 1669 H 205.282 -2.87414 -3.99567 0
M  V30 1670 N 206.934 1.1197 -1.10907 0
M  V30 1671 C 208.162 1.87402 -0.876824 0
M  V30 1672 C 208.577 1.79894 0.573025 0
M  V30 1673 O 207.934 1.17629 1.39534 0
M  V30 1674 C 207.985 3.36428 -1.32282 0
M  V30 1675 O 207.706 3.43765 -2.71582 0
M  V30 1676 C 209.207 4.28783 -1.12518 0
M  V30 1677 H 206.427 0.592793 -0.314384 0
M  V30 1678 H 208.971 1.41649 -1.47499 0
M  V30 1679 H 207.126 3.79706 -0.768229 0
M  V30 1680 H 207.54 4.3652 -2.90776 0
M  V30 1681 H 209.014 5.31613 -1.48633 0
M  V30 1682 H 209.491 4.39153 -0.0642394 0
M  V30 1683 H 210.097 3.91291 -1.66648 0
M  V30 1684 N 208.412 0.89855 1.29475 0
M  V30 1685 C 209.828 0.594483 1.48115 0
M  V30 1686 C 210.028 -0.86431 1.82022 0
M  V30 1687 O 209.084 -1.64457 1.91599 0
M  V30 1688 C 210.397 1.51932 2.59494 0
M  V30 1689 C 211.945 1.5244 2.7337 0
M  V30 1690 C 212.42 2.43548 3.87877 0
M  V30 1691 N 213.911 2.41589 3.95208 0
M  V30 1692 C 214.646 3.08789 4.83153 0
M  V30 1693 N 214.142 3.85265 5.75798 0
M  V30 1694 N 215.935 2.97952 4.76635 0
M  V30 1695 H 208.086 1.84207 1.05742 0
M  V30 1696 H 210.349 0.789251 0.525154 0
M  V30 1697 H 210.055 2.55865 2.41301 0
M  V30 1698 H 209.929 1.23899 3.56271 0
M  V30 1699 H 212.316 0.492518 2.90961 0
M  V30 1700 H 212.397 1.8451 1.77172 0
M  V30 1701 H 212.041 3.46829 3.71041 0
M  V30 1702 H 211.971 2.08788 4.83441 0
M  V30 1703 H 214.462 1.86025 3.28943 0
M  V30 1704 H 214.775 4.33598 6.39697 0
M  V30 1705 H 213.12 3.89371 5.75687 0
M  V30 1706 H 216.311 2.37723 4.03244 0
M  V30 1707 H 216.484 3.50599 5.44962 0
M  V30 1708 N 209.89 -1.43072 0.660911 0
M  V30 1709 C 210.8 -2.34585 -0.0264163 0
M  V30 1710 C 211.816 -1.54316 -0.803898 0
M  V30 1711 O 212.992 -1.86939 -0.749391 0
M  V30 1712 C 210.057 -3.32689 -0.975639 0
M  V30 1713 C 209.118 -4.2886 -0.194236 0
M  V30 1714 C 208.351 -5.22278 -1.09825 0
M  V30 1715 O 208.574 -5.20299 -2.33763 0
M  V30 1716 O 207.508 -5.99228 -0.566513 0
M  V30 1717 H 211.334 -2.94869 0.727034 0
M  V30 1718 H 208.919 -1.43342 0.42111 0
M  V30 1719 H 210.801 -3.92995 -1.52094 0
M  V30 1720 H 209.476 -2.74898 -1.70918 0
M  V30 1721 H 208.383 -3.72011 0.394835 0
M  V30 1722 H 209.716 -4.89655 0.499899 0
M  V30 1723 N 211.368 -0.403325 -1.52352 0
M  V30 1724 C 212.298 0.416205 -2.29761 0
M  V30 1725 C 213.279 1.05123 -1.33728 0
M  V30 1726 O 214.464 1.06134 -1.62632 0
M  V30 1727 C 211.594 1.53624 -3.11475 0
M  V30 1728 C 210.548 1.02653 -4.15507 0
M  V30 1729 C 209.874 2.23971 -4.85532 0
M  V30 1730 C 211.174 0.08463 -5.22231 0
M  V30 1731 H 212.868 -0.229701 -2.98518 0
M  V30 1732 H 210.414 -0.111913 -1.43564 0
M  V30 1733 H 212.367 2.1165 -3.64393 0
M  V30 1734 H 211.091 2.20994 -2.40477 0
M  V30 1735 H 209.75 0.46871 -3.63591 0
M  V30 1736 H 209.398 2.89883 -4.11068 0
M  V30 1737 H 209.098 1.90521 -5.55856 0
M  V30 1738 H 210.622 2.82614 -5.41259 0
M  V30 1739 H 212.036 0.573509 -5.70424 0
M  V30 1740 H 210.433 -0.160783 -5.99885 0
M  V30 1741 H 211.503 -0.86237 -4.7717 0
M  V30 1742 N 212.846 1.57033 -0.133567 0
M  V30 1743 C 214.092 1.95976 0.521649 0
M  V30 1744 C 214.425 1.01779 1.65393 0
M  V30 1745 O 213.7 0.0576581 1.94415 0
M  V30 1746 C 213.983 3.44738 1.04057 0
M  V30 1747 C 213.836 4.49711 -0.0892897 0
M  V30 1748 C 215.155 3.95682 1.92675 0
M  V30 1749 H 212.274 0.712579 0.188149 0
M  V30 1750 H 214.916 1.88813 -0.212076 0
M  V30 1751 H 213.066 3.50973 1.66583 0
M  V30 1752 H 214.738 4.55565 -0.725152 0
M  V30 1753 H 212.981 4.27261 -0.750378 0
M  V30 1754 H 213.652 5.51099 0.315284 0
M  V30 1755 H 216.128 3.91841 1.39998 0
M  V30 1756 H 215.004 5.00262 2.25897 0
M  V30 1757 H 215.265 3.37239 2.85872 0
M  V30 1758 N 214.325 -0.140222 1.56975 0
M  V30 1759 C 215.288 -1.15689 1.97861 0
M  V30 1760 C 216.288 -1.3549 0.865974 0
M  V30 1761 O 217.478 -1.32367 1.13246 0
M  V30 1762 C 214.61 -2.51582 2.30042 0
M  V30 1763 H 215.803 -0.805971 2.88867 0
M  V30 1764 H 213.356 -0.383801 1.51515 0
M  V30 1765 H 214.091 -2.91632 1.41849 0
M  V30 1766 H 213.876 -2.38569 3.11171 0
M  V30 1767 H 215.366 -3.24792 2.62488 0
M  V30 1768 N 215.803 -1.52179 -0.40978 0
M  V30 1769 C 217.052 -1.65434 -1.15388 0
M  V30 1770 C 217.365 -0.390056 -1.91671 0
M  V30 1771 O 218.571 -0.402399 -2.68501 0
M  V30 1772 C 217.027 -2.92279 -2.10003 0
M  V30 1773 C 216.635 -4.25813 -1.39239 0
M  V30 1774 C 218.379 -3.14897 -2.84675 0
M  V30 1775 C 216.286 -5.43782 -2.32498 0
M  V30 1776 H 215.216 -0.616267 -0.434432 0
M  V30 1777 H 217.867 -1.78666 -0.418401 0
M  V30 1778 H 216.249 -2.72744 -2.871 0
M  V30 1779 H 217.423 -4.55828 -0.675099 0
M  V30 1780 H 215.738 -4.09292 -0.766097 0
M  V30 1781 H 218.335 -4.0021 -3.54593 0
M  V30 1782 H 218.678 -2.29103 -3.47588 0
M  V30 1783 H 219.211 -3.34901 -2.14677 0
M  V30 1784 H 215.95 -6.3192 -1.74233 0
M  V30 1785 H 215.47 -5.18106 -3.02201 0
M  V30 1786 H 217.149 -5.76834 -2.93038 0
M  V30 1787 N 217.281 0.66697 -1.42791 0
M  V30 1788 C 218.228 1.7803 -1.4688 0
M  V30 1789 C 219.198 1.6299 -0.319919 0
M  V30 1790 O 220.383 1.83432 -0.525118 0
M  V30 1791 C 217.523 3.1611 -1.38451 0
M  V30 1792 C 216.636 3.42381 -2.63437 0
M  V30 1793 C 215.771 4.70232 -2.47094 0
M  V30 1794 C 214.81 4.89564 -3.67415 0
M  V30 1795 N 213.947 6.08661 -3.49966 0
M  V30 1796 H 218.787 1.7387 -2.42019 0
M  V30 1797 H 216.324 0.84868 -1.20149 0
M  V30 1798 H 218.282 3.95914 -1.31561 0
M  V30 1799 H 216.912 3.19374 -0.469033 0
M  V30 1800 H 215.964 2.56774 -2.80662 0
M  V30 1801 H 217.276 3.52557 -3.52853 0
M  V30 1802 H 216.43 5.5814 -2.37834 0
M  V30 1803 H 215.169 4.62353 -1.5518 0
M  V30 1804 H 214.174 4.00096 -3.77099 0
M  V30 1805 H 215.399 4.99282 -4.6032 0
M  V30 1806 H 213.345 6.0194 -2.60776 0
M  V30 1807 H 213.262 6.19733 -4.32975 0
M  V30 1808 H 214.53 6.99226 -3.44532 0
M  V30 1809 N 218.759 1.29093 0.90403 0
M  V30 1810 C 219.706 1.13853 2.00764 0
M  V30 1811 C 220.676 0.0330084 1.66067 0
M  V30 1812 O 221.861 0.199733 1.89752 0
M  V30 1813 C 219.001 0.816537 3.35301 0
M  V30 1814 C 218.114 2.00206 3.82807 0
M  V30 1815 C 217.249 1.61983 5.059 0
M  V30 1816 C 216.288 2.77143 5.45764 0
M  V30 1817 N 215.425 2.39346 6.60044 0
M  V30 1818 H 220.265 2.08276 2.13132 0
M  V30 1819 H 217.802 1.03648 1.04381 0
M  V30 1820 H 219.76 0.610557 4.12708 0
M  V30 1821 H 218.39 -0.090779 3.22672 0
M  V30 1822 H 217.442 2.31988 3.01473 0
M  V30 1823 H 218.754 2.86512 4.08304 0
M  V30 1824 H 217.908 1.37649 5.90879 0
M  V30 1825 H 216.647 0.728202 4.82233 0
M  V30 1826 H 215.652 3.02165 4.59322 0
M  V30 1827 H 216.877 3.66964 5.71414 0
M  V30 1828 H 214.823 1.52665 6.37989 0
M  V30 1829 H 214.74 3.19185 6.85315 0
M  V30 1830 H 216.008 2.1832 7.48303 0
M  V30 1831 N 220.237 -1.11381 1.11499 0
M  V30 1832 C 221.483 -1.83403 0.865512 0
M  V30 1833 C 221.816 -1.84459 -0.607329 0
M  V30 1834 O 221.091 -1.29811 -1.44842 0
M  V30 1835 C 221.374 -3.30552 1.42855 0
M  V30 1836 C 221.227 -3.37886 2.96906 0
M  V30 1837 C 222.546 -4.26643 1.08 0
M  V30 1838 H 219.665 -0.665879 0.31587 0
M  V30 1839 H 222.307 -1.30601 1.37998 0
M  V30 1840 H 220.457 -3.75648 0.990985 0
M  V30 1841 H 222.129 -3.01343 3.49271 0
M  V30 1842 H 220.372 -2.78088 3.32941 0
M  V30 1843 H 221.043 -4.41458 3.31389 0
M  V30 1844 H 223.519 -3.89729 1.45775 0
M  V30 1845 H 222.395 -5.27986 1.50072 0
M  V30 1846 H 222.656 -4.42099 -0.00915037 0
M  V30 1847 N 221.715 -0.905404 -1.28997 0
M  V30 1848 C 222.645 -0.404212 -2.29975 0
M  V30 1849 C 223.626 0.523784 -1.61835 0
M  V30 1850 O 224.811 0.433298 -1.89304 0
M  V30 1851 C 221.941 0.364042 -3.45387 0
M  V30 1852 C 220.895 -0.474048 -4.25367 0
M  V30 1853 C 220.221 0.422045 -5.33032 0
M  V30 1854 C 221.521 -1.72696 -4.92923 0
M  V30 1855 H 223.215 -1.24807 -2.72146 0
M  V30 1856 H 220.761 -0.601585 -1.30832 0
M  V30 1857 H 222.714 0.725447 -4.15109 0
M  V30 1858 H 221.438 1.24174 -3.02074 0
M  V30 1859 H 220.097 -0.81786 -3.57361 0
M  V30 1860 H 219.745 1.29804 -4.85963 0
M  V30 1861 H 219.445 -0.135057 -5.87445 0
M  V30 1862 H 220.969 0.779517 -6.05604 0
M  V30 1863 H 222.383 -1.43495 -5.55051 0
M  V30 1864 H 220.78 -2.22582 -5.57295 0
M  V30 1865 H 221.85 -2.45964 -4.17887 0
M  V30 1866 N 223.193 1.4272 -0.668489 0
M  V30 1867 C 224.125 2.2914 0.052613 0
M  V30 1868 C 225.138 1.43339 0.771857 0
M  V30 1869 O 226.327 1.67123 0.627067 0
M  V30 1870 C 223.427 3.20618 1.09804 0
M  V30 1871 C 222.6 4.35039 0.45389 0
M  V30 1872 C 221.659 5.07282 1.39825 0
M  V30 1873 O 220.685 5.62024 0.900978 0
M  V30 1874 N 221.887 5.12206 2.73176 0
M  V30 1875 H 224.652 2.91668 -0.689209 0
M  V30 1876 H 222.213 1.53577 -0.512422 0
M  V30 1877 H 224.205 3.65815 1.73094 0
M  V30 1878 H 222.775 2.59585 1.74167 0
M  V30 1879 H 221.995 3.92567 -0.358396 0
M  V30 1880 H 223.283 5.088 0.00486972 0
M  V30 1881 H 222.681 4.6913 3.16122 0
M  V30 1882 H 221.238 5.61069 3.31729 0
M  V30 1883 N 224.671 0.411399 1.52136 0
M  V30 1884 C 225.948 -0.222308 1.94333 0
M  V30 1885 C 226.328 -1.6242 1.34844 0
M  V30 1886 O 225.676 -2.22384 0.525145 0
M  V30 1887 C 225.886 -0.226345 3.48265 0
M  V30 1888 C 227.234 -0.444592 4.22266 0
M  V30 1889 O 228.258 -0.305602 3.54887 0
M  V30 1890 O 227.117 -0.718749 5.41753 0
M  V30 1891 H 224.211 -0.143907 0.814383 0
M  V30 1892 H 226.757 0.467506 1.63133 0
M  V30 1893 H 225.529 0.75475 3.83952 0
M  V30 1894 H 225.152 -0.960163 3.85832 0
M  V30 1895 N 226.149 -1.5696 0.141893 0
M  V30 1896 C 227.096 -2.16501 -0.799737 0
M  V30 1897 C 228.066 -1.09643 -1.24771 0
M  V30 1898 O 229.251 -1.3766 -1.32115 0
M  V30 1899 C 226.391 -2.78679 -2.03549 0
M  V30 1900 C 225.504 -3.99914 -1.6338 0
M  V30 1901 C 224.639 -4.50106 -2.82096 0
M  V30 1902 C 223.678 -5.63819 -2.38275 0
M  V30 1903 N 222.815 -6.08651 -3.49983 0
M  V30 1904 H 227.655 -2.96632 -0.285179 0
M  V30 1905 H 225.192 -1.46533 -0.129053 0
M  V30 1906 H 227.15 -3.1287 -2.75986 0
M  V30 1907 H 225.78 -2.012 -2.52425 0
M  V30 1908 H 224.832 -3.71735 -0.807279 0
M  V30 1909 H 226.144 -4.82311 -1.27192 0
M  V30 1910 H 225.298 -4.86325 -3.62729 0
M  V30 1911 H 224.037 -3.66706 -3.21525 0
M  V30 1912 H 223.042 -5.2718 -1.56081 0
M  V30 1913 H 224.267 -6.49 -1.99938 0
M  V30 1914 H 222.213 -5.28188 -3.89042 0
M  V30 1915 H 222.13 -6.85961 -3.17794 0
M  V30 1916 H 223.398 -6.49515 -4.30988 0
M  V30 1917 N 227.627 0.131896 -1.57047 0
M  V30 1918 C 229.043 0.485031 -1.52051 0
M  V30 1919 C 229.243 1.82563 -0.85281 0
M  V30 1920 O 228.299 2.48817 -0.429694 0
M  V30 1921 C 229.612 0.481409 -2.96821 0
M  V30 1922 C 231.16 0.565868 -3.07842 0
M  V30 1923 C 231.635 0.592762 -4.54148 0
M  V30 1924 N 233.126 0.654564 -4.58552 0
M  V30 1925 C 233.861 0.696608 -5.69153 0
M  V30 1926 N 233.357 0.697078 -6.89284 0
M  V30 1927 N 235.15 0.738639 -5.57226 0
M  V30 1928 H 227.301 -0.746664 -1.98843 0
M  V30 1929 H 229.564 -0.273999 -0.90754 0
M  V30 1930 H 229.27 -0.435731 -3.4899 0
M  V30 1931 H 229.144 1.3139 -3.53577 0
M  V30 1932 H 231.531 1.47343 -2.55684 0
M  V30 1933 H 231.612 -0.29406 -2.54104 0
M  V30 1934 H 231.256 -0.310701 -5.06949 0
M  V30 1935 H 231.186 1.46939 -5.05684 0
M  V30 1936 H 233.677 0.660887 -3.72076 0
M  V30 1937 H 233.99 0.731426 -7.69331 0
M  V30 1938 H 232.335 0.66471 -6.91814 0
M  V30 1939 H 235.526 0.735545 -4.62285 0
M  V30 1940 H 235.699 0.767938 -6.43434 0
M  V30 1941 N 229.106 1.52395 0.401703 0
M  V30 1942 C 230.353 1.66817 1.14796 0
M  V30 1943 C 230.681 0.401772 1.90305 0
M  V30 1944 O 229.936 -0.615487 1.85769 0
M  V30 1945 C 230.235 2.84578 2.16217 0
M  V30 1946 C 229.901 4.22513 1.5746 0
M  V30 1947 C 228.563 4.60029 1.41161 0
M  V30 1948 C 230.915 5.0844 1.14622 0
M  V30 1949 C 228.243 5.81144 0.80552 0
M  V30 1950 C 230.595 6.30167 0.55428 0
M  V30 1951 C 229.259 6.66426 0.378482 0
M  V30 1952 H 228.529 0.610428 0.420069 0
M  V30 1953 H 231.176 1.86512 0.434212 0
M  V30 1954 H 229.481 2.59248 2.93764 0
M  V30 1955 H 231.178 2.92933 2.73845 0
M  V30 1956 H 227.768 3.92953 1.71132 0
M  V30 1957 H 231.952 4.80034 1.26021 0
M  V30 1958 H 227.208 6.07855 0.657399 0
M  V30 1959 H 231.382 6.96071 0.213983 0
M  V30 1960 H 229.009 7.60143 -0.0932606 0
M  V30 1961 N 230.584 -0.659388 1.43143 0
M  V30 1962 C 231.531 -1.77249 1.47822 0
M  V30 1963 C 232.501 -1.62818 0.328558 0
M  V30 1964 O 233.686 -1.83151 0.534838 0
M  V30 1965 C 230.826 -3.15371 1.40126 0
M  V30 1966 C 229.939 -3.4098 2.65249 0
M  V30 1967 C 229.074 -4.68915 2.49584 0
M  V30 1968 C 228.113 -4.87608 3.70006 0
M  V30 1969 N 227.25 -6.06796 3.53189 0
M  V30 1970 H 232.09 -1.72584 2.42938 0
M  V30 1971 H 229.627 -0.842297 1.20598 0
M  V30 1972 H 231.585 -3.9521 1.33659 0
M  V30 1973 H 230.215 -3.19121 0.485964 0
M  V30 1974 H 229.267 -2.55282 2.8202 0
M  V30 1975 H 230.579 -3.50681 3.54717 0
M  V30 1976 H 229.733 -5.56871 2.4079 0
M  V30 1977 H 228.472 -4.61524 1.5763 0
M  V30 1978 H 227.477 -3.9809 3.79215 0
M  V30 1979 H 228.702 -4.96834 4.62961 0
M  V30 1980 H 226.648 -6.00549 2.63965 0
M  V30 1981 H 226.565 -6.17428 4.36255 0
M  V30 1982 H 227.833 -6.9739 3.48236 0
M  V30 1983 N 232.062 -1.29571 -0.897171 0
M  V30 1984 C 233.01 -1.14802 -2.02295 0
M  V30 1985 C 234.004 -0.0629637 -1.69283 0
M  V30 1986 O 235.21 -0.222945 -1.78614 0
M  V30 1987 H 231.585 -0.354692 -0.663097 0
M  V30 1988 H 233.556 -2.10108 -2.11889 0
M  V30 1989 C 232.305 -0.843966 -3.37302 0
M  V30 1990 H 231.628 -1.67093 -3.63208 0
M  V30 1991 H 233.068 -0.780672 -4.16751 0
M  V30 1992 C 231.527 0.452843 -3.33843 0
M  V30 1993 O 232.057 1.47813 -3.73516 0
M  V30 1994 N 230.263 0.459601 -2.86943 0
M  V30 1995 H 229.81 -0.375213 -2.54853 0
M  V30 1996 H 229.768 1.32726 -2.85011 0
M  V30 1997 N 233.54 1.10788 -1.12088 0
M  V30 1998 C 234.956 1.34691 -0.856186 0
M  V30 1999 C 235.156 1.94791 0.515615 0
M  V30 2000 O 234.212 2.18524 1.26505 0
M  V30 2001 C 235.525 2.27208 -1.9697 0
M  V30 2002 C 237.073 2.40755 -2.00016 0
M  V30 2003 C 237.548 3.36598 -3.1059 0
M  V30 2004 N 239.039 3.44164 -3.10008 0
M  V30 2005 C 239.774 4.18284 -3.92206 0
M  V30 2006 N 239.27 4.95322 -4.84384 0
M  V30 2007 N 241.063 4.13865 -3.80357 0
M  V30 2008 H 233.214 0.70144 -2.00483 0
M  V30 2009 H 235.477 0.371405 -0.872217 0
M  V30 2010 H 235.183 1.90251 -2.958 0
M  V30 2011 H 235.057 3.27485 -1.87172 0
M  V30 2012 H 237.444 2.76982 -1.01808 0
M  V30 2013 H 237.525 1.40305 -2.13888 0
M  V30 2014 H 237.169 3.01096 -4.09028 0
M  V30 2015 H 237.099 4.36918 -2.93956 0
M  V30 2016 H 239.59 2.8922 -2.43228 0
M  V30 2017 H 239.903 5.49267 -5.43623 0
M  V30 2018 H 238.248 4.94459 -4.884 0
M  V30 2019 H 241.439 3.52773 -3.07683 0
M  V30 2020 H 241.612 4.71372 -4.44649 0
M  V30 2021 N 235.018 0.912232 1.28515 0
M  V30 2022 C 235.928 0.404506 2.31086 0
M  V30 2023 C 236.944 -0.50707 1.66448 0
M  V30 2024 O 238.12 -0.393624 1.97516 0
M  V30 2025 C 235.185 -0.348572 3.44943 0
M  V30 2026 C 234.246 0.59604 4.25142 0
M  V30 2027 C 233.479 -0.121194 5.33562 0
M  V30 2028 O 233.702 -1.34317 5.5436 0
M  V30 2029 O 232.636 0.542716 5.99448 0
M  V30 2030 H 236.462 1.25579 2.76521 0
M  V30 2031 H 234.047 0.676998 1.33181 0
M  V30 2032 H 235.929 -0.77395 4.14232 0
M  V30 2033 H 234.604 -1.17571 3.01594 0
M  V30 2034 H 233.511 1.07079 3.58448 0
M  V30 2035 H 234.844 1.38995 4.72167 0
M  V30 2036 N 236.496 -1.42363 0.676048 0
M  V30 2037 C 237.426 -2.33497 0.0124832 0
M  V30 2038 C 238.407 -1.50748 -0.787981 0
M  V30 2039 O 239.592 -1.79346 -0.744884 0
M  V30 2040 C 236.722 -3.34377 -0.938582 0
M  V30 2041 C 235.676 -4.27289 -0.246622 0
M  V30 2042 C 235.002 -5.18386 -1.31071 0
M  V30 2043 C 236.302 -5.14916 0.875125 0
M  V30 2044 H 237.996 -2.89233 0.773593 0
M  V30 2045 H 235.542 -1.39073 0.37346 0
M  V30 2046 H 237.495 -3.97044 -1.41188 0
M  V30 2047 H 236.219 -2.76947 -1.73113 0
M  V30 2048 H 234.878 -3.66018 0.206456 0
M  V30 2049 H 234.526 -4.57282 -2.09528 0
M  V30 2050 H 234.226 -5.81378 -0.852839 0
M  V30 2051 H 235.75 -5.83929 -1.78492 0
M  V30 2052 H 237.164 -5.71262 0.482983 0
M  V30 2053 H 235.561 -5.86747 1.25887 0
M  V30 2054 H 236.631 -4.53242 1.72335 0
M  V30 2055 N 237.974 -0.419461 -1.51915 0
M  V30 2056 C 238.906 0.43646 -2.25006 0
M  V30 2057 C 239.919 1.00149 -1.28351 0
M  V30 2058 O 241.108 0.898674 -1.54227 0
M  V30 2059 C 238.208 1.6206 -2.9764 0
M  V30 2060 C 237.381 1.17763 -4.21249 0
M  V30 2061 C 236.44 2.22985 -4.76617 0
M  V30 2062 O 235.466 1.83151 -5.38929 0
M  V30 2063 N 236.668 3.55271 -4.59089 0
M  V30 2064 H 239.433 -0.18989 -2.99098 0
M  V30 2065 H 236.994 -0.247386 -1.59999 0
M  V30 2066 H 238.986 2.32038 -3.31573 0
M  V30 2067 H 237.556 2.15266 -2.2667 0
M  V30 2068 H 236.776 0.305582 -3.93014 0
M  V30 2069 H 238.064 0.858781 -5.015 0
M  V30 2070 H 237.462 3.90377 -4.09417 0
M  V30 2071 H 236.019 4.21195 -4.97432 0
M  V30 2072 N 239.452 1.56882 -0.150215 0
M  V30 2073 C 240.701 1.95403 0.500071 0
M  V30 2074 C 241.014 1.03777 1.658 0
M  V30 2075 O 242.22 1.31889 2.37313 0
M  V30 2076 C 240.676 3.4738 0.941018 0
M  V30 2077 C 240.284 4.47596 -0.190158 0
M  V30 2078 C 242.028 3.9476 1.56091 0
M  V30 2079 C 239.935 5.90787 0.269237 0
M  V30 2080 H 238.865 0.729515 0.190588 0
M  V30 2081 H 241.516 1.81988 -0.235074 0
M  V30 2082 H 239.898 3.56138 1.73152 0
M  V30 2083 H 241.072 4.50536 -0.967157 0
M  V30 2084 H 239.387 4.10151 -0.718666 0
M  V30 2085 H 241.984 4.99181 1.9163 0
M  V30 2086 H 242.327 3.36494 2.45107 0
M  V30 2087 H 242.86 3.88932 0.835249 0
M  V30 2088 H 239.599 6.52879 -0.585621 0
M  V30 2089 H 239.119 5.912 1.01204 0
M  V30 2090 H 240.798 6.42979 0.720176 0
M  V30 2091 N 240.93 -0.123565 1.57115 0
M  V30 2092 C 241.863 -1.18202 1.95201 0
M  V30 2093 C 242.841 -1.40349 0.821031 0
M  V30 2094 O 244.025 -1.54578 1.07879 0
M  V30 2095 C 241.152 -2.53671 2.24429 0
M  V30 2096 C 240.198 -2.4798 3.46999 0
M  V30 2097 S 241.031 -1.92389 4.99747 0
M  V30 2098 C 242.187 -3.2954 5.32123 0
M  V30 2099 H 242.42 -0.857212 2.84674 0
M  V30 2100 H 239.953 -0.33014 1.50829 0
M  V30 2101 H 241.911 -3.3162 2.41947 0
M  V30 2102 H 240.572 -2.83332 1.35579 0
M  V30 2103 H 239.765 -3.47758 3.64801 0
M  V30 2104 H 239.367 -1.7815 3.28844 0
M  V30 2105 H 241.659 -4.25736 5.27025 0
M  V30 2106 H 242.602 -3.16569 6.33395 0
M  V30 2107 H 243.01 -3.27758 4.59603 0
M  V30 2108 N 242.408 -1.52605 -0.393616 0
M  V30 2109 C 243.824 -1.41753 -0.733357 0
M  V30 2110 C 244.024 -0.534293 -1.94287 0
M  V30 2111 O 243.08 -0.0059787 -2.52499 0
M  V30 2112 C 244.393 -2.84531 -0.972772 0
M  V30 2113 C 245.941 -2.93978 -1.07453 0
M  V30 2114 C 246.416 -4.37756 -1.3466 0
M  V30 2115 N 247.907 -4.4106 -1.41492 0
M  V30 2116 C 248.642 -5.49387 -1.642 0
M  V30 2117 N 248.138 -6.67806 -1.8441 0
M  V30 2118 N 249.931 -5.36923 -1.66342 0
M  V30 2119 H 242.082 -2.08555 0.402328 0
M  V30 2120 H 244.345 -0.940654 0.117789 0
M  V30 2121 H 244.051 -3.51353 -0.156204 0
M  V30 2122 H 243.925 -3.26508 -1.88871 0
M  V30 2123 H 246.312 -2.27326 -1.88167 0
M  V30 2124 H 246.393 -2.55435 -0.136605 0
M  V30 2125 H 246.037 -5.04972 -0.544581 0
M  V30 2126 H 245.967 -4.73848 -2.2973 0
M  V30 2127 H 248.458 -3.55705 -1.27601 0
M  V30 2128 H 248.771 -7.46141 -2.01231 0
M  V30 2129 H 247.116 -6.70843 -1.81644 0
M  V30 2130 H 250.307 -4.43381 -1.50102 0
M  V30 2131 H 250.48 -6.21416 -1.837 0
M  V30 2132 N 243.887 0.651787 -1.4349 0
M  V30 2133 C 244.834 1.76462 -1.4876 0
M  V30 2134 C 245.804 1.62641 -0.337189 0
M  V30 2135 O 246.989 1.82864 -0.544544 0
M  V30 2136 C 244.129 3.14623 -1.41796 0
M  V30 2137 C 243.242 3.39568 -2.67053 0
M  V30 2138 C 242.377 4.67585 -2.52068 0
M  V30 2139 C 241.416 4.85639 -3.72587 0
M  V30 2140 N 240.553 6.04915 -3.56402 0
M  V30 2141 H 245.393 1.71293 -2.43849 0
M  V30 2142 H 242.93 0.835889 -1.21043 0
M  V30 2143 H 244.888 3.94496 -1.35753 0
M  V30 2144 H 243.518 3.18859 -0.50288 0
M  V30 2145 H 242.57 2.53783 -2.8337 0
M  V30 2146 H 243.882 3.48795 -3.56572 0
M  V30 2147 H 243.036 5.55586 -2.4374 0
M  V30 2148 H 241.775 4.60681 -1.60075 0
M  V30 2149 H 240.78 3.96073 -3.81321 0
M  V30 2150 H 242.005 4.94372 -4.65589 0
M  V30 2151 H 239.951 5.9914 -2.67146 0
M  V30 2152 H 239.868 6.15106 -4.39524 0
M  V30 2153 H 241.136 6.95533 -3.51929 0
M  V30 2154 N 245.365 1.30045 0.890287 0
M  V30 2155 C 246.295 1.18541 2.01172 0
M  V30 2156 C 247.276 0.0773356 1.69924 0
M  V30 2157 O 248.461 0.25845 1.92473 0
M  V30 2158 C 245.591 0.870941 3.36202 0
M  V30 2159 C 244.545 1.93637 3.81692 0
M  V30 2160 C 243.871 1.475 5.13953 0
M  V30 2161 C 245.171 3.34666 4.00994 0
M  V30 2162 H 246.865 2.12359 2.11054 0
M  V30 2163 H 244.411 1.02238 1.01407 0
M  V30 2164 H 246.364 0.777141 4.14172 0
M  V30 2165 H 245.088 -0.102926 3.26438 0
M  V30 2166 H 243.747 2.01972 3.05946 0
M  V30 2167 H 243.395 0.489551 5.00612 0
M  V30 2168 H 243.095 2.1876 5.4536 0
M  V30 2169 H 244.619 1.39489 5.94454 0
M  V30 2170 H 246.033 3.2912 4.69417 0
M  V30 2171 H 244.43 4.03966 4.43769 0
M  V30 2172 H 245.5 3.76949 3.05021 0
M  V30 2173 N 246.843 -1.10192 1.12674 0
M  V30 2174 C 248.12 -1.78717 0.794965 0
M  V30 2175 C 248.5 -1.98628 -0.714853 0
M  V30 2176 O 247.848 -1.58135 -1.64941 0
M  V30 2177 C 248.058 -3.11546 1.5729 0
M  V30 2178 C 249.406 -3.86382 1.76052 0
M  V30 2179 O 250.43 -3.21274 1.53823 0
M  V30 2180 O 249.289 -5.03246 2.13087 0
M  V30 2181 H 246.383 -0.774702 0.289423 0
M  V30 2182 H 248.929 -1.16819 1.23091 0
M  V30 2183 H 247.701 -2.92489 2.59935 0
M  V30 2184 H 247.324 -3.81164 1.13137 0
M  V30 2185 N 248.321 -0.919034 -1.28029 0
M  V30 2186 C 249.271 -0.382574 -2.24767 0
M  V30 2187 C 250.255 0.508286 -1.52661 0
M  V30 2188 O 251.447 0.347145 -1.73562 0
M  V30 2189 C 248.576 0.371432 -3.41285 0
M  V30 2190 C 247.662 -0.535449 -4.20706 0
M  V30 2191 N 248.053 -1.65141 -4.78082 0
M  V30 2192 C 246.351 -0.336824 -4.44726 0
M  V30 2193 C 247.052 -2.21475 -5.37888 0
M  V30 2194 N 246.028 -1.50537 -5.22341 0
M  V30 2195 H 249.83 -1.23477 -2.66703 0
M  V30 2196 H 247.344 -0.772299 -1.42861 0
M  V30 2197 H 249.341 0.772638 -4.09678 0
M  V30 2198 H 248.001 1.22066 -3.00882 0
M  V30 2199 H 249.012 -2.03392 -4.7629 0
M  V30 2200 H 245.689 0.47246 -4.14818 0
M  V30 2201 H 247.079 -3.15379 -5.93284 0
M  V30 2202 N 249.799 1.42003 -0.683588 0
M  V30 2203 C 251.039 2.03282 -0.213513 0
M  V30 2204 C 251.403 1.52924 1.16097 0
M  V30 2205 O 252.604 2.06048 1.7262 0
M  V30 2206 C 250.875 3.56483 -0.255856 0
M  V30 2207 S 252.434 4.3857 0.14193 0
M  V30 2208 H 249.252 0.705659 -0.0869853 0
M  V30 2209 H 251.854 1.73619 -0.8987 0
M  V30 2210 H 250.558 3.90631 -1.25841 0
M  V30 2211 H 250.089 3.90831 0.448875 0
M  V30 2212 H 252.104 4.76828 1.37295 0
M  V30 2213 N 251.277 0.427512 1.51691 0
M  V30 2214 C 252.225 -0.403359 2.29076 0
M  V30 2215 C 253.219 -1.02962 1.34518 0
M  V30 2216 O 254.425 -0.965715 1.51901 0
M  V30 2217 H 250.8 -0.148879 0.737115 0
M  V30 2218 H 252.771 0.270295 2.97173 0
M  V30 2219 C 251.52 -1.49763 3.13794 0
M  V30 2220 H 250.843 -1.02508 3.86435 0
M  V30 2221 H 252.283 -2.05244 3.71014 0
M  V30 2222 C 250.742 -2.47536 2.28533 0
M  V30 2223 O 251.272 -3.51848 1.93819 0
M  V30 2224 N 249.478 -2.18187 1.91945 0
M  V30 2225 H 249.025 -1.33389 2.20375 0
M  V30 2226 H 248.983 -2.83848 1.35195 0
M  V30 2227 N 252.755 -1.56801 0.158532 0
M  V30 2228 C 254.004 -1.95665 -0.489702 0
M  V30 2229 C 254.317 -1.04654 -1.65248 0
M  V30 2230 O 255.523 -1.33146 -2.3661 0
M  V30 2231 C 253.979 -3.47874 -0.922582 0
M  V30 2232 C 253.587 -4.47489 0.213893 0
M  V30 2233 C 255.331 -3.95583 -1.53996 0
M  V30 2234 C 253.238 -5.90921 -0.237903 0
M  V30 2235 H 252.168 -0.730516 -0.186716 0
M  V30 2236 H 254.819 -1.81861 0.244722 0
M  V30 2237 H 253.201 -3.57051 -1.71261 0
M  V30 2238 H 254.375 -4.50017 0.991036 0
M  V30 2239 H 252.69 -4.09764 0.740407 0
M  V30 2240 H 255.287 -5.0019 -1.8898 0
M  V30 2241 H 255.63 -3.37789 -2.43319 0
M  V30 2242 H 256.163 -3.8937 -0.814611 0
M  V30 2243 H 252.902 -6.52559 0.620236 0
M  V30 2244 H 252.422 -5.91729 -0.980676 0
M  V30 2245 H 254.101 -6.43352 -0.686067 0
M  V30 2246 N 254.233 0.115231 -1.57178 0
M  V30 2247 C 255.479 0.82357 -1.85325 0
M  V30 2248 C 255.812 1.79349 -0.744814 0
M  V30 2249 O 255.087 1.92899 0.249024 0
M  V30 2250 C 255.37 1.57014 -3.24066 0
M  V30 2251 C 255.223 0.619565 -4.45513 0
M  V30 2252 C 256.542 2.52545 -3.60429 0
M  V30 2253 H 253.661 0.297948 -0.674089 0
M  V30 2254 H 256.303 0.0877138 -1.89797 0
M  V30 2255 H 254.453 2.19742 -3.20383 0
M  V30 2256 H 256.125 0.000837639 -4.613 0
M  V30 2257 H 254.368 -0.0686174 -4.33746 0
M  V30 2258 H 255.039 1.17866 -5.3927 0
M  V30 2259 H 257.515 1.9992 -3.64926 0
M  V30 2260 H 256.391 3.01811 -4.58477 0
M  V30 2261 H 256.652 3.35383 -2.88047 0
M  V30 2262 N 255.711 1.52812 0.385517 0
M  V30 2263 C 257.127 1.4214 0.725829 0
M  V30 2264 C 257.327 0.544589 1.94001 0
M  V30 2265 O 256.383 0.0193693 2.52493 0
M  V30 2266 C 257.696 2.85042 0.957668 0
M  V30 2267 C 259.244 2.94543 1.05892 0
M  V30 2268 C 259.719 4.38464 1.32337 0
M  V30 2269 N 261.21 4.41804 1.39151 0
M  V30 2270 C 261.945 5.5025 1.61285 0
M  V30 2271 N 261.441 6.68775 1.80866 0
M  V30 2272 N 263.234 5.37798 1.63492 0
M  V30 2273 H 255.385 2.08338 -0.413383 0
M  V30 2274 H 257.648 0.940016 -0.122775 0
M  V30 2275 H 257.354 3.51431 0.137568 0
M  V30 2276 H 257.228 3.27505 1.87137 0
M  V30 2277 H 259.615 2.28321 1.86959 0
M  V30 2278 H 259.696 2.55504 0.123057 0
M  V30 2279 H 259.34 5.05254 0.517793 0
M  V30 2280 H 259.27 4.75059 2.27214 0
M  V30 2281 H 261.761 3.56377 1.25713 0
M  V30 2282 H 262.074 7.47197 1.97271 0
M  V30 2283 H 260.419 6.71797 1.78083 0
M  V30 2284 H 263.61 4.44171 1.47749 0
M  V30 2285 H 263.783 6.22382 1.80402 0
M  V30 2286 N 257.189 -0.644168 1.43834 0
M  V30 2287 C 258.119 -1.76814 1.52509 0
M  V30 2288 C 259.1 -1.65823 0.379052 0
M  V30 2289 O 260.285 -1.84781 0.597466 0
M  V30 2290 C 257.415 -3.15288 1.4564 0
M  V30 2291 C 256.369 -3.41053 2.58586 0
M  V30 2292 C 255.695 -4.79421 2.36769 0
M  V30 2293 C 256.995 -3.34902 4.00797 0
M  V30 2294 H 258.689 -1.69812 2.46586 0
M  V30 2295 H 256.235 -0.815542 1.1868 0
M  V30 2296 H 258.188 -3.93681 1.50311 0
M  V30 2297 H 256.912 -3.23043 0.480725 0
M  V30 2298 H 255.571 -2.65035 2.53282 0
M  V30 2299 H 255.219 -4.83863 1.37424 0
M  V30 2300 H 254.919 -4.9762 3.12487 0
M  V30 2301 H 256.443 -5.6006 2.43238 0
M  V30 2302 H 257.857 -4.03218 4.07539 0
M  V30 2303 H 256.254 -3.64637 4.76613 0
M  V30 2304 H 257.324 -2.32928 4.25291 0
M  V30 2305 N 258.668 -1.30515 -0.883378 0
M  V30 2306 C 260.084 -1.08881 -1.16692 0
M  V30 2307 C 260.284 0.149409 -2.00945 0
M  V30 2308 O 259.34 0.84257 -2.38027 0
M  V30 2309 C 260.653 -2.35319 -1.87204 0
M  V30 2310 C 262.201 -2.40799 -1.99962 0
M  V30 2311 C 262.676 -3.67083 -2.73887 0
M  V30 2312 N 264.167 -3.679 -2.81432 0
M  V30 2313 C 264.902 -4.62303 -3.3921 0
M  V30 2314 N 264.398 -5.67052 -3.98025 0
M  V30 2315 N 266.191 -4.49845 -3.3704 0
M  V30 2316 H 258.342 -2.09951 -0.321633 0
M  V30 2317 H 260.605 -0.92556 -0.205043 0
M  V30 2318 H 260.311 -3.25689 -1.3274 0
M  V30 2319 H 260.185 -2.44089 -2.87577 0
M  V30 2320 H 262.572 -1.50907 -2.53597 0
M  V30 2321 H 262.653 -2.36003 -0.98673 0
M  V30 2322 H 262.297 -4.57334 -2.20925 0
M  V30 2323 H 262.227 -3.69141 -3.75556 0
M  V30 2324 H 264.718 -2.92171 -2.39676 0
M  V30 2325 H 265.031 -6.35184 -4.40183 0
M  V30 2326 H 263.376 -5.70842 -3.96439 0
M  V30 2327 H 266.567 -3.67194 -2.90321 0
M  V30 2328 H 266.74 -5.23597 -3.81772 0
M  V30 2329 N 260.146 1.09593 -1.13257 0
M  V30 2330 C 261.376 1.85231 -0.915049 0
M  V30 2331 C 261.784 1.81345 0.539498 0
M  V30 2332 O 261.127 1.20664 1.38513 0
M  V30 2333 C 261.189 3.34275 -1.3229 0
M  V30 2334 C 260.853 3.6191 -2.79052 0
M  V30 2335 C 261.85 3.57777 -3.77216 0
M  V30 2336 C 259.535 3.90309 -3.16171 0
M  V30 2337 C 261.529 3.81652 -5.1051 0
M  V30 2338 C 259.216 4.13839 -4.49644 0
M  V30 2339 C 260.214 4.09502 -5.46623 0
M  V30 2340 O 259.902 4.32426 -6.77689 0
M  V30 2341 H 259.634 0.591997 -0.326367 0
M  V30 2342 H 262.188 1.394 -1.50854 0
M  V30 2343 H 260.418 3.80805 -0.672667 0
M  V30 2344 H 262.107 3.9132 -1.07812 0
M  V30 2345 H 262.873 3.35865 -3.49885 0
M  V30 2346 H 258.752 3.92811 -2.41289 0
M  V30 2347 H 262.296 3.78182 -5.86195 0
M  V30 2348 H 258.193 4.35232 -4.767 0
M  V30 2349 H 258.961 4.49896 -6.83766 0
M  V30 2350 N 261.624 0.925811 1.2754 0
M  V30 2351 C 262.871 0.565255 1.94451 0
M  V30 2352 C 263.199 -0.89316 1.7278 0
M  V30 2353 O 262.454 -1.65213 1.04895 0
M  V30 2354 C 262.753 0.835296 3.47502 0
M  V30 2355 C 262.419 2.27515 3.89291 0
M  V30 2356 C 261.081 2.66879 4.00411 0
M  V30 2357 C 263.433 3.21158 4.10496 0
M  V30 2358 C 260.761 3.99014 4.30122 0
M  V30 2359 C 263.113 4.52871 4.4169 0
M  V30 2360 C 261.777 4.92072 4.51023 0
M  V30 2361 H 261.047 0.206841 0.711546 0
M  V30 2362 H 263.694 1.16942 1.51647 0
M  V30 2363 H 261.999 0.148442 3.91519 0
M  V30 2364 H 263.696 0.535322 3.97411 0
M  V30 2365 H 260.286 1.95976 3.81171 0
M  V30 2366 H 264.47 2.9195 4.01346 0
M  V30 2367 H 259.726 4.2907 4.35556 0
M  V30 2368 H 263.9 5.25436 4.57045 0
M  V30 2369 H 261.527 5.9449 4.738 0
M  V30 2370 N 263.102 -1.41638 0.69111 0
M  V30 2371 C 264.349 -2.01299 0.220193 0
M  V30 2372 C 264.677 -1.54715 -1.17871 0
M  V30 2373 O 263.932 -0.747193 -1.80874 0
M  V30 2374 C 264.231 -3.56714 0.221277 0
M  V30 2375 C 263.897 -4.22792 1.56709 0
M  V30 2376 C 262.559 -4.40557 1.93554 0
M  V30 2377 C 264.911 -4.59883 2.45268 0
M  V30 2378 C 262.239 -4.92688 3.18552 0
M  V30 2379 C 264.591 -5.13403 3.69595 0
M  V30 2380 C 263.255 -5.29379 4.06589 0
M  V30 2381 H 262.525 -0.736606 0.0805743 0
M  V30 2382 H 265.172 -1.69598 0.889319 0
M  V30 2383 H 263.477 -3.8818 -0.531391 0
M  V30 2384 H 265.174 -4.00678 -0.160547 0
M  V30 2385 H 261.764 -4.09336 1.2705 0
M  V30 2386 H 265.948 -4.45817 2.18084 0
M  V30 2387 H 261.204 -5.03242 3.47214 0
M  V30 2388 H 265.378 -5.41084 4.38407 0
M  V30 2389 H 263.005 -5.69537 5.03519 0
M  V30 2390 N 264.58 -0.43555 -1.51462 0
M  V30 2391 C 265.81 0.130053 -2.0619 0
M  V30 2392 C 266.218 1.37164 -1.30317 0
M  V30 2393 O 265.561 1.80225 -0.355598 0
M  V30 2394 C 265.623 0.519418 -3.55728 0
M  V30 2395 C 265.287 -0.615119 -4.52841 0
M  V30 2396 C 266.284 -1.48671 -4.9819 0
M  V30 2397 C 263.969 -0.795341 -4.95963 0
M  V30 2398 C 265.963 -2.52324 -5.8533 0
M  V30 2399 C 263.65 -1.83514 -5.82894 0
M  V30 2400 C 264.648 -2.69748 -6.27475 0
M  V30 2401 O 264.336 -3.71944 -7.1268 0
M  V30 2402 H 264.068 0.0121612 -0.675891 0
M  V30 2403 H 266.622 -0.6129 -1.96043 0
M  V30 2404 H 264.852 1.31505 -3.63653 0
M  V30 2405 H 266.541 1.01597 -3.92979 0
M  V30 2406 H 267.307 -1.359 -4.65571 0
M  V30 2407 H 263.186 -0.133713 -4.60806 0
M  V30 2408 H 266.73 -3.19665 -6.20048 0
M  V30 2409 H 262.627 -1.96306 -6.14926 0
M  V30 2410 H 263.395 -3.68503 -7.30854 0
M  V30 2411 N 266.058 1.56714 -0.166846 0
M  V30 2412 C 267.283 2.01557 0.488833 0
M  V30 2413 C 267.708 1.0463 1.56314 0
M  V30 2414 O 267.066 0.0251304 1.81283 0
M  V30 2415 C 267.114 3.4503 1.04818 0
M  V30 2416 O 266.218 3.51163 2.16236 0
M  V30 2417 H 265.559 0.653516 0.117526 0
M  V30 2418 H 268.089 2.02818 -0.269421 0
M  V30 2419 H 268.099 3.84243 1.37191 0
M  V30 2420 H 266.774 4.15077 0.261572 0
M  V30 2421 H 265.351 3.23807 1.84942 0
M  V30 2422 N 267.536 -0.106894 1.57237 0
M  V30 2423 C 268.761 -0.830287 1.90055 0
M  V30 2424 C 269.186 -1.72064 0.75998 0
M  V30 2425 O 268.544 -1.78982 -0.288991 0
M  V30 2426 C 268.592 -1.6295 3.21683 0
M  V30 2427 O 267.696 -2.73748 3.08441 0
M  V30 2428 H 267.037 -0.228855 0.623315 0
M  V30 2429 H 269.567 -0.085658 2.04421 0
M  V30 2430 H 269.577 -2.01621 3.54701 0
M  V30 2431 H 268.252 -0.975989 4.04286 0
M  V30 2432 H 266.829 -2.38192 2.86913 0
M  V30 2433 N 269.014 -1.53014 -0.377408 0
M  V30 2434 C 270.262 -1.6829 -1.11906 0
M  V30 2435 C 270.583 -0.431206 -1.90173 0
M  V30 2436 O 269.853 0.554595 -1.87886 0
M  V30 2437 H 268.433 -0.620371 -0.416112 0
M  V30 2438 H 271.095 -1.90167 -0.426893 0
M  V30 2439 H 270.191 -2.53862 -1.8155 0
M  V30 2440 N 270.492 0.636531 -1.44174 0
M  V30 2441 C 271.402 1.77754 -1.53103 0
M  V30 2442 C 272.418 1.68928 -0.417034 0
M  V30 2443 O 273.594 1.89801 -0.6736 0
M  V30 2444 C 270.659 3.14115 -1.46741 0
M  V30 2445 C 269.72 3.34612 -2.68948 0
M  V30 2446 C 268.953 4.64467 -2.6288 0
M  V30 2447 O 269.176 5.44919 -1.68581 0
M  V30 2448 O 268.11 4.87049 -3.53648 0
M  V30 2449 H 271.936 1.73174 -2.49489 0
M  V30 2450 H 269.521 0.79709 -1.2636 0
M  V30 2451 H 271.403 3.95412 -1.45696 0
M  V30 2452 H 270.078 3.19249 -0.534975 0
M  V30 2453 H 268.985 2.53014 -2.75562 0
M  V30 2454 H 270.318 3.34336 -3.61221 0
M  V30 2455 N 271.97 1.30982 0.876444 0
M  V30 2456 C 272.917 1.18085 1.98304 0
M  V30 2457 C 273.887 0.0682263 1.6596 0
M  V30 2458 O 275.072 0.239937 1.89285 0
M  V30 2459 C 272.212 0.887475 3.33493 0
M  V30 2460 C 271.325 2.08281 3.78475 0
M  V30 2461 C 270.46 1.72678 5.0235 0
M  V30 2462 C 269.499 2.88657 5.39762 0
M  V30 2463 N 268.636 2.53292 6.54819 0
M  V30 2464 H 273.476 2.1275 2.08666 0
M  V30 2465 H 271.013 1.05839 1.02159 0
M  V30 2466 H 272.971 0.697961 4.1132 0
M  V30 2467 H 271.601 -0.022315 3.22792 0
M  V30 2468 H 270.653 2.3833 2.96484 0
M  V30 2469 H 271.965 2.95108 4.02135 0
M  V30 2470 H 271.119 1.50151 5.87826 0
M  V30 2471 H 269.858 0.830327 4.8058 0
M  V30 2472 H 268.863 3.1184 4.52809 0
M  V30 2473 H 270.088 3.79002 5.63502 0
M  V30 2474 H 268.034 1.66163 6.34607 0
M  V30 2475 H 267.951 3.3365 6.7839 0
M  V30 2476 H 269.219 2.34143 7.43503 0
M  V30 2477 N 273.449 -1.08991 1.13837 0
M  V30 2478 C 274.396 -2.15748 0.819835 0
M  V30 2479 C 275.366 -1.64636 -0.220026 0
M  V30 2480 O 276.551 -1.90582 -0.0912757 0
M  V30 2481 C 273.691 -3.4382 0.296913 0
M  V30 2482 C 272.804 -4.0881 1.39636 0
M  V30 2483 C 271.939 -5.24655 0.831314 0
M  V30 2484 C 270.978 -5.81575 1.90886 0
M  V30 2485 N 270.115 -6.88774 1.36142 0
M  V30 2486 H 274.955 -2.42338 1.73426 0
M  V30 2487 H 272.492 -1.18935 0.865613 0
M  V30 2488 H 274.45 -4.17193 -0.0244339 0
M  V30 2489 H 273.08 -3.17535 -0.580628 0
M  V30 2490 H 272.132 -3.33258 1.83422 0
M  V30 2491 H 273.444 -4.47141 2.21058 0
M  V30 2492 H 272.598 -6.04942 0.461515 0
M  V30 2493 H 271.337 -4.87698 -0.013932 0
M  V30 2494 H 270.342 -4.99946 2.28767 0
M  V30 2495 H 271.567 -6.20592 2.75758 0
M  V30 2496 H 269.513 -6.53788 0.538254 0
M  V30 2497 H 269.43 -7.25898 2.11208 0
M  V30 2498 H 270.698 -7.72806 1.01933 0
M  V30 2499 N 274.927 -0.932562 -1.27047 0
M  V30 2500 C 276.204 -0.49377 -1.89265 0
M  V30 2501 C 276.584 1.02833 -1.8436 0
M  V30 2502 O 275.932 1.88461 -1.29209 0
M  V30 2503 C 276.142 -1.04536 -3.32976 0
M  V30 2504 C 277.49 -1.10879 -4.09867 0
M  V30 2505 O 278.514 -0.995327 -3.42011 0
M  V30 2506 O 277.373 -1.28417 -5.31198 0
M  V30 2507 H 274.467 -0.159596 -0.811454 0
M  V30 2508 H 277.013 -1.02457 -1.3528 0
M  V30 2509 H 275.785 -2.08913 -3.30864 0
M  V30 2510 H 275.408 -0.496494 -3.94488 0
M  V30 2511 N 276.405 1.4127 -0.698611 0
M  V30 2512 C 277.315 2.34573 -0.0357891 0
M  V30 2513 C 278.331 1.56393 0.762701 0
M  V30 2514 O 279.507 1.8886 0.699564 0
M  V30 2515 C 276.572 3.35159 0.887089 0
M  V30 2516 C 275.633 4.29225 0.0804634 0
M  V30 2517 C 274.866 5.25006 0.959387 0
M  V30 2518 O 275.089 5.26314 2.19886 0
M  V30 2519 O 274.023 6.00519 0.407439 0
M  V30 2520 H 277.849 2.92838 -0.804957 0
M  V30 2521 H 275.434 1.42175 -0.458966 0
M  V30 2522 H 277.316 3.9689 1.41621 0
M  V30 2523 H 275.991 2.79333 1.6357 0
M  V30 2524 H 274.898 3.70833 -0.493328 0
M  V30 2525 H 276.231 4.88157 -0.629547 0
M  V30 2526 N 277.883 0.443576 1.51229 0
M  V30 2527 C 278.813 -0.355142 2.30783 0
M  V30 2528 C 279.794 -1.0154 1.36468 0
M  V30 2529 O 280.979 -1.01785 1.65389 0
M  V30 2530 C 278.109 -1.45312 3.15439 0
M  V30 2531 C 277.063 -0.916002 4.18083 0
M  V30 2532 C 276.389 -2.1102 4.91299 0
M  V30 2533 C 277.689 0.0538602 5.22272 0
M  V30 2534 H 279.383 0.308767 2.97804 0
M  V30 2535 H 276.929 0.149937 1.43217 0
M  V30 2536 H 278.882 -2.01914 3.69876 0
M  V30 2537 H 277.606 -2.14541 2.46252 0
M  V30 2538 H 276.265 -0.372145 3.64706 0
M  V30 2539 H 275.913 -2.78882 4.18609 0
M  V30 2540 H 275.613 -1.75717 5.60712 0
M  V30 2541 H 277.137 -2.68164 5.48562 0
M  V30 2542 H 278.551 -0.422069 5.71744 0
M  V30 2543 H 276.948 0.319776 5.99247 0
M  V30 2544 H 278.018 0.98858 4.74716 0
M  V30 2545 N 279.361 -1.56624 0.175154 0
M  V30 2546 C 280.591 -2.01082 -0.474283 0
M  V30 2547 C 280.999 -1.05447 -1.57091 0
M  V30 2548 O 280.342 -0.0480595 -1.83637 0
M  V30 2549 C 280.404 -3.41963 -1.10911 0
M  V30 2550 C 280.068 -4.56742 -0.153666 0
M  V30 2551 C 281.065 -5.16076 0.629448 0
M  V30 2552 C 278.75 -5.02277 -0.0483776 0
M  V30 2553 C 280.744 -6.19377 1.50501 0
M  V30 2554 C 278.431 -6.05427 0.830768 0
M  V30 2555 C 279.429 -6.63849 1.60605 0
M  V30 2556 O 279.117 -7.64998 2.47049 0
M  V30 2557 H 278.849 -0.664261 -0.125432 0
M  V30 2558 H 281.403 -2.03549 0.275163 0
M  V30 2559 H 279.633 -3.36422 -1.90676 0
M  V30 2560 H 281.322 -3.70352 -1.66114 0
M  V30 2561 H 282.088 -4.81776 0.558297 0
M  V30 2562 H 277.967 -4.56513 -0.641611 0
M  V30 2563 H 281.511 -6.64906 2.1106 0
M  V30 2564 H 277.408 -6.39151 0.903107 0
M  V30 2565 H 278.176 -7.82336 2.40607 0
M  V30 2566 N 280.839 0.0985539 -1.57292 0
M  V30 2567 C 281.769 1.12064 -2.04851 0
M  V30 2568 C 282.75 1.41981 -0.936767 0
M  V30 2569 O 283.935 1.52071 -1.20781 0
M  V30 2570 C 281.065 2.44144 -2.47004 0
M  V30 2571 C 280.019 2.28643 -3.6181 0
M  V30 2572 C 279.345 3.65869 -3.89929 0
M  V30 2573 C 280.645 1.72986 -4.92822 0
M  V30 2574 H 282.339 0.724979 -2.9049 0
M  V30 2575 H 279.885 0.34729 -1.39749 0
M  V30 2576 H 281.838 3.15914 -2.78884 0
M  V30 2577 H 280.562 2.85639 -1.5836 0
M  V30 2578 H 279.221 1.59318 -3.30172 0
M  V30 2579 H 278.869 4.04885 -2.98458 0
M  V30 2580 H 278.569 3.56344 -4.67218 0
M  V30 2581 H 280.093 4.39112 -4.2428 0
M  V30 2582 H 281.507 2.34593 -5.23105 0
M  V30 2583 H 279.904 1.74229 -5.74251 0
M  V30 2584 H 280.974 0.689007 -4.7998 0
M  V30 2585 N 282.317 1.53212 0.369288 0
M  V30 2586 C 283.265 1.80054 1.47253 0
M  V30 2587 C 284.259 0.669456 1.55611 0
M  V30 2588 O 285.465 0.852328 1.58541 0
M  V30 2589 H 281.84 0.570034 0.490475 0
M  V30 2590 H 283.811 2.72403 1.21817 0
M  V30 2591 C 282.56 2.00403 2.84137 0
M  V30 2592 H 281.883 2.86876 2.78464 0
M  V30 2593 H 283.323 2.23164 3.60519 0
M  V30 2594 C 281.782 0.782081 3.27697 0
M  V30 2595 O 282.312 -0.0310205 4.01688 0
M  V30 2596 N 280.518 0.606573 2.84199 0
M  V30 2597 H 280.065 1.26939 2.24152 0
M  V30 2598 H 280.023 -0.20962 3.137 0
M  V30 2599 N 283.795 -0.628877 1.44509 0
M  V30 2600 C 284.725 -1.75187 1.54376 0
M  V30 2601 C 285.706 -1.65411 0.396618 0
M  V30 2602 O 286.891 -1.84137 0.617031 0
M  V30 2603 C 284.021 -3.13725 1.48976 0
M  V30 2604 C 282.975 -3.38291 2.62189 0
M  V30 2605 C 282.301 -4.76883 2.41841 0
M  V30 2606 C 283.601 -3.30632 4.04326 0
M  V30 2607 H 285.295 -1.67187 2.48373 0
M  V30 2608 H 282.841 -0.802909 1.19538 0
M  V30 2609 H 284.794 -3.92064 1.54478 0
M  V30 2610 H 283.518 -3.22515 0.514961 0
M  V30 2611 H 282.177 -2.62334 2.56079 0
M  V30 2612 H 281.825 -4.82378 1.42548 0
M  V30 2613 H 281.525 -4.94278 3.17747 0
M  V30 2614 H 283.049 -5.57449 2.49165 0
M  V30 2615 H 284.463 -3.98873 4.11793 0
M  V30 2616 H 282.86 -3.59561 4.80454 0
M  V30 2617 H 283.93 -2.28404 4.27738 0
M  V30 2618 N 285.273 -1.31445 -0.869486 0
M  V30 2619 C 286.519 -1.21337 -1.62496 0
M  V30 2620 C 286.852 0.227872 -1.92858 0
M  V30 2621 O 286.127 1.16094 -1.56053 0
M  V30 2622 C 286.41 -2.05814 -2.95487 0
M  V30 2623 C 286.263 -3.5824 -2.72 0
M  V30 2624 C 287.582 -1.9079 -3.96594 0
M  V30 2625 H 284.701 -0.442135 -0.589649 0
M  V30 2626 H 287.343 -1.6124 -1.00507 0
M  V30 2627 H 285.493 -1.71913 -3.48394 0
M  V30 2628 H 287.165 -4.0228 -2.25762 0
M  V30 2629 H 285.408 -3.81647 -2.06224 0
M  V30 2630 H 286.079 -4.12657 -3.66631 0
M  V30 2631 H 288.555 -2.20459 -3.52898 0
M  V30 2632 H 287.431 -2.52199 -4.87531 0
M  V30 2633 H 287.692 -0.871341 -4.33428 0
M  V30 2634 N 286.751 1.08385 -1.14413 0
M  V30 2635 C 287.681 2.17321 -0.854044 0
M  V30 2636 C 288.662 1.69024 0.191049 0
M  V30 2637 O 289.847 1.94141 0.0476779 0
M  V30 2638 C 286.977 3.45719 -0.330983 0
M  V30 2639 C 285.931 4.07409 -1.31155 0
M  V30 2640 C 285.257 5.30762 -0.64778 0
M  V30 2641 C 286.557 4.48665 -2.67388 0
M  V30 2642 H 288.251 2.41845 -1.76498 0
M  V30 2643 H 285.797 1.16233 -0.850051 0
M  V30 2644 H 287.75 4.21241 -0.115645 0
M  V30 2645 H 286.474 3.2075 0.615381 0
M  V30 2646 H 285.133 3.33919 -1.51306 0
M  V30 2647 H 284.781 5.02078 0.304398 0
M  V30 2648 H 284.481 5.72992 -1.30207 0
M  V30 2649 H 286.005 6.08998 -0.441972 0
M  V30 2650 H 287.419 5.15364 -2.51143 0
M  V30 2651 H 285.816 5.01814 -3.29093 0
M  V30 2652 H 286.886 3.60543 -3.24248 0
M  V30 2653 N 288.23 0.939286 1.26551 0
M  V30 2654 C 289.14 0.453432 2.30176 0
M  V30 2655 C 290.156 -0.471649 1.67486 0
M  V30 2656 O 291.332 -0.35164 1.98306 0
M  V30 2657 C 288.397 -0.275326 3.45605 0
M  V30 2658 C 287.458 0.686084 4.23782 0
M  V30 2659 C 286.691 -0.00798994 5.33699 0
M  V30 2660 O 286.914 -1.22528 5.57085 0
M  V30 2661 O 285.848 0.669746 5.98162 0
M  V30 2662 H 289.674 1.31416 2.73795 0
M  V30 2663 H 287.259 0.705095 1.31715 0
M  V30 2664 H 289.141 -0.685911 4.1578 0
M  V30 2665 H 287.816 -1.11147 3.0402 0
M  V30 2666 H 286.723 1.14658 3.56096 0
M  V30 2667 H 288.056 1.48979 4.69112 0
M  V30 2668 N 289.708 -1.40897 0.706093 0
M  V30 2669 C 290.938 -2.05075 0.250523 0
M  V30 2670 C 291.346 -1.53275 -1.10921 0
M  V30 2671 O 290.689 -0.680281 -1.7064 0
M  V30 2672 C 290.751 -3.59219 0.142178 0
M  V30 2673 C 290.415 -4.33864 1.43566 0
M  V30 2674 C 291.412 -4.62448 2.37566 0
M  V30 2675 C 289.097 -4.72946 1.69195 0
M  V30 2676 C 291.091 -5.29088 3.5545 0
M  V30 2677 C 288.778 -5.3932 2.87362 0
M  V30 2678 C 289.776 -5.6732 3.80312 0
M  V30 2679 O 289.464 -6.32325 4.96408 0
M  V30 2680 H 289.196 -0.666645 0.112074 0
M  V30 2681 H 291.75 -1.81467 0.962239 0
M  V30 2682 H 289.98 -3.81609 -0.6254 0
M  V30 2683 H 291.669 -4.0495 -0.277584 0
M  V30 2684 H 292.435 -4.32727 2.19027 0
M  V30 2685 H 288.314 -4.50527 0.977042 0
M  V30 2686 H 291.858 -5.50859 4.28018 0
M  V30 2687 H 287.755 -5.68461 3.05814 0
M  V30 2688 H 288.523 -6.50821 4.9636 0
M  V30 2689 N 291.186 -0.45159 -1.50991 0
M  V30 2690 C 292.432 0.110237 -2.025 0
M  V30 2691 C 292.765 1.41109 -1.33424 0
M  V30 2692 O 292.04 1.89135 -0.453659 0
M  V30 2693 C 292.323 0.314271 -3.58726 0
M  V30 2694 C 292.176 -1.00623 -4.38401 0
M  V30 2695 C 293.495 1.07767 -4.26702 0
M  V30 2696 H 290.614 0.0385897 -0.735989 0
M  V30 2697 H 293.256 -0.593374 -1.80497 0
M  V30 2698 H 291.406 0.913601 -3.77605 0
M  V30 2699 H 293.078 -1.64064 -4.31139 0
M  V30 2700 H 291.321 -1.6075 -4.02917 0
M  V30 2701 H 291.992 -0.817341 -5.45915 0
M  V30 2702 H 294.468 0.56986 -4.12179 0
M  V30 2703 H 293.344 1.18921 -5.35863 0
M  V30 2704 H 293.605 2.10939 -3.88532 0
M  V30 2705 N 292.664 1.56529 -0.183458 0
M  V30 2706 C 294.075 1.83739 0.331177 0
M  V30 2707 C 294.426 1.10373 1.62211 0
M  V30 2708 O 293.551 0.36071 2.13373 0
M  V30 2709 C 294.146 3.33306 0.607646 0
M  V30 2710 C 292.705 3.60969 1.06668 0
M  V30 2711 C 291.852 2.77086 0.109029 0
M  V30 2712 H 294.803 1.53379 -0.407484 0
M  V30 2713 H 294.824 3.51444 1.45832 0
M  V30 2714 H 294.336 3.86677 -0.332086 0
M  V30 2715 H 292.437 3.13021 2.0211 0
M  V30 2716 H 292.55 4.69231 0.967447 0
M  V30 2717 H 290.914 2.47319 0.608714 0
M  V30 2718 H 291.697 3.33241 -0.82494 0
M  V30 2719 N 294.142 -0.090211 1.57342 0
M  V30 2720 C 295.052 -1.12735 2.05738 0
M  V30 2721 C 296.068 -1.43557 0.983231 0
M  V30 2722 O 297.244 -1.54101 1.29672 0
M  V30 2723 C 294.309 -2.42659 2.47624 0
M  V30 2724 C 293.37 -2.18975 3.69254 0
M  V30 2725 C 292.603 -3.42704 4.09133 0
M  V30 2726 O 292.826 -4.51127 3.49057 0
M  V30 2727 O 291.76 -3.32003 5.02053 0
M  V30 2728 H 295.586 -0.746279 2.94388 0
M  V30 2729 H 293.171 -0.303064 1.46294 0
M  V30 2730 H 295.053 -3.19155 2.7517 0
M  V30 2731 H 293.728 -2.80182 1.62109 0
M  V30 2732 H 292.635 -1.40244 3.46818 0
M  V30 2733 H 293.968 -1.86342 4.55563 0
M  V30 2734 N 295.62 -1.53406 -0.361157 0
M  V30 2735 C 296.848 -1.73717 -1.12383 0
M  V30 2736 C 297.263 -0.468161 -1.82904 0
M  V30 2737 O 296.62 0.559198 -1.73722 0
M  V30 2738 C 296.671 -2.90558 -2.15078 0
M  V30 2739 O 296.392 -4.12549 -1.47428 0
M  V30 2740 C 297.893 -3.22777 -3.03858 0
M  V30 2741 H 295.113 -0.580896 -0.335858 0
M  V30 2742 H 297.657 -2.00167 -0.418728 0
M  V30 2743 H 295.812 -2.66489 -2.8118 0
M  V30 2744 H 296.226 -4.78009 -2.15887 0
M  V30 2745 H 297.7 -4.07927 -3.71887 0
M  V30 2746 H 298.177 -2.38329 -3.68912 0
M  V30 2747 H 298.783 -3.48787 -2.43367 0
M  V30 2748 N 297.098 0.621204 -1.44841 0
M  V30 2749 C 298.344 1.3826 -1.48365 0
M  V30 2750 C 298.677 1.93831 -0.119624 0
M  V30 2751 O 297.952 1.74251 0.864111 0
M  V30 2752 C 298.235 2.54058 -2.55199 0
M  V30 2753 C 298.088 2.03772 -4.00995 0
M  V30 2754 C 299.407 3.56225 -2.58442 0
M  V30 2755 H 296.526 0.501374 -0.540179 0
M  V30 2756 H 299.168 0.7015 -1.76576 0
M  V30 2757 H 297.318 3.12162 -2.31274 0
M  V30 2758 H 298.99 1.50423 -4.36086 0
M  V30 2759 H 297.233 1.34876 -4.12299 0
M  V30 2760 H 297.904 2.87185 -4.71411 0
M  V30 2761 H 300.38 3.07939 -2.79844 0
M  V30 2762 H 299.256 4.34756 -3.3508 0
M  V30 2763 H 299.517 4.10949 -1.63013 0
M  V30 2764 N 298.576 1.31904 0.862503 0
M  V30 2765 C 299.806 1.24817 1.64634 0
M  V30 2766 C 300.214 -0.187579 1.88268 0
M  V30 2767 O 299.557 -1.13253 1.44635 0
M  V30 2768 C 299.619 1.92996 3.03303 0
M  V30 2769 C 299.283 3.42336 3.02746 0
M  V30 2770 C 300.28 4.37956 2.80162 0
M  V30 2771 C 297.965 3.84147 3.2363 0
M  V30 2772 C 299.959 5.73361 2.78453 0
M  V30 2773 C 297.646 5.19663 3.21549 0
M  V30 2774 C 298.644 6.14081 2.98988 0
M  V30 2775 O 298.332 7.47118 2.96766 0
M  V30 2776 H 298.064 0.432222 0.519769 0
M  V30 2777 H 300.618 1.7445 1.08427 0
M  V30 2778 H 298.848 1.37922 3.61268 0
M  V30 2779 H 300.537 1.79723 3.63943 0
M  V30 2780 H 301.303 4.06981 2.63802 0
M  V30 2781 H 297.182 3.11083 3.40218 0
M  V30 2782 H 300.726 6.4703 2.60763 0
M  V30 2783 H 296.623 5.5027 3.37451 0
M  V30 2784 H 297.391 7.56382 3.12775 0
M  V30 2785 N 300.054 -1.07777 1.14986 0
M  V30 2786 C 301.47 -1.32373 0.891596 0
M  V30 2787 C 301.67 -1.9609 -0.463788 0
M  V30 2788 O 300.726 -2.21801 -1.20667 0
M  V30 2789 C 302.039 -2.21905 2.02925 0
M  V30 2790 C 303.587 -2.35367 2.06329 0
M  V30 2791 C 304.062 -3.28245 3.19405 0
M  V30 2792 N 305.553 -3.35824 3.19024 0
M  V30 2793 C 306.288 -4.07739 4.03158 0
M  V30 2794 N 305.784 -4.82306 4.97346 0
M  V30 2795 N 307.577 -4.03635 3.91197 0
M  V30 2796 H 299.728 -0.648039 2.02273 0
M  V30 2797 H 301.991 -0.348149 0.881757 0
M  V30 2798 H 301.697 -1.82342 3.0074 0
M  V30 2799 H 301.571 -3.22407 1.95789 0
M  V30 2800 H 303.958 -2.74186 1.09116 0
M  V30 2801 H 304.039 -1.34585 2.17533 0
M  V30 2802 H 303.683 -2.90146 4.16867 0
M  V30 2803 H 303.613 -4.28971 3.05437 0
M  V30 2804 H 306.104 -2.8267 2.50811 0
M  V30 2805 H 306.417 -5.34661 5.57994 0
M  V30 2806 H 304.762 -4.81337 5.01338 0
M  V30 2807 H 307.953 -3.44491 3.16928 0
M  V30 2808 H 308.126 -4.59417 4.5699 0
M  V30 2809 N 301.532 -0.945985 -1.26051 0
M  V30 2810 C 302.778 -0.597002 -1.93814 0
M  V30 2811 C 303.111 0.862484 -1.73997 0
M  V30 2812 O 302.386 1.61769 -1.07986 0
M  V30 2813 C 302.669 -0.945937 -3.47454 0
M  V30 2814 C 302.522 -2.46052 -3.76535 0
M  V30 2815 C 303.841 -0.464785 -4.37639 0
M  V30 2816 H 300.96 -0.218366 -0.703907 0
M  V30 2817 H 303.602 -1.18107 -1.48831 0
M  V30 2818 H 301.752 -0.448902 -3.85898 0
M  V30 2819 H 303.424 -3.03065 -3.47778 0
M  V30 2820 H 301.667 -2.90194 -3.22444 0
M  V30 2821 H 302.338 -2.65517 -4.83947 0
M  V30 2822 H 304.814 -0.891016 -4.06448 0
M  V30 2823 H 303.69 -0.737712 -5.4392 0
M  V30 2824 H 303.951 0.635274 -4.37512 0
M  V30 2825 N 303.011 1.40521 -0.713556 0
M  V30 2826 C 303.974 2.29098 -0.0684347 0
M  V30 2827 C 304.974 1.45268 0.689472 0
M  V30 2828 O 306.164 1.66205 0.521677 0
M  V30 2829 C 303.296 3.28446 0.913024 0
M  V30 2830 H 304.489 2.87645 -0.84855 0
M  V30 2831 H 302.042 1.48809 -0.47809 0
M  V30 2832 H 302.777 2.74913 1.72027 0
M  V30 2833 H 302.562 3.90327 0.372472 0
M  V30 2834 H 304.052 3.94777 1.36165 0
M  V30 2835 N 304.489 0.459591 1.5075 0
M  V30 2836 C 305.905 0.113092 1.59199 0
M  V30 2837 C 306.105 -1.37951 1.46874 0
M  V30 2838 O 305.161 -2.15168 1.32132 0
M  V30 2839 C 306.474 0.653043 2.93523 0
M  V30 2840 C 308.022 0.615449 3.0689 0
M  V30 2841 C 308.497 1.13275 4.43771 0
M  V30 2842 N 309.988 1.09167 4.50152 0
M  V30 2843 C 310.723 1.46256 5.54434 0
M  V30 2844 N 310.219 1.90739 6.66026 0
M  V30 2845 N 312.012 1.37932 5.44914 0
M  V30 2846 H 304.163 1.43049 1.57005 0
M  V30 2847 H 306.426 0.590861 0.741341 0
M  V30 2848 H 306.132 1.69822 3.07983 0
M  V30 2849 H 306.006 0.0902132 3.77092 0
M  V30 2850 H 308.393 -0.420793 2.92084 0
M  V30 2851 H 308.474 1.21495 2.25106 0
M  V30 2852 H 308.118 2.16757 4.59324 0
M  V30 2853 H 308.048 0.509576 5.24129 0
M  V30 2854 H 310.539 0.76528 3.7007 0
M  V30 2855 H 310.852 2.17218 7.41644 0
M  V30 2856 H 309.197 1.94683 6.67176 0
M  V30 2857 H 312.388 1.0303 4.56621 0
M  V30 2858 H 312.561 1.67164 6.26067 0
M  V30 2859 N 305.967 -1.56429 0.191757 0
M  V30 2860 C 306.917 -2.15548 -0.743184 0
M  V30 2861 C 307.901 -1.09531 -1.17863 0
M  V30 2862 O 309.093 -1.35602 -1.13759 0
M  V30 2863 C 306.222 -2.81577 -1.96391 0
M  V30 2864 C 305.308 -3.9478 -1.54951 0
M  V30 2865 N 305.699 -4.98677 -0.845876 0
M  V30 2866 C 303.997 -4.06319 -1.83905 0
M  V30 2867 C 304.698 -5.78183 -0.638724 0
M  V30 2868 N 303.674 -5.30495 -1.18643 0
M  V30 2869 H 307.476 -2.9324 -0.196839 0
M  V30 2870 H 304.99 -1.62398 -0.0081603 0
M  V30 2871 H 306.987 -3.22321 -2.64415 0
M  V30 2872 H 305.647 -2.05371 -2.51501 0
M  V30 2873 H 306.658 -5.15464 -0.501704 0
M  V30 2874 H 303.335 -3.41238 -2.40548 0
M  V30 2875 H 304.725 -6.71851 -0.0807929 0
M  V30 2876 N 307.445 0.0818655 -1.57387 0
M  V30 2877 C 308.692 0.782914 -1.86753 0
M  V30 2878 C 309.02 1.78082 -0.782118 0
M  V30 2879 O 308.275 1.94426 0.22295 0
M  V30 2880 C 308.574 1.53513 -3.22752 0
M  V30 2881 C 308.24 0.678134 -4.45771 0
M  V30 2882 C 306.902 0.441929 -4.79166 0
M  V30 2883 C 309.254 0.0832243 -5.21134 0
M  V30 2884 C 306.582 -0.398833 -5.85343 0
M  V30 2885 C 308.934 -0.744935 -6.28199 0
M  V30 2886 C 307.598 -0.991107 -6.60101 0
M  V30 2887 H 306.868 0.286489 -0.683378 0
M  V30 2888 H 309.515 0.0439808 -1.91449 0
M  V30 2889 H 307.82 2.34599 -3.138 0
M  V30 2890 H 309.517 2.08218 -3.42705 0
M  V30 2891 H 306.107 0.872357 -4.19628 0
M  V30 2892 H 310.291 0.252847 -4.95655 0
M  V30 2893 H 305.547 -0.598405 -6.08465 0
M  V30 2894 H 309.721 -1.21271 -6.8576 0
M  V30 2895 H 307.348 -1.64437 -7.42202 0
M  V30 2896 N 308.923 1.53595 0.353017 0
M  V30 2897 C 310.151 1.74311 1.1146 0
M  V30 2898 C 310.566 0.477854 1.82653 0
M  V30 2899 O 309.923 -0.549977 1.74016 0
M  V30 2900 C 309.974 2.91694 2.13534 0
M  V30 2901 O 309.695 4.13325 1.45238 0
M  V30 2902 C 311.196 3.24384 3.02142 0
M  V30 2903 H 308.416 0.582669 0.332773 0
M  V30 2904 H 310.96 2.00386 0.408107 0
M  V30 2905 H 309.115 2.67977 2.79763 0
M  V30 2906 H 309.529 4.79148 2.13349 0
M  V30 2907 H 311.003 4.09893 3.69718 0
M  V30 2908 H 311.48 2.40282 3.67643 0
M  V30 2909 H 312.086 3.50073 2.41514 0
M  V30 2910 N 310.401 -0.613514 1.45168 0
M  V30 2911 C 311.348 -1.72456 1.53387 0
M  V30 2912 C 312.318 -1.6169 0.380191 0
M  V30 2913 O 313.503 -1.81356 0.592836 0
M  V30 2914 C 310.643 -3.10753 1.50088 0
M  V30 2915 C 309.756 -3.32368 2.75963 0
M  V30 2916 C 308.891 -4.60737 2.64376 0
M  V30 2917 C 307.93 -4.7559 3.85332 0
M  V30 2918 N 307.067 -5.95253 3.72315 0
M  V30 2919 H 311.907 -1.64768 2.48305 0
M  V30 2920 H 309.444 -0.803503 1.23216 0
M  V30 2921 H 311.402 -3.90758 1.46164 0
M  V30 2922 H 310.032 -3.17413 0.587243 0
M  V30 2923 H 309.084 -2.4618 2.89999 0
M  V30 2924 H 310.396 -3.39218 3.65695 0
M  V30 2925 H 309.55 -5.48928 2.58385 0
M  V30 2926 H 308.289 -4.56275 1.72233 0
M  V30 2927 H 307.294 -3.85824 3.91688 0
M  V30 2928 H 308.519 -4.81854 4.78533 0
M  V30 2929 H 306.465 -5.91847 2.82937 0
M  V30 2930 H 306.382 -6.03236 4.55677 0
M  V30 2931 H 307.65 -6.85958 3.70246 0
M  V30 2932 N 311.879 -1.3236 -0.855495 0
M  V30 2933 C 312.842 -1.21164 -1.94556 0
M  V30 2934 C 313.842 -0.134908 -1.60233 0
M  V30 2935 O 315.032 -0.385249 -1.69887 0
M  V30 2936 C 312.164 -0.863192 -3.29791 0
M  V30 2937 H 313.357 -2.18038 -2.05911 0
M  V30 2938 H 310.91 -1.16179 -1.04557 0
M  V30 2939 H 311.645 0.103769 -3.24134 0
M  V30 2940 H 311.43 -1.64166 -3.56078 0
M  V30 2941 H 312.92 -0.809156 -4.09686 0
M  V30 2942 N 313.357 1.07166 -1.15556 0
M  V30 2943 C 314.304 2.14417 -0.854055 0
M  V30 2944 C 315.274 1.64965 0.193806 0
M  V30 2945 O 316.459 1.90703 0.0609443 0
M  V30 2946 C 313.599 3.43304 -0.351574 0
M  V30 2947 C 312.712 4.06537 -1.46123 0
M  V30 2948 C 311.847 5.23266 -0.914677 0
M  V30 2949 C 310.886 5.78464 -2.00114 0
M  V30 2950 N 310.023 6.86521 -1.47083 0
M  V30 2951 H 314.863 2.39548 -1.77259 0
M  V30 2952 H 312.4 1.17543 -0.884425 0
M  V30 2953 H 314.358 4.17179 -0.0419409 0
M  V30 2954 H 312.988 3.18419 0.530037 0
M  V30 2955 H 312.04 3.30297 -1.88701 0
M  V30 2956 H 313.352 4.43567 -2.28144 0
M  V30 2957 H 312.506 6.04131 -0.557698 0
M  V30 2958 H 311.245 4.87658 -0.0636583 0
M  V30 2959 H 310.25 4.96243 -2.36692 0
M  V30 2960 H 311.475 6.16126 -2.85597 0
M  V30 2961 H 309.421 6.52849 -0.642198 0
M  V30 2962 H 309.338 7.22446 -2.22729 0
M  V30 2963 H 310.606 7.71087 -1.14215 0
M  V30 2964 N 314.835 0.952656 1.25548 0
M  V30 2965 C 315.765 0.489287 2.28316 0
M  V30 2966 C 316.746 -0.463359 1.63667 0
M  V30 2967 O 317.931 -0.36274 1.90782 0
M  V30 2968 C 315.061 -0.235603 3.465 0
M  V30 2969 C 314.015 0.631593 4.23314 0
M  V30 2970 C 313.341 -0.223923 5.34231 0
M  V30 2971 C 314.641 1.90871 4.86174 0
M  V30 2972 H 316.335 1.34822 2.67326 0
M  V30 2973 H 313.881 0.649728 1.28509 0
M  V30 2974 H 315.834 -0.570882 4.17515 0
M  V30 2975 H 314.558 -1.12877 3.06474 0
M  V30 2976 H 313.217 0.949929 3.54079 0
M  V30 2977 H 312.865 -1.11678 4.90446 0
M  V30 2978 H 312.565 0.35299 5.86539 0
M  V30 2979 H 314.089 -0.554214 6.0808 0
M  V30 2980 H 315.503 1.63997 5.49343 0
M  V30 2981 H 313.9 2.43112 5.4865 0
M  V30 2982 H 314.97 2.61304 4.08471 0
M  V30 2983 N 316.313 -1.40141 0.720998 0
M  V30 2984 C 317.541 -2.05096 0.272656 0
M  V30 2985 C 317.956 -1.54334 -1.0875 0
M  V30 2986 O 317.313 -0.702211 -1.6845 0
M  V30 2987 C 317.364 -3.60636 0.249835 0
M  V30 2988 O 317.085 -4.09526 1.55629 0
M  V30 2989 C 318.586 -4.42772 -0.216396 0
M  V30 2990 H 315.806 -0.659897 0.121558 0
M  V30 2991 H 318.35 -1.79449 0.980723 0
M  V30 2992 H 316.505 -3.85232 -0.409237 0
M  V30 2993 H 316.919 -5.03758 1.4604 0
M  V30 2994 H 318.393 -5.51702 -0.181212 0
M  V30 2995 H 318.87 -4.20756 -1.25941 0
M  V30 2996 H 319.476 -4.23294 0.412596 0
M  V30 2997 N 317.792 -0.46758 -1.50504 0
M  V30 2998 C 319.041 0.0902868 -2.01498 0
M  V30 2999 C 319.354 1.411 -1.35463 0
M  V30 3000 O 320.56 2.0536 -1.77594 0
M  V30 3001 C 319.016 0.21142 -3.59278 0
M  V30 3002 C 318.624 -1.10065 -4.34269 0
M  V30 3003 C 320.368 0.721433 -4.18325 0
M  V30 3004 C 318.275 -0.943505 -5.83825 0
M  V30 3005 H 317.205 0.037517 -0.753066 0
M  V30 3006 H 319.856 -0.601943 -1.73346 0
M  V30 3007 H 318.238 0.967352 -3.84003 0
M  V30 3008 H 319.412 -1.86726 -4.21272 0
M  V30 3009 H 317.727 -1.5415 -3.86816 0
M  V30 3010 H 320.324 0.85598 -5.27804 0
M  V30 3011 H 320.667 1.71186 -3.79475 0
M  V30 3012 H 321.2 0.0229843 -3.97793 0
M  V30 3013 H 317.939 -1.90719 -6.27141 0
M  V30 3014 H 317.459 -0.217213 -5.99407 0
M  V30 3015 H 319.138 -0.608715 -6.4413 0
M  V30 3016 N 319.27 1.56325 -0.20005 0
M  V30 3017 C 320.681 1.8408 0.31167 0
M  V30 3018 C 321.032 1.12087 1.61031 0
M  V30 3019 O 320.157 0.38332 2.12978 0
M  V30 3020 C 320.752 3.33932 0.57226 0
M  V30 3021 C 319.311 3.6208 1.02834 0
M  V30 3022 C 318.458 2.77186 0.079634 0
M  V30 3023 H 321.409 1.52939 -0.423729 0
M  V30 3024 H 321.43 3.52971 1.42096 0
M  V30 3025 H 320.942 3.86303 -0.37308 0
M  V30 3026 H 319.043 3.15147 1.98778 0
M  V30 3027 H 319.156 4.7023 0.917624 0
M  V30 3028 H 317.52 2.47951 0.582448 0
M  V30 3029 H 318.303 3.32347 -0.860238 0
M  V30 3030 N 320.748 -0.0735177 1.57428 0
M  V30 3031 C 321.997 -0.771809 1.86349 0
M  V30 3032 C 322.31 -1.78828 0.792452 0
M  V30 3033 O 323.516 -2.53602 0.96945 0
M  V30 3034 C 321.972 -1.42358 3.30548 0
M  V30 3035 C 321.58 -0.445761 4.45777 0
M  V30 3036 C 323.324 -2.10434 3.6867 0
M  V30 3037 C 321.231 -1.10335 5.81016 0
M  V30 3038 H 320.161 -0.291999 0.695164 0
M  V30 3039 H 322.812 -0.0250749 1.83483 0
M  V30 3040 H 321.194 -2.21852 3.28021 0
M  V30 3041 H 322.368 0.319239 4.59693 0
M  V30 3042 H 320.683 0.130457 4.16196 0
M  V30 3043 H 323.28 -2.60405 4.67004 0
M  V30 3044 H 323.623 -2.90298 2.98383 0
M  V30 3045 H 324.156 -1.37773 3.7318 0
M  V30 3046 H 320.895 -0.345061 6.54591 0
M  V30 3047 H 320.415 -1.83925 5.70904 0
M  V30 3048 H 322.094 -1.62367 6.26295 0
M  V30 3049 N 322.226 -1.5378 -0.344866 0
M  V30 3050 C 323.156 -1.84662 -1.42906 0
M  V30 3051 C 324.137 -0.701648 -1.54955 0
M  V30 3052 O 325.322 -0.953438 -1.69184 0
M  V30 3053 C 322.452 -2.05503 -2.79974 0
M  V30 3054 C 321.406 -3.21318 -2.82734 0
M  V30 3055 C 320.732 -3.2749 -4.22675 0
M  V30 3056 C 322.032 -4.59456 -2.48389 0
M  V30 3057 H 323.726 -2.75461 -1.17311 0
M  V30 3058 H 321.272 -1.32542 -0.562896 0
M  V30 3059 H 323.225 -2.25691 -3.55867 0
M  V30 3060 H 321.949 -1.11434 -3.07002 0
M  V30 3061 H 320.608 -3.00984 -2.09294 0
M  V30 3062 H 320.256 -2.31019 -4.4681 0
M  V30 3063 H 319.956 -4.05316 -4.25433 0
M  V30 3064 H 321.48 -3.49887 -5.00412 0
M  V30 3065 H 322.894 -4.79667 -3.13995 0
M  V30 3066 H 321.291 -5.39675 -2.62432 0
M  V30 3067 H 322.361 -4.63155 -1.4358 0
M  V30 3068 N 323.704 0.605807 -1.45491 0
M  V30 3069 C 324.934 1.38934 -1.52908 0
M  V30 3070 C 325.342 1.88513 -0.161086 0
M  V30 3071 O 324.685 1.62962 0.847891 0
M  V30 3072 C 324.747 2.62737 -2.45376 0
M  V30 3073 C 324.411 2.34785 -3.92078 0
M  V30 3074 C 325.408 1.95038 -4.8193 0
M  V30 3075 C 323.093 2.47642 -4.37011 0
M  V30 3076 C 325.087 1.68511 -6.14722 0
M  V30 3077 C 322.774 2.20728 -5.69844 0
M  V30 3078 C 323.772 1.81225 -6.58519 0
M  V30 3079 O 323.46 1.54627 -7.88889 0
M  V30 3080 H 323.192 0.431629 -0.520262 0
M  V30 3081 H 325.746 0.74573 -1.91384 0
M  V30 3082 H 323.976 3.29824 -2.01874 0
M  V30 3083 H 325.665 3.24783 -2.43456 0
M  V30 3084 H 326.431 1.84639 -4.48479 0
M  V30 3085 H 322.31 2.77356 -3.68232 0
M  V30 3086 H 325.854 1.37602 -6.83894 0
M  V30 3087 H 321.751 2.30744 -6.02849 0
M  V30 3088 H 322.519 1.68665 -8.00933 0
M  V30 3089 N 325.182 1.32811 0.848464 0
M  V30 3090 C 326.428 1.23907 1.60546 0
M  V30 3091 C 326.761 -0.197161 1.93197 0
M  V30 3092 O 326.036 -1.13596 1.5788 0
M  V30 3093 C 326.319 2.10489 2.92175 0
M  V30 3094 C 326.172 3.62522 2.66266 0
M  V30 3095 C 327.491 1.97075 3.93509 0
M  V30 3096 H 324.61 0.451459 0.58254 0
M  V30 3097 H 327.252 1.62818 0.979296 0
M  V30 3098 H 325.402 1.77434 3.45614 0
M  V30 3099 H 327.074 4.05821 2.19334 0
M  V30 3100 H 325.317 3.84879 2.00126 0
M  V30 3101 H 325.988 4.18437 3.6002 0
M  V30 3102 H 328.464 2.26045 3.49346 0
M  V30 3103 H 327.34 2.59923 4.83457 0
M  V30 3104 H 327.601 0.940186 4.31987 0
M  V30 3105 N 326.66 -1.06551 1.16123 0
M  V30 3106 C 327.607 -2.13961 0.865414 0
M  V30 3107 C 328.577 -1.65066 -0.185055 0
M  V30 3108 O 329.762 -1.90732 -0.05083 0
M  V30 3109 C 326.902 -3.43113 0.369776 0
M  V30 3110 C 326.015 -4.05756 1.48276 0
M  V30 3111 C 325.15 -5.22773 0.942414 0
M  V30 3112 C 324.189 -5.77395 2.03179 0
M  V30 3113 N 323.326 -6.85731 1.50721 0
M  V30 3114 H 328.166 -2.38605 1.78527 0
M  V30 3115 H 325.703 -1.17072 0.890646 0
M  V30 3116 H 327.661 -4.17151 0.0640643 0
M  V30 3117 H 326.291 -3.18695 -0.513143 0
M  V30 3118 H 325.343 -3.29292 1.9045 0
M  V30 3119 H 326.655 -4.42351 2.30493 0
M  V30 3120 H 325.809 -6.03827 0.589729 0
M  V30 3121 H 324.548 -4.87618 0.0895191 0
M  V30 3122 H 323.553 -4.94981 2.3932 0
M  V30 3123 H 324.778 -6.14603 2.8886 0
M  V30 3124 H 322.724 -6.52499 0.676811 0
M  V30 3125 H 322.641 -7.21254 2.26557 0
M  V30 3126 H 323.909 -7.7047 1.18303 0
M  V30 3127 N 328.138 -0.959301 -1.25041 0
M  V30 3128 C 329.384 -0.617525 -1.9317 0
M  V30 3129 C 329.717 0.843981 -1.74902 0
M  V30 3130 O 328.992 1.60615 -1.09696 0
M  V30 3131 C 329.275 -0.982736 -3.46431 0
M  V30 3132 C 329.128 -2.50032 -3.73904 0
M  V30 3133 C 330.447 -0.511176 -4.37121 0
M  V30 3134 H 327.566 -0.22582 -0.701552 0
M  V30 3135 H 330.208 -1.19679 -1.4757 0
M  V30 3136 H 328.358 -0.489806 -3.854 0
M  V30 3137 H 330.03 -3.06737 -3.44544 0
M  V30 3138 H 328.273 -2.93598 -3.19348 0
M  V30 3139 H 328.944 -2.70635 -4.81103 0
M  V30 3140 H 331.42 -0.934075 -4.0548 0
M  V30 3141 H 330.296 -0.795361 -5.43107 0
M  V30 3142 H 330.557 0.588834 -4.38161 0
M  V30 3143 N 329.616 1.39756 -0.72842 0
M  V30 3144 C 330.846 2.04651 -0.283117 0
M  V30 3145 C 331.254 1.5502 1.08469 0
M  V30 3146 O 330.597 0.707343 1.69536 0
M  V30 3147 C 330.659 3.58947 -0.199309 0
M  V30 3148 C 330.323 4.31525 -1.5045 0
M  V30 3149 C 331.32 4.5861 -2.44894 0
M  V30 3150 C 329.005 4.70195 -1.76698 0
M  V30 3151 C 330.999 5.23366 -3.63822 0
M  V30 3152 C 328.686 5.3468 -2.95906 0
M  V30 3153 C 329.684 5.61198 -3.89289 0
M  V30 3154 O 329.372 6.24347 -5.06404 0
M  V30 3155 H 329.104 0.664777 -0.122666 0
M  V30 3156 H 331.658 1.79913 -0.990987 0
M  V30 3157 H 329.888 3.82556 0.56461 0
M  V30 3158 H 331.577 4.0534 0.213125 0
M  V30 3159 H 332.343 4.29187 -2.25883 0
M  V30 3160 H 328.222 4.48916 -1.04859 0
M  V30 3161 H 331.766 5.4398 -4.36728 0
M  V30 3162 H 327.663 5.63524 -3.14819 0
M  V30 3163 H 328.431 6.42842 -5.06652 0
M  V30 3164 N 331.094 0.475555 1.50254 0
M  V30 3165 C 332.027 -0.362381 2.25304 0
M  V30 3166 C 333.005 -0.992393 1.28803 0
M  V30 3167 O 334.189 -1.02746 1.58036 0
M  V30 3168 C 331.316 -1.50813 3.03271 0
M  V30 3169 C 330.362 -0.995044 4.1473 0
M  V30 3170 S 331.195 0.0938436 5.35418 0
M  V30 3171 C 332.351 -1.05567 6.16933 0
M  V30 3172 H 332.584 0.274686 2.96028 0
M  V30 3173 H 330.117 0.260495 1.52187 0
M  V30 3174 H 332.075 -2.16476 3.48781 0
M  V30 3175 H 330.736 -2.11672 2.32064 0
M  V30 3176 H 329.929 -1.85293 4.68703 0
M  V30 3177 H 329.531 -0.416052 3.71679 0
M  V30 3178 H 331.823 -1.96636 6.48337 0
M  V30 3179 H 332.766 -0.555109 7.05921 0
M  V30 3180 H 333.174 -1.31151 5.49053 0
M  V30 3181 N 332.573 -1.56217 0.208337 0
M  V30 3182 C 333.803 -2.02043 -0.431523 0
M  V30 3183 C 334.211 -1.08755 -1.54819 0
M  V30 3184 O 333.554 -0.0870009 -1.83494 0
M  V30 3185 C 333.616 -3.44239 -1.03633 0
M  V30 3186 C 333.28 -4.56965 -0.0567502 0
M  V30 3187 C 334.277 -5.14624 0.738773 0
M  V30 3188 C 331.962 -5.02266 0.0581736 0
M  V30 3189 C 333.956 -6.16045 1.63605 0
M  V30 3190 C 331.643 -6.03528 0.959001 0
M  V30 3191 C 332.641 -6.60293 1.7465 0
M  V30 3192 O 332.329 -7.59586 2.6322 0
M  V30 3193 H 332.061 -0.666772 -0.111313 0
M  V30 3194 H 334.615 -2.02919 0.318277 0
M  V30 3195 H 332.845 -3.40391 -1.83497 0
M  V30 3196 H 334.534 -3.73793 -1.58221 0
M  V30 3197 H 335.3 -4.80483 0.660364 0
M  V30 3198 H 331.179 -4.57771 -0.544633 0
M  V30 3199 H 334.723 -6.60279 2.25116 0
M  V30 3200 H 330.62 -6.37092 1.03848 0
M  V30 3201 H 331.388 -7.77057 2.57148 0
M  V30 3202 N 334.051 0.0651679 -1.57465 0
M  V30 3203 C 334.983 1.10359 -2.00882 0
M  V30 3204 C 335.996 1.346 -0.915788 0
M  V30 3205 O 337.185 1.32723 -1.1936 0
M  V30 3206 C 334.285 2.45312 -2.33828 0
M  V30 3207 C 333.458 2.40934 -3.65061 0
M  V30 3208 C 332.517 3.58047 -3.85602 0
M  V30 3209 O 331.543 3.39175 -4.57109 0
M  V30 3210 N 332.745 4.78637 -3.28462 0
M  V30 3211 H 335.51 0.733807 -2.90578 0
M  V30 3212 H 333.071 0.253719 -1.599 0
M  V30 3213 H 335.063 3.22314 -2.44737 0
M  V30 3214 H 333.633 2.74267 -1.49988 0
M  V30 3215 H 332.853 1.49273 -3.64844 0
M  V30 3216 H 334.141 2.35117 -4.51218 0
M  V30 3217 H 333.539 4.96872 -2.70433 0
M  V30 3218 H 332.096 5.53127 -3.44809 0
M  V30 3219 N 335.529 1.53961 0.336706 0
M  V30 3220 C 336.459 1.85417 1.41925 0
M  V30 3221 C 337.44 0.709856 1.5458 0
M  V30 3222 O 338.625 0.962396 1.68676 0
M  V30 3223 C 335.755 2.06985 2.78881 0
M  V30 3224 C 334.709 3.22813 2.81026 0
M  V30 3225 C 334.035 3.29727 4.20932 0
M  V30 3226 C 335.335 4.60767 2.45949 0
M  V30 3227 H 337.029 2.76079 1.15848 0
M  V30 3228 H 334.575 1.32839 0.555859 0
M  V30 3229 H 336.528 2.27575 3.54665 0
M  V30 3230 H 335.252 1.13061 3.06406 0
M  V30 3231 H 333.911 3.0209 2.07695 0
M  V30 3232 H 333.559 2.33385 4.45579 0
M  V30 3233 H 333.259 4.07566 4.23277 0
M  V30 3234 H 334.783 3.52536 4.98549 0
M  V30 3235 H 336.197 4.81325 3.11446 0
M  V30 3236 H 334.594 5.4106 2.59566 0
M  V30 3237 H 335.664 4.6391 1.41122 0
M  V30 3238 N 337.007 -0.598083 1.45811 0
M  V30 3239 C 338.254 -1.35681 1.50323 0
M  V30 3240 C 338.582 -1.9393 0.148739 0
M  V30 3241 O 337.837 -1.76094 -0.853787 0
M  V30 3242 C 338.136 -2.51669 2.53766 0
M  V30 3243 C 337.802 -2.11508 3.98215 0
M  V30 3244 C 336.464 -2.0027 4.37545 0
M  V30 3245 C 338.816 -1.80308 4.89018 0
M  V30 3246 C 336.144 -1.56067 5.65562 0
M  V30 3247 C 338.496 -1.37589 6.17456 0
M  V30 3248 C 337.16 -1.24916 6.55708 0
M  V30 3249 H 336.43 -0.496492 0.550069 0
M  V30 3250 H 339.077 -0.675052 1.79207 0
M  V30 3251 H 337.382 -3.25225 2.18486 0
M  V30 3252 H 339.079 -3.09895 2.54492 0
M  V30 3253 H 335.669 -2.21185 3.67117 0
M  V30 3254 H 339.853 -1.87884 4.59362 0
M  V30 3255 H 335.109 -1.44886 5.93985 0
M  V30 3256 H 339.283 -1.12495 6.87254 0
M  V30 3257 H 336.91 -0.904386 7.54801 0
M  V30 3258 N 338.485 -1.33259 -0.841409 0
M  V30 3259 C 339.901 -1.12538 -1.13169 0
M  V30 3260 C 340.101 0.0854037 -2.01319 0
M  V30 3261 O 339.157 0.766417 -2.40587 0
M  V30 3262 C 340.47 -2.41156 -1.79623 0
M  V30 3263 C 342.018 -2.47038 -1.922 0
M  V30 3264 C 342.493 -3.7561 -2.6207 0
M  V30 3265 N 343.984 -3.76667 -2.69585 0
M  V30 3266 C 344.719 -4.72861 -3.2433 0
M  V30 3267 N 344.215 -5.79428 -3.79783 0
M  V30 3268 N 346.008 -4.6034 -3.22558 0
M  V30 3269 H 338.159 -2.10868 -0.254676 0
M  V30 3270 H 340.422 -0.931615 -0.175493 0
M  V30 3271 H 340.128 -3.29747 -1.22311 0
M  V30 3272 H 340.002 -2.53114 -2.79666 0
M  V30 3273 H 342.389 -1.58898 -2.48667 0
M  V30 3274 H 342.47 -2.39022 -0.911148 0
M  V30 3275 H 342.114 -4.64131 -2.06263 0
M  V30 3276 H 342.044 -3.80902 -3.63622 0
M  V30 3277 H 344.535 -2.99648 -2.30259 0
M  V30 3278 H 344.848 -6.48867 -4.19752 0
M  V30 3279 H 343.193 -5.83166 -3.78078 0
M  V30 3280 H 346.384 -3.76244 -2.78492 0
M  V30 3281 H 346.557 -5.35478 -3.64921 0
M  V30 3282 N 339.963 1.05934 -1.16686 0
M  V30 3283 C 341.188 1.83029 -0.975455 0
M  V30 3284 C 341.613 1.82096 0.471452 0
M  V30 3285 O 340.971 1.22443 1.33706 0
M  V30 3286 C 341.019 3.27372 -1.51195 0
M  V30 3287 O 340.123 4.06054 -0.720701 0
M  V30 3288 H 339.464 0.566194 -0.346872 0
M  V30 3289 H 341.994 1.33541 -1.55009 0
M  V30 3290 H 342.004 3.78186 -1.53099 0
M  V30 3291 H 340.679 3.27366 -2.56523 0
M  V30 3292 H 339.256 3.64812 -0.772458 0
M  V30 3293 N 341.441 0.965919 1.2453 0
M  V30 3294 C 342.371 0.513476 2.27784 0
M  V30 3295 C 343.352 -0.445974 1.6415 0
M  V30 3296 O 344.537 -0.342485 1.91156 0
M  V30 3297 C 341.667 -0.198839 3.4673 0
M  V30 3298 C 340.621 0.676456 4.2262 0
M  V30 3299 C 339.947 -0.167248 5.34438 0
M  V30 3300 C 341.247 1.96017 4.84123 0
M  V30 3301 H 342.941 1.3765 2.65881 0
M  V30 3302 H 340.487 0.663321 1.27813 0
M  V30 3303 H 342.44 -0.526567 4.18097 0
M  V30 3304 H 341.164 -1.0962 3.07654 0
M  V30 3305 H 339.823 0.98743 3.53052 0
M  V30 3306 H 339.471 -1.0647 4.91603 0
M  V30 3307 H 339.171 0.415181 5.86131 0
M  V30 3308 H 340.695 -0.489688 6.08633 0
M  V30 3309 H 342.109 1.69814 5.47573 0
M  V30 3310 H 340.506 2.48918 5.4604 0
M  V30 3311 H 341.576 2.65622 4.05676 0
M  V30 3312 N 342.919 -1.39368 0.735821 0
M  V30 3313 C 343.882 -2.2896 0.104874 0
M  V30 3314 C 344.882 -1.46347 -0.666274 0
M  V30 3315 O 346.072 -1.67014 -0.49517 0
M  V30 3316 C 343.204 -3.29857 -0.860656 0
M  V30 3317 H 344.397 -2.86259 0.894205 0
M  V30 3318 H 341.95 -1.48029 0.501704 0
M  V30 3319 H 342.685 -2.77615 -1.67631 0
M  V30 3320 H 342.47 -3.9087 -0.310327 0
M  V30 3321 H 343.96 -3.96893 -1.29867 0
M  V30 3322 N 344.397 -0.483516 -1.5 0
M  V30 3323 C 345.627 0.0643896 -2.065 0
M  V30 3324 C 346.035 1.32949 -1.34615 0
M  V30 3325 O 345.378 1.79003 -0.412756 0
M  V30 3326 C 345.44 0.405983 -3.572 0
M  V30 3327 C 345.104 -0.758875 -4.50655 0
M  V30 3328 C 346.101 -1.64445 -4.93208 0
M  V30 3329 C 343.786 -0.952725 -4.93182 0
M  V30 3330 C 345.78 -2.70818 -5.77006 0
M  V30 3331 C 343.467 -2.01966 -5.76761 0
M  V30 3332 C 344.465 -2.89574 -6.18576 0
M  V30 3333 O 344.153 -3.94429 -7.00486 0
M  V30 3334 H 343.885 -0.00934786 -0.675935 0
M  V30 3335 H 346.439 -0.674959 -1.93993 0
M  V30 3336 H 344.669 1.19869 -3.67652 0
M  V30 3337 H 346.358 0.890433 -3.96013 0
M  V30 3338 H 347.124 -1.50643 -4.61012 0
M  V30 3339 H 343.003 -0.280247 -4.60147 0
M  V30 3340 H 346.547 -3.3923 -6.09565 0
M  V30 3341 H 342.444 -2.1577 -6.0837 0
M  V30 3342 H 343.212 -3.91568 -7.1876 0
M  V30 3343 N 345.875 1.56104 -0.216619 0
M  V30 3344 C 347.124 1.97348 0.416744 0
M  V30 3345 C 347.437 1.10715 1.6125 0
M  V30 3346 O 348.643 1.41836 2.31506 0
M  V30 3347 C 347.099 3.51059 0.792835 0
M  V30 3348 C 346.707 4.46387 -0.379828 0
M  V30 3349 C 348.451 4.01026 1.39208 0
M  V30 3350 C 346.358 5.91397 0.0184223 0
M  V30 3351 H 345.288 0.736942 0.159475 0
M  V30 3352 H 347.939 1.80827 -0.31205 0
M  V30 3353 H 346.321 3.63162 1.57891 0
M  V30 3354 H 347.495 4.46029 -1.15737 0
M  V30 3355 H 345.81 4.06734 -0.891979 0
M  V30 3356 H 348.407 5.0686 1.70286 0
M  V30 3357 H 348.75 3.46587 2.30614 0
M  V30 3358 H 349.283 3.92125 0.669537 0
M  V30 3359 H 346.022 6.49807 -0.862002 0
M  V30 3360 H 345.542 5.94961 0.760384 0
M  V30 3361 H 347.221 6.45455 0.446818 0
M  V30 3362 N 347.353 -0.0568162 1.57498 0
M  V30 3363 C 348.303 -1.07315 2.01166 0
M  V30 3364 C 349.287 -1.33632 0.896171 0
M  V30 3365 O 350.479 -1.33682 1.16009 0
M  V30 3366 C 347.608 -2.38257 2.47161 0
M  V30 3367 C 346.694 -2.1515 3.65474 0
M  V30 3368 N 347.085 -1.62014 4.7915 0
M  V30 3369 C 345.383 -2.45559 3.72313 0
M  V30 3370 C 346.084 -1.54069 5.60926 0
M  V30 3371 N 345.06 -2.00652 5.05213 0
M  V30 3372 H 348.862 -0.655878 2.86488 0
M  V30 3373 H 346.376 -0.263635 1.60246 0
M  V30 3374 H 348.373 -3.11845 2.76691 0
M  V30 3375 H 347.033 -2.80687 1.63232 0
M  V30 3376 H 348.044 -1.30667 5.01145 0
M  V30 3377 H 344.721 -2.91253 2.99129 0
M  V30 3378 H 346.111 -1.13712 6.62208 0
M  V30 3379 N 348.832 -1.54138 -0.328536 0
M  V30 3380 C 350.057 -1.76378 -1.09112 0
M  V30 3381 C 350.482 -0.508596 -1.81094 0
M  V30 3382 O 349.84 0.539598 -1.73084 0
M  V30 3383 C 349.888 -2.95358 -2.06872 0
M  V30 3384 O 348.992 -2.66556 -3.14677 0
M  V30 3385 H 348.333 -0.584614 -0.314838 0
M  V30 3386 H 350.863 -2.01146 -0.374348 0
M  V30 3387 H 350.873 -3.22566 -2.4983 0
M  V30 3388 H 349.548 -3.86385 -1.5388 0
M  V30 3389 H 348.125 -2.50282 -2.7643 0
M  V30 3390 N 350.31 0.590341 -1.46126 0
M  V30 3391 C 351.242 1.71427 -1.52136 0
M  V30 3392 C 352.255 1.57542 -0.41042 0
M  V30 3393 O 353.444 1.65106 -0.678389 0
M  V30 3394 C 350.544 3.09605 -1.37834 0
M  V30 3395 C 349.717 3.49566 -2.62912 0
M  V30 3396 C 348.776 4.66773 -2.42918 0
M  V30 3397 O 347.802 4.73019 -3.1661 0
M  V30 3398 N 349.004 5.61161 -1.4859 0
M  V30 3399 H 351.769 1.66728 -2.49042 0
M  V30 3400 H 349.33 0.776113 -1.42085 0
M  V30 3401 H 351.322 3.85796 -1.22243 0
M  V30 3402 H 349.892 3.08714 -0.491393 0
M  V30 3403 H 349.112 2.63158 -2.93499 0
M  V30 3404 H 350.4 3.73028 -3.46017 0
M  V30 3405 H 349.798 5.58844 -0.87808 0
M  V30 3406 H 348.355 6.36814 -1.38965 0
M  V30 3407 N 351.788 1.33704 0.83433 0
M  V30 3408 C 353.036 1.25169 1.58673 0
M  V30 3409 C 353.357 -0.18127 1.94156 0
M  V30 3410 O 352.627 -1.11113 1.6134 0
M  V30 3411 H 351.207 0.4603 0.58833 0
M  V30 3412 H 353.869 1.67478 0.996847 0
M  V30 3413 H 352.965 1.84856 2.51465 0
M  V30 3414 N 353.266 -1.05314 1.17247 0
M  V30 3415 C 354.512 -1.78557 0.961513 0
M  V30 3416 C 354.845 -1.87419 -0.508697 0
M  V30 3417 O 354.12 -1.37307 -1.37757 0
M  V30 3418 C 354.403 -3.22514 1.60176 0
M  V30 3419 C 354.256 -3.21673 3.14399 0
M  V30 3420 C 355.575 -4.20318 1.30463 0
M  V30 3421 H 352.694 -0.6482 0.350723 0
M  V30 3422 H 355.336 -1.23102 1.44727 0
M  V30 3423 H 353.486 -3.69867 1.18871 0
M  V30 3424 H 355.158 -2.82405 3.64753 0
M  V30 3425 H 353.401 -2.60048 3.47214 0
M  V30 3426 H 354.072 -4.23271 3.54324 0
M  V30 3427 H 356.548 -3.81454 1.66229 0
M  V30 3428 H 355.424 -5.19289 1.77848 0
M  V30 3429 H 355.685 -4.41526 0.22521 0
M  V30 3430 N 354.744 -0.972509 -1.24016 0
M  V30 3431 C 355.984 -0.644951 -1.93958 0
M  V30 3432 C 356.348 0.80559 -1.74282 0
M  V30 3433 O 357.549 1.2436 -2.38302 0
M  V30 3434 C 355.82 -1.01521 -3.42678 0
M  V30 3435 S 357.379 -0.802927 -4.31391 0
M  V30 3436 H 354.197 -0.236452 -0.670531 0
M  V30 3437 H 356.799 -1.25048 -1.50277 0
M  V30 3438 H 355.503 -2.06769 -3.54506 0
M  V30 3439 H 355.034 -0.400648 -3.91355 0
M  V30 3440 H 357.049 0.317256 -4.95185 0
M  V30 3441 N 356.222 1.38976 -0.743202 0
M  V30 3442 C 357.172 2.27843 -0.084513 0
M  V30 3443 C 358.156 1.44677 0.704094 0
M  V30 3444 O 359.348 1.67511 0.571755 0
M  V30 3445 C 356.477 3.33466 0.815781 0
M  V30 3446 C 355.563 4.24095 0.0208844 0
M  V30 3447 N 355.954 4.95609 -1.0102 0
M  V30 3448 C 354.252 4.45303 0.249293 0
M  V30 3449 C 354.953 5.62287 -1.49024 0
M  V30 3450 N 353.929 5.37571 -0.807377 0
M  V30 3451 H 357.731 2.80593 -0.87436 0
M  V30 3452 H 355.245 1.51755 -0.578283 0
M  V30 3453 H 357.242 3.96008 1.30321 0
M  V30 3454 H 355.902 2.82276 1.6047 0
M  V30 3455 H 356.913 4.98849 -1.39176 0
M  V30 3456 H 353.59 4.0504 1.01237 0
M  V30 3457 H 354.98 6.29519 -2.34853 0
M  V30 3458 N 357.7 0.491464 1.49741 0
M  V30 3459 C 359.116 0.146835 1.58923 0
M  V30 3460 C 359.316 -1.34804 1.49767 0
M  V30 3461 O 358.372 -2.12317 1.36667 0
M  V30 3462 C 359.685 0.715157 2.92072 0
M  V30 3463 C 361.233 0.680407 3.05515 0
M  V30 3464 C 361.708 1.22663 4.41269 0
M  V30 3465 N 363.199 1.18691 4.47735 0
M  V30 3466 C 363.934 1.57984 5.51207 0
M  V30 3467 N 363.43 2.04824 6.6183 0
M  V30 3468 N 365.223 1.49459 5.41866 0
M  V30 3469 H 357.374 1.46347 1.53936 0
M  V30 3470 H 359.637 0.606453 0.728642 0
M  V30 3471 H 359.343 1.76317 3.04311 0
M  V30 3472 H 359.217 0.17018 3.76816 0
M  V30 3473 H 361.604 -0.358743 2.92911 0
M  V30 3474 H 361.685 1.26242 2.22478 0
M  V30 3475 H 361.329 2.26451 4.54623 0
M  V30 3476 H 361.259 0.620637 5.2293 0
M  V30 3477 H 363.75 0.843605 3.68364 0
M  V30 3478 H 364.063 2.32901 7.3687 0
M  V30 3479 H 362.408 2.08791 6.62896 0
M  V30 3480 H 365.599 1.12692 4.54333 0
M  V30 3481 H 365.772 1.80406 6.22381 0
M  V30 3482 N 359.178 -1.55987 0.224894 0
M  V30 3483 C 360.455 -1.90232 -0.455083 0
M  V30 3484 C 360.835 -1.14269 -1.77499 0
M  V30 3485 O 360.183 -0.253079 -2.27094 0
M  V30 3486 C 360.393 -3.42993 -0.644758 0
M  V30 3487 C 361.741 -4.13821 -0.950669 0
M  V30 3488 O 362.765 -3.4861 -0.731423 0
M  V30 3489 O 361.624 -5.29128 -1.36695 0
M  V30 3490 H 358.718 -0.79108 -0.241084 0
M  V30 3491 H 361.264 -1.67581 0.267327 0
M  V30 3492 H 360.036 -3.90252 0.28613 0
M  V30 3493 H 359.659 -3.71434 -1.41853 0
M  V30 3494 N 360.656 0.0484629 -1.57525 0
M  V30 3495 C 361.905 0.742065 -1.87553 0
M  V30 3496 C 362.218 1.77545 -0.820802 0
M  V30 3497 O 363.424 2.52027 -1.00967 0
M  V30 3498 C 361.88 1.37081 -3.32771 0
M  V30 3499 C 361.488 0.374786 -4.4643 0
M  V30 3500 C 363.232 2.04542 -3.71972 0
M  V30 3501 C 361.139 1.01077 -5.82698 0
M  V30 3502 H 360.069 0.280903 -0.699721 0
M  V30 3503 H 362.72 -0.00411877 -1.835 0
M  V30 3504 H 361.102 2.16605 -3.31509 0
M  V30 3505 H 362.276 -0.392331 -4.59127 0
M  V30 3506 H 360.591 -0.196653 -4.15935 0
M  V30 3507 H 363.188 2.52943 -4.71088 0
M  V30 3508 H 363.531 2.85515 -3.02964 0
M  V30 3509 H 364.064 1.31819 -3.75325 0
M  V30 3510 H 360.803 0.240878 -6.55057 0
M  V30 3511 H 360.323 1.74819 -5.73758 0
M  V30 3512 H 362.002 1.52383 -6.28799 0
M  V30 3513 N 362.134 1.5431 0.320358 0
M  V30 3514 C 363.081 1.83918 1.39438 0
M  V30 3515 C 364.051 0.686525 1.51248 0
M  V30 3516 O 365.236 0.933269 1.66417 0
M  V30 3517 C 362.376 2.075 2.75749 0
M  V30 3518 C 361.489 3.35177 2.72544 0
M  V30 3519 C 360.624 3.48704 4.00723 0
M  V30 3520 C 359.663 4.70244 3.91838 0
M  V30 3521 N 358.8 4.80679 5.11754 0
M  V30 3522 H 363.64 2.75544 1.13489 0
M  V30 3523 H 361.177 1.36459 0.549309 0
M  V30 3524 H 363.135 2.19166 3.54996 0
M  V30 3525 H 361.765 1.19163 3 0
M  V30 3526 H 360.817 3.32233 1.85271 0
M  V30 3527 H 362.129 4.24534 2.61863 0
M  V30 3528 H 361.283 3.59928 4.88402 0
M  V30 3529 H 360.022 2.57445 4.14214 0
M  V30 3530 H 359.027 4.59072 3.02544 0
M  V30 3531 H 360.252 5.6289 3.7991 0
M  V30 3532 H 358.198 3.92337 5.25745 0
M  V30 3533 H 358.115 5.64007 5.0342 0
M  V30 3534 H 359.383 4.96239 6.01138 0
M  V30 3535 N 363.613 -0.582584 1.46437 0
M  V30 3536 C 365.024 -1.1647 1.45916 0
M  V30 3537 C 365.375 -1.95177 0.200077 0
M  V30 3538 O 364.5 -2.04874 -0.696819 0
M  V30 3539 C 365.095 -2.11885 2.64367 0
M  V30 3540 C 363.654 -2.65421 2.66887 0
M  V30 3541 C 362.801 -1.41294 2.38603 0
M  V30 3542 H 365.752 -0.370514 1.54314 0
M  V30 3543 H 365.773 -2.9535 2.39892 0
M  V30 3544 H 365.285 -1.54573 3.5599 0
M  V30 3545 H 363.386 -3.26602 1.79338 0
M  V30 3546 H 363.499 -3.08147 3.66854 0
M  V30 3547 H 361.863 -1.71109 1.88663 0
M  V30 3548 H 362.646 -0.858125 3.32402 0
M  V30 3549 N 365.091 -1.34144 -0.827227 0
M  V30 3550 C 366.023 -1.21206 -1.9453 0
M  V30 3551 C 367.036 -0.140176 -1.62195 0
M  V30 3552 O 368.225 -0.391647 -1.7415 0
M  V30 3553 C 365.325 -0.839141 -3.28347 0
M  V30 3554 C 364.498 -2.0051 -3.88734 0
M  V30 3555 C 363.557 -1.61128 -5.00923 0
M  V30 3556 O 362.583 -2.32726 -5.19449 0
M  V30 3557 N 363.785 -0.522958 -5.7814 0
M  V30 3558 H 366.55 -2.17525 -2.06162 0
M  V30 3559 H 364.111 -1.27043 -1.00358 0
M  V30 3560 H 366.103 -0.557556 -4.00841 0
M  V30 3561 H 364.673 0.0337293 -3.12582 0
M  V30 3562 H 363.893 -2.45166 -3.08686 0
M  V30 3563 H 365.181 -2.78498 -4.25812 0
M  V30 3564 H 364.579 0.0723518 -5.65654 0
M  V30 3565 H 363.136 -0.301089 -6.51104 0
M  V30 3566 N 366.569 1.04691 -1.17803 0
M  V30 3567 C 367.517 2.14665 -0.895635 0
M  V30 3568 C 368.511 1.68806 0.141679 0
M  V30 3569 O 369.717 1.79999 -0.00587914 0
M  V30 3570 H 366.092 0.701038 -0.272121 0
M  V30 3571 H 368.063 2.35685 -1.83017 0
M  V30 3572 C 366.812 3.45019 -0.430962 0
M  V30 3573 H 366.135 3.8071 -1.22064 0
M  V30 3574 H 367.575 4.23125 -0.272301 0
M  V30 3575 C 366.034 3.25943 0.852207 0
M  V30 3576 O 366.564 3.5296 1.91786 0
M  V30 3577 N 364.77 2.79304 0.802346 0
M  V30 3578 H 364.317 2.57518 -0.0650788 0
M  V30 3579 H 364.275 2.66921 1.66134 0
M  V30 3580 N 368.047 0.979072 1.23499 0
M  V30 3581 C 368.977 0.537606 2.27227 0
M  V30 3582 C 369.958 -0.428539 1.64613 0
M  V30 3583 O 371.143 -0.322191 1.91509 0
M  V30 3584 C 368.273 -0.162052 3.46922 0
M  V30 3585 C 367.227 0.721242 4.21879 0
M  V30 3586 C 366.553 -0.110555 5.34586 0
M  V30 3587 C 367.853 2.01141 4.82016 0
M  V30 3588 H 369.547 1.40462 2.64406 0
M  V30 3589 H 367.093 0.67684 1.27102 0
M  V30 3590 H 369.046 -0.482192 4.18632 0
M  V30 3591 H 367.77 -1.06351 3.08799 0
M  V30 3592 H 366.429 1.02482 3.51984 0
M  V30 3593 H 366.077 -1.0125 4.92704 0
M  V30 3594 H 365.777 0.477325 5.85658 0
M  V30 3595 H 367.301 -0.425107 6.09118 0
M  V30 3596 H 368.715 1.75612 5.45741 0
M  V30 3597 H 367.112 2.54695 5.43369 0
M  V30 3598 H 368.182 2.69909 4.02836 0
M  V30 3599 N 369.525 -1.3858 0.750561 0
M  V30 3600 C 370.455 -2.33102 0.136237 0
M  V30 3601 C 371.436 -1.54713 -0.706965 0
M  V30 3602 O 372.621 -1.83043 -0.648769 0
M  V30 3603 C 369.751 -3.38882 -0.760017 0
M  V30 3604 C 368.705 -4.27995 -0.0197785 0
M  V30 3605 C 368.031 -5.24605 -1.03408 0
M  V30 3606 C 369.331 -5.09554 1.14684 0
M  V30 3607 H 371.025 -2.84726 0.925822 0
M  V30 3608 H 368.571 -1.36898 0.446654 0
M  V30 3609 H 370.524 -4.0397 -1.19943 0
M  V30 3610 H 369.248 -2.85734 -1.58189 0
M  V30 3611 H 367.907 -3.64409 0.400184 0
M  V30 3612 H 367.555 -4.67746 -1.84994 0
M  V30 3613 H 367.255 -5.85081 -0.543464 0
M  V30 3614 H 368.779 -5.9257 -1.47288 0
M  V30 3615 H 370.193 -5.67899 0.785118 0
M  V30 3616 H 368.59 -5.7925 1.56812 0
M  V30 3617 H 369.66 -4.4347 1.96118 0
M  V30 3618 N 371.003 -0.499398 -1.49478 0
M  V30 3619 C 372.249 0.0457576 -2.02748 0
M  V30 3620 C 372.582 1.36793 -1.37846 0
M  V30 3621 O 371.857 1.87596 -0.513601 0
M  V30 3622 C 372.14 0.199986 -3.59544 0
M  V30 3623 C 371.993 -1.1452 -4.34977 0
M  V30 3624 C 373.312 0.94137 -4.29914 0
M  V30 3625 H 370.431 0.0151552 -0.736844 0
M  V30 3626 H 373.073 -0.650498 -1.78518 0
M  V30 3627 H 371.223 0.793007 -3.8032 0
M  V30 3628 H 372.895 -1.77697 -4.25701 0
M  V30 3629 H 371.138 -1.73488 -3.97598 0
M  V30 3630 H 371.809 -0.990607 -5.43039 0
M  V30 3631 H 374.285 0.43844 -4.13784 0
M  V30 3632 H 373.161 1.01812 -5.39375 0
M  V30 3633 H 373.422 1.98471 -3.95046 0
M  V30 3634 N 372.481 1.55866 -0.233164 0
M  V30 3635 C 373.758 1.90471 0.444988 0
M  V30 3636 C 374.138 1.15209 1.7689 0
M  V30 3637 O 373.486 0.265119 2.26957 0
M  V30 3638 C 373.696 3.4333 0.626559 0
M  V30 3639 C 375.044 4.14319 0.92871 0
M  V30 3640 O 376.068 3.48993 0.712926 0
M  V30 3641 O 374.927 5.29846 1.33887 0
M  V30 3642 H 372.021 0.792347 0.236885 0
M  V30 3643 H 374.567 1.67437 -0.276211 0
M  V30 3644 H 373.339 3.90095 -0.306822 0
M  V30 3645 H 372.962 3.72181 1.39881 0
M  V30 3646 N 373.959 -0.0401083 1.57549 0
M  V30 3647 C 375.37 -0.588097 1.77196 0
M  V30 3648 C 375.721 -1.76209 0.862832 0
M  V30 3649 O 374.846 -2.16331 0.0548389 0
M  V30 3650 C 375.441 -1.07363 3.21339 0
M  V30 3651 C 374 -1.56723 3.42221 0
M  V30 3652 C 373.147 -0.50041 2.72747 0
M  V30 3653 H 376.098 0.186119 1.57605 0
M  V30 3654 H 376.119 -1.94143 3.27244 0
M  V30 3655 H 375.631 -0.218975 3.87482 0
M  V30 3656 H 373.732 -2.4441 2.81237 0
M  V30 3657 H 373.845 -1.62234 4.50796 0
M  V30 3658 H 372.209 -0.952894 2.36203 0
M  V30 3659 H 372.992 0.344599 3.41566 0
M  V30 3660 N 375.437 -1.54477 -0.31217 0
M  V30 3661 C 376.714 -1.63891 -1.06767 0
M  V30 3662 C 377.094 -0.480028 -2.0557 0
M  V30 3663 O 376.442 0.524487 -2.22399 0
M  V30 3664 C 376.652 -3.01402 -1.75948 0
M  V30 3665 C 378 -3.57838 -2.28554 0
M  V30 3666 O 379.024 -3.03782 -1.85998 0
M  V30 3667 O 377.883 -4.52462 -3.06497 0
M  V30 3668 H 374.977 -0.664125 -0.492816 0
M  V30 3669 H 377.523 -1.66823 -0.311149 0
M  V30 3670 H 376.295 -3.77187 -1.04144 0
M  V30 3671 H 375.918 -3.02199 -2.58383 0
M  V30 3672 N 376.915 0.57481 -1.46744 0
M  V30 3673 C 378.143 1.35856 -1.56047 0
M  V30 3674 C 378.558 1.87691 -0.204365 0
M  V30 3675 O 377.915 1.64049 0.79963 0
M  V30 3676 C 377.966 2.54066 -2.57163 0
M  V30 3677 O 377.687 2.04377 -3.87507 0
M  V30 3678 C 379.188 3.46514 -2.76483 0
M  V30 3679 H 376.408 0.414754 -0.527466 0
M  V30 3680 H 378.952 0.698035 -1.92218 0
M  V30 3681 H 377.107 3.16092 -2.23974 0
M  V30 3682 H 377.521 2.81419 -4.4261 0
M  V30 3683 H 378.995 4.25919 -3.51137 0
M  V30 3684 H 379.472 3.98951 -1.83671 0
M  V30 3685 H 380.078 2.90318 -3.10799 0
M  V30 3686 N 378.394 1.34581 0.820102 0
M  V30 3687 C 379.357 1.2628 1.91275 0
M  V30 3688 C 380.357 0.177344 1.59819 0
M  V30 3689 O 381.547 0.430156 1.68806 0
M  V30 3690 C 378.679 0.950327 3.27386 0
M  V30 3691 H 379.872 2.23421 2.00057 0
M  V30 3692 H 377.425 1.1891 1.0144 0
M  V30 3693 H 378.16 -0.0177938 3.24295 0
M  V30 3694 H 377.945 1.73549 3.51601 0
M  V30 3695 H 379.435 0.917492 4.07396 0
M  V30 3696 N 379.872 -1.04064 1.18357 0
M  V30 3697 C 381.118 -1.77528 0.980397 0
M  V30 3698 C 381.451 -1.87948 -0.48879 0
M  V30 3699 O 380.726 -1.3876 -1.36293 0
M  V30 3700 C 381.009 -3.20797 1.63588 0
M  V30 3701 C 380.862 -3.1832 3.17793 0
M  V30 3702 C 382.181 -4.18911 1.34914 0
M  V30 3703 H 379.3 -0.644443 0.357578 0
M  V30 3704 H 381.942 -1.2156 1.46024 0
M  V30 3705 H 380.092 -3.68586 1.22788 0
M  V30 3706 H 381.764 -2.78521 3.67728 0
M  V30 3707 H 380.007 -2.56351 3.49952 0
M  V30 3708 H 380.678 -4.19489 3.58794 0
M  V30 3709 H 383.154 -3.7967 1.70265 0
M  V30 3710 H 382.03 -5.17374 1.83346 0
M  V30 3711 H 382.291 -4.41262 0.272027 0
M  V30 3712 N 381.35 -0.985608 -1.22978 0
M  V30 3713 C 382.28 -0.549649 -2.26939 0
M  V30 3714 C 383.261 0.419803 -1.64838 0
M  V30 3715 O 384.446 0.31203 -1.91677 0
M  V30 3716 C 381.576 0.143652 -3.47003 0
M  V30 3717 C 380.53 -0.743606 -4.21491 0
M  V30 3718 C 379.856 0.0822027 -5.34637 0
M  V30 3719 C 381.156 -2.03694 -4.80943 0
M  V30 3720 H 382.85 -1.41862 -2.63658 0
M  V30 3721 H 380.396 -0.683571 -1.26741 0
M  V30 3722 H 382.349 0.459985 -4.18882 0
M  V30 3723 H 381.073 1.04711 -3.09359 0
M  V30 3724 H 379.732 -1.04347 -3.51436 0
M  V30 3725 H 379.38 0.986359 -4.93234 0
M  V30 3726 H 379.08 -0.508377 -5.85397 0
M  V30 3727 H 380.604 0.392797 -6.09335 0
M  V30 3728 H 382.018 -1.78504 -5.44802 0
M  V30 3729 H 380.415 -2.57573 -5.42011 0
M  V30 3730 H 381.485 -2.72042 -4.01399 0
M  V30 3731 N 382.828 1.3818 -0.7579 0
M  V30 3732 C 383.775 2.30416 -0.133057 0
M  V30 3733 C 384.745 1.50398 0.704957 0
M  V30 3734 O 385.93 1.79014 0.660192 0
M  V30 3735 C 383.07 3.36834 0.750813 0
M  V30 3736 C 382.183 4.31879 -0.102297 0
M  V30 3737 C 381.318 5.25368 0.784979 0
M  V30 3738 C 380.357 6.12058 -0.0715046 0
M  V30 3739 N 379.494 6.97832 0.772972 0
M  V30 3740 H 384.334 2.83274 -0.925186 0
M  V30 3741 H 381.871 1.39461 -0.467866 0
M  V30 3742 H 383.829 3.97145 1.27794 0
M  V30 3743 H 382.459 2.85374 1.50868 0
M  V30 3744 H 381.511 3.72991 -0.747095 0
M  V30 3745 H 382.823 4.92921 -0.763552 0
M  V30 3746 H 381.977 5.90818 1.37911 0
M  V30 3747 H 380.716 4.64703 1.47996 0
M  V30 3748 H 379.721 5.456 -0.678272 0
M  V30 3749 H 380.946 6.74793 -0.763606 0
M  V30 3750 H 378.892 6.3971 1.45282 0
M  V30 3751 H 378.809 7.55812 0.168709 0
M  V30 3752 H 380.077 7.67687 1.35194 0
M  V30 3753 N 384.306 0.507319 1.49211 0
M  V30 3754 C 385.236 -0.256939 2.32082 0
M  V30 3755 C 386.217 -0.956609 1.40652 0
M  V30 3756 O 387.402 -0.946788 1.69557 0
M  V30 3757 C 384.532 -1.31802 3.21318 0
M  V30 3758 C 383.486 -0.737855 4.21592 0
M  V30 3759 C 382.812 -1.89992 4.99807 0
M  V30 3760 C 384.112 0.275325 5.21574 0
M  V30 3761 H 385.806 0.434798 2.96226 0
M  V30 3762 H 383.352 0.210546 1.42452 0
M  V30 3763 H 385.305 -1.86045 3.78107 0
M  V30 3764 H 384.029 -2.03903 2.5513 0
M  V30 3765 H 382.688 -0.217126 3.65956 0
M  V30 3766 H 382.336 -2.60877 4.30061 0
M  V30 3767 H 382.036 -1.51777 5.6766 0
M  V30 3768 H 383.56 -2.44657 5.59442 0
M  V30 3769 H 384.974 -0.179193 5.7302 0
M  V30 3770 H 383.371 0.573649 5.97352 0
M  V30 3771 H 384.441 1.18903 4.70096 0
M  V30 3772 N 385.784 -1.5574 0.241426 0
M  V30 3773 C 387.024 -2.00714 -0.38644 0
M  V30 3774 C 387.388 -1.12586 -1.55526 0
M  V30 3775 O 388.589 -1.46992 -2.25048 0
M  V30 3776 C 386.86 -3.48534 -0.791128 0
M  V30 3777 S 388.419 -4.15519 -1.41029 0
M  V30 3778 H 385.237 -0.700484 -0.121834 0
M  V30 3779 H 387.839 -1.92243 0.355377 0
M  V30 3780 H 386.543 -4.10342 0.0689225 0
M  V30 3781 H 386.074 -3.6092 -1.56526 0
M  V30 3782 H 388.089 -4.16352 -2.69936 0
M  V30 3783 N 387.262 0.0317525 -1.57568 0
M  V30 3784 C 388.539 0.758366 -1.803 0
M  V30 3785 C 388.919 1.93718 -0.838845 0
M  V30 3786 O 388.267 2.28187 0.119571 0
M  V30 3787 C 388.477 1.19392 -3.27943 0
M  V30 3788 C 389.825 1.61094 -3.92854 0
M  V30 3789 O 390.849 1.28857 -3.32076 0
M  V30 3790 O 389.708 2.20918 -4.99858 0
M  V30 3791 H 386.802 0.366514 -0.741348 0
M  V30 3792 H 389.348 0.00873765 -1.69698 0
M  V30 3793 H 388.12 0.352275 -3.89711 0
M  V30 3794 H 387.743 2.00365 -3.43424 0
M  V30 3795 N 388.74 1.54641 0.303973 0
M  V30 3796 C 389.987 1.7378 1.03955 0
M  V30 3797 C 390.315 0.521986 1.87365 0
M  V30 3798 O 389.57 -0.496099 1.89308 0
M  V30 3799 C 389.869 2.97753 1.97681 0
M  V30 3800 C 389.535 4.31671 1.30271 0
M  V30 3801 C 388.197 4.68075 1.11619 0
M  V30 3802 C 390.549 5.147 0.82055 0
M  V30 3803 C 387.877 5.8509 0.434304 0
M  V30 3804 C 390.229 6.32416 0.152395 0
M  V30 3805 C 388.893 6.67484 -0.0461067 0
M  V30 3806 H 388.163 0.635908 0.380398 0
M  V30 3807 H 390.81 1.88896 0.314718 0
M  V30 3808 H 389.115 2.77406 2.76682 0
M  V30 3809 H 390.812 3.09756 2.54661 0
M  V30 3810 H 387.402 4.03041 1.45795 0
M  V30 3811 H 391.586 4.87077 0.952374 0
M  V30 3812 H 386.842 6.10806 0.269495 0
M  V30 3813 H 391.016 6.96023 -0.229126 0
M  V30 3814 H 388.643 7.58011 -0.576494 0
M  V30 3815 N 390.218 -0.567019 1.47046 0
M  V30 3816 C 391.466 -1.322 1.52864 0
M  V30 3817 C 391.787 -1.94088 0.188388 0
M  V30 3818 O 391.057 -1.7941 -0.786693 0
M  V30 3819 H 389.637 -0.490894 0.563056 0
M  V30 3820 H 392.299 -0.662879 1.83281 0
M  V30 3821 H 391.395 -2.12062 2.2899 0
M  V30 3822 N 391.696 -1.35014 -0.812953 0
M  V30 3823 C 392.921 -1.31187 -1.60639 0
M  V30 3824 C 393.346 0.109382 -1.87782 0
M  V30 3825 O 392.704 1.07424 -1.46047 0
M  V30 3826 C 392.752 -2.11809 -2.91838 0
M  V30 3827 O 391.856 -1.49444 -3.8437 0
M  V30 3828 H 391.197 -0.450084 -0.488181 0
M  V30 3829 H 393.727 -1.77963 -1.00947 0
M  V30 3830 H 393.737 -2.23531 -3.41318 0
M  V30 3831 H 392.412 -3.15137 -2.71407 0
M  V30 3832 H 390.989 -1.46524 -3.42907 0
M  V30 3833 N 393.175 1.03435 -1.18907 0
M  V30 3834 C 394.138 2.09756 -0.923844 0
M  V30 3835 C 395.138 1.60528 0.093416 0
M  V30 3836 O 396.328 1.73631 -0.140727 0
M  V30 3837 C 393.46 3.38692 -0.387354 0
M  V30 3838 H 394.653 2.34719 -1.86674 0
M  V30 3839 H 392.206 1.19959 -1.00197 0
M  V30 3840 H 392.941 3.19396 0.561845 0
M  V30 3841 H 392.726 3.75742 -1.12074 0
M  V30 3842 H 394.216 4.17016 -0.220694 0
M  V30 3843 N 394.653 0.992116 1.22453 0
M  V30 3844 C 395.6 0.541731 2.24352 0
M  V30 3845 C 396.57 -0.425519 1.60557 0
M  V30 3846 O 397.755 -0.330453 1.87917 0
M  V30 3847 C 394.895 -0.138248 3.44823 0
M  V30 3848 C 394.008 0.870649 4.23136 0
M  V30 3849 C 393.143 0.164269 5.30946 0
M  V30 3850 C 392.182 1.16159 6.00977 0
M  V30 3851 N 391.319 0.483568 7.00433 0
M  V30 3852 H 396.159 1.41541 2.62241 0
M  V30 3853 H 393.696 0.709013 1.28885 0
M  V30 3854 H 395.654 -0.5494 4.13567 0
M  V30 3855 H 394.284 -0.975721 3.077 0
M  V30 3856 H 393.336 1.40013 3.53696 0
M  V30 3857 H 394.648 1.63014 4.7141 0
M  V30 3858 H 393.802 -0.303653 6.0594 0
M  V30 3859 H 392.541 -0.627733 4.83643 0
M  V30 3860 H 391.546 1.64015 5.24766 0
M  V30 3861 H 392.771 1.95445 6.50368 0
M  V30 3862 H 390.717 -0.289012 6.55363 0
M  V30 3863 H 390.634 1.18152 7.4671 0
M  V30 3864 H 391.902 0.0384219 7.79491 0
M  V30 3865 N 396.131 -1.37776 0.765217 0
M  V30 3866 C 397.063 -2.28958 0.105361 0
M  V30 3867 C 398.076 -1.48316 -0.67128 0
M  V30 3868 O 399.265 -1.71046 -0.51045 0
M  V30 3869 C 396.365 -3.27421 -0.874569 0
M  V30 3870 C 395.538 -4.37132 -0.153123 0
M  V30 3871 C 394.597 -5.1571 -1.04547 0
M  V30 3872 O 393.623 -5.66896 -0.511672 0
M  V30 3873 N 394.825 -5.29808 -2.37243 0
M  V30 3874 H 397.59 -2.86227 0.888495 0
M  V30 3875 H 395.151 -1.49682 0.617 0
M  V30 3876 H 397.143 -3.7687 -1.47483 0
M  V30 3877 H 395.713 -2.70967 -1.55871 0
M  V30 3878 H 394.933 -3.89166 0.627975 0
M  V30 3879 H 396.221 -5.07625 0.345643 0
M  V30 3880 H 395.619 -4.89793 -2.83054 0
M  V30 3881 H 394.176 -5.82589 -2.9229 0
M  V30 3882 N 397.609 -0.515225 -1.4894 0
M  V30 3883 C 398.539 0.244628 -2.32215 0
M  V30 3884 C 399.52 0.949136 -1.41157 0
M  V30 3885 O 400.705 0.937783 -1.70057 0
M  V30 3886 C 397.835 1.30096 -3.22013 0
M  V30 3887 C 396.789 0.715486 -4.21977 0
M  V30 3888 C 396.115 1.87339 -5.00808 0
M  V30 3889 C 397.415 -0.302982 -5.2142 0
M  V30 3890 H 399.109 -0.450501 -2.95991 0
M  V30 3891 H 396.655 -0.218098 -1.42339 0
M  V30 3892 H 398.608 1.84037 -3.79089 0
M  V30 3893 H 397.332 2.02547 -2.56207 0
M  V30 3894 H 395.991 0.197715 -3.66066 0
M  V30 3895 H 395.639 2.58592 -4.31438 0
M  V30 3896 H 395.339 1.48764 -5.68457 0
M  V30 3897 H 396.863 2.41686 -5.60732 0
M  V30 3898 H 398.277 0.148802 -5.73107 0
M  V30 3899 H 396.674 -0.60532 -5.97039 0
M  V30 3900 H 397.744 -1.21395 -4.69459 0
M  V30 3901 N 399.087 1.5561 -0.249682 0
M  V30 3902 C 400.333 1.99306 0.374841 0
M  V30 3903 C 400.666 1.13767 1.57387 0
M  V30 3904 O 399.941 0.201711 1.93451 0
M  V30 3905 C 400.224 3.51507 0.781986 0
M  V30 3906 C 400.077 4.4781 -0.422629 0
M  V30 3907 C 401.396 4.08884 1.62793 0
M  V30 3908 H 398.515 0.724572 0.134773 0
M  V30 3909 H 401.157 1.86719 -0.351549 0
M  V30 3910 H 399.307 3.62363 1.4009 0
M  V30 3911 H 400.979 4.48931 -1.06108 0
M  V30 3912 H 399.222 4.20518 -1.06524 0
M  V30 3913 H 399.893 5.51919 -0.0943766 0
M  V30 3914 H 402.369 4.01147 1.10547 0
M  V30 3915 H 401.245 5.1564 1.88166 0
M  V30 3916 H 401.506 3.57515 2.60068 0
M  V30 3917 N 400.565 -0.0233959 1.57583 0
M  V30 3918 C 401.981 -0.379134 1.55031 0
M  V30 3919 C 402.181 -1.76255 0.976548 0
M  V30 3920 O 401.237 -2.45266 0.600078 0
M  V30 3921 C 402.55 -0.275792 2.99433 0
M  V30 3922 C 404.098 -0.352458 3.11009 0
M  V30 3923 C 404.573 -0.278501 4.57152 0
M  V30 3924 N 406.064 -0.337123 4.61972 0
M  V30 3925 C 406.799 -0.302876 5.726 0
M  V30 3926 N 406.295 -0.220589 6.92449 0
M  V30 3927 N 408.088 -0.353023 5.6099 0
M  V30 3928 H 400.239 0.881869 1.93227 0
M  V30 3929 H 402.502 0.335867 0.886509 0
M  V30 3930 H 402.208 0.675108 3.4516 0
M  V30 3931 H 402.082 -1.06721 3.61788 0
M  V30 3932 H 404.469 -1.29379 2.65226 0
M  V30 3933 H 404.55 0.468409 2.51475 0
M  V30 3934 H 404.194 0.659189 5.03604 0
M  V30 3935 H 404.124 -1.11755 5.14605 0
M  V30 3936 H 406.615 -0.403002 3.75745 0
M  V30 3937 H 406.928 -0.199713 7.72542 0
M  V30 3938 H 405.273 -0.186555 6.9475 0
M  V30 3939 H 408.464 -0.415339 4.66254 0
M  V30 3940 H 408.637 -0.322866 6.47195 0
M  V30 3941 N 402.043 -1.548 -0.295768 0
M  V30 3942 C 403.291 -1.73985 -1.02828 0
M  V30 3943 C 403.612 -0.531406 -1.87619 0
M  V30 3944 O 402.882 0.454221 -1.90561 0
M  V30 3945 H 401.462 -0.641556 -0.382642 0
M  V30 3946 H 404.124 -1.92163 -0.325489 0
M  V30 3947 H 403.22 -2.63129 -1.67838 0
M  V30 3948 N 403.521 0.559213 -1.47345 0
M  V30 3949 C 404.431 1.69388 -1.62311 0
M  V30 3950 C 405.447 1.6648 -0.505993 0
M  V30 3951 O 406.623 1.85964 -0.773262 0
M  V30 3952 C 403.688 3.05894 -1.63185 0
M  V30 3953 C 402.749 3.19885 -2.86307 0
M  V30 3954 C 401.982 4.49879 -2.87131 0
M  V30 3955 O 402.205 5.35217 -1.97229 0
M  V30 3956 O 401.139 4.67618 -3.78968 0
M  V30 3957 H 404.965 1.59706 -2.58317 0
M  V30 3958 H 402.55 0.728989 -1.30407 0
M  V30 3959 H 404.432 3.87133 -1.66451 0
M  V30 3960 H 403.107 3.15964 -0.70345 0
M  V30 3961 H 402.014 2.38052 -2.88587 0
M  V30 3962 H 403.347 3.14718 -3.78435 0
M  V30 3963 N 404.999 1.35443 0.805782 0
M  V30 3964 C 406.41 1.25768 1.37983 0
M  V30 3965 C 406.761 -0.10958 1.95894 0
M  V30 3966 O 405.886 -1.01056 1.91355 0
M  V30 3967 C 406.481 2.27727 2.5085 0
M  V30 3968 C 405.04 2.2179 3.04115 0
M  V30 3969 C 404.187 2.13393 1.77084 0
M  V30 3970 H 407.138 1.4656 0.608752 0
M  V30 3971 H 407.159 1.90422 3.29424 0
M  V30 3972 H 406.671 3.27227 2.08671 0
M  V30 3973 H 404.772 1.25703 3.50756 0
M  V30 3974 H 404.885 3.13788 3.62042 0
M  V30 3975 H 403.249 1.59384 1.98668 0
M  V30 3976 H 404.032 3.14755 1.37056 0
M  V30 3977 N 406.477 -1.02803 1.19454 0
M  V30 3978 C 407.425 -2.13213 0.929673 0
M  V30 3979 C 408.419 -1.69011 -0.114806 0
M  V30 3980 O 409.625 -1.79967 0.0345147 0
M  V30 3981 H 406 -0.69662 0.28324 0
M  V30 3982 H 407.971 -2.32744 1.86743 0
M  V30 3983 C 406.72 -3.4429 0.485797 0
M  V30 3984 H 406.043 -3.7872 1.28105 0
M  V30 3985 H 407.483 -4.22638 0.339582 0
M  V30 3986 C 405.942 -3.27258 -0.800244 0
M  V30 3987 O 406.472 -3.55967 -1.86146 0
M  V30 3988 N 404.678 -2.80545 -0.75781 0
M  V30 3989 H 404.225 -2.57382 0.106039 0
M  V30 3990 H 404.183 -2.6953 -1.61867 0
M  V30 3991 N 407.956 -0.998596 -1.21925 0
M  V30 3992 C 409.202 -0.678667 -1.91107 0
M  V30 3993 C 409.535 0.78791 -1.77498 0
M  V30 3994 O 408.81 1.57043 -1.1475 0
M  V30 3995 C 409.093 -1.09245 -3.43129 0
M  V30 3996 C 408.946 -2.61801 -3.6576 0
M  V30 3997 C 410.265 -0.649984 -4.35274 0
M  V30 3998 H 407.384 -0.248025 -0.694012 0
M  V30 3999 H 410.026 -1.24314 -1.43688 0
M  V30 4000 H 408.176 -0.612171 -3.83647 0
M  V30 4001 H 409.848 -3.17543 -3.34611 0
M  V30 4002 H 408.091 -3.03609 -3.09845 0
M  V30 4003 H 408.762 -2.85804 -4.7225 0
M  V30 4004 H 411.238 -1.0626 -4.02303 0
M  V30 4005 H 410.114 -0.967743 -5.40302 0
M  V30 4006 H 410.375 0.449139 -4.39813 0
M  V30 4007 N 409.434 1.37368 -0.772513 0
M  V30 4008 C 410.659 2.0447 -0.347386 0
M  V30 4009 C 411.084 1.57882 1.0225 0
M  V30 4010 O 410.442 0.73941 1.65537 0
M  V30 4011 C 410.49 3.58369 -0.400479 0
M  V30 4012 O 409.594 4.0803 0.598789 0
M  V30 4013 H 408.935 0.646773 -0.15027 0
M  V30 4014 H 411.465 1.75667 -1.04892 0
M  V30 4015 H 411.475 4.07183 -0.258045 0
M  V30 4016 H 410.15 3.91633 -1.39986 0
M  V30 4017 H 408.727 3.70534 0.419411 0
M  V30 4018 N 410.912 0.523116 1.48665 0
M  V30 4019 C 412.142 -0.00961724 2.06598 0
M  V30 4020 C 412.55 -1.29333 1.38093 0
M  V30 4021 O 411.893 -1.77846 0.46007 0
M  V30 4022 C 411.955 -0.311135 3.58151 0
M  V30 4023 C 411.619 0.878092 4.48485 0
M  V30 4024 C 412.616 1.77464 4.88674 0
M  V30 4025 C 410.301 1.08315 4.90483 0
M  V30 4026 C 412.295 2.86021 5.69623 0
M  V30 4027 C 409.982 2.17187 5.71203 0
M  V30 4028 C 410.98 3.05873 6.10681 0
M  V30 4029 O 410.668 4.12862 6.89783 0
M  V30 4030 H 410.4 0.0272658 0.67545 0
M  V30 4031 H 412.954 0.726156 1.92136 0
M  V30 4032 H 411.184 -1.10079 3.70701 0
M  V30 4033 H 412.873 -0.785125 3.98234 0
M  V30 4034 H 413.639 1.62813 4.56855 0
M  V30 4035 H 409.518 0.402149 4.59243 0
M  V30 4036 H 413.062 3.55272 6.00356 0
M  V30 4037 H 408.959 2.31824 6.02435 0
M  V30 4038 H 409.727 4.10487 7.08126 0
M  V30 4039 N 412.39 -1.55475 0.257931 0
M  V30 4040 C 413.639 -1.98383 -0.364275 0
M  V30 4041 C 413.952 -1.14952 -1.58258 0
M  V30 4042 O 415.158 -1.47924 -2.27664 0
M  V30 4043 C 413.614 -3.53037 -0.699479 0
M  V30 4044 C 413.222 -4.45223 0.498046 0
M  V30 4045 C 414.966 -4.04575 -1.28526 0
M  V30 4046 C 412.873 -5.91238 0.138383 0
M  V30 4047 H 411.803 -0.740911 -0.13988 0
M  V30 4048 H 414.454 -1.79936 0.359883 0
M  V30 4049 H 412.836 -3.6722 -1.48207 0
M  V30 4050 H 414.01 -4.42803 1.27522 0
M  V30 4051 H 412.325 -4.04226 0.999503 0
M  V30 4052 H 414.922 -5.11196 -1.56788 0
M  V30 4053 H 415.265 -3.5258 -2.21344 0
M  V30 4054 H 415.798 -3.93762 -0.565337 0
M  V30 4055 H 412.537 -6.47294 1.03398 0
M  V30 4056 H 412.057 -5.96768 -0.602374 0
M  V30 4057 H 413.736 -6.46413 -0.27553 0
M  V30 4058 N 413.868 0.0150385 -1.57593 0
M  V30 4059 C 415.108 0.70768 -1.91758 0
M  V30 4060 C 415.472 1.71764 -0.857974 0
M  V30 4061 O 416.673 2.45956 -1.0844 0
M  V30 4062 C 414.944 1.34736 -3.3103 0
M  V30 4063 S 416.503 2.06721 -3.87056 0
M  V30 4064 H 413.321 0.234119 -0.671349 0
M  V30 4065 H 415.923 -0.0380373 -1.95463 0
M  V30 4066 H 414.627 0.59926 -4.06001 0
M  V30 4067 H 414.158 2.13133 -3.30663 0
M  V30 4068 H 416.173 3.34047 -3.66915 0
M  V30 4069 N 415.346 1.54954 0.287554 0
M  V30 4070 C 416.571 1.79209 1.04397 0
M  V30 4071 C 416.996 0.556431 1.79682 0
M  V30 4072 O 416.354 -0.493518 1.74454 0
M  V30 4073 C 416.402 3.00739 1.98969 0
M  V30 4074 O 415.506 2.74805 3.075 0
M  V30 4075 H 414.847 0.592755 0.299227 0
M  V30 4076 H 417.377 2.02068 0.320886 0
M  V30 4077 H 417.387 3.29077 2.4119 0
M  V30 4078 H 416.062 3.90329 1.43582 0
M  V30 4079 H 414.639 2.57523 2.69697 0
M  V30 4080 N 416.824 -0.551391 1.4764 0
M  V30 4081 C 418.24 -0.877887 1.33287 0
M  V30 4082 C 418.44 -1.98817 0.327721 0
M  V30 4083 O 417.496 -2.51171 -0.258695 0
M  V30 4084 C 418.809 -1.26563 2.72768 0
M  V30 4085 C 420.357 -1.37673 2.81097 0
M  V30 4086 C 420.832 -1.79799 4.21232 0
M  V30 4087 N 422.323 -1.8694 4.23802 0
M  V30 4088 C 423.058 -2.20876 5.29151 0
M  V30 4089 N 422.554 -2.53386 6.448 0
M  V30 4090 N 424.347 -2.217 5.16532 0
M  V30 4091 H 416.498 0.18153 2.11623 0
M  V30 4092 H 418.761 0.0185514 0.947818 0
M  V30 4093 H 418.467 -0.523591 3.47781 0
M  V30 4094 H 418.341 -2.22052 3.04915 0
M  V30 4095 H 420.728 -2.10956 2.06353 0
M  V30 4096 H 420.809 -0.40357 2.52596 0
M  V30 4097 H 420.453 -1.07083 4.96483 0
M  V30 4098 H 420.383 -2.78128 4.4716 0
M  V30 4099 H 422.874 -1.64179 3.40373 0
M  V30 4100 H 423.187 -2.78325 7.20941 0
M  V30 4101 H 421.532 -2.50953 6.48111 0
M  V30 4102 H 424.723 -1.95745 4.25207 0
M  V30 4103 H 424.896 -2.47818 5.98741 0
M  V30 4104 N 418.302 -1.35869 -0.798587 0
M  V30 4105 C 419.532 -1.32529 -1.58491 0
M  V30 4106 C 419.94 0.0975405 -1.88948 0
M  V30 4107 O 419.283 1.06224 -1.49874 0
M  V30 4108 C 419.345 -2.07247 -2.9375 0
M  V30 4109 C 419.009 -3.56391 -2.86068 0
M  V30 4110 C 420.006 -4.50824 -2.58947 0
M  V30 4111 C 417.691 -3.9915 -3.04933 0
M  V30 4112 C 419.685 -5.85993 -2.5078 0
M  V30 4113 C 417.372 -5.34413 -2.96389 0
M  V30 4114 C 418.37 -6.27646 -2.69349 0
M  V30 4115 O 418.058 -7.60426 -2.60782 0
M  V30 4116 H 417.79 -0.456529 -0.498556 0
M  V30 4117 H 420.344 -1.79425 -0.999799 0
M  V30 4118 H 418.574 -1.55001 -3.54276 0
M  V30 4119 H 420.263 -1.96883 -3.54954 0
M  V30 4120 H 421.029 -4.19104 -2.44084 0
M  V30 4121 H 416.908 -3.26961 -3.24989 0
M  V30 4122 H 420.452 -6.58735 -2.29595 0
M  V30 4123 H 416.349 -5.65743 -3.10813 0
M  V30 4124 H 417.117 -7.70444 -2.76331 0
M  V30 4125 N 419.78 1.02168 -1.19998 0
M  V30 4126 C 421.01 1.79036 -1.031 0
M  V30 4127 C 421.418 1.84409 0.423078 0
M  V30 4128 O 420.761 1.29228 1.30559 0
M  V30 4129 C 420.823 3.25185 -1.53281 0
M  V30 4130 C 420.487 3.43431 -3.01503 0
M  V30 4131 C 421.484 3.33063 -3.99206 0
M  V30 4132 C 419.169 3.69412 -3.40353 0
M  V30 4133 C 421.163 3.48413 -5.33748 0
M  V30 4134 C 418.85 3.84406 -4.75053 0
M  V30 4135 C 419.848 3.7391 -5.71559 0
M  V30 4136 O 419.536 3.88452 -7.03818 0
M  V30 4137 H 419.268 0.570043 -0.363355 0
M  V30 4138 H 421.822 1.29524 -1.59414 0
M  V30 4139 H 420.052 3.75756 -0.913483 0
M  V30 4140 H 421.741 3.83671 -1.32481 0
M  V30 4141 H 422.507 3.12934 -3.70537 0
M  V30 4142 H 418.386 3.76671 -2.65782 0
M  V30 4143 H 421.93 3.40137 -6.09059 0
M  V30 4144 H 417.827 4.04035 -5.03415 0
M  V30 4145 H 418.595 4.055 -7.10993 0
M  V30 4146 N 421.258 1.00505 1.21394 0
M  V30 4147 C 422.674 0.717873 1.42544 0
M  V30 4148 C 422.874 -0.706936 1.88692 0
M  V30 4149 O 421.93 -1.47627 2.04847 0
M  V30 4150 C 423.243 1.73377 2.45684 0
M  V30 4151 C 424.791 1.75059 2.59467 0
M  V30 4152 C 425.266 2.75545 3.6584 0
M  V30 4153 N 426.757 2.74213 3.73311 0
M  V30 4154 C 427.492 3.48626 4.55245 0
M  V30 4155 N 426.988 4.32678 5.41075 0
M  V30 4156 N 428.781 3.37276 4.49668 0
M  V30 4157 H 420.932 1.92506 0.897503 0
M  V30 4158 H 423.195 0.830919 0.456375 0
M  V30 4159 H 422.901 2.75395 2.18748 0
M  V30 4160 H 422.775 1.53647 3.44489 0
M  V30 4161 H 425.162 0.737337 2.8574 0
M  V30 4162 H 425.243 1.98861 1.60897 0
M  V30 4163 H 424.887 3.77028 3.40313 0
M  V30 4164 H 424.817 2.49009 4.64007 0
M  V30 4165 H 427.308 2.13234 3.11993 0
M  V30 4166 H 427.621 4.86253 6.00648 0
M  V30 4167 H 425.966 4.3676 5.40616 0
M  V30 4168 H 429.157 2.71043 3.81646 0
M  V30 4169 H 429.33 3.95524 5.13288 0
M  V30 4170 N 422.737 -1.36956 0.779787 0
M  V30 4171 C 423.7 -2.2851 0.177662 0
M  V30 4172 C 424.7 -1.48393 -0.619377 0
M  V30 4173 O 425.89 -1.68505 -0.441785 0
M  V30 4174 C 423.022 -3.32428 -0.755279 0
M  V30 4175 H 424.215 -2.83269 0.984823 0
M  V30 4176 H 421.768 -1.46358 0.548544 0
M  V30 4177 H 422.503 -2.82808 -1.58714 0
M  V30 4178 H 422.288 -3.91659 -0.185817 0
M  V30 4179 H 423.778 -4.00824 -1.17174 0
M  V30 4180 N 424.215 -0.530993 -1.48385 0
M  V30 4181 C 425.626 -0.0907905 -1.86479 0
M  V30 4182 C 425.977 1.33213 -1.44044 0
M  V30 4183 O 425.102 1.99783 -0.831615 0
M  V30 4184 C 425.697 -0.157987 -3.38431 0
M  V30 4185 C 424.256 0.227026 -3.75715 0
M  V30 4186 C 423.403 -0.5173 -2.72432 0
M  V30 4187 H 426.354 -0.742186 -1.40276 0
M  V30 4188 H 426.375 0.630053 -3.75247 0
M  V30 4189 H 425.887 -1.19372 -3.69286 0
M  V30 4190 H 423.988 1.26486 -3.50474 0
M  V30 4191 H 424.101 -0.113288 -4.78966 0
M  V30 4192 H 422.465 0.0365527 -2.54674 0
M  V30 4193 H 423.248 -1.55368 -3.0613 0
M  V30 4194 N 425.693 1.55336 -0.266172 0
M  V30 4195 C 426.603 2.2583 0.635458 0
M  V30 4196 C 427.619 1.28106 1.17749 0
M  V30 4197 O 428.795 1.61024 1.20968 0
M  V30 4198 C 425.86 2.95879 1.80712 0
M  V30 4199 C 424.921 4.09059 1.30265 0
M  V30 4200 C 424.154 4.75759 2.41846 0
M  V30 4201 O 424.377 4.41622 3.61007 0
M  V30 4202 O 423.311 5.63888 2.1051 0
M  V30 4203 H 427.137 3.03631 0.0646693 0
M  V30 4204 H 424.722 1.49361 -0.0339177 0
M  V30 4205 H 426.604 3.39932 2.49047 0
M  V30 4206 H 425.279 2.21002 2.36516 0
M  V30 4207 H 424.186 3.69482 0.586019 0
M  V30 4208 H 425.519 4.85811 0.790458 0
M  V30 4209 N 427.171 -0.0066808 1.57599 0
M  V30 4210 C 428.101 -0.999296 2.11036 0
M  V30 4211 C 429.082 -1.36278 1.01795 0
M  V30 4212 O 430.267 -1.4477 1.29442 0
M  V30 4213 C 427.397 -2.29328 2.60818 0
M  V30 4214 C 426.351 -2.07159 3.74525 0
M  V30 4215 C 425.677 -3.42512 4.10596 0
M  V30 4216 C 426.977 -1.43959 5.02069 0
M  V30 4217 H 428.671 -0.554382 2.94223 0
M  V30 4218 H 426.217 -0.265221 1.41536 0
M  V30 4219 H 428.17 -2.99117 2.96828 0
M  V30 4220 H 426.894 -2.7592 1.74745 0
M  V30 4221 H 425.553 -1.39797 3.38899 0
M  V30 4222 H 425.201 -3.86795 3.21556 0
M  V30 4223 H 424.901 -3.28498 4.87199 0
M  V30 4224 H 426.425 -4.13628 4.4916 0
M  V30 4225 H 427.839 -2.03696 5.35893 0
M  V30 4226 H 426.236 -1.40452 5.83432 0
M  V30 4227 H 427.306 -0.407992 4.83181 0
M  V30 4228 N 428.649 -1.55105 -0.279332 0
M  V30 4229 C 429.898 -1.74618 -1.00952 0
M  V30 4230 C 430.211 -0.551096 -1.87676 0
M  V30 4231 O 431.417 -0.628507 -2.64125 0
M  V30 4232 C 429.873 -3.09025 -1.84476 0
M  V30 4233 C 429.481 -4.36081 -1.0265 0
M  V30 4234 C 431.225 -3.37891 -2.56963 0
M  V30 4235 C 429.132 -5.6153 -1.85576 0
M  V30 4236 H 428.062 -0.650868 -0.38064 0
M  V30 4237 H 430.713 -1.81569 -0.265475 0
M  V30 4238 H 429.095 -2.96095 -2.62952 0
M  V30 4239 H 430.269 -4.59909 -0.286354 0
M  V30 4240 H 428.584 -4.14312 -0.416464 0
M  V30 4241 H 431.181 -4.28822 -3.19399 0
M  V30 4242 H 431.524 -2.57737 -3.26921 0
M  V30 4243 H 432.057 -3.5189 -1.85522 0
M  V30 4244 H 428.796 -6.44413 -1.2005 0
M  V30 4245 H 428.316 -5.41854 -2.57204 0
M  V30 4246 H 429.995 -5.99594 -2.43096 0
M  V30 4247 N 430.127 0.543554 -1.4793 0
M  V30 4248 C 431.374 1.30008 -1.55255 0
M  V30 4249 C 431.702 1.93245 -0.220612 0
M  V30 4250 O 430.957 1.79141 0.787843 0
M  V30 4251 C 431.256 2.42078 -2.62932 0
M  V30 4252 C 430.922 1.96583 -4.0579 0
M  V30 4253 C 429.584 1.83893 -4.44676 0
M  V30 4254 C 431.936 1.62034 -4.95373 0
M  V30 4255 C 429.264 1.34969 -5.70964 0
M  V30 4256 C 431.616 1.14577 -6.22137 0
M  V30 4257 C 430.28 1.00493 -6.59892 0
M  V30 4258 H 429.55 0.475735 -0.568117 0
M  V30 4259 H 432.197 0.608075 -1.81589 0
M  V30 4260 H 430.502 3.16892 -2.30406 0
M  V30 4261 H 432.199 3.00236 -2.65818 0
M  V30 4262 H 428.789 2.07407 -3.75074 0
M  V30 4263 H 432.973 1.70705 -4.66019 0
M  V30 4264 H 428.229 1.2274 -5.98953 0
M  V30 4265 H 432.403 0.869109 -6.90955 0
M  V30 4266 H 430.03 0.623624 -7.57638 0
M  V30 4267 N 431.605 1.3629 0.791371 0
M  V30 4268 C 432.853 1.30154 1.5461 0
M  V30 4269 C 433.174 -0.119409 1.94634 0
M  V30 4270 O 432.444 -1.05924 1.64794 0
M  V30 4271 H 431.024 0.478784 0.573389 0
M  V30 4272 H 433.686 1.70565 0.94306 0
M  V30 4273 H 432.782 1.92762 2.45457 0
M  V30 4274 N 433.083 -1.0153 1.20538 0
M  V30 4275 C 434.046 -2.0826 0.957098 0
M  V30 4276 C 435.046 -1.60657 -0.0678655 0
M  V30 4277 O 436.236 -1.73385 0.168332 0
M  V30 4278 C 433.368 -3.38033 0.441188 0
M  V30 4279 H 434.561 -2.31719 1.90384 0
M  V30 4280 H 432.114 -1.1835 1.02093 0
M  V30 4281 H 432.849 -3.20249 -0.510961 0
M  V30 4282 H 432.634 -3.73911 1.18038 0
M  V30 4283 H 434.124 -4.16613 0.287009 0
M  V30 4284 N 434.561 -1.01147 -1.20859 0
M  V30 4285 C 435.789 -0.716911 -1.94082 0
M  V30 4286 C 436.204 0.721568 -1.74467 0
M  V30 4287 O 435.561 1.48889 -1.05539 0
M  V30 4288 C 435.612 -1.03662 -3.46318 0
M  V30 4289 O 435.333 -2.4186 -3.65288 0
M  V30 4290 C 436.834 -0.762386 -4.36695 0
M  V30 4291 H 434.054 -0.26367 -0.617024 0
M  V30 4292 H 436.598 -1.35127 -1.53496 0
M  V30 4293 H 434.753 -0.447757 -3.84804 0
M  V30 4294 H 435.167 -2.53224 -4.59323 0
M  V30 4295 H 436.641 -1.03621 -5.42187 0
M  V30 4296 H 437.118 0.303514 -4.3815 0
M  V30 4297 H 437.724 -1.33316 -4.03865 0
M  V30 4298 N 436.039 1.36541 -0.78704 0
M  V30 4299 C 437.316 1.9355 -0.282424 0
M  V30 4300 C 437.696 1.71919 1.22503 0
M  V30 4301 O 437.044 1.07677 2.01539 0
M  V30 4302 C 437.254 3.4246 -0.672462 0
M  V30 4303 C 438.602 4.19582 -0.650863 0
M  V30 4304 O 439.626 3.50889 -0.612789 0
M  V30 4305 O 438.485 5.42106 -0.691623 0
M  V30 4306 H 435.579 0.824091 -0.0693 0
M  V30 4307 H 438.125 1.45736 -0.869423 0
M  V30 4308 H 436.897 3.51851 -1.71221 0
M  V30 4309 H 436.52 3.97556 -0.0592211 0
M  V30 4310 N 437.518 0.538854 1.48102 0
M  V30 4311 C 438.748 0.0122958 2.06596 0
M  V30 4312 C 439.156 -1.27861 1.39457 0
M  V30 4313 O 438.499 -1.77348 0.478907 0
M  V30 4314 C 438.561 -0.273131 3.58461 0
M  V30 4315 C 438.225 0.92561 4.47528 0
M  V30 4316 C 439.222 1.82637 4.86765 0
M  V30 4317 C 436.907 1.13511 4.89306 0
M  V30 4318 C 438.901 2.92047 5.66558 0
M  V30 4319 C 436.588 2.23233 5.68868 0
M  V30 4320 C 437.586 3.12333 6.07402 0
M  V30 4321 O 437.274 4.20155 6.85365 0
M  V30 4322 H 437.006 0.0344283 0.675123 0
M  V30 4323 H 439.56 0.746494 1.91355 0
M  V30 4324 H 437.79 -1.06141 3.71848 0
M  V30 4325 H 439.479 -0.742842 3.99045 0
M  V30 4326 H 440.245 1.67649 4.55103 0
M  V30 4327 H 436.124 0.450835 4.5879 0
M  V30 4328 H 439.668 3.6162 5.96554 0
M  V30 4329 H 435.565 2.38201 5.99942 0
M  V30 4330 H 436.333 4.17975 7.03732 0
M  V30 4331 N 438.996 -1.55193 0.274407 0
M  V30 4332 C 440.224 -2.03987 -0.345943 0
M  V30 4333 C 440.639 -1.15279 -1.4952 0
M  V30 4334 O 439.996 -0.172759 -1.8168 0
M  V30 4335 C 440.047 -3.51898 -0.827631 0
M  V30 4336 O 439.768 -4.37231 0.275855 0
M  V30 4337 C 441.269 -4.16577 -1.51587 0
M  V30 4338 H 438.489 -0.666335 -0.0789892 0
M  V30 4339 H 441.033 -2.00423 0.406294 0
M  V30 4340 H 439.188 -3.55909 -1.52996 0
M  V30 4341 H 439.602 -5.24415 -0.0943638 0
M  V30 4342 H 441.076 -5.21678 -1.80433 0
M  V30 4343 H 441.553 -3.64707 -2.44716 0
M  V30 4344 H 442.159 -4.16568 -0.857409 0
M  V30 4345 N 440.474 -0.00167713 -1.576 0
M  V30 4346 C 441.699 0.69739 -1.95323 0
M  V30 4347 C 442.124 1.6642 -0.876706 0
M  V30 4348 O 441.482 1.80548 0.165007 0
M  V30 4349 C 441.53 1.40403 -3.32144 0
M  V30 4350 O 440.634 2.5185 -3.26566 0
M  V30 4351 H 439.975 0.185373 -0.637599 0
M  V30 4352 H 442.505 -0.0553665 -2.04525 0
M  V30 4353 H 442.515 1.76707 -3.67748 0
M  V30 4354 H 441.19 0.695167 -4.10049 0
M  V30 4355 H 439.767 2.17861 -3.0264 0
M  V30 4356 N 441.952 1.55251 0.271103 0
M  V30 4357 C 443.177 1.80306 1.02491 0
M  V30 4358 C 443.602 0.575457 1.79081 0
M  V30 4359 O 442.96 -0.474987 1.74967 0
M  V30 4360 C 443.008 3.02832 1.95768 0
M  V30 4361 O 442.112 2.78051 3.04568 0
M  V30 4362 H 441.453 0.595896 0.292923 0
M  V30 4363 H 443.983 2.02397 0.299436 0
M  V30 4364 H 443.993 3.31616 2.37686 0
M  V30 4365 H 442.668 3.9183 1.39434 0
M  V30 4366 H 441.245 2.60369 2.66951 0
M  V30 4367 N 443.43 -0.535701 1.48216 0
M  V30 4368 C 444.679 -1.28828 1.55197 0
M  V30 4369 C 444.992 -1.94263 0.228278 0
M  V30 4370 O 446.198 -2.70927 0.176278 0
M  V30 4371 C 444.654 -2.33727 2.73678 0
M  V30 4372 C 444.262 -1.74386 4.12666 0
M  V30 4373 C 446.006 -3.1003 2.89968 0
M  V30 4374 C 443.913 -2.77192 5.22416 0
M  V30 4375 H 442.843 -0.484484 0.577747 0
M  V30 4376 H 445.494 -0.56646 1.74538 0
M  V30 4377 H 443.876 -3.08919 2.4776 0
M  V30 4378 H 445.05 -1.05421 4.48579 0
M  V30 4379 H 443.365 -1.10595 4.01445 0
M  V30 4380 H 445.962 -3.86842 3.6913 0
M  V30 4381 H 446.305 -3.65542 1.9921 0
M  V30 4382 H 446.838 -2.41952 3.15759 0
M  V30 4383 H 443.577 -2.26507 6.15122 0
M  V30 4384 H 443.097 -3.44502 4.90998 0
M  V30 4385 H 444.776 -3.40285 5.50286 0
M  V30 4386 N 444.908 -1.36708 -0.784132 0
M  V30 4387 C 446.185 -1.21776 -1.53069 0
M  V30 4388 C 446.565 0.193876 -2.10208 0
M  V30 4389 O 445.913 1.20012 -1.94446 0
M  V30 4390 C 446.123 -2.30395 -2.62143 0
M  V30 4391 C 447.471 -2.67325 -3.29882 0
M  V30 4392 O 448.495 -2.29478 -2.7243 0
M  V30 4393 O 447.354 -3.32485 -4.33724 0
M  V30 4394 H 444.448 -0.474459 -0.677361 0
M  V30 4395 H 446.994 -1.48454 -0.82216 0
M  V30 4396 H 445.766 -3.2498 -2.17953 0
M  V30 4397 H 445.389 -2.05112 -3.40609 0
M  V30 4398 N 446.386 1.0089 -1.21074 0
M  V30 4399 C 447.632 1.74866 -1.02712 0
M  V30 4400 C 447.965 1.89178 0.438787 0
M  V30 4401 O 447.24 1.42325 1.32567 0
M  V30 4402 C 447.523 3.16347 -1.72036 0
M  V30 4403 C 447.376 3.09782 -3.26121 0
M  V30 4404 C 448.695 4.15187 -1.45973 0
M  V30 4405 H 445.814 0.634736 -0.374539 0
M  V30 4406 H 448.456 1.17646 -1.49196 0
M  V30 4407 H 446.606 3.65201 -1.32517 0
M  V30 4408 H 448.278 2.68673 -3.74983 0
M  V30 4409 H 446.521 2.46982 -3.56626 0
M  V30 4410 H 447.192 4.09829 -3.6979 0
M  V30 4411 H 449.668 3.75022 -1.80272 0
M  V30 4412 H 448.544 5.12331 -1.96999 0
M  V30 4413 H 448.805 4.40386 -0.388924 0
M  V30 4414 N 447.864 1.01787 1.20321 0
M  V30 4415 C 449.11 0.718699 1.90279 0
M  V30 4416 C 449.465 -0.743669 1.77447 0
M  V30 4417 O 448.758 -1.53345 1.14874 0
M  V30 4418 C 448.952 1.09076 3.40349 0
M  V30 4419 C 448.781 2.58775 3.67784 0
M  V30 4420 C 447.551 3.25578 3.86428 0
M  V30 4421 C 449.749 3.56966 3.70243 0
M  V30 4422 N 447.731 4.64495 4.01395 0
M  V30 4423 C 449.102 4.8145 3.90649 0
M  V30 4424 C 451.157 3.5092 3.53213 0
M  V30 4425 C 449.86 6.00619 3.95789 0
M  V30 4426 C 451.886 4.69493 3.59625 0
M  V30 4427 C 451.248 5.92786 3.80505 0
M  V30 4428 H 447.347 0.31468 0.715891 0
M  V30 4429 H 449.931 1.30295 1.44677 0
M  V30 4430 H 448.102 0.534839 3.847 0
M  V30 4431 H 449.834 0.744997 3.97784 0
M  V30 4432 H 446.589 2.76003 3.84862 0
M  V30 4433 H 447.013 5.36624 4.12752 0
M  V30 4434 H 451.655 2.56593 3.36035 0
M  V30 4435 H 449.373 6.95326 4.11762 0
M  V30 4436 H 452.959 4.66432 3.47754 0
M  V30 4437 H 451.839 6.83003 3.85327 0
M  V30 4438 N 449.342 -1.36122 0.79427 0
M  V30 4439 C 450.567 -2.03891 0.379871 0
M  V30 4440 C 450.992 -1.59488 -0.997251 0
M  V30 4441 O 450.35 -0.765652 -1.64339 0
M  V30 4442 C 450.398 -3.57687 0.457442 0
M  V30 4443 O 449.502 -4.08931 -0.5338 0
M  V30 4444 H 448.843 -0.6443 0.160541 0
M  V30 4445 H 451.373 -1.73976 1.07673 0
M  V30 4446 H 451.383 -4.06721 0.322792 0
M  V30 4447 H 450.058 -3.89357 1.46199 0
M  V30 4448 H 448.635 -3.71154 -0.360409 0
M  V30 4449 N 450.82 -0.546701 -1.47814 0
M  V30 4450 C 451.783 0.196287 -2.28358 0
M  V30 4451 C 452.783 0.852437 -1.36346 0
M  V30 4452 O 453.973 0.709913 -1.59078 0
M  V30 4453 C 451.105 1.28579 -3.15722 0
M  V30 4454 H 452.298 -0.511086 -2.95513 0
M  V30 4455 H 449.851 -0.303248 -1.5333 0
M  V30 4456 H 450.586 2.0259 -2.53235 0
M  V30 4457 H 450.371 0.820229 -3.83425 0
M  V30 4458 H 451.861 1.80793 -3.76435 0
M  V30 4459 N 452.299 1.55045 -0.282633 0
M  V30 4460 C 453.547 1.99365 0.331334 0
M  V30 4461 C 453.868 1.1725 1.55812 0
M  V30 4462 O 453.138 0.263871 1.94115 0
M  V30 4463 H 451.718 0.736397 0.125414 0
M  V30 4464 H 454.38 1.90964 -0.389711 0
M  V30 4465 H 453.476 3.0596 0.616036 0
M  V30 4466 N 453.777 0.010035 1.57597 0
M  V30 4467 C 455.017 -0.677084 1.9286 0
M  V30 4468 C 455.381 -1.70377 0.885192 0
M  V30 4469 O 456.582 -2.44199 1.12339 0
M  V30 4470 C 454.853 -1.29452 3.33132 0
M  V30 4471 S 456.412 -2.00537 3.90295 0
M  V30 4472 H 453.23 -0.223409 0.674989 0
M  V30 4473 H 455.832 0.0691289 1.95378 0
M  V30 4474 H 454.536 -0.534593 4.06903 0
M  V30 4475 H 454.067 -2.07845 3.34012 0
M  V30 4476 H 456.082 -3.28168 3.72183 0
M  V30 4477 N 455.255 -1.55392 -0.262866 0
M  V30 4478 C 456.501 -1.76737 -0.99458 0
M  V30 4479 C 456.834 -0.572453 -1.85571 0
M  V30 4480 O 456.109 0.429732 -1.89693 0
M  V30 4481 C 456.392 -3.07824 -1.8686 0
M  V30 4482 C 456.245 -4.3769 -1.03672 0
M  V30 4483 C 457.564 -3.35021 -2.85393 0
M  V30 4484 H 454.683 -0.643005 -0.360157 0
M  V30 4485 H 457.325 -1.88126 -0.266216 0
M  V30 4486 H 455.475 -2.98245 -2.48962 0
M  V30 4487 H 457.147 -4.59238 -0.43563 0
M  V30 4488 H 455.39 -4.32461 -0.340513 0
M  V30 4489 H 456.061 -5.25759 -1.6817 0
M  V30 4490 H 458.537 -3.44458 -2.33426 0
M  V30 4491 H 457.413 -4.27989 -3.43681 0
M  V30 4492 H 457.674 -2.55153 -3.61039 0
M  V30 4493 N 456.733 0.527833 -1.48498 0
M  V30 4494 C 457.663 1.64136 -1.66077 0
M  V30 4495 C 458.644 1.62286 -0.509625 0
M  V30 4496 O 459.829 1.79449 -0.742413 0
M  V30 4497 C 456.959 3.02717 -1.70234 0
M  V30 4498 C 455.913 3.19426 -2.8487 0
M  V30 4499 C 455.239 4.5909 -2.74118 0
M  V30 4500 C 456.539 3.01993 -4.26142 0
M  V30 4501 H 458.233 1.4968 -2.593 0
M  V30 4502 H 455.779 0.718654 -1.24785 0
M  V30 4503 H 457.732 3.80491 -1.8112 0
M  V30 4504 H 456.456 3.18201 -0.735911 0
M  V30 4505 H 455.115 2.4407 -2.73542 0
M  V30 4506 H 454.763 4.71413 -1.7544 0
M  V30 4507 H 454.463 4.71214 -3.51042 0
M  V30 4508 H 455.987 5.3896 -2.86974 0
M  V30 4509 H 457.401 3.69558 -4.38292 0
M  V30 4510 H 455.798 3.2561 -5.04082 0
M  V30 4511 H 456.868 1.98396 -4.42456 0
M  V30 4512 N 458.211 1.37122 0.776871 0
M  V30 4513 C 459.174 1.32301 1.8716 0
M  V30 4514 C 460.174 0.228099 1.59174 0
M  V30 4515 O 461.364 0.483642 1.67352 0
M  V30 4516 C 458.496 1.054 3.24197 0
M  V30 4517 H 459.689 2.29673 1.92848 0
M  V30 4518 H 457.242 1.22077 0.97606 0
M  V30 4519 H 457.977 0.0853872 3.24188 0
M  V30 4520 H 457.762 1.84648 3.45901 0
M  V30 4521 H 459.252 1.04664 4.04271 0
M  V30 4522 N 459.689 -1.00246 1.21608 0
M  V30 4523 C 460.599 -2.12515 0.993709 0
M  V30 4524 C 461.615 -1.73913 -0.0549939 0
M  V30 4525 O 462.791 -2.00943 0.135619 0
M  V30 4526 C 459.856 -3.42083 0.563953 0
M  V30 4527 C 458.917 -3.94843 1.68516 0
M  V30 4528 C 458.15 -5.18226 1.27582 0
M  V30 4529 O 458.373 -5.70201 0.150506 0
M  V30 4530 O 457.307 -5.64497 2.0887 0
M  V30 4531 H 461.133 -2.34152 1.93407 0
M  V30 4532 H 458.718 -1.10891 1.00118 0
M  V30 4533 H 460.6 -4.20073 0.334194 0
M  V30 4534 H 459.275 -3.21828 -0.347665 0
M  V30 4535 H 458.182 -3.18068 1.96935 0
M  V30 4536 H 459.515 -4.19512 2.5743 0
M  V30 4537 N 461.167 -1.02423 -1.1978 0
M  V30 4538 C 462.097 -0.62157 -2.25075 0
M  V30 4539 C 463.078 0.367148 -1.6609 0
M  V30 4540 O 464.263 0.250892 -1.92573 0
M  V30 4541 C 461.393 0.0331826 -3.47284 0
M  V30 4542 C 460.347 -0.877323 -4.18912 0
M  V30 4543 C 459.673 -0.0879296 -5.34628 0
M  V30 4544 C 460.973 -2.18892 -4.74219 0
M  V30 4545 H 462.667 -1.50179 -2.59011 0
M  V30 4546 H 460.213 -0.723547 -1.24502 0
M  V30 4547 H 462.166 0.326488 -4.20133 0
M  V30 4548 H 460.89 0.948164 -3.12534 0
M  V30 4549 H 459.549 -1.15475 -3.47938 0
M  V30 4550 H 459.197 0.828941 -4.96123 0
M  V30 4551 H 458.897 -0.694359 -5.83483 0
M  V30 4552 H 460.421 0.198743 -6.10276 0
M  V30 4553 H 461.835 -1.95746 -5.38847 0
M  V30 4554 H 460.232 -2.74686 -5.33542 0
M  V30 4555 H 461.302 -2.84674 -3.92541 0
M  V30 4556 N 462.645 1.35699 -0.801477 0
M  V30 4557 C 463.575 2.32436 -0.222658 0
M  V30 4558 C 464.556 1.5723 0.649057 0
M  V30 4559 O 465.741 1.85324 0.580387 0
M  V30 4560 C 462.871 3.41469 0.633719 0
M  V30 4561 C 461.825 4.27774 -0.139083 0
M  V30 4562 C 461.151 5.28082 0.838666 0
M  V30 4563 C 462.451 5.04946 -1.33517 0
M  V30 4564 H 464.145 2.81094 -1.03086 0
M  V30 4565 H 461.691 1.35146 -0.497155 0
M  V30 4566 H 463.644 4.08143 1.04868 0
M  V30 4567 H 462.368 2.91408 1.47475 0
M  V30 4568 H 461.027 3.62673 -0.535156 0
M  V30 4569 H 460.675 4.7429 1.67506 0
M  V30 4570 H 460.375 5.86695 0.32594 0
M  V30 4571 H 461.899 5.97628 1.25194 0
M  V30 4572 H 463.313 5.64593 -0.995349 0
M  V30 4573 H 461.71 5.7303 -1.78202 0
M  V30 4574 H 462.78 4.35886 -2.12442 0
M  V30 4575 N 464.123 0.554532 1.47522 0
M  V30 4576 C 465.053 -0.182974 2.32782 0
M  V30 4577 C 466.034 -0.911377 1.43624 0
M  V30 4578 O 467.219 -0.892366 1.72483 0
M  V30 4579 C 464.349 -1.21513 3.25349 0
M  V30 4580 C 463.303 -0.603355 4.23726 0
M  V30 4581 C 462.629 -1.73995 5.05598 0
M  V30 4582 C 463.929 0.441121 5.20434 0
M  V30 4583 H 465.623 0.52882 2.94693 0
M  V30 4584 H 463.169 0.255759 1.41711 0
M  V30 4585 H 465.122 -1.73922 3.83835 0
M  V30 4586 H 463.846 -1.95683 2.61487 0
M  V30 4587 H 462.505 -0.10059 3.66462 0
M  V30 4588 H 462.153 -2.47063 4.38143 0
M  V30 4589 H 461.853 -1.3364 5.72201 0
M  V30 4590 H 463.377 -2.26735 5.66942 0
M  V30 4591 H 464.791 0.00319931 5.733 0
M  V30 4592 H 463.188 0.763402 5.95224 0
M  V30 4593 H 464.258 1.33799 4.66075 0
M  V30 4594 N 465.601 -1.54893 0.290851 0
M  V30 4595 C 466.849 -1.99538 -0.320756 0
M  V30 4596 C 467.17 -1.18075 -1.55188 0
M  V30 4597 O 466.44 -0.274162 -1.93972 0
M  V30 4598 H 465.02 -0.737052 -0.121507 0
M  V30 4599 H 467.682 -1.90755 0.399832 0
M  V30 4600 H 466.778 -3.06282 -0.599802 0
M  V30 4601 N 467.08 -0.0183926 -1.57589 0
M  V30 4602 C 468.012 0.995557 -2.06449 0
M  V30 4603 C 469.025 1.29556 -0.985849 0
M  V30 4604 O 470.214 1.2621 -1.26227 0
M  V30 4605 C 467.314 2.32572 -2.46502 0
M  V30 4606 C 466.487 2.21245 -3.77319 0
M  V30 4607 C 465.546 3.37104 -4.04039 0
M  V30 4608 O 464.572 3.14468 -4.74445 0
M  V30 4609 N 465.774 4.60553 -3.53372 0
M  V30 4610 H 468.539 0.578746 -2.94059 0
M  V30 4611 H 466.1 0.168603 -1.6102 0
M  V30 4612 H 468.092 3.08887 -2.61478 0
M  V30 4613 H 466.662 2.65931 -1.64315 0
M  V30 4614 H 465.882 1.29723 -3.72244 0
M  V30 4615 H 467.17 2.10868 -4.63047 0
M  V30 4616 H 466.568 4.81839 -2.96391 0
M  V30 4617 H 465.125 5.34072 -3.73644 0
M  V30 4618 N 468.558 1.5553 0.254621 0
M  V30 4619 C 469.969 1.67518 0.824286 0
M  V30 4620 C 470.32 0.614429 1.86331 0
M  V30 4621 O 469.445 -0.240736 2.15057 0
M  V30 4622 C 470.04 3.03692 1.50189 0
M  V30 4623 C 468.599 3.17646 2.01935 0
M  V30 4624 C 467.746 2.63373 0.867746 0
M  V30 4625 H 470.697 1.58671 0.0305843 0
M  V30 4626 H 470.718 2.97706 2.36962 0
M  V30 4627 H 470.23 3.80874 0.745431 0
M  V30 4628 H 468.331 2.45273 2.80485 0
M  V30 4629 H 468.444 4.24455 2.22204 0
M  V30 4630 H 466.808 2.20999 1.26616 0
M  V30 4631 H 467.591 3.43074 0.124498 0
M  V30 4632 N 470.036 -0.519951 1.48776 0
M  V30 4633 C 471.285 -1.27175 1.56555 0
M  V30 4634 C 471.598 -1.9401 0.248869 0
M  V30 4635 O 472.804 -2.70725 0.205004 0
M  V30 4636 C 471.26 -2.30811 2.76142 0
M  V30 4637 C 470.868 -1.7 4.14493 0
M  V30 4638 C 472.612 -3.06937 2.9324 0
M  V30 4639 C 470.519 -2.71635 5.25327 0
M  V30 4640 H 469.449 -0.478329 0.582853 0
M  V30 4641 H 472.1 -0.547916 1.75129 0
M  V30 4642 H 470.482 -3.06274 2.51023 0
M  V30 4643 H 471.656 -1.00658 4.49672 0
M  V30 4644 H 469.971 -1.06331 4.02595 0
M  V30 4645 H 472.568 -3.82905 3.73213 0
M  V30 4646 H 472.911 -3.63409 2.03075 0
M  V30 4647 H 473.444 -2.38589 3.18308 0
M  V30 4648 H 470.183 -2.1997 6.1749 0
M  V30 4649 H 469.703 -3.39275 4.94624 0
M  V30 4650 H 471.382 -3.34429 5.53865 0
M  V30 4651 N 471.514 -1.37532 -0.769588 0
M  V30 4652 C 472.761 -1.3286 -1.52822 0
M  V30 4653 C 473.089 0.0862597 -1.94309 0
M  V30 4654 O 472.344 1.05995 -1.6451 0
M  V30 4655 C 472.643 -2.21558 -2.8044 0
M  V30 4656 C 472.309 -3.69796 -2.57996 0
M  V30 4657 C 470.971 -4.10194 -2.51583 0
M  V30 4658 C 473.323 -4.63699 -2.37976 0
M  V30 4659 C 470.651 -5.42608 -2.23144 0
M  V30 4660 C 473.003 -5.96353 -2.1106 0
M  V30 4661 C 471.667 -6.35853 -2.03093 0
M  V30 4662 H 470.937 -0.486168 -0.559215 0
M  V30 4663 H 473.584 -1.69757 -0.886277 0
M  V30 4664 H 471.889 -1.77663 -3.49204 0
M  V30 4665 H 473.586 -2.15256 -3.38328 0
M  V30 4666 H 470.176 -3.37759 -2.63851 0
M  V30 4667 H 474.36 -4.33346 -2.41919 0
M  V30 4668 H 469.616 -5.72173 -2.15472 0
M  V30 4669 H 473.79 -6.68667 -1.94568 0
M  V30 4670 H 471.417 -7.38382 -1.8082 0
M  V30 4671 N 472.992 0.995999 -1.22138 0
M  V30 4672 C 474.403 1.54961 -1.04135 0
M  V30 4673 C 474.754 1.92159 0.396147 0
M  V30 4674 O 473.879 1.74435 1.28069 0
M  V30 4675 C 474.474 2.81581 -1.88408 0
M  V30 4676 C 473.033 3.33396 -1.74712 0
M  V30 4677 C 472.18 2.06509 -1.85066 0
M  V30 4678 H 475.131 0.817436 -1.36028 0
M  V30 4679 H 475.152 3.53822 -1.39966 0
M  V30 4680 H 474.664 2.54476 -2.93025 0
M  V30 4681 H 472.765 3.65416 -0.728159 0
M  V30 4682 H 472.878 4.04208 -2.57202 0
M  V30 4683 H 471.242 2.19925 -1.28472 0
M  V30 4684 H 472.025 1.81804 -2.91208 0
M  V30 4685 N 474.47 1.03057 1.19235 0
M  V30 4686 C 475.718 0.726581 1.88587 0
M  V30 4687 C 476.039 -0.747227 1.80115 0
M  V30 4688 O 475.309 -1.53849 1.21274 0
M  V30 4689 H 473.889 0.265768 0.698124 0
M  V30 4690 H 476.551 1.30516 1.44746 0
M  V30 4691 H 475.647 1.0224 2.94879 0
M  V30 4692 N 475.948 -1.35272 0.808662 0
M  V30 4693 C 477.225 -1.93077 0.313181 0
M  V30 4694 C 477.605 -1.73847 -1.19752 0
M  V30 4695 O 476.953 -1.1087 -1.998 0
M  V30 4696 C 477.163 -3.41347 0.726859 0
M  V30 4697 C 478.511 -4.18493 0.717532 0
M  V30 4698 O 479.535 -3.4987 0.668535 0
M  V30 4699 O 478.394 -5.40937 0.777779 0
M  V30 4700 H 475.488 -0.822885 0.0824018 0
M  V30 4701 H 478.034 -1.44335 0.892499 0
M  V30 4702 H 476.806 -3.49082 1.76797 0
M  V30 4703 H 476.429 -3.97411 0.122461 0
M  V30 4704 N 477.426 -0.562348 -1.47226 0
M  V30 4705 C 478.651 -0.0432632 -2.07355 0
M  V30 4706 C 479.076 1.24332 -1.41149 0
M  V30 4707 O 478.434 1.74603 -0.488226 0
M  V30 4708 C 478.482 0.130288 -3.60365 0
M  V30 4709 O 477.586 1.19166 -3.94808 0
M  V30 4710 H 476.927 -0.0536334 -0.66183 0
M  V30 4711 H 479.457 -0.779495 -1.89169 0
M  V30 4712 H 479.467 0.342881 -4.06557 0
M  V30 4713 H 478.142 -0.809389 -4.07948 0
M  V30 4714 H 476.719 0.959153 -3.60354 0
M  V30 4715 N 478.904 1.54736 -0.299062 0
M  V30 4716 C 480.152 1.99706 0.31017 0
M  V30 4717 C 480.473 1.18896 1.54559 0
M  V30 4718 O 479.743 0.284445 1.93824 0
M  V30 4719 H 478.323 0.737686 0.117596 0
M  V30 4720 H 480.985 1.9054 -0.409943 0
M  V30 4721 H 480.081 3.06596 0.58355 0
M  V30 4722 N 480.382 0.0267497 1.57577 0
M  V30 4723 C 481.628 -0.653371 1.91987 0
M  V30 4724 C 481.961 -1.71915 0.903263 0
M  V30 4725 O 481.236 -1.94358 -0.0743387 0
M  V30 4726 C 481.519 -1.272 3.36886 0
M  V30 4727 C 481.372 -0.215938 4.49281 0
M  V30 4728 C 482.691 -2.19069 3.81703 0
M  V30 4729 H 479.81 -0.236047 0.698177 0
M  V30 4730 H 482.452 0.0835236 1.89816 0
M  V30 4731 H 480.602 -1.90005 3.38866 0
M  V30 4732 H 482.274 0.41449 4.59434 0
M  V30 4733 H 480.517 0.458855 4.31366 0
M  V30 4734 H 481.188 -0.688347 5.47691 0
M  V30 4735 H 483.664 -1.66253 3.81444 0
M  V30 4736 H 482.54 -2.59307 4.83788 0
M  V30 4737 H 482.801 -3.08087 3.17072 0
M  V30 4738 N 481.861 -1.55662 -0.24637 0
M  V30 4739 C 483.138 -1.68272 -0.997198 0
M  V30 4740 C 483.518 -0.566785 -2.03349 0
M  V30 4741 O 482.866 0.429688 -2.24424 0
M  V30 4742 C 483.076 -3.08594 -1.63006 0
M  V30 4743 C 484.424 -3.6721 -2.13171 0
M  V30 4744 O 485.448 -3.11397 -1.72946 0
M  V30 4745 O 484.307 -4.65054 -2.87031 0
M  V30 4746 H 481.401 -0.684429 -0.464205 0
M  V30 4747 H 483.947 -1.67993 -0.240114 0
M  V30 4748 H 482.719 -3.81264 -0.880527 0
M  V30 4749 H 482.342 -3.12886 -2.45333 0
M  V30 4750 N 483.339 0.512053 -1.4905 0
M  V30 4751 C 484.271 1.63121 -1.6101 0
M  V30 4752 C 485.284 1.55145 -0.493352 0
M  V30 4753 O 486.473 1.61278 -0.764955 0
M  V30 4754 C 483.573 3.01863 -1.54052 0
M  V30 4755 C 482.746 3.35138 -2.81072 0
M  V30 4756 C 481.805 4.5324 -2.67319 0
M  V30 4757 O 480.831 4.55571 -3.41238 0
M  V30 4758 N 482.033 5.52495 -1.78127 0
M  V30 4759 H 484.798 1.53292 -2.5753 0
M  V30 4760 H 482.359 0.699706 -1.45999 0
M  V30 4761 H 484.351 3.78774 -1.42521 0
M  V30 4762 H 482.921 3.05675 -0.654345 0
M  V30 4763 H 482.141 2.4723 -3.07036 0
M  V30 4764 H 483.429 3.54162 -3.65304 0
M  V30 4765 H 482.827 5.53403 -1.17308 0
M  V30 4766 H 481.384 6.28553 -1.72525 0
M  V30 4767 N 484.817 1.37938 0.762283 0
M  V30 4768 C 485.747 1.37176 1.88958 0
M  V30 4769 C 486.728 0.238945 1.68413 0
M  V30 4770 O 487.913 0.440726 1.89133 0
M  V30 4771 C 485.043 1.18742 3.2637 0
M  V30 4772 C 483.997 2.29136 3.61498 0
M  V30 4773 C 483.323 1.95816 4.97554 0
M  V30 4774 C 484.623 3.71363 3.6727 0
M  V30 4775 H 486.317 2.31509 1.89853 0
M  V30 4776 H 483.863 1.11438 0.912005 0
M  V30 4777 H 485.816 1.16837 4.04879 0
M  V30 4778 H 484.54 0.208683 3.25933 0
M  V30 4779 H 483.199 2.30213 2.85303 0
M  V30 4780 H 482.847 0.964475 4.93667 0
M  V30 4781 H 482.547 2.69745 5.22026 0
M  V30 4782 H 484.071 1.95513 5.78452 0
M  V30 4783 H 485.485 3.72364 4.35911 0
M  V30 4784 H 483.882 4.44425 4.03245 0
M  V30 4785 H 484.952 4.04305 2.67704 0
M  V30 4786 N 486.295 -0.989507 1.22664 0
M  V30 4787 C 487.541 -1.7321 1.05481 0
M  V30 4788 C 487.874 -1.89852 -0.408635 0
M  V30 4789 O 487.149 -1.44416 -1.30285 0
M  V30 4790 C 487.432 -3.1357 1.77047 0
M  V30 4791 C 487.285 -3.04555 3.31008 0
M  V30 4792 C 488.604 -4.12812 1.5256 0
M  V30 4793 H 485.723 -0.628697 0.384589 0
M  V30 4794 H 488.365 -1.15258 1.51049 0
M  V30 4795 H 486.515 -3.63046 1.3831 0
M  V30 4796 H 488.187 -2.62674 3.7921 0
M  V30 4797 H 486.43 -2.41278 3.6051 0
M  V30 4798 H 487.101 -4.03894 3.76263 0
M  V30 4799 H 489.577 -3.72106 1.86215 0
M  V30 4800 H 488.453 -5.09132 2.05124 0
M  V30 4801 H 488.714 -4.39711 0.458936 0
M  V30 4802 N 487.773 -1.03688 -1.18687 0
M  V30 4803 C 488.683 -0.634908 -2.25845 0
M  V30 4804 C 489.699 0.337065 -1.70704 0
M  V30 4805 O 490.875 0.192943 -2.00474 0
M  V30 4806 C 487.94 -0.000180054 -3.467 0
M  V30 4807 C 487.001 -1.02067 -4.1699 0
M  V30 4808 C 486.234 -0.41614 -5.32075 0
M  V30 4809 O 486.457 0.778712 -5.65059 0
M  V30 4810 O 485.391 -1.14296 -5.90948 0
M  V30 4811 H 489.217 -1.52757 -2.62486 0
M  V30 4812 H 486.802 -0.807533 -1.25695 0
M  V30 4813 H 488.684 0.353342 -4.19916 0
M  V30 4814 H 487.359 0.866367 -3.11891 0
M  V30 4815 H 486.266 -1.42592 -3.45859 0
M  V30 4816 H 487.599 -1.85786 -4.5579 0
M  V30 4817 N 489.251 1.34841 -0.815825 0
M  V30 4818 C 490.5 1.97755 -0.396976 0
M  V30 4819 C 490.813 1.65422 1.04379 0
M  V30 4820 O 492.019 2.21771 1.5662 0
M  V30 4821 C 490.475 3.53818 -0.658869 0
M  V30 4822 C 490.083 3.95051 -2.11278 0
M  V30 4823 C 491.827 4.23397 -0.305834 0
M  V30 4824 C 489.734 5.43997 -2.31994 0
M  V30 4825 H 488.664 0.739985 -0.1447 0
M  V30 4826 H 491.315 1.53781 -1.00118 0
M  V30 4827 H 489.697 3.95997 0.0154112 0
M  V30 4828 H 490.871 3.63998 -2.82564 0
M  V30 4829 H 489.186 3.38388 -2.42657 0
M  V30 4830 H 491.783 5.32899 -0.43854 0
M  V30 4831 H 492.126 4.09508 0.748952 0
M  V30 4832 H 492.659 3.8667 -0.934403 0
M  V30 4833 H 489.398 5.62865 -3.35952 0
M  V30 4834 H 488.918 5.76589 -1.65244 0
M  V30 4835 H 490.597 6.10584 -2.14001 0
M  V30 4836 N 490.729 0.570148 1.46925 0
M  V30 4837 C 491.978 0.0487352 2.01641 0
M  V30 4838 C 492.291 -1.31433 1.44861 0
M  V30 4839 O 493.497 -1.92638 1.91318 0
M  V30 4840 C 491.953 0.0365817 3.59881 0
M  V30 4841 C 491.561 1.39719 4.25655 0
M  V30 4842 C 493.305 -0.431545 4.22301 0
M  V30 4843 C 491.212 1.34345 5.75939 0
M  V30 4844 H 490.142 0.0144492 0.753862 0
M  V30 4845 H 492.793 0.719928 1.68788 0
M  V30 4846 H 491.175 -0.700522 3.89755 0
M  V30 4847 H 492.349 2.15303 4.07408 0
M  V30 4848 H 490.664 1.80431 3.75278 0
M  V30 4849 H 493.261 -0.490354 5.32447 0
M  V30 4850 H 493.604 -1.44638 3.90366 0
M  V30 4851 H 494.137 0.251102 3.97007 0
M  V30 4852 H 490.876 2.33469 6.12513 0
M  V30 4853 H 490.396 0.629615 5.96486 0
M  V30 4854 H 492.075 1.051 6.38407 0
M  V30 4855 N 492.207 -1.54576 0.307264 0
M  V30 4856 C 493.154 -2.23751 -0.56604 0
M  V30 4857 C 494.124 -1.22235 -1.12462 0
M  V30 4858 O 495.309 -1.50873 -1.16799 0
M  V30 4859 C 492.449 -2.98661 -1.72903 0
M  V30 4860 C 491.562 -4.14963 -1.20124 0
M  V30 4861 C 490.697 -4.77441 -2.3286 0
M  V30 4862 C 489.736 -5.85875 -1.77247 0
M  V30 4863 N 488.873 -6.42282 -2.8358 0
M  V30 4864 H 493.713 -2.97984 0.0304578 0
M  V30 4865 H 491.25 -1.47076 0.0268015 0
M  V30 4866 H 493.208 -3.40329 -2.41313 0
M  V30 4867 H 491.838 -2.26793 -2.29706 0
M  V30 4868 H 490.89 -3.78193 -0.409198 0
M  V30 4869 H 492.202 -4.93066 -0.754171 0
M  V30 4870 H 491.356 -5.21993 -3.09205 0
M  V30 4871 H 490.095 -3.98684 -2.80896 0
M  V30 4872 H 489.1 -5.40741 -0.993926 0
M  V30 4873 H 490.325 -6.6652 -1.30107 0
M  V30 4874 H 488.271 -5.66406 -3.30939 0
M  V30 4875 H 488.188 -7.1575 -2.43388 0
M  V30 4876 H 489.456 -6.91492 -3.59804 0
M  V30 4877 N 493.685 -0.035106 -1.57561 0
M  V30 4878 C 494.931 0.64318 -1.92331 0
M  V30 4879 C 495.264 1.71434 -0.912368 0
M  V30 4880 O 494.539 1.94395 0.0640303 0
M  V30 4881 C 494.822 1.25411 -3.37556 0
M  V30 4882 C 494.675 0.192109 -4.4939 0
M  V30 4883 C 495.994 2.17041 -3.82859 0
M  V30 4884 H 493.113 0.232341 -0.699419 0
M  V30 4885 H 495.755 -0.0935889 -1.89769 0
M  V30 4886 H 493.905 1.88205 -3.39869 0
M  V30 4887 H 495.577 -0.438849 -4.59208 0
M  V30 4888 H 493.82 -0.481725 -4.31117 0
M  V30 4889 H 494.491 0.659292 -5.48049 0
M  V30 4890 H 496.967 1.64228 -3.8232 0
M  V30 4891 H 495.843 2.56738 -4.85157 0
M  V30 4892 H 496.104 3.06401 -3.18702 0
M  V30 4893 N 495.163 1.55791 0.238111 0
M  V30 4894 C 496.093 1.94068 1.29846 0
M  V30 4895 C 497.074 0.806726 1.49753 0
M  V30 4896 O 498.259 1.06772 1.62214 0
M  V30 4897 C 495.389 2.24302 2.65153 0
M  V30 4898 C 494.343 3.40032 2.59927 0
M  V30 4899 C 493.669 3.55829 3.99111 0
M  V30 4900 C 494.969 4.75476 2.16148 0
M  V30 4901 H 496.663 2.82887 0.980563 0
M  V30 4902 H 494.209 1.36105 0.470253 0
M  V30 4903 H 496.162 2.4967 3.39475 0
M  V30 4904 H 494.886 1.32318 2.98596 0
M  V30 4905 H 493.545 3.14687 1.88063 0
M  V30 4906 H 493.193 2.6125 4.29834 0
M  V30 4907 H 492.893 4.3366 3.96501 0
M  V30 4908 H 494.417 3.83528 4.7512 0
M  V30 4909 H 495.831 5.00158 2.80205 0
M  V30 4910 H 494.228 5.56472 2.24631 0
M  V30 4911 H 495.298 4.71946 1.11333 0
M  V30 4912 N 496.642 -0.504142 1.49319 0
M  V30 4913 C 497.89 -1.25598 1.58334 0
M  V30 4914 C 498.211 -1.93114 0.270538 0
M  V30 4915 O 497.481 -1.82585 -0.709891 0
M  V30 4916 H 496.061 -0.466571 0.58337 0
M  V30 4917 H 498.723 -0.584547 1.85928 0
M  V30 4918 H 497.819 -2.02159 2.37778 0
M  V30 4919 N 498.12 -1.38341 -0.754957 0
M  V30 4920 C 499.348 -1.37704 -1.54419 0
M  V30 4921 C 499.763 0.0335243 -1.8877 0
M  V30 4922 O 499.12 0.999773 -1.52679 0
M  V30 4923 C 499.171 -2.23136 -2.84416 0
M  V30 4924 O 498.892 -3.58697 -2.51531 0
M  V30 4925 C 500.393 -2.30664 -3.78562 0
M  V30 4926 H 497.613 -0.471061 -0.477852 0
M  V30 4927 H 500.157 -1.81902 -0.934446 0
M  V30 4928 H 498.312 -1.82403 -3.41772 0
M  V30 4929 H 498.726 -4.03665 -3.34896 0
M  V30 4930 H 500.2 -2.9473 -4.66732 0
M  V30 4931 H 500.677 -1.3199 -4.18898 0
M  V30 4932 H 501.283 -2.71781 -3.27131 0
M  V30 4933 N 499.598 0.982988 -1.23187 0
M  V30 4934 C 501.009 1.53847 -1.05773 0
M  V30 4935 C 501.36 1.92568 0.375744 0
M  V30 4936 O 500.485 1.75783 1.26211 0
M  V30 4937 C 501.08 2.79567 -1.91384 0
M  V30 4938 C 499.639 3.31524 -1.78238 0
M  V30 4939 C 498.786 2.04534 -1.87246 0
M  V30 4940 H 501.737 0.802962 -1.36888 0
M  V30 4941 H 501.758 3.52317 -1.43711 0
M  V30 4942 H 501.27 2.51353 -2.95708 0
M  V30 4943 H 499.371 3.64623 -0.766875 0
M  V30 4944 H 499.484 4.01457 -2.61475 0
M  V30 4945 H 497.848 2.1855 -1.30797 0
M  V30 4946 H 498.631 1.78706 -2.9312 0
M  V30 4947 N 501.076 1.04316 1.18135 0
M  V30 4948 C 502.304 0.768117 1.92113 0
M  V30 4949 C 502.719 -0.675057 1.76319 0
M  V30 4950 O 502.076 -1.46038 1.09449 0
M  V30 4951 C 502.127 1.12808 3.43448 0
M  V30 4952 O 501.848 2.5146 3.58747 0
M  V30 4953 C 503.349 0.8779 4.3452 0
M  V30 4954 H 500.569 0.279937 0.609817 0
M  V30 4955 H 503.113 1.39149 1.49859 0
M  V30 4956 H 501.268 0.549623 3.83481 0
M  V30 4957 H 501.682 2.65313 4.52448 0
M  V30 4958 H 503.156 1.17959 5.39249 0
M  V30 4959 H 503.633 -0.187239 4.38801 0
M  V30 4960 H 504.239 1.43977 4.00188 0
M  V30 4961 N 502.554 -1.34406 0.822964 0
M  V30 4962 C 503.97 -1.51275 0.508727 0
M  V30 4963 C 504.17 -1.76776 -0.967083 0
M  V30 4964 O 503.226 -1.81871 -1.75155 0
M  V30 4965 C 504.539 -2.67765 1.36829 0
M  V30 4966 C 506.087 -2.81647 1.36542 0
M  V30 4967 C 506.562 -4.01181 2.20947 0
M  V30 4968 N 508.053 -4.08388 2.18571 0
M  V30 4969 C 508.788 -5.00036 2.80627 0
M  V30 4970 N 508.284 -5.96906 3.51674 0
M  V30 4971 N 510.077 -4.92908 2.70181 0
M  V30 4972 H 502.228 -1.16113 1.77852 0
M  V30 4973 H 504.491 -0.56947 0.757897 0
M  V30 4974 H 504.197 -2.55551 2.41633 0
M  V30 4975 H 504.071 -3.62779 1.03303 0
M  V30 4976 H 506.458 -2.93303 0.325163 0
M  V30 4977 H 506.539 -1.87443 1.74066 0
M  V30 4978 H 506.183 -3.90286 3.25022 0
M  V30 4979 H 506.113 -4.94599 1.80774 0
M  V30 4980 H 508.604 -3.39051 1.66891 0
M  V30 4981 H 508.917 -6.63468 3.96271 0
M  V30 4982 H 507.262 -5.9703 3.5578 0
M  V30 4983 H 510.453 -4.1619 2.14251 0
M  V30 4984 H 510.626 -5.64137 3.18831 0
M  V30 4985 N 504.032 -0.577932 -1.46621 0
M  V30 4986 C 504.942 0.160651 -2.34049 0
M  V30 4987 C 505.958 0.890911 -1.49462 0
M  V30 4988 O 507.134 0.855166 -1.82343 0
M  V30 4989 C 504.199 1.16447 -3.26559 0
M  V30 4990 C 503.26 0.4394 -4.27045 0
M  V30 4991 C 502.493 1.3954 -5.15135 0
M  V30 4992 O 502.716 2.63162 -5.06065 0
M  V30 4993 O 501.65 0.908585 -5.95003 0
M  V30 4994 H 505.476 -0.557057 -2.98547 0
M  V30 4995 H 503.061 -0.338369 -1.45518 0
M  V30 4996 H 504.943 1.7434 -3.83645 0
M  V30 4997 H 503.618 1.86373 -2.64663 0
M  V30 4998 H 502.525 -0.181247 -3.73661 0
M  V30 4999 H 503.858 -0.218799 -4.91713 0
M  V30 5000 N 505.51 1.54411 -0.315457 0
M  V30 5001 C 506.442 2.21527 0.588067 0
M  V30 5002 C 507.455 1.21263 1.08624 0
M  V30 5003 O 508.644 1.47777 1.00121 0
M  V30 5004 C 505.744 2.85963 1.81875 0
M  V30 5005 C 504.917 4.12291 1.46063 0
M  V30 5006 C 503.976 4.60396 2.54799 0
M  V30 5007 O 503.002 5.25265 2.19283 0
M  V30 5008 N 504.204 4.33935 3.85591 0
M  V30 5009 H 506.969 2.99697 0.013414 0
M  V30 5010 H 504.53 1.61308 -0.138295 0
M  V30 5011 H 506.522 3.15071 2.53993 0
M  V30 5012 H 505.092 2.11548 2.30144 0
M  V30 5013 H 504.312 3.90036 0.571445 0
M  V30 5014 H 505.6 4.9452 1.19695 0
M  V30 5015 H 504.998 3.81996 4.17248 0
M  V30 5016 H 503.555 4.67718 4.53964 0
M  V30 5017 N 506.988 0.0434614 1.5754 0
M  V30 5018 C 508.237 -0.631454 1.91561 0
M  V30 5019 C 508.55 -1.72457 0.92292 0
M  V30 5020 O 509.756 -2.45712 1.15489 0
M  V30 5021 C 508.212 -1.17447 3.40197 0
M  V30 5022 C 507.82 -0.113867 4.47855 0
M  V30 5023 C 509.564 -1.82507 3.83264 0
M  V30 5024 C 507.471 -0.669326 5.876 0
M  V30 5025 H 506.401 -0.239629 0.714908 0
M  V30 5026 H 509.052 0.111097 1.83163 0
M  V30 5027 H 507.434 -1.96909 3.43574 0
M  V30 5028 H 508.608 0.659348 4.56058 0
M  V30 5029 H 506.923 0.438821 4.14081 0
M  V30 5030 H 509.52 -2.25047 4.85034 0
M  V30 5031 H 509.863 -2.67365 3.19095 0
M  V30 5032 H 510.396 -1.09712 3.82372 0
M  V30 5033 H 507.135 0.141449 6.55347 0
M  V30 5034 H 506.655 -1.4107 5.82974 0
M  V30 5035 H 508.334 -1.15463 6.36614 0
M  V30 5036 N 508.466 -1.55915 -0.229846 0
M  V30 5037 C 509.882 -1.48721 -0.579166 0
M  V30 5038 C 510.082 -0.736976 -1.87539 0
M  V30 5039 O 509.138 -0.273258 -2.51017 0
M  V30 5040 C 510.451 -2.9323 -0.666082 0
M  V30 5041 C 511.999 -3.03701 -0.757267 0
M  V30 5042 C 512.474 -4.49552 -0.8756 0
M  V30 5043 N 513.965 -4.53561 -0.940035 0
M  V30 5044 C 514.7 -5.63683 -1.05116 0
M  V30 5045 N 514.196 -6.83576 -1.12675 0
M  V30 5046 N 515.989 -5.51516 -1.08565 0
M  V30 5047 H 508.14 -2.03123 0.620857 0
M  V30 5048 H 510.403 -0.922898 0.21671 0
M  V30 5049 H 510.109 -3.51032 0.21664 0
M  V30 5050 H 509.983 -3.44668 -1.53243 0
M  V30 5051 H 512.37 -2.45969 -1.63043 0
M  V30 5052 H 512.451 -2.55446 0.134583 0
M  V30 5053 H 512.095 -5.079 -0.00692351 0
M  V30 5054 H 512.025 -4.95506 -1.78274 0
M  V30 5055 H 514.516 -3.67215 -0.892269 0
M  V30 5056 H 514.829 -7.63251 -1.21109 0
M  V30 5057 H 513.174 -6.86303 -1.09603 0
M  V30 5058 H 516.365 -4.5678 -1.02319 0
M  V30 5059 H 516.538 -6.37372 -1.1688 0
M  V30 5060 N 509.944 0.496216 -1.49584 0
M  V30 5061 C 510.854 1.62352 -1.69349 0
M  V30 5062 C 511.87 1.64184 -0.576147 0
M  V30 5063 O 513.046 1.82517 -0.85144 0
M  V30 5064 C 510.111 2.98698 -1.76013 0
M  V30 5065 C 509.172 3.07454 -2.99617 0
M  V30 5066 C 508.405 4.37296 -3.05953 0
M  V30 5067 O 508.628 5.2637 -2.19752 0
M  V30 5068 O 507.562 4.51124 -3.9846 0
M  V30 5069 H 511.388 1.48606 -2.64859 0
M  V30 5070 H 508.973 0.673022 -1.33382 0
M  V30 5071 H 510.855 3.79725 -1.82721 0
M  V30 5072 H 509.53 3.12696 -0.836828 0
M  V30 5073 H 508.437 2.25597 -2.98424 0
M  V30 5074 H 509.77 2.98385 -3.91443 0
M  V30 5075 N 511.423 1.38739 0.74761 0
M  V30 5076 C 512.356 1.3083 1.86972 0
M  V30 5077 C 513.334 0.184229 1.61553 0
M  V30 5078 O 514.518 0.36256 1.8498 0
M  V30 5079 C 511.645 1.02854 3.22705 0
M  V30 5080 C 510.691 2.17281 3.67003 0
M  V30 5081 S 511.524 3.79468 3.77842 0
M  V30 5082 C 512.68 3.53692 5.16385 0
M  V30 5083 H 512.913 2.258 1.93395 0
M  V30 5084 H 510.446 1.24646 0.911199 0
M  V30 5085 H 512.404 0.87397 4.01089 0
M  V30 5086 H 511.065 0.0959295 3.13953 0
M  V30 5087 H 510.258 1.93267 4.65472 0
M  V30 5088 H 509.86 2.28876 2.9579 0
M  V30 5089 H 512.152 3.10176 6.02327 0
M  V30 5090 H 513.095 4.51576 5.45422 0
M  V30 5091 H 513.503 2.8807 4.85464 0
M  V30 5092 N 512.901 -0.976442 1.23707 0
M  V30 5093 C 513.849 -2.09078 1.01927 0
M  V30 5094 C 514.843 -1.69345 -0.0430193 0
M  V30 5095 O 516.049 -1.79659 0.110814 0
M  V30 5096 H 512.424 -0.68398 0.312531 0
M  V30 5097 H 514.395 -2.24614 1.96447 0
M  V30 5098 C 513.144 -3.41919 0.631385 0
M  V30 5099 H 512.467 -3.72946 1.44053 0
M  V30 5100 H 513.907 -4.20817 0.518532 0
M  V30 5101 C 512.366 -3.30357 -0.660723 0
M  V30 5102 O 512.896 -3.63542 -1.70881 0
M  V30 5103 N 511.102 -2.83507 -0.638139 0
M  V30 5104 H 510.649 -2.567 0.215108 0
M  V30 5105 H 510.607 -2.76153 -1.50289 0
M  V30 5106 N 514.379 -1.04941 -1.1758 0
M  V30 5107 C 515.79 -0.784501 -1.69418 0
M  V30 5108 C 516.141 0.693625 -1.8353 0
M  V30 5109 O 515.266 1.53925 -1.52106 0
M  V30 5110 C 515.861 -1.41746 -3.07723 0
M  V30 5111 C 514.42 -1.20066 -3.56737 0
M  V30 5112 C 513.567 -1.5026 -2.33061 0
M  V30 5113 H 516.518 -1.21469 -1.02133 0
M  V30 5114 H 516.539 -0.825381 -3.7144 0
M  V30 5115 H 516.051 -2.49325 -2.9742 0
M  V30 5116 H 514.152 -0.144006 -3.72322 0
M  V30 5117 H 514.265 -1.90384 -4.39648 0
M  V30 5118 H 512.629 -0.922598 -2.37403 0
M  V30 5119 H 513.412 -2.58967 -2.25368 0
M  V30 5120 N 515.857 1.33968 -0.830081 0
M  V30 5121 C 516.805 2.31301 -0.245435 0
M  V30 5122 C 517.799 1.57734 0.617762 0
M  V30 5123 O 519.005 1.72674 0.508303 0
M  V30 5124 H 515.38 0.749552 -0.0606316 0
M  V30 5125 H 517.351 2.78129 -1.08105 0
M  V30 5126 C 516.1 3.42961 0.572084 0
M  V30 5127 H 515.423 3.99714 -0.0828118 0
M  V30 5128 H 516.863 4.13286 0.94715 0
M  V30 5129 C 515.322 2.88043 1.74737 0
M  V30 5130 O 515.852 2.83508 2.8458 0
M  V30 5131 N 514.058 2.44768 1.56642 0
M  V30 5132 H 513.605 2.48656 0.672901 0
M  V30 5133 H 513.563 2.08375 2.3543 0
M  V30 5134 N 517.335 0.585699 1.46312 0
M  V30 5135 C 518.565 0.0780166 2.06453 0
M  V30 5136 C 518.973 -1.2336 1.43454 0
M  V30 5137 O 518.316 -1.75734 0.535086 0
M  V30 5138 C 518.378 -0.158951 3.59148 0
M  V30 5139 C 518.042 1.06752 4.44357 0
M  V30 5140 C 519.039 1.98031 4.80708 0
M  V30 5141 C 516.724 1.2902 4.85447 0
M  V30 5142 C 518.718 3.09924 5.5698 0
M  V30 5143 C 516.405 2.41218 5.61478 0
M  V30 5144 C 517.403 3.31499 5.97158 0
M  V30 5145 O 517.091 4.41747 6.71651 0
M  V30 5146 H 516.823 0.0558894 0.673686 0
M  V30 5147 H 519.377 0.806994 1.88883 0
M  V30 5148 H 517.607 -0.942575 3.75037 0
M  V30 5149 H 519.296 -0.615513 4.01206 0
M  V30 5150 H 520.062 1.82043 4.49539 0
M  V30 5151 H 515.941 0.596567 4.57124 0
M  V30 5152 H 519.485 3.80415 5.84748 0
M  V30 5153 H 515.382 2.57167 5.9206 0
M  V30 5154 H 516.15 4.40152 6.90079 0
M  V30 5155 N 518.813 -1.54241 0.323641 0
M  V30 5156 C 520.041 -2.04985 -0.280871 0
M  V30 5157 C 520.456 -1.19978 -1.45777 0
M  V30 5158 O 519.813 -0.230471 -1.81039 0
M  V30 5159 C 519.864 -3.54353 -0.715258 0
M  V30 5160 O 519.585 -4.36132 0.414817 0
M  V30 5161 C 521.086 -4.21189 -1.38257 0
M  V30 5162 H 518.306 -0.66851 -0.0577502 0
M  V30 5163 H 520.85 -1.99029 0.469852 0
M  V30 5164 H 519.005 -3.60596 -1.41596 0
M  V30 5165 H 519.419 -5.2445 0.0725227 0
M  V30 5166 H 520.893 -5.27154 -1.63745 0
M  V30 5167 H 521.37 -3.72307 -2.32989 0
M  V30 5168 H 521.976 -4.19085 -0.724447 0
M  V30 5169 N 520.291 -0.0518155 -1.57515 0
M  V30 5170 C 521.201 0.937539 -2.15052 0
M  V30 5171 C 522.217 1.34121 -1.10849 0
M  V30 5172 O 523.393 1.418 -1.4302 0
M  V30 5173 C 520.458 2.19379 -2.68466 0
M  V30 5174 C 519.519 1.84841 -3.87469 0
M  V30 5175 C 518.752 3.04477 -4.38326 0
M  V30 5176 O 518.975 4.17868 -3.88256 0
M  V30 5177 O 517.909 2.85453 -5.29906 0
M  V30 5178 H 521.735 0.478201 -2.99912 0
M  V30 5179 H 519.32 0.17012 -1.48428 0
M  V30 5180 H 521.202 2.93084 -3.02787 0
M  V30 5181 H 519.877 2.64449 -1.86677 0
M  V30 5182 H 518.784 1.08449 -3.58036 0
M  V30 5183 H 520.117 1.44569 -4.7049 0
M  V30 5184 N 521.769 1.56035 0.221574 0
M  V30 5185 C 523.016 1.79047 0.94597 0
M  V30 5186 C 523.344 0.62057 1.84334 0
M  V30 5187 O 522.599 -0.395053 1.91671 0
M  V30 5188 C 522.898 3.07813 1.8162 0
M  V30 5189 C 522.564 4.3797 1.07206 0
M  V30 5190 C 521.226 4.73334 0.866508 0
M  V30 5191 C 523.578 5.18326 0.546565 0
M  V30 5192 C 520.906 5.8657 0.123549 0
M  V30 5193 C 523.258 6.32335 -0.18305 0
M  V30 5194 C 521.922 6.66301 -0.399861 0
M  V30 5195 H 521.192 0.655178 0.346155 0
M  V30 5196 H 523.839 1.90299 0.214146 0
M  V30 5197 H 522.144 2.91682 2.61589 0
M  V30 5198 H 523.841 3.2282 2.37884 0
M  V30 5199 H 520.431 4.10202 1.24226 0
M  V30 5200 H 524.615 4.9144 0.692847 0
M  V30 5201 H 519.871 6.11376 -0.0546591 0
M  V30 5202 H 524.045 6.9383 -0.59775 0
M  V30 5203 H 521.672 7.53889 -0.977489 0
M  V30 5204 N 523.247 -0.488276 1.49845 0
M  V30 5205 C 524.194 -1.58836 1.67451 0
M  V30 5206 C 525.164 -1.57886 0.515857 0
M  V30 5207 O 526.349 -1.75679 0.744403 0
M  V30 5208 C 523.489 -2.96915 1.75885 0
M  V30 5209 C 522.602 -3.07784 3.03138 0
M  V30 5210 C 521.737 -4.36673 3.02473 0
M  V30 5211 C 520.776 -4.41222 4.24252 0
M  V30 5212 N 519.913 -5.61557 4.21424 0
M  V30 5213 H 524.753 -1.43131 2.61376 0
M  V30 5214 H 522.29 -0.696186 1.29583 0
M  V30 5215 H 524.248 -3.76965 1.78755 0
M  V30 5216 H 522.878 -3.11295 0.85414 0
M  V30 5217 H 521.93 -2.20717 3.09819 0
M  V30 5218 H 523.242 -3.07005 3.93128 0
M  V30 5219 H 522.396 -5.25055 3.03977 0
M  V30 5220 H 521.135 -4.40037 2.10283 0
M  V30 5221 H 520.14 -3.5124 4.22978 0
M  V30 5222 H 521.365 -4.39564 5.17649 0
M  V30 5223 H 519.311 -5.65738 3.32078 0
M  V30 5224 H 519.228 -5.62447 5.05163 0
M  V30 5225 H 520.496 -6.52111 4.2705 0
M  V30 5226 N 524.725 -1.39134 -0.740242 0
M  V30 5227 C 525.972 -1.36071 -1.49969 0
M  V30 5228 C 526.3 0.0450245 -1.94448 0
M  V30 5229 O 525.555 1.02482 -1.66721 0
M  V30 5230 C 525.854 -2.27457 -2.75678 0
M  V30 5231 C 525.52 -3.75185 -2.50094 0
M  V30 5232 C 524.182 -4.15439 -2.42825 0
M  V30 5233 C 526.534 -4.68643 -2.28086 0
M  V30 5234 C 523.862 -5.4722 -2.11584 0
M  V30 5235 C 526.214 -6.00695 -1.98363 0
M  V30 5236 C 524.878 -6.40018 -1.8956 0
M  V30 5237 H 524.148 -0.497921 -0.548777 0
M  V30 5238 H 526.795 -1.71599 -0.85007 0
M  V30 5239 H 525.1 -1.8503 -3.45356 0
M  V30 5240 H 526.797 -2.22384 -3.33686 0
M  V30 5241 H 523.387 -3.43279 -2.56627 0
M  V30 5242 H 527.571 -4.3838 -2.32672 0
M  V30 5243 H 522.827 -5.76615 -2.03287 0
M  V30 5244 H 527.001 -6.72644 -1.80341 0
M  V30 5245 H 524.628 -7.42051 -1.65117 0
M  V30 5246 N 526.204 0.969867 -1.24223 0
M  V30 5247 C 527.615 1.52717 -1.07399 0
M  V30 5248 C 527.966 1.92956 0.355298 0
M  V30 5249 O 527.091 1.77112 1.2434 0
M  V30 5250 C 527.686 2.77521 -1.94339 0
M  V30 5251 C 526.245 3.29615 -1.81744 0
M  V30 5252 C 525.392 2.02537 -1.89405 0
M  V30 5253 H 528.343 0.788399 -1.37732 0
M  V30 5254 H 528.364 3.50773 -1.47439 0
M  V30 5255 H 527.876 2.48203 -2.98357 0
M  V30 5256 H 525.977 3.63789 -0.805505 0
M  V30 5257 H 526.09 3.98661 -2.65718 0
M  V30 5258 H 524.454 2.17151 -1.33108 0
M  V30 5259 H 525.237 1.75587 -2.94999 0
M  V30 5260 N 527.682 1.05563 1.17022 0
M  V30 5261 C 528.614 0.617888 2.20714 0
M  V30 5262 C 529.627 -0.320303 1.59618 0
M  V30 5263 O 530.816 -0.112449 1.78145 0
M  V30 5264 C 527.916 -0.115333 3.38704 0
M  V30 5265 C 527.089 0.834493 4.29366 0
M  V30 5266 C 526.148 0.141855 5.26009 0
M  V30 5267 O 525.174 0.777151 5.6387 0
M  V30 5268 N 526.376 -1.11934 5.69606 0
M  V30 5269 H 529.141 1.50981 2.58892 0
M  V30 5270 H 526.702 0.938008 1.31958 0
M  V30 5271 H 528.694 -0.588918 4.00392 0
M  V30 5272 H 527.264 -0.908967 2.99093 0
M  V30 5273 H 526.484 1.48762 3.65053 0
M  V30 5274 H 527.772 1.4791 4.86827 0
M  V30 5275 H 527.17 -1.65574 5.40927 0
M  V30 5276 H 525.727 -1.53692 6.33421 0
M  V30 5277 N 529.16 -1.33526 0.837174 0
M  V30 5278 C 530.409 -1.97098 0.428387 0
M  V30 5279 C 530.722 -1.67062 -1.01734 0
M  V30 5280 O 531.928 -2.24235 -1.53072 0
M  V30 5281 C 530.384 -3.52725 0.715075 0
M  V30 5282 C 529.992 -3.9164 2.17537 0
M  V30 5283 C 531.736 -4.22857 0.373154 0
M  V30 5284 C 529.643 -5.40237 2.40619 0
M  V30 5285 H 528.573 -0.737589 0.156455 0
M  V30 5286 H 531.224 -1.52169 1.02552 0
M  V30 5287 H 529.606 -3.95971 0.0475904 0
M  V30 5288 H 530.78 -3.59456 2.88319 0
M  V30 5289 H 529.095 -3.34485 2.4801 0
M  V30 5290 H 531.692 -5.32133 0.523264 0
M  V30 5291 H 532.035 -4.10647 -0.683708 0
M  V30 5292 H 532.568 -3.85135 0.995801 0
M  V30 5293 H 529.307 -5.57449 3.44864 0
M  V30 5294 H 528.827 -5.73887 1.74396 0
M  V30 5295 H 530.506 -6.07102 2.23688 0
M  V30 5296 N 530.638 -0.59345 -1.46 0
M  V30 5297 C 531.585 0.133618 -2.30413 0
M  V30 5298 C 532.555 0.873736 -1.41262 0
M  V30 5299 O 533.74 0.862279 -1.70204 0
M  V30 5300 C 530.88 1.13434 -3.25924 0
M  V30 5301 C 529.993 0.39656 -4.30176 0
M  V30 5302 C 529.128 1.38575 -5.12806 0
M  V30 5303 C 528.167 0.634984 -6.08797 0
M  V30 5304 N 527.304 1.57276 -6.84258 0
M  V30 5305 H 532.144 -0.592252 -2.92055 0
M  V30 5306 H 529.681 -0.303874 -1.43927 0
M  V30 5307 H 531.639 1.72752 -3.79753 0
M  V30 5308 H 530.269 1.82779 -2.66067 0
M  V30 5309 H 529.321 -0.311861 -3.79119 0
M  V30 5310 H 530.633 -0.189869 -4.98438 0
M  V30 5311 H 529.787 2.05141 -5.70966 0
M  V30 5312 H 528.526 2.00611 -4.44529 0
M  V30 5313 H 527.531 -0.0443925 -5.49782 0
M  V30 5314 H 528.756 0.0198678 -6.79097 0
M  V30 5315 H 526.702 2.18103 -6.18682 0
M  V30 5316 H 526.619 1.03941 -7.48821 0
M  V30 5317 H 527.887 2.22844 -7.46968 0
M  V30 5318 N 532.116 1.54067 -0.331816 0
M  V30 5319 C 533.079 2.23275 0.517768 0
M  V30 5320 C 534.079 1.22897 1.03697 0
M  V30 5321 O 535.269 1.47419 0.928084 0
M  V30 5322 C 532.401 2.94326 1.72004 0
M  V30 5323 H 533.594 2.99773 -0.0873507 0
M  V30 5324 H 531.147 1.56079 -0.0830042 0
M  V30 5325 H 531.882 2.21986 2.36417 0
M  V30 5326 H 531.667 3.67941 1.35507 0
M  V30 5327 H 533.157 3.47031 2.32291 0
M  V30 5328 N 533.594 0.0601682 1.57485 0
M  V30 5329 C 534.544 -0.920969 2.08572 0
M  V30 5330 C 535.528 -1.26617 0.992827 0
M  V30 5331 O 536.72 -1.24708 1.25606 0
M  V30 5332 C 533.849 -2.19267 2.64153 0
M  V30 5333 C 532.935 -1.87447 3.80427 0
M  V30 5334 N 533.326 -1.26025 4.89848 0
M  V30 5335 C 531.624 -2.17265 3.89502 0
M  V30 5336 C 532.325 -1.12036 5.70809 0
M  V30 5337 N 531.301 -1.62624 5.18705 0
M  V30 5338 H 535.103 -0.441561 2.90564 0
M  V30 5339 H 532.617 -0.144043 1.6176 0
M  V30 5340 H 534.614 -2.90462 2.99061 0
M  V30 5341 H 533.274 -2.67806 1.83603 0
M  V30 5342 H 534.285 -0.931336 5.09457 0
M  V30 5343 H 530.962 -2.68262 3.19909 0
M  V30 5344 H 532.352 -0.642783 6.68818 0
M  V30 5345 N 535.072 -1.5615 -0.213296 0
M  V30 5346 C 536.483 -1.69645 -0.779582 0
M  V30 5347 C 536.834 -0.663615 -1.84636 0
M  V30 5348 O 535.959 0.183633 -2.15619 0
M  V30 5349 C 536.554 -3.07567 -1.42084 0
M  V30 5350 C 535.113 -3.22889 -1.93442 0
M  V30 5351 C 534.26 -2.65581 -0.797612 0
M  V30 5352 H 537.211 -1.58696 0.0114951 0
M  V30 5353 H 537.232 -3.03884 -2.28986 0
M  V30 5354 H 536.744 -3.82716 -0.644187 0
M  V30 5355 H 534.845 -2.52623 -2.73884 0
M  V30 5356 H 534.958 -4.30197 -2.10872 0
M  V30 5357 H 533.322 -2.24278 -1.20712 0
M  V30 5358 H 534.105 -3.43284 -0.033494 0
M  V30 5359 N 536.55 0.480323 -1.50102 0
M  V30 5360 C 537.796 1.23208 -1.61837 0
M  V30 5361 C 538.151 1.89878 -0.310509 0
M  V30 5362 O 537.444 1.7871 0.690897 0
M  V30 5363 C 537.638 2.30708 -2.72963 0
M  V30 5364 C 537.467 1.74583 -4.14428 0
M  V30 5365 C 536.237 1.54964 -4.80951 0
M  V30 5366 C 538.435 1.24597 -4.98979 0
M  V30 5367 N 536.417 0.939855 -6.06663 0
M  V30 5368 C 537.788 0.758834 -6.15339 0
M  V30 5369 C 539.843 1.13365 -4.84822 0
M  V30 5370 C 538.546 0.17046 -7.19098 0
M  V30 5371 C 540.572 0.559221 -5.8875 0
M  V30 5372 C 539.934 0.082415 -7.04352 0
M  V30 5373 H 536.033 0.440065 -0.646426 0
M  V30 5374 H 538.617 0.535632 -1.87187 0
M  V30 5375 H 536.788 2.9779 -2.4935 0
M  V30 5376 H 538.52 2.97738 -2.74106 0
M  V30 5377 H 535.275 1.79926 -4.38091 0
M  V30 5378 H 535.699 0.653641 -6.73837 0
M  V30 5379 H 540.341 1.48823 -3.95742 0
M  V30 5380 H 538.059 -0.196347 -8.07861 0
M  V30 5381 H 541.645 0.474804 -5.79859 0
M  V30 5382 H 540.525 -0.355119 -7.83396 0
M  V30 5383 N 538.028 1.39524 0.732853 0
M  V30 5384 C 539.256 1.40143 1.52209 0
M  V30 5385 C 539.671 -0.00348836 1.888 0
M  V30 5386 O 539.028 -0.975357 1.5425 0
M  V30 5387 C 539.079 2.27632 2.8083 0
M  V30 5388 O 538.8 3.62654 2.45792 0
M  V30 5389 C 540.301 2.36658 3.74844 0
M  V30 5390 H 537.521 0.478604 0.470297 0
M  V30 5391 H 540.065 1.83366 0.905388 0
M  V30 5392 H 538.22 1.87818 3.38826 0
M  V30 5393 H 538.634 4.08941 3.28431 0
M  V30 5394 H 540.108 3.02118 4.61984 0
M  V30 5395 H 540.585 1.38638 4.16745 0
M  V30 5396 H 541.191 2.76951 3.22766 0
M  V30 5397 N 539.506 -0.963266 1.24736 0
M  V30 5398 C 540.453 -2.05857 1.04363 0
M  V30 5399 C 541.423 -1.6604 -0.0444951 0
M  V30 5400 O 542.608 -1.90477 0.110999 0
M  V30 5401 C 539.748 -3.38745 0.659235 0
M  V30 5402 C 538.861 -3.9173 1.82131 0
M  V30 5403 C 537.996 -5.12906 1.38208 0
M  V30 5404 C 537.035 -5.58098 2.51382 0
M  V30 5405 N 536.172 -6.7049 2.08295 0
M  V30 5406 H 541.012 -2.22616 1.98107 0
M  V30 5407 H 538.549 -1.09103 0.986661 0
M  V30 5408 H 540.507 -4.15107 0.417371 0
M  V30 5409 H 539.137 -3.21898 -0.241201 0
M  V30 5410 H 538.189 -3.11966 2.17672 0
M  V30 5411 H 539.501 -4.21225 2.67153 0
M  V30 5412 H 538.655 -5.96657 1.09935 0
M  V30 5413 H 537.394 -4.85105 0.502456 0
M  V30 5414 H 536.399 -4.72917 2.80409 0
M  V30 5415 H 537.624 -5.87911 3.39909 0
M  V30 5416 H 535.57 -6.44416 1.22737 0
M  V30 5417 H 535.487 -6.99458 2.86869 0
M  V30 5418 H 536.755 -7.57672 1.83175 0
M  V30 5419 N 540.985 -1.06182 -1.16461 0
M  V30 5420 C 542.231 -0.779015 -1.87241 0
M  V30 5421 C 542.564 0.692715 -1.81425 0
M  V30 5422 O 541.839 1.5074 -1.22913 0
M  V30 5423 C 542.122 -1.2728 -3.36856 0
M  V30 5424 C 541.975 -2.80821 -3.51368 0
M  V30 5425 C 543.294 -0.879799 -4.31216 0
M  V30 5426 H 540.413 -0.284464 -0.679889 0
M  V30 5427 H 543.055 -1.31755 -1.36896 0
M  V30 5428 H 541.205 -0.814673 -3.79862 0
M  V30 5429 H 542.877 -3.34833 -3.17308 0
M  V30 5430 H 541.12 -3.19606 -2.93316 0
M  V30 5431 H 541.791 -3.10435 -4.56436 0
M  V30 5432 H 544.267 -1.27436 -3.96105 0
M  V30 5433 H 543.143 -1.25278 -5.34412 0
M  V30 5434 H 543.404 0.215372 -4.41575 0
M  V30 5435 N 542.463 1.3308 -0.844243 0
M  V30 5436 C 543.71 1.97605 -0.44255 0
M  V30 5437 C 544.038 1.66856 0.999458 0
M  V30 5438 O 543.293 0.943586 1.7145 0
M  V30 5439 C 543.592 3.52045 -0.616354 0
M  V30 5440 C 543.258 4.02757 -2.02726 0
M  V30 5441 C 541.92 4.16316 -2.41317 0
M  V30 5442 C 544.272 4.29776 -2.9486 0
M  V30 5443 C 541.6 4.54232 -3.71335 0
M  V30 5444 C 543.952 4.69146 -4.24364 0
M  V30 5445 C 542.616 4.80911 -4.62904 0
M  V30 5446 H 541.886 0.723088 -0.161941 0
M  V30 5447 H 544.533 1.58663 -1.0723 0
M  V30 5448 H 542.838 3.91681 0.0966812 0
M  V30 5449 H 544.535 3.99981 -0.285756 0
M  V30 5450 H 541.125 3.9268 -1.71756 0
M  V30 5451 H 545.309 4.18818 -2.6628 0
M  V30 5452 H 540.565 4.61535 -4.00993 0
M  V30 5453 H 544.739 4.89008 -4.95827 0
M  V30 5454 H 542.366 5.10048 -5.63698 0
M  V30 5455 N 543.941 0.601185 1.45683 0
M  V30 5456 C 544.888 -0.121396 2.30481 0
M  V30 5457 C 545.858 -0.866232 1.41724 0
M  V30 5458 O 547.043 -0.85324 1.70659 0
M  V30 5459 C 544.183 -1.11704 3.26521 0
M  V30 5460 C 543.296 -0.373741 4.3038 0
M  V30 5461 C 542.431 -1.35854 5.13534 0
M  V30 5462 C 541.47 -0.602689 6.09126 0
M  V30 5463 N 540.607 -1.53645 6.85082 0
M  V30 5464 H 545.447 0.607732 2.91737 0
M  V30 5465 H 542.984 0.311502 1.43764 0
M  V30 5466 H 544.942 -1.70735 3.80664 0
M  V30 5467 H 543.572 -1.81366 2.67032 0
M  V30 5468 H 542.624 0.331962 3.78949 0
M  V30 5469 H 543.936 0.2163 4.98331 0
M  V30 5470 H 543.09 -2.02111 5.72046 0
M  V30 5471 H 541.829 -1.98251 4.45587 0
M  V30 5472 H 540.834 0.0735482 5.49751 0
M  V30 5473 H 542.059 0.0161467 6.79098 0
M  V30 5474 H 540.005 -2.14819 6.1983 0
M  V30 5475 H 539.922 -0.999688 7.49361 0
M  V30 5476 H 541.19 -2.1888 7.48139 0
M  V30 5477 N 545.419 -1.53889 0.339982 0
M  V30 5478 C 546.644 -2.05741 -0.261798 0
M  V30 5479 C 547.069 -1.21354 -1.43718 0
M  V30 5480 O 546.427 -0.22645 -1.7988 0
M  V30 5481 C 546.475 -3.54542 -0.658228 0
M  V30 5482 O 545.579 -3.7302 -1.75869 0
M  V30 5483 H 544.92 -0.662529 -0.0441672 0
M  V30 5484 H 547.45 -1.98568 0.493161 0
M  V30 5485 H 547.46 -3.9711 -0.936368 0
M  V30 5486 H 546.135 -4.15412 0.201358 0
M  V30 5487 H 544.712 -3.42355 -1.47809 0
M  V30 5488 N 546.897 -0.0685191 -1.57451 0
M  V30 5489 C 548.313 0.288101 -1.56978 0
M  V30 5490 C 548.513 1.70262 -1.07765 0
M  V30 5491 O 547.569 2.4135 -0.742054 0
M  V30 5492 C 548.882 0.100745 -3.00531 0
M  V30 5493 C 550.43 0.170531 -3.12535 0
M  V30 5494 C 550.905 0.0114944 -4.57999 0
M  V30 5495 N 552.396 0.0672065 -4.63151 0
M  V30 5496 C 553.131 -0.0314813 -5.73391 0
M  V30 5497 N 552.627 -0.183503 -6.92557 0
M  V30 5498 N 554.42 0.0253489 -5.62094 0
M  V30 5499 H 546.571 -0.993026 -1.87757 0
M  V30 5500 H 548.834 -0.386981 -0.865419 0
M  V30 5501 H 548.54 -0.875197 -3.40636 0
M  V30 5502 H 548.414 0.854457 -3.67395 0
M  V30 5503 H 550.801 1.13696 -2.72318 0
M  V30 5504 H 550.882 -0.614229 -2.48316 0
M  V30 5505 H 550.526 -0.951684 -4.98904 0
M  V30 5506 H 550.456 0.815617 -5.20245 0
M  V30 5507 H 552.947 0.183246 -3.77455 0
M  V30 5508 H 553.26 -0.251041 -7.72392 0
M  V30 5509 H 551.605 -0.218822 -6.94655 0
M  V30 5510 H 554.796 0.142794 -4.67882 0
M  V30 5511 H 554.969 -0.0550166 -6.47977 0
M  V30 5512 N 548.375 1.56261 0.205012 0
M  V30 5513 C 549.603 1.84141 0.943386 0
M  V30 5514 C 550.018 0.649772 1.77266 0
M  V30 5515 O 549.375 -0.381612 1.78466 0
M  V30 5516 C 549.426 3.10719 1.84759 0
M  V30 5517 O 549.147 4.25286 1.05181 0
M  V30 5518 C 550.648 3.51706 2.69848 0
M  V30 5519 H 547.868 0.611734 0.275721 0
M  V30 5520 H 550.412 2.03364 0.215253 0
M  V30 5521 H 548.567 2.93422 2.52947 0
M  V30 5522 H 548.981 4.97301 1.66709 0
M  V30 5523 H 550.455 4.43266 3.28967 0
M  V30 5524 H 550.932 2.7423 3.43067 0
M  V30 5525 H 551.538 3.71499 2.07047 0
M  V30 5526 N 549.853 -0.472356 1.50355 0
M  V30 5527 C 551.264 -1.05326 1.54154 0
M  V30 5528 C 551.615 -1.93155 0.344303 0
M  V30 5529 O 550.74 -2.09479 -0.542928 0
M  V30 5530 C 551.335 -1.91691 2.79356 0
M  V30 5531 C 549.894 -2.44892 2.8584 0
M  V30 5532 C 549.041 -1.23205 2.48426 0
M  V30 5533 H 551.992 -0.255027 1.56637 0
M  V30 5534 H 552.013 -2.76742 2.6114 0
M  V30 5535 H 551.525 -1.27741 3.66475 0
M  V30 5536 H 549.626 -3.12399 2.0307 0
M  V30 5537 H 549.739 -2.80086 3.88701 0
M  V30 5538 H 548.103 -1.56643 2.00836 0
M  V30 5539 H 548.886 -0.609194 3.37852 0
M  V30 5540 N 551.331 -1.39911 -0.725443 0
M  V30 5541 C 552.742 -1.33599 -1.30415 0
M  V30 5542 C 553.093 -0.00481792 -1.96199 0
M  V30 5543 O 552.218 0.897275 -1.96921 0
M  V30 5544 C 552.813 -2.41965 -2.37146 0
M  V30 5545 C 551.372 -2.39144 -2.90667 0
M  V30 5546 C 550.519 -2.23355 -1.64341 0
M  V30 5547 H 553.47 -1.4986 -0.522267 0
M  V30 5548 H 553.491 -2.09304 -3.17761 0
M  V30 5549 H 553.003 -3.38837 -1.89238 0
M  V30 5550 H 551.104 -1.4594 -3.4283 0
M  V30 5551 H 551.217 -3.34362 -3.43131 0
M  V30 5552 H 549.581 -1.70696 -1.89037 0
M  V30 5553 H 550.364 -3.2221 -1.18471 0
M  V30 5554 N 552.809 0.956637 -1.25245 0
M  V30 5555 C 553.719 2.0868 -1.0719 0
M  V30 5556 C 554.735 1.73997 -0.00959074 0
M  V30 5557 O 555.911 2.00301 -0.210104 0
M  V30 5558 C 552.976 3.39754 -0.690526 0
M  V30 5559 C 552.037 3.88316 -1.83055 0
M  V30 5560 C 551.27 5.13134 -1.46728 0
M  V30 5561 O 551.493 5.6925 -0.362029 0
M  V30 5562 O 550.427 5.56356 -2.29677 0
M  V30 5563 H 554.253 2.26813 -2.01965 0
M  V30 5564 H 551.838 1.07098 -1.04165 0
M  V30 5565 H 553.72 4.18543 -0.489871 0
M  V30 5566 H 552.395 3.22896 0.227981 0
M  V30 5567 H 551.302 3.1054 -2.08604 0
M  V30 5568 H 552.635 4.09669 -2.72822 0
M  V30 5569 N 554.287 1.06798 1.15896 0
M  V30 5570 C 555.25 0.687328 2.18651 0
M  V30 5571 C 556.25 -0.269559 1.58524 0
M  V30 5572 O 557.44 -0.0512627 1.74125 0
M  V30 5573 C 554.572 0.0121642 3.40898 0
M  V30 5574 H 555.765 1.59701 2.53842 0
M  V30 5575 H 553.318 0.863828 1.3026 0
M  V30 5576 H 554.053 -0.910025 3.1127 0
M  V30 5577 H 553.838 0.700309 3.85795 0
M  V30 5578 H 555.328 -0.239703 4.16911 0
M  V30 5579 N 555.766 -1.3263 0.851289 0
M  V30 5580 C 557.015 -1.96633 0.449267 0
M  V30 5581 C 557.328 -1.68131 -0.999562 0
M  V30 5582 O 558.534 -2.25845 -1.50685 0
M  V30 5583 C 556.99 -3.51946 0.752446 0
M  V30 5584 C 556.598 -3.89311 2.21678 0
M  V30 5585 C 558.342 -4.22437 0.417983 0
M  V30 5586 C 556.249 -5.37655 2.46336 0
M  V30 5587 H 555.179 -0.735888 0.164269 0
M  V30 5588 H 557.83 -1.51073 1.0416 0
M  V30 5589 H 556.212 -3.95899 0.0895858 0
M  V30 5590 H 557.386 -3.56378 2.92115 0
M  V30 5591 H 555.701 -3.31836 2.51543 0
M  V30 5592 H 558.298 -5.31549 0.579674 0
M  V30 5593 H 558.641 -4.11349 -0.640115 0
M  V30 5594 H 559.174 -3.84057 1.03659 0
M  V30 5595 H 555.913 -5.5376 3.50757 0
M  V30 5596 H 555.433 -5.72005 1.80473 0
M  V30 5597 H 557.112 -6.04695 2.30115 0
M  V30 5598 N 557.244 -0.608902 -1.45362 0
M  V30 5599 C 558.207 0.0992563 -2.28985 0
M  V30 5600 C 559.207 0.793841 -1.39838 0
M  V30 5601 O 560.397 0.641804 -1.61946 0
M  V30 5602 C 557.529 1.15073 -3.20891 0
M  V30 5603 H 558.722 -0.635964 -2.93079 0
M  V30 5604 H 556.275 -0.368007 -1.51906 0
M  V30 5605 H 557.01 1.91667 -2.616 0
M  V30 5606 H 556.795 0.656867 -3.86559 0
M  V30 5607 H 558.285 1.64665 -3.83765 0
M  V30 5608 N 558.722 1.53707 -0.348139 0
M  V30 5609 C 559.652 2.28111 0.498766 0
M  V30 5610 C 560.633 1.29851 1.09876 0
M  V30 5611 O 561.818 1.587 1.11928 0
M  V30 5612 C 558.948 3.05735 1.64753 0
M  V30 5613 C 557.902 4.11537 1.17565 0
M  V30 5614 C 557.228 4.77142 2.4133 0
M  V30 5615 C 558.528 5.21587 0.272844 0
M  V30 5616 H 560.222 2.99152 -0.121934 0
M  V30 5617 H 557.768 1.43875 -0.0600842 0
M  V30 5618 H 559.721 3.56526 2.24649 0
M  V30 5619 H 558.445 2.32354 2.2952 0
M  V30 5620 H 557.104 3.61665 0.599483 0
M  V30 5621 H 556.752 4.0035 3.04514 0
M  V30 5622 H 556.452 5.48626 2.10436 0
M  V30 5623 H 557.976 5.30719 3.01943 0
M  V30 5624 H 559.39 5.67986 0.778779 0
M  V30 5625 H 557.787 6.00074 0.0555849 0
M  V30 5626 H 558.857 4.79969 -0.689785 0
M  V30 5627 N 560.2 0.0768682 1.57412 0
M  V30 5628 C 561.44 -0.594676 1.95558 0
M  V30 5629 C 561.804 -1.66469 0.956658 0
M  V30 5630 O 563.005 -2.39215 1.22595 0
M  V30 5631 C 561.276 -1.15206 3.38323 0
M  V30 5632 S 562.835 -1.83803 3.9845 0
M  V30 5633 H 559.653 -0.194579 0.683857 0
M  V30 5634 H 562.255 0.151933 1.94909 0
M  V30 5635 H 560.959 -0.36153 4.08805 0
M  V30 5636 H 560.49 -1.93491 3.42527 0
M  V30 5637 H 562.505 -3.12087 3.85767 0
M  V30 5638 N 561.678 -1.56367 -0.196722 0
M  V30 5639 C 562.903 -1.84991 -0.937714 0
M  V30 5640 C 563.328 -0.660244 -1.76132 0
M  V30 5641 O 562.686 0.390967 -1.77034 0
M  V30 5642 C 562.734 -3.11828 -1.81096 0
M  V30 5643 O 561.838 -2.92266 -2.90955 0
M  V30 5644 H 561.179 -0.609193 -0.264159 0
M  V30 5645 H 563.709 -2.03595 -0.202529 0
M  V30 5646 H 563.719 -3.42579 -2.21594 0
M  V30 5647 H 562.394 -3.98037 -1.2058 0
M  V30 5648 H 560.971 -2.72809 -2.54224 0
M  V30 5649 N 563.156 0.464375 -1.50603 0
M  V30 5650 C 564.381 1.24372 -1.65971 0
M  V30 5651 C 564.806 1.84901 -0.345453 0
M  V30 5652 O 564.164 1.67596 0.691457 0
M  V30 5653 C 564.212 2.32331 -2.7578 0
M  V30 5654 O 563.316 3.37146 -2.375 0
M  V30 5655 H 562.657 0.365604 -0.554283 0
M  V30 5656 H 565.187 0.55183 -1.97018 0
M  V30 5657 H 565.197 2.77539 -2.99059 0
M  V30 5658 H 563.872 1.87648 -3.71162 0
M  V30 5659 H 562.449 2.97602 -2.24694 0
M  V30 5660 N 564.634 1.40294 0.718013 0
M  V30 5661 C 565.564 1.43118 1.84498 0
M  V30 5662 C 566.545 0.292403 1.67568 0
M  V30 5663 O 567.73 0.500675 1.87635 0
M  V30 5664 C 564.86 1.29065 3.22427 0
M  V30 5665 C 563.814 2.40521 3.54025 0
M  V30 5666 C 563.14 2.11546 4.91073 0
M  V30 5667 C 564.44 3.82859 3.55269 0
M  V30 5668 H 566.134 2.37432 1.82391 0
M  V30 5669 H 563.68 1.14283 0.87609 0
M  V30 5670 H 565.633 1.29658 4.00957 0
M  V30 5671 H 564.357 0.312271 3.25104 0
M  V30 5672 H 563.016 2.39173 2.77834 0
M  V30 5673 H 562.664 1.12104 4.90348 0
M  V30 5674 H 562.364 2.86216 5.1318 0
M  V30 5675 H 563.888 2.13817 5.71939 0
M  V30 5676 H 565.302 3.86044 4.23843 0
M  V30 5677 H 563.699 4.57029 3.88902 0
M  V30 5678 H 564.769 4.12617 2.54706 0
M  V30 5679 N 566.112 -0.949982 1.2575 0
M  V30 5680 C 567.042 -2.06483 1.09028 0
M  V30 5681 C 568.023 -1.701 -0.00201532 0
M  V30 5682 O 569.208 -1.93469 0.168383 0
M  V30 5683 C 566.338 -3.39899 0.71316 0
M  V30 5684 C 565.292 -3.90309 1.75621 0
M  V30 5685 C 564.618 -5.20274 1.23365 0
M  V30 5686 C 565.918 -4.16169 3.15596 0
M  V30 5687 H 567.612 -2.20731 2.02283 0
M  V30 5688 H 565.158 -1.06066 0.973964 0
M  V30 5689 H 567.111 -4.17346 0.58309 0
M  V30 5690 H 565.835 -3.25602 -0.255091 0
M  V30 5691 H 564.494 -3.15035 1.8748 0
M  V30 5692 H 564.142 -5.02351 0.255491 0
M  V30 5693 H 563.842 -5.54971 1.93082 0
M  V30 5694 H 565.366 -6.00314 1.11607 0
M  V30 5695 H 566.78 -4.84259 3.06864 0
M  V30 5696 H 565.177 -4.62131 3.82825 0
M  V30 5697 H 566.247 -3.22273 3.6231 0
M  V30 5698 N 567.59 -1.07411 -1.15328 0
M  V30 5699 C 568.5 -0.706438 -2.23711 0
M  V30 5700 C 569.516 0.282586 -1.7169 0
M  V30 5701 O 570.692 0.129066 -2.00986 0
M  V30 5702 C 567.757 -0.11048 -3.46524 0
M  V30 5703 C 566.818 -1.15282 -4.13532 0
M  V30 5704 C 566.051 -0.585205 -5.30482 0
M  V30 5705 O 566.274 0.598549 -5.67251 0
M  V30 5706 O 565.208 -1.33039 -5.87013 0
M  V30 5707 H 569.034 -1.61031 -2.57493 0
M  V30 5708 H 566.619 -0.847113 -1.23062 0
M  V30 5709 H 568.501 0.21957 -4.20828 0
M  V30 5710 H 567.176 0.766703 -3.14489 0
M  V30 5711 H 566.083 -1.53523 -3.41147 0
M  V30 5712 H 567.416 -2.00192 -4.49649 0
M  V30 5713 N 569.068 1.32177 -0.85831 0
M  V30 5714 C 570.298 2.01021 -0.476889 0
M  V30 5715 C 570.706 1.64653 0.931995 0
M  V30 5716 O 570.049 0.865713 1.62022 0
M  V30 5717 C 570.111 3.55413 -0.540528 0
M  V30 5718 C 569.775 4.1522 -1.90895 0
M  V30 5719 C 570.772 4.3318 -2.87491 0
M  V30 5720 C 568.457 4.51212 -2.20709 0
M  V30 5721 C 570.451 4.86306 -4.1205 0
M  V30 5722 C 568.138 5.04042 -3.45521 0
M  V30 5723 C 569.136 5.21538 -4.41007 0
M  V30 5724 O 568.824 5.73238 -5.63608 0
M  V30 5725 H 568.556 0.650059 -0.18547 0
M  V30 5726 H 571.11 1.69648 -1.15796 0
M  V30 5727 H 569.34 3.86196 0.19741 0
M  V30 5728 H 571.029 4.05526 -0.174191 0
M  V30 5729 H 571.795 4.05704 -2.65762 0
M  V30 5730 H 567.674 4.36878 -1.4717 0
M  V30 5731 H 571.218 4.99877 -4.86589 0
M  V30 5732 H 567.115 5.30952 -3.67098 0
M  V30 5733 H 567.883 5.91625 -5.65617 0
M  V30 5734 N 570.547 0.616602 1.45037 0
M  V30 5735 C 571.775 0.121968 2.0654 0
M  V30 5736 C 572.19 -1.19743 1.45969 0
M  V30 5737 O 571.547 -1.73133 0.577168 0
M  V30 5738 C 571.598 -0.0145171 3.61497 0
M  V30 5739 O 571.319 1.25269 4.19809 0
M  V30 5740 C 572.82 -0.539555 4.40004 0
M  V30 5741 H 570.04 0.0729837 0.667019 0
M  V30 5742 H 572.584 0.846891 1.8614 0
M  V30 5743 H 570.739 -0.689809 3.81209 0
M  V30 5744 H 571.153 1.08816 5.13088 0
M  V30 5745 H 572.627 -0.584112 5.48901 0
M  V30 5746 H 573.104 -1.56368 4.10421 0
M  V30 5747 H 573.71 0.101995 4.25178 0
M  V30 5748 N 572.025 -1.5352 0.356285 0
M  V30 5749 C 573.436 -1.86282 -0.12492 0
M  V30 5750 C 573.787 -1.27717 -1.48939 0
M  V30 5751 O 572.912 -0.595614 -2.08042 0
M  V30 5752 C 573.507 -3.37995 -0.23345 0
M  V30 5753 C 572.066 -3.70588 -0.658899 0
M  V30 5754 C 571.213 -2.76581 0.199596 0
M  V30 5755 H 574.164 -1.47901 0.575423 0
M  V30 5756 H 574.185 -3.65475 -1.0587 0
M  V30 5757 H 573.697 -3.8059 0.759776 0
M  V30 5758 H 571.798 -3.33544 -1.66069 0
M  V30 5759 H 571.911 -4.77076 -0.439957 0
M  V30 5760 H 570.275 -2.52552 -0.330076 0
M  V30 5761 H 571.058 -3.22008 1.19019 0
M  V30 5762 N 573.503 -0.0852151 -1.57369 0
M  V30 5763 C 574.728 0.592872 -1.98746 0
M  V30 5764 C 575.153 1.61538 -0.963689 0
M  V30 5765 O 574.511 1.81168 0.069071 0
M  V30 5766 C 574.559 1.22599 -3.39119 0
M  V30 5767 O 573.663 2.34185 -3.39457 0
M  V30 5768 H 573.004 0.151314 -0.646529 0
M  V30 5769 H 575.534 -0.163703 -2.03944 0
M  V30 5770 H 575.544 1.56965 -3.76598 0
M  V30 5771 H 574.219 0.476831 -4.13158 0
M  V30 5772 H 572.796 2.01512 -3.13763 0
M  V30 5773 N 574.981 1.5647 0.188427 0
M  V30 5774 C 576.206 1.85486 0.927891 0
M  V30 5775 C 576.631 0.669575 1.75779 0
M  V30 5776 O 575.989 -0.381573 1.77239 0
M  V30 5777 C 576.037 3.12784 1.7944 0
M  V30 5778 O 575.141 2.93805 2.894 0
M  V30 5779 H 574.482 0.610585 0.260925 0
M  V30 5780 H 577.012 2.037 0.191729 0
M  V30 5781 H 577.022 3.43749 2.19774 0
M  V30 5782 H 575.697 3.98671 1.18468 0
M  V30 5783 H 574.274 2.74153 2.52774 0
M  V30 5784 N 576.459 -0.456382 1.50847 0
M  V30 5785 C 577.875 -0.791345 1.386 0
M  V30 5786 C 578.075 -1.9633 0.453498 0
M  V30 5787 O 577.131 -2.52308 -0.0984353 0
M  V30 5788 C 578.444 -1.08959 2.80265 0
M  V30 5789 C 579.992 -1.19517 2.89283 0
M  V30 5790 C 580.467 -1.52647 4.31814 0
M  V30 5791 N 581.958 -1.59609 4.34832 0
M  V30 5792 C 582.693 -1.86777 5.42127 0
M  V30 5793 N 582.189 -2.11866 6.59609 0
M  V30 5794 N 583.982 -1.88402 5.29586 0
M  V30 5795 H 576.133 0.315746 2.1004 0
M  V30 5796 H 578.396 0.0787916 0.94472 0
M  V30 5797 H 578.102 -0.301355 3.50407 0
M  V30 5798 H 577.976 -2.02211 3.18419 0
M  V30 5799 H 580.363 -1.97406 2.19351 0
M  V30 5800 H 580.444 -0.242111 2.54652 0
M  V30 5801 H 580.088 -0.752922 5.02288 0
M  V30 5802 H 580.018 -2.49127 4.63943 0
M  V30 5803 H 582.509 -1.42201 3.50125 0
M  V30 5804 H 582.822 -2.31912 7.37182 0
M  V30 5805 H 581.167 -2.09228 6.62758 0
M  V30 5806 H 584.358 -1.68307 4.36795 0
M  V30 5807 H 584.531 -2.09238 6.13289 0
M  V30 5808 N 577.937 -1.40673 -0.710563 0
M  V30 5809 C 578.867 -1.44095 -1.83736 0
M  V30 5810 C 579.848 -0.301286 -1.67411 0
M  V30 5811 O 581.033 -0.510618 -1.87367 0
M  V30 5812 C 578.163 -1.30773 -3.21738 0
M  V30 5813 C 577.117 -2.42395 -3.52745 0
M  V30 5814 C 576.443 -2.14147 -4.89944 0
M  V30 5815 C 577.743 -3.84738 -3.53234 0
M  V30 5816 H 579.437 -2.38396 -1.81129 0
M  V30 5817 H 576.983 -1.14746 -0.870017 0
M  V30 5818 H 578.936 -1.31783 -4.00264 0
M  V30 5819 H 577.66 -0.329507 -3.24934 0
M  V30 5820 H 576.319 -2.40643 -2.76562 0
M  V30 5821 H 575.967 -1.14703 -4.89747 0
M  V30 5822 H 575.667 -2.88934 -5.11655 0
M  V30 5823 H 577.191 -2.16848 -5.70797 0
M  V30 5824 H 578.605 -3.88286 -4.2179 0
M  V30 5825 H 577.002 -4.59085 -3.86473 0
M  V30 5826 H 578.072 -4.13962 -2.52514 0
M  V30 5827 N 579.415 0.9433 -1.26252 0
M  V30 5828 C 580.64 1.72898 -1.14547 0
M  V30 5829 C 581.065 1.85761 0.295743 0
M  V30 5830 O 580.423 1.3463 1.21427 0
M  V30 5831 C 580.471 3.11471 -1.8171 0
M  V30 5832 O 579.575 3.97336 -1.10445 0
M  V30 5833 H 578.916 0.530555 -0.399259 0
M  V30 5834 H 581.446 1.18159 -1.67032 0
M  V30 5835 H 581.456 3.61872 -1.88449 0
M  V30 5836 H 580.131 3.01425 -2.86558 0
M  V30 5837 H 578.708 3.55788 -1.11666 0
M  V30 5838 N 580.893 1.08022 1.14757 0
M  V30 5839 C 582.304 0.829144 1.67279 0
M  V30 5840 C 582.655 -0.644721 1.85305 0
M  V30 5841 O 581.78 -1.49838 1.56133 0
M  V30 5842 C 582.375 1.49855 3.03857 0
M  V30 5843 C 580.934 1.29482 3.53428 0
M  V30 5844 C 580.081 1.56386 2.28995 0
M  V30 5845 H 583.032 1.24134 0.988762 0
M  V30 5846 H 583.053 0.923572 3.69121 0
M  V30 5847 H 582.565 2.57123 2.90705 0
M  V30 5848 H 580.666 0.242669 3.71809 0
M  V30 5849 H 580.779 2.01974 4.34446 0
M  V30 5850 H 579.143 0.985217 2.34874 0
M  V30 5851 H 579.926 2.64851 2.18423 0
M  V30 5852 N 582.371 -1.3172 0.865308 0
M  V30 5853 C 583.301 -2.31109 0.333302 0
M  V30 5854 C 584.282 -1.60148 -0.573301 0
M  V30 5855 O 585.467 -1.87882 -0.491305 0
M  V30 5856 C 582.597 -3.44104 -0.470078 0
M  V30 5857 C 581.551 -4.26623 0.343021 0
M  V30 5858 C 580.877 -5.31482 -0.585756 0
M  V30 5859 C 582.177 -4.98001 1.57456 0
M  V30 5860 H 583.871 -2.75855 1.1638 0
M  V30 5861 H 581.417 -1.3262 0.561069 0
M  V30 5862 H 583.37 -4.12682 -0.852752 0
M  V30 5863 H 582.094 -2.98112 -1.33404 0
M  V30 5864 H 580.753 -3.59707 0.707583 0
M  V30 5865 H 580.401 -4.81741 -1.44686 0
M  V30 5866 H 580.101 -5.87582 -0.0456494 0
M  V30 5867 H 581.625 -6.0292 -0.965375 0
M  V30 5868 H 583.039 -5.59201 1.26359 0
M  V30 5869 H 581.436 -5.63876 2.05339 0
M  V30 5870 H 582.506 -4.25253 2.32997 0
M  V30 5871 N 583.85 -0.624285 -1.44708 0
M  V30 5872 C 584.76 0.0861083 -2.34442 0
M  V30 5873 C 585.776 0.84291 -1.5222 0
M  V30 5874 O 586.952 0.796723 -1.84971 0
M  V30 5875 C 584.017 1.05999 -3.30099 0
M  V30 5876 C 583.077 0.303316 -4.28227 0
M  V30 5877 C 582.311 1.23081 -5.19314 0
M  V30 5878 O 582.534 2.46929 -5.14181 0
M  V30 5879 O 581.468 0.71883 -5.97592 0
M  V30 5880 H 585.293 -0.651756 -2.96624 0
M  V30 5881 H 582.879 -0.384493 -1.44368 0
M  V30 5882 H 584.76 1.62046 -3.88997 0
M  V30 5883 H 583.436 1.77859 -2.70459 0
M  V30 5884 H 582.343 -0.300033 -3.72895 0
M  V30 5885 H 583.676 -0.375123 -4.90768 0
M  V30 5886 N 585.328 1.53329 -0.364422 0
M  V30 5887 C 586.291 2.24323 0.470292 0
M  V30 5888 C 587.291 1.25068 1.01067 0
M  V30 5889 O 588.481 1.49354 0.896605 0
M  V30 5890 C 585.613 2.97908 1.65722 0
M  V30 5891 H 586.806 2.9952 -0.150917 0
M  V30 5892 H 584.359 1.55868 -0.116092 0
M  V30 5893 H 585.094 2.2695 2.31655 0
M  V30 5894 H 584.879 3.70732 1.27671 0
M  V30 5895 H 586.369 3.5188 2.24878 0
M  V30 5896 N 586.806 0.0935595 1.57322 0
M  V30 5897 C 588.046 -0.573901 1.96178 0
M  V30 5898 C 588.41 -1.65445 0.97426 0
M  V30 5899 O 589.611 -2.37901 1.25126 0
M  V30 5900 C 587.882 -1.11612 3.39526 0
M  V30 5901 S 589.441 -1.79566 4.00377 0
M  V30 5902 H 586.259 -0.187315 0.685882 0
M  V30 5903 H 588.861 0.172597 1.94737 0
M  V30 5904 H 587.565 -0.31815 4.09165 0
M  V30 5905 H 587.096 -1.89848 3.4456 0
M  V30 5906 H 589.111 -3.07978 3.89056 0
M  V30 5907 N 588.284 -1.56567 -0.180126 0
M  V30 5908 C 589.247 -1.94852 -1.20686 0
M  V30 5909 C 590.247 -0.831212 -1.3765 0
M  V30 5910 O 591.437 -1.09841 -1.35206 0
M  V30 5911 C 588.569 -2.23565 -2.57355 0
M  V30 5912 H 589.762 -2.86722 -0.879225 0
M  V30 5913 H 587.315 -1.50489 -0.422237 0
M  V30 5914 H 588.05 -1.34381 -2.95148 0
M  V30 5915 H 587.835 -3.04999 -2.46411 0
M  V30 5916 H 589.325 -2.54137 -3.31367 0
M  V30 5917 N 589.762 0.448376 -1.51087 0
M  V30 5918 C 590.712 1.54156 -1.67988 0
M  V30 5919 C 591.696 1.5178 -0.534015 0
M  V30 5920 O 592.888 1.58419 -0.789448 0
M  V30 5921 C 590.017 2.92437 -1.79822 0
M  V30 5922 C 589.103 2.99611 -3.00157 0
M  V30 5923 N 589.494 2.7655 -4.23502 0
M  V30 5924 C 587.792 3.30764 -2.99184 0
M  V30 5925 C 588.493 2.89281 -5.0467 0
M  V30 5926 N 587.469 3.20473 -4.39088 0
M  V30 5927 H 591.271 1.35061 -2.61028 0
M  V30 5928 H 588.785 0.655504 -1.48583 0
M  V30 5929 H 590.782 3.71068 -1.90037 0
M  V30 5930 H 589.442 3.1256 -0.879554 0
M  V30 5931 H 590.453 2.5169 -4.52628 0
M  V30 5932 H 587.13 3.56732 -2.16907 0
M  V30 5933 H 588.52 2.75499 -6.12821 0
M  V30 5934 N 591.24 1.41047 0.703093 0
M  V30 5935 C 592.465 1.43537 1.49706 0
M  V30 5936 C 592.89 0.0401853 1.88057 0
M  V30 5937 O 592.248 -0.954785 1.54122 0
M  V30 5938 C 592.296 2.3433 2.74084 0
M  V30 5939 O 591.4 1.79515 3.71279 0
M  V30 5940 H 590.741 0.487454 0.450871 0
M  V30 5941 H 593.271 1.85422 0.86486 0
M  V30 5942 H 593.281 2.49947 3.22476 0
M  V30 5943 H 591.956 3.35708 2.45506 0
M  V30 5944 H 590.533 1.7331 3.30179 0
M  V30 5945 N 592.718 -0.936591 1.26751 0
M  V30 5946 C 593.965 -1.68331 1.12566 0
M  V30 5947 C 594.293 -1.91677 -0.330168 0
M  V30 5948 O 593.548 -1.49859 -1.2586 0
M  V30 5949 C 593.847 -3.06099 1.84494 0
M  V30 5950 C 593.513 -3.02493 3.34378 0
M  V30 5951 C 592.175 -3.01217 3.75262 0
M  V30 5952 C 594.527 -2.94453 4.30055 0
M  V30 5953 C 591.855 -2.89672 5.10203 0
M  V30 5954 C 594.207 -2.84449 5.65041 0
M  V30 5955 C 592.871 -2.81518 6.0523 0
M  V30 5956 H 592.141 -0.615965 0.411907 0
M  V30 5957 H 594.788 -1.09292 1.5725 0
M  V30 5958 H 593.093 -3.6879 1.32292 0
M  V30 5959 H 594.79 -3.62733 1.70955 0
M  V30 5960 H 591.38 -3.04269 3.01858 0
M  V30 5961 H 595.564 -2.94544 3.99447 0
M  V30 5962 H 590.82 -2.85783 5.40498 0
M  V30 5963 H 594.994 -2.77192 6.38856 0
M  V30 5964 H 592.621 -2.72329 7.09747 0
M  V30 5965 N 594.196 -1.08629 -1.14182 0
M  V30 5966 C 595.443 -0.817345 -1.85272 0
M  V30 5967 C 595.771 0.656917 -1.83071 0
M  V30 5968 O 595.026 1.49897 -1.25815 0
M  V30 5969 C 595.325 -1.28734 -3.3341 0
M  V30 5970 C 594.991 -2.76981 -3.55798 0
M  V30 5971 C 593.653 -3.17469 -3.61617 0
M  V30 5972 C 596.005 -3.72605 -3.64438 0
M  V30 5973 C 593.333 -4.52371 -3.736 0
M  V30 5974 C 595.685 -5.07286 -3.77947 0
M  V30 5975 C 594.349 -5.47376 -3.82016 0
M  V30 5976 H 593.619 -0.299088 -0.677958 0
M  V30 5977 H 596.266 -1.35962 -1.34857 0
M  V30 5978 H 594.571 -0.664702 -3.8612 0
M  V30 5979 H 596.268 -1.05598 -3.86846 0
M  V30 5980 H 592.858 -2.44644 -3.51919 0
M  V30 5981 H 597.042 -3.42443 -3.5923 0
M  V30 5982 H 592.298 -4.82882 -3.75013 0
M  V30 5983 H 596.472 -5.81243 -3.83575 0
M  V30 5984 H 594.099 -6.51906 -3.91054 0
M  V30 5985 N 595.674 1.31259 -0.872281 0
M  V30 5986 C 596.951 1.91362 -0.404943 0
M  V30 5987 C 597.331 1.79362 1.11321 0
M  V30 5988 O 596.679 1.20277 1.94283 0
M  V30 5989 C 596.889 3.3749 -0.888893 0
M  V30 5990 C 598.237 4.14593 -0.916384 0
M  V30 5991 O 599.261 3.46282 -0.834701 0
M  V30 5992 O 598.12 5.3661 -1.03498 0
M  V30 5993 H 595.214 0.818016 -0.121569 0
M  V30 5994 H 597.76 1.39912 -0.960346 0
M  V30 5995 H 596.532 3.40249 -1.93251 0
M  V30 5996 H 596.155 3.96375 -0.311932 0
M  V30 5997 N 597.152 0.631951 1.44375 0
M  V30 5998 C 598.062 -0.073674 2.34484 0
M  V30 5999 C 599.078 -0.834825 1.52665 0
M  V30 6000 O 600.254 -0.786902 1.85391 0
M  V30 6001 C 597.319 -1.04247 3.30656 0
M  V30 6002 C 596.38 -0.280602 4.28382 0
M  V30 6003 C 595.613 -1.20325 5.19959 0
M  V30 6004 O 595.836 -2.44199 5.15484 0
M  V30 6005 O 594.77 -0.687128 5.97965 0
M  V30 6006 H 598.596 0.667477 2.96274 0
M  V30 6007 H 596.181 0.392144 1.44162 0
M  V30 6008 H 598.063 -1.59981 3.89851 0
M  V30 6009 H 596.738 -1.76422 2.71398 0
M  V30 6010 H 595.645 0.319804 3.72731 0
M  V30 6011 H 596.978 0.401144 4.90563 0
M  V30 6012 N 598.631 -1.53133 0.372548 0
M  V30 6013 C 599.561 -2.28876 -0.462412 0
M  V30 6014 C 600.542 -1.31583 -1.07796 0
M  V30 6015 O 601.727 -1.60461 -1.09389 0
M  V30 6016 C 598.857 -3.08317 -1.59868 0
M  V30 6017 C 597.811 -4.13355 -1.11003 0
M  V30 6018 C 597.137 -4.8092 -2.33708 0
M  V30 6019 C 598.437 -5.21955 -0.18983 0
M  V30 6020 H 600.131 -2.9892 0.169511 0
M  V30 6021 H 597.677 -1.43761 0.0829658 0
M  V30 6022 H 599.63 -3.60055 -2.18949 0
M  V30 6023 H 598.354 -2.35976 -2.25794 0
M  V30 6024 H 597.013 -3.62573 -0.541869 0
M  V30 6025 H 596.661 -4.05144 -2.98106 0
M  V30 6026 H 596.361 -5.51904 -2.01682 0
M  V30 6027 H 597.885 -5.35455 -2.93462 0
M  V30 6028 H 599.299 -5.69153 -0.688319 0
M  V30 6029 H 597.696 -6.00087 0.0398887 0
M  V30 6030 H 598.766 -4.78811 0.766057 0
M  V30 6031 N 600.109 -0.101901 -1.5727 0
M  V30 6032 C 601.525 0.254739 -1.57554 0
M  V30 6033 C 601.725 1.67937 -1.11352 0
M  V30 6034 O 600.781 2.39722 -0.793081 0
M  V30 6035 C 602.094 0.036975 -3.00677 0
M  V30 6036 C 603.642 0.104199 -3.12827 0
M  V30 6037 C 604.117 -0.0856565 -4.5792 0
M  V30 6038 N 605.608 -0.0310498 -4.6319 0
M  V30 6039 C 606.343 -0.153099 -5.73196 0
M  V30 6040 N 605.839 -0.330364 -6.92012 0
M  V30 6041 N 607.632 -0.0938854 -5.62022 0
M  V30 6042 H 599.783 -1.03263 -1.85609 0
M  V30 6043 H 602.046 -0.405251 -0.857016 0
M  V30 6044 H 601.752 -0.947254 -3.38703 0
M  V30 6045 H 601.626 0.776335 -3.69124 0
M  V30 6046 H 604.013 1.07894 -2.74669 0
M  V30 6047 H 604.094 -0.666762 -2.46957 0
M  V30 6048 H 603.738 -1.05729 -4.96773 0
M  V30 6049 H 603.668 0.705082 -5.21858 0
M  V30 6050 H 606.159 0.103141 -3.77759 0
M  V30 6051 H 606.472 -0.41482 -7.71686 0
M  V30 6052 H 604.817 -0.366119 -6.94035 0
M  V30 6053 H 608.008 0.0435168 -4.6808 0
M  V30 6054 H 608.181 -0.19245 -6.47714 0
M  V30 6055 N 601.587 1.56661 0.17182 0
M  V30 6056 C 602.827 1.83762 0.895029 0
M  V30 6057 C 603.191 0.682752 1.79451 0
M  V30 6058 O 604.392 0.834208 2.55528 0
M  V30 6059 C 602.663 3.15976 1.67015 0
M  V30 6060 S 604.222 3.64558 2.44219 0
M  V30 6061 H 601.04 0.644713 0.299778 0
M  V30 6062 H 603.642 1.94871 0.156701 0
M  V30 6063 H 602.346 3.98021 1.00039 0
M  V30 6064 H 601.877 3.07807 2.44986 0
M  V30 6065 H 603.892 3.31845 3.68909 0
M  V30 6066 N 603.065 -0.440357 1.51323 0
M  V30 6067 C 603.995 -1.54174 1.75364 0
M  V30 6068 C 604.976 -1.59039 0.603375 0
M  V30 6069 O 606.161 -1.74815 0.845774 0
M  V30 6070 C 603.291 -2.92277 1.87593 0
M  V30 6071 C 602.245 -3.02274 3.03009 0
M  V30 6072 C 601.571 -4.42327 3.00418 0
M  V30 6073 C 602.871 -2.76634 4.43024 0
M  V30 6074 H 604.565 -1.34307 2.67585 0
M  V30 6075 H 602.111 -0.644678 1.28763 0
M  V30 6076 H 604.064 -3.69284 2.02995 0
M  V30 6077 H 602.788 -3.13369 0.920179 0
M  V30 6078 H 601.447 -2.27706 2.87307 0
M  V30 6079 H 601.095 -4.60382 2.02626 0
M  V30 6080 H 600.795 -4.49946 3.77918 0
M  V30 6081 H 602.319 -5.21312 3.17909 0
M  V30 6082 H 603.733 -3.43376 4.59093 0
M  V30 6083 H 602.13 -2.95666 5.22208 0
M  V30 6084 H 603.2 -1.72262 4.5327 0
M  V30 6085 N 604.543 -1.41418 -0.695603 0
M  V30 6086 C 605.791 -1.40496 -1.45277 0
M  V30 6087 C 606.112 -0.0149538 -1.94994 0
M  V30 6088 O 605.382 0.9432 -1.71699 0
M  V30 6089 H 603.962 -0.517147 -0.539044 0
M  V30 6090 H 606.624 -1.76656 -0.823321 0
M  V30 6091 H 605.72 -2.09214 -2.31595 0
M  V30 6092 N 606.021 0.929856 -1.27246 0
M  V30 6093 C 607.249 1.71144 -1.16265 0
M  V30 6094 C 607.664 1.867 0.280786 0
M  V30 6095 O 607.021 1.38249 1.19136 0
M  V30 6096 C 607.072 3.11222 -1.83911 0
M  V30 6097 O 606.793 2.96398 -3.22614 0
M  V30 6098 C 608.294 4.05541 -1.79028 0
M  V30 6099 H 605.514 0.535499 -0.404328 0
M  V30 6100 H 608.058 1.16492 -1.68077 0
M  V30 6101 H 606.213 3.6274 -1.36009 0
M  V30 6102 H 606.627 3.8494 -3.56261 0
M  V30 6103 H 608.101 5.01351 -2.30978 0
M  V30 6104 H 608.578 4.32589 -0.759168 0
M  V30 6105 H 609.184 3.59947 -2.26535 0
M  V30 6106 N 607.499 1.09233 1.13605 0
M  V30 6107 C 608.431 0.687794 2.18637 0
M  V30 6108 C 609.444 -0.26936 1.60556 0
M  V30 6109 O 610.633 -0.0557162 1.78413 0
M  V30 6110 C 607.733 -0.00751901 3.38899 0
M  V30 6111 C 606.906 0.97067 4.26494 0
M  V30 6112 C 605.965 0.309129 5.25291 0
M  V30 6113 O 604.991 0.956149 5.61112 0
M  V30 6114 N 606.193 -0.937555 5.72879 0
M  V30 6115 H 608.958 1.59141 2.53957 0
M  V30 6116 H 606.519 0.979515 1.28907 0
M  V30 6117 H 608.511 -0.461238 4.02063 0
M  V30 6118 H 607.081 -0.813353 3.01833 0
M  V30 6119 H 606.301 1.603 3.60135 0
M  V30 6120 H 607.589 1.63323 4.81875 0
M  V30 6121 H 606.987 -1.48281 5.4592 0
M  V30 6122 H 605.544 -1.33463 6.3799 0
M  V30 6123 N 608.977 -1.30795 0.87923 0
M  V30 6124 C 609.907 -2.30742 0.357796 0
M  V30 6125 C 610.888 -1.60747 -0.556283 0
M  V30 6126 O 612.073 -1.88393 -0.47135 0
M  V30 6127 C 609.203 -3.44583 -0.433555 0
M  V30 6128 C 608.157 -4.26235 0.388251 0
M  V30 6129 C 607.483 -5.32073 -0.529352 0
M  V30 6130 C 608.783 -4.96303 1.62729 0
M  V30 6131 H 610.477 -2.74605 1.19299 0
M  V30 6132 H 608.023 -1.32017 0.575104 0
M  V30 6133 H 609.976 -4.13563 -0.808934 0
M  V30 6134 H 608.7 -2.99511 -1.30234 0
M  V30 6135 H 607.359 -3.58936 0.745695 0
M  V30 6136 H 607.007 -4.83249 -1.39569 0
M  V30 6137 H 606.707 -5.87598 0.0166741 0
M  V30 6138 H 608.231 -6.0391 -0.901373 0
M  V30 6139 H 609.645 -5.5783 1.32283 0
M  V30 6140 H 608.042 -5.61666 2.11309 0
M  V30 6141 H 609.112 -4.22758 2.37494 0
M  V30 6142 N 610.455 -0.639598 -1.44038 0
M  V30 6143 C 611.866 -0.228866 -1.85292 0
M  V30 6144 C 612.217 1.22161 -1.53529 0
M  V30 6145 O 611.342 1.93064 -0.977518 0
M  V30 6146 C 611.937 -0.408592 -3.36327 0
M  V30 6147 C 610.496 -0.0522953 -3.76364 0
M  V30 6148 C 609.643 -0.717959 -2.67844 0
M  V30 6149 H 612.594 -0.844194 -1.34384 0
M  V30 6150 H 612.615 0.349968 -3.78887 0
M  V30 6151 H 612.127 -1.46435 -3.59414 0
M  V30 6152 H 610.228 1.0014 -3.58891 0
M  V30 6153 H 610.341 -0.468261 -4.76806 0
M  V30 6154 H 608.705 -0.152459 -2.54243 0
M  V30 6155 H 609.488 -1.77648 -2.93762 0
M  V30 6156 N 611.933 1.52934 -0.380664 0
M  V30 6157 C 612.881 2.27727 0.47361 0
M  V30 6158 C 613.875 1.31288 1.0705 0
M  V30 6159 O 615.081 1.4886 1.01197 0
M  V30 6160 H 611.456 0.732189 0.171475 0
M  V30 6161 H 613.427 2.97864 -0.178785 0
M  V30 6162 C 612.176 3.0904 1.59341 0
M  V30 6163 H 611.499 3.831 1.14343 0
M  V30 6164 H 612.939 3.64527 2.16555 0
M  V30 6165 C 611.398 2.20813 2.54447 0
M  V30 6166 O 611.928 1.82907 3.57642 0
M  V30 6167 N 610.134 1.85145 2.23986 0
M  V30 6168 H 609.681 2.16169 1.40103 0
M  V30 6169 H 609.639 1.26402 2.87871 0
M  V30 6170 N 613.412 0.11024 1.57214 0
M  V30 6171 C 614.36 -0.860586 2.16094 0
M  V30 6172 C 615.354 -1.28156 1.1078 0
M  V30 6173 O 616.56 -1.25433 1.29099 0
M  V30 6174 H 612.935 -0.295606 0.691463 0
M  V30 6175 H 614.906 -0.33942 2.96463 0
M  V30 6176 C 613.655 -2.10421 2.768 0
M  V30 6177 H 612.978 -1.7892 3.5753 0
M  V30 6178 H 614.418 -2.76375 3.21547 0
M  V30 6179 C 612.877 -2.88823 1.73444 0
M  V30 6180 O 613.407 -3.839 1.18251 0
M  V30 6181 N 611.613 -2.52649 1.43586 0
M  V30 6182 H 611.16 -1.754 1.8866 0
M  V30 6183 H 611.118 -3.05403 0.746735 0
M  V30 6184 N 614.89 -1.56749 -0.16351 0
M  V30 6185 C 616.306 -1.51043 -0.515567 0
M  V30 6186 C 616.506 -0.815855 -1.84245 0
M  V30 6187 O 615.562 -0.379477 -2.49632 0
M  V30 6188 C 616.875 -2.95791 -0.541114 0
M  V30 6189 C 618.423 -3.0664 -0.627776 0
M  V30 6190 C 618.898 -4.52861 -0.684141 0
M  V30 6191 N 620.389 -4.5714 -0.746818 0
M  V30 6192 C 621.124 -5.67634 -0.811137 0
M  V30 6193 N 620.62 -6.8774 -0.835811 0
M  V30 6194 N 622.413 -5.55624 -0.850756 0
M  V30 6195 H 614.564 -2.00307 0.70645 0
M  V30 6196 H 616.827 -0.912876 0.255659 0
M  V30 6197 H 616.533 -3.49797 0.365329 0
M  V30 6198 H 616.407 -3.50858 -1.38487 0
M  V30 6199 H 618.794 -2.52663 -1.52464 0
M  V30 6200 H 618.875 -2.54645 0.242805 0
M  V30 6201 H 618.519 -5.07472 0.2085 0
M  V30 6202 H 618.449 -5.02621 -1.57098 0
M  V30 6203 H 620.94 -3.70669 -0.735717 0
M  V30 6204 H 621.253 -7.67701 -0.886279 0
M  V30 6205 H 619.598 -6.90334 -0.803958 0
M  V30 6206 H 622.789 -4.60709 -0.828535 0
M  V30 6207 H 622.962 -6.41756 -0.897418 0
M  V30 6208 N 616.368 0.432326 -1.51554 0
M  V30 6209 C 617.779 1.01202 -1.56892 0
M  V30 6210 C 618.13 1.92175 -0.395394 0
M  V30 6211 O 617.255 2.10844 0.487198 0
M  V30 6212 C 617.85 1.84217 -2.8434 0
M  V30 6213 C 616.409 2.37228 -2.92233 0
M  V30 6214 C 615.556 1.16576 -2.51606 0
M  V30 6215 H 618.507 0.213407 -1.57259 0
M  V30 6216 H 618.528 2.69721 -2.68385 0
M  V30 6217 H 618.04 1.17979 -3.69733 0
M  V30 6218 H 616.141 3.06905 -2.11282 0
M  V30 6219 H 616.254 2.69682 -3.95991 0
M  V30 6220 H 614.618 1.51263 -2.04919 0
M  V30 6221 H 615.401 0.519404 -3.39348 0
M  V30 6222 N 617.846 1.41785 0.688094 0
M  V30 6223 C 618.776 1.47 1.8142 0
M  V30 6224 C 619.757 0.327881 1.6691 0
M  V30 6225 O 620.942 0.540362 1.86531 0
M  V30 6226 C 618.072 1.35876 3.19617 0
M  V30 6227 C 617.026 2.47976 3.48844 0
M  V30 6228 C 616.352 2.21915 4.86475 0
M  V30 6229 C 617.652 3.90309 3.47068 0
M  V30 6230 H 619.346 2.41247 1.77314 0
M  V30 6231 H 616.892 1.16116 0.851651 0
M  V30 6232 H 618.845 1.38134 3.98117 0
M  V30 6233 H 617.569 0.38116 3.24368 0
M  V30 6234 H 616.228 2.45013 2.72698 0
M  V30 6235 H 615.876 1.2248 4.8786 0
M  V30 6236 H 615.576 2.97037 5.06994 0
M  V30 6237 H 617.1 2.25901 5.67275 0
M  V30 6238 H 618.514 3.94947 4.1556 0
M  V30 6239 H 616.911 4.65175 3.7912 0
M  V30 6240 H 617.981 4.17927 2.45896 0
M  V30 6241 N 619.324 -0.923095 1.27737 0
M  V30 6242 C 620.735 -1.48626 1.12993 0
M  V30 6243 C 621.086 -1.94142 -0.283439 0
M  V30 6244 O 620.211 -1.81605 -1.17681 0
M  V30 6245 C 620.806 -2.70117 2.04505 0
M  V30 6246 C 619.365 -3.22642 1.93853 0
M  V30 6247 C 618.512 -1.95368 1.96791 0
M  V30 6248 H 621.463 -0.736737 1.40563 0
M  V30 6249 H 621.484 -3.4506 1.60356 0
M  V30 6250 H 620.996 -2.36959 3.07363 0
M  V30 6251 H 619.097 -3.60549 0.939968 0
M  V30 6252 H 619.21 -3.88525 2.80331 0
M  V30 6253 H 617.574 -2.12061 1.41076 0
M  V30 6254 H 618.357 -1.64517 3.01312 0
M  V30 6255 N 620.802 -1.09834 -1.13024 0
M  V30 6256 C 622.213 -0.855651 -1.65938 0
M  V30 6257 C 622.564 0.615159 -1.86307 0
M  V30 6258 O 621.689 1.47335 -1.58497 0
M  V30 6259 C 622.284 -1.5467 -3.01434 0
M  V30 6260 C 620.843 -1.35088 -3.51323 0
M  V30 6261 C 619.99 -1.6001 -2.26478 0
M  V30 6262 H 622.941 -1.25691 -0.968889 0
M  V30 6263 H 622.962 -0.982179 -3.67605 0
M  V30 6264 H 622.474 -2.61715 -2.86578 0
M  V30 6265 H 620.575 -0.30179 -3.71376 0
M  V30 6266 H 620.688 -2.0886 -4.31178 0
M  V30 6267 H 619.052 -1.02246 -2.33276 0
M  V30 6268 H 619.835 -2.68293 -2.14182 0
M  V30 6269 N 622.28 1.30327 -0.886154 0
M  V30 6270 C 623.21 2.30549 -0.370028 0
M  V30 6271 C 624.191 1.61039 0.547751 0
M  V30 6272 O 625.376 1.8864 0.461353 0
M  V30 6273 C 622.506 3.44808 0.415275 0
M  V30 6274 C 621.46 4.26024 -0.41085 0
M  V30 6275 C 620.786 5.32347 0.501128 0
M  V30 6276 C 622.086 4.95433 -1.65359 0
M  V30 6277 H 623.78 2.73969 -1.20754 0
M  V30 6278 H 621.326 1.3171 -0.582097 0
M  V30 6279 H 623.279 4.13986 0.78699 0
M  V30 6280 H 622.003 3.00197 1.28644 0
M  V30 6281 H 620.662 3.58535 -0.764719 0
M  V30 6282 H 620.31 4.83982 1.37004 0
M  V30 6283 H 620.01 5.87581 -0.0478356 0
M  V30 6284 H 621.534 6.0438 0.869333 0
M  V30 6285 H 622.948 5.5712 -1.35239 0
M  V30 6286 H 621.345 5.60537 -2.14284 0
M  V30 6287 H 622.415 4.21493 -2.39733 0
M  V30 6288 N 623.758 0.647228 1.43697 0
M  V30 6289 C 625.005 0.158188 2.01881 0
M  V30 6290 C 625.333 -1.22573 1.51017 0
M  V30 6291 O 624.588 -1.83086 0.69122 0
M  V30 6292 C 624.887 0.111481 3.57226 0
M  V30 6293 C 624.553 1.43633 4.27411 0
M  V30 6294 C 623.215 1.79915 4.463 0
M  V30 6295 C 625.567 2.31011 4.67208 0
M  V30 6296 C 622.895 3.03251 5.02251 0
M  V30 6297 C 625.247 3.53633 5.24525 0
M  V30 6298 C 623.911 3.90118 5.41631 0
M  V30 6299 H 623.181 0.0578851 0.738736 0
M  V30 6300 H 625.828 0.836746 1.72252 0
M  V30 6301 H 624.133 -0.650507 3.86362 0
M  V30 6302 H 625.83 -0.283682 3.99995 0
M  V30 6303 H 622.42 1.14403 4.1305 0
M  V30 6304 H 626.604 2.04272 4.52313 0
M  V30 6305 H 621.86 3.31575 5.13681 0
M  V30 6306 H 626.034 4.21561 5.5431 0
M  V30 6307 H 623.661 4.85768 5.84751 0
M  V30 6308 N 625.236 -1.5273 0.388769 0
M  V30 6309 C 626.184 -2.27975 -0.461527 0
M  V30 6310 C 627.178 -1.31854 -1.06352 0
M  V30 6311 O 628.384 -1.49394 -1.00406 0
M  V30 6312 H 624.759 -0.733088 -0.16759 0
M  V30 6313 H 626.73 -2.97765 0.194579 0
M  V30 6314 C 625.479 -3.09881 -1.577 0
M  V30 6315 H 624.802 -3.83701 -1.12309 0
M  V30 6316 H 626.242 -3.6567 -2.14619 0
M  V30 6317 C 624.701 -2.22159 -2.53272 0
M  V30 6318 O 625.231 -1.84802 -3.56667 0
M  V30 6319 N 623.437 -1.8633 -2.23001 0
M  V30 6320 H 622.984 -2.16909 -1.38954 0
M  V30 6321 H 622.942 -1.27927 -2.87197 0
M  V30 6322 N 626.714 -0.118576 -1.57153 0
M  V30 6323 C 627.961 0.539526 -1.9518 0
M  V30 6324 C 628.289 1.66714 -1.00184 0
M  V30 6325 O 627.544 1.95683 -0.0256482 0
M  V30 6326 C 627.843 1.11303 -3.39627 0
M  V30 6327 C 627.509 0.106809 -4.50773 0
M  V30 6328 C 626.171 -0.169876 -4.809 0
M  V30 6329 C 628.523 -0.57895 -5.17975 0
M  V30 6330 C 625.851 -1.13861 -5.75545 0
M  V30 6331 C 628.203 -1.53631 -6.13661 0
M  V30 6332 C 626.867 -1.82099 -6.42181 0
M  V30 6333 H 626.137 0.197427 -0.714215 0
M  V30 6334 H 628.784 -0.199391 -1.90459 0
M  V30 6335 H 627.089 1.92869 -3.4104 0
M  V30 6336 H 628.786 1.63032 -3.66363 0
M  V30 6337 H 625.376 0.332645 -4.27307 0
M  V30 6338 H 629.56 -0.378359 -4.94856 0
M  V30 6339 H 624.816 -1.36592 -5.95947 0
M  V30 6340 H 628.99 -2.07337 -6.64819 0
M  V30 6341 H 626.617 -2.57319 -7.15326 0
M  V30 6342 N 628.193 1.56834 0.155195 0
M  V30 6343 C 629.418 1.87412 0.888337 0
M  V30 6344 C 629.843 0.70671 1.74319 0
M  V30 6345 O 629.201 -0.343892 1.78009 0
M  V30 6346 C 629.249 3.1652 1.72765 0
M  V30 6347 O 628.353 2.99877 2.83103 0
M  V30 6348 H 627.694 0.615983 0.247914 0
M  V30 6349 H 630.224 2.04061 0.148478 0
M  V30 6350 H 630.234 3.48334 2.12433 0
M  V30 6351 H 628.909 4.01094 1.09985 0
M  V30 6352 H 627.486 2.79453 2.46902 0
M  V30 6353 N 629.671 -0.424282 1.51781 0
M  V30 6354 C 630.634 -1.49848 1.73431 0
M  V30 6355 C 631.634 -1.49016 0.604225 0
M  V30 6356 O 632.824 -1.50808 0.871935 0
M  V30 6357 C 629.956 -2.89332 1.80277 0
M  V30 6358 H 631.149 -1.3195 2.69312 0
M  V30 6359 H 628.702 -0.653809 1.41968 0
M  V30 6360 H 629.437 -3.12618 0.862568 0
M  V30 6361 H 629.222 -2.9134 2.62419 0
M  V30 6362 H 630.712 -3.67233 1.98821 0
M  V30 6363 N 631.149 -1.42148 -0.680565 0
M  V30 6364 C 632.397 -1.42029 -1.43779 0
M  V30 6365 C 632.718 -0.0356347 -1.94967 0
M  V30 6366 O 631.988 0.924936 -1.7269 0
M  V30 6367 H 630.568 -0.522835 -0.533529 0
M  V30 6368 H 633.23 -1.7752 -0.804538 0
M  V30 6369 H 632.326 -2.11658 -2.29363 0
M  V30 6370 N 632.627 0.916307 -1.28225 0
M  V30 6371 C 633.537 2.05165 -1.13775 0
M  V30 6372 C 634.553 1.73879 -0.0649418 0
M  V30 6373 O 635.729 1.99531 -0.273722 0
M  V30 6374 C 632.794 3.37385 -0.798267 0
M  V30 6375 C 631.855 3.82296 -1.95316 0
M  V30 6376 C 631.088 5.08206 -1.62978 0
M  V30 6377 O 631.311 5.6781 -0.542948 0
M  V30 6378 O 630.245 5.48768 -2.47261 0
M  V30 6379 H 634.071 2.20273 -2.09078 0
M  V30 6380 H 631.656 1.0373 -1.07519 0
M  V30 6381 H 633.538 4.16773 -0.62278 0
M  V30 6382 H 632.213 3.23458 0.125139 0
M  V30 6383 H 631.12 3.03746 -2.18378 0
M  V30 6384 H 632.453 4.00782 -2.85718 0
M  V30 6385 N 634.105 1.10431 1.1244 0
M  V30 6386 C 635.035 0.775143 2.20258 0
M  V30 6387 C 636.016 -0.25186 1.68225 0
M  V30 6388 O 637.201 -0.117637 1.93843 0
M  V30 6389 C 634.331 0.206133 3.46688 0
M  V30 6390 C 633.285 1.16382 4.11873 0
M  V30 6391 C 632.611 0.456014 5.32752 0
M  V30 6392 C 633.911 2.5104 4.58013 0
M  V30 6393 H 635.605 1.67665 2.4805 0
M  V30 6394 H 633.151 0.807595 1.19222 0
M  V30 6395 H 635.104 -0.036291 4.21384 0
M  V30 6396 H 633.828 -0.730614 3.18323 0
M  V30 6397 H 632.487 1.39169 3.39157 0
M  V30 6398 H 632.135 -0.485203 5.00654 0
M  V30 6399 H 631.835 1.09466 5.77314 0
M  V30 6400 H 633.359 0.222135 6.10196 0
M  V30 6401 H 634.773 2.32401 5.24083 0
M  V30 6402 H 633.17 3.10789 5.13352 0
M  V30 6403 H 634.24 3.11039 3.71998 0
M  V30 6404 N 635.583 -1.29855 0.893053 0
M  V30 6405 C 636.808 -2.00512 0.530066 0
M  V30 6406 C 637.233 -1.66446 -0.876199 0
M  V30 6407 O 636.591 -0.885446 -1.58207 0
M  V30 6408 C 636.639 -3.53308 0.721505 0
M  V30 6409 O 635.743 -4.11764 -0.228994 0
M  V30 6410 H 635.084 -0.630617 0.207891 0
M  V30 6411 H 637.614 -1.6551 1.20282 0
M  V30 6412 H 637.624 -4.03206 0.623599 0
M  V30 6413 H 636.299 -3.77439 1.74678 0
M  V30 6414 H 634.876 -3.72805 -0.0841034 0
M  V30 6415 N 637.061 -0.65484 -1.43351 0
M  V30 6416 C 638.31 -0.166215 -2.01014 0
M  V30 6417 C 638.623 1.22764 -1.52278 0
M  V30 6418 O 639.829 1.81156 -2.02224 0
M  V30 6419 C 638.285 -0.246341 -3.59056 0
M  V30 6420 C 637.893 -1.64299 -4.16785 0
M  V30 6421 C 639.637 0.184597 -4.24098 0
M  V30 6422 C 637.544 -1.67695 -5.67126 0
M  V30 6423 H 636.474 -0.0583769 -0.751737 0
M  V30 6424 H 639.125 -0.817111 -1.64303 0
M  V30 6425 H 637.507 0.472092 -3.93176 0
M  V30 6426 H 638.681 -2.3869 -3.94162 0
M  V30 6427 H 636.996 -2.02004 -3.6412 0
M  V30 6428 H 639.593 0.179088 -5.344 0
M  V30 6429 H 639.936 1.21632 -3.98135 0
M  V30 6430 H 640.469 -0.482141 -3.94867 0
M  V30 6431 H 637.208 -2.68783 -5.9786 0
M  V30 6432 H 636.728 -0.976313 -5.91801 0
M  V30 6433 H 638.407 -1.42142 -6.31193 0
M  V30 6434 N 638.539 1.52521 -0.396863 0
M  V30 6435 C 639.471 2.24333 0.469814 0
M  V30 6436 C 640.484 1.2685 1.02043 0
M  V30 6437 O 641.673 1.52876 0.92147 0
M  V30 6438 C 638.773 2.95202 1.66461 0
M  V30 6439 C 637.946 4.19454 1.24003 0
M  V30 6440 C 637.005 4.73255 2.30036 0
M  V30 6441 O 636.031 5.36151 1.91131 0
M  V30 6442 N 637.233 4.53765 3.62047 0
M  V30 6443 H 639.998 2.99347 -0.145468 0
M  V30 6444 H 637.559 1.60348 -0.223606 0
M  V30 6445 H 639.551 3.28092 2.36934 0
M  V30 6446 H 638.121 2.2345 2.18607 0
M  V30 6447 H 637.341 3.92517 0.363892 0
M  V30 6448 H 638.629 5.0017 0.933135 0
M  V30 6449 H 638.027 4.03576 3.96412 0
M  V30 6450 H 636.584 4.91124 4.28533 0
M  V30 6451 N 640.017 0.126909 1.57088 0
M  V30 6452 C 641.428 -0.397201 1.82426 0
M  V30 6453 C 641.779 -1.66084 1.04453 0
M  V30 6454 O 640.904 -2.14534 0.283552 0
M  V30 6455 C 641.499 -0.727411 3.30899 0
M  V30 6456 C 640.058 -1.19612 3.56889 0
M  V30 6457 C 639.205 -0.20885 2.76512 0
M  V30 6458 H 642.156 0.351924 1.54749 0
M  V30 6459 H 642.177 -1.58407 3.45959 0
M  V30 6460 H 641.689 0.19247 3.87622 0
M  V30 6461 H 639.79 -2.13263 3.05532 0
M  V30 6462 H 639.903 -1.13598 4.65438 0
M  V30 6463 H 638.267 -0.697479 2.44964 0
M  V30 6464 H 639.05 0.704267 3.35998 0
M  V30 6465 N 641.495 -1.56914 -0.146875 0
M  V30 6466 C 642.72 -1.87881 -0.878386 0
M  V30 6467 C 643.145 -0.715945 -1.73942 0
M  V30 6468 O 642.503 0.334447 -1.78189 0
M  V30 6469 C 642.551 -3.17431 -1.71084 0
M  V30 6470 O 641.655 -3.01374 -2.81509 0
M  V30 6471 H 640.996 -0.617289 -0.244644 0
M  V30 6472 H 643.526 -2.04136 -0.137654 0
M  V30 6473 H 643.536 -3.49455 -2.10582 0
M  V30 6474 H 642.211 -4.01671 -1.07856 0
M  V30 6475 H 640.788 -2.80758 -2.45416 0
M  V30 6476 N 642.974 0.416227 -1.52004 0
M  V30 6477 C 643.904 1.51365 -1.77795 0
M  V30 6478 C 644.885 1.58059 -0.628601 0
M  V30 6479 O 646.07 1.73447 -0.873478 0
M  V30 6480 C 643.2 2.89256 -1.92219 0
M  V30 6481 C 642.154 2.97415 -3.0778 0
M  V30 6482 C 641.48 4.37492 -3.07417 0
M  V30 6483 C 642.78 2.69551 -4.47369 0
M  V30 6484 H 644.474 1.30033 -2.69688 0
M  V30 6485 H 642.02 0.624112 -1.29772 0
M  V30 6486 H 643.973 3.66008 -2.08845 0
M  V30 6487 H 642.697 3.11866 -0.969917 0
M  V30 6488 H 641.356 2.23107 -2.90893 0
M  V30 6489 H 641.004 4.571 -2.09925 0
M  V30 6490 H 640.704 4.43877 -3.85029 0
M  V30 6491 H 642.228 5.16188 -3.26162 0
M  V30 6492 H 643.642 3.36028 -4.64497 0
M  V30 6493 H 642.039 2.87321 -5.26846 0
M  V30 6494 H 643.109 1.65029 -4.55953 0
M  V30 6495 N 644.452 1.42507 0.673017 0
M  V30 6496 C 645.4 1.46362 1.80779 0
M  V30 6497 C 646.394 0.339166 1.6597 0
M  V30 6498 O 647.6 0.512262 1.72557 0
M  V30 6499 H 643.975 0.458433 0.596107 0
M  V30 6500 H 645.946 2.41953 1.74646 0
M  V30 6501 C 644.695 1.38462 3.18941 0
M  V30 6502 H 644.018 2.24283 3.30964 0
M  V30 6503 H 645.458 1.45221 3.98355 0
M  V30 6504 C 643.917 0.0996354 3.36753 0
M  V30 6505 O 644.447 -0.846894 3.92671 0
M  V30 6506 N 642.653 0.016211 2.90595 0
M  V30 6507 H 642.2 0.78725 2.45276 0
M  V30 6508 H 642.158 -0.84291 3.0289 0
M  V30 6509 N 645.93 -0.909495 1.28709 0
M  V30 6510 C 646.893 -1.99399 1.13016 0
M  V30 6511 C 647.893 -1.60654 0.068536 0
M  V30 6512 O 649.083 -1.71334 0.314671 0
M  V30 6513 C 646.215 -3.33078 0.726085 0
M  V30 6514 H 647.408 -2.14751 2.09338 0
M  V30 6515 H 644.961 -1.09272 1.11756 0
M  V30 6516 H 645.696 -3.23428 -0.23771 0
M  V30 6517 H 645.481 -3.62562 1.49302 0
M  V30 6518 H 646.971 -4.12681 0.639058 0
M  V30 6519 N 647.408 -1.11026 -1.11852 0
M  V30 6520 C 648.657 -0.851249 -1.82857 0
M  V30 6521 C 648.97 0.62514 -1.85341 0
M  V30 6522 O 650.176 1.00026 -2.52403 0
M  V30 6523 C 648.632 -1.47309 -3.28372 0
M  V30 6524 C 648.24 -2.9832 -3.34229 0
M  V30 6525 C 649.984 -1.29373 -4.04306 0
M  V30 6526 C 647.891 -3.53509 -4.74115 0
M  V30 6527 H 646.821 -0.314794 -0.685143 0
M  V30 6528 H 649.472 -1.33499 -1.25898 0
M  V30 6529 H 647.854 -0.917017 -3.85236 0
M  V30 6530 H 649.028 -3.60295 -2.87271 0
M  V30 6531 H 647.343 -3.15482 -2.71772 0
M  V30 6532 H 649.94 -1.68042 -5.07608 0
M  V30 6533 H 650.283 -0.235879 -4.15631 0
M  V30 6534 H 650.816 -1.8182 -3.53817 0
M  V30 6535 H 647.555 -4.58987 -4.67986 0
M  V30 6536 H 647.075 -2.96305 -5.21501 0
M  V30 6537 H 648.754 -3.51693 -5.43066 0
M  V30 6538 N 648.886 1.2938 -0.899927 0
M  V30 6539 C 649.816 2.30144 -0.39446 0
M  V30 6540 C 650.797 1.61611 0.530639 0
M  V30 6541 O 651.982 1.89119 0.441319 0
M  V30 6542 C 649.112 3.45229 0.37868 0
M  V30 6543 C 648.066 4.25564 -0.456012 0
M  V30 6544 C 647.392 5.32848 0.444637 0
M  V30 6545 C 648.692 4.93651 -1.70605 0
M  V30 6546 H 650.386 2.72673 -1.23653 0
M  V30 6547 H 647.932 1.31086 -0.596034 0
M  V30 6548 H 649.885 4.14797 0.743037 0
M  V30 6549 H 648.609 3.01545 1.25453 0
M  V30 6550 H 647.268 3.57704 -0.802704 0
M  V30 6551 H 646.916 4.85408 1.31863 0
M  V30 6552 H 646.616 5.87497 -0.110154 0
M  V30 6553 H 648.14 6.05268 0.805182 0
M  V30 6554 H 649.554 5.55655 -1.41141 0
M  V30 6555 H 647.951 5.58233 -2.20217 0
M  V30 6556 H 649.021 4.18926 -2.4419 0
M  V30 6557 N 650.364 0.662433 1.43002 0
M  V30 6558 C 651.613 0.176873 2.00923 0
M  V30 6559 C 651.926 -1.21954 1.52927 0
M  V30 6560 O 653.132 -1.80081 2.03182 0
M  V30 6561 C 651.588 0.265379 3.5892 0
M  V30 6562 C 651.196 1.66507 4.15908 0
M  V30 6563 C 652.94 -0.162103 4.2419 0
M  V30 6564 C 650.847 1.707 5.66229 0
M  V30 6565 H 649.777 0.0623627 0.751417 0
M  V30 6566 H 652.428 0.825813 1.63868 0
M  V30 6567 H 650.81 -0.451235 3.93421 0
M  V30 6568 H 651.984 2.40777 3.92891 0
M  V30 6569 H 650.299 2.03932 3.63044 0
M  V30 6570 H 652.896 -0.150745 5.34487 0
M  V30 6571 H 653.239 -1.19519 3.98774 0
M  V30 6572 H 653.772 0.503075 3.94606 0
M  V30 6573 H 650.511 2.7195 5.96426 0
M  V30 6574 H 650.031 1.00768 5.91275 0
M  V30 6575 H 651.71 1.45487 6.3043 0
M  V30 6576 N 651.842 -1.52309 0.404946 0
M  V30 6577 C 653.253 -1.86585 -0.0655926 0
M  V30 6578 C 653.604 -1.3239 -1.44801 0
M  V30 6579 O 652.729 -0.6615 -2.06042 0
M  V30 6580 C 653.324 -3.38566 -0.125801 0
M  V30 6581 C 651.883 -3.72497 -0.540666 0
M  V30 6582 C 651.03 -2.75806 0.287487 0
M  V30 6583 H 653.981 -1.45995 0.622185 0
M  V30 6584 H 654.002 -3.68658 -0.941888 0
M  V30 6585 H 653.514 -3.77981 0.880473 0
M  V30 6586 H 651.615 -3.38659 -1.55373 0
M  V30 6587 H 651.728 -4.78234 -0.287956 0
M  V30 6588 H 650.092 -2.53474 -0.249561 0
M  V30 6589 H 650.875 -3.18059 1.29203 0
M  V30 6590 N 653.32 -0.135238 -1.57019 0
M  V30 6591 C 654.731 0.387521 -1.82634 0
M  V30 6592 C 655.082 1.65528 -1.05332 0
M  V30 6593 O 654.207 2.14381 -0.294926 0
M  V30 6594 C 654.802 0.709852 -3.3128 0
M  V30 6595 C 653.361 1.17718 -3.57518 0
M  V30 6596 C 652.508 0.194183 -2.76619 0
M  V30 6597 H 655.459 -0.360126 -1.5456 0
M  V30 6598 H 655.48 1.5657 -3.46794 0
M  V30 6599 H 654.992 -0.213024 -3.87515 0
M  V30 6600 H 653.093 2.1164 -3.06658 0
M  V30 6601 H 653.206 1.11128 -4.66034 0
M  V30 6602 H 651.57 0.684478 -2.4533 0
M  V30 6603 H 652.353 -0.722076 -3.3562 0
M  V30 6604 N 654.798 1.5699 0.138552 0
M  V30 6605 C 655.748 1.9532 1.17619 0
M  V30 6606 C 656.732 0.825545 1.38107 0
M  V30 6607 O 657.924 1.08908 1.39528 0
M  V30 6608 C 655.053 2.34451 2.50774 0
M  V30 6609 C 654.139 3.53805 2.33844 0
M  V30 6610 N 654.53 4.70088 1.86685 0
M  V30 6611 C 652.828 3.59055 2.64567 0
M  V30 6612 C 653.529 5.52165 1.82998 0
M  V30 6613 N 652.505 4.94108 2.26624 0
M  V30 6614 H 656.307 2.82694 0.803809 0
M  V30 6615 H 653.821 1.5866 0.346519 0
M  V30 6616 H 655.818 2.60119 3.25797 0
M  V30 6617 H 654.478 1.48431 2.88788 0
M  V30 6618 H 655.489 4.93681 1.56523 0
M  V30 6619 H 652.166 2.83596 3.06398 0
M  V30 6620 H 653.556 6.55407 1.47957 0
M  V30 6621 N 656.276 -0.40816 1.52223 0
M  V30 6622 C 657.206 -1.5042 1.78595 0
M  V30 6623 C 658.187 -1.57723 0.636974 0
M  V30 6624 O 659.372 -1.72982 0.882664 0
M  V30 6625 C 656.502 -2.88232 1.93751 0
M  V30 6626 C 655.456 -2.95779 3.09352 0
M  V30 6627 C 654.782 -4.35855 3.09732 0
M  V30 6628 C 656.082 -2.67175 4.48793 0
M  V30 6629 H 657.776 -1.28601 2.70374 0
M  V30 6630 H 655.322 -0.617221 1.30101 0
M  V30 6631 H 657.275 -3.64895 2.10783 0
M  V30 6632 H 655.999 -3.11347 0.986443 0
M  V30 6633 H 654.658 -2.21561 2.92072 0
M  V30 6634 H 654.306 -4.55981 2.12346 0
M  V30 6635 H 654.006 -4.41829 3.87377 0
M  V30 6636 H 655.53 -5.14451 3.28895 0
M  V30 6637 H 656.944 -3.3356 4.66273 0
M  V30 6638 H 655.341 -2.84523 5.28362 0
M  V30 6639 H 656.411 -1.62609 4.56822 0
M  V30 6640 N 657.755 -1.42862 -0.66545 0
M  V30 6641 C 659.171 -1.25993 -0.979687 0
M  V30 6642 C 659.371 -0.170831 -2.00775 0
M  V30 6643 O 658.427 0.454827 -2.4837 0
M  V30 6644 C 659.74 -2.62005 -1.47559 0
M  V30 6645 C 661.288 -2.69437 -1.59288 0
M  V30 6646 C 661.763 -4.05838 -2.12272 0
M  V30 6647 N 663.254 -4.0784 -2.19592 0
M  V30 6648 C 663.989 -5.10205 -2.61684 0
M  V30 6649 N 663.485 -6.22949 -3.03161 0
M  V30 6650 N 665.278 -4.9756 -2.61516 0
M  V30 6651 H 657.429 -2.12395 0.0150493 0
M  V30 6652 H 659.692 -0.946355 -0.0558187 0
M  V30 6653 H 659.398 -3.42605 -0.794654 0
M  V30 6654 H 659.272 -2.86566 -2.45275 0
M  V30 6655 H 661.659 -1.89178 -2.26486 0
M  V30 6656 H 661.74 -2.48655 -0.600374 0
M  V30 6657 H 661.384 -4.86559 -1.4568 0
M  V30 6658 H 661.314 -4.23977 -3.12331 0
M  V30 6659 H 663.805 -3.26452 -1.90361 0
M  V30 6660 H 664.118 -6.96899 -3.33993 0
M  V30 6661 H 662.463 -6.2644 -3.00995 0
M  V30 6662 H 665.654 -4.08551 -2.28481 0
M  V30 6663 H 665.827 -5.77468 -2.93999 0
M  V30 6664 N 659.233 0.902656 -1.29189 0
M  V30 6665 C 660.458 1.69167 -1.19989 0
M  V30 6666 C 660.883 1.86607 0.236495 0
M  V30 6667 O 660.241 1.38425 1.17082 0
M  V30 6668 C 660.289 3.05532 -1.91527 0
M  V30 6669 O 659.393 3.93621 -1.2303 0
M  V30 6670 H 658.734 0.517584 -0.415936 0
M  V30 6671 H 661.264 1.12785 -1.70706 0
M  V30 6672 H 661.274 3.55693 -1.99866 0
M  V30 6673 H 659.949 2.92156 -2.96003 0
M  V30 6674 H 658.526 3.52055 -1.22928 0
M  V30 6675 N 660.711 1.11618 1.11262 0
M  V30 6676 C 662.122 0.881942 1.64556 0
M  V30 6677 C 662.473 -0.585442 1.87262 0
M  V30 6678 O 661.598 -1.44795 1.60821 0
M  V30 6679 C 662.193 1.59446 2.98935 0
M  V30 6680 C 660.752 1.40661 3.4913 0
M  V30 6681 C 659.899 1.63593 2.23903 0
M  V30 6682 H 662.85 1.27217 0.94877 0
M  V30 6683 H 662.871 1.04054 3.65996 0
M  V30 6684 H 662.383 2.66241 2.82378 0
M  V30 6685 H 660.484 0.360835 3.70849 0
M  V30 6686 H 660.597 2.15693 4.27801 0
M  V30 6687 H 658.961 1.05944 2.3162 0
M  V30 6688 H 659.744 2.71666 2.09886 0
M  V30 6689 N 662.189 -1.289 0.906776 0
M  V30 6690 C 663.152 -2.25777 0.394656 0
M  V30 6691 C 664.152 -1.53621 -0.475119 0
M  V30 6692 O 665.342 -1.71949 -0.279165 0
M  V30 6693 C 662.474 -3.38113 -0.43499 0
M  V30 6694 H 663.667 -2.72592 1.25033 0
M  V30 6695 H 661.22 -1.40463 0.685547 0
M  V30 6696 H 661.955 -2.96648 -1.31036 0
M  V30 6697 H 661.74 -3.91647 0.188334 0
M  V30 6698 H 663.23 -4.10168 -0.784365 0
M  V30 6699 N 663.667 -0.670007 -1.42649 0
M  V30 6700 C 664.915 -0.18991 -2.01206 0
M  V30 6701 C 665.236 1.20617 -1.53221 0
M  V30 6702 O 664.506 1.80898 -0.751856 0
M  V30 6703 H 663.086 -0.0672189 -0.743969 0
M  V30 6704 H 665.748 -0.865442 -1.74631 0
M  V30 6705 H 664.844 -0.187481 -3.11536 0
M  V30 6706 N 665.145 1.52092 -0.413018 0
M  V30 6707 C 666.373 2.06274 0.160881 0
M  V30 6708 C 666.788 1.28273 1.38533 0
M  V30 6709 O 666.145 0.33563 1.79387 0
M  V30 6710 C 666.196 3.57921 0.507443 0
M  V30 6711 O 665.917 4.32971 -0.668388 0
M  V30 6712 C 667.418 4.28533 1.13465 0
M  V30 6713 H 664.638 0.67074 0.0186759 0
M  V30 6714 H 667.182 1.95951 -0.585092 0
M  V30 6715 H 665.337 3.68238 1.20331 0
M  V30 6716 H 665.751 5.23135 -0.378169 0
M  V30 6717 H 667.225 5.35804 1.32732 0
M  V30 6718 H 667.702 3.85258 2.10886 0
M  V30 6719 H 668.308 4.22595 0.478876 0
M  V30 6720 N 666.623 0.143563 1.56945 0
M  V30 6721 C 667.851 -0.515447 2.00377 0
M  V30 6722 C 668.266 -1.58643 1.02361 0
M  V30 6723 O 667.623 -1.82489 0.0201039 0
M  V30 6724 C 667.674 -1.11923 3.43737 0
M  V30 6725 O 667.395 -0.0910318 4.38005 0
M  V30 6726 C 668.896 -1.85918 4.02429 0
M  V30 6727 H 666.116 -0.134478 0.657386 0
M  V30 6728 H 668.66 0.237135 2.0312 0
M  V30 6729 H 666.815 -1.82245 3.41856 0
M  V30 6730 H 667.229 -0.532916 5.21786 0
M  V30 6731 H 668.703 -2.2346 5.04747 0
M  V30 6732 H 669.18 -2.7438 3.42947 0
M  V30 6733 H 669.786 -1.20303 4.07931 0
M  V30 6734 N 668.101 -1.57061 -0.130224 0
M  V30 6735 C 669.329 -1.88432 -0.854456 0
M  V30 6736 C 669.744 -0.733608 -1.73964 0
M  V30 6737 O 669.101 0.296029 -1.80083 0
M  V30 6738 C 669.152 -3.1918 -1.69724 0
M  V30 6739 O 668.873 -4.2982 -0.847705 0
M  V30 6740 C 670.374 -3.6418 -2.5276 0
M  V30 6741 H 667.594 -0.624193 -0.246221 0
M  V30 6742 H 670.138 -2.04159 -0.11798 0
M  V30 6743 H 668.293 -3.05156 -2.3866 0
M  V30 6744 H 668.707 -5.04689 -1.42792 0
M  V30 6745 H 670.181 -4.58457 -3.07443 0
M  V30 6746 H 670.658 -2.90285 -3.29592 0
M  V30 6747 H 671.264 -3.80954 -1.89087 0
M  V30 6748 N 669.579 0.400081 -1.52437 0
M  V30 6749 C 670.509 1.4947 -1.7939 0
M  V30 6750 C 671.49 1.57383 -0.645329 0
M  V30 6751 O 672.675 1.72511 -0.891826 0
M  V30 6752 C 669.805 2.87201 -1.95276 0
M  V30 6753 C 668.759 2.94134 -3.10917 0
M  V30 6754 C 668.085 4.34207 -3.1204 0
M  V30 6755 C 669.385 2.64791 -4.50203 0
M  V30 6756 H 671.079 1.27165 -2.71052 0
M  V30 6757 H 668.625 0.610312 -1.30427 0
M  V30 6758 H 670.578 3.63772 -2.12715 0
M  V30 6759 H 669.302 3.10819 -1.00294 0
M  V30 6760 H 667.961 2.20009 -2.93243 0
M  V30 6761 H 667.609 4.54848 -2.14761 0
M  V30 6762 H 667.309 4.39768 -3.89715 0
M  V30 6763 H 668.833 5.127 -3.31619 0
M  V30 6764 H 670.247 3.31083 -4.68035 0
M  V30 6765 H 668.644 2.81717 -5.29864 0
M  V30 6766 H 669.714 1.60184 -4.57678 0
M  V30 6767 N 671.057 1.43213 0.657864 0
M  V30 6768 C 672.285 1.48015 1.44566 0
M  V30 6769 C 672.7 0.0965951 1.88553 0
M  V30 6770 O 672.057 -0.892221 1.59203 0
M  V30 6771 C 672.108 2.42199 2.68369 0
M  V30 6772 O 671.829 3.75173 2.26223 0
M  V30 6773 C 673.33 2.56195 3.61772 0
M  V30 6774 H 670.55 0.502861 0.444266 0
M  V30 6775 H 673.094 1.87907 0.806917 0
M  V30 6776 H 671.249 2.05514 3.28394 0
M  V30 6777 H 671.663 4.25776 3.06293 0
M  V30 6778 H 673.137 3.26182 4.4532 0
M  V30 6779 H 673.614 1.60534 4.0881 0
M  V30 6780 H 674.22 2.93671 3.07632 0
M  V30 6781 N 672.536 -0.895792 1.29666 0
M  V30 6782 C 673.947 -1.46195 1.1612 0
M  V30 6783 C 674.298 -1.94699 -0.242195 0
M  V30 6784 O 673.423 -1.8406 -1.13802 0
M  V30 6785 C 674.018 -2.65718 2.10189 0
M  V30 6786 C 672.577 -3.18458 2.00653 0
M  V30 6787 C 671.724 -1.91149 2.00891 0
M  V30 6788 H 674.675 -0.706756 1.42094 0
M  V30 6789 H 674.696 -3.4158 1.6764 0
M  V30 6790 H 674.208 -2.30386 3.12321 0
M  V30 6791 H 672.309 -3.58474 1.01623 0
M  V30 6792 H 672.422 -3.82491 2.88509 0
M  V30 6793 H 670.786 -2.09021 1.45542 0
M  V30 6794 H 671.569 -1.58089 3.04734 0
M  V30 6795 N 674.014 -1.12206 -1.10668 0
M  V30 6796 C 675.239 -0.898938 -1.86906 0
M  V30 6797 C 675.664 0.546346 -1.79991 0
M  V30 6798 O 675.022 1.38655 -1.1681 0
M  V30 6799 C 675.07 -1.37529 -3.33344 0
M  V30 6800 O 674.174 -0.55218 -4.08687 0
M  V30 6801 H 673.515 -0.323163 -0.580053 0
M  V30 6802 H 676.045 -1.49355 -1.39837 0
M  V30 6803 H 676.055 -1.3733 -3.84193 0
M  V30 6804 H 674.73 -2.42767 -3.37693 0
M  V30 6805 H 673.307 -0.620947 -3.67694 0
M  V30 6806 N 675.492 1.28418 -0.913599 0
M  V30 6807 C 676.717 1.99643 -0.561899 0
M  V30 6808 C 677.142 1.67819 0.849608 0
M  V30 6809 O 676.5 0.910503 1.56779 0
M  V30 6810 C 676.548 3.52116 -0.777622 0
M  V30 6811 O 675.652 4.12076 0.163457 0
M  V30 6812 H 674.993 0.627229 -0.217898 0
M  V30 6813 H 677.523 1.63575 -1.229 0
M  V30 6814 H 677.533 4.02163 -0.687666 0
M  V30 6815 H 676.208 3.74613 -1.8066 0
M  V30 6816 H 674.785 3.72892 0.0247827 0
M  V30 6817 N 676.97 0.677563 1.42291 0
M  V30 6818 C 677.902 -0.0380218 2.29168 0
M  V30 6819 C 678.915 -0.762714 1.43828 0
M  V30 6820 O 680.104 -0.616413 1.67519 0
M  V30 6821 C 677.204 -1.07761 3.21311 0
M  V30 6822 C 676.377 -0.42618 4.35319 0
M  V30 6823 C 675.436 -1.36592 5.08162 0
M  V30 6824 O 674.462 -0.865174 5.62586 0
M  V30 6825 N 675.664 -2.69909 5.13935 0
M  V30 6826 H 678.429 0.707766 2.91223 0
M  V30 6827 H 675.99 0.52219 1.53247 0
M  V30 6828 H 677.982 -1.70761 3.6691 0
M  V30 6829 H 676.552 -1.72511 2.60689 0
M  V30 6830 H 675.772 0.383385 3.92331 0
M  V30 6831 H 677.06 0.0275277 5.08793 0
M  V30 6832 H 676.458 -3.13129 4.71134 0
M  V30 6833 H 675.015 -3.2815 5.6317 0
M  V30 6834 N 678.448 -1.51871 0.421078 0
M  V30 6835 C 679.411 -2.25914 -0.386712 0
M  V30 6836 C 680.411 -1.28733 -0.963555 0
M  V30 6837 O 681.601 -1.52579 -0.840556 0
M  V30 6838 C 678.733 -3.03853 -1.54551 0
M  V30 6839 H 679.926 -2.98754 0.261978 0
M  V30 6840 H 677.479 -1.5533 0.173862 0
M  V30 6841 H 678.214 -2.35392 -2.23072 0
M  V30 6842 H 677.999 -3.75215 -1.13824 0
M  V30 6843 H 679.489 -3.59984 -2.11663 0
M  V30 6844 N 679.926 -0.151884 -1.56866 0
M  V30 6845 C 680.856 0.781943 -2.20018 0
M  V30 6846 C 681.837 1.25347 -1.14987 0
M  V30 6847 O 683.022 1.31015 -1.43348 0
M  V30 6848 C 680.152 2.01928 -2.82564 0
M  V30 6849 C 679.106 1.68434 -3.93464 0
M  V30 6850 C 678.432 2.99472 -4.42968 0
M  V30 6851 C 679.732 0.927244 -5.14003 0
M  V30 6852 H 681.426 0.255607 -2.98307 0
M  V30 6853 H 678.972 0.121502 -1.43486 0
M  V30 6854 H 680.925 2.67741 -3.25411 0
M  V30 6855 H 679.649 2.56943 -2.01614 0
M  V30 6856 H 678.308 1.04998 -3.51242 0
M  V30 6857 H 677.956 3.52488 -3.58834 0
M  V30 6858 H 677.656 2.77823 -5.17772 0
M  V30 6859 H 679.18 3.66348 -4.88489 0
M  V30 6860 H 680.594 1.48756 -5.53665 0
M  V30 6861 H 678.991 0.810513 -5.94601 0
M  V30 6862 H 680.061 -0.0801163 -4.84834 0
M  V30 6863 N 681.404 1.57128 0.121893 0
M  V30 6864 C 682.632 1.88883 0.844451 0
M  V30 6865 C 683.047 0.742824 1.73573 0
M  V30 6866 O 682.404 -0.286475 1.80238 0
M  V30 6867 C 682.455 3.20076 1.68029 0
M  V30 6868 O 682.176 4.30264 0.824898 0
M  V30 6869 C 683.677 3.65515 2.50826 0
M  V30 6870 H 680.897 0.62549 0.242907 0
M  V30 6871 H 683.441 2.04219 0.107151 0
M  V30 6872 H 681.596 3.06418 2.37038 0
M  V30 6873 H 682.01 5.05439 1.40113 0
M  V30 6874 H 683.484 4.60081 3.05008 0
M  V30 6875 H 683.961 2.92029 3.28048 0
M  V30 6876 H 684.567 3.81952 1.87064 0
M  V30 6877 N 682.882 -0.391992 1.52647 0
M  V30 6878 C 683.792 -1.503 1.80131 0
M  V30 6879 C 684.808 -1.59825 0.687882 0
M  V30 6880 O 685.984 -1.76218 0.975149 0
M  V30 6881 C 683.049 -2.85863 1.96171 0
M  V30 6882 C 682.11 -2.86084 3.20085 0
M  V30 6883 C 681.343 -4.15181 3.35351 0
M  V30 6884 O 681.566 -5.09981 2.55491 0
M  V30 6885 O 680.5 -4.22603 4.28591 0
M  V30 6886 H 684.326 -1.30007 2.74466 0
M  V30 6887 H 681.911 -0.579539 1.37701 0
M  V30 6888 H 683.793 -3.66236 2.08445 0
M  V30 6889 H 682.468 -3.06189 1.05025 0
M  V30 6890 H 681.375 -2.04504 3.13256 0
M  V30 6891 H 682.708 -2.7071 4.11068 0
M  V30 6892 N 684.36 -1.4356 -0.65026 0
M  V30 6893 C 685.588 -1.48779 -1.43779 0
M  V30 6894 C 686.003 -0.106593 -1.88499 0
M  V30 6895 O 685.36 0.883766 -1.59674 0
M  V30 6896 C 685.411 -2.43618 -2.67081 0
M  V30 6897 O 685.132 -3.76367 -2.24231 0
M  V30 6898 C 686.633 -2.5811 -3.60409 0
M  V30 6899 H 683.853 -0.50521 -0.441593 0
M  V30 6900 H 686.397 -1.88332 -0.796941 0
M  V30 6901 H 684.552 -2.07253 -3.273 0
M  V30 6902 H 684.966 -4.27394 -3.0403 0
M  V30 6903 H 686.44 -3.28539 -4.43583 0
M  V30 6904 H 686.917 -1.627 -4.07953 0
M  V30 6905 H 687.523 -2.95298 -3.0607 0
M  V30 6906 N 685.838 0.888903 -1.30139 0
M  V30 6907 C 687.249 1.45578 -1.16893 0
M  V30 6908 C 687.6 1.94825 0.231866 0
M  V30 6909 O 686.725 1.84661 1.12824 0
M  V30 6910 C 687.32 2.646 -2.11595 0
M  V30 6911 C 685.879 3.17389 -2.02339 0
M  V30 6912 C 685.026 1.90081 -2.01902 0
M  V30 6913 H 687.977 0.69921 -1.42467 0
M  V30 6914 H 687.998 3.40687 -1.69449 0
M  V30 6915 H 687.51 2.28726 -3.13538 0
M  V30 6916 H 685.611 3.5793 -1.03523 0
M  V30 6917 H 685.724 3.80955 -2.90534 0
M  V30 6918 H 684.088 2.08246 -1.46648 0
M  V30 6919 H 684.871 1.5647 -3.05568 0
M  V30 6920 N 687.317 1.12792 1.10072 0
M  V30 6921 C 688.545 0.908506 1.85886 0
M  V30 6922 C 688.96 -0.542408 1.80841 0
M  V30 6923 O 688.317 -1.37517 1.1998 0
M  V30 6924 C 688.368 1.37973 3.34134 0
M  V30 6925 O 688.089 2.77378 3.39106 0
M  V30 6926 C 689.59 1.1978 4.26811 0
M  V30 6927 H 686.81 0.3244 0.587372 0
M  V30 6928 H 689.354 1.49882 1.39125 0
M  V30 6929 H 687.509 0.832566 3.78348 0
M  V30 6930 H 687.923 2.98144 4.31521 0
M  V30 6931 H 689.397 1.57635 5.29014 0
M  V30 6932 H 689.874 0.138768 4.38981 0
M  V30 6933 H 690.48 1.73266 3.88406 0
M  V30 6934 N 688.795 -1.27931 0.920396 0
M  V30 6935 C 690.02 -1.99343 0.572478 0
M  V30 6936 C 690.445 -1.68267 -0.840696 0
M  V30 6937 O 689.803 -0.918805 -1.56294 0
M  V30 6938 C 689.851 -3.51698 0.796284 0
M  V30 6939 O 688.955 -4.12157 -0.141602 0
M  V30 6940 H 688.296 -0.626065 0.221221 0
M  V30 6941 H 690.826 -1.62921 1.23765 0
M  V30 6942 H 690.836 -4.01793 0.708984 0
M  V30 6943 H 689.511 -3.73649 1.82644 0
M  V30 6944 H 688.088 -3.729 -0.005007 0
M  V30 6945 N 690.273 -0.685099 -1.4193 0
M  V30 6946 C 691.498 -0.218842 -2.06242 0
M  V30 6947 C 691.923 1.11923 -1.51178 0
M  V30 6948 O 691.281 1.69837 -0.634446 0
M  V30 6949 C 691.329 -0.175592 -3.60172 0
M  V30 6950 O 690.433 0.852776 -4.03487 0
M  V30 6951 H 689.774 -0.109531 -0.654904 0
M  V30 6952 H 692.304 -0.937013 -1.81882 0
M  V30 6953 H 692.314 -0.00291151 -4.08 0
M  V30 6954 H 690.989 -1.15222 -3.99621 0
M  V30 6955 H 689.566 0.650301 -3.67186 0
M  V30 6956 N 691.751 1.51645 -0.429126 0
M  V30 6957 C 693.028 1.94579 0.199614 0
M  V30 6958 C 693.408 1.3673 1.60836 0
M  V30 6959 O 692.756 0.551062 2.21756 0
M  V30 6960 C 692.966 3.48506 0.185685 0
M  V30 6961 C 694.314 4.22756 0.395282 0
M  V30 6962 O 695.338 3.55219 0.264165 0
M  V30 6963 O 694.197 5.42555 0.655475 0
M  V30 6964 H 691.291 0.816007 0.134393 0
M  V30 6965 H 693.837 1.62577 -0.486513 0
M  V30 6966 H 692.609 3.83045 -0.799508 0
M  V30 6967 H 692.232 3.86927 0.91507 0
M  V30 6968 N 693.229 0.160201 1.56784 0
M  V30 6969 C 694.475 -0.481855 1.9761 0
M  V30 6970 C 694.83 -1.61605 1.04411 0
M  V30 6971 O 694.123 -1.91426 0.0816402 0
M  V30 6972 C 694.317 -1.02259 3.42459 0
M  V30 6973 C 694.146 0.0576781 4.49663 0
M  V30 6974 C 692.916 0.503585 5.02784 0
M  V30 6975 C 695.114 0.854013 5.0716 0
M  V30 6976 N 693.096 1.56532 5.93608 0
M  V30 6977 C 694.467 1.76593 5.94319 0
M  V30 6978 C 696.522 0.900333 4.89692 0
M  V30 6979 C 695.225 2.72023 6.6588 0
M  V30 6980 C 697.251 1.84252 5.61965 0
M  V30 6981 C 696.613 2.74194 6.48843 0
M  V30 6982 H 692.712 -0.144748 0.768487 0
M  V30 6983 H 695.296 0.257853 1.92985 0
M  V30 6984 H 693.467 -1.73186 3.47651 0
M  V30 6985 H 695.199 -1.63235 3.70319 0
M  V30 6986 H 691.954 0.103361 4.73487 0
M  V30 6987 H 692.378 2.09634 6.43726 0
M  V30 6988 H 697.02 0.219023 4.22232 0
M  V30 6989 H 694.738 3.41147 7.3256 0
M  V30 6990 H 698.324 1.88433 5.5044 0
M  V30 6991 H 697.204 3.45912 7.03786 0
M  V30 6992 N 694.707 -1.5719 -0.113559 0
M  V30 6993 C 695.639 -1.97393 -1.16484 0
M  V30 6994 C 696.652 -0.873964 -1.37352 0
M  V30 6995 O 697.841 -1.15222 -1.36331 0
M  V30 6996 C 694.941 -2.26174 -2.52386 0
M  V30 6997 C 694.114 -3.57479 -2.52046 0
M  V30 6998 C 693.173 -3.74409 -3.69735 0
M  V30 6999 O 692.199 -4.46463 -3.53071 0
M  V30 7000 N 693.401 -3.13588 -4.88511 0
M  V30 7001 H 696.166 -2.88184 -0.822814 0
M  V30 7002 H 693.727 -1.59044 -0.302769 0
M  V30 7003 H 695.719 -2.3471 -3.29687 0
M  V30 7004 H 694.289 -1.41483 -2.7875 0
M  V30 7005 H 693.509 -3.60081 -1.60421 0
M  V30 7006 H 694.797 -4.43775 -2.48881 0
M  V30 7007 H 694.195 -2.55026 -5.04953 0
M  V30 7008 H 692.752 -3.27637 -5.63469 0
M  V30 7009 N 696.185 0.383891 -1.52853 0
M  V30 7010 C 697.41 1.154 -1.7233 0
M  V30 7011 C 697.835 1.82809 -0.44298 0
M  V30 7012 O 697.193 1.71026 0.601645 0
M  V30 7013 C 697.241 2.17386 -2.87708 0
M  V30 7014 O 696.345 3.24082 -2.55038 0
M  V30 7015 H 695.686 0.335709 -0.572883 0
M  V30 7016 H 698.216 0.44662 -1.99666 0
M  V30 7017 H 698.226 2.61296 -3.1335 0
M  V30 7018 H 696.901 1.6771 -3.80587 0
M  V30 7019 H 695.478 2.85273 -2.40153 0
M  V30 7020 N 697.663 1.43903 0.642637 0
M  V30 7021 C 698.891 1.4954 1.42988 0
M  V30 7022 C 699.306 0.116588 1.8844 0
M  V30 7023 O 698.663 -0.875285 1.60141 0
M  V30 7024 C 698.714 2.45031 2.65785 0
M  V30 7025 O 698.435 3.77551 2.22232 0
M  V30 7026 C 699.936 2.60017 3.59035 0
M  V30 7027 H 697.156 0.507544 0.438907 0
M  V30 7028 H 699.7 1.88752 0.786942 0
M  V30 7029 H 697.855 2.08985 3.26196 0
M  V30 7030 H 698.269 4.29001 3.01759 0
M  V30 7031 H 699.743 3.30887 4.41835 0
M  V30 7032 H 700.22 1.64861 4.07084 0
M  V30 7033 H 700.826 2.96918 3.045 0
M  V30 7034 N 699.141 -0.881989 1.30609 0
M  V30 7035 C 700.418 -1.61563 1.10258 0
M  V30 7036 C 700.798 -2.08228 -0.347053 0
M  V30 7037 O 700.146 -1.85151 -1.33908 0
M  V30 7038 C 700.356 -2.78287 2.10612 0
M  V30 7039 C 701.704 -3.48545 2.4249 0
M  V30 7040 O 702.728 -2.88479 2.08945 0
M  V30 7041 O 701.587 -4.56873 2.99883 0
M  V30 7042 H 698.681 -0.710238 0.423663 0
M  V30 7043 H 701.227 -0.928503 1.42045 0
M  V30 7044 H 699.999 -2.41131 3.08174 0
M  V30 7045 H 699.622 -3.54695 1.79659 0
M  V30 7046 N 700.619 -1.13374 -1.09472 0
M  V30 7047 C 701.582 -0.813639 -2.14272 0
M  V30 7048 C 702.582 0.176677 -1.59826 0
M  V30 7049 O 703.772 -0.0503441 -1.74127 0
M  V30 7050 C 700.904 -0.210897 -3.40247 0
M  V30 7051 H 702.097 -1.74229 -2.44099 0
M  V30 7052 H 699.65 -0.938304 -1.25002 0
M  V30 7053 H 700.385 0.726998 -3.16046 0
M  V30 7054 H 700.17 -0.924048 -3.81056 0
M  V30 7055 H 701.66 -0.00377603 -4.176 0
M  V30 7056 N 702.098 1.27442 -0.927168 0
M  V30 7057 C 703.326 1.98498 -0.583622 0
M  V30 7058 C 703.741 1.69171 0.838241 0
M  V30 7059 O 703.098 0.951969 1.55704 0
M  V30 7060 C 703.149 3.52552 -0.799341 0
M  V30 7061 O 702.87 3.80851 -2.16527 0
M  V30 7062 C 704.371 4.4086 -0.464436 0
M  V30 7063 H 701.591 0.633487 -0.221213 0
M  V30 7064 H 704.135 1.62308 -1.24404 0
M  V30 7065 H 702.29 3.86955 -0.185728 0
M  V30 7066 H 702.704 4.75441 -2.21487 0
M  V30 7067 H 704.178 5.47967 -0.666075 0
M  V30 7068 H 704.655 4.35082 0.599995 0
M  V30 7069 H 705.261 4.11977 -1.05617 0
M  V30 7070 N 703.576 0.692616 1.41565 0
M  V30 7071 C 704.987 0.297478 1.84315 0
M  V30 7072 C 705.338 -1.16379 1.57957 0
M  V30 7073 O 704.463 -1.89303 1.0485 0
M  V30 7074 C 705.058 0.533136 3.34579 0
M  V30 7075 C 703.617 0.191944 3.7591 0
M  V30 7076 C 702.764 0.816873 2.64995 0
M  V30 7077 H 705.715 0.893488 1.31158 0
M  V30 7078 H 705.736 -0.209105 3.79925 0
M  V30 7079 H 705.248 1.59674 3.53731 0
M  V30 7080 H 703.349 -0.867512 3.6236 0
M  V30 7081 H 703.462 0.644902 4.7474 0
M  V30 7082 H 701.826 0.246715 2.53502 0
M  V30 7083 H 702.609 1.88429 2.86966 0
M  V30 7084 N 705.054 -1.51416 0.437162 0
M  V30 7085 C 706.282 -2.06503 -0.128045 0
M  V30 7086 C 706.697 -1.30461 -1.36475 0
M  V30 7087 O 706.054 -0.364127 -1.78831 0
M  V30 7088 C 706.105 -3.58683 -0.450437 0
M  V30 7089 O 705.826 -4.31853 0.737186 0
M  V30 7090 C 707.327 -4.30284 -1.06633 0
M  V30 7091 H 704.547 -0.670952 -0.00800269 0
M  V30 7092 H 707.091 -1.94996 0.616193 0
M  V30 7093 H 705.246 -3.70106 -1.14457 0
M  V30 7094 H 705.66 -5.22467 0.461347 0
M  V30 7095 H 707.134 -5.37848 -1.24191 0
M  V30 7096 H 707.611 -3.88564 -2.0473 0
M  V30 7097 H 708.217 -4.23304 -0.411585 0
M  V30 7098 N 706.532 -0.168513 -1.56696 0
M  V30 7099 C 707.462 0.758563 -2.20835 0
M  V30 7100 C 708.443 1.24121 -1.1631 0
M  V30 7101 O 709.628 1.29487 -1.4473 0
M  V30 7102 C 706.758 1.9892 -2.8469 0
M  V30 7103 C 705.712 1.64252 -3.95228 0
M  V30 7104 C 705.038 2.94757 -4.46119 0
M  V30 7105 C 706.338 0.872675 -5.14958 0
M  V30 7106 H 708.032 0.223953 -2.98561 0
M  V30 7107 H 705.578 0.106277 -1.43607 0
M  V30 7108 H 707.531 2.64275 -3.28233 0
M  V30 7109 H 706.255 2.5479 -2.04327 0
M  V30 7110 H 704.914 1.01266 -3.52336 0
M  V30 7111 H 704.562 3.48662 -3.62552 0
M  V30 7112 H 704.262 2.72316 -5.2069 0
M  V30 7113 H 705.786 3.61147 -4.92347 0
M  V30 7114 H 707.2 1.42875 -5.55211 0
M  V30 7115 H 705.597 0.747402 -5.95428 0
M  V30 7116 H 706.667 -0.131535 -4.84722 0
M  V30 7117 N 708.01 1.57248 0.105221 0
M  V30 7118 C 709.238 1.89768 0.82437 0
M  V30 7119 C 709.653 0.761192 1.72775 0
M  V30 7120 O 709.01 -0.267342 1.80531 0
M  V30 7121 C 709.061 3.2184 1.64625 0
M  V30 7122 O 708.782 4.31115 0.779217 0
M  V30 7123 C 710.283 3.68155 2.46935 0
M  V30 7124 H 707.503 0.628031 0.236259 0
M  V30 7125 H 710.047 2.04321 0.085485 0
M  V30 7126 H 708.202 3.08915 2.33775 0
M  V30 7127 H 708.616 5.06897 1.34745 0
M  V30 7128 H 710.09 4.6329 3.00111 0
M  V30 7129 H 710.567 2.95492 3.24932 0
M  V30 7130 H 711.173 3.83914 1.83002 0
M  V30 7131 N 709.488 -0.375779 1.53054 0
M  V30 7132 C 710.436 -1.48015 1.79428 0
M  V30 7133 C 711.43 -1.55893 0.662854 0
M  V30 7134 O 712.636 -1.58901 0.845599 0
M  V30 7135 H 709.011 -0.492887 0.56795 0
M  V30 7136 H 710.982 -1.22971 2.71884 0
M  V30 7137 C 709.731 -2.84984 1.99197 0
M  V30 7138 H 709.054 -2.79677 2.85693 0
M  V30 7139 H 710.494 -3.61462 2.21633 0
M  V30 7140 C 708.953 -3.28025 0.768183 0
M  V30 7141 O 709.483 -4.01671 -0.0480482 0
M  V30 7142 N 707.689 -2.84454 0.594521 0
M  V30 7143 H 707.236 -2.24688 1.25988 0
M  V30 7144 H 707.194 -3.13609 -0.222916 0
M  V30 7145 N 710.966 -1.44241 -0.634997 0
M  V30 7146 C 712.191 -1.50516 -1.42687 0
M  V30 7147 C 712.616 -0.129864 -1.87651 0
M  V30 7148 O 711.974 0.880164 -1.58502 0
M  V30 7149 C 712.022 -2.4714 -2.62591 0
M  V30 7150 O 711.126 -1.97025 -3.62291 0
M  V30 7151 H 710.467 -0.50841 -0.427101 0
M  V30 7152 H 712.997 -1.89337 -0.775408 0
M  V30 7153 H 713.007 -2.65048 -3.10183 0
M  V30 7154 H 711.682 -3.47039 -2.29209 0
M  V30 7155 H 710.259 -1.88866 -3.21534 0
M  V30 7156 N 712.444 0.87505 -1.31075 0
M  V30 7157 C 713.669 1.66583 -1.23551 0
M  V30 7158 C 714.094 1.87067 0.19686 0
M  V30 7159 O 713.452 1.40877 1.1412 0
M  V30 7160 C 713.5 3.01401 -1.97965 0
M  V30 7161 O 712.604 3.90923 -1.31351 0
M  V30 7162 H 711.945 0.508645 -0.426821 0
M  V30 7163 H 714.475 1.09139 -1.7306 0
M  V30 7164 H 714.485 3.51374 -2.07366 0
M  V30 7165 H 713.16 2.85812 -3.02133 0
M  V30 7166 H 711.737 3.49369 -1.30368 0
M  V30 7167 O 713.961 1.25897 1.01154 0
M  V30 7168 H 714.652 1.04518 1.63082 0
M  V30 END ATOM
M  V30 BEGIN BOND
M  V30 END BOND
M  V30 END CTAB
M  END
$$$$
