drugbank_target|P49862 Kallikrein-7 (DB08038)
 OpenBabel12092120473D

  0  0  0     0  0            999 V3000
M  V30 BEGIN CTAB
M  V30 COUNTS 3859 3898 0 0 0
M  V30 BEGIN ATOM
M  V30 1 H -0.908 1.98254 -0.117106 0
M  V30 2 N 0 1.576 0 0
M  V30 3 C 0.933 2.03868 1.02534 0
M  V30 4 C 1.911 0.928543 1.3348 0
M  V30 5 O 3.095 1.19667 1.45644 0
M  V30 6 C 0.222 2.43627 2.35294 0
M  V30 7 C -0.732 3.65373 2.2001 0
M  V30 8 S 0.101 5.13292 1.52614 0
M  V30 9 C 1.257 5.56322 2.86805 0
M  V30 10 H 1.49 2.90518 0.631377 0
M  V30 11 H -0.977 1.52953 0.210867 0
M  V30 12 H 0.981 2.67203 3.11629 0
M  V30 13 H -0.358 1.57376 2.7183 0
M  V30 14 H -1.165 3.90944 3.18086 0
M  V30 15 H -1.563 3.418 1.51819 0
M  V30 16 H 0.729 5.58782 3.83104 0
M  V30 17 H 1.672 6.56266 2.65933 0
M  V30 18 H 2.08 4.83886 2.90714 0
M  V30 19 N 1.4781 -0.272755 1.55222 0
M  V30 20 C 2.4411 -1.32041 1.87344 0
M  V30 21 C 3.4411 -1.42342 0.74803 0
M  V30 22 O 4.6311 -1.41488 1.0162 0
M  V30 23 C 1.7631 -2.70173 2.07893 0
M  V30 24 H 2.9561 -1.04789 2.80997 0
M  V30 25 H 0.5091 -0.51083 1.47717 0
M  V30 26 H 1.2441 -3.02605 1.16622 0
M  V30 27 H 1.0291 -2.64082 2.89833 0
M  V30 28 H 2.5191 -3.45869 2.34017 0
M  V30 29 N 2.9562 -1.48159 -0.537278 0
M  V30 30 C 4.3722 -1.34118 -0.865129 0
M  V30 31 C 4.5722 -0.346678 -1.98495 0
M  V30 32 O 3.6282 0.234715 -2.51407 0
M  V30 33 C 4.9412 -2.73963 -1.23954 0
M  V30 34 C 6.4892 -2.82397 -1.34984 0
M  V30 35 C 6.9642 -4.22928 -1.75772 0
M  V30 36 N 8.4552 -4.25566 -1.82887 0
M  V30 37 C 9.1902 -5.31235 -2.15817 0
M  V30 38 N 8.6862 -6.47189 -2.47222 0
M  V30 39 N 10.4792 -5.18624 -2.16761 0
M  V30 40 H 2.6302 -2.1144 0.201715 0
M  V30 41 H 4.8932 -0.947598 0.0275949 0
M  V30 42 H 4.5992 -3.48264 -0.490381 0
M  V30 43 H 4.4732 -3.0702 -2.19132 0
M  V30 44 H 6.8602 -2.08356 -2.08978 0
M  V30 45 H 6.9412 -2.5297 -0.379448 0
M  V30 46 H 6.5852 -4.97482 -1.02341 0
M  V30 47 H 6.5152 -4.49794 -2.73848 0
M  V30 48 H 9.0062 -3.41924 -1.60924 0
M  V30 49 H 9.3192 -7.23564 -2.71433 0
M  V30 50 H 7.6642 -6.50476 -2.44757 0
M  V30 51 H 10.8552 -4.27056 -1.91679 0
M  V30 52 H 11.0282 -6.01078 -2.42093 0
M  V30 53 N 4.4343 0.785586 -1.36625 0
M  V30 54 C 5.6593 1.57963 -1.34397 0
M  V30 55 C 6.0843 1.87964 0.071526 0
M  V30 56 O 5.4423 1.48182 1.0446 0
M  V30 57 C 5.4903 2.87511 -2.17646 0
M  V30 58 O 4.5943 3.81281 -1.57158 0
M  V30 59 H 3.9353 0.479014 -0.459828 0
M  V30 60 H 6.4653 0.973411 -1.79961 0
M  V30 61 H 6.4753 3.36745 -2.30362 0
M  V30 62 H 5.1503 2.65002 -3.20541 0
M  V30 63 H 3.7273 3.39885 -1.53403 0
M  V30 64 N 5.9124 1.20967 1.01018 0
M  V30 65 C 6.8424 0.988272 2.11555 0
M  V30 66 C 7.8234 -0.0849778 1.69888 0
M  V30 67 O 9.0084 0.0738202 1.9406 0
M  V30 68 C 6.1384 0.546528 3.42973 0
M  V30 69 C 5.0924 1.56375 3.9841 0
M  V30 70 C 4.4184 0.97842 5.25672 0
M  V30 71 C 5.7184 2.94922 4.31066 0
M  V30 72 H 7.4124 1.91276 2.30334 0
M  V30 73 H 4.9584 0.921073 1.1069 0
M  V30 74 H 6.9114 0.378839 4.19694 0
M  V30 75 H 5.6354 -0.413598 3.23971 0
M  V30 76 H 4.2944 1.71891 3.23804 0
M  V30 77 H 3.9424 0.0101688 5.02999 0
M  V30 78 H 3.6424 1.65784 5.63728 0
M  V30 79 H 5.1664 0.821939 6.05043 0
M  V30 80 H 6.5804 2.8288 4.9865 0
M  V30 81 H 4.9774 3.5983 4.80253 0
M  V30 82 H 6.0474 3.4616 3.39561 0
M  V30 83 N 7.3905 -1.2043 1.01659 0
M  V30 84 C 8.3205 -2.25466 0.607226 0
M  V30 85 C 9.3015 -1.65853 -0.377716 0
M  V30 86 O 10.4865 -1.92409 -0.263149 0
M  V30 87 C 7.6165 -3.47256 -0.0552949 0
M  V30 88 C 6.5705 -4.19462 0.850632 0
M  V30 89 C 5.8965 -5.34673 0.0538859 0
M  V30 90 C 7.1965 -4.75603 2.15868 0
M  V30 91 H 8.8905 -2.59962 1.48526 0
M  V30 92 H 6.4365 -1.2496 0.715605 0
M  V30 93 H 8.3895 -4.19917 -0.353233 0
M  V30 94 H 7.1135 -3.11924 -0.968045 0
M  V30 95 H 5.7725 -3.48667 1.13257 0
M  V30 96 H 5.4205 -4.95585 -0.860514 0
M  V30 97 H 5.1205 -5.83913 0.657192 0
M  V30 98 H 6.6445 -6.10138 -0.237598 0
M  V30 99 H 8.0585 -5.40083 1.92311 0
M  V30 100 H 6.4555 -5.3528 2.71284 0
M  V30 101 H 7.5255 -3.94346 2.82169 0
M  V30 102 N 8.8686 -0.792821 -1.36206 0
M  V30 103 C 9.7986 -0.207853 -2.32573 0
M  V30 104 C 10.7796 0.659055 -1.56813 0
M  V30 105 O 11.9646 0.592176 -1.84951 0
M  V30 106 C 9.0946 0.655449 -3.41059 0
M  V30 107 C 8.0486 -0.111842 -4.27854 0
M  V30 108 C 7.3746 0.872274 -5.27537 0
M  V30 109 C 8.6746 -1.30299 -5.05786 0
M  V30 110 H 10.3686 -1.01294 -2.81744 0
M  V30 111 H 7.9146 -0.48854 -1.3546 0
M  V30 112 H 9.8676 1.07464 -4.07467 0
M  V30 113 H 8.5916 1.49328 -2.90463 0
M  V30 114 H 7.2506 -0.512053 -3.63006 0
M  V30 115 H 6.8986 1.70523 -4.73214 0
M  V30 116 H 6.5986 0.363291 -5.86476 0
M  V30 117 H 8.1226 1.28996 -5.96818 0
M  V30 118 H 9.5366 -0.959379 -5.65216 0
M  V30 119 H 7.9336 -1.7455 -5.74154 0
M  V30 120 H 9.0036 -2.09663 -4.37229 0
M  V30 121 N 10.3467 1.47872 -0.545128 0
M  V30 122 C 11.7577 1.86384 -0.108581 0
M  V30 123 C 12.1087 1.45309 1.31832 0
M  V30 124 O 11.2337 0.850641 1.9898 0
M  V30 125 C 11.8287 3.38265 -0.190274 0
M  V30 126 C 10.3877 3.75914 0.191164 0
M  V30 127 C 9.5347 2.71926 -0.543273 0
M  V30 128 H 12.4857 1.39561 -0.755537 0
M  V30 129 H 12.5067 3.75831 0.594217 0
M  V30 130 H 12.0187 3.6813 -1.2289 0
M  V30 131 H 10.1197 3.51665 1.23136 0
M  V30 132 H 10.2327 4.78836 -0.158987 0
M  V30 133 H 8.5967 2.54697 0.0122495 0
M  V30 134 H 9.3797 3.04634 -1.58282 0
M  V30 135 N 11.8248 0.280983 1.55075 0
M  V30 136 C 12.7548 -0.597469 2.25727 0
M  V30 137 C 13.7358 -1.15417 1.24952 0
M  V30 138 O 14.9208 -1.18722 1.53684 0
M  V30 139 C 12.0508 -1.7789 2.98283 0
M  V30 140 C 11.0048 -1.35347 4.06036 0
M  V30 141 C 10.3308 -2.61846 4.66198 0
M  V30 142 C 11.6308 -0.499354 5.19907 0
M  V30 143 H 13.3248 -0.00824265 2.99399 0
M  V30 144 H 10.8708 -0.0025244 1.44 0
M  V30 145 H 12.8238 -2.39937 3.46422 0
M  V30 146 H 11.5478 -2.39405 2.22155 0
M  V30 147 H 10.2068 -0.756156 3.58717 0
M  V30 148 H 9.8548 -3.21632 3.86732 0
M  V30 149 H 9.5548 -2.3409 5.38958 0
M  V30 150 H 11.0788 -3.24732 5.1709 0
M  V30 151 H 12.4928 -1.02498 5.64063 0
M  V30 152 H 10.8898 -0.316424 5.99265 0
M  V30 153 H 11.9598 0.480459 4.82514 0
M  V30 154 N 13.3029 -1.57598 0.00835791 0
M  V30 155 C 14.2349 -2.05811 -1.00868 0
M  V30 156 C 15.2479 -0.977579 -1.30182 0
M  V30 157 O 16.4369 -1.25421 -1.27011 0
M  V30 158 C 13.5369 -2.45016 -2.34137 0
M  V30 159 C 12.7099 -3.75903 -2.23643 0
M  V30 160 C 11.7689 -4.01884 -3.3967 0
M  V30 161 O 10.7949 -4.72433 -3.17483 0
M  V30 162 N 11.9969 -3.50432 -4.62793 0
M  V30 163 H 14.7619 -2.93684 -0.597458 0
M  V30 164 H 12.3229 -1.60909 -0.178852 0
M  V30 165 H 14.3149 -2.59506 -3.10546 0
M  V30 166 H 12.8849 -1.62618 -2.66972 0
M  V30 167 H 12.1049 -3.7141 -1.32091 0
M  V30 168 H 13.3929 -4.61695 -2.13812 0
M  V30 169 H 12.7909 -2.93317 -4.83716 0
M  V30 170 H 11.3479 -3.70236 -5.3644 0
M  V30 171 N 14.781 0.264519 -1.55364 0
M  V30 172 C 16.03 0.992812 -1.75574 0
M  V30 173 C 16.343 1.87142 -0.568979 0
M  V30 174 O 17.549 2.63513 -0.653682 0
M  V30 175 C 16.005 1.81519 -3.10771 0
M  V30 176 C 15.613 0.984839 -4.37041 0
M  V30 177 C 17.357 2.53727 -3.40327 0
M  V30 178 C 15.264 1.80209 -5.63275 0
M  V30 179 H 14.194 0.374412 -0.65447 0
M  V30 180 H 16.845 0.248138 -1.81815 0
M  V30 181 H 15.227 2.60115 -2.98591 0
M  V30 182 H 16.401 0.242455 -4.60162 0
M  V30 183 H 14.716 0.37691 -4.14691 0
M  V30 184 H 17.313 3.15292 -4.3185 0
M  V30 185 H 17.656 3.24447 -2.60845 0
M  V30 186 H 18.189 1.82156 -3.53644 0
M  V30 187 H 14.928 1.13896 -6.45529 0
M  V30 188 H 14.448 2.52022 -5.44284 0
M  V30 189 H 16.127 2.37364 -6.01887 0
M  V30 190 N 16.2591 1.48442 0.529413 0
M  V30 191 C 17.1891 1.65902 1.64313 0
M  V30 192 C 18.1701 0.507897 1.6234 0
M  V30 193 O 19.3551 0.740503 1.79528 0
M  V30 194 C 16.4851 1.69911 3.02898 0
M  V30 195 C 15.4391 2.8453 3.19729 0
M  V30 196 C 14.7651 2.73629 4.59381 0
M  V30 197 C 16.0651 4.25821 3.02447 0
M  V30 198 H 17.7591 2.5914 1.49955 0
M  V30 199 H 15.3051 1.24709 0.719982 0
M  V30 200 H 17.2581 1.80715 3.80684 0
M  V30 201 H 15.9821 0.732524 3.18279 0
M  V30 202 H 14.6411 2.73283 2.44361 0
M  V30 203 H 14.2891 1.74938 4.71599 0
M  V30 204 H 13.9891 3.50541 4.71588 0
M  V30 205 H 15.5131 2.86401 5.39265 0
M  V30 206 H 16.9271 4.37898 3.70024 0
M  V30 207 H 15.3241 5.03735 3.26146 0
M  V30 208 H 16.3941 4.42244 1.98867 0
M  V30 209 N 17.7372 -0.778329 1.37039 0
M  V30 210 C 18.6672 -1.90546 1.34962 0
M  V30 211 C 19.6482 -1.68681 0.219274 0
M  V30 212 O 20.8332 -1.89634 0.418624 0
M  V30 213 C 17.9632 -3.27734 1.14925 0
M  V30 214 C 16.9172 -3.64147 2.24902 0
M  V30 215 C 16.2432 -4.99806 1.89996 0
M  V30 216 C 17.5432 -3.71579 3.67051 0
M  V30 217 H 19.2372 -1.92541 2.29277 0
M  V30 218 H 16.7832 -0.924948 1.10366 0
M  V30 219 H 18.7362 -4.06215 1.12104 0
M  V30 220 H 17.4602 -3.26154 0.170631 0
M  V30 221 H 16.1192 -2.8797 2.26868 0
M  V30 222 H 15.7672 -4.94759 0.906796 0
M  V30 223 H 15.4672 -5.25139 2.63634 0
M  V30 224 H 16.9912 -5.80694 1.88749 0
M  V30 225 H 18.4052 -4.40227 3.67251 0
M  V30 226 H 16.8022 -4.08405 4.39688 0
M  V30 227 H 17.8722 -2.72404 4.01154 0
M  V30 228 N 19.2153 -1.21501 -1.00376 0
M  V30 229 C 20.1453 -0.999478 -2.11028 0
M  V30 230 C 21.1263 0.0759671 -1.6993 0
M  V30 231 O 22.3113 -0.0841106 -1.94018 0
M  V30 232 C 19.4413 -0.564709 -3.42678 0
M  V30 233 C 18.3953 -1.58486 -3.97576 0
M  V30 234 C 17.7213 -1.00628 -5.25146 0
M  V30 235 C 19.0213 -2.97204 -4.29496 0
M  V30 236 H 20.7153 -1.92495 -2.29317 0
M  V30 237 H 18.2613 -0.92693 -1.102 0
M  V30 238 H 20.2143 -0.401091 -4.19487 0
M  V30 239 H 18.9383 0.396411 -3.24185 0
M  V30 240 H 17.5973 -1.73606 -3.22888 0
M  V30 241 H 17.2453 -0.0368439 -5.02987 0
M  V30 242 H 16.9453 -1.68771 -5.62841 0
M  V30 243 H 18.4693 -0.854015 -6.04598 0
M  V30 244 H 19.8833 -2.8552 -4.97143 0
M  V30 245 H 18.2803 -3.62372 -4.78338 0
M  V30 246 H 19.3503 -3.47956 -3.3772 0
M  V30 247 N 20.6934 1.19889 -1.02296 0
M  V30 248 C 21.9184 1.9393 -0.735237 0
M  V30 249 C 22.3434 1.74639 0.698782 0
M  V30 250 O 21.7014 1.04481 1.48167 0
M  V30 251 C 21.7494 3.43916 -1.08417 0
M  V30 252 O 20.8534 4.11917 -0.199446 0
M  V30 253 H 20.1944 0.605645 -0.272196 0
M  V30 254 H 22.7244 1.52137 -1.36804 0
M  V30 255 H 22.7344 3.9456 -1.03856 0
M  V30 256 H 21.4094 3.5728 -2.12894 0
M  V30 257 H 19.9864 3.71666 -0.303136 0
M  V30 258 N 22.1715 0.800033 1.35784 0
M  V30 259 C 23.1015 0.220184 2.3246 0
M  V30 260 C 24.0825 -0.65073 1.57161 0
M  V30 261 O 25.2675 -0.582359 1.85263 0
M  V30 262 C 22.3975 -0.637353 3.41402 0
M  V30 263 C 21.3515 0.134531 4.27789 0
M  V30 264 C 20.6775 -0.844285 5.27992 0
M  V30 265 C 21.9775 1.32979 5.05088 0
M  V30 266 H 23.6715 1.02787 2.81203 0
M  V30 267 H 21.2175 0.495717 1.35199 0
M  V30 268 H 23.1705 -1.05302 4.08031 0
M  V30 269 H 21.8945 -1.47785 2.91251 0
M  V30 270 H 20.5535 0.531296 3.6273 0
M  V30 271 H 20.2015 -1.68011 4.74111 0
M  V30 272 H 19.9015 -0.332184 5.8666 0
M  V30 273 H 21.4255 -1.2583 5.97494 0
M  V30 274 H 22.8395 0.98934 5.64699 0
M  V30 275 H 21.2365 1.77593 5.7322 0
M  V30 276 H 22.3065 2.11978 4.36111 0
M  V30 277 N 23.6496 -1.47581 0.552962 0
M  V30 278 C 24.6126 -2.28439 -0.186605 0
M  V30 279 C 25.6126 -1.36706 -0.84665 0
M  V30 280 O 26.8026 -1.59378 -0.703164 0
M  V30 281 C 23.9346 -3.16264 -1.2724 0
M  V30 282 H 25.1276 -2.95294 0.523609 0
M  V30 283 H 22.6806 -1.532 0.309745 0
M  V30 284 H 23.4156 -2.54091 -2.01514 0
M  V30 285 H 23.2006 -3.83769 -0.803968 0
M  V30 286 H 24.6906 -3.77198 -1.79196 0
M  V30 287 N 25.1277 -0.289203 -1.54924 0
M  V30 288 C 26.0577 0.58549 -2.2604 0
M  V30 289 C 27.0387 1.14753 -1.25562 0
M  V30 290 O 28.2237 1.17906 -1.54311 0
M  V30 291 C 25.3537 1.76305 -2.99222 0
M  V30 292 C 24.3077 1.33191 -4.06748 0
M  V30 293 C 23.6337 2.5937 -4.6758 0
M  V30 294 C 24.9337 0.471775 -5.20165 0
M  V30 295 H 26.6277 -0.00763532 -2.99399 0
M  V30 296 H 24.1737 -0.00511229 -1.43999 0
M  V30 297 H 26.1267 2.38097 -3.47689 0
M  V30 298 H 24.8507 2.38223 -2.23422 0
M  V30 299 H 23.5097 0.737121 -3.59113 0
M  V30 300 H 23.1577 3.19576 -3.88433 0
M  V30 301 H 22.8577 2.31228 -5.40192 0
M  V30 302 H 24.3817 3.21985 -5.18804 0
M  V30 303 H 25.7957 0.995056 -5.64599 0
M  V30 304 H 24.1927 0.284639 -5.99425 0
M  V30 305 H 25.2627 -0.506041 -4.82252 0
M  V30 306 N 26.6058 1.57591 -0.0167156 0
M  V30 307 C 27.5158 2.1291 0.98521 0
M  V30 308 C 28.5318 1.07834 1.36557 0
M  V30 309 O 29.7078 1.39826 1.44951 0
M  V30 310 C 26.7728 2.63512 2.25305 0
M  V30 311 C 25.8338 3.83256 1.93426 0
M  V30 312 C 25.0668 4.31435 3.14165 0
M  V30 313 O 25.2898 3.78851 4.26413 0
M  V30 314 O 24.2238 5.23416 2.97186 0
M  V30 315 H 28.0498 2.98772 0.544888 0
M  V30 316 H 25.6348 1.48012 0.203141 0
M  V30 317 H 27.5168 2.96183 2.99756 0
M  V30 318 H 26.1918 1.8074 2.68542 0
M  V30 319 H 25.0988 3.55531 1.16398 0
M  V30 320 H 26.4318 4.67153 1.55013 0
M  V30 321 N 28.0839 -0.256276 1.55502 0
M  V30 322 C 29.3119 -1.00342 1.8094 0
M  V30 323 C 29.7269 -1.79307 0.59114 0
M  V30 324 O 29.0839 -1.77114 -0.440081 0
M  V30 325 C 29.1349 -1.94875 3.04476 0
M  V30 326 O 28.8559 -1.19107 4.21598 0
M  V30 327 C 30.3569 -2.81266 3.42644 0
M  V30 328 H 27.5769 -0.295685 0.602338 0
M  V30 329 H 30.1209 -0.281998 2.02546 0
M  V30 330 H 28.2759 -2.62457 2.84947 0
M  V30 331 H 28.6899 -1.82969 4.91551 0
M  V30 332 H 30.1639 -3.43362 4.32211 0
M  V30 333 H 30.6409 -3.51897 2.62802 0
M  V30 334 H 31.2469 -2.1915 3.64491 0
M  V30 335 N 29.562 -1.4872 -0.521534 0
M  V30 336 C 30.525 -1.63379 -1.60748 0
M  V30 337 C 31.525 -0.50661 -1.52611 0
M  V30 338 O 32.715 -0.772601 -1.5613 0
M  V30 339 C 29.847 -1.61192 -3.00383 0
M  V30 340 H 31.04 -2.60217 -1.49087 0
M  V30 341 H 28.593 -1.37444 -0.744235 0
M  V30 342 H 29.328 -0.65863 -3.17541 0
M  V30 343 H 29.113 -2.43032 -3.07698 0
M  V30 344 H 30.603 -1.7466 -3.7932 0
M  V30 345 N 31.0401 0.771051 -1.3745 0
M  V30 346 C 32.2881 1.52661 -1.32435 0
M  V30 347 C 32.6091 1.9479 0.0905024 0
M  V30 348 O 31.8791 1.66348 1.03466 0
M  V30 349 H 30.4591 0.566218 -0.487244 0
M  V30 350 H 33.1211 0.917636 -1.71946 0
M  V30 351 H 32.2171 2.42568 -1.96385 0
M  V30 352 N 32.5182 1.22032 0.997298 0
M  V30 353 C 33.4282 1.00271 2.12092 0
M  V30 354 C 34.4442 -0.047621 1.73935 0
M  V30 355 O 35.6202 0.144136 2.00884 0
M  V30 356 C 32.6852 0.578449 3.4184 0
M  V30 357 C 31.7462 1.70189 3.94125 0
M  V30 358 C 30.9792 1.29778 5.17681 0
M  V30 359 O 31.2022 0.174676 5.70132 0
M  V30 360 O 30.1362 2.11261 5.63607 0
M  V30 361 H 33.9622 1.94398 2.3333 0
M  V30 362 H 31.5472 1.00587 1.10465 0
M  V30 363 H 33.4292 0.351998 4.19927 0
M  V30 364 H 32.1042 -0.334019 3.21972 0
M  V30 365 H 31.0112 1.98282 3.1723 0
M  V30 366 H 32.3442 2.59206 4.18417 0
M  V30 367 N 33.9963 -1.19345 1.0293 0
M  V30 368 C 34.9063 -2.26245 0.620515 0
M  V30 369 C 35.9223 -1.70486 -0.347928 0
M  V30 370 O 37.0983 -2.00347 -0.205704 0
M  V30 371 C 34.1633 -3.46693 -0.0218957 0
M  V30 372 C 33.2243 -4.17632 0.994102 0
M  V30 373 C 32.4573 -5.32329 0.382253 0
M  V30 374 O 32.6803 -5.64552 -0.814676 0
M  V30 375 O 31.6143 -5.91664 1.10531 0
M  V30 376 H 35.4403 -2.63453 1.51083 0
M  V30 377 H 33.0253 -1.26207 0.799513 0
M  V30 378 H 34.9073 -4.19683 -0.380072 0
M  V30 379 H 33.5823 -3.11333 -0.886209 0
M  V30 380 H 32.4893 -3.4676 1.40387 0
M  V30 381 H 33.8223 -4.56964 1.8288 0
M  V30 382 N 35.4744 -0.807222 -1.35358 0
M  V30 383 C 36.4374 -0.223665 -2.28106 0
M  V30 384 C 37.4374 0.589354 -1.4961 0
M  V30 385 O 38.6274 0.407745 -1.69361 0
M  V30 386 C 35.7594 0.688149 -3.33882 0
M  V30 387 H 36.9524 -1.04169 -2.81227 0
M  V30 388 H 34.5054 -0.577921 -1.45223 0
M  V30 389 H 35.2404 1.52984 -2.85948 0
M  V30 390 H 35.0254 0.10687 -3.91954 0
M  V30 391 H 36.5154 1.09075 -4.03104 0
M  V30 392 N 36.9525 1.47285 -0.560781 0
M  V30 393 C 37.8845 2.28118 0.222438 0
M  V30 394 C 38.8975 1.37219 0.876056 0
M  V30 395 O 40.0865 1.62011 0.749307 0
M  V30 396 C 37.1865 3.1159 1.33285 0
M  V30 397 C 36.3595 4.30473 0.77534 0
M  V30 398 C 35.4185 4.95513 1.77069 0
M  V30 399 O 34.4445 5.53792 1.31539 0
M  V30 400 N 35.6465 4.90531 3.10418 0
M  V30 401 H 38.4115 2.95976 -0.470958 0
M  V30 402 H 35.9725 1.56955 -0.39709 0
M  V30 403 H 37.9645 3.51967 1.99752 0
M  V30 404 H 36.5345 2.45951 1.92943 0
M  V30 405 H 35.7545 3.94144 -0.0662113 0
M  V30 406 H 37.0425 5.07362 0.382272 0
M  V30 407 H 36.4405 4.44389 3.5005 0
M  V30 408 H 34.9975 5.34917 3.72434 0
M  V30 409 N 38.4306 0.297415 1.54768 0
M  V30 410 C 39.6786 -0.312295 1.99673 0
M  V30 411 C 39.9996 -1.54686 1.18732 0
M  V30 412 O 39.2696 -1.93854 0.282382 0
M  V30 413 H 37.8496 -0.118381 0.73756 0
M  V30 414 H 40.5116 0.407915 1.90583 0
M  V30 415 H 39.6076 -0.586813 3.06534 0
M  V30 416 N 39.9087 -1.5758 0.0250728 0
M  V30 417 C 41.1857 -1.82917 -0.692873 0
M  V30 418 C 41.5657 -0.908137 -1.90568 0
M  V30 419 O 40.9137 0.0372298 -2.2847 0
M  V30 420 C 41.1237 -3.32034 -1.07492 0
M  V30 421 C 42.4717 -3.98406 -1.46826 0
M  V30 422 O 43.4957 -3.36505 -1.16801 0
M  V30 423 O 42.3547 -5.07497 -2.02754 0
M  V30 424 H 39.4487 -0.754079 -0.33955 0
M  V30 425 H 41.9947 -1.69619 0.0524456 0
M  V30 426 H 40.7667 -3.90728 -0.211552 0
M  V30 427 H 40.3897 -3.50424 -1.87854 0
M  V30 428 N 41.3868 0.248026 -1.55636 0
M  V30 429 C 42.3338 1.30707 -1.90222 0
M  V30 430 C 43.3038 1.47881 -0.756332 0
M  V30 431 O 44.4888 1.61883 -1.00988 0
M  V30 432 C 41.6288 2.65769 -2.20138 0
M  V30 433 C 40.7418 2.56612 -3.47526 0
M  V30 434 C 39.8768 3.8402 -3.67017 0
M  V30 435 C 38.9158 3.69476 -4.8801 0
M  V30 436 N 38.0528 4.88774 -5.04029 0
M  V30 437 H 42.8928 1.00512 -2.80538 0
M  V30 438 H 40.4298 0.485055 -1.38873 0
M  V30 439 H 42.3878 3.44386 -2.35487 0
M  V30 440 H 41.0178 2.94115 -1.33027 0
M  V30 441 H 40.0698 1.69571 -3.40514 0
M  V30 442 H 41.3818 2.41774 -4.36287 0
M  V30 443 H 40.5358 4.7108 -3.8232 0
M  V30 444 H 39.2748 4.01754 -2.76487 0
M  V30 445 H 38.2798 2.80799 -4.72686 0
M  V30 446 H 39.5048 3.53238 -5.8 0
M  V30 447 H 37.4508 5.0687 -4.16435 0
M  V30 448 H 37.3678 4.76562 -5.86877 0
M  V30 449 H 38.6358 5.77335 -5.23741 0
M  V30 450 N 42.8649 1.48995 0.513639 0
M  V30 451 C 44.1139 1.57093 1.2651 0
M  V30 452 C 44.4269 0.257091 1.93903 0
M  V30 453 O 45.6329 0.216478 2.70636 0
M  V30 454 C 44.0889 2.77118 2.29638 0
M  V30 455 C 43.6969 4.15209 1.68241 0
M  V30 456 C 45.4409 2.94538 3.05692 0
M  V30 457 C 43.3479 5.26474 2.69406 0
M  V30 458 H 42.2779 0.584876 0.475854 0
M  V30 459 H 44.9289 1.7536 0.540487 0
M  V30 460 H 43.3109 2.52319 3.05207 0
M  V30 461 H 44.4849 4.50094 0.987505 0
M  V30 462 H 42.7999 4.03042 1.04623 0
M  V30 463 H 45.3969 3.74832 3.8132 0
M  V30 464 H 45.7399 2.04614 3.62545 0
M  V30 465 H 46.2729 3.19316 2.37238 0
M  V30 466 H 43.0119 6.18417 2.17351 0
M  V30 467 H 42.5319 4.96058 3.37175 0
M  V30 468 H 44.2109 5.55277 3.32078 0
M  V30 469 N 44.343 -0.763751 1.37857 0
M  V30 470 C 45.592 -1.51789 1.32827 0
M  V30 471 C 45.905 -1.95426 -0.0823719 0
M  V30 472 O 47.111 -2.70298 -0.255172 0
M  V30 473 C 45.567 -2.74133 2.33193 0
M  V30 474 C 45.175 -2.37562 3.79827 0
M  V30 475 C 46.919 -3.52054 2.37188 0
M  V30 476 C 44.826 -3.56456 4.71904 0
M  V30 477 H 43.756 -0.569896 0.493695 0
M  V30 478 H 46.407 -0.835822 1.63359 0
M  V30 479 H 44.789 -3.4427 1.9569 0
M  V30 480 H 45.963 -1.75157 4.26212 0
M  V30 481 H 44.278 -1.72798 3.78853 0
M  V30 482 H 46.875 -4.40437 3.03182 0
M  V30 483 H 47.218 -3.92486 1.38782 0
M  V30 484 H 47.751 -2.88921 2.7344 0
M  V30 485 H 44.49 -3.21099 5.71468 0
M  V30 486 H 44.01 -4.17938 4.30218 0
M  V30 487 H 45.689 -4.23168 4.89426 0
M  V30 488 N 45.8211 -1.22559 -0.990812 0
M  V30 489 C 47.0981 -0.959875 -1.70428 0
M  V30 490 C 47.4781 0.524455 -2.04481 0
M  V30 491 O 46.8261 1.49302 -1.72977 0
M  V30 492 C 47.0361 -1.85955 -2.95333 0
M  V30 493 C 48.3841 -2.11687 -3.68068 0
M  V30 494 O 49.4081 -1.8342 -3.05345 0
M  V30 495 O 48.2671 -2.59572 -4.80921 0
M  V30 496 H 45.3611 -0.361154 -0.743974 0
M  V30 497 H 47.9071 -1.33554 -1.04697 0
M  V30 498 H 46.6791 -2.86346 -2.66687 0
M  V30 499 H 46.3021 -1.4856 -3.68803 0
M  V30 500 N 47.2992 1.18797 -1.03562 0
M  V30 501 C 48.5472 1.88278 -0.734569 0
M  V30 502 C 48.8682 1.8043 0.739586 0
M  V30 503 O 48.1382 1.21925 1.53333 0
M  V30 504 H 46.7182 0.696991 -0.268725 0
M  V30 505 H 49.3802 1.44192 -1.31129 0
M  V30 506 H 48.4762 2.94443 -1.03489 0
M  V30 507 N 48.7773 0.814389 1.34928 0
M  V30 508 C 49.7403 0.235759 2.27984 0
M  V30 509 C 50.7403 -0.581412 1.49921 0
M  V30 510 O 51.9303 -0.398758 1.69575 0
M  V30 511 C 49.0623 -0.670433 3.34242 0
M  V30 512 H 50.2553 1.05659 2.80671 0
M  V30 513 H 47.8083 0.585614 1.44915 0
M  V30 514 H 48.5433 -1.51466 2.86755 0
M  V30 515 H 48.3283 -0.0860822 3.92005 0
M  V30 516 H 49.8183 -1.06935 4.03676 0
M  V30 517 N 50.2554 -1.46986 0.568584 0
M  V30 518 C 51.6664 -1.86188 0.138219 0
M  V30 519 C 52.0174 -1.47388 -1.29504 0
M  V30 520 O 51.1424 -0.88219 -1.97602 0
M  V30 521 C 51.7374 -3.3792 0.244065 0
M  V30 522 C 50.2964 -3.76171 -0.131335 0
M  V30 523 C 49.4434 -2.71027 0.586465 0
M  V30 524 H 52.3944 -1.38342 0.777645 0
M  V30 525 H 52.4154 -3.76729 -0.534351 0
M  V30 526 H 51.9274 -3.66128 1.28731 0
M  V30 527 H 50.0284 -3.5358 -1.17526 0
M  V30 528 H 50.1414 -4.78523 0.235146 0
M  V30 529 H 48.5054 -2.54684 0.0282722 0
M  V30 530 H 49.2884 -3.02077 1.63109 0
M  V30 531 N 51.7335 -0.305618 -1.54608 0
M  V30 532 C 52.9735 0.303114 -2.0214 0
M  V30 533 C 53.3375 1.50737 -1.18921 0
M  V30 534 O 54.5385 2.18778 -1.56172 0
M  V30 535 C 52.8095 0.646332 -3.51507 0
M  V30 536 S 54.3685 1.23727 -4.20995 0
M  V30 537 H 51.1865 0.0927643 -0.704923 0
M  V30 538 H 53.7885 -0.434566 -1.90609 0
M  V30 539 H 52.4925 -0.238541 -4.09706 0
M  V30 540 H 52.0235 1.41468 -3.67084 0
M  V30 541 H 54.0385 2.52489 -4.27158 0
M  V30 542 N 53.2116 1.57565 -0.0334293 0
M  V30 543 C 54.1746 2.09393 0.932048 0
M  V30 544 C 55.1746 1.00986 1.25134 0
M  V30 545 O 56.3646 1.27129 1.19096 0
M  V30 546 C 53.4966 2.56338 2.2473 0
M  V30 547 H 54.6896 2.95984 0.483085 0
M  V30 548 H 52.2426 1.54819 0.21468 0
M  V30 549 H 52.9776 1.7309 2.74245 0
M  V30 550 H 52.7626 3.35542 2.02865 0
M  V30 551 H 54.2526 2.96646 2.93923 0
M  V30 552 N 54.6897 -0.239769 1.55765 0
M  V30 553 C 56.1057 -0.588624 1.48349 0
M  V30 554 C 56.3057 -1.88005 0.72502 0
M  V30 555 O 55.3617 -2.51186 0.257269 0
M  V30 556 C 56.6747 -0.68474 2.928 0
M  V30 557 C 58.2227 -0.77659 3.03213 0
M  V30 558 C 58.6977 -0.904207 4.48986 0
M  V30 559 N 60.1887 -0.968896 4.52953 0
M  V30 560 C 60.9237 -1.08703 5.63002 0
M  V30 561 N 60.4197 -1.17026 6.82845 0
M  V30 562 N 62.2127 -1.12074 5.50814 0
M  V30 563 H 54.3637 0.607911 2.03515 0
M  V30 564 H 56.6267 0.21083 0.924259 0
M  V30 565 H 56.3327 0.194284 3.51163 0
M  V30 566 H 56.2067 -1.55435 3.43686 0
M  V30 567 H 58.5937 -1.64606 2.44926 0
M  V30 568 H 58.6747 0.118315 2.55526 0
M  V30 569 H 58.3187 -0.0392633 5.07885 0
M  V30 570 H 58.2487 -1.81426 4.9436 0
M  V30 571 H 60.7397 -0.915633 3.6664 0
M  V30 572 H 61.0527 -1.25966 7.62465 0
M  V30 573 H 59.3977 -1.13971 6.85591 0
M  V30 574 H 62.5887 -1.05226 4.5612 0
M  V30 575 H 62.7617 -1.20936 6.36615 0
M  V30 576 N 56.1678 -1.49265 -0.50573 0
M  V30 577 C 57.4158 -1.582 -1.25766 0
M  V30 578 C 57.7368 -0.268482 -1.93143 0
M  V30 579 O 57.0068 0.711833 -1.8251 0
M  V30 580 H 55.5868 -0.582873 -0.467191 0
M  V30 581 H 58.2488 -1.85865 -0.586525 0
M  V30 582 H 57.3448 -2.37563 -2.02412 0
M  V30 583 N 57.6459 0.756429 -1.3826 0
M  V30 584 C 58.8709 1.55077 -1.37717 0
M  V30 585 C 59.2959 1.88073 0.03164 0
M  V30 586 O 58.6539 1.50364 1.01293 0
M  V30 587 C 58.7019 2.8283 -2.23695 0
M  V30 588 O 57.8059 3.77862 -1.6521 0
M  V30 589 H 57.1469 0.469152 -0.469885 0
M  V30 590 H 59.6769 0.935019 -1.81985 0
M  V30 591 H 59.6869 3.31783 -2.37453 0
M  V30 592 H 58.3619 2.58144 -3.2609 0
M  V30 593 H 56.9389 3.36555 -1.60578 0
M  V30 594 N 59.124 1.23083 0.984299 0
M  V30 595 C 60.074 0.975749 2.06066 0
M  V30 596 C 61.058 -0.0768251 1.60716 0
M  V30 597 O 62.25 0.134805 1.76486 0
M  V30 598 C 59.379 0.564673 3.38624 0
M  V30 599 C 58.465 1.65244 3.90583 0
M  V30 600 N 58.856 2.88193 4.15666 0
M  V30 601 C 57.154 1.52612 4.19077 0
M  V30 602 C 57.855 3.58593 4.58024 0
M  V30 603 N 56.831 2.86093 4.62225 0
M  V30 604 H 60.633 1.90957 2.23411 0
M  V30 605 H 58.147 1.12963 1.16675 0
M  V30 606 H 60.144 0.36322 4.15315 0
M  V30 607 H 58.804 -0.362147 3.22674 0
M  V30 608 H 59.815 3.24537 4.03604 0
M  V30 609 H 56.492 0.666121 4.12152 0
M  V30 610 H 57.882 4.63974 4.85982 0
M  V30 611 N 60.6021 -1.18246 1.0419 0
M  V30 612 C 62.0131 -1.69914 0.773698 0
M  V30 613 C 62.3641 -1.83085 -0.705297 0
M  V30 614 O 61.4891 -1.51123 -1.5489 0
M  V30 615 C 62.0841 -3.08619 1.39784 0
M  V30 616 C 60.6431 -3.57494 1.17792 0
M  V30 617 C 59.7901 -2.34013 1.48773 0
M  V30 618 H 62.7411 -1.02904 1.20816 0
M  V30 619 H 62.7621 -3.71958 0.801714 0
M  V30 620 H 62.2741 -2.99001 2.47426 0
M  V30 621 H 60.3751 -3.72406 0.120295 0
M  V30 622 H 60.4881 -4.40852 1.87581 0
M  V30 623 H 58.8521 -2.37986 0.907463 0
M  V30 624 H 59.6351 -2.27013 2.57527 0
M  V30 625 N 62.0802 -0.821533 -1.34494 0
M  V30 626 C 63.3262 -0.418729 -1.99043 0
M  V30 627 C 63.6812 1.00672 -1.6396 0
M  V30 628 O 62.9742 1.69132 -0.900271 0
M  V30 629 C 63.1682 -0.556512 -3.53041 0
M  V30 630 C 62.9972 -1.9938 -4.03085 0
M  V30 631 C 61.7672 -2.62539 -4.31742 0
M  V30 632 C 63.9652 -2.96035 -4.20556 0
M  V30 633 N 61.9472 -3.97523 -4.67813 0
M  V30 634 C 63.3182 -4.15924 -4.59791 0
M  V30 635 C 65.3732 -2.9267 -4.02801 0
M  V30 636 C 64.0762 -5.32899 -4.83126 0
M  V30 637 C 66.1022 -4.08861 -4.27302 0
M  V30 638 C 65.4642 -5.275 -4.66822 0
M  V30 639 H 61.5632 -0.201299 -0.755647 0
M  V30 640 H 64.1472 -1.06594 -1.62929 0
M  V30 641 H 62.3182 0.0607924 -3.88352 0
M  V30 642 H 64.0502 -0.126842 -4.04501 0
M  V30 643 H 60.8052 -2.13789 -4.22601 0
M  V30 644 H 61.2292 -4.67061 -4.90085 0
M  V30 645 H 65.8712 -2.02088 -3.71376 0
M  V30 646 H 63.5892 -6.24041 -5.13418 0
M  V30 647 H 67.1752 -4.07654 -4.15101 0
M  V30 648 H 66.0552 -6.15913 -4.85408 0
M  V30 649 N 63.5583 1.46682 -0.576371 0
M  V30 650 C 64.4903 2.28341 0.198231 0
M  V30 651 C 65.5033 1.38141 0.861453 0
M  V30 652 O 66.6923 1.62797 0.732082 0
M  V30 653 C 63.7923 3.12986 1.29972 0
M  V30 654 C 62.9653 4.31271 0.729639 0
M  V30 655 C 62.0243 4.97363 1.71803 0
M  V30 656 O 61.0503 5.55156 1.25658 0
M  V30 657 N 62.2523 4.93796 3.05198 0
M  V30 658 H 65.0173 2.9546 -0.502324 0
M  V30 659 H 62.5783 1.56525 -0.413715 0
M  V30 660 H 64.5703 3.54066 1.96008 0
M  V30 661 H 63.1403 2.47984 1.90323 0
M  V30 662 H 62.3603 3.94052 -0.108012 0
M  V30 663 H 63.6483 5.07739 0.328438 0
M  V30 664 H 63.0463 4.48077 3.45317 0
M  V30 665 H 61.6033 5.38837 3.6674 0
M  V30 666 N 65.0364 0.313813 1.54444 0
M  V30 667 C 66.2824 -0.292108 2.00685 0
M  V30 668 C 66.6154 -1.52548 1.20177 0
M  V30 669 O 65.8904 -1.92452 0.281531 0
M  V30 670 C 66.1734 -0.635968 3.5444 0
M  V30 671 C 66.0264 0.607437 4.4568 0
M  V30 672 C 67.3454 -1.45747 4.15266 0
M  V30 673 H 64.4644 -0.104697 0.729526 0
M  V30 674 H 67.1064 0.428457 1.85106 0
M  V30 675 H 65.2564 -1.24986 3.67846 0
M  V30 676 H 66.9284 1.24581 4.44159 0
M  V30 677 H 65.1714 1.23822 4.15753 0
M  V30 678 H 65.8424 0.322515 5.51057 0
M  V30 679 H 68.3184 -0.938645 4.05375 0
M  V30 680 H 67.1944 -1.66683 5.2298 0
M  V30 681 H 67.4554 -2.45063 3.67963 0
M  V30 682 N 66.5145 -1.57545 0.0417849 0
M  V30 683 C 67.4775 -2.09885 -0.92093 0
M  V30 684 C 68.4775 -1.01648 -1.24596 0
M  V30 685 O 69.6675 -1.27759 -1.1842 0
M  V30 686 C 66.7995 -2.57527 -2.23367 0
M  V30 687 H 67.9925 -2.96236 -0.467382 0
M  V30 688 H 65.5455 -1.5493 -0.206467 0
M  V30 689 H 66.2805 -1.74542 -2.73323 0
M  V30 690 H 66.0655 -3.36613 -2.01083 0
M  V30 691 H 67.5555 -2.98201 -2.92346 0
M  V30 692 N 67.9926 0.231505 -1.5589 0
M  V30 693 C 68.9226 1.29022 -1.94617 0
M  V30 694 C 69.9036 1.4941 -0.813067 0
M  V30 695 O 71.0886 1.6176 -1.07459 0
M  V30 696 C 68.2186 2.64199 -2.25424 0
M  V30 697 C 67.1726 2.58484 -3.41131 0
M  V30 698 C 66.4986 3.97599 -3.57518 0
M  V30 699 C 67.7986 2.1413 -4.76388 0
M  V30 700 H 69.4926 0.968563 -2.83301 0
M  V30 701 H 67.0386 0.464479 -1.36303 0
M  V30 702 H 68.9916 3.38413 -2.51107 0
M  V30 703 H 67.7156 2.98032 -1.33583 0
M  V30 704 H 66.3746 1.86727 -3.15481 0
M  V30 705 H 66.0226 4.28723 -2.6307 0
M  V30 706 H 65.7226 3.94659 -4.35337 0
M  V30 707 H 67.2466 4.7349 -3.85538 0
M  V30 708 H 68.6606 2.78083 -5.01341 0
M  V30 709 H 67.0576 2.2227 -5.57419 0
M  V30 710 H 68.1276 1.09331 -4.72414 0
M  V30 711 N 69.4707 1.49531 0.497807 0
M  V30 712 C 70.4007 1.6935 1.60757 0
M  V30 713 C 71.3817 0.542218 1.61227 0
M  V30 714 O 72.5667 0.778417 1.77917 0
M  V30 715 C 69.6967 1.76298 2.99226 0
M  V30 716 C 68.6507 2.91248 3.13622 0
M  V30 717 C 67.9767 2.83312 4.53474 0
M  V30 718 C 69.2767 4.3214 2.93346 0
M  V30 719 H 70.9707 2.62263 1.44425 0
M  V30 720 H 68.5167 1.26208 0.693367 0
M  V30 721 H 70.4697 1.88749 3.76765 0
M  V30 722 H 69.1937 0.799871 3.16654 0
M  V30 723 H 67.8527 2.78404 2.38509 0
M  V30 724 H 67.5007 1.84902 4.67782 0
M  V30 725 H 67.2007 3.60465 4.64046 0
M  V30 726 H 68.7247 2.97775 5.33069 0
M  V30 727 H 70.1387 4.45649 3.60652 0
M  V30 728 H 68.5357 5.1054 3.15387 0
M  V30 729 H 69.6057 4.46363 1.89441 0
M  V30 730 N 70.9488 -0.749086 1.3866 0
M  V30 731 C 72.1738 -1.54344 1.38538 0
M  V30 732 C 72.5988 -1.88088 -0.0216655 0
M  V30 733 O 71.9568 -1.50899 -1.00494 0
M  V30 734 C 72.0048 -2.8164 2.25192 0
M  V30 735 O 71.1088 -3.7698 1.67212 0
M  V30 736 H 70.4498 -0.466654 0.472367 0
M  V30 737 H 72.9798 -0.925355 1.82478 0
M  V30 738 H 72.9898 -3.30519 2.3921 0
M  V30 739 H 71.6648 -2.56411 3.27454 0
M  V30 740 H 70.2418 -3.35699 1.6236 0
M  V30 741 N 72.4269 -1.23603 -0.977757 0
M  V30 742 C 73.6749 -1.06759 -1.71601 0
M  V30 743 C 73.9959 0.395929 -1.90938 0
M  V30 744 O 73.2659 1.28356 -1.47992 0
M  V30 745 H 71.8459 -0.392062 -0.635843 0
M  V30 746 H 74.5079 -1.55362 -1.1768 0
M  V30 747 H 73.6039 -1.55763 -2.70452 0
M  V30 748 N 73.905 1.17692 -1.04816 0
M  V30 749 C 74.853 2.23632 -0.63966 0
M  V30 750 C 75.847 1.6601 0.337219 0
M  V30 751 O 77.053 1.78844 0.203693 0
M  V30 752 H 73.428 0.727949 -0.188665 0
M  V30 753 H 75.399 2.55387 -1.54337 0
M  V30 754 C 74.148 3.4769 -0.0264051 0
M  V30 755 H 73.471 3.92331 -0.769164 0
M  V30 756 H 74.911 4.23418 0.222098 0
M  V30 757 C 73.37 3.13807 1.22584 0
M  V30 758 O 73.9 3.28236 2.31569 0
M  V30 759 N 72.106 2.68065 1.12202 0
M  V30 760 H 71.653 2.56525 0.235133 0
M  V30 761 H 71.611 2.45767 1.96076 0
M  V30 762 N 75.3831 0.828654 1.34056 0
M  V30 763 C 76.3151 0.212052 2.28217 0
M  V30 764 C 77.3281 -0.601362 1.51286 0
M  V30 765 O 78.5171 -0.430104 1.73241 0
M  V30 766 C 75.6171 -0.72088 3.31144 0
M  V30 767 C 74.7901 0.0509587 4.3737 0
M  V30 768 C 73.8491 -0.803766 5.20025 0
M  V30 769 O 72.8751 -0.246667 5.68665 0
M  V30 770 N 74.0771 -2.1227 5.40298 0
M  V30 771 H 76.8421 1.02105 2.81771 0
M  V30 772 H 74.4031 0.686153 1.46641 0
M  V30 773 H 76.3951 -1.29742 3.8334 0
M  V30 774 H 74.9651 -1.43061 2.77943 0
M  V30 775 H 74.1851 0.808831 3.85813 0
M  V30 776 H 75.4731 0.582065 5.0546 0
M  V30 777 H 74.8711 -2.59898 5.02464 0
M  V30 778 H 73.4281 -2.64796 5.95589 0
M  V30 779 N 76.8612 -1.46375 0.584142 0
M  V30 780 C 77.7912 -2.33103 -0.136037 0
M  V30 781 C 78.7722 -1.45431 -0.882255 0
M  V30 782 O 79.9572 -1.74246 -0.857434 0
M  V30 783 C 77.0872 -3.27731 -1.14933 0
M  V30 784 C 76.0412 -4.24855 -0.517862 0
M  V30 785 C 75.3672 -5.09001 -1.63773 0
M  V30 786 C 76.6672 -5.19439 0.545886 0
M  V30 787 H 78.3612 -2.93568 0.588086 0
M  V30 788 H 75.9072 -1.41166 0.284259 0
M  V30 789 H 77.8602 -3.87261 -1.66153 0
M  V30 790 H 76.5842 -2.65377 -1.90375 0
M  V30 791 H 75.2432 -3.6659 -0.0267361 0
M  V30 792 H 74.8912 -4.43031 -2.38185 0
M  V30 793 H 74.5912 -5.74777 -1.22085 0
M  V30 794 H 76.1152 -5.71396 -2.15266 0
M  V30 795 H 77.5292 -5.73177 0.118704 0
M  V30 796 H 75.9262 -5.93566 0.88317 0
M  V30 797 H 76.9962 -4.63285 1.43162 0
M  V30 798 N 78.3393 -0.321999 -1.54275 0
M  V30 799 C 79.2893 0.560185 -2.21011 0
M  V30 800 C 80.2733 1.08283 -1.19011 0
M  V30 801 O 81.4653 1.02011 -1.44647 0
M  V30 802 C 78.5943 1.72137 -2.97025 0
M  V30 803 C 77.6803 1.21369 -4.06363 0
M  V30 804 N 78.0713 0.425566 -5.04007 0
M  V30 805 C 76.3693 1.49255 -4.20284 0
M  V30 806 C 77.0703 0.152601 -5.815 0
M  V30 807 N 76.0463 0.738294 -5.38563 0
M  V30 808 H 79.8483 -0.049265 -2.93859 0
M  V30 809 H 77.3623 -0.127779 -1.61897 0
M  V30 810 H 79.3593 2.36512 -3.43319 0
M  V30 811 H 78.0193 2.33431 -2.25699 0
M  V30 812 H 79.0303 0.068551 -5.17855 0
M  V30 813 H 75.7073 2.11145 -3.60172 0
M  V30 814 H 77.0973 -0.481764 -6.70171 0
M  V30 815 N 79.8174 1.5752 -0.0501392 0
M  V30 816 C 81.0574 1.94521 0.627783 0
M  V30 817 C 81.4214 0.928265 1.68069 0
M  V30 818 O 82.6224 1.18517 2.41261 0
M  V30 819 C 80.8934 3.36319 1.20932 0
M  V30 820 S 82.4524 3.95272 1.90539 0
M  V30 821 H 79.2704 0.680456 0.206158 0
M  V30 822 H 81.8724 1.95139 -0.118829 0
M  V30 823 H 80.5764 4.08132 0.430865 0
M  V30 824 H 80.1074 3.39193 1.99277 0
M  V30 825 H 82.1224 3.80415 3.18589 0
M  V30 826 N 81.2955 -0.223234 1.56011 0
M  V30 827 C 82.5435 -0.946003 1.78592 0
M  V30 828 C 82.8645 -1.84936 0.618349 0
M  V30 829 O 82.1345 -1.92473 -0.364833 0
M  V30 830 H 80.7145 -0.352298 0.658707 0
M  V30 831 H 83.3765 -0.235494 1.93472 0
M  V30 832 H 82.4725 -1.55381 2.70672 0
M  V30 833 N 82.7736 -1.49793 -0.48987 0
M  V30 834 C 84.0216 -1.59525 -1.24081 0
M  V30 835 C 84.3426 -0.288953 -1.92847 0
M  V30 836 O 83.6126 0.692436 -1.83254 0
M  V30 837 H 82.1926 -0.587796 -0.460983 0
M  V30 838 H 84.8546 -1.86477 -0.566778 0
M  V30 839 H 83.9506 -2.39696 -1.99881 0
M  V30 840 N 84.2517 0.741722 -1.39055 0
M  V30 841 C 85.4977 1.50336 -1.36113 0
M  V30 842 C 85.8307 1.94148 0.0450796 0
M  V30 843 O 85.1057 1.66301 1.00868 0
M  V30 844 C 85.3887 2.74773 -2.32749 0
M  V30 845 C 85.2417 2.37023 -3.82283 0
M  V30 846 C 86.5607 3.76846 -2.27322 0
M  V30 847 H 83.6797 0.545351 -0.495743 0
M  V30 848 H 86.3217 0.848624 -1.69995 0
M  V30 849 H 84.4717 3.30639 -2.03986 0
M  V30 850 H 86.1437 1.8684 -4.21768 0
M  V30 851 H 84.3867 1.69334 -3.99385 0
M  V30 852 H 85.0577 3.26104 -4.45376 0
M  V30 853 H 87.5337 3.30548 -2.5274 0
M  V30 854 H 86.4097 4.6159 -2.97028 0
M  V30 855 H 86.6707 4.23286 -1.27599 0
M  V30 856 N 85.7298 1.2412 0.971189 0
M  V30 857 C 86.6598 1.05508 2.08304 0
M  V30 858 C 87.6408 -0.0308864 1.70072 0
M  V30 859 O 88.8258 0.135521 1.93727 0
M  V30 860 C 85.9558 0.655365 3.4106 0
M  V30 861 C 84.9098 1.68971 3.93234 0
M  V30 862 C 84.2358 1.14516 5.22293 0
M  V30 863 C 85.5358 3.08487 4.21465 0
M  V30 864 H 87.2298 1.98507 2.24132 0
M  V30 865 H 84.7758 0.955821 1.07704 0
M  V30 866 H 86.7288 0.51217 4.18276 0
M  V30 867 H 85.4528 -0.31032 3.25122 0
M  V30 868 H 84.1118 1.82106 3.18171 0
M  V30 869 H 83.7598 0.170189 5.02712 0
M  V30 870 H 83.4598 1.83635 5.58168 0
M  V30 871 H 84.9838 1.01401 6.02121 0
M  V30 872 H 86.3978 2.98601 4.89398 0
M  V30 873 H 84.7948 3.74926 4.68562 0
M  V30 874 H 85.8648 3.56787 3.28376 0
M  V30 875 N 87.2079 -1.17134 1.05439 0
M  V30 876 C 88.4539 -1.87733 0.767077 0
M  V30 877 C 88.7869 -1.8098 -0.704253 0
M  V30 878 O 88.0619 -1.21951 -1.5152 0
M  V30 879 C 88.3449 -3.37659 1.25133 0
M  V30 880 C 88.1979 -3.53149 2.78578 0
M  V30 881 C 89.5169 -4.31768 0.852324 0
M  V30 882 H 86.6359 -0.681687 0.280129 0
M  V30 883 H 89.2779 -1.37732 1.30881 0
M  V30 884 H 87.4279 -3.80373 0.790469 0
M  V30 885 H 89.0999 -3.19434 3.32806 0
M  V30 886 H 87.3429 -2.95345 3.17732 0
M  V30 887 H 88.0139 -4.58403 3.07523 0
M  V30 888 H 90.4899 -3.96909 1.24911 0
M  V30 889 H 89.3659 -5.35199 1.21873 0
M  V30 890 H 89.6269 -4.41429 -0.243485 0
M  V30 891 N 88.686 -0.835752 -1.33615 0
M  V30 892 C 89.634 -0.255238 -2.31195 0
M  V30 893 C 90.628 0.61107 -1.57995 0
M  V30 894 O 91.834 0.500979 -1.72888 0
M  V30 895 H 88.209 -0.0638085 -0.749288 0
M  V30 896 H 90.18 -1.09283 -2.77669 0
M  V30 897 C 88.929 0.55754 -3.43201 0
M  V30 898 H 88.252 -0.0997553 -3.99676 0
M  V30 899 H 89.692 0.929622 -4.13683 0
M  V30 900 C 88.151 1.73515 -2.88781 0
M  V30 901 O 88.681 2.83376 -2.84712 0
M  V30 902 N 86.887 1.55603 -2.4543 0
M  V30 903 H 86.434 0.662354 -2.48939 0
M  V30 904 H 86.392 2.34545 -2.09371 0
M  V30 905 N 90.1641 1.46063 -0.591896 0
M  V30 906 C 91.0741 2.34192 0.13831 0
M  V30 907 C 92.0901 1.50305 0.876608 0
M  V30 908 O 93.2661 1.8315 0.837728 0
M  V30 909 C 90.3311 3.27656 1.13326 0
M  V30 910 C 89.3921 4.27445 0.39863 0
M  V30 911 C 88.6251 5.16443 1.34618 0
M  V30 912 O 88.8481 5.08553 2.58321 0
M  V30 913 O 87.7821 5.95843 0.851768 0
M  V30 914 H 91.6081 2.98002 -0.58552 0
M  V30 915 H 89.1931 1.45188 -0.352239 0
M  V30 916 H 91.0751 3.85291 1.70671 0
M  V30 917 H 89.7501 2.6643 1.83839 0
M  V30 918 H 88.6571 3.73471 -0.216895 0
M  V30 919 H 89.9901 4.91482 -0.265709 0
M  V30 920 N 91.6422 0.330177 1.54103 0
M  V30 921 C 93.0582 -0.0222371 1.59585 0
M  V30 922 C 93.2582 -1.49902 1.34654 0
M  V30 923 O 92.3142 -2.25592 1.13421 0
M  V30 924 C 93.6272 0.401932 2.98002 0
M  V30 925 C 95.1752 0.353145 3.11001 0
M  V30 926 C 95.6502 0.752576 4.51775 0
M  V30 927 N 97.1412 0.706239 4.57784 0
M  V30 928 C 97.8762 0.987417 5.64834 0
M  V30 929 N 97.3722 1.33607 6.79795 0
M  V30 930 N 99.1652 0.91254 5.54643 0
M  V30 931 H 91.3162 1.29228 1.68564 0
M  V30 932 H 93.5792 0.525906 0.78875 0
M  V30 933 H 93.2852 1.4311 3.21267 0
M  V30 934 H 93.1592 -0.229699 3.765 0
M  V30 935 H 95.5462 -0.666822 2.87467 0
M  V30 936 H 95.6272 1.0198 2.34593 0
M  V30 937 H 95.2712 1.77049 4.76042 0
M  V30 938 H 95.2012 0.0635409 5.26562 0
M  V30 939 H 97.6922 0.44889 3.75224 0
M  V30 940 H 98.0052 1.53582 7.57385 0
M  V30 941 H 96.3502 1.37439 6.81275 0
M  V30 942 H 99.5412 0.639601 4.6371 0
M  V30 943 H 99.7142 1.13503 6.37982 0
M  V30 944 N 93.1203 -1.57491 0.0584922 0
M  V30 945 C 94.3663 -1.94081 -0.608617 0
M  V30 946 C 94.7213 -0.937438 -1.68017 0
M  V30 947 O 94.0143 0.0423034 -1.91553 0
M  V30 948 C 94.2083 -3.3513 -1.24188 0
M  V30 949 C 94.0373 -4.49095 -0.233187 0
M  V30 950 C 92.8073 -5.04988 0.177439 0
M  V30 951 C 95.0053 -5.1162 0.524306 0
M  V30 952 N 92.9873 -6.02487 1.17823 0
M  V30 953 C 94.3583 -6.04493 1.37796 0
M  V30 954 C 96.4133 -4.94489 0.581822 0
M  V30 955 C 95.1163 -6.82075 2.28399 0
M  V30 956 C 97.1423 -5.72703 1.47531 0
M  V30 957 C 96.5043 -6.65214 2.31667 0
M  V30 958 H 92.6033 -0.75752 -0.194134 0
M  V30 959 H 95.1873 -1.94248 0.132533 0
M  V30 960 H 93.3583 -3.35726 -1.95302 0
M  V30 961 H 95.0903 -3.5899 -1.86838 0
M  V30 962 H 91.8453 -4.73165 -0.203004 0
M  V30 963 H 92.2693 -6.55933 1.67573 0
M  V30 964 H 96.9113 -4.22765 -0.054443 0
M  V30 965 H 94.6293 -7.53085 2.93067 0
M  V30 966 H 98.2153 -5.61472 1.52448 0
M  V30 967 H 97.0953 -7.24679 2.99683 0
M  V30 968 N 94.5984 0.214957 -1.56127 0
M  V30 969 C 95.8444 0.939762 -1.79712 0
M  V30 970 C 96.1774 1.83723 -0.629247 0
M  V30 971 O 95.4524 1.90925 0.371197 0
M  V30 972 C 95.7354 1.77306 -3.13424 0
M  V30 973 C 95.5884 0.90164 -4.40671 0
M  V30 974 C 96.9074 2.74956 -3.43638 0
M  V30 975 H 94.0264 0.340214 -0.653776 0
M  V30 976 H 96.6684 0.20824 -1.88855 0
M  V30 977 H 94.8184 2.39673 -3.0576 0
M  V30 978 H 96.4904 0.294206 -4.60361 0
M  V30 979 H 94.7334 0.207368 -4.33304 0
M  V30 980 H 95.4044 1.51923 -5.30682 0
M  V30 981 H 97.8804 2.22724 -3.51473 0
M  V30 982 H 96.7564 3.30358 -4.38355 0
M  V30 983 H 97.0174 3.53023 -2.66134 0
M  V30 984 N 96.0765 1.50051 0.48192 0
M  V30 985 C 97.0065 1.71046 1.58951 0
M  V30 986 C 97.9875 0.559288 1.60642 0
M  V30 987 O 99.1725 0.797243 1.77081 0
M  V30 988 C 96.3025 1.79462 2.97339 0
M  V30 989 C 95.2565 2.94558 3.10515 0
M  V30 990 C 94.5825 2.88105 4.50444 0
M  V30 991 C 95.8825 4.35227 2.88747 0
M  V30 992 H 97.5765 2.6378 1.41635 0
M  V30 993 H 95.1225 1.26936 0.679942 0
M  V30 994 H 97.0755 1.92734 3.74742 0
M  V30 995 H 95.7995 0.833412 3.15788 0
M  V30 996 H 94.4585 2.80918 2.35543 0
M  V30 997 H 94.1065 1.89853 4.65795 0
M  V30 998 H 93.8065 3.65366 4.60197 0
M  V30 999 H 95.3305 3.03412 5.29881 0
M  V30 1000 H 96.7445 4.49449 3.55905 0
M  V30 1001 H 95.1415 5.13856 3.09955 0
M  V30 1002 H 96.2115 4.48347 1.84696 0
M  V30 1003 N 97.5546 -0.734337 1.39446 0
M  V30 1004 C 98.7826 -1.52358 1.39981 0
M  V30 1005 C 99.1976 -1.88799 -0.0054975 0
M  V30 1006 O 98.5546 -1.54146 -0.976998 0
M  V30 1007 C 98.6056 -2.81072 2.27333 0
M  V30 1008 O 98.3266 -2.46178 3.62392 0
M  V30 1009 C 99.8276 -3.75096 2.36259 0
M  V30 1010 H 97.0476 -0.470806 0.478103 0
M  V30 1011 H 99.5916 -0.907339 1.83269 0
M  V30 1012 H 97.7466 -3.39026 1.87457 0
M  V30 1013 H 98.1606 -3.28866 4.08592 0
M  V30 1014 H 99.6346 -4.62305 3.01626 0
M  V30 1015 H 100.112 -4.16892 1.38194 0
M  V30 1016 H 100.718 -3.23061 2.76608 0
M  V30 1017 N 99.0327 -1.24633 -0.964593 0
M  V30 1018 C 99.9957 -1.0424 -2.04124 0
M  V30 1019 C 100.996 0.00137563 -1.608 0
M  V30 1020 O 102.186 -0.239883 -1.7254 0
M  V30 1021 C 99.3177 -0.580588 -3.3592 0
M  V30 1022 H 100.511 -1.99803 -2.23649 0
M  V30 1023 H 98.0637 -1.06899 -1.14027 0
M  V30 1024 H 98.7987 0.3781 -3.22088 0
M  V30 1025 H 98.5837 -1.33398 -3.6871 0
M  V30 1026 H 100.074 -0.459034 -4.15069 0
M  V30 1027 N 100.511 1.16574 -1.06058 0
M  V30 1028 C 101.474 2.19085 -0.673392 0
M  V30 1029 C 102.474 1.5835 0.279648 0
M  V30 1030 O 103.664 1.74088 0.0623488 0
M  V30 1031 C 100.796 3.40899 0.00954234 0
M  V30 1032 H 101.989 2.54853 -1.58081 0
M  V30 1033 H 99.5418 1.30808 -0.855516 0
M  V30 1034 H 100.277 3.10684 0.929826 0
M  V30 1035 H 100.062 3.86233 -0.67573 0
M  V30 1036 H 101.552 4.1675 0.266245 0
M  V30 1037 N 101.989 0.842826 1.3317 0
M  V30 1038 C 102.939 0.250877 2.26616 0
M  V30 1039 C 103.923 -0.596427 1.49437 0
M  V30 1040 O 105.115 -0.447747 1.71243 0
M  V30 1041 C 102.244 -0.569779 3.38539 0
M  V30 1042 C 101.33 0.289254 4.23112 0
M  V30 1043 N 101.721 1.36987 4.86897 0
M  V30 1044 C 100.019 0.0769631 4.45934 0
M  V30 1045 C 100.72 1.89737 5.49886 0
M  V30 1046 N 99.6959 1.19827 5.30229 0
M  V30 1047 H 103.498 1.07718 2.73448 0
M  V30 1048 H 101.012 0.687693 1.47121 0
M  V30 1049 H 103.009 -1.01018 4.04476 0
M  V30 1050 H 101.669 -1.39401 2.93253 0
M  V30 1051 H 102.68 1.75277 4.87338 0
M  V30 1052 H 99.3569 -0.713507 4.11358 0
M  V30 1053 H 100.747 2.80253 6.10662 0
M  V30 1054 N 103.467 -1.45747 0.599634 0
M  V30 1055 C 104.707 -2.04181 0.0946309 0
M  V30 1056 C 105.071 -1.45895 -1.24815 0
M  V30 1057 O 106.272 -1.95633 -1.8434 0
M  V30 1058 C 104.543 -3.57368 0.047581 0
M  V30 1059 S 106.102 -4.36997 -0.397387 0
M  V30 1060 H 102.92 -0.70953 0.0456954 0
M  V30 1061 H 105.522 -1.78564 0.795946 0
M  V30 1062 H 104.226 -3.97303 1.02852 0
M  V30 1063 H 103.757 -3.87549 -0.675977 0
M  V30 1064 H 105.772 -4.68012 -1.64862 0
M  V30 1065 N 104.945 -0.338344 -1.53925 0
M  V30 1066 C 105.892 0.520845 -2.24846 0
M  V30 1067 C 106.862 1.09976 -1.24477 0
M  V30 1068 O 108.047 1.13735 -1.53196 0
M  V30 1069 C 105.187 1.6685 -3.02084 0
M  V30 1070 C 104.3 1.11739 -4.17299 0
M  V30 1071 C 103.435 2.23193 -4.82036 0
M  V30 1072 C 102.474 1.65407 -5.89328 0
M  V30 1073 N 101.611 2.70582 -6.47866 0
M  V30 1074 H 106.451 -0.0904881 -2.97863 0
M  V30 1075 H 103.988 -0.0564282 -1.46992 0
M  V30 1076 H 105.946 2.34407 -3.45122 0
M  V30 1077 H 104.576 2.2509 -2.31375 0
M  V30 1078 H 103.628 0.332919 -3.7894 0
M  V30 1079 H 104.94 0.654677 -4.94485 0
M  V30 1080 H 104.094 2.98626 -5.28117 0
M  V30 1081 H 102.833 2.72807 -4.04262 0
M  V30 1082 H 101.838 0.884779 -5.42634 0
M  V30 1083 H 103.063 1.16652 -6.69006 0
M  V30 1084 H 101.009 3.1946 -5.72959 0
M  V30 1085 H 100.926 2.28917 -7.20509 0
M  V30 1086 H 102.194 3.45799 -6.98601 0
M  V30 1087 N 106.423 1.57458 -0.0668435 0
M  V30 1088 C 107.356 2.08033 0.93795 0
M  V30 1089 C 108.334 0.984321 1.29421 0
M  V30 1090 O 109.518 1.25736 1.40437 0
M  V30 1091 C 106.645 2.53388 2.24749 0
M  V30 1092 C 105.691 3.74376 2.04315 0
M  V30 1093 S 106.524 5.19303 1.30706 0
M  V30 1094 C 107.68 5.67986 2.62951 0
M  V30 1095 H 107.913 2.92935 0.50759 0
M  V30 1096 H 105.446 1.5371 0.145804 0
M  V30 1097 H 107.404 2.8018 3.00016 0
M  V30 1098 H 106.065 1.68763 2.64911 0
M  V30 1099 H 105.258 4.04083 3.01218 0
M  V30 1100 H 104.86 3.47931 1.37186 0
M  V30 1101 H 107.152 5.74528 3.5906 0
M  V30 1102 H 108.095 6.66955 2.3786 0
M  V30 1103 H 108.503 4.95781 2.69929 0
M  V30 1104 N 107.901 -0.206675 1.56239 0
M  V30 1105 C 108.849 -1.27571 1.94495 0
M  V30 1106 C 109.843 -1.47737 0.828862 0
M  V30 1107 O 111.049 -1.48735 1.0138 0
M  V30 1108 H 107.424 -0.428029 0.6183 0
M  V30 1109 H 109.395 -0.925961 2.8367 0
M  V30 1110 C 108.144 -2.61568 2.29079 0
M  V30 1111 H 107.467 -2.46863 3.14482 0
M  V30 1112 H 108.907 -3.35144 2.5972 0
M  V30 1113 C 107.366 -3.17695 1.12123 0
M  V30 1114 O 107.896 -3.99801 0.390153 0
M  V30 1115 N 106.102 -2.76276 0.901097 0
M  V30 1116 H 105.649 -2.09613 1.49733 0
M  V30 1117 H 105.607 -3.1417 0.120319 0
M  V30 1118 N 109.379 -1.50304 -0.473955 0
M  V30 1119 C 110.289 -1.7174 -1.5982 0
M  V30 1120 C 111.305 -0.600457 -1.63311 0
M  V30 1121 O 112.481 -0.878441 -1.81233 0
M  V30 1122 C 109.546 -1.80427 -2.96052 0
M  V30 1123 C 108.607 -3.04148 -3.02972 0
M  V30 1124 C 107.84 -3.12411 -4.32706 0
M  V30 1125 O 108.063 -2.27542 -5.23049 0
M  V30 1126 O 106.997 -4.05113 -4.45159 0
M  V30 1127 H 110.823 -2.67035 -1.44657 0
M  V30 1128 H 108.408 -1.34366 -0.653148 0
M  V30 1129 H 110.29 -1.88338 -3.7697 0
M  V30 1130 H 108.965 -0.883156 -3.11419 0
M  V30 1131 H 107.872 -3.0174 -2.21142 0
M  V30 1132 H 109.205 -3.95829 -2.92541 0
M  V30 1133 N 110.857 0.726932 -1.39834 0
M  V30 1134 C 112.087 1.51393 -1.40583 0
M  V30 1135 C 112.495 1.892 -0.000740625 0
M  V30 1136 O 111.838 1.55189 0.982951 0
M  V30 1137 C 111.9 2.82588 -2.22226 0
M  V30 1138 C 111.564 2.67169 -3.70769 0
M  V30 1139 C 112.561 2.3518 -4.63666 0
M  V30 1140 C 110.246 2.83788 -4.14451 0
M  V30 1141 C 112.24 2.20002 -5.98229 0
M  V30 1142 C 109.927 2.68229 -5.49087 0
M  V30 1143 C 110.925 2.36382 -6.4079 0
M  V30 1144 O 110.613 2.2093 -7.72946 0
M  V30 1145 H 110.345 0.474168 -0.48181 0
M  V30 1146 H 112.899 0.905247 -1.84376 0
M  V30 1147 H 111.129 3.45746 -1.73195 0
M  V30 1148 H 112.818 3.44247 -2.15055 0
M  V30 1149 H 113.584 2.21984 -4.31217 0
M  V30 1150 H 109.463 3.07566 -3.43401 0
M  V30 1151 H 113.007 1.95067 -6.69772 0
M  V30 1152 H 108.904 2.81006 -5.81125 0
M  V30 1153 H 109.672 2.35937 -7.83757 0
M  V30 1154 N 112.336 1.25143 0.95797 0
M  V30 1155 C 113.564 1.12424 1.73691 0
M  V30 1156 C 113.979 -0.322304 1.86029 0
M  V30 1157 O 113.336 -1.22186 1.35561 0
M  V30 1158 C 113.387 1.76933 3.15241 0
M  V30 1159 O 113.108 3.15932 3.03511 0
M  V30 1160 C 114.609 1.6995 4.09429 0
M  V30 1161 H 111.829 0.3923 0.544373 0
M  V30 1162 H 114.373 1.6544 1.20207 0
M  V30 1163 H 112.528 1.27895 3.6568 0
M  V30 1164 H 112.942 3.47598 3.9278 0
M  V30 1165 H 114.416 2.19753 5.06372 0
M  V30 1166 H 114.893 0.662619 4.34173 0
M  V30 1167 H 115.499 2.18461 3.64904 0
M  V30 1168 N 113.814 -1.1601 1.06675 0
M  V30 1169 C 115.06 -1.86909 0.786945 0
M  V30 1170 C 115.393 -1.81717 -0.685018 0
M  V30 1171 O 114.668 -1.23551 -1.50218 0
M  V30 1172 C 114.951 -3.36313 1.28707 0
M  V30 1173 C 114.804 -3.50175 2.82308 0
M  V30 1174 C 116.123 -4.3084 0.898071 0
M  V30 1175 H 113.242 -0.678677 0.287343 0
M  V30 1176 H 115.884 -1.36336 1.32334 0
M  V30 1177 H 114.034 -3.79513 0.830768 0
M  V30 1178 H 115.706 -3.15886 3.36175 0
M  V30 1179 H 113.949 -2.91959 3.20847 0
M  V30 1180 H 114.62 -4.55116 3.12368 0
M  V30 1181 H 117.096 -3.95561 1.29114 0
M  V30 1182 H 115.972 -5.33876 1.27543 0
M  V30 1183 H 116.233 -4.41662 -0.196651 0
M  V30 1184 N 115.292 -0.849877 -1.32721 0
M  V30 1185 C 116.242 -0.262892 -2.26479 0
M  V30 1186 C 117.226 0.588493 -1.49752 0
M  V30 1187 O 118.418 0.438659 -1.71478 0
M  V30 1188 C 115.547 0.551818 -3.38836 0
M  V30 1189 C 114.633 -0.311689 -4.22953 0
M  V30 1190 N 115.024 -1.39567 -4.86163 0
M  V30 1191 C 113.322 -0.100611 -4.45887 0
M  V30 1192 C 114.023 -1.92651 -5.48872 0
M  V30 1193 N 112.999 -1.22637 -5.29586 0
M  V30 1194 H 116.801 -1.09166 -2.72873 0
M  V30 1195 H 114.315 -0.695486 -1.46754 0
M  V30 1196 H 116.312 0.988713 -4.05006 0
M  V30 1197 H 114.972 1.37844 -2.93988 0
M  V30 1198 H 115.983 -1.77859 -4.86402 0
M  V30 1199 H 112.66 0.691681 -4.11731 0
M  V30 1200 H 114.05 -2.83487 -6.09167 0
M  V30 1201 N 116.77 1.45427 -0.607355 0
M  V30 1202 C 117.7 2.3329 0.0989352 0
M  V30 1203 C 118.681 1.46816 0.859007 0
M  V30 1204 O 119.866 1.75588 0.829604 0
M  V30 1205 C 116.996 3.29518 1.09705 0
M  V30 1206 C 115.95 4.25626 0.450206 0
M  V30 1207 C 115.276 5.11542 1.55655 0
M  V30 1208 C 116.576 5.18505 -0.628455 0
M  V30 1209 H 118.27 2.92595 -0.634716 0
M  V30 1210 H 115.816 1.40696 -0.306681 0
M  V30 1211 H 117.769 3.89855 1.59971 0
M  V30 1212 H 116.493 2.68372 1.86129 0
M  V30 1213 H 115.152 3.66586 -0.0315886 0
M  V30 1214 H 114.8 4.46765 2.31107 0
M  V30 1215 H 114.5 5.76647 1.12925 0
M  V30 1216 H 116.024 5.74748 2.06148 0
M  V30 1217 H 117.438 5.72916 -0.209877 0
M  V30 1218 H 115.835 5.92085 -0.977489 0
M  V30 1219 H 116.905 4.60948 -1.50514 0
M  V30 1220 N 118.248 0.346503 1.53744 0
M  V30 1221 C 119.496 -0.248612 2.00565 0
M  V30 1222 C 119.817 -1.5083 1.23593 0
M  V30 1223 O 119.087 -1.92858 0.343912 0
M  V30 1224 H 117.667 -0.0948564 0.740953 0
M  V30 1225 H 120.329 0.468341 1.89189 0
M  V30 1226 H 119.425 -0.488994 3.08245 0
M  V30 1227 N 119.726 -1.57421 0.075193 0
M  V30 1228 C 120.951 -1.98364 -0.605515 0
M  V30 1229 C 121.376 -0.953383 -1.62149 0
M  V30 1230 O 120.734 0.0806053 -1.81121 0
M  V30 1231 C 120.782 -3.38332 -1.24756 0
M  V30 1232 O 119.886 -3.37959 -2.36342 0
M  V30 1233 H 119.227 -0.645553 -0.155428 0
M  V30 1234 H 121.757 -2.04044 0.150714 0
M  V30 1235 H 121.767 -3.75591 -1.5936 0
M  V30 1236 H 120.442 -4.12846 -0.503129 0
M  V30 1237 H 119.019 -3.12474 -2.03506 0
M  V30 1238 N 121.204 0.198386 -1.56346 0
M  V30 1239 C 122.481 0.944982 -1.71258 0
M  V30 1240 C 122.861 2.0151 -0.629048 0
M  V30 1241 O 122.209 2.25639 0.360473 0
M  V30 1242 C 122.419 1.5344 -3.1346 0
M  V30 1243 C 123.767 2.01778 -3.73591 0
M  V30 1244 O 124.791 1.63288 -3.16568 0
M  V30 1245 O 123.65 2.72594 -4.73661 0
M  V30 1246 H 120.744 0.442939 -0.69838 0
M  V30 1247 H 123.29 0.188342 -1.68652 0
M  V30 1248 H 122.062 0.762869 -3.83792 0
M  V30 1249 H 121.685 2.35596 -3.20282 0
M  V30 1250 N 122.682 1.50554 0.465978 0
M  V30 1251 C 123.91 1.65563 1.24083 0
M  V30 1252 C 124.325 0.341051 1.85694 0
M  V30 1253 O 123.682 -0.677543 1.69457 0
M  V30 1254 C 123.733 2.75051 2.34583 0
M  V30 1255 O 123.454 4.01413 1.75497 0
M  V30 1256 C 124.955 3.01078 3.25372 0
M  V30 1257 H 122.175 0.55638 0.375077 0
M  V30 1258 H 124.719 1.96807 0.555624 0
M  V30 1259 H 122.874 2.46486 2.9887 0
M  V30 1260 H 123.288 4.62002 2.48303 0
M  V30 1261 H 124.762 3.81339 3.99105 0
M  V30 1262 H 125.239 2.12349 3.84453 0
M  V30 1263 H 125.845 3.31194 2.66816 0
M  V30 1264 N 124.16 -0.719506 1.40217 0
M  V30 1265 C 125.09 -1.8465 1.42922 0
M  V30 1266 C 126.071 -1.67599 0.29062 0
M  V30 1267 O 127.256 -1.87688 0.498677 0
M  V30 1268 C 124.386 -3.22565 1.28722 0
M  V30 1269 C 123.34 -3.54281 2.40144 0
M  V30 1270 C 122.666 -4.91298 2.11023 0
M  V30 1271 C 123.966 -3.55676 3.82481 0
M  V30 1272 H 125.66 -1.82644 2.37237 0
M  V30 1273 H 123.206 -0.877305 1.1419 0
M  V30 1274 H 125.159 -4.01095 1.29232 0
M  V30 1275 H 123.883 -3.25137 0.308811 0
M  V30 1276 H 122.542 -2.78088 2.38877 0
M  V30 1277 H 122.19 -4.90468 1.11582 0
M  V30 1278 H 121.89 -5.13485 2.8567 0
M  V30 1279 H 123.414 -5.72166 2.13209 0
M  V30 1280 H 124.828 -4.24254 3.85592 0
M  V30 1281 H 123.225 -3.89388 4.56614 0
M  V30 1282 H 124.295 -2.55144 4.12346 0
M  V30 1283 N 125.638 -1.25649 -0.95132 0
M  V30 1284 C 126.886 -1.10375 -1.69298 0
M  V30 1285 C 127.207 0.355339 -1.91735 0
M  V30 1286 O 126.477 1.25188 -1.50681 0
M  V30 1287 H 125.057 -0.405461 -0.627384 0
M  V30 1288 H 127.719 -1.57823 -1.14358 0
M  V30 1289 H 126.815 -1.61465 -2.67087 0
M  V30 1290 N 127.117 1.15442 -1.07289 0
M  V30 1291 C 128.394 1.82306 -0.708792 0
M  V30 1292 C 128.774 1.94991 0.808807 0
M  V30 1293 O 128.122 1.50085 1.72298 0
M  V30 1294 C 128.332 3.18695 -1.42247 0
M  V30 1295 C 129.68 3.94341 -1.57417 0
M  V30 1296 O 130.704 3.28247 -1.38319 0
M  V30 1297 O 129.563 5.12839 -1.88834 0
M  V30 1298 H 126.657 0.787628 -0.252132 0
M  V30 1299 H 129.203 1.22559 -1.17377 0
M  V30 1300 H 127.975 3.04557 -2.45684 0
M  V30 1301 H 127.598 3.86128 -0.948223 0
M  V30 1302 N 128.595 0.856903 1.32268 0
M  V30 1303 C 130.011 0.547061 1.49931 0
M  V30 1304 C 130.211 -0.921781 1.7918 0
M  V30 1305 O 129.267 -1.70469 1.8627 0
M  V30 1306 C 130.58 1.43599 2.64196 0
M  V30 1307 C 132.128 1.43665 2.78081 0
M  V30 1308 C 132.603 2.31085 3.95428 0
M  V30 1309 N 134.094 2.28893 4.02694 0
M  V30 1310 C 134.829 2.93262 4.92732 0
M  V30 1311 N 134.325 3.66751 5.87763 0
M  V30 1312 N 136.118 2.82638 4.85873 0
M  V30 1313 H 128.269 1.8075 1.11549 0
M  V30 1314 H 130.532 0.772144 0.549997 0
M  V30 1315 H 130.238 2.48058 2.49319 0
M  V30 1316 H 130.112 1.12502 3.60032 0
M  V30 1317 H 132.499 0.399701 2.92381 0
M  V30 1318 H 132.58 1.7878 1.82952 0
M  V30 1319 H 132.224 3.34849 3.81888 0
M  V30 1320 H 132.154 1.93302 4.89839 0
M  V30 1321 H 134.645 1.75466 3.34694 0
M  V30 1322 H 134.958 4.13027 6.53168 0
M  V30 1323 H 133.303 3.70859 5.87783 0
M  V30 1324 H 136.494 2.24774 4.10602 0
M  V30 1325 H 136.667 3.33084 5.55841 0
M  V30 1326 N 130.073 -1.45103 0.615059 0
M  V30 1327 C 131.489 -1.57137 0.279322 0
M  V30 1328 C 131.689 -1.60523 -1.21797 0
M  V30 1329 O 130.745 -1.53956 -2.00134 0
M  V30 1330 C 132.058 -2.85062 0.957083 0
M  V30 1331 C 133.606 -2.98749 0.933706 0
M  V30 1332 C 134.081 -4.29455 1.59162 0
M  V30 1333 N 135.572 -4.36231 1.55746 0
M  V30 1334 C 136.307 -5.36051 2.0356 0
M  V30 1335 N 135.803 -6.42367 2.59494 0
M  V30 1336 N 137.596 -5.27456 1.94284 0
M  V30 1337 H 129.747 -1.41148 1.58717 0
M  V30 1338 H 132.01 -0.675331 0.665306 0
M  V30 1339 H 131.716 -2.88488 2.01166 0
M  V30 1340 H 131.59 -3.7407 0.48494 0
M  V30 1341 H 133.977 -2.94886 -0.112347 0
M  V30 1342 H 134.058 -2.11132 1.44419 0
M  V30 1343 H 133.702 -4.34077 2.63704 0
M  V30 1344 H 133.632 -5.15901 1.0561 0
M  V30 1345 H 136.123 -3.60011 1.14893 0
M  V30 1346 H 136.436 -7.14793 2.93752 0
M  V30 1347 H 134.781 -6.43097 2.63537 0
M  V30 1348 H 137.972 -4.43308 1.5032 0
M  V30 1349 H 138.145 -6.05099 2.3186 0
M  V30 1350 N 131.551 -0.354651 -1.53558 0
M  V30 1351 C 132.514 0.484566 -2.24019 0
M  V30 1352 C 133.514 1.01861 -1.24422 0
M  V30 1353 O 134.704 0.906097 -1.4878 0
M  V30 1354 C 131.836 1.67615 -2.96847 0
M  V30 1355 H 133.029 -0.131843 -2.9961 0
M  V30 1356 H 130.582 -0.106165 -1.55939 0
M  V30 1357 H 131.317 2.33095 -2.25471 0
M  V30 1358 H 131.102 1.30029 -3.69912 0
M  V30 1359 H 132.592 2.27114 -3.50441 0
M  V30 1360 N 133.029 1.57378 -0.0835403 0
M  V30 1361 C 133.961 2.10389 0.909338 0
M  V30 1362 C 134.974 1.03858 1.25369 0
M  V30 1363 O 136.163 1.31338 1.20882 0
M  V30 1364 C 133.263 2.55908 2.2218 0
M  V30 1365 C 132.436 3.86145 2.05453 0
M  V30 1366 C 131.495 4.17633 3.20108 0
M  V30 1367 O 130.521 4.87043 2.94581 0
M  V30 1368 N 131.723 3.72113 4.45547 0
M  V30 1369 H 134.488 2.962 0.456657 0
M  V30 1370 H 132.049 1.61579 0.101877 0
M  V30 1371 H 134.041 2.74027 2.97811 0
M  V30 1372 H 132.611 1.75171 2.58909 0
M  V30 1373 H 131.831 3.7729 1.1422 0
M  V30 1374 H 133.119 4.7137 1.91541 0
M  V30 1375 H 132.517 3.16062 4.69171 0
M  V30 1376 H 131.074 3.95409 5.18165 0
M  V30 1377 N 134.507 -0.190092 1.56449 0
M  V30 1378 C 135.923 -0.54113 1.50146 0
M  V30 1379 C 136.123 -1.85603 0.784465 0
M  V30 1380 O 135.179 -2.5024 0.337051 0
M  V30 1381 C 136.492 -0.591241 2.9483 0
M  V30 1382 C 138.04 -0.679732 3.0553 0
M  V30 1383 C 138.515 -0.760908 4.51635 0
M  V30 1384 N 140.006 -0.824302 4.55806 0
M  V30 1385 C 140.741 -0.907365 5.66175 0
M  V30 1386 N 140.237 -0.952422 6.86222 0
M  V30 1387 N 142.03 -0.94494 5.541 0
M  V30 1388 H 134.181 0.67235 2.01478 0
M  V30 1389 H 136.444 0.240127 0.917084 0
M  V30 1390 H 136.15 0.305905 3.50367 0
M  V30 1391 H 136.024 -1.44422 3.48457 0
M  V30 1392 H 138.411 -1.56731 2.50039 0
M  V30 1393 H 138.492 0.199549 2.5502 0
M  V30 1394 H 138.136 0.122336 5.07753 0
M  V30 1395 H 138.066 -1.65606 4.99882 0
M  V30 1396 H 140.557 -0.798526 3.69367 0
M  V30 1397 H 140.87 -1.01645 7.66086 0
M  V30 1398 H 139.215 -0.921014 6.8887 0
M  V30 1399 H 142.406 -0.906612 4.59236 0
M  V30 1400 H 142.579 -1.00622 6.4014 0
M  V30 1401 N 135.985 -1.50799 -0.457987 0
M  V30 1402 C 137.234 -1.6168 -1.20593 0
M  V30 1403 C 137.547 -0.32888 -1.92815 0
M  V30 1404 O 138.753 -0.316773 -2.69646 0
M  V30 1405 C 137.209 -2.8545 -2.19195 0
M  V30 1406 C 136.817 -4.21168 -1.52715 0
M  V30 1407 C 138.561 -3.05681 -2.94549 0
M  V30 1408 C 136.468 -5.3611 -2.4968 0
M  V30 1409 H 135.398 -0.602134 -0.453818 0
M  V30 1410 H 138.049 -1.77245 -0.475031 0
M  V30 1411 H 136.431 -2.63472 -2.95632 0
M  V30 1412 H 137.605 -4.53449 -0.819775 0
M  V30 1413 H 135.92 -4.06648 -0.895922 0
M  V30 1414 H 138.517 -3.88727 -3.67145 0
M  V30 1415 H 138.86 -2.17929 -3.54701 0
M  V30 1416 H 139.393 -3.27901 -2.25223 0
M  V30 1417 H 136.132 -6.26057 -1.94249 0
M  V30 1418 H 135.652 -5.0823 -3.18532 0
M  V30 1419 H 137.331 -5.6722 -3.11241 0
M  V30 1420 N 137.463 0.71206 -1.40597 0
M  V30 1421 C 138.41 1.82613 -1.41142 0
M  V30 1422 C 139.38 1.63925 -0.267903 0
M  V30 1423 O 140.565 1.85009 -0.466495 0
M  V30 1424 C 137.705 3.20354 -1.28324 0
M  V30 1425 C 136.818 3.50589 -2.52411 0
M  V30 1426 C 135.953 4.77855 -2.32009 0
M  V30 1427 C 134.992 5.01005 -3.51654 0
M  V30 1428 N 134.129 6.19487 -3.30425 0
M  V30 1429 H 138.969 1.81482 -2.36365 0
M  V30 1430 H 136.506 0.886475 -1.17388 0
M  V30 1431 H 138.464 3.99899 -1.18899 0
M  V30 1432 H 137.094 3.20705 -0.367189 0
M  V30 1433 H 136.146 2.65573 -2.72351 0
M  V30 1434 H 137.458 3.63604 -3.41458 0
M  V30 1435 H 136.612 5.65424 -2.19956 0
M  V30 1436 H 135.351 4.67056 -1.40392 0
M  V30 1437 H 134.356 4.1189 -3.64179 0
M  V30 1438 H 135.581 5.13674 -4.44202 0
M  V30 1439 H 133.527 6.09932 -2.41494 0
M  V30 1440 H 133.444 6.33194 -4.13039 0
M  V30 1441 H 134.712 7.09834 -3.22113 0
M  V30 1442 N 138.941 1.26152 0.944643 0
M  V30 1443 C 139.904 1.07474 2.0244 0
M  V30 1444 C 140.904 0.0242064 1.60782 0
M  V30 1445 O 142.094 0.267302 1.72137 0
M  V30 1446 C 139.226 0.633956 3.34953 0
M  V30 1447 H 140.419 2.03336 2.20442 0
M  V30 1448 H 137.972 1.087 1.12312 0
M  V30 1449 H 138.707 -0.326811 3.22649 0
M  V30 1450 H 138.492 1.39247 3.66542 0
M  V30 1451 H 139.982 0.52501 4.14287 0
M  V30 1452 N 140.419 -1.14872 1.07899 0
M  V30 1453 C 141.644 -1.90202 0.826926 0
M  V30 1454 C 142.069 -1.77774 -0.614664 0
M  V30 1455 O 141.427 -1.11431 -1.43013 0
M  V30 1456 C 141.475 -3.38352 1.24702 0
M  V30 1457 O 140.579 -4.10497 0.39575 0
M  V30 1458 H 139.92 -0.591968 0.300782 0
M  V30 1459 H 142.45 -1.45437 1.43907 0
M  V30 1460 H 142.46 -3.89156 1.22563 0
M  V30 1461 H 141.135 -3.46715 2.29698 0
M  V30 1462 H 139.712 -3.69796 0.480117 0
M  V30 1463 N 141.898 -0.863906 -1.31812 0
M  V30 1464 C 142.845 -0.313303 -2.28664 0
M  V30 1465 C 143.815 0.584868 -1.55462 0
M  V30 1466 O 145 0.517805 -1.83639 0
M  V30 1467 C 142.14 0.48441 -3.41683 0
M  V30 1468 C 141.253 -0.440594 -4.29747 0
M  V30 1469 C 140.388 0.370652 -5.29905 0
M  V30 1470 C 139.427 -0.551164 -6.09613 0
M  V30 1471 N 138.564 0.223462 -7.01744 0
M  V30 1472 H 143.404 -1.14444 -2.75148 0
M  V30 1473 H 140.941 -0.575769 -1.35364 0
M  V30 1474 H 142.899 0.962627 -4.05943 0
M  V30 1475 H 141.529 1.28029 -2.96325 0
M  V30 1476 H 140.581 -1.03724 -3.65986 0
M  V30 1477 H 141.893 -1.14767 -4.85417 0
M  V30 1478 H 141.047 0.911638 -5.99812 0
M  V30 1479 H 139.786 1.11105 -4.74876 0
M  V30 1480 H 138.791 -1.10396 -5.38603 0
M  V30 1481 H 140.016 -1.29032 -6.66729 0
M  V30 1482 H 137.962 0.946787 -6.49132 0
M  V30 1483 H 137.879 -0.424399 -7.54808 0
M  V30 1484 H 139.147 0.745876 -7.75923 0
M  V30 1485 N 143.376 1.44774 -0.622745 0
M  V30 1486 C 144.601 2.06999 -0.128968 0
M  V30 1487 C 145.026 1.4617 1.1839 0
M  V30 1488 O 144.384 0.560007 1.72434 0
M  V30 1489 C 144.432 3.60595 -0.0188351 0
M  V30 1490 O 143.536 3.99398 1.02739 0
M  V30 1491 H 142.877 0.659047 -0.0809544 0
M  V30 1492 H 145.407 1.85784 -0.85705 0
M  V30 1493 H 145.417 4.07627 0.174476 0
M  V30 1494 H 144.092 4.04252 -0.977384 0
M  V30 1495 H 142.669 3.64011 0.809326 0
M  V30 1496 N 144.854 0.36279 1.53368 0
M  V30 1497 C 146.101 -0.227776 2.01215 0
M  V30 1498 C 146.429 -1.49003 1.25014 0
M  V30 1499 O 145.684 -1.92876 0.331236 0
M  V30 1500 C 145.983 -0.568417 3.52851 0
M  V30 1501 C 145.649 0.59918 4.46901 0
M  V30 1502 C 144.311 0.919559 4.72332 0
M  V30 1503 C 146.663 1.38156 5.02556 0
M  V30 1504 C 143.991 2.02434 5.5067 0
M  V30 1505 C 146.343 2.47674 5.821 0
M  V30 1506 C 145.007 2.8025 6.05819 0
M  V30 1507 H 144.277 -0.083349 0.736297 0
M  V30 1508 H 146.924 0.494677 1.85001 0
M  V30 1509 H 145.229 -1.37185 3.66998 0
M  V30 1510 H 146.926 -1.03756 3.87344 0
M  V30 1511 H 143.516 0.339437 4.27254 0
M  V30 1512 H 147.7 1.14729 4.82857 0
M  V30 1513 H 142.956 2.28075 5.67267 0
M  V30 1514 H 147.13 3.08716 6.24234 0
M  V30 1515 H 144.757 3.65979 6.66306 0
M  V30 1516 N 146.332 -1.57332 0.0918853 0
M  V30 1517 C 147.748 -1.57389 -0.264766 0
M  V30 1518 C 147.948 -1.10281 -1.68643 0
M  V30 1519 O 147.004 -0.777801 -2.40222 0
M  V30 1520 C 148.317 -3.00648 -0.0561195 0
M  V30 1521 C 149.865 -3.12754 -0.124116 0
M  V30 1522 C 150.34 -4.57965 0.0564972 0
M  V30 1523 N 151.831 -4.632 0.00155611 0
M  V30 1524 C 152.566 -5.73281 0.116598 0
M  V30 1525 N 152.062 -6.92208 0.286294 0
M  V30 1526 N 153.855 -5.6207 0.0580973 0
M  V30 1527 H 146.006 -1.86262 1.02079 0
M  V30 1528 H 148.269 -0.859579 0.399786 0
M  V30 1529 H 147.975 -3.393 0.925669 0
M  V30 1530 H 147.849 -3.68623 -0.799823 0
M  V30 1531 H 150.236 -2.73976 -1.09641 0
M  V30 1532 H 150.317 -2.47377 0.651024 0
M  V30 1533 H 149.961 -4.97436 1.02564 0
M  V30 1534 H 149.891 -5.21399 -0.738297 0
M  V30 1535 H 152.382 -3.77686 -0.127192 0
M  V30 1536 H 152.695 -7.71934 0.365676 0
M  V30 1537 H 151.04 -6.94254 0.32192 0
M  V30 1538 H 154.231 -4.68043 -0.0733204 0
M  V30 1539 H 154.404 -6.47824 0.151203 0
M  V30 1540 N 147.81 0.181792 -1.56548 0
M  V30 1541 C 148.76 1.22961 -1.92002 0
M  V30 1542 C 149.744 1.40331 -0.787146 0
M  V30 1543 O 150.936 1.42478 -1.05019 0
M  V30 1544 C 148.065 2.57144 -2.27446 0
M  V30 1545 C 147.151 2.43512 -3.47222 0
M  V30 1546 N 147.542 1.99577 -4.64761 0
M  V30 1547 C 145.84 2.74368 -3.51622 0
M  V30 1548 C 146.541 1.98156 -5.46909 0
M  V30 1549 N 145.517 2.40164 -4.8767 0
M  V30 1550 H 149.319 0.881462 -2.8037 0
M  V30 1551 H 146.833 0.390141 -1.57644 0
M  V30 1552 H 148.83 3.32847 -2.51035 0
M  V30 1553 H 147.49 2.92771 -1.40411 0
M  V30 1554 H 148.501 1.70078 -4.89177 0
M  V30 1555 H 145.178 3.14102 -2.75038 0
M  V30 1556 H 146.568 1.65975 -6.51077 0
M  V30 1557 N 149.288 1.51039 0.449983 0
M  V30 1558 C 150.699 1.557 1.03026 0
M  V30 1559 C 151.05 0.372939 1.92623 0
M  V30 1560 O 150.175 -0.511771 2.10261 0
M  V30 1561 C 150.77 2.82171 1.87523 0
M  V30 1562 C 149.329 2.89444 2.40622 0
M  V30 1563 C 148.476 2.50228 1.19504 0
M  V30 1564 H 151.427 1.56999 0.231745 0
M  V30 1565 H 151.448 2.65219 2.72835 0
M  V30 1566 H 150.96 3.68331 1.22286 0
M  V30 1567 H 149.061 2.07685 3.0935 0
M  V30 1568 H 149.174 3.92816 2.74285 0
M  V30 1569 H 147.538 2.03139 1.53644 0
M  V30 1570 H 148.321 3.38719 0.558972 0
M  V30 1571 N 150.766 -0.704594 1.40972 0
M  V30 1572 C 152.014 -1.46169 1.39568 0
M  V30 1573 C 152.335 -1.95 0.00253745 0
M  V30 1574 O 151.605 -1.71095 -0.954114 0
M  V30 1575 H 150.185 -0.542326 0.513704 0
M  V30 1576 H 152.847 -0.834553 1.76128 0
M  V30 1577 H 151.943 -2.32922 2.07735 0
M  V30 1578 N 152.244 -1.26651 -0.937939 0
M  V30 1579 C 153.474 -1.15006 -1.71631 0
M  V30 1580 C 153.882 0.297026 -1.86854 0
M  V30 1581 O 153.225 1.21493 -1.37786 0
M  V30 1582 C 153.287 -1.74984 -3.14039 0
M  V30 1583 C 152.951 -3.24103 -3.2219 0
M  V30 1584 C 153.948 -4.20877 -3.05219 0
M  V30 1585 C 151.633 -3.64625 -3.45476 0
M  V30 1586 C 153.627 -5.56151 -3.11408 0
M  V30 1587 C 151.314 -5.00032 -3.513 0
M  V30 1588 C 152.312 -5.95604 -3.34282 0
M  V30 1589 O 152 -7.28545 -3.3982 0
M  V30 1590 H 151.732 -0.401183 -0.544085 0
M  V30 1591 H 154.286 -1.67832 -1.18413 0
M  V30 1592 H 152.516 -1.16624 -3.68695 0
M  V30 1593 H 154.205 -1.58199 -3.73802 0
M  V30 1594 H 154.971 -3.90908 -2.87081 0
M  V30 1595 H 150.85 -2.90718 -3.57777 0
M  V30 1596 H 154.394 -6.30727 -2.98043 0
M  V30 1597 H 150.291 -5.29659 -3.68959 0
M  V30 1598 H 151.059 -7.3686 -3.56343 0
M  V30 1599 N 153.722 1.14298 -1.08507 0
M  V30 1600 C 154.947 1.8976 -0.837001 0
M  V30 1601 C 155.372 1.78097 0.605228 0
M  V30 1602 O 154.73 1.12188 1.4242 0
M  V30 1603 C 154.778 3.37685 -1.26495 0
M  V30 1604 O 153.882 4.10281 -0.417514 0
M  V30 1605 H 153.223 0.590365 -0.303917 0
M  V30 1606 H 155.753 1.44672 -1.44676 0
M  V30 1607 H 155.763 3.88501 -1.24625 0
M  V30 1608 H 154.438 3.45492 -2.31534 0
M  V30 1609 H 153.015 3.69536 -0.499722 0
M  V30 1610 N 155.201 0.870884 1.31352 0
M  V30 1611 C 156.429 0.49677 2.00848 0
M  V30 1612 C 156.844 -0.910998 1.65367 0
M  V30 1613 O 156.201 -1.59696 0.883374 0
M  V30 1614 C 156.252 0.645308 3.55694 0
M  V30 1615 O 155.973 1.99764 3.89905 0
M  V30 1616 C 157.474 0.272326 4.42463 0
M  V30 1617 H 154.694 0.193462 0.642506 0
M  V30 1618 H 157.238 1.1723 1.67563 0
M  V30 1619 H 155.393 0.0173176 3.87396 0
M  V30 1620 H 155.807 2.00607 4.84621 0
M  V30 1621 H 157.281 0.427208 5.50344 0
M  V30 1622 H 157.758 -0.788587 4.32062 0
M  V30 1623 H 158.364 0.876054 4.1618 0
M  V30 1624 N 156.679 -1.44442 0.630414 0
M  V30 1625 C 157.611 -2.2892 -0.113347 0
M  V30 1626 C 158.624 -1.41243 -0.80959 0
M  V30 1627 O 159.813 -1.65402 -0.671156 0
M  V30 1628 C 156.913 -3.17594 -1.18266 0
M  V30 1629 C 156.086 -4.33682 -0.569073 0
M  V30 1630 C 155.145 -5.03397 -1.53226 0
M  V30 1631 O 154.171 -5.59438 -1.04967 0
M  V30 1632 N 155.373 -5.04783 -2.86661 0
M  V30 1633 H 158.138 -2.93392 0.611636 0
M  V30 1634 H 155.699 -1.54881 0.471523 0
M  V30 1635 H 157.691 -3.61097 -1.82732 0
M  V30 1636 H 156.261 -2.54876 -1.80988 0
M  V30 1637 H 155.481 -3.9338 0.254187 0
M  V30 1638 H 156.769 -5.08608 -0.139767 0
M  V30 1639 H 156.167 -4.60584 -3.28449 0
M  V30 1640 H 154.724 -5.52077 -3.46489 0
M  V30 1641 N 158.157 -0.370918 -1.53173 0
M  V30 1642 C 159.385 0.217704 -2.05751 0
M  V30 1643 C 159.8 1.42018 -1.24404 0
M  V30 1644 O 159.157 1.80245 -0.286033 0
M  V30 1645 C 159.208 0.605954 -3.56385 0
M  V30 1646 O 158.929 -0.548734 -4.3465 0
M  V30 1647 C 160.43 1.2524 -4.25241 0
M  V30 1648 H 157.65 0.0371659 -0.66997 0
M  V30 1649 H 160.194 -0.530832 -1.9749 0
M  V30 1650 H 158.349 1.3044 -3.6478 0
M  V30 1651 H 158.763 -0.23376 -5.23979 0
M  V30 1652 H 160.237 1.47458 -5.3194 0
M  V30 1653 H 160.714 2.2143 -3.79296 0
M  V30 1654 H 161.32 0.595233 -4.21114 0
M  V30 1655 N 159.635 1.57281 -0.100228 0
M  V30 1656 C 160.585 2.10848 0.86759 0
M  V30 1657 C 161.569 1.02473 1.24049 0
M  V30 1658 O 162.761 1.28739 1.21471 0
M  V30 1659 C 159.89 2.69648 2.12474 0
M  V30 1660 C 158.976 3.85074 1.77704 0
M  V30 1661 N 159.367 4.92897 1.13518 0
M  V30 1662 C 157.665 3.94905 2.07282 0
M  V30 1663 C 158.366 5.73475 0.974735 0
M  V30 1664 N 157.342 5.22675 1.4937 0
M  V30 1665 H 161.144 2.91594 0.367471 0
M  V30 1666 H 158.658 1.62074 0.102829 0
M  V30 1667 H 160.655 3.06356 2.82757 0
M  V30 1668 H 159.315 1.90359 2.63047 0
M  V30 1669 H 160.326 5.11662 0.801381 0
M  V30 1670 H 157.003 3.26633 2.60033 0
M  V30 1671 H 158.393 6.70238 0.472364 0
M  V30 1672 N 161.113 -0.173488 1.56642 0
M  V30 1673 C 162.359 -0.891784 1.8214 0
M  V30 1674 C 162.692 -1.8199 0.677736 0
M  V30 1675 O 161.967 -1.91842 -0.320446 0
M  V30 1676 C 162.25 -1.68933 3.18015 0
M  V30 1677 C 162.103 -0.784487 4.42906 0
M  V30 1678 C 163.422 -2.65748 3.50808 0
M  V30 1679 H 160.541 -0.322761 0.662567 0
M  V30 1680 H 163.183 -0.158095 1.89341 0
M  V30 1681 H 161.333 -2.31482 3.12007 0
M  V30 1682 H 163.005 -0.172046 4.60979 0
M  V30 1683 H 161.248 -0.0924117 4.33702 0
M  V30 1684 H 161.919 -1.37799 5.34524 0
M  V30 1685 H 164.395 -2.13327 3.57255 0
M  V30 1686 H 163.271 -3.18619 4.4696 0
M  V30 1687 H 163.532 -3.45842 2.75401 0
M  V30 1688 N 162.591 -1.51276 -0.441967 0
M  V30 1689 C 163.539 -1.72823 -1.55676 0
M  V30 1690 C 164.533 -0.59445 -1.58627 0
M  V30 1691 O 165.739 -0.775715 -1.62427 0
M  V30 1692 H 162.114 -0.545983 -0.517113 0
M  V30 1693 H 164.085 -2.6628 -1.34675 0
M  V30 1694 C 162.834 -1.86619 -2.93375 0
M  V30 1695 H 162.157 -2.73264 -2.91834 0
M  V30 1696 H 163.597 -2.05709 -3.70756 0
M  V30 1697 C 162.056 -0.624842 -3.31055 0
M  V30 1698 O 162.586 0.222636 -4.01083 0
M  V30 1699 N 160.792 -0.470288 -2.86769 0
M  V30 1700 H 160.339 -1.161 -2.29953 0
M  V30 1701 H 160.297 0.359051 -3.12343 0
M  V30 1702 N 164.069 0.697108 -1.41344 0
M  V30 1703 C 165.346 1.45154 -1.31109 0
M  V30 1704 C 165.726 2.11009 0.0620449 0
M  V30 1705 O 165.074 2.01571 1.07618 0
M  V30 1706 C 165.284 2.47223 -2.46337 0
M  V30 1707 C 166.632 3.1252 -2.87431 0
M  V30 1708 O 167.656 2.57547 -2.46065 0
M  V30 1709 O 166.515 4.12083 -3.58957 0
M  V30 1710 H 163.609 0.646365 -0.515889 0
M  V30 1711 H 166.155 0.727716 -1.53305 0
M  V30 1712 H 164.927 1.97204 -3.37974 0
M  V30 1713 H 164.55 3.27116 -2.2601 0
M  V30 1714 N 165.547 1.27147 0.931209 0
M  V30 1715 C 166.477 1.12081 2.04842 0
M  V30 1716 C 167.458 0.0232364 1.70084 0
M  V30 1717 O 168.643 0.197085 1.93197 0
M  V30 1718 C 165.773 0.76354 3.38803 0
M  V30 1719 C 164.727 1.81396 3.87659 0
M  V30 1720 C 164.053 1.31075 5.18385 0
M  V30 1721 C 165.353 3.21739 4.11438 0
M  V30 1722 H 167.047 2.05537 2.17703 0
M  V30 1723 H 164.593 0.989603 1.04608 0
M  V30 1724 H 166.546 0.644982 4.16435 0
M  V30 1725 H 165.27 -0.206727 3.25945 0
M  V30 1726 H 163.929 1.92136 3.12217 0
M  V30 1727 H 163.577 0.330037 5.01916 0
M  V30 1728 H 163.277 2.013 5.52044 0
M  V30 1729 H 164.801 1.20506 5.98591 0
M  V30 1730 H 166.215 3.14019 4.79651 0
M  V30 1731 H 164.612 3.89644 4.56397 0
M  V30 1732 H 165.682 3.67054 3.16859 0
M  V30 1733 N 167.025 -1.13721 1.09112 0
M  V30 1734 C 167.958 -2.18094 0.67158 0
M  V30 1735 C 168.936 -1.59414 -0.320299 0
M  V30 1736 O 170.12 -1.87183 -0.222444 0
M  V30 1737 C 167.247 -3.38698 -0.0111189 0
M  V30 1738 C 166.293 -4.15966 0.942055 0
M  V30 1739 S 167.126 -4.7604 2.45246 0
M  V30 1740 C 168.282 -5.99994 1.78208 0
M  V30 1741 H 168.515 -2.53344 1.55577 0
M  V30 1742 H 166.048 -1.24967 0.906789 0
M  V30 1743 H 168.006 -4.08559 -0.398716 0
M  V30 1744 H 166.667 -3.01756 -0.871905 0
M  V30 1745 H 165.86 -5.02318 0.411396 0
M  V30 1746 H 165.462 -3.51745 1.2709 0
M  V30 1747 H 167.754 -6.68441 1.10424 0
M  V30 1748 H 168.697 -6.57662 2.62463 0
M  V30 1749 H 169.105 -5.50432 1.25238 0
M  V30 1750 N 168.503 -0.877838 -1.30888 0
M  V30 1751 C 169.433 -0.35534 -2.3078 0
M  V30 1752 C 170.414 0.557994 -1.60687 0
M  V30 1753 O 171.599 0.473355 -1.88343 0
M  V30 1754 C 168.729 0.437221 -3.44537 0
M  V30 1755 C 167.683 -0.383715 -4.26276 0
M  V30 1756 C 167.009 0.535014 -5.32017 0
M  V30 1757 C 168.309 -1.62201 -4.96476 0
M  V30 1758 H 170.003 -1.19007 -2.74732 0
M  V30 1759 H 167.549 -0.573698 -1.32078 0
M  V30 1760 H 169.502 0.813334 -4.13477 0
M  V30 1761 H 168.226 1.30553 -2.99372 0
M  V30 1762 H 166.885 -0.741874 -3.59015 0
M  V30 1763 H 166.533 1.40083 -4.831 0
M  V30 1764 H 166.233 -0.0104211 -5.87599 0
M  V30 1765 H 167.757 0.907799 -6.03814 0
M  V30 1766 H 169.171 -1.31689 -5.5797 0
M  V30 1767 H 167.568 -2.10711 -5.61891 0
M  V30 1768 H 168.638 -2.37044 -4.23011 0
M  V30 1769 N 169.982 1.44106 -0.638065 0
M  V30 1770 C 171.228 2.02277 -0.145546 0
M  V30 1771 C 171.561 1.50125 1.23191 0
M  V30 1772 O 170.836 0.688133 1.8192 0
M  V30 1773 C 171.119 3.59829 -0.139791 0
M  V30 1774 C 170.972 4.22247 -1.55008 0
M  V30 1775 C 172.291 4.36873 0.531966 0
M  V30 1776 H 169.41 0.734992 -0.0543632 0
M  V30 1777 H 172.052 1.71592 -0.815863 0
M  V30 1778 H 170.202 3.86102 0.431007 0
M  V30 1779 H 171.874 4.07057 -2.1703 0
M  V30 1780 H 170.117 3.79476 -2.10191 0
M  V30 1781 H 170.788 5.31284 -1.49804 0
M  V30 1782 H 173.264 4.16074 0.0464781 0
M  V30 1783 H 172.14 5.4657 0.505206 0
M  V30 1784 H 172.401 4.11995 1.60352 0
M  V30 1785 N 171.46 0.379036 1.52974 0
M  V30 1786 C 172.407 -0.461048 2.26148 0
M  V30 1787 C 173.377 -1.06637 1.27349 0
M  V30 1788 O 174.562 -1.09633 1.56157 0
M  V30 1789 C 171.702 -1.58782 3.06402 0
M  V30 1790 C 170.815 -1.00636 4.20115 0
M  V30 1791 C 169.95 -2.10334 4.87784 0
M  V30 1792 C 168.989 -1.49724 5.93506 0
M  V30 1793 N 168.126 -2.5331 6.54812 0
M  V30 1794 H 172.966 0.169429 2.97518 0
M  V30 1795 H 170.503 0.0953806 1.4679 0
M  V30 1796 H 172.461 -2.25174 3.51215 0
M  V30 1797 H 171.091 -2.18876 2.37261 0
M  V30 1798 H 170.143 -0.232332 3.7969 0
M  V30 1799 H 171.455 -0.523343 4.96047 0
M  V30 1800 H 170.609 -2.84519 5.35849 0
M  V30 1801 H 169.348 -2.61992 4.11353 0
M  V30 1802 H 168.353 -0.740598 5.44789 0
M  V30 1803 H 169.578 -0.988732 6.71864 0
M  V30 1804 H 167.524 -3.04156 5.81227 0
M  V30 1805 H 167.441 -2.09734 7.26325 0
M  V30 1806 H 168.709 -3.27155 7.07524 0
M  V30 1807 N 172.938 -1.57226 0.108567 0
M  V30 1808 C 173.868 -2.17778 -0.84232 0
M  V30 1809 C 174.849 -1.11487 -1.2847 0
M  V30 1810 O 176.034 -1.39681 -1.34918 0
M  V30 1811 C 173.164 -2.76888 -2.09644 0
M  V30 1812 C 172.118 -3.88669 -1.79221 0
M  V30 1813 C 171.444 -4.34541 -3.11574 0
M  V30 1814 C 172.744 -5.11251 -1.06864 0
M  V30 1815 H 174.438 -2.97489 -0.337774 0
M  V30 1816 H 171.984 -1.43097 -0.161025 0
M  V30 1817 H 173.937 -3.17904 -2.76614 0
M  V30 1818 H 172.661 -1.94451 -2.62405 0
M  V30 1819 H 171.32 -3.48213 -1.14644 0
M  V30 1820 H 170.968 -3.48977 -3.62249 0
M  V30 1821 H 170.668 -5.09914 -2.91996 0
M  V30 1822 H 172.192 -4.782 -3.7968 0
M  V30 1823 H 173.606 -5.49352 -1.63968 0
M  V30 1824 H 172.003 -5.9214 -0.974178 0
M  V30 1825 H 173.073 -4.8487 -0.0536168 0
M  V30 1826 N 174.416 0.165178 -1.56732 0
M  V30 1827 C 175.364 1.22369 -1.97809 0
M  V30 1828 C 176.358 1.45488 -0.867741 0
M  V30 1829 O 177.564 1.45995 -1.05288 0
M  V30 1830 H 173.939 0.411486 -0.629431 0
M  V30 1831 H 175.91 0.850425 -2.86025 0
M  V30 1832 C 174.659 2.55403 -2.35934 0
M  V30 1833 H 173.982 2.38438 -3.20916 0
M  V30 1834 H 175.422 3.2814 -2.68514 0
M  V30 1835 C 173.881 3.14611 -1.20506 0
M  V30 1836 O 174.411 3.98626 -0.496016 0
M  V30 1837 N 172.617 2.7379 -0.97403 0
M  V30 1838 H 172.164 2.0557 -1.55238 0
M  V30 1839 H 172.122 3.1374 -0.203573 0
M  V30 1840 N 175.894 1.51508 0.433938 0
M  V30 1841 C 177.119 1.68443 1.21003 0
M  V30 1842 C 177.544 0.382636 1.84167 0
M  V30 1843 O 176.902 -0.65755 1.68956 0
M  V30 1844 C 176.95 2.80405 2.26727 0
M  V30 1845 O 176.054 2.44245 3.32292 0
M  V30 1846 H 175.395 0.561536 0.354363 0
M  V30 1847 H 177.925 1.9809 0.512024 0
M  V30 1848 H 177.935 3.0459 2.71457 0
M  V30 1849 H 176.61 3.74867 1.80132 0
M  V30 1850 H 175.187 2.30644 2.93015 0
M  V30 1851 N 177.372 -0.689602 1.41712 0
M  V30 1852 C 178.304 -1.815 1.39966 0
M  V30 1853 C 179.317 -1.59995 0.300917 0
M  V30 1854 O 180.506 -1.69387 0.563039 0
M  V30 1855 C 177.606 -3.18364 1.16179 0
M  V30 1856 C 176.779 -3.66847 2.38206 0
M  V30 1857 C 175.838 -4.82398 2.10186 0
M  V30 1858 O 174.864 -4.93706 2.83272 0
M  V30 1859 N 176.066 -5.70064 1.0958 0
M  V30 1860 H 178.831 -1.83488 2.36965 0
M  V30 1861 H 176.392 -0.872149 1.36401 0
M  V30 1862 H 178.384 -3.93301 0.953756 0
M  V30 1863 H 176.954 -3.11365 0.27756 0
M  V30 1864 H 176.174 -2.82751 2.74673 0
M  V30 1865 H 177.462 -3.95978 3.19498 0
M  V30 1866 H 176.86 -5.63565 0.491019 0
M  V30 1867 H 175.417 -6.44874 0.947656 0
M  V30 1868 N 178.85 -1.27639 -0.924453 0
M  V30 1869 C 179.813 -1.10681 -2.00705 0
M  V30 1870 C 180.813 -0.0497823 -1.60723 0
M  V30 1871 O 182.003 -0.294654 -1.7169 0
M  V30 1872 C 179.135 -0.687164 -3.33902 0
M  V30 1873 H 180.328 -2.06817 -2.17179 0
M  V30 1874 H 177.881 -1.10473 -1.10569 0
M  V30 1875 H 178.616 0.275439 -3.23128 0
M  V30 1876 H 178.401 -1.45061 -3.6428 0
M  V30 1877 H 179.891 -0.590853 -4.13399 0
M  V30 1878 N 180.328 1.1314 -1.09713 0
M  V30 1879 C 181.744 1.36477 -0.827423 0
M  V30 1880 C 181.944 1.93654 0.556817 0
M  V30 1881 O 181 2.15791 1.31112 0
M  V30 1882 C 182.313 2.31334 -1.92106 0
M  V30 1883 C 183.861 2.44943 -1.94864 0
M  V30 1884 C 184.336 3.4311 -3.0338 0
M  V30 1885 N 185.827 3.50662 -3.02639 0
M  V30 1886 C 186.562 4.2651 -3.83246 0
M  V30 1887 N 186.058 5.05485 -4.73768 0
M  V30 1888 N 187.851 4.2184 -3.71493 0
M  V30 1889 H 180.002 0.743807 -1.9895 0
M  V30 1890 H 182.265 0.389823 -0.864143 0
M  V30 1891 H 181.971 1.96483 -2.91698 0
M  V30 1892 H 181.845 3.31381 -1.80184 0
M  V30 1893 H 184.232 2.79079 -0.959099 0
M  V30 1894 H 184.313 1.4481 -2.10864 0
M  V30 1895 H 183.957 3.09704 -4.02549 0
M  V30 1896 H 183.887 4.43055 -2.84622 0
M  V30 1897 H 186.378 2.94315 -2.37039 0
M  V30 1898 H 186.691 5.60675 -5.3185 0
M  V30 1899 H 185.036 5.04708 -4.77802 0
M  V30 1900 H 188.227 3.5922 -3.00131 0
M  V30 1901 H 188.4 4.80697 -4.3455 0
M  V30 1902 N 181.806 0.884767 1.30421 0
M  V30 1903 C 182.736 0.367574 2.30589 0
M  V30 1904 C 183.717 -0.549464 1.60981 0
M  V30 1905 O 184.902 -0.46336 1.88591 0
M  V30 1906 C 182.032 -0.418944 3.44764 0
M  V30 1907 C 180.986 0.406316 4.26067 0
M  V30 1908 C 180.312 -0.506793 5.32293 0
M  V30 1909 C 181.612 1.64832 4.95608 0
M  V30 1910 H 183.306 1.20462 2.74097 0
M  V30 1911 H 180.852 0.580695 1.31772 0
M  V30 1912 H 182.805 -0.791395 4.13902 0
M  V30 1913 H 181.529 -1.28964 3.0006 0
M  V30 1914 H 180.188 0.760903 3.58617 0
M  V30 1915 H 179.836 -1.37519 4.83836 0
M  V30 1916 H 179.536 0.0415828 5.87585 0
M  V30 1917 H 181.06 -0.875764 6.04287 0
M  V30 1918 H 182.474 1.34646 5.57264 0
M  V30 1919 H 180.871 2.13688 5.60765 0
M  V30 1920 H 181.941 2.39284 4.21748 0
M  V30 1921 N 183.284 -1.43765 0.645699 0
M  V30 1922 C 184.509 -2.06767 0.161883 0
M  V30 1923 C 184.934 -1.48034 -1.16049 0
M  V30 1924 O 184.292 -0.587369 -1.71522 0
M  V30 1925 C 184.34 -3.60519 0.0762003 0
M  V30 1926 O 183.444 -4.00982 -0.963721 0
M  V30 1927 H 182.785 -0.657675 0.091429 0
M  V30 1928 H 185.315 -1.84397 0.886499 0
M  V30 1929 H 185.325 -4.07853 -0.109604 0
M  V30 1930 H 184 -4.02646 1.04157 0
M  V30 1931 H 182.577 -3.65253 -0.751312 0
M  V30 1932 N 184.763 -0.387143 -1.52771 0
M  V30 1933 C 185.988 0.198407 -2.06449 0
M  V30 1934 C 186.413 1.39918 -1.25716 0
M  V30 1935 O 185.771 1.79099 -0.281657 0
M  V30 1936 C 185.819 0.548893 -3.56398 0
M  V30 1937 O 184.923 1.64315 -3.78252 0
M  V30 1938 H 184.264 0.0237731 -0.663574 0
M  V30 1939 H 186.794 -0.553989 -1.96957 0
M  V30 1940 H 186.804 0.813812 -3.99801 0
M  V30 1941 H 185.479 -0.329005 -4.14597 0
M  V30 1942 H 184.056 1.37211 -3.46738 0
M  V30 1943 N 186.241 1.57166 -0.116904 0
M  V30 1944 C 187.174 2.10912 0.871291 0
M  V30 1945 C 188.152 1.025 1.26224 0
M  V30 1946 O 189.336 1.3014 1.36366 0
M  V30 1947 C 186.463 2.6041 2.16574 0
M  V30 1948 C 185.509 3.80687 1.92302 0
M  V30 1949 S 186.342 5.23199 1.14119 0
M  V30 1950 C 187.498 5.76064 2.44748 0
M  V30 1951 H 187.731 2.94401 0.414138 0
M  V30 1952 H 185.264 1.54096 0.096829 0
M  V30 1953 H 187.222 2.89583 2.9095 0
M  V30 1954 H 185.883 1.77106 2.59408 0
M  V30 1955 H 185.076 4.13462 2.8821 0
M  V30 1956 H 184.678 3.5212 1.26047 0
M  V30 1957 H 186.97 5.8566 3.406 0
M  V30 1958 H 187.913 6.74184 2.16521 0
M  V30 1959 H 188.321 5.04117 2.54019 0
M  V30 1960 N 187.719 -0.156864 1.56817 0
M  V30 1961 C 188.965 -0.872416 1.83076 0
M  V30 1962 C 189.298 -1.81261 0.697001 0
M  V30 1963 O 188.573 -1.92171 -0.30008 0
M  V30 1964 C 188.856 -1.65551 3.19789 0
M  V30 1965 C 188.709 -0.737467 4.43713 0
M  V30 1966 C 190.028 -2.62012 3.53606 0
M  V30 1967 H 187.147 -0.315715 0.665953 0
M  V30 1968 H 189.789 -0.138004 1.89498 0
M  V30 1969 H 187.939 -2.28159 3.14445 0
M  V30 1970 H 189.611 -0.123143 4.61136 0
M  V30 1971 H 187.854 -0.0464067 4.33775 0
M  V30 1972 H 188.525 -1.32122 5.35955 0
M  V30 1973 H 191.001 -2.09525 3.59497 0
M  V30 1974 H 189.877 -3.13861 4.50314 0
M  V30 1975 H 190.138 -3.42902 2.79053 0
M  V30 1976 N 189.197 -1.51736 -0.425897 0
M  V30 1977 C 190.144 -1.73875 -1.51776 0
M  V30 1978 C 191.114 -0.580702 -1.55618 0
M  V30 1979 O 192.299 -0.81641 -1.72451 0
M  V30 1980 C 189.439 -1.88012 -2.89388 0
M  V30 1981 C 188.552 -3.15606 -2.94986 0
M  V30 1982 C 187.687 -3.20271 -4.23793 0
M  V30 1983 C 186.726 -4.42134 -4.23302 0
M  V30 1984 N 185.863 -4.44284 -5.43651 0
M  V30 1985 H 190.703 -2.67071 -1.32201 0
M  V30 1986 H 188.24 -1.32351 -0.642008 0
M  V30 1987 H 190.198 -1.9419 -3.69251 0
M  V30 1988 H 188.828 -0.98213 -3.07496 0
M  V30 1989 H 187.88 -3.18681 -2.07717 0
M  V30 1990 H 189.192 -4.05486 -2.90486 0
M  V30 1991 H 188.346 -3.25428 -5.12036 0
M  V30 1992 H 187.085 -2.28299 -4.30965 0
M  V30 1993 H 186.09 -4.3714 -3.3345 0
M  V30 1994 H 187.315 -5.35382 -4.17783 0
M  V30 1995 H 185.261 -3.55188 -5.51523 0
M  V30 1996 H 185.178 -5.27988 -5.41078 0
M  V30 1997 H 186.446 -4.53649 -6.33895 0
M  V30 1998 N 190.675 0.682077 -1.42076 0
M  V30 1999 C 191.622 1.79578 -1.44984 0
M  V30 2000 C 192.592 1.6332 -0.302614 0
M  V30 2001 O 193.777 1.83978 -0.505633 0
M  V30 2002 C 190.917 3.1756 -1.35091 0
M  V30 2003 C 190.03 3.45156 -2.59791 0
M  V30 2004 C 189.165 4.72826 -2.42093 0
M  V30 2005 C 188.204 4.93433 -3.62202 0
M  V30 2006 N 187.341 6.12338 -3.43491 0
M  V30 2007 H 192.181 1.76427 -2.40161 0
M  V30 2008 H 189.718 0.861376 -1.19242 0
M  V30 2009 H 191.676 3.97287 -1.27354 0
M  V30 2010 H 190.306 3.19854 -0.435133 0
M  V30 2011 H 189.358 2.59736 -2.77923 0
M  V30 2012 H 190.67 3.5628 -3.49094 0
M  V30 2013 H 189.824 5.60631 -2.319 0
M  V30 2014 H 188.563 4.63973 -1.50268 0
M  V30 2015 H 187.568 4.04073 -3.72834 0
M  V30 2016 H 188.793 5.04136 -4.54998 0
M  V30 2017 H 186.739 6.04672 -2.54377 0
M  V30 2018 H 186.656 6.2429 -4.26377 0
M  V30 2019 H 187.924 7.02841 -3.37097 0
M  V30 2020 N 192.153 1.28127 0.917671 0
M  V30 2021 C 193.399 1.15223 1.66888 0
M  V30 2022 C 193.732 -0.299293 1.9188 0
M  V30 2023 O 193.007 -1.21805 1.51637 0
M  V30 2024 C 193.29 1.94706 3.02922 0
M  V30 2025 C 193.143 3.47898 2.85109 0
M  V30 2026 C 194.462 1.75939 4.03402 0
M  V30 2027 H 191.581 0.419946 0.605652 0
M  V30 2028 H 194.223 1.57398 1.06423 0
M  V30 2029 H 192.373 1.58864 3.54534 0
M  V30 2030 H 194.045 3.93624 2.40537 0
M  V30 2031 H 192.288 3.7373 2.20246 0
M  V30 2032 H 192.959 3.98765 3.81694 0
M  V30 2033 H 195.435 2.07209 3.60837 0
M  V30 2034 H 194.311 2.33931 4.96556 0
M  V30 2035 H 194.572 0.709877 4.36364 0
M  V30 2036 N 193.631 -1.12557 1.10312 0
M  V30 2037 C 195.047 -1.36036 0.834649 0
M  V30 2038 C 195.247 -1.93946 -0.546539 0
M  V30 2039 O 194.303 -2.16484 -1.29966 0
M  V30 2040 C 195.616 -2.30312 1.9333 0
M  V30 2041 C 197.164 -2.43906 1.9616 0
M  V30 2042 C 197.639 -3.41496 3.05195 0
M  V30 2043 N 199.13 -3.49053 3.04494 0
M  V30 2044 C 199.865 -4.24471 3.85502 0
M  V30 2045 N 199.361 -5.02966 4.76442 0
M  V30 2046 N 201.154 -4.19864 3.73725 0
M  V30 2047 H 193.305 -0.733246 1.99342 0
M  V30 2048 H 195.568 -0.385234 0.866198 0
M  V30 2049 H 195.274 -1.94933 2.92735 0
M  V30 2050 H 195.148 -3.30421 1.81939 0
M  V30 2051 H 197.535 -2.78567 0.973886 0
M  V30 2052 H 197.616 -1.4369 2.11629 0
M  V30 2053 H 197.26 -3.07565 4.04186 0
M  V30 2054 H 197.19 -4.41539 2.86968 0
M  V30 2055 H 199.681 -2.93053 2.38596 0
M  V30 2056 H 199.994 -5.57846 5.34815 0
M  V30 2057 H 198.339 -5.02167 4.80472 0
M  V30 2058 H 201.53 -3.57623 3.02032 0
M  V30 2059 H 201.703 -4.78386 4.37093 0
M  V30 2060 N 195.109 -0.891671 -1.2995 0
M  V30 2061 C 196.039 -0.379797 -2.30391 0
M  V30 2062 C 197.02 0.540919 -1.6127 0
M  V30 2063 O 198.205 0.453352 -1.88834 0
M  V30 2064 C 195.335 0.400654 -3.44981 0
M  V30 2065 C 194.289 -0.428905 -4.25846 0
M  V30 2066 C 193.615 0.478557 -5.32554 0
M  V30 2067 C 194.915 -1.67458 -4.94727 0
M  V30 2068 H 196.609 -1.21914 -2.73454 0
M  V30 2069 H 194.155 -0.587675 -1.31462 0
M  V30 2070 H 196.108 0.769434 -4.14316 0
M  V30 2071 H 194.832 1.27371 -3.0074 0
M  V30 2072 H 193.491 -0.779911 -3.58208 0
M  V30 2073 H 193.139 1.34951 -4.84559 0
M  V30 2074 H 192.839 -0.0727433 -5.87555 0
M  V30 2075 H 194.363 0.843705 -6.04743 0
M  V30 2076 H 195.777 -1.376 -5.56542 0
M  V30 2077 H 194.174 -2.16659 -5.59624 0
M  V30 2078 H 195.244 -2.41518 -4.20473 0
M  V30 2079 N 196.587 1.43421 -0.653314 0
M  V30 2080 C 197.998 1.85065 -0.246537 0
M  V30 2081 C 198.349 1.54688 1.2069 0
M  V30 2082 O 197.474 0.995896 1.92122 0
M  V30 2083 C 198.069 3.35922 -0.440666 0
M  V30 2084 C 196.628 3.76297 -0.0882064 0
M  V30 2085 C 195.775 2.67147 -0.743484 0
M  V30 2086 H 198.726 1.33572 -0.856979 0
M  V30 2087 H 198.747 3.79204 0.313798 0
M  V30 2088 H 198.259 3.58 -1.49858 0
M  V30 2089 H 196.36 3.5983 0.96711 0
M  V30 2090 H 196.473 4.76338 -0.513738 0
M  V30 2091 H 194.837 2.54086 -0.176712 0
M  V30 2092 H 195.62 2.92053 -1.80443 0
M  V30 2093 N 198.065 0.39524 1.52563 0
M  V30 2094 C 199.29 -0.187456 2.06551 0
M  V30 2095 C 199.715 -1.39249 1.26457 0
M  V30 2096 O 199.073 -1.78947 0.291151 0
M  V30 2097 C 199.121 -0.529985 3.56684 0
M  V30 2098 O 198.225 -1.62307 3.79118 0
M  V30 2099 H 197.566 -0.0202537 0.663691 0
M  V30 2100 H 200.096 0.564426 1.96661 0
M  V30 2101 H 200.106 -0.792598 4.00227 0
M  V30 2102 H 198.781 0.350987 4.14416 0
M  V30 2103 H 197.358 -1.3537 3.47461 0
M  V30 2104 N 199.544 -1.57102 0.125237 0
M  V30 2105 C 200.96 -1.57915 -0.231322 0
M  V30 2106 C 201.16 -1.13833 -1.66266 0
M  V30 2107 O 200.216 -0.828581 -2.38518 0
M  V30 2108 C 201.529 -3.00699 0.00766489 0
M  V30 2109 C 203.077 -3.12947 -0.0577483 0
M  V30 2110 C 203.552 -4.57742 0.153626 0
M  V30 2111 N 205.043 -4.63092 0.0998073 0
M  V30 2112 C 205.778 -5.72905 0.238174 0
M  V30 2113 N 205.274 -6.91445 0.433057 0
M  V30 2114 N 207.067 -5.6182 0.177308 0
M  V30 2115 H 199.218 -1.84055 1.06007 0
M  V30 2116 H 201.481 -0.850905 0.417929 0
M  V30 2117 H 201.187 -3.3726 0.997431 0
M  V30 2118 H 201.061 -3.70236 -0.721452 0
M  V30 2119 H 203.448 -2.7624 -1.03804 0
M  V30 2120 H 203.529 -2.4594 0.70335 0
M  V30 2121 H 203.173 -4.95149 1.13092 0
M  V30 2122 H 203.103 -5.22848 -0.627534 0
M  V30 2123 H 205.594 -3.77871 -0.047051 0
M  V30 2124 H 205.907 -7.70985 0.529332 0
M  V30 2125 H 204.252 -6.93415 0.469109 0
M  V30 2126 H 207.443 -4.68093 0.0259748 0
M  V30 2127 H 207.616 -6.47357 0.288582 0
M  V30 2128 N 201.022 0.148545 -1.56898 0
M  V30 2129 C 202.262 0.86765 -1.85071 0
M  V30 2130 C 202.626 1.78417 -0.709317 0
M  V30 2131 O 203.827 2.54261 -0.872049 0
M  V30 2132 C 202.098 1.62306 -3.1842 0
M  V30 2133 S 203.657 2.3878 -3.68143 0
M  V30 2134 H 200.475 0.290174 -0.649092 0
M  V30 2135 H 203.077 0.127755 -1.95082 0
M  V30 2136 H 201.781 0.941192 -3.99462 0
M  V30 2137 H 201.312 2.4039 -3.1141 0
M  V30 2138 H 203.327 3.63942 -3.37285 0
M  V30 2139 N 202.5 1.5196 0.417844 0
M  V30 2140 C 203.41 1.77554 1.53336 0
M  V30 2141 C 204.426 0.660655 1.6097 0
M  V30 2142 O 205.602 0.945099 1.77848 0
M  V30 2143 C 202.667 1.91291 2.89152 0
M  V30 2144 C 201.728 3.15183 2.91475 0
M  V30 2145 C 200.961 3.28256 4.20813 0
M  V30 2146 O 201.184 2.46798 5.14244 0
M  V30 2147 O 200.118 4.21356 4.29817 0
M  V30 2148 H 203.944 2.7222 1.34647 0
M  V30 2149 H 201.529 1.36698 0.602828 0
M  V30 2150 H 203.411 2.02199 3.69721 0
M  V30 2151 H 202.086 0.998129 3.07927 0
M  V30 2152 H 200.993 3.09739 2.09791 0
M  V30 2153 H 202.326 4.06414 2.77648 0
M  V30 2154 N 203.978 -0.674533 1.42435 0
M  V30 2155 C 205.389 -1.25514 1.38214 0
M  V30 2156 C 205.74 -1.96055 0.0755464 0
M  V30 2157 O 204.865 -2.00028 -0.8257 0
M  V30 2158 C 205.46 -2.28269 2.50357 0
M  V30 2159 C 204.019 -2.81856 2.49467 0
M  V30 2160 C 203.166 -1.56182 2.29134 0
M  V30 2161 H 206.117 -0.467902 1.51646 0
M  V30 2162 H 206.138 -3.10009 2.20624 0
M  V30 2163 H 205.65 -1.769 3.45439 0
M  V30 2164 H 203.751 -3.37346 1.58204 0
M  V30 2165 H 203.864 -3.30854 3.46515 0
M  V30 2166 H 202.228 -1.82761 1.774 0
M  V30 2167 H 203.011 -1.06778 3.26272 0
M  V30 2168 N 205.456 -1.28612 -0.910864 0
M  V30 2169 C 206.867 -1.14406 -1.47541 0
M  V30 2170 C 207.218 0.264901 -1.94403 0
M  V30 2171 O 206.343 1.15942 -1.82719 0
M  V30 2172 C 206.938 -2.07073 -2.68153 0
M  V30 2173 C 205.497 -1.96923 -3.20778 0
M  V30 2174 C 204.644 -1.98646 -1.93481 0
M  V30 2175 H 207.595 -1.41259 -0.723291 0
M  V30 2176 H 207.616 -1.63642 -3.43514 0
M  V30 2177 H 207.128 -3.09611 -2.34015 0
M  V30 2178 H 205.229 -0.97433 -3.59635 0
M  V30 2179 H 205.342 -2.84026 -3.85832 0
M  V30 2180 H 203.706 -1.43093 -2.10705 0
M  V30 2181 H 204.489 -3.02868 -1.61634 0
M  V30 2182 N 206.934 1.1197 -1.10907 0
M  V30 2183 C 208.182 1.83225 -0.852819 0
M  V30 2184 C 208.503 1.84769 0.623341 0
M  V30 2185 O 207.773 1.3143 1.45269 0
M  V30 2186 H 206.353 0.67849 -0.312507 0
M  V30 2187 H 209.015 1.3556 -1.40033 0
M  V30 2188 H 208.111 2.87265 -1.22005 0
M  V30 2189 N 208.412 0.89855 1.29475 0
M  V30 2190 C 209.64 0.539261 1.99749 0
M  V30 2191 C 210.055 -0.875716 1.67262 0
M  V30 2192 O 209.412 -1.57786 0.917049 0
M  V30 2193 C 209.463 0.72061 3.54245 0
M  V30 2194 O 209.184 2.07989 3.8558 0
M  V30 2195 C 210.685 0.366118 4.41786 0
M  V30 2196 H 207.905 0.207047 0.638258 0
M  V30 2197 H 210.449 1.20758 1.65039 0
M  V30 2198 H 208.604 0.0994862 3.87272 0
M  V30 2199 H 209.018 2.10841 4.80257 0
M  V30 2200 H 210.492 0.543848 5.49314 0
M  V30 2201 H 210.969 -0.696763 4.33638 0
M  V30 2202 H 211.575 0.964135 4.14228 0
M  V30 2203 N 209.89 -1.43072 0.660911 0
M  V30 2204 C 211.118 -2.06067 0.185422 0
M  V30 2205 C 211.533 -1.49582 -1.15198 0
M  V30 2206 O 210.89 -0.630134 -1.71276 0
M  V30 2207 C 210.941 -3.61371 0.0966523 0
M  V30 2208 O 210.662 -4.15758 1.38119 0
M  V30 2209 C 212.163 -4.41455 -0.403996 0
M  V30 2210 H 209.383 -0.664459 0.0934604 0
M  V30 2211 H 211.927 -1.83447 0.90373 0
M  V30 2212 H 210.082 -3.8315 -0.572259 0
M  V30 2213 H 210.496 -5.09499 1.24542 0
M  V30 2214 H 211.97 -5.50437 -0.415045 0
M  V30 2215 H 212.447 -4.15036 -1.43674 0
M  V30 2216 H 213.053 -4.24663 0.232691 0
M  V30 2217 N 211.368 -0.403325 -1.52352 0
M  V30 2218 C 212.608 0.173946 -2.03659 0
M  V30 2219 C 212.972 1.42869 -1.28267 0
M  V30 2220 O 214.173 2.08403 -1.69769 0
M  V30 2221 C 212.444 0.421478 -3.54906 0
M  V30 2222 S 214.003 0.967027 -4.28012 0
M  V30 2223 H 210.821 0.0477461 -0.709395 0
M  V30 2224 H 213.423 -0.554906 -1.87459 0
M  V30 2225 H 212.127 -0.498616 -4.0736 0
M  V30 2226 H 211.658 1.17837 -3.75337 0
M  V30 2227 H 213.673 2.24812 -4.4235 0
M  V30 2228 N 212.846 1.57033 -0.133567 0
M  V30 2229 C 214.074 2.00044 0.528195 0
M  V30 2230 C 214.489 1.01349 1.59291 0
M  V30 2231 O 213.846 0.00848369 1.82498 0
M  V30 2232 C 213.897 3.43018 1.1411 0
M  V30 2233 O 213.618 4.37939 0.11892 0
M  V30 2234 C 215.119 4.01237 1.88477 0
M  V30 2235 H 212.339 0.656517 0.138661 0
M  V30 2236 H 214.883 2.03267 -0.224196 0
M  V30 2237 H 213.038 3.40688 1.84418 0
M  V30 2238 H 213.452 5.21436 0.56613 0
M  V30 2239 H 214.926 5.03314 2.26669 0
M  V30 2240 H 215.403 3.41193 2.76558 0
M  V30 2241 H 216.009 4.07156 1.22898 0
M  V30 2242 N 214.325 -0.140222 1.56975 0
M  V30 2243 C 215.571 -0.852949 1.83991 0
M  V30 2244 C 215.904 -1.80512 0.716187 0
M  V30 2245 O 215.179 -1.92479 -0.279681 0
M  V30 2246 C 215.462 -1.6215 3.21527 0
M  V30 2247 C 215.315 -0.690363 4.4447 0
M  V30 2248 C 216.634 -2.58247 3.56366 0
M  V30 2249 H 213.753 -0.308634 0.669264 0
M  V30 2250 H 216.395 -0.117898 1.89634 0
M  V30 2251 H 214.545 -2.24812 3.16847 0
M  V30 2252 H 216.217 -0.0742264 4.6124 0
M  V30 2253 H 214.46 -0.000396433 4.338 0
M  V30 2254 H 215.131 -1.2643 5.37326 0
M  V30 2255 H 217.607 -2.05701 3.61699 0
M  V30 2256 H 216.483 -3.09067 4.53617 0
M  V30 2257 H 216.744 -3.39923 2.82674 0
M  V30 2258 N 215.803 -1.52179 -0.40978 0
M  V30 2259 C 217.028 -1.70347 -1.18308 0
M  V30 2260 C 217.453 -0.411887 -1.83535 0
M  V30 2261 O 216.811 0.630587 -1.6998 0
M  V30 2262 C 216.859 -2.83977 -2.22238 0
M  V30 2263 O 215.963 -2.495 -3.28365 0
M  V30 2264 H 215.304 -0.567103 -0.345384 0
M  V30 2265 H 217.834 -1.98879 -0.480445 0
M  V30 2266 H 217.844 -3.0887 -2.66577 0
M  V30 2267 H 216.519 -3.77685 -1.74146 0
M  V30 2268 H 215.096 -2.35277 -2.89308 0
M  V30 2269 N 217.281 0.66697 -1.42791 0
M  V30 2270 C 218.529 1.42417 -1.43394 0
M  V30 2271 C 218.85 1.94925 -0.0542373 0
M  V30 2272 O 218.12 1.73564 0.908415 0
M  V30 2273 H 216.7 0.528515 -0.527902 0
M  V30 2274 H 219.362 0.787562 -1.78279 0
M  V30 2275 H 218.458 2.27333 -2.13837 0
M  V30 2276 N 218.759 1.29093 0.90403 0
M  V30 2277 C 220.005 1.17996 1.65676 0
M  V30 2278 C 220.36 -0.266816 1.90541 0
M  V30 2279 O 219.653 -1.19 1.50165 0
M  V30 2280 C 219.847 1.92224 3.01305 0
M  V30 2281 C 219.676 3.43972 2.89678 0
M  V30 2282 C 218.446 4.1332 2.90679 0
M  V30 2283 C 220.644 4.39546 2.67028 0
M  V30 2284 N 218.626 5.51463 2.69743 0
M  V30 2285 C 219.997 5.65119 2.5503 0
M  V30 2286 C 222.052 4.29359 2.52101 0
M  V30 2287 C 220.755 6.81663 2.29626 0
M  V30 2288 C 222.781 5.4565 2.28079 0
M  V30 2289 C 222.143 6.70193 2.16843 0
M  V30 2290 H 218.242 0.486759 0.612037 0
M  V30 2291 H 220.826 1.62868 1.06688 0
M  V30 2292 H 218.997 1.49773 3.58361 0
M  V30 2293 H 220.729 1.73429 3.65656 0
M  V30 2294 H 217.484 3.64984 3.01801 0
M  V30 2295 H 217.908 6.24105 2.6234 0
M  V30 2296 H 222.55 3.33769 2.59534 0
M  V30 2297 H 220.268 7.77313 2.20932 0
M  V30 2298 H 223.854 5.39664 2.1738 0
M  V30 2299 H 222.734 7.58659 1.98511 0
M  V30 2300 N 220.237 -1.11381 1.11499 0
M  V30 2301 C 221.485 -1.8277 0.862524 0
M  V30 2302 C 221.806 -1.85097 -0.613534 0
M  V30 2303 O 221.076 -1.32198 -1.4457 0
M  V30 2304 H 219.656 -0.676823 0.316101 0
M  V30 2305 H 222.318 -1.34816 1.4075 0
M  V30 2306 H 221.414 -2.86614 1.23527 0
M  V30 2307 N 221.715 -0.905404 -1.28997 0
M  V30 2308 C 222.943 -0.549846 -1.9946 0
M  V30 2309 C 223.358 0.866834 -1.67724 0
M  V30 2310 O 222.715 1.57298 -0.925404 0
M  V30 2311 C 222.766 -0.739387 -3.53858 0
M  V30 2312 O 222.487 -2.10031 -3.84472 0
M  V30 2313 C 223.988 -0.389541 -4.41585 0
M  V30 2314 H 221.208 -0.210429 -0.637151 0
M  V30 2315 H 223.752 -1.21632 -1.64396 0
M  V30 2316 H 221.907 -0.120023 -3.87214 0
M  V30 2317 H 222.321 -2.13385 -4.79132 0
M  V30 2318 H 223.795 -0.572972 -5.49018 0
M  V30 2319 H 224.272 0.673756 -4.34001 0
M  V30 2320 H 224.878 -0.986089 -4.1371 0
M  V30 2321 N 223.193 1.4272 -0.668489 0
M  V30 2322 C 224.421 2.05966 -0.196348 0
M  V30 2323 C 224.836 1.50191 1.14403 0
M  V30 2324 O 224.193 0.639208 1.7094 0
M  V30 2325 C 224.244 3.61314 -0.115815 0
M  V30 2326 O 223.965 4.1502 -1.40322 0
M  V30 2327 C 225.466 4.41663 0.380579 0
M  V30 2328 H 222.686 0.663954 -0.0969829 0
M  V30 2329 H 225.23 1.82966 -0.913446 0
M  V30 2330 H 223.385 3.83448 0.551931 0
M  V30 2331 H 223.799 5.08832 -1.27243 0
M  V30 2332 H 225.273 5.5065 0.385848 0
M  V30 2333 H 225.75 4.15792 1.41471 0
M  V30 2334 H 226.356 4.24534 -0.255209 0
M  V30 2335 N 224.671 0.411399 1.52136 0
M  V30 2336 C 225.899 -0.163076 2.06256 0
M  V30 2337 C 226.314 -1.3867 1.28125 0
M  V30 2338 O 225.671 -1.79423 0.333721 0
M  V30 2339 C 225.722 -0.511252 3.57867 0
M  V30 2340 O 225.443 0.66378 4.33042 0
M  V30 2341 C 226.944 -1.13921 4.28412 0
M  V30 2342 H 224.164 -0.0193897 0.67072 0
M  V30 2343 H 226.708 0.583007 1.96013 0
M  V30 2344 H 224.863 -1.20723 3.6811 0
M  V30 2345 H 225.277 0.372601 5.23175 0
M  V30 2346 H 226.751 -1.33302 5.35663 0
M  V30 2347 H 227.228 -2.11296 3.85033 0
M  V30 2348 H 227.834 -0.483373 4.22544 0
M  V30 2349 N 226.149 -1.5696 0.141893 0
M  V30 2350 C 227.374 -2.00754 -0.520838 0
M  V30 2351 C 227.799 -1.0213 -1.57959 0
M  V30 2352 O 227.157 0.00371324 -1.813 0
M  V30 2353 C 227.205 -3.43318 -1.10294 0
M  V30 2354 O 226.309 -3.47679 -2.21795 0
M  V30 2355 H 225.65 -0.651564 -0.127908 0
M  V30 2356 H 228.18 -2.03221 0.23712 0
M  V30 2357 H 228.19 -3.82012 -1.43287 0
M  V30 2358 H 226.865 -4.14608 -0.327574 0
M  V30 2359 H 225.442 -3.20824 -1.9007 0
M  V30 2360 N 227.627 0.131896 -1.57047 0
M  V30 2361 C 229.038 0.690407 -1.73465 0
M  V30 2362 C 229.389 1.8094 -0.758629 0
M  V30 2363 O 228.514 2.16282 0.0713813 0
M  V30 2364 C 229.109 1.25916 -3.14532 0
M  V30 2365 C 227.668 1.76409 -3.32501 0
M  V30 2366 C 226.815 0.658579 -2.69366 0
M  V30 2367 H 229.766 -0.0939144 -1.58422 0
M  V30 2368 H 229.787 2.12892 -3.15369 0
M  V30 2369 H 229.299 0.444515 -3.85546 0
M  V30 2370 H 227.4 2.60391 -2.66509 0
M  V30 2371 H 227.513 1.88241 -4.4057 0
M  V30 2372 H 225.877 1.08899 -2.30246 0
M  V30 2373 H 226.66 -0.14487 -3.42994 0
M  V30 2374 N 229.106 1.52395 0.401703 0
M  V30 2375 C 230.383 1.57387 1.16141 0
M  V30 2376 C 230.763 0.359359 2.08019 0
M  V30 2377 O 230.111 -0.65326 2.18963 0
M  V30 2378 C 230.321 2.90631 1.93221 0
M  V30 2379 C 231.669 3.43904 2.49028 0
M  V30 2380 O 232.693 2.92421 2.03393 0
M  V30 2381 O 231.552 4.33823 3.32356 0
M  V30 2382 H 228.646 0.634262 0.530698 0
M  V30 2383 H 231.192 1.64725 0.407883 0
M  V30 2384 H 229.964 3.70473 1.25958 0
M  V30 2385 H 229.587 2.8662 2.75563 0
M  V30 2386 N 230.584 -0.659388 1.43143 0
M  V30 2387 C 231.83 -1.42145 1.44647 0
M  V30 2388 C 232.163 -1.9408 0.0681907 0
M  V30 2389 O 231.438 -1.71899 -0.910007 0
M  V30 2390 C 231.721 -2.60735 2.48373 0
M  V30 2391 C 231.574 -2.14332 3.95451 0
M  V30 2392 C 232.893 -3.62951 2.48906 0
M  V30 2393 H 230.012 -0.51552 0.526696 0
M  V30 2394 H 232.654 -0.748069 1.74654 0
M  V30 2395 H 230.804 -3.18184 2.22916 0
M  V30 2396 H 232.476 -1.61932 4.31944 0
M  V30 2397 H 230.719 -1.4576 4.08578 0
M  V30 2398 H 231.39 -2.99583 4.63631 0
M  V30 2399 H 233.866 -3.1525 2.71582 0
M  V30 2400 H 232.742 -4.43487 3.23435 0
M  V30 2401 H 233.003 -4.15126 1.52061 0
M  V30 2402 N 232.062 -1.29571 -0.897171 0
M  V30 2403 C 233.29 -1.20583 -1.68129 0
M  V30 2404 C 233.705 0.233181 -1.87354 0
M  V30 2405 O 233.062 1.15579 -1.41236 0
M  V30 2406 C 233.113 -1.91772 -3.06441 0
M  V30 2407 O 232.834 -3.30053 -2.88091 0
M  V30 2408 C 234.335 -1.89291 -4.00854 0
M  V30 2409 H 231.555 -0.417826 -0.525036 0
M  V30 2410 H 234.099 -1.70987 -1.12177 0
M  V30 2411 H 232.254 -1.45196 -3.59161 0
M  V30 2412 H 232.668 -3.65942 -3.75748 0
M  V30 2413 H 234.142 -2.43662 -4.95311 0
M  V30 2414 H 234.619 -0.869014 -4.30517 0
M  V30 2415 H 235.225 -2.35622 -3.54066 0
M  V30 2416 N 233.54 1.10788 -1.12088 0
M  V30 2417 C 234.787 1.82671 -0.873931 0
M  V30 2418 C 235.115 1.85004 0.600311 0
M  V30 2419 O 234.37 1.30365 1.45957 0
M  V30 2420 C 234.669 3.29294 -1.38926 0
M  V30 2421 C 234.335 3.47113 -2.87791 0
M  V30 2422 C 232.997 3.51684 -3.28439 0
M  V30 2423 C 235.349 3.52808 -3.83635 0
M  V30 2424 C 232.677 3.59513 -4.63646 0
M  V30 2425 C 235.029 3.62169 -5.18668 0
M  V30 2426 C 233.693 3.65003 -5.58864 0
M  V30 2427 H 232.963 0.668441 -0.319794 0
M  V30 2428 H 235.61 1.30613 -1.40045 0
M  V30 2429 H 233.915 3.83894 -0.783122 0
M  V30 2430 H 235.612 3.83416 -1.17443 0
M  V30 2431 H 232.202 3.4423 -2.5535 0
M  V30 2432 H 236.386 3.4853 -3.53328 0
M  V30 2433 H 231.642 3.59987 -4.94185 0
M  V30 2434 H 235.816 3.6552 -5.92763 0
M  V30 2435 H 233.443 3.70822 -6.63623 0
M  V30 2436 N 235.018 0.912232 1.28515 0
M  V30 2437 C 236.429 0.591352 1.77087 0
M  V30 2438 C 236.78 -0.8933 1.74684 0
M  V30 2439 O 235.905 -1.69876 1.34056 0
M  V30 2440 C 236.5 1.06668 3.2157 0
M  V30 2441 C 235.059 0.79675 3.67871 0
M  V30 2442 C 234.206 1.23427 2.48316 0
M  V30 2443 H 237.157 1.09365 1.15 0
M  V30 2444 H 237.178 0.407455 3.78312 0
M  V30 2445 H 236.69 2.14726 3.23287 0
M  V30 2446 H 234.791 -0.270679 3.71616 0
M  V30 2447 H 234.904 1.40343 4.58084 0
M  V30 2448 H 233.268 0.653036 2.46186 0
M  V30 2449 H 234.051 2.32316 2.52753 0
M  V30 2450 N 236.496 -1.42363 0.676048 0
M  V30 2451 C 237.721 -2.06377 0.205705 0
M  V30 2452 C 238.146 -1.50463 -1.12883 0
M  V30 2453 O 237.504 -0.623619 -1.70237 0
M  V30 2454 C 237.552 -3.60277 0.152655 0
M  V30 2455 O 236.656 -4.02935 -0.87845 0
M  V30 2456 H 235.997 -0.655588 0.105359 0
M  V30 2457 H 238.527 -1.82475 0.925412 0
M  V30 2458 H 238.537 -4.07993 -0.0230675 0
M  V30 2459 H 237.212 -4.00346 1.12675 0
M  V30 2460 H 235.789 -3.66764 -0.673668 0
M  V30 2461 N 237.974 -0.419461 -1.51915 0
M  V30 2462 C 239.251 0.211999 -1.94448 0
M  V30 2463 C 239.631 1.61703 -1.35703 0
M  V30 2464 O 238.979 2.22102 -0.536931 0
M  V30 2465 C 239.189 0.207872 -3.4838 0
M  V30 2466 C 240.537 0.422192 -4.22496 0
M  V30 2467 O 241.561 0.286778 -3.55044 0
M  V30 2468 O 240.42 0.690009 -5.42126 0
M  V30 2469 H 237.514 0.139586 -0.815135 0
M  V30 2470 H 240.06 -0.476151 -1.62883 0
M  V30 2471 H 238.832 -0.775102 -3.83546 0
M  V30 2472 H 238.455 0.939688 -3.86336 0
M  V30 2473 N 239.452 1.56882 -0.150215 0
M  V30 2474 C 240.382 2.19935 0.784284 0
M  V30 2475 C 241.363 1.14854 1.25469 0
M  V30 2476 O 242.548 1.43209 1.31168 0
M  V30 2477 C 239.678 2.82349 2.02229 0
M  V30 2478 C 238.632 3.93285 1.68853 0
M  V30 2479 C 237.958 4.42649 2.99944 0
M  V30 2480 C 239.258 5.13904 0.932714 0
M  V30 2481 H 240.952 2.9828 0.258781 0
M  V30 2482 H 238.498 1.43473 0.123029 0
M  V30 2483 H 240.451 3.25126 2.68088 0
M  V30 2484 H 239.175 2.0134 2.57157 0
M  V30 2485 H 237.834 3.5113 1.05371 0
M  V30 2486 H 237.482 3.58458 3.52869 0
M  V30 2487 H 237.182 5.17476 2.78374 0
M  V30 2488 H 238.706 4.88099 3.66868 0
M  V30 2489 H 240.12 5.53506 1.49345 0
M  V30 2490 H 238.517 5.94515 0.81684 0
M  V30 2491 H 239.587 4.84842 -0.0749568 0
M  V30 2492 N 240.93 -0.123565 1.57115 0
M  V30 2493 C 241.863 -1.18202 1.95201 0
M  V30 2494 C 242.841 -1.40349 0.821031 0
M  V30 2495 O 244.025 -1.54578 1.07879 0
M  V30 2496 C 241.152 -2.53671 2.24429 0
M  V30 2497 C 240.198 -2.4798 3.46999 0
M  V30 2498 S 241.031 -1.92389 4.99747 0
M  V30 2499 C 242.187 -3.2954 5.32123 0
M  V30 2500 H 242.42 -0.857212 2.84674 0
M  V30 2501 H 239.953 -0.33014 1.50829 0
M  V30 2502 H 241.911 -3.3162 2.41947 0
M  V30 2503 H 240.572 -2.83332 1.35579 0
M  V30 2504 H 239.765 -3.47758 3.64801 0
M  V30 2505 H 239.367 -1.7815 3.28844 0
M  V30 2506 H 241.659 -4.25736 5.27025 0
M  V30 2507 H 242.602 -3.16569 6.33395 0
M  V30 2508 H 243.01 -3.27758 4.59603 0
M  V30 2509 N 242.408 -1.52605 -0.393616 0
M  V30 2510 C 243.648 -1.6911 -1.1481 0
M  V30 2511 C 244.012 -0.41969 -1.87357 0
M  V30 2512 O 245.213 -0.461034 -2.64817 0
M  V30 2513 C 243.484 -2.88909 -2.10395 0
M  V30 2514 S 245.043 -3.25977 -2.93742 0
M  V30 2515 H 241.861 -0.595337 -0.38871 0
M  V30 2516 H 244.463 -1.90641 -0.433178 0
M  V30 2517 H 243.167 -3.79672 -1.55812 0
M  V30 2518 H 242.698 -2.69698 -2.86403 0
M  V30 2519 H 244.713 -2.75806 -4.12487 0
M  V30 2520 N 243.887 0.651787 -1.4349 0
M  V30 2521 C 245.133 1.41376 -1.45398 0
M  V30 2522 C 245.466 1.94041 -0.0784823 0
M  V30 2523 O 244.741 1.72379 0.900878 0
M  V30 2524 C 245.024 2.59414 -2.49752 0
M  V30 2525 C 244.877 2.12232 -3.96582 0
M  V30 2526 C 246.196 3.61626 -2.50827 0
M  V30 2527 H 243.315 0.512719 -0.529422 0
M  V30 2528 H 245.957 0.738796 -1.75048 0
M  V30 2529 H 244.107 3.16997 -2.246 0
M  V30 2530 H 245.779 1.59639 -4.32797 0
M  V30 2531 H 244.022 1.43592 -4.09346 0
M  V30 2532 H 244.693 2.9712 -4.65214 0
M  V30 2533 H 247.169 3.13805 -2.7325 0
M  V30 2534 H 246.045 4.41766 -3.25783 0
M  V30 2535 H 246.306 4.14314 -1.5426 0
M  V30 2536 N 245.365 1.30045 0.890287 0
M  V30 2537 C 246.642 1.09227 1.62262 0
M  V30 2538 C 247.022 -0.360305 2.08002 0
M  V30 2539 O 246.37 -1.35084 1.84295 0
M  V30 2540 C 246.58 2.08835 2.79623 0
M  V30 2541 C 247.928 2.40266 3.50082 0
M  V30 2542 O 248.952 2.07104 2.89804 0
M  V30 2543 O 247.811 2.96967 4.58773 0
M  V30 2544 H 244.905 0.419132 0.712922 0
M  V30 2545 H 247.451 1.41451 0.937529 0
M  V30 2546 H 246.223 3.06633 2.43089 0
M  V30 2547 H 245.846 1.77397 3.55832 0
M  V30 2548 N 246.843 -1.10192 1.12674 0
M  V30 2549 C 248.089 -1.82475 0.884915 0
M  V30 2550 C 248.422 -1.85093 -0.58773 0
M  V30 2551 O 247.697 -1.3134 -1.43457 0
M  V30 2552 C 247.98 -3.29018 1.46353 0
M  V30 2553 C 247.833 -3.34718 3.00473 0
M  V30 2554 C 249.152 -4.25473 1.12519 0
M  V30 2555 H 246.271 -0.662492 0.322915 0
M  V30 2556 H 248.913 -1.2913 1.39375 0
M  V30 2557 H 247.063 -3.74576 1.03077 0
M  V30 2558 H 248.735 -2.97622 3.52447 0
M  V30 2559 H 246.978 -2.74541 3.35872 0
M  V30 2560 H 247.649 -4.37918 3.36053 0
M  V30 2561 H 250.125 -3.88161 1.499 0
M  V30 2562 H 249.001 -5.26365 1.55663 0
M  V30 2563 H 249.262 -4.42084 0.0377407 0
M  V30 2564 N 248.321 -0.919034 -1.28029 0
M  V30 2565 C 249.268 -0.410005 -2.27129 0
M  V30 2566 C 250.238 0.518405 -1.57803 0
M  V30 2567 O 251.423 0.439451 -1.8567 0
M  V30 2568 C 248.563 0.339054 -3.4343 0
M  V30 2569 C 247.676 -0.622468 -4.27492 0
M  V30 2570 C 246.811 0.145567 -5.31001 0
M  V30 2571 C 245.85 -0.809226 -6.06727 0
M  V30 2572 N 244.987 -0.0743728 -7.02061 0
M  V30 2573 H 249.827 -1.26011 -2.70047 0
M  V30 2574 H 247.364 -0.632663 -1.328 0
M  V30 2575 H 249.322 0.789586 -4.0966 0
M  V30 2576 H 247.952 1.15346 -3.01488 0
M  V30 2577 H 247.004 -1.19153 -3.61257 0
M  V30 2578 H 248.316 -1.35252 -4.80113 0
M  V30 2579 H 247.47 0.656417 -6.03139 0
M  V30 2580 H 246.209 0.908643 -4.79161 0
M  V30 2581 H 245.214 -1.3314 -5.33436 0
M  V30 2582 H 246.439 -1.57194 -6.60656 0
M  V30 2583 H 244.385 0.670616 -6.52563 0
M  V30 2584 H 244.302 -0.744157 -7.52329 0
M  V30 2585 H 245.57 0.416109 -7.78389 0
M  V30 2586 N 249.799 1.42003 -0.683588 0
M  V30 2587 C 250.729 2.33487 -0.024866 0
M  V30 2588 C 251.71 1.51163 0.779975 0
M  V30 2589 O 252.895 1.79739 0.735362 0
M  V30 2590 C 250.025 3.3487 0.920836 0
M  V30 2591 C 248.979 4.27414 0.223958 0
M  V30 2592 C 248.305 5.19074 1.2832 0
M  V30 2593 C 249.605 5.14445 -0.90242 0
M  V30 2594 H 251.299 2.88819 -0.788921 0
M  V30 2595 H 248.845 1.38873 -0.38083 0
M  V30 2596 H 250.798 3.97787 1.39081 0
M  V30 2597 H 249.522 2.77861 1.71642 0
M  V30 2598 H 248.181 3.65904 -0.225864 0
M  V30 2599 H 247.829 4.58387 2.071 0
M  V30 2600 H 247.529 5.81822 0.821995 0
M  V30 2601 H 249.053 5.84867 1.75392 0
M  V30 2602 H 250.467 5.70998 -0.513272 0
M  V30 2603 H 248.864 5.86072 -1.28997 0
M  V30 2604 H 249.934 4.52322 -1.74737 0
M  V30 2605 N 251.277 0.427512 1.51691 0
M  V30 2606 C 252.526 -0.143679 2.01188 0
M  V30 2607 C 252.839 -1.44642 1.31674 0
M  V30 2608 O 254.045 -2.09997 1.72086 0
M  V30 2609 C 252.501 -0.306602 3.58592 0
M  V30 2610 C 252.109 0.985125 4.37035 0
M  V30 2611 C 253.853 -0.832091 4.16265 0
M  V30 2612 C 251.76 0.788382 5.86122 0
M  V30 2613 H 250.69 -0.0574701 0.751807 0
M  V30 2614 H 253.341 0.555772 1.74881 0
M  V30 2615 H 251.723 -1.06882 3.81303 0
M  V30 2616 H 252.897 1.75492 4.26074 0
M  V30 2617 H 251.212 1.4384 3.90767 0
M  V30 2618 H 253.809 -0.995617 5.25349 0
M  V30 2619 H 254.152 -1.81186 3.74803 0
M  V30 2620 H 254.685 -0.128444 3.97593 0
M  V30 2621 H 251.424 1.74025 6.31978 0
M  V30 2622 H 250.944 0.0582143 5.99772 0
M  V30 2623 H 252.623 0.437722 6.45518 0
M  V30 2624 N 252.755 -1.56801 0.158532 0
M  V30 2625 C 253.98 -2.01295 -0.499516 0
M  V30 2626 C 254.405 -1.03799 -1.56867 0
M  V30 2627 O 253.763 -0.0155162 -1.81293 0
M  V30 2628 C 253.811 -3.44469 -1.06647 0
M  V30 2629 O 252.915 -3.50012 -2.18095 0
M  V30 2630 H 252.256 -0.652884 -0.12099 0
M  V30 2631 H 254.786 -2.02958 0.258661 0
M  V30 2632 H 254.796 -3.8351 -1.39227 0
M  V30 2633 H 253.471 -4.14932 -0.283581 0
M  V30 2634 H 252.048 -3.22822 -1.86656 0
M  V30 2635 N 254.233 0.115231 -1.57178 0
M  V30 2636 C 255.644 0.67197 -1.74188 0
M  V30 2637 C 255.995 1.80125 -0.777777 0
M  V30 2638 O 255.12 2.16346 0.0484376 0
M  V30 2639 C 255.715 1.22573 -3.1585 0
M  V30 2640 C 254.274 1.72872 -3.34353 0
M  V30 2641 C 253.421 0.629972 -2.70049 0
M  V30 2642 H 256.372 -0.110712 -1.58313 0
M  V30 2643 H 256.393 2.09535 -3.17609 0
M  V30 2644 H 255.905 0.403598 -3.85996 0
M  V30 2645 H 254.006 2.5755 -2.69256 0
M  V30 2646 H 254.119 1.83557 -4.42542 0
M  V30 2647 H 252.483 1.0645 -2.31388 0
M  V30 2648 H 253.266 -0.181241 -3.42821 0
M  V30 2649 N 255.711 1.52812 0.385517 0
M  V30 2650 C 256.643 1.74096 1.49074 0
M  V30 2651 C 257.656 0.621462 1.50472 0
M  V30 2652 O 258.845 0.897245 1.54311 0
M  V30 2653 C 255.945 1.78774 2.87911 0
M  V30 2654 C 255.118 3.08134 3.10439 0
M  V30 2655 C 254.177 3.04313 4.29278 0
M  V30 2656 O 253.203 3.78168 4.25415 0
M  V30 2657 N 254.405 2.23741 5.35649 0
M  V30 2658 H 257.17 2.69455 1.31202 0
M  V30 2659 H 254.731 1.51343 0.575065 0
M  V30 2660 H 256.723 1.73721 3.65518 0
M  V30 2661 H 255.293 0.907869 2.99126 0
M  V30 2662 H 254.513 3.26649 2.20667 0
M  V30 2663 H 255.801 3.93662 3.22347 0
M  V30 2664 H 255.199 1.63211 5.41645 0
M  V30 2665 H 253.756 2.24524 6.11909 0
M  V30 2666 N 257.189 -0.644168 1.43834 0
M  V30 2667 C 258.466 -1.40188 1.36406 0
M  V30 2668 C 258.846 -2.11094 0.0163124 0
M  V30 2669 O 258.194 -2.05426 -1.00062 0
M  V30 2670 C 258.404 -2.3791 2.55343 0
M  V30 2671 C 259.752 -3.01637 2.98832 0
M  V30 2672 O 260.776 -2.48237 2.55455 0
M  V30 2673 O 259.635 -3.98477 3.74003 0
M  V30 2674 H 256.729 -0.626773 0.539523 0
M  V30 2675 H 259.275 -0.670317 1.559 0
M  V30 2676 H 258.047 -1.84525 3.4506 0
M  V30 2677 H 257.67 -3.18503 2.37995 0
M  V30 2678 N 258.668 -1.30515 -0.883378 0
M  V30 2679 C 259.908 -1.20716 -1.64946 0
M  V30 2680 C 260.272 0.234072 -1.90568 0
M  V30 2681 O 261.473 0.455335 -2.64915 0
M  V30 2682 C 259.744 -2.01444 -2.9522 0
M  V30 2683 S 261.303 -2.0836 -3.86175 0
M  V30 2684 H 258.121 -0.430165 -0.566109 0
M  V30 2685 H 260.723 -1.65011 -1.04841 0
M  V30 2686 H 259.427 -3.05268 -2.74298 0
M  V30 2687 H 258.958 -1.57817 -3.60357 0
M  V30 2688 H 260.973 -1.21215 -4.81167 0
M  V30 2689 N 260.146 1.09593 -1.13257 0
M  V30 2690 C 261.374 1.855 -0.916378 0
M  V30 2691 C 261.789 1.81069 0.534738 0
M  V30 2692 O 261.146 1.20562 1.37007 0
M  V30 2693 C 261.197 3.33546 -1.39388 0
M  V30 2694 O 260.918 3.37927 -2.78813 0
M  V30 2695 C 262.419 4.26299 -1.21588 0
M  V30 2696 H 259.639 0.585991 -0.326887 0
M  V30 2697 H 262.183 1.38488 -1.5047 0
M  V30 2698 H 260.338 3.77992 -0.848597 0
M  V30 2699 H 260.752 4.30254 -2.9997 0
M  V30 2700 H 262.226 5.28341 -1.59876 0
M  V30 2701 H 262.703 4.38918 -0.157376 0
M  V30 2702 H 263.309 3.87668 -1.7491 0
M  V30 2703 N 261.624 0.925811 1.2754 0
M  V30 2704 C 262.571 0.422045 2.26908 0
M  V30 2705 C 263.541 -0.510029 1.58076 0
M  V30 2706 O 264.726 -0.429599 1.85901 0
M  V30 2707 C 261.866 -0.320837 3.43605 0
M  V30 2708 C 260.979 0.64513 4.27156 0
M  V30 2709 C 260.114 -0.117405 5.3107 0
M  V30 2710 C 259.153 0.841391 6.0629 0
M  V30 2711 N 258.29 0.111604 7.02011 0
M  V30 2712 H 263.13 1.27441 2.69375 0
M  V30 2713 H 260.667 0.639697 1.32462 0
M  V30 2714 H 262.625 -0.76785 4.10073 0
M  V30 2715 H 261.255 -1.13745 3.02096 0
M  V30 2716 H 260.307 1.21067 3.6062 0
M  V30 2717 H 261.619 1.37797 4.79389 0
M  V30 2718 H 260.773 -0.624422 6.03478 0
M  V30 2719 H 259.512 -0.883219 4.79636 0
M  V30 2720 H 258.517 1.35967 5.32722 0
M  V30 2721 H 259.742 1.60696 6.59813 0
M  V30 2722 H 257.688 -0.635999 6.5291 0
M  V30 2723 H 257.605 0.784044 7.51923 0
M  V30 2724 H 258.873 -0.374823 7.78598 0
M  V30 2725 N 263.102 -1.41638 0.69111 0
M  V30 2726 C 264.348 -2.01598 0.220519 0
M  V30 2727 C 264.681 -1.54594 -1.17535 0
M  V30 2728 O 263.956 -0.755177 -1.79241 0
M  V30 2729 C 264.239 -3.59062 0.273243 0
M  V30 2730 C 264.092 -4.16203 1.70573 0
M  V30 2731 C 265.411 -4.38546 -0.369457 0
M  V30 2732 H 262.53 -0.732468 0.0816045 0
M  V30 2733 H 265.172 -1.68445 0.878986 0
M  V30 2734 H 263.322 -3.87435 -0.287411 0
M  V30 2735 H 264.994 -3.98722 2.31989 0
M  V30 2736 H 263.237 -3.71414 2.2413 0
M  V30 2737 H 263.908 -5.25358 1.69419 0
M  V30 2738 H 266.384 -4.1596 0.107977 0
M  V30 2739 H 265.26 -5.48069 -0.302002 0
M  V30 2740 H 265.521 -4.17662 -1.44951 0
M  V30 2741 N 264.58 -0.43555 -1.51462 0
M  V30 2742 C 265.81 0.130053 -2.0619 0
M  V30 2743 C 266.218 1.37164 -1.30317 0
M  V30 2744 O 265.561 1.80225 -0.355598 0
M  V30 2745 C 265.623 0.519418 -3.55728 0
M  V30 2746 C 265.287 -0.615119 -4.52841 0
M  V30 2747 C 266.284 -1.48671 -4.9819 0
M  V30 2748 C 263.969 -0.795341 -4.95963 0
M  V30 2749 C 265.963 -2.52324 -5.8533 0
M  V30 2750 C 263.65 -1.83514 -5.82894 0
M  V30 2751 C 264.648 -2.69748 -6.27475 0
M  V30 2752 O 264.336 -3.71944 -7.1268 0
M  V30 2753 H 264.068 0.0121612 -0.675891 0
M  V30 2754 H 266.622 -0.6129 -1.96043 0
M  V30 2755 H 264.852 1.31505 -3.63653 0
M  V30 2756 H 266.541 1.01597 -3.92979 0
M  V30 2757 H 267.307 -1.359 -4.65571 0
M  V30 2758 H 263.186 -0.133713 -4.60806 0
M  V30 2759 H 266.73 -3.19665 -6.20048 0
M  V30 2760 H 262.627 -1.96306 -6.14926 0
M  V30 2761 H 263.395 -3.68503 -7.30854 0
M  V30 2762 N 266.058 1.56714 -0.166846 0
M  V30 2763 C 267.005 2.17746 0.765193 0
M  V30 2764 C 267.975 1.11614 1.23011 0
M  V30 2765 O 269.16 1.39745 1.29908 0
M  V30 2766 C 266.3 2.81882 1.9909 0
M  V30 2767 C 265.413 4.02462 1.56997 0
M  V30 2768 C 264.548 4.54537 2.749 0
M  V30 2769 C 263.587 5.67538 2.29275 0
M  V30 2770 N 262.724 6.14142 3.40255 0
M  V30 2771 H 267.564 2.97048 0.237952 0
M  V30 2772 H 265.101 1.4672 0.105725 0
M  V30 2773 H 267.059 3.17221 2.70974 0
M  V30 2774 H 265.689 2.05191 2.49192 0
M  V30 2775 H 264.741 3.72973 0.748037 0
M  V30 2776 H 266.053 4.84273 1.19503 0
M  V30 2777 H 265.207 4.92035 3.54946 0
M  V30 2778 H 263.946 3.71774 3.1565 0
M  V30 2779 H 262.951 5.29597 1.47674 0
M  V30 2780 H 264.176 6.52099 1.89588 0
M  V30 2781 H 262.122 5.3431 3.8059 0
M  V30 2782 H 262.039 6.9093 3.06841 0
M  V30 2783 H 263.307 6.56289 4.206 0
M  V30 2784 N 267.536 -0.106894 1.57237 0
M  V30 2785 C 268.813 -0.843526 1.76477 0
M  V30 2786 C 269.193 -1.97499 0.745464 0
M  V30 2787 O 268.541 -2.27357 -0.228306 0
M  V30 2788 C 268.751 -1.34903 3.21873 0
M  V30 2789 C 270.099 -1.79654 3.8472 0
M  V30 2790 O 271.123 -1.44554 3.2555 0
M  V30 2791 O 269.982 -2.44515 4.88748 0
M  V30 2792 H 267.076 -0.401468 0.723016 0
M  V30 2793 H 269.622 -0.0896927 1.69463 0
M  V30 2794 H 268.394 -0.53781 3.87586 0
M  V30 2795 H 268.017 -2.16522 3.33473 0
M  V30 2796 N 269.014 -1.53014 -0.377408 0
M  V30 2797 C 269.944 -1.81589 -1.46791 0
M  V30 2798 C 270.925 -0.668622 -1.56408 0
M  V30 2799 O 272.11 -0.917337 -1.71168 0
M  V30 2800 C 269.24 -1.99519 -2.8427 0
M  V30 2801 C 268.194 -3.15249 -2.89486 0
M  V30 2802 C 267.52 -3.18451 -4.29527 0
M  V30 2803 C 268.82 -4.54084 -2.58079 0
M  V30 2804 H 270.514 -2.7291 -1.23127 0
M  V30 2805 H 268.06 -1.31319 -0.590883 0
M  V30 2806 H 270.013 -2.18092 -3.60575 0
M  V30 2807 H 268.737 -1.04897 -3.09296 0
M  V30 2808 H 267.396 -2.96477 -2.15631 0
M  V30 2809 H 267.044 -2.2149 -4.5161 0
M  V30 2810 H 266.744 -3.962 -4.33934 0
M  V30 2811 H 268.268 -3.39193 -5.07721 0
M  V30 2812 H 269.682 -4.72899 -3.24098 0
M  V30 2813 H 268.079 -5.33987 -2.7382 0
M  V30 2814 H 269.149 -4.60006 -1.53372 0
M  V30 2815 N 270.492 0.636531 -1.44174 0
M  V30 2816 C 271.422 1.76003 -1.53444 0
M  V30 2817 C 272.403 1.65619 -0.387841 0
M  V30 2818 O 273.588 1.84461 -0.607257 0
M  V30 2819 C 270.718 3.14511 -1.4731 0
M  V30 2820 C 269.672 3.39677 -2.60391 0
M  V30 2821 C 268.998 4.78159 -2.39308 0
M  V30 2822 C 270.298 3.32772 -4.02567 0
M  V30 2823 H 271.992 1.68501 -2.47483 0
M  V30 2824 H 269.538 0.809237 -1.19111 0
M  V30 2825 H 271.491 3.92878 -1.52397 0
M  V30 2826 H 270.215 3.22783 -0.49785 0
M  V30 2827 H 268.874 2.63688 -2.54684 0
M  V30 2828 H 268.522 4.83128 -1.39988 0
M  V30 2829 H 268.222 4.95956 -3.15122 0
M  V30 2830 H 269.746 5.58762 -2.46205 0
M  V30 2831 H 271.16 4.01051 -4.09672 0
M  V30 2832 H 269.557 3.62104 -4.7854 0
M  V30 2833 H 270.627 2.30669 -4.2652 0
M  V30 2834 N 271.97 1.30982 0.876444 0
M  V30 2835 C 272.88 1.2003 2.01569 0
M  V30 2836 C 273.896 0.11838 1.73597 0
M  V30 2837 O 275.072 0.33495 1.98595 0
M  V30 2838 C 272.137 0.901637 3.34771 0
M  V30 2839 C 271.198 2.06979 3.76109 0
M  V30 2840 C 270.431 1.78529 5.02954 0
M  V30 2841 O 270.654 0.717296 5.65872 0
M  V30 2842 O 269.588 2.64019 5.40905 0
M  V30 2843 H 273.414 2.15753 2.13739 0
M  V30 2844 H 270.999 1.10658 1.00375 0
M  V30 2845 H 272.881 0.750645 4.1466 0
M  V30 2846 H 271.556 -0.0256141 3.2369 0
M  V30 2847 H 270.463 2.27616 2.96887 0
M  V30 2848 H 271.796 2.97907 3.91807 0
M  V30 2849 N 273.449 -1.08991 1.13837 0
M  V30 2850 C 274.397 -2.17841 0.815347 0
M  V30 2851 C 275.391 -1.68164 -0.204233 0
M  V30 2852 O 276.597 -1.79897 -0.0609304 0
M  V30 2853 H 272.972 -0.710654 0.245915 0
M  V30 2854 H 274.943 -2.42315 1.74143 0
M  V30 2855 C 273.692 -3.46381 0.302614 0
M  V30 2856 H 273.015 -3.84979 1.0785 0
M  V30 2857 H 274.455 -4.23844 0.115074 0
M  V30 2858 C 272.914 -3.22556 -0.972591 0
M  V30 2859 O 273.444 -3.45599 -2.04754 0
M  V30 2860 N 271.65 -2.76134 -0.905455 0
M  V30 2861 H 271.197 -2.57582 -0.0305421 0
M  V30 2862 H 271.155 -2.60571 -1.75926 0
M  V30 2863 N 274.927 -0.932562 -1.27047 0
M  V30 2864 C 276.152 -0.591474 -1.98787 0
M  V30 2865 C 276.577 0.824601 -1.69062 0
M  V30 2866 O 275.935 1.5541 -0.933677 0
M  V30 2867 C 275.983 -0.829808 -3.50922 0
M  V30 2868 O 275.087 0.102266 -4.12273 0
M  V30 2869 H 274.428 -0.227185 -0.623926 0
M  V30 2870 H 276.958 -1.25314 -1.61733 0
M  V30 2871 H 276.968 -0.747292 -4.01098 0
M  V30 2872 H 275.643 -1.86201 -3.7189 0
M  V30 2873 H 274.22 -0.0305761 -3.72887 0
M  V30 2874 N 276.405 1.4127 -0.698611 0
M  V30 2875 C 277.338 2.28195 0.0153898 0
M  V30 2876 C 278.316 1.42402 0.784883 0
M  V30 2877 O 279.5 1.71828 0.775067 0
M  V30 2878 C 276.627 3.22685 1.02918 0
M  V30 2879 C 275.673 4.25041 0.352501 0
M  V30 2880 S 276.506 5.27757 -0.907322 0
M  V30 2881 C 277.662 6.25812 0.104796 0
M  V30 2882 H 277.895 2.88403 -0.721858 0
M  V30 2883 H 275.428 1.46452 -0.488996 0
M  V30 2884 H 277.386 3.77655 1.60893 0
M  V30 2885 H 276.047 2.61566 1.73902 0
M  V30 2886 H 275.24 4.91437 1.11828 0
M  V30 2887 H 274.842 3.73682 -0.154254 0
M  V30 2888 H 277.134 6.70705 0.957103 0
M  V30 2889 H 278.077 7.06149 -0.525323 0
M  V30 2890 H 278.485 5.62615 0.460931 0
M  V30 2891 N 277.883 0.443576 1.51229 0
M  V30 2892 C 278.813 -0.355142 2.30783 0
M  V30 2893 C 279.794 -1.0154 1.36468 0
M  V30 2894 O 280.979 -1.01785 1.65389 0
M  V30 2895 C 278.109 -1.45312 3.15439 0
M  V30 2896 C 277.063 -0.916002 4.18083 0
M  V30 2897 C 276.389 -2.1102 4.91299 0
M  V30 2898 C 277.689 0.0538602 5.22272 0
M  V30 2899 H 279.383 0.308767 2.97804 0
M  V30 2900 H 276.929 0.149937 1.43217 0
M  V30 2901 H 278.882 -2.01914 3.69876 0
M  V30 2902 H 277.606 -2.14541 2.46252 0
M  V30 2903 H 276.265 -0.372145 3.64706 0
M  V30 2904 H 275.913 -2.78882 4.18609 0
M  V30 2905 H 275.613 -1.75717 5.60712 0
M  V30 2906 H 277.137 -2.68164 5.48562 0
M  V30 2907 H 278.551 -0.422069 5.71744 0
M  V30 2908 H 276.948 0.319776 5.99247 0
M  V30 2909 H 278.018 0.98858 4.74716 0
M  V30 2910 N 279.361 -1.56624 0.175154 0
M  V30 2911 C 280.601 -1.98894 -0.471221 0
M  V30 2912 C 280.965 -1.05889 -1.60161 0
M  V30 2913 O 282.166 -1.37315 -2.3108 0
M  V30 2914 C 280.437 -3.44865 -0.938241 0
M  V30 2915 S 281.996 -4.09164 -1.58526 0
M  V30 2916 H 278.814 -0.694686 -0.151434 0
M  V30 2917 H 281.416 -1.93577 0.27352 0
M  V30 2918 H 280.12 -4.10265 -0.10518 0
M  V30 2919 H 279.651 -3.53956 -1.71693 0
M  V30 2920 H 281.666 -4.04528 -2.87352 0
M  V30 2921 N 280.839 0.0985539 -1.57292 0
M  V30 2922 C 281.802 1.10402 -2.00858 0
M  V30 2923 C 282.802 1.33146 -0.901593 0
M  V30 2924 O 283.992 1.29318 -1.16716 0
M  V30 2925 C 281.124 2.45394 -2.36632 0
M  V30 2926 H 282.317 0.729099 -2.90902 0
M  V30 2927 H 279.87 0.343495 -1.52479 0
M  V30 2928 H 280.605 2.87769 -1.49531 0
M  V30 2929 H 280.39 2.30235 -3.17387 0
M  V30 2930 H 281.88 3.17718 -2.71007 0
M  V30 2931 N 282.317 1.53212 0.369288 0
M  V30 2932 C 283.565 1.68881 1.11012 0
M  V30 2933 C 283.886 0.441285 1.89941 0
M  V30 2934 O 283.156 -0.544623 1.88177 0
M  V30 2935 H 281.736 0.622569 0.412816 0
M  V30 2936 H 284.398 1.90391 0.416802 0
M  V30 2937 H 283.494 2.54822 1.80201 0
M  V30 2938 N 283.795 -0.628877 1.44509 0
M  V30 2939 C 285.044 -1.38437 1.4669 0
M  V30 2940 C 285.357 -1.95322 0.104272 0
M  V30 2941 O 286.563 -2.715 0.00362163 0
M  V30 2942 C 285.019 -2.50659 2.5826 0
M  V30 2943 C 284.627 -2.00277 4.0074 0
M  V30 2944 C 286.371 -3.27844 2.69664 0
M  V30 2945 C 284.278 -3.09854 5.0373 0
M  V30 2946 H 283.208 -0.520245 0.545766 0
M  V30 2947 H 285.859 -0.676313 1.70582 0
M  V30 2948 H 284.241 -3.2405 2.27612 0
M  V30 2949 H 285.415 -1.33736 4.40966 0
M  V30 2950 H 283.73 -1.35901 3.93599 0
M  V30 2951 H 286.327 -4.09534 3.43781 0
M  V30 2952 H 286.67 -3.77471 1.75559 0
M  V30 2953 H 287.203 -2.61543 2.99733 0
M  V30 2954 H 283.942 -2.65168 5.99472 0
M  V30 2955 H 283.462 -3.7503 4.68095 0
M  V30 2956 H 285.141 -3.74592 5.27532 0
M  V30 2957 N 285.273 -1.31445 -0.869486 0
M  V30 2958 C 286.684 -1.19042 -1.43826 0
M  V30 2959 C 287.035 0.202919 -1.95148 0
M  V30 2960 O 286.16 1.10071 -1.86315 0
M  V30 2961 C 286.755 -2.15499 -2.6143 0
M  V30 2962 C 285.314 -2.07028 -3.14351 0
M  V30 2963 C 284.461 -2.04701 -1.87063 0
M  V30 2964 H 287.412 -1.43489 -0.677984 0
M  V30 2965 H 287.433 -1.74488 -3.38134 0
M  V30 2966 H 286.945 -3.16899 -2.24046 0
M  V30 2967 H 285.046 -1.08825 -3.56354 0
M  V30 2968 H 285.159 -2.96157 -3.766 0
M  V30 2969 H 283.523 -1.49724 -2.06046 0
M  V30 2970 H 284.306 -3.07857 -1.51917 0
M  V30 2971 N 286.751 1.08385 -1.14413 0
M  V30 2972 C 288.028 1.77429 -0.823297 0
M  V30 2973 C 288.408 1.9974 0.683163 0
M  V30 2974 O 287.756 1.60739 1.62405 0
M  V30 2975 C 287.966 3.09004 -1.62227 0
M  V30 2976 C 289.314 3.83532 -1.82177 0
M  V30 2977 O 290.338 3.18786 -1.58915 0
M  V30 2978 O 289.197 4.99792 -2.21067 0
M  V30 2979 H 286.291 0.769999 -0.301712 0
M  V30 2980 H 288.837 1.14846 -1.24934 0
M  V30 2981 H 287.609 2.88316 -2.64555 0
M  V30 2982 H 287.232 3.79316 -1.19187 0
M  V30 2983 N 288.23 0.939286 1.26551 0
M  V30 2984 C 289.455 0.602008 1.98471 0
M  V30 2985 C 289.88 -0.815624 1.69497 0
M  V30 2986 O 289.238 -1.54912 0.941905 0
M  V30 2987 C 289.286 0.848407 3.50477 0
M  V30 2988 O 288.39 -0.0804009 4.12322 0
M  V30 2989 H 287.731 0.23049 0.622712 0
M  V30 2990 H 290.261 1.2617 1.61066 0
M  V30 2991 H 290.271 0.768553 4.00696 0
M  V30 2992 H 288.946 1.88171 3.70897 0
M  V30 2993 H 287.523 0.0503508 3.72866 0
M  V30 2994 N 289.708 -1.40897 0.706093 0
M  V30 2995 C 290.655 -2.30751 0.0474474 0
M  V30 2996 C 291.625 -1.47678 -0.76029 0
M  V30 2997 O 292.81 -1.76441 -0.726177 0
M  V30 2998 C 289.95 -3.33815 -0.875309 0
M  V30 2999 C 289.063 -4.31961 -0.0580623 0
M  V30 3000 C 288.198 -5.22093 -0.979425 0
M  V30 3001 C 287.237 -6.11902 -0.155706 0
M  V30 3002 N 286.374 -6.94482 -1.03144 0
M  V30 3003 H 291.214 -2.86513 0.819413 0
M  V30 3004 H 288.751 -1.41102 0.415783 0
M  V30 3005 H 290.709 -3.92129 -1.42446 0
M  V30 3006 H 289.339 -2.79579 -1.61356 0
M  V30 3007 H 288.391 -3.75507 0.608147 0
M  V30 3008 H 289.703 -4.95415 0.580082 0
M  V30 3009 H 288.857 -5.85292 -1.59744 0
M  V30 3010 H 287.596 -4.5889 -1.65141 0
M  V30 3011 H 286.601 -5.47742 0.475309 0
M  V30 3012 H 287.826 -6.77162 0.512635 0
M  V30 3013 H 285.772 -6.33877 -1.68924 0
M  V30 3014 H 285.689 -7.54665 -0.449108 0
M  V30 3015 H 286.957 -7.6214 -1.63593 0
M  V30 3016 N 291.186 -0.45159 -1.50991 0
M  V30 3017 C 292.133 0.352625 -2.2809 0
M  V30 3018 C 293.103 1.0044 -1.32291 0
M  V30 3019 O 294.288 1.02058 -1.6121 0
M  V30 3020 C 291.428 1.43983 -3.13629 0
M  V30 3021 C 290.541 0.804772 -4.24438 0
M  V30 3022 C 289.676 1.86822 -4.97263 0
M  V30 3023 C 288.715 1.21236 -5.99973 0
M  V30 3024 N 287.852 2.2178 -6.66152 0
M  V30 3025 H 292.692 -0.311186 -2.96371 0
M  V30 3026 H 290.229 -0.165308 -1.46168 0
M  V30 3027 H 292.187 2.08161 -3.61559 0
M  V30 3028 H 290.817 2.07307 -2.47434 0
M  V30 3029 H 289.869 0.0509129 -3.80366 0
M  V30 3030 H 291.181 0.286076 -4.97979 0
M  V30 3031 H 290.335 2.58628 -5.48813 0
M  V30 3032 H 289.074 2.42068 -4.23385 0
M  V30 3033 H 288.079 0.479828 -5.47702 0
M  V30 3034 H 289.304 0.667051 -6.75816 0
M  V30 3035 H 287.25 2.76079 -5.95077 0
M  V30 3036 H 287.167 1.74841 -7.35504 0
M  V30 3037 H 288.435 2.93026 -7.22327 0
M  V30 3038 N 292.664 1.56529 -0.183458 0
M  V30 3039 C 293.612 2.19873 0.758845 0
M  V30 3040 C 294.606 1.16638 1.22849 0
M  V30 3041 O 295.812 1.3481 1.19274 0
M  V30 3042 H 292.187 0.7045 0.263029 0
M  V30 3043 H 294.158 2.97724 0.200755 0
M  V30 3044 C 292.907 2.86314 1.9728 0
M  V30 3045 H 292.23 3.65487 1.62047 0
M  V30 3046 H 293.67 3.3409 2.61075 0
M  V30 3047 C 292.129 1.86729 2.80418 0
M  V30 3048 O 292.659 1.36031 3.77966 0
M  V30 3049 N 290.865 1.55216 2.45675 0
M  V30 3050 H 290.412 1.96636 1.66409 0
M  V30 3051 H 290.37 0.888388 3.01588 0
M  V30 3052 N 294.142 -0.090211 1.57342 0
M  V30 3053 C 295.105 -1.09335 2.01441 0
M  V30 3054 C 296.105 -1.32666 0.908641 0
M  V30 3055 O 297.295 -1.28697 1.174 0
M  V30 3056 C 294.427 -2.44136 2.3793 0
M  V30 3057 H 295.62 -0.713662 2.91285 0
M  V30 3058 H 293.173 -0.335404 1.52659 0
M  V30 3059 H 293.908 -2.86972 1.51055 0
M  V30 3060 H 293.693 -2.28548 3.18603 0
M  V30 3061 H 295.183 -3.16277 2.72688 0
M  V30 3062 N 295.62 -1.53406 -0.361157 0
M  V30 3063 C 296.86 -1.71507 -1.11197 0
M  V30 3064 C 297.224 -0.459337 -1.86425 0
M  V30 3065 O 298.425 -0.517102 -2.63779 0
M  V30 3066 C 296.696 -2.93307 -2.0422 0
M  V30 3067 S 298.255 -3.32135 -2.86761 0
M  V30 3068 H 295.073 -0.603448 -0.375995 0
M  V30 3069 H 297.675 -1.91516 -0.392642 0
M  V30 3070 H 296.379 -3.82891 -1.47724 0
M  V30 3071 H 295.91 -2.75712 -2.80618 0
M  V30 3072 H 297.925 -2.84493 -4.06544 0
M  V30 3073 N 297.098 0.621204 -1.44841 0
M  V30 3074 C 298.046 1.75385 -1.52784 0
M  V30 3075 C 299.04 1.64639 -0.398779 0
M  V30 3076 O 300.246 1.70598 -0.574137 0
M  V30 3077 H 296.621 0.579193 -0.479625 0
M  V30 3078 H 298.592 1.6581 -2.48092 0
M  V30 3079 C 297.341 3.13742 -1.4987 0
M  V30 3080 H 296.664 3.22663 -2.36069 0
M  V30 3081 H 298.104 3.92861 -1.59487 0
M  V30 3082 C 296.563 3.36175 -0.220973 0
M  V30 3083 O 297.093 3.95469 0.704782 0
M  V30 3084 N 295.299 2.90348 -0.120963 0
M  V30 3085 H 294.846 2.42278 -0.875162 0
M  V30 3086 H 294.804 3.05732 0.733168 0
M  V30 3087 N 298.576 1.31904 0.862503 0
M  V30 3088 C 299.824 1.21776 1.61292 0
M  V30 3089 C 300.145 -0.222413 1.93727 0
M  V30 3090 O 299.415 -1.1451 1.58947 0
M  V30 3091 H 297.995 0.447717 0.597962 0
M  V30 3092 H 300.657 1.65326 1.03215 0
M  V30 3093 H 299.753 1.7948 2.5533 0
M  V30 3094 N 300.054 -1.07777 1.14986 0
M  V30 3095 C 301.331 -1.7699 0.832695 0
M  V30 3096 C 301.711 -2.001 -0.672561 0
M  V30 3097 O 301.059 -1.61598 -1.6155 0
M  V30 3098 C 301.269 -3.08139 1.63863 0
M  V30 3099 C 302.617 -3.8256 1.84208 0
M  V30 3100 O 303.641 -3.17939 1.60603 0
M  V30 3101 O 302.5 -4.98612 2.23714 0
M  V30 3102 H 299.594 -0.768389 0.305791 0
M  V30 3103 H 302.14 -1.14182 1.25541 0
M  V30 3104 H 300.912 -2.86909 2.6608 0
M  V30 3105 H 300.535 -3.78678 1.21197 0
M  V30 3106 N 301.532 -0.945985 -1.26051 0
M  V30 3107 C 302.757 -0.612525 -1.98149 0
M  V30 3108 C 303.182 0.806623 -1.69927 0
M  V30 3109 O 302.54 1.54411 -0.950108 0
M  V30 3110 C 302.588 -0.866981 -3.50023 0
M  V30 3111 O 301.692 0.0585333 -4.12358 0
M  V30 3112 H 301.033 -0.23379 -0.621481 0
M  V30 3113 H 303.563 -1.27023 -1.60395 0
M  V30 3114 H 303.573 -0.789792 -4.00283 0
M  V30 3115 H 302.248 -1.90135 -3.69894 0
M  V30 3116 H 300.825 -0.0701241 -3.72834 0
M  V30 3117 N 303.011 1.40521 -0.713556 0
M  V30 3118 C 304.259 2.00527 -0.251692 0
M  V30 3119 C 304.58 1.56857 1.15848 0
M  V30 3120 O 303.85 0.807127 1.785 0
M  V30 3121 H 302.43 0.741551 -0.0900646 0
M  V30 3122 H 305.092 1.71887 -0.918733 0
M  V30 3123 H 304.188 3.10813 -0.283192 0
M  V30 3124 N 304.489 0.459591 1.5075 0
M  V30 3125 C 305.737 -0.0991532 2.01857 0
M  V30 3126 C 306.058 -1.41247 1.34441 0
M  V30 3127 O 305.328 -1.89775 0.486022 0
M  V30 3128 H 303.908 -0.039633 0.745948 0
M  V30 3129 H 306.57 0.607387 1.85194 0
M  V30 3130 H 305.666 -0.258998 3.11023 0
M  V30 3131 N 305.967 -1.56429 0.191757 0
M  V30 3132 C 307.378 -1.83912 -0.321428 0
M  V30 3133 C 307.729 -1.11231 -1.61623 0
M  V30 3134 O 306.854 -0.37202 -2.13178 0
M  V30 3135 C 307.449 -3.33624 -0.589961 0
M  V30 3136 C 306.008 -3.6153 -1.04753 0
M  V30 3137 C 305.155 -2.7714 -0.0943327 0
M  V30 3138 H 308.106 -1.53161 0.415612 0
M  V30 3139 H 308.127 -3.52213 -1.43966 0
M  V30 3140 H 307.639 -3.86495 0.352588 0
M  V30 3141 H 305.74 -3.14089 -2.00447 0
M  V30 3142 H 305.853 -4.69737 -0.942549 0
M  V30 3143 H 304.217 -2.47638 -0.595589 0
M  V30 3144 H 305 -3.32799 0.842601 0
M  V30 3145 N 307.445 0.0818655 -1.57387 0
M  V30 3146 C 308.375 1.09885 -2.06028 0
M  V30 3147 C 309.356 1.4098 -0.951774 0
M  V30 3148 O 310.541 1.50781 -1.22387 0
M  V30 3149 C 307.671 2.4151 -2.4958 0
M  V30 3150 C 306.625 2.24792 -3.64215 0
M  V30 3151 C 305.951 3.61712 -3.93787 0
M  V30 3152 C 307.251 1.67749 -4.94629 0
M  V30 3153 H 308.945 0.694128 -2.91243 0
M  V30 3154 H 306.491 0.332448 -1.4011 0
M  V30 3155 H 308.444 3.12939 -2.82219 0
M  V30 3156 H 307.168 2.83943 -1.61381 0
M  V30 3157 H 305.827 1.55807 -3.31843 0
M  V30 3158 H 305.475 4.01697 -3.02735 0
M  V30 3159 H 305.175 3.51368 -4.70971 0
M  V30 3160 H 306.699 4.34587 -4.28913 0
M  V30 3161 H 308.113 2.29032 -5.25564 0
M  V30 3162 H 306.51 1.68128 -5.76067 0
M  V30 3163 H 307.58 0.638059 -4.80684 0
M  V30 3164 N 308.923 1.53595 0.353017 0
M  V30 3165 C 310.169 1.70638 1.09593 0
M  V30 3166 C 310.502 0.463286 1.88593 0
M  V30 3167 O 309.777 -0.539597 1.86865 0
M  V30 3168 C 310.06 2.96406 2.04489 0
M  V30 3169 C 309.913 4.30901 1.29014 0
M  V30 3170 C 311.232 3.17812 3.0444 0
M  V30 3171 H 308.351 0.620913 0.397034 0
M  V30 3172 H 310.993 1.86254 0.375446 0
M  V30 3173 H 309.143 2.83223 2.65927 0
M  V30 3174 H 310.815 4.55917 0.702638 0
M  V30 3175 H 309.058 4.29741 0.592071 0
M  V30 3176 H 309.729 5.1506 1.98537 0
M  V30 3177 H 312.205 3.30263 2.53112 0
M  V30 3178 H 311.081 4.07223 3.6805 0
M  V30 3179 H 311.342 2.33669 3.75301 0
M  V30 3180 N 310.401 -0.613514 1.45168 0
M  V30 3181 C 311.641 -1.38405 1.5041 0
M  V30 3182 C 312.005 -1.91489 0.139922 0
M  V30 3183 O 313.206 -2.68716 0.067033 0
M  V30 3184 C 311.477 -2.50552 2.5487 0
M  V30 3185 S 313.036 -3.38439 2.79292 0
M  V30 3186 H 309.854 -0.471945 0.531779 0
M  V30 3187 H 312.456 -0.708518 1.82209 0
M  V30 3188 H 311.16 -2.09894 3.52665 0
M  V30 3189 H 310.691 -3.22913 2.24701 0
M  V30 3190 H 312.706 -4.48527 2.12222 0
M  V30 3191 N 311.879 -1.3236 -0.855495 0
M  V30 3192 C 313.295 -1.11332 -1.14356 0
M  V30 3193 C 313.495 0.106751 -2.01217 0
M  V30 3194 O 312.551 0.791891 -2.39761 0
M  V30 3195 C 313.864 -2.39237 -1.82171 0
M  V30 3196 C 315.412 -2.44986 -1.9481 0
M  V30 3197 C 315.887 -3.7281 -2.66039 0
M  V30 3198 N 317.378 -3.73787 -2.73565 0
M  V30 3199 C 318.113 -4.69394 -3.29327 0
M  V30 3200 N 317.609 -5.75367 -3.85907 0
M  V30 3201 N 319.402 -4.56893 -3.27423 0
M  V30 3202 H 311.553 -2.10586 -0.277027 0
M  V30 3203 H 313.816 -0.929701 -0.185364 0
M  V30 3204 H 313.522 -3.28431 -1.25802 0
M  V30 3205 H 313.396 -2.50134 -2.82335 0
M  V30 3206 H 315.783 -1.56252 -2.50338 0
M  V30 3207 H 315.864 -2.38043 -0.936448 0
M  V30 3208 H 315.508 -4.61918 -2.11174 0
M  V30 3209 H 315.438 -3.77024 -3.67642 0
M  V30 3210 H 317.929 -2.97189 -2.33424 0
M  V30 3211 H 318.242 -6.44378 -4.26611 0
M  V30 3212 H 316.587 -5.79123 -3.84242 0
M  V30 3213 H 319.778 -3.73269 -2.82467 0
M  V30 3214 H 319.951 -5.31577 -3.7058 0
M  V30 3215 N 313.357 1.07166 -1.15556 0
M  V30 3216 C 314.605 1.79443 -0.929764 0
M  V30 3217 C 314.926 1.87246 0.544414 0
M  V30 3218 O 314.196 1.37473 1.39564 0
M  V30 3219 H 312.776 0.664625 -0.341003 0
M  V30 3220 H 315.438 1.29499 -1.45657 0
M  V30 3221 H 314.534 2.81832 -1.34079 0
M  V30 3222 N 314.835 0.952656 1.25548 0
M  V30 3223 C 316.063 0.623496 1.97282 0
M  V30 3224 C 316.478 -0.803987 1.70826 0
M  V30 3225 O 315.835 -1.53755 0.983147 0
M  V30 3226 C 315.886 0.870209 3.5087 0
M  V30 3227 O 315.607 2.24156 3.76412 0
M  V30 3228 C 317.108 0.553164 4.39835 0
M  V30 3229 H 314.328 0.233931 0.628902 0
M  V30 3230 H 316.872 1.27649 1.59768 0
M  V30 3231 H 315.027 0.263652 3.86502 0
M  V30 3232 H 315.441 2.31021 4.70882 0
M  V30 3233 H 316.915 0.776342 5.46513 0
M  V30 3234 H 317.392 -0.512215 4.36203 0
M  V30 3235 H 317.998 1.13896 4.09766 0
M  V30 3236 N 316.313 -1.40141 0.720998 0
M  V30 3237 C 317.243 -2.33339 0.0867621 0
M  V30 3238 C 318.224 -1.53178 -0.739622 0
M  V30 3239 O 319.409 -1.81625 -0.687449 0
M  V30 3240 C 316.539 -3.37194 -0.831728 0
M  V30 3241 C 315.493 -4.27857 -0.110558 0
M  V30 3242 C 314.819 -5.22294 -1.14513 0
M  V30 3243 C 316.119 -5.11872 1.0385 0
M  V30 3244 H 317.813 -2.86626 0.865219 0
M  V30 3245 H 315.359 -1.37814 0.417516 0
M  V30 3246 H 317.312 -4.01335 -1.28485 0
M  V30 3247 H 316.036 -2.82314 -1.64214 0
M  V30 3248 H 314.695 -3.65176 0.322797 0
M  V30 3249 H 314.343 -4.63717 -1.94874 0
M  V30 3250 H 314.043 -5.83797 -0.667446 0
M  V30 3251 H 315.567 -5.89312 -1.59824 0
M  V30 3252 H 316.981 -5.69436 0.664482 0
M  V30 3253 H 315.378 -5.82445 1.4449 0
M  V30 3254 H 316.448 -4.4753 1.86668 0
M  V30 3255 N 317.792 -0.46758 -1.50504 0
M  V30 3256 C 318.724 0.364655 -2.26281 0
M  V30 3257 C 319.737 0.960151 -1.31472 0
M  V30 3258 O 320.926 0.849153 -1.57008 0
M  V30 3259 C 318.026 1.52509 -3.02645 0
M  V30 3260 C 317.199 1.04302 -4.24782 0
M  V30 3261 C 316.258 2.07709 -4.8347 0
M  V30 3262 O 315.284 1.65913 -5.44483 0
M  V30 3263 N 316.486 3.40485 -4.70159 0
M  V30 3264 H 319.251 -0.28495 -2.98342 0
M  V30 3265 H 316.812 -0.298163 -1.59131 0
M  V30 3266 H 318.804 2.21371 -3.38787 0
M  V30 3267 H 317.374 2.07945 -2.33404 0
M  V30 3268 H 316.594 0.180393 -3.93787 0
M  V30 3269 H 317.882 0.698798 -5.03978 0
M  V30 3270 H 317.28 3.77155 -4.21629 0
M  V30 3271 H 315.837 4.05156 -5.1058 0
M  V30 3272 N 319.27 1.56325 -0.20005 0
M  V30 3273 C 320.518 1.97329 0.436547 0
M  V30 3274 C 320.839 1.08826 1.61808 0
M  V30 3275 O 320.109 0.160604 1.95241 0
M  V30 3276 H 318.689 0.728714 0.164272 0
M  V30 3277 H 321.351 1.92761 -0.287937 0
M  V30 3278 H 320.447 3.02264 0.777353 0
M  V30 3279 N 320.748 -0.0735177 1.57428 0
M  V30 3280 C 321.678 -1.0879 2.06608 0
M  V30 3281 C 322.659 -1.40473 0.959237 0
M  V30 3282 O 323.844 -1.5013 1.23185 0
M  V30 3283 C 320.974 -2.40183 2.50857 0
M  V30 3284 C 319.928 -2.22858 3.65402 0
M  V30 3285 C 319.254 -3.59619 3.957 0
M  V30 3286 C 320.554 -1.65123 4.95511 0
M  V30 3287 H 322.248 -0.678673 2.91607 0
M  V30 3288 H 319.794 -0.325013 1.40284 0
M  V30 3289 H 321.747 -3.11437 2.83874 0
M  V30 3290 H 320.471 -2.83083 1.62885 0
M  V30 3291 H 319.13 -1.54045 3.32664 0
M  V30 3292 H 318.778 -4.00086 3.04861 0
M  V30 3293 H 318.478 -3.48866 4.72828 0
M  V30 3294 H 320.002 -4.32306 4.31212 0
M  V30 3295 H 321.416 -2.26241 5.26771 0
M  V30 3296 H 319.813 -1.65071 5.7695 0
M  V30 3297 H 320.883 -0.612559 4.81015 0
M  V30 3298 N 322.226 -1.5378 -0.344866 0
M  V30 3299 C 323.472 -1.71216 -1.08687 0
M  V30 3300 C 323.805 -0.473281 -1.88345 0
M  V30 3301 O 323.08 0.52968 -1.87149 0
M  V30 3302 C 323.363 -2.97486 -2.02914 0
M  V30 3303 C 323.216 -4.31579 -1.26727 0
M  V30 3304 C 324.535 -3.19422 -3.0275 0
M  V30 3305 H 321.654 -0.62301 -0.393735 0
M  V30 3306 H 324.296 -1.8645 -0.365563 0
M  V30 3307 H 322.446 -2.84629 -2.64421 0
M  V30 3308 H 324.118 -4.56284 -0.67845 0
M  V30 3309 H 322.361 -4.30049 -0.569273 0
M  V30 3310 H 323.032 -5.16106 -1.95803 0
M  V30 3311 H 325.508 -3.316 -2.51357 0
M  V30 3312 H 324.384 -4.09169 -3.65885 0
M  V30 3313 H 324.645 -2.35656 -3.74057 0
M  V30 3314 N 323.704 0.605807 -1.45491 0
M  V30 3315 C 324.929 1.39625 -1.53361 0
M  V30 3316 C 325.354 1.87351 -0.167645 0
M  V30 3317 O 324.712 1.60243 0.848051 0
M  V30 3318 C 324.76 2.57559 -2.5238 0
M  V30 3319 O 323.864 3.58248 -2.04285 0
M  V30 3320 H 323.205 0.416771 -0.516912 0
M  V30 3321 H 325.735 0.737103 -1.90861 0
M  V30 3322 H 325.745 3.0478 -2.71244 0
M  V30 3323 H 324.42 2.22171 -3.51586 0
M  V30 3324 H 322.997 3.17664 -1.95305 0
M  V30 3325 N 325.182 1.32811 0.848464 0
M  V30 3326 C 326.428 1.24917 1.60522 0
M  V30 3327 C 326.783 -0.185761 1.91501 0
M  V30 3328 O 326.076 -1.12524 1.55077 0
M  V30 3329 C 326.27 2.04831 2.92881 0
M  V30 3330 C 326.099 3.55949 2.74828 0
M  V30 3331 C 324.869 4.25277 2.72887 0
M  V30 3332 C 327.067 4.50476 2.48145 0
M  V30 3333 N 325.049 5.62408 2.46111 0
M  V30 3334 C 326.42 5.75427 2.30832 0
M  V30 3335 C 328.475 4.39665 2.33664 0
M  V30 3336 C 327.178 6.90789 2.00508 0
M  V30 3337 C 329.204 5.54833 2.04731 0
M  V30 3338 C 328.566 6.78787 1.88223 0
M  V30 3339 H 324.665 0.512279 0.590842 0
M  V30 3340 H 327.249 1.67246 0.996839 0
M  V30 3341 H 325.42 1.64837 3.51686 0
M  V30 3342 H 327.152 1.88782 3.57971 0
M  V30 3343 H 323.907 3.77456 2.86049 0
M  V30 3344 H 324.331 6.3467 2.35634 0
M  V30 3345 H 328.973 3.44477 2.45144 0
M  V30 3346 H 326.691 7.85984 1.87765 0
M  V30 3347 H 330.277 5.48398 1.94295 0
M  V30 3348 H 329.157 7.66396 1.66155 0
M  V30 3349 N 326.66 -1.06551 1.16123 0
M  V30 3350 C 327.908 -1.78947 0.939267 0
M  V30 3351 C 328.229 -1.87532 -0.534476 0
M  V30 3352 O 327.499 -1.38211 -1.38833 0
M  V30 3353 H 326.079 -0.662807 0.344523 0
M  V30 3354 H 328.741 -1.28725 1.46342 0
M  V30 3355 H 327.837 -2.81117 1.35572 0
M  V30 3356 N 328.138 -0.959301 -1.25041 0
M  V30 3357 C 329.366 -0.633949 -1.96948 0
M  V30 3358 C 329.781 0.794916 -1.7125 0
M  V30 3359 O 329.138 1.53231 -0.991287 0
M  V30 3360 C 329.189 -0.888805 -3.50403 0
M  V30 3361 O 328.91 -2.26149 -3.75218 0
M  V30 3362 C 330.411 -0.576482 -4.39536 0
M  V30 3363 H 327.631 -0.237263 -0.627652 0
M  V30 3364 H 330.175 -1.28495 -1.59089 0
M  V30 3365 H 328.33 -0.284145 -3.86357 0
M  V30 3366 H 328.744 -2.33514 -4.6965 0
M  V30 3367 H 330.218 -0.805314 -5.46094 0
M  V30 3368 H 330.695 0.489075 -4.36468 0
M  V30 3369 H 331.301 -1.16067 -4.09156 0
M  V30 3370 N 329.616 1.39756 -0.72842 0
M  V30 3371 C 330.863 2.00645 -0.273487 0
M  V30 3372 C 331.191 1.57786 1.13727 0
M  V30 3373 O 330.446 0.794886 1.7883 0
M  V30 3374 C 330.745 3.56002 -0.315776 0
M  V30 3375 C 330.411 4.18489 -1.67863 0
M  V30 3376 C 329.073 4.3527 -2.05166 0
M  V30 3377 C 331.425 4.53219 -2.57375 0
M  V30 3378 C 328.753 4.84069 -3.31503 0
M  V30 3379 C 331.105 5.03423 -3.83077 0
M  V30 3380 C 329.769 5.18413 -4.20481 0
M  V30 3381 H 329.039 0.734211 -0.100076 0
M  V30 3382 H 331.686 1.6718 -0.933972 0
M  V30 3383 H 329.991 3.89452 0.428285 0
M  V30 3384 H 331.688 4.00963 0.0542575 0
M  V30 3385 H 328.278 4.05824 -1.37858 0
M  V30 3386 H 332.462 4.39878 -2.29827 0
M  V30 3387 H 327.718 4.93859 -3.60435 0
M  V30 3388 H 331.892 5.2927 -4.52599 0
M  V30 3389 H 329.519 5.55987 -5.18443 0
M  V30 3390 N 331.094 0.475555 1.50254 0
M  V30 3391 C 332.505 0.0215174 1.86688 0
M  V30 3392 C 332.856 -1.38467 1.39001 0
M  V30 3393 O 331.981 -2.02732 0.756894 0
M  V30 3394 C 332.576 0.0322715 3.38785 0
M  V30 3395 C 331.135 -0.366314 3.74613 0
M  V30 3396 C 330.282 0.415832 2.74164 0
M  V30 3397 H 333.233 0.689612 1.42934 0
M  V30 3398 H 333.254 -0.76889 3.7265 0
M  V30 3399 H 332.766 1.05584 3.73462 0
M  V30 3400 H 330.867 -1.39406 3.45538 0
M  V30 3401 H 330.98 -0.064555 4.79057 0
M  V30 3402 H 329.344 -0.131048 2.54363 0
M  V30 3403 H 330.127 1.43899 3.11686 0
M  V30 3404 N 332.573 -1.56217 0.208337 0
M  V30 3405 C 333.813 -1.99849 -0.428927 0
M  V30 3406 C 334.177 -1.09262 -1.57879 0
M  V30 3407 O 335.378 -1.42185 -2.28116 0
M  V30 3408 C 333.649 -3.46777 -0.864879 0
M  V30 3409 S 335.208 -4.12434 -1.49811 0
M  V30 3410 H 332.026 -0.697742 -0.136665 0
M  V30 3411 H 334.628 -1.92953 0.314519 0
M  V30 3412 H 333.332 -4.10396 -0.0181326 0
M  V30 3413 H 332.863 -3.57518 -1.64147 0
M  V30 3414 H 334.878 -4.10532 -2.78707 0
M  V30 3415 N 334.051 0.0651679 -1.57465 0
M  V30 3416 C 335.299 0.761555 -1.87202 0
M  V30 3417 C 335.62 1.77778 -0.801243 0
M  V30 3418 O 334.89 1.95166 0.16937 0
M  V30 3419 H 333.47 0.284251 -0.690804 0
M  V30 3420 H 336.132 0.0396827 -1.9486 0
M  V30 3421 H 335.228 1.27365 -2.84929 0
M  V30 3422 N 335.529 1.53961 0.336706 0
M  V30 3423 C 336.461 1.78751 1.4346 0
M  V30 3424 C 337.474 0.669019 1.48418 0
M  V30 3425 O 338.663 0.945884 1.51378 0
M  V30 3426 C 335.763 1.87844 2.82078 0
M  V30 3427 C 334.936 3.17854 3.00479 0
M  V30 3428 C 333.995 3.17816 4.19379 0
M  V30 3429 O 333.021 3.91511 4.13168 0
M  V30 3430 N 334.223 2.40669 5.2826 0
M  V30 3431 H 336.988 2.73493 1.22563 0
M  V30 3432 H 334.549 1.53096 0.526625 0
M  V30 3433 H 336.541 1.85261 3.59806 0
M  V30 3434 H 335.111 1.00257 2.96086 0
M  V30 3435 H 334.331 3.33504 2.10163 0
M  V30 3436 H 335.619 4.03718 3.0966 0
M  V30 3437 H 335.017 1.8036 5.36178 0
M  V30 3438 H 333.574 2.43877 6.04456 0
M  V30 3439 N 337.007 -0.598083 1.45811 0
M  V30 3440 C 338.418 -1.18011 1.44673 0
M  V30 3441 C 338.769 -1.95378 0.179364 0
M  V30 3442 O 337.894 -2.04124 -0.718509 0
M  V30 3443 C 338.489 -2.14677 2.62105 0
M  V30 3444 C 337.048 -2.68236 2.64057 0
M  V30 3445 C 336.195 -1.43816 2.37091 0
M  V30 3446 H 339.146 -0.38686 1.53913 0
M  V30 3447 H 339.167 -2.97878 2.36746 0
M  V30 3448 H 338.679 -1.5834 3.5433 0
M  V30 3449 H 336.78 -3.28486 1.75864 0
M  V30 3450 H 336.893 -3.12021 3.63566 0
M  V30 3451 H 335.257 -1.731 1.86838 0
M  V30 3452 H 336.04 -0.893333 3.31473 0
M  V30 3453 N 338.485 -1.33259 -0.841409 0
M  V30 3454 C 339.433 -1.23279 -1.97244 0
M  V30 3455 C 340.427 -0.134706 -1.68864 0
M  V30 3456 O 341.633 -0.298501 -1.77508 0
M  V30 3457 H 338.008 -0.382497 -0.647457 0
M  V30 3458 H 339.979 -2.18906 -2.02787 0
M  V30 3459 C 338.728 -0.986268 -3.33419 0
M  V30 3460 H 338.051 -1.82347 -3.55794 0
M  V30 3461 H 339.491 -0.956728 -4.13065 0
M  V30 3462 C 337.95 0.310842 -3.35463 0
M  V30 3463 O 338.48 1.31838 -3.79449 0
M  V30 3464 N 336.686 0.337485 -2.88634 0
M  V30 3465 H 336.233 -0.482967 -2.53032 0
M  V30 3466 H 336.191 1.20518 -2.90384 0
M  V30 3467 N 339.963 1.05934 -1.16686 0
M  V30 3468 C 341.24 1.75643 -0.860747 0
M  V30 3469 C 341.62 2.01144 0.640641 0
M  V30 3470 O 340.968 1.64147 1.58959 0
M  V30 3471 C 341.178 3.05493 -1.68745 0
M  V30 3472 C 342.526 3.79581 -1.90271 0
M  V30 3473 O 343.55 3.15344 -1.65641 0
M  V30 3474 O 342.409 4.9499 -2.31618 0
M  V30 3475 H 339.503 0.763426 -0.317977 0
M  V30 3476 H 342.049 1.1217 -1.27342 0
M  V30 3477 H 340.821 2.8264 -2.70611 0
M  V30 3478 H 340.444 3.76702 -1.27206 0
M  V30 3479 N 341.441 0.965919 1.2453 0
M  V30 3480 C 342.852 0.665929 1.7442 0
M  V30 3481 C 343.203 -0.818407 1.78316 0
M  V30 3482 O 342.328 -1.64037 1.41141 0
M  V30 3483 C 342.923 1.20211 3.16757 0
M  V30 3484 C 341.482 0.952059 3.6416 0
M  V30 3485 C 340.629 1.33848 2.42858 0
M  V30 3486 H 343.58 1.14144 1.10258 0
M  V30 3487 H 343.601 0.567544 3.76244 0
M  V30 3488 H 343.113 2.28244 3.13889 0
M  V30 3489 H 341.214 -0.112821 3.72429 0
M  V30 3490 H 341.327 1.59645 4.51719 0
M  V30 3491 H 339.691 0.756864 2.43195 0
M  V30 3492 H 340.474 2.42827 2.42673 0
M  V30 3493 N 342.919 -1.39368 0.735821 0
M  V30 3494 C 344.167 -2.00101 0.283562 0
M  V30 3495 C 344.488 -1.5868 -1.13338 0
M  V30 3496 O 343.758 -0.835423 -1.77193 0
M  V30 3497 H 342.338 -0.740024 0.101851 0
M  V30 3498 H 345 -1.70404 0.945962 0
M  V30 3499 H 344.096 -3.10323 0.332604 0
M  V30 3500 N 344.397 -0.483516 -1.5 0
M  V30 3501 C 345.643 0.0672592 -2.02688 0
M  V30 3502 C 345.976 1.38247 -1.36387 0
M  V30 3503 O 345.251 1.88131 -0.493675 0
M  V30 3504 C 345.534 0.238109 -3.59312 0
M  V30 3505 C 345.387 -1.099 -4.36168 0
M  V30 3506 C 346.706 0.986916 -4.28892 0
M  V30 3507 H 343.825 0.0229696 -0.736642 0
M  V30 3508 H 346.467 -0.631527 -1.79197 0
M  V30 3509 H 344.617 0.8333 -3.79458 0
M  V30 3510 H 346.289 -1.73172 -4.27562 0
M  V30 3511 H 344.532 -1.69261 -3.99416 0
M  V30 3512 H 345.203 -0.932954 -5.44059 0
M  V30 3513 H 347.679 0.482302 -4.13295 0
M  V30 3514 H 346.555 1.07527 -5.38265 0
M  V30 3515 H 346.816 2.0265 -3.92919 0
M  V30 3516 N 345.875 1.56104 -0.216619 0
M  V30 3517 C 347.105 2.02269 0.420802 0
M  V30 3518 C 347.513 1.09575 1.5424 0
M  V30 3519 O 346.856 0.0967308 1.83445 0
M  V30 3520 C 346.918 3.44784 1.01806 0
M  V30 3521 C 346.582 4.56988 0.0325154 0
M  V30 3522 C 347.579 5.14225 -0.766055 0
M  V30 3523 C 345.264 5.02228 -0.0848092 0
M  V30 3524 C 347.258 6.15169 -1.6687 0
M  V30 3525 C 344.945 6.03011 -0.990994 0
M  V30 3526 C 345.943 6.59357 -1.78149 0
M  V30 3527 O 345.631 7.58179 -2.67245 0
M  V30 3528 H 345.363 0.667353 0.107776 0
M  V30 3529 H 347.917 2.02747 -0.329034 0
M  V30 3530 H 346.147 3.41359 1.81689 0
M  V30 3531 H 347.836 3.74626 1.56237 0
M  V30 3532 H 348.602 4.80126 -0.685836 0
M  V30 3533 H 344.481 4.58054 0.520349 0
M  V30 3534 H 348.025 6.59076 -2.28615 0
M  V30 3535 H 343.922 6.36532 -1.07225 0
M  V30 3536 H 344.69 7.75682 -2.61265 0
M  V30 3537 N 347.353 -0.0568162 1.57498 0
M  V30 3538 C 348.581 -0.765626 1.92213 0
M  V30 3539 C 348.996 -1.70353 0.813961 0
M  V30 3540 O 348.353 -1.81268 -0.211701 0
M  V30 3541 C 348.404 -1.5465 3.2675 0
M  V30 3542 O 348.125 -0.646278 4.33307 0
M  V30 3543 C 349.626 -2.35497 3.75574 0
M  V30 3544 H 346.846 -0.216835 0.634999 0
M  V30 3545 H 349.39 -0.0226146 2.04487 0
M  V30 3546 H 347.545 -2.24165 3.15957 0
M  V30 3547 H 347.959 -1.19093 5.108 0
M  V30 3548 H 349.433 -2.85722 4.72299 0
M  V30 3549 H 349.91 -3.15692 3.05344 0
M  V30 3550 H 350.516 -1.7111 3.8936 0
M  V30 3551 N 348.832 -1.54138 -0.328536 0
M  V30 3552 C 349.764 -1.79509 -1.4251 0
M  V30 3553 C 350.777 -0.67688 -1.48061 0
M  V30 3554 O 351.966 -0.953898 -1.50874 0
M  V30 3555 C 349.066 -1.89337 -2.81078 0
M  V30 3556 C 348.239 -3.19443 -2.98789 0
M  V30 3557 C 347.298 -3.20036 -4.17688 0
M  V30 3558 O 346.324 -3.93697 -4.11086 0
M  V30 3559 N 347.526 -2.43467 -5.26976 0
M  V30 3560 H 350.291 -2.74139 -1.21111 0
M  V30 3561 H 347.852 -1.53373 -0.518499 0
M  V30 3562 H 349.844 -1.87167 -3.58818 0
M  V30 3563 H 348.414 -1.01826 -2.95551 0
M  V30 3564 H 347.634 -3.34614 -2.08391 0
M  V30 3565 H 348.922 -4.05354 -3.07515 0
M  V30 3566 H 348.32 -1.83201 -5.35214 0
M  V30 3567 H 346.877 -2.4708 -6.03154 0
M  V30 3568 N 350.31 0.590341 -1.46126 0
M  V30 3569 C 351.556 1.35082 -1.51264 0
M  V30 3570 C 351.889 1.93534 -0.160711 0
M  V30 3571 O 351.164 1.76045 0.826956 0
M  V30 3572 C 351.447 2.48588 -2.6053 0
M  V30 3573 C 351.3 1.95221 -4.05227 0
M  V30 3574 C 352.619 3.50662 -2.6594 0
M  V30 3575 H 349.738 0.489803 -0.550692 0
M  V30 3576 H 352.38 0.663887 -1.78024 0
M  V30 3577 H 350.53 3.07186 -2.37843 0
M  V30 3578 H 352.202 1.41139 -4.39178 0
M  V30 3579 H 350.445 1.26101 -4.15068 0
M  V30 3580 H 351.116 2.77121 -4.77397 0
M  V30 3581 H 353.592 3.01934 -2.86313 0
M  V30 3582 H 352.468 4.27551 -3.44226 0
M  V30 3583 H 352.729 4.07399 -1.71694 0
M  V30 3584 N 351.788 1.33704 0.83433 0
M  V30 3585 C 353.028 1.26754 1.60352 0
M  V30 3586 C 353.392 -0.163182 1.91305 0
M  V30 3587 O 354.593 -0.3567 2.66423 0
M  V30 3588 C 352.864 2.12262 2.8754 0
M  V30 3589 S 354.423 2.22549 3.78176 0
M  V30 3590 H 351.241 0.450879 0.549753 0
M  V30 3591 H 353.843 1.68788 0.986444 0
M  V30 3592 H 352.547 3.15238 2.62779 0
M  V30 3593 H 352.078 1.71082 3.54252 0
M  V30 3594 H 354.093 1.3899 4.76336 0
M  V30 3595 N 353.266 -1.05314 1.17247 0
M  V30 3596 C 354.213 -2.13031 0.888058 0
M  V30 3597 C 355.183 -1.65253 -0.167537 0
M  V30 3598 O 356.368 -1.90775 -0.0305974 0
M  V30 3599 C 353.508 -3.42702 0.406147 0
M  V30 3600 C 352.621 -4.04161 1.52572 0
M  V30 3601 C 351.756 -5.21744 0.997808 0
M  V30 3602 C 350.795 -5.75207 2.09291 0
M  V30 3603 N 349.932 -6.84094 1.57986 0
M  V30 3604 H 354.772 -2.36698 1.81048 0
M  V30 3605 H 352.309 -1.16121 0.903013 0
M  V30 3606 H 354.267 -4.17059 0.108305 0
M  V30 3607 H 352.897 -3.19222 -0.479313 0
M  V30 3608 H 351.949 -3.27253 1.93931 0
M  V30 3609 H 353.261 -4.39881 2.35172 0
M  V30 3610 H 352.415 -6.03168 0.653739 0
M  V30 3611 H 351.154 -4.87495 0.141232 0
M  V30 3612 H 350.159 -4.92414 2.44557 0
M  V30 3613 H 351.384 -6.11505 2.95362 0
M  V30 3614 H 349.33 -6.51745 0.74598 0
M  V30 3615 H 349.247 -7.18811 2.34195 0
M  V30 3616 H 350.515 -7.69172 1.26468 0
M  V30 3617 N 354.744 -0.972509 -1.24016 0
M  V30 3618 C 355.991 -0.637034 -1.92219 0
M  V30 3619 C 356.319 0.828418 -1.75976 0
M  V30 3620 O 355.574 1.61206 -1.10955 0
M  V30 3621 C 355.873 -0.963694 -3.44162 0
M  V30 3622 C 355.539 -2.41807 -3.80579 0
M  V30 3623 C 354.201 -2.81556 -3.9023 0
M  V30 3624 C 356.553 -3.36172 -3.98293 0
M  V30 3625 C 353.881 -4.14702 -4.15017 0
M  V30 3626 C 356.233 -4.68952 -4.24578 0
M  V30 3627 C 354.897 -5.08472 -4.32449 0
M  V30 3628 H 354.167 -0.233107 -0.703379 0
M  V30 3629 H 356.814 -1.2249 -1.47202 0
M  V30 3630 H 355.119 -0.29365 -3.90698 0
M  V30 3631 H 356.816 -0.682449 -3.9515 0
M  V30 3632 H 353.406 -2.09988 -3.73635 0
M  V30 3633 H 357.59 -3.06644 -3.90234 0
M  V30 3634 H 352.846 -4.4494 -4.19331 0
M  V30 3635 H 357.02 -5.42037 -4.37229 0
M  V30 3636 H 354.647 -6.11665 -4.51409 0
M  V30 3637 N 356.222 1.38976 -0.743202 0
M  V30 3638 C 357.45 2.04636 -0.30525 0
M  V30 3639 C 357.865 1.56044 1.06281 0
M  V30 3640 O 357.222 0.728921 1.67311 0
M  V30 3641 C 357.273 3.60193 -0.307177 0
M  V30 3642 O 356.994 4.06998 -1.62124 0
M  V30 3643 C 358.495 4.4306 0.145928 0
M  V30 3644 H 355.715 0.65788 -0.132041 0
M  V30 3645 H 358.259 1.77866 -1.00915 0
M  V30 3646 H 356.414 3.85835 0.347898 0
M  V30 3647 H 356.828 5.01371 -1.54036 0
M  V30 3648 H 358.302 5.51921 0.0934183 0
M  V30 3649 H 358.779 4.22706 1.19231 0
M  V30 3650 H 359.385 4.22584 -0.479886 0
M  V30 3651 N 357.7 0.491464 1.49741 0
M  V30 3652 C 358.647 -0.292027 2.28945 0
M  V30 3653 C 359.617 -0.968973 1.34908 0
M  V30 3654 O 360.802 -0.97748 1.6386 0
M  V30 3655 C 357.942 -1.35617 3.17336 0
M  V30 3656 C 357.055 -0.691957 4.26422 0
M  V30 3657 C 356.19 -1.73572 5.02042 0
M  V30 3658 C 355.229 -1.05286 6.02977 0
M  V30 3659 N 354.366 -2.0404 6.71798 0
M  V30 3660 H 359.206 0.389654 2.95442 0
M  V30 3661 H 356.743 0.204003 1.45679 0
M  V30 3662 H 358.701 -1.98502 3.66951 0
M  V30 3663 H 357.331 -2.00674 2.52844 0
M  V30 3664 H 356.383 0.0499523 3.80367 0
M  V30 3665 H 357.695 -0.153946 4.98562 0
M  V30 3666 H 356.849 -2.43987 5.55478 0
M  V30 3667 H 355.588 -2.30757 4.29654 0
M  V30 3668 H 354.593 -0.334446 5.48782 0
M  V30 3669 H 355.818 -0.487636 6.77347 0
M  V30 3670 H 353.764 -2.60205 6.02187 0
M  V30 3671 H 353.681 -1.55279 7.39881 0
M  V30 3672 H 354.949 -2.73772 7.29842 0
M  V30 3673 N 359.178 -1.55987 0.224894 0
M  V30 3674 C 360.424 -1.99433 -0.39973 0
M  V30 3675 C 360.779 -1.11004 -1.57149 0
M  V30 3676 O 360.072 -0.160725 -1.90925 0
M  V30 3677 C 360.266 -3.46394 -0.880106 0
M  V30 3678 C 360.095 -4.4904 0.243565 0
M  V30 3679 C 358.865 -5.00272 0.711056 0
M  V30 3680 C 361.063 -5.03195 1.06299 0
M  V30 3681 N 359.045 -5.86628 1.80944 0
M  V30 3682 C 360.416 -5.86508 2.01017 0
M  V30 3683 C 362.471 -4.8555 1.10205 0
M  V30 3684 C 361.174 -6.54062 2.99324 0
M  V30 3685 C 363.2 -5.53866 2.07332 0
M  V30 3686 C 362.562 -6.3695 3.00789 0
M  V30 3687 H 358.661 -0.773815 -0.112847 0
M  V30 3688 H 361.245 -1.91754 0.337432 0
M  V30 3689 H 359.416 -3.54515 -1.58662 0
M  V30 3690 H 361.148 -3.76752 -1.47783 0
M  V30 3691 H 357.903 -4.72655 0.29906 0
M  V30 3692 H 358.327 -6.34507 2.36073 0
M  V30 3693 H 362.969 -4.20966 0.39343 0
M  V30 3694 H 360.687 -7.17827 3.71147 0
M  V30 3695 H 364.273 -5.42178 2.11032 0
M  V30 3696 H 363.153 -6.8888 3.74718 0
M  V30 3697 N 360.656 0.0484629 -1.57525 0
M  V30 3698 C 361.905 0.742065 -1.87553 0
M  V30 3699 C 362.218 1.77545 -0.820802 0
M  V30 3700 O 363.424 2.52027 -1.00967 0
M  V30 3701 C 361.88 1.37081 -3.32771 0
M  V30 3702 C 361.488 0.374786 -4.4643 0
M  V30 3703 C 363.232 2.04542 -3.71972 0
M  V30 3704 C 361.139 1.01077 -5.82698 0
M  V30 3705 H 360.069 0.280903 -0.699721 0
M  V30 3706 H 362.72 -0.00411877 -1.835 0
M  V30 3707 H 361.102 2.16605 -3.31509 0
M  V30 3708 H 362.276 -0.392331 -4.59127 0
M  V30 3709 H 360.591 -0.196653 -4.15935 0
M  V30 3710 H 363.188 2.52943 -4.71088 0
M  V30 3711 H 363.531 2.85515 -3.02964 0
M  V30 3712 H 364.064 1.31819 -3.75325 0
M  V30 3713 H 360.803 0.240878 -6.55057 0
M  V30 3714 H 360.323 1.74819 -5.73758 0
M  V30 3715 H 362.002 1.52383 -6.28799 0
M  V30 3716 N 362.134 1.5431 0.320358 0
M  V30 3717 C 363.082 1.84647 1.4145 0
M  V30 3718 C 364.076 0.718624 1.53402 0
M  V30 3719 O 365.282 0.902335 1.5575 0
M  V30 3720 H 361.657 0.585349 0.472091 0
M  V30 3721 H 363.628 2.7614 1.13089 0
M  V30 3722 C 362.377 2.09341 2.77617 0
M  V30 3723 H 361.7 2.9559 2.69196 0
M  V30 3724 H 363.14 2.3452 3.53237 0
M  V30 3725 C 361.599 0.885939 3.25043 0
M  V30 3726 O 362.129 0.0967891 4.01583 0
M  V30 3727 N 360.335 0.696682 2.82125 0
M  V30 3728 H 359.882 1.34006 2.2 0
M  V30 3729 H 359.84 -0.109712 3.14209 0
M  V30 3730 N 363.613 -0.582584 1.46437 0
M  V30 3731 C 364.89 -1.34276 1.4223 0
M  V30 3732 C 365.27 -2.10835 0.10583 0
M  V30 3733 O 364.618 -2.09485 -0.912596 0
M  V30 3734 C 364.828 -2.26865 2.65204 0
M  V30 3735 C 366.176 -2.88691 3.11356 0
M  V30 3736 O 367.2 -2.37178 2.65753 0
M  V30 3737 O 366.059 -3.82255 3.90568 0
M  V30 3738 H 363.153 -0.603326 0.565621 0
M  V30 3739 H 365.699 -0.603591 1.58603 0
M  V30 3740 H 364.471 -1.69724 3.52576 0
M  V30 3741 H 364.094 -3.08122 2.5129 0
M  V30 3742 N 365.091 -1.34144 -0.827227 0
M  V30 3743 C 366.319 -1.29325 -1.61501 0
M  V30 3744 C 366.734 0.13354 -1.88327 0
M  V30 3745 O 366.091 1.0793 -1.47164 0
M  V30 3746 C 366.142 -2.07746 -2.95844 0
M  V30 3747 O 365.863 -3.4486 -2.70191 0
M  V30 3748 C 367.364 -2.10273 -3.90256 0
M  V30 3749 H 364.584 -0.445069 -0.50215 0
M  V30 3750 H 367.128 -1.76693 -1.02955 0
M  V30 3751 H 365.283 -1.6403 -3.5096 0
M  V30 3752 H 365.697 -3.85345 -3.55822 0
M  V30 3753 H 367.171 -2.69575 -4.81698 0
M  V30 3754 H 367.648 -1.096 -4.25305 0
M  V30 3755 H 368.254 -2.54059 -3.41078 0
M  V30 3756 N 366.569 1.04691 -1.17803 0
M  V30 3757 C 367.502 2.12068 -0.842765 0
M  V30 3758 C 368.48 1.61455 0.192608 0
M  V30 3759 O 369.664 1.88359 0.072995 0
M  V30 3760 C 366.791 3.37715 -0.258063 0
M  V30 3761 C 365.837 4.07164 -1.26962 0
M  V30 3762 S 366.67 4.55047 -2.82299 0
M  V30 3763 C 367.826 5.83935 -2.25323 0
M  V30 3764 H 368.059 2.4018 -1.75217 0
M  V30 3765 H 365.592 1.17366 -1.00323 0
M  V30 3766 H 367.55 4.10435 0.0727935 0
M  V30 3767 H 366.211 3.0773 0.629357 0
M  V30 3768 H 365.404 4.9746 -0.809263 0
M  V30 3769 H 365.006 3.40533 -1.54639 0
M  V30 3770 H 367.298 6.57552 -1.63192 0
M  V30 3771 H 368.241 6.34725 -3.13894 0
M  V30 3772 H 368.649 5.3874 -1.68582 0
M  V30 3773 N 368.047 0.979072 1.23499 0
M  V30 3774 C 368.994 0.517904 2.24914 0
M  V30 3775 C 369.964 -0.442525 1.60097 0
M  V30 3776 O 371.149 -0.350365 1.87556 0
M  V30 3777 C 368.289 -0.174813 3.44657 0
M  V30 3778 C 367.402 0.825721 4.24035 0
M  V30 3779 C 366.537 0.107946 5.3109 0
M  V30 3780 C 365.576 1.09778 6.02175 0
M  V30 3781 N 364.713 0.40925 7.00906 0
M  V30 3782 H 369.553 1.38751 2.63727 0
M  V30 3783 H 367.09 0.695303 1.2963 0
M  V30 3784 H 369.048 -0.593233 4.12961 0
M  V30 3785 H 367.678 -1.0083 3.06648 0
M  V30 3786 H 366.73 1.36253 3.55161 0
M  V30 3787 H 368.042 1.58005 4.73113 0
M  V30 3788 H 367.196 -0.367904 6.05583 0
M  V30 3789 H 365.935 -0.678994 4.8295 0
M  V30 3790 H 364.94 1.5844 5.26476 0
M  V30 3791 H 366.165 1.88536 6.52404 0
M  V30 3792 H 364.111 -0.358506 6.5502 0
M  V30 3793 H 364.028 1.10226 7.47921 0
M  V30 3794 H 365.296 -0.0442557 7.79487 0
M  V30 3795 N 369.525 -1.3858 0.750561 0
M  V30 3796 C 370.472 -2.30483 0.120835 0
M  V30 3797 C 371.442 -1.50022 -0.712923 0
M  V30 3798 O 372.627 -1.78662 -0.669676 0
M  V30 3799 C 369.767 -3.36431 -0.768666 0
M  V30 3800 C 368.88 -4.31927 0.0793922 0
M  V30 3801 C 368.015 -5.24944 -0.81283 0
M  V30 3802 C 367.054 -6.12088 0.0390447 0
M  V30 3803 N 366.191 -6.97412 -0.809969 0
M  V30 3804 H 371.031 -2.83761 0.91015 0
M  V30 3805 H 368.568 -1.39707 0.460463 0
M  V30 3806 H 370.526 -3.96462 -1.29898 0
M  V30 3807 H 369.156 -2.8457 -1.5238 0
M  V30 3808 H 368.208 -3.73382 0.727303 0
M  V30 3809 H 369.52 -4.93319 0.737401 0
M  V30 3810 H 368.674 -5.90078 -1.41042 0
M  V30 3811 H 367.413 -4.63911 -1.50458 0
M  V30 3812 H 366.418 -5.45952 0.649328 0
M  V30 3813 H 367.643 -6.75189 0.727809 0
M  V30 3814 H 365.589 -6.38931 -1.48672 0
M  V30 3815 H 365.506 -7.55712 -0.208789 0
M  V30 3816 H 366.774 -7.66959 -1.39263 0
M  V30 3817 N 371.003 -0.499398 -1.49478 0
M  V30 3818 C 371.953 0.299103 -2.2603 0
M  V30 3819 C 372.937 0.936934 -1.30807 0
M  V30 3820 O 374.129 0.844798 -1.55538 0
M  V30 3821 C 371.258 1.36391 -3.15044 0
M  V30 3822 C 370.344 0.732398 -4.17728 0
M  V30 3823 N 370.735 -0.164028 -5.05534 0
M  V30 3824 C 369.033 0.993162 -4.34801 0
M  V30 3825 C 369.734 -0.525345 -5.79323 0
M  V30 3826 N 368.71 0.106348 -5.43496 0
M  V30 3827 H 372.512 -0.391003 -2.91287 0
M  V30 3828 H 370.026 -0.31537 -1.59308 0
M  V30 3829 H 372.023 1.94939 -3.68516 0
M  V30 3830 H 370.683 2.05571 -2.51338 0
M  V30 3831 H 371.694 -0.534736 -5.15132 0
M  V30 3832 H 368.371 1.67783 -3.82302 0
M  V30 3833 H 369.761 -1.25862 -6.60006 0
M  V30 3834 N 372.481 1.55866 -0.233164 0
M  V30 3835 C 373.897 1.59133 0.121988 0
M  V30 3836 C 374.097 1.25016 1.58029 0
M  V30 3837 O 373.153 0.990922 2.32243 0
M  V30 3838 C 374.466 2.99932 -0.214792 0
M  V30 3839 C 376.014 3.12601 -0.157971 0
M  V30 3840 C 376.489 4.55597 -0.46859 0
M  V30 3841 N 377.98 4.61305 -0.418585 0
M  V30 3842 C 378.715 5.69903 -0.63227 0
M  V30 3843 N 378.211 6.86819 -0.90835 0
M  V30 3844 N 380.004 5.59264 -0.563913 0
M  V30 3845 H 372.155 1.76315 -1.18434 0
M  V30 3846 H 374.418 0.820093 -0.475553 0
M  V30 3847 H 374.124 3.29588 -1.22739 0
M  V30 3848 H 373.998 3.74327 0.464691 0
M  V30 3849 H 376.385 2.82735 0.845283 0
M  V30 3850 H 376.466 2.40511 -0.871102 0
M  V30 3851 H 376.11 4.86182 -1.46934 0
M  V30 3852 H 376.04 5.25928 0.265865 0
M  V30 3853 H 378.531 3.77297 -0.213368 0
M  V30 3854 H 378.844 7.65507 -1.05919 0
M  V30 3855 H 377.189 6.88536 -0.945673 0
M  V30 3856 H 380.38 4.66802 -0.348372 0
M  V30 3857 H 380.553 6.43831 -0.733847 0
M  V30 3858 O 373.998 0.0973059 1.61207 0
M  V30 3859 H 374.689 -0.50491 1.87004 0
M  V30 END ATOM
M  V30 BEGIN BOND
M  V30 END BOND
M  V30 END CTAB
M  END
$$$$
