drugbank_target|P49908 Selenoprotein P (DB01593; DB14487; DB14533; DB14548)
 OpenBabel12092121023D

  0  0  0     0  0            999 V3000
M  V30 BEGIN CTAB
M  V30 COUNTS 5913 5981 0 0 0
M  V30 BEGIN ATOM
M  V30 1 H -0.908 1.98254 -0.117106 0
M  V30 2 N 0 1.576 0 0
M  V30 3 C 0.933 2.03868 1.02534 0
M  V30 4 C 1.911 0.928543 1.3348 0
M  V30 5 O 3.095 1.19667 1.45644 0
M  V30 6 C 0.222 2.43627 2.35294 0
M  V30 7 C -0.732 3.65373 2.2001 0
M  V30 8 S 0.101 5.13292 1.52614 0
M  V30 9 C 1.257 5.56322 2.86805 0
M  V30 10 H 1.49 2.90518 0.631377 0
M  V30 11 H -0.977 1.52953 0.210867 0
M  V30 12 H 0.981 2.67203 3.11629 0
M  V30 13 H -0.358 1.57376 2.7183 0
M  V30 14 H -1.165 3.90944 3.18086 0
M  V30 15 H -1.563 3.418 1.51819 0
M  V30 16 H 0.729 5.58782 3.83104 0
M  V30 17 H 1.672 6.56266 2.65933 0
M  V30 18 H 2.08 4.83886 2.90714 0
M  V30 19 N 1.4781 -0.272755 1.55222 0
M  V30 20 C 2.7241 -1.00172 1.77023 0
M  V30 21 C 3.0791 -1.83928 0.564633 0
M  V30 22 O 2.3721 -1.86416 -0.442674 0
M  V30 23 C 2.5661 -1.91642 3.01675 0
M  V30 24 C 2.3951 -1.16888 4.34243 0
M  V30 25 C 1.1651 -0.884464 4.97499 0
M  V30 26 C 3.3631 -0.55919 5.11251 0
M  V30 27 N 1.3451 -0.11015 6.13801 0
M  V30 28 C 2.7161 0.0809469 6.19947 0
M  V30 29 C 4.7711 -0.467058 4.95705 0
M  V30 30 C 3.4741 0.804335 7.14789 0
M  V30 31 C 5.5001 0.242739 5.90902 0
M  V30 32 C 4.8621 0.871613 6.98987 0
M  V30 33 H 0.9611 -0.348529 0.700037 0
M  V30 34 H 3.5451 -0.277365 1.92714 0
M  V30 35 H 1.7161 -2.61303 2.87359 0
M  V30 36 H 3.4481 -2.57901 3.1188 0
M  V30 37 H 0.2031 -1.18979 4.58411 0
M  V30 38 H 0.6271 0.264344 6.76484 0
M  V30 39 H 5.2691 -0.93894 4.12242 0
M  V30 40 H 2.9871 1.2879 7.97771 0
M  V30 41 H 6.5731 0.314347 5.8095 0
M  V30 42 H 5.4531 1.4121 7.71381 0
M  V30 43 N 2.9562 -1.48159 -0.537278 0
M  V30 44 C 4.3722 -1.34118 -0.865129 0
M  V30 45 C 4.5722 -0.346678 -1.98495 0
M  V30 46 O 3.6282 0.234715 -2.51407 0
M  V30 47 C 4.9412 -2.73963 -1.23954 0
M  V30 48 C 6.4892 -2.82397 -1.34984 0
M  V30 49 C 6.9642 -4.22928 -1.75772 0
M  V30 50 N 8.4552 -4.25566 -1.82887 0
M  V30 51 C 9.1902 -5.31235 -2.15817 0
M  V30 52 N 8.6862 -6.47189 -2.47222 0
M  V30 53 N 10.4792 -5.18624 -2.16761 0
M  V30 54 H 2.6302 -2.1144 0.201715 0
M  V30 55 H 4.8932 -0.947598 0.0275949 0
M  V30 56 H 4.5992 -3.48264 -0.490381 0
M  V30 57 H 4.4732 -3.0702 -2.19132 0
M  V30 58 H 6.8602 -2.08356 -2.08978 0
M  V30 59 H 6.9412 -2.5297 -0.379448 0
M  V30 60 H 6.5852 -4.97482 -1.02341 0
M  V30 61 H 6.5152 -4.49794 -2.73848 0
M  V30 62 H 9.0062 -3.41924 -1.60924 0
M  V30 63 H 9.3192 -7.23564 -2.71433 0
M  V30 64 H 7.6642 -6.50476 -2.44757 0
M  V30 65 H 10.8552 -4.27056 -1.91679 0
M  V30 66 H 11.0282 -6.01078 -2.42093 0
M  V30 67 N 4.4343 0.785586 -1.36625 0
M  V30 68 C 5.6593 1.57963 -1.34397 0
M  V30 69 C 6.0843 1.87964 0.071526 0
M  V30 70 O 5.4423 1.48182 1.0446 0
M  V30 71 C 5.4903 2.87511 -2.17646 0
M  V30 72 O 4.5943 3.81281 -1.57158 0
M  V30 73 H 3.9353 0.479014 -0.459828 0
M  V30 74 H 6.4653 0.973411 -1.79961 0
M  V30 75 H 6.4753 3.36745 -2.30362 0
M  V30 76 H 5.1503 2.65002 -3.20541 0
M  V30 77 H 3.7273 3.39885 -1.53403 0
M  V30 78 N 5.9124 1.20967 1.01018 0
M  V30 79 C 6.8424 0.988272 2.11555 0
M  V30 80 C 7.8234 -0.0849778 1.69888 0
M  V30 81 O 9.0084 0.0738202 1.9406 0
M  V30 82 C 6.1384 0.546528 3.42973 0
M  V30 83 C 5.0924 1.56375 3.9841 0
M  V30 84 C 4.4184 0.97842 5.25672 0
M  V30 85 C 5.7184 2.94922 4.31066 0
M  V30 86 H 7.4124 1.91276 2.30334 0
M  V30 87 H 4.9584 0.921073 1.1069 0
M  V30 88 H 6.9114 0.378839 4.19694 0
M  V30 89 H 5.6354 -0.413598 3.23971 0
M  V30 90 H 4.2944 1.71891 3.23804 0
M  V30 91 H 3.9424 0.0101688 5.02999 0
M  V30 92 H 3.6424 1.65784 5.63728 0
M  V30 93 H 5.1664 0.821939 6.05043 0
M  V30 94 H 6.5804 2.8288 4.9865 0
M  V30 95 H 4.9774 3.5983 4.80253 0
M  V30 96 H 6.0474 3.4616 3.39561 0
M  V30 97 N 7.3905 -1.2043 1.01659 0
M  V30 98 C 8.6385 -1.89423 0.704522 0
M  V30 99 C 8.9595 -1.79231 -0.768197 0
M  V30 100 O 8.2295 -1.1947 -1.55254 0
M  V30 101 H 6.8095 -0.701178 0.257602 0
M  V30 102 H 9.4715 -1.4626 1.28818 0
M  V30 103 H 8.5675 -2.96052 0.987916 0
M  V30 104 N 8.8686 -0.792821 -1.36206 0
M  V30 105 C 9.7986 -0.207853 -2.32573 0
M  V30 106 C 10.7796 0.659055 -1.56813 0
M  V30 107 O 11.9646 0.592176 -1.84951 0
M  V30 108 C 9.0946 0.655449 -3.41059 0
M  V30 109 C 8.0486 -0.111842 -4.27854 0
M  V30 110 C 7.3746 0.872274 -5.27537 0
M  V30 111 C 8.6746 -1.30299 -5.05786 0
M  V30 112 H 10.3686 -1.01294 -2.81744 0
M  V30 113 H 7.9146 -0.48854 -1.3546 0
M  V30 114 H 9.8676 1.07464 -4.07467 0
M  V30 115 H 8.5916 1.49328 -2.90463 0
M  V30 116 H 7.2506 -0.512053 -3.63006 0
M  V30 117 H 6.8986 1.70523 -4.73214 0
M  V30 118 H 6.5986 0.363291 -5.86476 0
M  V30 119 H 8.1226 1.28996 -5.96818 0
M  V30 120 H 9.5366 -0.959379 -5.65216 0
M  V30 121 H 7.9336 -1.7455 -5.74154 0
M  V30 122 H 9.0036 -2.09663 -4.37229 0
M  V30 123 N 10.3467 1.47872 -0.545128 0
M  V30 124 C 11.3097 2.28337 0.198717 0
M  V30 125 C 12.3097 1.36255 0.853888 0
M  V30 126 O 13.4997 1.59003 0.711606 0
M  V30 127 C 10.6317 3.15585 1.28915 0
M  V30 128 H 11.8247 2.95567 -0.507941 0
M  V30 129 H 9.3777 1.53362 -0.301616 0
M  V30 130 H 10.1127 2.53019 2.02859 0
M  V30 131 H 9.8977 3.83337 0.824309 0
M  V30 132 H 11.3877 3.76243 1.81194 0
M  V30 133 N 11.8248 0.280983 1.55075 0
M  V30 134 C 12.7548 -0.597469 2.25727 0
M  V30 135 C 13.7358 -1.15417 1.24952 0
M  V30 136 O 14.9208 -1.18722 1.53684 0
M  V30 137 C 12.0508 -1.7789 2.98283 0
M  V30 138 C 11.0048 -1.35347 4.06036 0
M  V30 139 C 10.3308 -2.61846 4.66198 0
M  V30 140 C 11.6308 -0.499354 5.19907 0
M  V30 141 H 13.3248 -0.00824265 2.99399 0
M  V30 142 H 10.8708 -0.0025244 1.44 0
M  V30 143 H 12.8238 -2.39937 3.46422 0
M  V30 144 H 11.5478 -2.39405 2.22155 0
M  V30 145 H 10.2068 -0.756156 3.58717 0
M  V30 146 H 9.8548 -3.21632 3.86732 0
M  V30 147 H 9.5548 -2.3409 5.38958 0
M  V30 148 H 11.0788 -3.24732 5.1709 0
M  V30 149 H 12.4928 -1.02498 5.64063 0
M  V30 150 H 10.8898 -0.316424 5.99265 0
M  V30 151 H 11.9598 0.480459 4.82514 0
M  V30 152 N 13.3029 -1.57598 0.00835791 0
M  V30 153 C 14.2659 -2.07884 -0.965242 0
M  V30 154 C 15.2659 -0.989825 -1.26725 0
M  V30 155 O 16.4559 -1.25218 -1.21104 0
M  V30 156 C 13.5879 -2.52731 -2.28779 0
M  V30 157 H 14.7809 -2.95178 -0.530112 0
M  V30 158 H 12.3339 -1.54458 -0.239283 0
M  V30 159 H 13.0689 -1.68705 -2.76964 0
M  V30 160 H 12.8539 -3.32272 -2.08177 0
M  V30 161 H 14.3439 -2.91933 -2.98605 0
M  V30 162 N 14.781 0.264519 -1.55364 0
M  V30 163 C 15.711 1.33121 -1.91836 0
M  V30 164 C 16.692 1.51101 -0.781192 0
M  V30 165 O 17.877 1.64003 -1.04003 0
M  V30 166 C 15.007 2.68921 -2.19769 0
M  V30 167 C 13.961 2.65661 -3.35571 0
M  V30 168 C 13.287 4.05093 -3.49004 0
M  V30 169 C 14.587 2.24187 -4.71739 0
M  V30 170 H 16.281 1.02844 -2.81182 0
M  V30 171 H 13.827 0.493286 -1.35287 0
M  V30 172 H 15.78 3.43663 -2.43872 0
M  V30 173 H 14.504 3.00799 -1.27231 0
M  V30 174 H 13.163 1.93377 -3.1145 0
M  V30 175 H 12.811 4.34206 -2.53917 0
M  V30 176 H 12.511 4.03804 -4.26868 0
M  V30 177 H 14.035 4.81561 -3.75408 0
M  V30 178 H 15.449 2.88654 -4.9533 0
M  V30 179 H 13.846 2.34044 -5.52579 0
M  V30 180 H 14.916 1.19327 -4.69988 0
M  V30 181 N 16.2591 1.48442 0.529413 0
M  V30 182 C 17.4991 1.58086 1.29569 0
M  V30 183 C 17.8631 0.249302 1.90375 0
M  V30 184 O 19.0641 0.220738 2.67892 0
M  V30 185 C 17.3351 2.68793 2.35552 0
M  V30 186 S 18.8941 2.98207 3.21898 0
M  V30 187 H 15.7121 0.557922 0.440732 0
M  V30 188 H 18.3141 1.85966 0.603059 0
M  V30 189 H 17.0181 3.64102 1.89363 0
M  V30 190 H 16.5491 2.42817 3.09522 0
M  V30 191 H 18.5641 2.37548 4.35644 0
M  V30 192 N 17.7372 -0.778329 1.37039 0
M  V30 193 C 18.6672 -1.90546 1.34962 0
M  V30 194 C 19.6482 -1.68681 0.219274 0
M  V30 195 O 20.8332 -1.89634 0.418624 0
M  V30 196 C 17.9632 -3.27734 1.14925 0
M  V30 197 C 16.9172 -3.64147 2.24902 0
M  V30 198 C 16.2432 -4.99806 1.89996 0
M  V30 199 C 17.5432 -3.71579 3.67051 0
M  V30 200 H 19.2372 -1.92541 2.29277 0
M  V30 201 H 16.7832 -0.924948 1.10366 0
M  V30 202 H 18.7362 -4.06215 1.12104 0
M  V30 203 H 17.4602 -3.26154 0.170631 0
M  V30 204 H 16.1192 -2.8797 2.26868 0
M  V30 205 H 15.7672 -4.94759 0.906796 0
M  V30 206 H 15.4672 -5.25139 2.63634 0
M  V30 207 H 16.9912 -5.80694 1.88749 0
M  V30 208 H 18.4052 -4.40227 3.67251 0
M  V30 209 H 16.8022 -4.08405 4.39688 0
M  V30 210 H 17.8722 -2.72404 4.01154 0
M  V30 211 N 19.2153 -1.21501 -1.00376 0
M  V30 212 C 20.1453 -0.999478 -2.11028 0
M  V30 213 C 21.1263 0.0759671 -1.6993 0
M  V30 214 O 22.3113 -0.0841106 -1.94018 0
M  V30 215 C 19.4413 -0.564709 -3.42678 0
M  V30 216 C 18.3953 -1.58486 -3.97576 0
M  V30 217 C 17.7213 -1.00628 -5.25146 0
M  V30 218 C 19.0213 -2.97204 -4.29496 0
M  V30 219 H 20.7153 -1.92495 -2.29317 0
M  V30 220 H 18.2613 -0.92693 -1.102 0
M  V30 221 H 20.2143 -0.401091 -4.19487 0
M  V30 222 H 18.9383 0.396411 -3.24185 0
M  V30 223 H 17.5973 -1.73606 -3.22888 0
M  V30 224 H 17.2453 -0.0368439 -5.02987 0
M  V30 225 H 16.9453 -1.68771 -5.62841 0
M  V30 226 H 18.4693 -0.854015 -6.04598 0
M  V30 227 H 19.8833 -2.8552 -4.97143 0
M  V30 228 H 18.2803 -3.62372 -4.78338 0
M  V30 229 H 19.3503 -3.47956 -3.3772 0
M  V30 230 N 20.6934 1.19889 -1.02296 0
M  V30 231 C 22.1044 1.71124 -0.746568 0
M  V30 232 C 22.4554 1.81939 0.734335 0
M  V30 233 O 21.5804 1.48639 1.57275 0
M  V30 234 C 22.1754 3.10804 -1.34857 0
M  V30 235 C 20.7344 3.59323 -1.1209 0
M  V30 236 C 19.8814 2.3635 -1.45031 0
M  V30 237 H 22.8324 1.04813 -1.19163 0
M  V30 238 H 22.8534 3.73186 -0.742437 0
M  V30 239 H 22.3654 3.029 -2.42638 0
M  V30 240 H 20.4664 3.7255 -0.0610337 0
M  V30 241 H 20.5794 4.4378 -1.80544 0
M  V30 242 H 18.9434 2.39399 -0.869487 0
M  V30 243 H 19.7264 2.31081 -2.53883 0
M  V30 244 N 22.1715 0.800033 1.35784 0
M  V30 245 C 23.3965 0.388511 2.03729 0
M  V30 246 C 23.8215 -0.990481 1.5991 0
M  V30 247 O 23.1795 -1.64013 0.772612 0
M  V30 248 C 23.2275 0.4726 3.5749 0
M  V30 249 O 22.3315 -0.51646 4.09153 0
M  V30 250 H 21.6725 0.163271 0.643614 0
M  V30 251 H 24.2025 1.0841 1.73518 0
M  V30 252 H 24.2125 0.34003 4.06581 0
M  V30 253 H 22.8875 1.47848 3.88734 0
M  V30 254 H 21.4645 -0.344673 3.71304 0
M  V30 255 N 23.6496 -1.47581 0.552962 0
M  V30 256 C 24.8976 -2.02082 0.0272703 0
M  V30 257 C 25.2186 -1.4301 -1.32563 0
M  V30 258 O 24.4886 -0.603745 -1.86365 0
M  V30 259 H 23.0686 -0.746966 0.00709182 0
M  V30 260 H 25.7306 -1.81033 0.722008 0
M  V30 261 H 24.8266 -3.12034 -0.0639951 0
M  V30 262 N 25.1277 -0.289203 -1.54924 0
M  V30 263 C 26.3757 0.322879 -1.99504 0
M  V30 264 C 26.6967 1.55313 -1.1791 0
M  V30 265 O 25.9667 1.94001 -0.272097 0
M  V30 266 H 24.5467 0.122291 -0.736922 0
M  V30 267 H 27.2087 -0.397802 -1.90797 0
M  V30 268 H 26.3047 0.603061 -3.06218 0
M  V30 269 N 26.6058 1.57591 -0.0167156 0
M  V30 270 C 27.8338 1.95575 0.675128 0
M  V30 271 C 28.2488 0.892542 1.6637 0
M  V30 272 O 27.6058 -0.126912 1.82058 0
M  V30 273 C 27.6568 3.33608 1.39239 0
M  V30 274 O 27.3778 4.3585 0.443444 0
M  V30 275 C 28.8788 3.86151 2.17721 0
M  V30 276 H 26.0988 0.644423 0.186978 0
M  V30 277 H 28.6428 2.0437 -0.0728 0
M  V30 278 H 26.7978 3.2607 2.09182 0
M  V30 279 H 27.2118 5.158 0.951358 0
M  V30 280 H 28.6858 4.85114 2.63379 0
M  V30 281 H 29.1628 3.19738 3.01105 0
M  V30 282 H 29.7688 3.96918 1.52761 0
M  V30 283 N 28.0839 -0.256276 1.55502 0
M  V30 284 C 28.9939 -1.33882 1.92647 0
M  V30 285 C 30.0099 -1.53159 0.825727 0
M  V30 286 O 31.1859 -1.66963 1.12629 0
M  V30 287 C 28.2509 -2.6751 2.20543 0
M  V30 288 C 27.3119 -2.56836 3.43997 0
M  V30 289 C 26.5449 -3.84092 3.70553 0
M  V30 290 O 26.7679 -4.85545 2.99336 0
M  V30 291 O 25.7019 -3.83288 4.64084 0
M  V30 292 H 29.5279 -1.05374 2.84833 0
M  V30 293 H 27.1129 -0.456237 1.42263 0
M  V30 294 H 28.9949 -3.46492 2.39835 0
M  V30 295 H 27.6699 -2.9577 1.31536 0
M  V30 296 H 26.5769 -1.76172 3.30021 0
M  V30 297 H 27.9099 -2.33523 4.33275 0
M  V30 298 N 29.562 -1.4872 -0.521534 0
M  V30 299 C 30.787 -1.61101 -1.30618 0
M  V30 300 C 31.212 -0.274611 -1.86085 0
M  V30 301 O 30.57 0.754937 -1.64834 0
M  V30 302 C 30.618 -2.66709 -2.4269 0
M  V30 303 O 29.722 -2.24456 -3.45967 0
M  V30 304 H 29.063 -0.539921 -0.386499 0
M  V30 305 H 31.593 -1.94767 -0.626645 0
M  V30 306 H 31.603 -2.88245 -2.88754 0
M  V30 307 H 30.278 -3.63727 -2.01682 0
M  V30 308 H 28.855 -2.13168 -3.05964 0
M  V30 309 N 31.0401 0.771051 -1.3745 0
M  V30 310 C 31.9721 1.89352 -1.29146 0
M  V30 311 C 32.9851 1.61477 -0.207124 0
M  V30 312 O 34.1741 1.72382 -0.463324 0
M  V30 313 C 31.2741 3.24596 -0.974195 0
M  V30 314 C 30.4471 3.80111 -2.16413 0
M  V30 315 C 29.5061 4.93832 -1.81703 0
M  V30 316 O 28.5321 5.09382 -2.54006 0
M  V30 317 N 29.7341 5.75483 -0.761573 0
M  V30 318 H 32.4991 1.96991 -2.25864 0
M  V30 319 H 30.0601 0.950191 -1.31084 0
M  V30 320 H 32.0521 3.98193 -0.722828 0
M  V30 321 H 30.6221 3.12454 -0.0955527 0
M  V30 322 H 29.8421 2.98284 -2.57721 0
M  V30 323 H 31.1301 4.13932 -2.95867 0
M  V30 324 H 30.5281 5.65469 -0.161609 0
M  V30 325 H 29.0851 6.49302 -0.570064 0
M  V30 326 N 32.5182 1.22032 0.997298 0
M  V30 327 C 33.7952 0.950823 1.70935 0
M  V30 328 C 34.1752 -0.535292 2.042 0
M  V30 329 O 33.5232 -1.50217 1.72183 0
M  V30 330 C 33.7332 1.84386 2.96315 0
M  V30 331 C 35.0812 2.09732 3.69185 0
M  V30 332 O 36.1052 1.81798 3.06314 0
M  V30 333 O 34.9642 2.57018 4.82291 0
M  V30 334 H 32.0582 0.357204 0.745878 0
M  V30 335 H 34.6042 1.32997 1.05404 0
M  V30 336 H 33.3762 2.84928 2.68201 0
M  V30 337 H 32.9992 1.46602 3.69586 0
M  V30 338 N 33.9963 -1.19345 1.0293 0
M  V30 339 C 34.9283 -2.22036 0.56857 0
M  V30 340 C 35.9413 -1.58865 -0.355779 0
M  V30 341 O 37.1303 -1.77851 -0.152103 0
M  V30 342 C 34.2303 -3.38363 -0.190752 0
M  V30 343 C 33.4033 -4.31118 0.738643 0
M  V30 344 C 32.4623 -5.26194 0.0246497 0
M  V30 345 O 31.4883 -5.65461 0.651354 0
M  V30 346 N 32.6903 -5.66971 -1.24594 0
M  V30 347 H 35.4553 -2.6219 1.45177 0
M  V30 348 H 33.0163 -1.34015 0.908381 0
M  V30 349 H 35.0083 -3.98981 -0.677961 0
M  V30 350 H 33.5783 -2.96994 -0.975366 0
M  V30 351 H 32.7983 -3.68276 1.40593 0
M  V30 352 H 34.0863 -4.90001 1.37029 0
M  V30 353 H 33.4843 -5.37104 -1.77583 0
M  V30 354 H 32.0413 -6.2984 -1.67764 0
M  V30 355 N 35.4744 -0.807222 -1.35358 0
M  V30 356 C 36.6994 -0.399309 -2.0352 0
M  V30 357 C 37.1244 0.981986 -1.60433 0
M  V30 358 O 36.4824 1.63601 -0.781299 0
M  V30 359 C 36.5304 -0.491552 -3.57234 0
M  V30 360 O 35.6344 0.494754 -4.09421 0
M  V30 361 H 34.9754 -0.166682 -0.642739 0
M  V30 362 H 37.5054 -1.09328 -1.72941 0
M  V30 363 H 37.5154 -0.361588 -4.06395 0
M  V30 364 H 36.1904 -1.49907 -3.87944 0
M  V30 365 H 34.7674 0.324977 -3.71481 0
M  V30 366 N 36.9525 1.47285 -0.560781 0
M  V30 367 C 38.1775 2.07359 -0.0410566 0
M  V30 368 C 38.6025 1.41017 1.24483 0
M  V30 369 O 37.9605 0.486368 1.74654 0
M  V30 370 C 38.0085 3.6035 0.134123 0
M  V30 371 O 37.1125 3.94681 1.19587 0
M  V30 372 H 36.4535 0.661887 -0.0529291 0
M  V30 373 H 38.9835 1.89252 -0.777482 0
M  V30 374 H 38.9935 4.0652 0.347207 0
M  V30 375 H 37.6685 4.08034 -0.805047 0
M  V30 376 H 36.2455 3.60251 0.962987 0
M  V30 377 N 38.4306 0.297415 1.54768 0
M  V30 378 C 39.3606 -0.573494 2.26348 0
M  V30 379 C 40.3416 -1.14085 1.26169 0
M  V30 380 O 41.5266 -1.17086 1.54934 0
M  V30 381 C 38.6566 -1.74716 3.00153 0
M  V30 382 C 37.6106 -1.31032 4.07449 0
M  V30 383 C 36.9366 -2.56887 4.68949 0
M  V30 384 C 38.2366 -0.444183 5.20408 0
M  V30 385 H 39.9306 0.0235131 2.99391 0
M  V30 386 H 37.4766 0.0127488 1.43994 0
M  V30 387 H 39.4296 -2.3625 3.48947 0
M  V30 388 H 38.1536 -2.37035 2.24682 0
M  V30 389 H 36.8126 -0.718066 3.59499 0
M  V30 390 H 36.4606 -3.17512 3.90122 0
M  V30 391 H 36.1606 -2.2836 5.41411 0
M  V30 392 H 37.6846 -3.19229 5.20505 0
M  V30 393 H 39.0986 -0.9651 5.65118 0
M  V30 394 H 37.4956 -0.252846 5.99567 0
M  V30 395 H 38.5656 0.531609 4.81977 0
M  V30 396 N 39.9087 -1.5758 0.0250728 0
M  V30 397 C 41.1487 -1.93497 -0.65865 0
M  V30 398 C 41.5127 -0.901409 -1.69525 0
M  V30 399 O 42.7137 -1.14664 -2.43116 0
M  V30 400 C 40.9847 -3.34352 -1.26267 0
M  V30 401 S 42.5437 -3.92191 -1.96803 0
M  V30 402 H 39.3617 -0.67709 -0.216958 0
M  V30 403 H 41.9637 -1.95303 0.0877692 0
M  V30 404 H 40.6677 -4.07395 -0.495741 0
M  V30 405 H 40.1987 -3.3598 -2.04648 0
M  V30 406 H 42.2137 -3.75298 -3.24601 0
M  V30 407 N 41.3868 0.248026 -1.55636 0
M  V30 408 C 42.3338 1.30707 -1.90222 0
M  V30 409 C 43.3038 1.47881 -0.756332 0
M  V30 410 O 44.4888 1.61883 -1.00988 0
M  V30 411 C 41.6288 2.65769 -2.20138 0
M  V30 412 C 40.7418 2.56612 -3.47526 0
M  V30 413 C 39.8768 3.8402 -3.67017 0
M  V30 414 C 38.9158 3.69476 -4.8801 0
M  V30 415 N 38.0528 4.88774 -5.04029 0
M  V30 416 H 42.8928 1.00512 -2.80538 0
M  V30 417 H 40.4298 0.485055 -1.38873 0
M  V30 418 H 42.3878 3.44386 -2.35487 0
M  V30 419 H 41.0178 2.94115 -1.33027 0
M  V30 420 H 40.0698 1.69571 -3.40514 0
M  V30 421 H 41.3818 2.41774 -4.36287 0
M  V30 422 H 40.5358 4.7108 -3.8232 0
M  V30 423 H 39.2748 4.01754 -2.76487 0
M  V30 424 H 38.2798 2.80799 -4.72686 0
M  V30 425 H 39.5048 3.53238 -5.8 0
M  V30 426 H 37.4508 5.0687 -4.16435 0
M  V30 427 H 37.3678 4.76562 -5.86877 0
M  V30 428 H 38.6358 5.77335 -5.23741 0
M  V30 429 N 42.8649 1.48995 0.513639 0
M  V30 430 C 43.7969 1.60836 1.63293 0
M  V30 431 C 44.8099 0.491701 1.55197 0
M  V30 432 O 45.9989 0.763238 1.6136 0
M  V30 433 C 43.0989 1.53731 3.02027 0
M  V30 434 C 42.2719 2.80715 3.35437 0
M  V30 435 C 41.3309 2.66837 4.53525 0
M  V30 436 O 40.3569 3.40753 4.55934 0
M  V30 437 N 41.5589 1.77539 5.52684 0
M  V30 438 H 44.3239 2.57366 1.53566 0
M  V30 439 H 41.8849 1.45925 0.701259 0
M  V30 440 H 43.8769 1.42118 3.78926 0
M  V30 441 H 42.4469 0.651092 3.05744 0
M  V30 442 H 41.6669 3.06772 2.47557 0
M  V30 443 H 42.9549 3.64927 3.54551 0
M  V30 444 H 42.3529 1.16719 5.53528 0
M  V30 445 H 40.9099 1.71856 6.28736 0
M  V30 446 N 44.343 -0.763751 1.37857 0
M  V30 447 C 45.754 -1.3405 1.29952 0
M  V30 448 C 46.105 -1.96138 -0.0492898 0
M  V30 449 O 45.23 -1.94372 -0.951239 0
M  V30 450 C 45.825 -2.43729 2.35333 0
M  V30 451 C 44.384 -2.97151 2.31037 0
M  V30 452 C 43.531 -1.70438 2.18738 0
M  V30 453 H 46.482 -0.563396 1.48363 0
M  V30 454 H 46.503 -3.23412 2.00462 0
M  V30 455 H 46.015 -1.9851 3.33489 0
M  V30 456 H 44.116 -3.46724 1.3643 0
M  V30 457 H 44.229 -3.52221 3.24772 0
M  V30 458 H 42.593 -1.93673 1.65418 0
M  V30 459 H 43.376 -1.27312 3.18821 0
M  V30 460 N 45.8211 -1.22559 -0.990812 0
M  V30 461 C 47.2321 -1.04791 -1.54518 0
M  V30 462 C 47.5831 0.387998 -1.92325 0
M  V30 463 O 46.7081 1.27328 -1.74976 0
M  V30 464 C 47.3031 -1.896 -2.80779 0
M  V30 465 C 45.8621 -1.76124 -3.32652 0
M  V30 466 C 45.0091 -1.8594 -2.05722 0
M  V30 467 H 47.9601 -1.36374 -0.811662 0
M  V30 468 H 47.9811 -1.41464 -3.53225 0
M  V30 469 H 47.4931 -2.94101 -2.53231 0
M  V30 470 H 45.5941 -0.743643 -3.65104 0
M  V30 471 H 45.7071 -2.58913 -4.03114 0
M  V30 472 H 44.0711 -1.29403 -2.19379 0
M  V30 473 H 44.8541 -2.91976 -1.80568 0
M  V30 474 N 47.2992 1.18797 -1.03562 0
M  V30 475 C 48.2622 2.20464 -0.626769 0
M  V30 476 C 49.2622 1.57721 0.313173 0
M  V30 477 O 50.4522 1.73917 0.0992615 0
M  V30 478 C 47.5842 3.40802 0.0818498 0
M  V30 479 H 48.7772 2.58149 -1.5264 0
M  V30 480 H 46.3302 1.32593 -0.827578 0
M  V30 481 H 47.0652 3.08642 0.995518 0
M  V30 482 H 46.8502 3.8758 -0.593652 0
M  V30 483 H 48.3402 4.16092 0.354584 0
M  V30 484 N 48.7773 0.814389 1.34928 0
M  V30 485 C 50.0233 0.408167 1.99263 0
M  V30 486 C 50.3783 -1.0154 1.63424 0
M  V30 487 O 49.6713 -1.69607 0.891289 0
M  V30 488 C 49.8653 0.537781 3.53331 0
M  V30 489 C 49.6943 1.9724 4.04137 0
M  V30 490 C 48.4643 2.60245 4.33129 0
M  V30 491 C 50.6623 2.93801 4.2212 0
M  V30 492 N 48.6443 3.95036 4.69914 0
M  V30 493 C 50.0153 4.1348 4.6199 0
M  V30 494 C 52.0703 2.9053 4.04348 0
M  V30 495 C 50.7733 5.3033 4.85945 0
M  V30 496 C 52.7993 4.06589 4.29464 0
M  V30 497 C 52.1613 5.25017 4.69613 0
M  V30 498 H 48.2603 0.197289 0.756704 0
M  V30 499 H 50.8443 1.05728 1.63492 0
M  V30 500 H 49.0153 -0.0813868 3.88315 0
M  V30 501 H 50.7473 0.105389 4.04563 0
M  V30 502 H 47.5023 2.11545 4.23728 0
M  V30 503 H 47.9263 4.64455 4.92555 0
M  V30 504 H 52.5683 2.00115 3.72443 0
M  V30 505 H 50.2863 6.21309 5.16721 0
M  V30 506 H 53.8723 4.05447 4.17257 0
M  V30 507 H 52.7523 6.1333 4.88667 0
M  V30 508 N 50.2554 -1.46986 0.568584 0
M  V30 509 C 51.4804 -2.07335 0.0520528 0
M  V30 510 C 51.9054 -1.41675 -1.23733 0
M  V30 511 O 51.2634 -0.495623 -1.74394 0
M  V30 512 C 51.3114 -3.60417 -0.11501 0
M  V30 513 O 50.4154 -3.95309 -1.17492 0
M  V30 514 H 49.7564 -0.661597 0.0564385 0
M  V30 515 H 52.2864 -1.88837 0.787507 0
M  V30 516 H 52.2964 -4.06698 -0.325644 0
M  V30 517 H 50.9714 -4.07601 0.826675 0
M  V30 518 H 49.5484 -3.60757 -0.943869 0
M  V30 519 N 51.7335 -0.305618 -1.54608 0
M  V30 520 C 52.9825 0.303098 -1.9941 0
M  V30 521 C 53.2955 1.54648 -1.19764 0
M  V30 522 O 54.5015 2.23007 -1.54855 0
M  V30 523 C 52.9575 0.590588 -3.55021 0
M  V30 524 C 52.5655 -0.634719 -4.43481 0
M  V30 525 C 54.3095 1.16025 -4.08336 0
M  V30 526 C 52.2165 -0.320126 -5.90533 0
M  V30 527 H 51.1465 0.117031 -0.744862 0
M  V30 528 H 53.7975 -0.415045 -1.78745 0
M  V30 529 H 52.1795 1.36845 -3.71604 0
M  V30 530 H 53.3535 -1.41079 -4.38672 0
M  V30 531 H 51.6685 -1.12333 -4.00962 0
M  V30 532 H 54.2655 1.40994 -5.15776 0
M  V30 533 H 54.6085 2.10397 -3.5922 0
M  V30 534 H 55.1415 0.443985 -3.95315 0
M  V30 535 H 51.8805 -1.23254 -6.43808 0
M  V30 536 H 51.4005 0.418579 -5.98338 0
M  V30 537 H 53.0795 0.0766241 -6.46955 0
M  V30 538 N 53.2116 1.57565 -0.0334293 0
M  V30 539 C 54.6276 1.56297 0.322997 0
M  V30 540 C 54.8276 1.03945 1.7262 0
M  V30 541 O 53.8836 0.688109 2.42943 0
M  V30 542 C 55.1966 3.00232 0.167664 0
M  V30 543 C 56.7446 3.12078 0.240107 0
M  V30 544 C 57.2196 4.57859 0.113513 0
M  V30 545 N 58.7106 4.62887 0.170359 0
M  V30 546 C 59.4456 5.73319 0.0962517 0
M  V30 547 N 58.9416 6.92794 -0.0291881 0
M  V30 548 N 60.7346 5.61898 0.150551 0
M  V30 549 H 52.8856 1.89923 -0.950956 0
M  V30 550 H 55.1486 0.873824 -0.367608 0
M  V30 551 H 54.8546 3.42501 -0.799102 0
M  V30 552 H 54.7286 3.654 0.936083 0
M  V30 553 H 57.1156 2.69718 1.19733 0
M  V30 554 H 57.1966 2.49623 -0.558763 0
M  V30 555 H 56.8406 5.009 -0.840314 0
M  V30 556 H 56.7706 5.18299 0.931302 0
M  V30 557 H 59.2616 3.76954 0.26728 0
M  V30 558 H 59.5746 7.7276 -0.0789252 0
M  V30 559 H 57.9196 6.94971 -0.0640299 0
M  V30 560 H 61.1106 4.67448 0.246981 0
M  V30 561 H 61.2836 6.47938 0.0893365 0
M  V30 562 N 54.6897 -0.239769 1.55765 0
M  V30 563 C 55.9667 -0.990056 1.68693 0
M  V30 564 C 56.3467 -2.03107 0.5754 0
M  V30 565 O 55.6947 -2.24604 -0.42017 0
M  V30 566 C 55.9047 -1.61696 3.09282 0
M  V30 567 C 57.2527 -2.11613 3.6811 0
M  V30 568 O 58.2767 -1.71624 3.12127 0
M  V30 569 O 57.1357 -2.85057 4.66267 0
M  V30 570 H 54.2297 -0.461299 0.686391 0
M  V30 571 H 56.7757 -0.232991 1.68093 0
M  V30 572 H 55.5477 -0.864357 3.81634 0
M  V30 573 H 55.1707 -2.44005 3.13923 0
M  V30 574 N 56.1678 -1.49265 -0.50573 0
M  V30 575 C 57.0998 -1.617 -1.62437 0
M  V30 576 C 58.1128 -0.499924 -1.54934 0
M  V30 577 O 59.3018 -0.771785 -1.60953 0
M  V30 578 C 56.4018 -1.5533 -3.01207 0
M  V30 579 C 55.5748 -2.8249 -3.33943 0
M  V30 580 C 54.6338 -2.69238 -4.52103 0
M  V30 581 O 53.6598 -3.43167 -4.5412 0
M  V30 582 N 54.8618 -1.80468 -5.51735 0
M  V30 583 H 57.6268 -2.58177 -1.52199 0
M  V30 584 H 55.1878 -1.46294 -0.693511 0
M  V30 585 H 57.1798 -1.44125 -3.78167 0
M  V30 586 H 55.7498 -0.667297 -3.05395 0
M  V30 587 H 54.9698 -3.08081 -2.45926 0
M  V30 588 H 56.2578 -3.66802 -3.5261 0
M  V30 589 H 55.6558 -1.19653 -5.52901 0
M  V30 590 H 54.2128 -1.75188 -6.27816 0
M  V30 591 N 57.6459 0.756429 -1.3826 0
M  V30 592 C 58.9229 1.50584 -1.24835 0
M  V30 593 C 59.3029 2.10556 0.151485 0
M  V30 594 O 58.6509 1.96825 1.1607 0
M  V30 595 C 58.8609 2.57448 -2.3563 0
M  V30 596 C 60.2089 3.24429 -2.73917 0
M  V30 597 O 61.2329 2.67751 -2.34921 0
M  V30 598 O 60.0919 4.26937 -3.41156 0
M  V30 599 H 57.1859 0.667664 -0.48801 0
M  V30 600 H 59.7319 0.792083 -1.5008 0
M  V30 601 H 58.5039 2.11362 -3.29305 0
M  V30 602 H 58.1269 3.36408 -2.11933 0
M  V30 603 N 59.124 1.23083 0.984299 0
M  V30 604 C 60.535 1.05609 1.5396 0
M  V30 605 C 60.886 -0.377793 1.92528 0
M  V30 606 O 60.011 -1.26398 1.75649 0
M  V30 607 C 60.606 1.91087 2.7977 0
M  V30 608 C 59.165 1.77885 3.31713 0
M  V30 609 C 58.312 1.87028 2.04733 0
M  V30 610 H 61.263 1.36802 0.804419 0
M  V30 611 H 61.284 1.43336 3.5247 0
M  V30 612 H 60.796 2.9544 2.51668 0
M  V30 613 H 58.897 0.762995 3.64704 0
M  V30 614 H 59.01 2.61047 4.01735 0
M  V30 615 H 57.374 1.30565 2.18689 0
M  V30 616 H 58.157 2.92929 1.79017 0
M  V30 617 N 60.6021 -1.18246 1.0419 0
M  V30 618 C 61.5351 -2.20746 0.578474 0
M  V30 619 C 62.5131 -1.57912 -0.387624 0
M  V30 620 O 63.6971 -1.86071 -0.301634 0
M  V30 621 C 60.8241 -3.38346 -0.154762 0
M  V30 622 C 59.8701 -4.19587 0.764782 0
M  V30 623 S 60.7031 -4.86014 2.24835 0
M  V30 624 C 61.8591 -6.07012 1.526 0
M  V30 625 H 62.0921 -2.59715 1.44691 0
M  V30 626 H 59.6251 -1.287 0.85297 0
M  V30 627 H 61.5831 -4.065 -0.571641 0
M  V30 628 H 60.2441 -2.97786 -0.999105 0
M  V30 629 H 59.4371 -5.03611 0.197976 0
M  V30 630 H 59.0391 -3.56818 1.12057 0
M  V30 631 H 61.3311 -6.72523 0.819733 0
M  V30 632 H 62.2741 -6.68202 2.34333 0
M  V30 633 H 62.6821 -5.55249 1.01779 0
M  V30 634 N 62.0802 -0.821533 -1.34494 0
M  V30 635 C 63.0102 -0.257138 -2.3208 0
M  V30 636 C 63.9912 0.625645 -1.58176 0
M  V30 637 O 65.1762 0.552811 -1.86166 0
M  V30 638 C 62.3062 0.582958 -3.42372 0
M  V30 639 C 61.2602 -0.202571 -4.2752 0
M  V30 640 C 60.5862 0.760179 -5.29269 0
M  V30 641 C 61.8862 -1.40998 -5.02908 0
M  V30 642 H 63.5802 -1.07247 -2.79532 0
M  V30 643 H 61.1262 -0.517163 -1.34393 0
M  V30 644 H 63.0792 0.987972 -4.09655 0
M  V30 645 H 61.8032 1.43133 -2.93565 0
M  V30 646 H 60.4622 -0.588936 -3.61838 0
M  V30 647 H 60.1102 1.60447 -4.76724 0
M  V30 648 H 59.8102 0.238809 -5.87115 0
M  V30 649 H 61.3342 1.16308 -5.9942 0
M  V30 650 H 62.7482 -1.07905 -5.63054 0
M  V30 651 H 61.1452 -1.86689 -5.70322 0
M  V30 652 H 62.2152 -2.1889 -4.32684 0
M  V30 653 N 63.5583 1.46682 -0.576371 0
M  V30 654 C 64.5063 2.31953 0.17335 0
M  V30 655 C 65.5003 1.44098 0.89062 0
M  V30 656 O 66.7063 1.60759 0.809728 0
M  V30 657 H 63.0813 0.748273 0.0747727 0
M  V30 658 H 65.0523 2.93007 -0.564738 0
M  V30 659 C 63.8013 3.27142 1.17786 0
M  V30 660 H 63.1243 3.94719 0.635361 0
M  V30 661 H 64.5643 3.896 1.67296 0
M  V30 662 C 63.0233 2.52036 2.23561 0
M  V30 663 O 63.5533 2.27877 3.3081 0
M  V30 664 N 61.7593 2.12709 1.97998 0
M  V30 665 H 61.3063 2.32557 1.10792 0
M  V30 666 H 61.2643 1.62776 2.68982 0
M  V30 667 N 65.0364 0.313813 1.54444 0
M  V30 668 C 66.2614 -0.296681 2.05267 0
M  V30 669 C 66.6864 -1.45757 1.18897 0
M  V30 670 O 66.0444 -1.80239 0.195886 0
M  V30 671 C 66.0924 -0.71831 3.53373 0
M  V30 672 O 65.1964 -1.82175 3.69981 0
M  V30 673 H 64.5374 -0.0554061 0.661684 0
M  V30 674 H 67.0674 0.459387 1.99376 0
M  V30 675 H 67.0774 -1.00364 3.95463 0
M  V30 676 H 65.7524 0.130821 4.15694 0
M  V30 677 H 64.3294 -1.53598 3.39797 0
M  V30 678 N 66.5145 -1.57545 0.0417849 0
M  V30 679 C 67.4625 -2.12148 -0.953723 0
M  V30 680 C 68.4565 -1.05104 -1.32852 0
M  V30 681 O 69.6625 -1.23524 -1.30927 0
M  V30 682 H 66.0375 -0.677957 -0.325389 0
M  V30 683 H 68.0085 -2.94707 -0.467991 0
M  V30 684 C 66.7575 -2.6739 -2.22257 0
M  V30 685 H 66.0805 -3.49413 -1.94295 0
M  V30 686 H 67.5205 -3.09227 -2.90094 0
M  V30 687 C 65.9795 -1.60723 -2.96091 0
M  V30 688 O 66.5095 -1.01449 -3.88679 0
M  V30 689 N 64.7155 -1.32466 -2.58652 0
M  V30 690 H 64.2625 -1.80856 -1.83437 0
M  V30 691 H 64.2205 -0.61325 -3.08361 0
M  V30 692 N 67.9926 0.231505 -1.5589 0
M  V30 693 C 69.2406 0.955461 -1.78088 0
M  V30 694 C 69.5616 1.85262 -0.608533 0
M  V30 695 O 68.8316 1.92277 0.375035 0
M  V30 696 H 67.4116 0.355787 -0.656829 0
M  V30 697 H 70.0736 0.245751 -1.93344 0
M  V30 698 H 69.1696 1.56814 -2.69844 0
M  V30 699 N 69.4707 1.49531 0.497807 0
M  V30 700 C 70.6957 1.63159 1.28039 0
M  V30 701 C 71.1207 0.30418 1.85624 0
M  V30 702 O 70.4787 -0.728618 1.66015 0
M  V30 703 C 70.5267 2.70537 2.38416 0
M  V30 704 O 69.6307 2.29931 3.42353 0
M  V30 705 H 68.9717 0.546001 0.377861 0
M  V30 706 H 71.5017 1.9574 0.59558 0
M  V30 707 H 71.5117 2.92802 2.84132 0
M  V30 708 H 70.1867 3.6689 1.95869 0
M  V30 709 H 68.7637 2.18009 3.02533 0
M  V30 710 N 70.9488 -0.749086 1.3866 0
M  V30 711 C 72.1948 -1.51056 1.35314 0
M  V30 712 C 72.5278 -1.94121 -0.0553751 0
M  V30 713 O 71.8028 -1.65763 -1.01749 0
M  V30 714 C 72.0858 -2.76003 2.31288 0
M  V30 715 C 71.9388 -2.39047 3.8102 0
M  V30 716 C 73.2578 -3.78046 2.2532 0
M  V30 717 H 70.3768 -0.547972 0.492844 0
M  V30 718 H 73.0188 -0.857628 1.69543 0
M  V30 719 H 71.1688 -3.31716 2.02229 0
M  V30 720 H 72.8408 -1.89074 4.20771 0
M  V30 721 H 71.0838 -1.71449 3.98482 0
M  V30 722 H 71.7548 -3.28462 4.4364 0
M  V30 723 H 74.2308 -3.31884 2.50983 0
M  V30 724 H 73.1068 -4.63159 2.94576 0
M  V30 725 H 73.3678 -4.23957 1.25352 0
M  V30 726 N 72.4269 -1.23603 -0.977757 0
M  V30 727 C 73.6549 -1.09646 -1.75458 0
M  V30 728 C 74.0699 0.351859 -1.85492 0
M  V30 729 O 73.4269 1.24327 -1.336 0
M  V30 730 C 73.4779 -1.71895 -3.18016 0
M  V30 731 O 73.1989 -3.11063 -3.08498 0
M  V30 732 C 74.6999 -1.63415 -4.12081 0
M  V30 733 H 71.9199 -0.38359 -0.550545 0
M  V30 734 H 74.4639 -1.63507 -1.22824 0
M  V30 735 H 72.6189 -1.22061 -3.67668 0
M  V30 736 H 73.0329 -3.41305 -3.9826 0
M  V30 737 H 74.5069 -2.11669 -5.09804 0
M  V30 738 H 74.9839 -0.593462 -4.35172 0
M  V30 739 H 75.5899 -2.12628 -3.68334 0
M  V30 740 N 73.905 1.17692 -1.04816 0
M  V30 741 C 75.151 1.88137 -0.75711 0
M  V30 742 C 75.484 1.80604 0.713841 0
M  V30 743 O 74.759 1.21146 1.52164 0
M  V30 744 C 75.042 3.38318 -1.2334 0
M  V30 745 C 74.895 3.54622 -2.76701 0
M  V30 746 C 76.214 4.32214 -0.829415 0
M  V30 747 H 73.333 0.683163 -0.27651 0
M  V30 748 H 75.975 1.38424 -1.30149 0
M  V30 749 H 74.125 3.80787 -0.770286 0
M  V30 750 H 75.797 3.21194 -3.31107 0
M  V30 751 H 74.04 2.97026 -3.16161 0
M  V30 752 H 74.711 4.60028 -3.05088 0
M  V30 753 H 77.187 3.97565 -1.22805 0
M  V30 754 H 76.063 5.35838 -1.19033 0
M  V30 755 H 76.324 4.41294 0.266891 0
M  V30 756 N 75.3831 0.828654 1.34056 0
M  V30 757 C 76.6291 0.42008 1.98402 0
M  V30 758 C 76.9621 -1.01564 1.65525 0
M  V30 759 O 76.2371 -1.70834 0.929831 0
M  V30 760 C 76.5201 0.62927 3.54559 0
M  V30 761 C 76.3731 2.11152 3.97159 0
M  V30 762 C 77.6921 0.0688756 4.40046 0
M  V30 763 H 74.8111 0.154104 0.720709 0
M  V30 764 H 77.4531 1.04228 1.5886 0
M  V30 765 H 75.6031 0.0996418 3.88372 0
M  V30 766 H 77.2751 2.70522 3.73651 0
M  V30 767 H 75.5181 2.59985 3.47261 0
M  V30 768 H 76.1891 2.20868 5.05887 0
M  V30 769 H 78.6651 0.521458 4.1282 0
M  V30 770 H 77.5411 0.245006 5.48353 0
M  V30 771 H 77.8021 -1.0266 4.30015 0
M  V30 772 N 76.8612 -1.46375 0.584142 0
M  V30 773 C 77.8242 -2.28784 -0.138108 0
M  V30 774 C 78.8242 -1.38471 -0.817462 0
M  V30 775 O 80.0142 -1.60833 -0.669199 0
M  V30 776 C 77.1462 -3.18892 -1.20503 0
M  V30 777 H 78.3392 -2.94117 0.586127 0
M  V30 778 H 75.8922 -1.52509 0.342171 0
M  V30 779 H 76.6272 -2.58309 -1.96079 0
M  V30 780 H 76.4122 -3.85388 -0.722384 0
M  V30 781 H 77.9022 -3.80914 -1.71155 0
M  V30 782 N 78.3393 -0.321999 -1.54275 0
M  V30 783 C 79.2693 0.537411 -2.27231 0
M  V30 784 C 80.2503 1.12064 -1.27968 0
M  V30 785 O 81.4353 1.14606 -1.56777 0
M  V30 786 C 78.5653 1.69919 -3.02894 0
M  V30 787 C 77.5193 1.24534 -4.09482 0
M  V30 788 C 76.8453 2.49394 -4.72977 0
M  V30 789 C 78.1453 0.361335 -5.21049 0
M  V30 790 H 79.8393 -0.0711406 -2.99315 0
M  V30 791 H 77.3853 -0.0356555 -1.43956 0
M  V30 792 H 79.3383 2.30668 -3.52662 0
M  V30 793 H 78.0623 2.33431 -2.28424 0
M  V30 794 H 76.7213 0.660782 -3.60596 0
M  V30 795 H 76.3693 3.11265 -3.95124 0
M  V30 796 H 76.0693 2.19718 -5.44975 0
M  V30 797 H 77.5933 3.10908 -5.25517 0
M  V30 798 H 79.0073 0.875072 -5.66582 0
M  V30 799 H 77.4043 0.157428 -5.99893 0
M  V30 800 H 78.4743 -0.60822 -4.8107 0
M  V30 801 N 79.8174 1.5752 -0.0501392 0
M  V30 802 C 80.7474 2.14502 0.922566 0
M  V30 803 C 81.7284 1.06642 1.3252 0
M  V30 804 O 82.9134 1.34577 1.4001 0
M  V30 805 C 80.0434 2.68916 2.19776 0
M  V30 806 C 78.9974 3.8175 1.93523 0
M  V30 807 C 78.3234 4.22677 3.27487 0
M  V30 808 C 79.6234 5.06932 1.25765 0
M  V30 809 H 81.3174 2.9603 0.447952 0
M  V30 810 H 78.8634 1.42401 0.214024 0
M  V30 811 H 80.8164 3.07419 2.88222 0
M  V30 812 H 79.5404 1.84578 2.69441 0
M  V30 813 H 78.1994 3.43718 1.27489 0
M  V30 814 H 77.8474 3.35291 3.74952 0
M  V30 815 H 77.5474 4.98725 3.1072 0
M  V30 816 H 79.0714 4.63779 3.97166 0
M  V30 817 H 80.4854 5.42888 1.84244 0
M  V30 818 H 78.8824 5.88116 1.19328 0
M  V30 819 H 79.9524 4.84337 0.233536 0
M  V30 820 N 81.2955 -0.223234 1.56011 0
M  V30 821 C 82.2275 -1.30006 1.88762 0
M  V30 822 C 83.2405 -1.43129 0.775746 0
M  V30 823 O 84.4295 -1.44057 1.05403 0
M  V30 824 C 81.5295 -2.67589 2.07965 0
M  V30 825 C 80.7025 -2.76434 3.38973 0
M  V30 826 C 79.7615 -3.95019 3.47629 0
M  V30 827 O 78.7875 -3.83436 4.20672 0
M  V30 828 N 79.9895 -5.09249 2.78649 0
M  V30 829 H 82.7545 -1.02238 2.81722 0
M  V30 830 H 80.3155 -0.413278 1.56536 0
M  V30 831 H 82.3075 -3.45297 2.11073 0
M  V30 832 H 80.8775 -2.87964 1.21638 0
M  V30 833 H 80.0975 -1.85216 3.47978 0
M  V30 834 H 81.3855 -2.79313 4.25278 0
M  V30 835 H 80.7835 -5.21556 2.19081 0
M  V30 836 H 79.3405 -5.85007 2.8742 0
M  V30 837 N 82.7736 -1.49793 -0.48987 0
M  V30 838 C 83.7366 -1.66752 -1.57246 0
M  V30 839 C 84.7366 -0.538867 -1.51502 0
M  V30 840 O 85.9266 -0.805545 -1.54456 0
M  V30 841 C 83.0586 -1.67528 -2.96896 0
M  V30 842 H 84.2516 -2.63321 -1.43534 0
M  V30 843 H 81.8046 -1.38992 -0.714914 0
M  V30 844 H 82.5396 -0.725837 -3.16073 0
M  V30 845 H 82.3246 -2.49504 -3.02473 0
M  V30 846 H 83.8146 -1.82667 -3.7553 0
M  V30 847 N 84.2517 0.741722 -1.39055 0
M  V30 848 C 85.4767 1.53607 -1.39354 0
M  V30 849 C 85.9017 1.88096 0.0116905 0
M  V30 850 O 85.2597 1.5143 0.996924 0
M  V30 851 C 85.3077 2.80441 -2.26682 0
M  V30 852 O 84.4117 3.76088 -1.69208 0
M  V30 853 H 83.7527 0.464142 -0.474835 0
M  V30 854 H 86.2827 0.915665 -1.82967 0
M  V30 855 H 86.2927 3.29246 -2.40959 0
M  V30 856 H 84.9677 2.5467 -3.2881 0
M  V30 857 H 83.5447 3.34833 -1.64138 0
M  V30 858 N 85.7298 1.2412 0.971189 0
M  V30 859 C 86.9698 1.09066 1.7287 0
M  V30 860 C 87.3338 -0.364794 1.88503 0
M  V30 861 O 88.5348 -0.636748 2.61149 0
M  V30 862 C 86.8058 1.80629 3.08396 0
M  V30 863 Se 88.3648 1.81263 3.99611 0
M  V30 864 H 85.1828 0.390145 0.594397 0
M  V30 865 H 87.7848 1.57397 1.15959 0
M  V30 866 H 86.4888 2.85647 2.94676 0
M  V30 867 H 86.0198 1.32617 3.70373 0
M  V30 868 H 88.0348 0.877804 4.88374 0
M  V30 869 N 87.2079 -1.17134 1.05439 0
M  V30 870 C 88.4379 -1.91094 0.785274 0
M  V30 871 C 88.8459 -1.77198 -0.663142 0
M  V30 872 O 88.1889 -1.10835 -1.46497 0
M  V30 873 C 88.2509 -3.42594 1.08949 0
M  V30 874 C 87.9149 -3.80274 2.53458 0
M  V30 875 C 88.9119 -3.82912 3.51673 0
M  V30 876 C 86.5969 -4.11162 2.88532 0
M  V30 877 C 88.5909 -4.15913 4.83006 0
M  V30 878 C 86.2779 -4.43831 4.20068 0
M  V30 879 C 87.2759 -4.46185 5.17115 0
M  V30 880 O 86.9639 -4.78083 6.46291 0
M  V30 881 H 86.6959 -0.613073 0.284811 0
M  V30 882 H 89.2499 -1.49461 1.40893 0
M  V30 883 H 87.4799 -3.84534 0.408741 0
M  V30 884 H 89.1689 -3.97817 0.805991 0
M  V30 885 H 89.9349 -3.5917 3.25917 0
M  V30 886 H 85.8139 -4.085 2.13656 0
M  V30 887 H 89.3579 -4.17665 5.5875 0
M  V30 888 H 85.2549 -4.67037 4.45586 0
M  V30 889 H 86.0229 -4.9593 6.51149 0
M  V30 890 N 88.686 -0.835752 -1.33615 0
M  V30 891 C 89.616 -0.281739 -2.31794 0
M  V30 892 C 90.597 0.608833 -1.58831 0
M  V30 893 O 91.782 0.533035 -1.86741 0
M  V30 894 C 88.912 0.546612 -3.42971 0
M  V30 895 C 87.866 -0.247904 -4.27281 0
M  V30 896 C 87.192 0.704001 -5.30045 0
M  V30 897 C 88.492 -1.46324 -5.01385 0
M  V30 898 H 90.186 -1.10206 -2.78379 0
M  V30 899 H 87.732 -0.531388 -1.33837 0
M  V30 900 H 89.685 0.944467 -4.1068 0
M  V30 901 H 88.409 1.40011 -2.95067 0
M  V30 902 H 87.068 -0.627281 -3.61194 0
M  V30 903 H 86.716 1.55381 -4.78399 0
M  V30 904 H 86.416 0.176524 -5.87335 0
M  V30 905 H 87.94 1.09944 -6.0062 0
M  V30 906 H 89.354 -1.13871 -5.61877 0
M  V30 907 H 87.751 -1.92728 -5.6831 0
M  V30 908 H 88.821 -2.23467 -4.30338 0
M  V30 909 N 90.1641 1.46063 -0.591896 0
M  V30 910 C 91.4041 2.04228 -0.0838014 0
M  V30 911 C 91.7681 1.45231 1.25587 0
M  V30 912 O 92.9691 1.94653 1.85375 0
M  V30 913 C 91.2401 3.57389 -0.0286282 0
M  V30 914 S 92.7991 4.3678 0.420557 0
M  V30 915 H 89.6171 0.709762 -0.0419319 0
M  V30 916 H 92.2191 1.78983 -0.786465 0
M  V30 917 H 90.9231 3.97843 -1.00743 0
M  V30 918 H 90.4541 3.87185 0.69652 0
M  V30 919 H 92.4691 4.67131 1.67341 0
M  V30 920 N 91.6422 0.330177 1.54103 0
M  V30 921 C 92.8912 -0.271336 1.99867 0
M  V30 922 C 93.2042 -1.52723 1.22209 0
M  V30 923 O 94.4102 -2.20515 1.58383 0
M  V30 924 C 92.8662 -0.534032 3.55916 0
M  V30 925 C 92.4742 0.705193 4.42415 0
M  V30 926 C 94.2182 -1.09514 4.1013 0
M  V30 927 C 92.1252 0.414035 5.89949 0
M  V30 928 H 91.0552 -0.105166 0.74663 0
M  V30 929 H 93.7062 0.443429 1.78062 0
M  V30 930 H 92.0882 -1.30915 3.73734 0
M  V30 931 H 93.2622 1.4804 4.36372 0
M  V30 932 H 91.5772 1.18698 3.99124 0
M  V30 933 H 94.1742 -1.3277 5.17954 0
M  V30 934 H 94.5172 -2.04656 3.62521 0
M  V30 935 H 95.0502 -0.381038 3.95971 0
M  V30 936 H 91.7892 1.33481 6.41766 0
M  V30 937 H 91.3092 -0.323336 5.98928 0
M  V30 938 H 92.9882 0.0263105 6.46995 0
M  V30 939 N 93.1203 -1.57491 0.0584922 0
M  V30 940 C 94.0503 -2.14988 -0.911178 0
M  V30 941 C 95.0313 -1.07343 -1.31952 0
M  V30 942 O 96.2163 -1.35318 -1.39294 0
M  V30 943 C 93.3463 -2.70078 -2.18347 0
M  V30 944 C 92.3003 -3.82771 -1.91495 0
M  V30 945 C 91.6263 -4.24408 -3.25241 0
M  V30 946 C 92.9263 -5.07592 -1.23075 0
M  V30 947 H 94.6203 -2.96263 -0.432246 0
M  V30 948 H 92.1663 -1.42512 -0.206469 0
M  V30 949 H 94.1193 -3.08943 -2.86587 0
M  V30 950 H 92.8433 -1.86005 -2.68458 0
M  V30 951 H 91.5023 -3.44389 -1.25664 0
M  V30 952 H 91.1503 -3.37275 -3.73168 0
M  V30 953 H 90.8503 -5.00366 -3.08071 0
M  V30 954 H 92.3743 -4.65879 -3.94701 0
M  V30 955 H 93.7883 -5.43857 -1.81362 0
M  V30 956 H 92.1853 -5.88741 -1.16207 0
M  V30 957 H 93.2553 -4.84454 -0.207847 0
M  V30 958 N 94.5984 0.214957 -1.56127 0
M  V30 959 C 95.5304 1.29004 -1.89448 0
M  V30 960 C 96.5434 1.42716 -0.783326 0
M  V30 961 O 97.7324 1.43496 -1.06166 0
M  V30 962 C 94.8324 2.66482 -2.09381 0
M  V30 963 C 94.0054 2.74633 -3.40434 0
M  V30 964 C 93.0644 3.9317 -3.49719 0
M  V30 965 O 92.0904 3.812 -4.227 0
M  V30 966 N 93.2924 5.07765 -2.81346 0
M  V30 967 H 96.0574 1.00743 -2.82261 0
M  V30 968 H 93.6184 0.40497 -1.56753 0
M  V30 969 H 95.6104 3.44173 -2.12901 0
M  V30 970 H 94.1804 2.87314 -1.23163 0
M  V30 971 H 93.4004 1.83368 -3.48955 0
M  V30 972 H 94.6884 2.77054 -4.26754 0
M  V30 973 H 94.0864 5.20386 -2.21843 0
M  V30 974 H 92.6434 5.83474 -2.90519 0
M  V30 975 N 96.0765 1.50051 0.48192 0
M  V30 976 C 97.0395 1.67584 1.5636 0
M  V30 977 C 98.0395 0.546894 1.51214 0
M  V30 978 O 99.2295 0.813725 1.54026 0
M  V30 979 C 96.3615 1.691 2.96003 0
M  V30 980 H 97.5545 2.64078 1.42136 0
M  V30 981 H 95.1075 1.39369 0.707533 0
M  V30 982 H 95.8425 0.742589 3.15684 0
M  V30 983 H 95.6275 2.51105 3.01146 0
M  V30 984 H 97.1175 1.84656 3.74556 0
M  V30 985 N 97.5546 -0.734337 1.39446 0
M  V30 986 C 98.7796 -1.52866 1.40167 0
M  V30 987 C 99.2046 -1.881 -0.00171513 0
M  V30 988 O 98.5626 -1.51957 -0.988879 0
M  V30 989 C 98.6106 -2.79235 2.28167 0
M  V30 990 O 97.7146 -3.75185 1.71201 0
M  V30 991 H 97.0556 -0.461618 0.477289 0
M  V30 992 H 99.5856 -0.905949 1.8345 0
M  V30 993 H 99.5956 -3.27963 2.42702 0
M  V30 994 H 98.2706 -2.52923 3.30156 0
M  V30 995 H 96.8476 -3.33958 1.65912 0
M  V30 996 N 99.0327 -1.24633 -0.964593 0
M  V30 997 C 99.9797 -1.04144 -2.05968 0
M  V30 998 C 100.95 0.046262 -1.66036 0
M  V30 999 O 102.135 -0.108972 -1.90489 0
M  V30 1000 C 99.2747 -0.65563 -3.38815 0
M  V30 1001 C 98.3877 -1.81714 -3.91923 0
M  V30 1002 C 97.5227 -1.37662 -5.13052 0
M  V30 1003 C 96.5617 -2.50788 -5.58365 0
M  V30 1004 N 95.6987 -2.07582 -6.70712 0
M  V30 1005 H 100.539 -1.9787 -2.22827 0
M  V30 1006 H 98.0757 -0.9855 -1.09208 0
M  V30 1007 H 100.034 -0.412954 -4.15151 0
M  V30 1008 H 98.6637 0.244627 -3.21872 0
M  V30 1009 H 97.7157 -2.1734 -3.12198 0
M  V30 1010 H 99.0277 -2.66705 -4.21509 0
M  V30 1011 H 98.1817 -1.093 -5.96773 0
M  V30 1012 H 96.9207 -0.497293 -4.85158 0
M  V30 1013 H 95.9257 -2.79906 -4.73215 0
M  V30 1014 H 97.1507 -3.39283 -5.88272 0
M  V30 1015 H 95.0967 -1.22051 -6.44546 0
M  V30 1016 H 95.0137 -2.86125 -6.99763 0
M  V30 1017 H 96.2817 -1.82369 -7.57867 0
M  V30 1018 N 100.511 1.16574 -1.06058 0
M  V30 1019 C 101.441 2.23057 -0.690488 0
M  V30 1020 C 102.422 1.67141 0.315901 0
M  V30 1021 O 103.607 1.93253 0.191556 0
M  V30 1022 C 100.737 3.47222 -0.073625 0
M  V30 1023 C 99.6908 4.16016 -1.00573 0
M  V30 1024 C 99.0168 5.34104 -0.252289 0
M  V30 1025 C 100.317 4.67264 -2.33371 0
M  V30 1026 H 102.011 2.54271 -1.58072 0
M  V30 1027 H 99.5568 1.22218 -0.76149 0
M  V30 1028 H 101.51 4.20939 0.19714 0
M  V30 1029 H 100.234 3.15302 0.85161 0
M  V30 1030 H 98.8928 3.44223 -1.2612 0
M  V30 1031 H 98.5408 4.98437 0.675988 0
M  V30 1032 H 98.2408 5.81072 -0.873455 0
M  V30 1033 H 99.7648 6.10599 0.0109857 0
M  V30 1034 H 101.179 5.32573 -2.12223 0
M  V30 1035 H 99.5758 5.24843 -2.90963 0
M  V30 1036 H 100.646 3.83602 -2.96611 0
M  V30 1037 N 101.989 0.842826 1.3317 0
M  V30 1038 C 102.899 0.281444 2.32906 0
M  V30 1039 C 103.915 -0.594587 1.63526 0
M  V30 1040 O 105.091 -0.49777 1.95152 0
M  V30 1041 C 102.156 -0.530929 3.42611 0
M  V30 1042 C 101.217 0.369843 4.27704 0
M  V30 1043 C 100.45 -0.403853 5.3217 0
M  V30 1044 O 100.673 -1.63513 5.46461 0
M  V30 1045 O 99.6069 0.224199 6.01482 0
M  V30 1046 H 103.433 1.10744 2.82789 0
M  V30 1047 H 101.018 0.60545 1.36582 0
M  V30 1048 H 102.9 -0.992437 4.09547 0
M  V30 1049 H 101.575 -1.33392 2.94938 0
M  V30 1050 H 100.482 0.879275 3.6362 0
M  V30 1051 H 101.815 1.13771 4.78871 0
M  V30 1052 N 103.467 -1.45747 0.599634 0
M  V30 1053 C 104.744 -1.95585 0.0240846 0
M  V30 1054 C 105.124 -1.54217 -1.44154 0
M  V30 1055 O 104.472 -0.800903 -2.14004 0
M  V30 1056 C 104.682 -3.48344 0.21385 0
M  V30 1057 C 106.03 -4.24504 0.0904902 0
M  V30 1058 O 107.054 -3.55911 0.143558 0
M  V30 1059 O 105.913 -5.46491 -0.0310766 0
M  V30 1060 H 103.007 -0.82602 -0.0402478 0
M  V30 1061 H 105.553 -1.55951 0.669139 0
M  V30 1062 H 104.325 -3.71397 1.23206 0
M  V30 1063 H 103.948 -3.9485 -0.466842 0
M  V30 1064 N 104.945 -0.338344 -1.53925 0
M  V30 1065 C 105.875 0.51328 -2.27789 0
M  V30 1066 C 106.856 1.107 -1.29149 0
M  V30 1067 O 108.041 1.12937 -1.57984 0
M  V30 1068 C 105.171 1.66697 -3.04679 0
M  V30 1069 C 104.125 1.20183 -4.1078 0
M  V30 1070 C 103.451 2.44363 -4.75595 0
M  V30 1071 C 104.751 0.30605 -5.21403 0
M  V30 1072 H 106.445 -0.102883 -2.99223 0
M  V30 1073 H 103.991 -0.0509219 -1.4391 0
M  V30 1074 H 105.944 2.26915 -3.55088 0
M  V30 1075 H 104.668 2.30995 -2.30887 0
M  V30 1076 H 103.327 0.622499 -3.61276 0
M  V30 1077 H 102.975 3.07057 -3.98403 0
M  V30 1078 H 102.675 2.13925 -5.47275 0
M  V30 1079 H 104.199 3.05317 -5.28786 0
M  V30 1080 H 105.613 0.814929 -5.67478 0
M  V30 1081 H 104.01 0.0937929 -6.00027 0
M  V30 1082 H 105.08 -0.65921 -4.80398 0
M  V30 1083 N 106.423 1.57458 -0.0668435 0
M  V30 1084 C 107.839 1.56947 0.289772 0
M  V30 1085 C 108.039 1.07584 1.70376 0
M  V30 1086 O 107.095 0.739486 2.41429 0
M  V30 1087 C 108.408 3.0052 0.103943 0
M  V30 1088 C 109.956 3.12517 0.173857 0
M  V30 1089 C 110.431 4.57997 0.0163682 0
M  V30 1090 N 111.922 4.63144 0.0721352 0
M  V30 1091 C 112.657 5.73394 -0.0253794 0
M  V30 1092 N 112.153 6.92576 -0.176133 0
M  V30 1093 N 113.946 5.62091 0.0313305 0
M  V30 1094 H 106.097 1.87863 -0.991027 0
M  V30 1095 H 108.36 0.86583 -0.38606 0
M  V30 1096 H 108.066 3.40729 -0.871572 0
M  V30 1097 H 107.94 3.67304 0.858366 0
M  V30 1098 H 110.327 2.72197 1.13985 0
M  V30 1099 H 110.408 2.48381 -0.611586 0
M  V30 1100 H 110.052 4.99005 -0.946374 0
M  V30 1101 H 109.982 5.20158 0.821153 0
M  V30 1102 H 112.473 3.77436 0.187263 0
M  V30 1103 H 112.786 7.72418 -0.242821 0
M  V30 1104 H 111.131 6.94678 -0.211429 0
M  V30 1105 H 114.322 4.67867 0.147773 0
M  V30 1106 H 114.495 6.47982 -0.048121 0
M  V30 1107 N 107.901 -0.206675 1.56239 0
M  V30 1108 C 109.147 -0.930218 1.80208 0
M  V30 1109 C 109.48 -1.83387 0.638981 0
M  V30 1110 O 108.755 -1.91119 -0.361066 0
M  V30 1111 C 109.038 -1.75641 3.1436 0
M  V30 1112 C 108.891 -0.878257 4.41142 0
M  V30 1113 C 110.21 -2.73129 3.45092 0
M  V30 1114 H 107.329 -0.336742 0.655571 0
M  V30 1115 H 109.971 -0.198222 1.88963 0
M  V30 1116 H 108.121 -2.38048 3.07027 0
M  V30 1117 H 109.793 -0.269787 4.6051 0
M  V30 1118 H 108.036 -0.184385 4.33408 0
M  V30 1119 H 108.707 -1.49106 5.3148 0
M  V30 1120 H 111.183 -2.20856 3.52649 0
M  V30 1121 H 110.059 -3.28028 4.40101 0
M  V30 1122 H 110.32 -3.51606 2.68003 0
M  V30 1123 N 109.379 -1.50304 -0.473955 0
M  V30 1124 C 110.326 -1.68959 -1.57231 0
M  V30 1125 C 111.296 -0.530899 -1.57387 0
M  V30 1126 O 112.481 -0.761133 -1.74961 0
M  V30 1127 C 109.621 -1.7871 -2.95223 0
M  V30 1128 C 108.734 -3.06061 -3.04878 0
M  V30 1129 C 107.869 -3.06626 -4.33767 0
M  V30 1130 C 106.908 -4.28443 -4.37154 0
M  V30 1131 N 106.045 -4.26763 -5.5751 0
M  V30 1132 H 110.885 -2.6273 -1.40631 0
M  V30 1133 H 108.422 -1.30241 -0.683789 0
M  V30 1134 H 110.38 -1.82344 -3.75242 0
M  V30 1135 H 109.01 -0.883806 -3.10465 0
M  V30 1136 H 108.062 -3.11911 -2.17751 0
M  V30 1137 H 109.374 -3.96039 -3.0324 0
M  V30 1138 H 108.528 -3.08973 -5.22131 0
M  V30 1139 H 107.267 -2.14473 -4.3801 0
M  V30 1140 H 106.272 -4.2631 -3.47188 0
M  V30 1141 H 107.497 -5.2182 -4.34605 0
M  V30 1142 H 105.443 -3.37462 -5.62544 0
M  V30 1143 H 105.36 -5.10507 -5.57601 0
M  V30 1144 H 106.628 -4.33253 -6.48006 0
M  V30 1145 N 110.857 0.726932 -1.39834 0
M  V30 1146 C 111.787 1.85405 -1.41941 0
M  V30 1147 C 112.768 1.67751 -0.281728 0
M  V30 1148 O 113.953 1.8795 -0.488717 0
M  V30 1149 C 111.083 3.23243 -1.2701 0
M  V30 1150 C 110.037 3.55549 -2.38262 0
M  V30 1151 C 109.363 4.9241 -2.08415 0
M  V30 1152 C 110.663 3.577 -3.80589 0
M  V30 1153 H 112.357 1.83899 -2.36266 0
M  V30 1154 H 109.903 0.883349 -1.13723 0
M  V30 1155 H 111.856 4.01775 -1.27103 0
M  V30 1156 H 110.58 3.25296 -0.291564 0
M  V30 1157 H 109.239 2.79351 -2.37399 0
M  V30 1158 H 108.887 4.91052 -1.0898 0
M  V30 1159 H 108.587 5.14992 -2.82943 0
M  V30 1160 H 110.111 5.73289 -2.10171 0
M  V30 1161 H 111.525 4.26293 -3.83337 0
M  V30 1162 H 109.922 3.91804 -4.54543 0
M  V30 1163 H 110.992 2.57328 -4.10987 0
M  V30 1164 N 112.336 1.25143 0.95797 0
M  V30 1165 C 113.283 1.05235 2.05412 0
M  V30 1166 C 114.253 -0.0374561 1.66058 0
M  V30 1167 O 115.438 0.119073 1.90428 0
M  V30 1168 C 112.578 0.673589 3.38462 0
M  V30 1169 C 111.691 1.8379 3.90954 0
M  V30 1170 C 110.826 1.40381 5.12315 0
M  V30 1171 C 109.865 2.53746 5.57027 0
M  V30 1172 N 109.002 2.11136 6.69601 0
M  V30 1173 H 113.842 1.99048 2.21774 0
M  V30 1174 H 111.379 0.991277 1.08683 0
M  V30 1175 H 113.337 0.434964 4.14926 0
M  V30 1176 H 111.967 -0.227554 3.21997 0
M  V30 1177 H 111.019 2.18992 3.11041 0
M  V30 1178 H 112.331 2.68937 4.20089 0
M  V30 1179 H 111.485 1.12464 5.96185 0
M  V30 1180 H 110.224 0.523015 4.84887 0
M  V30 1181 H 109.229 2.82412 4.71724 0
M  V30 1182 H 110.454 3.42398 5.86464 0
M  V30 1183 H 108.4 1.25468 6.4389 0
M  V30 1184 H 108.317 2.89832 6.98236 0
M  V30 1185 H 109.585 1.86385 7.56889 0
M  V30 1186 N 113.814 -1.1601 1.06675 0
M  V30 1187 C 114.761 -2.20525 0.680967 0
M  V30 1188 C 115.731 -1.62904 -0.324283 0
M  V30 1189 O 116.916 -1.89615 -0.212294 0
M  V30 1190 C 114.056 -3.45013 0.0776551 0
M  V30 1191 C 113.169 -4.16863 1.13355 0
M  V30 1192 C 112.304 -5.2888 0.49597 0
M  V30 1193 C 111.343 -5.92537 1.53513 0
M  V30 1194 N 110.48 -6.96038 0.920631 0
M  V30 1195 H 115.32 -2.52876 1.57663 0
M  V30 1196 H 112.857 -1.24199 0.788223 0
M  V30 1197 H 114.815 -4.16193 -0.289704 0
M  V30 1198 H 113.445 -3.132 -0.781393 0
M  V30 1199 H 112.497 -3.44248 1.61857 0
M  V30 1200 H 113.809 -4.60294 1.92174 0
M  V30 1201 H 112.963 -6.06653 0.0758604 0
M  V30 1202 H 111.702 -4.86622 -0.324062 0
M  V30 1203 H 110.707 -5.13482 1.9651 0
M  V30 1204 H 111.932 -6.36873 2.35733 0
M  V30 1205 H 109.878 -6.55888 0.12138 0
M  V30 1206 H 109.795 -7.3786 1.64616 0
M  V30 1207 H 111.063 -7.77725 0.525795 0
M  V30 1208 N 115.292 -0.849877 -1.32721 0
M  V30 1209 C 116.202 -0.293791 -2.32753 0
M  V30 1210 C 117.218 0.585906 -1.63839 0
M  V30 1211 O 118.394 0.487413 -1.95413 0
M  V30 1212 C 115.459 0.512752 -3.42887 0
M  V30 1213 C 114.52 -0.39252 -4.27502 0
M  V30 1214 C 113.753 0.375625 -5.32377 0
M  V30 1215 O 113.976 1.60613 -5.4732 0
M  V30 1216 O 112.91 -0.256094 -6.01355 0
M  V30 1217 H 116.736 -1.12242 -2.82197 0
M  V30 1218 H 114.321 -0.612685 -1.36259 0
M  V30 1219 H 116.203 0.970704 -4.10067 0
M  V30 1220 H 114.878 1.31826 -2.95641 0
M  V30 1221 H 113.785 -0.898547 -3.63149 0
M  V30 1222 H 115.118 -1.16309 -4.7826 0
M  V30 1223 N 116.77 1.45427 -0.607355 0
M  V30 1224 C 118.018 2.01841 -0.102253 0
M  V30 1225 C 118.339 1.47832 1.27164 0
M  V30 1226 O 117.609 0.672497 1.83995 0
M  V30 1227 H 116.189 0.746188 -0.0348101 0
M  V30 1228 H 118.851 1.78229 -0.7887 0
M  V30 1229 H 117.947 3.12057 -0.0518585 0
M  V30 1230 N 118.248 0.346503 1.53744 0
M  V30 1231 C 119.478 -0.250047 2.05081 0
M  V30 1232 C 119.886 -1.44529 1.22098 0
M  V30 1233 O 119.229 -1.81992 0.249917 0
M  V30 1234 C 119.291 -0.725934 3.52094 0
M  V30 1235 C 118.955 0.350053 4.55657 0
M  V30 1236 C 119.952 1.19372 5.0601 0
M  V30 1237 C 117.637 0.504827 4.99757 0
M  V30 1238 C 119.631 2.17768 5.99046 0
M  V30 1239 C 117.318 1.49218 5.92602 0
M  V30 1240 C 118.316 2.32706 6.42135 0
M  V30 1241 O 118.004 3.2976 7.33153 0
M  V30 1242 H 117.736 -0.0515469 0.674032 0
M  V30 1243 H 120.29 0.497559 1.99282 0
M  V30 1244 H 118.52 -1.52483 3.55367 0
M  V30 1245 H 120.209 -1.24336 3.86388 0
M  V30 1246 H 120.975 1.08525 4.72702 0
M  V30 1247 H 116.854 -0.135178 4.60802 0
M  V30 1248 H 120.398 2.82971 6.37631 0
M  V30 1249 H 116.295 1.6012 6.25325 0
M  V30 1250 H 117.063 3.25265 7.51096 0
M  V30 1251 N 119.726 -1.57421 0.075193 0
M  V30 1252 C 120.951 -1.98364 -0.605515 0
M  V30 1253 C 121.376 -0.953383 -1.62149 0
M  V30 1254 O 120.734 0.0806053 -1.81121 0
M  V30 1255 C 120.782 -3.38332 -1.24756 0
M  V30 1256 O 119.886 -3.37959 -2.36342 0
M  V30 1257 H 119.227 -0.645553 -0.155428 0
M  V30 1258 H 121.757 -2.04044 0.150714 0
M  V30 1259 H 121.767 -3.75591 -1.5936 0
M  V30 1260 H 120.442 -4.12846 -0.503129 0
M  V30 1261 H 119.019 -3.12474 -2.03506 0
M  V30 1262 N 121.204 0.198386 -1.56346 0
M  V30 1263 C 122.152 1.26538 -1.95169 0
M  V30 1264 C 123.146 1.47295 -0.836685 0
M  V30 1265 O 124.352 1.48195 -1.02167 0
M  V30 1266 H 120.727 0.424744 -0.620561 0
M  V30 1267 H 122.698 0.910904 -2.84157 0
M  V30 1268 C 121.447 2.6035 -2.30463 0
M  V30 1269 H 120.77 2.45192 -3.15786 0
M  V30 1270 H 122.21 3.33762 -2.61494 0
M  V30 1271 C 120.669 3.17096 -1.13806 0
M  V30 1272 O 121.199 3.99588 -0.41135 0
M  V30 1273 N 119.405 2.75795 -0.915736 0
M  V30 1274 H 118.952 2.08816 -1.50843 0
M  V30 1275 H 118.91 3.14101 -0.136979 0
M  V30 1276 N 122.682 1.50554 0.465978 0
M  V30 1277 C 123.931 1.61038 1.21448 0
M  V30 1278 C 124.244 0.31865 1.92987 0
M  V30 1279 O 125.45 0.302469 2.6981 0
M  V30 1280 C 123.906 2.84283 2.20706 0
M  V30 1281 C 123.514 4.20352 1.54946 0
M  V30 1282 C 125.258 3.04115 2.96166 0
M  V30 1283 C 123.165 5.34778 2.5252 0
M  V30 1284 H 122.095 0.599718 0.457005 0
M  V30 1285 H 124.746 1.7699 0.484424 0
M  V30 1286 H 123.128 2.61901 2.97025 0
M  V30 1287 H 124.302 4.53008 0.843811 0
M  V30 1288 H 122.617 4.06167 0.917475 0
M  V30 1289 H 125.214 3.86774 3.69202 0
M  V30 1290 H 125.557 2.16045 3.55852 0
M  V30 1291 H 126.09 3.26702 2.26959 0
M  V30 1292 H 122.829 6.25018 1.97566 0
M  V30 1293 H 122.349 5.06534 3.21222 0
M  V30 1294 H 124.028 5.65561 3.14245 0
M  V30 1295 N 124.16 -0.719506 1.40217 0
M  V30 1296 C 125.385 -1.51371 1.4178 0
M  V30 1297 C 125.81 -1.88091 0.0182355 0
M  V30 1298 O 125.168 -1.52997 -0.972707 0
M  V30 1299 C 125.216 -2.768 2.31115 0
M  V30 1300 O 124.32 -3.73349 1.7517 0
M  V30 1301 H 123.661 -0.456529 0.482159 0
M  V30 1302 H 126.191 -0.88644 1.844 0
M  V30 1303 H 126.201 -3.25371 2.46167 0
M  V30 1304 H 124.876 -2.49407 3.3282 0
M  V30 1305 H 123.453 -3.32179 1.69444 0
M  V30 1306 N 125.638 -1.25649 -0.95132 0
M  V30 1307 C 126.868 -1.13179 -1.72841 0
M  V30 1308 C 127.276 0.316827 -1.86528 0
M  V30 1309 O 126.619 1.22948 -1.3649 0
M  V30 1310 C 126.681 -1.71644 -3.15878 0
M  V30 1311 C 126.345 -3.20667 -3.25609 0
M  V30 1312 C 127.342 -4.17616 -3.09666 0
M  V30 1313 C 125.027 -3.6094 -3.49324 0
M  V30 1314 C 127.021 -5.52817 -3.17289 0
M  V30 1315 C 124.708 -4.96278 -3.56584 0
M  V30 1316 C 125.706 -5.92025 -3.40581 0
M  V30 1317 O 125.394 -7.24899 -3.47528 0
M  V30 1318 H 125.126 -0.395389 -0.54831 0
M  V30 1319 H 127.68 -1.66566 -1.20187 0
M  V30 1320 H 125.91 -1.12707 -3.69911 0
M  V30 1321 H 127.599 -1.54225 -3.75459 0
M  V30 1322 H 128.365 -3.87842 -2.91211 0
M  V30 1323 H 124.244 -2.86907 -3.6084 0
M  V30 1324 H 127.788 -6.2753 -3.04716 0
M  V30 1325 H 123.685 -5.25716 -3.74556 0
M  V30 1326 H 124.453 -7.33039 -3.64138 0
M  V30 1327 N 127.117 1.15442 -1.07289 0
M  V30 1328 C 128.366 1.85557 -0.790669 0
M  V30 1329 C 128.679 1.83186 0.685739 0
M  V30 1330 O 129.885 2.48977 1.0827 0
M  V30 1331 C 128.341 3.33038 -1.36433 0
M  V30 1332 C 127.949 3.43856 -2.8717 0
M  V30 1333 C 129.693 4.0834 -1.1601 0
M  V30 1334 C 127.6 4.85482 -3.3773 0
M  V30 1335 H 126.53 0.695122 -0.292098 0
M  V30 1336 H 129.181 1.30219 -1.29287 0
M  V30 1337 H 127.563 3.88043 -0.789864 0
M  V30 1338 H 128.737 2.98961 -3.50655 0
M  V30 1339 H 127.052 2.81998 -3.06376 0
M  V30 1340 H 129.649 5.12859 -1.51262 0
M  V30 1341 H 129.992 4.16182 -0.0991007 0
M  V30 1342 H 130.525 3.59603 -1.70089 0
M  V30 1343 H 127.264 4.82823 -4.43353 0
M  V30 1344 H 126.784 5.30961 -2.78999 0
M  V30 1345 H 128.463 5.54335 -3.33648 0
M  V30 1346 N 128.595 0.856903 1.32268 0
M  V30 1347 C 129.841 0.462069 1.97466 0
M  V30 1348 C 130.174 -0.980298 1.67642 0
M  V30 1349 O 129.449 -1.68824 0.965858 0
M  V30 1350 C 129.732 0.704336 3.53145 0
M  V30 1351 C 129.585 2.19529 3.9259 0
M  V30 1352 C 130.904 0.1622 4.39801 0
M  V30 1353 H 128.023 0.169357 0.717278 0
M  V30 1354 H 130.665 1.07574 1.56614 0
M  V30 1355 H 128.815 0.181999 3.88073 0
M  V30 1356 H 130.487 2.78387 3.67829 0
M  V30 1357 H 128.73 2.67292 3.41668 0
M  V30 1358 H 129.401 2.31549 5.01088 0
M  V30 1359 H 131.877 0.608905 4.11621 0
M  V30 1360 H 130.753 0.361265 5.4771 0
M  V30 1361 H 131.014 -0.935158 4.32096 0
M  V30 1362 N 130.073 -1.45103 0.615059 0
M  V30 1363 C 131.319 -2.02483 0.113347 0
M  V30 1364 C 131.652 -1.48146 -1.25564 0
M  V30 1365 O 130.927 -0.659104 -1.82992 0
M  V30 1366 C 131.21 -3.60005 0.0825278 0
M  V30 1367 C 131.063 -4.2466 1.48271 0
M  V30 1368 C 132.382 -4.35972 -0.601401 0
M  V30 1369 H 129.501 -0.735764 0.0426632 0
M  V30 1370 H 132.143 -1.72868 0.788461 0
M  V30 1371 H 130.293 -3.85367 -0.492378 0
M  V30 1372 H 131.965 -4.10458 2.10527 0
M  V30 1373 H 130.208 -3.82772 2.04127 0
M  V30 1374 H 130.879 -5.336 1.41332 0
M  V30 1375 H 133.355 -4.15947 -0.112666 0
M  V30 1376 H 132.231 -5.45697 -0.592097 0
M  V30 1377 H 132.492 -4.09391 -1.66887 0
M  V30 1378 N 131.551 -0.354651 -1.53558 0
M  V30 1379 C 132.499 0.512195 -2.26891 0
M  V30 1380 C 133.493 1.09263 -1.29452 0
M  V30 1381 O 134.699 1.03709 -1.47121 0
M  V30 1382 H 131.074 0.183878 -0.729173 0
M  V30 1383 H 133.045 -0.128202 -2.98124 0
M  V30 1384 C 131.794 1.64563 -3.06291 0
M  V30 1385 H 131.117 1.20829 -3.81104 0
M  V30 1386 H 132.557 2.22711 -3.60799 0
M  V30 1387 C 131.016 2.58158 -2.16462 0
M  V30 1388 O 131.546 3.60695 -1.76811 0
M  V30 1389 N 129.752 2.27096 -1.81317 0
M  V30 1390 H 129.299 1.43751 -2.1376 0
M  V30 1391 H 129.257 2.89975 -1.21498 0
M  V30 1392 N 133.029 1.57378 -0.0835403 0
M  V30 1393 C 133.979 2.09916 0.889905 0
M  V30 1394 C 134.963 1.01151 1.25129 0
M  V30 1395 O 136.155 1.27443 1.2283 0
M  V30 1396 C 133.284 2.67379 2.15322 0
M  V30 1397 C 132.37 3.83167 1.81779 0
M  V30 1398 N 132.761 4.91665 1.18739 0
M  V30 1399 C 131.059 3.92685 2.11459 0
M  V30 1400 C 131.76 5.72409 1.0355 0
M  V30 1401 N 130.736 5.21062 1.54906 0
M  V30 1402 H 134.538 2.91188 0.398378 0
M  V30 1403 H 132.052 1.61956 0.120013 0
M  V30 1404 H 134.049 3.0334 2.8599 0
M  V30 1405 H 132.709 1.87558 2.65051 0
M  V30 1406 H 133.72 5.10784 0.855604 0
M  V30 1407 H 130.397 3.23856 2.63483 0
M  V30 1408 H 131.787 6.69699 0.543425 0
M  V30 1409 N 134.507 -0.190092 1.56449 0
M  V30 1410 C 135.439 -1.25973 1.91477 0
M  V30 1411 C 136.452 -1.41452 0.805931 0
M  V30 1412 O 137.641 -1.41789 1.08435 0
M  V30 1413 C 134.741 -2.63117 2.13594 0
M  V30 1414 C 133.914 -2.69182 3.4476 0
M  V30 1415 C 132.973 -3.87557 3.5593 0
M  V30 1416 O 131.999 -3.74427 4.28711 0
M  V30 1417 N 133.201 -5.03224 2.89388 0
M  V30 1418 H 135.966 -0.962394 2.83828 0
M  V30 1419 H 133.527 -0.379981 1.57378 0
M  V30 1420 H 135.519 -3.40742 2.1835 0
M  V30 1421 H 134.089 -2.85319 1.27719 0
M  V30 1422 H 133.309 -1.77793 3.51828 0
M  V30 1423 H 134.597 -2.70229 4.31107 0
M  V30 1424 H 133.995 -5.16791 2.30094 0
M  V30 1425 H 132.552 -5.78778 2.99764 0
M  V30 1426 N 135.985 -1.50799 -0.457987 0
M  V30 1427 C 137.233 -1.62121 -1.2067 0
M  V30 1428 C 137.554 -0.329793 -1.92191 0
M  V30 1429 O 136.824 0.653409 -1.84682 0
M  V30 1430 H 135.404 -0.597441 -0.448411 0
M  V30 1431 H 138.066 -1.87637 -0.527096 0
M  V30 1432 H 137.162 -2.43882 -1.94751 0
M  V30 1433 N 137.463 0.71206 -1.40597 0
M  V30 1434 C 138.712 1.46754 -1.38369 0
M  V30 1435 C 139.025 1.95598 0.0097839 0
M  V30 1436 O 140.231 2.71059 0.154677 0
M  V30 1437 C 138.687 2.65289 -2.43207 0
M  V30 1438 C 138.295 2.23301 -3.88382 0
M  V30 1439 C 140.039 3.43008 -2.50091 0
M  V30 1440 C 137.946 3.38696 -4.84808 0
M  V30 1441 H 136.876 0.55118 -0.514506 0
M  V30 1442 H 139.527 0.774616 -1.66349 0
M  V30 1443 H 137.909 3.36769 -2.08332 0
M  V30 1444 H 139.083 1.59218 -4.32419 0
M  V30 1445 H 137.398 1.58618 -3.85006 0
M  V30 1446 H 139.995 4.28881 -3.1932 0
M  V30 1447 H 140.338 3.87065 -1.53253 0
M  V30 1448 H 140.871 2.78574 -2.83974 0
M  V30 1449 H 137.61 2.99668 -5.82992 0
M  V30 1450 H 137.13 4.01683 -4.45433 0
M  V30 1451 H 138.809 4.04712 -5.04794 0
M  V30 1452 N 138.941 1.26152 0.944643 0
M  V30 1453 C 140.166 1.14363 1.7302 0
M  V30 1454 C 140.591 -0.29772 1.85729 0
M  V30 1455 O 139.949 -1.2157 1.34501 0
M  V30 1456 C 139.997 1.81378 3.11664 0
M  V30 1457 O 139.101 1.10022 3.97453 0
M  V30 1458 H 138.442 0.398694 0.53098 0
M  V30 1459 H 140.972 1.66906 1.18337 0
M  V30 1460 H 140.982 1.88064 3.62072 0
M  V30 1461 H 139.657 2.86237 3.0173 0
M  V30 1462 H 138.234 1.11287 3.55907 0
M  V30 1463 N 140.419 -1.14872 1.07899 0
M  V30 1464 C 141.644 -1.90202 0.826926 0
M  V30 1465 C 142.069 -1.77774 -0.614664 0
M  V30 1466 O 141.427 -1.11431 -1.43013 0
M  V30 1467 C 141.475 -3.38352 1.24702 0
M  V30 1468 O 140.579 -4.10497 0.39575 0
M  V30 1469 H 139.92 -0.591968 0.300782 0
M  V30 1470 H 142.45 -1.45437 1.43907 0
M  V30 1471 H 142.46 -3.89156 1.22563 0
M  V30 1472 H 141.135 -3.46715 2.29698 0
M  V30 1473 H 139.712 -3.69796 0.480117 0
M  V30 1474 N 141.898 -0.863906 -1.31812 0
M  V30 1475 C 143.314 -0.555004 -1.49639 0
M  V30 1476 C 143.514 0.912266 -1.79666 0
M  V30 1477 O 142.57 1.69479 -1.87171 0
M  V30 1478 C 143.883 -1.44998 -2.63431 0
M  V30 1479 C 145.431 -1.45138 -2.77316 0
M  V30 1480 C 145.906 -2.33179 -3.94197 0
M  V30 1481 N 147.397 -2.31025 -4.01474 0
M  V30 1482 C 148.132 -2.95871 -4.9117 0
M  V30 1483 N 147.628 -3.69863 -5.8581 0
M  V30 1484 N 149.421 -2.85211 -4.84367 0
M  V30 1485 H 141.572 -1.81339 -1.10589 0
M  V30 1486 H 143.835 -0.77505 -0.545895 0
M  V30 1487 H 143.541 -2.49377 -2.48 0
M  V30 1488 H 143.415 -1.14409 -3.59431 0
M  V30 1489 H 145.802 -0.415201 -2.92164 0
M  V30 1490 H 145.883 -1.79747 -1.82001 0
M  V30 1491 H 145.527 -3.3687 -3.80107 0
M  V30 1492 H 145.457 -1.95897 -4.88807 0
M  V30 1493 H 147.948 -1.77238 -3.33759 0
M  V30 1494 H 148.261 -4.16486 -6.50968 0
M  V30 1495 H 146.606 -3.73971 -5.85808 0
M  V30 1496 H 149.797 -2.26948 -4.09405 0
M  V30 1497 H 149.97 -3.36027 -5.54066 0
M  V30 1498 N 143.376 1.44774 -0.622745 0
M  V30 1499 C 144.306 2.33382 0.0741861 0
M  V30 1500 C 145.287 1.47719 0.843387 0
M  V30 1501 O 146.472 1.76458 0.810934 0
M  V30 1502 C 143.602 3.30663 1.06204 0
M  V30 1503 C 142.556 4.26079 0.405037 0
M  V30 1504 C 141.882 5.13165 1.5022 0
M  V30 1505 C 143.182 5.1781 -0.683414 0
M  V30 1506 H 144.876 2.91905 -0.665713 0
M  V30 1507 H 142.422 1.40363 -0.321587 0
M  V30 1508 H 144.375 3.9153 1.55827 0
M  V30 1509 H 143.099 2.70331 1.83272 0
M  V30 1510 H 141.758 3.66532 -0.0704683 0
M  V30 1511 H 141.406 4.49191 2.26355 0
M  V30 1512 H 141.106 5.77812 1.06803 0
M  V30 1513 H 142.63 5.76902 2.00041 0
M  V30 1514 H 144.044 5.72661 -0.270631 0
M  V30 1515 H 142.441 5.91015 -1.04023 0
M  V30 1516 H 143.511 4.59326 -1.55395 0
M  V30 1517 N 144.854 0.36279 1.53368 0
M  V30 1518 C 145.801 -0.485008 2.25646 0
M  V30 1519 C 146.771 -1.07982 1.2621 0
M  V30 1520 O 147.956 -1.11284 1.54986 0
M  V30 1521 C 145.096 -1.62023 3.04701 0
M  V30 1522 C 144.209 -1.05086 4.19024 0
M  V30 1523 C 143.344 -2.15496 4.85525 0
M  V30 1524 C 142.383 -1.5601 5.91884 0
M  V30 1525 N 141.52 -2.60241 6.52088 0
M  V30 1526 H 146.36 0.137864 2.97681 0
M  V30 1527 H 143.897 0.0798061 1.46883 0
M  V30 1528 H 145.855 -2.28887 3.48807 0
M  V30 1529 H 144.485 -2.2138 2.34927 0
M  V30 1530 H 143.537 -0.27259 3.79422 0
M  V30 1531 H 144.849 -0.575926 4.95464 0
M  V30 1532 H 144.003 -2.90186 5.32801 0
M  V30 1533 H 142.742 -2.66341 4.08551 0
M  V30 1534 H 141.747 -0.798338 5.43973 0
M  V30 1535 H 142.972 -1.05994 6.70777 0
M  V30 1536 H 140.918 -3.10304 5.77968 0
M  V30 1537 H 140.835 -2.17426 7.24059 0
M  V30 1538 H 142.103 -3.34641 7.04014 0
M  V30 1539 N 146.332 -1.57332 0.0918853 0
M  V30 1540 C 147.562 -1.98286 -0.580205 0
M  V30 1541 C 147.97 -0.969713 -1.6246 0
M  V30 1542 O 147.313 0.0493501 -1.83634 0
M  V30 1543 C 147.375 -3.35603 -1.28882 0
M  V30 1544 C 147.039 -4.55285 -0.395559 0
M  V30 1545 C 148.036 -5.18687 0.355002 0
M  V30 1546 C 145.721 -5.01314 -0.314556 0
M  V30 1547 C 147.715 -6.26484 1.17458 0
M  V30 1548 C 145.402 -6.08979 0.508677 0
M  V30 1549 C 146.4 -6.71429 1.2519 0
M  V30 1550 O 146.088 -7.77018 2.06151 0
M  V30 1551 H 145.82 -0.656678 -0.160466 0
M  V30 1552 H 148.374 -2.04721 0.16688 0
M  V30 1553 H 146.604 -3.25842 -2.08241 0
M  V30 1554 H 148.293 -3.61026 -1.85512 0
M  V30 1555 H 149.059 -4.84058 0.302134 0
M  V30 1556 H 144.938 -4.5247 -0.882697 0
M  V30 1557 H 148.482 -6.75159 1.75518 0
M  V30 1558 H 144.379 -6.4304 0.563037 0
M  V30 1559 H 145.147 -7.93991 1.98799 0
M  V30 1560 N 147.81 0.181792 -1.56548 0
M  V30 1561 C 149.038 0.915947 -1.85521 0
M  V30 1562 C 149.453 1.76282 -0.676016 0
M  V30 1563 O 148.81 1.79012 0.355077 0
M  V30 1564 C 148.861 1.80126 -3.13427 0
M  V30 1565 O 148.582 0.988562 -4.26801 0
M  V30 1566 C 150.083 2.64597 -3.55673 0
M  V30 1567 H 147.303 0.26661 -0.61576 0
M  V30 1568 H 149.847 0.185039 -2.03661 0
M  V30 1569 H 148.002 2.48563 -2.97145 0
M  V30 1570 H 148.416 1.59308 -4.99721 0
M  V30 1571 H 149.89 3.2235 -4.48101 0
M  V30 1572 H 150.367 3.38958 -2.79292 0
M  V30 1573 H 150.973 2.0151 -3.74532 0
M  V30 1574 N 149.288 1.51039 0.449983 0
M  V30 1575 C 150.238 1.67824 1.54335 0
M  V30 1576 C 151.222 0.5324 1.51836 0
M  V30 1577 O 152.414 0.787762 1.58503 0
M  V30 1578 C 149.543 1.7951 2.92628 0
M  V30 1579 C 148.629 2.99838 2.9993 0
M  V30 1580 N 149.02 4.23207 2.77001 0
M  V30 1581 C 147.318 2.98832 3.31082 0
M  V30 1582 C 148.019 5.04361 2.89818 0
M  V30 1583 N 146.995 4.38746 3.2094 0
M  V30 1584 H 150.797 2.60884 1.35339 0
M  V30 1585 H 148.311 1.48513 0.657085 0
M  V30 1586 H 150.308 1.89642 3.7127 0
M  V30 1587 H 148.968 0.876227 3.12654 0
M  V30 1588 H 149.979 4.5236 2.52172 0
M  V30 1589 H 146.656 2.16527 3.56963 0
M  V30 1590 H 148.046 6.12528 2.76151 0
M  V30 1591 N 150.766 -0.704594 1.40972 0
M  V30 1592 C 151.696 -1.83124 1.44872 0
M  V30 1593 C 152.677 -1.67281 0.30838 0
M  V30 1594 O 153.862 -1.87149 0.518556 0
M  V30 1595 C 150.992 -3.21181 1.32136 0
M  V30 1596 C 149.946 -3.51714 2.43888 0
M  V30 1597 C 149.272 -4.89032 2.16222 0
M  V30 1598 C 150.572 -3.516 3.86232 0
M  V30 1599 H 152.266 -1.80117 2.39161 0
M  V30 1600 H 149.812 -0.865145 1.15114 0
M  V30 1601 H 151.765 -3.99702 1.33479 0
M  V30 1602 H 150.489 -3.24791 0.343279 0
M  V30 1603 H 149.148 -2.75539 2.41813 0
M  V30 1604 H 148.796 -4.89256 1.16778 0
M  V30 1605 H 148.496 -5.10426 2.911 0
M  V30 1606 H 150.02 -5.69873 2.19265 0
M  V30 1607 H 151.434 -4.2014 3.9007 0
M  V30 1608 H 149.831 -3.84523 4.60719 0
M  V30 1609 H 150.901 -2.50757 4.15029 0
M  V30 1610 N 152.244 -1.26651 -0.937939 0
M  V30 1611 C 153.191 -1.0849 -2.03712 0
M  V30 1612 C 154.161 0.011033 -1.66096 0
M  V30 1613 O 155.346 -0.149353 -1.90215 0
M  V30 1614 C 152.486 -0.72735 -3.37348 0
M  V30 1615 C 151.599 -1.89986 -3.87981 0
M  V30 1616 C 150.734 -1.48513 -5.10017 0
M  V30 1617 C 149.773 -2.62575 -5.5292 0
M  V30 1618 N 148.91 -2.21762 -6.66158 0
M  V30 1619 H 153.75 -2.02551 -2.18579 0
M  V30 1620 H 151.287 -1.00844 -1.07093 0
M  V30 1621 H 153.245 -0.50092 -4.14182 0
M  V30 1622 H 151.875 0.176298 -3.22318 0
M  V30 1623 H 150.927 -2.23913 -3.07518 0
M  V30 1624 H 152.239 -2.75586 -4.15757 0
M  V30 1625 H 151.393 -1.21934 -5.94321 0
M  V30 1626 H 150.132 -0.60009 -4.83994 0
M  V30 1627 H 149.137 -2.8988 -4.67172 0
M  V30 1628 H 150.362 -3.51685 -5.80943 0
M  V30 1629 H 148.308 -1.35696 -6.41812 0
M  V30 1630 H 148.225 -3.00903 -6.93537 0
M  V30 1631 H 149.493 -1.98403 -7.53828 0
M  V30 1632 N 153.722 1.14298 -1.08507 0
M  V30 1633 C 154.67 2.21483 -0.710483 0
M  V30 1634 C 155.664 1.66998 0.284234 0
M  V30 1635 O 156.87 1.79401 0.146692 0
M  V30 1636 H 153.245 0.721578 -0.211729 0
M  V30 1637 H 155.216 2.50348 -1.62384 0
M  V30 1638 C 153.965 3.4743 -0.137007 0
M  V30 1639 H 153.288 3.89686 -0.893592 0
M  V30 1640 H 154.728 4.2391 0.0872789 0
M  V30 1641 C 153.187 3.17548 1.12538 0
M  V30 1642 O 153.717 3.35437 2.21009 0
M  V30 1643 N 151.923 2.71499 1.03617 0
M  V30 1644 H 151.47 2.57143 0.153403 0
M  V30 1645 H 151.428 2.51881 1.88158 0
M  V30 1646 N 155.201 0.870884 1.31352 0
M  V30 1647 C 156.148 0.325425 2.28494 0
M  V30 1648 C 157.118 -0.576615 1.5577 0
M  V30 1649 O 158.303 -0.508059 1.83911 0
M  V30 1650 C 155.443 -0.466283 3.41935 0
M  V30 1651 C 154.556 0.463378 4.29508 0
M  V30 1652 C 153.691 -0.342544 5.30094 0
M  V30 1653 C 152.73 0.583486 6.09313 0
M  V30 1654 N 151.867 -0.186244 7.01853 0
M  V30 1655 H 156.707 1.15901 2.74538 0
M  V30 1656 H 154.244 0.58294 1.35056 0
M  V30 1657 H 156.202 -0.941085 4.06447 0
M  V30 1658 H 154.832 -1.26456 2.97 0
M  V30 1659 H 153.884 1.05663 3.65431 0
M  V30 1660 H 155.196 1.1734 4.84802 0
M  V30 1661 H 154.35 -0.879816 6.00287 0
M  V30 1662 H 153.089 -1.08585 4.75458 0
M  V30 1663 H 152.094 1.13251 5.3801 0
M  V30 1664 H 153.319 1.32566 6.66035 0
M  V30 1665 H 151.265 -0.912348 6.49625 0
M  V30 1666 H 151.182 0.464422 7.54572 0
M  V30 1667 H 152.45 -0.704716 7.76308 0
M  V30 1668 N 156.679 -1.44442 0.630414 0
M  V30 1669 C 157.925 -2.02351 0.134816 0
M  V30 1670 C 158.258 -1.4947 -1.23986 0
M  V30 1671 O 157.533 -0.678475 -1.82283 0
M  V30 1672 C 157.816 -3.59898 0.120707 0
M  V30 1673 C 157.669 -4.23063 1.52767 0
M  V30 1674 C 158.988 -4.36585 -0.555127 0
M  V30 1675 H 156.107 -0.73527 0.0504646 0
M  V30 1676 H 158.749 -1.72022 0.806751 0
M  V30 1677 H 156.899 -3.85868 -0.451477 0
M  V30 1678 H 158.571 -4.08202 2.14869 0
M  V30 1679 H 156.814 -3.80586 2.08175 0
M  V30 1680 H 157.485 -5.32071 1.46984 0
M  V30 1681 H 159.961 -4.16044 -0.0685429 0
M  V30 1682 H 158.837 -5.46294 -0.534185 0
M  V30 1683 H 159.098 -4.11138 -1.62535 0
M  V30 1684 N 158.157 -0.370918 -1.53173 0
M  V30 1685 C 159.382 0.220293 -2.06227 0
M  V30 1686 C 159.807 1.41243 -1.24225 0
M  V30 1687 O 159.165 1.79387 -0.262645 0
M  V30 1688 C 159.213 0.586663 -3.55796 0
M  V30 1689 O 158.317 1.68317 -3.76488 0
M  V30 1690 H 157.658 0.0308099 -0.663285 0
M  V30 1691 H 160.188 -0.533068 -1.97534 0
M  V30 1692 H 160.198 0.85617 -3.98916 0
M  V30 1693 H 158.873 -0.285013 -4.14922 0
M  V30 1694 H 157.45 1.40881 -3.45264 0
M  V30 1695 N 159.635 1.57281 -0.100228 0
M  V30 1696 C 160.545 2.17833 0.870965 0
M  V30 1697 C 161.561 1.14921 1.30649 0
M  V30 1698 O 162.737 1.47313 1.37335 0
M  V30 1699 C 159.802 2.75085 2.1102 0
M  V30 1700 C 158.863 3.9297 1.72838 0
M  V30 1701 C 158.096 4.47482 2.90854 0
M  V30 1702 O 158.319 4.00922 4.05731 0
M  V30 1703 O 157.253 5.38433 2.69023 0
M  V30 1704 H 161.079 3.0124 0.38575 0
M  V30 1705 H 158.664 1.48881 0.124397 0
M  V30 1706 H 160.546 3.11656 2.83634 0
M  V30 1707 H 159.221 1.94721 2.58584 0
M  V30 1708 H 158.128 3.61201 0.973883 0
M  V30 1709 H 159.461 4.74713 1.30033 0
M  V30 1710 N 161.113 -0.173488 1.56642 0
M  V30 1711 C 162.063 -1.21941 1.92651 0
M  V30 1712 C 163.047 -1.39912 0.794577 0
M  V30 1713 O 164.239 -1.41919 1.05773 0
M  V30 1714 C 161.368 -2.55935 2.28806 0
M  V30 1715 C 160.454 -2.41667 3.48508 0
M  V30 1716 N 160.845 -1.9711 4.65813 0
M  V30 1717 C 159.143 -2.72499 3.53072 0
M  V30 1718 C 159.844 -1.95253 5.47952 0
M  V30 1719 N 158.82 -2.37575 4.88937 0
M  V30 1720 H 162.622 -0.866581 2.80834 0
M  V30 1721 H 160.136 -0.381776 1.57849 0
M  V30 1722 H 162.133 -3.31511 2.52797 0
M  V30 1723 H 160.793 -2.92022 1.41961 0
M  V30 1724 H 161.804 -1.67481 4.90072 0
M  V30 1725 H 158.481 -3.12639 2.767 0
M  V30 1726 H 159.871 -1.6252 6.51948 0
M  V30 1727 N 162.591 -1.51276 -0.441967 0
M  V30 1728 C 163.84 -1.6295 -1.18871 0
M  V30 1729 C 164.153 -0.349312 -1.92456 0
M  V30 1730 O 165.359 -0.345355 -2.69295 0
M  V30 1731 C 163.815 -2.87759 -2.16155 0
M  V30 1732 C 163.423 -4.22764 -1.48239 0
M  V30 1733 C 165.167 -3.08788 -2.91291 0
M  V30 1734 C 163.074 -5.38728 -2.4398 0
M  V30 1735 H 162.004 -0.606913 -0.447406 0
M  V30 1736 H 164.655 -1.77739 -0.456205 0
M  V30 1737 H 163.037 -2.66593 -2.92821 0
M  V30 1738 H 164.211 -4.54293 -0.771635 0
M  V30 1739 H 162.526 -4.07575 -0.852741 0
M  V30 1740 H 165.123 -3.92599 -3.63002 0
M  V30 1741 H 165.466 -2.21679 -3.5237 0
M  V30 1742 H 165.999 -3.30272 -2.21733 0
M  V30 1743 H 162.738 -6.28082 -1.87598 0
M  V30 1744 H 162.258 -5.1158 -3.13123 0
M  V30 1745 H 163.937 -5.70489 -3.05207 0
M  V30 1746 N 164.069 0.697108 -1.41344 0
M  V30 1747 C 165.48 1.27697 -1.36199 0
M  V30 1748 C 165.831 1.9615 -0.0443463 0
M  V30 1749 O 164.956 1.98689 0.857419 0
M  V30 1750 C 165.551 2.32223 -2.46694 0
M  V30 1751 C 164.11 2.8579 -2.44952 0
M  V30 1752 C 163.257 1.59807 -2.26621 0
M  V30 1753 H 166.208 0.491968 -1.50882 0
M  V30 1754 H 166.229 3.1348 -2.15664 0
M  V30 1755 H 165.741 1.82373 -3.42581 0
M  V30 1756 H 163.842 3.3982 -1.52817 0
M  V30 1757 H 163.955 3.36325 -3.41207 0
M  V30 1758 H 162.319 1.8556 -1.7447 0
M  V30 1759 H 163.102 1.11956 -3.24532 0
M  V30 1760 N 165.547 1.27147 0.931209 0
M  V30 1761 C 166.793 1.13446 1.68101 0
M  V30 1762 C 167.126 -0.319628 1.91552 0
M  V30 1763 O 166.401 -1.23407 1.50336 0
M  V30 1764 C 166.684 1.91482 3.0497 0
M  V30 1765 C 166.537 3.44855 2.88782 0
M  V30 1766 C 167.856 1.71651 4.05246 0
M  V30 1767 H 164.975 0.413498 0.610072 0
M  V30 1768 H 167.617 1.56261 1.08086 0
M  V30 1769 H 165.767 1.55095 3.56199 0
M  V30 1770 H 167.439 3.9105 2.44698 0
M  V30 1771 H 165.682 3.71373 2.24198 0
M  V30 1772 H 166.353 3.94694 3.85902 0
M  V30 1773 H 168.829 2.0337 3.63015 0
M  V30 1774 H 167.705 2.28651 4.99009 0
M  V30 1775 H 167.966 0.663555 4.37092 0
M  V30 1776 N 167.025 -1.13721 1.09112 0
M  V30 1777 C 168.255 -1.88499 0.845671 0
M  V30 1778 C 168.663 -1.79218 -0.606432 0
M  V30 1779 O 168.006 -1.1544 -1.42896 0
M  V30 1780 C 168.068 -3.38954 1.19793 0
M  V30 1781 C 167.732 -3.72018 2.65428 0
M  V30 1782 C 168.729 -3.7153 3.63677 0
M  V30 1783 C 166.414 -4.01775 3.01467 0
M  V30 1784 C 168.408 -4.00336 4.95994 0
M  V30 1785 C 166.095 -4.30243 4.33975 0
M  V30 1786 C 167.093 -4.29508 5.31048 0
M  V30 1787 O 166.781 -4.5728 6.61173 0
M  V30 1788 H 166.513 -0.603702 0.304171 0
M  V30 1789 H 169.067 -1.44903 1.45576 0
M  V30 1790 H 167.297 -3.83039 0.530871 0
M  V30 1791 H 168.986 -3.95052 0.932146 0
M  V30 1792 H 169.752 -3.4862 3.37179 0
M  V30 1793 H 165.631 -4.01496 2.26544 0
M  V30 1794 H 169.175 -3.99678 5.71755 0
M  V30 1795 H 165.072 -4.52625 4.60219 0
M  V30 1796 H 165.84 -4.74964 6.66597 0
M  V30 1797 N 168.503 -0.877838 -1.30888 0
M  V30 1798 C 169.435 -0.296607 -2.27273 0
M  V30 1799 C 170.448 0.544799 -1.53414 0
M  V30 1800 O 171.637 0.365511 -1.74718 0
M  V30 1801 C 168.737 0.597481 -3.33592 0
M  V30 1802 C 167.91 -0.213251 -4.3688 0
M  V30 1803 C 166.969 0.610208 -5.2265 0
M  V30 1804 O 165.995 0.035441 -5.69189 0
M  V30 1805 N 167.197 1.92071 -5.47804 0
M  V30 1806 H 169.962 -1.12492 -2.77787 0
M  V30 1807 H 167.523 -0.740105 -1.43993 0
M  V30 1808 H 169.515 1.15425 -3.87891 0
M  V30 1809 H 168.085 1.32647 -2.83061 0
M  V30 1810 H 167.305 -0.951466 -3.82545 0
M  V30 1811 H 168.593 -0.769262 -5.02951 0
M  V30 1812 H 167.991 2.4107 -5.11763 0
M  V30 1813 H 166.548 2.42508 -6.05007 0
M  V30 1814 N 169.982 1.44106 -0.638065 0
M  V30 1815 C 170.914 2.28976 0.101205 0
M  V30 1816 C 171.927 1.4167 0.802088 0
M  V30 1817 O 173.116 1.65755 0.662375 0
M  V30 1818 C 170.216 3.18217 1.16581 0
M  V30 1819 C 169.389 4.33978 0.546066 0
M  V30 1820 C 168.448 5.04202 1.50554 0
M  V30 1821 O 167.474 5.59986 1.01999 0
M  V30 1822 N 168.676 5.06296 2.8398 0
M  V30 1823 H 171.441 2.93064 -0.627186 0
M  V30 1824 H 169.002 1.54629 -0.479731 0
M  V30 1825 H 170.994 3.62061 1.80815 0
M  V30 1826 H 169.564 2.55833 1.79634 0
M  V30 1827 H 168.784 3.93239 -0.275046 0
M  V30 1828 H 170.072 5.08675 0.112793 0
M  V30 1829 H 169.47 4.62319 3.26002 0
M  V30 1830 H 168.027 5.53907 3.43556 0
M  V30 1831 N 171.46 0.379036 1.52974 0
M  V30 1832 C 172.37 -0.468639 2.29872 0
M  V30 1833 C 173.386 -1.08067 1.36373 0
M  V30 1834 O 174.562 -1.08871 1.69438 0
M  V30 1835 C 171.627 -1.58594 3.083 0
M  V30 1836 C 170.688 -1.00007 4.17489 0
M  V30 1837 C 169.921 -2.06413 4.92168 0
M  V30 1838 O 170.144 -3.27751 4.66835 0
M  V30 1839 O 169.078 -1.68717 5.7777 0
M  V30 1840 H 172.904 0.157508 3.03291 0
M  V30 1841 H 170.489 0.143035 1.48714 0
M  V30 1842 H 172.371 -2.23525 3.57232 0
M  V30 1843 H 171.046 -2.19724 2.37703 0
M  V30 1844 H 169.953 -0.314299 3.72777 0
M  V30 1845 H 171.286 -0.433135 4.90291 0
M  V30 1846 N 172.938 -1.57226 0.108567 0
M  V30 1847 C 173.848 -2.18292 -0.859401 0
M  V30 1848 C 174.864 -1.15612 -1.30038 0
M  V30 1849 O 176.04 -1.48039 -1.36552 0
M  V30 1850 C 173.105 -2.762 -2.09558 0
M  V30 1851 C 172.166 -3.93881 -1.70752 0
M  V30 1852 C 171.399 -4.49018 -2.88477 0
M  V30 1853 O 171.622 -4.03068 -4.036 0
M  V30 1854 O 170.556 -5.39852 -2.66164 0
M  V30 1855 H 174.382 -3.01441 -0.369769 0
M  V30 1856 H 171.967 -1.48945 -0.1165 0
M  V30 1857 H 173.849 -3.13156 -2.81978 0
M  V30 1858 H 172.524 -1.96089 -2.57548 0
M  V30 1859 H 171.431 -3.61713 -0.954714 0
M  V30 1860 H 172.764 -4.75396 -1.27513 0
M  V30 1861 N 174.416 0.165178 -1.56732 0
M  V30 1862 C 175.364 1.22369 -1.97809 0
M  V30 1863 C 176.358 1.45488 -0.867741 0
M  V30 1864 O 177.564 1.45995 -1.05288 0
M  V30 1865 H 173.939 0.411486 -0.629431 0
M  V30 1866 H 175.91 0.850425 -2.86025 0
M  V30 1867 C 174.659 2.55403 -2.35934 0
M  V30 1868 H 173.982 2.38438 -3.20916 0
M  V30 1869 H 175.422 3.2814 -2.68514 0
M  V30 1870 C 173.881 3.14611 -1.20506 0
M  V30 1871 O 174.411 3.98626 -0.496016 0
M  V30 1872 N 172.617 2.7379 -0.97403 0
M  V30 1873 H 172.164 2.0557 -1.55238 0
M  V30 1874 H 172.122 3.1374 -0.203573 0
M  V30 1875 N 175.894 1.51508 0.433938 0
M  V30 1876 C 176.826 1.69266 1.54537 0
M  V30 1877 C 177.839 0.573276 1.52373 0
M  V30 1878 O 179.028 0.847698 1.57087 0
M  V30 1879 C 176.128 1.69524 2.93453 0
M  V30 1880 C 175.301 2.98101 3.20085 0
M  V30 1881 C 174.36 2.90502 4.38742 0
M  V30 1882 O 173.386 3.64442 4.3723 0
M  V30 1883 N 174.588 2.06586 5.42496 0
M  V30 1884 H 177.353 2.65145 1.39708 0
M  V30 1885 H 174.914 1.49437 0.622922 0
M  V30 1886 H 176.906 1.62004 3.70859 0
M  V30 1887 H 175.476 0.812245 3.01863 0
M  V30 1888 H 174.696 3.19464 2.30947 0
M  V30 1889 H 175.984 3.83207 3.34708 0
M  V30 1890 H 175.382 1.45896 5.46563 0
M  V30 1891 H 173.939 2.04943 6.18742 0
M  V30 1892 N 177.372 -0.689602 1.41712 0
M  V30 1893 C 178.6 -1.47827 1.44758 0
M  V30 1894 C 179.015 -1.88721 0.0545703 0
M  V30 1895 O 178.372 -1.57176 -0.927463 0
M  V30 1896 C 178.423 -2.73698 2.3616 0
M  V30 1897 O 178.144 -2.34524 3.7004 0
M  V30 1898 C 179.645 -3.67389 2.48072 0
M  V30 1899 H 176.865 -0.455357 0.49284 0
M  V30 1900 H 179.409 -0.848574 1.86063 0
M  V30 1901 H 177.564 -3.32891 1.98148 0
M  V30 1902 H 177.978 -3.15701 4.18847 0
M  V30 1903 H 179.452 -4.52475 3.16181 0
M  V30 1904 H 179.929 -4.12284 1.51388 0
M  V30 1905 H 180.535 -3.14097 2.86746 0
M  V30 1906 N 178.85 -1.27639 -0.924453 0
M  V30 1907 C 180.127 -1.04887 -1.651 0
M  V30 1908 C 180.507 0.415327 -2.06974 0
M  V30 1909 O 179.855 1.39923 -1.80648 0
M  V30 1910 C 180.065 -2.01348 -2.85061 0
M  V30 1911 C 181.413 -2.30899 -3.56329 0
M  V30 1912 O 182.437 -1.99348 -2.95193 0
M  V30 1913 O 181.296 -2.84699 -4.66485 0
M  V30 1914 H 178.39 -0.400083 -0.723784 0
M  V30 1915 H 180.936 -1.38916 -0.974703 0
M  V30 1916 H 179.708 -3.0008 -2.51133 0
M  V30 1917 H 179.331 -1.679 -3.6041 0
M  V30 1918 N 180.328 1.1314 -1.09713 0
M  V30 1919 C 181.574 1.84757 -0.836224 0
M  V30 1920 C 181.907 1.8347 0.636598 0
M  V30 1921 O 181.182 1.27491 1.46889 0
M  V30 1922 C 181.465 3.32782 -1.37578 0
M  V30 1923 C 181.318 3.42567 -2.91493 0
M  V30 1924 C 182.637 4.28307 -1.01198 0
M  V30 1925 H 179.756 0.67082 -0.305236 0
M  V30 1926 H 182.398 1.3278 -1.35903 0
M  V30 1927 H 180.548 3.77177 -0.931097 0
M  V30 1928 H 182.22 3.06862 -3.44432 0
M  V30 1929 H 180.463 2.83349 -3.28475 0
M  V30 1930 H 181.134 4.46674 -3.24324 0
M  V30 1931 H 183.61 3.91999 -1.39556 0
M  V30 1932 H 182.486 5.30307 -1.41653 0
M  V30 1933 H 182.747 4.42029 0.0794833 0
M  V30 1934 N 181.806 0.884767 1.30421 0
M  V30 1935 C 183.052 0.513218 1.96819 0
M  V30 1936 C 183.407 -0.927347 1.68577 0
M  V30 1937 O 182.7 -1.64644 0.979941 0
M  V30 1938 C 182.894 0.724318 3.49983 0
M  V30 1939 C 182.723 2.18385 3.93113 0
M  V30 1940 C 181.493 2.82839 4.18725 0
M  V30 1941 C 183.691 3.15763 4.05953 0
M  V30 1942 N 181.673 4.1939 4.48314 0
M  V30 1943 C 183.044 4.37387 4.39423 0
M  V30 1944 C 185.099 3.11555 3.88379 0
M  V30 1945 C 183.802 5.55343 4.5715 0
M  V30 1946 C 185.828 4.28782 4.07308 0
M  V30 1947 C 185.19 5.49172 4.41123 0
M  V30 1948 H 181.289 0.237123 0.745182 0
M  V30 1949 H 183.873 1.14246 1.57658 0
M  V30 1950 H 182.044 0.124565 3.882 0
M  V30 1951 H 183.776 0.31969 4.03435 0
M  V30 1952 H 180.531 2.33708 4.11919 0
M  V30 1953 H 180.955 4.89911 4.67243 0
M  V30 1954 H 185.597 2.19576 3.61312 0
M  V30 1955 H 183.315 6.47826 4.8306 0
M  V30 1956 H 186.901 4.26995 3.95179 0
M  V30 1957 H 185.781 6.38371 4.55469 0
M  V30 1958 N 183.284 -1.43765 0.645699 0
M  V30 1959 C 184.512 -2.06253 0.163556 0
M  V30 1960 C 184.927 -1.48352 -1.16778 0
M  V30 1961 O 184.284 -0.611932 -1.71935 0
M  V30 1962 C 184.335 -3.61453 0.0583186 0
M  V30 1963 O 184.056 -4.172 1.33702 0
M  V30 1964 C 185.557 -4.41002 -0.450795 0
M  V30 1965 H 182.777 -0.665413 0.0864077 0
M  V30 1966 H 185.321 -1.84396 0.884222 0
M  V30 1967 H 183.476 -3.82522 -0.612865 0
M  V30 1968 H 183.89 -5.10791 1.19131 0
M  V30 1969 H 185.364 -5.49966 -0.473403 0
M  V30 1970 H 185.841 -4.13488 -1.48068 0
M  V30 1971 H 186.447 -4.24886 0.187637 0
M  V30 1972 N 184.763 -0.387143 -1.52771 0
M  V30 1973 C 185.693 0.440551 -2.29306 0
M  V30 1974 C 186.674 1.06535 -1.32606 0
M  V30 1975 O 187.859 1.07853 -1.61497 0
M  V30 1976 C 184.989 1.56919 -3.09829 0
M  V30 1977 C 183.943 1.07054 -4.14395 0
M  V30 1978 C 183.269 2.29109 -4.83129 0
M  V30 1979 C 184.569 0.140015 -5.22112 0
M  V30 1980 H 186.263 -0.198026 -2.98744 0
M  V30 1981 H 183.809 -0.09668 -1.43675 0
M  V30 1982 H 185.762 2.15503 -3.62128 0
M  V30 1983 H 184.486 2.23532 -2.3812 0
M  V30 1984 H 183.145 0.507247 -3.63074 0
M  V30 1985 H 182.793 2.94227 -4.0797 0
M  V30 1986 H 182.493 1.96406 -5.53804 0
M  V30 1987 H 184.017 2.88339 -5.38231 0
M  V30 1988 H 185.431 0.633978 -5.69784 0
M  V30 1989 H 183.828 -0.0971485 -6.00021 0
M  V30 1990 H 184.898 -0.811711 -4.78058 0
M  V30 1991 N 186.241 1.57166 -0.116904 0
M  V30 1992 C 187.171 2.18222 0.830759 0
M  V30 1993 C 188.152 1.12167 1.27877 0
M  V30 1994 O 189.337 1.40394 1.34176 0
M  V30 1995 C 186.467 2.77996 2.08172 0
M  V30 1996 C 185.421 3.89614 1.77157 0
M  V30 1997 C 184.747 4.36187 3.09265 0
M  V30 1998 C 186.047 5.1181 1.04151 0
M  V30 1999 H 187.741 2.97664 0.321992 0
M  V30 2000 H 185.287 1.4318 0.153434 0
M  V30 2001 H 187.24 3.19366 2.74924 0
M  V30 2002 H 185.964 1.9584 2.6137 0
M  V30 2003 H 184.623 3.48816 1.12796 0
M  V30 2004 H 184.271 3.50893 3.60393 0
M  V30 2005 H 183.971 5.11455 2.89288 0
M  V30 2006 H 185.495 4.80207 3.77139 0
M  V30 2007 H 186.909 5.50214 1.61052 0
M  V30 2008 H 185.306 5.92648 0.942762 0
M  V30 2009 H 186.376 4.84892 0.0279022 0
M  V30 2010 N 187.719 -0.156864 1.56817 0
M  V30 2011 C 188.667 -1.21319 1.98455 0
M  V30 2012 C 189.661 -1.45025 0.875444 0
M  V30 2013 O 190.867 -1.45435 1.0606 0
M  V30 2014 H 187.242 -0.408142 0.631605 0
M  V30 2015 H 189.213 -0.835244 2.86472 0
M  V30 2016 C 187.962 -2.54148 2.37285 0
M  V30 2017 H 187.285 -2.36733 3.22176 0
M  V30 2018 H 188.725 -3.26712 2.70251 0
M  V30 2019 C 187.184 -3.13967 1.22173 0
M  V30 2020 O 187.714 -3.98357 0.517149 0
M  V30 2021 N 185.92 -2.7327 0.988536 0
M  V30 2022 H 185.467 -2.04744 1.56326 0
M  V30 2023 H 185.425 -3.13628 0.220209 0
M  V30 2024 N 189.197 -1.51736 -0.425897 0
M  V30 2025 C 190.445 -1.64644 -1.17204 0
M  V30 2026 C 190.766 -0.370486 -1.91448 0
M  V30 2027 O 190.036 0.614088 -1.86026 0
M  V30 2028 H 188.616 -0.606819 -0.435638 0
M  V30 2029 H 191.278 -1.88713 -0.487177 0
M  V30 2030 H 190.374 -2.47958 -1.89534 0
M  V30 2031 N 190.675 0.682077 -1.42076 0
M  V30 2032 C 191.9 1.47558 -1.45744 0
M  V30 2033 C 192.325 1.87977 -0.0680981 0
M  V30 2034 O 191.683 1.55522 0.9318 0
M  V30 2035 C 191.731 2.70575 -2.38373 0
M  V30 2036 O 190.835 3.68573 -1.85007 0
M  V30 2037 H 190.176 0.443585 -0.494093 0
M  V30 2038 H 192.706 0.837238 -1.86686 0
M  V30 2039 H 192.716 3.18729 -2.54707 0
M  V30 2040 H 191.391 2.40495 -3.39315 0
M  V30 2041 H 189.968 3.2757 -1.78192 0
M  V30 2042 N 192.153 1.28127 0.917671 0
M  V30 2043 C 193.1 1.11717 2.0196 0
M  V30 2044 C 194.07 0.0153929 1.66093 0
M  V30 2045 O 195.255 0.179596 1.89953 0
M  V30 2046 C 192.395 0.780927 3.36148 0
M  V30 2047 C 191.508 1.96135 3.84909 0
M  V30 2048 C 190.643 1.56609 5.0759 0
M  V30 2049 C 189.682 2.71339 5.48673 0
M  V30 2050 N 188.819 2.32332 6.62545 0
M  V30 2051 H 193.659 2.06003 2.15329 0
M  V30 2052 H 191.196 1.02535 1.05475 0
M  V30 2053 H 193.154 0.56675 4.13333 0
M  V30 2054 H 191.784 -0.124998 3.22558 0
M  V30 2055 H 190.836 2.28777 3.03916 0
M  V30 2056 H 192.148 2.82165 4.1132 0
M  V30 2057 H 191.302 1.31374 5.92305 0
M  V30 2058 H 190.041 0.677014 4.82978 0
M  V30 2059 H 189.046 2.97276 4.62501 0
M  V30 2060 H 190.271 3.60882 5.75274 0
M  V30 2061 H 188.217 1.45889 6.39572 0
M  V30 2062 H 188.134 3.11899 6.88662 0
M  V30 2063 H 189.402 2.10371 7.50576 0
M  V30 2064 N 193.631 -1.12557 1.10312 0
M  V30 2065 C 194.908 -1.80363 0.756878 0
M  V30 2066 C 195.288 -1.97067 -0.756824 0
M  V30 2067 O 194.636 -1.54601 -1.68259 0
M  V30 2068 C 194.846 -3.14812 1.50647 0
M  V30 2069 C 196.194 -3.90029 1.67817 0
M  V30 2070 O 197.218 -3.24464 1.46974 0
M  V30 2071 O 196.077 -5.07652 2.02365 0
M  V30 2072 H 193.171 -0.780667 0.272926 0
M  V30 2073 H 195.717 -1.19404 1.20586 0
M  V30 2074 H 194.489 -2.97936 2.53672 0
M  V30 2075 H 194.112 -3.83478 1.05026 0
M  V30 2076 N 195.109 -0.891671 -1.2995 0
M  V30 2077 C 196.386 -0.433307 -1.9074 0
M  V30 2078 C 196.766 1.08646 -1.80995 0
M  V30 2079 O 196.114 1.92476 -1.23147 0
M  V30 2080 C 196.324 -0.938895 -3.36134 0
M  V30 2081 C 197.672 -0.977829 -4.13187 0
M  V30 2082 O 198.696 -0.886015 -3.45005 0
M  V30 2083 O 197.555 -1.11453 -5.35015 0
M  V30 2084 H 194.649 -0.133699 -0.816121 0
M  V30 2085 H 197.195 -0.981011 -1.38471 0
M  V30 2086 H 195.967 -1.98281 -3.37343 0
M  V30 2087 H 195.59 -0.37074 -3.95868 0
M  V30 2088 N 196.587 1.43421 -0.653314 0
M  V30 2089 C 197.834 2.01812 -0.166745 0
M  V30 2090 C 198.162 1.51535 1.21931 0
M  V30 2091 O 197.417 0.698975 1.82792 0
M  V30 2092 C 197.716 3.57176 -0.126623 0
M  V30 2093 C 197.382 4.26798 -1.45444 0
M  V30 2094 C 196.044 4.45534 -1.81805 0
M  V30 2095 C 198.396 4.66225 -2.32989 0
M  V30 2096 C 195.724 5.00961 -3.05377 0
M  V30 2097 C 198.076 5.23021 -3.55853 0
M  V30 2098 C 196.74 5.39973 -3.9241 0
M  V30 2099 H 196.01 0.738484 -0.0610162 0
M  V30 2100 H 198.657 1.71896 -0.84404 0
M  V30 2101 H 196.962 3.86634 0.634123 0
M  V30 2102 H 198.659 4.00112 0.266723 0
M  V30 2103 H 195.249 4.12561 -1.16153 0
M  V30 2104 H 199.433 4.51443 -2.06187 0
M  V30 2105 H 194.689 5.12271 -3.3375 0
M  V30 2106 H 198.863 5.52518 -4.23907 0
M  V30 2107 H 196.49 5.82687 -4.88242 0
M  V30 2108 N 198.065 0.39524 1.52563 0
M  V30 2109 C 198.995 -0.428384 2.29537 0
M  V30 2110 C 199.976 -1.05831 1.33169 0
M  V30 2111 O 201.161 -1.06995 1.62067 0
M  V30 2112 C 198.291 -1.55274 3.10656 0
M  V30 2113 C 197.245 -1.04855 4.14957 0
M  V30 2114 C 196.571 -2.26543 4.84337 0
M  V30 2115 C 197.871 -0.112324 5.22179 0
M  V30 2116 H 199.565 0.213867 2.98635 0
M  V30 2117 H 197.111 0.104298 1.43622 0
M  V30 2118 H 199.064 -2.1358 3.63265 0
M  V30 2119 H 197.788 -2.22266 2.39302 0
M  V30 2120 H 196.447 -0.487985 3.63338 0
M  V30 2121 H 196.095 -2.92059 4.09525 0
M  V30 2122 H 195.795 -1.93466 5.54837 0
M  V30 2123 H 197.319 -2.85481 5.39753 0
M  V30 2124 H 198.733 -0.603752 5.70112 0
M  V30 2125 H 197.13 0.128968 5.99961 0
M  V30 2126 H 198.2 0.837052 4.77621 0
M  V30 2127 N 199.544 -1.57102 0.125237 0
M  V30 2128 C 200.793 -1.94582 -0.531095 0
M  V30 2129 C 201.106 -1.01126 -1.6743 0
M  V30 2130 O 202.312 -1.28097 -2.39381 0
M  V30 2131 C 200.768 -3.45839 -0.996164 0
M  V30 2132 C 200.376 -4.47842 0.118926 0
M  V30 2133 C 202.12 -3.92227 -1.62352 0
M  V30 2134 C 200.027 -5.90284 -0.363192 0
M  V30 2135 H 198.957 -0.726391 -0.20217 0
M  V30 2136 H 201.608 -1.82339 0.206092 0
M  V30 2137 H 199.99 -3.53338 -1.78796 0
M  V30 2138 H 201.164 -4.52018 0.895358 0
M  V30 2139 H 199.479 -4.11243 0.653324 0
M  V30 2140 H 202.076 -4.96069 -1.99548 0
M  V30 2141 H 202.419 -3.32552 -2.50429 0
M  V30 2142 H 202.952 -3.87554 -0.897019 0
M  V30 2143 H 199.691 -6.53728 0.481679 0
M  V30 2144 H 199.211 -5.89515 -1.10597 0
M  V30 2145 H 200.89 -6.41752 -0.822377 0
M  V30 2146 N 201.022 0.148545 -1.56898 0
M  V30 2147 C 202.252 0.875118 -1.8715 0
M  V30 2148 C 202.66 1.75322 -0.711262 0
M  V30 2149 O 202.003 1.80745 0.328151 0
M  V30 2150 C 202.065 1.7844 -3.12089 0
M  V30 2151 C 201.729 1.08361 -4.43967 0
M  V30 2152 C 202.726 0.438247 -5.1805 0
M  V30 2153 C 200.411 1.07358 -4.90693 0
M  V30 2154 C 202.405 -0.20779 -6.37061 0
M  V30 2155 C 200.092 0.42373 -6.09629 0
M  V30 2156 C 201.09 -0.215829 -6.82659 0
M  V30 2157 O 200.778 -0.855378 -7.99336 0
M  V30 2158 H 200.51 0.258504 -0.624621 0
M  V30 2159 H 203.064 0.14652 -2.04877 0
M  V30 2160 H 201.294 2.55389 -2.90367 0
M  V30 2161 H 202.983 2.38279 -3.286 0
M  V30 2162 H 203.749 0.437817 -4.8302 0
M  V30 2163 H 199.628 1.5608 -4.33774 0
M  V30 2164 H 203.172 -0.70758 -6.94002 0
M  V30 2165 H 199.069 0.421822 -6.4412 0
M  V30 2166 H 199.837 -0.756892 -8.14993 0
M  V30 2167 N 202.5 1.5196 0.417844 0
M  V30 2168 C 203.777 1.56146 1.17803 0
M  V30 2169 C 204.157 0.337275 2.08388 0
M  V30 2170 O 203.505 -0.676447 2.18258 0
M  V30 2171 C 203.715 2.88566 1.96293 0
M  V30 2172 C 205.063 3.41244 2.52662 0
M  V30 2173 O 206.087 2.90247 2.06483 0
M  V30 2174 O 204.946 4.30273 3.36938 0
M  V30 2175 H 202.04 0.628598 0.537395 0
M  V30 2176 H 204.586 1.64283 0.425331 0
M  V30 2177 H 203.358 3.69116 1.2988 0
M  V30 2178 H 202.981 2.83681 2.78587 0
M  V30 2179 N 203.978 -0.674533 1.42435 0
M  V30 2180 C 205.394 -0.98769 1.25367 0
M  V30 2181 C 205.594 -2.00879 0.158044 0
M  V30 2182 O 204.65 -2.48075 -0.470633 0
M  V30 2183 C 205.963 -1.49224 2.6106 0
M  V30 2184 C 207.511 -1.61 2.68417 0
M  V30 2185 C 207.986 -2.14852 4.04478 0
M  V30 2186 N 209.477 -2.22185 4.06434 0
M  V30 2187 C 210.212 -2.64928 5.08528 0
M  V30 2188 N 209.708 -3.07121 6.21006 0
M  V30 2189 N 211.501 -2.64679 4.95885 0
M  V30 2190 H 203.652 0.00152503 2.124 0
M  V30 2191 H 205.915 -0.0618434 0.945981 0
M  V30 2192 H 205.621 -0.816453 3.42092 0
M  V30 2193 H 205.495 -2.47094 2.84999 0
M  V30 2194 H 207.882 -2.27686 1.87732 0
M  V30 2195 H 207.963 -0.616195 2.48267 0
M  V30 2196 H 207.607 -1.48775 4.85622 0
M  V30 2197 H 207.537 -3.15024 4.2198 0
M  V30 2198 H 210.028 -1.92435 3.25234 0
M  V30 2199 H 210.341 -3.38423 6.94759 0
M  V30 2200 H 208.686 -3.04978 6.24511 0
M  V30 2201 H 211.877 -2.31078 4.07088 0
M  V30 2202 H 212.05 -2.9767 5.75584 0
M  V30 2203 N 205.456 -1.28612 -0.910864 0
M  V30 2204 C 206.696 -1.1719 -1.67469 0
M  V30 2205 C 207.06 0.274441 -1.90028 0
M  V30 2206 O 208.261 0.511425 -2.6389 0
M  V30 2207 C 206.532 -1.95137 -2.99427 0
M  V30 2208 S 208.091 -2.00122 -3.90508 0
M  V30 2209 H 204.909 -0.41806 -0.575106 0
M  V30 2210 H 207.511 -1.6275 -1.08317 0
M  V30 2211 H 206.215 -2.99381 -2.80712 0
M  V30 2212 H 205.746 -1.50137 -3.63624 0
M  V30 2213 H 207.761 -1.10981 -4.8363 0
M  V30 2214 N 206.934 1.1197 -1.10907 0
M  V30 2215 C 208.182 1.83225 -0.852819 0
M  V30 2216 C 208.503 1.84769 0.623341 0
M  V30 2217 O 207.773 1.3143 1.45269 0
M  V30 2218 H 206.353 0.67849 -0.312507 0
M  V30 2219 H 209.015 1.3556 -1.40033 0
M  V30 2220 H 208.111 2.87265 -1.22005 0
M  V30 2221 N 208.412 0.89855 1.29475 0
M  V30 2222 C 209.828 0.594483 1.48115 0
M  V30 2223 C 210.028 -0.86431 1.82022 0
M  V30 2224 O 209.084 -1.64457 1.91599 0
M  V30 2225 C 210.397 1.51932 2.59494 0
M  V30 2226 C 211.945 1.5244 2.7337 0
M  V30 2227 C 212.42 2.43548 3.87877 0
M  V30 2228 N 213.911 2.41589 3.95208 0
M  V30 2229 C 214.646 3.08789 4.83153 0
M  V30 2230 N 214.142 3.85265 5.75798 0
M  V30 2231 N 215.935 2.97952 4.76635 0
M  V30 2232 H 208.086 1.84207 1.05742 0
M  V30 2233 H 210.349 0.789251 0.525154 0
M  V30 2234 H 210.055 2.55865 2.41301 0
M  V30 2235 H 209.929 1.23899 3.56271 0
M  V30 2236 H 212.316 0.492518 2.90961 0
M  V30 2237 H 212.397 1.8451 1.77172 0
M  V30 2238 H 212.041 3.46829 3.71041 0
M  V30 2239 H 211.971 2.08788 4.83441 0
M  V30 2240 H 214.462 1.86025 3.28943 0
M  V30 2241 H 214.775 4.33598 6.39697 0
M  V30 2242 H 213.12 3.89371 5.75687 0
M  V30 2243 H 216.311 2.37723 4.03244 0
M  V30 2244 H 216.484 3.50599 5.44962 0
M  V30 2245 N 209.89 -1.43072 0.660911 0
M  V30 2246 C 210.82 -2.33497 -0.0122829 0
M  V30 2247 C 211.801 -1.49903 -0.803925 0
M  V30 2248 O 212.986 -1.78546 -0.763864 0
M  V30 2249 C 210.116 -3.33363 -0.973994 0
M  V30 2250 C 209.07 -4.27003 -0.291928 0
M  V30 2251 C 208.396 -5.16967 -1.36562 0
M  V30 2252 C 209.696 -5.15816 0.820462 0
M  V30 2253 H 211.39 -2.90038 0.742873 0
M  V30 2254 H 208.936 -1.39461 0.358688 0
M  V30 2255 H 210.889 -3.95524 -1.45392 0
M  V30 2256 H 209.613 -2.75095 -1.7604 0
M  V30 2257 H 208.272 -3.66217 0.167623 0
M  V30 2258 H 207.92 -4.55034 -2.14366 0
M  V30 2259 H 207.62 -5.80441 -0.914454 0
M  V30 2260 H 209.144 -5.82003 -1.84675 0
M  V30 2261 H 210.558 -5.71742 0.422366 0
M  V30 2262 H 208.955 -5.8805 1.19656 0
M  V30 2263 H 210.025 -4.55045 1.67518 0
M  V30 2264 N 211.368 -0.403325 -1.52352 0
M  V30 2265 C 212.614 0.174605 -2.02047 0
M  V30 2266 C 212.947 1.45282 -1.28867 0
M  V30 2267 O 212.222 1.90483 -0.393257 0
M  V30 2268 C 212.505 0.428238 -3.57545 0
M  V30 2269 C 212.358 -0.866248 -4.4138 0
M  V30 2270 C 213.677 1.21287 -4.23057 0
M  V30 2271 H 210.796 0.0619851 -0.734389 0
M  V30 2272 H 213.438 -0.53565 -1.82293 0
M  V30 2273 H 211.588 1.03327 -3.74507 0
M  V30 2274 H 213.26 -1.50265 -4.3614 0
M  V30 2275 H 211.503 -1.47851 -4.07827 0
M  V30 2276 H 212.174 -0.643249 -5.48239 0
M  V30 2277 H 214.65 0.700703 -4.10158 0
M  V30 2278 H 213.526 1.35909 -5.31808 0
M  V30 2279 H 213.787 2.23193 -3.81625 0
M  V30 2280 N 212.846 1.57033 -0.133567 0
M  V30 2281 C 214.076 1.99754 0.527429 0
M  V30 2282 C 214.484 1.01245 1.59832 0
M  V30 2283 O 213.827 -0.000645496 1.837 0
M  V30 2284 C 213.889 3.38903 1.19939 0
M  V30 2285 C 213.553 4.56174 0.274709 0
M  V30 2286 C 214.55 5.17563 -0.492398 0
M  V30 2287 C 212.235 5.01972 0.18153 0
M  V30 2288 C 214.229 6.2315 -1.34027 0
M  V30 2289 C 211.916 6.07416 -0.669958 0
M  V30 2290 C 212.914 6.67874 -1.42947 0
M  V30 2291 O 212.602 7.71279 -2.2668 0
M  V30 2292 H 212.334 0.660702 0.142999 0
M  V30 2293 H 214.888 2.04207 -0.221099 0
M  V30 2294 H 213.118 3.31248 1.99528 0
M  V30 2295 H 214.807 3.65818 1.75875 0
M  V30 2296 H 215.573 4.83087 -0.430367 0
M  V30 2297 H 211.452 4.54652 0.762422 0
M  V30 2298 H 214.996 6.70268 -1.93357 0
M  V30 2299 H 210.893 6.41321 -0.73333 0
M  V30 2300 H 211.661 7.88441 -2.1978 0
M  V30 2301 N 214.325 -0.140222 1.56975 0
M  V30 2302 C 215.275 -1.17827 1.95194 0
M  V30 2303 C 216.259 -1.38195 0.824075 0
M  V30 2304 O 217.451 -1.39643 1.0876 0
M  V30 2305 C 214.58 -2.51024 2.34184 0
M  V30 2306 C 213.666 -2.3422 3.53556 0
M  V30 2307 N 214.057 -1.87185 4.69889 0
M  V30 2308 C 212.355 -2.64949 3.58773 0
M  V30 2309 C 213.056 -1.83586 5.5197 0
M  V30 2310 N 212.032 -2.2715 4.93866 0
M  V30 2311 H 215.834 -0.806817 2.82609 0
M  V30 2312 H 213.348 -0.348208 1.58623 0
M  V30 2313 H 215.345 -3.26074 2.59772 0
M  V30 2314 H 214.005 -2.88945 1.48124 0
M  V30 2315 H 215.016 -1.57048 4.93514 0
M  V30 2316 H 211.693 -3.067 2.8327 0
M  V30 2317 H 213.083 -1.48655 6.55249 0
M  V30 2318 N 215.803 -1.52179 -0.40978 0
M  V30 2319 C 216.733 -1.78435 -1.5061 0
M  V30 2320 C 217.714 -0.635295 -1.57791 0
M  V30 2321 O 218.899 -0.880823 -1.73076 0
M  V30 2322 C 216.029 -1.93444 -2.88439 0
M  V30 2323 C 214.983 -3.09038 -2.96108 0
M  V30 2324 C 214.309 -3.09268 -4.36185 0
M  V30 2325 C 215.609 -4.48508 -2.67652 0
M  V30 2326 H 217.303 -2.70237 -1.28889 0
M  V30 2327 H 214.849 -1.30036 -0.618605 0
M  V30 2328 H 216.802 -2.10394 -3.65119 0
M  V30 2329 H 215.526 -0.983129 -3.11452 0
M  V30 2330 H 214.185 -2.91837 -2.21872 0
M  V30 2331 H 213.833 -2.11861 -4.56206 0
M  V30 2332 H 213.533 -3.86907 -4.42241 0
M  V30 2333 H 215.057 -3.28348 -5.14801 0
M  V30 2334 H 216.471 -4.65918 -3.34056 0
M  V30 2335 H 214.868 -5.28059 -2.85085 0
M  V30 2336 H 215.938 -4.56649 -1.63095 0
M  V30 2337 N 217.281 0.66697 -1.42791 0
M  V30 2338 C 218.529 1.42417 -1.43394 0
M  V30 2339 C 218.85 1.94925 -0.0542373 0
M  V30 2340 O 218.12 1.73564 0.908415 0
M  V30 2341 H 216.7 0.528515 -0.527902 0
M  V30 2342 H 219.362 0.787562 -1.78279 0
M  V30 2343 H 218.458 2.27333 -2.13837 0
M  V30 2344 N 218.759 1.29093 0.90403 0
M  V30 2345 C 219.689 1.16401 2.02418 0
M  V30 2346 C 220.67 0.0593085 1.69997 0
M  V30 2347 O 221.855 0.238021 1.92736 0
M  V30 2348 C 218.985 0.835233 3.37107 0
M  V30 2349 C 217.939 1.89578 3.83724 0
M  V30 2350 C 217.265 1.42041 5.15489 0
M  V30 2351 C 218.565 3.30394 4.04521 0
M  V30 2352 H 220.259 2.10109 2.13295 0
M  V30 2353 H 217.805 1.01157 1.02486 0
M  V30 2354 H 219.758 0.733169 4.14973 0
M  V30 2355 H 218.482 -0.137543 3.2631 0
M  V30 2356 H 217.141 1.98715 3.08071 0
M  V30 2357 H 216.789 0.436426 5.01103 0
M  V30 2358 H 216.489 2.12964 5.4765 0
M  V30 2359 H 218.013 1.33176 5.959 0
M  V30 2360 H 219.427 3.24123 4.72882 0
M  V30 2361 H 217.824 3.99237 4.48029 0
M  V30 2362 H 218.894 3.73692 3.09002 0
M  V30 2363 N 220.237 -1.11381 1.11499 0
M  V30 2364 C 221.648 -1.6465 0.880191 0
M  V30 2365 C 221.999 -1.87199 -0.587434 0
M  V30 2366 O 221.124 -1.60667 -1.44966 0
M  V30 2367 C 221.719 -2.99105 1.59128 0
M  V30 2368 C 220.278 -3.49279 1.40289 0
M  V30 2369 C 219.425 -2.24077 1.63354 0
M  V30 2370 H 222.376 -0.950123 1.27116 0
M  V30 2371 H 222.397 -3.66107 1.03664 0
M  V30 2372 H 221.909 -2.82661 2.65941 0
M  V30 2373 H 220.01 -3.70887 0.356888 0
M  V30 2374 H 220.123 -4.2803 2.15238 0
M  V30 2375 H 218.487 -2.31733 1.05698 0
M  V30 2376 H 219.27 -2.10175 2.71443 0
M  V30 2377 N 221.715 -0.905404 -1.28997 0
M  V30 2378 C 222.962 -0.534248 -1.95325 0
M  V30 2379 C 223.29 0.920535 -1.71337 0
M  V30 2380 O 222.545 1.66861 -1.02254 0
M  V30 2381 C 222.844 -0.779906 -3.48787 0
M  V30 2382 C 222.51 -2.21293 -3.92861 0
M  V30 2383 C 221.172 -2.60475 -4.04606 0
M  V30 2384 C 223.524 -3.14587 -4.15553 0
M  V30 2385 C 220.852 -3.9212 -4.36416 0
M  V30 2386 C 223.204 -4.45787 -4.48839 0
M  V30 2387 C 221.868 -4.84834 -4.58794 0
M  V30 2388 H 221.138 -0.195495 -0.714747 0
M  V30 2389 H 223.785 -1.14514 -1.53488 0
M  V30 2390 H 222.09 -0.0861365 -3.91705 0
M  V30 2391 H 223.787 -0.472029 -3.98212 0
M  V30 2392 H 220.377 -1.89887 -3.84241 0
M  V30 2393 H 224.561 -2.85528 -4.0594 0
M  V30 2394 H 219.817 -4.22086 -4.42327 0
M  V30 2395 H 223.991 -5.18098 -4.65346 0
M  V30 2396 H 221.618 -5.86877 -4.83197 0
M  V30 2397 N 223.193 1.4272 -0.668489 0
M  V30 2398 C 224.418 2.06484 -0.194758 0
M  V30 2399 C 224.843 1.49862 1.13679 0
M  V30 2400 O 224.201 0.614582 1.70565 0
M  V30 2401 C 224.249 3.60353 -0.133546 0
M  V30 2402 O 223.353 4.02464 0.899806 0
M  V30 2403 H 222.694 0.656137 -0.10188 0
M  V30 2404 H 225.224 1.82964 -0.915722 0
M  V30 2405 H 225.234 4.07976 0.0447041 0
M  V30 2406 H 223.909 4.00938 -1.1055 0
M  V30 2407 H 222.486 3.66402 0.693109 0
M  V30 2408 N 224.671 0.411399 1.52136 0
M  V30 2409 C 225.918 -0.163645 2.01838 0
M  V30 2410 C 226.246 -1.4495 1.29691 0
M  V30 2411 O 225.501 -1.91725 0.392431 0
M  V30 2412 C 225.8 -0.455872 3.54481 0
M  V30 2413 C 225.466 0.741055 4.44769 0
M  V30 2414 C 224.128 1.06936 4.69167 0
M  V30 2415 C 226.48 1.54075 4.97906 0
M  V30 2416 C 223.808 2.19851 5.43951 0
M  V30 2417 C 226.16 2.66067 5.73926 0
M  V30 2418 C 224.824 2.99381 5.96596 0
M  V30 2419 H 224.094 -0.0598821 0.738576 0
M  V30 2420 H 226.741 0.553283 1.83333 0
M  V30 2421 H 225.046 -1.2544 3.71177 0
M  V30 2422 H 226.743 -0.913802 3.90449 0
M  V30 2423 H 223.333 0.475192 4.25958 0
M  V30 2424 H 227.517 1.30033 4.78963 0
M  V30 2425 H 222.773 2.46006 5.59724 0
M  V30 2426 H 226.947 3.28419 6.14096 0
M  V30 2427 H 224.574 3.86992 6.54325 0
M  V30 2428 N 226.149 -1.5696 0.141893 0
M  V30 2429 C 227.079 -2.19516 -0.795936 0
M  V30 2430 C 228.06 -1.14187 -1.26077 0
M  V30 2431 O 229.245 -1.42511 -1.31925 0
M  V30 2432 C 226.375 -2.81272 -2.03723 0
M  V30 2433 C 225.329 -3.92384 -1.70936 0
M  V30 2434 C 224.655 -4.41052 -3.02287 0
M  V30 2435 C 225.955 -5.13403 -0.959954 0
M  V30 2436 H 227.649 -2.98138 -0.274596 0
M  V30 2437 H 225.195 -1.43406 -0.130636 0
M  V30 2438 H 227.148 -3.237 -2.69808 0
M  V30 2439 H 225.872 -1.99973 -2.58221 0
M  V30 2440 H 224.531 -3.50566 -1.07232 0
M  V30 2441 H 224.179 -3.56582 -3.54765 0
M  V30 2442 H 223.879 -5.15993 -2.81114 0
M  V30 2443 H 225.403 -4.86146 -3.69451 0
M  V30 2444 H 226.817 -5.52706 -1.52279 0
M  V30 2445 H 225.214 -5.94073 -0.848357 0
M  V30 2446 H 226.284 -4.84875 0.0492434 0
M  V30 2447 N 227.627 0.131896 -1.57047 0
M  V30 2448 C 228.855 0.856461 -1.88341 0
M  V30 2449 C 229.27 1.74042 -0.731757 0
M  V30 2450 O 228.627 1.80051 0.297945 0
M  V30 2451 C 228.678 1.70064 -3.18999 0
M  V30 2452 O 228.399 0.852278 -4.2973 0
M  V30 2453 C 229.9 2.53148 -3.63911 0
M  V30 2454 H 227.12 0.246885 -0.62393 0
M  V30 2455 H 229.664 0.120152 -2.04147 0
M  V30 2456 H 227.819 2.38984 -3.04902 0
M  V30 2457 H 228.233 1.43329 -5.04537 0
M  V30 2458 H 229.707 3.07931 -4.58129 0
M  V30 2459 H 230.184 3.29901 -2.89935 0
M  V30 2460 H 230.79 1.89492 -3.80753 0
M  V30 2461 N 229.106 1.52395 0.401703 0
M  V30 2462 C 230.353 1.66817 1.14796 0
M  V30 2463 C 230.681 0.401772 1.90305 0
M  V30 2464 O 229.936 -0.615487 1.85769 0
M  V30 2465 C 230.235 2.84578 2.16217 0
M  V30 2466 C 229.901 4.22513 1.5746 0
M  V30 2467 C 228.563 4.60029 1.41161 0
M  V30 2468 C 230.915 5.0844 1.14622 0
M  V30 2469 C 228.243 5.81144 0.80552 0
M  V30 2470 C 230.595 6.30167 0.55428 0
M  V30 2471 C 229.259 6.66426 0.378482 0
M  V30 2472 H 228.529 0.610428 0.420069 0
M  V30 2473 H 231.176 1.86512 0.434212 0
M  V30 2474 H 229.481 2.59248 2.93764 0
M  V30 2475 H 231.178 2.92933 2.73845 0
M  V30 2476 H 227.768 3.92953 1.71132 0
M  V30 2477 H 231.952 4.80034 1.26021 0
M  V30 2478 H 227.208 6.07855 0.657399 0
M  V30 2479 H 231.382 6.96071 0.213983 0
M  V30 2480 H 229.009 7.60143 -0.0932606 0
M  V30 2481 N 230.584 -0.659388 1.43143 0
M  V30 2482 C 231.995 -1.24041 1.39537 0
M  V30 2483 C 232.346 -1.95963 0.0963364 0
M  V30 2484 O 231.471 -2.00892 -0.804438 0
M  V30 2485 C 232.066 -2.25601 2.52764 0
M  V30 2486 C 230.625 -2.79195 2.52443 0
M  V30 2487 C 229.772 -1.53743 2.30778 0
M  V30 2488 H 232.723 -0.451792 1.52133 0
M  V30 2489 H 232.744 -3.07651 2.23899 0
M  V30 2490 H 232.256 -1.73226 3.47296 0
M  V30 2491 H 230.357 -3.35649 1.61773 0
M  V30 2492 H 230.47 -3.2716 3.50004 0
M  V30 2493 H 228.834 -1.80869 1.79328 0
M  V30 2494 H 229.617 -1.03312 3.27386 0
M  V30 2495 N 232.062 -1.29571 -0.897171 0
M  V30 2496 C 233.292 -1.20408 -1.67886 0
M  V30 2497 C 233.7 0.237429 -1.87704 0
M  V30 2498 O 233.043 1.17048 -1.41582 0
M  V30 2499 C 233.105 -1.84887 -3.08314 0
M  V30 2500 C 232.769 -3.34189 -3.11716 0
M  V30 2501 C 233.766 -4.30374 -2.91675 0
M  V30 2502 C 231.451 -3.75431 -3.33701 0
M  V30 2503 C 233.445 -5.65776 -2.93557 0
M  V30 2504 C 231.132 -5.10955 -3.35214 0
M  V30 2505 C 232.13 -6.05938 -3.15164 0
M  V30 2506 O 231.818 -7.38987 -3.1647 0
M  V30 2507 H 231.55 -0.418289 -0.531046 0
M  V30 2508 H 234.104 -1.71514 -1.13014 0
M  V30 2509 H 232.334 -1.28295 -3.64798 0
M  V30 2510 H 234.023 -1.70011 -3.6858 0
M  V30 2511 H 234.789 -3.99844 -2.74499 0
M  V30 2512 H 230.668 -3.01953 -3.48347 0
M  V30 2513 H 234.212 -6.39889 -2.77826 0
M  V30 2514 H 230.109 -5.4113 -3.51922 0
M  V30 2515 H 230.877 -7.47823 -3.3272 0
M  V30 2516 N 233.54 1.10788 -1.12088 0
M  V30 2517 C 234.786 1.82942 -0.875226 0
M  V30 2518 C 235.119 1.84779 0.597538 0
M  V30 2519 O 234.394 1.30578 1.44152 0
M  V30 2520 C 234.677 3.29789 -1.44606 0
M  V30 2521 C 234.53 3.36307 -2.98693 0
M  V30 2522 C 235.849 4.26064 -1.10261 0
M  V30 2523 H 232.968 0.664195 -0.319397 0
M  V30 2524 H 235.61 1.29867 -1.38689 0
M  V30 2525 H 233.76 3.75118 -1.01089 0
M  V30 2526 H 235.432 2.99487 -3.50864 0
M  V30 2527 H 233.675 2.76318 -3.34411 0
M  V30 2528 H 234.346 4.39694 -3.33726 0
M  V30 2529 H 236.822 3.88951 -1.4784 0
M  V30 2530 H 235.698 5.27183 -1.52869 0
M  V30 2531 H 235.959 4.42098 -0.0142953 0
M  V30 2532 N 235.018 0.912232 1.28515 0
M  V30 2533 C 235.928 0.404506 2.31086 0
M  V30 2534 C 236.944 -0.50707 1.66448 0
M  V30 2535 O 238.12 -0.393624 1.97516 0
M  V30 2536 C 235.185 -0.348572 3.44943 0
M  V30 2537 C 234.246 0.59604 4.25142 0
M  V30 2538 C 233.479 -0.121194 5.33562 0
M  V30 2539 O 233.702 -1.34317 5.5436 0
M  V30 2540 O 232.636 0.542716 5.99448 0
M  V30 2541 H 236.462 1.25579 2.76521 0
M  V30 2542 H 234.047 0.676998 1.33181 0
M  V30 2543 H 235.929 -0.77395 4.14232 0
M  V30 2544 H 234.604 -1.17571 3.01594 0
M  V30 2545 H 233.511 1.07079 3.58448 0
M  V30 2546 H 234.844 1.38995 4.72167 0
M  V30 2547 N 236.496 -1.42363 0.676048 0
M  V30 2548 C 237.406 -2.346 -0.00153389 0
M  V30 2549 C 238.422 -1.5516 -0.787485 0
M  V30 2550 O 239.598 -1.87723 -0.729521 0
M  V30 2551 C 236.663 -3.33705 -0.940298 0
M  V30 2552 C 235.724 -4.29042 -0.148739 0
M  V30 2553 C 234.957 -5.23413 -1.04279 0
M  V30 2554 O 235.18 -5.22749 -2.28232 0
M  V30 2555 O 234.114 -5.99795 -0.502925 0
M  V30 2556 H 237.94 -2.94082 0.758268 0
M  V30 2557 H 235.525 -1.42888 0.436289 0
M  V30 2558 H 237.407 -3.94586 -1.47917 0
M  V30 2559 H 236.082 -2.76695 -1.67993 0
M  V30 2560 H 234.989 -3.71571 0.43427 0
M  V30 2561 H 236.322 -4.89097 0.551805 0
M  V30 2562 N 237.974 -0.419461 -1.51915 0
M  V30 2563 C 238.937 0.389116 -2.25873 0
M  V30 2564 C 239.937 0.964924 -1.28631 0
M  V30 2565 O 241.127 0.842179 -1.52489 0
M  V30 2566 C 238.259 1.54874 -3.03689 0
M  V30 2567 H 239.452 -0.258799 -2.98781 0
M  V30 2568 H 237.005 -0.172209 -1.55348 0
M  V30 2569 H 237.74 2.23323 -2.35154 0
M  V30 2570 H 237.525 1.14223 -3.75094 0
M  V30 2571 H 239.015 2.12046 -3.59759 0
M  V30 2572 N 239.452 1.56882 -0.150215 0
M  V30 2573 C 240.701 1.95403 0.500071 0
M  V30 2574 C 241.014 1.03777 1.658 0
M  V30 2575 O 242.22 1.31889 2.37313 0
M  V30 2576 C 240.676 3.4738 0.941018 0
M  V30 2577 C 240.284 4.47596 -0.190158 0
M  V30 2578 C 242.028 3.9476 1.56091 0
M  V30 2579 C 239.935 5.90787 0.269237 0
M  V30 2580 H 238.865 0.729515 0.190588 0
M  V30 2581 H 241.516 1.81988 -0.235074 0
M  V30 2582 H 239.898 3.56138 1.73152 0
M  V30 2583 H 241.072 4.50536 -0.967157 0
M  V30 2584 H 239.387 4.10151 -0.718666 0
M  V30 2585 H 241.984 4.99181 1.9163 0
M  V30 2586 H 242.327 3.36494 2.45107 0
M  V30 2587 H 242.86 3.88932 0.835249 0
M  V30 2588 H 239.599 6.52879 -0.585621 0
M  V30 2589 H 239.119 5.912 1.01204 0
M  V30 2590 H 240.798 6.42979 0.720176 0
M  V30 2591 N 240.93 -0.123565 1.57115 0
M  V30 2592 C 241.877 -1.15177 2.00007 0
M  V30 2593 C 242.847 -1.41403 0.871454 0
M  V30 2594 O 244.032 -1.53346 1.13533 0
M  V30 2595 C 241.172 -2.47436 2.40561 0
M  V30 2596 C 240.285 -2.28184 3.66819 0
M  V30 2597 C 239.42 -3.53641 3.96373 0
M  V30 2598 C 238.459 -3.29528 5.15827 0
M  V30 2599 N 237.596 -4.47175 5.41275 0
M  V30 2600 H 242.436 -0.779008 2.87638 0
M  V30 2601 H 239.973 -0.373166 1.42288 0
M  V30 2602 H 241.931 -3.24584 2.62109 0
M  V30 2603 H 240.561 -2.82614 1.55978 0
M  V30 2604 H 239.613 -1.41976 3.52912 0
M  V30 2605 H 240.925 -2.0634 4.5412 0
M  V30 2606 H 240.079 -4.39209 4.18545 0
M  V30 2607 H 238.818 -3.78512 3.07538 0
M  V30 2608 H 237.823 -2.42349 4.93505 0
M  V30 2609 H 239.048 -3.06031 6.06236 0
M  V30 2610 H 236.994 -4.72175 4.55397 0
M  V30 2611 H 236.911 -4.28419 6.22891 0
M  V30 2612 H 238.179 -5.3389 5.67963 0
M  V30 2613 N 242.408 -1.52605 -0.393616 0
M  V30 2614 C 243.657 -1.66649 -1.13627 0
M  V30 2615 C 243.97 -0.410364 -1.91247 0
M  V30 2616 O 245.176 -0.430854 -2.68059 0
M  V30 2617 C 243.632 -2.9449 -2.06891 0
M  V30 2618 C 243.24 -4.27266 -1.34714 0
M  V30 2619 C 244.984 -3.17899 -2.81319 0
M  V30 2620 C 242.891 -5.46217 -2.26717 0
M  V30 2621 H 241.821 -0.62084 -0.427871 0
M  V30 2622 H 244.472 -1.791 -0.399428 0
M  V30 2623 H 242.854 -2.75774 -2.84191 0
M  V30 2624 H 244.028 -4.56518 -0.626714 0
M  V30 2625 H 242.343 -4.10081 -0.722643 0
M  V30 2626 H 244.94 -4.03949 -3.50328 0
M  V30 2627 H 245.283 -2.32777 -3.45139 0
M  V30 2628 H 245.816 -3.37159 -2.11113 0
M  V30 2629 H 242.555 -6.33733 -1.67521 0
M  V30 2630 H 242.075 -5.21283 -2.96689 0
M  V30 2631 H 243.754 -5.7991 -2.86903 0
M  V30 2632 N 243.887 0.651787 -1.4349 0
M  V30 2633 C 244.85 1.74647 -1.48429 0
M  V30 2634 C 245.85 1.56513 -0.368817 0
M  V30 2635 O 247.04 1.62385 -0.630623 0
M  V30 2636 C 244.172 3.13533 -1.33827 0
M  V30 2637 H 245.365 1.71649 -2.4592 0
M  V30 2638 H 242.918 0.863573 -1.30277 0
M  V30 2639 H 243.653 3.22142 -0.37349 0
M  V30 2640 H 243.438 3.28101 -2.14691 0
M  V30 2641 H 244.928 3.93356 -1.40218 0
M  V30 2642 N 245.365 1.30045 0.890287 0
M  V30 2643 C 246.595 1.21296 1.67245 0
M  V30 2644 C 247.003 -0.227471 1.87828 0
M  V30 2645 O 246.346 -1.16296 1.422 0
M  V30 2646 C 246.408 1.86519 3.07329 0
M  V30 2647 C 246.072 3.35837 3.09939 0
M  V30 2648 C 247.069 4.31915 2.89389 0
M  V30 2649 C 244.754 3.77196 3.31706 0
M  V30 2650 C 246.748 5.67325 2.90552 0
M  V30 2651 C 244.435 5.12725 3.32499 0
M  V30 2652 C 245.433 6.076 3.11947 0
M  V30 2653 O 245.121 7.40655 3.12547 0
M  V30 2654 H 244.853 0.4211 0.528821 0
M  V30 2655 H 247.407 1.72111 1.12103 0
M  V30 2656 H 245.637 1.30228 3.64112 0
M  V30 2657 H 247.326 1.71963 3.67673 0
M  V30 2658 H 248.092 4.01294 2.72375 0
M  V30 2659 H 243.971 3.03796 3.4674 0
M  V30 2660 H 247.515 6.41354 2.74429 0
M  V30 2661 H 243.412 5.42988 3.49047 0
M  V30 2662 H 244.18 7.49577 3.28749 0
M  V30 2663 N 246.843 -1.10192 1.12674 0
M  V30 2664 C 248.083 -1.83825 0.893736 0
M  V30 2665 C 248.447 -1.83341 -0.570082 0
M  V30 2666 O 249.648 -2.52553 -0.920354 0
M  V30 2667 C 247.919 -3.26405 1.45582 0
M  V30 2668 S 249.478 -4.17136 1.36171 0
M  V30 2669 H 246.296 -0.633732 0.322342 0
M  V30 2670 H 248.898 -1.32581 1.43675 0
M  V30 2671 H 247.602 -3.24329 2.51473 0
M  V30 2672 H 247.133 -3.82721 0.910405 0
M  V30 2673 H 249.148 -4.95069 0.334863 0
M  V30 2674 N 248.321 -0.919034 -1.28029 0
M  V30 2675 C 249.231 -0.416756 -2.30869 0
M  V30 2676 C 250.247 0.498235 -1.66714 0
M  V30 2677 O 251.423 0.383144 -1.97722 0
M  V30 2678 C 248.488 0.330274 -3.45123 0
M  V30 2679 C 247.549 -0.618578 -4.2482 0
M  V30 2680 C 246.782 0.0928959 -5.33619 0
M  V30 2681 O 247.005 1.31375 -5.55065 0
M  V30 2682 O 245.939 -0.574499 -5.99152 0
M  V30 2683 H 249.765 -1.27043 -2.75851 0
M  V30 2684 H 247.35 -0.684052 -1.3282 0
M  V30 2685 H 249.232 0.751972 -4.14636 0
M  V30 2686 H 247.907 1.1597 -3.02213 0
M  V30 2687 H 246.814 -1.08978 -3.57875 0
M  V30 2688 H 248.147 -1.41497 -4.71423 0
M  V30 2689 N 249.799 1.42003 -0.683588 0
M  V30 2690 C 250.746 2.30798 -0.0107309 0
M  V30 2691 C 251.716 1.4645 0.783688 0
M  V30 2692 O 252.901 1.75263 0.754156 0
M  V30 2693 C 250.041 3.3238 0.928306 0
M  V30 2694 C 249.154 4.31814 0.126776 0
M  V30 2695 C 248.289 5.20468 1.06236 0
M  V30 2696 C 247.328 6.11577 0.253035 0
M  V30 2697 N 246.465 6.92754 1.14179 0
M  V30 2698 H 251.305 2.8778 -0.773727 0
M  V30 2699 H 248.842 1.41745 -0.393283 0
M  V30 2700 H 250.8 3.89813 1.48666 0
M  V30 2701 H 249.43 2.76976 1.65783 0
M  V30 2702 H 248.482 3.76427 -0.54833 0
M  V30 2703 H 249.794 4.96276 -0.501192 0
M  V30 2704 H 248.948 5.82677 1.69035 0
M  V30 2705 H 247.687 4.56204 1.7242 0
M  V30 2706 H 246.692 5.48428 -0.388108 0
M  V30 2707 H 247.917 6.77892 -0.404839 0
M  V30 2708 H 245.863 6.3111 1.78987 0
M  V30 2709 H 245.78 7.53855 0.569111 0
M  V30 2710 H 247.048 7.59441 1.75697 0
M  V30 2711 N 251.277 0.427512 1.51691 0
M  V30 2712 C 252.224 -0.388867 2.275 0
M  V30 2713 C 253.194 -1.02532 1.30677 0
M  V30 2714 O 254.379 -1.0461 1.59566 0
M  V30 2715 C 251.519 -1.48954 3.11298 0
M  V30 2716 C 250.632 -0.872194 4.23104 0
M  V30 2717 C 249.767 -1.94709 4.94228 0
M  V30 2718 C 248.806 -1.30766 5.97969 0
M  V30 2719 N 247.943 -2.32349 6.62539 0
M  V30 2720 H 252.783 0.263997 2.96828 0
M  V30 2721 H 250.32 0.142033 1.46413 0
M  V30 2722 H 252.278 -2.13887 3.58201 0
M  V30 2723 H 250.908 -2.11217 2.44105 0
M  V30 2724 H 249.96 -0.111419 3.80237 0
M  V30 2725 H 251.272 -0.365264 4.97461 0
M  V30 2726 H 250.426 -2.67327 5.44629 0
M  V30 2727 H 249.165 -2.48773 4.1948 0
M  V30 2728 H 248.17 -0.566902 5.4687 0
M  V30 2729 H 249.395 -0.774483 6.74669 0
M  V30 2730 H 247.341 -2.85511 5.90609 0
M  V30 2731 H 247.258 -1.8652 7.3263 0
M  V30 2732 H 248.526 -3.04481 7.17574 0
M  V30 2733 N 252.755 -1.56801 0.158532 0
M  V30 2734 C 253.995 -1.98383 -0.49229 0
M  V30 2735 C 254.359 -1.04184 -1.61275 0
M  V30 2736 O 255.56 -1.34856 -2.32524 0
M  V30 2737 C 253.831 -3.4385 -0.974766 0
M  V30 2738 S 255.39 -4.07459 -1.62857 0
M  V30 2739 H 252.208 -0.693041 -0.158794 0
M  V30 2740 H 254.81 -1.93856 0.252974 0
M  V30 2741 H 253.514 -4.10131 -0.148688 0
M  V30 2742 H 253.045 -3.52115 -1.75438 0
M  V30 2743 H 255.06 -4.01458 -2.91627 0
M  V30 2744 N 254.233 0.115231 -1.57178 0
M  V30 2745 C 255.481 0.820727 -1.84685 0
M  V30 2746 C 255.802 1.80237 -0.744279 0
M  V30 2747 O 255.072 1.94529 0.231375 0
M  V30 2748 H 253.652 0.306084 -0.681411 0
M  V30 2749 H 256.314 0.101656 -1.94635 0
M  V30 2750 H 255.41 1.36366 -2.80733 0
M  V30 2751 N 255.711 1.52812 0.385517 0
M  V30 2752 C 256.659 1.78482 1.49155 0
M  V30 2753 C 257.653 0.652914 1.56312 0
M  V30 2754 O 258.859 0.835464 1.59436 0
M  V30 2755 H 255.234 0.5648 0.496493 0
M  V30 2756 H 257.205 2.71095 1.24699 0
M  V30 2757 C 255.954 1.97378 2.86247 0
M  V30 2758 H 255.277 2.83907 2.81491 0
M  V30 2759 H 256.717 2.19327 3.62866 0
M  V30 2760 C 255.176 0.74728 3.28508 0
M  V30 2761 O 255.706 -0.0736232 4.01633 0
M  V30 2762 N 253.912 0.576396 2.84826 0
M  V30 2763 H 253.459 1.24555 2.25486 0
M  V30 2764 H 253.417 -0.24288 3.1346 0
M  V30 2765 N 257.189 -0.644168 1.43834 0
M  V30 2766 C 258.429 -1.41565 1.47441 0
M  V30 2767 C 258.793 -1.91743 0.0992723 0
M  V30 2768 O 259.994 -2.68798 0.0100192 0
M  V30 2769 C 258.265 -2.55902 2.49498 0
M  V30 2770 S 259.824 -3.44287 2.72051 0
M  V30 2771 H 256.642 -0.483118 0.521649 0
M  V30 2772 H 259.244 -0.747008 1.80666 0
M  V30 2773 H 257.948 -2.17327 3.48134 0
M  V30 2774 H 257.479 -3.27607 2.17801 0
M  V30 2775 H 259.494 -4.52927 2.0266 0
M  V30 2776 N 258.668 -1.30515 -0.883378 0
M  V30 2777 C 259.893 -1.22487 -1.67367 0
M  V30 2778 C 260.318 0.208767 -1.86938 0
M  V30 2779 O 259.676 1.15015 -1.40148 0
M  V30 2780 C 259.724 -1.96041 -3.02655 0
M  V30 2781 O 258.828 -1.28859 -3.91751 0
M  V30 2782 H 258.169 -0.423573 -0.511353 0
M  V30 2783 H 260.699 -1.72362 -1.10239 0
M  V30 2784 H 260.709 -2.05124 -3.52687 0
M  V30 2785 H 259.384 -3.00307 -2.8773 0
M  V30 2786 H 257.961 -1.28141 -3.50192 0
M  V30 2787 N 260.146 1.09593 -1.13257 0
M  V30 2788 C 261.076 2.18214 -0.830946 0
M  V30 2789 C 262.057 1.68812 0.208966 0
M  V30 2790 O 263.242 1.9408 0.0682666 0
M  V30 2791 C 260.372 3.46051 -0.294296 0
M  V30 2792 C 259.326 4.08778 -1.26826 0
M  V30 2793 C 258.652 5.31419 -0.591449 0
M  V30 2794 C 259.952 4.51476 -2.62615 0
M  V30 2795 H 261.646 2.43703 -1.73923 0
M  V30 2796 H 259.192 1.17128 -0.837675 0
M  V30 2797 H 261.145 4.2134 -0.0709606 0
M  V30 2798 H 259.869 3.20079 0.649366 0
M  V30 2799 H 258.528 3.35505 -1.47756 0
M  V30 2800 H 258.176 5.01727 0.357633 0
M  V30 2801 H 257.876 5.74341 -1.24123 0
M  V30 2802 H 259.4 6.09433 -0.377355 0
M  V30 2803 H 260.814 5.17999 -2.45663 0
M  V30 2804 H 259.211 5.05277 -3.23752 0
M  V30 2805 H 260.281 3.63962 -3.20406 0
M  V30 2806 N 261.624 0.925811 1.2754 0
M  V30 2807 C 262.852 0.581509 1.9856 0
M  V30 2808 C 263.267 -0.840041 1.69082 0
M  V30 2809 O 262.624 -1.55805 0.950312 0
M  V30 2810 C 262.675 0.795589 3.52637 0
M  V30 2811 O 262.396 2.16121 3.81082 0
M  V30 2812 C 263.897 0.459744 4.4091 0
M  V30 2813 H 261.117 0.220538 0.633722 0
M  V30 2814 H 263.661 1.24232 1.6244 0
M  V30 2815 H 261.816 0.18161 3.86974 0
M  V30 2816 H 262.23 2.2098 4.75676 0
M  V30 2817 H 263.704 0.660244 5.48037 0
M  V30 2818 H 264.181 -0.604625 4.35018 0
M  V30 2819 H 264.787 1.05178 4.12089 0
M  V30 2820 N 263.102 -1.41638 0.69111 0
M  V30 2821 C 264.33 -2.05628 0.22909 0
M  V30 2822 C 264.745 -1.51992 -1.11999 0
M  V30 2823 O 264.102 -0.666322 -1.69901 0
M  V30 2824 C 264.153 -3.61084 0.173283 0
M  V30 2825 O 263.874 -4.12735 1.46907 0
M  V30 2826 C 265.375 -4.42213 -0.310266 0
M  V30 2827 H 262.595 -0.662327 0.107534 0
M  V30 2828 H 265.139 -1.81489 0.942438 0
M  V30 2829 H 263.294 -3.84278 -0.490858 0
M  V30 2830 H 263.708 -5.06743 1.35322 0
M  V30 2831 H 265.182 -5.51194 -0.298196 0
M  V30 2832 H 265.659 -4.1799 -1.34838 0
M  V30 2833 H 266.265 -4.24074 0.322716 0
M  V30 2834 N 264.58 -0.43555 -1.51462 0
M  V30 2835 C 265.51 0.367376 -2.30592 0
M  V30 2836 C 266.491 1.02263 -1.35928 0
M  V30 2837 O 267.676 1.02661 -1.64847 0
M  V30 2838 C 264.806 1.46983 -3.14664 0
M  V30 2839 C 263.76 0.938161 -4.17591 0
M  V30 2840 C 263.086 2.13622 -4.90173 0
M  V30 2841 C 264.386 -0.0261621 -5.22293 0
M  V30 2842 H 266.08 -0.292969 -2.97963 0
M  V30 2843 H 263.626 -0.14234 -1.43295 0
M  V30 2844 H 265.579 2.03873 -3.688 0
M  V30 2845 H 264.303 2.15843 -2.4511 0
M  V30 2846 H 262.962 0.391481 -3.64504 0
M  V30 2847 H 262.61 2.81098 -4.17124 0
M  V30 2848 H 262.31 1.78688 -5.59772 0
M  V30 2849 H 263.834 2.7107 -5.47132 0
M  V30 2850 H 265.248 0.452384 -5.71512 0
M  V30 2851 H 263.645 -0.287992 -5.99409 0
M  V30 2852 H 264.715 -0.963391 -4.75233 0
M  V30 2853 N 266.058 1.56714 -0.166846 0
M  V30 2854 C 267.005 2.17746 0.765193 0
M  V30 2855 C 267.975 1.11614 1.23011 0
M  V30 2856 O 269.16 1.39745 1.29908 0
M  V30 2857 C 266.3 2.81882 1.9909 0
M  V30 2858 C 265.413 4.02462 1.56997 0
M  V30 2859 C 264.548 4.54537 2.749 0
M  V30 2860 C 263.587 5.67538 2.29275 0
M  V30 2861 N 262.724 6.14142 3.40255 0
M  V30 2862 H 267.564 2.97048 0.237952 0
M  V30 2863 H 265.101 1.4672 0.105725 0
M  V30 2864 H 267.059 3.17221 2.70974 0
M  V30 2865 H 265.689 2.05191 2.49192 0
M  V30 2866 H 264.741 3.72973 0.748037 0
M  V30 2867 H 266.053 4.84273 1.19503 0
M  V30 2868 H 265.207 4.92035 3.54946 0
M  V30 2869 H 263.946 3.71774 3.1565 0
M  V30 2870 H 262.951 5.29597 1.47674 0
M  V30 2871 H 264.176 6.52099 1.89588 0
M  V30 2872 H 262.122 5.3431 3.8059 0
M  V30 2873 H 262.039 6.9093 3.06841 0
M  V30 2874 H 263.307 6.56289 4.206 0
M  V30 2875 N 267.536 -0.106894 1.57237 0
M  V30 2876 C 268.813 -0.843526 1.76477 0
M  V30 2877 C 269.193 -1.97499 0.745464 0
M  V30 2878 O 268.541 -2.27357 -0.228306 0
M  V30 2879 C 268.751 -1.34903 3.21873 0
M  V30 2880 C 270.099 -1.79654 3.8472 0
M  V30 2881 O 271.123 -1.44554 3.2555 0
M  V30 2882 O 269.982 -2.44515 4.88748 0
M  V30 2883 H 267.076 -0.401468 0.723016 0
M  V30 2884 H 269.622 -0.0896927 1.69463 0
M  V30 2885 H 268.394 -0.53781 3.87586 0
M  V30 2886 H 268.017 -2.16522 3.33473 0
M  V30 2887 N 269.014 -1.53014 -0.377408 0
M  V30 2888 C 269.924 -1.81557 -1.48574 0
M  V30 2889 C 270.94 -0.703102 -1.59162 0
M  V30 2890 O 272.116 -0.99192 -1.75279 0
M  V30 2891 C 269.181 -1.9889 -2.83978 0
M  V30 2892 C 268.242 -3.22801 -2.83016 0
M  V30 2893 C 267.475 -3.39298 -4.11962 0
M  V30 2894 O 267.698 -2.60345 -5.0752 0
M  V30 2895 O 266.632 -4.32604 -4.18494 0
M  V30 2896 H 270.458 -2.75695 -1.27382 0
M  V30 2897 H 268.043 -1.38248 -0.566373 0
M  V30 2898 H 269.925 -2.11931 -3.6423 0
M  V30 2899 H 268.6 -1.07942 -3.05172 0
M  V30 2900 H 267.507 -3.15193 -2.01505 0
M  V30 2901 H 268.84 -4.13632 -2.66775 0
M  V30 2902 N 270.492 0.636531 -1.44174 0
M  V30 2903 C 271.769 1.39463 -1.37148 0
M  V30 2904 C 272.149 2.11082 -0.027507 0
M  V30 2905 O 271.497 2.05954 0.989716 0
M  V30 2906 C 271.707 2.36552 -2.56601 0
M  V30 2907 C 273.055 3.00048 -3.00427 0
M  V30 2908 O 274.079 2.46878 -2.56767 0
M  V30 2909 O 272.938 3.96488 -3.76111 0
M  V30 2910 H 270.032 0.623903 -0.542839 0
M  V30 2911 H 272.578 0.662039 -1.56253 0
M  V30 2912 H 271.35 1.82692 -3.46034 0
M  V30 2913 H 270.973 3.17236 -2.39681 0
M  V30 2914 N 271.97 1.30982 0.876444 0
M  V30 2915 C 273.217 1.20296 1.62896 0
M  V30 2916 C 273.545 -0.240395 1.93009 0
M  V30 2917 O 272.8 -1.18733 1.55567 0
M  V30 2918 C 273.099 1.98572 2.9716 0
M  V30 2919 C 272.765 3.48125 2.86566 0
M  V30 2920 C 271.427 3.88905 2.83383 0
M  V30 2921 C 273.779 4.43322 2.74071 0
M  V30 2922 C 271.107 5.2316 2.65556 0
M  V30 2923 C 273.459 5.77695 2.57781 0
M  V30 2924 C 272.123 6.17704 2.52979 0
M  V30 2925 H 271.393 0.440193 0.59608 0
M  V30 2926 H 274.04 1.62177 1.01837 0
M  V30 2927 H 272.345 1.49352 3.62217 0
M  V30 2928 H 274.042 1.8769 3.54364 0
M  V30 2929 H 270.632 3.15723 2.89856 0
M  V30 2930 H 274.816 4.12752 2.75589 0
M  V30 2931 H 270.072 5.53241 2.60259 0
M  V30 2932 H 274.246 6.51091 2.47089 0
M  V30 2933 H 271.873 7.21678 2.38924 0
M  V30 2934 N 273.449 -1.08991 1.13837 0
M  V30 2935 C 274.689 -1.82867 0.913183 0
M  V30 2936 C 275.053 -1.83936 -0.550604 0
M  V30 2937 O 276.254 -2.53515 -0.893515 0
M  V30 2938 C 274.525 -3.24843 1.49036 0
M  V30 2939 S 276.084 -4.15669 1.40588 0
M  V30 2940 H 272.902 -0.630278 0.329046 0
M  V30 2941 H 275.504 -1.31049 1.45073 0
M  V30 2942 H 274.208 -3.21644 2.54899 0
M  V30 2943 H 273.739 -3.81734 0.950947 0
M  V30 2944 H 275.754 -4.94686 0.387353 0
M  V30 2945 N 274.927 -0.932562 -1.27047 0
M  V30 2946 C 275.874 -0.434072 -2.26681 0
M  V30 2947 C 276.844 0.501639 -1.58344 0
M  V30 2948 O 278.029 0.419734 -1.86126 0
M  V30 2949 C 275.169 0.30261 -3.43771 0
M  V30 2950 C 274.282 -0.667774 -4.26808 0
M  V30 2951 C 273.417 0.0892393 -5.31125 0
M  V30 2952 C 272.456 -0.873532 -6.05835 0
M  V30 2953 N 271.593 -0.148832 -7.01942 0
M  V30 2954 H 276.433 -1.28868 -2.68695 0
M  V30 2955 H 273.97 -0.646713 -1.32121 0
M  V30 2956 H 275.928 0.746092 -4.10474 0
M  V30 2957 H 274.558 1.12142 -3.02695 0
M  V30 2958 H 273.61 -1.22978 -3.59973 0
M  V30 2959 H 274.922 -1.40337 -4.78651 0
M  V30 2960 H 274.076 0.592409 -6.03801 0
M  V30 2961 H 272.815 0.85777 -4.80097 0
M  V30 2962 H 271.82 -1.38791 -5.31994 0
M  V30 2963 H 273.045 -1.64193 -6.58952 0
M  V30 2964 H 270.991 0.601365 -6.53238 0
M  V30 2965 H 270.908 -0.82391 -7.51497 0
M  V30 2966 H 272.176 0.333527 -7.78786 0
M  V30 2967 N 276.405 1.4127 -0.698611 0
M  V30 2968 C 277.821 1.55241 -0.370462 0
M  V30 2969 C 278.021 1.67351 1.12231 0
M  V30 2970 O 277.077 1.65363 1.90818 0
M  V30 2971 C 278.39 2.78997 -1.12165 0
M  V30 2972 C 279.938 2.92797 -1.1063 0
M  V30 2973 C 280.413 4.19445 -1.8393 0
M  V30 2974 N 281.904 4.26409 -1.80914 0
M  V30 2975 C 282.639 5.23271 -2.34467 0
M  V30 2976 N 282.135 6.26145 -2.96504 0
M  V30 2977 N 283.928 5.15232 -2.24706 0
M  V30 2978 H 276.079 1.31654 -1.66676 0
M  V30 2979 H 278.342 0.635393 -0.703548 0
M  V30 2980 H 278.048 2.76268 -2.17644 0
M  V30 2981 H 277.922 3.70606 -0.702209 0
M  V30 2982 H 280.309 2.95039 -0.0597713 0
M  V30 2983 H 280.39 2.02353 -1.56483 0
M  V30 2984 H 280.034 4.17964 -2.88563 0
M  V30 2985 H 279.964 5.08866 -1.35509 0
M  V30 2986 H 282.455 3.527 -1.35687 0
M  V30 2987 H 282.768 6.96451 -3.34927 0
M  V30 2988 H 281.113 6.26638 -3.00583 0
M  V30 2989 H 284.304 4.33789 -1.7591 0
M  V30 2990 H 284.477 5.90552 -2.66745 0
M  V30 2991 N 277.883 0.443576 1.51229 0
M  V30 2992 C 279.129 -0.120975 2.02439 0
M  V30 2993 C 279.462 -1.41815 1.32674 0
M  V30 2994 O 278.737 -1.89373 0.443622 0
M  V30 2995 C 279.02 -0.333291 3.58554 0
M  V30 2996 C 278.873 0.982968 4.38928 0
M  V30 2997 C 280.192 -1.10028 4.26124 0
M  V30 2998 H 277.311 -0.0424923 0.735774 0
M  V30 2999 H 279.953 0.583794 1.80809 0
M  V30 3000 H 278.103 -0.933614 3.77115 0
M  V30 3001 H 279.775 1.61775 4.32003 0
M  V30 3002 H 278.018 1.58611 4.03763 0
M  V30 3003 H 278.689 0.788379 5.46341 0
M  V30 3004 H 281.165 -0.591711 4.11871 0
M  V30 3005 H 280.041 -1.21761 5.35225 0
M  V30 3006 H 280.302 -2.12996 3.87408 0
M  V30 3007 N 279.361 -1.56624 0.175154 0
M  V30 3008 C 280.586 -2.01813 -0.478137 0
M  V30 3009 C 281.011 -1.05457 -1.55757 0
M  V30 3010 O 280.369 -0.0347439 -1.81267 0
M  V30 3011 C 280.417 -3.45581 -1.02987 0
M  V30 3012 O 279.521 -3.52305 -2.14371 0
M  V30 3013 H 278.862 -0.65413 -0.114059 0
M  V30 3014 H 281.392 -2.02673 0.280173 0
M  V30 3015 H 281.402 -3.84965 -1.35151 0
M  V30 3016 H 280.077 -4.1521 -0.239556 0
M  V30 3017 H 278.654 -3.24783 -1.83222 0
M  V30 3018 N 280.839 0.0985539 -1.57292 0
M  V30 3019 C 281.769 1.12064 -2.04851 0
M  V30 3020 C 282.75 1.41981 -0.936767 0
M  V30 3021 O 283.935 1.52071 -1.20781 0
M  V30 3022 C 281.065 2.44144 -2.47004 0
M  V30 3023 C 280.019 2.28643 -3.6181 0
M  V30 3024 C 279.345 3.65869 -3.89929 0
M  V30 3025 C 280.645 1.72986 -4.92822 0
M  V30 3026 H 282.339 0.724979 -2.9049 0
M  V30 3027 H 279.885 0.34729 -1.39749 0
M  V30 3028 H 281.838 3.15914 -2.78884 0
M  V30 3029 H 280.562 2.85639 -1.5836 0
M  V30 3030 H 279.221 1.59318 -3.30172 0
M  V30 3031 H 278.869 4.04885 -2.98458 0
M  V30 3032 H 278.569 3.56344 -4.67218 0
M  V30 3033 H 280.093 4.39112 -4.2428 0
M  V30 3034 H 281.507 2.34593 -5.23105 0
M  V30 3035 H 279.904 1.74229 -5.74251 0
M  V30 3036 H 280.974 0.689007 -4.7998 0
M  V30 3037 N 282.317 1.53212 0.369288 0
M  V30 3038 C 283.28 1.7872 1.43498 0
M  V30 3039 C 284.28 0.657554 1.46741 0
M  V30 3040 O 285.47 0.925736 1.47566 0
M  V30 3041 C 282.602 1.90591 2.82645 0
M  V30 3042 H 283.795 2.73894 1.22156 0
M  V30 3043 H 281.348 1.44233 0.602203 0
M  V30 3044 H 282.083 0.974709 3.09306 0
M  V30 3045 H 281.868 2.72751 2.8169 0
M  V30 3046 H 283.358 2.11931 3.59826 0
M  V30 3047 N 283.795 -0.628877 1.44509 0
M  V30 3048 C 285.023 -1.41554 1.50897 0
M  V30 3049 C 285.438 -1.8832 0.134564 0
M  V30 3050 O 284.795 -1.60969 -0.859965 0
M  V30 3051 C 284.846 -2.63435 2.47556 0
M  V30 3052 O 284.567 -2.18619 3.79654 0
M  V30 3053 C 286.068 -3.56537 2.63431 0
M  V30 3054 H 283.288 -0.434044 0.511709 0
M  V30 3055 H 285.832 -0.768895 1.89495 0
M  V30 3056 H 283.987 -3.24187 2.12089 0
M  V30 3057 H 284.401 -2.97652 4.31861 0
M  V30 3058 H 285.875 -4.38657 3.35088 0
M  V30 3059 H 286.352 -4.05493 1.68738 0
M  V30 3060 H 286.958 -3.01653 2.9981 0
M  V30 3061 N 285.273 -1.31445 -0.869486 0
M  V30 3062 C 286.519 -1.21337 -1.62496 0
M  V30 3063 C 286.852 0.227872 -1.92858 0
M  V30 3064 O 286.127 1.16094 -1.56053 0
M  V30 3065 C 286.41 -2.05814 -2.95487 0
M  V30 3066 C 286.263 -3.5824 -2.72 0
M  V30 3067 C 287.582 -1.9079 -3.96594 0
M  V30 3068 H 284.701 -0.442135 -0.589649 0
M  V30 3069 H 287.343 -1.6124 -1.00507 0
M  V30 3070 H 285.493 -1.71913 -3.48394 0
M  V30 3071 H 287.165 -4.0228 -2.25762 0
M  V30 3072 H 285.408 -3.81647 -2.06224 0
M  V30 3073 H 286.079 -4.12657 -3.66631 0
M  V30 3074 H 288.555 -2.20459 -3.52898 0
M  V30 3075 H 287.431 -2.52199 -4.87531 0
M  V30 3076 H 287.692 -0.871341 -4.33428 0
M  V30 3077 N 286.751 1.08385 -1.14413 0
M  V30 3078 C 288.028 1.77429 -0.823297 0
M  V30 3079 C 288.408 1.9974 0.683163 0
M  V30 3080 O 287.756 1.60739 1.62405 0
M  V30 3081 C 287.966 3.09004 -1.62227 0
M  V30 3082 C 289.314 3.83532 -1.82177 0
M  V30 3083 O 290.338 3.18786 -1.58915 0
M  V30 3084 O 289.197 4.99792 -2.21067 0
M  V30 3085 H 286.291 0.769999 -0.301712 0
M  V30 3086 H 288.837 1.14846 -1.24934 0
M  V30 3087 H 287.609 2.88316 -2.64555 0
M  V30 3088 H 287.232 3.79316 -1.19187 0
M  V30 3089 N 288.23 0.939286 1.26551 0
M  V30 3090 C 289.177 0.446088 2.26448 0
M  V30 3091 C 290.147 -0.493234 1.58608 0
M  V30 3092 O 291.332 -0.409857 1.86346 0
M  V30 3093 C 288.472 -0.284375 3.43926 0
M  V30 3094 C 287.585 0.690399 4.26448 0
M  V30 3095 C 286.72 -0.0610712 5.31165 0
M  V30 3096 C 285.759 0.905649 6.05363 0
M  V30 3097 N 284.896 0.186055 7.01853 0
M  V30 3098 H 289.736 1.30291 2.68008 0
M  V30 3099 H 287.273 0.65371 1.31776 0
M  V30 3100 H 289.231 -0.724313 4.10864 0
M  V30 3101 H 287.861 -1.10535 3.03285 0
M  V30 3102 H 286.913 1.24885 3.59316 0
M  V30 3103 H 288.225 1.42873 4.779 0
M  V30 3104 H 287.379 -0.56038 6.04106 0
M  V30 3105 H 286.118 -0.832297 4.80546 0
M  V30 3106 H 285.123 1.4161 5.3125 0
M  V30 3107 H 286.348 1.67685 6.58072 0
M  V30 3108 H 284.294 -0.566714 6.53548 0
M  V30 3109 H 284.211 0.863752 7.51049 0
M  V30 3110 H 285.479 -0.292221 7.78952 0
M  V30 3111 N 289.708 -1.40897 0.706093 0
M  V30 3112 C 290.936 -2.05373 0.250887 0
M  V30 3113 C 291.351 -1.53172 -1.10381 0
M  V30 3114 O 290.708 -0.684305 -1.69185 0
M  V30 3115 C 290.759 -3.6088 0.211571 0
M  V30 3116 O 290.48 -4.11153 1.51276 0
M  V30 3117 C 291.981 -4.42517 -0.263346 0
M  V30 3118 H 289.201 -0.66115 0.114552 0
M  V30 3119 H 291.745 -1.80479 0.961635 0
M  V30 3120 H 289.9 -3.84777 -0.450073 0
M  V30 3121 H 290.314 -5.05279 1.40689 0
M  V30 3122 H 291.788 -5.51479 -0.239718 0
M  V30 3123 H 292.265 -4.19396 -1.30397 0
M  V30 3124 H 292.871 -4.23708 0.367677 0
M  V30 3125 N 291.186 -0.45159 -1.50991 0
M  V30 3126 C 292.432 0.110237 -2.025 0
M  V30 3127 C 292.765 1.41109 -1.33424 0
M  V30 3128 O 292.04 1.89135 -0.453659 0
M  V30 3129 C 292.323 0.314271 -3.58726 0
M  V30 3130 C 292.176 -1.00623 -4.38401 0
M  V30 3131 C 293.495 1.07767 -4.26702 0
M  V30 3132 H 290.614 0.0385897 -0.735989 0
M  V30 3133 H 293.256 -0.593374 -1.80497 0
M  V30 3134 H 291.406 0.913601 -3.77605 0
M  V30 3135 H 293.078 -1.64064 -4.31139 0
M  V30 3136 H 291.321 -1.6075 -4.02917 0
M  V30 3137 H 291.992 -0.817341 -5.45915 0
M  V30 3138 H 294.468 0.56986 -4.12179 0
M  V30 3139 H 293.344 1.18921 -5.35863 0
M  V30 3140 H 293.605 2.10939 -3.88532 0
M  V30 3141 N 292.664 1.56529 -0.183458 0
M  V30 3142 C 293.574 2.22144 0.754272 0
M  V30 3143 C 294.59 1.21684 1.24374 0
M  V30 3144 O 295.766 1.54385 1.29333 0
M  V30 3145 C 292.831 2.85884 1.96141 0
M  V30 3146 C 291.892 4.01579 1.51765 0
M  V30 3147 C 291.125 4.6227 2.66725 0
M  V30 3148 O 291.348 4.21865 3.83909 0
M  V30 3149 O 290.282 5.51936 2.40104 0
M  V30 3150 H 294.108 3.02861 0.225527 0
M  V30 3151 H 291.693 1.49331 0.0453032 0
M  V30 3152 H 293.575 3.26253 2.66715 0
M  V30 3153 H 292.25 2.08154 2.47899 0
M  V30 3154 H 291.157 3.65856 0.781049 0
M  V30 3155 H 292.49 4.80938 1.04686 0
M  V30 3156 N 294.142 -0.090211 1.57342 0
M  V30 3157 C 295.37 -0.806224 1.90546 0
M  V30 3158 C 295.785 -1.72041 0.777644 0
M  V30 3159 O 295.142 -1.80778 -0.250103 0
M  V30 3160 C 295.193 -1.61546 3.23396 0
M  V30 3161 O 294.914 -0.738043 4.31839 0
M  V30 3162 C 296.415 -2.4341 3.70495 0
M  V30 3163 H 293.635 -0.230256 0.630257 0
M  V30 3164 H 296.179 -0.0659843 2.04394 0
M  V30 3165 H 294.334 -2.30816 3.11131 0
M  V30 3166 H 294.748 -1.29901 5.08159 0
M  V30 3167 H 296.222 -2.95676 4.66133 0
M  V30 3168 H 296.699 -3.22098 2.98579 0
M  V30 3169 H 297.305 -1.79331 3.85643 0
M  V30 3170 N 295.62 -1.53406 -0.361157 0
M  V30 3171 C 297.031 -1.61442 -0.937728 0
M  V30 3172 C 297.382 -0.48461 -1.90121 0
M  V30 3173 O 296.507 0.388312 -2.12888 0
M  V30 3174 C 297.102 -2.92624 -1.70753 0
M  V30 3175 C 295.661 -3.02981 -2.23337 0
M  V30 3176 C 294.808 -2.5677 -1.04712 0
M  V30 3177 H 297.759 -1.58083 -0.139816 0
M  V30 3178 H 297.78 -2.80675 -2.56908 0
M  V30 3179 H 297.292 -3.74834 -1.00604 0
M  V30 3180 H 295.393 -2.25368 -2.96715 0
M  V30 3181 H 295.506 -4.0814 -2.50916 0
M  V30 3182 H 293.87 -2.11752 -1.41539 0
M  V30 3183 H 294.653 -3.41402 -0.360539 0
M  V30 3184 N 297.098 0.621204 -1.44841 0
M  V30 3185 C 298.323 1.41244 -1.51871 0
M  V30 3186 C 298.748 1.87519 -0.147764 0
M  V30 3187 O 298.106 1.59334 0.865 0
M  V30 3188 C 298.154 2.60221 -2.49634 0
M  V30 3189 O 297.258 3.60395 -2.00473 0
M  V30 3190 H 296.599 0.42223 -0.512463 0
M  V30 3191 H 299.129 0.757305 -1.90069 0
M  V30 3192 H 299.139 3.0764 -2.67996 0
M  V30 3193 H 297.814 2.25887 -3.4921 0
M  V30 3194 H 296.391 3.19717 -1.91925 0
M  V30 3195 N 298.576 1.31904 0.862503 0
M  V30 3196 C 299.987 1.19803 1.43193 0
M  V30 3197 C 300.338 -0.192567 1.95253 0
M  V30 3198 O 299.463 -1.09081 1.86896 0
M  V30 3199 C 300.058 2.16883 2.60283 0
M  V30 3200 C 298.617 2.08692 3.13248 0
M  V30 3201 C 297.764 2.05691 1.85975 0
M  V30 3202 H 300.715 1.43846 0.670365 0
M  V30 3203 H 300.736 1.76278 3.37204 0
M  V30 3204 H 300.248 3.18083 2.22363 0
M  V30 3205 H 298.349 1.10713 3.55771 0
M  V30 3206 H 298.462 2.9815 3.75025 0
M  V30 3207 H 296.826 1.50814 2.05249 0
M  V30 3208 H 297.609 3.08659 1.50282 0
M  V30 3209 N 300.054 -1.07777 1.14986 0
M  V30 3210 C 301.004 -2.13082 0.811181 0
M  V30 3211 C 301.988 -1.59619 -0.202597 0
M  V30 3212 O 303.18 -1.77 -0.00398275 0
M  V30 3213 C 300.309 -3.42009 0.297439 0
M  V30 3214 C 299.395 -4.02337 1.34112 0
M  V30 3215 N 299.786 -4.36982 2.54716 0
M  V30 3216 C 298.084 -4.29752 1.19285 0
M  V30 3217 C 298.785 -4.84729 3.21578 0
M  V30 3218 N 297.761 -4.83233 2.48972 0
M  V30 3219 H 301.563 -2.37696 1.72853 0
M  V30 3220 H 299.077 -1.25173 1.03468 0
M  V30 3221 H 301.074 -4.16884 0.0364777 0
M  V30 3222 H 299.734 -3.18841 -0.614022 0
M  V30 3223 H 300.745 -4.27807 2.91894 0
M  V30 3224 H 297.422 -4.16106 0.340926 0
M  V30 3225 H 298.812 -5.20863 4.24442 0
M  V30 3226 N 301.532 -0.945985 -1.26051 0
M  V30 3227 C 302.762 -0.612136 -1.97323 0
M  V30 3228 C 303.17 0.818171 -1.70595 0
M  V30 3229 O 302.513 1.55777 -0.973613 0
M  V30 3230 C 302.575 -0.780347 -3.50929 0
M  V30 3231 C 302.239 -2.18619 -4.01317 0
M  V30 3232 C 303.236 -3.16209 -4.12683 0
M  V30 3233 C 300.921 -2.50805 -4.35203 0
M  V30 3234 C 302.915 -4.44085 -4.57238 0
M  V30 3235 C 300.602 -3.78912 -4.79446 0
M  V30 3236 C 301.6 -4.75365 -4.90425 0
M  V30 3237 O 301.288 -6.01191 -5.3369 0
M  V30 3238 H 301.02 -0.229134 -0.635982 0
M  V30 3239 H 303.574 -1.27036 -1.61404 0
M  V30 3240 H 301.804 -0.0649864 -3.86645 0
M  V30 3241 H 303.493 -0.448842 -4.03411 0
M  V30 3242 H 304.259 -2.92668 -3.86744 0
M  V30 3243 H 300.138 -1.76463 -4.2589 0
M  V30 3244 H 303.682 -5.19373 -4.65723 0
M  V30 3245 H 299.579 -4.02265 -5.0483 0
M  V30 3246 H 300.347 -6.04442 -5.51899 0
M  V30 3247 N 303.011 1.40521 -0.713556 0
M  V30 3248 C 303.961 2.27971 -0.036165 0
M  V30 3249 C 304.945 1.43151 0.734623 0
M  V30 3250 O 306.137 1.66261 0.607158 0
M  V30 3251 C 303.266 3.31661 0.886331 0
M  V30 3252 C 302.352 4.23955 0.110836 0
M  V30 3253 N 302.743 4.97641 -0.904847 0
M  V30 3254 C 301.041 4.44674 0.343692 0
M  V30 3255 C 301.742 5.65322 -1.37064 0
M  V30 3256 N 300.718 5.39162 -0.693168 0
M  V30 3257 H 304.52 2.82384 -0.814645 0
M  V30 3258 H 302.034 1.52948 -0.545963 0
M  V30 3259 H 304.031 3.93154 1.38692 0
M  V30 3260 H 302.691 2.78808 1.66421 0
M  V30 3261 H 303.702 5.01689 -1.28563 0
M  V30 3262 H 300.379 4.02801 1.09805 0
M  V30 3263 H 301.769 6.34359 -2.21447 0
M  V30 3264 N 304.489 0.459591 1.5075 0
M  V30 3265 C 305.439 -0.358926 2.25157 0
M  V30 3266 C 306.423 -0.971285 1.28276 0
M  V30 3267 O 307.615 -0.885739 1.53244 0
M  V30 3268 C 304.744 -1.44695 3.11317 0
M  V30 3269 C 303.83 -0.842894 4.15639 0
M  V30 3270 N 304.221 0.0299373 5.05791 0
M  V30 3271 C 302.519 -1.10809 4.32015 0
M  V30 3272 C 303.22 0.371563 5.80512 0
M  V30 3273 N 302.196 -0.250409 5.43023 0
M  V30 3274 H 305.998 0.313636 2.92222 0
M  V30 3275 H 303.512 0.273021 1.60089 0
M  V30 3276 H 305.509 -2.04641 3.63218 0
M  V30 3277 H 304.169 -2.12162 2.45799 0
M  V30 3278 H 305.18 0.39797 5.16369 0
M  V30 3279 H 301.857 -1.7786 3.77719 0
M  V30 3280 H 303.247 1.08319 6.63111 0
M  V30 3281 N 305.967 -1.56429 0.191757 0
M  V30 3282 C 306.877 -2.22541 -0.742481 0
M  V30 3283 C 307.893 -1.22342 -1.23727 0
M  V30 3284 O 309.069 -1.55069 -1.28513 0
M  V30 3285 C 306.134 -2.8692 -1.94623 0
M  V30 3286 C 305.195 -4.02378 -1.49633 0
M  V30 3287 C 304.428 -4.63678 -2.6427 0
M  V30 3288 O 304.651 -4.23895 -3.81666 0
M  V30 3289 O 303.585 -5.53202 -2.37174 0
M  V30 3290 H 307.411 -3.02977 -0.209462 0
M  V30 3291 H 304.996 -1.49353 -0.0373832 0
M  V30 3292 H 306.878 -3.27663 -2.64982 0
M  V30 3293 H 305.553 -2.09466 -2.46791 0
M  V30 3294 H 304.46 -3.66265 -0.761636 0
M  V30 3295 H 305.793 -4.81487 -1.02134 0
M  V30 3296 N 307.445 0.0818655 -1.57387 0
M  V30 3297 C 308.395 1.10501 -1.99433 0
M  V30 3298 C 309.379 1.35041 -0.874798 0
M  V30 3299 O 310.571 1.35511 -1.13868 0
M  V30 3300 C 307.7 2.42159 -2.43339 0
M  V30 3301 C 306.786 2.20937 -3.62005 0
M  V30 3302 N 307.177 1.69616 -4.76512 0
M  V30 3303 C 305.475 2.51451 -3.68359 0
M  V30 3304 C 306.176 1.62973 -5.58404 0
M  V30 3305 N 305.152 2.08664 -5.01956 0
M  V30 3306 H 308.954 0.701373 -2.85408 0
M  V30 3307 H 306.468 0.289096 -1.59806 0
M  V30 3308 H 308.465 3.16208 -2.71695 0
M  V30 3309 H 307.125 2.83249 -1.58746 0
M  V30 3310 H 308.136 1.38624 -4.99003 0
M  V30 3311 H 304.813 2.95975 -2.94457 0
M  V30 3312 H 306.203 1.24233 -6.60315 0
M  V30 3313 N 308.923 1.53595 0.353017 0
M  V30 3314 C 309.873 1.77299 1.43349 0
M  V30 3315 C 310.857 0.627884 1.48143 0
M  V30 3316 O 312.049 0.88697 1.53173 0
M  V30 3317 C 309.178 1.97757 2.80619 0
M  V30 3318 C 308.264 3.18305 2.80254 0
M  V30 3319 N 308.655 4.39967 2.49526 0
M  V30 3320 C 306.953 3.19283 3.11407 0
M  V30 3321 C 307.654 5.21772 2.57156 0
M  V30 3322 N 306.63 4.58269 2.92388 0
M  V30 3323 H 310.432 2.68963 1.18474 0
M  V30 3324 H 307.946 1.52391 0.561306 0
M  V30 3325 H 309.943 2.1287 3.58458 0
M  V30 3326 H 308.603 1.07329 3.06448 0
M  V30 3327 H 309.614 4.67482 2.22893 0
M  V30 3328 H 306.291 2.3879 3.4247 0
M  V30 3329 H 307.681 6.2885 2.36638 0
M  V30 3330 N 310.401 -0.613514 1.45168 0
M  V30 3331 C 311.351 -1.71871 1.49815 0
M  V30 3332 C 312.335 -1.56774 0.362021 0
M  V30 3333 O 313.527 -1.66212 0.608493 0
M  V30 3334 C 310.656 -3.1061 1.46207 0
M  V30 3335 C 309.742 -3.31114 2.64999 0
M  V30 3336 N 310.133 -3.21904 3.90143 0
M  V30 3337 C 308.431 -3.61966 2.6057 0
M  V30 3338 C 309.132 -3.43577 4.69393 0
M  V30 3339 N 308.108 -3.67287 4.00751 0
M  V30 3340 H 311.91 -1.63235 2.444 0
M  V30 3341 H 309.424 -0.816577 1.40377 0
M  V30 3342 H 311.421 -3.8989 1.4762 0
M  V30 3343 H 310.081 -3.20399 0.52673 0
M  V30 3344 H 311.092 -3.00436 4.21852 0
M  V30 3345 H 307.769 -3.78629 1.75916 0
M  V30 3346 H 309.159 -3.41901 5.78406 0
M  V30 3347 N 311.879 -1.3236 -0.855495 0
M  V30 3348 C 312.827 -1.2118 -1.9854 0
M  V30 3349 C 313.821 -0.116788 -1.68997 0
M  V30 3350 O 315.027 -0.279657 -1.77814 0
M  V30 3351 H 311.402 -0.375608 -0.651477 0
M  V30 3352 H 313.373 -2.16743 -2.05098 0
M  V30 3353 C 312.122 -0.950849 -3.34446 0
M  V30 3354 H 311.445 -1.78563 -3.57708 0
M  V30 3355 H 312.885 -0.912863 -4.14057 0
M  V30 3356 C 311.344 0.346404 -3.35114 0
M  V30 3357 O 311.874 1.35855 -3.7803 0
M  V30 3358 N 310.08 0.36808 -2.88259 0
M  V30 3359 H 309.627 -0.456102 -2.5353 0
M  V30 3360 H 309.585 1.23591 -2.89089 0
M  V30 3361 N 313.357 1.07166 -1.15556 0
M  V30 3362 C 314.307 2.12649 -0.82247 0
M  V30 3363 C 315.291 1.59725 0.194129 0
M  V30 3364 O 316.483 1.76999 -0.00540402 0
M  V30 3365 C 313.612 3.41847 -0.315572 0
M  V30 3366 C 312.698 4.0162 -1.36244 0
M  V30 3367 N 313.089 4.35625 -2.5703 0
M  V30 3368 C 311.387 4.29114 -1.21562 0
M  V30 3369 C 312.088 4.83017 -3.24144 0
M  V30 3370 N 311.064 4.81906 -2.51531 0
M  V30 3371 H 314.866 2.36776 -1.74111 0
M  V30 3372 H 312.38 1.24622 -1.0413 0
M  V30 3373 H 314.377 4.16859 -0.0585855 0
M  V30 3374 H 313.037 3.19163 0.597105 0
M  V30 3375 H 314.048 4.26253 -2.94158 0
M  V30 3376 H 310.725 4.15919 -0.362988 0
M  V30 3377 H 312.115 5.18605 -4.27198 0
M  V30 3378 N 314.835 0.952656 1.25548 0
M  V30 3379 C 316.083 0.605176 1.92826 0
M  V30 3380 C 316.404 -0.860261 1.74999 0
M  V30 3381 O 315.674 -1.6125 1.11244 0
M  V30 3382 H 314.254 0.220832 0.713612 0
M  V30 3383 H 316.916 1.21047 1.52754 0
M  V30 3384 H 316.012 0.832798 3.00784 0
M  V30 3385 N 316.313 -1.40141 0.720998 0
M  V30 3386 C 317.263 -2.27949 0.0482544 0
M  V30 3387 C 318.247 -1.43538 -0.727021 0
M  V30 3388 O 319.439 -1.6658 -0.598332 0
M  V30 3389 C 316.568 -3.32126 -0.868729 0
M  V30 3390 C 315.654 -4.24008 -0.0883515 0
M  V30 3391 N 316.045 -4.97154 0.931226 0
M  V30 3392 C 314.343 -4.4485 -0.320105 0
M  V30 3393 C 315.044 -5.64587 1.4006 0
M  V30 3394 N 314.02 -5.38787 0.721752 0
M  V30 3395 H 317.822 -2.81948 0.829609 0
M  V30 3396 H 315.336 -1.52656 0.554067 0
M  V30 3397 H 317.333 -3.93884 -1.36605 0
M  V30 3398 H 315.993 -2.79687 -1.6494 0
M  V30 3399 H 317.004 -5.01 1.31222 0
M  V30 3400 H 313.681 -4.03378 -1.07668 0
M  V30 3401 H 315.071 -6.33175 2.24808 0
M  V30 3402 N 317.792 -0.46758 -1.50504 0
M  V30 3403 C 318.724 0.364655 -2.26281 0
M  V30 3404 C 319.737 0.960151 -1.31472 0
M  V30 3405 O 320.926 0.849153 -1.57008 0
M  V30 3406 C 318.026 1.52509 -3.02645 0
M  V30 3407 C 317.199 1.04302 -4.24782 0
M  V30 3408 C 316.258 2.07709 -4.8347 0
M  V30 3409 O 315.284 1.65913 -5.44483 0
M  V30 3410 N 316.486 3.40485 -4.70159 0
M  V30 3411 H 319.251 -0.28495 -2.98342 0
M  V30 3412 H 316.812 -0.298163 -1.59131 0
M  V30 3413 H 318.804 2.21371 -3.38787 0
M  V30 3414 H 317.374 2.07945 -2.33404 0
M  V30 3415 H 316.594 0.180393 -3.93787 0
M  V30 3416 H 317.882 0.698798 -5.03978 0
M  V30 3417 H 317.28 3.77155 -4.21629 0
M  V30 3418 H 315.837 4.05156 -5.1058 0
M  V30 3419 N 319.27 1.56325 -0.20005 0
M  V30 3420 C 320.22 2.15939 0.731743 0
M  V30 3421 C 321.204 1.10154 1.17281 0
M  V30 3422 O 322.396 1.36203 1.13038 0
M  V30 3423 C 319.525 2.82614 1.94895 0
M  V30 3424 C 318.611 3.95596 1.52855 0
M  V30 3425 N 319.002 4.99118 0.819418 0
M  V30 3426 C 317.3 4.07288 1.81748 0
M  V30 3427 C 318.001 5.78513 0.608053 0
M  V30 3428 N 316.977 5.31117 1.15828 0
M  V30 3429 H 320.779 2.9334 0.181285 0
M  V30 3430 H 318.293 1.624 -0.000452172 0
M  V30 3431 H 320.29 3.23718 2.62702 0
M  V30 3432 H 318.95 2.06702 2.50408 0
M  V30 3433 H 319.961 5.15723 0.47436 0
M  V30 3434 H 316.638 3.42509 2.38734 0
M  V30 3435 H 318.028 6.71885 0.0451619 0
M  V30 3436 N 320.748 -0.0735177 1.57428 0
M  V30 3437 C 321.678 -1.0879 2.06608 0
M  V30 3438 C 322.659 -1.40473 0.959237 0
M  V30 3439 O 323.844 -1.5013 1.23185 0
M  V30 3440 C 320.974 -2.40183 2.50857 0
M  V30 3441 C 319.928 -2.22858 3.65402 0
M  V30 3442 C 319.254 -3.59619 3.957 0
M  V30 3443 C 320.554 -1.65123 4.95511 0
M  V30 3444 H 322.248 -0.678673 2.91607 0
M  V30 3445 H 319.794 -0.325013 1.40284 0
M  V30 3446 H 321.747 -3.11437 2.83874 0
M  V30 3447 H 320.471 -2.83083 1.62885 0
M  V30 3448 H 319.13 -1.54045 3.32664 0
M  V30 3449 H 318.778 -4.00086 3.04861 0
M  V30 3450 H 318.478 -3.48866 4.72828 0
M  V30 3451 H 320.002 -4.32306 4.31212 0
M  V30 3452 H 321.416 -2.26241 5.26771 0
M  V30 3453 H 319.813 -1.65071 5.7695 0
M  V30 3454 H 320.883 -0.612559 4.81015 0
M  V30 3455 N 322.226 -1.5378 -0.344866 0
M  V30 3456 C 323.474 -1.70625 -1.08311 0
M  V30 3457 C 323.795 -0.471447 -1.89215 0
M  V30 3458 O 323.065 0.514616 -1.8902 0
M  V30 3459 H 321.645 -0.629058 -0.402859 0
M  V30 3460 H 324.307 -1.9103 -0.386459 0
M  V30 3461 H 323.403 -2.57656 -1.76124 0
M  V30 3462 N 323.704 0.605807 -1.45491 0
M  V30 3463 C 324.929 1.39625 -1.53361 0
M  V30 3464 C 325.354 1.87351 -0.167645 0
M  V30 3465 O 324.712 1.60243 0.848051 0
M  V30 3466 C 324.76 2.57559 -2.5238 0
M  V30 3467 O 323.864 3.58248 -2.04285 0
M  V30 3468 H 323.205 0.416771 -0.516912 0
M  V30 3469 H 325.735 0.737103 -1.90861 0
M  V30 3470 H 325.745 3.0478 -2.71244 0
M  V30 3471 H 324.42 2.22171 -3.51586 0
M  V30 3472 H 322.997 3.17664 -1.95305 0
M  V30 3473 N 325.182 1.32811 0.848464 0
M  V30 3474 C 326.407 1.26882 1.6406 0
M  V30 3475 C 326.832 -0.15913 1.87426 0
M  V30 3476 O 326.19 -1.11258 1.43148 0
M  V30 3477 C 326.238 2.03997 2.97351 0
M  V30 3478 O 325.342 1.39201 3.88197 0
M  V30 3479 H 324.683 0.436982 0.499943 0
M  V30 3480 H 327.213 1.75224 1.0563 0
M  V30 3481 H 327.223 2.14403 3.47124 0
M  V30 3482 H 325.898 3.0783 2.79666 0
M  V30 3483 H 324.475 1.37381 3.46671 0
M  V30 3484 N 326.66 -1.06551 1.16123 0
M  V30 3485 C 327.57 -2.17484 0.879662 0
M  V30 3486 C 328.586 -1.73377 -0.147104 0
M  V30 3487 O 329.762 -2.01379 0.0289128 0
M  V30 3488 C 326.827 -3.44591 0.381829 0
M  V30 3489 C 325.888 -4.0322 1.4735 0
M  V30 3490 C 325.121 -5.24261 0.999324 0
M  V30 3491 O 325.344 -5.70198 -0.151957 0
M  V30 3492 O 324.278 -5.74775 1.78653 0
M  V30 3493 H 328.104 -2.44075 1.80724 0
M  V30 3494 H 325.689 -1.16042 0.940992 0
M  V30 3495 H 327.571 -4.21254 0.111053 0
M  V30 3496 H 326.246 -3.19532 -0.51777 0
M  V30 3497 H 325.153 -3.2806 1.79798 0
M  V30 3498 H 326.486 -4.32568 2.34831 0
M  V30 3499 N 328.138 -0.959301 -1.25041 0
M  V30 3500 C 329.068 -0.501388 -2.28053 0
M  V30 3501 C 330.049 0.454673 -1.63911 0
M  V30 3502 O 331.234 0.352618 -1.90972 0
M  V30 3503 C 328.364 0.217224 -3.4662 0
M  V30 3504 C 327.318 -0.654034 -4.22973 0
M  V30 3505 C 326.644 0.195589 -5.34342 0
M  V30 3506 C 327.944 -1.93447 -4.85155 0
M  V30 3507 H 329.638 -1.36238 -2.66608 0
M  V30 3508 H 327.184 -0.656534 -1.28163 0
M  V30 3509 H 329.137 0.548732 -4.17812 0
M  V30 3510 H 327.861 1.1125 -3.07068 0
M  V30 3511 H 326.52 -0.968693 -3.5357 0
M  V30 3512 H 326.168 1.09076 -4.91031 0
M  V30 3513 H 325.868 -0.384091 -5.86343 0
M  V30 3514 H 327.392 0.521958 -6.08365 0
M  V30 3515 H 328.806 -1.66908 -5.48466 0
M  V30 3516 H 327.203 -2.46018 -5.47353 0
M  V30 3517 H 328.273 -2.63466 -4.07079 0
M  V30 3518 N 329.616 1.39756 -0.72842 0
M  V30 3519 C 330.841 2.05472 -0.282159 0
M  V30 3520 C 331.266 1.54549 1.07221 0
M  V30 3521 O 330.624 0.686372 1.67805 0
M  V30 3522 C 330.672 3.59462 -0.286264 0
M  V30 3523 O 329.776 4.05918 0.728298 0
M  V30 3524 H 329.117 0.651226 -0.129618 0
M  V30 3525 H 331.647 1.78915 -0.992499 0
M  V30 3526 H 331.657 4.07798 -0.128373 0
M  V30 3527 H 330.332 3.95889 -1.27456 0
M  V30 3528 H 328.909 3.69012 0.537081 0
M  V30 3529 N 331.094 0.475555 1.50254 0
M  V30 3530 C 332.004 -0.321501 2.32387 0
M  V30 3531 C 333.02 -0.991755 1.42969 0
M  V30 3532 O 334.196 -0.978747 1.76018 0
M  V30 3533 C 331.261 -1.38667 3.17762 0
M  V30 3534 C 330.322 -0.732538 4.23004 0
M  V30 3535 C 329.555 -1.74695 5.04299 0
M  V30 3536 O 329.778 -2.97399 4.86734 0
M  V30 3537 O 328.712 -1.31631 5.8733 0
M  V30 3538 H 332.538 0.350071 3.01676 0
M  V30 3539 H 330.123 0.237321 1.47503 0
M  V30 3540 H 332.005 -2.00354 3.70724 0
M  V30 3541 H 330.68 -2.04163 2.51196 0
M  V30 3542 H 329.587 -0.0765902 3.74022 0
M  V30 3543 H 330.92 -0.120452 4.92053 0
M  V30 3544 N 332.573 -1.56217 0.208337 0
M  V30 3545 C 333.521 -2.21053 -0.723769 0
M  V30 3546 C 334.515 -1.18578 -1.20978 0
M  V30 3547 O 335.721 -1.36691 -1.17114 0
M  V30 3548 H 332.096 -0.708595 -0.251788 0
M  V30 3549 H 334.067 -2.98006 -0.153365 0
M  V30 3550 C 332.816 -2.89417 -1.927 0
M  V30 3551 H 332.139 -3.68019 -1.56212 0
M  V30 3552 H 333.579 -3.38201 -2.55727 0
M  V30 3553 C 332.038 -1.91166 -2.77411 0
M  V30 3554 O 332.568 -1.42026 -3.75754 0
M  V30 3555 N 330.774 -1.59105 -2.43175 0
M  V30 3556 H 330.321 -1.99259 -1.63259 0
M  V30 3557 H 330.279 -0.936255 -3.00136 0
M  V30 3558 N 334.051 0.0651679 -1.57465 0
M  V30 3559 C 334.983 1.10359 -2.00882 0
M  V30 3560 C 335.996 1.346 -0.915788 0
M  V30 3561 O 337.185 1.32723 -1.1936 0
M  V30 3562 C 334.285 2.45312 -2.33828 0
M  V30 3563 C 333.458 2.40934 -3.65061 0
M  V30 3564 C 332.517 3.58047 -3.85602 0
M  V30 3565 O 331.543 3.39175 -4.57109 0
M  V30 3566 N 332.745 4.78637 -3.28462 0
M  V30 3567 H 335.51 0.733807 -2.90578 0
M  V30 3568 H 333.071 0.253719 -1.599 0
M  V30 3569 H 335.063 3.22314 -2.44737 0
M  V30 3570 H 333.633 2.74267 -1.49988 0
M  V30 3571 H 332.853 1.49273 -3.64844 0
M  V30 3572 H 334.141 2.35117 -4.51218 0
M  V30 3573 H 333.539 4.96872 -2.70433 0
M  V30 3574 H 332.096 5.53127 -3.44809 0
M  V30 3575 N 335.529 1.53961 0.336706 0
M  V30 3576 C 336.461 1.78751 1.4346 0
M  V30 3577 C 337.474 0.669019 1.48418 0
M  V30 3578 O 338.663 0.945884 1.51378 0
M  V30 3579 C 335.763 1.87844 2.82078 0
M  V30 3580 C 334.936 3.17854 3.00479 0
M  V30 3581 C 333.995 3.17816 4.19379 0
M  V30 3582 O 333.021 3.91511 4.13168 0
M  V30 3583 N 334.223 2.40669 5.2826 0
M  V30 3584 H 336.988 2.73493 1.22563 0
M  V30 3585 H 334.549 1.53096 0.526625 0
M  V30 3586 H 336.541 1.85261 3.59806 0
M  V30 3587 H 335.111 1.00257 2.96086 0
M  V30 3588 H 334.331 3.33504 2.10163 0
M  V30 3589 H 335.619 4.03718 3.0966 0
M  V30 3590 H 335.017 1.8036 5.36178 0
M  V30 3591 H 333.574 2.43877 6.04456 0
M  V30 3592 N 337.007 -0.598083 1.45811 0
M  V30 3593 C 338.418 -1.18011 1.44673 0
M  V30 3594 C 338.769 -1.95378 0.179364 0
M  V30 3595 O 337.894 -2.04124 -0.718509 0
M  V30 3596 C 338.489 -2.14677 2.62105 0
M  V30 3597 C 337.048 -2.68236 2.64057 0
M  V30 3598 C 336.195 -1.43816 2.37091 0
M  V30 3599 H 339.146 -0.38686 1.53913 0
M  V30 3600 H 339.167 -2.97878 2.36746 0
M  V30 3601 H 338.679 -1.5834 3.5433 0
M  V30 3602 H 336.78 -3.28486 1.75864 0
M  V30 3603 H 336.893 -3.12021 3.63566 0
M  V30 3604 H 335.257 -1.731 1.86838 0
M  V30 3605 H 336.04 -0.893333 3.31473 0
M  V30 3606 N 338.485 -1.33259 -0.841409 0
M  V30 3607 C 339.733 -1.24326 -1.59334 0
M  V30 3608 C 340.054 0.191564 -1.94057 0
M  V30 3609 O 339.324 1.11967 -1.60749 0
M  V30 3610 H 337.904 -0.457174 -0.590763 0
M  V30 3611 H 340.566 -1.66947 -1.00571 0
M  V30 3612 H 339.662 -1.8352 -2.52442 0
M  V30 3613 N 339.963 1.05934 -1.16686 0
M  V30 3614 C 340.926 2.11669 -0.879144 0
M  V30 3615 C 341.926 1.60294 0.127445 0
M  V30 3616 O 343.116 1.7389 -0.103865 0
M  V30 3617 C 340.248 3.39438 -0.315425 0
M  V30 3618 H 341.441 2.38626 -1.81653 0
M  V30 3619 H 338.994 1.22058 -0.976299 0
M  V30 3620 H 339.729 3.18132 0.629468 0
M  V30 3621 H 339.514 3.78034 -1.04079 0
M  V30 3622 H 341.004 4.17391 -0.132189 0
M  V30 3623 N 341.441 0.965919 1.2453 0
M  V30 3624 C 342.852 0.665929 1.7442 0
M  V30 3625 C 343.203 -0.818407 1.78316 0
M  V30 3626 O 342.328 -1.64037 1.41141 0
M  V30 3627 C 342.923 1.20211 3.16757 0
M  V30 3628 C 341.482 0.952059 3.6416 0
M  V30 3629 C 340.629 1.33848 2.42858 0
M  V30 3630 H 343.58 1.14144 1.10258 0
M  V30 3631 H 343.601 0.567544 3.76244 0
M  V30 3632 H 343.113 2.28244 3.13889 0
M  V30 3633 H 341.214 -0.112821 3.72429 0
M  V30 3634 H 341.327 1.59645 4.51719 0
M  V30 3635 H 339.691 0.756864 2.43195 0
M  V30 3636 H 340.474 2.42827 2.42673 0
M  V30 3637 N 342.919 -1.39368 0.735821 0
M  V30 3638 C 343.867 -2.32443 0.0855131 0
M  V30 3639 C 344.861 -1.53104 -0.724954 0
M  V30 3640 O 346.067 -1.68762 -0.626047 0
M  V30 3641 H 342.442 -0.751948 0.00885257 0
M  V30 3642 H 344.413 -2.84916 0.886883 0
M  V30 3643 C 343.162 -3.38206 -0.806983 0
M  V30 3644 H 342.485 -3.99335 -0.19274 0
M  V30 3645 H 343.925 -4.05779 -1.2296 0
M  V30 3646 C 342.384 -2.75321 -1.94165 0
M  V30 3647 O 342.914 -2.63231 -3.03435 0
M  V30 3648 N 341.12 -2.33396 -1.73132 0
M  V30 3649 H 340.667 -2.4343 -0.842596 0
M  V30 3650 H 340.625 -1.91661 -2.49225 0
M  V30 3651 N 344.397 -0.483516 -1.5 0
M  V30 3652 C 345.36 0.292965 -2.2732 0
M  V30 3653 C 346.36 0.909499 -1.32608 0
M  V30 3654 O 347.55 0.776745 -1.55924 0
M  V30 3655 C 344.682 1.41854 -3.09984 0
M  V30 3656 H 345.875 -0.385289 -2.97415 0
M  V30 3657 H 343.428 -0.237942 -1.54478 0
M  V30 3658 H 344.163 2.13148 -2.44414 0
M  V30 3659 H 343.948 0.982114 -3.79601 0
M  V30 3660 H 345.438 1.96597 -3.68429 0
M  V30 3661 N 345.875 1.56104 -0.216619 0
M  V30 3662 C 347.286 1.844 0.292128 0
M  V30 3663 C 347.637 1.13788 1.59833 0
M  V30 3664 O 346.762 0.405888 2.12559 0
M  V30 3665 C 347.357 3.3452 0.53681 0
M  V30 3666 C 345.916 3.63151 0.989876 0
M  V30 3667 C 345.063 2.77255 0.0502302 0
M  V30 3668 H 348.014 1.52481 -0.439926 0
M  V30 3669 H 348.035 3.54459 1.38345 0
M  V30 3670 H 347.547 3.85885 -0.414031 0
M  V30 3671 H 345.648 3.17238 1.95425 0
M  V30 3672 H 345.761 4.71177 0.867698 0
M  V30 3673 H 344.125 2.48555 0.556117 0
M  V30 3674 H 344.908 3.31416 -0.89544 0
M  V30 3675 N 347.353 -0.0568162 1.57498 0
M  V30 3676 C 348.581 -0.765626 1.92213 0
M  V30 3677 C 348.996 -1.70353 0.813961 0
M  V30 3678 O 348.353 -1.81268 -0.211701 0
M  V30 3679 C 348.404 -1.5465 3.2675 0
M  V30 3680 O 348.125 -0.646278 4.33307 0
M  V30 3681 C 349.626 -2.35497 3.75574 0
M  V30 3682 H 346.846 -0.216835 0.634999 0
M  V30 3683 H 349.39 -0.0226146 2.04487 0
M  V30 3684 H 347.545 -2.24165 3.15957 0
M  V30 3685 H 347.959 -1.19093 5.108 0
M  V30 3686 H 349.433 -2.85722 4.72299 0
M  V30 3687 H 349.91 -3.15692 3.05344 0
M  V30 3688 H 350.516 -1.7111 3.8936 0
M  V30 3689 N 348.832 -1.54138 -0.328536 0
M  V30 3690 C 349.782 -1.79557 -1.4051 0
M  V30 3691 C 350.766 -0.651373 -1.47126 0
M  V30 3692 O 351.958 -0.911226 -1.51742 0
M  V30 3693 C 349.087 -2.02196 -2.77438 0
M  V30 3694 C 348.173 -3.22724 -2.75155 0
M  V30 3695 N 348.564 -4.43881 -2.42494 0
M  V30 3696 C 346.862 -3.24196 -3.06289 0
M  V30 3697 C 347.563 -5.25797 -2.48822 0
M  V30 3698 N 346.539 -4.62862 -2.8506 0
M  V30 3699 H 350.341 -2.70814 -1.1418 0
M  V30 3700 H 347.855 -1.53265 -0.536991 0
M  V30 3701 H 349.852 -2.18546 -3.55026 0
M  V30 3702 H 348.512 -1.12191 -3.04702 0
M  V30 3703 H 349.523 -4.70969 -2.15428 0
M  V30 3704 H 346.2 -2.44208 -3.38627 0
M  V30 3705 H 347.59 -6.32535 -2.26603 0
M  V30 3706 N 350.31 0.590341 -1.46126 0
M  V30 3707 C 351.721 1.17243 -1.45296 0
M  V30 3708 C 352.072 1.95281 -0.189723 0
M  V30 3709 O 351.197 2.04502 0.707674 0
M  V30 3710 C 351.792 2.13284 -2.6324 0
M  V30 3711 C 350.351 2.66832 -2.65476 0
M  V30 3712 C 349.498 1.42557 -2.3785 0
M  V30 3713 H 352.449 0.378692 -1.54116 0
M  V30 3714 H 352.47 2.96619 -2.38323 0
M  V30 3715 H 351.982 1.56459 -3.55165 0
M  V30 3716 H 350.083 3.27548 -1.77603 0
M  V30 3717 H 350.196 3.10088 -3.65215 0
M  V30 3718 H 348.56 1.72107 -1.87753 0
M  V30 3719 H 349.343 0.875741 -3.31942 0
M  V30 3720 N 351.788 1.33704 0.83433 0
M  V30 3721 C 352.751 1.24244 1.92603 0
M  V30 3722 C 353.751 0.160383 1.59998 0
M  V30 3723 O 354.941 0.412228 1.69252 0
M  V30 3724 C 352.073 0.91555 3.28376 0
M  V30 3725 H 353.266 2.21287 2.02416 0
M  V30 3726 H 350.819 1.17827 1.02696 0
M  V30 3727 H 351.554 -0.0521886 3.24258 0
M  V30 3728 H 351.339 1.69811 3.53422 0
M  V30 3729 H 352.829 0.874231 4.08347 0
M  V30 3730 N 353.266 -1.05314 1.17247 0
M  V30 3731 C 354.677 -1.59753 0.96623 0
M  V30 3732 C 355.028 -1.9005 -0.487378 0
M  V30 3733 O 354.153 -1.68126 -1.36245 0
M  V30 3734 C 354.748 -2.90249 1.74759 0
M  V30 3735 C 353.307 -3.41352 1.58606 0
M  V30 3736 C 352.454 -2.15103 1.75002 0
M  V30 3737 H 355.405 -0.881406 1.31973 0
M  V30 3738 H 355.426 -3.60097 1.22925 0
M  V30 3739 H 354.938 -2.68166 2.8055 0
M  V30 3740 H 353.039 -3.68474 0.552985 0
M  V30 3741 H 353.152 -4.16019 2.37624 0
M  V30 3742 H 351.516 -2.25804 1.17833 0
M  V30 3743 H 352.299 -1.95491 2.82202 0
M  V30 3744 N 354.744 -0.972509 -1.24016 0
M  V30 3745 C 356.155 -0.67517 -1.74064 0
M  V30 3746 C 356.506 0.808939 -1.78747 0
M  V30 3747 O 355.631 1.63286 -1.42009 0
M  V30 3748 C 356.226 -1.21889 -3.16115 0
M  V30 3749 C 354.785 -0.971358 -3.6365 0
M  V30 3750 C 353.932 -1.35134 -2.42145 0
M  V30 3751 H 356.883 -1.14727 -1.09651 0
M  V30 3752 H 356.904 -0.587489 -3.75937 0
M  V30 3753 H 356.416 -2.29906 -3.12674 0
M  V30 3754 H 354.517 0.0930686 -3.72484 0
M  V30 3755 H 354.63 -1.62039 -4.50866 0
M  V30 3756 H 352.994 -0.769751 -2.4279 0
M  V30 3757 H 353.777 -2.4411 -2.41381 0
M  V30 3758 N 356.222 1.38976 -0.743202 0
M  V30 3759 C 357.47 1.99948 -0.29417 0
M  V30 3760 C 357.791 1.59279 1.12495 0
M  V30 3761 O 357.061 0.844808 1.76748 0
M  V30 3762 H 355.641 0.739473 -0.105774 0
M  V30 3763 H 358.303 1.699 -0.954986 0
M  V30 3764 H 357.399 3.10142 -0.349056 0
M  V30 3765 N 357.7 0.491464 1.49741 0
M  V30 3766 C 358.63 -0.28154 2.31796 0
M  V30 3767 C 359.611 -0.971473 1.3963 0
M  V30 3768 O 360.796 -0.964719 1.68543 0
M  V30 3769 C 357.926 -1.35203 3.19902 0
M  V30 3770 C 356.88 -0.782529 4.20786 0
M  V30 3771 C 356.206 -1.95283 4.97764 0
M  V30 3772 C 357.506 0.21999 5.21837 0
M  V30 3773 H 359.2 0.403355 2.96671 0
M  V30 3774 H 356.746 0.195425 1.42668 0
M  V30 3775 H 358.699 -1.90045 3.76113 0
M  V30 3776 H 357.423 -2.06598 2.52953 0
M  V30 3777 H 356.082 -0.255928 3.65706 0
M  V30 3778 H 355.73 -2.65423 4.2727 0
M  V30 3779 H 355.43 -1.57789 5.66018 0
M  V30 3780 H 356.954 -2.50577 5.56816 0
M  V30 3781 H 358.368 -0.23996 5.72798 0
M  V30 3782 H 356.765 0.51026 5.97927 0
M  V30 3783 H 357.835 1.13911 4.7133 0
M  V30 3784 N 359.178 -1.55987 0.224894 0
M  V30 3785 C 360.128 -2.17076 -0.697296 0
M  V30 3786 C 361.112 -1.12006 -1.15514 0
M  V30 3787 O 362.304 -1.37985 -1.10857 0
M  V30 3788 C 359.433 -2.85679 -1.90374 0
M  V30 3789 C 358.519 -3.97977 -1.46543 0
M  V30 3790 N 358.91 -5.00359 -0.739909 0
M  V30 3791 C 357.208 -4.10128 -1.75245 0
M  V30 3792 C 357.909 -5.79407 -0.515939 0
M  V30 3793 N 356.885 -5.32892 -1.07364 0
M  V30 3794 H 360.687 -2.93592 -0.134594 0
M  V30 3795 H 358.201 -1.62379 0.0262885 0
M  V30 3796 H 360.198 -3.27857 -2.57518 0
M  V30 3797 H 358.858 -2.1066 -2.47088 0
M  V30 3798 H 359.869 -5.16412 -0.392253 0
M  V30 3799 H 356.546 -3.46263 -2.33255 0
M  V30 3800 H 357.936 -6.71872 0.0617349 0
M  V30 3801 N 360.656 0.0484629 -1.57525 0
M  V30 3802 C 361.606 1.06246 -2.01732 0
M  V30 3803 C 362.59 1.33155 -0.903245 0
M  V30 3804 O 363.782 1.33065 -1.16717 0
M  V30 3805 C 360.911 2.36943 -2.48421 0
M  V30 3806 C 359.997 2.13208 -3.6661 0
M  V30 3807 N 360.388 1.5947 -4.80003 0
M  V30 3808 C 358.686 2.43581 -3.7361 0
M  V30 3809 C 359.387 1.51092 -5.61735 0
M  V30 3810 N 358.363 1.9797 -5.0627 0
M  V30 3811 H 362.165 0.640675 -2.86832 0
M  V30 3812 H 359.679 0.255134 -1.60383 0
M  V30 3813 H 361.676 3.10374 -2.78341 0
M  V30 3814 H 360.336 2.79818 -1.64718 0
M  V30 3815 H 361.347 1.28008 -5.01831 0
M  V30 3816 H 358.024 2.89662 -3.00669 0
M  V30 3817 H 359.414 1.10199 -6.62801 0
M  V30 3818 N 362.134 1.5431 0.320358 0
M  V30 3819 C 363.084 1.803 1.39556 0
M  V30 3820 C 364.068 0.659166 1.46778 0
M  V30 3821 O 365.26 0.91926 1.51257 0
M  V30 3822 C 362.389 2.03665 2.76361 0
M  V30 3823 C 361.475 3.24178 2.73439 0
M  V30 3824 N 361.866 4.4516 2.40137 0
M  V30 3825 C 360.164 3.25816 3.04565 0
M  V30 3826 C 360.865 5.27109 2.4603 0
M  V30 3827 N 359.841 4.64368 2.82601 0
M  V30 3828 H 363.643 2.71416 1.12742 0
M  V30 3829 H 361.157 1.53548 0.528856 0
M  V30 3830 H 363.154 2.20425 3.53862 0
M  V30 3831 H 361.814 1.13805 3.04103 0
M  V30 3832 H 362.825 4.72104 2.12927 0
M  V30 3833 H 359.502 2.46001 3.37328 0
M  V30 3834 H 360.892 6.33728 2.23246 0
M  V30 3835 N 363.613 -0.582584 1.46437 0
M  V30 3836 C 364.563 -1.68654 1.53426 0
M  V30 3837 C 365.547 -1.55971 0.395194 0
M  V30 3838 O 366.739 -1.64884 0.643612 0
M  V30 3839 C 363.868 -3.07439 1.52762 0
M  V30 3840 C 362.954 -3.25418 2.71963 0
M  V30 3841 N 363.345 -3.13556 3.96883 0
M  V30 3842 C 361.643 -3.56357 2.68189 0
M  V30 3843 C 362.344 -3.33543 4.76575 0
M  V30 3844 N 361.32 -3.58704 4.08451 0
M  V30 3845 H 365.122 -1.58014 2.47808 0
M  V30 3846 H 362.636 -0.786617 1.42078 0
M  V30 3847 H 364.633 -3.86671 1.55857 0
M  V30 3848 H 363.293 -3.1921 0.594573 0
M  V30 3849 H 364.304 -2.9142 4.28129 0
M  V30 3850 H 360.981 -3.74812 1.83908 0
M  V30 3851 H 362.371 -3.29555 5.85528 0
M  V30 3852 N 365.091 -1.34144 -0.827227 0
M  V30 3853 C 366.038 -1.25364 -1.93785 0
M  V30 3854 C 367.008 -0.129774 -1.65592 0
M  V30 3855 O 368.193 -0.310024 -1.88264 0
M  V30 3856 C 365.333 -1.01064 -3.2997 0
M  V30 3857 C 364.446 -2.22185 -3.70484 0
M  V30 3858 C 363.581 -1.91203 -4.95595 0
M  V30 3859 C 362.62 -3.08491 -5.28677 0
M  V30 3860 N 361.757 -2.77421 -6.44967 0
M  V30 3861 H 366.597 -2.20347 -2.00627 0
M  V30 3862 H 364.134 -1.09558 -0.981608 0
M  V30 3863 H 366.092 -0.850139 -4.08446 0
M  V30 3864 H 364.722 -0.0975026 -3.22653 0
M  V30 3865 H 363.774 -2.4917 -2.87434 0
M  V30 3866 H 365.086 -3.0983 -3.90905 0
M  V30 3867 H 364.24 -1.71864 -5.81848 0
M  V30 3868 H 362.979 -1.00812 -4.77167 0
M  V30 3869 H 361.984 -3.28431 -4.40923 0
M  V30 3870 H 363.209 -3.99655 -5.49047 0
M  V30 3871 H 361.155 -1.89601 -6.28003 0
M  V30 3872 H 361.072 -3.58598 -6.6554 0
M  V30 3873 H 362.34 -2.61577 -7.34301 0
M  V30 3874 N 366.569 1.04691 -1.17803 0
M  V30 3875 C 367.519 2.10856 -0.867391 0
M  V30 3876 C 368.503 1.601 0.160206 0
M  V30 3877 O 369.695 1.76948 -0.042947 0
M  V30 3878 C 366.824 3.411 -0.388012 0
M  V30 3879 C 365.91 3.9864 -1.44732 0
M  V30 3880 N 366.301 4.30075 -2.66212 0
M  V30 3881 C 364.599 4.26439 -1.30637 0
M  V30 3882 C 365.3 4.76033 -3.34317 0
M  V30 3883 N 364.276 4.76462 -2.61696 0
M  V30 3884 H 368.078 2.33029 -1.79094 0
M  V30 3885 H 365.592 1.22386 -1.0675 0
M  V30 3886 H 367.589 4.16641 -0.146994 0
M  V30 3887 H 366.249 3.20357 0.529271 0
M  V30 3888 H 367.26 4.19917 -3.03134 0
M  V30 3889 H 363.937 4.15056 -0.451129 0
M  V30 3890 H 365.327 5.09427 -4.38103 0
M  V30 3891 N 368.047 0.979072 1.23499 0
M  V30 3892 C 368.994 0.517904 2.24914 0
M  V30 3893 C 369.964 -0.442525 1.60097 0
M  V30 3894 O 371.149 -0.350365 1.87556 0
M  V30 3895 C 368.289 -0.174813 3.44657 0
M  V30 3896 C 367.402 0.825721 4.24035 0
M  V30 3897 C 366.537 0.107946 5.3109 0
M  V30 3898 C 365.576 1.09778 6.02175 0
M  V30 3899 N 364.713 0.40925 7.00906 0
M  V30 3900 H 369.553 1.38751 2.63727 0
M  V30 3901 H 367.09 0.695303 1.2963 0
M  V30 3902 H 369.048 -0.593233 4.12961 0
M  V30 3903 H 367.678 -1.0083 3.06648 0
M  V30 3904 H 366.73 1.36253 3.55161 0
M  V30 3905 H 368.042 1.58005 4.73113 0
M  V30 3906 H 367.196 -0.367904 6.05583 0
M  V30 3907 H 365.935 -0.678994 4.8295 0
M  V30 3908 H 364.94 1.5844 5.26476 0
M  V30 3909 H 366.165 1.88536 6.52404 0
M  V30 3910 H 364.111 -0.358506 6.5502 0
M  V30 3911 H 364.028 1.10226 7.47921 0
M  V30 3912 H 365.296 -0.0442557 7.79487 0
M  V30 3913 N 369.525 -1.3858 0.750561 0
M  V30 3914 C 370.773 -1.99789 0.30477 0
M  V30 3915 C 371.094 -1.59874 -1.11649 0
M  V30 3916 O 370.364 -0.85417 -1.76297 0
M  V30 3917 H 368.944 -0.738902 0.109694 0
M  V30 3918 H 371.606 -1.69391 0.963983 0
M  V30 3919 H 370.702 -3.09952 0.365499 0
M  V30 3920 N 371.003 -0.499398 -1.49478 0
M  V30 3921 C 371.935 0.316575 -2.27003 0
M  V30 3922 C 372.948 0.932047 -1.33479 0
M  V30 3923 O 374.137 0.815658 -1.58774 0
M  V30 3924 C 371.237 1.46055 -3.05812 0
M  V30 3925 C 370.41 0.952679 -4.26899 0
M  V30 3926 C 369.469 1.97407 -4.87767 0
M  V30 3927 O 368.495 1.54326 -5.4788 0
M  V30 3928 N 369.697 3.30436 -4.77276 0
M  V30 3929 H 372.462 -0.348168 -2.97671 0
M  V30 3930 H 370.023 -0.33185 -1.58463 0
M  V30 3931 H 372.015 2.14135 -3.43407 0
M  V30 3932 H 370.585 2.02948 -2.37762 0
M  V30 3933 H 369.805 0.0968248 -3.94081 0
M  V30 3934 H 371.093 0.59174 -5.05347 0
M  V30 3935 H 370.491 3.68126 -4.29534 0
M  V30 3936 H 369.048 3.94235 -5.19059 0
M  V30 3937 N 372.481 1.55866 -0.233164 0
M  V30 3938 C 373.431 2.17442 0.685774 0
M  V30 3939 C 374.415 1.12617 1.14918 0
M  V30 3940 O 375.607 1.3857 1.10124 0
M  V30 3941 C 372.736 2.86685 1.88856 0
M  V30 3942 C 371.822 3.98749 1.4443 0
M  V30 3943 N 372.213 5.00744 0.713364 0
M  V30 3944 C 370.511 4.11052 1.73068 0
M  V30 3945 C 371.212 5.79673 0.485205 0
M  V30 3946 N 370.188 5.33454 1.04536 0
M  V30 3947 H 373.99 2.93659 0.119022 0
M  V30 3948 H 371.504 1.62362 -0.0348995 0
M  V30 3949 H 373.501 3.29218 2.55776 0
M  V30 3950 H 372.161 2.11967 2.45967 0
M  V30 3951 H 373.172 5.16613 0.364861 0
M  V30 3952 H 369.849 3.47495 2.31416 0
M  V30 3953 H 371.239 6.71829 -0.097365 0
M  V30 3954 N 373.959 -0.0401083 1.57549 0
M  V30 3955 C 375.375 -0.395556 1.54621 0
M  V30 3956 C 375.575 -1.77281 0.957799 0
M  V30 3957 O 374.631 -2.45888 0.574031 0
M  V30 3958 C 375.944 -0.307535 2.99123 0
M  V30 3959 C 377.492 -0.385425 3.10618 0
M  V30 3960 C 377.967 -0.326973 4.56831 0
M  V30 3961 N 379.458 -0.386102 4.61588 0
M  V30 3962 C 380.193 -0.363591 5.72246 0
M  V30 3963 N 379.689 -0.29402 6.92176 0
M  V30 3964 N 381.482 -0.412503 5.60584 0
M  V30 3965 H 373.633 0.861325 1.94152 0
M  V30 3966 H 375.896 0.326445 0.890021 0
M  V30 3967 H 375.602 0.638461 3.45856 0
M  V30 3968 H 375.476 -1.10552 3.60636 0
M  V30 3969 H 377.863 -1.32185 2.63839 0
M  V30 3970 H 377.944 0.44171 2.51957 0
M  V30 3971 H 377.588 0.605738 5.04275 0
M  V30 3972 H 377.518 -1.17207 5.13391 0
M  V30 3973 H 380.009 -0.442832 3.75296 0
M  V30 3974 H 380.322 -0.28164 7.72287 0
M  V30 3975 H 378.667 -0.260232 6.94513 0
M  V30 3976 H 381.858 -0.464769 4.65787 0
M  V30 3977 H 382.031 -0.391492 6.46816 0
M  V30 3978 N 375.437 -1.54477 -0.31217 0
M  V30 3979 C 376.369 -1.81011 -1.40598 0
M  V30 3980 C 377.382 -0.692546 -1.47335 0
M  V30 3981 O 378.571 -0.969847 -1.49854 0
M  V30 3982 C 375.671 -1.92307 -2.79054 0
M  V30 3983 C 374.844 -3.22594 -2.95384 0
M  V30 3984 C 373.903 -3.24448 -4.1427 0
M  V30 3985 O 372.929 -3.98035 -4.06887 0
M  V30 3986 N 374.131 -2.49042 -5.24365 0
M  V30 3987 H 376.896 -2.75408 -1.18196 0
M  V30 3988 H 374.457 -1.53914 -0.502202 0
M  V30 3989 H 376.449 -1.90962 -3.56813 0
M  V30 3990 H 375.019 -1.04955 -2.94454 0
M  V30 3991 H 374.239 -3.36806 -2.04831 0
M  V30 3992 H 375.527 -4.08593 -3.03198 0
M  V30 3993 H 374.925 -1.88867 -5.33241 0
M  V30 3994 H 373.482 -2.53463 -6.005 0
M  V30 3995 N 376.915 0.57481 -1.46744 0
M  V30 3996 C 378.163 1.33009 -1.52161 0
M  V30 3997 C 378.484 1.94185 -0.178092 0
M  V30 3998 O 377.754 1.7899 0.796196 0
M  V30 3999 H 376.334 0.493873 -0.560445 0
M  V30 4000 H 378.996 0.672589 -1.82927 0
M  V30 4001 H 378.092 2.13273 -2.27862 0
M  V30 4002 N 378.394 1.34581 0.820102 0
M  V30 4003 C 379.344 1.22943 1.92013 0
M  V30 4004 C 380.328 0.127802 1.60392 0
M  V30 4005 O 381.52 0.357737 1.73347 0
M  V30 4006 C 378.649 0.989938 3.28717 0
M  V30 4007 C 377.735 2.13486 3.66449 0
M  V30 4008 N 378.126 3.38625 3.75722 0
M  V30 4009 C 376.424 2.04573 3.96315 0
M  V30 4010 C 377.125 4.13832 4.08801 0
M  V30 4011 N 376.101 3.42451 4.22171 0
M  V30 4012 H 379.903 2.17771 1.97365 0
M  V30 4013 H 377.417 1.2686 1.01392 0
M  V30 4014 H 379.414 0.887462 4.07345 0
M  V30 4015 H 378.074 0.0503691 3.24661 0
M  V30 4016 H 379.085 3.73143 3.59144 0
M  V30 4017 H 375.762 1.1839 4.00362 0
M  V30 4018 H 377.152 5.21909 4.23156 0
M  V30 4019 N 379.872 -1.04064 1.18357 0
M  V30 4020 C 381.283 -1.58719 0.98312 0
M  V30 4021 C 381.634 -1.90556 -0.467193 0
M  V30 4022 O 380.759 -1.69561 -1.34454 0
M  V30 4023 C 381.354 -2.88379 1.77828 0
M  V30 4024 C 379.913 -3.3965 1.62218 0
M  V30 4025 C 379.06 -2.13235 1.77274 0
M  V30 4026 H 382.011 -0.867359 1.32901 0
M  V30 4027 H 382.032 -3.58773 1.26737 0
M  V30 4028 H 381.544 -2.65176 2.83379 0
M  V30 4029 H 379.645 -3.67866 0.592036 0
M  V30 4030 H 379.758 -4.13475 2.42023 0
M  V30 4031 H 378.122 -2.24542 1.20221 0
M  V30 4032 H 378.905 -1.92487 2.8426 0
M  V30 4033 N 381.35 -0.985608 -1.22978 0
M  V30 4034 C 382.26 -0.538548 -2.28335 0
M  V30 4035 C 383.276 0.409163 -1.69121 0
M  V30 4036 O 384.452 0.277797 -1.99475 0
M  V30 4037 C 381.517 0.146867 -3.46389 0
M  V30 4038 C 380.578 -0.842896 -4.20944 0
M  V30 4039 C 379.811 -0.190095 -5.33361 0
M  V30 4040 O 380.034 1.01767 -5.61248 0
M  V30 4041 O 378.968 -0.891289 -5.95264 0
M  V30 4042 H 382.794 -1.41487 -2.68729 0
M  V30 4043 H 380.379 -0.753495 -1.29007 0
M  V30 4044 H 382.261 0.531125 -4.1804 0
M  V30 4045 H 380.936 0.997871 -3.07935 0
M  V30 4046 H 379.843 -1.27795 -3.51595 0
M  V30 4047 H 381.176 -1.66287 -4.6326 0
M  V30 4048 N 382.828 1.3818 -0.7579 0
M  V30 4049 C 383.776 2.32277 -0.122482 0
M  V30 4050 C 384.77 1.54238 0.700505 0
M  V30 4051 O 385.976 1.69737 0.599119 0
M  V30 4052 H 382.351 0.751712 -0.0208143 0
M  V30 4053 H 384.322 2.83469 -0.932099 0
M  V30 4054 C 383.071 3.39447 0.753076 0
M  V30 4055 H 382.394 3.99591 0.129184 0
M  V30 4056 H 383.834 4.07684 1.16489 0
M  V30 4057 C 382.293 2.78375 1.8976 0
M  V30 4058 O 382.823 2.68025 2.99208 0
M  V30 4059 N 381.029 2.36121 1.69397 0
M  V30 4060 H 380.576 2.4474 0.803762 0
M  V30 4061 H 380.534 1.95602 2.46145 0
M  V30 4062 N 384.306 0.507319 1.49211 0
M  V30 4063 C 385.722 0.163682 1.58758 0
M  V30 4064 C 385.922 -1.33208 1.51188 0
M  V30 4065 O 384.978 -2.10855 1.38911 0
M  V30 4066 C 386.291 0.746095 2.91297 0
M  V30 4067 C 387.839 0.712773 3.04776 0
M  V30 4068 C 388.314 1.27336 4.39943 0
M  V30 4069 N 389.805 1.23433 4.46451 0
M  V30 4070 C 390.54 1.63821 5.495 0
M  V30 4071 N 390.036 2.11832 6.5962 0
M  V30 4072 N 391.829 1.55198 5.4025 0
M  V30 4073 H 383.98 1.47972 1.52375 0
M  V30 4074 H 386.243 0.614147 0.722168 0
M  V30 4075 H 385.949 1.79534 3.02424 0
M  V30 4076 H 385.823 0.210137 3.76614 0
M  V30 4077 H 388.21 -0.327656 2.93275 0
M  V30 4078 H 388.291 1.28595 2.21127 0
M  V30 4079 H 387.935 2.3126 4.52196 0
M  V30 4080 H 387.865 0.676066 5.22242 0
M  V30 4081 H 390.356 0.882627 3.67448 0
M  V30 4082 H 390.669 2.40703 7.34358 0
M  V30 4083 H 389.014 2.1581 6.60644 0
M  V30 4084 H 392.205 1.17505 4.53112 0
M  V30 4085 H 392.378 1.86997 6.20432 0
M  V30 4086 N 385.784 -1.5574 0.241426 0
M  V30 4087 C 387.061 -1.90704 -0.434881 0
M  V30 4088 C 387.441 -1.16145 -1.76277 0
M  V30 4089 O 386.789 -0.277152 -2.26813 0
M  V30 4090 C 386.999 -3.43657 -0.608343 0
M  V30 4091 C 388.347 -4.14806 -0.906725 0
M  V30 4092 O 389.371 -3.49366 -0.694408 0
M  V30 4093 O 388.23 -5.30548 -1.31075 0
M  V30 4094 H 385.324 -0.793592 -0.23268 0
M  V30 4095 H 387.87 -1.67288 0.285086 0
M  V30 4096 H 386.642 -3.89927 0.327505 0
M  V30 4097 H 386.265 -3.72918 -1.37906 0
M  V30 4098 N 387.262 0.0317525 -1.57568 0
M  V30 4099 C 388.195 1.06621 -2.0176 0
M  V30 4100 C 389.173 1.35323 -0.901462 0
M  V30 4101 O 390.357 1.48025 -1.16708 0
M  V30 4102 C 387.484 2.40155 -2.38837 0
M  V30 4103 C 386.53 2.27327 -3.60867 0
M  V30 4104 S 387.363 1.62925 -5.10113 0
M  V30 4105 C 388.519 2.97955 -5.5043 0
M  V30 4106 H 388.752 0.689781 -2.89187 0
M  V30 4107 H 386.285 0.24164 -1.52497 0
M  V30 4108 H 388.243 3.1695 -2.6087 0
M  V30 4109 H 386.904 2.74946 -1.51867 0
M  V30 4110 H 386.097 3.25898 -3.84456 0
M  V30 4111 H 385.699 1.58675 -3.38671 0
M  V30 4112 H 387.991 3.94285 -5.5095 0
M  V30 4113 H 388.934 2.79102 -6.50775 0
M  V30 4114 H 389.342 3.00404 -4.77931 0
M  V30 4115 N 388.74 1.54641 0.303973 0
M  V30 4116 C 390.151 1.64811 0.877163 0
M  V30 4117 C 390.502 0.554838 1.88191 0
M  V30 4118 O 389.627 -0.309033 2.14182 0
M  V30 4119 C 390.222 2.9876 1.59775 0
M  V30 4120 C 388.781 3.11061 2.11938 0
M  V30 4121 C 387.928 2.60479 0.951097 0
M  V30 4122 H 390.879 1.58493 0.0810486 0
M  V30 4123 H 390.9 2.90017 2.46314 0
M  V30 4124 H 390.412 3.7831 0.866226 0
M  V30 4125 H 388.513 2.36225 2.88146 0
M  V30 4126 H 388.626 4.17171 2.35595 0
M  V30 4127 H 386.99 2.16859 1.33583 0
M  V30 4128 H 387.773 3.42504 0.233581 0
M  V30 4129 N 390.218 -0.567019 1.47046 0
M  V30 4130 C 391.181 -1.65696 1.58359 0
M  V30 4131 C 392.181 -1.54097 0.459441 0
M  V30 4132 O 393.371 -1.58432 0.724225 0
M  V30 4133 C 390.503 -3.05197 1.51879 0
M  V30 4134 H 391.696 -1.57019 2.5551 0
M  V30 4135 H 389.249 -0.786148 1.3509 0
M  V30 4136 H 389.984 -3.19417 0.560673 0
M  V30 4137 H 389.769 -3.15025 2.33455 0
M  V30 4138 H 391.259 -3.84511 1.62913 0
M  V30 4139 N 391.696 -1.35014 -0.812953 0
M  V30 4140 C 392.921 -1.31187 -1.60639 0
M  V30 4141 C 393.346 0.109382 -1.87782 0
M  V30 4142 O 392.704 1.07424 -1.46047 0
M  V30 4143 C 392.752 -2.11809 -2.91838 0
M  V30 4144 O 391.856 -1.49444 -3.8437 0
M  V30 4145 H 391.197 -0.450084 -0.488181 0
M  V30 4146 H 393.727 -1.77963 -1.00947 0
M  V30 4147 H 393.737 -2.23531 -3.41318 0
M  V30 4148 H 392.412 -3.15137 -2.71407 0
M  V30 4149 H 390.989 -1.46524 -3.42907 0
M  V30 4150 N 393.175 1.03435 -1.18907 0
M  V30 4151 C 394.085 2.15075 -0.937015 0
M  V30 4152 C 395.101 1.73706 0.101085 0
M  V30 4153 O 396.277 2.01232 -0.0822948 0
M  V30 4154 C 393.342 3.43458 -0.473057 0
M  V30 4155 C 392.403 3.99172 -1.57989 0
M  V30 4156 C 391.636 5.21427 -1.13797 0
M  V30 4157 O 391.859 5.704 0.000725941 0
M  V30 4158 O 390.793 5.69837 -1.9383 0
M  V30 4159 H 394.619 2.39198 -1.87131 0
M  V30 4160 H 392.204 1.13506 -0.971427 0
M  V30 4161 H 394.086 4.20811 -0.222702 0
M  V30 4162 H 392.761 3.20793 0.432869 0
M  V30 4163 H 391.668 3.23178 -1.88433 0
M  V30 4164 H 393.001 4.2619 -2.46217 0
M  V30 4165 N 394.653 0.992116 1.22453 0
M  V30 4166 C 395.93 0.583508 1.86694 0
M  V30 4167 C 396.31 -0.9392 1.89056 0
M  V30 4168 O 395.658 -1.82081 1.38053 0
M  V30 4169 C 395.868 1.20304 3.2761 0
M  V30 4170 C 397.216 1.30308 4.0411 0
M  V30 4171 O 398.24 1.15737 3.36873 0
M  V30 4172 O 397.099 1.53615 5.24466 0
M  V30 4173 H 394.193 0.198129 0.802916 0
M  V30 4174 H 396.739 1.08794 1.30238 0
M  V30 4175 H 395.511 2.24461 3.2052 0
M  V30 4176 H 395.134 0.684144 3.9167 0
M  V30 4177 N 396.131 -1.37776 0.765217 0
M  V30 4178 C 397.061 -2.32945 0.160953 0
M  V30 4179 C 398.042 -1.55454 -0.690516 0
M  V30 4180 O 399.227 -1.83721 -0.629318 0
M  V30 4181 C 396.357 -3.39669 -0.724031 0
M  V30 4182 C 395.311 -4.27992 0.0256173 0
M  V30 4183 C 394.637 -5.25673 -0.978383 0
M  V30 4184 C 395.937 -5.08309 1.20082 0
M  V30 4185 H 397.631 -2.83728 0.955969 0
M  V30 4186 H 395.177 -1.36416 0.461149 0
M  V30 4187 H 397.13 -4.05219 -1.15652 0
M  V30 4188 H 395.854 -2.87396 -1.5515 0
M  V30 4189 H 394.513 -3.63964 0.438812 0
M  V30 4190 H 394.161 -4.69682 -1.80022 0
M  V30 4191 H 393.861 -5.85625 -0.481378 0
M  V30 4192 H 395.385 -5.94098 -1.40995 0
M  V30 4193 H 396.799 -5.67034 0.845307 0
M  V30 4194 H 395.196 -5.77554 1.62947 0
M  V30 4195 H 396.266 -4.41365 2.00811 0
M  V30 4196 N 397.609 -0.515225 -1.4894 0
M  V30 4197 C 398.541 0.292481 -2.27326 0
M  V30 4198 C 399.554 0.917838 -1.3446 0
M  V30 4199 O 400.743 0.798772 -1.5963 0
M  V30 4200 C 397.843 1.42803 -3.07344 0
M  V30 4201 C 397.016 0.907347 -4.27885 0
M  V30 4202 C 396.075 1.92222 -4.89834 0
M  V30 4203 O 395.101 1.48506 -5.49486 0
M  V30 4204 N 396.303 3.25355 -4.80754 0
M  V30 4205 H 399.068 -0.379721 -2.97285 0
M  V30 4206 H 396.629 -0.348638 -1.58102 0
M  V30 4207 H 398.621 2.10481 -3.45658 0
M  V30 4208 H 397.191 2.00414 -2.39902 0
M  V30 4209 H 396.411 0.0550218 -3.94162 0
M  V30 4210 H 397.699 0.538108 -5.05946 0
M  V30 4211 H 397.097 3.6355 -4.33414 0
M  V30 4212 H 395.654 3.88707 -5.23211 0
M  V30 4213 N 399.087 1.5561 -0.249682 0
M  V30 4214 C 400.364 1.90932 0.424761 0
M  V30 4215 C 400.744 1.17078 1.75658 0
M  V30 4216 O 400.092 0.289176 2.26663 0
M  V30 4217 C 400.302 3.43975 0.590109 0
M  V30 4218 C 401.65 4.15281 0.884714 0
M  V30 4219 O 402.674 3.49729 0.67587 0
M  V30 4220 O 401.533 5.31236 1.28259 0
M  V30 4221 H 398.627 0.794815 0.228468 0
M  V30 4222 H 401.173 1.67135 -0.293954 0
M  V30 4223 H 399.945 3.89748 -0.34818 0
M  V30 4224 H 399.568 3.73644 1.35926 0
M  V30 4225 N 400.565 -0.0233959 1.57583 0
M  V30 4226 C 401.495 -1.02162 2.09965 0
M  V30 4227 C 402.476 -1.3735 1.00344 0
M  V30 4228 O 403.661 -1.46135 1.27899 0
M  V30 4229 C 400.791 -2.32081 2.58371 0
M  V30 4230 C 399.745 -2.1112 3.72307 0
M  V30 4231 C 399.071 -3.46848 4.06941 0
M  V30 4232 C 400.371 -1.49276 5.00514 0
M  V30 4233 H 402.065 -0.585557 2.93618 0
M  V30 4234 H 399.611 -0.280218 1.41247 0
M  V30 4235 H 401.564 -3.02249 2.93639 0
M  V30 4236 H 400.288 -2.77758 1.71808 0
M  V30 4237 H 398.947 -1.43384 3.37397 0
M  V30 4238 H 398.595 -3.90184 3.17436 0
M  V30 4239 H 398.295 -3.33646 4.83688 0
M  V30 4240 H 399.819 -4.18369 4.44747 0
M  V30 4241 H 401.233 -2.09368 5.33702 0
M  V30 4242 H 399.63 -1.46632 5.8191 0
M  V30 4243 H 400.7 -0.459217 4.82721 0
M  V30 4244 N 402.043 -1.548 -0.295768 0
M  V30 4245 C 402.975 -1.82492 -1.3867 0
M  V30 4246 C 403.988 -0.708134 -1.46592 0
M  V30 4247 O 405.177 -0.985686 -1.48817 0
M  V30 4248 C 402.277 -1.95256 -2.76999 0
M  V30 4249 C 401.45 -3.25709 -2.91946 0
M  V30 4250 C 400.509 -3.28824 -4.10806 0
M  V30 4251 O 399.535 -4.02328 -4.02643 0
M  V30 4252 N 400.737 -2.5459 -5.21694 0
M  V30 4253 H 403.502 -2.76646 -1.15269 0
M  V30 4254 H 401.063 -1.54438 -0.485849 0
M  V30 4255 H 403.055 -1.94736 -3.54768 0
M  V30 4256 H 401.625 -1.08072 -2.93324 0
M  V30 4257 H 400.845 -3.38959 -2.01247 0
M  V30 4258 H 402.133 -4.11786 -2.98847 0
M  V30 4259 H 401.531 -1.94512 -5.31208 0
M  V30 4260 H 400.088 -2.59818 -5.97778 0
M  V30 4261 N 403.521 0.559213 -1.47345 0
M  V30 4262 C 404.468 1.66645 -1.59682 0
M  V30 4263 C 405.438 1.60168 -0.43994 0
M  V30 4264 O 406.623 1.79031 -0.659736 0
M  V30 4265 C 403.763 3.04969 -1.61518 0
M  V30 4266 C 402.876 3.21897 -2.88108 0
M  V30 4267 C 402.011 4.50608 -2.81294 0
M  V30 4268 C 401.05 4.60961 -4.02717 0
M  V30 4269 N 400.187 5.81024 -3.94151 0
M  V30 4270 H 405.027 1.55439 -2.54249 0
M  V30 4271 H 402.564 0.757219 -1.26113 0
M  V30 4272 H 404.522 3.85064 -1.60566 0
M  V30 4273 H 403.152 3.15015 -0.704645 0
M  V30 4274 H 402.204 2.35248 -2.98936 0
M  V30 4275 H 403.516 3.25412 -3.78032 0
M  V30 4276 H 402.67 5.3896 -2.7858 0
M  V30 4277 H 401.409 4.49568 -1.89049 0
M  V30 4278 H 400.414 3.71021 -4.05738 0
M  V30 4279 H 401.639 4.63761 -4.96087 0
M  V30 4280 H 399.585 5.80938 -3.04708 0
M  V30 4281 H 399.502 5.85909 -4.77752 0
M  V30 4282 H 400.77 6.71744 -3.9545 0
M  V30 4283 N 404.999 1.35443 0.805782 0
M  V30 4284 C 405.946 1.28431 1.91766 0
M  V30 4285 C 406.916 0.156102 1.65365 0
M  V30 4286 O 408.101 0.339936 1.87747 0
M  V30 4287 C 405.241 1.06301 3.2832 0
M  V30 4288 C 404.354 2.2805 3.66902 0
M  V30 4289 C 403.489 1.99064 4.92491 0
M  V30 4290 C 402.528 3.16863 5.23703 0
M  V30 4291 N 401.665 2.87647 6.40471 0
M  V30 4292 H 406.505 2.23511 1.97096 0
M  V30 4293 H 404.042 1.11105 0.964054 0
M  V30 4294 H 406 0.915012 4.07042 0
M  V30 4295 H 404.63 0.148822 3.22457 0
M  V30 4296 H 403.682 2.53711 2.83434 0
M  V30 4297 H 404.994 3.1601 3.85927 0
M  V30 4298 H 404.148 1.81099 5.7904 0
M  V30 4299 H 402.887 1.0839 4.75503 0
M  V30 4300 H 401.892 3.35404 4.35642 0
M  V30 4301 H 403.117 4.08339 5.4262 0
M  V30 4302 H 401.063 1.99568 6.24907 0
M  V30 4303 H 400.98 3.69141 6.59751 0
M  V30 4304 H 402.248 2.73226 7.30047 0
M  V30 4305 N 406.477 -1.02803 1.19454 0
M  V30 4306 C 407.407 -2.12999 0.956758 0
M  V30 4307 C 408.388 -1.69743 -0.110188 0
M  V30 4308 O 409.573 -1.94148 0.0450038 0
M  V30 4309 C 406.703 -3.43746 0.495553 0
M  V30 4310 C 405.657 -4.00688 1.50443 0
M  V30 4311 C 404.983 -5.27067 0.900275 0
M  V30 4312 C 406.283 -4.35397 2.8849 0
M  V30 4313 H 407.977 -2.33148 1.87836 0
M  V30 4314 H 405.523 -1.12045 0.904539 0
M  V30 4315 H 407.476 -4.2021 0.316493 0
M  V30 4316 H 406.2 -3.23321 -0.461646 0
M  V30 4317 H 404.859 -3.2632 1.67065 0
M  V30 4318 H 404.507 -5.02959 -0.064503 0
M  V30 4319 H 404.207 -5.66127 1.57397 0
M  V30 4320 H 405.731 -6.06196 0.73203 0
M  V30 4321 H 407.145 -5.02795 2.75446 0
M  V30 4322 H 405.542 -4.85541 3.52661 0
M  V30 4323 H 406.612 -3.44662 3.41081 0
M  V30 4324 N 407.956 -0.998596 -1.21925 0
M  V30 4325 C 409.196 -0.685948 -1.92546 0
M  V30 4326 C 409.56 0.768441 -1.75952 0
M  V30 4327 O 410.761 1.19277 -2.40887 0
M  V30 4328 C 409.032 -1.08767 -3.40448 0
M  V30 4329 S 410.591 -0.894251 -4.29591 0
M  V30 4330 H 407.409 -0.250622 -0.665364 0
M  V30 4331 H 410.011 -1.28207 -1.47591 0
M  V30 4332 H 408.715 -2.14242 -3.50041 0
M  V30 4333 H 408.246 -0.48357 -3.90417 0
M  V30 4334 H 410.261 0.212149 -4.95746 0
M  V30 4335 N 409.434 1.37368 -0.772513 0
M  V30 4336 C 410.85 1.53059 -0.452231 0
M  V30 4337 C 411.05 1.73065 1.03203 0
M  V30 4338 O 410.106 1.75245 1.81784 0
M  V30 4339 C 411.419 2.72659 -1.26797 0
M  V30 4340 C 412.967 2.86521 -1.25995 0
M  V30 4341 C 413.442 4.09105 -2.05905 0
M  V30 4342 N 414.933 4.16219 -2.03263 0
M  V30 4343 C 415.668 5.10107 -2.61875 0
M  V30 4344 N 415.164 6.09547 -3.29278 0
M  V30 4345 N 416.957 5.02596 -2.51701 0
M  V30 4346 H 409.108 1.22634 -1.7342 0
M  V30 4347 H 411.371 0.597206 -0.736239 0
M  V30 4348 H 411.077 2.64343 -2.31982 0
M  V30 4349 H 410.951 3.66363 -0.897672 0
M  V30 4350 H 413.338 2.94308 -0.216081 0
M  V30 4351 H 413.419 1.93774 -1.66989 0
M  V30 4352 H 413.063 4.0208 -3.10313 0
M  V30 4353 H 412.993 5.00968 -1.62292 0
M  V30 4354 H 415.484 3.45012 -1.54192 0
M  V30 4355 H 415.797 6.77718 -3.71374 0
M  V30 4356 H 414.142 6.09824 -3.33377 0
M  V30 4357 H 417.333 4.23855 -1.98657 0
M  V30 4358 H 417.506 5.75582 -2.97673 0
M  V30 4359 N 410.912 0.523116 1.48665 0
M  V30 4360 C 411.859 -0.243398 2.29513 0
M  V30 4361 C 412.829 -0.940139 1.36933 0
M  V30 4362 O 414.014 -0.942503 1.65896 0
M  V30 4363 C 411.154 -1.28855 3.20141 0
M  V30 4364 C 410.267 -0.60135 4.27794 0
M  V30 4365 C 409.402 -1.62884 5.05611 0
M  V30 4366 C 408.441 -0.924726 6.05075 0
M  V30 4367 N 407.578 -1.89744 6.75975 0
M  V30 4368 H 412.418 0.452234 2.94549 0
M  V30 4369 H 409.955 0.234858 1.45213 0
M  V30 4370 H 411.913 -1.90674 3.71079 0
M  V30 4371 H 410.543 -1.95266 2.57043 0
M  V30 4372 H 409.595 0.130623 3.80176 0
M  V30 4373 H 410.907 -0.0481585 4.98777 0
M  V30 4374 H 410.061 -2.32149 5.60528 0
M  V30 4375 H 408.8 -2.21592 4.34452 0
M  V30 4376 H 407.805 -0.217966 5.49368 0
M  V30 4377 H 409.03 -0.343851 6.78229 0
M  V30 4378 H 406.976 -2.47373 6.07571 0
M  V30 4379 H 406.893 -1.3955 7.43009 0
M  V30 4380 H 408.161 -2.58229 7.35485 0
M  V30 4381 N 412.39 -1.55475 0.257931 0
M  V30 4382 C 413.806 -1.59307 -0.0966563 0
M  V30 4383 C 414.006 -1.27514 -1.5602 0
M  V30 4384 O 413.062 -1.02774 -2.30637 0
M  V30 4385 C 414.375 -2.99552 0.262481 0
M  V30 4386 C 415.923 -3.1231 0.207683 0
M  V30 4387 C 416.398 -4.54793 0.541012 0
M  V30 4388 N 417.889 -4.6058 0.491921 0
M  V30 4389 C 418.624 -5.68825 0.722857 0
M  V30 4390 N 418.12 -6.85287 1.0175 0
M  V30 4391 N 419.913 -5.58296 0.652815 0
M  V30 4392 H 412.064 -1.74409 1.21224 0
M  V30 4393 H 414.327 -0.812424 0.48854 0
M  V30 4394 H 414.033 -3.27593 1.27967 0
M  V30 4395 H 413.907 -3.75019 -0.40508 0
M  V30 4396 H 416.294 -2.84044 -0.800195 0
M  V30 4397 H 416.375 -2.39095 0.909255 0
M  V30 4398 H 416.019 -4.83783 1.5465 0
M  V30 4399 H 415.949 -5.26285 -0.18216 0
M  V30 4400 H 418.44 -3.7691 0.273366 0
M  V30 4401 H 418.753 -7.63725 1.18084 0
M  V30 4402 H 417.098 -6.86945 1.05509 0
M  V30 4403 H 420.289 -4.66189 0.422592 0
M  V30 4404 H 420.462 -6.42582 0.836182 0
M  V30 4405 N 413.868 0.0150385 -1.57593 0
M  V30 4406 C 415.108 0.70768 -1.91758 0
M  V30 4407 C 415.472 1.71764 -0.857974 0
M  V30 4408 O 416.673 2.45956 -1.0844 0
M  V30 4409 C 414.944 1.34736 -3.3103 0
M  V30 4410 S 416.503 2.06721 -3.87056 0
M  V30 4411 H 413.321 0.234119 -0.671349 0
M  V30 4412 H 415.923 -0.0380373 -1.95463 0
M  V30 4413 H 414.627 0.59926 -4.06001 0
M  V30 4414 H 414.158 2.13133 -3.30663 0
M  V30 4415 H 416.173 3.34047 -3.66915 0
M  V30 4416 N 415.346 1.54954 0.287554 0
M  V30 4417 C 416.595 1.74081 1.01877 0
M  V30 4418 C 416.908 0.541135 1.87966 0
M  V30 4419 O 418.114 0.614491 2.64455 0
M  V30 4420 C 416.57 3.08042 1.86113 0
M  V30 4421 C 416.178 4.35531 1.04961 0
M  V30 4422 C 417.922 3.36523 2.58752 0
M  V30 4423 C 415.829 5.60538 1.88551 0
M  V30 4424 H 414.759 0.64884 0.384087 0
M  V30 4425 H 417.41 1.81426 0.275101 0
M  V30 4426 H 415.792 2.94696 2.64519 0
M  V30 4427 H 416.966 4.59751 0.31074 0
M  V30 4428 H 415.281 4.14085 0.43843 0
M  V30 4429 H 417.878 4.27122 3.21668 0
M  V30 4430 H 418.221 2.56 3.28283 0
M  V30 4431 H 418.754 3.50901 1.87386 0
M  V30 4432 H 415.493 6.43767 1.23466 0
M  V30 4433 H 415.013 5.40483 2.60074 0
M  V30 4434 H 416.692 5.98297 2.46273 0
M  V30 4435 N 416.824 -0.551391 1.4764 0
M  V30 4436 C 417.772 -1.67896 1.60978 0
M  V30 4437 C 418.766 -1.62549 0.476877 0
M  V30 4438 O 419.972 -1.67664 0.654878 0
M  V30 4439 H 416.347 -0.555649 0.506713 0
M  V30 4440 H 418.318 -1.53784 2.55721 0
M  V30 4441 C 417.067 -3.06234 1.64669 0
M  V30 4442 H 416.39 -3.11033 2.51194 0
M  V30 4443 H 417.83 -3.84804 1.7805 0
M  V30 4444 C 416.289 -3.34737 0.381115 0
M  V30 4445 O 416.819 -3.98381 -0.515297 0
M  V30 4446 N 415.025 -2.8944 0.259354 0
M  V30 4447 H 414.572 -2.37827 0.98976 0
M  V30 4448 H 414.53 -3.08882 -0.586464 0
M  V30 4449 N 418.302 -1.35869 -0.798587 0
M  V30 4450 C 419.234 -1.25305 -1.91915 0
M  V30 4451 C 420.247 -0.174548 -1.61862 0
M  V30 4452 O 421.436 -0.428499 -1.73281 0
M  V30 4453 C 418.536 -0.9086 -3.26493 0
M  V30 4454 C 417.709 -2.08711 -3.84394 0
M  V30 4455 C 416.768 -1.71717 -4.97393 0
M  V30 4456 O 415.794 -2.43692 -5.14396 0
M  V30 4457 N 416.996 -0.645473 -5.769 0
M  V30 4458 H 419.761 -2.21849 -2.01502 0
M  V30 4459 H 417.322 -1.29143 -0.976408 0
M  V30 4460 H 419.314 -0.642455 -3.99568 0
M  V30 4461 H 417.884 -0.0325815 -3.12583 0
M  V30 4462 H 417.104 -2.51659 -3.03416 0
M  V30 4463 H 418.392 -2.87468 -4.19809 0
M  V30 4464 H 417.79 -0.047648 -5.6568 0
M  V30 4465 H 416.347 -0.43913 -6.50319 0
M  V30 4466 N 419.78 1.02168 -1.19998 0
M  V30 4467 C 420.71 2.12488 -0.96804 0
M  V30 4468 C 421.691 1.69799 0.101185 0
M  V30 4469 O 422.876 1.94121 -0.0552993 0
M  V30 4470 C 420.006 3.43479 -0.513776 0
M  V30 4471 C 418.96 3.99884 -1.52566 0
M  V30 4472 C 418.286 5.26582 -0.928214 0
M  V30 4473 C 419.586 4.33861 -2.90795 0
M  V30 4474 H 421.28 2.32149 -1.89069 0
M  V30 4475 H 418.826 1.11564 -0.910468 0
M  V30 4476 H 420.779 4.20036 -0.338774 0
M  V30 4477 H 419.503 3.23561 0.444493 0
M  V30 4478 H 418.162 3.25429 -1.68794 0
M  V30 4479 H 417.81 5.02986 0.0378289 0
M  V30 4480 H 417.51 5.65284 -1.60397 0
M  V30 4481 H 419.034 6.05799 -0.764167 0
M  V30 4482 H 420.448 5.01327 -2.78109 0
M  V30 4483 H 418.845 4.83664 -3.55231 0
M  V30 4484 H 419.915 3.42848 -3.42904 0
M  V30 4485 N 421.258 1.00505 1.21394 0
M  V30 4486 C 422.188 0.585684 2.26035 0
M  V30 4487 C 423.169 -0.393525 1.65485 0
M  V30 4488 O 424.354 -0.281497 1.92149 0
M  V30 4489 C 421.484 -0.0884283 3.47187 0
M  V30 4490 C 420.438 0.810567 4.20254 0
M  V30 4491 C 419.764 0.00286382 5.347 0
M  V30 4492 C 421.064 2.1132 4.77641 0
M  V30 4493 H 422.758 1.46039 2.61368 0
M  V30 4494 H 420.304 0.703648 1.25638 0
M  V30 4495 H 422.257 -0.393286 4.19561 0
M  V30 4496 H 420.981 -0.997766 3.10986 0
M  V30 4497 H 419.64 1.09925 3.49731 0
M  V30 4498 H 419.288 -0.907765 4.94741 0
M  V30 4499 H 418.988 0.601444 5.84514 0
M  V30 4500 H 420.512 -0.295808 6.09883 0
M  V30 4501 H 421.926 1.87148 5.41893 0
M  V30 4502 H 420.323 2.66164 5.37845 0
M  V30 4503 H 421.393 2.78393 3.9702 0
M  V30 4504 N 422.737 -1.36956 0.779787 0
M  V30 4505 C 423.977 -2.01328 0.353043 0
M  V30 4506 C 424.341 -1.60558 -1.05286 0
M  V30 4507 O 425.542 -2.1745 -1.58016 0
M  V30 4508 C 423.813 -3.53874 0.500822 0
M  V30 4509 S 425.372 -4.38506 0.16053 0
M  V30 4510 H 422.19 -0.69799 0.13539 0
M  V30 4511 H 424.792 -1.67016 1.01617 0
M  V30 4512 H 423.496 -3.81034 1.52451 0
M  V30 4513 H 423.027 -3.92994 -0.178574 0
M  V30 4514 H 425.042 -4.85153 -1.04121 0
M  V30 4515 N 424.215 -0.530993 -1.48385 0
M  V30 4516 C 425.162 0.231223 -2.29639 0
M  V30 4517 C 426.132 0.932864 -1.37429 0
M  V30 4518 O 427.317 0.933692 -1.66394 0
M  V30 4519 C 424.457 1.27155 -3.2082 0
M  V30 4520 C 423.57 0.578655 -4.28107 0
M  V30 4521 C 422.705 1.602 -5.06467 0
M  V30 4522 C 421.744 0.892625 -6.05556 0
M  V30 4523 N 420.881 1.86157 -6.76971 0
M  V30 4524 H 425.721 -0.467848 -2.94305 0
M  V30 4525 H 423.258 -0.242556 -1.45086 0
M  V30 4526 H 425.216 1.88703 -3.72085 0
M  V30 4527 H 423.846 1.939 -2.58075 0
M  V30 4528 H 422.898 -0.150782 -3.80101 0
M  V30 4529 H 424.21 0.0217065 -4.98795 0
M  V30 4530 H 423.364 2.29173 -5.61751 0
M  V30 4531 H 422.103 2.19285 -4.35621 0
M  V30 4532 H 421.108 0.188829 -5.49476 0
M  V30 4533 H 422.333 0.307878 -6.78402 0
M  V30 4534 H 420.279 2.44147 -6.08875 0
M  V30 4535 H 420.196 1.35608 -7.43738 0
M  V30 4536 H 421.464 2.54325 -7.36844 0
M  V30 4537 N 425.693 1.55336 -0.266172 0
M  V30 4538 C 426.623 2.25146 0.618981 0
M  V30 4539 C 427.604 1.23845 1.16604 0
M  V30 4540 O 428.789 1.52544 1.20183 0
M  V30 4541 C 425.919 2.96572 1.80728 0
M  V30 4542 C 424.873 4.04726 1.39215 0
M  V30 4543 C 424.199 4.63678 2.66283 0
M  V30 4544 C 425.499 5.19407 0.548942 0
M  V30 4545 H 427.193 2.99377 0.0368116 0
M  V30 4546 H 424.739 1.43991 0.0162651 0
M  V30 4547 H 426.692 3.44116 2.43232 0
M  V30 4548 H 425.416 2.19861 2.41514 0
M  V30 4549 H 424.075 3.57979 0.790351 0
M  V30 4550 H 423.723 3.83646 3.25308 0
M  V30 4551 H 423.423 5.367 2.39222 0
M  V30 4552 H 424.947 5.13967 3.29651 0
M  V30 4553 H 426.361 5.63059 1.07876 0
M  V30 4554 H 424.758 5.98936 0.373593 0
M  V30 4555 H 425.828 4.8295 -0.434394 0
M  V30 4556 N 427.171 -0.0066808 1.57599 0
M  V30 4557 C 428.582 -0.550379 1.78403 0
M  V30 4558 C 428.933 -1.74339 0.900014 0
M  V30 4559 O 428.058 -2.16166 0.100713 0
M  V30 4560 C 428.653 -1.00523 3.23544 0
M  V30 4561 C 427.212 -1.49428 3.45468 0
M  V30 4562 C 426.359 -0.442444 2.73748 0
M  V30 4563 H 429.31 0.219508 1.57175 0
M  V30 4564 H 429.331 -1.87157 3.31289 0
M  V30 4565 H 428.843 -0.136735 3.87859 0
M  V30 4566 H 426.944 -2.3839 2.86358 0
M  V30 4567 H 427.057 -1.52635 4.54136 0
M  V30 4568 H 425.421 -0.902578 2.38171 0
M  V30 4569 H 426.204 0.416973 3.40758 0
M  V30 4570 N 428.649 -1.55105 -0.279332 0
M  V30 4571 C 429.877 -1.7943 -1.03017 0
M  V30 4572 C 430.292 -0.564456 -1.80165 0
M  V30 4573 O 429.649 0.466326 -1.76442 0
M  V30 4574 C 429.7 -3.0155 -1.99374 0
M  V30 4575 O 429.421 -4.19784 -1.25352 0
M  V30 4576 C 430.922 -3.3843 -2.86321 0
M  V30 4577 H 428.142 -0.597882 -0.304594 0
M  V30 4578 H 430.686 -2.02105 -0.312035 0
M  V30 4579 H 428.841 -2.81019 -2.66659 0
M  V30 4580 H 429.255 -4.88781 -1.90246 0
M  V30 4581 H 430.729 -4.27066 -3.49741 0
M  V30 4582 H 431.206 -2.57549 -3.5576 0
M  V30 4583 H 431.812 -3.61197 -2.24536 0
M  V30 4584 N 430.127 0.543554 -1.4793 0
M  V30 4585 C 431.404 1.30458 -1.4574 0
M  V30 4586 C 431.784 2.1048 -0.161692 0
M  V30 4587 O 431.132 2.11831 0.856734 0
M  V30 4588 C 431.342 2.19754 -2.71126 0
M  V30 4589 C 432.69 2.80334 -3.18901 0
M  V30 4590 O 433.714 2.30049 -2.71948 0
M  V30 4591 O 432.573 3.71766 -4.00565 0
M  V30 4592 H 429.667 0.588117 -0.581418 0
M  V30 4593 H 432.213 0.561328 -1.60147 0
M  V30 4594 H 430.985 1.60316 -3.56952 0
M  V30 4595 H 430.608 3.01351 -2.59371 0
M  V30 4596 N 431.605 1.3629 0.791371 0
M  V30 4597 C 432.83 1.33726 1.58531 0
M  V30 4598 C 433.255 -0.0794933 1.87932 0
M  V30 4599 O 432.613 -1.05087 1.47738 0
M  V30 4600 C 432.661 2.16425 2.88431 0
M  V30 4601 O 431.765 1.5554 3.81944 0
M  V30 4602 H 431.106 0.457793 0.480959 0
M  V30 4603 H 433.636 1.79547 0.981031 0
M  V30 4604 H 433.646 2.28933 3.37718 0
M  V30 4605 H 432.321 3.19415 2.66359 0
M  V30 4606 H 430.898 1.51961 3.40532 0
M  V30 4607 N 433.083 -1.0153 1.20538 0
M  V30 4608 C 433.993 -2.13557 0.971113 0
M  V30 4609 C 435.009 -1.73845 -0.0734366 0
M  V30 4610 O 436.185 -2.01075 0.114299 0
M  V30 4611 C 433.25 -3.42661 0.527639 0
M  V30 4612 C 432.311 -3.96608 1.64319 0
M  V30 4613 C 431.544 -5.1955 1.22078 0
M  V30 4614 O 431.767 -5.70329 0.0900198 0
M  V30 4615 O 430.701 -5.66681 2.02871 0
M  V30 4616 H 434.527 -2.3619 1.90913 0
M  V30 4617 H 432.112 -1.11946 0.989362 0
M  V30 4618 H 433.994 -4.20404 0.289621 0
M  V30 4619 H 432.669 -3.21441 -0.381779 0
M  V30 4620 H 431.576 -3.20139 1.93551 0
M  V30 4621 H 432.909 -4.22219 2.52966 0
M  V30 4622 N 434.561 -1.01147 -1.20859 0
M  V30 4623 C 435.491 -0.597663 -2.25722 0
M  V30 4624 C 436.472 0.384744 -1.65692 0
M  V30 4625 O 437.657 0.271303 -1.92296 0
M  V30 4626 C 434.787 0.0700149 -3.47229 0
M  V30 4627 C 433.741 -0.832843 -4.19819 0
M  V30 4628 C 433.067 -0.0312202 -5.34691 0
M  V30 4629 C 434.367 -2.1385 -4.76514 0
M  V30 4630 H 436.061 -1.47423 -2.60589 0
M  V30 4631 H 433.607 -0.710301 -1.25263 0
M  V30 4632 H 435.56 0.37103 -4.19763 0
M  V30 4633 H 434.284 0.981259 -3.11511 0
M  V30 4634 H 432.943 -1.11778 -3.49144 0
M  V30 4635 H 432.591 0.881515 -4.95215 0
M  V30 4636 H 432.291 -0.632434 -5.84187 0
M  V30 4637 H 433.815 0.26346 -6.10031 0
M  V30 4638 H 435.229 -1.9002 -5.40893 0
M  V30 4639 H 433.626 -2.69012 -5.36426 0
M  V30 4640 H 434.696 -2.80495 -3.95538 0
M  V30 4641 N 436.039 1.36541 -0.78704 0
M  V30 4642 C 437.002 2.28413 -0.189778 0
M  V30 4643 C 438.002 1.48719 0.611499 0
M  V30 4644 O 439.192 1.68737 0.432842 0
M  V30 4645 C 436.324 3.32824 0.737638 0
M  V30 4646 H 437.517 2.82743 -0.999831 0
M  V30 4647 H 435.07 1.46065 -0.556298 0
M  V30 4648 H 435.805 2.83646 1.57212 0
M  V30 4649 H 435.59 3.91752 0.165044 0
M  V30 4650 H 437.08 4.0144 1.15047 0
M  V30 4651 N 437.518 0.538854 1.48102 0
M  V30 4652 C 438.929 0.100679 1.86428 0
M  V30 4653 C 439.28 -1.32447 1.44749 0
M  V30 4654 O 438.405 -1.99339 0.842199 0
M  V30 4655 C 439 0.175933 3.38343 0
M  V30 4656 C 437.559 -0.207098 3.7583 0
M  V30 4657 C 436.706 0.531741 2.72154 0
M  V30 4658 H 439.657 0.749614 1.3988 0
M  V30 4659 H 439.678 -0.610144 3.75576 0
M  V30 4660 H 439.19 1.21328 3.68648 0
M  V30 4661 H 437.291 -1.24626 3.5114 0
M  V30 4662 H 437.404 0.138687 4.78899 0
M  V30 4663 H 435.768 -0.0230462 2.5469 0
M  V30 4664 H 436.551 1.56989 3.05302 0
M  V30 4665 N 438.996 -1.55193 0.274407 0
M  V30 4666 C 440.412 -1.59401 -0.0797543 0
M  V30 4667 C 440.612 -1.29162 -1.54659 0
M  V30 4668 O 439.668 -1.05215 -2.29534 0
M  V30 4669 C 440.981 -2.99257 0.294238 0
M  V30 4670 C 442.529 -3.12072 0.240796 0
M  V30 4671 C 443.004 -4.54194 0.589218 0
M  V30 4672 N 444.495 -4.60033 0.540744 0
M  V30 4673 C 445.23 -5.68027 0.783147 0
M  V30 4674 N 444.726 -6.8417 1.09013 0
M  V30 4675 N 446.519 -5.57572 0.711993 0
M  V30 4676 H 438.67 -1.73113 1.23067 0
M  V30 4677 H 440.933 -0.807197 0.497129 0
M  V30 4678 H 440.639 -3.26217 1.31435 0
M  V30 4679 H 440.513 -3.75427 -0.365281 0
M  V30 4680 H 442.9 -2.84877 -0.770024 0
M  V30 4681 H 442.981 -2.38117 0.934563 0
M  V30 4682 H 442.625 -4.82115 1.59772 0
M  V30 4683 H 442.555 -5.26448 -0.126331 0
M  V30 4684 H 445.046 -3.76599 0.313327 0
M  V30 4685 H 445.359 -7.6243 1.26178 0
M  V30 4686 H 443.704 -6.85787 1.12789 0
M  V30 4687 H 446.895 -4.65714 0.472014 0
M  V30 4688 H 447.068 -6.41659 0.90429 0
M  V30 4689 N 440.474 -0.00167713 -1.576 0
M  V30 4690 C 441.699 0.69739 -1.95323 0
M  V30 4691 C 442.124 1.6642 -0.876706 0
M  V30 4692 O 441.482 1.80548 0.165007 0
M  V30 4693 C 441.53 1.40403 -3.32144 0
M  V30 4694 O 440.634 2.5185 -3.26566 0
M  V30 4695 H 439.975 0.185373 -0.637599 0
M  V30 4696 H 442.505 -0.0553665 -2.04525 0
M  V30 4697 H 442.515 1.76707 -3.67748 0
M  V30 4698 H 441.19 0.695167 -4.10049 0
M  V30 4699 H 439.767 2.17861 -3.0264 0
M  V30 4700 N 441.952 1.55251 0.271103 0
M  V30 4701 C 443.192 1.77698 1.01008 0
M  V30 4702 C 443.556 0.567246 1.83429 0
M  V30 4703 O 444.757 0.670013 2.60316 0
M  V30 4704 C 443.028 3.04715 1.86772 0
M  V30 4705 Se 444.587 3.48289 2.66909 0
M  V30 4706 H 441.405 0.624343 0.340172 0
M  V30 4707 H 444.007 1.9348 0.280315 0
M  V30 4708 H 442.711 3.90853 1.25149 0
M  V30 4709 H 442.242 2.91604 2.64066 0
M  V30 4710 H 444.257 3.07712 3.89266 0
M  V30 4711 N 443.43 -0.535701 1.48216 0
M  V30 4712 C 444.67 -1.30238 1.57536 0
M  V30 4713 C 445.034 -1.90479 0.241229 0
M  V30 4714 O 446.235 -2.67983 0.20938 0
M  V30 4715 C 444.506 -2.3669 2.67792 0
M  V30 4716 S 446.065 -3.23159 2.9684 0
M  V30 4717 H 442.883 -0.443093 0.556048 0
M  V30 4718 H 445.485 -0.610937 1.85709 0
M  V30 4719 H 444.189 -1.90905 3.63296 0
M  V30 4720 H 443.72 -3.10548 2.41502 0
M  V30 4721 H 445.735 -4.36647 2.35699 0
M  V30 4722 N 444.908 -1.36708 -0.784132 0
M  V30 4723 C 446.148 -1.32618 -1.55537 0
M  V30 4724 C 446.512 0.0920681 -1.91779 0
M  V30 4725 O 447.713 0.257573 -2.67563 0
M  V30 4726 C 445.984 -2.22788 -2.79464 0
M  V30 4727 S 447.543 -2.36432 -3.69656 0
M  V30 4728 H 444.361 -0.470973 -0.53264 0
M  V30 4729 H 446.963 -1.72333 -0.92312 0
M  V30 4730 H 445.667 -3.24774 -2.50899 0
M  V30 4731 H 445.198 -1.84112 -3.47658 0
M  V30 4732 H 447.213 -1.56573 -4.7085 0
M  V30 4733 N 446.386 1.0089 -1.21074 0
M  V30 4734 C 447.336 2.0799 -0.934034 0
M  V30 4735 C 448.32 1.60529 0.10919 0
M  V30 4736 O 449.512 1.76722 -0.0992198 0
M  V30 4737 C 446.641 3.39693 -0.496334 0
M  V30 4738 C 445.727 3.93833 -1.57341 0
M  V30 4739 N 446.118 4.21388 -2.7976 0
M  V30 4740 C 444.416 4.22067 -1.44137 0
M  V30 4741 C 445.117 4.65156 -3.49292 0
M  V30 4742 N 444.093 4.67895 -2.76722 0
M  V30 4743 H 447.895 2.27213 -1.86417 0
M  V30 4744 H 445.409 1.18927 -1.10589 0
M  V30 4745 H 447.406 4.15962 -0.279471 0
M  V30 4746 H 446.066 3.21879 0.427084 0
M  V30 4747 H 447.077 4.10061 -3.1634 0
M  V30 4748 H 443.754 4.1341 -0.582947 0
M  V30 4749 H 445.144 4.95231 -4.54088 0
M  V30 4750 N 447.864 1.01787 1.20321 0
M  V30 4751 C 449.104 0.716493 1.91431 0
M  V30 4752 C 449.468 -0.740352 1.77152 0
M  V30 4753 O 450.669 -1.1543 2.42754 0
M  V30 4754 C 448.94 1.14169 3.38674 0
M  V30 4755 S 450.499 0.962482 4.28114 0
M  V30 4756 H 447.317 0.261175 0.661293 0
M  V30 4757 H 449.919 1.30539 1.45533 0
M  V30 4758 H 448.623 2.19784 3.46588 0
M  V30 4759 H 448.154 0.545621 3.89598 0
M  V30 4760 H 450.169 -0.133253 4.96021 0
M  V30 4761 N 449.342 -1.36122 0.79427 0
M  V30 4762 C 450.758 -1.5232 0.476525 0
M  V30 4763 C 450.958 -1.74685 -1.00436 0
M  V30 4764 O 450.014 -1.78115 -1.78973 0
M  V30 4765 C 451.327 -2.70607 1.31119 0
M  V30 4766 C 452.875 -2.8448 1.30537 0
M  V30 4767 C 453.35 -4.05778 2.12387 0
M  V30 4768 N 454.841 -4.12933 2.09859 0
M  V30 4769 C 455.576 -5.05876 2.69957 0
M  V30 4770 N 455.072 -6.04232 3.38934 0
M  V30 4771 N 456.865 -4.98528 2.59665 0
M  V30 4772 H 449.016 -1.1986 1.75349 0
M  V30 4773 H 451.279 -0.585418 0.745647 0
M  V30 4774 H 450.985 -2.60619 2.36158 0
M  V30 4775 H 450.859 -3.64888 0.955843 0
M  V30 4776 H 453.246 -2.93927 0.262876 0
M  V30 4777 H 453.327 -1.91093 1.70051 0
M  V30 4778 H 452.971 -3.97092 3.1667 0
M  V30 4779 H 452.901 -4.98323 1.70242 0
M  V30 4780 H 455.392 -3.42515 1.59662 0
M  V30 4781 H 455.705 -6.71724 3.82109 0
M  V30 4782 H 454.05 -6.04443 3.43036 0
M  V30 4783 H 457.241 -4.20641 2.05375 0
M  V30 4784 H 457.414 -5.70773 3.06793 0
M  V30 4785 N 450.82 -0.546701 -1.47814 0
M  V30 4786 C 451.77 0.227042 -2.26867 0
M  V30 4787 C 452.754 0.894844 -1.33721 0
M  V30 4788 O 453.946 0.794887 -1.58147 0
M  V30 4789 C 451.075 1.26299 -3.19223 0
M  V30 4790 C 450.161 0.59913 -4.19847 0
M  V30 4791 N 450.552 -0.324777 -5.04756 0
M  V30 4792 C 448.85 0.854331 -4.37741 0
M  V30 4793 C 449.551 -0.709386 -5.77358 0
M  V30 4794 N 448.527 -0.0666153 -5.43559 0
M  V30 4795 H 452.329 -0.483476 -2.89896 0
M  V30 4796 H 449.843 -0.365893 -1.58224 0
M  V30 4797 H 451.84 1.83116 -3.74532 0
M  V30 4798 H 450.5 1.97471 -2.57751 0
M  V30 4799 H 451.511 -0.698351 -5.1317 0
M  V30 4800 H 448.188 1.55536 -3.87447 0
M  V30 4801 H 449.578 -1.46796 -6.55668 0
M  V30 4802 N 452.299 1.55045 -0.282633 0
M  V30 4803 C 453.229 2.2579 0.595066 0
M  V30 4804 C 454.21 1.25074 1.15284 0
M  V30 4805 O 455.395 1.5381 1.18559 0
M  V30 4806 C 452.525 2.98472 1.77572 0
M  V30 4807 C 451.479 4.0618 1.34914 0
M  V30 4808 C 450.805 4.66477 2.6135 0
M  V30 4809 C 452.105 5.1996 0.493821 0
M  V30 4810 H 453.799 2.994 0.00505653 0
M  V30 4811 H 451.345 1.44 0.000992001 0
M  V30 4812 H 453.298 3.46677 2.39568 0
M  V30 4813 H 452.022 2.2241 2.39168 0
M  V30 4814 H 450.681 3.58797 0.752338 0
M  V30 4815 H 450.329 3.87074 3.2122 0
M  V30 4816 H 450.029 5.39207 2.33516 0
M  V30 4817 H 451.553 5.17435 3.24181 0
M  V30 4818 H 452.967 5.64172 1.01898 0
M  V30 4819 H 451.364 5.99299 0.310047 0
M  V30 4820 H 452.434 4.82462 -0.485593 0
M  V30 4821 N 453.777 0.010035 1.57597 0
M  V30 4822 C 455.026 -0.671945 1.90178 0
M  V30 4823 C 455.339 -1.74376 0.886131 0
M  V30 4824 O 456.545 -2.48107 1.10252 0
M  V30 4825 C 455.001 -1.24636 3.3763 0
M  V30 4826 C 454.609 -0.208838 4.47513 0
M  V30 4827 C 456.353 -1.90595 3.79307 0
M  V30 4828 C 454.26 -0.793814 5.86048 0
M  V30 4829 H 453.19 -0.25474 0.709665 0
M  V30 4830 H 455.841 0.0722206 1.83358 0
M  V30 4831 H 454.223 -2.04152 3.3932 0
M  V30 4832 H 455.397 0.562463 4.57354 0
M  V30 4833 H 453.712 0.350889 4.14919 0
M  V30 4834 H 456.309 -2.35284 4.80151 0
M  V30 4835 H 456.652 -2.74074 3.13352 0
M  V30 4836 H 457.185 -1.17798 3.79958 0
M  V30 4837 H 453.924 0.00240855 6.555 0
M  V30 4838 H 453.444 -1.53404 5.79851 0
M  V30 4839 H 455.123 -1.2894 6.34022 0
M  V30 4840 N 455.255 -1.55392 -0.262866 0
M  V30 4841 C 456.502 -1.76476 -0.993109 0
M  V30 4842 C 456.83 -0.571479 -1.85915 0
M  V30 4843 O 456.085 0.445733 -1.90556 0
M  V30 4844 C 456.384 -3.02889 -1.89718 0
M  V30 4845 C 456.05 -4.34974 -1.18781 0
M  V30 4846 C 454.712 -4.7087 -0.991699 0
M  V30 4847 C 457.064 -5.16695 -0.683798 0
M  V30 4848 C 454.392 -5.86036 -0.279024 0
M  V30 4849 C 456.744 -6.32598 0.0153327 0
M  V30 4850 C 455.408 -6.67127 0.223062 0
M  V30 4851 H 454.678 -0.64577 -0.363404 0
M  V30 4852 H 457.325 -1.89664 -0.264525 0
M  V30 4853 H 455.63 -2.84644 -2.6923 0
M  V30 4854 H 457.327 -3.16399 -2.46359 0
M  V30 4855 H 453.917 -4.06765 -1.35058 0
M  V30 4856 H 458.101 -4.8943 -0.8229 0
M  V30 4857 H 453.357 -6.11306 -0.107456 0
M  V30 4858 H 457.531 -6.95171 0.413584 0
M  V30 4859 H 455.158 -7.56216 0.777265 0
M  V30 4860 N 456.733 0.527833 -1.48498 0
M  V30 4861 C 457.643 1.65907 -1.65867 0
M  V30 4862 C 458.659 1.6537 -0.541192 0
M  V30 4863 O 459.835 1.84282 -0.812534 0
M  V30 4864 C 456.9 3.02364 -1.69637 0
M  V30 4865 C 455.961 3.1374 -2.93028 0
M  V30 4866 C 455.194 4.43688 -2.96609 0
M  V30 4867 O 455.417 5.30913 -2.08538 0
M  V30 4868 O 454.351 4.59475 -3.88802 0
M  V30 4869 H 458.177 1.5419 -2.61647 0
M  V30 4870 H 455.762 0.701163 -1.31924 0
M  V30 4871 H 457.644 3.83515 -1.74625 0
M  V30 4872 H 456.319 3.14401 -0.770312 0
M  V30 4873 H 455.226 2.31877 -2.93571 0
M  V30 4874 H 456.559 3.06621 -3.85026 0
M  V30 4875 N 458.211 1.37122 0.776871 0
M  V30 4876 C 459.158 1.3247 1.88998 0
M  V30 4877 C 460.128 0.191143 1.64997 0
M  V30 4878 O 461.313 0.379683 1.86984 0
M  V30 4879 C 458.453 1.13241 3.25992 0
M  V30 4880 C 457.566 2.35782 3.61982 0
M  V30 4881 C 456.701 2.09465 4.88158 0
M  V30 4882 C 455.74 3.279 5.16864 0
M  V30 4883 N 454.877 3.01167 6.34226 0
M  V30 4884 H 459.717 2.27642 1.9231 0
M  V30 4885 H 457.254 1.13125 0.94027 0
M  V30 4886 H 459.212 1.00115 4.0501 0
M  V30 4887 H 457.842 0.217186 3.22069 0
M  V30 4888 H 456.894 2.59666 2.77989 0
M  V30 4889 H 458.206 3.24125 3.79137 0
M  V30 4890 H 457.36 1.93341 5.75069 0
M  V30 4891 H 456.099 1.18452 4.73097 0
M  V30 4892 H 455.104 3.44569 4.2843 0
M  V30 4893 H 456.329 4.19757 5.33836 0
M  V30 4894 H 454.275 2.12779 6.20533 0
M  V30 4895 H 454.192 3.83052 6.51772 0
M  V30 4896 H 455.46 2.88649 7.24087 0
M  V30 4897 N 459.689 -1.00246 1.21608 0
M  V30 4898 C 460.917 -1.77631 1.06089 0
M  V30 4899 C 461.332 -1.84746 -0.38916 0
M  V30 4900 O 460.689 -1.31068 -1.26994 0
M  V30 4901 C 460.74 -3.21415 1.65453 0
M  V30 4902 O 460.461 -3.14703 3.04785 0
M  V30 4903 C 461.962 -4.15289 1.55079 0
M  V30 4904 H 459.182 -0.558162 0.37242 0
M  V30 4905 H 461.726 -1.26093 1.60999 0
M  V30 4906 H 459.881 -3.70053 1.14629 0
M  V30 4907 H 460.295 -4.05056 3.33212 0
M  V30 4908 H 461.769 -5.13965 2.01355 0
M  V30 4909 H 462.246 -4.36279 0.505665 0
M  V30 4910 H 462.852 -3.72543 2.05163 0
M  V30 4911 N 461.167 -1.02423 -1.1978 0
M  V30 4912 C 462.415 -0.716569 -1.8897 0
M  V30 4913 C 462.736 0.756769 -1.79716 0
M  V30 4914 O 462.006 1.5449 -1.20456 0
M  V30 4915 H 460.586 -0.262062 -0.699523 0
M  V30 4916 H 463.248 -1.29747 -1.45436 0
M  V30 4917 H 462.344 -1.00675 -2.95417 0
M  V30 4918 N 462.645 1.35699 -0.801477 0
M  V30 4919 C 463.87 2.03687 -0.390678 0
M  V30 4920 C 464.295 1.60015 0.988778 0
M  V30 4921 O 463.653 0.774357 1.63931 0
M  V30 4922 C 463.701 3.57439 -0.476404 0
M  V30 4923 O 462.805 4.09208 0.512106 0
M  V30 4924 H 462.146 0.64344 -0.163956 0
M  V30 4925 H 464.676 1.73403 -1.08594 0
M  V30 4926 H 464.686 4.06544 -0.344357 0
M  V30 4927 H 463.361 3.88576 -1.48262 0
M  V30 4928 H 461.938 3.7134 0.340721 0
M  V30 4929 N 464.123 0.554532 1.47522 0
M  V30 4930 C 465.086 -0.184174 2.28459 0
M  V30 4931 C 466.086 -0.845195 1.36796 0
M  V30 4932 O 467.276 -0.701467 1.59452 0
M  V30 4933 C 464.408 -1.26903 3.16399 0
M  V30 4934 H 465.601 0.526751 2.95238 0
M  V30 4935 H 463.154 0.311375 1.53167 0
M  V30 4936 H 463.889 -2.01244 2.54306 0
M  V30 4937 H 463.674 -0.799883 3.83854 0
M  V30 4938 H 465.164 -1.78794 3.77389 0
M  V30 4939 N 465.601 -1.54893 0.290851 0
M  V30 4940 C 466.85 -1.99111 -0.322113 0
M  V30 4941 C 467.163 -1.18283 -1.55784 0
M  V30 4942 O 468.369 -1.5272 -2.24475 0
M  V30 4943 C 466.825 -3.54442 -0.624438 0
M  V30 4944 C 466.433 -4.44066 0.592373 0
M  V30 4945 C 468.177 -4.07211 -1.19916 0
M  V30 4946 C 466.084 -5.90812 0.263762 0
M  V30 4947 H 465.014 -0.743712 -0.124133 0
M  V30 4948 H 467.665 -1.79132 0.39797 0
M  V30 4949 H 466.047 -3.70281 -1.40384 0
M  V30 4950 H 467.221 -4.39999 1.36886 0
M  V30 4951 H 465.536 -4.02015 1.08502 0
M  V30 4952 H 468.133 -5.14407 -1.45909 0
M  V30 4953 H 468.476 -3.57196 -2.13815 0
M  V30 4954 H 469.009 -3.94873 -0.481687 0
M  V30 4955 H 465.748 -6.44955 1.17105 0
M  V30 4956 H 465.268 -5.97911 -0.475655 0
M  V30 4957 H 466.947 -6.46852 -0.138354 0
M  V30 4958 N 467.08 -0.0183926 -1.57589 0
M  V30 4959 C 468.308 0.673046 -1.95647 0
M  V30 4960 C 468.723 1.66275 -0.894312 0
M  V30 4961 O 468.08 1.82072 0.124975 0
M  V30 4962 C 468.131 1.38884 -3.33756 0
M  V30 4963 O 467.852 0.438806 -4.35897 0
M  V30 4964 C 469.353 2.1731 -3.86383 0
M  V30 4965 H 466.573 0.186292 -0.644621 0
M  V30 4966 H 469.117 -0.0749748 -2.04363 0
M  V30 4967 H 467.272 2.08835 -3.26293 0
M  V30 4968 H 467.686 0.945869 -5.15901 0
M  V30 4969 H 469.16 2.62863 -4.85394 0
M  V30 4970 H 469.637 3.00764 -3.20059 0
M  V30 4971 H 470.243 1.52339 -3.97081 0
M  V30 4972 N 468.558 1.5553 0.254621 0
M  V30 4973 C 469.798 1.7876 0.991179 0
M  V30 4974 C 470.162 0.586669 1.82817 0
M  V30 4975 O 471.363 0.697585 2.5959 0
M  V30 4976 C 469.634 3.06679 1.83529 0
M  V30 4977 Se 471.193 3.511 2.632 0
M  V30 4978 H 468.011 0.627916 0.333531 0
M  V30 4979 H 470.613 1.93766 0.259778 0
M  V30 4980 H 469.317 3.92158 1.20996 0
M  V30 4981 H 468.848 2.94388 2.60958 0
M  V30 4982 H 470.863 3.11823 3.8598 0
M  V30 4983 N 470.036 -0.519951 1.48776 0
M  V30 4984 C 470.968 -1.63973 1.60142 0
M  V30 4985 C 471.981 -1.55404 0.485117 0
M  V30 4986 O 473.17 -1.61682 0.756391 0
M  V30 4987 C 470.27 -3.02676 1.52449 0
M  V30 4988 C 469.443 -3.36624 2.79291 0
M  V30 4989 C 468.502 -4.54652 2.64912 0
M  V30 4990 O 467.528 -4.57374 3.38818 0
M  V30 4991 N 468.73 -5.53432 1.75195 0
M  V30 4992 H 471.495 -1.54656 2.56713 0
M  V30 4993 H 469.056 -0.707439 1.45626 0
M  V30 4994 H 471.048 -3.79525 1.4051 0
M  V30 4995 H 469.618 -3.06018 0.638125 0
M  V30 4996 H 468.838 -2.48855 3.0572 0
M  V30 4997 H 470.126 -3.56094 3.6342 0
M  V30 4998 H 469.524 -5.54018 1.14371 0
M  V30 4999 H 468.081 -6.29459 1.69189 0
M  V30 5000 N 471.514 -1.37532 -0.769588 0
M  V30 5001 C 472.754 -1.34261 -1.54122 0
M  V30 5002 C 473.118 0.0717222 -1.91866 0
M  V30 5003 O 474.319 0.22918 -2.67821 0
M  V30 5004 C 472.59 -2.2574 -2.77086 0
M  V30 5005 S 474.149 -2.40339 -3.67127 0
M  V30 5006 H 470.967 -0.476595 -0.527615 0
M  V30 5007 H 473.569 -1.73303 -0.90479 0
M  V30 5008 H 472.273 -3.27417 -2.4744 0
M  V30 5009 H 471.804 -1.87789 -3.45686 0
M  V30 5010 H 473.819 -1.61558 -4.69163 0
M  V30 5011 N 472.992 0.995999 -1.22138 0
M  V30 5012 C 473.939 2.08551 -0.988687 0
M  V30 5013 C 474.909 1.65864 0.0885021 0
M  V30 5014 O 476.094 1.90704 -0.0604589 0
M  V30 5015 C 473.234 3.40374 -0.569191 0
M  V30 5016 C 472.347 3.96421 -1.71681 0
M  V30 5017 C 471.482 5.1639 -1.2456 0
M  V30 5018 C 470.521 5.64567 -2.36497 0
M  V30 5019 N 469.658 6.75777 -1.90445 0
M  V30 5020 H 474.498 2.2779 -1.92135 0
M  V30 5021 H 472.035 1.1168 -0.957388 0
M  V30 5022 H 473.993 4.16068 -0.307166 0
M  V30 5023 H 472.623 3.21145 0.326462 0
M  V30 5024 H 471.675 3.17628 -2.09324 0
M  V30 5025 H 472.987 4.2816 -2.55891 0
M  V30 5026 H 472.141 5.99362 -0.940774 0
M  V30 5027 H 470.88 4.86266 -0.373662 0
M  V30 5028 H 469.885 4.80185 -2.67772 0
M  V30 5029 H 471.11 5.96716 -3.24202 0
M  V30 5030 H 469.056 6.47443 -1.05609 0
M  V30 5031 H 468.973 7.06818 -2.68223 0
M  V30 5032 H 470.241 7.62262 -1.63022 0
M  V30 5033 N 474.47 1.03057 1.19235 0
M  V30 5034 C 475.38 0.622922 2.26179 0
M  V30 5035 C 476.396 -0.346113 1.70523 0
M  V30 5036 O 477.572 -0.203572 2.00369 0
M  V30 5037 C 474.637 -0.0182063 3.46695 0
M  V30 5038 C 473.698 0.998546 4.17526 0
M  V30 5039 C 472.931 0.387917 5.32288 0
M  V30 5040 O 473.154 -0.808668 5.64639 0
M  V30 5041 O 472.088 1.1116 5.91546 0
M  V30 5042 H 475.914 1.51363 2.63292 0
M  V30 5043 H 473.499 0.800856 1.26122 0
M  V30 5044 H 475.381 -0.375606 4.19723 0
M  V30 5045 H 474.056 -0.882895 3.11427 0
M  V30 5046 H 472.963 1.40756 3.4661 0
M  V30 5047 H 474.296 1.83366 4.56769 0
M  V30 5048 N 475.948 -1.35272 0.808662 0
M  V30 5049 C 476.896 -2.31663 0.208606 0
M  V30 5050 C 477.89 -1.56731 -0.642778 0
M  V30 5051 O 479.096 -1.71843 -0.53571 0
M  V30 5052 H 475.471 -0.750421 0.0486993 0
M  V30 5053 H 477.442 -2.79814 1.03666 0
M  V30 5054 C 476.191 -3.42008 -0.626573 0
M  V30 5055 H 475.514 -3.99795 0.0192103 0
M  V30 5056 H 476.954 -4.11727 -1.01278 0
M  V30 5057 C 475.413 -2.85226 -1.79298 0
M  V30 5058 O 475.943 -2.78945 -2.89055 0
M  V30 5059 N 474.149 -2.42245 -1.60516 0
M  V30 5060 H 473.696 -2.47554 -0.712375 0
M  V30 5061 H 473.654 -2.04603 -2.38715 0
M  V30 5062 N 477.426 -0.562348 -1.47226 0
M  V30 5063 C 478.356 0.170627 -2.32876 0
M  V30 5064 C 479.337 0.903748 -1.44106 0
M  V30 5065 O 480.522 0.883206 -1.72954 0
M  V30 5066 C 477.652 1.19786 -3.25989 0
M  V30 5067 C 476.606 0.580875 -4.2404 0
M  V30 5068 C 475.932 1.71311 -5.06514 0
M  V30 5069 C 477.232 -0.468714 -5.20193 0
M  V30 5070 H 478.926 -0.544441 -2.94408 0
M  V30 5071 H 476.472 -0.263271 -1.41573 0
M  V30 5072 H 478.425 1.71884 -3.84752 0
M  V30 5073 H 477.149 1.94294 -2.62521 0
M  V30 5074 H 475.808 0.0811538 -3.6651 0
M  V30 5075 H 475.456 2.44736 -4.39447 0
M  V30 5076 H 475.156 1.30604 -5.72902 0
M  V30 5077 H 476.68 2.23725 -5.68137 0
M  V30 5078 H 478.094 -0.0336028 -5.7329 0
M  V30 5079 H 476.491 -0.794957 -5.94811 0
M  V30 5080 H 477.561 -1.36269 -4.65359 0
M  V30 5081 N 478.904 1.54736 -0.299062 0
M  V30 5082 C 480.315 1.8569 0.193971 0
M  V30 5083 C 480.666 1.22101 1.53577 0
M  V30 5084 O 479.791 0.51799 2.10109 0
M  V30 5085 C 480.386 3.36895 0.358733 0
M  V30 5086 C 478.945 3.67887 0.795986 0
M  V30 5087 C 478.092 2.77131 -0.096807 0
M  V30 5088 H 481.043 1.49934 -0.520134 0
M  V30 5089 H 481.064 3.61294 1.19361 0
M  V30 5090 H 480.576 3.83148 -0.617998 0
M  V30 5091 H 478.677 3.27151 1.78334 0
M  V30 5092 H 478.79 4.75114 0.616718 0
M  V30 5093 H 477.154 2.51153 0.423581 0
M  V30 5094 H 477.937 3.26204 -1.06986 0
M  V30 5095 N 480.382 0.0267497 1.57577 0
M  V30 5096 C 481.607 -0.666227 1.96408 0
M  V30 5097 C 482.032 -1.65004 0.903071 0
M  V30 5098 O 481.39 -1.80787 -0.136263 0
M  V30 5099 C 481.438 -1.35101 3.34335 0
M  V30 5100 O 480.542 -2.46623 3.30531 0
M  V30 5101 H 479.883 -0.175206 0.640468 0
M  V30 5102 H 482.413 0.0878977 2.04411 0
M  V30 5103 H 482.423 -1.70834 3.70513 0
M  V30 5104 H 481.098 -0.629844 4.11103 0
M  V30 5105 H 479.675 -2.13019 3.06068 0
M  V30 5106 N 481.861 -1.55662 -0.24637 0
M  V30 5107 C 482.791 -1.93377 -1.30873 0
M  V30 5108 C 483.772 -0.798773 -1.50179 0
M  V30 5109 O 484.957 -1.0591 -1.62778 0
M  V30 5110 C 482.087 -2.22893 -2.66338 0
M  V30 5111 C 481.041 -3.38649 -2.61727 0
M  V30 5112 C 480.367 -3.53708 -4.00992 0
M  V30 5113 C 481.667 -4.74323 -2.18666 0
M  V30 5114 H 483.361 -2.82363 -0.995552 0
M  V30 5115 H 480.907 -1.35854 -0.477464 0
M  V30 5116 H 482.86 -2.47866 -3.40794 0
M  V30 5117 H 481.584 -1.30733 -2.99293 0
M  V30 5118 H 480.243 -3.13685 -1.89729 0
M  V30 5119 H 479.891 -2.58967 -4.31214 0
M  V30 5120 H 479.591 -4.31551 -3.98795 0
M  V30 5121 H 481.115 -3.81003 -4.77147 0
M  V30 5122 H 482.529 -4.98665 -2.82854 0
M  V30 5123 H 480.926 -5.55273 -2.27579 0
M  V30 5124 H 481.996 -4.71349 -1.13834 0
M  V30 5125 N 483.339 0.512053 -1.4905 0
M  V30 5126 C 484.579 1.27715 -1.59588 0
M  V30 5127 C 484.943 1.90071 -0.271502 0
M  V30 5128 O 486.144 2.67616 -0.251987 0
M  V30 5129 C 484.415 2.32399 -2.71524 0
M  V30 5130 S 485.974 3.18396 -3.01943 0
M  V30 5131 H 482.792 0.43419 -0.563027 0
M  V30 5132 H 485.394 0.581315 -1.86657 0
M  V30 5133 H 484.098 1.85101 -3.66287 0
M  V30 5134 H 483.629 3.06667 -2.46412 0
M  V30 5135 H 485.644 4.32842 -2.42616 0
M  V30 5136 N 484.817 1.37938 0.762283 0
M  V30 5137 C 486.042 1.37059 1.55659 0
M  V30 5138 C 486.467 -0.0396123 1.88058 0
M  V30 5139 O 485.825 -1.01929 1.49934 0
M  V30 5140 C 485.873 2.22494 2.83776 0
M  V30 5141 O 484.977 1.63607 3.78559 0
M  V30 5142 H 484.318 0.467892 0.47114 0
M  V30 5143 H 486.848 1.81587 0.942725 0
M  V30 5144 H 486.858 2.36045 3.32786 0
M  V30 5145 H 485.533 3.24993 2.59524 0
M  V30 5146 H 484.11 1.5915 3.37233 0
M  V30 5147 N 486.295 -0.989507 1.22664 0
M  V30 5148 C 487.535 -1.7447 1.06488 0
M  V30 5149 C 487.899 -1.8794 -0.392737 0
M  V30 5150 O 489.1 -2.60175 -0.675446 0
M  V30 5151 C 487.371 -3.11043 1.76031 0
M  V30 5152 Se 488.93 -4.02258 1.7531 0
M  V30 5153 H 485.748 -0.600123 0.381278 0
M  V30 5154 H 488.35 -1.18283 1.55658 0
M  V30 5155 H 487.054 -2.98884 2.81241 0
M  V30 5156 H 486.585 -3.72301 1.27105 0
M  V30 5157 H 488.6 -4.89623 0.805208 0
M  V30 5158 N 487.773 -1.03688 -1.18687 0
M  V30 5159 C 488.705 -0.582696 -2.21669 0
M  V30 5160 C 489.718 0.345656 -1.59088 0
M  V30 5161 O 490.907 0.140776 -1.77944 0
M  V30 5162 C 488.007 0.169204 -3.38477 0
M  V30 5163 C 487.18 -0.766079 -4.30639 0
M  V30 5164 C 486.239 -0.0581541 -5.26168 0
M  V30 5165 O 485.265 -0.687346 -5.65035 0
M  V30 5166 N 486.467 1.20981 -5.67753 0
M  V30 5167 H 489.232 -1.46843 -2.61261 0
M  V30 5168 H 486.793 -0.916896 -1.33434 0
M  V30 5169 H 488.785 0.652543 -3.99405 0
M  V30 5170 H 487.355 0.956435 -2.97609 0
M  V30 5171 H 486.575 -1.42935 -3.67373 0
M  V30 5172 H 487.863 -1.40146 -4.89118 0
M  V30 5173 H 487.261 1.74159 -5.38224 0
M  V30 5174 H 485.818 1.6375 -6.30896 0
M  V30 5175 N 489.251 1.34841 -0.815825 0
M  V30 5176 C 490.499 1.98107 -0.399744 0
M  V30 5177 C 490.82 1.65019 1.03894 0
M  V30 5178 O 490.09 0.937311 1.72021 0
M  V30 5179 H 488.67 0.732827 -0.144823 0
M  V30 5180 H 491.332 1.64599 -1.0437 0
M  V30 5181 H 490.428 3.07856 -0.512965 0
M  V30 5182 N 490.729 0.570148 1.46925 0
M  V30 5183 C 491.659 -0.158274 2.32963 0
M  V30 5184 C 492.64 -0.896093 1.44583 0
M  V30 5185 O 493.825 -0.874022 1.7342 0
M  V30 5186 C 490.955 -1.18055 3.26619 0
M  V30 5187 C 489.909 -0.558379 4.24342 0
M  V30 5188 C 489.235 -1.68623 5.07415 0
M  V30 5189 C 490.535 0.496295 5.19937 0
M  V30 5190 H 492.229 0.560046 2.94115 0
M  V30 5191 H 489.775 0.270775 1.41431 0
M  V30 5192 H 491.728 -1.69841 3.85658 0
M  V30 5193 H 490.452 -1.92899 2.63548 0
M  V30 5194 H 489.111 -0.0617157 3.66548 0
M  V30 5195 H 488.759 -2.42402 4.40738 0
M  V30 5196 H 488.459 -1.27564 5.73586 0
M  V30 5197 H 489.983 -2.20709 5.69315 0
M  V30 5198 H 491.397 0.0640052 5.73264 0
M  V30 5199 H 489.794 0.82649 5.94381 0
M  V30 5200 H 490.864 1.38735 4.6463 0
M  V30 5201 N 492.207 -1.54576 0.307264 0
M  V30 5202 C 493.623 -1.59534 -0.0459251 0
M  V30 5203 C 493.823 -1.32414 -1.51884 0
M  V30 5204 O 492.879 -1.1006 -2.27251 0
M  V30 5205 C 494.192 -2.98566 0.357649 0
M  V30 5206 C 495.74 -3.11491 0.306937 0
M  V30 5207 C 496.215 -4.52842 0.685427 0
M  V30 5208 N 497.706 -4.58782 0.638203 0
M  V30 5209 C 498.441 -5.66238 0.903458 0
M  V30 5210 N 497.937 -6.81703 1.23501 0
M  V30 5211 N 499.73 -5.55937 0.830102 0
M  V30 5212 H 491.881 -1.70464 1.26712 0
M  V30 5213 H 494.144 -0.79647 0.514139 0
M  V30 5214 H 493.85 -3.23356 1.38325 0
M  V30 5215 H 493.724 -3.76117 -0.285565 0
M  V30 5216 H 496.111 -2.86446 -0.709424 0
M  V30 5217 H 496.192 -2.36081 0.984861 0
M  V30 5218 H 495.836 -4.78618 1.69963 0
M  V30 5219 H 495.766 -5.26598 -0.0146346 0
M  V30 5220 H 498.257 -3.75849 0.393138 0
M  V30 5221 H 498.57 -7.59582 1.42322 0
M  V30 5222 H 496.915 -6.8324 1.27311 0
M  V30 5223 H 500.106 -4.64608 0.570693 0
M  V30 5224 H 500.279 -6.39597 1.04019 0
M  V30 5225 N 493.685 -0.035106 -1.57561 0
M  V30 5226 C 494.648 0.929819 -2.09492 0
M  V30 5227 C 495.648 1.25026 -1.01119 0
M  V30 5228 O 496.838 1.18961 -1.27255 0
M  V30 5229 C 493.97 2.24457 -2.56577 0
M  V30 5230 H 495.163 0.479935 -2.96035 0
M  V30 5231 H 492.716 0.213033 -1.54841 0
M  V30 5232 H 493.451 2.74061 -1.73382 0
M  V30 5233 H 493.236 2.02508 -3.35757 0
M  V30 5234 H 494.726 2.93607 -2.96959 0
M  V30 5235 N 495.163 1.55791 0.238111 0
M  V30 5236 C 496.073 1.94196 1.31625 0
M  V30 5237 C 497.089 0.843545 1.52185 0
M  V30 5238 O 498.265 1.1457 1.65637 0
M  V30 5239 C 495.33 2.2365 2.64918 0
M  V30 5240 C 494.391 3.46971 2.52804 0
M  V30 5241 C 493.624 3.7501 3.79741 0
M  V30 5242 O 493.847 3.04982 4.82019 0
M  V30 5243 O 492.781 4.68525 3.77846 0
M  V30 5244 H 496.607 2.86044 1.02043 0
M  V30 5245 H 494.192 1.42786 0.439603 0
M  V30 5246 H 496.074 2.43863 3.4367 0
M  V30 5247 H 494.749 1.34979 2.94215 0
M  V30 5248 H 493.656 3.32055 1.72309 0
M  V30 5249 H 494.989 4.35971 2.28451 0
M  V30 5250 N 496.642 -0.504142 1.49319 0
M  V30 5251 C 497.552 -1.63248 1.68486 0
M  V30 5252 C 498.568 -1.64488 0.567432 0
M  V30 5253 O 499.744 -1.82966 0.841749 0
M  V30 5254 C 496.809 -2.99627 1.74426 0
M  V30 5255 C 495.87 -3.09039 2.97982 0
M  V30 5256 C 495.103 -4.38913 3.0363 0
M  V30 5257 O 495.326 -5.27528 2.16958 0
M  V30 5258 O 494.26 -4.53231 3.96062 0
M  V30 5259 H 498.086 -1.50008 2.64067 0
M  V30 5260 H 495.671 -0.680086 1.33023 0
M  V30 5261 H 497.553 -3.80689 1.80705 0
M  V30 5262 H 496.228 -3.13136 0.820233 0
M  V30 5263 H 495.135 -2.27177 2.97223 0
M  V30 5264 H 496.468 -3.00456 3.89855 0
M  V30 5265 N 498.12 -1.38341 -0.754957 0
M  V30 5266 C 499.068 -1.35573 -1.89005 0
M  V30 5267 C 500.062 -0.241824 -1.67665 0
M  V30 5268 O 501.268 -0.410785 -1.7525 0
M  V30 5269 H 497.643 -0.422898 -0.621821 0
M  V30 5270 H 499.614 -2.31359 -1.88455 0
M  V30 5271 C 498.363 -1.19631 -3.26471 0
M  V30 5272 H 497.686 -2.04605 -3.43477 0
M  V30 5273 H 499.126 -1.21748 -4.06144 0
M  V30 5274 C 497.585 0.0968705 -3.36761 0
M  V30 5275 O 498.115 1.07439 -3.87066 0
M  V30 5276 N 496.321 0.153242 -2.90196 0
M  V30 5277 H 495.868 -0.642908 -2.49448 0
M  V30 5278 H 495.826 1.01807 -2.9746 0
M  V30 5279 N 499.598 0.982988 -1.23187 0
M  V30 5280 C 500.847 1.71817 -1.05649 0
M  V30 5281 C 501.16 1.91315 0.407176 0
M  V30 5282 O 502.366 2.62256 0.702436 0
M  V30 5283 C 500.822 3.09188 -1.84203 0
M  V30 5284 C 500.43 2.97586 -3.34882 0
M  V30 5285 C 502.174 3.86684 -1.75146 0
M  V30 5286 C 500.081 4.30173 -4.05839 0
M  V30 5287 H 499.011 0.644258 -0.391724 0
M  V30 5288 H 501.662 1.09659 -1.4713 0
M  V30 5289 H 500.044 3.72087 -1.35527 0
M  V30 5290 H 501.218 2.43793 -3.91026 0
M  V30 5291 H 499.533 2.33567 -3.44725 0
M  V30 5292 H 502.13 4.84836 -2.25473 0
M  V30 5293 H 502.473 4.10136 -0.713737 0
M  V30 5294 H 503.006 3.30482 -2.21419 0
M  V30 5295 H 499.745 4.11918 -5.09906 0
M  V30 5296 H 499.265 4.83841 -3.54482 0
M  V30 5297 H 500.944 4.98873 -4.11989 0
M  V30 5298 N 501.076 1.04316 1.18135 0
M  V30 5299 C 502.304 0.768117 1.92113 0
M  V30 5300 C 502.719 -0.675057 1.76319 0
M  V30 5301 O 502.076 -1.46038 1.09449 0
M  V30 5302 C 502.127 1.12808 3.43448 0
M  V30 5303 O 501.848 2.5146 3.58747 0
M  V30 5304 C 503.349 0.8779 4.3452 0
M  V30 5305 H 500.569 0.279937 0.609817 0
M  V30 5306 H 503.113 1.39149 1.49859 0
M  V30 5307 H 501.268 0.549623 3.83481 0
M  V30 5308 H 501.682 2.65313 4.52448 0
M  V30 5309 H 503.156 1.17959 5.39249 0
M  V30 5310 H 503.633 -0.187239 4.38801 0
M  V30 5311 H 504.239 1.43977 4.00188 0
M  V30 5312 N 502.554 -1.34406 0.822964 0
M  V30 5313 C 503.464 -2.33298 0.246838 0
M  V30 5314 C 504.48 -1.62625 -0.618797 0
M  V30 5315 O 505.656 -1.94391 -0.526685 0
M  V30 5316 C 502.721 -3.41785 -0.581731 0
M  V30 5317 C 501.782 -4.28206 0.306309 0
M  V30 5318 C 501.015 -5.31512 -0.48281 0
M  V30 5319 O 501.238 -5.43973 -1.71607 0
M  V30 5320 O 500.172 -6.01749 0.134884 0
M  V30 5321 H 503.998 -2.84401 1.06534 0
M  V30 5322 H 501.583 -1.37466 0.585108 0
M  V30 5323 H 503.465 -4.08028 -1.05313 0
M  V30 5324 H 502.14 -2.92925 -1.37756 0
M  V30 5325 H 501.047 -3.64885 0.825199 0
M  V30 5326 H 502.38 -4.80507 1.06649 0
M  V30 5327 N 504.032 -0.577932 -1.46621 0
M  V30 5328 C 505.257 -0.0652536 -2.07297 0
M  V30 5329 C 505.682 1.22828 -1.4246 0
M  V30 5330 O 505.04 1.74075 -0.506718 0
M  V30 5331 C 505.088 0.0920589 -3.60482 0
M  V30 5332 O 504.192 1.14972 -3.96049 0
M  V30 5333 H 503.533 -0.06065 -0.661224 0
M  V30 5334 H 506.063 -0.799515 -1.88332 0
M  V30 5335 H 506.073 0.299741 -4.06897 0
M  V30 5336 H 504.748 -0.852612 -4.07067 0
M  V30 5337 H 503.325 0.920879 -3.61351 0
M  V30 5338 N 505.51 1.54411 -0.315457 0
M  V30 5339 C 506.75 2.02329 0.290236 0
M  V30 5340 C 507.114 1.19878 1.49977 0
M  V30 5341 O 508.315 1.57562 2.17779 0
M  V30 5342 C 506.586 3.51912 0.623937 0
M  V30 5343 S 508.145 4.21775 1.21044 0
M  V30 5344 H 504.963 0.705499 0.0882739 0
M  V30 5345 H 507.565 1.90328 -0.446694 0
M  V30 5346 H 506.269 4.09546 -0.264624 0
M  V30 5347 H 505.8 3.67977 1.39128 0
M  V30 5348 H 507.815 4.28757 2.49764 0
M  V30 5349 N 506.988 0.0434614 1.5754 0
M  V30 5350 C 507.92 -0.962586 2.08007 0
M  V30 5351 C 508.933 -1.27972 1.00634 0
M  V30 5352 O 510.122 -1.24186 1.28219 0
M  V30 5353 C 507.222 -2.28621 2.50171 0
M  V30 5354 C 506.395 -2.15214 3.80791 0
M  V30 5355 C 505.454 -3.30633 4.09351 0
M  V30 5356 O 504.48 -3.0688 4.79388 0
M  V30 5357 N 505.682 -4.54873 3.60654 0
M  V30 5358 H 508.447 -0.531891 2.94942 0
M  V30 5359 H 506.008 -0.142965 1.61268 0
M  V30 5360 H 508 -3.04689 2.66359 0
M  V30 5361 H 506.57 -2.63283 1.68525 0
M  V30 5362 H 505.79 -1.23785 3.74261 0
M  V30 5363 H 507.078 -2.03475 4.66343 0
M  V30 5364 H 506.476 -4.77063 3.04019 0
M  V30 5365 H 505.033 -5.2806 3.82094 0
M  V30 5366 N 508.466 -1.55915 -0.229846 0
M  V30 5367 C 509.706 -1.80314 -0.962614 0
M  V30 5368 C 510.07 -0.61568 -1.81861 0
M  V30 5369 O 511.271 -0.738795 -2.58448 0
M  V30 5370 C 509.542 -3.0956 -1.78627 0
M  V30 5371 Se 511.101 -3.55243 -2.57581 0
M  V30 5372 H 507.919 -0.633142 -0.323499 0
M  V30 5373 H 510.521 -1.94155 -0.228919 0
M  V30 5374 H 509.225 -3.94033 -1.14742 0
M  V30 5375 H 508.756 -2.98503 -2.56241 0
M  V30 5376 H 510.771 -3.17924 -3.80971 0
M  V30 5377 N 509.944 0.496216 -1.49584 0
M  V30 5378 C 511.36 0.827814 -1.36453 0
M  V30 5379 C 511.56 1.97464 -0.401285 0
M  V30 5380 O 510.616 2.51958 0.165296 0
M  V30 5381 C 511.929 1.16352 -2.77277 0
M  V30 5382 C 513.477 1.27145 -2.86013 0
M  V30 5383 C 513.952 1.64042 -4.27615 0
M  V30 5384 N 515.443 1.71082 -4.30448 0
M  V30 5385 C 516.178 2.01085 -5.36984 0
M  V30 5386 N 515.674 2.2928 -6.5376 0
M  V30 5387 N 517.467 2.02376 -5.24405 0
M  V30 5388 H 509.618 -0.259947 -2.10803 0
M  V30 5389 H 511.881 -0.0537163 -0.946477 0
M  V30 5390 H 511.587 0.394153 -3.49484 0
M  V30 5391 H 511.461 2.10582 -3.12946 0
M  V30 5392 H 513.848 2.03152 -2.1404 0
M  V30 5393 H 513.929 0.309542 -2.5392 0
M  V30 5394 H 513.573 0.88583 -5.00115 0
M  V30 5395 H 513.503 2.6134 -4.57175 0
M  V30 5396 H 515.994 1.51434 -3.46232 0
M  V30 5397 H 516.307 2.51376 -7.30774 0
M  V30 5398 H 514.652 2.26726 -6.56978 0
M  V30 5399 H 517.843 1.79829 -4.32179 0
M  V30 5400 H 518.016 2.25425 -6.07526 0
M  V30 5401 N 511.423 1.38739 0.74761 0
M  V30 5402 C 512.353 1.39173 1.87492 0
M  V30 5403 C 513.334 0.256794 1.6815 0
M  V30 5404 O 514.519 0.460762 1.88655 0
M  V30 5405 C 511.649 1.22197 3.25093 0
M  V30 5406 C 510.603 2.32957 3.59047 0
M  V30 5407 C 509.929 2.01082 4.95449 0
M  V30 5408 C 511.229 3.75237 3.6331 0
M  V30 5409 H 512.923 2.3351 1.87386 0
M  V30 5410 H 510.469 1.12399 0.900134 0
M  V30 5411 H 512.422 1.21124 4.03617 0
M  V30 5412 H 511.146 0.243241 3.25693 0
M  V30 5413 H 509.805 2.33226 2.82845 0
M  V30 5414 H 509.453 1.01678 4.92616 0
M  V30 5415 H 509.153 2.75267 5.19136 0
M  V30 5416 H 510.677 2.01638 5.76346 0
M  V30 5417 H 512.091 3.76966 4.31937 0
M  V30 5418 H 510.488 4.48677 3.98509 0
M  V30 5419 H 511.558 4.07122 2.634 0
M  V30 5420 N 512.901 -0.976442 1.23707 0
M  V30 5421 C 514.312 -1.53284 1.06587 0
M  V30 5422 C 514.663 -1.92765 -0.365526 0
M  V30 5423 O 513.788 -1.7645 -1.25277 0
M  V30 5424 C 514.383 -2.78548 1.92864 0
M  V30 5425 C 512.942 -3.30574 1.79994 0
M  V30 5426 C 512.089 -2.03538 1.88328 0
M  V30 5427 H 515.04 -0.795692 1.37311 0
M  V30 5428 H 515.061 -3.5155 1.45577 0
M  V30 5429 H 514.573 -2.49782 2.97037 0
M  V30 5430 H 512.674 -3.64211 0.786202 0
M  V30 5431 H 512.787 -4.00065 2.636 0
M  V30 5432 H 511.151 -2.17853 1.31954 0
M  V30 5433 H 511.934 -1.77149 2.94063 0
M  V30 5434 N 514.379 -1.04941 -1.1758 0
M  V30 5435 C 515.79 -0.784501 -1.69418 0
M  V30 5436 C 516.141 0.693625 -1.8353 0
M  V30 5437 O 515.266 1.53925 -1.52106 0
M  V30 5438 C 515.861 -1.41746 -3.07723 0
M  V30 5439 C 514.42 -1.20066 -3.56737 0
M  V30 5440 C 513.567 -1.5026 -2.33061 0
M  V30 5441 H 516.518 -1.21469 -1.02133 0
M  V30 5442 H 516.539 -0.825381 -3.7144 0
M  V30 5443 H 516.051 -2.49325 -2.9742 0
M  V30 5444 H 514.152 -0.144006 -3.72322 0
M  V30 5445 H 514.265 -1.90384 -4.39648 0
M  V30 5446 H 512.629 -0.922598 -2.37403 0
M  V30 5447 H 513.412 -2.58967 -2.25368 0
M  V30 5448 N 515.857 1.33968 -0.830081 0
M  V30 5449 C 516.82 2.27694 -0.26235 0
M  V30 5450 C 517.82 1.50589 0.563876 0
M  V30 5451 O 519.01 1.70028 0.378941 0
M  V30 5452 C 516.142 3.35002 0.63138 0
M  V30 5453 H 517.335 2.79419 -1.08928 0
M  V30 5454 H 514.888 1.44221 -0.602486 0
M  V30 5455 H 515.623 2.88504 1.48109 0
M  V30 5456 H 515.408 3.92079 0.0403276 0
M  V30 5457 H 516.898 4.04897 1.02217 0
M  V30 5458 N 517.335 0.585699 1.46312 0
M  V30 5459 C 518.298 -0.135673 2.28798 0
M  V30 5460 C 519.298 -0.815988 1.38558 0
M  V30 5461 O 520.488 -0.667487 1.60904 0
M  V30 5462 C 517.62 -1.20163 3.1902 0
M  V30 5463 H 518.813 0.589257 2.94054 0
M  V30 5464 H 516.366 0.343794 1.52472 0
M  V30 5465 H 517.101 -1.95804 2.58517 0
M  V30 5466 H 516.886 -0.718282 3.85465 0
M  V30 5467 H 518.376 -1.70749 3.81096 0
M  V30 5468 N 518.813 -1.54241 0.323641 0
M  V30 5469 C 520.053 -2.0248 -0.279502 0
M  V30 5470 C 520.417 -1.20672 -1.49339 0
M  V30 5471 O 521.618 -1.58715 -2.1694 0
M  V30 5472 C 519.889 -3.52238 -0.605266 0
M  V30 5473 Se 521.448 -4.22411 -1.18805 0
M  V30 5474 H 518.266 -0.705957 -0.0845313 0
M  V30 5475 H 520.868 -1.90089 0.456781 0
M  V30 5476 H 519.572 -4.094 0.286339 0
M  V30 5477 H 519.103 -3.6871 -1.37174 0
M  V30 5478 H 521.118 -4.30075 -2.47487 0
M  V30 5479 N 520.291 -0.0518155 -1.57515 0
M  V30 5480 C 521.223 0.951542 -2.08515 0
M  V30 5481 C 522.236 1.27436 -1.01311 0
M  V30 5482 O 523.425 1.23504 -1.28876 0
M  V30 5483 C 520.525 2.27291 -2.5138 0
M  V30 5484 C 519.698 2.13191 -3.81927 0
M  V30 5485 C 518.757 3.28458 -4.11098 0
M  V30 5486 O 517.783 3.04334 -4.81009 0
M  V30 5487 N 518.985 4.52954 -3.63061 0
M  V30 5488 H 521.75 0.516242 -2.9522 0
M  V30 5489 H 519.311 0.13441 -1.61341 0
M  V30 5490 H 521.303 3.03272 -2.67971 0
M  V30 5491 H 519.873 2.62386 -1.69919 0
M  V30 5492 H 519.093 1.21798 -3.74912 0
M  V30 5493 H 520.381 2.00999 -4.67415 0
M  V30 5494 H 519.779 4.75444 -3.06545 0
M  V30 5495 H 518.336 5.26026 -3.84889 0
M  V30 5496 N 521.769 1.56035 0.221574 0
M  V30 5497 C 523.018 1.78245 0.944016 0
M  V30 5498 C 523.331 0.620371 1.85501 0
M  V30 5499 O 524.537 0.726103 2.6161 0
M  V30 5500 C 522.993 3.15659 1.7288 0
M  V30 5501 C 522.601 4.39591 0.863942 0
M  V30 5502 C 524.345 3.47195 2.44246 0
M  V30 5503 C 522.252 5.6803 1.64607 0
M  V30 5504 H 521.182 0.664547 0.356222 0
M  V30 5505 H 523.833 1.8243 0.197904 0
M  V30 5506 H 522.215 3.0565 2.51781 0
M  V30 5507 H 523.389 4.60655 0.115464 0
M  V30 5508 H 521.704 4.15572 0.262407 0
M  V30 5509 H 524.301 4.40381 3.03263 0
M  V30 5510 H 524.644 2.69693 3.1713 0
M  V30 5511 H 525.177 3.58533 1.72334 0
M  V30 5512 H 521.916 6.48425 0.960507 0
M  V30 5513 H 521.436 5.51027 2.36917 0
M  V30 5514 H 523.115 6.08203 2.20675 0
M  V30 5515 N 523.247 -0.488276 1.49845 0
M  V30 5516 C 524.472 -1.26997 1.63971 0
M  V30 5517 C 524.897 -1.85427 0.315994 0
M  V30 5518 O 524.255 -1.66475 -0.718032 0
M  V30 5519 C 524.303 -2.36689 2.72049 0
M  V30 5520 O 523.407 -3.40882 2.32107 0
M  V30 5521 H 522.748 -0.374376 0.548396 0
M  V30 5522 H 525.278 -0.583104 1.96115 0
M  V30 5523 H 525.288 -2.82262 2.94605 0
M  V30 5524 H 523.963 -1.93529 3.68129 0
M  V30 5525 H 522.54 -3.01139 2.19931 0
M  V30 5526 N 524.725 -1.39134 -0.740242 0
M  V30 5527 C 525.657 -1.33332 -1.86428 0
M  V30 5528 C 526.67 -0.243042 -1.60976 0
M  V30 5529 O 527.859 -0.501608 -1.71307 0
M  V30 5530 C 524.959 -1.04626 -3.22346 0
M  V30 5531 C 524.132 -2.24826 -3.75196 0
M  V30 5532 C 523.191 -1.92659 -4.89662 0
M  V30 5533 O 522.217 -2.6529 -5.03597 0
M  V30 5534 N 523.419 -0.889575 -5.73643 0
M  V30 5535 H 526.184 -2.30196 -1.91911 0
M  V30 5536 H 523.745 -1.33168 -0.920756 0
M  V30 5537 H 525.737 -0.811347 -3.96484 0
M  V30 5538 H 524.307 -0.165129 -3.12164 0
M  V30 5539 H 523.527 -2.64301 -2.9247 0
M  V30 5540 H 524.815 -3.05015 -4.07239 0
M  V30 5541 H 524.213 -0.287529 -5.64969 0
M  V30 5542 H 522.77 -0.714557 -6.47871 0
M  V30 5543 N 526.204 0.969867 -1.24223 0
M  V30 5544 C 527.136 2.0669 -0.99055 0
M  V30 5545 C 528.149 1.62753 0.0392222 0
M  V30 5546 O 529.338 1.77403 -0.197561 0
M  V30 5547 C 526.438 3.35589 -0.472594 0
M  V30 5548 C 525.611 4.08444 -1.56499 0
M  V30 5549 C 524.67 5.15616 -1.05007 0
M  V30 5550 O 523.696 5.41911 -1.7413 0
M  V30 5551 N 524.898 5.80383 0.116641 0
M  V30 5552 H 527.663 2.28855 -1.93508 0
M  V30 5553 H 525.224 1.13733 -1.15223 0
M  V30 5554 H 527.216 4.04542 -0.112919 0
M  V30 5555 H 525.786 3.10311 0.377617 0
M  V30 5556 H 525.006 3.33798 -2.09696 0
M  V30 5557 H 526.294 4.53882 -2.29932 0
M  V30 5558 H 525.692 5.6142 0.694589 0
M  V30 5559 H 524.249 6.50462 0.417483 0
M  V30 5560 N 527.682 1.05563 1.17022 0
M  V30 5561 C 528.612 0.681026 2.23348 0
M  V30 5562 C 529.593 -0.322983 1.67005 0
M  V30 5563 O 530.778 -0.199746 1.9317 0
M  V30 5564 C 527.908 0.0589053 3.4725 0
M  V30 5565 C 526.862 0.988082 4.16438 0
M  V30 5566 C 526.188 0.229646 5.34207 0
M  V30 5567 C 527.488 2.31388 4.68249 0
M  V30 5568 H 529.182 1.56993 2.54938 0
M  V30 5569 H 526.728 0.756302 1.2254 0
M  V30 5570 H 528.681 -0.214982 4.20851 0
M  V30 5571 H 527.405 -0.864968 3.14938 0
M  V30 5572 H 526.064 1.24659 3.44754 0
M  V30 5573 H 525.712 -0.697111 4.98146 0
M  V30 5574 H 525.412 0.848815 5.81437 0
M  V30 5575 H 526.936 -0.0368694 6.10589 0
M  V30 5576 H 528.35 2.09964 5.33468 0
M  V30 5577 H 526.747 2.88736 5.26072 0
M  V30 5578 H 527.817 2.94982 3.84855 0
M  V30 5579 N 529.16 -1.33526 0.837174 0
M  V30 5580 C 530.409 -1.97098 0.428387 0
M  V30 5581 C 530.722 -1.67062 -1.01734 0
M  V30 5582 O 531.928 -2.24235 -1.53072 0
M  V30 5583 C 530.384 -3.52725 0.715075 0
M  V30 5584 C 529.992 -3.9164 2.17537 0
M  V30 5585 C 531.736 -4.22857 0.373154 0
M  V30 5586 C 529.643 -5.40237 2.40619 0
M  V30 5587 H 528.573 -0.737589 0.156455 0
M  V30 5588 H 531.224 -1.52169 1.02552 0
M  V30 5589 H 529.606 -3.95971 0.0475904 0
M  V30 5590 H 530.78 -3.59456 2.88319 0
M  V30 5591 H 529.095 -3.34485 2.4801 0
M  V30 5592 H 531.692 -5.32133 0.523264 0
M  V30 5593 H 532.035 -4.10647 -0.683708 0
M  V30 5594 H 532.568 -3.85135 0.995801 0
M  V30 5595 H 529.307 -5.57449 3.44864 0
M  V30 5596 H 528.827 -5.73887 1.74396 0
M  V30 5597 H 530.506 -6.07102 2.23688 0
M  V30 5598 N 530.638 -0.59345 -1.46 0
M  V30 5599 C 532.049 -0.169801 -1.85926 0
M  V30 5600 C 532.4 1.26984 -1.49565 0
M  V30 5601 O 531.525 1.96076 -0.915602 0
M  V30 5602 C 532.12 -0.301385 -3.37457 0
M  V30 5603 C 530.679 0.0674684 -3.7634 0
M  V30 5604 C 529.826 -0.632383 -2.69993 0
M  V30 5605 H 532.777 -0.801014 -1.37002 0
M  V30 5606 H 532.798 0.470331 -3.77582 0
M  V30 5607 H 532.31 -1.34927 -3.63891 0
M  V30 5608 H 530.411 1.11507 -3.55523 0
M  V30 5609 H 530.524 -0.316332 -4.78055 0
M  V30 5610 H 528.888 -0.0714961 -2.546 0
M  V30 5611 H 529.671 -1.68212 -2.99265 0
M  V30 5612 N 532.116 1.54067 -0.331816 0
M  V30 5613 C 533.344 2.05131 0.269996 0
M  V30 5614 C 533.759 1.20749 1.45138 0
M  V30 5615 O 533.116 0.240069 1.80914 0
M  V30 5616 C 533.167 3.54728 0.696456 0
M  V30 5617 O 532.888 4.35906 -0.43794 0
M  V30 5618 C 534.389 4.21916 1.36021 0
M  V30 5619 H 531.609 0.668807 0.0542042 0
M  V30 5620 H 534.153 1.98777 -0.4804 0
M  V30 5621 H 532.308 3.61342 1.39681 0
M  V30 5622 H 532.722 5.24404 -0.100334 0
M  V30 5623 H 534.196 5.28015 1.60947 0
M  V30 5624 H 534.673 3.73538 2.31011 0
M  V30 5625 H 535.279 4.19463 0.702212 0
M  V30 5626 N 533.594 0.0601682 1.57485 0
M  V30 5627 C 534.504 -0.926121 2.15546 0
M  V30 5628 C 535.52 -1.33532 1.11558 0
M  V30 5629 O 536.696 -1.4104 1.4377 0
M  V30 5630 C 533.761 -2.17952 2.69625 0
M  V30 5631 C 532.822 -1.82783 3.88444 0
M  V30 5632 C 532.055 -3.02148 4.39935 0
M  V30 5633 O 532.278 -4.15803 3.90466 0
M  V30 5634 O 531.212 -2.82639 5.31412 0
M  V30 5635 H 535.038 -0.462289 3.00161 0
M  V30 5636 H 532.623 -0.162246 1.48516 0
M  V30 5637 H 534.505 -2.91474 3.04337 0
M  V30 5638 H 533.18 -2.63456 1.88077 0
M  V30 5639 H 532.087 -1.06549 3.58606 0
M  V30 5640 H 533.42 -1.42072 4.7125 0
M  V30 5641 N 535.072 -1.5615 -0.213296 0
M  V30 5642 C 536.035 -1.92249 -1.24792 0
M  V30 5643 C 537.035 -0.801828 -1.39382 0
M  V30 5644 O 538.225 -1.06948 -1.37506 0
M  V30 5645 C 535.357 -2.18056 -2.62039 0
M  V30 5646 H 536.55 -2.84793 -0.939845 0
M  V30 5647 H 534.103 -1.49559 -0.454062 0
M  V30 5648 H 534.838 -1.2809 -2.97932 0
M  V30 5649 H 534.623 -2.99703 -2.52825 0
M  V30 5650 H 536.113 -2.47051 -3.36683 0
M  V30 5651 N 536.55 0.480323 -1.50102 0
M  V30 5652 C 537.775 1.26126 -1.64642 0
M  V30 5653 C 538.2 1.85257 -0.325823 0
M  V30 5654 O 537.558 1.66854 0.709194 0
M  V30 5655 C 537.606 2.35243 -2.73301 0
M  V30 5656 O 536.71 3.39646 -2.33911 0
M  V30 5657 H 536.051 0.371463 -0.550374 0
M  V30 5658 H 538.581 0.572696 -1.96421 0
M  V30 5659 H 538.591 2.80695 -2.96098 0
M  V30 5660 H 537.266 1.91574 -3.6915 0
M  V30 5661 H 535.843 2.99969 -2.21525 0
M  V30 5662 N 538.028 1.39524 0.732853 0
M  V30 5663 C 538.991 1.38189 1.82857 0
M  V30 5664 C 539.991 0.278624 1.58368 0
M  V30 5665 O 541.181 0.536639 1.65728 0
M  V30 5666 C 538.313 1.15661 3.2068 0
M  V30 5667 H 539.506 2.35692 1.85444 0
M  V30 5668 H 537.059 1.2512 0.936728 0
M  V30 5669 H 537.794 0.188482 3.23752 0
M  V30 5670 H 537.579 1.95559 3.39852 0
M  V30 5671 H 539.069 1.17472 4.00737 0
M  V30 5672 N 539.506 -0.963266 1.24736 0
M  V30 5673 C 540.731 -1.74699 1.11781 0
M  V30 5674 C 541.156 -1.85267 -0.325258 0
M  V30 5675 O 540.514 -1.32681 -1.23553 0
M  V30 5676 C 540.562 -3.14322 1.76731 0
M  V30 5677 O 539.666 -3.99043 1.04109 0
M  V30 5678 H 539.007 -0.53684 0.390767 0
M  V30 5679 H 541.537 -1.20801 1.65131 0
M  V30 5680 H 541.547 -3.64824 1.82668 0
M  V30 5681 H 540.222 -3.05946 2.81726 0
M  V30 5682 H 538.799 -3.5752 1.05991 0
M  V30 5683 N 540.985 -1.06182 -1.16461 0
M  V30 5684 C 542.225 -0.787048 -1.8864 0
M  V30 5685 C 542.589 0.674093 -1.79778 0
M  V30 5686 O 543.79 1.06341 -2.46871 0
M  V30 5687 C 542.061 -1.2666 -3.34203 0
M  V30 5688 Se 543.62 -1.12071 -4.24247 0
M  V30 5689 H 540.438 -0.285539 -0.651144 0
M  V30 5690 H 543.04 -1.35851 -1.40587 0
M  V30 5691 H 541.744 -2.32496 -3.38192 0
M  V30 5692 H 541.275 -0.689841 -3.87304 0
M  V30 5693 H 543.29 -0.0509341 -4.96174 0
M  V30 5694 N 542.463 1.3308 -0.844243 0
M  V30 5695 C 543.879 1.50447 -0.532729 0
M  V30 5696 C 544.079 1.78292 0.938837 0
M  V30 5697 O 543.135 1.84635 1.72239 0
M  V30 5698 C 544.448 2.65555 -1.41072 0
M  V30 5699 C 545.996 2.7944 -1.41005 0
M  V30 5700 C 546.471 3.97616 -2.27301 0
M  V30 5701 N 547.962 4.0486 -2.2504 0
M  V30 5702 C 548.697 4.95508 -2.88547 0
M  V30 5703 N 548.193 5.91236 -3.61126 0
M  V30 5704 N 549.986 4.88548 -2.77989 0
M  V30 5705 H 542.137 1.13269 -1.79677 0
M  V30 5706 H 544.4 0.55734 -0.766861 0
M  V30 5707 H 544.106 2.51675 -2.45668 0
M  V30 5708 H 543.98 3.61089 -1.09061 0
M  V30 5709 H 546.367 2.92749 -0.371784 0
M  V30 5710 H 546.448 1.8465 -1.77026 0
M  V30 5711 H 546.092 3.85066 -3.3119 0
M  V30 5712 H 546.022 4.91661 -1.88619 0
M  V30 5713 H 548.513 3.36353 -1.72264 0
M  V30 5714 H 548.826 6.57079 -4.06776 0
M  V30 5715 H 547.171 5.91295 -3.65234 0
M  V30 5716 H 550.362 4.12729 -2.20846 0
M  V30 5717 H 550.535 5.58994 -3.27765 0
M  V30 5718 N 543.941 0.601185 1.45683 0
M  V30 5719 C 545.181 0.0968037 2.04171 0
M  V30 5720 C 545.545 -1.2466 1.46027 0
M  V30 5721 O 546.746 -1.84132 1.95829 0
M  V30 5722 C 545.017 0.051384 3.57363 0
M  V30 5723 Se 546.576 -0.392737 4.37039 0
M  V30 5724 H 543.394 0.0464504 0.709481 0
M  V30 5725 H 545.996 0.797846 1.78479 0
M  V30 5726 H 544.7 1.03274 3.97193 0
M  V30 5727 H 544.231 -0.671853 3.87621 0
M  V30 5728 H 546.246 -1.64364 4.68187 0
M  V30 5729 N 545.419 -1.53889 0.339982 0
M  V30 5730 C 546.366 -2.24902 -0.518452 0
M  V30 5731 C 547.336 -1.24593 -1.09844 0
M  V30 5732 O 548.521 -1.53317 -1.13572 0
M  V30 5733 C 545.661 -3.02262 -1.66529 0
M  V30 5734 C 544.774 -4.17418 -1.11295 0
M  V30 5735 C 543.909 -4.82273 -2.2268 0
M  V30 5736 C 542.948 -5.89503 -1.6478 0
M  V30 5737 N 542.085 -6.48153 -2.69893 0
M  V30 5738 H 546.925 -2.97853 0.0936579 0
M  V30 5739 H 544.462 -1.46986 0.0579924 0
M  V30 5740 H 546.42 -3.45371 -2.3404 0
M  V30 5741 H 545.05 -2.31614 -2.24844 0
M  V30 5742 H 544.102 -3.78976 -0.328886 0
M  V30 5743 H 545.414 -4.94554 -0.649414 0
M  V30 5744 H 544.568 -5.28435 -2.98063 0
M  V30 5745 H 543.307 -4.04552 -2.72376 0
M  V30 5746 H 542.312 -5.42728 -0.879004 0
M  V30 5747 H 543.537 -6.6913 -1.1594 0
M  V30 5748 H 541.483 -5.73298 -3.1885 0
M  V30 5749 H 541.4 -7.20752 -2.28151 0
M  V30 5750 H 542.668 -6.98968 -3.45056 0
M  V30 5751 N 546.897 -0.0685191 -1.57451 0
M  V30 5752 C 547.845 0.917577 -2.13736 0
M  V30 5753 C 548.839 1.31049 -1.07344 0
M  V30 5754 O 550.045 1.28811 -1.25728 0
M  V30 5755 H 546.42 0.313835 -0.683382 0
M  V30 5756 H 548.391 0.417903 -2.95459 0
M  V30 5757 C 547.14 2.17686 -2.71123 0
M  V30 5758 H 546.463 1.88336 -3.52661 0
M  V30 5759 H 547.903 2.84803 -3.14107 0
M  V30 5760 C 546.362 2.9332 -1.65726 0
M  V30 5761 O 546.892 3.86901 -1.08031 0
M  V30 5762 N 545.098 2.56367 -1.36837 0
M  V30 5763 H 544.645 1.80341 -1.83943 0
M  V30 5764 H 544.603 3.07276 -0.665501 0
M  V30 5765 N 548.375 1.56261 0.205012 0
M  V30 5766 C 549.307 1.90266 1.27795 0
M  V30 5767 C 550.32 0.792397 1.42214 0
M  V30 5768 O 551.509 1.07077 1.42817 0
M  V30 5769 C 548.609 2.11074 2.65143 0
M  V30 5770 C 547.782 3.42176 2.7246 0
M  V30 5771 C 546.841 3.52216 3.90936 0
M  V30 5772 O 545.867 4.25119 3.78501 0
M  V30 5773 N 547.069 2.84573 5.05963 0
M  V30 5774 H 549.834 2.82896 0.989434 0
M  V30 5775 H 547.395 1.57008 0.394981 0
M  V30 5776 H 549.387 2.15089 3.4281 0
M  V30 5777 H 547.957 1.2499 2.86524 0
M  V30 5778 H 547.177 3.50116 1.81142 0
M  V30 5779 H 548.465 4.28509 2.74331 0
M  V30 5780 H 547.863 2.25152 5.18963 0
M  V30 5781 H 546.42 2.94228 5.81613 0
M  V30 5782 N 549.853 -0.472356 1.50355 0
M  V30 5783 C 550.816 -1.5529 1.68576 0
M  V30 5784 C 551.816 -1.50863 0.556511 0
M  V30 5785 O 553.006 -1.53505 0.823516 0
M  V30 5786 C 550.138 -2.94921 1.70981 0
M  V30 5787 H 551.331 -1.40451 2.64978 0
M  V30 5788 H 548.884 -0.698645 1.39816 0
M  V30 5789 H 549.619 -3.15204 0.762675 0
M  V30 5790 H 549.404 -2.99541 2.53017 0
M  V30 5791 H 550.894 -3.73372 1.87037 0
M  V30 5792 N 551.331 -1.39911 -0.725443 0
M  V30 5793 C 552.278 -1.39393 -1.83952 0
M  V30 5794 C 553.248 -0.252249 -1.64173 0
M  V30 5795 O 554.433 -0.44882 -1.85446 0
M  V30 5796 C 551.573 -1.25262 -3.21564 0
M  V30 5797 C 550.686 -2.49054 -3.52982 0
M  V30 5798 C 549.821 -2.27439 -4.80047 0
M  V30 5799 C 548.86 -3.46857 -5.04338 0
M  V30 5800 N 547.997 -3.24499 -6.22611 0
M  V30 5801 H 552.837 -2.34622 -1.83729 0
M  V30 5802 H 550.374 -1.16537 -0.897636 0
M  V30 5803 H 552.332 -1.15077 -4.01015 0
M  V30 5804 H 550.962 -0.33657 -3.21041 0
M  V30 5805 H 550.014 -2.69805 -2.6816 0
M  V30 5806 H 551.326 -3.37973 -3.66846 0
M  V30 5807 H 550.48 -2.14551 -5.67497 0
M  V30 5808 H 549.219 -1.35929 -4.68374 0
M  V30 5809 H 548.224 -3.60232 -4.15346 0
M  V30 5810 H 549.449 -4.3928 -5.17889 0
M  V30 5811 H 547.395 -2.35663 -6.12208 0
M  V30 5812 H 547.312 -4.06978 -6.37106 0
M  V30 5813 H 548.58 -3.15325 -7.12875 0
M  V30 5814 N 552.809 0.956637 -1.25245 0
M  V30 5815 C 553.756 2.053 -1.05454 0
M  V30 5816 C 554.726 1.66062 0.0356889 0
M  V30 5817 O 555.911 1.90415 -0.121099 0
M  V30 5818 C 553.051 3.38391 -0.677191 0
M  V30 5819 C 552.164 3.90758 -1.84206 0
M  V30 5820 C 551.299 5.12165 -1.40926 0
M  V30 5821 C 550.338 5.56757 -2.54338 0
M  V30 5822 N 549.475 6.69376 -2.11848 0
M  V30 5823 H 554.315 2.21562 -1.99284 0
M  V30 5824 H 551.852 1.08578 -0.992434 0
M  V30 5825 H 553.81 4.1488 -0.43938 0
M  V30 5826 H 552.44 3.22021 0.224127 0
M  V30 5827 H 551.492 3.10808 -2.19323 0
M  V30 5828 H 552.804 4.19802 -2.69383 0
M  V30 5829 H 551.958 5.96065 -1.13098 0
M  V30 5830 H 550.697 4.84832 -0.528175 0
M  V30 5831 H 549.702 4.71423 -2.82913 0
M  V30 5832 H 550.927 5.861 -3.43022 0
M  V30 5833 H 548.873 6.43756 -1.26153 0
M  V30 5834 H 548.79 6.97927 -2.90574 0
M  V30 5835 H 550.058 7.5669 -1.87191 0
M  V30 5836 N 554.287 1.06798 1.15896 0
M  V30 5837 C 555.527 0.797041 1.8822 0
M  V30 5838 C 555.891 -0.664549 1.80133 0
M  V30 5839 O 557.092 -1.0503 2.47431 0
M  V30 5840 C 555.363 1.28431 3.33527 0
M  V30 5841 Se 556.922 1.14319 4.23647 0
M  V30 5842 H 553.74 0.288988 0.649621 0
M  V30 5843 H 556.342 1.36594 1.39865 0
M  V30 5844 H 555.046 2.34286 3.36954 0
M  V30 5845 H 554.577 0.710371 3.86933 0
M  V30 5846 H 556.592 0.0772467 4.9614 0
M  V30 5847 N 555.766 -1.3263 0.851289 0
M  V30 5848 C 556.676 -2.32722 0.296268 0
M  V30 5849 C 557.692 -1.63901 -0.584162 0
M  V30 5850 O 558.868 -1.95465 -0.485334 0
M  V30 5851 C 555.933 -3.42942 -0.509103 0
M  V30 5852 C 554.994 -4.2746 0.397069 0
M  V30 5853 C 554.227 -5.32416 -0.36996 0
M  V30 5854 O 554.45 -5.47491 -1.6003 0
M  V30 5855 O 553.384 -6.01327 0.262493 0
M  V30 5856 H 557.21 -2.82078 1.12543 0
M  V30 5857 H 554.795 -1.36194 0.614135 0
M  V30 5858 H 556.677 -4.1017 -0.96634 0
M  V30 5859 H 555.352 -2.95781 -1.31512 0
M  V30 5860 H 554.259 -3.63053 0.902411 0
M  V30 5861 H 555.592 -4.78136 1.16818 0
M  V30 5862 N 557.244 -0.608902 -1.45362 0
M  V30 5863 C 558.484 -0.10763 -2.04116 0
M  V30 5864 C 558.848 1.23883 -1.46686 0
M  V30 5865 O 560.049 1.83091 -1.96803 0
M  V30 5866 C 558.32 -0.0703351 -3.57331 0
M  V30 5867 Se 559.879 0.369554 -4.37241 0
M  V30 5868 H 556.697 -0.0502123 -0.709225 0
M  V30 5869 H 559.299 -0.8073 -1.78053 0
M  V30 5870 H 558.003 -1.05379 -3.9664 0
M  V30 5871 H 557.534 0.651287 -3.87971 0
M  V30 5872 H 559.549 1.61878 -4.69052 0
M  V30 5873 N 558.722 1.53707 -0.348139 0
M  V30 5874 C 560.133 1.86213 0.134797 0
M  V30 5875 C 560.484 1.26925 1.49614 0
M  V30 5876 O 559.609 0.584573 2.08355 0
M  V30 5877 C 560.204 3.37866 0.251371 0
M  V30 5878 C 558.763 3.70233 0.678543 0
M  V30 5879 C 557.91 2.76683 -0.184925 0
M  V30 5880 H 560.861 1.48204 -0.567571 0
M  V30 5881 H 560.882 3.64908 1.07806 0
M  V30 5882 H 560.394 3.80988 -0.739581 0
M  V30 5883 H 558.495 3.32659 1.67835 0
M  V30 5884 H 558.608 4.76836 0.465251 0
M  V30 5885 H 556.972 2.52374 0.343465 0
M  V30 5886 H 557.755 3.22635 -1.1731 0
M  V30 5887 N 560.2 0.0768682 1.57412 0
M  V30 5888 C 561.425 -0.603404 1.98428 0
M  V30 5889 C 561.85 -1.62047 0.955108 0
M  V30 5890 O 561.208 -1.81129 -0.0786778 0
M  V30 5891 C 561.256 -1.24396 3.38464 0
M  V30 5892 O 560.36 -2.35982 3.3821 0
M  V30 5893 H 559.701 -0.154741 0.645718 0
M  V30 5894 H 562.231 0.152885 2.04028 0
M  V30 5895 H 562.241 -1.5896 3.7576 0
M  V30 5896 H 560.916 -0.498735 4.12899 0
M  V30 5897 H 559.493 -2.03173 3.1269 0
M  V30 5898 N 561.678 -1.56367 -0.196722 0
M  V30 5899 C 562.626 -1.95304 -1.2633 0
M  V30 5900 C 563.62 -0.838252 -1.47206 0
M  V30 5901 O 564.826 -1.02325 -1.48087 0
M  V30 5902 H 561.201 -0.621013 -0.424083 0
M  V30 5903 H 563.172 -2.84254 -0.907879 0
M  V30 5904 C 561.921 -2.3074 -2.60104 0
M  V30 5905 H 561.244 -3.16047 -2.44856 0
M  V30 5906 H 562.684 -2.61849 -3.33484 0
M  V30 5907 C 561.143 -1.14143 -3.16975 0
M  V30 5908 O 561.673 -0.415602 -3.99544 0
M  V30 5909 N 559.879 -0.91867 -2.75697 0
M  V30 5910 H 559.426 -1.51065 -2.08656 0
M  V30 5911 H 559.384 -0.140321 -3.14087 0
M  V30 5912 O 563.195 0.341958 -1.57838 0
M  V30 5913 H 563.886 0.991482 -1.66401 0
M  V30 END ATOM
M  V30 BEGIN BOND
M  V30 END BOND
M  V30 END CTAB
M  END
$$$$
