drugbank_target|P49902 Cytosolic purine 5'-nucleotidase (DB00171; DB06408)
 OpenBabel12092119283D

  0  0  0     0  0            999 V3000
M  V30 BEGIN CTAB
M  V30 COUNTS 9042 9158 0 0 0
M  V30 BEGIN ATOM
M  V30 1 H -0.908 1.98254 -0.117106 0
M  V30 2 N 0 1.576 0 0
M  V30 3 C 0.933 2.03868 1.02534 0
M  V30 4 C 1.911 0.928543 1.3348 0
M  V30 5 O 3.095 1.19667 1.45644 0
M  V30 6 C 0.222 2.43627 2.35294 0
M  V30 7 C -0.732 3.65373 2.2001 0
M  V30 8 S 0.101 5.13292 1.52614 0
M  V30 9 C 1.257 5.56322 2.86805 0
M  V30 10 H 1.49 2.90518 0.631377 0
M  V30 11 H -0.977 1.52953 0.210867 0
M  V30 12 H 0.981 2.67203 3.11629 0
M  V30 13 H -0.358 1.57376 2.7183 0
M  V30 14 H -1.165 3.90944 3.18086 0
M  V30 15 H -1.563 3.418 1.51819 0
M  V30 16 H 0.729 5.58782 3.83104 0
M  V30 17 H 1.672 6.56266 2.65933 0
M  V30 18 H 2.08 4.83886 2.90714 0
M  V30 19 N 1.4781 -0.272755 1.55222 0
M  V30 20 C 2.7031 -1.02683 1.80197 0
M  V30 21 C 3.1281 -1.79142 0.573551 0
M  V30 22 O 2.4861 -1.74917 -0.476849 0
M  V30 23 C 2.5341 -1.9609 3.02624 0
M  V30 24 O 1.6381 -3.04863 2.77727 0
M  V30 25 H 0.9791 -0.293557 0.595584 0
M  V30 26 H 3.5091 -0.30159 2.02365 0
M  V30 27 H 3.5191 -2.38039 3.31363 0
M  V30 28 H 2.1941 -1.39851 3.91682 0
M  V30 29 H 0.7711 -2.67228 2.60084 0
M  V30 30 N 2.9562 -1.48159 -0.537278 0
M  V30 31 C 4.1842 -1.59454 -1.31841 0
M  V30 32 C 4.5992 -0.252065 -1.8711 0
M  V30 33 O 3.9562 0.757621 -1.66031 0
M  V30 34 C 4.0072 -2.63546 -2.47439 0
M  V30 35 O 3.7282 -3.92583 -1.94449 0
M  V30 36 C 5.2292 -2.85212 -3.39366 0
M  V30 37 H 2.4492 -0.53785 -0.401196 0
M  V30 38 H 4.9932 -1.93932 -0.648891 0
M  V30 39 H 3.1482 -2.31946 -3.1029 0
M  V30 40 H 3.5622 -4.49629 -2.70063 0
M  V30 41 H 5.0362 -3.61863 -4.16844 0
M  V30 42 H 5.5132 -1.93765 -3.94147 0
M  V30 43 H 6.1192 -3.18086 -2.82314 0
M  V30 44 N 4.4343 0.785586 -1.36625 0
M  V30 45 C 5.6593 1.57963 -1.34397 0
M  V30 46 C 6.0843 1.87964 0.071526 0
M  V30 47 O 5.4423 1.48182 1.0446 0
M  V30 48 C 5.4903 2.87511 -2.17646 0
M  V30 49 O 4.5943 3.81281 -1.57158 0
M  V30 50 H 3.9353 0.479014 -0.459828 0
M  V30 51 H 6.4653 0.973411 -1.79961 0
M  V30 52 H 6.4753 3.36745 -2.30362 0
M  V30 53 H 5.1503 2.65002 -3.20541 0
M  V30 54 H 3.7273 3.39885 -1.53403 0
M  V30 55 N 5.9124 1.20967 1.01018 0
M  V30 56 C 7.1584 1.0353 1.7508 0
M  V30 57 C 7.5134 -0.42734 1.87594 0
M  V30 58 O 6.8064 -1.31298 1.3954 0
M  V30 59 C 7.0004 1.65997 3.16512 0
M  V30 60 C 6.8294 3.18184 3.17788 0
M  V30 61 C 5.5994 3.87198 3.24662 0
M  V30 62 C 7.7974 4.15334 3.03319 0
M  V30 63 N 5.7794 5.26618 3.15509 0
M  V30 64 C 7.1504 5.41472 3.02007 0
M  V30 65 C 9.2054 4.06449 2.87583 0
M  V30 66 C 7.9084 6.5975 2.86571 0
M  V30 67 C 9.9344 5.24357 2.73503 0
M  V30 68 C 9.2964 6.49404 2.72862 0
M  V30 69 H 5.3954 0.433137 0.651089 0
M  V30 70 H 7.9794 1.5324 1.20107 0
M  V30 71 H 6.1504 1.18863 3.69765 0
M  V30 72 H 7.8824 1.41816 3.79039 0
M  V30 73 H 4.6374 3.38093 3.31648 0
M  V30 74 H 5.0614 5.99626 3.14289 0
M  V30 75 H 9.7034 3.10573 2.86887 0
M  V30 76 H 7.4214 7.55792 2.86015 0
M  V30 77 H 11.0074 5.19299 2.62334 0
M  V30 78 H 9.8874 7.39105 2.62093 0
M  V30 79 N 7.3905 -1.2043 1.01659 0
M  V30 80 C 8.6155 -1.94318 0.724942 0
M  V30 81 C 9.0405 -1.74266 -0.708034 0
M  V30 82 O 8.3985 -1.03694 -1.48719 0
M  V30 83 C 8.4465 -3.44486 1.06591 0
M  V30 84 O 7.5505 -4.12017 0.177599 0
M  V30 85 H 6.8915 -0.60708 0.26898 0
M  V30 86 H 9.4215 -1.52861 1.35995 0
M  V30 87 H 9.4315 -3.95106 1.01762 0
M  V30 88 H 8.1065 -3.58404 2.10997 0
M  V30 89 H 6.6835 -3.71821 0.283421 0
M  V30 90 N 8.8686 -0.792821 -1.36206 0
M  V30 91 C 10.1456 -0.290627 -1.93429 0
M  V30 92 C 10.5256 1.21773 -1.72437 0
M  V30 93 O 9.8736 2.0108 -1.08531 0
M  V30 94 C 10.0836 -0.686973 -3.42172 0
M  V30 95 C 11.4316 -0.668643 -4.19302 0
M  V30 96 O 12.4556 -0.627658 -3.50626 0
M  V30 97 O 11.3146 -0.714597 -5.41808 0
M  V30 98 H 8.4086 -0.0727927 -0.82379 0
M  V30 99 H 10.9546 -0.875593 -1.45367 0
M  V30 100 H 9.7266 -1.72711 -3.51122 0
M  V30 101 H 9.3496 -0.0760733 -3.97527 0
M  V30 102 N 10.3467 1.47872 -0.545128 0
M  V30 103 C 11.7627 1.5829 -0.204032 0
M  V30 104 C 11.9627 1.54529 1.29317 0
M  V30 105 O 11.0187 1.44232 2.07252 0
M  V30 106 C 12.3317 2.89304 -0.819987 0
M  V30 107 C 13.8797 3.02864 -0.790105 0
M  V30 108 C 14.3547 4.3656 -1.38491 0
M  V30 109 N 15.8457 4.43165 -1.34755 0
M  V30 110 C 16.5807 5.45153 -1.77753 0
M  V30 111 N 16.0767 6.54016 -2.2855 0
M  V30 112 N 17.8697 5.36125 -1.68897 0
M  V30 113 H 10.0207 1.4856 -1.51802 0
M  V30 114 H 12.2837 0.706305 -0.632327 0
M  V30 115 H 11.9897 2.97757 -1.87173 0
M  V30 116 H 11.8637 3.75957 -0.305915 0
M  V30 117 H 14.2507 2.94014 0.252913 0
M  V30 118 H 14.3317 2.17782 -1.34181 0
M  V30 119 H 13.9757 4.46164 -2.42693 0
M  V30 120 H 13.9057 5.20353 -0.808754 0
M  V30 121 H 16.3967 3.65083 -0.975855 0
M  V30 122 H 16.7097 7.27994 -2.59314 0
M  V30 123 H 15.0547 6.54938 -2.32553 0
M  V30 124 H 18.2457 4.49975 -1.28998 0
M  V30 125 H 18.4187 6.15472 -2.02726 0
M  V30 126 N 11.8248 0.280983 1.55075 0
M  V30 127 C 12.7548 -0.597469 2.25727 0
M  V30 128 C 13.7358 -1.15417 1.24952 0
M  V30 129 O 14.9208 -1.18722 1.53684 0
M  V30 130 C 12.0508 -1.7789 2.98283 0
M  V30 131 C 11.0048 -1.35347 4.06036 0
M  V30 132 C 10.3308 -2.61846 4.66198 0
M  V30 133 C 11.6308 -0.499354 5.19907 0
M  V30 134 H 13.3248 -0.00824265 2.99399 0
M  V30 135 H 10.8708 -0.0025244 1.44 0
M  V30 136 H 12.8238 -2.39937 3.46422 0
M  V30 137 H 11.5478 -2.39405 2.22155 0
M  V30 138 H 10.2068 -0.756156 3.58717 0
M  V30 139 H 9.8548 -3.21632 3.86732 0
M  V30 140 H 9.5548 -2.3409 5.38958 0
M  V30 141 H 11.0788 -3.24732 5.1709 0
M  V30 142 H 12.4928 -1.02498 5.64063 0
M  V30 143 H 10.8898 -0.316424 5.99265 0
M  V30 144 H 11.9598 0.480459 4.82514 0
M  V30 145 N 13.3029 -1.57598 0.00835791 0
M  V30 146 C 14.2349 -2.05811 -1.00868 0
M  V30 147 C 15.2479 -0.977579 -1.30182 0
M  V30 148 O 16.4369 -1.25421 -1.27011 0
M  V30 149 C 13.5369 -2.45016 -2.34137 0
M  V30 150 C 12.7099 -3.75903 -2.23643 0
M  V30 151 C 11.7689 -4.01884 -3.3967 0
M  V30 152 O 10.7949 -4.72433 -3.17483 0
M  V30 153 N 11.9969 -3.50432 -4.62793 0
M  V30 154 H 14.7619 -2.93684 -0.597458 0
M  V30 155 H 12.3229 -1.60909 -0.178852 0
M  V30 156 H 14.3149 -2.59506 -3.10546 0
M  V30 157 H 12.8849 -1.62618 -2.66972 0
M  V30 158 H 12.1049 -3.7141 -1.32091 0
M  V30 159 H 13.3929 -4.61695 -2.13812 0
M  V30 160 H 12.7909 -2.93317 -4.83716 0
M  V30 161 H 11.3479 -3.70236 -5.3644 0
M  V30 162 N 14.781 0.264519 -1.55364 0
M  V30 163 C 15.729 1.34702 -1.89626 0
M  V30 164 C 16.723 1.50712 -0.773459 0
M  V30 165 O 17.929 1.52395 -0.957897 0
M  V30 166 H 14.304 0.450682 -0.601988 0
M  V30 167 H 16.275 1.0306 -2.80038 0
M  V30 168 C 15.024 2.6989 -2.19214 0
M  V30 169 H 14.347 2.58365 -3.05103 0
M  V30 170 H 15.787 3.44553 -2.47102 0
M  V30 171 C 14.246 3.21637 -1.00254 0
M  V30 172 O 14.776 4.00973 -0.241501 0
M  V30 173 N 12.982 2.7943 -0.797938 0
M  V30 174 H 12.529 2.15026 -1.4185 0
M  V30 175 H 12.487 3.144 -0.00363422 0
M  V30 176 N 16.2591 1.48442 0.529413 0
M  V30 177 C 17.2221 1.62524 1.61612 0
M  V30 178 C 18.2221 0.498509 1.52877 0
M  V30 179 O 19.4121 0.76431 1.56537 0
M  V30 180 C 16.5441 1.59597 3.01233 0
M  V30 181 H 17.7371 2.59423 1.50465 0
M  V30 182 H 15.2901 1.37047 0.751514 0
M  V30 183 H 16.0251 0.641781 3.17886 0
M  V30 184 H 15.8101 2.41397 3.08982 0
M  V30 185 H 17.3001 1.72646 3.80241 0
M  V30 186 N 17.7372 -0.778329 1.37039 0
M  V30 187 C 18.7002 -1.87301 1.32102 0
M  V30 188 C 19.7002 -1.59198 0.226405 0
M  V30 189 O 20.8902 -1.67403 0.481861 0
M  V30 190 C 18.0222 -3.24309 1.05055 0
M  V30 191 H 19.2152 -1.93093 2.29467 0
M  V30 192 H 16.7682 -0.977358 1.21973 0
M  V30 193 H 17.5032 -3.24196 0.0819373 0
M  V30 194 H 17.2882 -3.46098 1.84279 0
M  V30 195 H 18.7782 -4.04382 1.04234 0
M  V30 196 N 19.2153 -1.21501 -1.00376 0
M  V30 197 C 20.4923 -0.941745 -1.71437 0
M  V30 198 C 20.8723 0.546114 -2.03914 0
M  V30 199 O 20.2203 1.51128 -1.71384 0
M  V30 200 C 20.4303 -1.82812 -2.97289 0
M  V30 201 C 21.7783 -2.07771 -3.70292 0
M  V30 202 O 22.8023 -1.80171 -3.07273 0
M  V30 203 O 21.6613 -2.54456 -4.83647 0
M  V30 204 H 18.7553 -0.353243 -0.747762 0
M  V30 205 H 21.3013 -1.32436 -1.06108 0
M  V30 206 H 20.0733 -2.83501 -2.69709 0
M  V30 207 H 19.6963 -1.4464 -3.70358 0
M  V30 208 N 20.6934 1.19889 -1.02296 0
M  V30 209 C 21.6264 2.21639 -0.543282 0
M  V30 210 C 22.6044 1.57275 0.412698 0
M  V30 211 O 23.7884 1.85568 0.331198 0
M  V30 212 C 20.9154 3.38057 0.208571 0
M  V30 213 C 19.9614 4.20751 -0.697933 0
M  V30 214 S 20.7944 4.89529 -2.17075 0
M  V30 215 C 21.9504 6.09363 -1.42923 0
M  V30 216 H 22.1834 2.61984 -1.40541 0
M  V30 217 H 19.7164 1.30041 -0.832387 0
M  V30 218 H 21.6744 4.05539 0.63624 0
M  V30 219 H 20.3354 2.96159 1.04635 0
M  V30 220 H 19.5284 5.03862 -0.117831 0
M  V30 221 H 19.1304 3.58556 -1.06366 0
M  V30 222 H 21.4224 6.73742 -0.712637 0
M  V30 223 H 22.3654 6.71845 -2.23673 0
M  V30 224 H 22.7734 5.56798 -0.929327 0
M  V30 225 N 22.1715 0.800033 1.35784 0
M  V30 226 C 23.5825 0.439142 1.81462 0
M  V30 227 C 23.9335 -1.03813 1.66485 0
M  V30 228 O 23.0585 -1.80626 1.19177 0
M  V30 229 C 23.6535 0.790314 3.29453 0
M  V30 230 C 22.2125 0.482111 3.733 0
M  V30 231 C 21.3595 1.01938 2.57883 0
M  V30 232 H 24.3105 0.992254 1.23855 0
M  V30 233 H 24.3315 0.0853677 3.80404 0
M  V30 234 H 23.8435 1.86554 3.40322 0
M  V30 235 H 21.9445 -0.584652 3.67984 0
M  V30 236 H 22.0575 1.01015 4.6833 0
M  V30 237 H 20.4215 0.442043 2.50835 0
M  V30 238 H 21.2045 2.10059 2.71533 0
M  V30 239 N 23.6496 -1.47581 0.552962 0
M  V30 240 C 24.6126 -2.28439 -0.186605 0
M  V30 241 C 25.6126 -1.36706 -0.84665 0
M  V30 242 O 26.8026 -1.59378 -0.703164 0
M  V30 243 C 23.9346 -3.16264 -1.2724 0
M  V30 244 H 25.1276 -2.95294 0.523609 0
M  V30 245 H 22.6806 -1.532 0.309745 0
M  V30 246 H 23.4156 -2.54091 -2.01514 0
M  V30 247 H 23.2006 -3.83769 -0.803968 0
M  V30 248 H 24.6906 -3.77198 -1.79196 0
M  V30 249 N 25.1277 -0.289203 -1.54924 0
M  V30 250 C 26.0757 0.607966 -2.24514 0
M  V30 251 C 27.0697 1.14655 -1.24702 0
M  V30 252 O 28.2757 1.09856 -1.4259 0
M  V30 253 H 24.6507 0.21464 -0.720718 0
M  V30 254 H 26.6217 -0.00164182 -2.984 0
M  V30 255 C 25.3707 1.77406 -2.99036 0
M  V30 256 H 24.6937 1.36884 -3.75637 0
M  V30 257 H 26.1337 2.37814 -3.51028 0
M  V30 258 C 24.5927 2.67107 -2.05318 0
M  V30 259 O 25.1227 3.6787 -1.61353 0
M  V30 260 N 23.3287 2.34582 -1.71521 0
M  V30 261 H 22.8757 1.52688 -2.07471 0
M  V30 262 H 22.8337 2.94867 -1.0909 0
M  V30 263 N 26.6058 1.57591 -0.0167156 0
M  V30 264 C 27.5388 2.04944 1.00366 0
M  V30 265 C 28.5168 0.942648 1.32487 0
M  V30 266 O 29.7008 1.21205 1.44367 0
M  V30 267 C 26.8278 2.46109 2.32697 0
M  V30 268 C 25.8738 3.67686 2.16123 0
M  V30 269 S 26.7068 5.14882 1.47161 0
M  V30 270 C 27.8628 5.59332 2.80888 0
M  V30 271 H 28.0958 2.91172 0.600528 0
M  V30 272 H 25.6288 1.53168 0.194632 0
M  V30 273 H 27.5868 2.70493 3.08778 0
M  V30 274 H 26.2478 1.6025 2.70146 0
M  V30 275 H 25.4408 3.94296 3.13922 0
M  V30 276 H 25.0428 3.43391 1.48185 0
M  V30 277 H 27.3348 5.62814 3.77156 0
M  V30 278 H 28.2778 6.5905 2.58958 0
M  V30 279 H 28.6858 4.86942 2.85565 0
M  V30 280 N 28.0839 -0.256276 1.55502 0
M  V30 281 C 29.3609 -1.00789 1.67633 0
M  V30 282 C 29.7409 -2.03706 0.553826 0
M  V30 283 O 29.0889 -2.24145 -0.443969 0
M  V30 284 C 29.2989 -1.64968 3.07549 0
M  V30 285 C 30.6469 -2.15505 3.65845 0
M  V30 286 O 31.6709 -1.74925 3.1029 0
M  V30 287 O 30.5299 -2.89986 4.63217 0
M  V30 288 H 27.6239 -0.468553 0.681459 0
M  V30 289 H 30.1699 -0.250806 1.67836 0
M  V30 290 H 28.9419 -0.904785 3.80696 0
M  V30 291 H 28.5649 -2.47321 3.11317 0
M  V30 292 N 29.562 -1.4872 -0.521534 0
M  V30 293 C 30.509 -1.63871 -1.62527 0
M  V30 294 C 31.479 -0.480559 -1.58996 0
M  V30 295 O 32.664 -0.705085 -1.77294 0
M  V30 296 C 29.804 -1.69227 -3.00759 0
M  V30 297 C 28.917 -2.96207 -3.14461 0
M  V30 298 C 28.052 -2.92671 -4.43303 0
M  V30 299 C 27.091 -4.14318 -4.50563 0
M  V30 300 N 26.228 -4.0881 -5.70805 0
M  V30 301 H 31.068 -2.58123 -1.48918 0
M  V30 302 H 28.605 -1.28 -0.724878 0
M  V30 303 H 30.563 -1.70314 -3.80853 0
M  V30 304 H 29.193 -0.784586 -3.1312 0
M  V30 305 H 28.245 -3.04826 -2.27564 0
M  V30 306 H 29.557 -3.86192 -3.15686 0
M  V30 307 H 28.711 -2.92206 -5.31696 0
M  V30 308 H 27.45 -2.00429 -4.44612 0
M  V30 309 H 26.455 -4.15049 -3.60575 0
M  V30 310 H 27.68 -5.07729 -4.50986 0
M  V30 311 H 25.626 -3.19394 -5.72995 0
M  V30 312 H 25.543 -4.92509 -5.7356 0
M  V30 313 H 26.811 -4.12418 -6.61462 0
M  V30 314 N 31.0401 0.771051 -1.3745 0
M  V30 315 C 31.9901 1.87456 -1.29785 0
M  V30 316 C 32.9741 1.59827 -0.185541 0
M  V30 317 O 34.1661 1.71945 -0.419997 0
M  V30 318 C 31.2951 3.24935 -1.1078 0
M  V30 319 C 30.3811 3.58514 -2.26558 0
M  V30 320 N 30.7721 3.6327 -3.5195 0
M  V30 321 C 29.0701 3.88683 -2.18727 0
M  V30 322 C 29.7711 3.93616 -4.283 0
M  V30 323 N 28.7471 4.09551 -3.57448 0
M  V30 324 H 32.5491 1.89386 -2.24745 0
M  V30 325 H 30.0631 0.967531 -1.30432 0
M  V30 326 H 32.0601 4.03881 -1.03374 0
M  V30 327 H 30.7201 3.24268 -0.16738 0
M  V30 328 H 31.7311 3.45458 -3.85848 0
M  V30 329 H 28.4081 3.95834 -1.32746 0
M  V30 330 H 29.7981 4.04066 -5.36824 0
M  V30 331 N 32.5182 1.22032 0.997298 0
M  V30 332 C 33.4812 0.987909 2.06816 0
M  V30 333 C 34.4812 -0.0440084 1.6074 0
M  V30 334 O 35.6712 0.194053 1.73116 0
M  V30 335 C 32.8032 0.49132 3.37341 0
M  V30 336 H 33.9962 1.93803 2.28868 0
M  V30 337 H 31.5492 1.03838 1.16822 0
M  V30 338 H 32.2842 -0.463364 3.20973 0
M  V30 339 H 32.0692 1.23575 3.72118 0
M  V30 340 H 33.5592 0.348824 4.16141 0
M  V30 341 N 33.9963 -1.19345 1.0293 0
M  V30 342 C 34.9263 -2.2481 0.631105 0
M  V30 343 C 35.9073 -1.66245 -0.360104 0
M  V30 344 O 37.0923 -1.92677 -0.242726 0
M  V30 345 C 34.2223 -3.47295 -0.0184607 0
M  V30 346 C 33.1763 -4.18536 0.895073 0
M  V30 347 C 32.5023 -5.34586 0.110592 0
M  V30 348 C 33.8023 -4.73287 2.209 0
M  V30 349 H 35.4963 -2.58372 1.51275 0
M  V30 350 H 33.0423 -1.24194 0.728818 0
M  V30 351 H 34.9953 -4.20268 -0.308675 0
M  V30 352 H 33.7193 -3.12933 -0.934907 0
M  V30 353 H 32.3783 -3.47446 1.16949 0
M  V30 354 H 32.0263 -4.96469 -0.807902 0
M  V30 355 H 31.7263 -5.83183 0.719087 0
M  V30 356 H 33.2503 -6.10355 -0.172871 0
M  V30 357 H 34.6643 -5.38013 1.98028 0
M  V30 358 H 33.0613 -5.32373 2.76946 0
M  V30 359 H 34.1313 -3.91331 2.86336 0
M  V30 360 N 35.4744 -0.807222 -1.35358 0
M  V30 361 C 36.4214 -0.216037 -2.29787 0
M  V30 362 C 37.3914 0.650278 -1.52842 0
M  V30 363 O 38.5764 0.595227 -1.81278 0
M  V30 364 C 35.7164 0.628893 -3.39321 0
M  V30 365 C 34.8294 -0.257927 -4.31229 0
M  V30 366 C 33.9644 0.595069 -5.27856 0
M  V30 367 C 33.0034 -0.292111 -6.11403 0
M  V30 368 N 32.1404 0.520895 -7.00165 0
M  V30 369 H 36.9804 -1.02671 -2.79755 0
M  V30 370 H 34.5174 -0.517839 -1.37684 0
M  V30 371 H 36.4754 1.13393 -4.01494 0
M  V30 372 H 35.1054 1.40482 -2.90628 0
M  V30 373 H 34.1574 -0.881076 -3.70056 0
M  V30 374 H 35.4694 -0.940759 -4.89848 0
M  V30 375 H 34.6234 1.16522 -5.95405 0
M  V30 376 H 33.3624 1.31146 -4.69736 0
M  V30 377 H 32.3674 -0.874525 -5.428 0
M  V30 378 H 33.5924 -1.00638 -6.71602 0
M  V30 379 H 31.5384 1.22125 -6.44532 0
M  V30 380 H 31.4554 -0.103877 -7.55929 0
M  V30 381 H 32.7234 1.0743 -7.72062 0
M  V30 382 N 36.9525 1.47285 -0.560781 0
M  V30 383 C 37.8995 2.30058 0.18491 0
M  V30 384 C 38.8695 1.39281 0.904986 0
M  V30 385 O 40.0545 1.68241 0.899979 0
M  V30 386 C 37.1945 3.23317 1.20666 0
M  V30 387 C 36.3075 4.29186 0.492285 0
M  V30 388 C 35.4425 5.09592 1.49964 0
M  V30 389 C 34.4815 6.07232 0.770439 0
M  V30 390 N 33.6185 6.80584 1.72479 0
M  V30 391 H 38.4585 2.93302 -0.527048 0
M  V30 392 H 35.9955 1.44568 -0.271738 0
M  V30 393 H 37.9535 3.75811 1.81168 0
M  V30 394 H 36.5835 2.61929 1.88661 0
M  V30 395 H 35.6355 3.7972 -0.227333 0
M  V30 396 H 36.9475 4.98738 -0.0787929 0
M  V30 397 H 36.1015 5.66254 2.17809 0
M  V30 398 H 34.8405 4.3995 2.10464 0
M  V30 399 H 33.8455 5.49745 0.0780846 0
M  V30 400 H 35.0705 6.78884 0.171134 0
M  V30 401 H 33.0165 6.1367 2.3183 0
M  V30 402 H 32.9335 7.46319 1.20596 0
M  V30 403 H 34.2015 7.41818 2.39428 0
M  V30 404 N 38.4306 0.297415 1.54768 0
M  V30 405 C 39.6606 -0.315165 2.04182 0
M  V30 406 C 40.0686 -1.4834 1.17439 0
M  V30 407 O 39.4116 -1.82695 0.191891 0
M  V30 408 C 39.4736 -0.837583 3.49607 0
M  V30 409 C 39.1376 0.204912 4.5654 0
M  V30 410 C 40.1346 1.03214 5.09552 0
M  V30 411 C 37.8196 0.345578 5.0111 0
M  V30 412 C 39.8136 1.986 6.05671 0
M  V30 413 C 37.5006 1.30289 5.97049 0
M  V30 414 C 38.4986 2.12159 6.49213 0
M  V30 415 O 38.1866 3.06268 7.43273 0
M  V30 416 H 37.9186 -0.0729646 0.672051 0
M  V30 417 H 40.4726 0.433907 2.00765 0
M  V30 418 H 38.7026 -1.63712 3.50336 0
M  V30 419 H 40.3916 -1.36566 3.82236 0
M  V30 420 H 41.1576 0.934312 4.75916 0
M  V30 421 H 37.0366 -0.28171 4.60138 0
M  V30 422 H 40.5806 2.62542 6.46311 0
M  V30 423 H 36.4776 1.40145 6.30103 0
M  V30 424 H 37.2456 3.01205 7.61064 0
M  V30 425 N 39.9087 -1.5758 0.0250728 0
M  V30 426 C 41.3247 -1.56124 -0.331282 0
M  V30 427 C 41.5247 -1.03029 -1.73169 0
M  V30 428 O 40.5807 -0.675215 -2.43305 0
M  V30 429 C 41.8937 -3.00139 -0.183584 0
M  V30 430 C 43.4417 -3.11946 -0.256654 0
M  V30 431 C 43.9167 -4.57793 -0.137792 0
M  V30 432 N 45.4077 -4.6279 -0.194904 0
M  V30 433 C 46.1427 -5.7326 -0.126655 0
M  V30 434 N 45.6387 -6.928 -0.00755288 0
M  V30 435 N 47.4317 -5.61811 -0.180348 0
M  V30 436 H 39.5827 -1.90424 0.94087 0
M  V30 437 H 41.8457 -0.875761 0.362968 0
M  V30 438 H 41.5517 -3.4292 0.780927 0
M  V30 439 H 41.4257 -3.64899 -0.955448 0
M  V30 440 H 43.8127 -2.69079 -1.21162 0
M  V30 441 H 43.8937 -2.49915 0.545517 0
M  V30 442 H 43.5377 -5.01339 0.813739 0
M  V30 443 H 43.4677 -5.17798 -0.958775 0
M  V30 444 H 45.9587 -3.76807 -0.287267 0
M  V30 445 H 46.2717 -7.72791 0.0379428 0
M  V30 446 H 44.6167 -6.94995 0.0271731 0
M  V30 447 H 47.8077 -4.6731 -0.271767 0
M  V30 448 H 47.9807 -6.47882 -0.123697 0
M  V30 449 N 41.3868 0.248026 -1.55636 0
M  V30 450 C 42.8028 0.596483 -1.48035 0
M  V30 451 C 43.0028 1.88386 -0.715039 0
M  V30 452 O 42.0588 2.51319 -0.243944 0
M  V30 453 C 43.3718 0.700258 -2.92433 0
M  V30 454 C 44.9198 0.792659 -3.02797 0
M  V30 455 C 45.3948 0.928005 -4.485 0
M  V30 456 N 46.8858 0.992903 -4.52433 0
M  V30 457 C 47.6208 1.11687 -5.62418 0
M  V30 458 N 47.1168 1.20645 -6.82214 0
M  V30 459 N 48.9098 1.14994 -5.50212 0
M  V30 460 H 41.0608 -0.597109 -2.03834 0
M  V30 461 H 43.3238 -0.205925 -0.925364 0
M  V30 462 H 43.0298 -0.175658 -3.51261 0
M  V30 463 H 42.9038 1.57255 -3.42857 0
M  V30 464 H 45.2908 1.65903 -2.4405 0
M  V30 465 H 45.3718 -0.104762 -2.55585 0
M  V30 466 H 45.0158 0.0661971 -5.07857 0
M  V30 467 H 44.9458 1.84045 -4.93391 0
M  V30 468 H 47.4368 0.935064 -3.66149 0
M  V30 469 H 47.7498 1.30008 -7.61786 0
M  V30 470 H 46.0948 1.17605 -6.84977 0
M  V30 471 H 49.2858 1.07643 -4.55555 0
M  V30 472 H 49.4588 1.24311 -6.35965 0
M  V30 473 N 42.8649 1.48995 0.513639 0
M  V30 474 C 43.7749 1.67443 1.64317 0
M  V30 475 C 44.7909 0.556947 1.64846 0
M  V30 476 O 45.9669 0.830082 1.83498 0
M  V30 477 C 43.0319 1.72515 3.00732 0
M  V30 478 C 42.0929 2.96009 3.1093 0
M  V30 479 C 41.3259 3.00829 4.40837 0
M  V30 480 O 41.5489 2.13594 5.28898 0
M  V30 481 O 40.4829 3.93168 4.55744 0
M  V30 482 H 44.3089 2.63106 1.51687 0
M  V30 483 H 41.8939 1.32588 0.688543 0
M  V30 484 H 43.7759 1.78277 3.81831 0
M  V30 485 H 42.4509 0.800278 3.13651 0
M  V30 486 H 41.3579 2.9577 2.29065 0
M  V30 487 H 42.6909 3.87934 3.02933 0
M  V30 488 N 44.343 -0.763751 1.37857 0
M  V30 489 C 45.306 -1.85889 1.34081 0
M  V30 490 C 46.306 -1.58949 0.243277 0
M  V30 491 O 47.496 -1.66882 0.499589 0
M  V30 492 C 44.628 -3.23176 1.08489 0
M  V30 493 H 45.821 -1.90648 2.31502 0
M  V30 494 H 43.374 -0.964367 1.23003 0
M  V30 495 H 44.109 -3.24091 0.116318 0
M  V30 496 H 43.894 -3.44124 1.8794 0
M  V30 497 H 45.384 -4.03254 1.08517 0
M  V30 498 N 45.8211 -1.22559 -0.990812 0
M  V30 499 C 47.0511 -1.07623 -1.76355 0
M  V30 500 C 47.4591 0.37601 -1.85426 0
M  V30 501 O 46.8021 1.27228 -1.32509 0
M  V30 502 C 46.8641 -1.61507 -3.21179 0
M  V30 503 C 46.5281 -3.10146 -3.35646 0
M  V30 504 C 47.5251 -4.07553 -3.22796 0
M  V30 505 C 45.2101 -3.49644 -3.60631 0
M  V30 506 C 47.2041 -5.42442 -3.34716 0
M  V30 507 C 44.8911 -4.84682 -3.72192 0
M  V30 508 C 45.8891 -5.8089 -3.59243 0
M  V30 509 O 45.5771 -7.13476 -3.70415 0
M  V30 510 H 45.3091 -0.377745 -0.560611 0
M  V30 511 H 47.8631 -1.62658 -1.25425 0
M  V30 512 H 46.0931 -1.00881 -3.73309 0
M  V30 513 H 47.7821 -1.42202 -3.80175 0
M  V30 514 H 48.5481 -3.78381 -3.03403 0
M  V30 515 H 44.4271 -2.75282 -3.69785 0
M  V30 516 H 47.9711 -6.17518 -3.24526 0
M  V30 517 H 43.8681 -5.13534 -3.91092 0
M  V30 518 H 44.6361 -7.21083 -3.87275 0
M  V30 519 N 47.2992 1.18797 -1.03562 0
M  V30 520 C 48.2492 2.20161 -0.592724 0
M  V30 521 C 49.2332 1.56772 0.362133 0
M  V30 522 O 50.4252 1.76062 0.182009 0
M  V30 523 C 47.5542 3.43266 0.0481024 0
M  V30 524 C 46.6402 4.13786 -0.9296 0
M  V30 525 N 47.0312 4.60388 -2.09467 0
M  V30 526 C 45.3292 4.39572 -0.754499 0
M  V30 527 C 46.0302 5.14619 -2.71187 0
M  V30 528 N 45.0062 5.05826 -1.991 0
M  V30 529 H 48.8082 2.53877 -1.48066 0
M  V30 530 H 46.3222 1.34946 -0.903514 0
M  V30 531 H 48.3192 4.15136 0.383058 0
M  V30 532 H 46.9792 3.11048 0.931636 0
M  V30 533 H 47.9902 4.54999 -2.47379 0
M  V30 534 H 44.6672 4.17425 0.0793713 0
M  V30 535 H 46.0572 5.60917 -3.69895 0
M  V30 536 N 48.7773 0.814389 1.34928 0
M  V30 537 C 50.1933 0.499084 1.51596 0
M  V30 538 C 50.3933 -0.978319 1.76157 0
M  V30 539 O 49.4493 -1.76309 1.80752 0
M  V30 540 C 50.7623 1.35121 2.68631 0
M  V30 541 C 52.3103 1.34746 2.82511 0
M  V30 542 C 52.7853 2.18388 4.0258 0
M  V30 543 N 54.2763 2.15966 4.09772 0
M  V30 544 C 55.0113 2.77437 5.01813 0
M  V30 545 N 54.5073 3.47866 5.99134 0
M  V30 546 N 56.3003 2.67037 4.94619 0
M  V30 547 H 48.4513 1.7711 1.17243 0
M  V30 548 H 50.7143 0.754256 0.574284 0
M  V30 549 H 50.4203 2.40001 2.57085 0
M  V30 550 H 50.2943 1.00991 3.63429 0
M  V30 551 H 52.6813 0.30648 2.93504 0
M  V30 552 H 52.7623 1.72869 1.88547 0
M  V30 553 H 52.4063 3.2253 3.92347 0
M  V30 554 H 52.3363 1.77621 4.9574 0
M  V30 555 H 54.8273 1.64729 3.40107 0
M  V30 556 H 55.1403 3.92038 6.65977 0
M  V30 557 H 53.4853 3.51972 5.99284 0
M  V30 558 H 56.6763 2.11597 4.17546 0
M  V30 559 H 56.8493 3.15232 5.66156 0
M  V30 560 N 50.2554 -1.46986 0.568584 0
M  V30 561 C 51.5014 -2.02741 0.0488709 0
M  V30 562 C 51.8344 -1.44077 -1.30214 0
M  V30 563 O 51.1094 -0.600552 -1.84996 0
M  V30 564 C 51.3924 -3.60086 -0.032047 0
M  V30 565 C 51.2454 -4.29162 1.34686 0
M  V30 566 C 52.5644 -4.33838 -0.739798 0
M  V30 567 H 49.6834 -0.736749 0.0192338 0
M  V30 568 H 52.3254 -1.75289 0.733065 0
M  V30 569 H 50.4754 -3.83606 -0.61473 0
M  V30 570 H 52.1474 -4.16948 1.97362 0
M  V30 571 H 50.3904 -3.89073 1.91846 0
M  V30 572 H 51.0614 -5.37826 1.24285 0
M  V30 573 H 53.5374 -4.15378 -0.244939 0
M  V30 574 H 52.4134 -5.43537 -0.765406 0
M  V30 575 H 52.6744 -4.03875 -1.79827 0
M  V30 576 N 51.7335 -0.305618 -1.54608 0
M  V30 577 C 52.9805 0.302298 -2.00231 0
M  V30 578 C 53.3085 1.5354 -1.19398 0
M  V30 579 O 52.5635 1.93973 -0.259423 0
M  V30 580 C 52.8625 0.698983 -3.50498 0
M  V30 581 C 52.5285 -0.432903 -4.48817 0
M  V30 582 C 51.1905 -0.743622 -4.75419 0
M  V30 583 C 53.5425 -1.19409 -5.07337 0
M  V30 584 C 50.8705 -1.81857 -5.57804 0
M  V30 585 C 53.2225 -2.25899 -5.90891 0
M  V30 586 C 51.8865 -2.57572 -6.15803 0
M  V30 587 H 51.1565 0.110619 -0.732697 0
M  V30 588 H 53.8035 -0.425674 -1.86709 0
M  V30 589 H 52.1085 1.50711 -3.61654 0
M  V30 590 H 53.8055 1.1806 -3.83227 0
M  V30 591 H 50.3955 -0.18063 -4.28219 0
M  V30 592 H 54.5795 -0.967295 -4.86782 0
M  V30 593 H 49.8355 -2.06864 -5.75341 0
M  V30 594 H 54.0095 -2.85335 -6.35261 0
M  V30 595 H 51.6365 -3.40998 -6.7943 0
M  V30 596 N 53.2116 1.57565 -0.0334293 0
M  V30 597 C 54.4576 1.92262 0.645226 0
M  V30 598 C 54.7906 0.910543 1.71531 0
M  V30 599 O 54.0656 -0.066099 1.94388 0
M  V30 600 C 54.3486 3.37422 1.2577 0
M  V30 601 C 54.2016 4.49369 0.196891 0
M  V30 602 C 55.5206 3.82628 2.17449 0
M  V30 603 H 52.6396 0.699171 0.233085 0
M  V30 604 H 55.2816 1.89779 -0.0915694 0
M  V30 605 H 53.4316 3.39669 1.88566 0
M  V30 606 H 55.1036 4.59254 -0.433962 0
M  V30 607 H 53.3466 4.31168 -0.477137 0
M  V30 608 H 54.0176 5.47978 0.665124 0
M  V30 609 H 56.4936 3.82145 1.64634 0
M  V30 610 H 55.3696 4.84883 2.57254 0
M  V30 611 H 55.6306 3.18376 3.0674 0
M  V30 612 N 54.6897 -0.239769 1.55765 0
M  V30 613 C 55.6377 -1.31668 1.91745 0
M  V30 614 C 56.6317 -1.49462 0.797338 0
M  V30 615 O 57.8377 -1.50852 0.982021 0
M  V30 616 H 54.2127 -0.441048 0.609082 0
M  V30 617 H 56.1837 -0.985923 2.81642 0
M  V30 618 C 54.9327 -2.66368 2.2348 0
M  V30 619 H 54.2557 -2.53478 3.09175 0
M  V30 620 H 55.6957 -3.40578 2.52553 0
M  V30 621 C 54.1547 -3.20002 1.05359 0
M  V30 622 O 54.6847 -4.00538 0.305261 0
M  V30 623 N 52.8907 -2.78126 0.842292 0
M  V30 624 H 52.4377 -2.12742 1.45253 0
M  V30 625 H 52.3957 -3.14354 0.053652 0
M  V30 626 N 56.1678 -1.49265 -0.50573 0
M  V30 627 C 57.5838 -1.35923 -0.836486 0
M  V30 628 C 57.7838 -0.388704 -1.97715 0
M  V30 629 O 56.8398 0.181336 -2.51848 0
M  V30 630 C 58.1528 -2.76531 -1.18115 0
M  V30 631 C 59.7008 -2.85197 -1.28964 0
M  V30 632 C 60.1758 -4.26561 -1.66761 0
M  V30 633 N 61.6668 -4.2935 -1.73819 0
M  V30 634 C 62.4018 -5.35693 -2.045 0
M  V30 635 N 61.8978 -6.52287 -2.33438 0
M  V30 636 N 63.6908 -5.23105 -2.05711 0
M  V30 637 H 55.8418 -2.10965 0.246519 0
M  V30 638 H 58.1048 -0.9468 0.0476887 0
M  V30 639 H 57.8108 -3.49226 -0.416398 0
M  V30 640 H 57.6848 -3.11599 -2.1257 0
M  V30 641 H 60.0718 -2.12742 -2.04511 0
M  V30 642 H 60.1528 -2.53718 -0.325704 0
M  V30 643 H 59.7968 -4.99541 -0.917656 0
M  V30 644 H 59.7268 -4.55502 -2.64246 0
M  V30 645 H 62.2178 -3.4526 -1.53635 0
M  V30 646 H 62.5308 -7.29158 -2.56024 0
M  V30 647 H 60.8758 -6.55521 -2.30905 0
M  V30 648 H 64.0668 -4.31026 -1.82577 0
M  V30 649 H 64.2398 -6.06078 -2.29289 0
M  V30 650 N 57.6459 0.756429 -1.3826 0
M  V30 651 C 58.8709 1.55077 -1.37717 0
M  V30 652 C 59.2959 1.88073 0.03164 0
M  V30 653 O 58.6539 1.50364 1.01293 0
M  V30 654 C 58.7019 2.8283 -2.23695 0
M  V30 655 O 57.8059 3.77862 -1.6521 0
M  V30 656 H 57.1469 0.469152 -0.469885 0
M  V30 657 H 59.6769 0.935019 -1.81985 0
M  V30 658 H 59.6869 3.31783 -2.37453 0
M  V30 659 H 58.3619 2.58144 -3.2609 0
M  V30 660 H 56.9389 3.36555 -1.60578 0
M  V30 661 N 59.124 1.23083 0.984299 0
M  V30 662 C 60.054 1.03292 2.09411 0
M  V30 663 C 61.035 -0.048923 1.7003 0
M  V30 664 O 62.22 0.114967 1.93859 0
M  V30 665 C 59.35 0.619155 3.41736 0
M  V30 666 C 58.304 1.64791 3.95004 0
M  V30 667 C 57.63 1.0897 5.23478 0
M  V30 668 C 58.93 3.03999 4.24714 0
M  V30 669 H 60.624 1.96119 2.26225 0
M  V30 670 H 58.17 0.944344 1.08711 0
M  V30 671 H 60.123 0.467777 4.18796 0
M  V30 672 H 58.847 -0.344786 3.24775 0
M  V30 673 H 57.506 1.78721 3.20085 0
M  V30 674 H 57.154 0.11686 5.02864 0
M  V30 675 H 56.854 1.77704 5.60085 0
M  V30 676 H 58.378 0.950093 6.03163 0
M  V30 677 H 59.792 2.93393 4.92538 0
M  V30 678 H 58.189 3.69936 4.72512 0
M  V30 679 H 59.259 3.53285 3.32142 0
M  V30 680 N 60.6021 -1.18246 1.0419 0
M  V30 681 C 61.5651 -2.20128 0.638452 0
M  V30 682 C 62.5651 -1.57885 -0.304805 0
M  V30 683 O 63.7551 -1.73967 -0.0900369 0
M  V30 684 C 60.8871 -3.4084 -0.0637751 0
M  V30 685 H 62.0801 -2.57336 1.54007 0
M  V30 686 H 59.6331 -1.32152 0.834598 0
M  V30 687 H 60.3681 -3.09166 -0.979136 0
M  V30 688 H 60.1531 -3.8726 0.614198 0
M  V30 689 H 61.6431 -4.16274 -0.332512 0
M  V30 690 N 62.0802 -0.821533 -1.34494 0
M  V30 691 C 63.0132 -0.187704 -2.27427 0
M  V30 692 C 63.9912 0.65507 -1.48821 0
M  V30 693 O 65.1752 0.619111 -1.78043 0
M  V30 694 C 62.3022 0.737996 -3.30562 0
M  V30 695 C 61.3482 -0.0270713 -4.26491 0
M  V30 696 S 62.1812 -1.37329 -5.17592 0
M  V30 697 C 63.3372 -0.452427 -6.24263 0
M  V30 698 H 63.5702 -0.975598 -2.80837 0
M  V30 699 H 61.1032 -0.61736 -1.4152 0
M  V30 700 H 63.0612 1.26654 -3.90473 0
M  V30 701 H 61.7222 1.4994 -2.76001 0
M  V30 702 H 60.9152 0.6766 -4.99438 0
M  V30 703 H 60.5172 -0.48612 -3.70827 0
M  V30 704 H 62.8092 0.356557 -6.76561 0
M  V30 705 H 63.7522 -1.15153 -6.98674 0
M  V30 706 H 64.1602 -0.0414755 -5.64485 0
M  V30 707 N 63.5583 1.46682 -0.576371 0
M  V30 708 C 64.4683 2.34032 0.163141 0
M  V30 709 C 65.4843 1.49367 0.892501 0
M  V30 710 O 66.6603 1.82252 0.857106 0
M  V30 711 C 63.7253 3.26435 1.16795 0
M  V30 712 C 62.7863 4.26998 0.443944 0
M  V30 713 C 62.0193 5.14986 1.40088 0
M  V30 714 O 62.2423 5.05785 2.637 0
M  V30 715 O 61.1763 5.94906 0.914917 0
M  V30 716 H 65.0023 2.98607 -0.55388 0
M  V30 717 H 62.5873 1.45554 -0.336821 0
M  V30 718 H 64.4693 3.83459 1.74748 0
M  V30 719 H 63.1443 2.64465 1.86655 0
M  V30 720 H 62.0513 3.7368 -0.177271 0
M  V30 721 H 63.3843 4.91736 -0.213566 0
M  V30 722 N 65.0364 0.313813 1.54444 0
M  V30 723 C 65.9834 -0.55655 2.23989 0
M  V30 724 C 66.9534 -1.11943 1.22711 0
M  V30 725 O 68.1384 -1.16158 1.51367 0
M  V30 726 C 65.2784 -1.71635 2.99392 0
M  V30 727 C 64.3914 -1.18364 4.15468 0
M  V30 728 C 63.5264 -2.30834 4.78424 0
M  V30 729 C 62.5654 -1.74762 5.86622 0
M  V30 730 N 61.7024 -2.80855 6.43479 0
M  V30 731 H 66.5424 0.0430893 2.97969 0
M  V30 732 H 64.0794 0.0330359 1.47063 0
M  V30 733 H 66.0374 -2.39868 3.41349 0
M  V30 734 H 64.6674 -2.28742 2.27765 0
M  V30 735 H 63.7194 -0.393163 3.78363 0
M  V30 736 H 65.0314 -0.733262 4.93381 0
M  V30 737 H 64.1854 -3.0699 5.23299 0
M  V30 738 H 62.9244 -2.79204 3.99871 0
M  V30 739 H 61.9294 -0.970995 5.41158 0
M  V30 740 H 63.1544 -1.2728 6.67066 0
M  V30 741 H 61.1004 -3.28535 5.67804 0
M  V30 742 H 61.0174 -2.40351 7.16776 0
M  V30 743 H 62.2854 -3.5687 6.93011 0
M  V30 744 N 66.5145 -1.57545 0.0417849 0
M  V30 745 C 67.7635 -1.91494 -0.633492 0
M  V30 746 C 68.0765 -0.921084 -1.72556 0
M  V30 747 O 69.2825 -1.15228 -2.45835 0
M  V30 748 C 67.7385 -3.40072 -1.17808 0
M  V30 749 C 67.3465 -4.47843 -0.118633 0
M  V30 750 C 69.0905 -3.8307 -1.82915 0
M  V30 751 C 66.9975 -5.87529 -0.675578 0
M  V30 752 H 65.9275 -0.714653 -0.24039 0
M  V30 753 H 68.5785 -1.83175 0.109148 0
M  V30 754 H 66.9605 -3.43364 -1.97274 0
M  V30 755 H 68.1345 -4.56128 0.654494 0
M  V30 756 H 66.4495 -4.14128 0.434414 0
M  V30 757 H 69.0465 -4.84794 -2.25563 0
M  V30 758 H 69.3895 -3.1881 -2.67705 0
M  V30 759 H 69.9225 -3.82255 -1.10119 0
M  V30 760 H 66.6615 -6.55362 0.134475 0
M  V30 761 H 66.1815 -5.82824 -1.4169 0
M  V30 762 H 67.8605 -6.36491 -1.1614 0
M  V30 763 N 67.9926 0.231505 -1.5589 0
M  V30 764 C 68.9396 1.28682 -1.91598 0
M  V30 765 C 69.9096 1.47071 -0.771974 0
M  V30 766 O 71.0946 1.60802 -1.027 0
M  V30 767 C 68.2346 2.6342 -2.22944 0
M  V30 768 C 67.3476 2.52912 -3.50228 0
M  V30 769 C 66.4826 3.80106 -3.7107 0
M  V30 770 C 65.5216 3.64279 -4.91902 0
M  V30 771 N 64.6586 4.834 -5.09184 0
M  V30 772 H 69.4986 0.975305 -2.81588 0
M  V30 773 H 67.0356 0.470299 -1.39379 0
M  V30 774 H 68.9936 3.41869 -2.39126 0
M  V30 775 H 67.6236 2.92687 -1.36139 0
M  V30 776 H 66.6756 1.6595 -3.42294 0
M  V30 777 H 67.9876 2.37133 -4.38827 0
M  V30 778 H 67.1416 4.66999 -3.87295 0
M  V30 779 H 65.8806 3.98799 -2.80733 0
M  V30 780 H 64.8856 2.7577 -4.75637 0
M  V30 781 H 66.1106 3.47067 -5.83714 0
M  V30 782 H 64.0566 5.02425 -4.21788 0
M  V30 783 H 63.9736 4.70311 -5.91898 0
M  V30 784 H 65.2416 5.71747 -5.29835 0
M  V30 785 N 69.4707 1.49531 0.497807 0
M  V30 786 C 70.7107 1.60799 1.26187 0
M  V30 787 C 71.0747 0.289627 1.89803 0
M  V30 788 O 72.2757 0.277512 2.67364 0
M  V30 789 C 70.5467 2.73729 2.29798 0
M  V30 790 S 72.1057 3.04968 3.155 0
M  V30 791 H 68.9237 0.567145 0.428798 0
M  V30 792 H 71.5257 1.87204 0.563477 0
M  V30 793 H 70.2297 3.68036 1.81597 0
M  V30 794 H 69.7607 2.49328 3.04301 0
M  V30 795 H 71.7757 2.46735 4.30507 0
M  V30 796 N 70.9488 -0.749086 1.3866 0
M  V30 797 C 72.1958 -1.50833 1.35114 0
M  V30 798 C 72.5238 -1.94415 -0.0574049 0
M  V30 799 O 71.7788 -1.66065 -1.03541 0
M  V30 800 C 72.0778 -2.7712 2.25697 0
M  V30 801 C 71.7438 -2.52477 3.73585 0
M  V30 802 C 70.4058 -2.45466 4.13884 0
M  V30 803 C 72.7578 -2.31066 4.67181 0
M  V30 804 C 70.0858 -2.15064 5.45861 0
M  V30 805 C 72.4378 -2.02183 5.9942 0
M  V30 806 C 71.1018 -1.93631 6.38798 0
M  V30 807 H 70.3718 -0.551936 0.494416 0
M  V30 808 H 73.0188 -0.860979 1.71054 0
M  V30 809 H 71.3238 -3.46528 1.82827 0
M  V30 810 H 73.0208 -3.35096 2.20254 0
M  V30 811 H 69.6108 -2.58807 3.41638 0
M  V30 812 H 73.7948 -2.35459 4.3689 0
M  V30 813 H 69.0508 -2.06954 5.75308 0
M  V30 814 H 73.2248 -1.8462 6.71482 0
M  V30 815 H 70.8518 -1.69839 7.40985 0
M  V30 816 N 72.4269 -1.23603 -0.977757 0
M  V30 817 C 73.6749 -1.06759 -1.71601 0
M  V30 818 C 73.9959 0.395929 -1.90938 0
M  V30 819 O 73.2659 1.28356 -1.47992 0
M  V30 820 H 71.8459 -0.392062 -0.635843 0
M  V30 821 H 74.5079 -1.55362 -1.1768 0
M  V30 822 H 73.6039 -1.55763 -2.70452 0
M  V30 823 N 73.905 1.17692 -1.04816 0
M  V30 824 C 75.152 1.87859 -0.75599 0
M  V30 825 C 75.48 1.80812 0.716752 0
M  V30 826 O 74.735 1.20819 1.53952 0
M  V30 827 C 75.034 3.37462 -1.17703 0
M  V30 828 C 74.7 3.64713 -2.65133 0
M  V30 829 C 73.362 3.71859 -3.05408 0
M  V30 830 C 75.714 3.76492 -3.60421 0
M  V30 831 C 73.042 3.88271 -4.39843 0
M  V30 832 C 75.394 3.94421 -4.94585 0
M  V30 833 C 74.058 3.99806 -5.3452 0
M  V30 834 H 73.328 0.687425 -0.276636 0
M  V30 835 H 75.975 1.39255 -1.31455 0
M  V30 836 H 74.28 3.88097 -0.537395 0
M  V30 837 H 75.977 3.90109 -0.928218 0
M  V30 838 H 72.567 3.59772 -2.32942 0
M  V30 839 H 76.751 3.70295 -3.30447 0
M  V30 840 H 72.007 3.90687 -4.70291 0
M  V30 841 H 76.181 4.02477 -5.68318 0
M  V30 842 H 73.808 4.12276 -6.38696 0
M  V30 843 N 75.3831 0.828654 1.34056 0
M  V30 844 C 76.6601 0.341809 1.9259 0
M  V30 845 C 77.0401 -1.17158 1.75605 0
M  V30 846 O 76.3881 -1.98132 1.13824 0
M  V30 847 C 76.5981 0.777453 3.4023 0
M  V30 848 C 77.9461 0.779579 4.17382 0
M  V30 849 O 78.9701 0.7204 3.48839 0
M  V30 850 O 77.8291 0.857996 5.39723 0
M  V30 851 H 74.9231 0.0946085 0.821571 0
M  V30 852 H 77.4691 0.913827 1.42994 0
M  V30 853 H 76.2411 1.8196 3.46419 0
M  V30 854 H 75.8641 0.181444 3.97186 0
M  V30 855 N 76.8612 -1.46375 0.584142 0
M  V30 856 C 77.7942 -2.27351 -0.196676 0
M  V30 857 C 78.7722 -1.35715 -0.895561 0
M  V30 858 O 79.9562 -1.65126 -0.90916 0
M  V30 859 C 77.0832 -3.13486 -1.28235 0
M  V30 860 C 76.1292 -4.20896 -0.689145 0
M  V30 861 S 76.9622 -5.33299 0.48507 0
M  V30 862 C 78.1182 -6.23 -0.601767 0
M  V30 863 H 78.3512 -2.93228 0.490395 0
M  V30 864 H 75.8842 -1.49875 0.371071 0
M  V30 865 H 77.8422 -3.63676 -1.90395 0
M  V30 866 H 76.5032 -2.4692 -1.94138 0
M  V30 867 H 75.6962 -4.80997 -1.50527 0
M  V30 868 H 75.2982 -3.73726 -0.143181 0
M  V30 869 H 77.5902 -6.60979 -1.48705 0
M  V30 870 H 78.5332 -7.0809 -0.0374799 0
M  V30 871 H 78.9412 -5.57173 -0.906557 0
M  V30 872 N 78.3393 -0.321999 -1.54275 0
M  V30 873 C 79.6163 0.335232 -1.92706 0
M  V30 874 C 79.9963 1.70006 -1.25145 0
M  V30 875 O 79.3443 2.25067 -0.394596 0
M  V30 876 C 79.5543 0.429008 -3.46353 0
M  V30 877 C 80.9023 0.690029 -4.18956 0
M  V30 878 O 81.9263 0.511992 -3.52501 0
M  V30 879 O 80.7853 1.03338 -5.36641 0
M  V30 880 H 77.8793 0.191143 -0.804608 0
M  V30 881 H 80.4253 -0.3716 -1.65581 0
M  V30 882 H 79.1973 -0.529611 -3.87699 0
M  V30 883 H 78.8203 1.18348 -3.79578 0
M  V30 884 N 79.8174 1.5752 -0.0501392 0
M  V30 885 C 81.0474 1.96678 0.632573 0
M  V30 886 C 81.4554 0.926298 1.64974 0
M  V30 887 O 80.7984 -0.09802 1.83438 0
M  V30 888 C 80.8604 3.32068 1.37735 0
M  V30 889 C 80.5244 4.54076 0.516131 0
M  V30 890 C 81.5214 5.19445 -0.217357 0
M  V30 891 C 79.2064 5.00304 0.44736 0
M  V30 892 C 81.2004 6.29378 -1.00807 0
M  V30 893 C 78.8874 6.10114 -0.347038 0
M  V30 894 C 79.8854 6.74512 -1.07344 0
M  V30 895 O 79.5734 7.82211 -1.85477 0
M  V30 896 H 79.3054 0.652193 0.177821 0
M  V30 897 H 81.8594 2.05091 -0.112543 0
M  V30 898 H 80.0894 3.20206 2.16807 0
M  V30 899 H 81.7784 3.55981 1.95019 0
M  V30 900 H 82.5444 4.84689 -0.173688 0
M  V30 901 H 78.4234 4.49971 1.00235 0
M  V30 902 H 81.9674 6.79575 -1.57556 0
M  V30 903 H 77.8644 6.44307 -0.392349 0
M  V30 904 H 78.6324 7.98982 -1.77678 0
M  V30 905 N 81.2955 -0.223234 1.56011 0
M  V30 906 C 82.5235 -0.964812 1.83027 0
M  V30 907 C 82.9385 -1.78013 0.62904 0
M  V30 908 O 82.2955 -1.78008 -0.402414 0
M  V30 909 C 82.3465 -1.88373 3.08542 0
M  V30 910 O 82.0675 -1.10137 4.2403 0
M  V30 911 C 83.5685 -2.73934 3.48533 0
M  V30 912 H 80.7885 -0.282842 0.608475 0
M  V30 913 H 83.3325 -0.238971 2.03099 0
M  V30 914 H 81.4875 -2.56354 2.9045 0
M  V30 915 H 81.9015 -1.72501 4.95322 0
M  V30 916 H 83.3755 -3.34117 4.39397 0
M  V30 917 H 83.8525 -3.46244 2.70207 0
M  V30 918 H 84.4585 -2.11369 3.69057 0
M  V30 919 N 82.7736 -1.49793 -0.48987 0
M  V30 920 C 83.7036 -1.70201 -1.59856 0
M  V30 921 C 84.6846 -0.55076 -1.60937 0
M  V30 922 O 85.8696 -0.787841 -1.77501 0
M  V30 923 C 82.9996 -1.77882 -2.98287 0
M  V30 924 C 81.9536 -2.92907 -3.12073 0
M  V30 925 C 81.2796 -2.85712 -4.51965 0
M  V30 926 C 82.5796 -4.3369 -2.91051 0
M  V30 927 H 84.2736 -2.63025 -1.43032 0
M  V30 928 H 81.8196 -1.26574 -0.686664 0
M  V30 929 H 83.7726 -1.90744 -3.75759 0
M  V30 930 H 82.4966 -0.816653 -3.16225 0
M  V30 931 H 81.1556 -2.79665 -2.37029 0
M  V30 932 H 80.8036 -1.8738 -4.66795 0
M  V30 933 H 80.5036 -3.62921 -4.62128 0
M  V30 934 H 82.0276 -3.00598 -5.31482 0
M  V30 935 H 83.4416 -4.47555 -3.58284 0
M  V30 936 H 81.8386 -5.12205 -3.12675 0
M  V30 937 H 82.9086 -4.47362 -1.87071 0
M  V30 938 N 84.2517 0.741722 -1.39055 0
M  V30 939 C 85.2147 1.83733 -1.37021 0
M  V30 940 C 86.2147 1.58542 -0.268534 0
M  V30 941 O 87.4047 1.66067 -0.526076 0
M  V30 942 C 84.5367 3.2141 -1.13617 0
M  V30 943 H 85.7297 1.86941 -2.34506 0
M  V30 944 H 83.2827 0.944676 -1.24521 0
M  V30 945 H 84.0177 3.23865 -0.167863 0
M  V30 946 H 83.8027 3.4109 -1.93391 0
M  V30 947 H 85.2927 4.01477 -1.14918 0
M  V30 948 N 85.7298 1.2412 0.971189 0
M  V30 949 C 86.9758 1.08041 1.71625 0
M  V30 950 C 87.3088 -0.380407 1.90438 0
M  V30 951 O 86.5838 -1.28127 1.46334 0
M  V30 952 C 86.8668 1.81682 3.10908 0
M  V30 953 C 86.7198 3.35493 2.99608 0
M  V30 954 C 88.0388 1.58671 4.10501 0
M  V30 955 H 85.1578 0.39388 0.622919 0
M  V30 956 H 87.7998 1.52743 1.13003 0
M  V30 957 H 85.9498 1.43684 3.60953 0
M  V30 958 H 87.6218 3.83068 2.57015 0
M  V30 959 H 85.8648 3.64052 2.35899 0
M  V30 960 H 86.5358 3.82217 3.98264 0
M  V30 961 H 89.0118 1.91719 3.69301 0
M  V30 962 H 87.8878 2.1266 5.06031 0
M  V30 963 H 88.1488 0.524161 4.38982 0
M  V30 964 N 87.2079 -1.17134 1.05439 0
M  V30 965 C 88.4379 -1.91094 0.785274 0
M  V30 966 C 88.8459 -1.77198 -0.663142 0
M  V30 967 O 88.1889 -1.10835 -1.46497 0
M  V30 968 C 88.2509 -3.42594 1.08949 0
M  V30 969 C 87.9149 -3.80274 2.53458 0
M  V30 970 C 88.9119 -3.82912 3.51673 0
M  V30 971 C 86.5969 -4.11162 2.88532 0
M  V30 972 C 88.5909 -4.15913 4.83006 0
M  V30 973 C 86.2779 -4.43831 4.20068 0
M  V30 974 C 87.2759 -4.46185 5.17115 0
M  V30 975 O 86.9639 -4.78083 6.46291 0
M  V30 976 H 86.6959 -0.613073 0.284811 0
M  V30 977 H 89.2499 -1.49461 1.40893 0
M  V30 978 H 87.4799 -3.84534 0.408741 0
M  V30 979 H 89.1689 -3.97817 0.805991 0
M  V30 980 H 89.9349 -3.5917 3.25917 0
M  V30 981 H 85.8139 -4.085 2.13656 0
M  V30 982 H 89.3579 -4.17665 5.5875 0
M  V30 983 H 85.2549 -4.67037 4.45586 0
M  V30 984 H 86.0229 -4.9593 6.51149 0
M  V30 985 N 88.686 -0.835752 -1.33615 0
M  V30 986 C 89.633 -0.26473 -2.29277 0
M  V30 987 C 90.603 0.617712 -1.54187 0
M  V30 988 O 91.788 0.556641 -1.825 0
M  V30 989 C 88.928 0.556777 -3.40579 0
M  V30 990 C 88.041 -0.349339 -4.30585 0
M  V30 991 C 87.176 0.482969 -5.29 0
M  V30 992 C 86.215 -0.421732 -6.10645 0
M  V30 993 N 85.352 0.372262 -7.01112 0
M  V30 994 H 90.192 -1.08582 -2.77514 0
M  V30 995 H 87.729 -0.546927 -1.36554 0
M  V30 996 H 89.687 1.04852 -4.03809 0
M  V30 997 H 88.317 1.34286 -2.93542 0
M  V30 998 H 87.369 -0.959372 -3.68104 0
M  V30 999 H 88.681 -1.04445 -4.87742 0
M  V30 1000 H 87.835 1.03866 -5.97743 0
M  V30 1001 H 86.574 1.21153 -4.72412 0
M  V30 1002 H 85.579 -0.989464 -5.40823 0
M  V30 1003 H 86.804 -1.14861 -6.69316 0
M  V30 1004 H 84.75 1.08426 -6.46977 0
M  V30 1005 H 84.667 -0.264198 -7.55538 0
M  V30 1006 H 85.935 0.910293 -7.74167 0
M  V30 1007 N 90.1641 1.46063 -0.591896 0
M  V30 1008 C 91.3891 2.07226 -0.0850314 0
M  V30 1009 C 91.8141 1.43625 1.21463 0
M  V30 1010 O 91.1721 0.523305 1.73583 0
M  V30 1011 C 91.2201 3.60554 0.0576567 0
M  V30 1012 O 90.3241 3.97128 1.11188 0
M  V30 1013 H 89.6651 0.660615 -0.0669568 0
M  V30 1014 H 92.1951 1.8756 -0.81745 0
M  V30 1015 H 92.2051 4.07165 0.2609 0
M  V30 1016 H 90.8801 4.06235 -0.891416 0
M  V30 1017 H 89.4571 3.62213 0.886356 0
M  V30 1018 N 91.6422 0.330177 1.54103 0
M  V30 1019 C 93.0532 -0.15652 1.86043 0
M  V30 1020 C 93.4042 -1.51086 1.2517 0
M  V30 1021 O 92.5292 -2.09023 0.560217 0
M  V30 1022 C 93.1242 -0.290784 3.3755 0
M  V30 1023 C 91.6832 -0.721705 3.69416 0
M  V30 1024 C 90.8302 0.152622 2.7688 0
M  V30 1025 H 93.7812 0.550237 1.48856 0
M  V30 1026 H 93.8022 -1.12058 3.63625 0
M  V30 1027 H 93.3142 0.695068 3.81825 0
M  V30 1028 H 91.4152 -1.71706 3.30678 0
M  V30 1029 H 91.5282 -0.520869 4.7626 0
M  V30 1030 H 89.8922 -0.372894 2.51956 0
M  V30 1031 H 90.6752 1.13536 3.23982 0
M  V30 1032 N 93.1203 -1.57491 0.0584922 0
M  V30 1033 C 94.0303 -2.15448 -0.928414 0
M  V30 1034 C 95.0463 -1.11416 -1.3365 0
M  V30 1035 O 96.2223 -1.4362 -1.41193 0
M  V30 1036 C 93.2873 -2.69393 -2.18239 0
M  V30 1037 C 92.3483 -3.88249 -1.83196 0
M  V30 1038 C 91.5813 -4.39613 -3.02616 0
M  V30 1039 O 91.8043 -3.90023 -4.16219 0
M  V30 1040 O 90.7383 -5.31111 -2.83204 0
M  V30 1041 H 94.5643 -3.00112 -0.465483 0
M  V30 1042 H 92.1493 -1.48499 -0.163826 0
M  V30 1043 H 94.0313 -3.04026 -2.91798 0
M  V30 1044 H 92.7063 -1.87796 -2.63656 0
M  V30 1045 H 91.6133 -3.58492 -1.06931 0
M  V30 1046 H 92.9463 -4.71098 -1.42573 0
M  V30 1047 N 94.5984 0.214957 -1.56127 0
M  V30 1048 C 95.8284 0.953707 -1.8327 0
M  V30 1049 C 96.2364 1.78181 -0.636262 0
M  V30 1050 O 95.5794 1.79191 0.404516 0
M  V30 1051 C 95.6414 1.91516 -3.0424 0
M  V30 1052 C 95.3054 1.27094 -4.38972 0
M  V30 1053 C 96.3024 0.657575 -5.15725 0
M  V30 1054 C 93.9874 1.28073 -4.85698 0
M  V30 1055 C 95.9814 0.0625968 -6.37369 0
M  V30 1056 C 93.6684 0.681914 -6.07283 0
M  V30 1057 C 94.6664 0.0739046 -6.8296 0
M  V30 1058 O 94.3544 -0.515582 -8.02245 0
M  V30 1059 H 94.0864 0.284764 -0.613095 0
M  V30 1060 H 96.6404 0.233283 -2.04071 0
M  V30 1061 H 94.8704 2.67475 -2.79274 0
M  V30 1062 H 96.5594 2.52001 -3.18198 0
M  V30 1063 H 97.3254 0.642288 -4.80728 0
M  V30 1064 H 93.2044 1.74337 -4.26764 0
M  V30 1065 H 96.7484 -0.412593 -6.96379 0
M  V30 1066 H 92.6454 0.694636 -6.41752 0
M  V30 1067 H 93.4134 -0.410544 -8.1747 0
M  V30 1068 N 96.0765 1.50051 0.48192 0
M  V30 1069 C 96.9865 1.7089 1.60728 0
M  V30 1070 C 98.0025 0.591788 1.63627 0
M  V30 1071 O 99.1785 0.868817 1.81696 0
M  V30 1072 C 96.2435 1.78855 2.97005 0
M  V30 1073 C 95.3045 3.02537 3.04581 0
M  V30 1074 C 94.5375 3.10112 4.34357 0
M  V30 1075 O 94.7605 2.24765 5.24249 0
M  V30 1076 O 93.6945 4.02747 4.47301 0
M  V30 1077 H 97.5205 2.66264 1.46072 0
M  V30 1078 H 95.1055 1.34018 0.660264 0
M  V30 1079 H 96.9875 1.86336 3.77964 0
M  V30 1080 H 95.6625 0.866628 3.11883 0
M  V30 1081 H 94.5695 3.00563 2.22739 0
M  V30 1082 H 95.9025 3.94272 2.94636 0
M  V30 1083 N 97.5546 -0.734337 1.39446 0
M  V30 1084 C 98.7796 -1.52866 1.40167 0
M  V30 1085 C 99.2046 -1.881 -0.00171513 0
M  V30 1086 O 98.5626 -1.51957 -0.988879 0
M  V30 1087 C 98.6106 -2.79235 2.28167 0
M  V30 1088 O 97.7146 -3.75185 1.71201 0
M  V30 1089 H 97.0556 -0.461618 0.477289 0
M  V30 1090 H 99.5856 -0.905949 1.8345 0
M  V30 1091 H 99.5956 -3.27963 2.42702 0
M  V30 1092 H 98.2706 -2.52923 3.30156 0
M  V30 1093 H 96.8476 -3.33958 1.65912 0
M  V30 1094 N 99.0327 -1.24633 -0.964593 0
M  V30 1095 C 99.9627 -1.06611 -2.07741 0
M  V30 1096 C 100.944 0.0218666 -1.70086 0
M  V30 1097 O 102.129 -0.145793 -1.93652 0
M  V30 1098 C 99.2587 -0.673444 -3.40708 0
M  V30 1099 C 98.2127 -1.71054 -3.92332 0
M  V30 1100 C 97.5387 -1.17285 -5.21678 0
M  V30 1101 C 98.8387 -3.10718 -4.19824 0
M  V30 1102 H 100.533 -1.99693 -2.23076 0
M  V30 1103 H 98.0787 -0.96152 -1.07195 0
M  V30 1104 H 100.032 -0.534345 -4.17998 0
M  V30 1105 H 98.7557 0.293073 -3.25282 0
M  V30 1106 H 97.4147 -1.83791 -3.17201 0
M  V30 1107 H 97.0627 -0.196847 -5.02615 0
M  V30 1108 H 96.7627 -1.86592 -5.57187 0
M  V30 1109 H 98.2867 -1.04593 -6.01575 0
M  V30 1110 H 99.7007 -3.01192 -4.87808 0
M  V30 1111 H 98.0977 -3.77406 -4.66567 0
M  V30 1112 H 99.1677 -3.58524 -3.26479 0
M  V30 1113 N 100.511 1.16574 -1.06058 0
M  V30 1114 C 101.759 1.86677 -0.77434 0
M  V30 1115 C 102.08 1.81959 0.701147 0
M  V30 1116 O 101.35 1.2515 1.50713 0
M  V30 1117 H 99.9298 0.691134 -0.283449 0
M  V30 1118 H 102.592 1.41378 -1.34158 0
M  V30 1119 H 101.688 2.92181 -1.09711 0
M  V30 1120 N 101.989 0.842826 1.3317 0
M  V30 1121 C 103.236 0.440447 1.97652 0
M  V30 1122 C 103.564 -1.00123 1.6675 0
M  V30 1123 O 102.819 -1.7155 0.941761 0
M  V30 1124 C 103.118 0.612607 3.52111 0
M  V30 1125 C 102.784 2.02297 4.02972 0
M  V30 1126 C 101.446 2.40874 4.16573 0
M  V30 1127 C 103.798 2.94402 4.30089 0
M  V30 1128 C 101.126 3.70852 4.54627 0
M  V30 1129 C 103.478 4.23865 4.69597 0
M  V30 1130 C 102.142 4.62392 4.81404 0
M  V30 1131 H 101.412 0.161171 0.72326 0
M  V30 1132 H 104.059 1.07061 1.58777 0
M  V30 1133 H 102.364 -0.100849 3.9167 0
M  V30 1134 H 104.061 0.2815 4.00011 0
M  V30 1135 H 100.651 1.71338 3.92863 0
M  V30 1136 H 104.835 2.65835 4.19101 0
M  V30 1137 H 100.091 4.00501 4.61962 0
M  V30 1138 H 104.265 4.95306 4.89536 0
M  V30 1139 H 101.892 5.63154 5.10648 0
M  V30 1140 N 103.467 -1.45747 0.599634 0
M  V30 1141 C 104.377 -2.34262 -0.125888 0
M  V30 1142 C 105.393 -1.50768 -0.868625 0
M  V30 1143 O 106.569 -1.83592 -0.828003 0
M  V30 1144 C 103.634 -3.28252 -1.11587 0
M  V30 1145 C 102.695 -4.27651 -0.375956 0
M  V30 1146 C 101.928 -5.1715 -1.31877 0
M  V30 1147 O 102.151 -5.09916 -2.55621 0
M  V30 1148 O 101.085 -5.96286 -0.820157 0
M  V30 1149 H 104.911 -2.97688 0.601315 0
M  V30 1150 H 102.496 -1.44999 0.359934 0
M  V30 1151 H 104.378 -3.86191 -1.68626 0
M  V30 1152 H 103.053 -2.67401 -1.82424 0
M  V30 1153 H 101.96 -3.7335 0.236698 0
M  V30 1154 H 103.293 -4.91334 0.29177 0
M  V30 1155 N 104.945 -0.338344 -1.53925 0
M  V30 1156 C 105.875 0.51328 -2.27789 0
M  V30 1157 C 106.856 1.107 -1.29149 0
M  V30 1158 O 108.041 1.12937 -1.57984 0
M  V30 1159 C 105.171 1.66697 -3.04679 0
M  V30 1160 C 104.125 1.20183 -4.1078 0
M  V30 1161 C 103.451 2.44363 -4.75595 0
M  V30 1162 C 104.751 0.30605 -5.21403 0
M  V30 1163 H 106.445 -0.102883 -2.99223 0
M  V30 1164 H 103.991 -0.0509219 -1.4391 0
M  V30 1165 H 105.944 2.26915 -3.55088 0
M  V30 1166 H 104.668 2.30995 -2.30887 0
M  V30 1167 H 103.327 0.622499 -3.61276 0
M  V30 1168 H 102.975 3.07057 -3.98403 0
M  V30 1169 H 102.675 2.13925 -5.47275 0
M  V30 1170 H 104.199 3.05317 -5.28786 0
M  V30 1171 H 105.613 0.814929 -5.67478 0
M  V30 1172 H 104.01 0.0937929 -6.00027 0
M  V30 1173 H 105.08 -0.65921 -4.80398 0
M  V30 1174 N 106.423 1.57458 -0.0668435 0
M  V30 1175 C 107.651 1.97624 0.612565 0
M  V30 1176 C 108.066 0.94502 1.63447 0
M  V30 1177 O 107.423 -0.0689276 1.8237 0
M  V30 1178 C 107.474 3.37869 1.28555 0
M  V30 1179 O 107.195 4.3704 0.304557 0
M  V30 1180 C 108.696 3.92882 2.05325 0
M  V30 1181 H 105.916 0.650045 0.166381 0
M  V30 1182 H 108.46 2.04035 -0.137782 0
M  V30 1183 H 106.615 3.3256 1.98702 0
M  V30 1184 H 107.029 5.18565 0.786779 0
M  V30 1185 H 108.503 4.93247 2.47812 0
M  V30 1186 H 108.98 3.29156 2.9078 0
M  V30 1187 H 109.586 4.01577 1.40056 0
M  V30 1188 N 107.901 -0.206675 1.56239 0
M  V30 1189 C 109.147 -0.930218 1.80208 0
M  V30 1190 C 109.48 -1.83387 0.638981 0
M  V30 1191 O 108.755 -1.91119 -0.361066 0
M  V30 1192 C 109.038 -1.75641 3.1436 0
M  V30 1193 C 108.891 -0.878257 4.41142 0
M  V30 1194 C 110.21 -2.73129 3.45092 0
M  V30 1195 H 107.329 -0.336742 0.655571 0
M  V30 1196 H 109.971 -0.198222 1.88963 0
M  V30 1197 H 108.121 -2.38048 3.07027 0
M  V30 1198 H 109.793 -0.269787 4.6051 0
M  V30 1199 H 108.036 -0.184385 4.33408 0
M  V30 1200 H 108.707 -1.49106 5.3148 0
M  V30 1201 H 111.183 -2.20856 3.52649 0
M  V30 1202 H 110.059 -3.28028 4.40101 0
M  V30 1203 H 110.32 -3.51606 2.68003 0
M  V30 1204 N 109.379 -1.50304 -0.473955 0
M  V30 1205 C 110.289 -1.7174 -1.5982 0
M  V30 1206 C 111.305 -0.600457 -1.63311 0
M  V30 1207 O 112.481 -0.878441 -1.81233 0
M  V30 1208 C 109.546 -1.80427 -2.96052 0
M  V30 1209 C 108.607 -3.04148 -3.02972 0
M  V30 1210 C 107.84 -3.12411 -4.32706 0
M  V30 1211 O 108.063 -2.27542 -5.23049 0
M  V30 1212 O 106.997 -4.05113 -4.45159 0
M  V30 1213 H 110.823 -2.67035 -1.44657 0
M  V30 1214 H 108.408 -1.34366 -0.653148 0
M  V30 1215 H 110.29 -1.88338 -3.7697 0
M  V30 1216 H 108.965 -0.883156 -3.11419 0
M  V30 1217 H 107.872 -3.0174 -2.21142 0
M  V30 1218 H 109.205 -3.95829 -2.92541 0
M  V30 1219 N 110.857 0.726932 -1.39834 0
M  V30 1220 C 112.273 1.03354 -1.21615 0
M  V30 1221 C 112.473 2.01327 -0.08338 0
M  V30 1222 O 111.529 2.46158 0.56238 0
M  V30 1223 C 112.842 1.58811 -2.55342 0
M  V30 1224 C 114.39 1.70851 -2.62257 0
M  V30 1225 C 114.865 2.29716 -3.96225 0
M  V30 1226 N 116.356 2.37116 -3.97907 0
M  V30 1227 C 117.091 2.83619 -4.98345 0
M  V30 1228 N 116.587 3.29958 -6.09179 0
M  V30 1229 N 118.38 2.82901 -4.8572 0
M  V30 1230 H 110.531 0.0773069 -2.12259 0
M  V30 1231 H 112.794 0.0969102 -0.943034 0
M  V30 1232 H 112.5 0.942855 -3.38826 0
M  V30 1233 H 112.374 2.57502 -2.75632 0
M  V30 1234 H 114.761 2.34497 -1.79152 0
M  V30 1235 H 114.842 0.707913 -2.45809 0
M  V30 1236 H 114.486 1.66696 -4.79765 0
M  V30 1237 H 114.416 3.30469 -4.09997 0
M  V30 1238 H 116.907 2.04374 -3.17868 0
M  V30 1239 H 117.22 3.63976 -6.8172 0
M  V30 1240 H 115.565 3.27946 -6.12761 0
M  V30 1241 H 118.756 2.46027 -3.98231 0
M  V30 1242 H 118.929 3.18827 -5.6414 0
M  V30 1243 N 112.336 1.25143 0.95797 0
M  V30 1244 C 113.266 1.07711 2.07173 0
M  V30 1245 C 114.247 -0.0128462 1.70095 0
M  V30 1246 O 115.432 0.156061 1.93572 0
M  V30 1247 C 112.562 0.691503 3.40346 0
M  V30 1248 C 111.516 1.73132 3.9142 0
M  V30 1249 C 110.842 1.20049 5.21049 0
M  V30 1250 C 112.142 3.1294 4.1817 0
M  V30 1251 H 113.836 2.00873 2.22014 0
M  V30 1252 H 111.382 0.967191 1.06684 0
M  V30 1253 H 113.335 0.556505 4.17709 0
M  V30 1254 H 112.059 -0.275819 3.25433 0
M  V30 1255 H 110.718 1.8547 3.16222 0
M  V30 1256 H 110.366 0.223499 5.02503 0
M  V30 1257 H 110.066 1.89545 5.56189 0
M  V30 1258 H 111.59 1.07782 6.01012 0
M  V30 1259 H 113.004 3.03775 4.86203 0
M  V30 1260 H 111.401 3.79875 4.64559 0
M  V30 1261 H 112.471 3.6025 3.24573 0
M  V30 1262 N 113.814 -1.1601 1.06675 0
M  V30 1263 C 115.06 -1.86909 0.786945 0
M  V30 1264 C 115.393 -1.81717 -0.685018 0
M  V30 1265 O 114.668 -1.23551 -1.50218 0
M  V30 1266 C 114.951 -3.36313 1.28707 0
M  V30 1267 C 114.804 -3.50175 2.82308 0
M  V30 1268 C 116.123 -4.3084 0.898071 0
M  V30 1269 H 113.242 -0.678677 0.287343 0
M  V30 1270 H 115.884 -1.36336 1.32334 0
M  V30 1271 H 114.034 -3.79513 0.830768 0
M  V30 1272 H 115.706 -3.15886 3.36175 0
M  V30 1273 H 113.949 -2.91959 3.20847 0
M  V30 1274 H 114.62 -4.55116 3.12368 0
M  V30 1275 H 117.096 -3.95561 1.29114 0
M  V30 1276 H 115.972 -5.33876 1.27543 0
M  V30 1277 H 116.233 -4.41662 -0.196651 0
M  V30 1278 N 115.292 -0.849877 -1.32721 0
M  V30 1279 C 116.517 -0.463856 -2.02146 0
M  V30 1280 C 116.942 0.930449 -1.63476 0
M  V30 1281 O 116.3 1.61033 -0.832952 0
M  V30 1282 C 116.348 -0.604955 -3.55489 0
M  V30 1283 O 115.452 0.36425 -4.10788 0
M  V30 1284 H 114.793 -0.187046 -0.637111 0
M  V30 1285 H 117.323 -1.14775 -1.69375 0
M  V30 1286 H 117.333 -0.490696 -4.05038 0
M  V30 1287 H 116.008 -1.62174 -3.82978 0
M  V30 1288 H 114.585 0.206628 -3.72327 0
M  V30 1289 N 116.77 1.45427 -0.607355 0
M  V30 1290 C 118.019 2.01452 -0.100036 0
M  V30 1291 C 118.332 1.48159 1.27704 0
M  V30 1292 O 119.538 1.96159 1.87707 0
M  V30 1293 C 117.994 3.59672 -0.128158 0
M  V30 1294 C 117.602 4.21962 -1.50507 0
M  V30 1295 C 119.346 4.23262 0.323932 0
M  V30 1296 C 117.253 5.72333 -1.48959 0
M  V30 1297 H 116.183 0.75325 -0.0336299 0
M  V30 1298 H 118.834 1.66901 -0.76265 0
M  V30 1299 H 117.216 3.91411 0.601105 0
M  V30 1300 H 118.39 4.01796 -2.25602 0
M  V30 1301 H 116.705 3.70565 -1.89923 0
M  V30 1302 H 119.302 5.33522 0.354691 0
M  V30 1303 H 119.645 3.93921 1.34656 0
M  V30 1304 H 120.178 3.96239 -0.352056 0
M  V30 1305 H 116.917 6.06373 -2.48981 0
M  V30 1306 H 116.437 5.94691 -0.781214 0
M  V30 1307 H 118.116 6.35525 -1.21313 0
M  V30 1308 N 118.248 0.346503 1.53744 0
M  V30 1309 C 119.496 -0.248612 2.00565 0
M  V30 1310 C 119.817 -1.5083 1.23593 0
M  V30 1311 O 119.087 -1.92858 0.343912 0
M  V30 1312 H 117.667 -0.0948564 0.740953 0
M  V30 1313 H 120.329 0.468341 1.89189 0
M  V30 1314 H 119.425 -0.488994 3.08245 0
M  V30 1315 N 119.726 -1.57421 0.075193 0
M  V30 1316 C 120.956 -1.97659 -0.601203 0
M  V30 1317 C 121.364 -0.952427 -1.63479 0
M  V30 1318 O 120.707 0.0688241 -1.83571 0
M  V30 1319 C 120.769 -3.34218 -1.32434 0
M  V30 1320 C 120.433 -4.5484 -0.443826 0
M  V30 1321 C 121.43 -5.19034 0.299969 0
M  V30 1322 C 119.115 -5.00952 -0.367709 0
M  V30 1323 C 121.109 -6.27695 1.10807 0
M  V30 1324 C 118.796 -6.09484 0.444058 0
M  V30 1325 C 119.794 -6.72719 1.18061 0
M  V30 1326 O 119.482 -7.79161 1.97898 0
M  V30 1327 H 119.214 -0.65494 -0.167422 0
M  V30 1328 H 121.768 -2.04886 0.145157 0
M  V30 1329 H 119.998 -3.23615 -2.11685 0
M  V30 1330 H 121.687 -3.59038 -1.89331 0
M  V30 1331 H 122.453 -4.84351 0.250776 0
M  V30 1332 H 118.332 -4.51509 -0.930638 0
M  V30 1333 H 121.876 -6.76982 1.68347 0
M  V30 1334 H 117.773 -6.43601 0.494803 0
M  V30 1335 H 118.541 -7.96055 1.90367 0
M  V30 1336 N 121.204 0.198386 -1.56346 0
M  V30 1337 C 122.615 0.763358 -1.70381 0
M  V30 1338 C 122.966 1.83995 -0.681203 0
M  V30 1339 O 122.091 2.15785 0.16305 0
M  V30 1340 C 122.686 1.39143 -3.08909 0
M  V30 1341 C 121.245 1.90352 -3.2472 0
M  V30 1342 C 120.392 0.772233 -2.6633 0
M  V30 1343 H 123.343 -0.0266377 -1.58678 0
M  V30 1344 H 123.364 2.26076 -3.06055 0
M  V30 1345 H 122.876 0.607638 -3.83314 0
M  V30 1346 H 120.977 2.71461 -2.55225 0
M  V30 1347 H 121.09 2.06757 -4.3219 0
M  V30 1348 H 119.454 1.18566 -2.2542 0
M  V30 1349 H 120.237 0.00073556 -3.433 0
M  V30 1350 N 122.682 1.50554 0.465978 0
M  V30 1351 C 123.614 1.65949 1.58093 0
M  V30 1352 C 124.627 0.540827 1.53554 0
M  V30 1353 O 125.816 0.814187 1.5885 0
M  V30 1354 C 122.916 1.63261 2.96983 0
M  V30 1355 C 122.089 2.91245 3.26336 0
M  V30 1356 C 121.148 2.8113 4.44806 0
M  V30 1357 O 120.174 3.55086 4.44862 0
M  V30 1358 N 121.376 1.95032 5.46756 0
M  V30 1359 H 124.141 2.62122 1.45301 0
M  V30 1360 H 121.702 1.48082 0.65448 0
M  V30 1361 H 123.694 1.54101 3.74212 0
M  V30 1362 H 122.264 0.748032 3.03518 0
M  V30 1363 H 121.484 3.14493 2.37672 0
M  V30 1364 H 122.772 3.76022 3.42761 0
M  V30 1365 H 122.17 1.3427 5.49534 0
M  V30 1366 H 120.727 1.91772 6.2295 0
M  V30 1367 N 124.16 -0.719506 1.40217 0
M  V30 1368 C 125.07 -1.86378 1.42479 0
M  V30 1369 C 126.086 -1.71073 0.317834 0
M  V30 1370 O 127.262 -1.93406 0.561794 0
M  V30 1371 C 124.327 -3.22136 1.28178 0
M  V30 1372 C 123.388 -3.49723 2.48982 0
M  V30 1373 C 122.621 -4.79004 2.35353 0
M  V30 1374 O 122.844 -5.53821 1.36524 0
M  V30 1375 O 121.778 -5.06839 3.2465 0
M  V30 1376 H 125.604 -1.87425 2.38968 0
M  V30 1377 H 123.189 -0.869405 1.21498 0
M  V30 1378 H 125.071 -4.03234 1.22395 0
M  V30 1379 H 123.746 -3.21825 0.347934 0
M  V30 1380 H 122.653 -2.6865 2.60342 0
M  V30 1381 H 123.986 -3.54828 3.41113 0
M  V30 1382 N 125.638 -1.25649 -0.95132 0
M  V30 1383 C 126.568 -1.08808 -2.06599 0
M  V30 1384 C 127.549 0.00382547 -1.701 0
M  V30 1385 O 128.734 -0.166325 -1.93486 0
M  V30 1386 C 125.864 -0.709542 -3.39975 0
M  V30 1387 C 124.818 -1.75206 -3.90496 0
M  V30 1388 C 124.144 -1.22811 -5.20405 0
M  V30 1389 C 125.444 -3.15153 -4.16504 0
M  V30 1390 H 127.138 -2.02048 -2.20946 0
M  V30 1391 H 124.684 -0.972835 -1.06169 0
M  V30 1392 H 126.637 -0.578649 -4.17408 0
M  V30 1393 H 125.361 0.258556 -3.25575 0
M  V30 1394 H 124.02 -1.87145 -3.15234 0
M  V30 1395 H 123.668 -0.250145 -5.02378 0
M  V30 1396 H 123.368 -1.92492 -5.55176 0
M  V30 1397 H 124.892 -1.10968 -6.00432 0
M  V30 1398 H 126.306 -3.06349 -4.84586 0
M  V30 1399 H 124.703 -3.82333 -4.62538 0
M  V30 1400 H 125.773 -3.61966 -3.22658 0
M  V30 1401 N 127.117 1.15442 -1.07289 0
M  V30 1402 C 128.047 2.22312 -0.714107 0
M  V30 1403 C 129.028 1.67467 0.298155 0
M  V30 1404 O 130.213 1.93445 0.171048 0
M  V30 1405 C 127.343 3.47124 -0.110448 0
M  V30 1406 C 126.297 4.14926 -1.04979 0
M  V30 1407 C 125.623 5.33807 -0.308924 0
M  V30 1408 C 126.923 4.64762 -2.38314 0
M  V30 1409 H 128.617 2.5258 -1.6076 0
M  V30 1410 H 126.163 1.21404 -0.77441 0
M  V30 1411 H 128.116 4.21124 0.152482 0
M  V30 1412 H 126.84 3.16187 0.81812 0
M  V30 1413 H 125.499 3.42866 -1.29764 0
M  V30 1414 H 125.147 4.99126 0.623084 0
M  V30 1415 H 124.847 5.80113 -0.935036 0
M  V30 1416 H 126.371 6.10576 -0.0537771 0
M  V30 1417 H 127.785 5.30292 -2.1786 0
M  V30 1418 H 126.182 5.21728 -2.96514 0
M  V30 1419 H 127.252 3.80434 -3.00663 0
M  V30 1420 N 128.595 0.856903 1.32268 0
M  V30 1421 C 129.82 0.474569 2.01897 0
M  V30 1422 C 130.245 -0.921766 1.63967 0
M  V30 1423 O 129.603 -1.60589 0.84148 0
M  V30 1424 C 129.651 0.623799 3.55164 0
M  V30 1425 O 128.755 -0.342459 4.10976 0
M  V30 1426 H 128.096 0.190422 0.63611 0
M  V30 1427 H 130.626 1.15672 1.68764 0
M  V30 1428 H 130.636 0.512169 4.04773 0
M  V30 1429 H 129.311 1.64202 3.82113 0
M  V30 1430 H 127.888 -0.18688 3.72431 0
M  V30 1431 N 130.073 -1.45103 0.615059 0
M  V30 1432 C 131.32 -2.02183 0.113179 0
M  V30 1433 C 131.648 -1.48249 -1.25906 0
M  V30 1434 O 130.903 -0.650265 -1.84581 0
M  V30 1435 C 131.202 -3.57386 0.0318797 0
M  V30 1436 C 130.868 -4.30505 1.34077 0
M  V30 1437 C 129.53 -4.50197 1.69929 0
M  V30 1438 C 131.882 -4.72238 2.20546 0
M  V30 1439 C 129.21 -5.08881 2.91988 0
M  V30 1440 C 131.562 -5.32272 3.41861 0
M  V30 1441 C 130.226 -5.50187 3.77956 0
M  V30 1442 H 129.496 -0.739842 0.0414151 0
M  V30 1443 H 132.143 -1.74073 0.798168 0
M  V30 1444 H 130.448 -3.84817 -0.736409 0
M  V30 1445 H 132.145 -3.99264 -0.372712 0
M  V30 1446 H 128.735 -4.15496 1.05173 0
M  V30 1447 H 132.919 -4.56751 1.94146 0
M  V30 1448 H 128.175 -5.20939 3.2005 0
M  V30 1449 H 132.349 -5.63563 4.09109 0
M  V30 1450 H 129.976 -5.95427 4.72622 0
M  V30 1451 N 131.551 -0.354651 -1.53558 0
M  V30 1452 C 132.514 0.484566 -2.24019 0
M  V30 1453 C 133.514 1.01861 -1.24422 0
M  V30 1454 O 134.704 0.906097 -1.4878 0
M  V30 1455 C 131.836 1.67615 -2.96847 0
M  V30 1456 H 133.029 -0.131843 -2.9961 0
M  V30 1457 H 130.582 -0.106165 -1.55939 0
M  V30 1458 H 131.317 2.33095 -2.25471 0
M  V30 1459 H 131.102 1.30029 -3.69912 0
M  V30 1460 H 132.592 2.27114 -3.50441 0
M  V30 1461 N 133.029 1.57378 -0.0835403 0
M  V30 1462 C 134.259 1.97975 0.590713 0
M  V30 1463 C 134.667 0.961083 1.62972 0
M  V30 1464 O 134.01 -0.0590879 1.83605 0
M  V30 1465 C 134.072 3.34915 1.3066 0
M  V30 1466 C 133.736 4.55069 0.419698 0
M  V30 1467 C 134.733 5.18868 -0.32749 0
M  V30 1468 C 132.418 5.0114 0.341137 0
M  V30 1469 C 134.412 6.27098 -1.14134 0
M  V30 1470 C 132.099 6.0924 -0.476374 0
M  V30 1471 C 133.097 6.72083 -1.21627 0
M  V30 1472 O 132.785 7.781 -2.02028 0
M  V30 1473 H 132.517 0.655818 0.163947 0
M  V30 1474 H 135.071 2.04807 -0.156021 0
M  V30 1475 H 133.301 3.24733 2.09966 0
M  V30 1476 H 134.99 3.60037 1.87424 0
M  V30 1477 H 135.756 4.84211 -0.276459 0
M  V30 1478 H 131.635 4.51996 0.90668 0
M  V30 1479 H 135.179 6.7608 -1.71935 0
M  V30 1480 H 131.076 6.43329 -0.528927 0
M  V30 1481 H 131.844 7.95034 -1.94586 0
M  V30 1482 N 134.507 -0.190092 1.56449 0
M  V30 1483 C 135.784 -0.935886 1.71757 0
M  V30 1484 C 136.164 -2.01173 0.639726 0
M  V30 1485 O 135.512 -2.25827 -0.348502 0
M  V30 1486 C 135.722 -1.51775 3.1427 0
M  V30 1487 C 137.07 -1.99794 3.74656 0
M  V30 1488 O 138.094 -1.61607 3.1743 0
M  V30 1489 O 136.953 -2.70079 4.751 0
M  V30 1490 H 134.047 -0.439229 0.700719 0
M  V30 1491 H 136.593 -0.179395 1.68749 0
M  V30 1492 H 135.365 -0.742505 3.84191 0
M  V30 1493 H 134.988 -2.33894 3.21527 0
M  V30 1494 N 135.985 -1.50799 -0.457987 0
M  V30 1495 C 137.21 -1.66496 -1.23668 0
M  V30 1496 C 137.635 -0.353288 -1.84752 0
M  V30 1497 O 136.993 0.684346 -1.67888 0
M  V30 1498 C 137.041 -2.76763 -2.3116 0
M  V30 1499 O 136.145 -2.38928 -3.36136 0
M  V30 1500 H 135.486 -0.555828 -0.363252 0
M  V30 1501 H 138.016 -1.9725 -0.543474 0
M  V30 1502 H 138.026 -3.00232 -2.76269 0
M  V30 1503 H 136.701 -3.71954 -1.86073 0
M  V30 1504 H 135.278 -2.25953 -2.96647 0
M  V30 1505 N 137.463 0.71206 -1.40597 0
M  V30 1506 C 138.691 1.50111 -1.42388 0
M  V30 1507 C 139.106 1.88784 -0.0245395 0
M  V30 1508 O 138.463 1.55681 0.952351 0
M  V30 1509 C 138.514 2.7742 -2.31776 0
M  V30 1510 O 138.235 2.40382 -3.66262 0
M  V30 1511 C 139.736 3.7129 -2.42196 0
M  V30 1512 H 136.956 0.46314 -0.485533 0
M  V30 1513 H 139.5 0.878068 -1.8469 0
M  V30 1514 H 137.655 3.36001 -1.92827 0
M  V30 1515 H 138.069 3.22324 -4.13772 0
M  V30 1516 H 139.543 4.57448 -3.08943 0
M  V30 1517 H 140.02 4.14641 -1.44809 0
M  V30 1518 H 140.626 3.18619 -2.81712 0
M  V30 1519 N 138.941 1.26152 0.944643 0
M  V30 1520 C 140.188 1.11492 1.69044 0
M  V30 1521 C 140.516 -0.342366 1.91463 0
M  V30 1522 O 139.771 -1.26812 1.49054 0
M  V30 1523 C 140.07 1.82541 3.07268 0
M  V30 1524 C 139.736 3.32445 3.04616 0
M  V30 1525 C 138.398 3.73337 3.036 0
M  V30 1526 C 140.75 4.28171 2.97185 0
M  V30 1527 C 138.078 5.08348 2.92915 0
M  V30 1528 C 140.43 5.63218 2.88041 0
M  V30 1529 C 139.094 6.03426 2.85366 0
M  V30 1530 H 138.364 0.407977 0.618576 0
M  V30 1531 H 141.011 1.56551 1.10291 0
M  V30 1532 H 139.316 1.29941 3.69625 0
M  V30 1533 H 141.013 1.68642 3.63815 0
M  V30 1534 H 137.603 2.99915 3.06185 0
M  V30 1535 H 141.787 3.97563 2.97081 0
M  V30 1536 H 137.043 5.38667 2.89219 0
M  V30 1537 H 141.217 6.37078 2.81254 0
M  V30 1538 H 138.844 7.07999 2.76842 0
M  V30 1539 N 140.419 -1.14872 1.07899 0
M  V30 1540 C 141.83 -1.67367 0.827363 0
M  V30 1541 C 142.181 -1.85236 -0.646693 0
M  V30 1542 O 141.306 -1.55974 -1.50004 0
M  V30 1543 C 141.901 -3.04016 1.49532 0
M  V30 1544 C 140.46 -3.53566 1.29106 0
M  V30 1545 C 139.607 -2.29161 1.56143 0
M  V30 1546 H 142.558 -0.990083 1.24028 0
M  V30 1547 H 142.579 -3.69219 0.919643 0
M  V30 1548 H 142.091 -2.90978 2.56814 0
M  V30 1549 H 140.192 -3.71835 0.238713 0
M  V30 1550 H 140.305 -4.34661 2.01511 0
M  V30 1551 H 138.669 -2.34978 0.982717 0
M  V30 1552 H 139.452 -2.18705 2.64619 0
M  V30 1553 N 141.898 -0.863906 -1.31812 0
M  V30 1554 C 143.126 -0.486111 -2.01108 0
M  V30 1555 C 143.541 0.919755 -1.64882 0
M  V30 1556 O 142.898 1.60162 -0.874893 0
M  V30 1557 C 142.949 -0.626435 -3.56031 0
M  V30 1558 O 142.67 -1.97693 -3.90959 0
M  V30 1559 C 144.171 -0.248857 -4.42601 0
M  V30 1560 H 141.391 -0.190052 -0.643523 0
M  V30 1561 H 143.935 -1.1634 -1.68182 0
M  V30 1562 H 142.09 0.00322717 -3.874 0
M  V30 1563 H 142.504 -1.98034 -4.85678 0
M  V30 1564 H 143.978 -0.398016 -5.50563 0
M  V30 1565 H 144.455 0.811489 -4.31638 0
M  V30 1566 H 145.061 -0.853971 -4.16638 0
M  V30 1567 N 143.376 1.44774 -0.622745 0
M  V30 1568 C 144.792 1.56986 -0.287652 0
M  V30 1569 C 144.992 1.61167 1.20944 0
M  V30 1570 O 144.048 1.55015 1.99315 0
M  V30 1571 C 145.361 2.84551 -0.972188 0
M  V30 1572 C 146.909 2.9825 -0.949536 0
M  V30 1573 C 147.384 4.28605 -1.61437 0
M  V30 1574 N 148.875 4.35399 -1.58057 0
M  V30 1575 C 149.61 5.34964 -2.064 0
M  V30 1576 N 149.106 6.40981 -2.62897 0
M  V30 1577 N 150.899 5.26419 -1.97078 0
M  V30 1578 H 143.05 1.40304 -1.59463 0
M  V30 1579 H 145.313 0.671794 -0.668878 0
M  V30 1580 H 145.019 2.87417 -2.02693 0
M  V30 1581 H 144.893 3.73807 -0.504771 0
M  V30 1582 H 147.28 2.94941 0.0967067 0
M  V30 1583 H 147.361 2.10364 -1.45536 0
M  V30 1584 H 147.005 4.32672 -2.66002 0
M  V30 1585 H 146.935 5.15334 -1.08344 0
M  V30 1586 H 149.426 3.59397 -1.16801 0
M  V30 1587 H 149.739 7.13225 -2.97539 0
M  V30 1588 H 148.084 6.4169 -2.66943 0
M  V30 1589 H 151.275 4.42504 -1.52669 0
M  V30 1590 H 151.448 6.03861 -2.35066 0
M  V30 1591 N 144.854 0.36279 1.53368 0
M  V30 1592 C 146.102 -0.227326 2.00817 0
M  V30 1593 C 146.423 -1.49511 1.25186 0
M  V30 1594 O 145.693 -1.92482 0.364348 0
M  V30 1595 H 144.273 -0.0869923 0.741917 0
M  V30 1596 H 146.935 0.488381 1.88682 0
M  V30 1597 H 146.031 -0.456273 3.08747 0
M  V30 1598 N 146.332 -1.57332 0.0918853 0
M  V30 1599 C 147.262 -2.16872 -0.865371 0
M  V30 1600 C 148.243 -1.10118 -1.29646 0
M  V30 1601 O 149.428 -1.38242 -1.36392 0
M  V30 1602 C 146.558 -2.74649 -2.12569 0
M  V30 1603 C 145.512 -3.86747 -1.83333 0
M  V30 1604 C 144.838 -4.31212 -3.16166 0
M  V30 1605 C 146.138 -5.10089 -1.1228 0
M  V30 1606 H 147.832 -2.97114 -0.369307 0
M  V30 1607 H 145.378 -1.42918 -0.176194 0
M  V30 1608 H 147.331 -3.14952 -2.7997 0
M  V30 1609 H 146.055 -1.91657 -2.64452 0
M  V30 1610 H 144.714 -3.46978 -1.18331 0
M  V30 1611 H 144.362 -3.45115 -3.6593 0
M  V30 1612 H 144.062 -5.06788 -2.97388 0
M  V30 1613 H 145.586 -4.74146 -3.84731 0
M  V30 1614 H 147 -5.47582 -1.69785 0
M  V30 1615 H 145.397 -5.91073 -1.03693 0
M  V30 1616 H 146.467 -4.84786 -0.105041 0
M  V30 1617 N 147.81 0.181792 -1.56548 0
M  V30 1618 C 149.056 0.901431 -1.81665 0
M  V30 1619 C 149.389 1.82347 -0.668075 0
M  V30 1620 O 148.664 1.91669 0.330615 0
M  V30 1621 C 148.947 1.70618 -3.17115 0
M  V30 1622 C 148.8 0.807964 -4.42484 0
M  V30 1623 C 150.119 2.67605 -3.49393 0
M  V30 1624 H 147.238 0.32627 -0.660846 0
M  V30 1625 H 149.88 0.168134 -1.89255 0
M  V30 1626 H 148.03 2.33133 -3.10775 0
M  V30 1627 H 149.702 0.19649 -4.60881 0
M  V30 1628 H 147.945 0.115411 -4.33646 0
M  V30 1629 H 148.616 1.40632 -5.33785 0
M  V30 1630 H 151.092 2.15218 -3.56118 0
M  V30 1631 H 149.968 3.20985 -4.45264 0
M  V30 1632 H 150.229 3.47298 -2.73563 0
M  V30 1633 N 149.288 1.51039 0.449983 0
M  V30 1634 C 150.535 1.63081 1.20045 0
M  V30 1635 C 150.863 0.341024 1.91487 0
M  V30 1636 O 150.118 -0.674276 1.83717 0
M  V30 1637 C 150.417 2.77556 2.25161 0
M  V30 1638 C 150.083 4.17289 1.70823 0
M  V30 1639 C 148.745 4.55305 1.55725 0
M  V30 1640 C 151.097 5.04536 1.3074 0
M  V30 1641 C 148.425 5.78287 0.989999 0
M  V30 1642 C 150.777 6.28085 0.754482 0
M  V30 1643 C 149.441 6.64885 0.590308 0
M  V30 1644 H 148.711 0.596755 0.439277 0
M  V30 1645 H 151.358 1.85037 0.49333 0
M  V30 1646 H 149.663 2.49771 3.01863 0
M  V30 1647 H 151.36 2.84073 2.83026 0
M  V30 1648 H 147.95 3.8731 1.83546 0
M  V30 1649 H 152.134 4.75782 1.41229 0
M  V30 1650 H 147.39 6.05456 0.850451 0
M  V30 1651 H 151.564 6.95038 0.435324 0
M  V30 1652 H 149.191 7.60055 0.14862 0
M  V30 1653 N 150.766 -0.704594 1.40972 0
M  V30 1654 C 152.043 -1.45847 1.30338 0
M  V30 1655 C 152.423 -2.10973 -0.0732344 0
M  V30 1656 O 151.771 -2.00997 -1.08685 0
M  V30 1657 C 151.981 -2.48525 2.45023 0
M  V30 1658 C 153.329 -3.1404 2.8577 0
M  V30 1659 O 154.353 -2.58848 2.44696 0
M  V30 1660 O 153.212 -4.13981 3.56766 0
M  V30 1661 H 150.306 -0.649092 0.512454 0
M  V30 1662 H 152.852 -0.735836 1.52917 0
M  V30 1663 H 151.624 -1.98994 3.36923 0
M  V30 1664 H 151.247 -3.2831 2.24272 0
M  V30 1665 N 152.244 -1.26651 -0.937939 0
M  V30 1666 C 153.472 -1.15173 -1.7188 0
M  V30 1667 C 153.887 0.292668 -1.86518 0
M  V30 1668 O 153.244 1.20014 -1.37488 0
M  V30 1669 C 153.295 -1.81925 -3.12387 0
M  V30 1670 O 153.016 -3.2072 -2.98446 0
M  V30 1671 C 154.517 -1.76442 -4.06673 0
M  V30 1672 H 151.737 -0.400911 -0.538063 0
M  V30 1673 H 154.281 -1.67332 -1.1756 0
M  V30 1674 H 152.436 -1.33696 -3.63599 0
M  V30 1675 H 152.85 -3.53802 -3.872 0
M  V30 1676 H 154.324 -2.27781 -5.02812 0
M  V30 1677 H 154.801 -0.731608 -4.33064 0
M  V30 1678 H 155.407 -2.24238 -3.61382 0
M  V30 1679 N 153.722 1.14298 -1.08507 0
M  V30 1680 C 154.652 2.21542 -0.737646 0
M  V30 1681 C 155.633 1.67773 0.280377 0
M  V30 1682 O 156.818 1.93616 0.150521 0
M  V30 1683 C 153.948 3.46988 -0.147259 0
M  V30 1684 C 152.902 4.13789 -1.09374 0
M  V30 1685 C 152.228 5.33449 -0.365524 0
M  V30 1686 C 153.528 4.62208 -2.4323 0
M  V30 1687 H 155.222 2.5086 -1.6343 0
M  V30 1688 H 152.768 1.20576 -0.787243 0
M  V30 1689 H 154.721 4.21262 0.107808 0
M  V30 1690 H 153.445 3.17037 0.784538 0
M  V30 1691 H 152.104 3.4147 -1.33393 0
M  V30 1692 H 151.752 4.99759 0.57011 0
M  V30 1693 H 151.452 5.79088 -0.996512 0
M  V30 1694 H 152.976 6.10485 -0.118534 0
M  V30 1695 H 154.39 5.27952 -2.23472 0
M  V30 1696 H 152.787 5.18553 -3.02031 0
M  V30 1697 H 153.857 3.77224 -3.04681 0
M  V30 1698 N 155.201 0.870884 1.31352 0
M  V30 1699 C 156.431 0.496049 2.00557 0
M  V30 1700 C 156.839 -0.916241 1.65534 0
M  V30 1701 O 156.182 -1.61188 0.881134 0
M  V30 1702 C 156.244 0.574418 3.54881 0
M  V30 1703 C 155.908 1.94849 4.1338 0
M  V30 1704 C 156.905 2.91611 4.30417 0
M  V30 1705 C 154.59 2.25005 4.49086 0
M  V30 1706 C 156.584 4.16672 4.82352 0
M  V30 1707 C 154.271 3.50315 5.00722 0
M  V30 1708 C 155.269 4.45964 5.17306 0
M  V30 1709 O 154.957 5.69052 5.67833 0
M  V30 1710 H 154.689 0.191664 0.64826 0
M  V30 1711 H 157.243 1.17409 1.68536 0
M  V30 1712 H 155.473 -0.160549 3.86367 0
M  V30 1713 H 157.162 0.212879 4.05341 0
M  V30 1714 H 157.928 2.69622 4.03149 0
M  V30 1715 H 153.807 1.51332 4.35453 0
M  V30 1716 H 157.351 4.91336 4.95211 0
M  V30 1717 H 153.248 3.72147 5.27424 0
M  V30 1718 H 154.016 5.71236 5.86201 0
M  V30 1719 N 156.679 -1.44442 0.630414 0
M  V30 1720 C 157.927 -2.01653 0.134351 0
M  V30 1721 C 158.248 -1.49836 -1.24796 0
M  V30 1722 O 157.518 -0.701684 -1.82902 0
M  V30 1723 H 156.098 -0.74554 0.0466769 0
M  V30 1724 H 158.76 -1.76952 0.816955 0
M  V30 1725 H 157.856 -3.11935 0.101498 0
M  V30 1726 N 158.157 -0.370918 -1.53173 0
M  V30 1727 C 159.105 0.488101 -2.27421 0
M  V30 1728 C 160.099 1.07884 -1.30604 0
M  V30 1729 O 161.305 1.02143 -1.48212 0
M  V30 1730 H 157.68 0.176134 -0.731082 0
M  V30 1731 H 159.651 -0.159815 -2.97972 0
M  V30 1732 C 158.4 1.61306 -3.08019 0
M  V30 1733 H 157.723 1.1678 -3.82364 0
M  V30 1734 H 159.163 2.18872 -3.63141 0
M  V30 1735 C 157.622 2.55848 -2.19188 0
M  V30 1736 O 158.152 3.58799 -1.80626 0
M  V30 1737 N 156.358 2.2516 -1.83715 0
M  V30 1738 H 155.905 1.41476 -2.15273 0
M  V30 1739 H 155.863 2.8867 -1.24567 0
M  V30 1740 N 159.635 1.57281 -0.100228 0
M  V30 1741 C 160.565 2.17328 0.853857 0
M  V30 1742 C 161.546 1.10804 1.2906 0
M  V30 1743 O 162.731 1.38963 1.35657 0
M  V30 1744 C 159.861 2.75772 2.11109 0
M  V30 1745 C 158.815 3.87713 1.81279 0
M  V30 1746 C 158.141 4.32882 3.13874 0
M  V30 1747 C 159.441 5.10677 1.09574 0
M  V30 1748 H 161.135 2.97305 0.353545 0
M  V30 1749 H 158.681 1.43009 0.168612 0
M  V30 1750 H 160.634 3.16433 2.78296 0
M  V30 1751 H 159.358 1.93057 2.63432 0
M  V30 1752 H 158.017 3.476 1.16489 0
M  V30 1753 H 157.665 3.47051 3.64095 0
M  V30 1754 H 157.365 5.08358 2.94696 0
M  V30 1755 H 158.889 4.7618 3.82211 0
M  V30 1756 H 160.303 5.48474 1.66879 0
M  V30 1757 H 158.7 5.91615 1.00557 0
M  V30 1758 H 159.77 4.84835 0.0793299 0
M  V30 1759 N 161.113 -0.173488 1.56642 0
M  V30 1760 C 162.043 -1.2171 1.99271 0
M  V30 1761 C 163.024 -1.46289 0.867959 0
M  V30 1762 O 164.209 -1.5766 1.13388 0
M  V30 1763 C 161.339 -2.55651 2.35074 0
M  V30 1764 C 160.293 -2.45645 3.50489 0
M  V30 1765 C 159.619 -3.84056 3.72028 0
M  V30 1766 C 160.919 -1.96302 4.84007 0
M  V30 1767 H 162.613 -0.86275 2.867 0
M  V30 1768 H 160.159 -0.413571 1.37933 0
M  V30 1769 H 162.112 -3.2886 2.63494 0
M  V30 1770 H 160.836 -2.92869 1.44552 0
M  V30 1771 H 159.495 -1.7489 3.22194 0
M  V30 1772 H 159.143 -4.18664 2.788 0
M  V30 1773 H 158.843 -3.7823 4.49684 0
M  V30 1774 H 160.367 -4.58854 4.02846 0
M  V30 1775 H 161.781 -2.59284 5.11317 0
M  V30 1776 H 160.178 -2.01429 5.65284 0
M  V30 1777 H 161.248 -0.917226 4.76146 0
M  V30 1778 N 162.591 -1.51276 -0.441967 0
M  V30 1779 C 163.538 -1.72256 -1.53612 0
M  V30 1780 C 164.508 -0.564164 -1.56225 0
M  V30 1781 O 165.693 -0.798074 -1.73307 0
M  V30 1782 C 162.833 -1.84932 -2.91366 0
M  V30 1783 C 161.946 -3.12459 -2.98317 0
M  V30 1784 C 161.081 -3.15758 -4.27166 0
M  V30 1785 C 160.12 -4.37619 -4.27967 0
M  V30 1786 N 159.257 -4.38493 -5.48333 0
M  V30 1787 H 164.097 -2.65654 -1.35026 0
M  V30 1788 H 161.634 -1.31662 -0.656009 0
M  V30 1789 H 163.592 -1.90263 -3.7129 0
M  V30 1790 H 162.222 -0.949461 -3.08521 0
M  V30 1791 H 161.274 -3.1646 -2.11086 0
M  V30 1792 H 162.586 -4.02382 -2.94771 0
M  V30 1793 H 161.74 -3.19979 -5.15459 0
M  V30 1794 H 160.479 -2.23715 -4.33362 0
M  V30 1795 H 159.484 -4.33579 -3.38067 0
M  V30 1796 H 160.709 -5.30921 -4.23438 0
M  V30 1797 H 158.655 -3.49318 -5.55259 0
M  V30 1798 H 158.572 -5.22219 -5.46647 0
M  V30 1799 H 159.84 -4.469 -6.38671 0
M  V30 1800 N 164.069 0.697108 -1.41344 0
M  V30 1801 C 165.315 1.4593 -1.40827 0
M  V30 1802 C 165.648 1.94193 -0.0167098 0
M  V30 1803 O 164.923 1.69425 0.955263 0
M  V30 1804 C 165.206 2.67229 -2.41373 0
M  V30 1805 C 165.059 2.24741 -3.8963 0
M  V30 1806 C 166.378 3.69423 -2.39196 0
M  V30 1807 H 163.497 0.529303 -0.512842 0
M  V30 1808 H 166.139 0.794112 -1.72609 0
M  V30 1809 H 164.289 3.23982 -2.14401 0
M  V30 1810 H 165.961 1.73327 -4.27499 0
M  V30 1811 H 164.204 1.56542 -4.0457 0
M  V30 1812 H 164.875 3.1177 -4.55525 0
M  V30 1813 H 167.351 3.2234 -2.63128 0
M  V30 1814 H 166.227 4.51907 -3.11563 0
M  V30 1815 H 166.488 4.19012 -1.41001 0
M  V30 1816 N 165.547 1.27147 0.931209 0
M  V30 1817 C 166.824 1.0401 1.65654 0
M  V30 1818 C 167.204 -0.426297 2.06751 0
M  V30 1819 O 166.552 -1.40879 1.79904 0
M  V30 1820 C 166.762 1.99834 2.86125 0
M  V30 1821 C 168.11 2.29007 3.57549 0
M  V30 1822 O 169.134 1.97779 2.96246 0
M  V30 1823 O 167.993 2.82222 4.67989 0
M  V30 1824 H 165.087 0.396239 0.725895 0
M  V30 1825 H 167.633 1.38397 0.982056 0
M  V30 1826 H 166.405 2.98744 2.52721 0
M  V30 1827 H 166.028 1.65987 3.61295 0
M  V30 1828 N 167.025 -1.13721 1.09112 0
M  V30 1829 C 167.988 -2.17222 0.731241 0
M  V30 1830 C 168.988 -1.59035 -0.237566 0
M  V30 1831 O 170.178 -1.74192 -0.0161704 0
M  V30 1832 C 167.31 -3.40804 0.0808443 0
M  V30 1833 H 168.503 -2.50573 1.64783 0
M  V30 1834 H 166.056 -1.28493 0.889897 0
M  V30 1835 H 166.791 -3.1304 -0.847127 0
M  V30 1836 H 166.576 -3.84306 0.777896 0
M  V30 1837 H 168.066 -4.1731 -0.155657 0
M  V30 1838 N 168.503 -0.877838 -1.30888 0
M  V30 1839 C 169.733 -0.506678 -2.00291 0
M  V30 1840 C 170.141 0.907449 -1.66018 0
M  V30 1841 O 169.484 1.60719 -0.88967 0
M  V30 1842 C 169.546 -0.59323 -3.54572 0
M  V30 1843 C 169.21 -1.97038 -4.12341 0
M  V30 1844 C 170.207 -2.93889 -4.28865 0
M  V30 1845 C 167.892 -2.27383 -4.47886 0
M  V30 1846 C 169.886 -4.19224 -4.80136 0
M  V30 1847 C 167.573 -3.52965 -4.98857 0
M  V30 1848 C 168.571 -4.48701 -5.14934 0
M  V30 1849 O 168.259 -5.72056 -5.64808 0
M  V30 1850 H 167.991 -0.1951 -0.647234 0
M  V30 1851 H 170.545 -1.18301 -1.6791 0
M  V30 1852 H 168.775 0.140057 -3.86446 0
M  V30 1853 H 170.464 -0.234372 -4.05223 0
M  V30 1854 H 171.23 -2.71756 -4.01714 0
M  V30 1855 H 167.109 -1.53639 -4.34645 0
M  V30 1856 H 170.653 -4.93956 -4.92599 0
M  V30 1857 H 166.55 -3.74939 -5.25443 0
M  V30 1858 H 167.318 -5.74337 -5.83163 0
M  V30 1859 N 169.982 1.44106 -0.638065 0
M  V30 1860 C 171.23 2.01579 -0.145043 0
M  V30 1861 C 171.551 1.50496 1.24 0
M  V30 1862 O 170.821 0.711374 1.82527 0
M  V30 1863 H 169.401 0.745282 -0.05063 0
M  V30 1864 H 172.063 1.76516 -0.826327 0
M  V30 1865 H 171.159 3.11877 -0.118039 0
M  V30 1866 N 171.46 0.379036 1.52974 0
M  V30 1867 C 172.408 -0.476033 2.27677 0
M  V30 1868 C 173.402 -1.0719 1.31174 0
M  V30 1869 O 174.608 -1.01355 1.48752 0
M  V30 1870 H 170.983 -0.172255 0.732006 0
M  V30 1871 H 172.954 0.175615 2.97883 0
M  V30 1872 C 171.703 -1.5967 3.0887 0
M  V30 1873 H 171.026 -1.1475 3.82978 0
M  V30 1874 H 172.466 -2.16943 3.64296 0
M  V30 1875 C 170.925 -2.54682 2.20542 0
M  V30 1876 O 171.455 -3.57836 1.82527 0
M  V30 1877 N 169.661 -2.24183 1.84907 0
M  V30 1878 H 169.208 -1.40333 2.1602 0
M  V30 1879 H 169.166 -2.88006 1.26096 0
M  V30 1880 N 172.938 -1.57226 0.108567 0
M  V30 1881 C 173.868 -2.17778 -0.84232 0
M  V30 1882 C 174.849 -1.11487 -1.2847 0
M  V30 1883 O 176.034 -1.39681 -1.34918 0
M  V30 1884 C 173.164 -2.76888 -2.09644 0
M  V30 1885 C 172.118 -3.88669 -1.79221 0
M  V30 1886 C 171.444 -4.34541 -3.11574 0
M  V30 1887 C 172.744 -5.11251 -1.06864 0
M  V30 1888 H 174.438 -2.97489 -0.337774 0
M  V30 1889 H 171.984 -1.43097 -0.161025 0
M  V30 1890 H 173.937 -3.17904 -2.76614 0
M  V30 1891 H 172.661 -1.94451 -2.62405 0
M  V30 1892 H 171.32 -3.48213 -1.14644 0
M  V30 1893 H 170.968 -3.48977 -3.62249 0
M  V30 1894 H 170.668 -5.09914 -2.91996 0
M  V30 1895 H 172.192 -4.782 -3.7968 0
M  V30 1896 H 173.606 -5.49352 -1.63968 0
M  V30 1897 H 172.003 -5.9214 -0.974178 0
M  V30 1898 H 173.073 -4.8487 -0.0536168 0
M  V30 1899 N 174.416 0.165178 -1.56732 0
M  V30 1900 C 175.346 1.20651 -1.99914 0
M  V30 1901 C 176.327 1.45827 -0.875705 0
M  V30 1902 O 177.512 1.57057 -1.14223 0
M  V30 1903 C 174.642 2.54401 -2.36427 0
M  V30 1904 C 173.596 2.43782 -3.51787 0
M  V30 1905 C 172.922 3.82078 -3.7406 0
M  V30 1906 C 174.222 1.93732 -4.85041 0
M  V30 1907 H 175.916 0.847534 -2.87154 0
M  V30 1908 H 173.462 0.40625 -1.38151 0
M  V30 1909 H 175.415 3.27458 -2.65234 0
M  V30 1910 H 174.139 2.92098 -1.46103 0
M  V30 1911 H 172.798 1.73178 -3.23117 0
M  V30 1912 H 172.446 4.17179 -2.81017 0
M  V30 1913 H 172.146 3.7584 -4.51684 0
M  V30 1914 H 173.67 4.56712 -4.05274 0
M  V30 1915 H 175.084 2.56569 -5.12684 0
M  V30 1916 H 173.481 1.98428 -5.66345 0
M  V30 1917 H 174.551 0.891962 -4.76626 0
M  V30 1918 N 175.894 1.51508 0.433938 0
M  V30 1919 C 177.14 1.64588 1.18484 0
M  V30 1920 C 177.473 0.362666 1.90784 0
M  V30 1921 O 176.748 -0.637892 1.83742 0
M  V30 1922 C 177.031 2.85149 2.19913 0
M  V30 1923 C 176.884 4.23456 1.51674 0
M  V30 1924 C 178.203 3.01227 3.20858 0
M  V30 1925 H 175.322 0.598994 0.429389 0
M  V30 1926 H 177.964 1.84002 0.473647 0
M  V30 1927 H 176.114 2.68729 2.80566 0
M  V30 1928 H 177.786 4.51552 0.943322 0
M  V30 1929 H 176.029 4.25998 0.819035 0
M  V30 1930 H 176.7 5.03812 2.2556 0
M  V30 1931 H 179.176 3.16382 2.70263 0
M  V30 1932 H 178.052 3.87141 3.89118 0
M  V30 1933 H 178.313 2.13447 3.8716 0
M  V30 1934 N 177.372 -0.689602 1.41712 0
M  V30 1935 C 178.612 -1.46184 1.42862 0
M  V30 1936 C 178.976 -1.91962 0.0382204 0
M  V30 1937 O 180.177 -2.68694 -0.0755019 0
M  V30 1938 C 178.448 -2.6371 2.4123 0
M  V30 1939 S 180.007 -3.52768 2.6096 0
M  V30 1940 H 176.825 -0.49947 0.506015 0
M  V30 1941 H 179.427 -0.804107 1.78198 0
M  V30 1942 H 178.131 -2.28293 3.41044 0
M  V30 1943 H 177.662 -3.3437 2.07269 0
M  V30 1944 H 179.677 -4.59146 1.88148 0
M  V30 1945 N 178.85 -1.27639 -0.924453 0
M  V30 1946 C 179.813 -1.10681 -2.00705 0
M  V30 1947 C 180.813 -0.0497823 -1.60723 0
M  V30 1948 O 182.003 -0.294654 -1.7169 0
M  V30 1949 C 179.135 -0.687164 -3.33902 0
M  V30 1950 H 180.328 -2.06817 -2.17179 0
M  V30 1951 H 177.881 -1.10473 -1.10569 0
M  V30 1952 H 178.616 0.275439 -3.23128 0
M  V30 1953 H 178.401 -1.45061 -3.6428 0
M  V30 1954 H 179.891 -0.590853 -4.13399 0
M  V30 1955 N 180.328 1.1314 -1.09713 0
M  V30 1956 C 181.278 2.16709 -0.708593 0
M  V30 1957 C 182.262 1.58471 0.278523 0
M  V30 1958 O 183.454 1.76779 0.088427 0
M  V30 1959 C 180.583 3.43039 -0.133923 0
M  V30 1960 C 179.669 4.08277 -1.14763 0
M  V30 1961 N 180.06 4.48637 -2.33577 0
M  V30 1962 C 178.358 4.34954 -0.986446 0
M  V30 1963 C 179.059 4.9952 -2.98085 0
M  V30 1964 N 178.035 4.94561 -2.25632 0
M  V30 1965 H 181.837 2.45672 -1.61315 0
M  V30 1966 H 179.351 1.29967 -0.973775 0
M  V30 1967 H 181.348 4.16583 0.162465 0
M  V30 1968 H 180.008 3.15549 0.765447 0
M  V30 1969 H 181.019 4.41246 -2.7115 0
M  V30 1970 H 177.696 4.17258 -0.142008 0
M  V30 1971 H 179.086 5.40521 -3.99108 0
M  V30 1972 N 181.806 0.884767 1.30421 0
M  V30 1973 C 183.054 0.502112 1.95763 0
M  V30 1974 C 183.375 -0.951815 1.70192 0
M  V30 1975 O 182.645 -1.6692 1.0254 0
M  V30 1976 H 181.225 0.182694 0.724315 0
M  V30 1977 H 183.887 1.1278 1.58955 0
M  V30 1978 H 182.983 0.672188 3.04775 0
M  V30 1979 N 183.284 -1.43765 0.645699 0
M  V30 1980 C 184.531 -2.01898 0.15604 0
M  V30 1981 C 184.859 -1.50887 -1.22733 0
M  V30 1982 O 184.114 -0.689271 -1.8316 0
M  V30 1983 C 184.413 -3.57238 0.107679 0
M  V30 1984 C 184.079 -4.27564 1.43178 0
M  V30 1985 C 182.741 -4.46492 1.7944 0
M  V30 1986 C 185.093 -4.67454 2.30513 0
M  V30 1987 C 182.421 -5.02573 3.02716 0
M  V30 1988 C 184.773 -5.24901 3.53074 0
M  V30 1989 C 183.437 -5.42046 3.89541 0
M  V30 1990 H 182.707 -0.738797 0.057099 0
M  V30 1991 H 185.354 -1.72341 0.834912 0
M  V30 1992 H 183.659 -3.86293 -0.654618 0
M  V30 1993 H 185.356 -3.99965 -0.287938 0
M  V30 1994 H 181.946 -4.13171 1.13963 0
M  V30 1995 H 186.13 -4.5253 2.0379 0
M  V30 1996 H 181.386 -5.14033 3.31028 0
M  V30 1997 H 185.56 -5.54758 4.20971 0
M  V30 1998 H 183.187 -5.85268 4.85145 0
M  V30 1999 N 184.763 -0.387143 -1.52771 0
M  V30 2000 C 185.711 0.463953 -2.27926 0
M  V30 2001 C 186.705 1.06493 -1.31741 0
M  V30 2002 O 187.911 1.00565 -1.49287 0
M  V30 2003 H 184.286 0.16837 -0.732909 0
M  V30 2004 H 186.257 -0.19141 -2.97785 0
M  V30 2005 C 185.006 1.5803 -3.09713 0
M  V30 2006 H 184.329 1.12718 -3.83581 0
M  V30 2007 H 185.769 2.15008 -3.65442 0
M  V30 2008 C 184.228 2.53509 -2.2189 0
M  V30 2009 O 184.758 3.56863 -1.84422 0
M  V30 2010 N 182.964 2.23199 -1.86093 0
M  V30 2011 H 182.511 1.39185 -2.16761 0
M  V30 2012 H 182.469 2.87333 -1.27621 0
M  V30 2013 N 186.241 1.57166 -0.116904 0
M  V30 2014 C 187.488 1.95123 0.541603 0
M  V30 2015 C 187.816 1.00006 1.6682 0
M  V30 2016 O 187.071 0.0235658 1.95686 0
M  V30 2017 C 187.37 3.39508 1.11664 0
M  V30 2018 C 187.036 4.50762 0.111606 0
M  V30 2019 C 185.698 4.80918 -0.164758 0
M  V30 2020 C 188.05 5.18036 -0.573438 0
M  V30 2021 C 185.378 5.75666 -1.13249 0
M  V30 2022 C 187.73 6.13824 -1.52978 0
M  V30 2023 C 186.394 6.42374 -1.81415 0
M  V30 2024 H 185.664 0.714005 0.198187 0
M  V30 2025 H 188.311 1.9048 -0.197365 0
M  V30 2026 H 186.616 3.40835 1.93232 0
M  V30 2027 H 188.313 3.66189 1.63422 0
M  V30 2028 H 184.903 4.27272 0.337192 0
M  V30 2029 H 189.087 4.94896 -0.373092 0
M  V30 2030 H 184.343 5.96092 -1.35958 0
M  V30 2031 H 188.517 6.65039 -2.06629 0
M  V30 2032 H 186.144 7.15599 -2.56557 0
M  V30 2033 N 187.719 -0.156864 1.56817 0
M  V30 2034 C 188.968 -0.869504 1.81996 0
M  V30 2035 C 189.281 -1.82777 0.696545 0
M  V30 2036 O 190.487 -2.58384 0.833658 0
M  V30 2037 C 188.943 -1.59679 3.22538 0
M  V30 2038 C 188.551 -0.681431 4.42787 0
M  V30 2039 C 190.295 -2.2968 3.56997 0
M  V30 2040 C 188.202 -1.40978 5.74351 0
M  V30 2041 H 187.132 -0.328438 0.678708 0
M  V30 2042 H 189.783 -0.1223 1.83092 0
M  V30 2043 H 188.165 -2.38927 3.158 0
M  V30 2044 H 189.339 0.0751166 4.60739 0
M  V30 2045 H 187.654 -0.0903431 4.16302 0
M  V30 2046 H 190.251 -2.84794 4.52544 0
M  V30 2047 H 190.594 -3.05707 2.82576 0
M  V30 2048 H 191.127 -1.57361 3.65352 0
M  V30 2049 H 187.866 -0.691561 6.51842 0
M  V30 2050 H 187.386 -2.13929 5.60352 0
M  V30 2051 H 189.065 -1.95337 6.16808 0
M  V30 2052 N 189.197 -1.51736 -0.425897 0
M  V30 2053 C 190.613 -1.40166 -0.76326 0
M  V30 2054 C 190.813 -0.492962 -1.95377 0
M  V30 2055 O 189.869 0.0475815 -2.52455 0
M  V30 2056 C 191.182 -2.82403 -1.03291 0
M  V30 2057 C 192.73 -2.91632 -1.13665 0
M  V30 2058 C 193.205 -4.34801 -1.43916 0
M  V30 2059 N 194.696 -4.3796 -1.50816 0
M  V30 2060 C 195.431 -5.4578 -1.75817 0
M  V30 2061 N 194.927 -6.63744 -1.98534 0
M  V30 2062 N 196.72 -5.33274 -1.77694 0
M  V30 2063 H 188.871 -2.09361 0.358 0
M  V30 2064 H 191.134 -0.942941 0.0978094 0
M  V30 2065 H 190.84 -3.50943 -0.230696 0
M  V30 2066 H 190.714 -3.22428 -1.95754 0
M  V30 2067 H 193.101 -2.23284 -1.92947 0
M  V30 2068 H 193.182 -2.55088 -0.190756 0
M  V30 2069 H 192.826 -5.03703 -0.65157 0
M  V30 2070 H 192.756 -4.68868 -2.39729 0
M  V30 2071 H 195.247 -3.52919 -1.35118 0
M  V30 2072 H 195.56 -7.41704 -2.17013 0
M  V30 2073 H 193.905 -6.66839 -1.95832 0
M  V30 2074 H 197.096 -4.40098 -1.59473 0
M  V30 2075 H 197.269 -6.1738 -1.9684 0
M  V30 2076 N 190.675 0.682077 -1.42076 0
M  V30 2077 C 191.923 1.4393 -1.41876 0
M  V30 2078 C 192.244 1.94971 -0.0335599 0
M  V30 2079 O 191.514 1.72591 0.926773 0
M  V30 2080 H 190.094 0.534085 -0.522267 0
M  V30 2081 H 192.756 0.806427 -1.77434 0
M  V30 2082 H 191.852 2.29588 -2.11414 0
M  V30 2083 N 192.153 1.28127 0.917671 0
M  V30 2084 C 193.564 1.13622 1.48145 0
M  V30 2085 C 193.915 -0.275207 1.9426 0
M  V30 2086 O 193.04 -1.1691 1.82102 0
M  V30 2087 C 193.635 2.05648 2.69248 0
M  V30 2088 C 192.194 1.95219 3.21818 0
M  V30 2089 C 191.341 1.97618 1.94532 0
M  V30 2090 H 194.292 1.40874 0.730772 0
M  V30 2091 H 194.313 1.61818 3.44377 0
M  V30 2092 H 193.825 3.08365 2.35653 0
M  V30 2093 H 191.926 0.955244 3.60147 0
M  V30 2094 H 192.039 2.81976 3.87333 0
M  V30 2095 H 190.403 1.41973 2.11461 0
M  V30 2096 H 191.186 3.02007 1.63238 0
M  V30 2097 N 193.631 -1.12557 1.10312 0
M  V30 2098 C 194.541 -2.21841 0.763142 0
M  V30 2099 C 195.557 -1.72354 -0.238801 0
M  V30 2100 O 196.733 -2.01249 -0.0778746 0
M  V30 2101 C 193.798 -3.46131 0.198632 0
M  V30 2102 C 192.859 -4.10464 1.25769 0
M  V30 2103 C 192.092 -5.28821 0.72002 0
M  V30 2104 O 192.315 -5.6859 -0.453993 0
M  V30 2105 O 191.249 -5.83437 1.47935 0
M  V30 2106 H 195.075 -2.53312 1.67532 0
M  V30 2107 H 192.66 -1.20867 0.878157 0
M  V30 2108 H 194.542 -4.2125 -0.112401 0
M  V30 2109 H 193.217 -3.16338 -0.686419 0
M  V30 2110 H 192.124 -3.3713 1.62156 0
M  V30 2111 H 193.457 -4.44408 2.11571 0
M  V30 2112 N 195.109 -0.891671 -1.2995 0
M  V30 2113 C 196.337 -0.52866 -2.00032 0
M  V30 2114 C 196.752 0.884574 -1.66795 0
M  V30 2115 O 196.109 1.5827 -0.908669 0
M  V30 2116 C 196.16 -0.701814 -3.54622 0
M  V30 2117 O 195.881 -2.05942 -3.86678 0
M  V30 2118 C 197.382 -0.342683 -4.41973 0
M  V30 2119 H 194.602 -0.203659 -0.639347 0
M  V30 2120 H 197.146 -1.19881 -1.65677 0
M  V30 2121 H 195.301 -0.0789468 -3.8732 0
M  V30 2122 H 195.715 -2.08291 -4.81368 0
M  V30 2123 H 197.189 -0.514709 -5.49595 0
M  V30 2124 H 197.666 0.71975 -4.33262 0
M  V30 2125 H 198.272 -0.942154 -4.14733 0
M  V30 2126 N 196.587 1.43421 -0.653314 0
M  V30 2127 C 198.003 1.56341 -0.320886 0
M  V30 2128 C 198.203 1.63696 1.17499 0
M  V30 2129 O 197.259 1.59208 1.95982 0
M  V30 2130 C 198.572 2.82424 -1.03233 0
M  V30 2131 C 200.12 2.96168 -1.01259 0
M  V30 2132 C 200.595 4.25084 -1.70492 0
M  V30 2133 N 202.086 4.31948 -1.67257 0
M  V30 2134 C 202.821 5.30466 -2.17701 0
M  V30 2135 N 202.317 6.35261 -2.76434 0
M  V30 2136 N 204.11 5.2212 -2.082 0
M  V30 2137 H 196.261 1.3689 -1.62403 0
M  V30 2138 H 198.524 0.657455 -0.682977 0
M  V30 2139 H 198.23 2.83053 -2.08744 0
M  V30 2140 H 198.104 3.72653 -0.583948 0
M  V30 2141 H 200.491 2.9508 0.0341235 0
M  V30 2142 H 200.572 2.07229 -1.49966 0
M  V30 2143 H 200.216 4.26932 -2.7512 0
M  V30 2144 H 200.146 5.1292 -1.19251 0
M  V30 2145 H 202.637 3.56838 -1.24398 0
M  V30 2146 H 202.95 7.06754 -3.12601 0
M  V30 2147 H 201.295 6.35884 -2.80495 0
M  V30 2148 H 204.486 4.39166 -1.62021 0
M  V30 2149 H 204.659 5.98739 -2.47822 0
M  V30 2150 N 198.065 0.39524 1.52563 0
M  V30 2151 C 198.975 -0.444232 2.30356 0
M  V30 2152 C 199.991 -1.06615 1.37511 0
M  V30 2153 O 201.167 -1.07067 1.70583 0
M  V30 2154 C 198.232 -1.55315 3.09964 0
M  V30 2155 C 197.293 -0.955734 4.18526 0
M  V30 2156 C 196.526 -2.01181 4.9433 0
M  V30 2157 O 196.749 -3.22781 4.70285 0
M  V30 2158 O 195.683 -1.62579 5.79527 0
M  V30 2159 H 199.509 0.189667 3.03107 0
M  V30 2160 H 197.094 0.1588 1.48554 0
M  V30 2161 H 198.976 -2.19724 3.59582 0
M  V30 2162 H 197.651 -2.17191 2.4002 0
M  V30 2163 H 196.558 -0.274743 3.7309 0
M  V30 2164 H 197.891 -0.381109 4.90722 0
M  V30 2165 N 199.544 -1.57102 0.125237 0
M  V30 2166 C 200.476 -2.12726 -0.853237 0
M  V30 2167 C 201.489 -1.07145 -1.22571 0
M  V30 2168 O 202.678 -1.34497 -1.17358 0
M  V30 2169 C 199.778 -2.61709 -2.15317 0
M  V30 2170 C 198.951 -3.91456 -1.95143 0
M  V30 2171 C 198.01 -4.25973 -3.08923 0
M  V30 2172 O 197.036 -4.94682 -2.81564 0
M  V30 2173 N 198.238 -3.83795 -4.35524 0
M  V30 2174 H 201.003 -2.97307 -0.377964 0
M  V30 2175 H 198.564 -1.61792 -0.0590011 0
M  V30 2176 H 200.556 -2.81826 -2.90441 0
M  V30 2177 H 199.126 -1.81974 -2.54174 0
M  V30 2178 H 198.346 -3.80185 -1.04177 0
M  V30 2179 H 199.634 -4.76283 -1.78976 0
M  V30 2180 H 199.032 -3.2839 -4.60626 0
M  V30 2181 H 197.589 -4.09008 -5.07499 0
M  V30 2182 N 201.022 0.148545 -1.56898 0
M  V30 2183 C 202.252 0.875118 -1.8715 0
M  V30 2184 C 202.66 1.75322 -0.711262 0
M  V30 2185 O 202.003 1.80745 0.328151 0
M  V30 2186 C 202.065 1.7844 -3.12089 0
M  V30 2187 C 201.729 1.08361 -4.43967 0
M  V30 2188 C 202.726 0.438247 -5.1805 0
M  V30 2189 C 200.411 1.07358 -4.90693 0
M  V30 2190 C 202.405 -0.20779 -6.37061 0
M  V30 2191 C 200.092 0.42373 -6.09629 0
M  V30 2192 C 201.09 -0.215829 -6.82659 0
M  V30 2193 O 200.778 -0.855378 -7.99336 0
M  V30 2194 H 200.51 0.258504 -0.624621 0
M  V30 2195 H 203.064 0.14652 -2.04877 0
M  V30 2196 H 201.294 2.55389 -2.90367 0
M  V30 2197 H 202.983 2.38279 -3.286 0
M  V30 2198 H 203.749 0.437817 -4.8302 0
M  V30 2199 H 199.628 1.5608 -4.33774 0
M  V30 2200 H 203.172 -0.70758 -6.94002 0
M  V30 2201 H 199.069 0.421822 -6.4412 0
M  V30 2202 H 199.837 -0.756892 -8.14993 0
M  V30 2203 N 202.5 1.5196 0.417844 0
M  V30 2204 C 203.911 1.57851 0.997 0
M  V30 2205 C 204.262 0.413714 1.91789 0
M  V30 2206 O 203.387 -0.467057 2.113 0
M  V30 2207 C 203.982 2.86085 1.81496 0
M  V30 2208 C 202.541 2.94483 2.34428 0
M  V30 2209 C 201.688 2.52707 1.14169 0
M  V30 2210 H 204.639 1.57455 0.198392 0
M  V30 2211 H 204.66 2.70947 2.67148 0
M  V30 2212 H 204.172 3.70842 1.14446 0
M  V30 2213 H 202.273 2.142 3.04875 0
M  V30 2214 H 202.386 3.98546 2.65891 0
M  V30 2215 H 200.75 2.06353 1.49301 0
M  V30 2216 H 201.533 3.39828 0.486999 0
M  V30 2217 N 203.978 -0.674533 1.42435 0
M  V30 2218 C 204.926 -1.80934 1.46169 0
M  V30 2219 C 205.92 -1.66006 0.3374 0
M  V30 2220 O 207.126 -1.72611 0.510425 0
M  V30 2221 H 203.501 -0.596594 0.457798 0
M  V30 2222 H 205.472 -1.74903 2.41767 0
M  V30 2223 C 204.221 -3.19088 1.38123 0
M  V30 2224 H 203.544 -3.31203 2.23931 0
M  V30 2225 H 204.984 -3.9851 1.44797 0
M  V30 2226 C 203.443 -3.36763 0.0960517 0
M  V30 2227 O 203.973 -3.92581 -0.851073 0
M  V30 2228 N 202.179 -2.90597 0.0131186 0
M  V30 2229 H 201.726 -2.45359 0.784639 0
M  V30 2230 H 201.684 -3.028 -0.846133 0
M  V30 2231 N 205.456 -1.28612 -0.910864 0
M  V30 2232 C 206.403 -1.12786 -2.01365 0
M  V30 2233 C 207.373 -0.024201 -1.66082 0
M  V30 2234 O 208.558 -0.189667 -1.89855 0
M  V30 2235 C 205.698 -0.798743 -3.35729 0
M  V30 2236 C 204.811 -1.98173 -3.83864 0
M  V30 2237 C 203.946 -1.59298 -5.06752 0
M  V30 2238 C 202.985 -2.74245 -5.47226 0
M  V30 2239 N 202.122 -2.35842 -6.61304 0
M  V30 2240 H 206.962 -2.07142 -2.14234 0
M  V30 2241 H 204.499 -1.03093 -1.0493 0
M  V30 2242 H 206.457 -0.588662 -4.13026 0
M  V30 2243 H 205.087 0.10789 -3.2262 0
M  V30 2244 H 204.139 -2.30386 -3.02699 0
M  V30 2245 H 205.451 -2.84343 -4.09818 0
M  V30 2246 H 204.605 -1.34513 -5.916 0
M  V30 2247 H 203.344 -0.702618 -4.82612 0
M  V30 2248 H 202.349 -2.99725 -4.60918 0
M  V30 2249 H 203.574 -3.63928 -5.73353 0
M  V30 2250 H 201.52 -1.49279 -6.38789 0
M  V30 2251 H 201.437 -3.15546 -6.86998 0
M  V30 2252 H 202.705 -2.14348 -7.4945 0
M  V30 2253 N 206.934 1.1197 -1.10907 0
M  V30 2254 C 208.181 1.83588 -0.854507 0
M  V30 2255 C 208.509 1.84357 0.6199 0
M  V30 2256 O 207.764 1.28809 1.47332 0
M  V30 2257 C 208.063 3.30749 -1.35425 0
M  V30 2258 C 207.729 3.50146 -2.84093 0
M  V30 2259 C 206.391 3.55148 -3.2469 0
M  V30 2260 C 208.743 3.56857 -3.79872 0
M  V30 2261 C 206.071 3.6441 -4.59806 0
M  V30 2262 C 208.423 3.6765 -5.14797 0
M  V30 2263 C 207.087 3.7091 -5.54961 0
M  V30 2264 H 206.357 0.671795 -0.312686 0
M  V30 2265 H 209.004 1.32091 -1.38652 0
M  V30 2266 H 207.309 3.84703 -0.742361 0
M  V30 2267 H 209.006 3.8464 -1.1337 0
M  V30 2268 H 205.596 3.46919 -2.51685 0
M  V30 2269 H 209.78 3.52258 -3.49611 0
M  V30 2270 H 205.036 3.65208 -4.9034 0
M  V30 2271 H 209.21 3.71786 -5.88853 0
M  V30 2272 H 206.837 3.7784 -6.59652 0
M  V30 2273 N 208.412 0.89855 1.29475 0
M  V30 2274 C 209.661 0.519863 1.94885 0
M  V30 2275 C 209.974 -0.9383 1.71625 0
M  V30 2276 O 211.18 -1.42445 2.31131 0
M  V30 2277 C 209.636 0.878836 3.49005 0
M  V30 2278 C 209.244 2.35569 3.81066 0
M  V30 2279 C 210.988 0.570004 4.20656 0
M  V30 2280 C 208.895 2.65558 5.28425 0
M  V30 2281 H 207.825 0.190692 0.729488 0
M  V30 2282 H 210.476 1.09539 1.47219 0
M  V30 2283 H 208.858 0.232253 3.95318 0
M  V30 2284 H 210.032 3.04773 3.45616 0
M  V30 2285 H 208.347 2.63343 3.22552 0
M  V30 2286 H 210.944 0.770925 5.29113 0
M  V30 2287 H 211.287 -0.491404 4.1339 0
M  V30 2288 H 211.82 1.17438 3.8007 0
M  V30 2289 H 208.559 3.70493 5.40754 0
M  V30 2290 H 208.079 2.00977 5.65127 0
M  V30 2291 H 209.758 2.51765 5.96006 0
M  V30 2292 N 209.89 -1.43072 0.660911 0
M  V30 2293 C 210.822 -2.29108 -0.0647641 0
M  V30 2294 C 211.835 -1.42928 -0.779448 0
M  V30 2295 O 213.024 -1.66788 -0.635921 0
M  V30 2296 C 210.124 -3.20032 -1.11503 0
M  V30 2297 C 209.297 -4.34792 -0.476955 0
M  V30 2298 C 208.356 -5.06534 -1.42513 0
M  V30 2299 O 207.382 -5.61538 -0.930771 0
M  V30 2300 N 208.584 -5.1075 -2.75889 0
M  V30 2301 H 211.349 -2.92029 0.673731 0
M  V30 2302 H 208.91 -1.53846 0.50427 0
M  V30 2303 H 210.902 -3.64892 -1.75032 0
M  V30 2304 H 209.472 -2.58658 -1.75541 0
M  V30 2305 H 208.692 -3.92752 0.337572 0
M  V30 2306 H 209.98 -5.0879 -0.0318525 0
M  V30 2307 H 209.378 -4.67447 -3.18606 0
M  V30 2308 H 207.935 -5.59302 -3.347 0
M  V30 2309 N 211.368 -0.403325 -1.52352 0
M  V30 2310 C 212.784 -0.0539281 -1.59509 0
M  V30 2311 C 212.984 1.43307 -1.41652 0
M  V30 2312 O 212.04 2.19924 -1.24056 0
M  V30 2313 C 213.353 -0.543654 -2.95745 0
M  V30 2314 C 214.901 -0.501125 -3.08962 0
M  V30 2315 C 215.376 -0.967267 -4.47669 0
M  V30 2316 N 216.867 -0.923849 -4.53893 0
M  V30 2317 C 217.602 -1.25578 -5.5948 0
M  V30 2318 N 217.098 -1.65889 -6.72646 0
M  V30 2319 N 218.891 -1.17613 -5.49658 0
M  V30 2320 H 211.042 -1.37123 -1.62206 0
M  V30 2321 H 213.305 -0.56294 -0.76276 0
M  V30 2322 H 213.011 -1.58275 -3.14073 0
M  V30 2323 H 212.885 0.0498042 -3.77167 0
M  V30 2324 H 215.272 0.528909 -2.90321 0
M  V30 2325 H 215.353 -1.13056 -2.2946 0
M  V30 2326 H 214.997 -1.9956 -4.67053 0
M  V30 2327 H 214.927 -0.314698 -5.25659 0
M  V30 2328 H 217.418 -0.627403 -3.72655 0
M  V30 2329 H 217.731 -1.89543 -7.49195 0
M  V30 2330 H 216.076 -1.69787 -6.73942 0
M  V30 2331 H 219.267 -0.860115 -4.6013 0
M  V30 2332 H 219.44 -1.43812 -6.3184 0
M  V30 2333 N 212.846 1.57033 -0.133567 0
M  V30 2334 C 214.123 1.87256 0.56522 0
M  V30 2335 C 214.503 1.03726 1.83859 0
M  V30 2336 O 213.851 0.120247 2.28183 0
M  V30 2337 C 214.061 3.3865 0.843636 0
M  V30 2338 C 215.409 4.07574 1.19032 0
M  V30 2339 O 216.433 3.43752 0.933429 0
M  V30 2340 O 215.292 5.20259 1.67312 0
M  V30 2341 H 212.386 0.775678 0.286796 0
M  V30 2342 H 214.932 1.68855 -0.169168 0
M  V30 2343 H 213.704 3.91257 -0.0581149 0
M  V30 2344 H 213.327 3.62532 1.63268 0
M  V30 2345 N 214.325 -0.140222 1.56975 0
M  V30 2346 C 215.602 -0.880769 1.74648 0
M  V30 2347 C 215.982 -1.99036 0.703404 0
M  V30 2348 O 215.33 -2.26821 -0.27648 0
M  V30 2349 C 215.54 -1.417 3.18939 0
M  V30 2350 C 216.888 -1.87774 3.80823 0
M  V30 2351 O 217.912 -1.51427 3.2241 0
M  V30 2352 O 216.771 -2.54827 4.83452 0
M  V30 2353 H 213.865 -0.416713 0.714338 0
M  V30 2354 H 216.411 -0.125618 1.69234 0
M  V30 2355 H 215.183 -0.619902 3.86359 0
M  V30 2356 H 214.806 -2.23546 3.28805 0
M  V30 2357 N 215.803 -1.52179 -0.40978 0
M  V30 2358 C 217.031 -1.70054 -1.17853 0
M  V30 2359 C 217.446 -0.409735 -1.843 0
M  V30 2360 O 216.803 0.614183 -1.71855 0
M  V30 2361 C 216.854 -2.83568 -2.24213 0
M  V30 2362 O 216.575 -4.0765 -1.60478 0
M  V30 2363 C 218.076 -3.12947 -3.13973 0
M  V30 2364 H 215.296 -0.569917 -0.354169 0
M  V30 2365 H 217.84 -1.98734 -0.482198 0
M  V30 2366 H 215.995 -2.57409 -2.89516 0
M  V30 2367 H 216.409 -4.70899 -2.30986 0
M  V30 2368 H 217.883 -3.95889 -3.84677 0
M  V30 2369 H 218.36 -2.26472 -3.76307 0
M  V30 2370 H 218.966 -3.40868 -2.5434 0
M  V30 2371 N 217.281 0.66697 -1.42791 0
M  V30 2372 C 218.191 1.80962 -1.49299 0
M  V30 2373 C 219.207 1.69775 -0.381108 0
M  V30 2374 O 220.383 1.91188 -0.633188 0
M  V30 2375 C 217.448 3.17156 -1.40045 0
M  V30 2376 C 216.509 3.40242 -2.6179 0
M  V30 2377 C 215.742 4.69939 -2.52969 0
M  V30 2378 O 215.965 5.48372 -1.56985 0
M  V30 2379 O 214.899 4.94441 -3.43237 0
M  V30 2380 H 218.725 1.78427 -2.45759 0
M  V30 2381 H 216.31 0.823713 -1.24641 0
M  V30 2382 H 218.192 3.98413 -1.37276 0
M  V30 2383 H 216.867 3.20312 -0.467138 0
M  V30 2384 H 215.774 2.58802 -2.70134 0
M  V30 2385 H 217.107 3.41923 -3.54047 0
M  V30 2386 N 218.759 1.29093 0.90403 0
M  V30 2387 C 220.175 1.07011 1.1841 0
M  V30 2388 C 220.375 -0.181358 2.00682 0
M  V30 2389 O 219.431 -0.880331 2.36657 0
M  V30 2390 C 220.744 2.32311 1.90924 0
M  V30 2391 C 222.292 2.37587 2.03768 0
M  V30 2392 C 222.767 3.62679 2.79693 0
M  V30 2393 N 224.258 3.63376 2.87249 0
M  V30 2394 C 224.993 4.56848 3.46522 0
M  V30 2395 N 224.489 5.60648 4.06996 0
M  V30 2396 N 226.282 4.44426 3.44154 0
M  V30 2397 H 218.433 2.09412 0.354993 0
M  V30 2398 H 220.696 0.922181 0.219742 0
M  V30 2399 H 220.402 3.23536 1.37905 0
M  V30 2400 H 220.276 2.39483 2.91424 0
M  V30 2401 H 222.663 1.46853 2.55965 0
M  V30 2402 H 222.744 2.34403 1.02415 0
M  V30 2403 H 222.388 4.53762 2.28173 0
M  V30 2404 H 222.318 3.63119 3.81381 0
M  V30 2405 H 224.809 2.88321 2.44293 0
M  V30 2406 H 225.122 6.28101 4.50232 0
M  V30 2407 H 223.467 5.64463 4.05471 0
M  V30 2408 H 226.658 3.62529 2.96126 0
M  V30 2409 H 226.831 5.17457 3.90054 0
M  V30 2410 N 220.237 -1.11381 1.11499 0
M  V30 2411 C 221.484 -1.83132 0.864231 0
M  V30 2412 C 221.812 -1.84683 -0.610114 0
M  V30 2413 O 221.067 -1.29589 -1.46646 0
M  V30 2414 C 221.366 -3.30026 1.37177 0
M  V30 2415 C 221.032 -3.48634 2.85946 0
M  V30 2416 C 219.694 -3.53421 3.26569 0
M  V30 2417 C 222.046 -3.54837 3.81759 0
M  V30 2418 C 219.374 -3.61967 4.61733 0
M  V30 2419 C 221.726 -3.64915 5.1674 0
M  V30 2420 C 220.39 -3.67962 5.5692 0
M  V30 2421 H 219.66 -0.670127 0.316245 0
M  V30 2422 H 222.307 -1.31354 1.3935 0
M  V30 2423 H 220.612 -3.84304 0.762753 0
M  V30 2424 H 222.309 -3.84034 1.15408 0
M  V30 2425 H 218.899 -3.45579 2.53521 0
M  V30 2426 H 223.083 -3.50399 3.51474 0
M  V30 2427 H 218.339 -3.62603 4.92269 0
M  V30 2428 H 222.513 -3.68658 5.90816 0
M  V30 2429 H 220.14 -3.74336 6.61647 0
M  V30 2430 N 221.715 -0.905404 -1.28997 0
M  V30 2431 C 222.945 -0.549049 -1.99171 0
M  V30 2432 C 223.353 0.87203 -1.67906 0
M  V30 2433 O 222.696 1.58796 -0.923561 0
M  V30 2434 C 222.758 -0.668306 -3.53234 0
M  V30 2435 C 222.422 -2.0574 -4.08069 0
M  V30 2436 C 223.419 -3.0292 -4.22534 0
M  V30 2437 C 221.104 -2.36833 -4.42962 0
M  V30 2438 C 223.098 -4.29314 -4.71135 0
M  V30 2439 C 220.785 -3.63467 -4.91258 0
M  V30 2440 C 221.783 -4.59522 -5.053 0
M  V30 2441 O 221.471 -5.83907 -5.52546 0
M  V30 2442 H 221.203 -0.208784 -0.64295 0
M  V30 2443 H 223.757 -1.21836 -1.65363 0
M  V30 2444 H 221.987 0.0580547 -3.86656 0
M  V30 2445 H 223.676 -0.320273 -4.04634 0
M  V30 2446 H 224.442 -2.80216 -3.95859 0
M  V30 2447 H 220.321 -1.62824 -4.31288 0
M  V30 2448 H 223.865 -5.04293 -4.8201 0
M  V30 2449 H 219.762 -3.86 -5.17372 0
M  V30 2450 H 220.53 -5.86578 -5.70849 0
M  V30 2451 N 223.193 1.4272 -0.668489 0
M  V30 2452 C 224.442 2.00846 -0.185389 0
M  V30 2453 C 224.755 1.53442 1.21305 0
M  V30 2454 O 225.961 2.03944 1.79218 0
M  V30 2455 C 224.417 3.58805 -0.280591 0
M  V30 2456 C 224.025 4.15198 -1.68268 0
M  V30 2457 C 225.769 4.24255 0.14412 0
M  V30 2458 C 223.676 5.655 -1.73099 0
M  V30 2459 H 222.606 0.751145 -0.0655475 0
M  V30 2460 H 225.257 1.63516 -0.832752 0
M  V30 2461 H 223.639 3.93608 0.434553 0
M  V30 2462 H 224.813 3.91866 -2.42441 0
M  V30 2463 H 223.128 3.62176 -2.05469 0
M  V30 2464 H 225.725 5.34547 0.128086 0
M  V30 2465 H 226.068 3.99277 1.17827 0
M  V30 2466 H 226.601 3.94389 -0.519798 0
M  V30 2467 H 223.34 5.95268 -2.74475 0
M  V30 2468 H 222.86 5.90842 -1.03274 0
M  V30 2469 H 224.539 6.29808 -1.48158 0
M  V30 2470 N 224.671 0.411399 1.52136 0
M  V30 2471 C 225.601 -0.404015 2.29978 0
M  V30 2472 C 226.582 -1.04412 1.34284 0
M  V30 2473 O 227.767 -1.0527 1.63192 0
M  V30 2474 C 224.897 -1.5197 3.12286 0
M  V30 2475 C 223.851 -1.00448 4.16046 0
M  V30 2476 C 223.177 -2.21393 4.86712 0
M  V30 2477 C 224.477 -0.0569336 5.22269 0
M  V30 2478 H 226.171 0.245529 2.98392 0
M  V30 2479 H 223.717 0.119525 1.43503 0
M  V30 2480 H 225.67 -2.09715 3.6551 0
M  V30 2481 H 224.394 -2.19716 2.41646 0
M  V30 2482 H 223.053 -0.449421 3.63835 0
M  V30 2483 H 222.701 -2.87699 4.12599 0
M  V30 2484 H 222.401 -1.87571 5.56858 0
M  V30 2485 H 223.925 -2.7974 5.4275 0
M  V30 2486 H 225.339 -0.54325 5.7072 0
M  V30 2487 H 223.736 0.192594 5.99791 0
M  V30 2488 H 224.806 0.887663 4.76706 0
M  V30 2489 N 226.149 -1.5696 0.141893 0
M  V30 2490 C 227.097 -2.17784 -0.816874 0
M  V30 2491 C 228.091 -1.1334 -1.25899 0
M  V30 2492 O 229.297 -1.316 -1.22806 0
M  V30 2493 H 225.672 -0.697278 -0.281615 0
M  V30 2494 H 227.643 -2.97087 -0.279621 0
M  V30 2495 C 226.392 -2.80983 -2.04802 0
M  V30 2496 H 225.715 -3.61062 -1.7168 0
M  V30 2497 H 227.155 -3.2705 -2.69841 0
M  V30 2498 C 225.614 -1.79228 -2.8527 0
M  V30 2499 O 226.144 -1.25962 -3.8144 0
M  V30 2500 N 224.35 -1.48647 -2.49704 0
M  V30 2501 H 223.897 -1.92155 -1.71564 0
M  V30 2502 H 223.855 -0.808115 -3.03837 0
M  V30 2503 N 227.627 0.131896 -1.57047 0
M  V30 2504 C 228.855 0.856461 -1.88341 0
M  V30 2505 C 229.27 1.74042 -0.731757 0
M  V30 2506 O 228.627 1.80051 0.297945 0
M  V30 2507 C 228.678 1.70064 -3.18999 0
M  V30 2508 O 228.399 0.852278 -4.2973 0
M  V30 2509 C 229.9 2.53148 -3.63911 0
M  V30 2510 H 227.12 0.246885 -0.62393 0
M  V30 2511 H 229.664 0.120152 -2.04147 0
M  V30 2512 H 227.819 2.38984 -3.04902 0
M  V30 2513 H 228.233 1.43329 -5.04537 0
M  V30 2514 H 229.707 3.07931 -4.58129 0
M  V30 2515 H 230.184 3.29901 -2.89935 0
M  V30 2516 H 230.79 1.89492 -3.80753 0
M  V30 2517 N 229.106 1.52395 0.401703 0
M  V30 2518 C 230.036 1.79231 1.49661 0
M  V30 2519 C 231.017 0.643654 1.57452 0
M  V30 2520 O 232.202 0.889989 1.72606 0
M  V30 2521 C 229.332 1.94971 2.87409 0
M  V30 2522 C 228.286 3.10604 2.94465 0
M  V30 2523 C 227.612 3.11577 4.34538 0
M  V30 2524 C 228.912 4.49921 2.6527 0
M  V30 2525 H 230.606 2.70917 1.27454 0
M  V30 2526 H 228.152 1.30362 0.6117 0
M  V30 2527 H 230.105 2.12328 3.63999 0
M  V30 2528 H 228.829 0.999632 3.10926 0
M  V30 2529 H 227.488 2.93009 2.20321 0
M  V30 2530 H 227.136 2.14277 4.55076 0
M  V30 2531 H 226.836 3.89247 4.40183 0
M  V30 2532 H 228.36 3.31073 5.13053 0
M  V30 2533 H 229.774 4.67683 3.31581 0
M  V30 2534 H 228.171 5.29564 2.82281 0
M  V30 2535 H 229.241 4.57507 1.60671 0
M  V30 2536 N 230.584 -0.659388 1.43143 0
M  V30 2537 C 231.831 -1.41935 1.44433 0
M  V30 2538 C 232.159 -1.94387 0.0663522 0
M  V30 2539 O 231.414 -1.72314 -0.927706 0
M  V30 2540 C 231.713 -2.62206 2.42864 0
M  V30 2541 C 231.379 -2.28208 3.88886 0
M  V30 2542 C 230.041 -2.18647 4.28657 0
M  V30 2543 C 232.393 -2.00887 4.8093 0
M  V30 2544 C 229.721 -1.79914 5.58433 0
M  V30 2545 C 232.073 -1.63653 6.11065 0
M  V30 2546 C 230.737 -1.52614 6.49819 0
M  V30 2547 H 230.007 -0.519376 0.528517 0
M  V30 2548 H 232.654 -0.750453 1.76183 0
M  V30 2549 H 230.959 -3.34199 2.04495 0
M  V30 2550 H 232.656 -3.2041 2.41119 0
M  V30 2551 H 229.246 -2.36557 3.57406 0
M  V30 2552 H 233.43 -2.07198 4.5098 0
M  V30 2553 H 228.686 -1.69948 5.87305 0
M  V30 2554 H 232.86 -1.41543 6.81864 0
M  V30 2555 H 230.487 -1.22371 7.50286 0
M  V30 2556 N 232.062 -1.29571 -0.897171 0
M  V30 2557 C 233.01 -1.14802 -2.02295 0
M  V30 2558 C 234.004 -0.0629637 -1.69283 0
M  V30 2559 O 235.21 -0.222945 -1.78614 0
M  V30 2560 H 231.585 -0.354692 -0.663097 0
M  V30 2561 H 233.556 -2.10108 -2.11889 0
M  V30 2562 C 232.305 -0.843966 -3.37302 0
M  V30 2563 H 231.628 -1.67093 -3.63208 0
M  V30 2564 H 233.068 -0.780672 -4.16751 0
M  V30 2565 C 231.527 0.452843 -3.33843 0
M  V30 2566 O 232.057 1.47813 -3.73516 0
M  V30 2567 N 230.263 0.459601 -2.86943 0
M  V30 2568 H 229.81 -0.375213 -2.54853 0
M  V30 2569 H 229.768 1.32726 -2.85011 0
M  V30 2570 N 233.54 1.10788 -1.12088 0
M  V30 2571 C 234.47 2.19083 -0.807755 0
M  V30 2572 C 235.451 1.6858 0.226859 0
M  V30 2573 O 236.636 1.93997 0.0888475 0
M  V30 2574 C 233.766 3.46344 -0.257576 0
M  V30 2575 C 232.72 4.101 -1.22483 0
M  V30 2576 C 232.046 5.32016 -0.535052 0
M  V30 2577 C 233.346 4.54236 -2.57811 0
M  V30 2578 H 235.04 2.45534 -1.71328 0
M  V30 2579 H 232.586 1.1801 -0.825205 0
M  V30 2580 H 234.539 4.21392 -0.0262679 0
M  V30 2581 H 233.263 3.19373 0.683278 0
M  V30 2582 H 231.922 3.37054 -1.44189 0
M  V30 2583 H 231.57 5.01319 0.410827 0
M  V30 2584 H 231.27 5.75625 -1.18024 0
M  V30 2585 H 232.794 6.09799 -0.312695 0
M  V30 2586 H 234.208 5.20575 -2.40155 0
M  V30 2587 H 232.605 5.08682 -3.18375 0
M  V30 2588 H 233.675 3.6734 -3.16528 0
M  V30 2589 N 235.018 0.912232 1.28515 0
M  V30 2590 C 236.429 0.591352 1.77087 0
M  V30 2591 C 236.78 -0.8933 1.74684 0
M  V30 2592 O 235.905 -1.69876 1.34056 0
M  V30 2593 C 236.5 1.06668 3.2157 0
M  V30 2594 C 235.059 0.79675 3.67871 0
M  V30 2595 C 234.206 1.23427 2.48316 0
M  V30 2596 H 237.157 1.09365 1.15 0
M  V30 2597 H 237.178 0.407455 3.78312 0
M  V30 2598 H 236.69 2.14726 3.23287 0
M  V30 2599 H 234.791 -0.270679 3.71616 0
M  V30 2600 H 234.904 1.40343 4.58084 0
M  V30 2601 H 233.268 0.653036 2.46186 0
M  V30 2602 H 234.051 2.32316 2.52753 0
M  V30 2603 N 236.496 -1.42363 0.676048 0
M  V30 2604 C 237.406 -2.346 -0.00153389 0
M  V30 2605 C 238.422 -1.5516 -0.787485 0
M  V30 2606 O 239.598 -1.87723 -0.729521 0
M  V30 2607 C 236.663 -3.33705 -0.940298 0
M  V30 2608 C 235.724 -4.29042 -0.148739 0
M  V30 2609 C 234.957 -5.23413 -1.04279 0
M  V30 2610 O 235.18 -5.22749 -2.28232 0
M  V30 2611 O 234.114 -5.99795 -0.502925 0
M  V30 2612 H 237.94 -2.94082 0.758268 0
M  V30 2613 H 235.525 -1.42888 0.436289 0
M  V30 2614 H 237.407 -3.94586 -1.47917 0
M  V30 2615 H 236.082 -2.76695 -1.67993 0
M  V30 2616 H 234.989 -3.71571 0.43427 0
M  V30 2617 H 236.322 -4.89097 0.551805 0
M  V30 2618 N 237.974 -0.419461 -1.51915 0
M  V30 2619 C 239.202 0.152136 -2.0634 0
M  V30 2620 C 239.617 1.37988 -1.28859 0
M  V30 2621 O 238.974 1.79243 -0.343232 0
M  V30 2622 C 239.025 0.492266 -3.58133 0
M  V30 2623 O 238.746 -0.686736 -4.32684 0
M  V30 2624 C 240.247 1.11648 -4.2901 0
M  V30 2625 H 237.467 0.0158325 -0.670813 0
M  V30 2626 H 240.011 -0.593394 -1.95702 0
M  V30 2627 H 238.166 1.18769 -3.68745 0
M  V30 2628 H 238.58 -0.400341 -5.2297 0
M  V30 2629 H 240.054 1.3046 -5.36362 0
M  V30 2630 H 240.531 2.09251 -3.86148 0
M  V30 2631 H 241.137 0.460958 -4.22795 0
M  V30 2632 N 239.452 1.56882 -0.150215 0
M  V30 2633 C 240.682 2.00302 0.506213 0
M  V30 2634 C 241.09 1.02934 1.58749 0
M  V30 2635 O 240.433 0.0188384 1.8369 0
M  V30 2636 C 240.495 3.40156 1.16337 0
M  V30 2637 C 240.159 4.56439 0.226311 0
M  V30 2638 C 241.156 5.17012 -0.547265 0
M  V30 2639 C 238.841 5.02136 0.128279 0
M  V30 2640 C 240.835 6.21693 -1.40629 0
M  V30 2641 C 238.522 6.06672 -0.734345 0
M  V30 2642 C 239.52 6.6632 -1.50023 0
M  V30 2643 O 239.208 7.68831 -2.34848 0
M  V30 2644 H 238.94 0.662182 0.135984 0
M  V30 2645 H 241.494 2.03961 -0.242746 0
M  V30 2646 H 239.724 3.33346 1.96004 0
M  V30 2647 H 241.413 3.67663 1.71985 0
M  V30 2648 H 242.179 4.82603 -0.48158 0
M  V30 2649 H 238.058 4.55435 0.714157 0
M  V30 2650 H 241.602 6.68179 -2.00455 0
M  V30 2651 H 237.499 6.40507 -0.801309 0
M  V30 2652 H 238.267 7.86065 -2.28131 0
M  V30 2653 N 240.93 -0.123565 1.57115 0
M  V30 2654 C 241.86 -1.15309 2.03042 0
M  V30 2655 C 242.841 -1.43454 0.914061 0
M  V30 2656 O 244.026 -1.53973 1.18347 0
M  V30 2657 C 241.156 -2.48043 2.43089 0
M  V30 2658 C 240.11 -2.3437 3.58127 0
M  V30 2659 C 239.436 -3.72026 3.84059 0
M  V30 2660 C 240.736 -1.80804 4.90007 0
M  V30 2661 H 242.43 -0.771102 2.893 0
M  V30 2662 H 239.976 -0.369479 1.39179 0
M  V30 2663 H 241.929 -3.20311 2.73823 0
M  V30 2664 H 240.653 -2.88122 1.53796 0
M  V30 2665 H 239.312 -1.64551 3.27595 0
M  V30 2666 H 238.96 -4.09582 2.91979 0
M  V30 2667 H 238.66 -3.63732 4.6149 0
M  V30 2668 H 240.184 -4.45806 4.1724 0
M  V30 2669 H 241.598 -2.42886 5.19307 0
M  V30 2670 H 239.995 -1.83343 5.71407 0
M  V30 2671 H 241.065 -0.76528 4.78823 0
M  V30 2672 N 242.408 -1.52605 -0.393616 0
M  V30 2673 C 243.338 -1.80022 -1.48709 0
M  V30 2674 C 244.319 -0.651995 -1.57108 0
M  V30 2675 O 245.504 -0.89913 -1.72132 0
M  V30 2676 C 242.634 -1.96492 -2.86371 0
M  V30 2677 C 241.588 -3.12161 -2.92813 0
M  V30 2678 C 240.914 -3.13877 -4.3288 0
M  V30 2679 C 242.214 -4.51322 -2.6288 0
M  V30 2680 H 243.908 -2.71589 -1.26015 0
M  V30 2681 H 241.454 -1.30684 -0.604778 0
M  V30 2682 H 243.407 -2.14255 -3.62867 0
M  V30 2683 H 242.131 -1.01611 -3.10391 0
M  V30 2684 H 240.79 -2.94173 -2.18764 0
M  V30 2685 H 240.438 -2.16687 -4.53933 0
M  V30 2686 H 240.138 -3.91576 -4.38112 0
M  V30 2687 H 241.662 -3.33789 -5.1129 0
M  V30 2688 H 243.076 -4.69435 -3.29096 0
M  V30 2689 H 241.473 -5.31053 -2.79468 0
M  V30 2690 H 242.543 -4.58353 -1.58242 0
M  V30 2691 N 243.887 0.651787 -1.4349 0
M  V30 2692 C 244.85 1.74647 -1.48429 0
M  V30 2693 C 245.85 1.56513 -0.368817 0
M  V30 2694 O 247.04 1.62385 -0.630623 0
M  V30 2695 C 244.172 3.13533 -1.33827 0
M  V30 2696 H 245.365 1.71649 -2.4592 0
M  V30 2697 H 242.918 0.863573 -1.30277 0
M  V30 2698 H 243.653 3.22142 -0.37349 0
M  V30 2699 H 243.438 3.28101 -2.14691 0
M  V30 2700 H 244.928 3.93356 -1.40218 0
M  V30 2701 N 245.365 1.30045 0.890287 0
M  V30 2702 C 246.605 1.19839 1.65584 0
M  V30 2703 C 246.969 -0.244175 1.90441 0
M  V30 2704 O 248.17 -0.469378 2.6467 0
M  V30 2705 C 246.441 1.99876 2.96284 0
M  V30 2706 S 248 2.06309 3.87275 0
M  V30 2707 H 244.818 0.427157 0.568382 0
M  V30 2708 H 247.42 1.64453 1.05715 0
M  V30 2709 H 246.124 3.03809 2.75913 0
M  V30 2710 H 245.655 1.55903 3.61189 0
M  V30 2711 H 247.67 1.18661 4.81803 0
M  V30 2712 N 246.843 -1.10192 1.12674 0
M  V30 2713 C 247.773 -2.18652 0.819362 0
M  V30 2714 C 248.754 -1.68698 -0.217915 0
M  V30 2715 O 249.939 -1.94041 -0.0785581 0
M  V30 2716 C 247.069 -3.46202 0.27594 0
M  V30 2717 C 246.023 -4.09444 1.24656 0
M  V30 2718 C 245.349 -5.31725 0.563258 0
M  V30 2719 C 246.649 -4.52863 2.60217 0
M  V30 2720 H 248.343 -2.44622 1.72628 0
M  V30 2721 H 245.889 -1.17571 0.831451 0
M  V30 2722 H 247.842 -4.21372 0.0486149 0
M  V30 2723 H 246.566 -3.1973 -0.666331 0
M  V30 2724 H 245.225 -3.36284 1.45974 0
M  V30 2725 H 244.873 -5.0153 -0.384235 0
M  V30 2726 H 244.573 -5.74991 1.21075 0
M  V30 2727 H 246.097 -6.09624 0.34503 0
M  V30 2728 H 247.511 -5.19294 2.42913 0
M  V30 2729 H 245.908 -5.06986 3.21068 0
M  V30 2730 H 246.978 -3.65656 3.18471 0
M  V30 2731 N 248.321 -0.919034 -1.28029 0
M  V30 2732 C 249.567 -0.555757 -1.95036 0
M  V30 2733 C 249.9 0.899198 -1.72128 0
M  V30 2734 O 249.175 1.64023 -1.04531 0
M  V30 2735 C 249.458 -0.872024 -3.49382 0
M  V30 2736 C 249.311 -2.3801 -3.81669 0
M  V30 2737 C 250.63 -0.37185 -4.38526 0
M  V30 2738 H 247.749 -0.203386 -0.708381 0
M  V30 2739 H 250.391 -1.14924 -1.51303 0
M  V30 2740 H 248.541 -0.366946 -3.86763 0
M  V30 2741 H 250.213 -2.9562 -3.54128 0
M  V30 2742 H 248.456 -2.83289 -3.28526 0
M  V30 2743 H 249.127 -2.55192 -4.8947 0
M  V30 2744 H 251.603 -0.804602 -4.08247 0
M  V30 2745 H 250.479 -0.622173 -5.45362 0
M  V30 2746 H 250.74 0.727934 -4.36066 0
M  V30 2747 N 249.799 1.42003 -0.683588 0
M  V30 2748 C 251.076 1.95112 -0.138075 0
M  V30 2749 C 251.456 1.62359 1.34918 0
M  V30 2750 O 250.804 0.924311 2.08971 0
M  V30 2751 C 251.014 3.46505 -0.416581 0
M  V30 2752 C 252.362 4.23254 -0.337834 0
M  V30 2753 O 253.386 3.54468 -0.35082 0
M  V30 2754 O 252.245 5.45743 -0.287596 0
M  V30 2755 H 249.339 0.826961 -0.00797996 0
M  V30 2756 H 251.885 1.51784 -0.758924 0
M  V30 2757 H 250.657 3.63582 -1.4465 0
M  V30 2758 H 250.28 3.969 0.235839 0
M  V30 2759 N 251.277 0.427512 1.51691 0
M  V30 2760 C 252.524 -0.142229 2.02 0
M  V30 2761 C 252.852 -1.43566 1.31221 0
M  V30 2762 O 252.107 -1.91298 0.412744 0
M  V30 2763 C 252.406 -0.418249 3.54944 0
M  V30 2764 C 252.072 0.788187 4.43958 0
M  V30 2765 C 250.734 1.11906 4.68007 0
M  V30 2766 C 253.086 1.59347 4.96244 0
M  V30 2767 C 250.414 2.25608 5.41588 0
M  V30 2768 C 252.766 2.7214 5.71072 0
M  V30 2769 C 251.43 3.05692 5.93387 0
M  V30 2770 H 250.7 -0.0520451 0.73917 0
M  V30 2771 H 253.347 0.572697 1.82736 0
M  V30 2772 H 251.652 -1.21496 3.72486 0
M  V30 2773 H 253.349 -0.872339 3.91397 0
M  V30 2774 H 249.939 0.520344 4.2543 0
M  V30 2775 H 254.123 1.35106 4.77556 0
M  V30 2776 H 249.379 2.51929 5.57083 0
M  V30 2777 H 253.553 3.34914 6.10578 0
M  V30 2778 H 251.18 3.9391 6.50184 0
M  V30 2779 N 252.755 -1.56801 0.158532 0
M  V30 2780 C 254.002 -1.9649 -0.489679 0
M  V30 2781 C 254.33 -1.04394 -1.6411 0
M  V30 2782 O 253.585 -0.0754401 -1.95555 0
M  V30 2783 C 253.884 -3.4235 -1.02623 0
M  V30 2784 C 253.55 -4.50899 0.00794526 0
M  V30 2785 C 252.212 -4.80312 0.292207 0
M  V30 2786 C 254.564 -5.16333 0.710584 0
M  V30 2787 C 251.892 -5.72461 1.28472 0
M  V30 2788 C 254.244 -6.09553 1.69199 0
M  V30 2789 C 252.908 -6.37339 1.98383 0
M  V30 2790 H 252.178 -0.719009 -0.179186 0
M  V30 2791 H 254.825 -1.8989 0.247798 0
M  V30 2792 H 253.13 -3.45838 -1.84128 0
M  V30 2793 H 254.827 -3.70393 -1.53656 0
M  V30 2794 H 251.417 -4.28015 -0.22379 0
M  V30 2795 H 255.601 -4.93732 0.504174 0
M  V30 2796 H 250.857 -5.92278 1.51714 0
M  V30 2797 H 255.031 -6.59327 2.24189 0
M  V30 2798 H 252.658 -7.08546 2.7544 0
M  V30 2799 N 254.233 0.115231 -1.57178 0
M  V30 2800 C 255.461 0.836437 -1.89239 0
M  V30 2801 C 255.876 1.73256 -0.750175 0
M  V30 2802 O 255.233 1.80357 0.278832 0
M  V30 2803 C 255.284 1.66671 -3.20785 0
M  V30 2804 O 255.005 0.806652 -4.3061 0
M  V30 2805 C 256.506 2.49274 -3.66575 0
M  V30 2806 H 253.726 0.240253 -0.626514 0
M  V30 2807 H 256.27 0.0984932 -2.04263 0
M  V30 2808 H 254.425 2.35737 -3.0742 0
M  V30 2809 H 254.839 1.37969 -5.06028 0
M  V30 2810 H 256.313 3.03055 -4.6137 0
M  V30 2811 H 256.79 3.26807 -2.93417 0
M  V30 2812 H 257.396 1.85443 -3.82741 0
M  V30 2813 N 255.711 1.52812 0.385517 0
M  V30 2814 C 256.659 1.78482 1.49155 0
M  V30 2815 C 257.653 0.652914 1.56312 0
M  V30 2816 O 258.859 0.835464 1.59436 0
M  V30 2817 H 255.234 0.5648 0.496493 0
M  V30 2818 H 257.205 2.71095 1.24699 0
M  V30 2819 C 255.954 1.97378 2.86247 0
M  V30 2820 H 255.277 2.83907 2.81491 0
M  V30 2821 H 256.717 2.19327 3.62866 0
M  V30 2822 C 255.176 0.74728 3.28508 0
M  V30 2823 O 255.706 -0.0736232 4.01633 0
M  V30 2824 N 253.912 0.576396 2.84826 0
M  V30 2825 H 253.459 1.24555 2.25486 0
M  V30 2826 H 253.417 -0.24288 3.1346 0
M  V30 2827 N 257.189 -0.644168 1.43834 0
M  V30 2828 C 258.429 -1.41565 1.47441 0
M  V30 2829 C 258.793 -1.91743 0.0992723 0
M  V30 2830 O 259.994 -2.68798 0.0100192 0
M  V30 2831 C 258.265 -2.55902 2.49498 0
M  V30 2832 S 259.824 -3.44287 2.72051 0
M  V30 2833 H 256.642 -0.483118 0.521649 0
M  V30 2834 H 259.244 -0.747008 1.80666 0
M  V30 2835 H 257.948 -2.17327 3.48134 0
M  V30 2836 H 257.479 -3.27607 2.17801 0
M  V30 2837 H 259.494 -4.52927 2.0266 0
M  V30 2838 N 258.668 -1.30515 -0.883378 0
M  V30 2839 C 260.079 -1.17509 -1.45081 0
M  V30 2840 C 260.43 0.223605 -1.94922 0
M  V30 2841 O 259.555 1.12041 -1.85137 0
M  V30 2842 C 260.15 -2.12715 -2.63701 0
M  V30 2843 C 258.709 -2.03682 -3.16529 0
M  V30 2844 C 257.856 -2.02706 -1.89224 0
M  V30 2845 H 260.807 -1.42762 -0.693165 0
M  V30 2846 H 260.828 -1.70891 -3.39965 0
M  V30 2847 H 260.34 -3.14505 -2.27395 0
M  V30 2848 H 258.441 -1.05039 -3.57488 0
M  V30 2849 H 258.554 -2.92146 -3.7972 0
M  V30 2850 H 256.918 -1.4753 -2.07622 0
M  V30 2851 H 257.701 -3.06229 -1.55174 0
M  V30 2852 N 260.146 1.09593 -1.13257 0
M  V30 2853 C 261.562 1.33775 -0.870423 0
M  V30 2854 C 261.762 1.95327 0.494926 0
M  V30 2855 O 260.818 2.19853 1.2418 0
M  V30 2856 C 262.131 2.25106 -1.99369 0
M  V30 2857 C 263.679 2.3862 -2.02558 0
M  V30 2858 C 264.154 3.33285 -3.14142 0
M  V30 2859 N 265.645 3.40857 -3.13641 0
M  V30 2860 C 266.38 4.14101 -3.96621 0
M  V30 2861 N 265.876 4.90157 -4.8961 0
M  V30 2862 N 267.669 4.09808 -3.84726 0
M  V30 2863 H 259.82 0.680136 -2.01216 0
M  V30 2864 H 262.083 0.362133 -0.876107 0
M  V30 2865 H 261.789 1.87103 -2.97801 0
M  V30 2866 H 261.663 3.25481 -1.90635 0
M  V30 2867 H 264.05 2.75887 -1.0474 0
M  V30 2868 H 264.131 1.38028 -2.15364 0
M  V30 2869 H 263.775 2.96741 -4.12198 0
M  V30 2870 H 263.705 4.33776 -2.98574 0
M  V30 2871 H 266.196 2.86624 -2.46282 0
M  V30 2872 H 266.509 5.4347 -5.49418 0
M  V30 2873 H 264.854 4.89251 -4.93617 0
M  V30 2874 H 268.045 3.4949 -3.11408 0
M  V30 2875 H 268.218 4.66629 -4.49623 0
M  V30 2876 N 261.624 0.925811 1.2754 0
M  V30 2877 C 262.854 0.580666 1.98272 0
M  V30 2878 C 263.262 -0.845207 1.69272 0
M  V30 2879 O 262.605 -1.57306 0.948707 0
M  V30 2880 C 262.667 0.724418 3.52126 0
M  V30 2881 C 262.331 2.12206 4.04744 0
M  V30 2882 C 263.328 3.09604 4.17662 0
M  V30 2883 C 261.013 2.4385 4.39138 0
M  V30 2884 C 263.007 4.36755 4.64246 0
M  V30 2885 C 260.694 3.71237 4.85414 0
M  V30 2886 C 261.692 4.67503 4.97926 0
M  V30 2887 O 261.38 5.92624 5.43187 0
M  V30 2888 H 261.112 0.218987 0.639547 0
M  V30 2889 H 263.666 1.24452 1.63404 0
M  V30 2890 H 261.896 0.0034663 3.867 0
M  V30 2891 H 263.585 0.384607 4.04074 0
M  V30 2892 H 264.351 2.86478 3.91351 0
M  V30 2893 H 260.23 1.69665 4.28643 0
M  V30 2894 H 263.774 5.11898 4.73927 0
M  V30 2895 H 259.671 3.94182 5.11166 0
M  V30 2896 H 260.439 5.95585 5.61445 0
M  V30 2897 N 263.102 -1.41638 0.69111 0
M  V30 2898 C 264.33 -2.05628 0.22909 0
M  V30 2899 C 264.745 -1.51992 -1.11999 0
M  V30 2900 O 264.102 -0.666322 -1.69901 0
M  V30 2901 C 264.153 -3.61084 0.173283 0
M  V30 2902 O 263.874 -4.12735 1.46907 0
M  V30 2903 C 265.375 -4.42213 -0.310266 0
M  V30 2904 H 262.595 -0.662327 0.107534 0
M  V30 2905 H 265.139 -1.81489 0.942438 0
M  V30 2906 H 263.294 -3.84278 -0.490858 0
M  V30 2907 H 263.708 -5.06743 1.35322 0
M  V30 2908 H 265.182 -5.51194 -0.298196 0
M  V30 2909 H 265.659 -4.1799 -1.34838 0
M  V30 2910 H 266.265 -4.24074 0.322716 0
M  V30 2911 N 264.58 -0.43555 -1.51462 0
M  V30 2912 C 265.805 0.132627 -2.06976 0
M  V30 2913 C 266.23 1.35848 -1.30104 0
M  V30 2914 O 265.588 1.78112 -0.338493 0
M  V30 2915 C 265.636 0.43523 -3.57964 0
M  V30 2916 O 264.74 1.52198 -3.83288 0
M  V30 2917 H 264.081 0.00265 -0.663995 0
M  V30 2918 H 266.611 -0.616369 -1.95095 0
M  V30 2919 H 266.621 0.686206 -4.02188 0
M  V30 2920 H 265.296 -0.460739 -4.1334 0
M  V30 2921 H 263.873 1.2611 -3.50928 0
M  V30 2922 N 266.058 1.56714 -0.166846 0
M  V30 2923 C 267.298 1.98641 0.481763 0
M  V30 2924 C 267.662 1.05038 1.6072 0
M  V30 2925 O 268.863 1.36087 2.31805 0
M  V30 2926 C 267.134 3.44362 0.956517 0
M  V30 2927 S 268.693 4.08317 1.60694 0
M  V30 2928 H 265.511 0.693873 0.155116 0
M  V30 2929 H 268.113 1.93719 -0.263251 0
M  V30 2930 H 266.817 4.10204 0.126936 0
M  V30 2931 H 266.348 3.53041 1.73568 0
M  V30 2932 H 268.363 4.02999 2.89494 0
M  V30 2933 N 267.536 -0.106894 1.57237 0
M  V30 2934 C 268.446 -1.14911 2.0453 0
M  V30 2935 C 269.462 -1.44592 0.96795 0
M  V30 2936 O 270.638 -1.55468 1.2803 0
M  V30 2937 C 267.703 -2.45272 2.45036 0
M  V30 2938 C 266.764 -2.22879 3.66911 0
M  V30 2939 C 265.997 -3.47024 4.05475 0
M  V30 2940 O 266.22 -4.54804 3.44252 0
M  V30 2941 O 265.154 -3.3731 4.98504 0
M  V30 2942 H 268.98 -0.777461 2.9358 0
M  V30 2943 H 266.565 -0.318563 1.45964 0
M  V30 2944 H 268.447 -3.22055 2.71769 0
M  V30 2945 H 267.122 -2.81886 1.59129 0
M  V30 2946 H 266.029 -1.43915 3.45311 0
M  V30 2947 H 267.362 -1.91163 4.53561 0
M  V30 2948 N 269.014 -1.53014 -0.377408 0
M  V30 2949 C 270.242 -1.72515 -1.14219 0
M  V30 2950 C 270.657 -0.448735 -1.8339 0
M  V30 2951 O 270.014 0.577592 -1.73119 0
M  V30 2952 C 270.065 -2.8826 -2.18148 0
M  V30 2953 O 269.786 -4.10962 -1.51795 0
M  V30 2954 C 271.287 -3.19536 -3.07264 0
M  V30 2955 H 268.507 -0.577301 -0.342001 0
M  V30 2956 H 271.051 -1.99712 -0.439935 0
M  V30 2957 H 269.206 -2.63492 -2.83991 0
M  V30 2958 H 269.62 -4.75693 -2.20945 0
M  V30 2959 H 271.094 -4.03959 -3.76193 0
M  V30 2960 H 271.571 -2.34403 -3.71419 0
M  V30 2961 H 272.177 -3.46186 -2.47053 0
M  V30 2962 N 270.492 0.636531 -1.44174 0
M  V30 2963 C 271.74 1.39343 -1.46383 0
M  V30 2964 C 272.061 1.94766 -0.0955715 0
M  V30 2965 O 271.331 1.75452 0.871395 0
M  V30 2966 H 269.911 0.517199 -0.538994 0
M  V30 2967 H 272.573 0.74957 -1.7991 0
M  V30 2968 H 271.669 2.22746 -2.18611 0
M  V30 2969 N 271.97 1.30982 0.876444 0
M  V30 2970 C 273.217 1.20296 1.62896 0
M  V30 2971 C 273.545 -0.240395 1.93009 0
M  V30 2972 O 272.8 -1.18733 1.55567 0
M  V30 2973 C 273.099 1.98572 2.9716 0
M  V30 2974 C 272.765 3.48125 2.86566 0
M  V30 2975 C 271.427 3.88905 2.83383 0
M  V30 2976 C 273.779 4.43322 2.74071 0
M  V30 2977 C 271.107 5.2316 2.65556 0
M  V30 2978 C 273.459 5.77695 2.57781 0
M  V30 2979 C 272.123 6.17704 2.52979 0
M  V30 2980 H 271.393 0.440193 0.59608 0
M  V30 2981 H 274.04 1.62177 1.01837 0
M  V30 2982 H 272.345 1.49352 3.62217 0
M  V30 2983 H 274.042 1.8769 3.54364 0
M  V30 2984 H 270.632 3.15723 2.89856 0
M  V30 2985 H 274.816 4.12752 2.75589 0
M  V30 2986 H 270.072 5.53241 2.60259 0
M  V30 2987 H 274.246 6.51091 2.47089 0
M  V30 2988 H 271.873 7.21678 2.38924 0
M  V30 2989 N 273.449 -1.08991 1.13837 0
M  V30 2990 C 274.396 -2.15748 0.819835 0
M  V30 2991 C 275.366 -1.64636 -0.220026 0
M  V30 2992 O 276.551 -1.90582 -0.0912757 0
M  V30 2993 C 273.691 -3.4382 0.296913 0
M  V30 2994 C 272.804 -4.0881 1.39636 0
M  V30 2995 C 271.939 -5.24655 0.831314 0
M  V30 2996 C 270.978 -5.81575 1.90886 0
M  V30 2997 N 270.115 -6.88774 1.36142 0
M  V30 2998 H 274.955 -2.42338 1.73426 0
M  V30 2999 H 272.492 -1.18935 0.865613 0
M  V30 3000 H 274.45 -4.17193 -0.0244339 0
M  V30 3001 H 273.08 -3.17535 -0.580628 0
M  V30 3002 H 272.132 -3.33258 1.83422 0
M  V30 3003 H 273.444 -4.47141 2.21058 0
M  V30 3004 H 272.598 -6.04942 0.461515 0
M  V30 3005 H 271.337 -4.87698 -0.013932 0
M  V30 3006 H 270.342 -4.99946 2.28767 0
M  V30 3007 H 271.567 -6.20592 2.75758 0
M  V30 3008 H 269.513 -6.53788 0.538254 0
M  V30 3009 H 269.43 -7.25898 2.11208 0
M  V30 3010 H 270.698 -7.72806 1.01933 0
M  V30 3011 N 274.927 -0.932562 -1.27047 0
M  V30 3012 C 276.204 -0.49377 -1.89265 0
M  V30 3013 C 276.584 1.02833 -1.8436 0
M  V30 3014 O 275.932 1.88461 -1.29209 0
M  V30 3015 C 276.142 -1.04536 -3.32976 0
M  V30 3016 C 277.49 -1.10879 -4.09867 0
M  V30 3017 O 278.514 -0.995327 -3.42011 0
M  V30 3018 O 277.373 -1.28417 -5.31198 0
M  V30 3019 H 274.467 -0.159596 -0.811454 0
M  V30 3020 H 277.013 -1.02457 -1.3528 0
M  V30 3021 H 275.785 -2.08913 -3.30864 0
M  V30 3022 H 275.408 -0.496494 -3.94488 0
M  V30 3023 N 276.405 1.4127 -0.698611 0
M  V30 3024 C 277.653 2.00782 -0.230409 0
M  V30 3025 C 277.974 1.5562 1.17505 0
M  V30 3026 O 277.244 0.78815 1.79346 0
M  V30 3027 H 275.824 0.742464 -0.0821944 0
M  V30 3028 H 278.486 1.72852 -0.90045 0
M  V30 3029 H 277.582 3.11095 -0.25021 0
M  V30 3030 N 277.883 0.443576 1.51229 0
M  V30 3031 C 279.16 -0.181038 1.9476 0
M  V30 3032 C 279.54 -1.59523 1.38259 0
M  V30 3033 O 278.888 -2.2122 0.572198 0
M  V30 3034 C 279.098 -0.152422 3.48667 0
M  V30 3035 C 280.446 -0.354923 4.23114 0
M  V30 3036 O 281.47 -0.230257 3.55455 0
M  V30 3037 O 280.329 -0.603674 5.43156 0
M  V30 3038 H 277.423 -0.1266 0.817252 0
M  V30 3039 H 279.969 0.502004 1.62105 0
M  V30 3040 H 278.741 0.836022 3.82265 0
M  V30 3041 H 278.364 -0.878107 3.87782 0
M  V30 3042 N 279.361 -1.56624 0.175154 0
M  V30 3043 C 280.291 -2.21155 -0.749195 0
M  V30 3044 C 281.272 -1.16836 -1.23626 0
M  V30 3045 O 282.457 -1.45277 -1.28873 0
M  V30 3046 C 279.587 -2.8553 -1.97711 0
M  V30 3047 C 278.541 -3.95921 -1.62575 0
M  V30 3048 C 277.867 -4.47365 -2.92864 0
M  V30 3049 C 279.167 -5.15323 -0.850838 0
M  V30 3050 H 280.861 -2.98653 -0.211295 0
M  V30 3051 H 278.407 -1.43651 -0.100188 0
M  V30 3052 H 280.36 -3.2935 -2.62881 0
M  V30 3053 H 279.084 -2.05406 -2.53921 0
M  V30 3054 H 277.743 -3.52762 -0.997719 0
M  V30 3055 H 277.391 -3.64027 -3.47122 0
M  V30 3056 H 277.091 -5.21839 -2.70106 0
M  V30 3057 H 278.615 -4.93873 -3.59056 0
M  V30 3058 H 280.029 -5.55812 -1.40521 0
M  V30 3059 H 278.426 -5.95739 -0.722154 0
M  V30 3060 H 279.496 -4.84661 0.152082 0
M  V30 3061 N 280.839 0.0985539 -1.57292 0
M  V30 3062 C 282.086 0.802678 -1.85912 0
M  V30 3063 C 282.414 1.78901 -0.763186 0
M  V30 3064 O 281.669 1.94178 0.243559 0
M  V30 3065 C 281.968 1.56927 -3.21105 0
M  V30 3066 C 281.634 0.725376 -4.45027 0
M  V30 3067 C 280.296 0.492726 -4.78671 0
M  V30 3068 C 282.648 0.138493 -5.21016 0
M  V30 3069 C 279.976 -0.336727 -5.85733 0
M  V30 3070 C 282.328 -0.678264 -6.28953 0
M  V30 3071 C 280.992 -0.921039 -6.61115 0
M  V30 3072 H 280.262 0.293721 -0.680301 0
M  V30 3073 H 282.909 0.0642841 -1.91392 0
M  V30 3074 H 281.214 2.37914 -3.11294 0
M  V30 3075 H 282.911 2.11841 -3.40477 0
M  V30 3076 H 279.501 0.916815 -4.18679 0
M  V30 3077 H 283.685 0.305404 -4.95359 0
M  V30 3078 H 278.941 -0.533836 -6.09065 0
M  V30 3079 H 283.115 -1.1399 -6.87007 0
M  V30 3080 H 280.742 -1.56556 -7.43905 0
M  V30 3081 N 282.317 1.53212 0.369288 0
M  V30 3082 C 283.25 1.74166 1.4745 0
M  V30 3083 C 284.228 0.589923 1.51521 0
M  V30 3084 O 285.412 0.822078 1.69629 0
M  V30 3085 C 282.539 1.81711 2.8583 0
M  V30 3086 C 281.585 3.03649 2.99499 0
M  V30 3087 S 282.418 4.63242 2.6864 0
M  V30 3088 C 283.574 4.7363 4.09177 0
M  V30 3089 H 283.807 2.67636 1.29454 0
M  V30 3090 H 281.34 1.43754 0.563396 0
M  V30 3091 H 283.298 1.86743 3.65564 0
M  V30 3092 H 281.959 0.89299 3.01139 0
M  V30 3093 H 281.152 3.05526 4.00836 0
M  V30 3094 H 280.754 2.9671 2.27683 0
M  V30 3095 H 283.046 4.53456 5.03372 0
M  V30 3096 H 283.989 5.75682 4.12306 0
M  V30 3097 H 284.397 4.02295 3.96004 0
M  V30 3098 N 283.795 -0.628877 1.44509 0
M  V30 3099 C 285.02 -1.42048 1.5112 0
M  V30 3100 C 285.445 -1.87594 0.137818 0
M  V30 3101 O 284.803 -1.58873 -0.873437 0
M  V30 3102 C 284.851 -2.61541 2.48251 0
M  V30 3103 O 283.955 -3.61453 1.98559 0
M  V30 3104 H 283.296 -0.424942 0.510216 0
M  V30 3105 H 285.826 -0.767374 1.89664 0
M  V30 3106 H 285.836 -3.09057 2.66361 0
M  V30 3107 H 284.511 -2.27736 3.48007 0
M  V30 3108 H 283.088 -3.20731 1.90227 0
M  V30 3109 N 285.273 -1.31445 -0.869486 0
M  V30 3110 C 286.503 -1.23942 -1.65294 0
M  V30 3111 C 286.911 0.197561 -1.88166 0
M  V30 3112 O 286.254 1.14019 -1.44033 0
M  V30 3113 C 286.316 -1.91385 -3.04322 0
M  V30 3114 C 285.98 -3.40726 -3.04557 0
M  V30 3115 C 286.977 -4.36464 -2.82481 0
M  V30 3116 C 284.662 -3.82425 -3.25663 0
M  V30 3117 C 286.656 -5.71876 -2.8149 0
M  V30 3118 C 284.343 -5.1795 -3.243 0
M  V30 3119 C 285.341 -6.12486 -3.02241 0
M  V30 3120 O 285.029 -7.45534 -3.00724 0
M  V30 3121 H 284.761 -0.429459 -0.522054 0
M  V30 3122 H 287.315 -1.73873 -1.0935 0
M  V30 3123 H 285.545 -1.36004 -3.61994 0
M  V30 3124 H 287.234 -1.77791 -3.64891 0
M  V30 3125 H 288 -4.05576 -2.65956 0
M  V30 3126 H 283.879 -3.09274 -3.41863 0
M  V30 3127 H 287.423 -6.45638 -2.64191 0
M  V30 3128 H 283.32 -5.48473 -3.40365 0
M  V30 3129 H 284.088 -7.54713 -3.16782 0
M  V30 3130 N 286.751 1.08385 -1.14413 0
M  V30 3131 C 288.167 1.32844 -0.884563 0
M  V30 3132 C 288.367 1.95841 0.474181 0
M  V30 3133 O 287.423 2.21158 1.21842 0
M  V30 3134 C 288.736 2.22978 -2.01745 0
M  V30 3135 C 290.284 2.36458 -2.05077 0
M  V30 3136 C 290.759 3.29934 -3.1766 0
M  V30 3137 N 292.25 3.37511 -3.17239 0
M  V30 3138 C 292.985 4.09871 -4.0099 0
M  V30 3139 N 292.481 4.84936 -4.94781 0
M  V30 3140 N 294.274 4.05704 -3.89051 0
M  V30 3141 H 286.425 0.658756 -2.01926 0
M  V30 3142 H 288.688 0.352821 -0.879899 0
M  V30 3143 H 288.394 1.83934 -2.99769 0
M  V30 3144 H 288.268 3.23441 -1.94077 0
M  V30 3145 H 290.655 2.7476 -1.0766 0
M  V30 3146 H 290.736 1.35736 -2.16816 0
M  V30 3147 H 290.38 2.92352 -4.15322 0
M  V30 3148 H 290.31 4.30584 -3.03158 0
M  V30 3149 H 292.801 2.83996 -2.49308 0
M  V30 3150 H 293.114 5.37612 -5.55151 0
M  V30 3151 H 291.459 4.83988 -4.98779 0
M  V30 3152 H 294.65 3.46167 -3.15097 0
M  V30 3153 H 294.823 4.61834 -4.54547 0
M  V30 3154 N 288.23 0.939286 1.26551 0
M  V30 3155 C 289.455 0.602008 1.98471 0
M  V30 3156 C 289.88 -0.815624 1.69497 0
M  V30 3157 O 289.238 -1.54912 0.941905 0
M  V30 3158 C 289.286 0.848407 3.50477 0
M  V30 3159 O 288.39 -0.0804009 4.12322 0
M  V30 3160 H 287.731 0.23049 0.622712 0
M  V30 3161 H 290.261 1.2617 1.61066 0
M  V30 3162 H 290.271 0.768553 4.00696 0
M  V30 3163 H 288.946 1.88171 3.70897 0
M  V30 3164 H 287.523 0.0503508 3.72866 0
M  V30 3165 N 289.708 -1.40897 0.706093 0
M  V30 3166 C 290.641 -2.282 -0.00328781 0
M  V30 3167 C 291.619 -1.42816 -0.77732 0
M  V30 3168 O 292.803 -1.72237 -0.765944 0
M  V30 3169 C 289.93 -3.23226 -1.01205 0
M  V30 3170 C 288.976 -4.25222 -0.329955 0
M  V30 3171 S 289.809 -5.27269 0.935298 0
M  V30 3172 C 290.965 -6.25859 -0.0716061 0
M  V30 3173 H 291.198 -2.88016 0.737143 0
M  V30 3174 H 288.731 -1.46191 0.496756 0
M  V30 3175 H 290.689 -3.78503 -1.58888 0
M  V30 3176 H 289.35 -2.62485 -1.72513 0
M  V30 3177 H 288.543 -4.92023 -1.09221 0
M  V30 3178 H 288.145 -3.73595 0.174069 0
M  V30 3179 H 290.437 -6.71204 -0.921521 0
M  V30 3180 H 291.38 -7.0586 0.562765 0
M  V30 3181 H 291.788 -5.62852 -0.431088 0
M  V30 3182 N 291.186 -0.45159 -1.50991 0
M  V30 3183 C 292.433 0.110074 -2.02201 0
M  V30 3184 C 292.761 1.4146 -1.33489 0
M  V30 3185 O 292.016 1.90617 -0.443125 0
M  V30 3186 C 292.315 0.361728 -3.55565 0
M  V30 3187 C 291.981 -0.858717 -4.42648 0
M  V30 3188 C 290.643 -1.19338 -4.66167 0
M  V30 3189 C 292.995 -1.67221 -4.93646 0
M  V30 3190 C 290.323 -2.34195 -5.37931 0
M  V30 3191 C 292.675 -2.8119 -5.6667 0
M  V30 3192 C 291.339 -3.15094 -5.88449 0
M  V30 3193 H 290.609 0.040279 -0.739904 0
M  V30 3194 H 293.256 -0.601696 -1.81802 0
M  V30 3195 H 291.561 1.15554 -3.74372 0
M  V30 3196 H 293.258 0.80996 -3.92735 0
M  V30 3197 H 289.848 -0.58796 -4.24548 0
M  V30 3198 H 294.032 -1.42686 -4.75347 0
M  V30 3199 H 289.288 -2.6076 -5.53005 0
M  V30 3200 H 293.462 -3.44585 -6.05173 0
M  V30 3201 H 291.089 -4.04204 -6.43835 0
M  V30 3202 N 292.664 1.56529 -0.183458 0
M  V30 3203 C 293.596 2.15747 0.773697 0
M  V30 3204 C 294.609 1.1162 1.1851 0
M  V30 3205 O 295.798 1.3876 1.12285 0
M  V30 3206 C 292.898 2.6952 2.05456 0
M  V30 3207 C 292.071 3.98429 1.8048 0
M  V30 3208 C 291.13 4.37145 2.92901 0
M  V30 3209 O 290.156 5.04791 2.6301 0
M  V30 3210 N 291.358 3.99695 4.2098 0
M  V30 3211 H 294.123 2.98505 0.26736 0
M  V30 3212 H 291.684 1.619 -0.0010878 0
M  V30 3213 H 293.676 2.92412 2.79781 0
M  V30 3214 H 292.246 1.91282 2.47245 0
M  V30 3215 H 291.466 3.8379 0.899947 0
M  V30 3216 H 292.754 4.82597 1.61175 0
M  V30 3217 H 292.152 3.4526 4.48121 0
M  V30 3218 H 290.709 4.27562 4.9197 0
M  V30 3219 N 294.142 -0.090211 1.57342 0
M  V30 3220 C 295.419 -0.824761 1.77361 0
M  V30 3221 C 295.799 -1.96698 0.76637 0
M  V30 3222 O 295.147 -2.27586 -0.204179 0
M  V30 3223 C 295.357 -1.31481 3.23286 0
M  V30 3224 C 296.705 -1.75563 3.86604 0
M  V30 3225 O 297.729 -1.41093 3.27065 0
M  V30 3226 O 296.588 -2.39317 4.91314 0
M  V30 3227 H 293.682 -0.393776 0.727234 0
M  V30 3228 H 296.228 -0.0717138 1.69548 0
M  V30 3229 H 295 -0.496671 3.88135 0
M  V30 3230 H 294.623 -2.12973 3.35751 0
M  V30 3231 N 295.62 -1.53406 -0.361157 0
M  V30 3232 C 296.866 -1.70054 -1.10496 0
M  V30 3233 C 297.199 -0.453278 -1.88836 0
M  V30 3234 O 296.474 0.5495 -1.86576 0
M  V30 3235 C 296.757 -2.95317 -2.06058 0
M  V30 3236 C 296.61 -4.3021 -1.31298 0
M  V30 3237 C 297.929 -3.16193 -3.06121 0
M  V30 3238 H 295.048 -0.618799 -0.400321 0
M  V30 3239 H 297.69 -1.86052 -0.385318 0
M  V30 3240 H 295.84 -2.81809 -2.67425 0
M  V30 3241 H 297.512 -4.55538 -0.726807 0
M  V30 3242 H 295.755 -4.29421 -0.614853 0
M  V30 3243 H 296.426 -5.14 -2.01265 0
M  V30 3244 H 298.902 -3.28916 -2.5486 0
M  V30 3245 H 297.778 -4.05266 -3.70204 0
M  V30 3246 H 298.039 -2.31676 -3.76535 0
M  V30 3247 N 297.098 0.621204 -1.44841 0
M  V30 3248 C 298.514 0.94048 -1.28946 0
M  V30 3249 C 298.714 2.00154 -0.23249 0
M  V30 3250 O 297.77 2.49651 0.378237 0
M  V30 3251 C 299.083 1.39433 -2.66419 0
M  V30 3252 C 300.631 1.50927 -2.74208 0
M  V30 3253 C 301.106 1.99692 -4.12174 0
M  V30 3254 N 302.597 2.06947 -4.144 0
M  V30 3255 C 303.332 2.45871 -5.1801 0
M  V30 3256 N 302.828 2.83862 -6.31977 0
M  V30 3257 N 304.621 2.46092 -5.05366 0
M  V30 3258 H 296.772 -0.0803548 -2.12248 0
M  V30 3259 H 299.035 0.0266913 -0.947624 0
M  V30 3260 H 298.741 0.688925 -3.44887 0
M  V30 3261 H 298.615 2.36347 -2.93973 0
M  V30 3262 H 301.002 2.20561 -1.96053 0
M  V30 3263 H 301.083 0.523627 -2.50383 0
M  V30 3264 H 300.727 1.30649 -4.90809 0
M  V30 3265 H 300.657 2.99146 -4.33381 0
M  V30 3266 H 303.148 1.80232 -3.32152 0
M  V30 3267 H 303.461 3.12405 -7.0684 0
M  V30 3268 H 301.806 2.8159 -6.35399 0
M  V30 3269 H 304.997 2.1581 -4.15384 0
M  V30 3270 H 305.17 2.76102 -5.86235 0
M  V30 3271 N 298.576 1.31904 0.862503 0
M  V30 3272 C 299.853 1.12644 1.59908 0
M  V30 3273 C 300.233 -0.316104 2.0872 0
M  V30 3274 O 299.581 -1.31145 1.87118 0
M  V30 3275 C 299.791 2.1472 2.7513 0
M  V30 3276 C 301.139 2.47637 3.44907 0
M  V30 3277 O 302.163 2.13205 2.85346 0
M  V30 3278 O 301.022 3.06632 4.52371 0
M  V30 3279 H 298.116 0.43416 0.703871 0
M  V30 3280 H 300.662 1.43408 0.907314 0
M  V30 3281 H 299.434 3.1172 2.3653 0
M  V30 3282 H 299.057 1.84905 3.51989 0
M  V30 3283 N 300.054 -1.07777 1.14986 0
M  V30 3284 C 301.017 -2.13041 0.845358 0
M  V30 3285 C 302.017 -1.60071 -0.152931 0
M  V30 3286 O 303.207 -1.74033 0.0761879 0
M  V30 3287 C 300.339 -3.39896 0.261383 0
M  V30 3288 H 301.532 -2.41485 1.77834 0
M  V30 3289 H 299.085 -1.23595 0.956757 0
M  V30 3290 H 299.82 -3.17091 -0.68 0
M  V30 3291 H 299.605 -3.79642 0.980514 0
M  V30 3292 H 301.095 -4.17548 0.0657687 0
M  V30 3293 N 301.532 -0.945985 -1.26051 0
M  V30 3294 C 302.778 -0.597002 -1.93814 0
M  V30 3295 C 303.111 0.862484 -1.73997 0
M  V30 3296 O 302.386 1.61769 -1.07986 0
M  V30 3297 C 302.669 -0.945937 -3.47454 0
M  V30 3298 C 302.522 -2.46052 -3.76535 0
M  V30 3299 C 303.841 -0.464785 -4.37639 0
M  V30 3300 H 300.96 -0.218366 -0.703907 0
M  V30 3301 H 303.602 -1.18107 -1.48831 0
M  V30 3302 H 301.752 -0.448902 -3.85898 0
M  V30 3303 H 303.424 -3.03065 -3.47778 0
M  V30 3304 H 301.667 -2.90194 -3.22444 0
M  V30 3305 H 302.338 -2.65517 -4.83947 0
M  V30 3306 H 304.814 -0.891016 -4.06448 0
M  V30 3307 H 303.69 -0.737712 -5.4392 0
M  V30 3308 H 303.951 0.635274 -4.37512 0
M  V30 3309 N 303.011 1.40521 -0.713556 0
M  V30 3310 C 304.288 1.94775 -0.17943 0
M  V30 3311 C 304.668 1.65184 1.31444 0
M  V30 3312 O 304.016 0.968429 2.06963 0
M  V30 3313 C 304.226 3.45543 -0.489986 0
M  V30 3314 C 305.574 4.22442 -0.427536 0
M  V30 3315 O 306.598 3.53644 -0.425929 0
M  V30 3316 O 305.457 5.4501 -0.403292 0
M  V30 3317 H 302.551 0.826606 -0.0255192 0
M  V30 3318 H 305.097 1.5014 -0.790949 0
M  V30 3319 H 303.869 3.60432 -1.5233 0
M  V30 3320 H 303.492 3.97311 0.151598 0
M  V30 3321 N 304.489 0.459591 1.5075 0
M  V30 3322 C 305.735 -0.091664 2.03193 0
M  V30 3323 C 306.09 -1.38432 1.3362 0
M  V30 3324 O 305.383 -1.86257 0.449322 0
M  V30 3325 C 305.577 -0.342866 3.55752 0
M  V30 3326 C 305.406 0.923888 4.40107 0
M  V30 3327 C 304.176 1.46388 4.83631 0
M  V30 3328 C 306.374 1.81617 4.81165 0
M  V30 3329 N 304.356 2.68086 5.52271 0
M  V30 3330 C 305.727 2.87907 5.49099 0
M  V30 3331 C 307.782 1.82793 4.63132 0
M  V30 3332 C 306.485 3.95347 6.0091 0
M  V30 3333 C 308.511 2.89182 5.15876 0
M  V30 3334 C 307.873 3.94191 5.83774 0
M  V30 3335 H 303.972 0.00619247 0.781975 0
M  V30 3336 H 306.556 0.625233 1.84388 0
M  V30 3337 H 304.727 -1.0288 3.74527 0
M  V30 3338 H 306.459 -0.887445 3.9485 0
M  V30 3339 H 303.214 1.01466 4.62603 0
M  V30 3340 H 303.638 3.29857 5.91205 0
M  V30 3341 H 308.28 1.0293 4.1008 0
M  V30 3342 H 305.998 4.76035 6.53006 0
M  V30 3343 H 309.584 2.91061 5.0376 0
M  V30 3344 H 308.464 4.75161 6.23853 0
M  V30 3345 N 305.967 -1.56429 0.191757 0
M  V30 3346 C 307.213 -1.97777 -0.448554 0
M  V30 3347 C 307.546 -1.07847 -1.61501 0
M  V30 3348 O 306.821 -0.129774 -1.94067 0
M  V30 3349 C 307.104 -3.48362 -0.911906 0
M  V30 3350 C 306.957 -4.4907 0.256136 0
M  V30 3351 C 308.276 -4.02561 -1.77857 0
M  V30 3352 H 305.395 -0.719071 -0.161572 0
M  V30 3353 H 308.037 -1.87896 0.282007 0
M  V30 3354 H 306.187 -3.56914 -1.53442 0
M  V30 3355 H 307.859 -4.5256 0.893733 0
M  V30 3356 H 306.102 -4.24181 0.908436 0
M  V30 3357 H 306.773 -5.51889 -0.11053 0
M  V30 3358 H 309.249 -3.96767 -1.25359 0
M  V30 3359 H 308.125 -5.08301 -2.07174 0
M  V30 3360 H 308.386 -3.47616 -2.73158 0
M  V30 3361 N 307.445 0.0818655 -1.57387 0
M  V30 3362 C 308.395 1.10501 -1.99433 0
M  V30 3363 C 309.379 1.35041 -0.874798 0
M  V30 3364 O 310.571 1.35511 -1.13868 0
M  V30 3365 C 307.7 2.42159 -2.43339 0
M  V30 3366 C 306.786 2.20937 -3.62005 0
M  V30 3367 N 307.177 1.69616 -4.76512 0
M  V30 3368 C 305.475 2.51451 -3.68359 0
M  V30 3369 C 306.176 1.62973 -5.58404 0
M  V30 3370 N 305.152 2.08664 -5.01956 0
M  V30 3371 H 308.954 0.701373 -2.85408 0
M  V30 3372 H 306.468 0.289096 -1.59806 0
M  V30 3373 H 308.465 3.16208 -2.71695 0
M  V30 3374 H 307.125 2.83249 -1.58746 0
M  V30 3375 H 308.136 1.38624 -4.99003 0
M  V30 3376 H 304.813 2.95975 -2.94457 0
M  V30 3377 H 306.203 1.24233 -6.60315 0
M  V30 3378 N 308.923 1.53595 0.353017 0
M  V30 3379 C 310.153 1.74058 1.11299 0
M  V30 3380 C 310.561 0.475205 1.83135 0
M  V30 3381 O 309.904 -0.562344 1.74881 0
M  V30 3382 C 309.966 2.85994 2.17825 0
M  V30 3383 C 309.63 4.25923 1.65647 0
M  V30 3384 C 310.627 5.07829 1.11383 0
M  V30 3385 C 308.312 4.72377 1.7078 0
M  V30 3386 C 310.306 6.34285 0.629439 0
M  V30 3387 C 307.993 5.98808 1.21953 0
M  V30 3388 C 308.991 6.79594 0.681265 0
M  V30 3389 O 308.679 8.03651 0.200248 0
M  V30 3390 H 308.411 0.585327 0.338183 0
M  V30 3391 H 310.965 2.01186 0.413927 0
M  V30 3392 H 309.195 2.54368 2.91262 0
M  V30 3393 H 310.884 2.94515 2.79313 0
M  V30 3394 H 311.65 4.73107 1.06746 0
M  V30 3395 H 307.529 4.0956 2.11617 0
M  V30 3396 H 311.073 6.97288 0.208636 0
M  V30 3397 H 306.97 6.33026 1.26287 0
M  V30 3398 H 307.738 8.1788 0.318416 0
M  V30 3399 N 310.401 -0.613514 1.45168 0
M  V30 3400 C 311.348 -1.72456 1.53387 0
M  V30 3401 C 312.318 -1.6169 0.380191 0
M  V30 3402 O 313.503 -1.81356 0.592836 0
M  V30 3403 C 310.643 -3.10753 1.50088 0
M  V30 3404 C 309.756 -3.32368 2.75963 0
M  V30 3405 C 308.891 -4.60737 2.64376 0
M  V30 3406 C 307.93 -4.7559 3.85332 0
M  V30 3407 N 307.067 -5.95253 3.72315 0
M  V30 3408 H 311.907 -1.64768 2.48305 0
M  V30 3409 H 309.444 -0.803503 1.23216 0
M  V30 3410 H 311.402 -3.90758 1.46164 0
M  V30 3411 H 310.032 -3.17413 0.587243 0
M  V30 3412 H 309.084 -2.4618 2.89999 0
M  V30 3413 H 310.396 -3.39218 3.65695 0
M  V30 3414 H 309.55 -5.48928 2.58385 0
M  V30 3415 H 308.289 -4.56275 1.72233 0
M  V30 3416 H 307.294 -3.85824 3.91688 0
M  V30 3417 H 308.519 -4.81854 4.78533 0
M  V30 3418 H 306.465 -5.91847 2.82937 0
M  V30 3419 H 306.382 -6.03236 4.55677 0
M  V30 3420 H 307.65 -6.85958 3.70246 0
M  V30 3421 N 311.879 -1.3236 -0.855495 0
M  V30 3422 C 313.127 -1.22629 -1.60644 0
M  V30 3423 C 313.448 0.212136 -1.93843 0
M  V30 3424 O 312.718 1.13666 -1.59552 0
M  V30 3425 H 311.298 -0.450882 -0.595579 0
M  V30 3426 H 313.96 -1.65871 -1.02337 0
M  V30 3427 H 313.056 -1.80832 -2.54374 0
M  V30 3428 N 313.357 1.07166 -1.15556 0
M  V30 3429 C 314.582 1.84053 -0.955988 0
M  V30 3430 C 315.007 1.81586 0.490739 0
M  V30 3431 O 314.365 1.21018 1.34997 0
M  V30 3432 C 314.413 3.28957 -1.47714 0
M  V30 3433 O 313.517 4.06795 -0.677593 0
M  V30 3434 H 312.858 0.569842 -0.340847 0
M  V30 3435 H 315.388 1.35178 -1.53584 0
M  V30 3436 H 315.398 3.79788 -1.4908 0
M  V30 3437 H 314.073 3.30068 -2.53037 0
M  V30 3438 H 312.65 3.6561 -0.733721 0
M  V30 3439 N 314.835 0.952656 1.25548 0
M  V30 3440 C 315.765 0.489287 2.28316 0
M  V30 3441 C 316.746 -0.463359 1.63667 0
M  V30 3442 O 317.931 -0.36274 1.90782 0
M  V30 3443 C 315.061 -0.235603 3.465 0
M  V30 3444 C 314.015 0.631593 4.23314 0
M  V30 3445 C 313.341 -0.223923 5.34231 0
M  V30 3446 C 314.641 1.90871 4.86174 0
M  V30 3447 H 316.335 1.34822 2.67326 0
M  V30 3448 H 313.881 0.649728 1.28509 0
M  V30 3449 H 315.834 -0.570882 4.17515 0
M  V30 3450 H 314.558 -1.12877 3.06474 0
M  V30 3451 H 313.217 0.949929 3.54079 0
M  V30 3452 H 312.865 -1.11678 4.90446 0
M  V30 3453 H 312.565 0.35299 5.86539 0
M  V30 3454 H 314.089 -0.554214 6.0808 0
M  V30 3455 H 315.503 1.63997 5.49343 0
M  V30 3456 H 313.9 2.43112 5.4865 0
M  V30 3457 H 314.97 2.61304 4.08471 0
M  V30 3458 N 316.313 -1.40141 0.720998 0
M  V30 3459 C 317.26 -2.30688 0.071919 0
M  V30 3460 C 318.23 -1.48476 -0.744584 0
M  V30 3461 O 319.415 -1.77201 -0.707423 0
M  V30 3462 C 316.555 -3.34724 -0.839855 0
M  V30 3463 C 315.668 -4.31998 -0.0122438 0
M  V30 3464 C 314.803 -5.23102 -0.923995 0
M  V30 3465 C 313.842 -6.12033 -0.0907969 0
M  V30 3466 N 312.979 -6.95537 -0.957718 0
M  V30 3467 H 317.819 -2.85628 0.849755 0
M  V30 3468 H 315.356 -1.40653 0.430726 0
M  V30 3469 H 317.314 -3.93618 -1.38279 0
M  V30 3470 H 315.944 -2.81274 -1.58381 0
M  V30 3471 H 314.996 -3.74841 0.64794 0
M  V30 3472 H 316.308 -4.94772 0.632595 0
M  V30 3473 H 315.462 -5.86953 -1.53527 0
M  V30 3474 H 314.201 -4.60615 -1.60264 0
M  V30 3475 H 313.206 -5.47207 0.533377 0
M  V30 3476 H 314.431 -6.76581 0.584428 0
M  V30 3477 H 312.377 -6.35633 -1.62192 0
M  V30 3478 H 312.294 -7.55099 -0.36904 0
M  V30 3479 H 313.562 -7.63832 -1.555 0
M  V30 3480 N 317.792 -0.46758 -1.50504 0
M  V30 3481 C 318.702 0.33382 -2.32213 0
M  V30 3482 C 319.718 0.999323 -1.42441 0
M  V30 3483 O 320.894 0.988068 -1.75497 0
M  V30 3484 C 317.959 1.4035 -3.17022 0
M  V30 3485 C 317.02 0.754961 -4.2261 0
M  V30 3486 C 316.253 1.77367 -5.03365 0
M  V30 3487 O 316.476 2.99976 -4.8515 0
M  V30 3488 O 315.41 1.34744 -5.86624 0
M  V30 3489 H 319.236 -0.334067 -3.01857 0
M  V30 3490 H 316.821 -0.229496 -1.47627 0
M  V30 3491 H 318.703 2.02318 -3.69656 0
M  V30 3492 H 317.378 2.05492 -2.5011 0
M  V30 3493 H 316.285 0.0964244 -3.73976 0
M  V30 3494 H 317.618 0.146545 -4.91982 0
M  V30 3495 N 319.27 1.56325 -0.20005 0
M  V30 3496 C 320.217 2.1932 0.718833 0
M  V30 3497 C 321.187 1.14198 1.20615 0
M  V30 3498 O 322.372 1.42469 1.26914 0
M  V30 3499 C 319.512 2.86041 1.93066 0
M  V30 3500 C 318.625 4.05702 1.48425 0
M  V30 3501 C 317.76 4.60266 2.65196 0
M  V30 3502 C 316.799 5.72273 2.17185 0
M  V30 3503 N 315.936 6.21221 3.27152 0
M  V30 3504 H 320.776 2.97486 0.17489 0
M  V30 3505 H 318.313 1.46911 0.0745794 0
M  V30 3506 H 320.271 3.22897 2.64184 0
M  V30 3507 H 318.901 2.1043 2.44783 0
M  V30 3508 H 317.953 3.74475 0.668755 0
M  V30 3509 H 319.265 4.86699 1.09204 0
M  V30 3510 H 318.419 4.99453 3.4443 0
M  V30 3511 H 317.158 3.78386 3.07693 0
M  V30 3512 H 316.163 5.3261 1.36407 0
M  V30 3513 H 317.388 6.55974 1.75713 0
M  V30 3514 H 315.334 5.42263 3.69171 0
M  V30 3515 H 315.251 6.97284 2.92116 0
M  V30 3516 H 316.519 6.65063 4.06585 0
M  V30 3517 N 320.748 -0.0735177 1.57428 0
M  V30 3518 C 321.976 -0.785969 1.9139 0
M  V30 3519 C 322.391 -1.71207 0.795847 0
M  V30 3520 O 321.748 -1.81033 -0.230915 0
M  V30 3521 C 321.799 -1.58107 3.25091 0
M  V30 3522 O 321.52 -0.6922 4.32597 0
M  V30 3523 C 323.021 -2.39467 3.73055 0
M  V30 3524 H 320.241 -0.223558 0.632663 0
M  V30 3525 H 322.785 -0.044302 2.04452 0
M  V30 3526 H 320.94 -2.27503 3.13562 0
M  V30 3527 H 321.354 -1.24504 5.09508 0
M  V30 3528 H 322.828 -2.90716 4.69242 0
M  V30 3529 H 323.305 -3.18913 3.01979 0
M  V30 3530 H 323.911 -1.7523 3.87523 0
M  V30 3531 N 322.226 -1.5378 -0.344866 0
M  V30 3532 C 323.472 -1.71216 -1.08687 0
M  V30 3533 C 323.805 -0.473281 -1.88345 0
M  V30 3534 O 323.08 0.52968 -1.87149 0
M  V30 3535 C 323.363 -2.97486 -2.02914 0
M  V30 3536 C 323.216 -4.31579 -1.26727 0
M  V30 3537 C 324.535 -3.19422 -3.0275 0
M  V30 3538 H 321.654 -0.62301 -0.393735 0
M  V30 3539 H 324.296 -1.8645 -0.365563 0
M  V30 3540 H 322.446 -2.84629 -2.64421 0
M  V30 3541 H 324.118 -4.56284 -0.67845 0
M  V30 3542 H 322.361 -4.30049 -0.569273 0
M  V30 3543 H 323.032 -5.16106 -1.95803 0
M  V30 3544 H 325.508 -3.316 -2.51357 0
M  V30 3545 H 324.384 -4.09169 -3.65885 0
M  V30 3546 H 324.645 -2.35656 -3.74057 0
M  V30 3547 N 323.704 0.605807 -1.45491 0
M  V30 3548 C 324.614 1.74466 -1.56839 0
M  V30 3549 C 325.63 1.68006 -0.452772 0
M  V30 3550 O 326.806 1.8833 -0.713708 0
M  V30 3551 C 323.871 3.10931 -1.53371 0
M  V30 3552 C 322.932 3.28832 -2.75986 0
M  V30 3553 C 322.165 4.58787 -2.72673 0
M  V30 3554 O 322.388 5.4122 -1.80102 0
M  V30 3555 O 321.322 4.79438 -3.63899 0
M  V30 3556 H 325.148 1.67843 -2.53106 0
M  V30 3557 H 322.733 0.770108 -1.28022 0
M  V30 3558 H 324.615 3.92233 -1.54051 0
M  V30 3559 H 323.29 3.18042 -0.602572 0
M  V30 3560 H 322.197 2.47112 -2.80867 0
M  V30 3561 H 323.53 3.26599 -3.68231 0
M  V30 3562 N 325.182 1.32811 0.848464 0
M  V30 3563 C 326.13 1.22231 1.97895 0
M  V30 3564 C 327.124 0.125749 1.68933 0
M  V30 3565 O 328.33 0.289083 1.77663 0
M  V30 3566 H 324.705 0.379058 0.649476 0
M  V30 3567 H 326.676 2.17828 2.03945 0
M  V30 3568 C 325.425 0.968572 3.33937 0
M  V30 3569 H 324.748 1.80458 3.56756 0
M  V30 3570 H 326.188 0.934808 4.13567 0
M  V30 3571 C 324.647 -0.328628 3.35293 0
M  V30 3572 O 325.177 -1.33848 3.78745 0
M  V30 3573 N 323.383 -0.352788 2.88451 0
M  V30 3574 H 322.93 0.469541 2.53285 0
M  V30 3575 H 322.888 -1.22057 2.89741 0
M  V30 3576 N 326.66 -1.06551 1.16123 0
M  V30 3577 C 327.59 -2.15935 0.88851 0
M  V30 3578 C 328.571 -1.69306 -0.164135 0
M  V30 3579 O 329.756 -1.94193 -0.0167857 0
M  V30 3580 C 326.886 -3.45149 0.385942 0
M  V30 3581 C 325.84 -4.05271 1.3762 0
M  V30 3582 C 325.166 -5.29664 0.732137 0
M  V30 3583 C 326.466 -4.44355 2.74493 0
M  V30 3584 H 328.16 -2.39006 1.80323 0
M  V30 3585 H 325.706 -1.14866 0.868435 0
M  V30 3586 H 327.659 -4.21004 0.182647 0
M  V30 3587 H 326.383 -3.21689 -0.564274 0
M  V30 3588 H 325.042 -3.3147 1.56599 0
M  V30 3589 H 324.69 -5.02499 -0.224483 0
M  V30 3590 H 324.39 -5.70848 1.39307 0
M  V30 3591 H 325.914 -6.08218 0.538802 0
M  V30 3592 H 327.328 -5.11303 2.59311 0
M  V30 3593 H 325.725 -4.96515 3.37035 0
M  V30 3594 H 326.795 -3.55339 3.29943 0
M  V30 3595 N 328.138 -0.959301 -1.25041 0
M  V30 3596 C 329.048 -0.489994 -2.29426 0
M  V30 3597 C 330.064 0.444944 -1.68215 0
M  V30 3598 O 331.24 0.320046 -1.98841 0
M  V30 3599 C 328.305 0.220309 -3.45999 0
M  V30 3600 C 327.366 -0.753418 -4.22637 0
M  V30 3601 C 326.599 -0.076918 -5.33645 0
M  V30 3602 O 326.822 1.13649 -5.58963 0
M  V30 3603 O 325.756 -0.764824 -5.97021 0
M  V30 3604 H 329.582 -1.35755 -2.71669 0
M  V30 3605 H 327.167 -0.725961 -1.30576 0
M  V30 3606 H 329.049 0.619677 -4.16819 0
M  V30 3607 H 327.724 1.06296 -3.0575 0
M  V30 3608 H 326.631 -1.20308 -3.54227 0
M  V30 3609 H 327.964 -1.56423 -4.66683 0
M  V30 3610 N 329.616 1.39756 -0.72842 0
M  V30 3611 C 330.563 2.30647 -0.0841519 0
M  V30 3612 C 331.533 1.48869 0.7367 0
M  V30 3613 O 332.718 1.77574 0.698015 0
M  V30 3614 C 329.858 3.35165 0.822091 0
M  V30 3615 C 328.971 4.31999 -0.0106663 0
M  V30 3616 C 328.106 5.23585 0.896241 0
M  V30 3617 C 327.145 6.12072 0.0583381 0
M  V30 3618 N 326.282 6.96035 0.920818 0
M  V30 3619 H 331.122 2.85173 -0.864891 0
M  V30 3620 H 328.659 1.40422 -0.438179 0
M  V30 3621 H 330.617 3.94345 1.36189 0
M  V30 3622 H 329.247 2.8211 1.56888 0
M  V30 3623 H 328.299 3.74492 -0.66781 0
M  V30 3624 H 329.611 4.9443 -0.658825 0
M  V30 3625 H 328.765 5.87759 1.50412 0
M  V30 3626 H 327.504 4.61459 1.57819 0
M  V30 3627 H 326.509 5.46916 -0.562389 0
M  V30 3628 H 327.734 6.76261 -0.6203 0
M  V30 3629 H 325.68 6.36485 1.58818 0
M  V30 3630 H 325.597 7.55284 0.32899 0
M  V30 3631 H 326.865 7.64646 1.51447 0
M  V30 3632 N 331.094 0.475555 1.50254 0
M  V30 3633 C 332.324 -0.0753399 2.06463 0
M  V30 3634 C 332.732 -1.33661 1.33908 0
M  V30 3635 O 332.075 -1.79219 0.403257 0
M  V30 3636 C 332.137 -0.424921 3.5698 0
M  V30 3637 C 331.801 0.734965 4.51051 0
M  V30 3638 C 332.798 1.61827 4.94073 0
M  V30 3639 C 330.483 0.926557 4.9368 0
M  V30 3640 C 332.477 2.67754 5.78434 0
M  V30 3641 C 330.164 1.98904 5.77824 0
M  V30 3642 C 331.162 2.8629 6.20103 0
M  V30 3643 O 330.85 3.90708 7.02568 0
M  V30 3644 H 330.582 0.00576308 0.675975 0
M  V30 3645 H 333.136 0.664662 1.94349 0
M  V30 3646 H 331.366 -1.21817 3.67012 0
M  V30 3647 H 333.055 -0.911422 3.95535 0
M  V30 3648 H 333.821 1.48196 4.61804 0
M  V30 3649 H 329.7 0.25584 4.6029 0
M  V30 3650 H 333.244 3.35992 6.11355 0
M  V30 3651 H 329.141 2.12541 6.09505 0
M  V30 3652 H 329.909 3.87751 7.20827 0
M  V30 3653 N 332.573 -1.56217 0.208337 0
M  V30 3654 C 333.819 -1.98242 -0.427552 0
M  V30 3655 C 334.152 -1.09554 -1.60348 0
M  V30 3656 O 333.427 -0.15035 -1.93918 0
M  V30 3657 C 333.71 -3.4931 -0.874907 0
M  V30 3658 C 333.563 -4.48773 0.303751 0
M  V30 3659 C 334.882 -4.04424 -1.73577 0
M  V30 3660 H 332.001 -0.720744 -0.153936 0
M  V30 3661 H 334.643 -1.87586 0.30192 0
M  V30 3662 H 332.793 -3.58522 -1.49648 0
M  V30 3663 H 334.465 -4.51586 0.941682 0
M  V30 3664 H 332.708 -4.23194 0.953375 0
M  V30 3665 H 333.379 -5.51976 -0.0519883 0
M  V30 3666 H 335.855 -3.98075 -1.21143 0
M  V30 3667 H 334.731 -5.1047 -2.01771 0
M  V30 3668 H 334.992 -3.50494 -2.69456 0
M  V30 3669 N 334.051 0.0651679 -1.57465 0
M  V30 3670 C 335.297 0.764193 -1.87851 0
M  V30 3671 C 335.63 1.76889 -0.801495 0
M  V30 3672 O 334.905 1.93594 0.187528 0
M  V30 3673 C 335.188 1.46625 -3.28897 0
M  V30 3674 C 335.041 0.477515 -4.47258 0
M  V30 3675 C 336.36 2.4095 -3.68281 0
M  V30 3676 H 333.479 0.276351 -0.683227 0
M  V30 3677 H 336.121 0.0272868 -1.8998 0
M  V30 3678 H 334.271 2.09438 -3.27212 0
M  V30 3679 H 335.943 -0.145922 -4.61069 0
M  V30 3680 H 334.186 -0.206576 -4.33308 0
M  V30 3681 H 334.857 1.0065 -5.42746 0
M  V30 3682 H 337.333 1.88209 -3.71102 0
M  V30 3683 H 336.209 2.87072 -4.67847 0
M  V30 3684 H 336.47 3.26049 -2.98571 0
M  V30 3685 N 335.529 1.53961 0.336706 0
M  V30 3686 C 336.476 1.82428 1.41381 0
M  V30 3687 C 337.446 0.670444 1.51968 0
M  V30 3688 O 338.631 0.915565 1.67398 0
M  V30 3689 C 335.771 2.04564 2.77934 0
M  V30 3690 C 334.884 3.32267 2.76084 0
M  V30 3691 C 334.019 3.44434 4.04399 0
M  V30 3692 C 333.058 4.66061 3.96804 0
M  V30 3693 N 332.195 4.75224 5.16823 0
M  V30 3694 H 337.035 2.74324 1.16405 0
M  V30 3695 H 334.572 1.35869 0.563752 0
M  V30 3696 H 336.53 2.15388 3.57301 0
M  V30 3697 H 335.16 1.15974 3.01247 0
M  V30 3698 H 334.212 3.3025 1.88784 0
M  V30 3699 H 335.524 4.21733 2.66351 0
M  V30 3700 H 334.678 3.54728 4.92192 0
M  V30 3701 H 333.417 2.53037 4.16921 0
M  V30 3702 H 332.422 4.55838 3.07396 0
M  V30 3703 H 333.647 5.58829 3.85858 0
M  V30 3704 H 331.593 3.86739 5.29876 0
M  V30 3705 H 331.51 5.58636 5.09374 0
M  V30 3706 H 332.778 4.89835 6.06367 0
M  V30 3707 N 337.007 -0.598083 1.45811 0
M  V30 3708 C 338.284 -1.35777 1.40797 0
M  V30 3709 C 338.664 -2.10935 0.083462 0
M  V30 3710 O 338.012 -2.08505 -0.934763 0
M  V30 3711 C 338.222 -2.29666 2.62783 0
M  V30 3712 C 339.57 -2.91977 3.08277 0
M  V30 3713 O 340.594 -2.39984 2.63223 0
M  V30 3714 O 339.453 -3.86376 3.86491 0
M  V30 3715 H 336.547 -0.609291 0.55919 0
M  V30 3716 H 339.093 -0.620379 1.57954 0
M  V30 3717 H 337.865 -1.73454 3.50756 0
M  V30 3718 H 337.488 -3.1077 2.48008 0
M  V30 3719 N 338.485 -1.33259 -0.841409 0
M  V30 3720 C 339.733 -1.24326 -1.59334 0
M  V30 3721 C 340.054 0.191564 -1.94057 0
M  V30 3722 O 339.324 1.11967 -1.60749 0
M  V30 3723 H 337.904 -0.457174 -0.590763 0
M  V30 3724 H 340.566 -1.66947 -1.00571 0
M  V30 3725 H 339.662 -1.8352 -2.52442 0
M  V30 3726 N 339.963 1.05934 -1.16686 0
M  V30 3727 C 340.91 2.13499 -0.876748 0
M  V30 3728 C 341.88 1.65162 0.176299 0
M  V30 3729 O 343.065 1.90757 0.0407143 0
M  V30 3730 C 340.205 3.42912 -0.387967 0
M  V30 3731 C 339.318 4.04964 -1.50426 0
M  V30 3732 C 338.453 5.22266 -0.970125 0
M  V30 3733 C 337.492 5.76309 -2.06238 0
M  V30 3734 N 336.629 6.84922 -1.54356 0
M  V30 3735 H 341.469 2.37654 -1.7979 0
M  V30 3736 H 339.006 1.16598 -0.896843 0
M  V30 3737 H 340.964 4.17111 -0.086186 0
M  V30 3738 H 339.594 3.18963 0.496235 0
M  V30 3739 H 338.646 3.28277 -1.92193 0
M  V30 3740 H 339.958 4.41122 -2.32836 0
M  V30 3741 H 339.112 6.03506 -0.621743 0
M  V30 3742 H 337.851 4.87564 -0.115377 0
M  V30 3743 H 336.856 4.93704 -2.41942 0
M  V30 3744 H 338.081 6.13062 -2.92115 0
M  V30 3745 H 336.027 6.52131 -0.711406 0
M  V30 3746 H 335.944 7.20043 -2.30379 0
M  V30 3747 H 337.212 7.69832 -1.22387 0
M  V30 3748 N 341.441 0.965919 1.2453 0
M  V30 3749 C 342.371 0.513476 2.27784 0
M  V30 3750 C 343.352 -0.445974 1.6415 0
M  V30 3751 O 344.537 -0.342485 1.91156 0
M  V30 3752 C 341.667 -0.198839 3.4673 0
M  V30 3753 C 340.621 0.676456 4.2262 0
M  V30 3754 C 339.947 -0.167248 5.34438 0
M  V30 3755 C 341.247 1.96017 4.84123 0
M  V30 3756 H 342.941 1.3765 2.65881 0
M  V30 3757 H 340.487 0.663321 1.27813 0
M  V30 3758 H 342.44 -0.526567 4.18097 0
M  V30 3759 H 341.164 -1.0962 3.07654 0
M  V30 3760 H 339.823 0.98743 3.53052 0
M  V30 3761 H 339.471 -1.0647 4.91603 0
M  V30 3762 H 339.171 0.415181 5.86131 0
M  V30 3763 H 340.695 -0.489688 6.08633 0
M  V30 3764 H 342.109 1.69814 5.47573 0
M  V30 3765 H 340.506 2.48918 5.4604 0
M  V30 3766 H 341.576 2.65622 4.05676 0
M  V30 3767 N 342.919 -1.39368 0.735821 0
M  V30 3768 C 344.33 -1.83313 0.354015 0
M  V30 3769 C 344.681 -1.61461 -1.11466 0
M  V30 3770 O 343.806 -1.10621 -1.85989 0
M  V30 3771 C 344.401 -3.32781 0.635769 0
M  V30 3772 C 342.96 -3.75142 0.307448 0
M  V30 3773 C 342.107 -2.62358 0.897974 0
M  V30 3774 H 345.058 -1.28349 0.933398 0
M  V30 3775 H 345.079 -3.80388 -0.0921773 0
M  V30 3776 H 344.591 -3.48654 1.70476 0
M  V30 3777 H 342.692 -3.64857 -0.755674 0
M  V30 3778 H 342.805 -4.72532 0.790583 0
M  V30 3779 H 341.169 -2.52624 0.324551 0
M  V30 3780 H 341.952 -2.81036 1.97164 0
M  V30 3781 N 344.397 -0.483516 -1.5 0
M  V30 3782 C 345.327 0.293829 -2.31644 0
M  V30 3783 C 346.308 0.978864 -1.39112 0
M  V30 3784 O 347.493 0.973644 -1.68029 0
M  V30 3785 C 344.623 1.36897 -3.19181 0
M  V30 3786 C 343.577 0.804833 -4.20365 0
M  V30 3787 C 342.903 1.9792 -4.96721 0
M  V30 3788 C 344.203 -0.192313 -5.21946 0
M  V30 3789 H 345.897 -0.387616 -2.9688 0
M  V30 3790 H 343.443 -0.187856 -1.42769 0
M  V30 3791 H 345.396 1.92037 -3.751 0
M  V30 3792 H 344.12 2.07936 -2.51853 0
M  V30 3793 H 342.779 0.275319 -3.65565 0
M  V30 3794 H 342.427 2.67686 -4.25856 0
M  V30 3795 H 342.127 1.60789 -5.65173 0
M  V30 3796 H 343.651 2.53526 -5.55479 0
M  V30 3797 H 345.065 0.270333 -5.72662 0
M  V30 3798 H 343.462 -0.478543 -5.98189 0
M  V30 3799 H 344.532 -1.11409 -4.71928 0
M  V30 3800 N 345.875 1.56104 -0.216619 0
M  V30 3801 C 346.805 2.23063 0.690296 0
M  V30 3802 C 347.786 1.20072 1.20485 0
M  V30 3803 O 348.971 1.48643 1.24976 0
M  V30 3804 C 346.101 2.90672 1.90072 0
M  V30 3805 C 345.055 4.00092 1.5202 0
M  V30 3806 C 344.381 4.54972 2.80899 0
M  V30 3807 C 345.681 5.17398 0.71391 0
M  V30 3808 H 347.375 2.99109 0.132038 0
M  V30 3809 H 344.921 1.43866 0.0620664 0
M  V30 3810 H 346.874 3.36204 2.54057 0
M  V30 3811 H 345.598 2.12066 2.48386 0
M  V30 3812 H 344.257 3.55283 0.903839 0
M  V30 3813 H 343.905 3.73102 3.37348 0
M  V30 3814 H 343.605 5.28817 2.56176 0
M  V30 3815 H 345.129 5.0322 3.45836 0
M  V30 3816 H 346.543 5.59342 1.25735 0
M  V30 3817 H 344.94 5.97444 0.563951 0
M  V30 3818 H 346.01 4.84088 -0.280527 0
M  V30 3819 N 347.353 -0.0568162 1.57498 0
M  V30 3820 C 348.283 -1.06593 2.0775 0
M  V30 3821 C 349.264 -1.39448 0.974082 0
M  V30 3822 O 350.449 -1.48815 1.24771 0
M  V30 3823 C 347.579 -2.37509 2.5339 0
M  V30 3824 C 346.533 -2.1897 3.67745 0
M  V30 3825 C 345.859 -3.55402 3.99492 0
M  V30 3826 C 347.159 -1.59859 4.97235 0
M  V30 3827 H 348.853 -0.647706 2.9231 0
M  V30 3828 H 346.399 -0.310116 1.40621 0
M  V30 3829 H 348.352 -3.08409 2.87162 0
M  V30 3830 H 347.076 -2.8134 1.65878 0
M  V30 3831 H 345.735 -1.50508 3.3428 0
M  V30 3832 H 345.383 -3.9683 3.09088 0
M  V30 3833 H 345.083 -3.43831 4.76502 0
M  V30 3834 H 346.607 -4.27708 4.35773 0
M  V30 3835 H 348.021 -2.20642 5.29141 0
M  V30 3836 H 346.418 -1.58942 5.78669 0
M  V30 3837 H 347.488 -0.561506 4.81638 0
M  V30 3838 N 348.832 -1.54138 -0.328536 0
M  V30 3839 C 350.057 -1.76378 -1.09112 0
M  V30 3840 C 350.482 -0.508596 -1.81094 0
M  V30 3841 O 349.84 0.539598 -1.73084 0
M  V30 3842 C 349.888 -2.95358 -2.06872 0
M  V30 3843 O 348.992 -2.66556 -3.14677 0
M  V30 3844 H 348.333 -0.584614 -0.314838 0
M  V30 3845 H 350.863 -2.01146 -0.374348 0
M  V30 3846 H 350.873 -3.22566 -2.4983 0
M  V30 3847 H 349.548 -3.86385 -1.5388 0
M  V30 3848 H 348.125 -2.50282 -2.7643 0
M  V30 3849 N 350.31 0.590341 -1.46126 0
M  V30 3850 C 351.726 0.912917 -1.30912 0
M  V30 3851 C 351.926 1.99616 -0.274893 0
M  V30 3852 O 350.982 2.50397 0.325197 0
M  V30 3853 C 352.295 1.3375 -2.69317 0
M  V30 3854 C 353.843 1.45077 -2.77348 0
M  V30 3855 C 354.318 1.90904 -4.16317 0
M  V30 3856 N 355.809 1.9811 -4.18696 0
M  V30 3857 C 356.544 2.34828 -5.23109 0
M  V30 3858 N 356.04 2.70393 -6.37856 0
M  V30 3859 N 357.833 2.35317 -5.10473 0
M  V30 3860 H 349.984 -0.125358 -2.1203 0
M  V30 3861 H 352.247 0.00658481 -0.947977 0
M  V30 3862 H 351.953 0.615614 -3.4627 0
M  V30 3863 H 351.827 2.30058 -2.9892 0
M  V30 3864 H 354.214 2.16353 -2.00687 0
M  V30 3865 H 354.295 0.4704 -2.51438 0
M  V30 3866 H 353.939 1.20209 -4.9347 0
M  V30 3867 H 353.869 2.89886 -4.39629 0
M  V30 3868 H 356.36 1.73146 -3.359 0
M  V30 3869 H 356.673 2.97341 -7.13308 0
M  V30 3870 H 355.018 2.68048 -6.41229 0
M  V30 3871 H 358.209 2.0695 -4.19868 0
M  V30 3872 H 358.382 2.63605 -5.9196 0
M  V30 3873 N 351.788 1.33704 0.83433 0
M  V30 3874 C 352.721 1.18675 1.94914 0
M  V30 3875 C 353.699 0.0811145 1.62398 0
M  V30 3876 O 354.883 0.244186 1.86912 0
M  V30 3877 C 352.01 0.821231 3.28593 0
M  V30 3878 C 351.056 1.93501 3.80079 0
M  V30 3879 S 351.889 3.54671 4.01209 0
M  V30 3880 C 353.045 3.20136 5.37833 0
M  V30 3881 H 353.278 2.13043 2.07364 0
M  V30 3882 H 350.811 1.18598 0.988624 0
M  V30 3883 H 352.769 0.617123 4.05835 0
M  V30 3884 H 351.43 -0.103927 3.13928 0
M  V30 3885 H 350.623 1.63273 4.76821 0
M  V30 3886 H 350.225 2.09601 3.09747 0
M  V30 3887 H 352.517 2.71242 6.20833 0
M  V30 3888 H 353.46 4.15975 5.73036 0
M  V30 3889 H 353.868 2.56613 5.02802 0
M  V30 3890 N 353.266 -1.05314 1.17247 0
M  V30 3891 C 354.213 -2.13031 0.888058 0
M  V30 3892 C 355.183 -1.65253 -0.167537 0
M  V30 3893 O 356.368 -1.90775 -0.0305974 0
M  V30 3894 C 353.508 -3.42702 0.406147 0
M  V30 3895 C 352.621 -4.04161 1.52572 0
M  V30 3896 C 351.756 -5.21744 0.997808 0
M  V30 3897 C 350.795 -5.75207 2.09291 0
M  V30 3898 N 349.932 -6.84094 1.57986 0
M  V30 3899 H 354.772 -2.36698 1.81048 0
M  V30 3900 H 352.309 -1.16121 0.903013 0
M  V30 3901 H 354.267 -4.17059 0.108305 0
M  V30 3902 H 352.897 -3.19222 -0.479313 0
M  V30 3903 H 351.949 -3.27253 1.93931 0
M  V30 3904 H 353.261 -4.39881 2.35172 0
M  V30 3905 H 352.415 -6.03168 0.653739 0
M  V30 3906 H 351.154 -4.87495 0.141232 0
M  V30 3907 H 350.159 -4.92414 2.44557 0
M  V30 3908 H 351.384 -6.11505 2.95362 0
M  V30 3909 H 349.33 -6.51745 0.74598 0
M  V30 3910 H 349.247 -7.18811 2.34195 0
M  V30 3911 H 350.515 -7.69172 1.26468 0
M  V30 3912 N 354.744 -0.972509 -1.24016 0
M  V30 3913 C 355.654 -0.5143 -2.28893 0
M  V30 3914 C 356.67 0.427078 -1.68677 0
M  V30 3915 O 357.846 0.298939 -1.99169 0
M  V30 3916 C 354.911 0.183598 -3.46214 0
M  V30 3917 C 353.972 -0.798202 -4.21814 0
M  V30 3918 C 353.205 -0.133514 -5.33533 0
M  V30 3919 O 353.428 1.07714 -5.60137 0
M  V30 3920 O 352.362 -0.828103 -5.96176 0
M  V30 3921 H 356.188 -1.38629 -2.70214 0
M  V30 3922 H 353.773 -0.739769 -1.29799 0
M  V30 3923 H 355.655 0.575433 -4.17453 0
M  V30 3924 H 354.33 1.03048 -3.0686 0
M  V30 3925 H 353.237 -1.24059 -3.52931 0
M  V30 3926 H 354.57 -1.61364 -4.64997 0
M  V30 3927 N 356.222 1.38976 -0.743202 0
M  V30 3928 C 357.468 2.0064 -0.295189 0
M  V30 3929 C 357.801 1.5885 1.11716 0
M  V30 3930 O 357.076 0.821181 1.76315 0
M  V30 3931 C 357.359 3.578 -0.406318 0
M  V30 3932 C 357.212 4.09586 -1.85903 0
M  V30 3933 C 358.531 4.39616 0.206439 0
M  V30 3934 H 355.65 0.728935 -0.108733 0
M  V30 3935 H 358.292 1.65067 -0.940897 0
M  V30 3936 H 356.442 3.88235 0.143419 0
M  V30 3937 H 358.114 3.89837 -2.46627 0
M  V30 3938 H 356.357 3.6284 -2.3776 0
M  V30 3939 H 357.028 5.18708 -1.888 0
M  V30 3940 H 359.504 4.15273 -0.262283 0
M  V30 3941 H 358.38 5.48812 0.0983819 0
M  V30 3942 H 358.641 4.22754 1.2935 0
M  V30 3943 N 357.7 0.491464 1.49741 0
M  V30 3944 C 358.948 -0.0563141 2.02022 0
M  V30 3945 C 359.269 -1.38363 1.37407 0
M  V30 3946 O 358.539 -1.88702 0.526166 0
M  V30 3947 H 357.119 -0.0238014 0.746621 0
M  V30 3948 H 359.781 0.646533 1.83864 0
M  V30 3949 H 358.877 -0.192967 3.11503 0
M  V30 3950 N 359.178 -1.55987 0.224894 0
M  V30 3951 C 360.125 -2.20436 -0.68385 0
M  V30 3952 C 361.095 -1.16102 -1.18783 0
M  V30 3953 O 362.28 -1.4447 -1.24632 0
M  V30 3954 C 359.42 -2.89076 -1.88491 0
M  V30 3955 C 358.533 -4.08012 -1.41951 0
M  V30 3956 C 357.668 -4.64426 -2.5784 0
M  V30 3957 C 356.707 -5.75656 -2.08053 0
M  V30 3958 N 355.844 -6.26347 -3.17227 0
M  V30 3959 H 360.684 -2.97727 -0.12754 0
M  V30 3960 H 358.221 -1.47011 -0.0511978 0
M  V30 3961 H 360.179 -3.27059 -2.59014 0
M  V30 3962 H 358.809 -2.14298 -2.41405 0
M  V30 3963 H 357.861 -3.75492 -0.609095 0
M  V30 3964 H 359.173 -4.88375 -1.01447 0
M  V30 3965 H 358.327 -5.04869 -3.3644 0
M  V30 3966 H 357.066 -3.83233 -3.01635 0
M  V30 3967 H 356.071 -5.34712 -1.27916 0
M  V30 3968 H 357.296 -6.58686 -1.65255 0
M  V30 3969 H 355.242 -5.48067 -3.60497 0
M  V30 3970 H 355.159 -7.01843 -2.80986 0
M  V30 3971 H 356.427 -6.71447 -3.95953 0
M  V30 3972 N 360.656 0.0484629 -1.57525 0
M  V30 3973 C 361.902 0.744226 -1.88651 0
M  V30 3974 C 362.235 1.76029 -0.820212 0
M  V30 3975 O 361.51 1.93782 0.166985 0
M  V30 3976 C 361.793 1.43128 -3.30434 0
M  V30 3977 C 361.646 0.43005 -4.47739 0
M  V30 3978 C 362.965 2.37031 -3.70816 0
M  V30 3979 H 360.084 0.269089 -0.68612 0
M  V30 3980 H 362.726 0.00713532 -1.89999 0
M  V30 3981 H 360.876 2.05956 -3.29415 0
M  V30 3982 H 362.548 -0.194816 -4.60888 0
M  V30 3983 H 360.791 -0.252522 -4.33064 0
M  V30 3984 H 361.462 0.948874 -5.43783 0
M  V30 3985 H 363.938 1.84263 -3.73077 0
M  V30 3986 H 362.814 2.82094 -4.70865 0
M  V30 3987 H 363.075 3.22864 -3.02012 0
M  V30 3988 N 362.134 1.5431 0.320358 0
M  V30 3989 C 363.381 1.72668 1.05792 0
M  V30 3990 C 363.709 0.502084 1.87908 0
M  V30 3991 O 362.964 -0.516149 1.88771 0
M  V30 3992 C 363.263 2.95639 2.00828 0
M  V30 3993 C 362.929 4.30265 1.34843 0
M  V30 3994 C 361.591 4.66865 1.16578 0
M  V30 3995 C 363.943 5.13801 0.875095 0
M  V30 3996 C 361.271 5.84597 0.496336 0
M  V30 3997 C 363.623 6.32219 0.219463 0
M  V30 3998 C 362.287 6.67495 0.0246915 0
M  V30 3999 H 361.557 0.631837 0.387121 0
M  V30 4000 H 364.204 1.88552 0.334735 0
M  V30 4001 H 362.509 2.74456 2.79609 0
M  V30 4002 H 364.206 3.07038 2.57932 0
M  V30 4003 H 360.796 4.01472 1.50061 0
M  V30 4004 H 364.98 4.86039 1.00398 0
M  V30 4005 H 360.236 6.10486 0.334264 0
M  V30 4006 H 364.41 6.96227 -0.155291 0
M  V30 4007 H 362.037 7.5858 -0.496065 0
M  V30 4008 N 363.613 -0.582584 1.46437 0
M  V30 4009 C 364.543 -1.70187 1.59871 0
M  V30 4010 C 365.524 -1.64066 0.449042 0
M  V30 4011 O 366.709 -1.82081 0.6753 0
M  V30 4012 C 363.839 -3.08827 1.58881 0
M  V30 4013 C 362.793 -3.29779 2.72819 0
M  V30 4014 C 362.119 -4.68947 2.5689 0
M  V30 4015 C 363.419 -3.17601 4.1464 0
M  V30 4016 H 365.113 -1.592 2.53566 0
M  V30 4017 H 362.659 -0.764472 1.22032 0
M  V30 4018 H 364.612 -3.86951 1.66873 0
M  V30 4019 H 363.336 -3.20713 0.617306 0
M  V30 4020 H 361.995 -2.54054 2.64296 0
M  V30 4021 H 361.643 -4.77599 1.57823 0
M  V30 4022 H 361.343 -4.83919 3.33312 0
M  V30 4023 H 362.867 -5.4924 2.66773 0
M  V30 4024 H 364.281 -3.8557 4.24274 0
M  V30 4025 H 362.678 -3.44094 4.9165 0
M  V30 4026 H 363.748 -2.14681 4.34788 0
M  V30 4027 N 365.091 -1.34144 -0.827227 0
M  V30 4028 C 366.054 -1.25264 -1.91942 0
M  V30 4029 C 367.054 -0.168866 -1.59911 0
M  V30 4030 O 368.244 -0.421198 -1.69031 0
M  V30 4031 C 365.376 -0.932952 -3.27885 0
M  V30 4032 H 366.569 -2.22357 -2.0124 0
M  V30 4033 H 364.122 -1.1837 -1.0207 0
M  V30 4034 H 364.857 0.0349917 -3.24281 0
M  V30 4035 H 364.642 -1.71682 -3.52516 0
M  V30 4036 H 366.132 -0.895874 -4.07877 0
M  V30 4037 N 366.569 1.04691 -1.17803 0
M  V30 4038 C 367.797 1.81446 -0.99423 0
M  V30 4039 C 368.212 1.83174 0.457459 0
M  V30 4040 O 367.569 1.26265 1.31771 0
M  V30 4041 C 367.62 3.27334 -1.5341 0
M  V30 4042 O 367.341 3.25798 -2.92895 0
M  V30 4043 C 368.842 4.20759 -1.39559 0
M  V30 4044 H 366.062 0.571599 -0.351447 0
M  V30 4045 H 368.606 1.31982 -1.56208 0
M  V30 4046 H 366.761 3.74052 -1.00815 0
M  V30 4047 H 367.175 4.17144 -3.17949 0
M  V30 4048 H 368.649 5.21084 -1.82141 0
M  V30 4049 H 369.126 4.37856 -0.343394 0
M  V30 4050 H 369.732 3.79901 -1.91195 0
M  V30 4051 N 368.047 0.979072 1.23499 0
M  V30 4052 C 368.995 0.510604 2.26926 0
M  V30 4053 C 369.989 -0.431691 1.63807 0
M  V30 4054 O 371.195 -0.30573 1.77385 0
M  V30 4055 H 367.57 0.146688 0.737554 0
M  V30 4056 H 369.541 1.39466 2.63803 0
M  V30 4057 C 368.29 -0.172658 3.47271 0
M  V30 4058 H 367.613 0.543331 3.96091 0
M  V30 4059 H 369.053 -0.464101 4.21452 0
M  V30 4060 C 367.512 -1.40345 3.06276 0
M  V30 4061 O 368.042 -2.49978 3.14442 0
M  V30 4062 N 366.248 -1.27362 2.61203 0
M  V30 4063 H 365.795 -0.381584 2.54758 0
M  V30 4064 H 365.753 -2.09822 2.34141 0
M  V30 4065 N 369.525 -1.3858 0.750561 0
M  V30 4066 C 370.75 -2.04997 0.314812 0
M  V30 4067 C 371.175 -1.56235 -1.04749 0
M  V30 4068 O 370.533 -0.712981 -1.66692 0
M  V30 4069 C 370.581 -3.58961 0.343415 0
M  V30 4070 O 369.685 -4.07025 -0.663628 0
M  V30 4071 H 369.026 -0.649081 0.139962 0
M  V30 4072 H 371.556 -1.77313 1.02084 0
M  V30 4073 H 371.566 -4.07542 0.193233 0
M  V30 4074 H 370.241 -3.93811 1.33738 0
M  V30 4075 H 368.818 -3.6982 -0.478307 0
M  V30 4076 N 371.003 -0.499398 -1.49478 0
M  V30 4077 C 372.28 0.108629 -1.95298 0
M  V30 4078 C 372.66 1.54282 -1.44084 0
M  V30 4079 O 372.008 2.18944 -0.653908 0
M  V30 4080 C 372.218 0.0229111 -3.48992 0
M  V30 4081 C 373.566 0.197643 -4.2414 0
M  V30 4082 O 374.59 0.0981735 -3.56065 0
M  V30 4083 O 373.449 0.401669 -5.45022 0
M  V30 4084 H 370.543 0.096181 -0.821388 0
M  V30 4085 H 373.089 -0.561822 -1.6013 0
M  V30 4086 H 371.861 -0.977321 -3.78899 0
M  V30 4087 H 371.484 0.733579 -3.90774 0
M  V30 4088 N 372.481 1.55866 -0.233164 0
M  V30 4089 C 373.711 2.02704 0.399325 0
M  V30 4090 C 374.119 1.11204 1.53069 0
M  V30 4091 O 373.462 0.116182 1.83332 0
M  V30 4092 C 373.524 3.45844 0.981429 0
M  V30 4093 C 373.188 4.56997 -0.0159561 0
M  V30 4094 C 374.185 5.13384 -0.820552 0
M  V30 4095 C 371.87 5.0211 -0.138072 0
M  V30 4096 C 373.864 6.13365 -1.73386 0
M  V30 4097 C 371.551 6.01926 -1.0549 0
M  V30 4098 C 372.549 6.57431 -1.85132 0
M  V30 4099 O 372.237 7.55302 -2.75272 0
M  V30 4100 H 371.969 0.668459 0.100692 0
M  V30 4101 H 374.523 2.02387 -0.35052 0
M  V30 4102 H 372.753 3.43267 1.78058 0
M  V30 4103 H 374.442 3.76262 1.52255 0
M  V30 4104 H 375.208 4.79372 -0.736721 0
M  V30 4105 H 371.087 4.5858 0.471737 0
M  V30 4106 H 374.631 6.56614 -2.35592 0
M  V30 4107 H 370.528 6.35359 -1.1397 0
M  V30 4108 H 371.296 7.72867 -2.69477 0
M  V30 4109 N 373.959 -0.0401083 1.57549 0
M  V30 4110 C 374.906 -1.04413 2.05831 0
M  V30 4111 C 375.876 -1.36585 0.945184 0
M  V30 4112 O 377.061 -1.47112 1.21502 0
M  V30 4113 C 374.201 -2.34336 2.53339 0
M  V30 4114 C 373.314 -2.08419 3.78398 0
M  V30 4115 C 372.449 -3.32133 4.14561 0
M  V30 4116 C 371.488 -3.01721 5.3257 0
M  V30 4117 N 370.625 -4.17855 5.64218 0
M  V30 4118 H 375.465 -0.625442 2.91363 0
M  V30 4119 H 373.002 -0.297218 1.44066 0
M  V30 4120 H 374.96 -3.10234 2.78946 0
M  V30 4121 H 373.59 -2.73948 1.7074 0
M  V30 4122 H 372.642 -1.23069 3.59942 0
M  V30 4123 H 373.954 -1.81978 4.64419 0
M  V30 4124 H 373.108 -4.16406 4.41238 0
M  V30 4125 H 371.847 -3.61678 3.2717 0
M  V30 4126 H 370.852 -2.15849 5.05657 0
M  V30 4127 H 372.077 -2.73466 6.21605 0
M  V30 4128 H 370.023 -4.47372 4.79786 0
M  V30 4129 H 369.94 -3.94798 6.44725 0
M  V30 4130 H 371.208 -5.03033 5.95465 0
M  V30 4131 N 375.437 -1.54477 -0.31217 0
M  V30 4132 C 376.667 -1.76948 -1.06645 0
M  V30 4133 C 377.075 -0.523593 -1.81811 0
M  V30 4134 O 376.418 0.51578 -1.76311 0
M  V30 4135 C 376.48 -2.91668 -2.10166 0
M  V30 4136 C 376.144 -4.30165 -1.54296 0
M  V30 4137 C 377.141 -5.10603 -0.978793 0
M  V30 4138 C 374.826 -4.76738 -1.58196 0
M  V30 4139 C 376.82 -6.3573 -0.461048 0
M  V30 4140 C 374.507 -6.01831 -1.06034 0
M  V30 4141 C 375.505 -6.81161 -0.500844 0
M  V30 4142 O 375.193 -8.03899 0.0128958 0
M  V30 4143 H 374.925 -0.594088 -0.322546 0
M  V30 4144 H 377.479 -2.02213 -0.360441 0
M  V30 4145 H 375.709 -2.62001 -2.84416 0
M  V30 4146 H 377.398 -3.01817 -2.71406 0
M  V30 4147 H 378.164 -4.75771 -0.941651 0
M  V30 4148 H 374.043 -4.15027 -2.00683 0
M  V30 4149 H 377.587 -6.97596 -0.0236894 0
M  V30 4150 H 373.484 -6.36152 -1.09459 0
M  V30 4151 H 374.252 -8.18437 -0.101457 0
M  V30 4152 N 376.915 0.57481 -1.46744 0
M  V30 4153 C 378.143 1.35856 -1.56047 0
M  V30 4154 C 378.558 1.87691 -0.204365 0
M  V30 4155 O 377.915 1.64049 0.79963 0
M  V30 4156 C 377.966 2.54066 -2.57163 0
M  V30 4157 O 377.687 2.04377 -3.87507 0
M  V30 4158 C 379.188 3.46514 -2.76483 0
M  V30 4159 H 376.408 0.414754 -0.527466 0
M  V30 4160 H 378.952 0.698035 -1.92218 0
M  V30 4161 H 377.107 3.16092 -2.23974 0
M  V30 4162 H 377.521 2.81419 -4.4261 0
M  V30 4163 H 378.995 4.25919 -3.51137 0
M  V30 4164 H 379.472 3.98951 -1.83671 0
M  V30 4165 H 380.078 2.90318 -3.10799 0
M  V30 4166 N 378.394 1.34581 0.820102 0
M  V30 4167 C 379.671 1.17675 1.56244 0
M  V30 4168 C 380.051 -0.249541 2.0962 0
M  V30 4169 O 379.399 -1.25125 1.91196 0
M  V30 4170 C 379.609 2.23364 2.6816 0
M  V30 4171 C 380.957 2.58485 3.36854 0
M  V30 4172 O 381.981 2.22175 2.78418 0
M  V30 4173 O 380.84 3.20868 4.42386 0
M  V30 4174 H 377.934 0.456333 0.689702 0
M  V30 4175 H 380.48 1.46222 0.861231 0
M  V30 4176 H 379.252 3.19087 2.26493 0
M  V30 4177 H 378.875 1.96009 3.45928 0
M  V30 4178 N 379.872 -1.04064 1.18357 0
M  V30 4179 C 380.819 -2.12077 0.910603 0
M  V30 4180 C 381.789 -1.65421 -0.15 0
M  V30 4181 O 382.974 -1.90797 -0.0103614 0
M  V30 4182 C 380.114 -3.42252 0.442472 0
M  V30 4183 C 379.227 -4.0252 1.5685 0
M  V30 4184 C 378.362 -5.20657 1.05309 0
M  V30 4185 C 377.401 -5.72955 2.1538 0
M  V30 4186 N 376.538 -6.8238 1.65233 0
M  V30 4187 H 381.378 -2.34764 1.83548 0
M  V30 4188 H 378.915 -1.15157 0.915279 0
M  V30 4189 H 380.873 -4.16921 0.152534 0
M  V30 4190 H 379.503 -3.19712 -0.445428 0
M  V30 4191 H 378.555 -3.25178 1.97391 0
M  V30 4192 H 379.867 -4.37362 2.39824 0
M  V30 4193 H 379.021 -6.0244 0.717677 0
M  V30 4194 H 377.76 -4.87318 0.19293 0
M  V30 4195 H 376.765 -4.89793 2.49766 0
M  V30 4196 H 377.99 -6.08337 3.01832 0
M  V30 4197 H 375.936 -6.50917 0.815064 0
M  V30 4198 H 375.853 -7.16286 2.41805 0
M  V30 4199 H 377.121 -7.67788 1.34619 0
M  V30 4200 N 381.35 -0.985608 -1.22978 0
M  V30 4201 C 382.599 -0.652881 -1.90841 0
M  V30 4202 C 382.912 0.817842 -1.77681 0
M  V30 4203 O 384.118 1.26185 -2.40395 0
M  V30 4204 C 382.574 -1.11717 -3.42122 0
M  V30 4205 C 382.182 -2.6126 -3.63933 0
M  V30 4206 C 383.926 -0.85843 -4.1573 0
M  V30 4207 C 381.833 -3.0133 -5.08876 0
M  V30 4208 H 380.763 -0.240491 -0.714619 0
M  V30 4209 H 383.414 -1.1942 -1.39324 0
M  V30 4210 H 381.796 -0.504027 -3.92779 0
M  V30 4211 H 382.97 -3.27858 -3.23799 0
M  V30 4212 H 381.285 -2.84937 -3.03644 0
M  V30 4213 H 383.882 -1.13359 -5.22546 0
M  V30 4214 H 384.225 0.205461 -4.15793 0
M  V30 4215 H 384.758 -1.43341 -3.71077 0
M  V30 4216 H 381.497 -4.06864 -5.13947 0
M  V30 4217 H 381.017 -2.3943 -5.49939 0
M  V30 4218 H 382.696 -2.92224 -5.77247 0
M  V30 4219 N 382.828 1.3818 -0.7579 0
M  V30 4220 C 383.761 2.28055 -0.0814093 0
M  V30 4221 C 384.739 1.45603 0.723779 0
M  V30 4222 O 385.923 1.74961 0.701491 0
M  V30 4223 C 383.05 3.2676 0.891394 0
M  V30 4224 C 382.096 4.26153 0.171909 0
M  V30 4225 S 382.929 5.23434 -1.13035 0
M  V30 4226 C 384.085 6.25694 -0.160727 0
M  V30 4227 H 384.318 2.85082 -0.84353 0
M  V30 4228 H 381.851 1.44246 -0.550671 0
M  V30 4229 H 383.809 3.8414 1.44731 0
M  V30 4230 H 382.47 2.68706 1.62652 0
M  V30 4231 H 381.663 4.95738 0.908843 0
M  V30 4232 H 381.265 3.72691 -0.312606 0
M  V30 4233 H 383.557 6.74161 0.671773 0
M  V30 4234 H 384.5 7.03285 -0.824353 0
M  V30 4235 H 384.908 5.64064 0.221892 0
M  V30 4236 N 384.306 0.507319 1.49211 0
M  V30 4237 C 385.534 -0.0315749 2.06876 0
M  V30 4238 C 385.949 -1.30241 1.36685 0
M  V30 4239 O 385.306 -1.76937 0.447152 0
M  V30 4240 C 385.357 -0.282627 3.60393 0
M  V30 4241 O 385.078 0.937835 4.27944 0
M  V30 4242 C 386.579 -0.864453 4.3479 0
M  V30 4243 H 383.799 0.0233048 0.670595 0
M  V30 4244 H 386.343 0.706484 1.91909 0
M  V30 4245 H 384.498 -0.97068 3.75042 0
M  V30 4246 H 384.912 0.704567 5.19746 0
M  V30 4247 H 386.386 -0.989664 5.43056 0
M  V30 4248 H 386.863 -1.86382 3.97692 0
M  V30 4249 H 387.469 -0.213672 4.24763 0
M  V30 4250 N 385.784 -1.5574 0.241426 0
M  V30 4251 C 387.014 -2.02913 -0.38857 0
M  V30 4252 C 387.422 -1.12014 -1.52478 0
M  V30 4253 O 386.765 -0.125903 -1.83268 0
M  V30 4254 C 386.827 -3.4636 -0.963075 0
M  V30 4255 C 386.491 -4.56982 0.0401916 0
M  V30 4256 C 387.488 -5.12941 0.847766 0
M  V30 4257 C 385.173 -5.0203 0.164699 0
M  V30 4258 C 387.167 -6.12437 1.76636 0
M  V30 4259 C 384.854 -6.01358 1.0868 0
M  V30 4260 C 385.852 -6.5644 1.88616 0
M  V30 4261 O 385.54 -7.53831 2.79273 0
M  V30 4262 H 385.272 -0.668983 -0.0971452 0
M  V30 4263 H 387.826 -2.02198 0.361248 0
M  V30 4264 H 386.056 -3.44206 -1.76235 0
M  V30 4265 H 387.745 -3.77065 -1.50257 0
M  V30 4266 H 388.511 -4.78974 0.762133 0
M  V30 4267 H 384.39 -4.58824 -0.447411 0
M  V30 4268 H 387.934 -6.55355 2.39071 0
M  V30 4269 H 383.831 -6.34746 1.17338 0
M  V30 4270 H 384.599 -7.71428 2.73572 0
M  V30 4271 N 387.262 0.0317525 -1.57568 0
M  V30 4272 C 388.192 1.03274 -2.0942 0
M  V30 4273 C 389.173 1.3788 -0.996143 0
M  V30 4274 O 390.358 1.46811 -1.27122 0
M  V30 4275 C 387.488 2.33448 -2.57137 0
M  V30 4276 C 386.442 2.13091 -3.71182 0
M  V30 4277 C 385.768 3.49001 -4.05095 0
M  V30 4278 C 387.068 1.51928 -4.99715 0
M  V30 4279 H 388.762 0.60112 -2.93303 0
M  V30 4280 H 386.308 0.287705 -1.41097 0
M  V30 4281 H 388.261 3.03802 -2.92032 0
M  V30 4282 H 386.985 2.78665 -1.70333 0
M  V30 4283 H 385.644 1.45171 -3.36632 0
M  V30 4284 H 385.292 3.91862 -3.15362 0
M  V30 4285 H 384.992 3.36207 -4.81911 0
M  V30 4286 H 386.516 4.20721 -4.42522 0
M  V30 4287 H 387.93 2.12196 -5.32584 0
M  V30 4288 H 386.327 1.49716 -5.81124 0
M  V30 4289 H 387.397 0.484811 -4.8247 0
M  V30 4290 N 388.74 1.54641 0.303973 0
M  V30 4291 C 389.987 1.7378 1.03955 0
M  V30 4292 C 390.315 0.521986 1.87365 0
M  V30 4293 O 389.57 -0.496099 1.89308 0
M  V30 4294 C 389.869 2.97753 1.97681 0
M  V30 4295 C 389.535 4.31671 1.30271 0
M  V30 4296 C 388.197 4.68075 1.11619 0
M  V30 4297 C 390.549 5.147 0.82055 0
M  V30 4298 C 387.877 5.8509 0.434304 0
M  V30 4299 C 390.229 6.32416 0.152395 0
M  V30 4300 C 388.893 6.67484 -0.0461067 0
M  V30 4301 H 388.163 0.635908 0.380398 0
M  V30 4302 H 390.81 1.88896 0.314718 0
M  V30 4303 H 389.115 2.77406 2.76682 0
M  V30 4304 H 390.812 3.09756 2.54661 0
M  V30 4305 H 387.402 4.03041 1.45795 0
M  V30 4306 H 391.586 4.87077 0.952374 0
M  V30 4307 H 386.842 6.10806 0.269495 0
M  V30 4308 H 391.016 6.96023 -0.229126 0
M  V30 4309 H 388.643 7.58011 -0.576494 0
M  V30 4310 N 390.218 -0.567019 1.47046 0
M  V30 4311 C 391.495 -1.3276 1.43646 0
M  V30 4312 C 391.875 -2.1071 0.128186 0
M  V30 4313 O 391.223 -2.10441 -0.890326 0
M  V30 4314 C 391.433 -2.2404 2.67595 0
M  V30 4315 C 392.781 -2.85372 3.14401 0
M  V30 4316 O 393.805 -2.34346 2.68254 0
M  V30 4317 O 392.664 -3.78091 3.946 0
M  V30 4318 H 389.758 -0.597293 0.571988 0
M  V30 4319 H 392.304 -0.586735 1.59234 0
M  V30 4320 H 391.076 -1.65975 3.54356 0
M  V30 4321 H 390.699 -3.05439 2.54544 0
M  V30 4322 N 391.696 -1.35014 -0.812953 0
M  V30 4323 C 392.943 -1.27931 -1.56971 0
M  V30 4324 C 393.271 0.148034 -1.93936 0
M  V30 4325 O 392.526 1.11175 -1.61054 0
M  V30 4326 C 392.825 -2.12524 -2.87347 0
M  V30 4327 C 392.491 -3.61401 -2.6963 0
M  V30 4328 C 391.153 -4.01983 -2.64506 0
M  V30 4329 C 393.505 -4.55894 -2.52607 0
M  V30 4330 C 390.833 -5.35235 -2.40293 0
M  V30 4331 C 393.185 -5.89336 -2.29925 0
M  V30 4332 C 391.849 -6.2907 -2.23219 0
M  V30 4333 H 391.119 -0.468131 -0.574399 0
M  V30 4334 H 393.766 -1.66851 -0.939836 0
M  V30 4335 H 392.071 -1.66463 -3.54679 0
M  V30 4336 H 393.768 -2.04383 -3.45005 0
M  V30 4337 H 390.358 -3.29193 -2.74463 0
M  V30 4338 H 394.542 -4.25431 -2.55583 0
M  V30 4339 H 389.798 -5.65028 -2.33566 0
M  V30 4340 H 393.972 -6.62139 -2.15743 0
M  V30 4341 H 391.599 -7.32256 -2.04219 0
M  V30 4342 N 393.175 1.03435 -1.18907 0
M  V30 4343 C 394.586 1.58195 -0.991523 0
M  V30 4344 C 394.937 1.90801 0.457081 0
M  V30 4345 O 394.062 1.70272 1.33553 0
M  V30 4346 C 394.657 2.87432 -1.79355 0
M  V30 4347 C 393.216 3.38785 -1.64017 0
M  V30 4348 C 392.363 2.12292 -1.78402 0
M  V30 4349 H 395.314 0.860299 -1.33359 0
M  V30 4350 H 395.335 3.58096 -1.28638 0
M  V30 4351 H 394.847 2.63669 -2.84781 0
M  V30 4352 H 392.948 3.67547 -0.611536 0
M  V30 4353 H 393.061 4.12186 -2.44212 0
M  V30 4354 H 391.425 2.23901 -1.2141 0
M  V30 4355 H 392.208 1.90977 -2.85277 0
M  V30 4356 N 394.653 0.992116 1.22453 0
M  V30 4357 C 395.603 0.512969 2.22155 0
M  V30 4358 C 396.587 -0.418416 1.55364 0
M  V30 4359 O 397.779 -0.245363 1.75291 0
M  V30 4360 C 394.908 -0.171822 3.4287 0
M  V30 4361 C 393.994 0.779822 4.16869 0
M  V30 4362 N 394.385 1.92734 4.6764 0
M  V30 4363 C 392.683 0.59554 4.42006 0
M  V30 4364 C 393.384 2.52458 5.24061 0
M  V30 4365 N 392.36 1.80735 5.12675 0
M  V30 4366 H 396.162 1.38817 2.5905 0
M  V30 4367 H 393.676 0.854277 1.38115 0
M  V30 4368 H 395.673 -0.532469 4.13486 0
M  V30 4369 H 394.333 -1.04317 3.07487 0
M  V30 4370 H 395.344 2.30816 4.63621 0
M  V30 4371 H 392.021 -0.229805 4.16867 0
M  V30 4372 H 393.411 3.49433 5.73887 0
M  V30 4373 N 396.131 -1.37776 0.765217 0
M  V30 4374 C 397.379 -1.99454 0.325943 0
M  V30 4375 C 397.7 -1.61049 -1.09947 0
M  V30 4376 O 396.97 -0.872821 -1.75381 0
M  V30 4377 H 395.55 -0.737697 0.117525 0
M  V30 4378 H 398.212 -1.68359 0.981895 0
M  V30 4379 H 397.308 -3.09547 0.398353 0
M  V30 4380 N 397.609 -0.515225 -1.4894 0
M  V30 4381 C 399.02 -0.0710067 -1.86565 0
M  V30 4382 C 399.371 1.34733 -1.42623 0
M  V30 4383 O 398.496 2.00653 -0.810379 0
M  V30 4384 C 399.091 -0.122083 -3.3858 0
M  V30 4385 C 397.65 0.266863 -3.75453 0
M  V30 4386 C 396.797 -0.488376 -2.72966 0
M  V30 4387 H 399.748 -0.727266 -1.41055 0
M  V30 4388 H 399.769 0.669818 -3.74558 0
M  V30 4389 H 399.281 -1.15448 -3.70531 0
M  V30 4390 H 397.382 1.30196 -3.49113 0
M  V30 4391 H 397.495 -0.0624811 -4.79059 0
M  V30 4392 H 395.859 0.0635622 -2.54621 0
M  V30 4393 H 396.642 -1.52113 -3.07761 0
M  V30 4394 N 399.087 1.5561 -0.249682 0
M  V30 4395 C 400.034 2.21496 0.648694 0
M  V30 4396 C 401.004 1.17977 1.16921 0
M  V30 4397 O 402.189 1.46434 1.22318 0
M  V30 4398 C 399.329 2.92039 1.83868 0
M  V30 4399 C 398.442 4.10219 1.35442 0
M  V30 4400 C 397.577 4.6847 2.50419 0
M  V30 4401 C 396.616 5.78893 1.98869 0
M  V30 4402 N 395.753 6.31315 3.07223 0
M  V30 4403 H 400.593 2.97892 0.0801582 0
M  V30 4404 H 398.13 1.47074 0.0278031 0
M  V30 4405 H 400.088 3.31138 2.53778 0
M  V30 4406 H 398.718 2.18111 2.37965 0
M  V30 4407 H 397.77 3.76413 0.54928 0
M  V30 4408 H 399.082 4.89927 0.936649 0
M  V30 4409 H 398.236 5.10158 3.28366 0
M  V30 4410 H 396.975 3.87984 2.95499 0
M  V30 4411 H 395.98 5.3668 1.19393 0
M  V30 4412 H 397.205 6.61232 1.54755 0
M  V30 4413 H 395.151 5.53733 3.51732 0
M  V30 4414 H 395.068 7.06224 2.69784 0
M  V30 4415 H 396.336 6.77662 3.8522 0
M  V30 4416 N 400.565 -0.0233959 1.57583 0
M  V30 4417 C 401.976 -0.56927 1.77809 0
M  V30 4418 C 402.327 -1.75284 0.881472 0
M  V30 4419 O 401.452 -2.1626 0.0777805 0
M  V30 4420 C 402.047 -1.03949 3.22459 0
M  V30 4421 C 400.606 -1.53084 3.43864 0
M  V30 4422 C 399.753 -0.471454 2.73263 0
M  V30 4423 H 402.704 0.202825 1.57399 0
M  V30 4424 H 402.725 -1.90661 3.29285 0
M  V30 4425 H 402.237 -0.177865 3.87692 0
M  V30 4426 H 400.338 -2.41414 2.83814 0
M  V30 4427 H 400.451 -1.57443 4.52491 0
M  V30 4428 H 398.815 -0.927788 2.37201 0
M  V30 4429 H 399.598 0.380808 3.41181 0
M  V30 4430 N 402.043 -1.548 -0.295768 0
M  V30 4431 C 403.291 -1.73985 -1.02828 0
M  V30 4432 C 403.612 -0.531406 -1.87619 0
M  V30 4433 O 402.882 0.454221 -1.90561 0
M  V30 4434 H 401.462 -0.641556 -0.382642 0
M  V30 4435 H 404.124 -1.92163 -0.325489 0
M  V30 4436 H 403.22 -2.63129 -1.67838 0
M  V30 4437 N 403.521 0.559213 -1.47345 0
M  V30 4438 C 404.746 1.34676 -1.57725 0
M  V30 4439 C 405.171 1.86723 -0.227164 0
M  V30 4440 O 404.529 1.6286 0.796642 0
M  V30 4441 C 404.577 2.49399 -2.60447 0
M  V30 4442 O 403.681 3.51567 -2.15578 0
M  V30 4443 H 403.022 0.400115 -0.52991 0
M  V30 4444 H 405.552 0.676009 -1.93109 0
M  V30 4445 H 405.562 2.95996 -2.80803 0
M  V30 4446 H 404.237 2.10873 -3.58477 0
M  V30 4447 H 402.814 3.11289 -2.05313 0
M  V30 4448 N 404.999 1.35443 0.805782 0
M  V30 4449 C 406.224 1.32037 1.59941 0
M  V30 4450 C 406.649 -0.0994215 1.87837 0
M  V30 4451 O 406.007 -1.06648 1.46615 0
M  V30 4452 C 406.055 2.13354 2.90711 0
M  V30 4453 O 405.159 1.5148 3.83572 0
M  V30 4454 H 404.5 0.452666 0.485787 0
M  V30 4455 H 407.03 1.78496 1.00002 0
M  V30 4456 H 407.04 2.25338 3.40128 0
M  V30 4457 H 405.715 3.16572 2.69732 0
M  V30 4458 H 404.292 1.4834 3.42125 0
M  V30 4459 N 406.477 -1.02803 1.19454 0
M  V30 4460 C 407.427 -2.0945 0.900827 0
M  V30 4461 C 408.411 -1.60335 -0.134715 0
M  V30 4462 O 409.603 -1.76857 0.0710924 0
M  V30 4463 C 406.732 -3.4044 0.442229 0
M  V30 4464 C 405.818 -3.96286 1.51056 0
M  V30 4465 N 406.209 -4.25785 2.73021 0
M  V30 4466 C 404.507 -4.24307 1.37404 0
M  V30 4467 C 405.208 -4.70654 3.41848 0
M  V30 4468 N 404.184 -4.72238 2.69243 0
M  V30 4469 H 407.986 -2.3015 1.82779 0
M  V30 4470 H 405.5 -1.20672 1.08683 0
M  V30 4471 H 407.497 -4.16354 0.21326 0
M  V30 4472 H 406.157 -3.21159 -0.478238 0
M  V30 4473 H 407.168 -4.15041 3.09776 0
M  V30 4474 H 403.845 -4.14285 0.517103 0
M  V30 4475 H 405.235 -5.02392 4.46152 0
M  V30 4476 N 407.956 -0.998596 -1.21925 0
M  V30 4477 C 409.372 -0.710303 -1.42923 0
M  V30 4478 C 409.572 0.716933 -1.88314 0
M  V30 4479 O 408.628 1.48712 -2.04062 0
M  V30 4480 C 409.941 -1.72072 -2.466 0
M  V30 4481 C 411.489 -1.73681 -2.60392 0
M  V30 4482 C 411.964 -2.73601 -3.67296 0
M  V30 4483 N 413.455 -2.7223 -3.7476 0
M  V30 4484 C 414.19 -3.46206 -4.57087 0
M  V30 4485 N 413.686 -4.29802 -5.43362 0
M  V30 4486 N 415.479 -3.34886 -4.51451 0
M  V30 4487 H 407.63 -1.92028 -0.9077 0
M  V30 4488 H 409.893 -0.828487 -0.460775 0
M  V30 4489 H 409.599 -2.74231 -2.20206 0
M  V30 4490 H 409.473 -1.51818 -3.45299 0
M  V30 4491 H 411.86 -0.722173 -2.86127 0
M  V30 4492 H 411.941 -1.98005 -1.61949 0
M  V30 4493 H 411.585 -3.75217 -3.42307 0
M  V30 4494 H 411.515 -2.46545 -4.65321 0
M  V30 4495 H 414.006 -2.11576 -3.1312 0
M  V30 4496 H 414.319 -4.83061 -6.03218 0
M  V30 4497 H 412.664 -4.33887 -5.42925 0
M  V30 4498 H 415.855 -2.69015 -3.83078 0
M  V30 4499 H 416.028 -3.92796 -5.15379 0
M  V30 4500 N 409.434 1.37368 -0.772513 0
M  V30 4501 C 410.845 1.8231 -0.402493 0
M  V30 4502 C 411.196 1.6436 1.07146 0
M  V30 4503 O 410.321 1.15514 1.82991 0
M  V30 4504 C 410.916 3.30979 -0.723776 0
M  V30 4505 C 409.475 3.74195 -0.406802 0
M  V30 4506 C 408.622 2.59885 -0.967218 0
M  V30 4507 H 411.573 1.25829 -0.967099 0
M  V30 4508 H 411.594 3.80499 -0.00870832 0
M  V30 4509 H 411.106 3.44011 -1.7966 0
M  V30 4510 H 409.207 3.66732 0.658673 0
M  V30 4511 H 409.32 4.7027 -0.915588 0
M  V30 4512 H 407.684 2.51674 -0.391416 0
M  V30 4513 H 408.467 2.7571 -2.04546 0
M  V30 4514 N 410.912 0.523116 1.48665 0
M  V30 4515 C 412.158 -0.00540031 2.03399 0
M  V30 4516 C 412.513 -1.3264 1.39372 0
M  V30 4517 O 411.806 -1.84184 0.527916 0
M  V30 4518 C 412 -0.191671 3.56886 0
M  V30 4519 C 411.829 1.10972 4.35793 0
M  V30 4520 C 410.599 1.66769 4.76987 0
M  V30 4521 C 412.797 2.01861 4.73029 0
M  V30 4522 N 410.779 2.91268 5.40404 0
M  V30 4523 C 412.15 3.10937 5.36394 0
M  V30 4524 C 414.205 2.02271 4.54962 0
M  V30 4525 C 412.908 4.20478 5.83601 0
M  V30 4526 C 414.934 3.10802 5.03146 0
M  V30 4527 C 414.296 4.18597 5.6653 0
M  V30 4528 H 410.395 0.0393531 0.781009 0
M  V30 4529 H 412.979 0.702876 1.8157 0
M  V30 4530 H 411.15 -0.869025 3.78553 0
M  V30 4531 H 412.882 -0.719177 3.98259 0
M  V30 4532 H 409.637 1.20996 4.57883 0
M  V30 4533 H 410.061 3.54635 5.76683 0
M  V30 4534 H 414.703 1.2023 4.05345 0
M  V30 4535 H 412.421 5.03303 6.32228 0
M  V30 4536 H 416.007 3.12166 4.90962 0
M  V30 4537 H 414.887 5.01193 6.03138 0
M  V30 4538 N 412.39 -1.55475 0.257931 0
M  V30 4539 C 413.322 -2.19192 -0.669881 0
M  V30 4540 C 414.335 -1.17148 -1.1305 0
M  V30 4541 O 415.524 -1.43959 -1.05537 0
M  V30 4542 C 412.624 -2.79016 -1.92363 0
M  V30 4543 C 411.797 -4.06586 -1.61265 0
M  V30 4544 C 410.856 -4.50622 -2.7171 0
M  V30 4545 O 409.882 -5.16765 -2.38627 0
M  V30 4546 N 411.084 -4.19325 -4.01431 0
M  V30 4547 H 413.849 -2.99441 -0.124635 0
M  V30 4548 H 411.41 -1.6171 0.0783311 0
M  V30 4549 H 413.402 -3.05427 -2.65511 0
M  V30 4550 H 411.972 -2.0286 -2.37837 0
M  V30 4551 H 411.192 -3.87646 -0.715811 0
M  V30 4552 H 412.48 -4.89737 -1.37967 0
M  V30 4553 H 411.878 -3.66247 -4.31138 0
M  V30 4554 H 410.435 -4.50547 -4.7101 0
M  V30 4555 N 413.868 0.0150385 -1.57593 0
M  V30 4556 C 415.093 0.718067 -1.94573 0
M  V30 4557 C 415.518 1.6734 -0.859005 0
M  V30 4558 O 414.876 1.80362 0.184147 0
M  V30 4559 C 414.924 1.43918 -3.30636 0
M  V30 4560 O 414.028 2.55299 -3.23876 0
M  V30 4561 H 413.369 0.192125 -0.635597 0
M  V30 4562 H 415.899 -0.0336708 -2.04572 0
M  V30 4563 H 415.909 1.80598 -3.65853 0
M  V30 4564 H 414.584 0.738619 -4.09289 0
M  V30 4565 H 413.161 2.21058 -3.00312 0
M  V30 4566 N 415.346 1.54954 0.287554 0
M  V30 4567 C 416.576 1.78622 1.03816 0
M  V30 4568 C 416.984 0.552451 1.80955 0
M  V30 4569 O 416.327 -0.487665 1.77109 0
M  V30 4570 C 416.389 2.94975 2.055 0
M  V30 4571 C 416.053 4.32565 1.47433 0
M  V30 4572 C 417.05 5.12096 0.897436 0
M  V30 4573 C 414.735 4.79195 1.50591 0
M  V30 4574 C 416.729 6.36383 0.359851 0
M  V30 4575 C 414.416 6.03441 0.964459 0
M  V30 4576 C 415.414 6.81872 0.392413 0
M  V30 4577 O 415.102 8.03777 -0.140788 0
M  V30 4578 H 414.834 0.599144 0.313053 0
M  V30 4579 H 417.388 2.02761 0.328225 0
M  V30 4580 H 415.618 2.66493 2.80211 0
M  V30 4581 H 417.307 3.06097 2.6657 0
M  V30 4582 H 418.073 4.77209 0.865841 0
M  V30 4583 H 413.952 4.18167 1.94055 0
M  V30 4584 H 417.496 6.97545 -0.0872951 0
M  V30 4585 H 413.393 6.37813 0.993246 0
M  V30 4586 H 414.161 8.18495 -0.0287617 0
M  V30 4587 N 416.824 -0.551391 1.4764 0
M  V30 4588 C 418.071 -1.3083 1.54563 0
M  V30 4589 C 418.399 -1.93359 0.210361 0
M  V30 4590 O 417.654 -1.78721 -0.797332 0
M  V30 4591 C 417.953 -2.43469 2.61644 0
M  V30 4592 C 417.619 -1.98732 4.04742 0
M  V30 4593 C 416.281 -1.86248 4.43695 0
M  V30 4594 C 418.633 -1.64659 4.94507 0
M  V30 4595 C 415.961 -1.37995 5.70241 0
M  V30 4596 C 418.313 -1.17875 6.21521 0
M  V30 4597 C 416.977 -1.03992 6.5935 0
M  V30 4598 H 416.247 -0.478741 0.565587 0
M  V30 4599 H 418.894 -0.617697 1.81264 0
M  V30 4600 H 417.199 -3.18109 2.28722 0
M  V30 4601 H 418.896 -3.01642 2.64222 0
M  V30 4602 H 415.486 -2.09393 3.73968 0
M  V30 4603 H 419.67 -1.73174 4.65107 0
M  V30 4604 H 414.926 -1.25915 5.98294 0
M  V30 4605 H 419.1 -0.905739 6.90485 0
M  V30 4606 H 416.727 -0.663794 7.57296 0
M  V30 4607 N 418.302 -1.35869 -0.798587 0
M  V30 4608 C 419.579 -1.20145 -1.54352 0
M  V30 4609 C 419.959 0.216161 -2.0999 0
M  V30 4610 O 419.307 1.22068 -1.93162 0
M  V30 4611 C 419.517 -2.27602 -2.64572 0
M  V30 4612 C 420.865 -2.63811 -3.32699 0
M  V30 4613 O 421.889 -2.26576 -2.74849 0
M  V30 4614 O 420.748 -3.27866 -4.37226 0
M  V30 4615 H 417.842 -0.467248 -0.682355 0
M  V30 4616 H 420.388 -1.47574 -0.837859 0
M  V30 4617 H 419.16 -3.2265 -2.21388 0
M  V30 4618 H 418.783 -2.01488 -3.42766 0
M  V30 4619 N 419.78 1.02168 -1.19998 0
M  V30 4620 C 420.71 2.12488 -0.96804 0
M  V30 4621 C 421.691 1.69799 0.101185 0
M  V30 4622 O 422.876 1.94121 -0.0552993 0
M  V30 4623 C 420.006 3.43479 -0.513776 0
M  V30 4624 C 418.96 3.99884 -1.52566 0
M  V30 4625 C 418.286 5.26582 -0.928214 0
M  V30 4626 C 419.586 4.33861 -2.90795 0
M  V30 4627 H 421.28 2.32149 -1.89069 0
M  V30 4628 H 418.826 1.11564 -0.910468 0
M  V30 4629 H 420.779 4.20036 -0.338774 0
M  V30 4630 H 419.503 3.23561 0.444493 0
M  V30 4631 H 418.162 3.25429 -1.68794 0
M  V30 4632 H 417.81 5.02986 0.0378289 0
M  V30 4633 H 417.51 5.65284 -1.60397 0
M  V30 4634 H 419.034 6.05799 -0.764167 0
M  V30 4635 H 420.448 5.01327 -2.78109 0
M  V30 4636 H 418.845 4.83664 -3.55231 0
M  V30 4637 H 419.915 3.42848 -3.42904 0
M  V30 4638 N 421.258 1.00505 1.21394 0
M  V30 4639 C 422.507 0.683159 1.89778 0
M  V30 4640 C 422.82 -0.789471 1.7896 0
M  V30 4641 O 424.026 -1.22344 2.42372 0
M  V30 4642 C 422.482 1.17146 3.40301 0
M  V30 4643 C 422.09 2.67017 3.5973 0
M  V30 4644 C 423.834 0.924461 4.14311 0
M  V30 4645 C 421.741 3.09387 5.04017 0
M  V30 4646 H 420.671 0.25183 0.710702 0
M  V30 4647 H 423.322 1.21622 1.37406 0
M  V30 4648 H 421.704 0.566451 3.91928 0
M  V30 4649 H 422.878 3.32968 3.18542 0
M  V30 4650 H 421.193 2.89732 2.99073 0
M  V30 4651 H 423.79 1.21658 5.20676 0
M  V30 4652 H 424.133 -0.139286 4.16067 0
M  V30 4653 H 424.666 1.49226 3.6875 0
M  V30 4654 H 421.405 4.14989 5.07409 0
M  V30 4655 H 420.925 2.48149 5.46061 0
M  V30 4656 H 422.604 3.01371 5.72525 0
M  V30 4657 N 422.737 -1.36956 0.779787 0
M  V30 4658 C 423.667 -2.32761 0.185651 0
M  V30 4659 C 424.648 -1.56177 -0.673989 0
M  V30 4660 O 425.833 -1.84378 -0.609797 0
M  V30 4661 C 422.963 -3.40418 -0.687964 0
M  V30 4662 C 421.917 -4.27941 0.0710102 0
M  V30 4663 C 421.243 -5.26681 -0.922573 0
M  V30 4664 C 422.543 -5.07006 1.25467 0
M  V30 4665 H 424.237 -2.82698 0.986008 0
M  V30 4666 H 421.783 -1.3592 0.475592 0
M  V30 4667 H 423.736 -4.06423 -1.11348 0
M  V30 4668 H 422.46 -2.89025 -1.52093 0
M  V30 4669 H 421.119 -3.63478 0.47739 0
M  V30 4670 H 420.767 -4.71565 -1.7503 0
M  V30 4671 H 420.467 -5.86103 -0.419237 0
M  V30 4672 H 421.991 -5.9556 -1.34686 0
M  V30 4673 H 423.405 -5.66105 0.905401 0
M  V30 4674 H 421.802 -5.75793 1.69063 0
M  V30 4675 H 422.872 -4.3921 2.05481 0
M  V30 4676 N 424.215 -0.530993 -1.48385 0
M  V30 4677 C 425.461 0.00274135 -2.028 0
M  V30 4678 C 425.794 1.33838 -1.40716 0
M  V30 4679 O 425.069 1.86465 -0.553277 0
M  V30 4680 C 425.352 0.123676 -3.59888 0
M  V30 4681 C 425.205 -1.2372 -4.3245 0
M  V30 4682 C 426.524 0.849967 -4.31814 0
M  V30 4683 H 423.643 -0.000477758 -0.737 0
M  V30 4684 H 426.285 -0.688217 -1.77098 0
M  V30 4685 H 424.435 0.712157 -3.81917 0
M  V30 4686 H 426.107 -1.86687 -4.21836 0
M  V30 4687 H 424.35 -1.81882 -3.93829 0
M  V30 4688 H 425.021 -1.10557 -5.40815 0
M  V30 4689 H 427.497 0.350572 -4.14621 0
M  V30 4690 H 426.373 0.903486 -5.41413 0
M  V30 4691 H 426.634 1.90047 -3.99167 0
M  V30 4692 N 425.693 1.55336 -0.266172 0
M  V30 4693 C 426.97 1.91372 0.404486 0
M  V30 4694 C 427.35 1.18935 1.74407 0
M  V30 4695 O 426.698 0.3132 2.26343 0
M  V30 4696 C 426.908 3.44581 0.553593 0
M  V30 4697 C 428.256 4.16196 0.840618 0
M  V30 4698 O 429.28 3.50426 0.638739 0
M  V30 4699 O 428.139 5.32567 1.22618 0
M  V30 4700 H 425.233 0.797194 0.220025 0
M  V30 4701 H 427.779 1.66813 -0.311664 0
M  V30 4702 H 426.551 3.89357 -0.389498 0
M  V30 4703 H 426.174 3.75065 1.31955 0
M  V30 4704 N 427.171 -0.0066808 1.57599 0
M  V30 4705 C 428.134 -0.985035 2.06953 0
M  V30 4706 C 429.134 -1.27663 0.977687 0
M  V30 4707 O 430.324 -1.22293 1.24057 0
M  V30 4708 C 427.456 -2.3118 2.50536 0
M  V30 4709 H 428.649 -0.558255 2.94658 0
M  V30 4710 H 426.202 -0.254011 1.54222 0
M  V30 4711 H 426.937 -2.78561 1.66054 0
M  V30 4712 H 426.722 -2.11338 3.3027 0
M  V30 4713 H 428.212 -3.01377 2.8907 0
M  V30 4714 N 428.649 -1.55105 -0.279332 0
M  V30 4715 C 430.065 -1.46803 -0.626187 0
M  V30 4716 C 430.265 -0.676939 -1.89789 0
M  V30 4717 O 429.321 -0.19326 -2.51759 0
M  V30 4718 C 430.634 -2.90962 -0.759034 0
M  V30 4719 C 432.182 -3.01138 -0.853504 0
M  V30 4720 C 432.657 -4.46539 -1.01818 0
M  V30 4721 N 434.148 -4.50341 -1.08386 0
M  V30 4722 C 434.883 -5.60053 -1.22996 0
M  V30 4723 N 434.379 -6.79645 -1.34366 0
M  V30 4724 N 436.172 -5.47783 -1.26056 0
M  V30 4725 H 428.323 -2.04996 0.555921 0
M  V30 4726 H 430.586 -0.929325 0.187239 0
M  V30 4727 H 430.292 -3.51544 0.104852 0
M  V30 4728 H 430.166 -3.39619 -1.64131 0
M  V30 4729 H 432.553 -2.40658 -1.70786 0
M  V30 4730 H 432.634 -2.55745 0.0532466 0
M  V30 4731 H 432.278 -5.0762 -0.168504 0
M  V30 4732 H 432.208 -4.89583 -1.93948 0
M  V30 4733 H 434.699 -3.64191 -1.00864 0
M  V30 4734 H 435.012 -7.59012 -1.4533 0
M  V30 4735 H 433.357 -6.82469 -1.31382 0
M  V30 4736 H 436.548 -4.53294 -1.168 0
M  V30 4737 H 436.721 -6.33331 -1.37098 0
M  V30 4738 N 430.127 0.543554 -1.4793 0
M  V30 4739 C 431.074 1.64942 -1.6144 0
M  V30 4740 C 432.044 1.59692 -0.456903 0
M  V30 4741 O 433.229 1.78321 -0.678688 0
M  V30 4742 C 430.369 3.03238 -1.64744 0
M  V30 4743 C 429.482 3.18823 -2.91506 0
M  V30 4744 C 428.617 4.47599 -2.86057 0
M  V30 4745 C 427.656 4.56664 -4.07584 0
M  V30 4746 N 426.793 5.76811 -4.00292 0
M  V30 4747 H 431.633 1.52733 -2.55884 0
M  V30 4748 H 429.17 0.7438 -1.2691 0
M  V30 4749 H 431.128 3.83339 -1.64641 0
M  V30 4750 H 429.758 3.1425 -0.738017 0
M  V30 4751 H 428.81 2.32064 -3.01414 0
M  V30 4752 H 430.122 3.21384 -3.81463 0
M  V30 4753 H 429.276 5.35975 -2.84281 0
M  V30 4754 H 428.015 4.47538 -1.93807 0
M  V30 4755 H 427.02 3.66697 -4.09651 0
M  V30 4756 H 428.245 4.58474 -5.00978 0
M  V30 4757 H 426.191 5.77673 -3.10853 0
M  V30 4758 H 426.108 5.80808 -4.8394 0
M  V30 4759 H 427.376 6.67512 -4.02553 0
M  V30 4760 N 431.605 1.3629 0.791371 0
M  V30 4761 C 433.016 1.27225 1.36641 0
M  V30 4762 C 433.367 -0.0887968 1.95999 0
M  V30 4763 O 432.492 -0.990207 1.92416 0
M  V30 4764 C 433.087 2.30375 2.48421 0
M  V30 4765 C 431.646 2.25004 3.01746 0
M  V30 4766 C 430.793 2.15259 1.7481 0
M  V30 4767 H 433.744 1.47198 0.593173 0
M  V30 4768 H 433.765 1.93905 3.27385 0
M  V30 4769 H 433.277 3.29422 2.05189 0
M  V30 4770 H 431.378 1.29417 3.49403 0
M  V30 4771 H 431.491 3.1761 3.58693 0
M  V30 4772 H 429.855 1.61482 1.96966 0
M  V30 4773 H 430.638 3.16191 1.33709 0
M  V30 4774 N 433.083 -1.0153 1.20538 0
M  V30 4775 C 434.013 -2.11972 0.979295 0
M  V30 4776 C 434.994 -1.6985 -0.0921787 0
M  V30 4777 O 436.179 -1.94089 0.0655932 0
M  V30 4778 C 433.309 -3.43201 0.531984 0
M  V30 4779 C 432.263 -3.9907 1.54685 0
M  V30 4780 C 431.589 -5.26082 0.956127 0
M  V30 4781 C 432.889 -4.32313 2.93092 0
M  V30 4782 H 434.583 -2.31143 1.90298 0
M  V30 4783 H 432.129 -1.11079 0.916372 0
M  V30 4784 H 434.082 -4.1985 0.361044 0
M  V30 4785 H 432.806 -3.23792 -0.427327 0
M  V30 4786 H 431.465 -3.2453 1.70517 0
M  V30 4787 H 431.113 -5.02999 -0.0111538 0
M  V30 4788 H 430.813 -5.64426 1.63393 0
M  V30 4789 H 432.337 -6.05386 0.796284 0
M  V30 4790 H 433.751 -4.99845 2.80763 0
M  V30 4791 H 432.148 -4.81774 3.57791 0
M  V30 4792 H 433.218 -3.41025 3.44717 0
M  V30 4793 N 434.561 -1.01147 -1.20859 0
M  V30 4794 C 435.808 -0.697865 -1.90095 0
M  V30 4795 C 436.136 0.772014 -1.78522 0
M  V30 4796 O 435.391 1.57595 -1.16027 0
M  V30 4797 C 435.69 -1.0727 -3.40922 0
M  V30 4798 C 435.356 -2.53792 -3.72693 0
M  V30 4799 C 434.018 -2.93829 -3.81075 0
M  V30 4800 C 436.37 -3.48674 -3.87397 0
M  V30 4801 C 433.698 -4.27696 -4.01613 0
M  V30 4802 C 436.05 -4.82223 -4.09444 0
M  V30 4803 C 434.714 -5.21973 -4.16054 0
M  V30 4804 H 433.984 -0.255367 -0.695607 0
M  V30 4805 H 436.631 -1.27111 -1.43231 0
M  V30 4806 H 434.936 -0.417799 -3.89566 0
M  V30 4807 H 436.633 -0.807818 -3.92779 0
M  V30 4808 H 433.223 -2.21768 -3.66765 0
M  V30 4809 H 437.407 -3.18904 -3.80281 0
M  V30 4810 H 432.663 -4.58055 -4.04964 0
M  V30 4811 H 436.837 -5.55672 -4.19763 0
M  V30 4812 H 434.464 -6.25717 -4.31721 0
M  V30 4813 N 436.039 1.36541 -0.78704 0
M  V30 4814 C 437.286 1.99304 -0.358341 0
M  V30 4815 C 437.614 1.62467 1.06933 0
M  V30 4816 O 436.869 0.870019 1.75297 0
M  V30 4817 C 437.168 3.54343 -0.466485 0
M  V30 4818 C 436.834 4.10993 -1.85461 0
M  V30 4819 C 435.496 4.26177 -2.23443 0
M  V30 4820 C 437.848 4.41895 -2.76366 0
M  V30 4821 C 435.176 4.69573 -3.51736 0
M  V30 4822 C 437.528 4.86722 -4.04084 0
M  V30 4823 C 436.192 5.00112 -4.42091 0
M  V30 4824 H 435.462 0.729306 -0.131126 0
M  V30 4825 H 438.109 1.63068 -1.00404 0
M  V30 4826 H 436.414 3.90918 0.262719 0
M  V30 4827 H 438.111 4.00833 -0.115854 0
M  V30 4828 H 434.701 3.99612 -1.54946 0
M  V30 4829 H 438.885 4.29735 -2.48277 0
M  V30 4830 H 434.141 4.78127 -3.81057 0
M  V30 4831 H 438.315 5.09598 -4.7464 0
M  V30 4832 H 435.942 5.33498 -5.41557 0
M  V30 4833 N 437.518 0.538854 1.48102 0
M  V30 4834 C 438.766 0.00798599 2.02098 0
M  V30 4835 C 439.087 -1.33922 1.41739 0
M  V30 4836 O 438.357 -1.86932 0.585934 0
M  V30 4837 H 436.937 -3.62179e-05 0.747 0
M  V30 4838 H 439.599 0.7047 1.81714 0
M  V30 4839 H 438.695 -0.0937672 3.11959 0
M  V30 4840 N 438.996 -1.55193 0.274407 0
M  V30 4841 C 439.906 -2.26164 -0.623473 0
M  V30 4842 C 440.922 -1.28729 -1.17068 0
M  V30 4843 O 442.098 -1.61663 -1.20112 0
M  V30 4844 C 439.163 -2.96833 -1.7914 0
M  V30 4845 C 438.224 -4.09745 -1.28093 0
M  V30 4846 C 437.457 -4.77034 -2.3932 0
M  V30 4847 O 437.68 -4.4353 -3.5866 0
M  V30 4848 O 436.614 -5.64996 -2.07516 0
M  V30 4849 H 440.44 -3.03661 -0.0485661 0
M  V30 4850 H 438.025 -1.49341 0.0418382 0
M  V30 4851 H 439.907 -3.41248 -2.4724 0
M  V30 4852 H 438.582 -2.22253 -2.35341 0
M  V30 4853 H 437.489 -3.69787 -0.566416 0
M  V30 4854 H 438.822 -4.86224 -0.764683 0
M  V30 4855 N 440.474 -0.00167713 -1.576 0
M  V30 4856 C 441.722 0.681471 -1.90264 0
M  V30 4857 C 442.043 1.7422 -0.875924 0
M  V30 4858 O 441.313 1.95709 0.0864412 0
M  V30 4859 H 439.893 0.254696 -0.702239 0
M  V30 4860 H 442.555 -0.0429996 -1.94853 0
M  V30 4861 H 441.651 1.15166 -2.90075 0
M  V30 4862 N 441.952 1.55251 0.271103 0
M  V30 4863 C 443.18 1.79974 1.02064 0
M  V30 4864 C 443.595 0.574003 1.79863 0
M  V30 4865 O 442.952 -0.456962 1.76686 0
M  V30 4866 C 443.003 3.02603 1.97772 0
M  V30 4867 O 442.724 4.20443 1.23124 0
M  V30 4868 C 444.225 3.39944 2.84522 0
M  V30 4869 H 441.445 0.599489 0.301419 0
M  V30 4870 H 443.989 2.02268 0.301313 0
M  V30 4871 H 442.144 2.8243 2.65165 0
M  V30 4872 H 442.558 4.89783 1.87651 0
M  V30 4873 H 444.032 4.28915 3.47471 0
M  V30 4874 H 444.509 2.59432 3.54389 0
M  V30 4875 H 445.115 3.62383 2.22618 0
M  V30 4876 N 443.43 -0.535701 1.48216 0
M  V30 4877 C 444.676 -1.29375 1.56173 0
M  V30 4878 C 445.009 -1.92804 0.232429 0
M  V30 4879 O 444.284 -1.78992 -0.761048 0
M  V30 4880 C 444.567 -2.38747 2.69577 0
M  V30 4881 C 444.42 -1.80046 4.12193 0
M  V30 4882 C 445.739 -3.40551 2.78771 0
M  V30 4883 H 442.858 -0.469027 0.568491 0
M  V30 4884 H 445.5 -0.597358 1.80365 0
M  V30 4885 H 443.65 -2.98147 2.4908 0
M  V30 4886 H 445.322 -1.24742 4.44114 0
M  V30 4887 H 443.565 -1.10609 4.19462 0
M  V30 4888 H 444.236 -2.59212 4.87353 0
M  V30 4889 H 446.712 -2.91099 2.97322 0
M  V30 4890 H 445.588 -4.1448 3.59857 0
M  V30 4891 H 445.849 -4.00746 1.86696 0
M  V30 4892 N 444.908 -1.36708 -0.784132 0
M  V30 4893 C 445.838 -1.34153 -1.91116 0
M  V30 4894 C 446.819 -0.212121 -1.68772 0
M  V30 4895 O 448.004 -0.410581 -1.8981 0
M  V30 4896 C 445.134 -1.13535 -3.28218 0
M  V30 4897 C 444.088 -2.23356 -3.65097 0
M  V30 4898 C 443.414 -1.87875 -5.00607 0
M  V30 4899 C 444.714 -3.65473 -3.73131 0
M  V30 4900 H 446.408 -2.28459 -1.93512 0
M  V30 4901 H 443.954 -1.09973 -0.929618 0
M  V30 4902 H 445.907 -1.10381 -4.06687 0
M  V30 4903 H 444.631 -0.156804 -3.26223 0
M  V30 4904 H 443.29 -2.25645 -2.88929 0
M  V30 4905 H 442.938 -0.885814 -4.95139 0
M  V30 4906 H 442.638 -2.61406 -5.26252 0
M  V30 4907 H 444.162 -1.86286 -5.81489 0
M  V30 4908 H 445.576 -3.65382 -4.41779 0
M  V30 4909 H 443.973 -4.37953 -4.10265 0
M  V30 4910 H 445.043 -3.99995 -2.74102 0
M  V30 4911 N 446.386 1.0089 -1.21074 0
M  V30 4912 C 447.802 1.2695 -0.967257 0
M  V30 4913 C 448.002 1.9846 0.348673 0
M  V30 4914 O 447.058 2.28459 1.0753 0
M  V30 4915 C 448.371 2.09697 -2.15517 0
M  V30 4916 C 449.919 2.22937 -2.197 0
M  V30 4917 C 450.394 3.09064 -3.37999 0
M  V30 4918 N 451.885 3.16653 -3.38061 0
M  V30 4919 C 452.62 3.8354 -4.26245 0
M  V30 4920 N 452.116 4.52488 -5.2462 0
M  V30 4921 N 453.909 3.80141 -4.14064 0
M  V30 4922 H 446.06 0.529005 -2.05707 0
M  V30 4923 H 448.323 0.296148 -0.900556 0
M  V30 4924 H 448.029 1.64497 -3.10859 0
M  V30 4925 H 447.903 3.10444 -2.14253 0
M  V30 4926 H 450.29 2.67357 -1.24916 0
M  V30 4927 H 450.371 1.21673 -2.2501 0
M  V30 4928 H 450.015 2.65347 -4.33074 0
M  V30 4929 H 449.945 4.10433 -3.29928 0
M  V30 4930 H 452.436 2.67566 -2.66865 0
M  V30 4931 H 452.749 5.01219 -5.88217 0
M  V30 4932 H 451.094 4.51288 -5.28549 0
M  V30 4933 H 454.285 3.25427 -3.36474 0
M  V30 4934 H 454.458 4.31992 -4.82998 0
M  V30 4935 N 447.864 1.01787 1.20321 0
M  V30 4936 C 448.796 0.547357 2.22568 0
M  V30 4937 C 449.809 -0.370922 1.58518 0
M  V30 4938 O 450.998 -0.169067 1.77698 0
M  V30 4939 C 448.098 -0.223031 3.38165 0
M  V30 4940 C 447.271 0.697472 4.31803 0
M  V30 4941 C 446.33 -0.025562 5.26194 0
M  V30 4942 O 445.356 0.597367 5.66057 0
M  V30 4943 N 446.558 -1.29999 5.65757 0
M  V30 4944 H 449.323 1.42668 2.63564 0
M  V30 4945 H 446.884 0.895552 1.34876 0
M  V30 4946 H 448.876 -0.716002 3.98316 0
M  V30 4947 H 447.446 -1.00366 2.9605 0
M  V30 4948 H 446.666 1.37073 3.69601 0
M  V30 4949 H 447.954 1.32347 4.91286 0
M  V30 4950 H 447.352 -1.827 5.35385 0
M  V30 4951 H 445.909 -1.73766 6.28211 0
M  V30 4952 N 449.342 -1.36122 0.79427 0
M  V30 4953 C 450.588 -1.99406 0.369452 0
M  V30 4954 C 450.921 -1.62886 -1.05743 0
M  V30 4955 O 450.196 -0.886053 -1.73145 0
M  V30 4956 C 450.479 -3.56046 0.538833 0
M  V30 4957 C 450.332 -4.02404 2.00976 0
M  V30 4958 C 451.651 -4.40079 -0.0431359 0
M  V30 4959 H 448.77 -0.724397 0.135712 0
M  V30 4960 H 451.412 -1.61461 1.00151 0
M  V30 4961 H 449.562 -3.885 0.000771004 0
M  V30 4962 H 451.234 -3.80415 2.60926 0
M  V30 4963 H 449.477 -3.53765 2.51063 0
M  V30 4964 H 450.148 -5.11344 2.07922 0
M  V30 4965 H 452.624 -4.14013 0.416228 0
M  V30 4966 H 451.5 -5.48799 0.105374 0
M  V30 4967 H 451.761 -4.27264 -1.13571 0
M  V30 4968 N 450.82 -0.546701 -1.47814 0
M  V30 4969 C 452.097 0.0464413 -1.95545 0
M  V30 4970 C 452.477 1.4962 -1.48919 0
M  V30 4971 O 451.825 2.16752 -0.723232 0
M  V30 4972 C 452.035 -0.0881298 -3.48889 0
M  V30 4973 C 453.383 0.0626059 -4.24554 0
M  V30 4974 O 454.407 -0.0151555 -3.56197 0
M  V30 4975 O 453.266 0.228071 -5.46024 0
M  V30 4976 H 450.36 0.0700004 -0.824032 0
M  V30 4977 H 452.906 -0.612482 -1.58262 0
M  V30 4978 H 451.678 -1.09737 -3.75597 0
M  V30 4979 H 451.301 0.608886 -3.9291 0
M  V30 4980 N 452.299 1.55045 -0.282633 0
M  V30 4981 C 453.527 2.04168 0.33512 0
M  V30 4982 C 453.942 1.16071 1.48906 0
M  V30 4983 O 453.299 0.182391 1.81586 0
M  V30 4984 C 453.35 3.52332 0.808957 0
M  V30 4985 O 453.071 4.37078 -0.299038 0
M  V30 4986 C 454.572 4.17375 1.49375 0
M  V30 4987 H 451.792 0.666744 0.0754543 0
M  V30 4988 H 454.336 2.00205 -0.416918 0
M  V30 4989 H 452.491 3.56715 1.51106 0
M  V30 4990 H 452.905 5.24458 0.0665514 0
M  V30 4991 H 454.379 5.22627 1.77664 0
M  V30 4992 H 454.856 3.65999 2.42778 0
M  V30 4993 H 455.462 4.17016 0.835305 0
M  V30 4994 N 453.777 0.010035 1.57597 0
M  V30 4995 C 454.724 -0.978122 2.09049 0
M  V30 4996 C 455.694 -1.33509 0.988159 0
M  V30 4997 O 456.879 -1.43172 1.26121 0
M  V30 4998 C 454.019 -2.26158 2.60666 0
M  V30 4999 C 453.132 -1.96275 3.84838 0
M  V30 5000 C 452.267 -3.18776 4.24918 0
M  V30 5001 C 451.306 -2.84625 5.41899 0
M  V30 5002 N 450.443 -3.99693 5.77226 0
M  V30 5003 H 455.283 -0.532431 2.93205 0
M  V30 5004 H 452.82 -0.251234 1.44939 0
M  V30 5005 H 454.778 -3.01202 2.88675 0
M  V30 5006 H 453.408 -2.68378 1.79369 0
M  V30 5007 H 452.46 -1.11555 3.63675 0
M  V30 5008 H 453.772 -1.67111 4.69974 0
M  V30 5009 H 452.926 -4.02157 4.54262 0
M  V30 5010 H 451.665 -3.51087 3.38511 0
M  V30 5011 H 450.67 -1.99653 5.12268 0
M  V30 5012 H 451.895 -2.53551 6.29991 0
M  V30 5013 H 449.841 -4.31882 4.93776 0
M  V30 5014 H 449.758 -3.74087 6.56959 0
M  V30 5015 H 451.026 -4.83834 6.11167 0
M  V30 5016 N 455.255 -1.55392 -0.262866 0
M  V30 5017 C 456.483 -1.80513 -1.01108 0
M  V30 5018 C 456.898 -0.583533 -1.79556 0
M  V30 5019 O 456.255 0.447585 -1.76926 0
M  V30 5020 C 456.306 -3.03648 -1.96164 0
M  V30 5021 O 456.027 -4.2109 -1.20893 0
M  V30 5022 C 457.528 -3.41448 -2.82715 0
M  V30 5023 H 454.748 -0.601079 -0.298236 0
M  V30 5024 H 457.292 -2.02425 -0.290582 0
M  V30 5025 H 455.447 -2.83832 -2.63663 0
M  V30 5026 H 455.861 -4.90771 -1.85051 0
M  V30 5027 H 457.335 -4.30751 -3.45192 0
M  V30 5028 H 457.812 -2.61308 -3.53008 0
M  V30 5029 H 458.418 -3.63559 -2.20693 0
M  V30 5030 N 456.733 0.527833 -1.48498 0
M  V30 5031 C 457.981 1.28101 -1.56316 0
M  V30 5032 C 458.302 1.9352 -0.239781 0
M  V30 5033 O 457.572 1.81433 0.738849 0
M  V30 5034 H 456.152 0.475793 -0.575873 0
M  V30 5035 H 458.814 0.614052 -1.84974 0
M  V30 5036 H 457.91 2.05916 -2.34532 0
M  V30 5037 N 458.211 1.37122 0.776871 0
M  V30 5038 C 459.158 1.3247 1.88998 0
M  V30 5039 C 460.128 0.191143 1.64997 0
M  V30 5040 O 461.313 0.379683 1.86984 0
M  V30 5041 C 458.453 1.13241 3.25992 0
M  V30 5042 C 457.566 2.35782 3.61982 0
M  V30 5043 C 456.701 2.09465 4.88158 0
M  V30 5044 C 455.74 3.279 5.16864 0
M  V30 5045 N 454.877 3.01167 6.34226 0
M  V30 5046 H 459.717 2.27642 1.9231 0
M  V30 5047 H 457.254 1.13125 0.94027 0
M  V30 5048 H 459.212 1.00115 4.0501 0
M  V30 5049 H 457.842 0.217186 3.22069 0
M  V30 5050 H 456.894 2.59666 2.77989 0
M  V30 5051 H 458.206 3.24125 3.79137 0
M  V30 5052 H 457.36 1.93341 5.75069 0
M  V30 5053 H 456.099 1.18452 4.73097 0
M  V30 5054 H 455.104 3.44569 4.2843 0
M  V30 5055 H 456.329 4.19757 5.33836 0
M  V30 5056 H 454.275 2.12779 6.20533 0
M  V30 5057 H 454.192 3.83052 6.51772 0
M  V30 5058 H 455.46 2.88649 7.24087 0
M  V30 5059 N 459.689 -1.00246 1.21608 0
M  V30 5060 C 460.619 -2.10921 1.00172 0
M  V30 5061 C 461.6 -1.69938 -0.0741587 0
M  V30 5062 O 462.785 -1.94009 0.0861753 0
M  V30 5063 C 459.915 -3.42618 0.568355 0
M  V30 5064 C 458.869 -3.97407 1.58909 0
M  V30 5065 C 458.195 -5.25038 1.01187 0
M  V30 5066 C 459.495 -4.2918 2.97661 0
M  V30 5067 H 461.189 -2.29112 1.92739 0
M  V30 5068 H 458.735 -1.10101 0.928102 0
M  V30 5069 H 460.688 -4.19444 0.405555 0
M  V30 5070 H 459.412 -3.24227 -0.392961 0
M  V30 5071 H 458.071 -3.22703 1.73949 0
M  V30 5072 H 457.719 -5.02982 0.0421965 0
M  V30 5073 H 457.419 -5.62661 1.6937 0
M  V30 5074 H 458.943 -6.04507 0.860448 0
M  V30 5075 H 460.357 -4.96839 2.86049 0
M  V30 5076 H 458.754 -4.77952 3.6288 0
M  V30 5077 H 459.824 -3.3735 3.48315 0
M  V30 5078 N 461.167 -1.02423 -1.1978 0
M  V30 5079 C 462.114 -0.601023 -2.22837 0
M  V30 5080 C 463.084 0.382801 -1.61629 0
M  V30 5081 O 464.269 0.280514 -1.88727 0
M  V30 5082 C 461.409 0.0467755 -3.45068 0
M  V30 5083 C 460.522 -0.98253 -4.20678 0
M  V30 5084 C 459.657 -0.304982 -5.30324 0
M  V30 5085 C 458.696 -1.32052 -5.97686 0
M  V30 5086 N 457.833 -0.669105 -6.98904 0
M  V30 5087 H 462.673 -1.48444 -2.58396 0
M  V30 5088 H 460.21 -0.742936 -1.2696 0
M  V30 5089 H 462.168 0.439556 -4.14878 0
M  V30 5090 H 460.798 0.893796 -3.10179 0
M  V30 5091 H 459.85 -1.49341 -3.49859 0
M  V30 5092 H 461.162 -1.75455 -4.66923 0
M  V30 5093 H 460.316 0.142893 -6.06532 0
M  V30 5094 H 459.055 0.499283 -4.85138 0
M  V30 5095 H 458.06 -1.7787 -5.20233 0
M  V30 5096 H 459.285 -2.1262 -6.44957 0
M  V30 5097 H 457.231 0.115152 -6.55899 0
M  V30 5098 H 457.148 -1.37908 -7.43315 0
M  V30 5099 H 458.416 -0.245076 -7.79115 0
M  V30 5100 N 462.645 1.35699 -0.801477 0
M  V30 5101 C 463.894 1.98165 -0.375979 0
M  V30 5102 C 464.207 1.64306 1.06127 0
M  V30 5103 O 465.413 2.20097 1.58964 0
M  V30 5104 C 463.869 3.54497 -0.621305 0
M  V30 5105 C 463.477 3.9727 -2.07076 0
M  V30 5106 C 465.221 4.23697 -0.26091 0
M  V30 5107 C 463.128 5.46427 -2.26211 0
M  V30 5108 H 462.058 0.741478 -0.136844 0
M  V30 5109 H 464.709 1.54834 -0.984814 0
M  V30 5110 H 463.091 3.95958 0.0574112 0
M  V30 5111 H 464.265 3.66974 -2.78687 0
M  V30 5112 H 462.58 3.40943 -2.39054 0
M  V30 5113 H 465.177 5.33334 -0.381994 0
M  V30 5114 H 465.52 4.0869 0.792344 0
M  V30 5115 H 466.053 3.87639 -0.893339 0
M  V30 5116 H 462.792 5.66396 -3.29963 0
M  V30 5117 H 462.312 5.78309 -1.59119 0
M  V30 5118 H 463.991 6.12819 -2.07513 0
M  V30 5119 N 464.123 0.554532 1.47522 0
M  V30 5120 C 465.371 0.0294208 2.02079 0
M  V30 5121 C 465.692 -1.32411 1.43151 0
M  V30 5122 O 464.962 -1.863 0.605728 0
M  V30 5123 H 463.542 0.00788672 0.746958 0
M  V30 5124 H 466.204 0.723934 1.80956 0
M  V30 5125 H 465.3 -0.0606745 3.12041 0
M  V30 5126 N 465.601 -1.54893 0.290851 0
M  V30 5127 C 466.829 -2.04343 -0.324288 0
M  V30 5128 C 467.244 -1.16859 -1.48289 0
M  V30 5129 O 466.601 -0.192018 -1.81487 0
M  V30 5130 C 466.652 -3.52756 -0.79026 0
M  V30 5131 O 466.373 -4.36913 0.322213 0
M  V30 5132 C 467.874 -4.18161 -1.4716 0
M  V30 5133 H 465.094 -0.667135 -0.0719173 0
M  V30 5134 H 467.638 -1.99981 0.427529 0
M  V30 5135 H 465.793 -3.57511 -1.49213 0
M  V30 5136 H 466.207 -5.24486 -0.0387372 0
M  V30 5137 H 467.681 -5.23562 -1.7489 0
M  V30 5138 H 468.158 -3.67282 -2.40834 0
M  V30 5139 H 468.764 -4.17454 -0.813178 0
M  V30 5140 N 467.08 -0.0183926 -1.57589 0
M  V30 5141 C 468.31 0.67207 -1.95363 0
M  V30 5142 C 468.718 1.66807 -0.892872 0
M  V30 5143 O 468.061 1.83204 0.134958 0
M  V30 5144 C 468.123 1.44397 -3.29226 0
M  V30 5145 C 467.787 0.607511 -4.52944 0
M  V30 5146 C 468.784 -0.112657 -5.19778 0
M  V30 5147 C 466.469 0.548068 -4.99301 0
M  V30 5148 C 468.463 -0.881057 -6.31281 0
M  V30 5149 C 466.15 -0.224044 -6.10689 0
M  V30 5150 C 467.148 -0.937323 -6.76538 0
M  V30 5151 O 466.836 -1.6968 -7.85789 0
M  V30 5152 H 466.568 0.190925 -0.648478 0
M  V30 5153 H 469.122 -0.0711994 -2.05277 0
M  V30 5154 H 467.352 2.23214 -3.15773 0
M  V30 5155 H 469.041 2.02152 -3.51979 0
M  V30 5156 H 469.807 -0.0759998 -4.8494 0
M  V30 5157 H 465.686 1.09281 -4.4786 0
M  V30 5158 H 469.23 -1.43832 -6.82611 0
M  V30 5159 H 465.127 -0.262457 -6.44966 0
M  V30 5160 H 465.895 -1.61544 -8.024 0
M  V30 5161 N 468.558 1.5553 0.254621 0
M  V30 5162 C 469.786 1.81046 1.00149 0
M  V30 5163 C 470.201 0.593047 1.79244 0
M  V30 5164 O 469.558 -0.438196 1.77161 0
M  V30 5165 C 469.609 3.04684 1.94551 0
M  V30 5166 O 469.33 4.21725 1.18658 0
M  V30 5167 C 470.831 3.42943 2.80901 0
M  V30 5168 H 468.051 0.602653 0.295044 0
M  V30 5169 H 470.595 2.02576 0.279842 0
M  V30 5170 H 468.75 2.85226 2.62154 0
M  V30 5171 H 469.164 4.91746 1.82445 0
M  V30 5172 H 470.638 4.32576 3.42902 0
M  V30 5173 H 471.115 2.63176 3.51617 0
M  V30 5174 H 471.721 3.64724 2.18762 0
M  V30 5175 N 470.036 -0.519951 1.48776 0
M  V30 5176 C 471.284 -1.2727 1.56993 0
M  V30 5177 C 471.605 -1.9339 0.25004 0
M  V30 5178 O 470.875 -1.81822 -0.729216 0
M  V30 5179 H 469.455 -0.472732 0.578389 0
M  V30 5180 H 472.117 -0.604234 1.85297 0
M  V30 5181 H 471.213 -2.04669 2.3562 0
M  V30 5182 N 471.514 -1.37532 -0.769588 0
M  V30 5183 C 472.925 -1.29382 -1.346 0
M  V30 5184 C 473.276 0.0576039 -1.96115 0
M  V30 5185 O 472.401 0.95947 -1.93967 0
M  V30 5186 C 472.996 -2.34298 -2.44724 0
M  V30 5187 C 471.555 -2.29776 -2.98128 0
M  V30 5188 C 470.702 -2.18013 -1.71364 0
M  V30 5189 H 473.653 -1.48123 -0.56968 0
M  V30 5190 H 473.674 -1.99089 -3.24259 0
M  V30 5191 H 473.186 -3.32645 -1.99922 0
M  V30 5192 H 471.287 -1.34959 -3.47299 0
M  V30 5193 H 471.4 -3.23276 -3.53595 0
M  V30 5194 H 469.764 -1.64595 -1.94372 0
M  V30 5195 H 470.547 -3.18278 -1.28662 0
M  V30 5196 N 472.992 0.995999 -1.22138 0
M  V30 5197 C 473.922 2.10387 -1.01289 0
M  V30 5198 C 474.903 1.69975 0.0651454 0
M  V30 5199 O 476.088 1.9396 -0.0964628 0
M  V30 5200 C 473.218 3.42312 -0.586517 0
M  V30 5201 C 472.172 3.96558 -1.61014 0
M  V30 5202 C 471.498 5.24494 -1.0397 0
M  V30 5203 C 472.798 4.27595 -2.99933 0
M  V30 5204 H 474.492 2.28086 -1.93951 0
M  V30 5205 H 472.038 1.09607 -0.933928 0
M  V30 5206 H 473.991 4.19223 -0.427793 0
M  V30 5207 H 472.715 3.24431 0.375761 0
M  V30 5208 H 471.374 3.21776 -1.75658 0
M  V30 5209 H 471.022 5.02953 -0.0688703 0
M  V30 5210 H 470.722 5.61755 -1.72352 0
M  V30 5211 H 472.246 6.04042 -0.892494 0
M  V30 5212 H 473.66 4.95315 -2.8868 0
M  V30 5213 H 472.057 4.76021 -3.6541 0
M  V30 5214 H 473.127 3.35498 -3.50099 0
M  V30 5215 N 474.47 1.03057 1.19235 0
M  V30 5216 C 475.402 0.570932 2.21975 0
M  V30 5217 C 476.415 -0.354088 1.58903 0
M  V30 5218 O 477.604 -0.150211 1.77867 0
M  V30 5219 C 474.704 -0.187152 3.38383 0
M  V30 5220 C 473.877 0.743231 4.31039 0
M  V30 5221 C 472.936 0.0302493 5.26191 0
M  V30 5222 O 471.962 0.657371 5.65391 0
M  V30 5223 N 473.164 -1.23991 5.67104 0
M  V30 5224 H 475.929 1.45456 2.62036 0
M  V30 5225 H 473.49 0.909807 1.33918 0
M  V30 5226 H 475.482 -0.673715 3.99053 0
M  V30 5227 H 474.052 -0.972205 2.97098 0
M  V30 5228 H 473.272 1.40985 3.68126 0
M  V30 5229 H 474.56 1.3755 4.89854 0
M  V30 5230 H 473.958 -1.77011 5.37293 0
M  V30 5231 H 472.515 -1.67093 6.30018 0
M  V30 5232 N 475.948 -1.35272 0.808662 0
M  V30 5233 C 476.898 -2.27181 0.193124 0
M  V30 5234 C 477.882 -1.47871 -0.634265 0
M  V30 5235 O 479.074 -1.70048 -0.491182 0
M  V30 5236 C 476.203 -3.36979 -0.655751 0
M  V30 5237 C 475.289 -4.23712 0.181481 0
M  V30 5238 N 475.68 -4.90225 1.24551 0
M  V30 5239 C 473.978 -4.45985 -0.0365493 0
M  V30 5240 C 474.679 -5.54537 1.75682 0
M  V30 5241 N 473.655 -5.33107 1.06294 0
M  V30 5242 H 477.457 -2.76101 1.00724 0
M  V30 5243 H 474.971 -1.48823 0.650029 0
M  V30 5244 H 476.968 -4.01774 -1.11279 0
M  V30 5245 H 475.628 -2.89611 -1.46819 0
M  V30 5246 H 476.639 -4.91641 1.62818 0
M  V30 5247 H 473.316 -4.09409 -0.817964 0
M  V30 5248 H 474.706 -6.17597 2.64621 0
M  V30 5249 N 477.426 -0.562348 -1.47226 0
M  V30 5250 C 478.674 -0.0401371 -2.0206 0
M  V30 5251 C 478.995 1.3165 -1.43852 0
M  V30 5252 O 478.265 1.85976 -0.615599 0
M  V30 5253 H 476.845 -0.0118479 -0.746906 0
M  V30 5254 H 479.507 -0.73352 -1.8057 0
M  V30 5255 H 478.603 0.0441254 -3.12069 0
M  V30 5256 N 478.904 1.54736 -0.299062 0
M  V30 5257 C 480.153 1.99279 0.311549 0
M  V30 5258 C 480.466 1.19107 1.55154 0
M  V30 5259 O 481.672 1.53908 2.23662 0
M  V30 5260 C 480.128 3.54768 0.605632 0
M  V30 5261 C 479.736 4.43746 -0.615914 0
M  V30 5262 C 481.48 4.07841 1.17754 0
M  V30 5263 C 479.387 5.90663 -0.29509 0
M  V30 5264 H 478.317 0.744359 0.120187 0
M  V30 5265 H 480.968 1.78919 -0.407464 0
M  V30 5266 H 479.35 3.71021 1.38419 0
M  V30 5267 H 480.524 4.39267 -1.39218 0
M  V30 5268 H 478.839 4.01434 -1.10633 0
M  V30 5269 H 481.436 5.15174 1.43179 0
M  V30 5270 H 481.779 3.58324 2.11918 0
M  V30 5271 H 482.312 3.95123 0.460739 0
M  V30 5272 H 479.051 6.44325 -1.20524 0
M  V30 5273 H 478.571 5.98155 0.44394 0
M  V30 5274 H 480.25 6.46916 0.104048 0
M  V30 5275 N 480.382 0.0267497 1.57577 0
M  V30 5276 C 481.628 -0.653371 1.91987 0
M  V30 5277 C 481.961 -1.71915 0.903263 0
M  V30 5278 O 481.236 -1.94358 -0.0743387 0
M  V30 5279 C 481.519 -1.272 3.36886 0
M  V30 5280 C 481.372 -0.215938 4.49281 0
M  V30 5281 C 482.691 -2.19069 3.81703 0
M  V30 5282 H 479.81 -0.236047 0.698177 0
M  V30 5283 H 482.452 0.0835236 1.89816 0
M  V30 5284 H 480.602 -1.90005 3.38866 0
M  V30 5285 H 482.274 0.41449 4.59434 0
M  V30 5286 H 480.517 0.458855 4.31366 0
M  V30 5287 H 481.188 -0.688347 5.47691 0
M  V30 5288 H 483.664 -1.66253 3.81444 0
M  V30 5289 H 482.54 -2.59307 4.83788 0
M  V30 5290 H 482.801 -3.08087 3.17072 0
M  V30 5291 N 481.861 -1.55662 -0.24637 0
M  V30 5292 C 483.091 -1.81312 -0.990438 0
M  V30 5293 C 483.499 -0.600234 -1.79426 0
M  V30 5294 O 482.842 0.440537 -1.78339 0
M  V30 5295 C 482.904 -3.0032 -1.97607 0
M  V30 5296 C 482.568 -4.36322 -1.35912 0
M  V30 5297 C 483.565 -5.14295 -0.761348 0
M  V30 5298 C 481.25 -4.83019 -1.37833 0
M  V30 5299 C 483.244 -6.37114 -0.190998 0
M  V30 5300 C 480.931 -6.05786 -0.804128 0
M  V30 5301 C 481.929 -6.82672 -0.211489 0
M  V30 5302 O 481.617 -8.03121 0.353845 0
M  V30 5303 H 481.349 -0.607233 -0.297058 0
M  V30 5304 H 483.903 -2.0356 -0.274351 0
M  V30 5305 H 482.133 -2.73829 -2.73047 0
M  V30 5306 H 483.822 -3.13057 -2.58361 0
M  V30 5307 H 484.588 -4.79337 -0.739013 0
M  V30 5308 H 480.467 -4.23165 -1.829 0
M  V30 5309 H 484.011 -6.97069 0.272206 0
M  V30 5310 H 479.908 -6.40222 -0.823792 0
M  V30 5311 H 480.676 -8.18131 0.245761 0
M  V30 5312 N 483.339 0.512053 -1.4905 0
M  V30 5313 C 484.564 1.2959 -1.6193 0
M  V30 5314 C 484.989 1.85906 -0.286454 0
M  V30 5315 O 484.347 1.65312 0.744426 0
M  V30 5316 C 484.395 2.40987 -2.68249 0
M  V30 5317 O 483.499 3.44531 -2.26654 0
M  V30 5318 H 482.84 0.383053 -0.542371 0
M  V30 5319 H 485.37 0.614231 -1.95162 0
M  V30 5320 H 485.38 2.86913 -2.90078 0
M  V30 5321 H 484.055 1.99361 -3.65004 0
M  V30 5322 H 482.632 3.046 -2.15112 0
M  V30 5323 N 484.817 1.37938 0.762283 0
M  V30 5324 C 486.065 1.33404 1.51815 0
M  V30 5325 C 486.386 -0.0780975 1.94844 0
M  V30 5326 O 485.656 -1.02405 1.67003 0
M  V30 5327 H 484.236 0.490839 0.563104 0
M  V30 5328 H 486.898 1.72527 0.906669 0
M  V30 5329 H 485.994 1.97926 2.41313 0
M  V30 5330 N 486.295 -0.989507 1.22664 0
M  V30 5331 C 487.543 -1.72612 1.05117 0
M  V30 5332 C 487.864 -1.90552 -0.414131 0
M  V30 5333 O 487.134 -1.4676 -1.29762 0
M  V30 5334 H 485.714 -0.639555 0.385977 0
M  V30 5335 H 488.376 -1.19158 1.54232 0
M  V30 5336 H 487.472 -2.71926 1.53175 0
M  V30 5337 N 487.773 -1.03688 -1.18687 0
M  V30 5338 C 488.998 -0.757819 -1.93059 0
M  V30 5339 C 489.423 0.678353 -1.75442 0
M  V30 5340 O 488.781 1.46938 -1.06203 0
M  V30 5341 C 488.829 -1.12423 -3.42627 0
M  V30 5342 O 487.933 -0.247505 -4.11657 0
M  V30 5343 H 487.274 -0.279245 -0.602427 0
M  V30 5344 H 489.804 -1.3857 -1.5053 0
M  V30 5345 H 489.814 -1.08454 -3.93322 0
M  V30 5346 H 488.489 -2.17049 -3.54771 0
M  V30 5347 H 487.066 -0.34649 -3.71287 0
M  V30 5348 N 489.251 1.34841 -0.815825 0
M  V30 5349 C 490.476 2.03261 -0.41226 0
M  V30 5350 C 490.901 1.61055 0.971751 0
M  V30 5351 O 490.259 0.7917 1.63101 0
M  V30 5352 C 490.307 3.56914 -0.514289 0
M  V30 5353 O 489.411 4.09728 0.468675 0
M  V30 5354 H 488.752 0.641664 -0.170771 0
M  V30 5355 H 491.282 1.72241 -1.10427 0
M  V30 5356 H 491.292 4.06156 -0.387457 0
M  V30 5357 H 489.967 3.86982 -1.52375 0
M  V30 5358 H 488.544 3.71681 0.301316 0
M  V30 5359 N 490.729 0.570148 1.46925 0
M  V30 5360 C 492.006 -0.0153259 1.95594 0
M  V30 5361 C 492.386 -1.47232 1.51281 0
M  V30 5362 O 491.734 -2.15574 0.757624 0
M  V30 5363 C 491.944 0.143624 3.48704 0
M  V30 5364 C 493.292 0.00494484 4.246 0
M  V30 5365 O 494.316 0.0718214 3.56128 0
M  V30 5366 O 493.175 -0.141175 5.46318 0
M  V30 5367 H 490.269 -0.0568819 0.825041 0
M  V30 5368 H 492.815 0.637583 1.57267 0
M  V30 5369 H 491.587 1.15699 3.73804 0
M  V30 5370 H 491.21 -0.5463 3.93829 0
M  V30 5371 N 492.207 -1.54576 0.307264 0
M  V30 5372 C 493.435 -2.04675 -0.302597 0
M  V30 5373 C 493.85 -1.18425 -1.47041 0
M  V30 5374 O 493.207 -0.211257 -1.81273 0
M  V30 5375 C 493.258 -3.53575 -0.752801 0
M  V30 5376 O 492.979 -4.36547 0.368536 0
M  V30 5377 C 494.48 -4.19699 -1.42717 0
M  V30 5378 H 491.7 -0.66786 -0.0648374 0
M  V30 5379 H 494.244 -1.99516 0.448716 0
M  V30 5380 H 492.399 -3.59074 -1.45412 0
M  V30 5381 H 492.813 -5.24497 0.0168937 0
M  V30 5382 H 494.287 -5.25388 -1.69327 0
M  V30 5383 H 494.764 -3.69815 -2.36925 0
M  V30 5384 H 495.37 -4.18293 -0.768856 0
M  V30 5385 N 493.685 -0.035106 -1.57561 0
M  V30 5386 C 494.934 0.641604 -1.91223 0
M  V30 5387 C 495.247 1.72944 -0.913761 0
M  V30 5388 O 496.453 2.46321 -1.14185 0
M  V30 5389 C 494.909 1.19249 -3.3957 0
M  V30 5390 C 494.517 0.137616 -4.47789 0
M  V30 5391 C 496.261 1.84537 -3.82291 0
M  V30 5392 C 494.168 0.700478 -5.87237 0
M  V30 5393 H 493.098 0.243417 -0.713627 0
M  V30 5394 H 495.749 -0.101382 -1.8322 0
M  V30 5395 H 494.131 1.98728 -3.42525 0
M  V30 5396 H 495.305 -0.635153 -4.56402 0
M  V30 5397 H 493.62 -0.416855 -4.14308 0
M  V30 5398 H 496.217 2.27616 -4.83834 0
M  V30 5399 H 496.56 2.69054 -3.17672 0
M  V30 5400 H 497.093 1.11739 -3.81784 0
M  V30 5401 H 493.832 -0.106693 -6.55413 0
M  V30 5402 H 493.352 1.4416 -5.82218 0
M  V30 5403 H 495.031 1.18837 -6.35993 0
M  V30 5404 N 495.163 1.55791 0.238111 0
M  V30 5405 C 496.403 1.79801 0.972163 0
M  V30 5406 C 496.767 0.606027 1.82185 0
M  V30 5407 O 497.968 0.725079 2.58836 0
M  V30 5408 C 496.239 3.08608 1.80266 0
M  V30 5409 S 497.798 3.53872 2.59461 0
M  V30 5410 H 494.616 0.631418 0.326852 0
M  V30 5411 H 497.218 1.94031 0.239212 0
M  V30 5412 H 495.922 3.93419 1.1683 0
M  V30 5413 H 495.453 2.9714 2.57821 0
M  V30 5414 H 497.468 3.15899 3.82651 0
M  V30 5415 N 496.642 -0.504142 1.49319 0
M  V30 5416 C 497.919 -1.26548 1.49147 0
M  V30 5417 C 498.299 -2.09977 0.21744 0
M  V30 5418 O 497.647 -2.14028 -0.800269 0
M  V30 5419 C 497.857 -2.12489 2.76857 0
M  V30 5420 C 499.205 -2.7178 3.26222 0
M  V30 5421 O 500.229 -2.22758 2.77952 0
M  V30 5422 O 499.088 -3.61015 4.10281 0
M  V30 5423 H 496.182 -0.572495 0.596806 0
M  V30 5424 H 498.728 -0.51867 1.61579 0
M  V30 5425 H 497.5 -1.50796 3.61077 0
M  V30 5426 H 497.123 -2.94368 2.6727 0
M  V30 5427 N 498.12 -1.38341 -0.754957 0
M  V30 5428 C 499.05 -1.38176 -1.88227 0
M  V30 5429 C 500.031 -0.247873 -1.68284 0
M  V30 5430 O 501.216 -0.45075 -1.88896 0
M  V30 5431 C 498.346 -1.20471 -3.25736 0
M  V30 5432 C 497.3 -2.3105 -3.60278 0
M  V30 5433 C 496.626 -1.98452 -4.96509 0
M  V30 5434 C 497.926 -3.73305 -3.65295 0
M  V30 5435 H 499.62 -2.32512 -1.88622 0
M  V30 5436 H 497.166 -1.1192 -0.906082 0
M  V30 5437 H 499.119 -1.18982 -4.04254 0
M  V30 5438 H 497.843 -0.225965 -3.25817 0
M  V30 5439 H 496.502 -2.31723 -2.84078 0
M  V30 5440 H 496.15 -0.990641 -4.93148 0
M  V30 5441 H 495.85 -2.7251 -5.20588 0
M  V30 5442 H 497.374 -1.98578 -5.77407 0
M  V30 5443 H 498.788 -3.7467 -4.3393 0
M  V30 5444 H 497.185 -4.46557 -4.00883 0
M  V30 5445 H 498.255 -4.05719 -2.65556 0
M  V30 5446 N 499.598 0.982988 -1.23187 0
M  V30 5447 C 500.528 2.09301 -1.03515 0
M  V30 5448 C 501.509 1.70035 0.0471136 0
M  V30 5449 O 502.694 1.93847 -0.117029 0
M  V30 5450 C 499.824 3.4167 -0.622791 0
M  V30 5451 C 498.778 3.94828 -1.65211 0
M  V30 5452 C 498.104 5.23362 -1.09527 0
M  V30 5453 C 499.404 4.2439 -3.04451 0
M  V30 5454 H 501.098 2.26016 -1.96359 0
M  V30 5455 H 498.644 1.08611 -0.945501 0
M  V30 5456 H 500.597 4.18746 -0.472233 0
M  V30 5457 H 499.321 3.24811 0.341329 0
M  V30 5458 H 497.98 3.19895 -1.79061 0
M  V30 5459 H 497.628 5.02852 -0.122211 0
M  V30 5460 H 497.328 5.59895 -1.783 0
M  V30 5461 H 498.852 6.03062 -0.956511 0
M  V30 5462 H 500.266 4.92225 -2.93917 0
M  V30 5463 H 498.663 4.72118 -3.70438 0
M  V30 5464 H 499.733 3.31765 -3.53638 0
M  V30 5465 N 501.076 1.04316 1.18135 0
M  V30 5466 C 502.324 0.746542 1.87806 0
M  V30 5467 C 502.645 -0.728082 1.80898 0
M  V30 5468 O 501.915 -1.52554 1.22899 0
M  V30 5469 H 500.495 0.273157 0.695265 0
M  V30 5470 H 503.157 1.32044 1.43354 0
M  V30 5471 H 502.253 1.05362 2.93778 0
M  V30 5472 N 502.554 -1.34406 0.822964 0
M  V30 5473 C 503.517 -2.2783 0.250271 0
M  V30 5474 C 504.517 -1.50288 -0.571854 0
M  V30 5475 O 505.707 -1.69825 -0.387952 0
M  V30 5476 C 502.839 -3.34663 -0.649137 0
M  V30 5477 H 504.032 -2.79992 1.07444 0
M  V30 5478 H 501.585 -1.44539 0.594829 0
M  V30 5479 H 502.32 -2.87714 -1.49637 0
M  V30 5480 H 502.105 -3.92052 -0.0611199 0
M  V30 5481 H 503.595 -4.04349 -1.04363 0
M  V30 5482 N 504.032 -0.577932 -1.46621 0
M  V30 5483 C 504.979 0.158048 -2.30258 0
M  V30 5484 C 505.949 0.888669 -1.40328 0
M  V30 5485 O 507.134 0.880283 -1.6928 0
M  V30 5486 C 504.274 1.16884 -3.24703 0
M  V30 5487 C 503.387 0.442163 -4.29731 0
M  V30 5488 C 502.522 1.44007 -5.11308 0
M  V30 5489 C 501.561 0.69952 -6.0809 0
M  V30 5490 N 500.698 1.64525 -6.82551 0
M  V30 5491 H 505.538 -0.561242 -2.92667 0
M  V30 5492 H 503.075 -0.288591 -1.44241 0
M  V30 5493 H 505.033 1.7677 -3.779 0
M  V30 5494 H 503.663 1.85591 -2.64113 0
M  V30 5495 H 502.715 -0.271632 -3.79429 0
M  V30 5496 H 504.027 -0.136992 -4.98612 0
M  V30 5497 H 503.181 2.11186 -5.68758 0
M  V30 5498 H 501.92 2.05315 -4.42377 0
M  V30 5499 H 500.925 0.0139217 -5.49798 0
M  V30 5500 H 502.15 0.091894 -6.79038 0
M  V30 5501 H 500.096 2.24653 -6.16334 0
M  V30 5502 H 500.013 1.11878 -7.47676 0
M  V30 5503 H 501.281 2.30754 -7.44562 0
M  V30 5504 N 505.51 1.54411 -0.315457 0
M  V30 5505 C 506.758 2.00023 0.288971 0
M  V30 5506 C 507.079 1.20529 1.5329 0
M  V30 5507 O 506.349 0.304986 1.93511 0
M  V30 5508 H 504.929 0.738891 0.109766 0
M  V30 5509 H 507.591 1.90094 -0.430129 0
M  V30 5510 H 506.687 3.07198 0.550999 0
M  V30 5511 N 506.988 0.0434614 1.5754 0
M  V30 5512 C 507.935 -0.93356 2.11077 0
M  V30 5513 C 508.905 -1.31383 1.01626 0
M  V30 5514 O 510.09 -1.40465 1.29129 0
M  V30 5515 C 507.23 -2.20578 2.65404 0
M  V30 5516 C 506.343 -1.88068 3.88914 0
M  V30 5517 C 505.478 -3.09691 4.31584 0
M  V30 5518 C 504.517 -2.73067 5.47815 0
M  V30 5519 N 503.654 -3.87359 5.85574 0
M  V30 5520 H 508.494 -0.470118 2.94268 0
M  V30 5521 H 506.031 -0.220434 1.45439 0
M  V30 5522 H 507.989 -2.95011 2.94999 0
M  V30 5523 H 506.619 -2.64513 1.85021 0
M  V30 5524 H 505.671 -1.03816 3.6596 0
M  V30 5525 H 506.983 -1.57104 4.73413 0
M  V30 5526 H 506.137 -3.92431 4.62691 0
M  V30 5527 H 504.876 -3.43827 3.45882 0
M  V30 5528 H 503.881 -1.88742 5.16388 0
M  V30 5529 H 505.106 -2.40131 6.35227 0
M  V30 5530 H 503.052 -4.21311 5.02825 0
M  V30 5531 H 502.969 -3.60068 6.64746 0
M  V30 5532 H 504.237 -4.70761 6.21292 0
M  V30 5533 N 508.466 -1.55915 -0.229846 0
M  V30 5534 C 509.743 -1.6932 -0.979295 0
M  V30 5535 C 510.123 -0.588321 -2.02736 0
M  V30 5536 O 509.471 0.40586 -2.24867 0
M  V30 5537 C 509.681 -3.10305 -1.59724 0
M  V30 5538 C 511.029 -3.6945 -2.09264 0
M  V30 5539 O 512.053 -3.13214 -1.69633 0
M  V30 5540 O 510.912 -4.68072 -2.82082 0
M  V30 5541 H 508.006 -0.689314 -0.456919 0
M  V30 5542 H 510.552 -1.68238 -0.222283 0
M  V30 5543 H 509.324 -3.82177 -0.840039 0
M  V30 5544 H 508.947 -3.1547 -2.42001 0
M  V30 5545 N 509.944 0.496216 -1.49584 0
M  V30 5546 C 511.193 1.24668 -1.58558 0
M  V30 5547 C 511.506 1.9359 -0.279703 0
M  V30 5548 O 512.712 2.70365 -0.248048 0
M  V30 5549 C 511.168 2.26388 -2.79779 0
M  V30 5550 C 510.776 1.63384 -4.17145 0
M  V30 5551 C 512.52 3.02233 -2.98086 0
M  V30 5552 C 510.427 2.63243 -5.29582 0
M  V30 5553 H 509.357 0.468995 -0.590389 0
M  V30 5554 H 512.008 0.519985 -1.75978 0
M  V30 5555 H 510.39 3.02241 -2.55863 0
M  V30 5556 H 511.564 0.93491 -4.51216 0
M  V30 5557 H 509.879 0.999121 -4.04236 0
M  V30 5558 H 512.476 3.76919 -3.79257 0
M  V30 5559 H 512.819 3.60132 -2.08831 0
M  V30 5560 H 513.352 2.33495 -3.22063 0
M  V30 5561 H 510.091 2.10119 -6.20911 0
M  V30 5562 H 509.611 3.31363 -4.99959 0
M  V30 5563 H 511.29 3.25575 -5.59115 0
M  V30 5564 N 511.423 1.38739 0.74761 0
M  V30 5565 C 512.353 1.39173 1.87492 0
M  V30 5566 C 513.334 0.256794 1.6815 0
M  V30 5567 O 514.519 0.460762 1.88655 0
M  V30 5568 C 511.649 1.22197 3.25093 0
M  V30 5569 C 510.603 2.32957 3.59047 0
M  V30 5570 C 509.929 2.01082 4.95449 0
M  V30 5571 C 511.229 3.75237 3.6331 0
M  V30 5572 H 512.923 2.3351 1.87386 0
M  V30 5573 H 510.469 1.12399 0.900134 0
M  V30 5574 H 512.422 1.21124 4.03617 0
M  V30 5575 H 511.146 0.243241 3.25693 0
M  V30 5576 H 509.805 2.33226 2.82845 0
M  V30 5577 H 509.453 1.01678 4.92616 0
M  V30 5578 H 509.153 2.75267 5.19136 0
M  V30 5579 H 510.677 2.01638 5.76346 0
M  V30 5580 H 512.091 3.76966 4.31937 0
M  V30 5581 H 510.488 4.48677 3.98509 0
M  V30 5582 H 511.558 4.07122 2.634 0
M  V30 5583 N 512.901 -0.976442 1.23707 0
M  V30 5584 C 514.131 -1.75087 1.09673 0
M  V30 5585 C 514.539 -1.85852 -0.354344 0
M  V30 5586 O 513.882 -1.33985 -1.25673 0
M  V30 5587 C 513.944 -3.19272 1.65245 0
M  V30 5588 C 513.608 -3.32004 3.14042 0
M  V30 5589 C 514.605 -3.18017 4.11292 0
M  V30 5590 C 512.29 -3.56525 3.53829 0
M  V30 5591 C 514.284 -3.28363 5.46312 0
M  V30 5592 C 511.971 -3.6651 4.88993 0
M  V30 5593 C 512.969 -3.52439 5.85043 0
M  V30 5594 O 512.657 -3.62063 7.1775 0
M  V30 5595 H 512.389 -0.556164 0.384262 0
M  V30 5596 H 514.943 -1.23518 1.64111 0
M  V30 5597 H 513.173 -3.72107 1.05231 0
M  V30 5598 H 514.862 -3.7849 1.46629 0
M  V30 5599 H 515.628 -2.98966 3.81896 0
M  V30 5600 H 511.507 -3.66547 2.79579 0
M  V30 5601 H 515.051 -3.17297 6.21263 0
M  V30 5602 H 510.948 -3.85072 5.18063 0
M  V30 5603 H 511.716 -3.78833 7.25553 0
M  V30 5604 N 514.379 -1.04941 -1.1758 0
M  V30 5605 C 515.628 -0.753124 -1.87112 0
M  V30 5606 C 515.941 0.722507 -1.81767 0
M  V30 5607 O 517.147 1.13265 -2.46746 0
M  V30 5608 C 515.603 -1.29695 -3.35719 0
M  V30 5609 C 515.211 -2.80184 -3.49572 0
M  V30 5610 C 516.955 -1.07759 -4.10595 0
M  V30 5611 C 514.862 -3.2788 -4.92187 0
M  V30 5612 H 513.792 -0.278034 -0.700866 0
M  V30 5613 H 516.443 -1.26637 -1.32798 0
M  V30 5614 H 514.825 -0.711522 -3.89555 0
M  V30 5615 H 515.999 -3.44561 -3.05965 0
M  V30 5616 H 514.314 -3.00632 -2.88113 0
M  V30 5617 H 516.911 -1.40899 -5.15802 0
M  V30 5618 H 517.254 -0.0152302 -4.16297 0
M  V30 5619 H 517.787 -1.62809 -3.62957 0
M  V30 5620 H 514.526 -4.33535 -4.91658 0
M  V30 5621 H 514.046 -2.68245 -5.36475 0
M  V30 5622 H 515.725 -3.22412 -5.60945 0
M  V30 5623 N 515.857 1.33968 -0.830081 0
M  V30 5624 C 517.105 1.97672 -0.420734 0
M  V30 5625 C 517.426 1.66111 1.02138 0
M  V30 5626 O 516.696 0.955503 1.71017 0
M  V30 5627 H 515.276 0.73125 -0.152587 0
M  V30 5628 H 517.938 1.63483 -1.0611 0
M  V30 5629 H 517.034 3.07294 -0.545588 0
M  V30 5630 N 517.335 0.585699 1.46312 0
M  V30 5631 C 518.612 0.00542031 1.95599 0
M  V30 5632 C 518.992 -1.45619 1.52834 0
M  V30 5633 O 518.34 -2.14759 0.780446 0
M  V30 5634 C 518.55 0.180601 3.48532 0
M  V30 5635 C 519.898 0.049979 4.24571 0
M  V30 5636 O 520.922 0.109589 3.56031 0
M  V30 5637 O 519.781 -0.0832226 5.46437 0
M  V30 5638 H 516.875 -0.0481281 0.825598 0
M  V30 5639 H 519.421 0.654227 1.56582 0
M  V30 5640 H 518.193 1.19657 3.72556 0
M  V30 5641 H 517.816 -0.504498 3.94386 0
M  V30 5642 N 518.813 -1.54241 0.323641 0
M  V30 5643 C 519.763 -2.21071 -0.557833 0
M  V30 5644 C 520.747 -1.19126 -1.08157 0
M  V30 5645 O 521.939 -1.44755 -1.01857 0
M  V30 5646 C 519.068 -2.97208 -1.71821 0
M  V30 5647 C 518.154 -4.06491 -1.20936 0
M  V30 5648 N 518.545 -5.04052 -0.420202 0
M  V30 5649 C 516.843 -4.20443 -1.48808 0
M  V30 5650 C 517.544 -5.81516 -0.146413 0
M  V30 5651 N 516.52 -5.38641 -0.732562 0
M  V30 5652 H 520.322 -2.93853 0.0523921 0
M  V30 5653 H 517.836 -1.61883 0.129502 0
M  V30 5654 H 519.833 -3.4357 -2.36146 0
M  V30 5655 H 518.493 -2.25947 -2.33191 0
M  V30 5656 H 519.504 -5.17862 -0.0630401 0
M  V30 5657 H 516.181 -3.60396 -2.10762 0
M  V30 5658 H 517.571 -6.70119 0.488895 0
M  V30 5659 N 520.291 -0.0518155 -1.57515 0
M  V30 5660 C 521.54 0.621286 -1.91893 0
M  V30 5661 C 521.853 1.71966 -0.932052 0
M  V30 5662 O 523.059 2.45096 -1.16791 0
M  V30 5663 C 521.515 1.15641 -3.40816 0
M  V30 5664 C 521.123 0.0901146 -4.47909 0
M  V30 5665 C 522.867 1.80472 -3.84227 0
M  V30 5666 C 520.774 0.638154 -5.87947 0
M  V30 5667 H 519.704 0.235835 -0.716169 0
M  V30 5668 H 522.355 -0.120809 -1.83102 0
M  V30 5669 H 520.737 1.95084 -3.44613 0
M  V30 5670 H 521.911 -0.683525 -4.55702 0
M  V30 5671 H 520.226 -0.460774 -4.13843 0
M  V30 5672 H 522.823 2.22471 -4.86221 0
M  V30 5673 H 523.166 2.65669 -3.20508 0
M  V30 5674 H 523.699 1.07683 -3.82948 0
M  V30 5675 H 520.438 -0.176202 -6.55263 0
M  V30 5676 H 519.958 1.37976 -5.83714 0
M  V30 5677 H 521.637 1.12085 -6.37217 0
M  V30 5678 N 521.769 1.56035 0.221574 0
M  V30 5679 C 523.016 1.79047 0.94597 0
M  V30 5680 C 523.344 0.62057 1.84334 0
M  V30 5681 O 522.599 -0.395053 1.91671 0
M  V30 5682 C 522.898 3.07813 1.8162 0
M  V30 5683 C 522.564 4.3797 1.07206 0
M  V30 5684 C 521.226 4.73334 0.866508 0
M  V30 5685 C 523.578 5.18326 0.546565 0
M  V30 5686 C 520.906 5.8657 0.123549 0
M  V30 5687 C 523.258 6.32335 -0.18305 0
M  V30 5688 C 521.922 6.66301 -0.399861 0
M  V30 5689 H 521.192 0.655178 0.346155 0
M  V30 5690 H 523.839 1.90299 0.214146 0
M  V30 5691 H 522.144 2.91682 2.61589 0
M  V30 5692 H 523.841 3.2282 2.37884 0
M  V30 5693 H 520.431 4.10202 1.24226 0
M  V30 5694 H 524.615 4.9144 0.692847 0
M  V30 5695 H 519.871 6.11376 -0.0546591 0
M  V30 5696 H 524.045 6.9383 -0.59775 0
M  V30 5697 H 521.672 7.53889 -0.977489 0
M  V30 5698 N 523.247 -0.488276 1.49845 0
M  V30 5699 C 524.495 -1.23911 1.59657 0
M  V30 5700 C 524.816 -1.92816 0.291005 0
M  V30 5701 O 524.086 -1.83328 -0.690485 0
M  V30 5702 H 522.666 -0.460357 0.588286 0
M  V30 5703 H 525.328 -0.564794 1.86537 0
M  V30 5704 H 524.424 -1.99625 2.39909 0
M  V30 5705 N 524.725 -1.39134 -0.740242 0
M  V30 5706 C 526.002 -1.26584 -1.49117 0
M  V30 5707 C 526.382 0.126902 -2.10718 0
M  V30 5708 O 525.73 1.13765 -1.98166 0
M  V30 5709 C 525.94 -2.38619 -2.54681 0
M  V30 5710 C 527.288 -2.77685 -3.21211 0
M  V30 5711 O 528.312 -2.38029 -2.64991 0
M  V30 5712 O 527.171 -3.46115 -4.22926 0
M  V30 5713 H 524.265 -0.495769 -0.661923 0
M  V30 5714 H 526.811 -1.50995 -0.774514 0
M  V30 5715 H 525.583 -3.3175 -2.07504 0
M  V30 5716 H 525.206 -2.15845 -3.33911 0
M  V30 5717 N 526.204 0.969867 -1.24223 0
M  V30 5718 C 527.453 1.70687 -1.07466 0
M  V30 5719 C 527.766 1.91736 0.386861 0
M  V30 5720 O 528.972 2.62986 0.674581 0
M  V30 5721 C 527.428 3.07217 -1.87472 0
M  V30 5722 C 527.036 2.94018 -3.3802 0
M  V30 5723 C 528.78 3.84804 -1.79237 0
M  V30 5724 C 526.687 4.25844 -4.10379 0
M  V30 5725 H 525.617 0.640067 -0.398536 0
M  V30 5726 H 528.268 1.08092 -1.48285 0
M  V30 5727 H 526.65 3.70628 -1.39466 0
M  V30 5728 H 527.824 2.39632 -3.9359 0
M  V30 5729 H 526.139 2.29898 -3.47183 0
M  V30 5730 H 528.736 4.82417 -2.30603 0
M  V30 5731 H 529.079 4.09356 -0.757197 0
M  V30 5732 H 529.612 3.28115 -2.24912 0
M  V30 5733 H 526.351 4.06486 -5.14246 0
M  V30 5734 H 525.871 4.80054 -3.59594 0
M  V30 5735 H 527.55 4.94475 -4.17257 0
M  V30 5736 N 527.682 1.05563 1.17022 0
M  V30 5737 C 528.612 0.681026 2.23348 0
M  V30 5738 C 529.593 -0.322983 1.67005 0
M  V30 5739 O 530.778 -0.199746 1.9317 0
M  V30 5740 C 527.908 0.0589053 3.4725 0
M  V30 5741 C 526.862 0.988082 4.16438 0
M  V30 5742 C 526.188 0.229646 5.34207 0
M  V30 5743 C 527.488 2.31388 4.68249 0
M  V30 5744 H 529.182 1.56993 2.54938 0
M  V30 5745 H 526.728 0.756302 1.2254 0
M  V30 5746 H 528.681 -0.214982 4.20851 0
M  V30 5747 H 527.405 -0.864968 3.14938 0
M  V30 5748 H 526.064 1.24659 3.44754 0
M  V30 5749 H 525.712 -0.697111 4.98146 0
M  V30 5750 H 525.412 0.848815 5.81437 0
M  V30 5751 H 526.936 -0.0368694 6.10589 0
M  V30 5752 H 528.35 2.09964 5.33468 0
M  V30 5753 H 526.747 2.88736 5.26072 0
M  V30 5754 H 527.817 2.94982 3.84855 0
M  V30 5755 N 529.16 -1.33526 0.837174 0
M  V30 5756 C 530.107 -2.29248 0.267169 0
M  V30 5757 C 531.077 -1.54252 -0.616071 0
M  V30 5758 O 532.262 -1.82559 -0.554699 0
M  V30 5759 C 529.402 -3.40638 -0.553152 0
M  V30 5760 C 528.515 -4.30548 0.353921 0
M  V30 5761 C 527.65 -5.29051 -0.477339 0
M  V30 5762 C 526.689 -6.106 0.42823 0
M  V30 5763 N 525.826 -7.01152 -0.364801 0
M  V30 5764 H 530.666 -2.77398 1.08877 0
M  V30 5765 H 528.203 -1.36496 0.54838 0
M  V30 5766 H 530.161 -4.03921 -1.04422 0
M  V30 5767 H 528.791 -2.93685 -1.33973 0
M  V30 5768 H 527.843 -3.68001 0.963289 0
M  V30 5769 H 529.155 -4.87631 1.04964 0
M  V30 5770 H 528.309 -5.97853 -1.0323 0
M  V30 5771 H 527.048 -4.72541 -1.2065 0
M  V30 5772 H 526.053 -5.40718 0.995219 0
M  V30 5773 H 527.278 -6.69193 1.15573 0
M  V30 5774 H 525.224 -6.47092 -1.07738 0
M  V30 5775 H 525.141 -7.5551 0.272238 0
M  V30 5776 H 526.409 -7.74263 -0.902054 0
M  V30 5777 N 530.638 -0.59345 -1.46 0
M  V30 5778 C 531.863 -0.0872365 -2.07216 0
M  V30 5779 C 532.288 1.2131 -1.43755 0
M  V30 5780 O 531.646 1.73528 -0.525152 0
M  V30 5781 C 531.694 0.0538197 -3.6056 0
M  V30 5782 O 530.798 1.10765 -3.97247 0
M  V30 5783 H 530.139 -0.0676598 -0.660544 0
M  V30 5784 H 532.669 -0.819445 -1.87473 0
M  V30 5785 H 532.679 0.256567 -4.07193 0
M  V30 5786 H 531.354 -0.895739 -4.0614 0
M  V30 5787 H 529.931 0.882501 -3.62307 0
M  V30 5788 N 532.116 1.54067 -0.331816 0
M  V30 5789 C 533.063 2.24623 0.530372 0
M  V30 5790 C 534.033 1.24009 1.10503 0
M  V30 5791 O 535.218 1.52712 1.14384 0
M  V30 5792 C 532.358 3.01374 1.68129 0
M  V30 5793 C 531.471 4.16821 1.13507 0
M  V30 5794 C 530.606 4.81085 2.25234 0
M  V30 5795 C 529.645 5.88621 1.67903 0
M  V30 5796 N 528.782 6.46713 2.73326 0
M  V30 5797 H 533.622 2.97898 -0.0778607 0
M  V30 5798 H 531.159 1.47014 -0.0501965 0
M  V30 5799 H 533.117 3.44125 2.35868 0
M  V30 5800 H 531.747 2.30419 2.26069 0
M  V30 5801 H 530.799 3.78796 0.348979 0
M  V30 5802 H 532.111 4.94203 0.675633 0
M  V30 5803 H 531.265 5.26846 3.00862 0
M  V30 5804 H 530.004 4.03102 2.74518 0
M  V30 5805 H 529.009 5.42254 0.907773 0
M  V30 5806 H 530.234 6.68506 1.19487 0
M  V30 5807 H 528.18 5.71599 3.21886 0
M  V30 5808 H 528.097 7.19532 2.3197 0
M  V30 5809 H 529.365 6.97129 3.48758 0
M  V30 5810 N 533.594 0.0601682 1.57485 0
M  V30 5811 C 534.541 -0.91112 2.12055 0
M  V30 5812 C 535.511 -1.30298 1.03013 0
M  V30 5813 O 536.696 -1.39087 1.30612 0
M  V30 5814 C 533.836 -2.1775 2.67729 0
M  V30 5815 C 532.949 -1.83933 3.90887 0
M  V30 5816 C 532.084 -3.05096 4.34845 0
M  V30 5817 C 531.123 -2.67241 5.5068 0
M  V30 5818 N 530.26 -3.81127 5.8965 0
M  V30 5819 H 535.1 -0.43888 2.9475 0
M  V30 5820 H 532.637 -0.204995 1.45665 0
M  V30 5821 H 534.595 -2.91866 2.98111 0
M  V30 5822 H 533.225 -2.62535 1.87816 0
M  V30 5823 H 532.277 -0.999287 3.6704 0
M  V30 5824 H 533.589 -1.52074 4.75052 0
M  V30 5825 H 532.743 -3.87502 4.66827 0
M  V30 5826 H 531.482 -3.40139 3.49509 0
M  V30 5827 H 530.487 -1.83254 5.18361 0
M  V30 5828 H 531.712 -2.3338 6.37738 0
M  V30 5829 H 529.658 -4.15954 5.07266 0
M  V30 5830 H 529.575 -3.52997 6.68528 0
M  V30 5831 H 530.843 -4.64145 6.2625 0
M  V30 5832 N 535.072 -1.5615 -0.213296 0
M  V30 5833 C 536.488 -1.49327 -0.56336 0
M  V30 5834 C 536.688 -0.756826 -1.86747 0
M  V30 5835 O 535.744 -0.299866 -2.50713 0
M  V30 5836 C 537.057 -2.9392 -0.634944 0
M  V30 5837 C 538.605 -3.04487 -0.725013 0
M  V30 5838 C 539.08 -4.50456 -0.82787 0
M  V30 5839 N 540.571 -4.54533 -0.891876 0
M  V30 5840 C 541.306 -5.64766 -0.991315 0
M  V30 5841 N 540.802 -6.84733 -1.05419 0
M  V30 5842 N 542.595 -5.52637 -1.02709 0
M  V30 5843 H 534.746 -2.02453 0.642366 0
M  V30 5844 H 537.009 -0.920548 0.226487 0
M  V30 5845 H 536.715 -3.50783 0.253859 0
M  V30 5846 H 536.589 -3.46274 -1.49579 0
M  V30 5847 H 538.976 -2.47685 -1.60425 0
M  V30 5848 H 539.057 -2.55289 0.161669 0
M  V30 5849 H 538.701 -5.07878 0.0469464 0
M  V30 5850 H 538.631 -4.97369 -1.73009 0
M  V30 5851 H 541.122 -3.68141 -0.85327 0
M  V30 5852 H 541.435 -7.64493 -1.13007 0
M  V30 5853 H 539.78 -6.87427 -1.02318 0
M  V30 5854 H 542.971 -4.5784 -0.974687 0
M  V30 5855 H 543.144 -6.38576 -1.10113 0
M  V30 5856 N 536.55 0.480323 -1.50102 0
M  V30 5857 C 537.482 1.59669 -1.64433 0
M  V30 5858 C 538.495 1.54063 -0.52615 0
M  V30 5859 O 539.684 1.59619 -0.798992 0
M  V30 5860 C 536.784 2.98527 -1.6042 0
M  V30 5861 C 535.957 3.291 -2.88117 0
M  V30 5862 C 535.016 4.47468 -2.76873 0
M  V30 5863 O 534.042 4.4823 -3.50825 0
M  V30 5864 N 535.244 5.48593 -1.89806 0
M  V30 5865 H 538.009 1.47795 -2.60723 0
M  V30 5866 H 535.57 0.66858 -1.4745 0
M  V30 5867 H 537.562 3.75666 -1.50523 0
M  V30 5868 H 536.132 3.04218 -0.719036 0
M  V30 5869 H 535.352 2.40662 -3.12211 0
M  V30 5870 H 536.64 3.46334 -3.72734 0
M  V30 5871 H 536.038 5.50791 -1.2902 0
M  V30 5872 H 534.595 6.24752 -1.85819 0
M  V30 5873 N 538.028 1.39524 0.732853 0
M  V30 5874 C 539.276 1.36594 1.48951 0
M  V30 5875 C 539.597 -0.0367507 1.94965 0
M  V30 5876 O 538.867 -0.988391 1.69138 0
M  V30 5877 H 537.447 0.502673 0.552566 0
M  V30 5878 H 540.109 1.74411 0.869869 0
M  V30 5879 H 539.205 2.03 2.3706 0
M  V30 5880 N 539.506 -0.963266 1.24736 0
M  V30 5881 C 540.752 -1.71 1.10139 0
M  V30 5882 C 541.107 -1.89089 -0.35541 0
M  V30 5883 O 540.4 -1.44451 -1.25875 0
M  V30 5884 C 540.594 -3.09944 1.7796 0
M  V30 5885 C 540.423 -3.05408 3.30085 0
M  V30 5886 C 539.193 -3.09643 3.99311 0
M  V30 5887 C 541.391 -2.87241 4.26611 0
M  V30 5888 N 539.373 -2.95174 5.3828 0
M  V30 5889 C 540.744 -2.81114 5.52607 0
M  V30 5890 C 542.799 -2.71856 4.17132 0
M  V30 5891 C 541.502 -2.61174 6.70209 0
M  V30 5892 C 543.528 -2.53284 5.34417 0
M  V30 5893 C 542.89 -2.4787 6.59348 0
M  V30 5894 H 538.989 -0.634078 0.457678 0
M  V30 5895 H 541.573 -1.14169 1.57713 0
M  V30 5896 H 539.744 -3.64958 1.32893 0
M  V30 5897 H 541.476 -3.73348 1.56183 0
M  V30 5898 H 538.231 -3.18498 3.50508 0
M  V30 5899 H 538.655 -2.91168 6.11188 0
M  V30 5900 H 543.297 -2.74821 3.21299 0
M  V30 5901 H 541.015 -2.56952 7.6616 0
M  V30 5902 H 544.601 -2.42317 5.28936 0
M  V30 5903 H 543.481 -2.33685 7.48573 0
M  V30 5904 N 540.985 -1.06182 -1.16461 0
M  V30 5905 C 542.401 -0.785065 -1.38956 0
M  V30 5906 C 542.601 0.616103 -1.9185 0
M  V30 5907 O 541.657 1.37686 -2.11657 0
M  V30 5908 C 542.97 -1.84902 -2.37132 0
M  V30 5909 C 544.518 -1.8724 -2.50819 0
M  V30 5910 C 544.993 -2.92686 -3.52277 0
M  V30 5911 N 546.484 -2.91712 -3.59803 0
M  V30 5912 C 547.219 -3.69949 -4.38093 0
M  V30 5913 N 546.715 -4.58 -5.19815 0
M  V30 5914 N 548.508 -3.58346 -4.33064 0
M  V30 5915 H 540.659 -1.96569 -0.804634 0
M  V30 5916 H 542.922 -0.851747 -0.416211 0
M  V30 5917 H 542.628 -2.85518 -2.0536 0
M  V30 5918 H 542.502 -1.69908 -3.36766 0
M  V30 5919 H 544.889 -0.872827 -2.81897 0
M  V30 5920 H 544.97 -2.06311 -1.51226 0
M  V30 5921 H 544.614 -3.92835 -3.21937 0
M  V30 5922 H 544.544 -2.70864 -4.51598 0
M  V30 5923 H 547.035 -2.27876 -3.01464 0
M  V30 5924 H 547.348 -5.14357 -5.76764 0
M  V30 5925 H 545.693 -4.62056 -5.19162 0
M  V30 5926 H 548.884 -2.88943 -3.68279 0
M  V30 5927 H 549.057 -4.19563 -4.93833 0
M  V30 5928 N 542.463 1.3308 -0.844243 0
M  V30 5929 C 543.691 2.01808 -0.456203 0
M  V30 5930 C 544.106 1.63498 0.944131 0
M  V30 5931 O 543.463 0.85102 1.61443 0
M  V30 5932 C 543.514 3.56922 -0.573513 0
M  V30 5933 O 543.235 3.93851 -1.91868 0
M  V30 5934 C 544.736 4.42922 -0.183125 0
M  V30 5935 H 541.956 0.646273 -0.180477 0
M  V30 5936 H 544.5 1.69891 -1.1383 0
M  V30 5937 H 542.655 3.87352 0.0607367 0
M  V30 5938 H 543.069 4.88564 -1.90802 0
M  V30 5939 H 544.543 5.51093 -0.316241 0
M  V30 5940 H 545.02 4.30386 0.875477 0
M  V30 5941 H 545.626 4.1786 -0.792027 0
M  V30 5942 N 543.941 0.601185 1.45683 0
M  V30 5943 C 545.188 0.0938811 2.02282 0
M  V30 5944 C 545.516 -1.27315 1.47041 0
M  V30 5945 O 544.771 -1.85193 0.632623 0
M  V30 5946 C 545.07 -0.00222425 3.574 0
M  V30 5947 C 544.736 1.29963 4.31764 0
M  V30 5948 C 543.398 1.65625 4.51798 0
M  V30 5949 C 545.75 2.1603 4.74321 0
M  V30 5950 C 543.078 2.87119 5.11644 0
M  V30 5951 C 545.43 3.36766 5.3551 0
M  V30 5952 C 544.094 3.72689 5.53768 0
M  V30 5953 H 543.364 0.0343535 0.740203 0
M  V30 5954 H 546.011 0.781522 1.74827 0
M  V30 5955 H 544.316 -0.773096 3.84097 0
M  V30 5956 H 546.013 -0.410794 3.9889 0
M  V30 5957 H 542.603 1.01204 4.1648 0
M  V30 5958 H 546.787 1.89778 4.58582 0
M  V30 5959 H 542.043 3.15065 5.2397 0
M  V30 5960 H 546.217 4.03713 5.67441 0
M  V30 5961 H 543.844 4.66918 5.99909 0
M  V30 5962 N 545.419 -1.53889 0.339982 0
M  V30 5963 C 546.349 -2.27843 -0.510856 0
M  V30 5964 C 547.33 -1.29267 -1.10563 0
M  V30 5965 O 548.515 -1.58104 -1.12768 0
M  V30 5966 C 545.645 -3.04857 -1.66372 0
M  V30 5967 C 544.599 -4.10907 -1.19746 0
M  V30 5968 C 543.925 -4.75855 -2.43857 0
M  V30 5969 C 545.225 -5.21435 -0.300501 0
M  V30 5970 H 546.919 -2.99212 0.106067 0
M  V30 5971 H 544.465 -1.43904 0.0524533 0
M  V30 5972 H 546.418 -3.5533 -2.26537 0
M  V30 5973 H 545.142 -2.31133 -2.30749 0
M  V30 5974 H 543.801 -3.61342 -0.618654 0
M  V30 5975 H 543.449 -3.9873 -3.06633 0
M  V30 5976 H 543.149 -5.47502 -2.13343 0
M  V30 5977 H 544.673 -5.2911 -3.04754 0
M  V30 5978 H 546.087 -5.67565 -0.80889 0
M  V30 5979 H 544.484 -6.00036 -0.0874076 0
M  V30 5980 H 545.554 -4.80328 0.664321 0
M  V30 5981 N 546.897 -0.0685191 -1.57451 0
M  V30 5982 C 548.143 0.602239 -1.93652 0
M  V30 5983 C 548.476 1.6946 -0.948526 0
M  V30 5984 O 547.751 1.94487 0.022782 0
M  V30 5985 C 548.034 1.18223 -3.4014 0
M  V30 5986 C 547.887 0.0967431 -4.49696 0
M  V30 5987 C 549.206 2.08872 -3.87377 0
M  V30 5988 H 546.325 0.217453 -0.70419 0
M  V30 5989 H 548.967 -0.133821 -1.89528 0
M  V30 5990 H 547.117 1.80953 -3.43785 0
M  V30 5991 H 548.789 -0.536155 -4.58174 0
M  V30 5992 H 547.032 -0.573063 -4.29998 0
M  V30 5993 H 547.703 0.542894 -5.49324 0
M  V30 5994 H 550.179 1.56081 -3.85717 0
M  V30 5995 H 549.055 2.46389 -4.90493 0
M  V30 5996 H 549.316 2.99572 -3.25129 0
M  V30 5997 N 548.375 1.56261 0.205012 0
M  V30 5998 C 549.624 1.79236 0.925058 0
M  V30 5999 C 549.937 0.640011 1.84833 0
M  V30 6000 O 551.143 0.753809 2.60826 0
M  V30 6001 C 549.599 3.17475 1.69522 0
M  V30 6002 C 549.207 4.40482 0.817269 0
M  V30 6003 C 550.951 3.49766 2.4055 0
M  V30 6004 C 548.858 5.69744 1.58573 0
M  V30 6005 H 547.788 0.668287 0.349153 0
M  V30 6006 H 550.439 1.82629 0.178544 0
M  V30 6007 H 548.821 3.08304 2.48526 0
M  V30 6008 H 549.995 4.60752 0.0665988 0
M  V30 6009 H 548.31 4.15827 0.218316 0
M  V30 6010 H 550.907 4.43573 2.98575 0
M  V30 6011 H 551.25 2.73041 3.14252 0
M  V30 6012 H 551.783 3.60341 1.68522 0
M  V30 6013 H 548.522 6.49407 0.891679 0
M  V30 6014 H 548.042 5.53509 2.31059 0
M  V30 6015 H 549.721 6.1051 2.14212 0
M  V30 6016 N 549.853 -0.472356 1.50355 0
M  V30 6017 C 551.264 -1.05326 1.54154 0
M  V30 6018 C 551.615 -1.93155 0.344303 0
M  V30 6019 O 550.74 -2.09479 -0.542928 0
M  V30 6020 C 551.335 -1.91691 2.79356 0
M  V30 6021 C 549.894 -2.44892 2.8584 0
M  V30 6022 C 549.041 -1.23205 2.48426 0
M  V30 6023 H 551.992 -0.255027 1.56637 0
M  V30 6024 H 552.013 -2.76742 2.6114 0
M  V30 6025 H 551.525 -1.27741 3.66475 0
M  V30 6026 H 549.626 -3.12399 2.0307 0
M  V30 6027 H 549.739 -2.80086 3.88701 0
M  V30 6028 H 548.103 -1.56643 2.00836 0
M  V30 6029 H 548.886 -0.609194 3.37852 0
M  V30 6030 N 551.331 -1.39911 -0.725443 0
M  V30 6031 C 552.241 -1.41688 -1.8698 0
M  V30 6032 C 553.257 -0.310579 -1.71206 0
M  V30 6033 O 554.433 -0.55359 -1.93642 0
M  V30 6034 C 551.498 -1.26811 -3.22676 0
M  V30 6035 C 550.559 -2.47497 -3.50776 0
M  V30 6036 C 549.792 -2.3332 -4.79997 0
M  V30 6037 O 550.015 -1.34175 -5.54394 0
M  V30 6038 O 548.949 -3.22498 -5.08211 0
M  V30 6039 H 552.775 -2.38171 -1.88436 0
M  V30 6040 H 550.36 -1.21128 -0.874548 0
M  V30 6041 H 552.242 -1.20684 -4.03749 0
M  V30 6042 H 550.917 -0.334289 -3.21969 0
M  V30 6043 H 549.824 -2.59201 -2.69751 0
M  V30 6044 H 551.157 -3.39606 -3.5627 0
M  V30 6045 N 552.809 0.956637 -1.25245 0
M  V30 6046 C 553.739 2.07058 -1.07931 0
M  V30 6047 C 554.72 1.70096 0.0110361 0
M  V30 6048 O 555.905 1.93555 -0.158121 0
M  V30 6049 C 553.035 3.40272 -0.695124 0
M  V30 6050 C 551.989 3.91235 -1.73549 0
M  V30 6051 C 551.315 5.20921 -1.20604 0
M  V30 6052 C 552.615 4.17837 -3.13385 0
M  V30 6053 H 554.309 2.218 -2.01109 0
M  V30 6054 H 551.855 1.06581 -0.968326 0
M  V30 6055 H 553.808 4.1765 -0.560949 0
M  V30 6056 H 552.532 3.25462 0.272355 0
M  V30 6057 H 551.191 3.16025 -1.85807 0
M  V30 6058 H 550.839 5.02479 -0.228846 0
M  V30 6059 H 550.539 5.55987 -1.90136 0
M  V30 6060 H 552.063 6.00897 -1.08421 0
M  V30 6061 H 553.477 4.8588 -3.04292 0
M  V30 6062 H 551.874 4.64154 -3.80369 0
M  V30 6063 H 552.944 3.2419 -3.60595 0
M  V30 6064 N 554.287 1.06798 1.15896 0
M  V30 6065 C 555.25 0.687328 2.18651 0
M  V30 6066 C 556.25 -0.269559 1.58524 0
M  V30 6067 O 557.44 -0.0512627 1.74125 0
M  V30 6068 C 554.572 0.0121642 3.40898 0
M  V30 6069 H 555.765 1.59701 2.53842 0
M  V30 6070 H 553.318 0.863828 1.3026 0
M  V30 6071 H 554.053 -0.910025 3.1127 0
M  V30 6072 H 553.838 0.700309 3.85795 0
M  V30 6073 H 555.328 -0.239703 4.16911 0
M  V30 6074 N 555.766 -1.3263 0.851289 0
M  V30 6075 C 556.698 -2.27824 0.250757 0
M  V30 6076 C 557.711 -1.52285 -0.575598 0
M  V30 6077 O 558.9 -1.73946 -0.400638 0
M  V30 6078 C 556 -3.3232 -0.664571 0
M  V30 6079 C 555.173 -4.37221 0.125187 0
M  V30 6080 C 554.232 -5.21314 -0.715385 0
M  V30 6081 O 553.258 -5.69002 -0.150111 0
M  V30 6082 N 554.46 -5.43823 -2.03069 0
M  V30 6083 H 557.225 -2.79997 1.06873 0
M  V30 6084 H 554.786 -1.45455 0.710943 0
M  V30 6085 H 556.778 -3.85486 -1.23216 0
M  V30 6086 H 555.348 -2.80331 -1.38323 0
M  V30 6087 H 554.568 -3.84384 0.874199 0
M  V30 6088 H 555.856 -5.04399 0.667774 0
M  V30 6089 H 555.254 -5.06803 -2.51332 0
M  V30 6090 H 553.811 -5.99998 -2.54648 0
M  V30 6091 N 557.244 -0.608902 -1.45362 0
M  V30 6092 C 558.154 0.110969 -2.34337 0
M  V30 6093 C 559.17 0.859007 -1.51318 0
M  V30 6094 O 560.346 0.816296 -1.84116 0
M  V30 6095 C 557.411 1.09494 -3.28956 0
M  V30 6096 C 556.472 0.348718 -4.27881 0
M  V30 6097 C 555.705 1.28582 -5.17979 0
M  V30 6098 O 555.928 2.52369 -5.11533 0
M  V30 6099 O 554.862 0.782172 -5.96796 0
M  V30 6100 H 558.688 -0.620258 -2.97299 0
M  V30 6101 H 556.273 -0.36916 -1.44767 0
M  V30 6102 H 558.155 1.66163 -3.87257 0
M  V30 6103 H 556.83 1.80717 -2.68557 0
M  V30 6104 H 555.737 -0.260465 -3.73192 0
M  V30 6105 H 557.07 -0.323049 -4.91139 0
M  V30 6106 N 558.722 1.53707 -0.348139 0
M  V30 6107 C 559.652 2.28111 0.498766 0
M  V30 6108 C 560.633 1.29851 1.09876 0
M  V30 6109 O 561.818 1.587 1.11928 0
M  V30 6110 C 558.948 3.05735 1.64753 0
M  V30 6111 C 557.902 4.11537 1.17565 0
M  V30 6112 C 557.228 4.77142 2.4133 0
M  V30 6113 C 558.528 5.21587 0.272844 0
M  V30 6114 H 560.222 2.99152 -0.121934 0
M  V30 6115 H 557.768 1.43875 -0.0600842 0
M  V30 6116 H 559.721 3.56526 2.24649 0
M  V30 6117 H 558.445 2.32354 2.2952 0
M  V30 6118 H 557.104 3.61665 0.599483 0
M  V30 6119 H 556.752 4.0035 3.04514 0
M  V30 6120 H 556.452 5.48626 2.10436 0
M  V30 6121 H 557.976 5.30719 3.01943 0
M  V30 6122 H 559.39 5.67986 0.778779 0
M  V30 6123 H 557.787 6.00074 0.0555849 0
M  V30 6124 H 558.857 4.79969 -0.689785 0
M  V30 6125 N 560.2 0.0768682 1.57412 0
M  V30 6126 C 561.15 -0.898795 2.09537 0
M  V30 6127 C 562.134 -1.25556 1.0062 0
M  V30 6128 O 563.326 -1.23369 1.26921 0
M  V30 6129 C 560.455 -2.16453 2.66464 0
M  V30 6130 C 559.541 -1.83401 3.82393 0
M  V30 6131 N 559.932 -1.20823 4.91157 0
M  V30 6132 C 558.23 -2.13121 3.91785 0
M  V30 6133 C 558.931 -1.05976 5.71965 0
M  V30 6134 N 557.907 -1.57113 5.204 0
M  V30 6135 H 561.709 -0.410718 2.91016 0
M  V30 6136 H 559.223 -0.126878 1.61904 0
M  V30 6137 H 561.22 -2.87274 3.02125 0
M  V30 6138 H 559.88 -2.65844 1.86433 0
M  V30 6139 H 560.891 -0.877249 5.10416 0
M  V30 6140 H 557.568 -2.64854 3.22736 0
M  V30 6141 H 558.958 -0.571809 6.69462 0
M  V30 6142 N 561.678 -1.56367 -0.196722 0
M  V30 6143 C 562.924 -1.80796 -0.918725 0
M  V30 6144 C 563.257 -0.650645 -1.82976 0
M  V30 6145 O 562.532 0.348889 -1.91345 0
M  V30 6146 C 562.815 -3.15472 -1.73636 0
M  V30 6147 C 562.668 -4.41693 -0.85015 0
M  V30 6148 C 563.987 -3.46824 -2.70927 0
M  V30 6149 H 561.106 -0.657702 -0.332561 0
M  V30 6150 H 563.748 -1.89086 -0.186186 0
M  V30 6151 H 561.898 -3.08536 -2.36088 0
M  V30 6152 H 563.57 -4.60673 -0.240459 0
M  V30 6153 H 561.813 -4.33517 -0.156785 0
M  V30 6154 H 562.484 -5.32419 -1.45719 0
M  V30 6155 H 564.96 -3.54049 -2.18607 0
M  V30 6156 H 563.836 -4.4218 -3.25219 0
M  V30 6157 H 564.097 -2.70236 -3.49893 0
M  V30 6158 N 563.156 0.464375 -1.50603 0
M  V30 6159 C 564.402 1.21485 -1.63135 0
M  V30 6160 C 564.757 1.89538 -0.33063 0
M  V30 6161 O 564.05 1.79432 0.671903 0
M  V30 6162 C 564.244 2.278 -2.75394 0
M  V30 6163 C 564.073 1.70178 -4.16257 0
M  V30 6164 C 562.843 1.49854 -4.82568 0
M  V30 6165 C 565.041 1.19298 -5.00272 0
M  V30 6166 N 563.023 0.875458 -6.07626 0
M  V30 6167 C 564.394 0.693527 -6.16109 0
M  V30 6168 C 566.449 1.08216 -4.85998 0
M  V30 6169 C 565.152 0.0941808 -7.19238 0
M  V30 6170 C 567.178 0.496745 -5.8931 0
M  V30 6171 C 566.54 0.00770448 -7.044 0
M  V30 6172 H 562.639 0.433184 -0.651057 0
M  V30 6173 H 565.223 0.515748 -1.87745 0
M  V30 6174 H 563.394 2.95129 -2.52495 0
M  V30 6175 H 565.126 2.94814 -2.77249 0
M  V30 6176 H 561.881 1.75269 -4.39975 0
M  V30 6177 H 562.305 0.582135 -6.74493 0
M  V30 6178 H 566.947 1.44617 -3.97298 0
M  V30 6179 H 564.665 -0.28202 -8.07608 0
M  V30 6180 H 568.251 0.413275 -5.8033 0
M  V30 6181 H 567.131 -0.438188 -7.82975 0
M  V30 6182 N 564.634 1.40294 0.718013 0
M  V30 6183 C 565.862 1.4175 1.50714 0
M  V30 6184 C 566.277 0.0165366 1.88793 0
M  V30 6185 O 565.634 -0.958942 1.55276 0
M  V30 6186 C 565.685 2.30598 2.784 0
M  V30 6187 O 565.406 3.6524 2.41932 0
M  V30 6188 C 566.907 2.4062 3.72313 0
M  V30 6189 H 564.127 0.483565 0.465194 0
M  V30 6190 H 566.671 1.84316 0.885889 0
M  V30 6191 H 564.826 1.91401 3.36815 0
M  V30 6192 H 565.24 4.12402 3.24076 0
M  V30 6193 H 566.714 3.07001 4.58753 0
M  V30 6194 H 567.191 1.4305 4.15251 0
M  V30 6195 H 567.797 2.80359 3.19811 0
M  V30 6196 N 566.112 -0.949982 1.2575 0
M  V30 6197 C 567.389 -1.6718 1.01539 0
M  V30 6198 C 567.769 -2.06095 -0.456942 0
M  V30 6199 O 567.117 -1.77792 -1.43534 0
M  V30 6200 C 567.327 -2.8906 1.95564 0
M  V30 6201 C 568.675 -3.60909 2.23673 0
M  V30 6202 O 569.699 -2.9915 1.9336 0
M  V30 6203 O 568.558 -4.72127 2.75243 0
M  V30 6204 H 565.652 -0.731697 0.385419 0
M  V30 6205 H 568.198 -1.00249 1.36924 0
M  V30 6206 H 566.97 -2.57128 2.94959 0
M  V30 6207 H 566.593 -3.63719 1.60605 0
M  V30 6208 N 567.59 -1.07411 -1.15328 0
M  V30 6209 C 568.537 -0.694995 -2.20087 0
M  V30 6210 C 569.507 0.313904 -1.63107 0
M  V30 6211 O 570.692 0.200216 -1.89747 0
M  V30 6212 C 567.832 -0.0996218 -3.44956 0
M  V30 6213 C 566.945 -1.16007 -4.16133 0
M  V30 6214 C 566.08 -0.529636 -5.28553 0
M  V30 6215 C 565.119 -1.57283 -5.91548 0
M  V30 6216 N 564.256 -0.964932 -6.95438 0
M  V30 6217 H 569.096 -1.5927 -2.51867 0
M  V30 6218 H 566.633 -0.796115 -1.23695 0
M  V30 6219 H 568.591 0.263197 -4.16369 0
M  V30 6220 H 567.221 0.761435 -3.13691 0
M  V30 6221 H 566.273 -1.64045 -3.4321 0
M  V30 6222 H 567.585 -1.95101 -4.59061 0
M  V30 6223 H 566.739 -0.114487 -6.06592 0
M  V30 6224 H 565.478 0.29307 -4.86819 0
M  V30 6225 H 564.483 -1.99775 -5.12221 0
M  V30 6226 H 565.708 -2.39783 -6.35359 0
M  V30 6227 H 563.654 -0.16314 -6.55797 0
M  V30 6228 H 563.571 -1.69311 -7.36797 0
M  V30 6229 H 564.839 -0.575305 -7.77374 0
M  V30 6230 N 569.068 1.32177 -0.85831 0
M  V30 6231 C 570.293 2.01847 -0.476718 0
M  V30 6232 C 570.718 1.64065 0.920021 0
M  V30 6233 O 570.076 0.843189 1.60499 0
M  V30 6234 C 570.124 3.55097 -0.627578 0
M  V30 6235 O 569.228 4.11012 0.338086 0
M  V30 6236 H 568.569 0.635907 -0.191099 0
M  V30 6237 H 571.099 1.68641 -1.15851 0
M  V30 6238 H 571.109 4.04718 -0.516476 0
M  V30 6239 H 569.784 3.81938 -1.64609 0
M  V30 6240 H 568.361 3.72451 0.182917 0
M  V30 6241 N 570.547 0.616602 1.45037 0
M  V30 6242 C 571.772 0.120192 2.07051 0
M  V30 6243 C 572.197 -1.19008 1.45666 0
M  V30 6244 O 571.555 -1.7267 0.552692 0
M  V30 6245 C 571.603 0.00354901 3.606 0
M  V30 6246 O 570.707 -1.04431 3.98958 0
M  V30 6247 H 570.048 0.0781599 0.659384 0
M  V30 6248 H 572.578 0.849167 1.86146 0
M  V30 6249 H 572.588 -0.191754 4.07549 0
M  V30 6250 H 571.263 0.960239 4.04663 0
M  V30 6251 H 569.84 -0.824749 3.63665 0
M  V30 6252 N 572.025 -1.5352 0.356285 0
M  V30 6253 C 572.955 -2.28372 -0.486661 0
M  V30 6254 C 573.936 -1.30432 -1.09185 0
M  V30 6255 O 575.121 -1.59291 -1.11085 0
M  V30 6256 C 572.251 -3.06604 -1.63129 0
M  V30 6257 C 571.205 -4.12154 -1.15381 0
M  V30 6258 C 570.531 -4.78415 -2.38796 0
M  V30 6259 C 571.831 -5.21724 -0.245179 0
M  V30 6260 H 573.525 -2.99083 0.137797 0
M  V30 6261 H 571.071 -1.43841 0.0677134 0
M  V30 6262 H 573.024 -3.57712 -2.22755 0
M  V30 6263 H 571.748 -2.33568 -2.28284 0
M  V30 6264 H 570.407 -3.61978 -0.580294 0
M  V30 6265 H 570.055 -4.01959 -3.02387 0
M  V30 6266 H 569.755 -5.49734 -2.07524 0
M  V30 6267 H 571.279 -5.32313 -2.99125 0
M  V30 6268 H 572.693 -5.68391 -0.748646 0
M  V30 6269 H 571.09 -6.00095 -0.0237608 0
M  V30 6270 H 572.16 -4.79596 0.715229 0
M  V30 6271 N 573.503 -0.0852151 -1.57369 0
M  V30 6272 C 574.75 0.580806 -1.93992 0
M  V30 6273 C 575.078 1.68801 -0.966252 0
M  V30 6274 O 574.333 1.95694 0.0158649 0
M  V30 6275 C 574.632 1.18482 -3.3719 0
M  V30 6276 C 574.298 0.2024 -4.50446 0
M  V30 6277 C 572.96 -0.0678318 -4.81152 0
M  V30 6278 C 575.312 -0.46895 -5.19086 0
M  V30 6279 C 572.64 -1.01627 -5.77831 0
M  V30 6280 C 574.992 -1.4058 -6.16782 0
M  V30 6281 C 573.656 -1.68436 -6.45899 0
M  V30 6282 H 572.926 0.212532 -0.709867 0
M  V30 6283 H 575.573 -0.158947 -1.90839 0
M  V30 6284 H 573.878 2.0006 -3.36873 0
M  V30 6285 H 575.575 1.70767 -3.62822 0
M  V30 6286 H 572.165 0.423208 -4.26505 0
M  V30 6287 H 576.349 -0.273307 -4.95547 0
M  V30 6288 H 571.605 -1.2392 -5.9871 0
M  V30 6289 H 575.779 -1.93188 -6.69068 0
M  V30 6290 H 573.406 -2.42088 -7.20623 0
M  V30 6291 N 574.981 1.5647 0.188427 0
M  V30 6292 C 575.891 1.98285 1.2538 0
M  V30 6293 C 576.907 0.891535 1.49424 0
M  V30 6294 O 578.083 1.19782 1.61908 0
M  V30 6295 C 575.148 2.31965 2.57669 0
M  V30 6296 C 574.209 3.54838 2.41638 0
M  V30 6297 C 573.442 3.86901 3.67618 0
M  V30 6298 O 573.665 3.20163 4.72072 0
M  V30 6299 O 572.599 4.80309 3.62749 0
M  V30 6300 H 576.425 2.89145 0.928912 0
M  V30 6301 H 574.01 1.44112 0.393955 0
M  V30 6302 H 575.892 2.54673 3.35737 0
M  V30 6303 H 574.567 1.44271 2.89771 0
M  V30 6304 H 573.474 3.37369 1.61658 0
M  V30 6305 H 574.807 4.43019 2.14465 0
M  V30 6306 N 576.459 -0.456382 1.50847 0
M  V30 6307 C 577.369 -1.57805 1.73594 0
M  V30 6308 C 578.385 -1.62599 0.619476 0
M  V30 6309 O 579.561 -1.80195 0.899532 0
M  V30 6310 C 576.626 -2.93926 1.8387 0
M  V30 6311 C 575.687 -2.99402 3.07663 0
M  V30 6312 C 574.92 -4.29031 3.1744 0
M  V30 6313 O 575.143 -5.20358 2.33631 0
M  V30 6314 O 574.077 -4.40401 4.10281 0
M  V30 6315 H 577.903 -1.41531 2.68705 0
M  V30 6316 H 575.488 -0.637422 1.3512 0
M  V30 6317 H 577.37 -3.74747 1.92725 0
M  V30 6318 H 576.045 -3.10368 0.91944 0
M  V30 6319 H 574.952 -2.17606 3.043 0
M  V30 6320 H 576.285 -2.87901 3.99216 0
M  V30 6321 N 577.937 -1.40673 -0.710563 0
M  V30 6322 C 578.867 -1.44095 -1.83736 0
M  V30 6323 C 579.848 -0.301286 -1.67411 0
M  V30 6324 O 581.033 -0.510618 -1.87367 0
M  V30 6325 C 578.163 -1.30773 -3.21738 0
M  V30 6326 C 577.117 -2.42395 -3.52745 0
M  V30 6327 C 576.443 -2.14147 -4.89944 0
M  V30 6328 C 577.743 -3.84738 -3.53234 0
M  V30 6329 H 579.437 -2.38396 -1.81129 0
M  V30 6330 H 576.983 -1.14746 -0.870017 0
M  V30 6331 H 578.936 -1.31783 -4.00264 0
M  V30 6332 H 577.66 -0.329507 -3.24934 0
M  V30 6333 H 576.319 -2.40643 -2.76562 0
M  V30 6334 H 575.967 -1.14703 -4.89747 0
M  V30 6335 H 575.667 -2.88934 -5.11655 0
M  V30 6336 H 577.191 -2.16848 -5.70797 0
M  V30 6337 H 578.605 -3.88286 -4.2179 0
M  V30 6338 H 577.002 -4.59085 -3.86473 0
M  V30 6339 H 578.072 -4.13962 -2.52514 0
M  V30 6340 N 579.415 0.9433 -1.26252 0
M  V30 6341 C 580.347 2.04542 -1.03417 0
M  V30 6342 C 581.36 1.62799 0.0046911 0
M  V30 6343 O 582.549 1.76944 -0.235146 0
M  V30 6344 C 579.649 3.34511 -0.543671 0
M  V30 6345 C 578.822 4.05033 -1.65128 0
M  V30 6346 C 577.881 5.13273 -1.1592 0
M  V30 6347 O 576.907 5.38095 -1.85586 0
M  V30 6348 N 578.109 5.805 -0.00649279 0
M  V30 6349 H 580.874 2.24699 -1.98319 0
M  V30 6350 H 578.435 1.11264 -1.1761 0
M  V30 6351 H 580.427 4.04212 -0.198703 0
M  V30 6352 H 578.997 3.11042 0.311711 0
M  V30 6353 H 578.217 3.29275 -2.16729 0
M  V30 6354 H 579.505 4.48903 -2.39508 0
M  V30 6355 H 578.903 5.62767 0.575347 0
M  V30 6356 H 577.46 6.51201 0.279416 0
M  V30 6357 N 580.893 1.08022 1.14757 0
M  V30 6358 C 582.118 0.82895 1.90114 0
M  V30 6359 C 582.543 -0.612772 1.77839 0
M  V30 6360 O 581.901 -1.42895 1.11583 0
M  V30 6361 C 581.949 1.25062 3.38219 0
M  V30 6362 O 581.053 0.400119 4.10454 0
M  V30 6363 H 580.394 0.301412 0.591648 0
M  V30 6364 H 582.924 1.44062 1.45284 0
M  V30 6365 H 582.934 1.22977 3.89025 0
M  V30 6366 H 581.609 2.30067 3.46471 0
M  V30 6367 H 580.186 0.484052 3.69745 0
M  V30 6368 N 582.371 -1.3172 0.865308 0
M  V30 6369 C 583.301 -2.31109 0.333302 0
M  V30 6370 C 584.282 -1.60148 -0.573301 0
M  V30 6371 O 585.467 -1.87882 -0.491305 0
M  V30 6372 C 582.597 -3.44104 -0.470078 0
M  V30 6373 C 581.551 -4.26623 0.343021 0
M  V30 6374 C 580.877 -5.31482 -0.585756 0
M  V30 6375 C 582.177 -4.98001 1.57456 0
M  V30 6376 H 583.871 -2.75855 1.1638 0
M  V30 6377 H 581.417 -1.3262 0.561069 0
M  V30 6378 H 583.37 -4.12682 -0.852752 0
M  V30 6379 H 582.094 -2.98112 -1.33404 0
M  V30 6380 H 580.753 -3.59707 0.707583 0
M  V30 6381 H 580.401 -4.81741 -1.44686 0
M  V30 6382 H 580.101 -5.87582 -0.0456494 0
M  V30 6383 H 581.625 -6.0292 -0.965375 0
M  V30 6384 H 583.039 -5.59201 1.26359 0
M  V30 6385 H 581.436 -5.63876 2.05339 0
M  V30 6386 H 582.506 -4.25253 2.32997 0
M  V30 6387 N 583.85 -0.624285 -1.44708 0
M  V30 6388 C 585.127 -0.0572781 -1.95516 0
M  V30 6389 C 585.507 1.41516 -1.56641 0
M  V30 6390 O 584.855 2.12614 -0.837111 0
M  V30 6391 C 585.065 -0.272944 -3.47931 0
M  V30 6392 C 586.413 -0.162529 -4.24289 0
M  V30 6393 O 587.437 -0.203946 -3.55616 0
M  V30 6394 O 586.296 -0.0616847 -5.46465 0
M  V30 6395 H 583.389 0.0262219 -0.826584 0
M  V30 6396 H 585.936 -0.695512 -1.54793 0
M  V30 6397 H 584.707 -1.29492 -3.69253 0
M  V30 6398 H 584.331 0.399756 -3.95585 0
M  V30 6399 N 585.328 1.53329 -0.364422 0
M  V30 6400 C 586.577 2.00421 0.226747 0
M  V30 6401 C 586.89 1.25581 1.49963 0
M  V30 6402 O 588.096 1.63256 2.16933 0
M  V30 6403 C 586.552 3.57017 0.454618 0
M  V30 6404 C 586.16 4.40734 -0.803568 0
M  V30 6405 C 587.904 4.12468 1.00351 0
M  V30 6406 C 585.811 5.8888 -0.545345 0
M  V30 6407 H 584.741 0.748787 0.0885082 0
M  V30 6408 H 587.392 1.7703 -0.482983 0
M  V30 6409 H 585.774 3.76558 1.22558 0
M  V30 6410 H 586.948 4.32967 -1.57723 0
M  V30 6411 H 585.263 3.96381 -1.27559 0
M  V30 6412 H 587.86 5.20783 1.212 0
M  V30 6413 H 588.203 3.6699 1.9653 0
M  V30 6414 H 588.736 3.96721 0.29274 0
M  V30 6415 H 585.475 6.38633 -1.47743 0
M  V30 6416 H 584.995 5.99499 0.189842 0
M  V30 6417 H 586.674 6.46776 -0.170425 0
M  V30 6418 N 586.806 0.0935595 1.57322 0
M  V30 6419 C 588.053 -0.570509 1.94297 0
M  V30 6420 C 588.381 -1.68286 0.97519 0
M  V30 6421 O 587.636 -1.95699 -0.00548655 0
M  V30 6422 C 587.935 -1.16692 3.37813 0
M  V30 6423 C 587.601 -0.178509 4.50547 0
M  V30 6424 C 586.263 0.0933475 4.81109 0
M  V30 6425 C 588.615 0.496472 5.1883 0
M  V30 6426 C 585.943 1.0469 5.77284 0
M  V30 6427 C 588.295 1.43849 6.16028 0
M  V30 6428 C 586.959 1.71859 6.44997 0
M  V30 6429 H 586.229 -0.208764 0.710984 0
M  V30 6430 H 588.876 0.169066 1.90752 0
M  V30 6431 H 587.181 -1.98271 3.37929 0
M  V30 6432 H 588.878 -1.6884 3.63722 0
M  V30 6433 H 585.468 -0.400584 4.26724 0
M  V30 6434 H 589.652 0.299584 4.95395 0
M  V30 6435 H 584.908 1.27094 5.98044 0
M  V30 6436 H 589.082 1.96734 6.68034 0
M  V30 6437 H 586.709 2.45906 7.19329 0
M  V30 6438 N 588.284 -1.56567 -0.180126 0
M  V30 6439 C 589.214 -1.98753 -1.22553 0
M  V30 6440 C 590.195 -0.86175 -1.46656 0
M  V30 6441 O 591.38 -1.12719 -1.58139 0
M  V30 6442 C 588.51 -2.33988 -2.56645 0
M  V30 6443 C 587.464 -3.49445 -2.47128 0
M  V30 6444 C 586.79 -3.70397 -3.8563 0
M  V30 6445 C 588.09 -4.83171 -1.98352 0
M  V30 6446 H 589.784 -2.86332 -0.874896 0
M  V30 6447 H 587.33 -1.37757 -0.419414 0
M  V30 6448 H 589.283 -2.62097 -3.29974 0
M  V30 6449 H 588.007 -1.43309 -2.93479 0
M  V30 6450 H 586.666 -3.2145 -1.76254 0
M  V30 6451 H 586.314 -2.77023 -4.19842 0
M  V30 6452 H 586.014 -4.48077 -3.80132 0
M  V30 6453 H 587.538 -4.00897 -4.60558 0
M  V30 6454 H 588.952 -5.10213 -2.61449 0
M  V30 6455 H 587.349 -5.64425 -2.03823 0
M  V30 6456 H 588.419 -4.75753 -0.937402 0
M  V30 6457 N 589.762 0.448376 -1.51087 0
M  V30 6458 C 590.725 1.52588 -1.71025 0
M  V30 6459 C 591.725 1.49958 -0.580442 0
M  V30 6460 O 592.915 1.52176 -0.847833 0
M  V30 6461 C 590.047 2.92163 -1.75652 0
M  V30 6462 H 591.24 1.36218 -2.67179 0
M  V30 6463 H 588.793 0.676313 -1.4091 0
M  V30 6464 H 589.528 3.13951 -0.812724 0
M  V30 6465 H 589.313 2.95478 -2.57751 0
M  V30 6466 H 590.803 3.70349 -1.92953 0
M  V30 6467 N 591.24 1.41047 0.703093 0
M  V30 6468 C 592.15 1.44645 1.84703 0
M  V30 6469 C 593.166 0.337778 1.7069 0
M  V30 6470 O 594.342 0.584327 1.92737 0
M  V30 6471 C 591.407 1.31928 3.20618 0
M  V30 6472 C 590.468 2.53047 3.46794 0
M  V30 6473 C 589.701 2.40927 4.76224 0
M  V30 6474 O 589.924 1.42978 5.5219 0
M  V30 6475 O 588.858 3.30543 5.03016 0
M  V30 6476 H 592.684 2.41139 1.84624 0
M  V30 6477 H 590.269 1.22504 0.855167 0
M  V30 6478 H 592.151 1.27092 4.01778 0
M  V30 6479 H 590.826 0.385469 3.21397 0
M  V30 6480 H 589.733 2.6346 2.65593 0
M  V30 6481 H 591.066 3.45231 3.50822 0
M  V30 6482 N 592.718 -0.936591 1.26751 0
M  V30 6483 C 593.648 -2.05315 1.11212 0
M  V30 6484 C 594.629 -1.70092 0.0160262 0
M  V30 6485 O 595.814 -1.93279 0.188894 0
M  V30 6486 C 592.944 -3.39123 0.749171 0
M  V30 6487 C 591.898 -3.88425 1.79751 0
M  V30 6488 C 591.224 -5.18936 1.28876 0
M  V30 6489 C 592.524 -4.12798 3.19992 0
M  V30 6490 H 594.218 -2.18573 2.04613 0
M  V30 6491 H 591.764 -1.05027 0.985159 0
M  V30 6492 H 593.717 -4.16704 0.627323 0
M  V30 6493 H 592.441 -3.25855 -0.220543 0
M  V30 6494 H 591.1 -3.13028 1.90811 0
M  V30 6495 H 590.748 -5.02051 0.308757 0
M  V30 6496 H 590.448 -5.52892 1.98958 0
M  V30 6497 H 591.972 -5.99096 1.17967 0
M  V30 6498 H 593.386 -4.80977 3.11983 0
M  V30 6499 H 591.783 -4.58044 3.87705 0
M  V30 6500 H 592.853 -3.18412 3.65707 0
M  V30 6501 N 594.196 -1.08629 -1.14182 0
M  V30 6502 C 595.426 -0.837673 -1.88856 0
M  V30 6503 C 595.834 0.614024 -1.78959 0
M  V30 6504 O 595.177 1.43384 -1.14833 0
M  V30 6505 C 595.239 -1.18355 -3.39459 0
M  V30 6506 C 594.903 -2.63848 -3.73139 0
M  V30 6507 C 595.9 -3.62099 -3.73069 0
M  V30 6508 C 593.585 -2.99761 -4.03049 0
M  V30 6509 C 595.579 -4.94292 -4.02435 0
M  V30 6510 C 593.266 -4.32147 -4.32078 0
M  V30 6511 C 594.264 -5.29223 -4.31755 0
M  V30 6512 O 593.952 -6.59229 -4.60079 0
M  V30 6513 H 593.684 -0.301609 -0.604986 0
M  V30 6514 H 596.238 -1.44961 -1.45518 0
M  V30 6515 H 594.468 -0.514628 -3.8326 0
M  V30 6516 H 596.157 -0.915391 -3.95443 0
M  V30 6517 H 596.923 -3.35698 -3.50046 0
M  V30 6518 H 592.802 -2.2484 -4.02453 0
M  V30 6519 H 596.346 -5.70055 -4.02098 0
M  V30 6520 H 592.243 -4.58296 -4.54571 0
M  V30 6521 H 593.011 -6.64578 -4.77785 0
M  V30 6522 N 595.674 1.31259 -0.872281 0
M  V30 6523 C 596.621 2.28459 -0.327857 0
M  V30 6524 C 597.591 1.55831 0.574957 0
M  V30 6525 O 598.776 1.83965 0.506101 0
M  V30 6526 C 595.916 3.41985 0.462644 0
M  V30 6527 C 595.029 4.29458 -0.467949 0
M  V30 6528 C 594.164 5.30131 0.336903 0
M  V30 6529 C 593.203 6.0925 -0.58997 0
M  V30 6530 N 592.34 7.01872 0.178775 0
M  V30 6531 H 597.18 2.74414 -1.16193 0
M  V30 6532 H 594.717 1.34994 -0.584376 0
M  V30 6533 H 596.675 4.06547 0.936759 0
M  V30 6534 H 595.305 2.97134 1.2614 0
M  V30 6535 H 594.357 3.65318 -1.06052 0
M  V30 6536 H 595.669 4.84677 -1.17856 0
M  V30 6537 H 594.823 6.0038 0.873427 0
M  V30 6538 H 593.562 4.75573 1.08079 0
M  V30 6539 H 592.567 5.37889 -1.13823 0
M  V30 6540 H 593.792 6.65894 -1.33275 0
M  V30 6541 H 591.738 6.49721 0.905435 0
M  V30 6542 H 591.655 7.54522 -0.472452 0
M  V30 6543 H 592.923 7.76382 0.696454 0
M  V30 6544 N 597.152 0.631951 1.44375 0
M  V30 6545 C 598.102 -0.0943862 2.27805 0
M  V30 6546 C 599.086 -0.815359 1.38711 0
M  V30 6547 O 600.278 -0.701331 1.62513 0
M  V30 6548 C 597.407 -1.07472 3.26044 0
M  V30 6549 C 596.493 -0.353329 4.22626 0
M  V30 6550 N 596.884 0.618512 5.02004 0
M  V30 6551 C 595.182 -0.597662 4.41977 0
M  V30 6552 C 595.883 1.0448 5.7224 0
M  V30 6553 N 594.859 0.383413 5.42246 0
M  V30 6554 H 598.661 0.651672 2.86584 0
M  V30 6555 H 596.175 0.45752 1.55822 0
M  V30 6556 H 598.172 -1.60969 3.84571 0
M  V30 6557 H 596.832 -1.82107 2.68825 0
M  V30 6558 H 597.843 0.996356 5.08226 0
M  V30 6559 H 594.52 -1.32682 3.95856 0
M  V30 6560 H 595.91 1.84773 6.45994 0
M  V30 6561 N 598.631 -1.53133 0.372548 0
M  V30 6562 C 599.561 -2.28876 -0.462412 0
M  V30 6563 C 600.542 -1.31583 -1.07796 0
M  V30 6564 O 601.727 -1.60461 -1.09389 0
M  V30 6565 C 598.857 -3.08317 -1.59868 0
M  V30 6566 C 597.811 -4.13355 -1.11003 0
M  V30 6567 C 597.137 -4.8092 -2.33708 0
M  V30 6568 C 598.437 -5.21955 -0.18983 0
M  V30 6569 H 600.131 -2.9892 0.169511 0
M  V30 6570 H 597.677 -1.43761 0.0829658 0
M  V30 6571 H 599.63 -3.60055 -2.18949 0
M  V30 6572 H 598.354 -2.35976 -2.25794 0
M  V30 6573 H 597.013 -3.62573 -0.541869 0
M  V30 6574 H 596.661 -4.05144 -2.98106 0
M  V30 6575 H 596.361 -5.51904 -2.01682 0
M  V30 6576 H 597.885 -5.35455 -2.93462 0
M  V30 6577 H 599.299 -5.69153 -0.688319 0
M  V30 6578 H 597.696 -6.00087 0.0398887 0
M  V30 6579 H 598.766 -4.78811 0.766057 0
M  V30 6580 N 600.109 -0.101901 -1.5727 0
M  V30 6581 C 601.386 0.602832 -1.86079 0
M  V30 6582 C 601.766 1.85912 -1 0
M  V30 6583 O 601.114 2.28379 -0.0742488 0
M  V30 6584 C 601.324 0.911694 -3.36881 0
M  V30 6585 C 602.672 1.2722 -4.05093 0
M  V30 6586 O 603.696 1.0025 -3.41802 0
M  V30 6587 O 602.555 1.7776 -5.16782 0
M  V30 6588 H 599.649 0.302366 -0.769743 0
M  V30 6589 H 602.195 -0.135113 -1.69161 0
M  V30 6590 H 600.967 0.0207256 -3.91295 0
M  V30 6591 H 600.59 1.70538 -3.59169 0
M  V30 6592 N 601.587 1.56661 0.17182 0
M  V30 6593 C 602.812 1.86459 0.908165 0
M  V30 6594 C 603.237 0.688181 1.75059 0
M  V30 6595 O 602.595 -0.362753 1.77634 0
M  V30 6596 C 602.643 3.14669 1.76112 0
M  V30 6597 O 601.747 2.96858 2.86268 0
M  V30 6598 H 601.088 0.613318 0.254434 0
M  V30 6599 H 603.618 2.03892 0.170113 0
M  V30 6600 H 603.628 3.46061 2.16115 0
M  V30 6601 H 602.303 3.99905 1.14233 0
M  V30 6602 H 600.88 2.76819 2.49852 0
M  V30 6603 N 603.065 -0.440357 1.51323 0
M  V30 6604 C 604.29 -1.21716 1.67928 0
M  V30 6605 C 604.715 -1.84328 0.374826 0
M  V30 6606 O 604.073 -1.68675 -0.664706 0
M  V30 6607 C 604.121 -2.27914 2.79442 0
M  V30 6608 O 603.225 -3.33325 2.42834 0
M  V30 6609 H 602.566 -0.35674 0.560029 0
M  V30 6610 H 605.096 -0.520417 1.97871 0
M  V30 6611 H 605.106 -2.72746 3.03436 0
M  V30 6612 H 603.781 -1.8172 3.741 0
M  V30 6613 H 602.358 -2.9399 2.294 0
M  V30 6614 N 604.543 -1.41418 -0.695603 0
M  V30 6615 C 605.768 -1.44329 -1.48942 0
M  V30 6616 C 606.193 -0.0501579 -1.88033 0
M  V30 6617 O 605.551 0.946598 -1.54626 0
M  V30 6618 C 605.599 -2.3578 -2.72837 0
M  V30 6619 O 604.703 -1.81482 -3.70322 0
M  V30 6620 H 604.044 -0.489838 -0.44828 0
M  V30 6621 H 606.574 -1.85878 -0.855014 0
M  V30 6622 H 606.584 -2.51654 -3.21145 0
M  V30 6623 H 605.259 -3.37005 -2.43722 0
M  V30 6624 H 603.836 -1.75058 -3.29255 0
M  V30 6625 N 606.021 0.929856 -1.27246 0
M  V30 6626 C 606.969 2.05151 -1.09616 0
M  V30 6627 C 607.963 1.69388 -0.0198617 0
M  V30 6628 O 609.169 1.79124 -0.177417 0
M  V30 6629 H 605.544 0.671909 -0.337701 0
M  V30 6630 H 607.515 2.17168 -2.04648 0
M  V30 6631 C 606.264 3.3934 -0.757851 0
M  V30 6632 H 605.587 3.67343 -1.57795 0
M  V30 6633 H 607.027 4.18603 -0.674358 0
M  V30 6634 C 605.486 3.32582 0.537658 0
M  V30 6635 O 606.016 3.69633 1.57271 0
M  V30 6636 N 604.222 2.8568 0.532478 0
M  V30 6637 H 603.769 2.55725 -0.310233 0
M  V30 6638 H 603.727 2.81541 1.39936 0
M  V30 6639 N 607.499 1.09233 1.13605 0
M  V30 6640 C 608.409 0.741939 2.22559 0
M  V30 6641 C 609.425 -0.255236 1.72118 0
M  V30 6642 O 610.601 -0.0970747 2.01166 0
M  V30 6643 C 607.666 0.165595 3.46304 0
M  V30 6644 C 606.727 1.21846 4.11645 0
M  V30 6645 C 605.96 0.669526 5.29484 0
M  V30 6646 O 606.183 -0.508228 5.68131 0
M  V30 6647 O 605.117 1.42361 5.84822 0
M  V30 6648 H 608.943 1.65107 2.54899 0
M  V30 6649 H 606.528 0.866584 1.21699 0
M  V30 6650 H 608.41 -0.152592 4.21124 0
M  V30 6651 H 607.085 -0.716573 3.15669 0
M  V30 6652 H 605.992 1.58931 3.38662 0
M  V30 6653 H 607.325 2.07321 4.46407 0
M  V30 6654 N 608.977 -1.30795 0.87923 0
M  V30 6655 C 610.393 -1.48981 0.57243 0
M  V30 6656 C 610.593 -1.80719 -0.891236 0
M  V30 6657 O 609.649 -1.89136 -1.67283 0
M  V30 6658 C 610.962 -2.61721 1.48063 0
M  V30 6659 C 612.51 -2.75603 1.48365 0
M  V30 6660 C 612.985 -3.91449 2.37763 0
M  V30 6661 N 614.476 -3.98751 2.35695 0
M  V30 6662 C 615.211 -4.87684 3.01583 0
M  V30 6663 N 614.707 -5.81454 3.76674 0
M  V30 6664 N 616.5 -4.81005 2.90844 0
M  V30 6665 H 608.651 -1.08465 1.82617 0
M  V30 6666 H 610.914 -0.536813 0.781368 0
M  V30 6667 H 610.62 -2.45073 2.52254 0
M  V30 6668 H 610.494 -3.58071 1.18596 0
M  V30 6669 H 612.881 -2.9166 0.44927 0
M  V30 6670 H 612.962 -1.79891 1.81859 0
M  V30 6671 H 612.606 -3.76149 3.41283 0
M  V30 6672 H 612.536 -4.86487 2.01589 0
M  V30 6673 H 615.027 -3.31668 1.81121 0
M  V30 6674 H 615.34 -6.46063 4.24054 0
M  V30 6675 H 613.685 -5.81403 3.80782 0
M  V30 6676 H 616.876 -4.06728 2.31711 0
M  V30 6677 H 617.049 -5.50107 3.42471 0
M  V30 6678 N 610.455 -0.639598 -1.44038 0
M  V30 6679 C 611.866 -0.228866 -1.85292 0
M  V30 6680 C 612.217 1.22161 -1.53529 0
M  V30 6681 O 611.342 1.93064 -0.977518 0
M  V30 6682 C 611.937 -0.408592 -3.36327 0
M  V30 6683 C 610.496 -0.0522953 -3.76364 0
M  V30 6684 C 609.643 -0.717959 -2.67844 0
M  V30 6685 H 612.594 -0.844194 -1.34384 0
M  V30 6686 H 612.615 0.349968 -3.78887 0
M  V30 6687 H 612.127 -1.46435 -3.59414 0
M  V30 6688 H 610.228 1.0014 -3.58891 0
M  V30 6689 H 610.341 -0.468261 -4.76806 0
M  V30 6690 H 608.705 -0.152459 -2.54243 0
M  V30 6691 H 609.488 -1.77648 -2.93762 0
M  V30 6692 N 611.933 1.52934 -0.380664 0
M  V30 6693 C 613.21 1.93845 0.261417 0
M  V30 6694 C 613.59 1.31544 1.65104 0
M  V30 6695 O 612.938 0.480234 2.23397 0
M  V30 6696 C 613.148 3.47739 0.296466 0
M  V30 6697 C 614.496 4.21284 0.529578 0
M  V30 6698 O 615.52 3.54199 0.377041 0
M  V30 6699 O 614.379 5.40195 0.827753 0
M  V30 6700 H 611.473 0.811318 0.160285 0
M  V30 6701 H 614.019 1.64042 -0.434544 0
M  V30 6702 H 612.791 3.85395 -0.67724 0
M  V30 6703 H 612.414 3.8382 1.0377 0
M  V30 6704 N 613.412 0.11024 1.57214 0
M  V30 6705 C 614.661 -0.549638 1.94067 0
M  V30 6706 C 614.974 -1.68388 0.995234 0
M  V30 6707 O 616.18 -2.40593 1.25807 0
M  V30 6708 C 614.636 -1.02912 3.44873 0
M  V30 6709 C 614.244 0.0761861 4.47935 0
M  V30 6710 C 615.988 -1.66087 3.9066 0
M  V30 6711 C 613.895 -0.419502 5.8991 0
M  V30 6712 H 612.825 -0.209092 0.724428 0
M  V30 6713 H 615.476 0.188683 1.82527 0
M  V30 6714 H 613.858 -1.82159 3.51616 0
M  V30 6715 H 615.032 0.852185 4.52851 0
M  V30 6716 H 613.347 0.614052 4.11847 0
M  V30 6717 H 615.944 -2.04272 4.94143 0
M  V30 6718 H 616.287 -2.53591 3.30148 0
M  V30 6719 H 616.82 -0.933959 3.86681 0
M  V30 6720 H 613.559 0.419277 6.54158 0
M  V30 6721 H 613.079 -1.16217 5.88433 0
M  V30 6722 H 614.758 -0.883577 6.40938 0
M  V30 6723 N 614.89 -1.56749 -0.16351 0
M  V30 6724 C 616.115 -1.86938 -0.898264 0
M  V30 6725 C 616.54 -0.697456 -1.74692 0
M  V30 6726 O 615.898 0.353327 -1.77824 0
M  V30 6727 C 615.946 -3.15599 -1.74441 0
M  V30 6728 O 615.05 -2.98371 -2.8469 0
M  V30 6729 H 614.391 -0.614659 -0.251178 0
M  V30 6730 H 616.921 -2.03979 -0.159298 0
M  V30 6731 H 616.931 -3.47202 -2.14277 0
M  V30 6732 H 615.606 -4.00505 -1.1211 0
M  V30 6733 H 614.183 -2.7814 -2.4838 0
M  V30 6734 N 616.368 0.432326 -1.51554 0
M  V30 6735 C 617.593 1.20824 -1.68571 0
M  V30 6736 C 618.018 1.84126 -0.384596 0
M  V30 6737 O 617.376 1.69025 0.655751 0
M  V30 6738 C 617.424 2.26429 -2.80646 0
M  V30 6739 O 616.528 3.32032 -2.44598 0
M  V30 6740 H 615.869 0.353765 -0.561913 0
M  V30 6741 H 618.399 0.509916 -1.98144 0
M  V30 6742 H 618.409 2.71133 -3.04878 0
M  V30 6743 H 617.084 1.79733 -3.75058 0
M  V30 6744 H 615.661 2.92769 -2.30956 0
M  V30 6745 N 617.846 1.41785 0.688094 0
M  V30 6746 C 619.095 1.4084 1.44385 0
M  V30 6747 C 619.408 0.0234166 1.95586 0
M  V30 6748 O 620.614 -0.108647 2.71283 0
M  V30 6749 C 619.07 2.47675 2.61123 0
M  V30 6750 C 618.678 3.92116 2.16677 0
M  V30 6751 C 620.422 2.55877 3.38714 0
M  V30 6752 C 618.329 4.90487 3.30419 0
M  V30 6753 H 617.259 0.523787 0.542368 0
M  V30 6754 H 619.91 1.6764 0.74627 0
M  V30 6755 H 618.292 2.14018 3.33185 0
M  V30 6756 H 619.466 4.35059 1.51856 0
M  V30 6757 H 617.781 3.87642 1.5206 0
M  V30 6758 H 620.378 3.26553 4.234 0
M  V30 6759 H 620.721 1.59801 3.84408 0
M  V30 6760 H 621.254 2.88662 2.73714 0
M  V30 6761 H 617.993 5.87994 2.89729 0
M  V30 6762 H 617.513 4.52187 3.94065 0
M  V30 6763 H 619.192 5.11591 3.96085 0
M  V30 6764 N 619.324 -0.923095 1.27737 0
M  V30 6765 C 620.256 -2.02871 1.06658 0
M  V30 6766 C 621.269 -1.62786 0.0212095 0
M  V30 6767 O 622.458 -1.76548 0.263267 0
M  V30 6768 C 619.558 -3.33603 0.59682 0
M  V30 6769 C 618.731 -4.02354 1.71551 0
M  V30 6770 C 617.79 -5.11364 1.24071 0
M  V30 6771 O 616.816 -5.35075 1.94123 0
M  V30 6772 N 618.018 -5.80416 0.0988444 0
M  V30 6773 H 620.783 -2.21515 2.01869 0
M  V30 6774 H 618.344 -1.09378 1.19365 0
M  V30 6775 H 620.336 -4.03845 0.262984 0
M  V30 6776 H 618.906 -3.11499 -0.262187 0
M  V30 6777 H 618.126 -3.25786 2.2194 0
M  V30 6778 H 619.414 -4.45035 2.46619 0
M  V30 6779 H 618.812 -5.63611 -0.485743 0
M  V30 6780 H 617.369 -6.51563 -0.17578 0
M  V30 6781 N 620.802 -1.09834 -1.13024 0
M  V30 6782 C 622.218 -0.828875 -1.36388 0
M  V30 6783 C 622.418 0.554756 -1.93713 0
M  V30 6784 O 621.474 1.30882 -2.15931 0
M  V30 6785 C 622.787 -1.92352 -2.3113 0
M  V30 6786 C 624.335 -1.95124 -2.44735 0
M  V30 6787 C 624.81 -3.03745 -3.42787 0
M  V30 6788 N 626.301 -3.03012 -3.5034 0
M  V30 6789 C 627.036 -3.83699 -4.26101 0
M  V30 6790 N 626.532 -4.74306 -5.04981 0
M  V30 6791 N 628.325 -3.71942 -4.21445 0
M  V30 6792 H 620.476 -1.99029 -0.74169 0
M  V30 6793 H 622.739 -0.864557 -0.388903 0
M  V30 6794 H 622.445 -2.91906 -1.96172 0
M  V30 6795 H 622.319 -1.80536 -3.3119 0
M  V30 6796 H 624.706 -0.962069 -2.78977 0
M  V30 6797 H 624.787 -2.11018 -1.44586 0
M  V30 6798 H 624.431 -4.02878 -3.09276 0
M  V30 6799 H 624.361 -2.85094 -4.42752 0
M  V30 6800 H 626.852 -2.37352 -2.94062 0
M  V30 6801 H 627.165 -5.32446 -5.60108 0
M  V30 6802 H 625.51 -4.78339 -5.04199 0
M  V30 6803 H 628.701 -3.00513 -3.589 0
M  V30 6804 H 628.874 -4.35062 -4.80235 0
M  V30 6805 N 622.28 1.30327 -0.886154 0
M  V30 6806 C 623.696 1.48676 -0.580323 0
M  V30 6807 C 623.896 1.81189 0.881639 0
M  V30 6808 O 622.952 1.90021 1.66278 0
M  V30 6809 C 624.265 2.60932 -1.49449 0
M  V30 6810 C 625.813 2.74812 -1.49824 0
M  V30 6811 C 626.288 3.90183 -2.39836 0
M  V30 6812 N 627.779 3.97495 -2.37806 0
M  V30 6813 C 628.514 4.86078 -3.04165 0
M  V30 6814 N 628.01 5.79448 -3.79753 0
M  V30 6815 N 629.803 4.79456 -2.93391 0
M  V30 6816 H 621.954 1.07495 -1.8319 0
M  V30 6817 H 624.217 0.532661 -0.784204 0
M  V30 6818 H 623.923 2.43731 -2.5355 0
M  V30 6819 H 623.797 3.57437 -1.20494 0
M  V30 6820 H 626.184 2.91418 -0.464731 0
M  V30 6821 H 626.265 1.78924 -1.82811 0
M  V30 6822 H 625.909 3.74334 -3.43273 0
M  V30 6823 H 625.839 4.85411 -2.04166 0
M  V30 6824 H 628.33 3.30703 -1.82877 0
M  V30 6825 H 628.643 6.43805 -4.27475 0
M  V30 6826 H 626.988 5.79376 -3.8386 0
M  V30 6827 H 630.179 4.05494 -2.33864 0
M  V30 6828 H 630.352 5.48283 -3.45383 0
M  V30 6829 N 623.758 0.647228 1.43697 0
M  V30 6830 C 625.007 0.155552 2.01099 0
M  V30 6831 C 625.32 -1.23569 1.51624 0
M  V30 6832 O 626.526 -1.82226 2.01261 0
M  V30 6833 C 624.982 0.227296 3.59182 0
M  V30 6834 C 624.59 1.62086 4.17651 0
M  V30 6835 C 626.334 -0.207085 4.23995 0
M  V30 6836 C 624.241 1.64685 5.68008 0
M  V30 6837 H 623.171 0.0543895 0.752036 0
M  V30 6838 H 625.822 0.808386 1.64734 0
M  V30 6839 H 624.204 -0.492937 3.9292 0
M  V30 6840 H 625.378 2.36597 3.95422 0
M  V30 6841 H 623.693 2.0007 3.65186 0
M  V30 6842 H 626.29 -0.207426 5.34298 0
M  V30 6843 H 626.633 -1.23742 3.97484 0
M  V30 6844 H 627.166 0.461193 3.95118 0
M  V30 6845 H 623.905 2.65608 5.99277 0
M  V30 6846 H 623.425 0.944914 5.9231 0
M  V30 6847 H 625.104 1.38792 6.31938 0
M  V30 6848 N 625.236 -1.5273 0.388769 0
M  V30 6849 C 626.183 -2.26437 -0.446639 0
M  V30 6850 C 627.153 -1.28025 -1.05824 0
M  V30 6851 O 628.338 -1.56852 -1.08637 0
M  V30 6852 C 625.478 -3.07407 -1.56828 0
M  V30 6853 C 624.591 -4.20747 -0.979589 0
M  V30 6854 C 623.726 -4.89113 -2.07224 0
M  V30 6855 C 622.765 -5.94447 -1.45942 0
M  V30 6856 N 621.902 -6.56411 -2.49135 0
M  V30 6857 H 626.742 -2.97404 0.18837 0
M  V30 6858 H 624.279 -1.46727 0.104725 0
M  V30 6859 H 626.237 -3.52642 -2.22934 0
M  V30 6860 H 624.867 -2.3865 -2.17361 0
M  V30 6861 H 623.919 -3.7983 -0.208151 0
M  V30 6862 H 625.231 -4.9637 -0.491747 0
M  V30 6863 H 624.385 -5.3765 -2.81101 0
M  V30 6864 H 623.124 -4.13013 -2.59368 0
M  V30 6865 H 622.129 -5.4525 -0.705894 0
M  V30 6866 H 623.354 -6.7248 -0.945932 0
M  V30 6867 H 621.3 -5.83152 -3.00449 0
M  V30 6868 H 621.217 -7.27645 -2.05105 0
M  V30 6869 H 622.485 -7.09592 -3.22644 0
M  V30 6870 N 626.714 -0.118576 -1.57153 0
M  V30 6871 C 627.661 0.831789 -2.1529 0
M  V30 6872 C 628.631 1.26385 -1.07778 0
M  V30 6873 O 629.816 1.34144 -1.35684 0
M  V30 6874 C 626.956 2.07664 -2.75626 0
M  V30 6875 C 626.069 1.69298 -3.97444 0
M  V30 6876 C 625.204 2.88747 -4.45868 0
M  V30 6877 C 624.243 2.46619 -5.60219 0
M  V30 6878 N 623.38 3.5898 -6.03389 0
M  V30 6879 H 628.22 0.329183 -2.96176 0
M  V30 6880 H 625.757 0.150792 -1.46325 0
M  V30 6881 H 627.715 2.80601 -3.08738 0
M  V30 6882 H 626.345 2.55384 -1.97431 0
M  V30 6883 H 625.397 0.862374 -3.70496 0
M  V30 6884 H 626.709 1.34338 -4.80369 0
M  V30 6885 H 625.863 3.69909 -4.80887 0
M  V30 6886 H 624.602 3.26933 -3.61892 0
M  V30 6887 H 623.607 1.63889 -5.24805 0
M  V30 6888 H 624.832 2.0955 -6.45961 0
M  V30 6889 H 622.778 3.9684 -5.22354 0
M  V30 6890 H 622.695 3.27942 -6.81168 0
M  V30 6891 H 623.963 4.40583 -6.43045 0
M  V30 6892 N 628.193 1.56834 0.155195 0
M  V30 6893 C 629.439 1.83169 0.870467 0
M  V30 6894 C 629.772 0.698929 1.81187 0
M  V30 6895 O 629.047 -0.298035 1.92203 0
M  V30 6896 C 629.33 3.19965 1.65211 0
M  V30 6897 C 629.183 4.43792 0.732744 0
M  V30 6898 C 630.502 3.53885 2.61636 0
M  V30 6899 H 627.621 0.666288 0.315006 0
M  V30 6900 H 630.263 1.89513 0.135988 0
M  V30 6901 H 628.413 3.14687 2.27825 0
M  V30 6902 H 630.085 4.61148 0.118236 0
M  V30 6903 H 628.328 4.3378 0.0417906 0
M  V30 6904 H 628.999 5.36095 1.31552 0
M  V30 6905 H 631.475 3.5972 2.09143 0
M  V30 6906 H 630.351 4.50648 3.13381 0
M  V30 6907 H 630.612 2.79418 3.42605 0
M  V30 6908 N 629.671 -0.424282 1.51781 0
M  V30 6909 C 630.899 -1.1947 1.68921 0
M  V30 6910 C 631.314 -1.84683 0.39213 0
M  V30 6911 O 630.671 -1.71261 -0.630554 0
M  V30 6912 C 630.722 -2.26909 2.81416 0
M  V30 6913 O 630.443 -1.64361 4.061 0
M  V30 6914 C 631.944 -3.16945 3.09937 0
M  V30 6915 H 629.164 -0.359591 0.566511 0
M  V30 6916 H 631.708 -0.501139 1.98265 0
M  V30 6917 H 629.863 -2.91959 2.54635 0
M  V30 6918 H 630.277 -2.35468 4.68674 0
M  V30 6919 H 631.751 -3.88437 3.922 0
M  V30 6920 H 632.228 -3.78451 2.22871 0
M  V30 6921 H 632.834 -2.57581 3.38426 0
M  V30 6922 N 631.149 -1.42148 -0.680565 0
M  V30 6923 C 632.099 -1.41634 -1.78672 0
M  V30 6924 C 633.083 -0.288494 -1.58293 0
M  V30 6925 O 634.275 -0.530295 -1.68869 0
M  V30 6926 C 631.404 -1.31558 -3.17092 0
M  V30 6927 C 630.49 -2.49265 -3.43115 0
M  V30 6928 N 630.881 -3.74702 -3.39753 0
M  V30 6929 C 629.179 -2.43401 -3.73727 0
M  V30 6930 C 629.88 -4.52854 -3.651 0
M  V30 6931 N 628.856 -3.83181 -3.85582 0
M  V30 6932 H 632.658 -2.3652 -1.74458 0
M  V30 6933 H 630.172 -1.36415 -0.881171 0
M  V30 6934 H 632.169 -1.29272 -3.96351 0
M  V30 6935 H 630.829 -0.376696 -3.22508 0
M  V30 6936 H 631.84 -4.07378 -3.19787 0
M  V30 6937 H 628.517 -1.58062 -3.86423 0
M  V30 6938 H 629.907 -5.61827 -3.6851 0
M  V30 6939 N 632.627 0.916307 -1.28225 0
M  V30 6940 C 633.904 1.64429 -1.05936 0
M  V30 6941 C 634.284 2.07234 0.402139 0
M  V30 6942 O 633.632 1.81535 1.3877 0
M  V30 6943 C 633.842 2.83773 -2.03159 0
M  V30 6944 C 635.19 3.54852 -2.33164 0
M  V30 6945 O 636.214 2.93918 -2.01223 0
M  V30 6946 O 635.073 4.64663 -2.87664 0
M  V30 6947 H 632.167 0.721221 -0.404683 0
M  V30 6948 H 634.713 0.965838 -1.39534 0
M  V30 6949 H 633.485 2.49217 -3.01673 0
M  V30 6950 H 633.108 3.59333 -1.70192 0
M  V30 6951 N 634.105 1.10431 1.1244 0
M  V30 6952 C 635.038 0.696987 2.17296 0
M  V30 6953 C 636.016 -0.301673 1.59777 0
M  V30 6954 O 637.2 -0.200583 1.8743 0
M  V30 6955 C 634.327 0.0284094 3.38688 0
M  V30 6956 C 633.373 0.990536 4.14838 0
M  V30 6957 S 634.206 2.50785 4.73146 0
M  V30 6958 C 635.362 1.85198 5.97873 0
M  V30 6959 H 635.595 1.58523 2.51511 0
M  V30 6960 H 633.128 0.921312 1.239 0
M  V30 6961 H 635.086 -0.351009 4.08997 0
M  V30 6962 H 633.747 -0.836629 3.02753 0
M  V30 6963 H 632.94 0.469991 5.01804 0
M  V30 6964 H 632.542 1.31186 3.50237 0
M  V30 6965 H 634.834 1.18217 6.67106 0
M  V30 6966 H 635.777 2.7012 6.54554 0
M  V30 6967 H 636.185 1.31653 5.48933 0
M  V30 6968 N 635.583 -1.29855 0.893053 0
M  V30 6969 C 636.86 -1.90694 0.435336 0
M  V30 6970 C 637.24 -1.8111 -1.08454 0
M  V30 6971 O 636.588 -1.23352 -1.92345 0
M  V30 6972 C 636.798 -3.36033 0.942472 0
M  V30 6973 C 638.146 -4.13083 0.982226 0
M  V30 6974 O 639.17 -3.4491 0.889686 0
M  V30 6975 O 638.029 -5.34896 1.12022 0
M  V30 6976 H 635.123 -0.815978 0.134567 0
M  V30 6977 H 637.669 -1.38367 0.982484 0
M  V30 6978 H 636.441 -3.37132 1.9864 0
M  V30 6979 H 636.064 -3.95828 0.374952 0
M  V30 6980 N 637.061 -0.65484 -1.43351 0
M  V30 6981 C 637.994 0.0855537 -2.2804 0
M  V30 6982 C 638.972 0.828301 -1.39921 0
M  V30 6983 O 640.156 0.827539 -1.69364 0
M  V30 6984 C 637.283 1.12792 -3.19368 0
M  V30 6985 C 636.329 0.483037 -4.23756 0
M  V30 6986 S 637.162 -0.744605 -5.30298 0
M  V30 6987 C 638.318 0.297187 -6.25194 0
M  V30 6988 H 638.551 -0.632831 -2.90487 0
M  V30 6989 H 636.084 -0.44373 -1.47886 0
M  V30 6990 H 638.042 1.7243 -3.72529 0
M  V30 6991 H 636.703 1.81863 -2.56095 0
M  V30 6992 H 635.896 1.26888 -4.87766 0
M  V30 6993 H 635.498 -0.0392713 -3.73979 0
M  V30 6994 H 637.79 1.1629 -6.67445 0
M  V30 6995 H 638.733 -0.30793 -7.0743 0
M  V30 6996 H 639.141 0.633721 -5.60932 0
M  V30 6997 N 638.539 1.52521 -0.396863 0
M  V30 6998 C 639.779 2.03583 0.182578 0
M  V30 6999 C 640.143 1.2766 1.43412 0
M  V30 7000 O 641.344 1.68884 2.09121 0
M  V30 7001 C 639.615 3.54724 0.436519 0
M  V30 7002 S 641.174 4.27598 0.985163 0
M  V30 7003 H 637.992 0.709186 0.0507529 0
M  V30 7004 H 640.594 1.87693 -0.546955 0
M  V30 7005 H 639.298 4.07567 -0.481343 0
M  V30 7006 H 638.829 3.74834 1.19427 0
M  V30 7007 H 640.844 4.41393 2.26686 0
M  V30 7008 N 640.017 0.126909 1.57088 0
M  V30 7009 C 641.247 -0.535892 1.99529 0
M  V30 7010 C 641.655 -1.60259 1.00566 0
M  V30 7011 O 640.998 -1.83698 -0.00843269 0
M  V30 7012 C 641.06 -1.21374 3.38391 0
M  V30 7013 C 640.724 -0.294044 4.56053 0
M  V30 7014 C 641.721 0.470454 5.17767 0
M  V30 7015 C 639.406 -0.202808 5.0189 0
M  V30 7016 C 641.4 1.31384 6.23712 0
M  V30 7017 C 639.087 0.644203 6.07695 0
M  V30 7018 C 640.085 1.40115 6.68473 0
M  V30 7019 O 639.773 2.23408 7.72233 0
M  V30 7020 H 639.505 -0.145799 0.66009 0
M  V30 7021 H 642.059 0.212441 2.04298 0
M  V30 7022 H 640.289 -2.00931 3.30399 0
M  V30 7023 H 641.978 -1.77424 3.65069 0
M  V30 7024 H 642.744 0.409884 4.83265 0
M  V30 7025 H 638.623 -0.781688 4.54324 0
M  V30 7026 H 642.167 1.90514 6.71081 0
M  V30 7027 H 638.064 0.706137 6.41626 0
M  V30 7028 H 638.832 2.16436 7.89365 0
M  V30 7029 N 641.495 -1.56914 -0.146875 0
M  V30 7030 C 642.743 -1.82994 -0.85777 0
M  V30 7031 C 643.064 -0.707814 -1.817 0
M  V30 7032 O 642.334 0.270521 -1.94023 0
M  V30 7033 H 640.914 -0.675106 -0.319751 0
M  V30 7034 H 643.576 -1.9439 -0.140849 0
M  V30 7035 H 642.672 -2.77928 -1.41994 0
M  V30 7036 N 642.974 0.416227 -1.52004 0
M  V30 7037 C 643.907 1.52736 -1.6955 0
M  V30 7038 C 644.885 1.53264 -0.54305 0
M  V30 7039 O 646.069 1.72077 -0.769527 0
M  V30 7040 C 643.196 2.91283 -1.72835 0
M  V30 7041 C 642.242 3.08695 -2.94295 0
M  V30 7042 S 643.075 2.82758 -4.54762 0
M  V30 7043 C 644.231 4.23548 -4.60823 0
M  V30 7044 H 644.464 1.37623 -2.63528 0
M  V30 7045 H 641.997 0.607335 -1.41954 0
M  V30 7046 H 643.955 3.71134 -1.75413 0
M  V30 7047 H 642.616 3.03742 -0.799966 0
M  V30 7048 H 641.809 4.10042 -2.93056 0
M  V30 7049 H 641.411 2.36699 -2.89568 0
M  V30 7050 H 643.703 5.17078 -4.37763 0
M  V30 7051 H 644.646 4.29813 -5.62731 0
M  V30 7052 H 645.054 4.08188 -3.89927 0
M  V30 7053 N 644.452 1.42507 0.673017 0
M  V30 7054 C 645.385 1.40557 1.79774 0
M  V30 7055 C 646.363 0.269606 1.60349 0
M  V30 7056 O 647.547 0.460105 1.82798 0
M  V30 7057 C 644.674 1.19815 3.168 0
M  V30 7058 C 643.72 2.36429 3.5497 0
M  V30 7059 S 644.553 3.98963 3.57196 0
M  V30 7060 C 645.709 3.80567 4.9691 0
M  V30 7061 H 645.942 2.35734 1.81154 0
M  V30 7062 H 643.475 1.293 0.843846 0
M  V30 7063 H 645.433 1.08535 3.95892 0
M  V30 7064 H 644.094 0.262215 3.13004 0
M  V30 7065 H 643.287 2.17669 4.54573 0
M  V30 7066 H 642.889 2.44233 2.83242 0
M  V30 7067 H 645.181 3.41668 5.85038 0
M  V30 7068 H 646.124 4.79852 5.20718 0
M  V30 7069 H 646.532 3.13399 4.69512 0
M  V30 7070 N 645.93 -0.909495 1.28709 0
M  V30 7071 C 647.178 -1.65577 1.15882 0
M  V30 7072 C 647.499 -1.928 -0.292108 0
M  V30 7073 O 646.769 -1.54716 -1.20166 0
M  V30 7074 H 645.349 -0.613714 0.425869 0
M  V30 7075 H 648.011 -1.09108 1.61498 0
M  V30 7076 H 647.107 -2.61634 1.70159 0
M  V30 7077 N 647.408 -1.11026 -1.11852 0
M  V30 7078 C 648.633 -0.879064 -1.87849 0
M  V30 7079 C 649.058 0.565406 -1.79401 0
M  V30 7080 O 648.416 1.39886 -1.15333 0
M  V30 7081 C 648.464 -1.33985 -3.34784 0
M  V30 7082 O 647.568 -0.508803 -4.09249 0
M  V30 7083 H 646.909 -0.316992 -0.583448 0
M  V30 7084 H 649.439 -1.47863 -1.41413 0
M  V30 7085 H 649.449 -1.33248 -3.85628 0
M  V30 7086 H 648.124 -2.39172 -3.40249 0
M  V30 7087 H 646.701 -0.581913 -3.68332 0
M  V30 7088 N 648.886 1.2938 -0.899927 0
M  V30 7089 C 649.816 2.30144 -0.39446 0
M  V30 7090 C 650.797 1.61611 0.530639 0
M  V30 7091 O 651.982 1.89119 0.441319 0
M  V30 7092 C 649.112 3.45229 0.37868 0
M  V30 7093 C 648.066 4.25564 -0.456012 0
M  V30 7094 C 647.392 5.32848 0.444637 0
M  V30 7095 C 648.692 4.93651 -1.70605 0
M  V30 7096 H 650.386 2.72673 -1.23653 0
M  V30 7097 H 647.932 1.31086 -0.596034 0
M  V30 7098 H 649.885 4.14797 0.743037 0
M  V30 7099 H 648.609 3.01545 1.25453 0
M  V30 7100 H 647.268 3.57704 -0.802704 0
M  V30 7101 H 646.916 4.85408 1.31863 0
M  V30 7102 H 646.616 5.87497 -0.110154 0
M  V30 7103 H 648.14 6.05268 0.805182 0
M  V30 7104 H 649.554 5.55655 -1.41141 0
M  V30 7105 H 647.951 5.58233 -2.20217 0
M  V30 7106 H 649.021 4.18926 -2.4419 0
M  V30 7107 N 650.364 0.662433 1.43002 0
M  V30 7108 C 651.611 0.179591 2.01702 0
M  V30 7109 C 651.939 -1.20964 1.52309 0
M  V30 7110 O 651.194 -1.82343 0.7106 0
M  V30 7111 C 651.493 0.149363 3.57088 0
M  V30 7112 C 651.159 1.48158 4.25864 0
M  V30 7113 C 649.821 1.84638 4.44367 0
M  V30 7114 C 652.173 2.35953 4.64732 0
M  V30 7115 C 649.501 3.08561 4.99006 0
M  V30 7116 C 651.853 3.59176 5.20745 0
M  V30 7117 C 650.517 3.95841 5.37463 0
M  V30 7118 H 649.787 0.0657172 0.73808 0
M  V30 7119 H 652.434 0.854968 1.71355 0
M  V30 7120 H 650.739 -0.609491 3.8703 0
M  V30 7121 H 652.436 -0.241241 4.00274 0
M  V30 7122 H 649.026 1.18777 4.11813 0
M  V30 7123 H 653.21 2.09058 4.50121 0
M  V30 7124 H 648.466 3.37005 5.10135 0
M  V30 7125 H 652.64 4.27417 5.49807 0
M  V30 7126 H 650.267 4.91942 5.79566 0
M  V30 7127 N 651.842 -1.52309 0.404946 0
M  V30 7128 C 653.258 -1.59503 0.0556255 0
M  V30 7129 C 653.458 -1.41805 -1.43156 0
M  V30 7130 O 652.514 -1.2429 -2.19792 0
M  V30 7131 C 653.827 -2.95687 0.546801 0
M  V30 7132 C 655.375 -3.08909 0.504413 0
M  V30 7133 C 655.85 -4.47566 0.97203 0
M  V30 7134 N 657.341 -4.53795 0.928679 0
M  V30 7135 C 658.076 -5.59346 1.26174 0
M  V30 7136 N 657.572 -6.72469 1.66604 0
M  V30 7137 N 659.365 -5.49532 1.18198 0
M  V30 7138 H 651.516 -1.6206 1.37296 0
M  V30 7139 H 653.779 -0.762161 0.563751 0
M  V30 7140 H 653.485 -3.13905 1.58609 0
M  V30 7141 H 653.359 -3.77172 -0.0457905 0
M  V30 7142 H 655.746 -2.90378 -0.525819 0
M  V30 7143 H 655.827 -2.2934 1.13301 0
M  V30 7144 H 655.471 -4.6684 2.00057 0
M  V30 7145 H 655.401 -5.25625 0.320292 0
M  V30 7146 H 657.892 -3.72588 0.631369 0
M  V30 7147 H 658.205 -7.48993 1.9034 0
M  V30 7148 H 656.55 -6.73761 1.70504 0
M  V30 7149 H 659.741 -4.60038 0.865011 0
M  V30 7150 H 659.914 -6.31687 1.44485 0
M  V30 7151 N 653.32 -0.135238 -1.57019 0
M  V30 7152 C 654.545 0.529343 -2.00531 0
M  V30 7153 C 654.97 1.58391 -1.01459 0
M  V30 7154 O 654.328 1.81296 0.0113986 0
M  V30 7155 C 654.376 1.11748 -3.42848 0
M  V30 7156 O 653.48 2.23267 -3.46736 0
M  V30 7157 H 652.821 0.130669 -0.651016 0
M  V30 7158 H 655.351 -0.228503 -2.0332 0
M  V30 7159 H 655.361 1.44905 -3.81401 0
M  V30 7160 H 654.036 0.345147 -4.14465 0
M  V30 7161 H 652.613 1.91428 -3.20015 0
M  V30 7162 N 654.798 1.5699 0.138552 0
M  V30 7163 C 656.046 1.83446 0.848053 0
M  V30 7164 C 656.367 0.71744 1.81322 0
M  V30 7165 O 655.637 -0.260228 1.94164 0
M  V30 7166 H 654.217 0.676792 0.316166 0
M  V30 7167 H 656.879 1.94462 0.130538 0
M  V30 7168 H 655.975 2.78677 1.40518 0
M  V30 7169 N 656.276 -0.40816 1.52223 0
M  V30 7170 C 657.501 -1.18127 1.70472 0
M  V30 7171 C 657.926 -1.83491 0.41384 0
M  V30 7172 O 657.284 -1.70047 -0.628778 0
M  V30 7173 C 657.332 -2.21935 2.84213 0
M  V30 7174 O 656.436 -3.28099 2.4985 0
M  V30 7175 H 655.777 -0.344781 0.56747 0
M  V30 7176 H 658.307 -0.478328 1.9893 0
M  V30 7177 H 658.317 -2.66248 3.09153 0
M  V30 7178 H 656.992 -1.73744 3.7787 0
M  V30 7179 H 655.569 -2.89058 2.35584 0
M  V30 7180 N 657.755 -1.42862 -0.66545 0
M  V30 7181 C 659.171 -1.25993 -0.979687 0
M  V30 7182 C 659.371 -0.170831 -2.00775 0
M  V30 7183 O 658.427 0.454827 -2.4837 0
M  V30 7184 C 659.74 -2.62005 -1.47559 0
M  V30 7185 C 661.288 -2.69437 -1.59288 0
M  V30 7186 C 661.763 -4.05838 -2.12272 0
M  V30 7187 N 663.254 -4.0784 -2.19592 0
M  V30 7188 C 663.989 -5.10205 -2.61684 0
M  V30 7189 N 663.485 -6.22949 -3.03161 0
M  V30 7190 N 665.278 -4.9756 -2.61516 0
M  V30 7191 H 657.429 -2.12395 0.0150493 0
M  V30 7192 H 659.692 -0.946355 -0.0558187 0
M  V30 7193 H 659.398 -3.42605 -0.794654 0
M  V30 7194 H 659.272 -2.86566 -2.45275 0
M  V30 7195 H 661.659 -1.89178 -2.26486 0
M  V30 7196 H 661.74 -2.48655 -0.600374 0
M  V30 7197 H 661.384 -4.86559 -1.4568 0
M  V30 7198 H 661.314 -4.23977 -3.12331 0
M  V30 7199 H 663.805 -3.26452 -1.90361 0
M  V30 7200 H 664.118 -6.96899 -3.33993 0
M  V30 7201 H 662.463 -6.2644 -3.00995 0
M  V30 7202 H 665.654 -4.08551 -2.28481 0
M  V30 7203 H 665.827 -5.77468 -2.93999 0
M  V30 7204 N 659.233 0.902656 -1.29189 0
M  V30 7205 C 660.165 2.01149 -1.09872 0
M  V30 7206 C 661.178 1.62732 -0.0471046 0
M  V30 7207 O 662.367 1.76107 -0.29132 0
M  V30 7208 C 659.467 3.32612 -0.649818 0
M  V30 7209 C 658.64 3.99574 -1.7793 0
M  V30 7210 C 657.699 5.09325 -1.32191 0
M  V30 7211 O 656.725 5.31919 -2.02611 0
M  V30 7212 N 657.927 5.80185 -0.191171 0
M  V30 7213 H 660.692 2.18276 -2.05368 0
M  V30 7214 H 658.253 1.07466 -1.2109 0
M  V30 7215 H 660.245 4.03375 -0.327199 0
M  V30 7216 H 658.815 3.11876 0.212597 0
M  V30 7217 H 658.035 3.22213 -2.27095 0
M  V30 7218 H 659.323 4.41056 -2.53668 0
M  V30 7219 H 658.721 5.64312 0.396016 0
M  V30 7220 H 657.278 6.5176 0.0721001 0
M  V30 7221 N 660.711 1.11618 1.11262 0
M  V30 7222 C 661.939 0.888739 1.8684 0
M  V30 7223 C 662.354 -0.561558 1.80255 0
M  V30 7224 O 661.711 -1.38782 1.18515 0
M  V30 7225 C 661.762 1.34422 3.35579 0
M  V30 7226 O 661.483 2.73766 3.42029 0
M  V30 7227 C 662.984 1.15246 4.28058 0
M  V30 7228 H 660.204 0.318152 0.590779 0
M  V30 7229 H 662.748 1.48398 1.40707 0
M  V30 7230 H 660.903 0.79239 3.7921 0
M  V30 7231 H 661.317 2.9355 4.34659 0
M  V30 7232 H 662.791 1.52015 5.30656 0
M  V30 7233 H 663.268 0.0922007 4.39103 0
M  V30 7234 H 663.874 1.69136 3.90222 0
M  V30 7235 N 662.189 -1.289 0.906776 0
M  V30 7236 C 663.119 -2.29932 0.406659 0
M  V30 7237 C 664.1 -1.6189 -0.522061 0
M  V30 7238 O 665.285 -1.8935 -0.431283 0
M  V30 7239 C 662.415 -3.45425 -0.360366 0
M  V30 7240 C 661.369 -4.25316 0.478574 0
M  V30 7241 C 660.695 -5.33076 -0.416373 0
M  V30 7242 C 661.995 -4.92739 1.7322 0
M  V30 7243 H 663.689 -2.72013 1.25097 0
M  V30 7244 H 661.235 -1.30768 0.602977 0
M  V30 7245 H 663.188 -4.15186 -0.721029 0
M  V30 7246 H 661.912 -3.02206 -1.23852 0
M  V30 7247 H 660.571 -3.57273 0.821662 0
M  V30 7248 H 660.219 -4.86101 -1.29287 0
M  V30 7249 H 659.919 -5.8743 0.141309 0
M  V30 7250 H 661.443 -6.05686 -0.773072 0
M  V30 7251 H 662.857 -5.54898 1.44086 0
M  V30 7252 H 661.254 -5.57057 2.23175 0
M  V30 7253 H 662.324 -4.17625 2.46408 0
M  V30 7254 N 663.667 -0.670007 -1.42649 0
M  V30 7255 C 664.914 -0.190286 -2.01604 0
M  V30 7256 C 665.242 1.20155 -1.52948 0
M  V30 7257 O 664.497 1.81964 -0.72026 0
M  V30 7258 C 664.796 -0.168298 -3.57004 0
M  V30 7259 C 664.462 -1.50415 -4.25072 0
M  V30 7260 C 663.124 -1.86992 -4.43382 0
M  V30 7261 C 665.476 -2.38414 -4.63474 0
M  V30 7262 C 662.804 -3.11203 -4.97363 0
M  V30 7263 C 665.156 -3.61933 -5.18833 0
M  V30 7264 C 663.82 -3.98685 -5.35356 0
M  V30 7265 H 663.09 -0.0696305 -0.737721 0
M  V30 7266 H 665.737 -0.864044 -1.70899 0
M  V30 7267 H 664.042 0.588958 -3.87348 0
M  V30 7268 H 665.739 0.22001 -4.00396 0
M  V30 7269 H 662.329 -1.20959 -4.11177 0
M  V30 7270 H 666.513 -2.11442 -4.49006 0
M  V30 7271 H 661.769 -3.39705 -5.08341 0
M  V30 7272 H 665.943 -4.30326 -5.47533 0
M  V30 7273 H 663.57 -4.95009 -5.76949 0
M  V30 7274 N 665.145 1.52092 -0.413018 0
M  V30 7275 C 666.108 2.25706 0.398687 0
M  V30 7276 C 667.108 1.28221 0.970368 0
M  V30 7277 O 668.298 1.52131 0.848635 0
M  V30 7278 C 665.43 3.03029 1.5616 0
M  V30 7279 H 666.623 2.98888 -0.246131 0
M  V30 7280 H 664.176 1.5542 -0.165622 0
M  V30 7281 H 664.911 2.34205 2.24317 0
M  V30 7282 H 664.696 3.74606 1.15812 0
M  V30 7283 H 666.186 3.58857 2.13569 0
M  V30 7284 N 666.623 0.143563 1.56945 0
M  V30 7285 C 667.848 -0.518701 2.00809 0
M  V30 7286 C 668.273 -1.5785 1.02298 0
M  V30 7287 O 667.631 -1.813 -0.0017839 0
M  V30 7288 C 667.679 -1.09929 3.43436 0
M  V30 7289 O 666.783 -2.21425 3.47915 0
M  V30 7290 H 666.124 -0.127215 0.6517 0
M  V30 7291 H 668.654 0.239283 2.03196 0
M  V30 7292 H 668.664 -1.4288 3.82164 0
M  V30 7293 H 667.339 -0.323162 4.14643 0
M  V30 7294 H 665.916 -1.89728 3.21026 0
M  V30 7295 N 668.101 -1.57061 -0.130224 0
M  V30 7296 C 669.033 -1.96147 -1.18571 0
M  V30 7297 C 670.046 -0.859347 -1.38272 0
M  V30 7298 O 671.235 -1.13769 -1.37545 0
M  V30 7299 C 668.335 -2.23484 -2.54771 0
M  V30 7300 C 667.508 -3.54786 -2.55824 0
M  V30 7301 C 666.567 -3.70467 -3.73686 0
M  V30 7302 O 665.593 -4.42693 -3.57787 0
M  V30 7303 N 666.795 -3.08389 -4.91809 0
M  V30 7304 H 669.56 -2.87295 -0.853333 0
M  V30 7305 H 667.121 -1.58714 -0.319621 0
M  V30 7306 H 669.113 -2.312 -3.32158 0
M  V30 7307 H 667.683 -1.38518 -2.80235 0
M  V30 7308 H 666.903 -3.5836 -1.64232 0
M  V30 7309 H 668.191 -4.4111 -2.53573 0
M  V30 7310 H 667.589 -2.49656 -5.0763 0
M  V30 7311 H 666.146 -3.21642 -5.66912 0
M  V30 7312 N 669.579 0.400081 -1.52437 0
M  V30 7313 C 670.825 1.14788 -1.67187 0
M  V30 7314 C 671.158 1.89928 -0.405074 0
M  V30 7315 O 670.433 1.85118 0.596804 0
M  V30 7316 C 670.716 2.13507 -2.89977 0
M  V30 7317 C 670.569 1.42204 -4.2673 0
M  V30 7318 C 671.888 3.14069 -3.083 0
M  V30 7319 H 669.007 0.415939 -0.608411 0
M  V30 7320 H 671.649 0.432542 -1.85011 0
M  V30 7321 H 669.799 2.7451 -2.74912 0
M  V30 7322 H 671.471 0.842503 -4.53541 0
M  V30 7323 H 669.714 0.723939 -4.27717 0
M  V30 7324 H 670.385 2.14281 -5.08712 0
M  V30 7325 H 672.861 2.63148 -3.22323 0
M  V30 7326 H 671.737 3.80398 -3.95713 0
M  V30 7327 H 671.998 3.82309 -2.22018 0
M  V30 7328 N 671.057 1.43213 0.657864 0
M  V30 7329 C 671.99 1.42456 1.78273 0
M  V30 7330 C 672.968 0.286598 1.60054 0
M  V30 7331 O 674.152 0.479467 1.823 0
M  V30 7332 C 671.279 1.23169 3.15511 0
M  V30 7333 C 670.325 2.40181 3.52442 0
M  V30 7334 S 671.158 4.02729 3.52944 0
M  V30 7335 C 672.314 3.85816 4.92846 0
M  V30 7336 H 672.547 2.37642 1.78644 0
M  V30 7337 H 670.08 1.30188 0.830084 0
M  V30 7338 H 672.038 1.12728 3.94719 0
M  V30 7339 H 670.699 0.295398 3.12708 0
M  V30 7340 H 669.892 2.22478 4.52239 0
M  V30 7341 H 669.494 2.47224 2.80636 0
M  V30 7342 H 671.786 3.47853 5.81381 0
M  V30 7343 H 672.729 4.85348 5.15599 0
M  V30 7344 H 673.137 3.18361 4.66162 0
M  V30 7345 N 672.536 -0.895792 1.29666 0
M  V30 7346 C 673.952 -1.17726 1.07763 0
M  V30 7347 C 674.152 -2.00794 -0.168576 0
M  V30 7348 O 673.208 -2.37213 -0.865244 0
M  V30 7349 C 674.521 -1.89441 2.33522 0
M  V30 7350 C 676.069 -2.02251 2.3888 0
M  V30 7351 C 676.544 -2.77378 3.64452 0
M  V30 7352 N 678.035 -2.8493 3.65198 0
M  V30 7353 C 678.77 -3.43606 4.59045 0
M  V30 7354 N 678.266 -4.03417 5.63228 0
M  V30 7355 N 680.059 -3.41317 4.46608 0
M  V30 7356 H 672.21 -0.341652 2.09634 0
M  V30 7357 H 674.473 -0.213865 0.923561 0
M  V30 7358 H 674.179 -1.35842 3.24407 0
M  V30 7359 H 674.053 -2.89893 2.41334 0
M  V30 7360 H 676.44 -2.55025 1.4848 0
M  V30 7361 H 676.521 -1.0092 2.3505 0
M  V30 7362 H 676.165 -2.25279 4.55205 0
M  V30 7363 H 676.095 -3.79062 3.65541 0
M  V30 7364 H 678.586 -2.42453 2.89871 0
M  V30 7365 H 678.899 -4.46224 6.30955 0
M  V30 7366 H 677.244 -4.01868 5.67033 0
M  V30 7367 H 680.435 -2.93812 3.64407 0
M  V30 7368 H 680.608 -3.86751 5.1993 0
M  V30 7369 N 674.014 -1.12206 -1.10668 0
M  V30 7370 C 675.244 -0.897332 -1.86095 0
M  V30 7371 C 675.652 0.556778 -1.80822 0
M  V30 7372 O 674.995 1.39658 -1.19337 0
M  V30 7373 C 675.057 -1.29095 -3.35522 0
M  V30 7374 C 674.721 -2.75586 -3.64556 0
M  V30 7375 C 675.718 -3.73785 -3.6136 0
M  V30 7376 C 673.403 -3.12432 -3.93309 0
M  V30 7377 C 675.397 -5.06845 -3.86506 0
M  V30 7378 C 673.084 -4.45675 -4.18111 0
M  V30 7379 C 674.082 -5.42691 -4.147 0
M  V30 7380 O 673.77 -6.73532 -4.38873 0
M  V30 7381 H 673.502 -0.320704 -0.595084 0
M  V30 7382 H 676.056 -1.49517 -1.40833 0
M  V30 7383 H 674.286 -0.636299 -3.81429 0
M  V30 7384 H 675.975 -1.04073 -3.92331 0
M  V30 7385 H 676.741 -3.46664 -3.39189 0
M  V30 7386 H 672.62 -2.3753 -3.95096 0
M  V30 7387 H 676.164 -5.82559 -3.83758 0
M  V30 7388 H 672.061 -4.72526 -4.39761 0
M  V30 7389 H 672.829 -6.79442 -4.564 0
M  V30 7390 N 675.492 1.28418 -0.913599 0
M  V30 7391 C 676.455 2.25564 -0.406624 0
M  V30 7392 C 677.455 1.5387 0.466965 0
M  V30 7393 O 678.645 1.72094 0.270042 0
M  V30 7394 C 675.777 3.38339 0.417053 0
M  V30 7395 H 676.97 2.71926 -1.26477 0
M  V30 7396 H 674.523 1.40098 -0.692986 0
M  V30 7397 H 675.258 2.97339 1.29461 0
M  V30 7398 H 675.043 3.91542 -0.209102 0
M  V30 7399 H 676.533 4.10578 0.762602 0
M  V30 7400 N 676.97 0.677563 1.42291 0
M  V30 7401 C 678.247 0.129803 1.95169 0
M  V30 7402 C 678.627 -1.35605 1.61786 0
M  V30 7403 O 677.975 -2.09361 0.915444 0
M  V30 7404 C 678.185 0.401889 3.46678 0
M  V30 7405 C 679.533 0.319889 4.23393 0
M  V30 7406 O 680.557 0.33579 3.54614 0
M  V30 7407 O 679.416 0.264459 5.4586 0
M  V30 7408 H 676.51 0.00447433 0.826988 0
M  V30 7409 H 679.056 0.752483 1.52105 0
M  V30 7410 H 677.828 1.43108 3.64192 0
M  V30 7411 H 677.451 -0.252662 3.96796 0
M  V30 7412 N 678.448 -1.51871 0.421078 0
M  V30 7413 C 679.378 -2.30231 -0.389363 0
M  V30 7414 C 680.359 -1.34946 -1.03555 0
M  V30 7415 O 681.544 -1.63859 -1.04229 0
M  V30 7416 C 678.674 -3.13247 -1.49979 0
M  V30 7417 C 677.628 -4.16677 -0.977966 0
M  V30 7418 C 676.954 -4.88112 -2.1829 0
M  V30 7419 C 678.254 -5.22295 -0.0236775 0
M  V30 7420 H 679.948 -2.98229 0.264524 0
M  V30 7421 H 677.494 -1.43424 0.12866 0
M  V30 7422 H 679.447 -3.66838 -2.07383 0
M  V30 7423 H 678.171 -2.4304 -2.18173 0
M  V30 7424 H 676.83 -3.64114 -0.426245 0
M  V30 7425 H 676.478 -4.14423 -2.85066 0
M  V30 7426 H 676.178 -5.58041 -1.84021 0
M  V30 7427 H 677.702 -5.44521 -2.76278 0
M  V30 7428 H 679.116 -5.71055 -0.506899 0
M  V30 7429 H 677.513 -5.99656 0.230782 0
M  V30 7430 H 678.583 -4.76131 0.917999 0
M  V30 7431 N 679.926 -0.151884 -1.56866 0
M  V30 7432 C 681.156 0.504081 -2.00356 0
M  V30 7433 C 681.564 1.58639 -1.03103 0
M  V30 7434 O 680.907 1.83688 -0.0207931 0
M  V30 7435 C 680.969 1.15975 -3.40279 0
M  V30 7436 C 680.633 0.221453 -4.56463 0
M  V30 7437 C 681.63 -0.552766 -5.16953 0
M  V30 7438 C 679.315 0.122936 -5.0215 0
M  V30 7439 C 681.309 -1.4129 -6.21543 0
M  V30 7440 C 678.996 -0.740801 -6.06593 0
M  V30 7441 C 679.994 -1.50732 -6.6616 0
M  V30 7442 O 679.682 -2.35666 -7.68581 0
M  V30 7443 H 679.414 0.135279 -0.662326 0
M  V30 7444 H 681.968 -0.244916 -2.03935 0
M  V30 7445 H 680.198 1.95649 -3.33554 0
M  V30 7446 H 681.887 1.71594 -3.67846 0
M  V30 7447 H 682.653 -0.486716 -4.82552 0
M  V30 7448 H 678.532 0.70931 -4.5551 0
M  V30 7449 H 682.076 -2.01166 -6.67966 0
M  V30 7450 H 677.973 -0.808125 -6.40421 0
M  V30 7451 H 678.741 -2.28967 -7.85822 0
M  V30 7452 N 681.404 1.57128 0.121893 0
M  V30 7453 C 682.367 1.99197 1.13372 0
M  V30 7454 C 683.367 0.881728 1.3447 0
M  V30 7455 O 684.557 1.14783 1.31036 0
M  V30 7456 C 681.689 2.32963 2.4888 0
M  V30 7457 H 682.882 2.89788 0.772204 0
M  V30 7458 H 680.435 1.51952 0.366093 0
M  V30 7459 H 681.17 1.45243 2.89957 0
M  V30 7460 H 680.955 3.13934 2.34921 0
M  V30 7461 H 682.445 2.66261 3.21706 0
M  V30 7462 N 682.882 -0.391992 1.52647 0
M  V30 7463 C 683.845 -1.46135 1.7657 0
M  V30 7464 C 684.845 -1.47701 0.635698 0
M  V30 7465 O 686.035 -1.48924 0.903728 0
M  V30 7466 C 683.167 -2.85443 1.86374 0
M  V30 7467 H 684.36 -1.26208 2.72051 0
M  V30 7468 H 681.913 -0.623549 1.43323 0
M  V30 7469 H 682.648 -3.10718 0.928685 0
M  V30 7470 H 682.433 -2.85708 2.68539 0
M  V30 7471 H 683.923 -3.62933 2.06566 0
M  V30 7472 N 684.36 -1.4356 -0.65026 0
M  V30 7473 C 685.585 -1.48995 -1.44275 0
M  V30 7474 C 686.01 -0.109954 -1.87778 0
M  V30 7475 O 685.368 0.896926 -1.57559 0
M  V30 7476 C 685.416 -2.44341 -2.65198 0
M  V30 7477 O 684.52 -1.93172 -3.6436 0
M  V30 7478 H 683.861 -0.503852 -0.432469 0
M  V30 7479 H 686.391 -1.88504 -0.795446 0
M  V30 7480 H 686.401 -2.61743 -3.12977 0
M  V30 7481 H 685.076 -3.44588 -2.32877 0
M  V30 7482 H 683.653 -1.85445 -3.23519 0
M  V30 7483 N 685.838 0.888903 -1.30139 0
M  V30 7484 C 687.085 1.64037 -1.18736 0
M  V30 7485 C 687.413 1.92771 0.258801 0
M  V30 7486 O 686.668 1.54427 1.20212 0
M  V30 7487 C 686.967 2.99041 -1.95728 0
M  V30 7488 C 686.633 2.89874 -3.45375 0
M  V30 7489 C 685.295 2.87082 -3.86183 0
M  V30 7490 C 687.647 2.78289 -4.40687 0
M  V30 7491 C 684.975 2.70536 -5.20603 0
M  V30 7492 C 687.327 2.63282 -5.75209 0
M  V30 7493 C 685.991 2.58861 -6.15262 0
M  V30 7494 H 685.261 0.600253 -0.434485 0
M  V30 7495 H 687.908 1.0338 -1.61198 0
M  V30 7496 H 686.213 3.63626 -1.45888 0
M  V30 7497 H 687.91 3.56139 -1.843 0
M  V30 7498 H 684.5 2.92856 -3.12943 0
M  V30 7499 H 688.684 2.79516 -4.10103 0
M  V30 7500 H 683.94 2.65526 -5.50732 0
M  V30 7501 H 688.114 2.5329 -6.48704 0
M  V30 7502 H 685.741 2.45799 -7.19366 0
M  V30 7503 N 687.317 1.12792 1.10072 0
M  V30 7504 C 688.566 0.880232 1.81479 0
M  V30 7505 C 688.879 -0.595575 1.86312 0
M  V30 7506 O 690.085 -0.959979 2.53962 0
M  V30 7507 C 688.541 1.52514 3.25987 0
M  V30 7508 C 688.149 3.036 3.29441 0
M  V30 7509 C 689.893 1.35788 4.02196 0
M  V30 7510 C 687.8 3.61007 4.68431 0
M  V30 7511 H 686.73 0.325654 0.680048 0
M  V30 7512 H 689.381 1.35485 1.23758 0
M  V30 7513 H 687.763 0.978188 3.83728 0
M  V30 7514 H 688.937 3.64819 2.81502 0
M  V30 7515 H 687.252 3.19765 2.66719 0
M  V30 7516 H 689.849 1.76096 5.0487 0
M  V30 7517 H 690.192 0.301972 4.15203 0
M  V30 7518 H 690.725 1.87426 3.50879 0
M  V30 7519 H 687.464 4.66375 4.60625 0
M  V30 7520 H 686.984 3.04564 5.16721 0
M  V30 7521 H 688.663 3.60289 5.37402 0
M  V30 7522 N 688.795 -1.27931 0.920396 0
M  V30 7523 C 689.743 -2.29061 0.404191 0
M  V30 7524 C 690.737 -1.61615 -0.507634 0
M  V30 7525 O 691.943 -1.75765 -0.388144 0
M  V30 7526 H 688.318 -0.743594 0.112123 0
M  V30 7527 H 690.289 -2.70021 1.27008 0
M  V30 7528 C 689.038 -3.46088 -0.334466 0
M  V30 7529 H 688.361 -3.98194 0.35797 0
M  V30 7530 H 689.801 -4.18829 -0.660196 0
M  V30 7531 C 688.26 -2.99396 -1.54479 0
M  V30 7532 O 688.79 -3.02439 -2.64374 0
M  V30 7533 N 686.996 -2.54978 -1.39408 0
M  V30 7534 H 686.543 -2.52701 -0.500009 0
M  V30 7535 H 686.501 -2.24098 -2.20516 0
M  V30 7536 N 690.273 -0.685099 -1.4193 0
M  V30 7537 C 691.203 -0.0273506 -2.33484 0
M  V30 7538 C 692.184 0.778366 -1.51246 0
M  V30 7539 O 693.369 0.733449 -1.79817 0
M  V30 7540 C 690.499 0.917272 -3.34968 0
M  V30 7541 C 689.453 0.21941 -4.27437 0
M  V30 7542 C 688.779 1.27768 -5.1921 0
M  V30 7543 C 690.079 -0.907894 -5.14349 0
M  V30 7544 H 691.773 -0.791994 -2.88735 0
M  V30 7545 H 689.319 -0.382308 -1.38832 0
M  V30 7546 H 691.272 1.38657 -3.97935 0
M  V30 7547 H 689.996 1.71346 -2.78043 0
M  V30 7548 H 688.655 -0.229757 -3.65879 0
M  V30 7549 H 688.303 2.06612 -4.58607 0
M  V30 7550 H 688.003 0.815803 -5.81909 0
M  V30 7551 H 689.527 1.7477 -5.85054 0
M  V30 7552 H 690.941 -0.519348 -5.70943 0
M  V30 7553 H 689.338 -1.2962 -5.85934 0
M  V30 7554 H 690.408 -1.75218 -4.52136 0
M  V30 7555 N 691.751 1.51645 -0.429126 0
M  V30 7556 C 692.681 2.30434 0.377148 0
M  V30 7557 C 693.662 1.35493 1.02838 0
M  V30 7558 O 694.847 1.6441 1.03359 0
M  V30 7559 C 691.977 3.14038 1.48315 0
M  V30 7560 C 690.931 4.1719 0.955855 0
M  V30 7561 C 690.257 4.89263 2.15698 0
M  V30 7562 C 691.557 5.223 -0.00402136 0
M  V30 7563 H 693.251 2.98085 -0.280336 0
M  V30 7564 H 690.797 1.43354 -0.136265 0
M  V30 7565 H 692.75 3.67933 2.05435 0
M  V30 7566 H 691.474 2.44193 2.16881 0
M  V30 7567 H 690.133 3.64335 0.406929 0
M  V30 7568 H 689.781 4.15929 2.82864 0
M  V30 7569 H 689.481 5.59009 1.81059 0
M  V30 7570 H 691.005 5.45978 2.73387 0
M  V30 7571 H 692.419 5.71315 0.476607 0
M  V30 7572 H 690.816 5.99525 -0.26258 0
M  V30 7573 H 691.886 4.75638 -0.943236 0
M  V30 7574 N 693.229 0.160201 1.56784 0
M  V30 7575 C 694.459 -0.493449 2.00621 0
M  V30 7576 C 694.867 -1.5809 1.03943 0
M  V30 7577 O 694.21 -1.83675 0.0305343 0
M  V30 7578 C 694.272 -1.14169 3.4089 0
M  V30 7579 C 693.936 -0.197243 4.56574 0
M  V30 7580 C 694.933 0.580174 5.16653 0
M  V30 7581 C 692.618 -0.0963038 5.02208 0
M  V30 7582 C 694.612 1.44584 6.20785 0
M  V30 7583 C 692.299 0.772959 6.06192 0
M  V30 7584 C 693.297 1.54263 6.65351 0
M  V30 7585 O 692.985 2.39738 7.67321 0
M  V30 7586 H 692.717 -0.131764 0.663034 0
M  V30 7587 H 695.271 0.255728 2.03802 0
M  V30 7588 H 693.501 -1.93877 3.34587 0
M  V30 7589 H 695.19 -1.69641 3.6875 0
M  V30 7590 H 695.956 0.5123 4.82287 0
M  V30 7591 H 691.835 -0.685143 4.5588 0
M  V30 7592 H 695.379 2.04706 6.66889 0
M  V30 7593 H 691.276 0.842077 6.39984 0
M  V30 7594 H 692.044 2.33131 7.84597 0
M  V30 7595 N 694.707 -1.5719 -0.113559 0
M  V30 7596 C 695.937 -1.89053 -0.833212 0
M  V30 7597 C 696.345 -0.750139 -1.73694 0
M  V30 7598 O 695.688 0.287808 -1.81431 0
M  V30 7599 C 695.75 -3.15986 -1.71443 0
M  V30 7600 C 695.414 -4.46271 -0.984449 0
M  V30 7601 C 696.411 -5.18897 -0.322741 0
M  V30 7602 C 694.096 -4.92963 -0.964011 0
M  V30 7603 C 696.09 -6.3644 0.349646 0
M  V30 7604 C 693.777 -6.10422 -0.287828 0
M  V30 7605 C 694.775 -6.82009 0.36784 0
M  V30 7606 O 694.463 -7.97233 1.03322 0
M  V30 7607 H 694.195 -0.630225 -0.244526 0
M  V30 7608 H 696.749 -2.05152 -0.100847 0
M  V30 7609 H 694.979 -2.95984 -2.48858 0
M  V30 7610 H 696.668 -3.33826 -2.309 0
M  V30 7611 H 697.434 -4.83875 -0.330114 0
M  V30 7612 H 693.313 -4.37143 -1.46379 0
M  V30 7613 H 696.857 -6.92254 0.861996 0
M  V30 7614 H 692.754 -6.449 -0.278237 0
M  V30 7615 H 693.522 -8.13105 0.938247 0
M  V30 7616 N 696.185 0.383891 -1.52853 0
M  V30 7617 C 697.596 0.961591 -1.60032 0
M  V30 7618 C 697.947 1.90819 -0.456333 0
M  V30 7619 O 697.072 2.12288 0.419873 0
M  V30 7620 C 697.667 1.75078 -2.90057 0
M  V30 7621 C 696.226 2.2781 -2.99632 0
M  V30 7622 C 695.373 1.08512 -2.55187 0
M  V30 7623 H 698.324 0.163269 -1.57858 0
M  V30 7624 H 698.345 2.61046 -2.7683 0
M  V30 7625 H 697.857 1.06157 -3.73299 0
M  V30 7626 H 695.958 3.00028 -2.20939 0
M  V30 7627 H 696.071 2.56947 -4.0437 0
M  V30 7628 H 694.435 1.44667 -2.09627 0
M  V30 7629 H 695.218 0.41118 -3.40829 0
M  V30 7630 N 697.663 1.43903 0.642637 0
M  V30 7631 C 698.91 1.46079 1.40239 0
M  V30 7632 C 699.238 0.0890335 1.94296 0
M  V30 7633 O 698.493 -0.907533 1.73385 0
M  V30 7634 C 698.792 2.45907 2.59354 0
M  V30 7635 C 698.458 3.91522 2.23654 0
M  V30 7636 C 697.12 4.31179 2.1363 0
M  V30 7637 C 699.472 4.83242 1.95261 0
M  V30 7638 C 696.8 5.60495 1.73384 0
M  V30 7639 C 699.152 6.12933 1.56511 0
M  V30 7640 C 697.816 6.51556 1.4502 0
M  V30 7641 H 697.086 0.534542 0.513172 0
M  V30 7642 H 699.733 1.77047 0.72984 0
M  V30 7643 H 698.038 2.08381 3.3179 0
M  V30 7644 H 699.735 2.44842 3.17574 0
M  V30 7645 H 696.325 3.60142 2.32369 0
M  V30 7646 H 700.509 4.53367 2.0192 0
M  V30 7647 H 695.765 5.89249 1.63082 0
M  V30 7648 H 699.939 6.83469 1.33576 0
M  V30 7649 H 697.566 7.51663 1.13606 0
M  V30 7650 N 699.141 -0.881989 1.30609 0
M  V30 7651 C 700.366 -1.67236 1.22665 0
M  V30 7652 C 700.791 -1.8696 -0.206777 0
M  V30 7653 O 700.149 -1.4027 -1.14865 0
M  V30 7654 C 700.197 -3.02446 1.96363 0
M  V30 7655 O 699.301 -3.91614 1.29276 0
M  V30 7656 H 698.642 -0.510902 0.424117 0
M  V30 7657 H 701.172 -1.10055 1.72479 0
M  V30 7658 H 701.182 -3.52468 2.055 0
M  V30 7659 H 699.857 -2.8741 3.00613 0
M  V30 7660 H 698.434 -3.50055 1.28514 0
M  V30 7661 N 700.619 -1.13374 -1.09472 0
M  V30 7662 C 701.849 -0.917019 -1.85133 0
M  V30 7663 C 702.257 0.537568 -1.81402 0
M  V30 7664 O 701.6 1.38385 -1.20811 0
M  V30 7665 C 701.662 -1.32646 -3.34134 0
M  V30 7666 C 701.326 -2.79437 -3.61613 0
M  V30 7667 C 702.323 -3.77596 -3.57375 0
M  V30 7668 C 700.008 -3.16586 -3.89973 0
M  V30 7669 C 702.002 -5.10916 -3.81108 0
M  V30 7670 C 699.689 -4.50085 -4.13361 0
M  V30 7671 C 700.687 -5.47059 -4.0892 0
M  V30 7672 O 700.375 -6.78149 -4.31705 0
M  V30 7673 H 700.107 -0.326997 -0.591649 0
M  V30 7674 H 702.661 -1.51002 -1.39239 0
M  V30 7675 H 700.891 -0.676719 -3.80733 0
M  V30 7676 H 702.58 -1.08229 -3.91205 0
M  V30 7677 H 703.346 -3.50242 -3.35493 0
M  V30 7678 H 699.225 -2.41707 -3.92554 0
M  V30 7679 H 702.769 -5.86597 -3.77558 0
M  V30 7680 H 698.666 -4.77163 -4.34724 0
M  V30 7681 H 699.434 -6.84244 -4.49168 0
M  V30 7682 N 702.098 1.27442 -0.927168 0
M  V30 7683 C 703.028 2.29256 -0.443188 0
M  V30 7684 C 704.009 1.62701 0.49624 0
M  V30 7685 O 705.194 1.90013 0.401105 0
M  V30 7686 C 702.324 3.45955 0.305366 0
M  V30 7687 C 701.278 4.24501 -0.546178 0
M  V30 7688 C 700.604 5.33671 0.331512 0
M  V30 7689 C 701.904 4.89921 -1.81037 0
M  V30 7690 H 703.598 2.69988 -1.29409 0
M  V30 7691 H 701.144 1.29792 -0.623705 0
M  V30 7692 H 703.097 4.1628 0.654885 0
M  V30 7693 H 701.821 3.04138 1.19029 0
M  V30 7694 H 700.48 3.55921 -0.878398 0
M  V30 7695 H 700.128 4.88096 1.21537 0
M  V30 7696 H 699.828 5.87131 -0.234746 0
M  V30 7697 H 701.352 6.0684 0.676614 0
M  V30 7698 H 702.766 5.52536 -1.52895 0
M  V30 7699 H 701.163 5.53436 -2.32009 0
M  V30 7700 H 702.233 4.13652 -2.53021 0
M  V30 7701 N 703.576 0.692616 1.41565 0
M  V30 7702 C 704.823 0.222335 2.01276 0
M  V30 7703 C 705.151 -1.17706 1.5484 0
M  V30 7704 O 704.406 -1.80795 0.749118 0
M  V30 7705 C 704.705 0.225073 3.56691 0
M  V30 7706 C 704.371 1.57158 4.22625 0
M  V30 7707 C 703.033 1.94022 4.40351 0
M  V30 7708 C 705.385 2.45758 4.59622 0
M  V30 7709 C 702.713 3.19076 4.92349 0
M  V30 7710 C 705.065 3.70141 5.13009 0
M  V30 7711 C 703.729 4.07152 5.28946 0
M  V30 7712 H 702.999 0.0813581 0.73652 0
M  V30 7713 H 705.646 0.891123 1.69503 0
M  V30 7714 H 703.951 -0.527259 3.88236 0
M  V30 7715 H 705.648 -0.156283 4.00695 0
M  V30 7716 H 702.238 1.27486 4.09201 0
M  V30 7717 H 706.422 2.18558 4.45585 0
M  V30 7718 H 701.678 3.4775 5.02872 0
M  V30 7719 H 705.852 4.38983 5.40617 0
M  V30 7720 H 703.479 5.04125 5.69001 0
M  V30 7721 N 705.054 -1.51416 0.437162 0
M  V30 7722 C 706.47 -1.59349 0.0894459 0
M  V30 7723 C 706.67 -1.44809 -1.40116 0
M  V30 7724 O 705.726 -1.28924 -2.17106 0
M  V30 7725 C 707.039 -2.9446 0.609398 0
M  V30 7726 C 708.587 -3.07769 0.569824 0
M  V30 7727 C 709.062 -4.45404 1.06675 0
M  V30 7728 N 710.553 -4.51723 1.02473 0
M  V30 7729 C 711.288 -5.56544 1.3801 0
M  V30 7730 N 710.784 -6.68784 1.80831 0
M  V30 7731 N 712.577 -5.46901 1.29828 0
M  V30 7732 H 704.728 -1.59112 1.40703 0
M  V30 7733 H 706.991 -0.750031 0.579791 0
M  V30 7734 H 706.697 -3.1047 1.65231 0
M  V30 7735 H 706.571 -3.77184 0.0342236 0
M  V30 7736 H 708.958 -2.91428 -0.464107 0
M  V30 7737 H 709.039 -2.26885 1.1814 0
M  V30 7738 H 708.683 -4.62492 2.09914 0
M  V30 7739 H 708.613 -5.24827 0.431712 0
M  V30 7740 H 711.104 -3.71165 0.710258 0
M  V30 7741 H 711.417 -7.44787 2.06185 0
M  V30 7742 H 709.762 -6.69992 1.84757 0
M  V30 7743 H 712.953 -4.581 0.962397 0
M  V30 7744 H 713.126 -6.2848 1.57851 0
M  V30 7745 N 706.532 -0.168513 -1.56696 0
M  V30 7746 C 707.495 0.748928 -2.16619 0
M  V30 7747 C 708.495 1.16007 -1.11351 0
M  V30 7748 O 709.685 1.07748 -1.3688 0
M  V30 7749 C 706.817 2.01904 -2.74677 0
M  V30 7750 H 708.01 0.227317 -2.99037 0
M  V30 7751 H 705.563 0.0810372 -1.5609 0
M  V30 7752 H 706.298 2.58381 -1.95985 0
M  V30 7753 H 706.083 1.73323 -3.51712 0
M  V30 7754 H 707.573 2.67383 -3.20774 0
M  V30 7755 N 708.01 1.57248 0.105221 0
M  V30 7756 C 708.973 2.00388 1.11252 0
M  V30 7757 C 709.973 0.89594 1.33527 0
M  V30 7758 O 711.163 1.16166 1.29811 0
M  V30 7759 C 708.295 2.35589 2.46395 0
M  V30 7760 H 709.488 2.90591 0.741424 0
M  V30 7761 H 707.041 1.52332 0.349956 0
M  V30 7762 H 707.776 1.4831 2.884 0
M  V30 7763 H 707.561 3.16408 2.31578 0
M  V30 7764 H 709.051 2.69658 3.18864 0
M  V30 7765 N 709.488 -0.375779 1.53054 0
M  V30 7766 C 710.438 -1.45965 1.75152 0
M  V30 7767 C 711.422 -1.49059 0.605823 0
M  V30 7768 O 712.614 -1.54472 0.864133 0
M  V30 7769 C 709.743 -2.83524 1.93569 0
M  V30 7770 C 708.829 -2.84949 3.1411 0
M  V30 7771 N 709.22 -2.56029 4.36214 0
M  V30 7772 C 707.518 -3.16113 3.14625 0
M  V30 7773 C 708.219 -2.64873 5.17897 0
M  V30 7774 N 707.195 -2.99159 4.53878 0
M  V30 7775 H 710.997 -1.22454 2.67175 0
M  V30 7776 H 708.511 -0.583867 1.51541 0
M  V30 7777 H 710.508 -3.61578 2.07525 0
M  V30 7778 H 709.168 -3.08008 1.02768 0
M  V30 7779 H 710.179 -2.29808 4.64121 0
M  V30 7780 H 706.856 -3.45977 2.3368 0
M  V30 7781 H 708.246 -2.45947 6.25268 0
M  V30 7782 N 710.966 -1.44241 -0.634997 0
M  V30 7783 C 712.212 -1.47038 -1.39669 0
M  V30 7784 C 712.545 -0.101122 -1.93937 0
M  V30 7785 O 711.82 0.880699 -1.73418 0
M  V30 7786 C 712.103 -2.52763 -2.56482 0
M  V30 7787 C 711.956 -3.99032 -2.07589 0
M  V30 7788 C 713.275 -2.55031 -3.58674 0
M  V30 7789 H 710.394 -0.53537 -0.506506 0
M  V30 7790 H 713.036 -1.75898 -0.718317 0
M  V30 7791 H 711.186 -2.28284 -3.14354 0
M  V30 7792 H 712.858 -4.3463 -1.54577 0
M  V30 7793 H 711.101 -4.10994 -1.38804 0
M  V30 7794 H 711.772 -4.68649 -2.91671 0
M  V30 7795 H 714.248 -2.76893 -3.10595 0
M  V30 7796 H 713.124 -3.30916 -4.37934 0
M  V30 7797 H 713.385 -1.59085 -4.12486 0
M  V30 7798 N 712.444 0.87505 -1.31075 0
M  V30 7799 C 713.374 1.99775 -1.20881 0
M  V30 7800 C 714.355 1.69822 -0.0971612 0
M  V30 7801 O 715.54 1.92158 -0.280895 0
M  V30 7802 C 712.67 3.35163 -0.910118 0
M  V30 7803 C 711.624 3.79406 -1.98078 0
M  V30 7804 C 710.95 5.12197 -1.53488 0
M  V30 7805 C 712.25 3.97061 -3.39323 0
M  V30 7806 H 713.944 2.08562 -2.14808 0
M  V30 7807 H 711.49 1.00207 -1.03415 0
M  V30 7808 H 713.443 4.13237 -0.825423 0
M  V30 7809 H 712.167 3.26536 0.064822 0
M  V30 7810 H 710.826 3.03568 -2.05528 0
M  V30 7811 H 710.474 5.00007 -0.547941 0
M  V30 7812 H 710.174 5.4277 -2.2511 0
M  V30 7813 H 711.698 5.92785 -1.46417 0
M  V30 7814 H 713.112 4.65545 -3.34576 0
M  V30 7815 H 711.509 4.39025 -4.09118 0
M  V30 7816 H 712.579 3.00601 -3.80483 0
M  V30 7817 N 713.922 1.13953 1.08869 0
M  V30 7818 C 714.855 0.765765 2.14968 0
M  V30 7819 C 715.833 -0.250689 1.60656 0
M  V30 7820 O 717.017 -0.140852 1.87973 0
M  V30 7821 C 714.144 0.136146 3.38426 0
M  V30 7822 C 713.19 1.12201 4.11477 0
M  V30 7823 S 714.023 2.65711 4.64928 0
M  V30 7824 C 715.179 2.04125 5.91679 0
M  V30 7825 H 715.412 1.66444 2.46341 0
M  V30 7826 H 712.945 0.960263 1.20906 0
M  V30 7827 H 714.903 -0.220712 4.09906 0
M  V30 7828 H 713.564 -0.739887 3.05261 0
M  V30 7829 H 712.757 0.629398 5.00055 0
M  V30 7830 H 712.359 1.42262 3.45886 0
M  V30 7831 H 714.651 1.39381 6.63008 0
M  V30 7832 H 715.594 2.90808 6.45629 0
M  V30 7833 H 716.002 1.4905 5.44467 0
M  V30 7834 N 715.4 -1.26948 0.933913 0
M  V30 7835 C 716.811 -1.76058 0.621324 0
M  V30 7836 C 717.162 -1.76175 -0.863522 0
M  V30 7837 O 716.287 -1.36921 -1.67576 0
M  V30 7838 C 716.882 -3.19713 1.12111 0
M  V30 7839 C 715.441 -3.66465 0.859074 0
M  V30 7840 C 714.588 -2.46186 1.27624 0
M  V30 7841 H 717.539 -1.13127 1.11301 0
M  V30 7842 H 717.56 -3.77566 0.471608 0
M  V30 7843 H 717.072 -3.19596 2.20182 0
M  V30 7844 H 715.173 -3.72021 -0.207566 0
M  V30 7845 H 715.286 -4.55636 1.48098 0
M  V30 7846 H 713.65 -2.45042 0.694727 0
M  V30 7847 H 714.433 -2.48774 2.36572 0
M  V30 7848 N 716.879 -0.700114 -1.41195 0
M  V30 7849 C 717.829 -0.0144098 -2.27995 0
M  V30 7850 C 718.813 0.748249 -1.42443 0
M  V30 7851 O 720.005 0.622995 -1.65674 0
M  V30 7852 C 717.134 0.917938 -3.308 0
M  V30 7853 C 716.22 0.151286 -4.2383 0
M  V30 7854 N 716.611 -0.85732 -4.98481 0
M  V30 7855 C 714.909 0.386108 -4.44326 0
M  V30 7856 C 715.61 -1.31663 -5.66604 0
M  V30 7857 N 714.586 -0.641689 -5.39799 0
M  V30 7858 H 718.388 -0.787662 -2.83149 0
M  V30 7859 H 715.902 -0.531344 -1.53462 0
M  V30 7860 H 717.899 1.42437 -3.91813 0
M  V30 7861 H 716.559 1.69074 -2.77208 0
M  V30 7862 H 717.57 -1.2377 -5.02893 0
M  V30 7863 H 714.247 1.13644 -4.01735 0
M  V30 7864 H 715.637 -2.15384 -6.36443 0
M  V30 7865 N 718.357 1.51182 -0.445186 0
M  V30 7866 C 719.267 2.31692 0.368255 0
M  V30 7867 C 720.283 1.40942 1.02036 0
M  V30 7868 O 721.459 1.74011 1.01401 0
M  V30 7869 C 718.524 3.14903 1.45041 0
M  V30 7870 C 717.585 4.21442 0.817615 0
M  V30 7871 C 716.818 5.00677 1.8482 0
M  V30 7872 O 717.041 4.80644 3.07145 0
M  V30 7873 O 715.975 5.84559 1.43438 0
M  V30 7874 H 719.801 3.0232 -0.289219 0
M  V30 7875 H 717.386 1.47951 -0.207555 0
M  V30 7876 H 719.268 3.66612 2.07783 0
M  V30 7877 H 717.943 2.47031 2.09182 0
M  V30 7878 H 716.85 3.73791 0.151931 0
M  V30 7879 H 718.183 4.9171 0.219564 0
M  V30 7880 N 719.835 0.176821 1.56605 0
M  V30 7881 C 721.06 -0.47599 2.01864 0
M  V30 7882 C 721.485 -1.55645 1.05623 0
M  V30 7883 O 720.843 -1.81263 0.0366729 0
M  V30 7884 C 720.891 -1.02619 3.4569 0
M  V30 7885 O 719.995 -2.13996 3.52533 0
M  V30 7886 H 719.336 -0.113363 0.654251 0
M  V30 7887 H 721.866 0.28233 2.02643 0
M  V30 7888 H 721.876 -1.34742 3.85109 0
M  V30 7889 H 720.551 -0.235138 4.15235 0
M  V30 7890 H 719.128 -1.82876 3.24978 0
M  V30 7891 N 721.313 -1.57302 -0.09688 0
M  V30 7892 C 722.541 -1.90202 -0.814295 0
M  V30 7893 C 722.956 -0.770344 -1.72369 0
M  V30 7894 O 722.313 0.257764 -1.8067 0
M  V30 7895 C 722.364 -3.22708 -1.62916 0
M  V30 7896 O 722.085 -4.31522 -0.756343 0
M  V30 7897 C 723.586 -3.69459 -2.44979 0
M  V30 7898 H 720.806 -0.629275 -0.232925 0
M  V30 7899 H 723.35 -2.04364 -0.0746482 0
M  V30 7900 H 721.505 -3.1015 -2.32133 0
M  V30 7901 H 721.919 -5.07604 -1.32054 0
M  V30 7902 H 723.393 -4.64875 -2.9765 0
M  V30 7903 H 723.87 -2.97211 -3.23361 0
M  V30 7904 H 724.476 -3.84879 -1.80964 0
M  V30 7905 N 722.791 0.367657 -1.53252 0
M  V30 7906 C 724.037 1.11216 -1.69584 0
M  V30 7907 C 724.37 1.89026 -0.445269 0
M  V30 7908 O 723.645 1.86342 0.557404 0
M  V30 7909 C 723.928 2.07308 -2.94441 0
M  V30 7910 C 723.781 1.3312 -4.2965 0
M  V30 7911 C 725.1 3.07459 -3.14892 0
M  V30 7912 H 722.219 0.40294 -0.617096 0
M  V30 7913 H 724.861 0.393201 -1.85887 0
M  V30 7914 H 723.011 2.68617 -2.80673 0
M  V30 7915 H 724.683 0.746111 -4.55226 0
M  V30 7916 H 722.926 0.633051 -4.29156 0
M  V30 7917 H 723.597 2.03443 -5.13142 0
M  V30 7918 H 726.073 2.56252 -3.27832 0
M  V30 7919 H 724.949 3.71919 -4.03693 0
M  V30 7920 H 725.21 3.77514 -2.30077 0
M  V30 7921 N 724.269 1.44576 0.627338 0
M  V30 7922 C 725.179 1.54232 1.76776 0
M  V30 7923 C 726.195 0.427782 1.6866 0
M  V30 7924 O 727.371 0.685671 1.89369 0
M  V30 7925 C 724.436 1.48738 3.13174 0
M  V30 7926 C 723.497 2.71074 3.32893 0
M  V30 7927 C 722.73 2.65832 4.62784 0
M  V30 7928 O 722.953 1.72048 5.43834 0
M  V30 7929 O 721.887 3.56742 4.84787 0
M  V30 7930 H 725.713 2.50586 1.71582 0
M  V30 7931 H 723.298 1.26865 0.789028 0
M  V30 7932 H 725.18 1.48211 3.94476 0
M  V30 7933 H 723.855 0.555292 3.18902 0
M  V30 7934 H 722.762 2.77168 2.51254 0
M  V30 7935 H 724.095 3.63342 3.32029 0
M  V30 7936 N 725.747 -0.868086 1.31537 0
M  V30 7937 C 726.697 -1.96321 1.1594 0
M  V30 7938 C 727.681 -1.60748 0.0698962 0
M  V30 7939 O 728.873 -1.74524 0.295011 0
M  V30 7940 C 726.002 -3.32073 0.870789 0
M  V30 7941 C 725.088 -3.73907 2.00136 0
M  V30 7942 N 725.479 -3.87685 3.24859 0
M  V30 7943 C 723.777 -4.03433 1.90152 0
M  V30 7944 C 724.478 -4.23454 3.98825 0
M  V30 7945 N 723.454 -4.34242 3.27009 0
M  V30 7946 H 727.256 -2.05088 2.10514 0
M  V30 7947 H 724.77 -1.059 1.23122 0
M  V30 7948 H 726.767 -4.10279 0.740034 0
M  V30 7949 H 725.427 -3.24631 -0.0667068 0
M  V30 7950 H 726.438 -3.72363 3.59953 0
M  V30 7951 H 723.115 -4.0437 1.03879 0
M  V30 7952 H 724.505 -4.41696 5.06314 0
M  V30 7953 N 727.225 -1.14528 -1.08264 0
M  V30 7954 C 728.453 -0.937964 -1.84418 0
M  V30 7955 C 728.868 0.51357 -1.81681 0
M  V30 7956 O 728.225 1.35591 -1.22153 0
M  V30 7957 C 728.276 -1.43272 -3.31897 0
M  V30 7958 O 727.997 -2.82738 -3.34651 0
M  V30 7959 C 729.498 -1.26555 -4.24851 0
M  V30 7960 H 726.718 -0.333704 -0.582136 0
M  V30 7961 H 729.262 -1.52076 -1.36723 0
M  V30 7962 H 727.417 -0.892653 -3.76975 0
M  V30 7963 H 727.831 -3.04971 -4.26724 0
M  V30 7964 H 729.305 -1.66031 -5.26439 0
M  V30 7965 H 729.782 -0.208589 -4.38704 0
M  V30 7966 H 730.388 -1.79423 -3.856 0
M  V30 7967 N 728.703 1.26451 -0.940633 0
M  V30 7968 C 729.653 2.24086 -0.420669 0
M  V30 7969 C 730.637 1.53501 0.482301 0
M  V30 7970 O 731.829 1.74127 0.317636 0
M  V30 7971 C 728.958 3.41866 0.313452 0
M  V30 7972 C 728.044 4.19737 -0.606779 0
M  V30 7973 N 728.435 4.7521 -1.73232 0
M  V30 7974 C 726.733 4.44091 -0.41226 0
M  V30 7975 C 727.434 5.34052 -2.30572 0
M  V30 7976 N 726.41 5.1971 -1.59381 0
M  V30 7977 H 730.212 2.64569 -1.27986 0
M  V30 7978 H 727.726 1.4153 -0.796436 0
M  V30 7979 H 729.723 4.1093 0.702991 0
M  V30 7980 H 728.383 3.0291 1.16942 0
M  V30 7981 H 729.394 4.72769 -2.11447 0
M  V30 7982 H 726.071 4.1556 0.401984 0
M  V30 7983 H 727.461 5.87845 -3.25404 0
M  V30 7984 N 730.181 0.707592 1.40822 0
M  V30 7985 C 731.427 0.244031 2.01326 0
M  V30 7986 C 731.76 -1.15722 1.55955 0
M  V30 7987 O 731.035 -1.78347 0.776044 0
M  V30 7988 C 731.318 0.315128 3.58718 0
M  V30 7989 C 731.171 1.75419 4.14184 0
M  V30 7990 C 732.49 -0.318251 4.38948 0
M  V30 7991 H 729.609 0.0901471 0.731466 0
M  V30 7992 H 732.251 0.898584 1.67408 0
M  V30 7993 H 730.401 -0.242176 3.87744 0
M  V30 7994 H 732.073 2.36626 3.95987 0
M  V30 7995 H 730.316 2.28449 3.68773 0
M  V30 7996 H 730.987 1.75538 5.23345 0
M  V30 7997 H 733.463 0.156514 4.15806 0
M  V30 7998 H 732.339 -0.238019 5.48384 0
M  V30 7999 H 732.6 -1.40067 4.19325 0
M  V30 8000 N 731.66 -1.50943 0.453197 0
M  V30 8001 C 732.937 -1.94872 -0.168633 0
M  V30 8002 C 733.317 -1.39272 -1.5864 0
M  V30 8003 O 732.665 -0.586272 -2.20851 0
M  V30 8004 C 732.875 -3.48757 -0.130217 0
M  V30 8005 C 734.223 -4.23331 -0.327975 0
M  V30 8006 O 735.247 -3.55594 -0.207619 0
M  V30 8007 O 734.106 -5.43529 -0.569077 0
M  V30 8008 H 731.2 -0.818042 -0.121394 0
M  V30 8009 H 733.746 -1.61782 0.512316 0
M  V30 8010 H 732.518 -3.81725 0.860346 0
M  V30 8011 H 732.141 -3.88333 -0.853397 0
M  V30 8012 N 733.138 -0.185124 -1.56509 0
M  V30 8013 C 734.387 0.456421 -1.96468 0
M  V30 8014 C 734.7 1.63448 -1.07444 0
M  V30 8015 O 735.906 2.34316 -1.37143 0
M  V30 8016 C 734.362 0.863404 -3.4939 0
M  V30 8017 C 733.97 -0.289815 -4.47062 0
M  V30 8018 C 735.714 1.47259 -3.98139 0
M  V30 8019 C 733.621 0.137571 -5.9124 0
M  V30 8020 H 732.551 0.17429 -0.733579 0
M  V30 8021 H 735.202 -0.275554 -1.81419 0
M  V30 8022 H 733.584 1.65176 -3.59907 0
M  V30 8023 H 734.758 -1.06728 -4.4827 0
M  V30 8024 H 733.073 -0.809851 -4.08449 0
M  V30 8025 H 735.67 1.80463 -5.03326 0
M  V30 8026 H 736.013 2.3755 -3.41871 0
M  V30 8027 H 736.546 0.748405 -3.90696 0
M  V30 8028 H 733.285 -0.730907 -6.51412 0
M  V30 8029 H 732.805 0.8801 -5.93308 0
M  V30 8030 H 734.484 0.576771 -6.44424 0
M  V30 8031 N 734.616 1.57351 0.0885366 0
M  V30 8032 C 735.564 2.03542 1.12576 0
M  V30 8033 C 736.558 0.937668 1.41082 0
M  V30 8034 O 737.764 1.12283 1.40686 0
M  V30 8035 H 734.139 0.648752 0.380296 0
M  V30 8036 H 736.11 2.89833 0.709906 0
M  V30 8037 C 734.859 2.4811 2.43591 0
M  V30 8038 H 734.182 3.32164 2.22502 0
M  V30 8039 H 735.622 2.842 3.14653 0
M  V30 8040 C 734.081 1.35708 3.08359 0
M  V30 8041 O 734.611 0.689852 3.95732 0
M  V30 8042 N 732.817 1.10641 2.68713 0
M  V30 8043 H 732.364 1.6508 1.97753 0
M  V30 8044 H 732.322 0.356355 3.12374 0
M  V30 8045 N 736.094 -0.359525 1.53444 0
M  V30 8046 C 737.004 -1.46445 1.83278 0
M  V30 8047 C 738.02 -1.5833 0.721629 0
M  V30 8048 O 739.196 -1.7411 1.01231 0
M  V30 8049 C 736.261 -2.81638 2.02191 0
M  V30 8050 C 735.322 -2.7923 3.26082 0
M  V30 8051 C 734.555 -4.07974 3.44082 0
M  V30 8052 O 734.778 -5.04447 2.66251 0
M  V30 8053 O 733.712 -4.13417 4.37458 0
M  V30 8054 H 737.538 -1.24156 2.77162 0
M  V30 8055 H 735.123 -0.550201 1.389 0
M  V30 8056 H 737.005 -3.61732 2.16167 0
M  V30 8057 H 735.68 -3.03892 1.11496 0
M  V30 8058 H 734.587 -1.97813 3.17523 0
M  V30 8059 H 735.92 -2.6193 4.16718 0
M  V30 8060 N 737.572 -1.44907 -0.619662 0
M  V30 8061 C 738.505 -1.47133 -1.74434 0
M  V30 8062 C 739.483 -0.328933 -1.59238 0
M  V30 8063 O 740.667 -0.527632 -1.80965 0
M  V30 8064 C 737.794 -1.31491 -3.12134 0
M  V30 8065 C 736.84 -2.49441 -3.4595 0
M  V30 8066 S 737.673 -4.11945 -3.42142 0
M  V30 8067 C 738.829 -3.98747 -4.82443 0
M  V30 8068 H 739.062 -2.42295 -1.7228 0
M  V30 8069 H 736.595 -1.32343 -0.795276 0
M  V30 8070 H 738.553 -1.23153 -3.91591 0
M  V30 8071 H 737.214 -0.378203 -3.11815 0
M  V30 8072 H 736.407 -2.3439 -4.46181 0
M  V30 8073 H 736.009 -2.54577 -2.73982 0
M  V30 8074 H 738.301 -3.63145 -5.71954 0
M  V30 8075 H 739.244 -4.98848 -5.0255 0
M  V30 8076 H 739.652 -3.30608 -4.57557 0
M  V30 8077 N 739.05 0.861098 -1.31996 0
M  V30 8078 C 739.96 2.00154 -1.22374 0
M  V30 8079 C 740.976 1.73447 -0.138631 0
M  V30 8080 O 742.152 1.98191 -0.358104 0
M  V30 8081 C 739.217 3.33696 -0.940645 0
M  V30 8082 C 738.278 3.73668 -2.11355 0
M  V30 8083 C 737.511 5.00837 -1.84386 0
M  V30 8084 O 737.734 5.64996 -0.783287 0
M  V30 8085 O 736.668 5.37787 -2.70313 0
M  V30 8086 H 740.494 2.11207 -2.18233 0
M  V30 8087 H 738.079 0.990768 -1.11822 0
M  V30 8088 H 739.961 4.13756 -0.798987 0
M  V30 8089 H 738.636 3.23698 -0.0121636 0
M  V30 8090 H 737.543 2.94211 -2.31065 0
M  V30 8091 H 738.876 3.88303 -3.02459 0
M  V30 8092 N 740.528 1.15101 1.07655 0
M  V30 8093 C 741.753 0.948177 1.84457 0
M  V30 8094 C 742.178 -0.498432 1.81376 0
M  V30 8095 O 741.536 -1.35509 1.20445 0
M  V30 8096 C 741.584 1.46318 3.29581 0
M  V30 8097 O 740.688 0.660342 4.07079 0
M  V30 8098 H 740.029 0.338428 0.571281 0
M  V30 8099 H 742.559 1.5301 1.35828 0
M  V30 8100 H 742.569 1.47468 3.80417 0
M  V30 8101 H 741.244 2.51635 3.31138 0
M  V30 8102 H 739.821 0.718216 3.65918 0
M  V30 8103 N 742.006 -1.2595 0.947325 0
M  V30 8104 C 743.417 -1.75389 0.639963 0
M  V30 8105 C 743.768 -1.77081 -0.844788 0
M  V30 8106 O 742.893 -1.3869 -1.66114 0
M  V30 8107 C 743.488 -3.18506 1.15496 0
M  V30 8108 C 742.047 -3.65534 0.897894 0
M  V30 8109 C 741.194 -2.44818 1.30228 0
M  V30 8110 H 744.145 -1.1194 1.12495 0
M  V30 8111 H 744.166 -3.77045 0.511627 0
M  V30 8112 H 743.678 -3.17243 2.23559 0
M  V30 8113 H 741.779 -3.72221 -0.168096 0
M  V30 8114 H 741.892 -4.54039 1.52922 0
M  V30 8115 H 740.256 -2.44291 0.720678 0
M  V30 8116 H 741.039 -2.46251 2.39198 0
M  V30 8117 N 743.484 -0.715051 -1.40445 0
M  V30 8118 C 744.414 -0.0768699 -2.33373 0
M  V30 8119 C 745.395 0.746109 -1.52863 0
M  V30 8120 O 746.58 0.695142 -1.81332 0
M  V30 8121 C 743.71 0.846014 -3.36838 0
M  V30 8122 C 742.664 0.128694 -4.27806 0
M  V30 8123 C 741.99 1.16726 -5.21804 0
M  V30 8124 C 743.29 -1.01679 -5.12307 0
M  V30 8125 H 744.984 -0.853061 -2.8699 0
M  V30 8126 H 742.53 -0.41167 -1.3799 0
M  V30 8127 H 744.483 1.30185 -4.00786 0
M  V30 8128 H 743.207 1.6541 -2.81615 0
M  V30 8129 H 741.866 -0.307314 -3.6531 0
M  V30 8130 H 741.514 1.96838 -4.62887 0
M  V30 8131 H 741.214 0.692188 -5.83509 0
M  V30 8132 H 742.738 1.62321 -5.88629 0
M  V30 8133 H 744.152 -0.640337 -5.69713 0
M  V30 8134 H 742.549 -1.4202 -5.83053 0
M  V30 8135 H 743.619 -1.84769 -4.48317 0
M  V30 8136 N 744.962 1.50701 -0.461195 0
M  V30 8137 C 745.925 2.2686 0.326679 0
M  V30 8138 C 746.925 1.31243 0.929085 0
M  V30 8139 O 748.115 1.54754 0.799807 0
M  V30 8140 C 745.247 3.07844 1.46441 0
M  V30 8141 H 746.44 2.97954 -0.341095 0
M  V30 8142 H 743.993 1.54814 -0.214984 0
M  V30 8143 H 744.728 2.41223 2.16753 0
M  V30 8144 H 744.513 3.78101 1.03836 0
M  V30 8145 H 746.003 3.65469 2.02044 0
M  V30 8146 N 746.441 0.193421 1.56409 0
M  V30 8147 C 747.669 -0.451438 2.01915 0
M  V30 8148 C 748.084 -1.55306 1.07357 0
M  V30 8149 O 747.441 -1.82333 0.0781512 0
M  V30 8150 C 747.492 -1.00931 3.47124 0
M  V30 8151 O 747.213 0.0483623 4.38073 0
M  V30 8152 C 748.714 -1.73021 4.0814 0
M  V30 8153 H 745.934 -0.113495 0.661332 0
M  V30 8154 H 748.478 0.301636 2.02263 0
M  V30 8155 H 746.633 -1.71277 3.47481 0
M  V30 8156 H 747.047 -0.366644 5.23217 0
M  V30 8157 H 748.521 -2.07289 5.11601 0
M  V30 8158 H 748.998 -2.6333 3.51502 0
M  V30 8159 H 749.604 -1.07264 4.11551 0
M  V30 8160 N 747.919 -1.57396 -0.0801906 0
M  V30 8161 C 749.335 -1.53564 -0.434778 0
M  V30 8162 C 749.535 -0.912372 -1.79661 0
M  V30 8163 O 748.591 -0.511268 -2.4727 0
M  V30 8164 C 749.904 -2.98244 -0.383561 0
M  V30 8165 C 751.452 -3.09536 -0.46435 0
M  V30 8166 C 751.927 -4.55851 -0.443128 0
M  V30 8167 N 753.418 -4.60456 -0.503448 0
M  V30 8168 C 754.153 -5.71135 -0.509106 0
M  V30 8169 N 753.649 -6.91203 -0.47008 0
M  V30 8170 N 755.442 -5.59353 -0.555035 0
M  V30 8171 H 747.593 -1.96281 0.811635 0
M  V30 8172 H 749.856 -0.898041 0.303689 0
M  V30 8173 H 749.562 -3.47369 0.550236 0
M  V30 8174 H 749.436 -3.57705 -1.19694 0
M  V30 8175 H 751.823 -2.6039 -1.38857 0
M  V30 8176 H 751.904 -2.53 0.377445 0
M  V30 8177 H 751.548 -5.05653 0.477207 0
M  V30 8178 H 751.478 -5.10242 -1.30234 0
M  V30 8179 H 753.969 -3.74048 -0.538199 0
M  V30 8180 H 754.282 -7.7132 -0.478091 0
M  V30 8181 H 752.627 -6.93625 -0.436897 0
M  V30 8182 H 755.818 -4.64453 -0.583158 0
M  V30 8183 H 755.991 -6.4561 -0.555976 0
M  V30 8184 N 749.397 0.351382 -1.53633 0
M  V30 8185 C 750.345 1.45142 -1.8176 0
M  V30 8186 C 751.339 1.54819 -0.687571 0
M  V30 8187 O 752.545 1.57536 -0.870772 0
M  V30 8188 H 748.92 0.483789 -0.575719 0
M  V30 8189 H 750.891 1.1863 -2.73806 0
M  V30 8190 C 749.64 2.81779 -2.03706 0
M  V30 8191 H 748.963 2.75097 -2.90107 0
M  V30 8192 H 750.403 3.5789 -2.27356 0
M  V30 8193 C 748.862 3.26762 -0.820271 0
M  V30 8194 O 749.392 4.01697 -0.0158603 0
M  V30 8195 N 747.598 2.83472 -0.639699 0
M  V30 8196 H 747.145 2.22655 -1.29547 0
M  V30 8197 H 747.103 3.13924 0.172995 0
M  V30 8198 N 750.875 1.45233 0.611969 0
M  V30 8199 C 752.291 1.29542 0.932251 0
M  V30 8200 C 752.491 0.24523 2.00002 0
M  V30 8201 O 751.547 -0.362333 2.49887 0
M  V30 8202 C 752.86 2.67301 1.37733 0
M  V30 8203 C 754.408 2.75163 1.49178 0
M  V30 8204 C 754.883 4.13437 1.97064 0
M  V30 8205 N 756.374 4.15709 2.04304 0
M  V30 8206 C 757.109 5.19566 2.42568 0
M  V30 8207 N 756.605 6.33771 2.79832 0
M  V30 8208 N 758.398 5.06923 2.42869 0
M  V30 8209 H 750.549 2.12192 -0.0938679 0
M  V30 8210 H 752.812 0.947775 0.0206569 0
M  V30 8211 H 752.518 3.45318 0.666951 0
M  V30 8212 H 752.392 2.95472 2.3447 0
M  V30 8213 H 754.779 1.97453 2.19309 0
M  V30 8214 H 754.86 2.50712 0.507674 0
M  V30 8215 H 754.504 4.91631 1.27521 0
M  V30 8216 H 754.434 4.35277 2.9638 0
M  V30 8217 H 756.925 3.33293 1.78113 0
M  V30 8218 H 757.238 7.08815 3.07898 0
M  V30 8219 H 755.583 6.37179 2.77538 0
M  V30 8220 H 758.774 4.1675 2.1316 0
M  V30 8221 H 758.947 5.87981 2.72364 0
M  V30 8222 N 752.353 -0.854086 1.3245 0
M  V30 8223 C 753.581 -1.64074 1.26045 0
M  V30 8224 C 753.996 -1.8802 -0.171456 0
M  V30 8225 O 753.353 -1.4496 -1.10873 0
M  V30 8226 C 753.404 -2.9997 2.01743 0
M  V30 8227 O 753.125 -2.77084 3.39346 0
M  V30 8228 C 754.626 -3.94414 2.02368 0
M  V30 8229 H 751.846 -0.511015 0.434862 0
M  V30 8230 H 754.39 -1.06494 1.74583 0
M  V30 8231 H 752.545 -3.54193 1.56926 0
M  V30 8232 H 752.959 -3.63514 3.78098 0
M  V30 8233 H 754.433 -4.87032 2.59815 0
M  V30 8234 H 754.91 -4.27427 1.01009 0
M  V30 8235 H 755.516 -3.46127 2.47135 0
M  V30 8236 N 753.831 -1.1567 -1.07043 0
M  V30 8237 C 755.056 -0.957946 -1.83952 0
M  V30 8238 C 755.481 0.488807 -1.81638 0
M  V30 8239 O 754.839 1.34869 -1.21162 0
M  V30 8240 C 754.887 -1.48064 -3.288 0
M  V30 8241 O 753.991 -0.681921 -4.06723 0
M  V30 8242 H 753.332 -0.341453 -0.569479 0
M  V30 8243 H 755.862 -1.53728 -1.35015 0
M  V30 8244 H 755.872 -1.49484 -3.7963 0
M  V30 8245 H 754.547 -2.53388 -3.29799 0
M  V30 8246 H 753.124 -0.737612 -3.65532 0
M  V30 8247 N 755.309 1.25446 -0.953992 0
M  V30 8248 C 756.555 1.9343 -0.60933 0
M  V30 8249 C 756.888 1.74542 0.851388 0
M  V30 8250 O 756.163 1.09014 1.61078 0
M  V30 8251 C 756.446 3.46844 -0.968041 0
M  V30 8252 C 756.299 3.74961 -2.48444 0
M  V30 8253 C 757.618 4.37334 -0.492641 0
M  V30 8254 H 754.737 0.702502 -0.222844 0
M  V30 8255 H 757.379 1.48076 -1.19053 0
M  V30 8256 H 755.529 3.85604 -0.473465 0
M  V30 8257 H 757.201 3.45841 -3.05273 0
M  V30 8258 H 755.444 3.20589 -2.92241 0
M  V30 8259 H 756.115 4.82246 -2.68594 0
M  V30 8260 H 758.591 4.05873 -0.916878 0
M  V30 8261 H 757.467 5.43439 -0.772331 0
M  V30 8262 H 757.728 4.37908 0.607403 0
M  V30 8263 N 756.787 0.722489 1.40064 0
M  V30 8264 C 758.064 0.191829 1.94657 0
M  V30 8265 C 758.444 -1.30389 1.66018 0
M  V30 8266 O 757.792 -2.06342 0.981588 0
M  V30 8267 C 758.002 0.511978 3.45224 0
M  V30 8268 C 759.35 0.454426 4.22161 0
M  V30 8269 O 760.374 0.448438 3.53366 0
M  V30 8270 O 759.233 0.437986 5.44742 0
M  V30 8271 H 756.327 0.0307821 0.826427 0
M  V30 8272 H 758.873 0.800493 1.49634 0
M  V30 8273 H 757.645 1.54622 3.59455 0
M  V30 8274 H 757.268 -0.126296 3.97399 0
M  V30 8275 N 758.265 -1.50454 0.469181 0
M  V30 8276 C 759.512 -2.02315 -0.086469 0
M  V30 8277 C 759.84 -1.3513 -1.39893 0
M  V30 8278 O 759.095 -0.465341 -1.90087 0
M  V30 8279 C 759.394 -3.55963 -0.320207 0
M  V30 8280 C 759.06 -4.41615 0.910318 0
M  V30 8281 C 757.722 -4.64743 1.2477 0
M  V30 8282 C 760.074 -4.91661 1.72971 0
M  V30 8283 C 757.402 -5.35161 2.40457 0
M  V30 8284 C 759.754 -5.6335 2.87785 0
M  V30 8285 C 758.418 -5.84732 3.2194 0
M  V30 8286 H 757.688 -0.740324 -0.0316412 0
M  V30 8287 H 760.335 -1.81087 0.622872 0
M  V30 8288 H 758.64 -3.75695 -1.11177 0
M  V30 8289 H 760.337 -3.93653 -0.764071 0
M  V30 8290 H 756.927 -4.23833 0.637467 0
M  V30 8291 H 761.111 -4.73649 1.48224 0
M  V30 8292 H 756.367 -5.49924 2.67196 0
M  V30 8293 H 760.541 -6.0111 3.51624 0
M  V30 8294 H 758.168 -6.39074 4.1169 0
M  V30 8295 N 759.743 -0.201713 -1.56304 0
M  V30 8296 C 760.69 0.716499 -2.19397 0
M  V30 8297 C 761.66 1.20494 -1.14326 0
M  V30 8298 O 762.845 1.26763 -1.42604 0
M  V30 8299 C 759.985 1.92762 -2.86246 0
M  V30 8300 C 759.098 1.47993 -4.0586 0
M  V30 8301 C 758.233 2.64706 -4.60547 0
M  V30 8302 C 757.272 2.16576 -5.72504 0
M  V30 8303 N 756.409 3.26491 -6.21569 0
M  V30 8304 H 761.249 0.171724 -2.97505 0
M  V30 8305 H 758.786 0.073016 -1.46919 0
M  V30 8306 H 760.744 2.6384 -3.23178 0
M  V30 8307 H 759.374 2.44559 -2.10691 0
M  V30 8308 H 758.426 0.66477 -3.74546 0
M  V30 8309 H 759.738 1.08686 -4.86815 0
M  V30 8310 H 758.892 3.43898 -4.99819 0
M  V30 8311 H 757.631 3.0729 -3.78713 0
M  V30 8312 H 756.636 1.3584 -5.32755 0
M  V30 8313 H 757.861 1.75015 -6.56161 0
M  V30 8314 H 755.807 3.68594 -5.42655 0
M  V30 8315 H 755.724 2.91374 -6.97594 0
M  V30 8316 H 756.992 4.05877 -6.65495 0
M  V30 8317 N 761.222 1.57436 0.0718424 0
M  V30 8318 C 762.499 1.78312 0.804006 0
M  V30 8319 C 762.879 0.789273 1.9579 0
M  V30 8320 O 762.227 -0.177605 2.27809 0
M  V30 8321 C 762.437 3.24798 1.277 0
M  V30 8322 C 763.785 3.88627 1.71039 0
M  V30 8323 O 764.809 3.28689 1.37266 0
M  V30 8324 O 763.668 4.94073 2.33567 0
M  V30 8325 H 760.762 0.73178 0.385262 0
M  V30 8326 H 763.308 1.69621 0.0519219 0
M  V30 8327 H 762.08 3.88688 0.45134 0
M  V30 8328 H 761.703 3.38213 2.0904 0
M  V30 8329 N 762.7 -0.34323 1.53817 0
M  V30 8330 C 763.928 -1.10348 1.75017 0
M  V30 8331 C 764.343 -1.82345 0.489475 0
M  V30 8332 O 763.7 -1.74362 -0.538886 0
M  V30 8333 C 763.751 -2.11672 2.93048 0
M  V30 8334 O 763.472 -1.42603 4.14241 0
M  V30 8335 C 764.973 -3.0007 3.26301 0
M  V30 8336 H 762.193 -0.329056 0.584776 0
M  V30 8337 H 764.737 -0.395339 2.00642 0
M  V30 8338 H 762.892 -2.78051 2.69753 0
M  V30 8339 H 763.306 -2.10294 4.80496 0
M  V30 8340 H 764.78 -3.67101 4.12239 0
M  V30 8341 H 765.257 -3.66105 2.42618 0
M  V30 8342 H 765.863 -2.3928 3.51604 0
M  V30 8343 N 764.178 -1.45556 -0.604258 0
M  V30 8344 C 765.455 -1.40221 -1.36373 0
M  V30 8345 C 765.835 -0.0745195 -2.10968 0
M  V30 8346 O 765.183 0.943594 -2.08107 0
M  V30 8347 C 765.393 -2.61807 -2.30777 0
M  V30 8348 C 766.741 -3.07037 -2.93281 0
M  V30 8349 O 767.765 -2.62203 -2.41097 0
M  V30 8350 O 766.624 -3.8485 -3.88011 0
M  V30 8351 H 763.718 -0.556602 -0.611656 0
M  V30 8352 H 766.264 -1.57689 -0.627069 0
M  V30 8353 H 765.036 -3.50017 -1.74939 0
M  V30 8354 H 764.659 -2.46688 -3.11818 0
M  V30 8355 N 765.656 0.84705 -1.32902 0
M  V30 8356 C 766.886 1.63166 -1.26729 0
M  V30 8357 C 767.294 1.88474 0.165595 0
M  V30 8358 O 766.637 1.45947 1.11558 0
M  V30 8359 C 766.699 3.0103 -1.96522 0
M  V30 8360 C 766.363 2.9873 -3.45846 0
M  V30 8361 C 767.36 2.75032 -4.41196 0
M  V30 8362 C 765.045 3.19125 -3.87898 0
M  V30 8363 C 767.039 2.71743 -5.76571 0
M  V30 8364 C 764.726 3.15462 -5.2338 0
M  V30 8365 C 765.724 2.91801 -6.17528 0
M  V30 8366 O 765.412 2.88027 -7.5053 0
M  V30 8367 H 765.144 0.51469 -0.438258 0
M  V30 8368 H 767.698 1.06383 -1.75704 0
M  V30 8369 H 765.928 3.59634 -1.42128 0
M  V30 8370 H 767.617 3.61821 -1.83958 0
M  V30 8371 H 768.383 2.59034 -4.10032 0
M  V30 8372 H 764.262 3.36565 -3.15032 0
M  V30 8373 H 767.806 2.53194 -6.5003 0
M  V30 8374 H 763.703 3.31006 -5.54171 0
M  V30 8375 H 764.471 3.03927 -7.59981 0
M  V30 8376 N 767.134 1.16236 1.06428 0
M  V30 8377 C 768.081 0.86769 2.13869 0
M  V30 8378 C 769.051 -0.183298 1.65086 0
M  V30 8379 O 770.236 -0.0488002 1.90738 0
M  V30 8380 C 767.376 0.373427 3.43074 0
M  V30 8381 C 766.489 1.48708 4.05598 0
M  V30 8382 C 765.624 0.947977 5.22673 0
M  V30 8383 C 764.663 2.03793 5.77178 0
M  V30 8384 N 763.8 1.51451 6.85571 0
M  V30 8385 H 768.64 1.78781 2.38414 0
M  V30 8386 H 766.177 0.891892 1.16977 0
M  V30 8387 H 768.135 0.0685035 4.17144 0
M  V30 8388 H 766.765 -0.509752 3.1875 0
M  V30 8389 H 765.817 1.908 3.29089 0
M  V30 8390 H 767.129 2.30964 4.42105 0
M  V30 8391 H 766.283 0.596154 6.03764 0
M  V30 8392 H 765.022 0.0947081 4.87608 0
M  V30 8393 H 764.027 2.39847 4.94726 0
M  V30 8394 H 765.252 2.89514 6.14295 0
M  V30 8395 H 763.198 0.683755 6.52427 0
M  V30 8396 H 763.115 2.27325 7.21013 0
M  V30 8397 H 764.383 1.19123 7.70344 0
M  V30 8398 N 768.612 -1.24939 0.960631 0
M  V30 8399 C 770.028 -1.45039 0.666018 0
M  V30 8400 C 770.228 -1.86021 -0.774501 0
M  V30 8401 O 769.284 -1.99392 -1.54916 0
M  V30 8402 C 770.597 -2.51775 1.64408 0
M  V30 8403 C 772.145 -2.6561 1.65592 0
M  V30 8404 C 772.62 -3.75536 2.62177 0
M  V30 8405 N 774.111 -3.82954 2.60577 0
M  V30 8406 C 774.846 -4.67517 3.31987 0
M  V30 8407 N 774.342 -5.56321 4.1289 0
M  V30 8408 N 776.135 -4.61535 3.20845 0
M  V30 8409 H 768.286 -0.96632 1.89145 0
M  V30 8410 H 770.549 -0.486034 0.813926 0
M  V30 8411 H 770.255 -2.28534 2.67329 0
M  V30 8412 H 770.129 -3.49804 1.41128 0
M  V30 8413 H 772.516 -2.88212 0.633846 0
M  V30 8414 H 772.597 -1.67962 1.92931 0
M  V30 8415 H 772.241 -3.53684 3.64514 0
M  V30 8416 H 772.171 -4.72682 2.32119 0
M  V30 8417 H 774.662 -3.19478 2.01847 0
M  V30 8418 H 774.975 -6.17787 4.64283 0
M  V30 8419 H 773.32 -5.5601 4.16987 0
M  V30 8420 H 776.511 -3.91169 2.57108 0
M  V30 8421 H 776.684 -5.27214 3.76762 0
M  V30 8422 N 770.09 -0.729906 -1.39679 0
M  V30 8423 C 771.04 -0.0627678 -2.27914 0
M  V30 8424 C 772.024 0.717867 -1.43998 0
M  V30 8425 O 773.216 0.587713 -1.66958 0
M  V30 8426 C 770.345 0.847564 -3.32673 0
M  V30 8427 C 769.431 0.0613515 -4.24056 0
M  V30 8428 N 769.822 -0.962863 -4.96551 0
M  V30 8429 C 768.12 0.291773 -4.45045 0
M  V30 8430 C 768.821 -1.43652 -5.63683 0
M  V30 8431 N 767.797 -0.756044 -5.38317 0
M  V30 8432 H 771.599 -0.847545 -2.81414 0
M  V30 8433 H 769.113 -0.563776 -1.523 0
M  V30 8434 H 771.11 1.34094 -3.94746 0
M  V30 8435 H 769.77 1.63156 -2.80732 0
M  V30 8436 H 770.781 -1.34409 -5.00154 0
M  V30 8437 H 767.458 1.05097 -4.04056 0
M  V30 8438 H 768.848 -2.28835 -6.31731 0
M  V30 8439 N 771.568 1.50203 -0.477153 0
M  V30 8440 C 772.5 2.26508 0.350239 0
M  V30 8441 C 773.513 1.32081 0.95176 0
M  V30 8442 O 774.702 1.57546 0.839139 0
M  V30 8443 C 771.802 3.0361 1.50579 0
M  V30 8444 C 770.975 4.25438 1.01595 0
M  V30 8445 C 770.034 4.84783 2.04626 0
M  V30 8446 O 769.06 5.45528 1.62442 0
M  V30 8447 N 770.262 4.72318 3.37485 0
M  V30 8448 H 773.027 2.98155 -0.30394 0
M  V30 8449 H 770.588 1.58938 -0.308289 0
M  V30 8450 H 772.58 3.4019 2.1921 0
M  V30 8451 H 771.15 2.34724 2.06455 0
M  V30 8452 H 770.37 3.93894 0.155316 0
M  V30 8453 H 771.658 5.04413 0.666694 0
M  V30 8454 H 771.056 4.24022 3.74462 0
M  V30 8455 H 769.613 5.13149 4.01897 0
M  V30 8456 N 773.046 0.209999 1.56195 0
M  V30 8457 C 773.976 -0.699746 2.22769 0
M  V30 8458 C 774.957 -1.20993 1.1956 0
M  V30 8459 O 776.142 -1.25605 1.48112 0
M  V30 8460 C 773.272 -1.91302 2.89863 0
M  V30 8461 C 772.226 -1.53715 3.99444 0
M  V30 8462 C 771.552 -2.82826 4.53777 0
M  V30 8463 C 772.852 -0.735836 5.17091 0
M  V30 8464 H 774.546 -0.144716 2.9905 0
M  V30 8465 H 772.092 -0.0681645 1.43839 0
M  V30 8466 H 774.045 -2.5548 3.35124 0
M  V30 8467 H 772.769 -2.49283 2.11011 0
M  V30 8468 H 771.428 -0.918892 3.54897 0
M  V30 8469 H 771.076 -3.38927 3.71669 0
M  V30 8470 H 770.776 -2.58415 5.27727 0
M  V30 8471 H 772.3 -3.47966 5.01749 0
M  V30 8472 H 773.714 -1.28105 5.58804 0
M  V30 8473 H 772.111 -0.589272 5.972 0
M  V30 8474 H 773.181 0.260004 4.84202 0
M  V30 8475 N 774.524 -1.57472 -0.0634922 0
M  V30 8476 C 775.752 -1.91887 -0.773767 0
M  V30 8477 C 776.167 -0.806733 -1.70696 0
M  V30 8478 O 775.524 0.219383 -1.81177 0
M  V30 8479 C 775.575 -3.26092 -1.56034 0
M  V30 8480 O 775.296 -4.33029 -0.66464 0
M  V30 8481 C 776.797 -3.74573 -2.37087 0
M  V30 8482 H 774.017 -0.634074 -0.219525 0
M  V30 8483 H 776.561 -2.04476 -0.0312828 0
M  V30 8484 H 774.716 -3.15004 -2.25502 0
M  V30 8485 H 775.13 -5.10291 -1.21258 0
M  V30 8486 H 776.604 -4.71084 -2.87722 0
M  V30 8487 H 777.081 -3.04003 -3.16984 0
M  V30 8488 H 777.687 -3.88631 -1.72759 0
M  V30 8489 N 776.003 0.335068 -1.53997 0
M  V30 8490 C 777.419 0.678704 -1.4445 0
M  V30 8491 C 777.619 1.92106 -0.608078 0
M  V30 8492 O 776.675 2.52292 -0.102373 0
M  V30 8493 C 777.988 0.863435 -2.88037 0
M  V30 8494 C 779.536 0.961513 -2.97866 0
M  V30 8495 C 780.011 1.1785 -4.42578 0
M  V30 8496 N 781.502 1.2455 -4.46141 0
M  V30 8497 C 782.237 1.43106 -5.55255 0
M  V30 8498 N 781.733 1.5878 -6.74359 0
M  V30 8499 N 783.526 1.45722 -5.42883 0
M  V30 8500 H 775.677 -0.481656 -2.06867 0
M  V30 8501 H 777.94 -0.153615 -0.935471 0
M  V30 8502 H 777.646 0.0219511 -3.51693 0
M  V30 8503 H 777.52 1.76268 -3.33481 0
M  V30 8504 H 779.907 1.79351 -2.34344 0
M  V30 8505 H 779.988 0.0389862 -2.5577 0
M  V30 8506 H 779.632 0.351397 -5.06683 0
M  V30 8507 H 779.562 2.11472 -4.82273 0
M  V30 8508 H 782.053 1.13928 -3.60318 0
M  V30 8509 H 782.366 1.72599 -7.53279 0
M  V30 8510 H 780.711 1.559 -6.77289 0
M  V30 8511 H 783.902 1.33065 -4.48789 0
M  V30 8512 H 784.075 1.59841 -6.27977 0
M  V30 8513 N 777.481 1.45874 0.596531 0
M  V30 8514 C 778.706 1.54247 1.38646 0
M  V30 8515 C 779.131 0.179571 1.87241 0
M  V30 8516 O 778.489 -0.837831 1.6078 0
M  V30 8517 C 778.537 2.54015 2.55946 0
M  V30 8518 O 777.641 2.06561 3.5694 0
M  V30 8519 H 776.982 0.519555 0.413471 0
M  V30 8520 H 779.512 1.91327 0.724936 0
M  V30 8521 H 779.522 2.73179 3.03047 0
M  V30 8522 H 778.197 3.52994 2.19928 0
M  V30 8523 H 776.774 1.97324 3.16414 0
M  V30 8524 N 778.959 -0.83999 1.33349 0
M  V30 8525 C 780.208 -1.59011 1.2409 0
M  V30 8526 C 780.521 -1.94655 -0.192029 0
M  V30 8527 O 781.727 -2.68438 -0.406617 0
M  V30 8528 C 780.183 -2.86801 2.17425 0
M  V30 8529 C 779.791 -2.58525 3.65881 0
M  V30 8530 C 781.535 -3.64823 2.17036 0
M  V30 8531 C 779.442 -3.82404 4.51133 0
M  V30 8532 H 778.372 -0.596731 0.460899 0
M  V30 8533 H 781.023 -0.926274 1.58406 0
M  V30 8534 H 779.405 -3.54719 1.7604 0
M  V30 8535 H 780.579 -1.98824 4.15699 0
M  V30 8536 H 778.894 -1.93808 3.68548 0
M  V30 8537 H 781.491 -4.56774 2.7796 0
M  V30 8538 H 781.834 -3.99663 1.16513 0
M  V30 8539 H 782.367 -3.03826 2.56777 0
M  V30 8540 H 779.106 -3.52696 5.52527 0
M  V30 8541 H 778.626 -4.41447 4.0606 0
M  V30 8542 H 780.305 -4.49995 4.6488 0
M  V30 8543 N 780.437 -1.16799 -1.0581 0
M  V30 8544 C 781.662 -0.977402 -1.82925 0
M  V30 8545 C 782.087 0.469514 -1.82146 0
M  V30 8546 O 781.445 1.33576 -1.22585 0
M  V30 8547 C 781.493 -1.51543 -3.27211 0
M  V30 8548 O 780.597 -0.725021 -4.05977 0
M  V30 8549 H 779.938 -0.347474 -0.565825 0
M  V30 8550 H 782.468 -1.55151 -1.33376 0
M  V30 8551 H 782.478 -1.53502 -3.78023 0
M  V30 8552 H 781.153 -2.56872 -3.27093 0
M  V30 8553 H 779.73 -0.77634 -3.64729 0
M  V30 8554 N 781.915 1.24427 -0.967243 0
M  V30 8555 C 782.825 2.29109 -0.504592 0
M  V30 8556 C 783.841 1.68495 0.434224 0
M  V30 8557 O 785.017 1.99041 0.307379 0
M  V30 8558 C 782.082 3.46133 0.198273 0
M  V30 8559 C 781.143 4.22149 -0.780313 0
M  V30 8560 C 780.376 5.33585 -0.110896 0
M  V30 8561 O 780.599 5.59676 1.10088 0
M  V30 8562 O 779.533 5.96522 -0.802823 0
M  V30 8563 H 783.359 2.708 -1.37482 0
M  V30 8564 H 780.944 1.30111 -0.73426 0
M  V30 8565 H 782.826 4.17205 0.593124 0
M  V30 8566 H 781.501 3.0642 1.04347 0
M  V30 8567 H 780.408 3.53454 -1.22561 0
M  V30 8568 H 781.741 4.65677 -1.59392 0
M  V30 8569 N 783.393 0.737304 1.3929 0
M  V30 8570 C 784.642 0.283129 1.99703 0
M  V30 8571 C 784.955 -1.13677 1.59176 0
M  V30 8572 O 786.161 -1.69058 2.12442 0
M  V30 8573 C 784.617 0.455262 3.57009 0
M  V30 8574 C 784.225 1.88319 4.06497 0
M  V30 8575 C 785.969 0.0629786 4.24453 0
M  V30 8576 C 783.876 2.00475 5.56385 0
M  V30 8577 H 782.806 0.102106 0.747054 0
M  V30 8578 H 785.457 0.911515 1.5926 0
M  V30 8579 H 783.839 -0.242057 3.9526 0
M  V30 8580 H 785.013 2.61265 3.79575 0
M  V30 8581 H 783.328 2.2289 3.51723 0
M  V30 8582 H 785.925 0.132787 5.34535 0
M  V30 8583 H 786.268 -0.982128 4.04549 0
M  V30 8584 H 786.801 0.71154 3.91385 0
M  V30 8585 H 783.54 3.03182 5.81172 0
M  V30 8586 H 783.06 1.31969 5.85102 0
M  V30 8587 H 784.739 1.787 6.21832 0
M  V30 8588 N 784.871 -1.49948 0.485112 0
M  V30 8589 C 785.818 -2.28819 -0.301729 0
M  V30 8590 C 786.788 -1.34496 -0.974683 0
M  V30 8591 O 787.973 -1.63444 -0.984418 0
M  V30 8592 C 785.113 -3.16758 -1.36961 0
M  V30 8593 C 784.226 -4.26125 -0.710027 0
M  V30 8594 C 783.361 -5.01302 -1.75699 0
M  V30 8595 C 782.4 -6.02525 -1.07841 0
M  V30 8596 N 781.537 -6.70927 -2.06886 0
M  V30 8597 H 786.377 -2.95604 0.377127 0
M  V30 8598 H 783.914 -1.45764 0.197826 0
M  V30 8599 H 785.872 -3.66106 -2.00056 0
M  V30 8600 H 784.502 -2.51991 -2.01744 0
M  V30 8601 H 783.554 -3.80385 0.0338278 0
M  V30 8602 H 784.866 -4.98493 -0.175079 0
M  V30 8603 H 784.02 -5.54438 -2.46339 0
M  V30 8604 H 782.759 -4.28672 -2.32577 0
M  V30 8605 H 781.764 -5.48635 -0.357706 0
M  V30 8606 H 782.989 -6.77134 -0.516345 0
M  V30 8607 H 780.935 -6.01079 -2.62755 0
M  V30 8608 H 780.852 -7.39216 -1.58414 0
M  V30 8609 H 782.12 -7.28675 -2.76863 0
M  V30 8610 N 786.349 -0.21828 -1.56081 0
M  V30 8611 C 787.76 0.290166 -1.84431 0
M  V30 8612 C 788.111 1.59712 -1.13958 0
M  V30 8613 O 787.236 2.12516 -0.40815 0
M  V30 8614 C 787.831 0.53325 -3.34577 0
M  V30 8615 C 786.39 0.986011 -3.63256 0
M  V30 8616 C 785.537 0.0472798 -2.7726 0
M  V30 8617 H 788.488 -0.441548 -1.52434 0
M  V30 8618 H 788.509 1.37967 -3.54606 0
M  V30 8619 H 788.021 -0.418137 -3.85841 0
M  V30 8620 H 786.122 1.95087 -3.17446 0
M  V30 8621 H 786.235 0.862684 -4.71269 0
M  V30 8622 H 784.599 0.553471 -2.48614 0
M  V30 8623 H 785.382 -0.898966 -3.31321 0
M  V30 8624 N 787.827 1.57504 0.0551401 0
M  V30 8625 C 789.238 1.76626 0.604979 0
M  V30 8626 C 789.589 0.845978 1.77024 0
M  V30 8627 O 788.714 0.0341936 2.16373 0
M  V30 8628 C 789.309 3.203 1.10425 0
M  V30 8629 C 787.868 3.4071 1.59981 0
M  V30 8630 C 787.015 2.72258 0.526414 0
M  V30 8631 H 789.966 1.57775 -0.171072 0
M  V30 8632 H 789.987 3.25377 1.97256 0
M  V30 8633 H 789.499 3.87255 0.255939 0
M  V30 8634 H 787.6 2.78892 2.47083 0
M  V30 8635 H 787.713 4.49227 1.66528 0
M  V30 8636 H 786.077 2.35283 0.97539 0
M  V30 8637 H 786.86 3.41879 -0.311991 0
M  V30 8638 N 789.305 -0.326896 1.54172 0
M  V30 8639 C 790.253 -1.42232 1.84046 0
M  V30 8640 C 791.247 -1.53705 0.712115 0
M  V30 8641 O 792.453 -1.56131 0.895724 0
M  V30 8642 H 788.828 -0.474568 0.583343 0
M  V30 8643 H 790.799 -1.14259 2.75658 0
M  V30 8644 C 789.548 -2.78502 2.08163 0
M  V30 8645 H 788.871 -2.70447 2.94446 0
M  V30 8646 H 790.311 -3.54228 2.33021 0
M  V30 8647 C 788.77 -3.25415 0.872152 0
M  V30 8648 O 789.3 -4.01621 0.0797648 0
M  V30 8649 N 787.506 -2.82418 0.684716 0
M  V30 8650 H 787.053 -2.20566 1.33072 0
M  V30 8651 H 787.011 -3.14159 -0.123031 0
M  V30 8652 N 790.784 -1.46188 -0.588786 0
M  V30 8653 C 791.714 -1.59148 -1.70863 0
M  V30 8654 C 792.695 -0.442083 -1.64255 0
M  V30 8655 O 793.88 -0.667575 -1.82365 0
M  V30 8656 C 791.01 -1.5757 -3.09498 0
M  V30 8657 C 789.964 -2.71418 -3.30932 0
M  V30 8658 C 789.29 -2.549 -4.70032 0
M  V30 8659 C 790.59 -4.1329 -3.19356 0
M  V30 8660 H 792.284 -2.52889 -1.60274 0
M  V30 8661 H 789.83 -1.21707 -0.769638 0
M  V30 8662 H 791.783 -1.65231 -3.87655 0
M  V30 8663 H 790.507 -0.603705 -3.20972 0
M  V30 8664 H 789.166 -2.63216 -2.55172 0
M  V30 8665 H 788.814 -1.55797 -4.78264 0
M  V30 8666 H 788.514 -3.31257 -4.85327 0
M  V30 8667 H 790.038 -2.64443 -5.50366 0
M  V30 8668 H 791.452 -4.22636 -3.87365 0
M  V30 8669 H 789.849 -4.90187 -3.46175 0
M  V30 8670 H 790.919 -4.33874 -2.16522 0
M  V30 8671 N 792.262 0.832906 -1.33792 0
M  V30 8672 C 793.509 1.58853 -1.25586 0
M  V30 8673 C 793.837 1.93695 0.176807 0
M  V30 8674 O 793.092 1.59386 1.13554 0
M  V30 8675 C 793.391 2.9047 -2.08235 0
M  V30 8676 C 793.057 2.74965 -3.57358 0
M  V30 8677 C 791.719 2.70444 -3.98012 0
M  V30 8678 C 794.071 2.59347 -4.52093 0
M  V30 8679 C 791.399 2.48212 -5.31608 0
M  V30 8680 C 793.751 2.38649 -5.85858 0
M  V30 8681 C 792.415 2.32533 -6.25687 0
M  V30 8682 H 791.685 0.581285 -0.459553 0
M  V30 8683 H 794.332 0.964501 -1.65438 0
M  V30 8684 H 792.637 3.57111 -1.6118 0
M  V30 8685 H 794.334 3.48001 -1.99239 0
M  V30 8686 H 790.924 2.79319 -3.25083 0
M  V30 8687 H 795.108 2.6187 -4.2159 0
M  V30 8688 H 790.364 2.41929 -5.61498 0
M  V30 8689 H 794.538 2.25549 -6.58863 0
M  V30 8690 H 792.165 2.15067 -7.29143 0
M  V30 8691 N 793.74 1.17359 1.05189 0
M  V30 8692 C 795.151 0.96793 1.5965 0
M  V30 8693 C 795.502 -0.485355 1.90102 0
M  V30 8694 O 794.627 -1.36066 1.6827 0
M  V30 8695 C 795.222 1.75068 2.90063 0
M  V30 8696 C 793.781 1.58969 3.41183 0
M  V30 8697 C 792.928 1.75231 2.14917 0
M  V30 8698 H 795.879 1.32067 0.880001 0
M  V30 8699 H 795.9 1.23308 3.59966 0
M  V30 8700 H 795.412 2.80835 2.67868 0
M  V30 8701 H 793.513 0.556906 3.68415 0
M  V30 8702 H 793.626 2.38067 4.15766 0
M  V30 8703 H 791.99 1.18073 2.25679 0
M  V30 8704 H 792.773 2.8241 1.95191 0
M  V30 8705 N 795.218 -1.23913 0.973828 0
M  V30 8706 C 796.148 -2.27453 0.527969 0
M  V30 8707 C 797.129 -1.6443 -0.435513 0
M  V30 8708 O 798.314 -1.9137 -0.330306 0
M  V30 8709 C 795.444 -3.4685 -0.176757 0
M  V30 8710 C 794.398 -4.22181 0.703352 0
M  V30 8711 C 793.724 -5.34534 -0.133215 0
M  V30 8712 C 795.024 -4.82865 1.99096 0
M  V30 8713 H 796.718 -2.65 1.3934 0
M  V30 8714 H 794.264 -1.27388 0.671446 0
M  V30 8715 H 796.217 -4.18424 -0.499934 0
M  V30 8716 H 794.941 -3.08346 -1.07659 0
M  V30 8717 H 793.6 -3.52416 1.00989 0
M  V30 8718 H 793.248 -4.92271 -1.03338 0
M  V30 8719 H 792.948 -5.85855 0.452494 0
M  V30 8720 H 794.472 -6.08933 -0.450924 0
M  V30 8721 H 795.886 -5.46481 1.73297 0
M  V30 8722 H 794.283 -5.44444 2.52389 0
M  V30 8723 H 795.353 -4.03977 2.68199 0
M  V30 8724 N 796.696 -0.74468 -1.38897 0
M  V30 8725 C 797.659 -0.11945 -2.28889 0
M  V30 8726 C 798.659 0.656942 -1.46768 0
M  V30 8727 O 799.849 0.484525 -1.67326 0
M  V30 8728 C 796.981 0.839635 -3.30398 0
M  V30 8729 H 798.174 -0.912414 -2.85683 0
M  V30 8730 H 795.727 -0.511119 -1.47707 0
M  V30 8731 H 796.462 1.6586 -2.78677 0
M  V30 8732 H 796.247 0.285432 -3.9106 0
M  V30 8733 H 797.737 1.27337 -3.97712 0
M  V30 8734 N 798.174 1.49689 -0.493057 0
M  V30 8735 C 799.585 1.8665 -0.0433032 0
M  V30 8736 C 799.936 1.40607 1.36836 0
M  V30 8737 O 799.061 0.780503 2.01834 0
M  V30 8738 C 799.656 3.38724 -0.0718069 0
M  V30 8739 C 798.215 3.75015 0.32257 0
M  V30 8740 C 797.362 2.7366 -0.4478 0
M  V30 8741 H 800.313 1.42119 -0.706246 0
M  V30 8742 H 800.334 3.73522 0.725347 0
M  V30 8743 H 799.846 3.72204 -1.09935 0
M  V30 8744 H 797.947 3.47142 1.35364 0
M  V30 8745 H 798.06 4.79099 0.00864259 0
M  V30 8746 H 796.424 2.54498 0.101354 0
M  V30 8747 H 797.207 3.09985 -1.47527 0
M  V30 8748 N 799.652 0.226554 1.55963 0
M  V30 8749 C 800.584 -0.713907 2.17798 0
M  V30 8750 C 801.597 -1.15387 1.14846 0
M  V30 8751 O 802.786 -1.08416 1.41804 0
M  V30 8752 C 799.886 -1.97945 2.75084 0
M  V30 8753 C 799.059 -1.69424 4.03255 0
M  V30 8754 C 798.118 -2.80734 4.45056 0
M  V30 8755 O 797.144 -2.4899 5.11852 0
M  V30 8756 N 798.346 -4.09797 4.11152 0
M  V30 8757 H 801.111 -0.18494 2.99129 0
M  V30 8758 H 798.672 0.0457346 1.61835 0
M  V30 8759 H 800.664 -2.71611 3.00016 0
M  V30 8760 H 799.234 -2.41876 1.98027 0
M  V30 8761 H 798.454 -0.793767 3.86126 0
M  V30 8762 H 799.742 -1.47806 4.86858 0
M  V30 8763 H 799.14 -4.38429 3.57486 0
M  V30 8764 H 797.697 -4.79992 4.40966 0
M  V30 8765 N 801.13 -1.57531 -0.0467866 0
M  V30 8766 C 802.04 -2.08768 -1.07018 0
M  V30 8767 C 803.056 -1.02245 -1.40791 0
M  V30 8768 O 804.232 -1.33873 -1.50466 0
M  V30 8769 C 801.297 -2.54221 -2.35738 0
M  V30 8770 C 800.358 -3.75152 -2.08709 0
M  V30 8771 C 799.591 -4.18428 -3.31291 0
M  V30 8772 O 799.814 -3.61365 -4.4133 0
M  V30 8773 O 798.748 -5.11018 -3.18032 0
M  V30 8774 H 802.574 -2.96334 -0.664812 0
M  V30 8775 H 800.159 -1.47074 -0.262605 0
M  V30 8776 H 802.041 -2.83866 -3.11445 0
M  V30 8777 H 800.716 -1.69774 -2.75605 0
M  V30 8778 H 799.623 -3.50553 -1.30627 0
M  V30 8779 H 800.956 -4.60528 -1.73708 0
M  V30 8780 N 802.608 0.318715 -1.54344 0
M  V30 8781 C 803.857 1.05363 -1.71993 0
M  V30 8782 C 804.17 1.89018 -0.503155 0
M  V30 8783 O 805.376 2.65639 -0.561085 0
M  V30 8784 C 803.832 1.92281 -3.0423 0
M  V30 8785 C 803.44 1.13715 -4.33328 0
M  V30 8786 C 805.184 2.65479 -3.31242 0
M  V30 8787 C 803.091 1.99806 -5.56625 0
M  V30 8788 H 802.021 0.397081 -0.64097 0
M  V30 8789 H 804.672 0.311598 -1.80835 0
M  V30 8790 H 803.054 2.70402 -2.89307 0
M  V30 8791 H 804.228 0.403305 -4.59032 0
M  V30 8792 H 802.543 0.521769 -4.13118 0
M  V30 8793 H 805.14 3.30209 -4.20555 0
M  V30 8794 H 805.483 3.33374 -2.49334 0
M  V30 8795 H 806.016 1.94417 -3.47054 0
M  V30 8796 H 802.755 1.36411 -6.41149 0
M  V30 8797 H 802.275 2.70911 -5.35133 0
M  V30 8798 H 803.954 2.58277 -5.93213 0
M  V30 8799 N 804.086 1.46499 0.581025 0
M  V30 8800 C 805.314 1.5547 1.36517 0
M  V30 8801 C 805.729 0.196407 1.87776 0
M  V30 8802 O 805.086 -0.806577 1.63709 0
M  V30 8803 C 805.137 2.56084 2.55154 0
M  V30 8804 O 804.858 3.86637 2.06018 0
M  V30 8805 C 806.359 2.75011 3.47683 0
M  V30 8806 H 803.579 0.525703 0.416986 0
M  V30 8807 H 806.123 1.9192 0.706177 0
M  V30 8808 H 804.278 2.22633 3.17039 0
M  V30 8809 H 804.692 4.41413 2.83292 0
M  V30 8810 H 806.166 3.49329 4.27403 0
M  V30 8811 H 806.643 1.81978 3.99726 0
M  V30 8812 H 807.249 3.09565 2.91632 0
M  V30 8813 N 805.565 -0.825799 1.34232 0
M  V30 8814 C 806.515 -1.92533 1.22128 0
M  V30 8815 C 807.499 -1.60444 0.121002 0
M  V30 8816 O 808.691 -1.73497 0.350385 0
M  V30 8817 C 805.82 -3.29134 0.975995 0
M  V30 8818 C 804.906 -3.6735 2.11931 0
M  V30 8819 N 805.297 -3.77154 3.37029 0
M  V30 8820 C 803.595 -3.97179 2.02891 0
M  V30 8821 C 804.296 -4.10552 4.12095 0
M  V30 8822 N 803.272 -4.23619 3.40658 0
M  V30 8823 H 807.074 -1.98287 2.16932 0
M  V30 8824 H 804.588 -1.01929 1.26429 0
M  V30 8825 H 806.585 -4.07717 0.870187 0
M  V30 8826 H 805.245 -3.24679 0.036606 0
M  V30 8827 H 806.256 -3.60723 3.71618 0
M  V30 8828 H 802.933 -4.00861 1.16692 0
M  V30 8829 H 804.323 -4.25365 5.2011 0
M  V30 8830 N 807.043 -1.17915 -1.04565 0
M  V30 8831 C 808.283 -0.982331 -1.79247 0
M  V30 8832 C 808.647 0.47998 -1.85904 0
M  V30 8833 O 809.848 0.796078 -2.56741 0
M  V30 8834 C 808.119 -1.61329 -3.18916 0
M  V30 8835 S 809.678 -1.56355 -4.09998 0
M  V30 8836 H 806.496 -0.352869 -0.617256 0
M  V30 8837 H 809.098 -1.49971 -1.25415 0
M  V30 8838 H 807.802 -2.66993 -3.11678 0
M  V30 8839 H 807.333 -1.09599 -3.77825 0
M  V30 8840 H 809.348 -0.57593 -4.92846 0
M  V30 8841 N 808.521 1.23394 -0.980386 0
M  V30 8842 C 809.471 2.22634 -0.491747 0
M  V30 8843 C 810.455 1.54958 0.433222 0
M  V30 8844 O 811.647 1.75049 0.262078 0
M  V30 8845 C 808.776 3.4269 0.204531 0
M  V30 8846 C 807.862 4.17594 -0.740007 0
M  V30 8847 N 808.253 4.69458 -1.88263 0
M  V30 8848 C 806.551 4.42554 -0.553335 0
M  V30 8849 C 807.252 5.26446 -2.47446 0
M  V30 8850 N 806.228 5.14377 -1.75834 0
M  V30 8851 H 810.03 2.60363 -1.36339 0
M  V30 8852 H 807.544 1.38924 -0.841059 0
M  V30 8853 H 809.541 4.12959 0.571901 0
M  V30 8854 H 808.201 3.06477 1.07246 0
M  V30 8855 H 809.212 4.65803 -2.26381 0
M  V30 8856 H 805.889 4.16629 0.269573 0
M  V30 8857 H 807.279 5.77195 -3.43941 0
M  V30 8858 N 809.999 0.752036 1.385 0
M  V30 8859 C 811.276 0.233075 1.94206 0
M  V30 8860 C 811.656 -1.26838 1.68746 0
M  V30 8861 O 811.004 -2.04214 1.02513 0
M  V30 8862 C 811.214 0.58509 3.44061 0
M  V30 8863 C 812.562 0.543871 4.21102 0
M  V30 8864 O 813.586 0.523291 3.52335 0
M  V30 8865 O 812.445 0.553436 5.4369 0
M  V30 8866 H 809.539 0.0483049 0.825588 0
M  V30 8867 H 812.085 0.832053 1.47902 0
M  V30 8868 H 810.857 1.62212 3.56094 0
M  V30 8869 H 810.48 -0.0419738 3.97578 0
M  V30 8870 N 811.477 -1.49425 0.500989 0
M  V30 8871 C 812.387 -2.32899 -0.282011 0
M  V30 8872 C 813.403 -1.44632 -0.967346 0
M  V30 8873 O 814.579 -1.77654 -0.94873 0
M  V30 8874 C 811.644 -3.20069 -1.33253 0
M  V30 8875 C 810.705 -4.24186 -0.660636 0
M  V30 8876 C 809.938 -5.07191 -1.6611 0
M  V30 8877 O 810.161 -4.91712 -2.89094 0
M  V30 8878 O 809.095 -5.8948 -1.21643 0
M  V30 8879 H 812.921 -3.01038 0.401224 0
M  V30 8880 H 810.506 -1.47079 0.262323 0
M  V30 8881 H 812.388 -3.74071 -1.94033 0
M  V30 8882 H 811.063 -2.54625 -1.9987 0
M  V30 8883 H 809.97 -3.74098 -0.0130959 0
M  V30 8884 H 811.303 -4.92186 -0.0369179 0
M  V30 8885 N 812.955 -0.234822 -1.55841 0
M  V30 8886 C 814.232 0.442961 -1.90518 0
M  V30 8887 C 814.612 1.76768 -1.15397 0
M  V30 8888 O 813.96 2.26928 -0.267534 0
M  V30 8889 C 814.17 0.622905 -3.43396 0
M  V30 8890 C 815.518 0.9243 -4.14417 0
M  V30 8891 O 816.542 0.709211 -3.49068 0
M  V30 8892 O 815.401 1.33323 -5.29988 0
M  V30 8893 H 812.495 0.236042 -0.792599 0
M  V30 8894 H 815.041 -0.277992 -1.67408 0
M  V30 8895 H 813.813 -0.310973 -3.90062 0
M  V30 8896 H 813.436 1.39485 -3.7233 0
M  V30 8897 N 814.433 1.57553 0.0384317 0
M  V30 8898 C 815.71 1.79977 0.766002 0
M  V30 8899 C 816.09 0.830625 1.94072 0
M  V30 8900 O 815.438 -0.129243 2.28134 0
M  V30 8901 C 815.648 3.27434 1.20781 0
M  V30 8902 C 816.996 3.92167 1.62758 0
M  V30 8903 O 818.02 3.31527 1.30263 0
M  V30 8904 O 816.879 4.98917 2.23035 0
M  V30 8905 H 813.973 0.739787 0.369654 0
M  V30 8906 H 816.519 1.69693 0.0159312 0
M  V30 8907 H 815.291 3.89558 0.368792 0
M  V30 8908 H 814.914 3.42571 2.01819 0
M  V30 8909 N 815.911 -0.310526 1.54511 0
M  V30 8910 C 817.188 -1.06593 1.64004 0
M  V30 8911 C 817.568 -2.05519 0.482216 0
M  V30 8912 O 816.916 -2.22455 -0.52212 0
M  V30 8913 C 817.126 -1.75627 3.01589 0
M  V30 8914 C 818.474 -2.28173 3.58081 0
M  V30 8915 O 819.498 -1.85674 3.03979 0
M  V30 8916 O 818.357 -3.06015 4.52788 0
M  V30 8917 H 815.451 -0.492109 0.664649 0
M  V30 8918 H 817.997 -0.309374 1.66856 0
M  V30 8919 H 816.769 -1.03743 3.77297 0
M  V30 8920 H 816.392 -2.58061 3.02473 0
M  V30 8921 N 817.389 -1.46805 -0.573248 0
M  V30 8922 C 818.299 -1.60687 -1.70929 0
M  V30 8923 C 819.315 -0.490084 -1.66956 0
M  V30 8924 O 820.491 -0.755482 -1.86693 0
M  V30 8925 C 817.556 -1.60259 -3.07438 0
M  V30 8926 C 816.617 -2.83242 -3.22603 0
M  V30 8927 C 815.85 -2.82825 -4.52599 0
M  V30 8928 O 816.073 -1.92113 -5.37074 0
M  V30 8929 O 815.007 -3.74489 -4.71213 0
M  V30 8930 H 818.833 -2.56782 -1.62163 0
M  V30 8931 H 816.418 -1.29706 -0.741399 0
M  V30 8932 H 818.3 -1.6275 -3.88704 0
M  V30 8933 H 816.975 -0.673268 -3.16621 0
M  V30 8934 H 815.882 -2.86302 -2.40794 0
M  V30 8935 H 817.215 -3.75415 -3.18315 0
M  V30 8936 N 818.867 0.818669 -1.34668 0
M  V30 8937 C 819.777 1.9616 -1.2868 0
M  V30 8938 C 820.793 1.72918 -0.193742 0
M  V30 8939 O 821.969 1.96951 -0.420975 0
M  V30 8940 C 819.034 3.30534 -1.04633 0
M  V30 8941 C 818.095 3.66755 -2.23136 0
M  V30 8942 C 817.328 4.94717 -2.00227 0
M  V30 8943 O 817.551 5.62218 -0.96264 0
M  V30 8944 O 816.485 5.28915 -2.87286 0
M  V30 8945 H 820.311 2.04157 -2.24842 0
M  V30 8946 H 817.896 0.954691 -1.14917 0
M  V30 8947 H 819.778 4.11005 -0.930216 0
M  V30 8948 H 818.453 3.23495 -0.115139 0
M  V30 8949 H 817.36 2.8671 -2.40308 0
M  V30 8950 H 818.693 3.78484 -3.1466 0
M  V30 8951 N 820.346 1.18468 1.03938 0
M  V30 8952 C 821.256 0.927889 2.1547 0
M  V30 8953 C 822.272 -0.108447 1.73662 0
M  V30 8954 O 823.448 0.0737636 2.01265 0
M  V30 8955 C 820.513 0.458494 3.43655 0
M  V30 8956 C 819.574 1.56295 3.99838 0
M  V30 8957 C 818.807 1.11586 5.21904 0
M  V30 8958 O 819.03 -0.0249057 5.70395 0
M  V30 8959 O 817.964 1.91412 5.70653 0
M  V30 8960 H 821.79 1.86116 2.39989 0
M  V30 8961 H 819.375 0.966607 1.13917 0
M  V30 8962 H 821.257 0.204861 4.20902 0
M  V30 8963 H 819.932 -0.446464 3.20606 0
M  V30 8964 H 818.839 1.87061 3.23974 0
M  V30 8965 H 820.172 2.44408 4.2723 0
M  V30 8966 N 821.824 -1.22873 0.986916 0
M  V30 8967 C 822.734 -2.28277 0.540978 0
M  V30 8968 C 823.75 -1.69164 -0.407363 0
M  V30 8969 O 824.926 -1.99504 -0.275674 0
M  V30 8970 C 821.991 -3.46404 -0.143181 0
M  V30 8971 C 821.052 -4.20854 0.847375 0
M  V30 8972 C 820.285 -5.33341 0.19577 0
M  V30 8973 O 820.508 -5.61356 -1.0117 0
M  V30 8974 O 819.442 -5.95169 0.897623 0
M  V30 8975 H 823.268 -2.68578 1.41773 0
M  V30 8976 H 820.853 -1.28927 0.754867 0
M  V30 8977 H 822.735 -4.18096 -0.526676 0
M  V30 8978 H 821.41 -3.08041 -0.994593 0
M  V30 8979 H 820.317 -3.51459 1.28169 0
M  V30 8980 H 821.65 -4.63082 1.6678 0
M  V30 8981 N 823.302 -0.75937 -1.38099 0
M  V30 8982 C 824.212 -0.13774 -2.34195 0
M  V30 8983 C 825.228 0.693985 -1.59561 0
M  V30 8984 O 826.404 0.616792 -1.91723 0
M  V30 8985 C 823.469 0.740535 -3.38699 0
M  V30 8986 C 822.53 -0.106225 -4.29169 0
M  V30 8987 C 821.763 0.730225 -5.28681 0
M  V30 8988 O 821.986 1.96796 -5.35376 0
M  V30 8989 O 820.92 0.145969 -6.01723 0
M  V30 8990 H 824.746 -0.931512 -2.89061 0
M  V30 8991 H 822.331 -0.520345 -1.40046 0
M  V30 8992 H 824.213 1.24232 -4.02672 0
M  V30 8993 H 822.888 1.51271 -2.8618 0
M  V30 8994 H 821.795 -0.654088 -3.68337 0
M  V30 8995 H 823.128 -0.841186 -4.84959 0
M  V30 8996 N 824.78 1.49157 -0.508906 0
M  V30 8997 C 825.69 2.33045 0.269656 0
M  V30 8998 C 826.706 1.45143 0.959662 0
M  V30 8999 O 827.882 1.78155 0.939295 0
M  V30 9000 C 824.947 3.20772 1.31554 0
M  V30 9001 C 824.008 4.24531 0.638131 0
M  V30 9002 C 823.241 5.08065 1.63418 0
M  V30 9003 O 823.464 4.93238 2.86483 0
M  V30 9004 O 822.398 5.90117 1.18516 0
M  V30 9005 H 826.224 3.00821 -0.417183 0
M  V30 9006 H 823.809 1.46938 -0.270119 0
M  V30 9007 H 825.691 3.75095 1.92047 0
M  V30 9008 H 824.366 2.55681 1.98516 0
M  V30 9009 H 823.273 3.74099 -0.00674357 0
M  V30 9010 H 824.606 4.92199 0.0108155 0
M  V30 9011 N 826.258 0.243083 1.55714 0
M  V30 9012 C 827.168 -0.668913 2.24862 0
M  V30 9013 C 828.184 -1.19638 1.26344 0
M  V30 9014 O 829.36 -1.23345 1.5921 0
M  V30 9015 C 826.425 -1.85084 2.93163 0
M  V30 9016 C 825.486 -1.36323 4.07081 0
M  V30 9017 C 824.719 -2.48882 4.72116 0
M  V30 9018 O 824.942 -3.67523 4.36214 0
M  V30 9019 O 823.876 -2.18857 5.60701 0
M  V30 9020 H 827.702 -0.109737 3.03502 0
M  V30 9021 H 825.287 0.0117411 1.49395 0
M  V30 9022 H 827.169 -2.54065 3.36197 0
M  V30 9023 H 825.844 -2.39771 2.17466 0
M  V30 9024 H 824.751 -0.640804 3.68571 0
M  V30 9025 H 826.084 -0.86249 4.84584 0
M  V30 9026 N 827.736 -1.57571 -0.0300757 0
M  V30 9027 C 828.646 -2.09892 -1.04798 0
M  V30 9028 C 829.662 -1.03732 -1.39698 0
M  V30 9029 O 830.838 -1.35461 -1.49038 0
M  V30 9030 C 827.903 -2.56707 -2.33028 0
M  V30 9031 C 826.964 -3.77345 -2.04718 0
M  V30 9032 C 826.197 -4.21918 -3.26834 0
M  V30 9033 O 826.42 -3.66025 -4.37472 0
M  V30 9034 O 825.354 -5.14362 -3.12594 0
M  V30 9035 H 829.18 -2.97023 -0.633344 0
M  V30 9036 H 826.765 -1.47344 -0.246991 0
M  V30 9037 H 828.647 -2.87154 -3.08417 0
M  V30 9038 H 827.322 -1.72688 -2.73789 0
M  V30 9039 H 826.229 -3.51919 -1.26901 0
M  V30 9040 H 827.562 -4.62345 -1.68813 0
M  V30 9041 O 829.253 0.172939 -1.60571 0
M  V30 9042 H 829.944 0.809747 -1.75962 0
M  V30 END ATOM
M  V30 BEGIN BOND
M  V30 END BOND
M  V30 END CTAB
M  END
$$$$
