drugbank_target|P49913 Cathelicidin antimicrobial peptide (DB02345)
 OpenBabel12092120553D

  0  0  0     0  0            999 V3000
M  V30 BEGIN CTAB
M  V30 COUNTS 2754 2775 0 0 0
M  V30 BEGIN ATOM
M  V30 1 H -0.908 1.98254 -0.117106 0
M  V30 2 N 0 1.576 0 0
M  V30 3 C 0.933 2.03868 1.02534 0
M  V30 4 C 1.911 0.928543 1.3348 0
M  V30 5 O 3.095 1.19667 1.45644 0
M  V30 6 C 0.222 2.43627 2.35294 0
M  V30 7 C -0.732 3.65373 2.2001 0
M  V30 8 S 0.101 5.13292 1.52614 0
M  V30 9 C 1.257 5.56322 2.86805 0
M  V30 10 H 1.49 2.90518 0.631377 0
M  V30 11 H -0.977 1.52953 0.210867 0
M  V30 12 H 0.981 2.67203 3.11629 0
M  V30 13 H -0.358 1.57376 2.7183 0
M  V30 14 H -1.165 3.90944 3.18086 0
M  V30 15 H -1.563 3.418 1.51819 0
M  V30 16 H 0.729 5.58782 3.83104 0
M  V30 17 H 1.672 6.56266 2.65933 0
M  V30 18 H 2.08 4.83886 2.90714 0
M  V30 19 N 1.4781 -0.272755 1.55222 0
M  V30 20 C 2.4251 -1.33716 1.88119 0
M  V30 21 C 3.3951 -1.49066 0.73271 0
M  V30 22 O 4.5801 -1.63469 0.984002 0
M  V30 23 C 1.7201 -2.69238 2.15882 0
M  V30 24 C 0.8331 -2.62108 3.43399 0
M  V30 25 C -0.0319 -3.89811 3.60861 0
M  V30 26 C -0.9929 -3.77193 4.8207 0
M  V30 27 N -1.8559 -4.9673 4.96189 0
M  V30 28 H 2.9841 -1.04962 2.78903 0
M  V30 29 H 0.5211 -0.507088 1.38083 0
M  V30 30 H 2.4791 -3.48089 2.29978 0
M  V30 31 H 1.1091 -2.96194 1.28331 0
M  V30 32 H 0.1611 -1.74967 3.37773 0
M  V30 33 H 1.4731 -2.48685 4.32386 0
M  V30 34 H 0.6271 -4.77103 3.74777 0
M  V30 35 H -0.6339 -4.06102 2.7006 0
M  V30 36 H -1.6289 -2.88284 4.68159 0
M  V30 37 H -0.4039 -3.62421 5.74307 0
M  V30 38 H -2.4579 -5.13431 4.08319 0
M  V30 39 H -2.5409 -4.85839 5.79221 0
M  V30 40 H -1.2729 -5.85594 5.1449 0
M  V30 41 N 2.9562 -1.48159 -0.537278 0
M  V30 42 C 4.1842 -1.59454 -1.31841 0
M  V30 43 C 4.5992 -0.252065 -1.8711 0
M  V30 44 O 3.9562 0.757621 -1.66031 0
M  V30 45 C 4.0072 -2.63546 -2.47439 0
M  V30 46 O 3.7282 -3.92583 -1.94449 0
M  V30 47 C 5.2292 -2.85212 -3.39366 0
M  V30 48 H 2.4492 -0.53785 -0.401196 0
M  V30 49 H 4.9932 -1.93932 -0.648891 0
M  V30 50 H 3.1482 -2.31946 -3.1029 0
M  V30 51 H 3.5622 -4.49629 -2.70063 0
M  V30 52 H 5.0362 -3.61863 -4.16844 0
M  V30 53 H 5.5132 -1.93765 -3.94147 0
M  V30 54 H 6.1192 -3.18086 -2.82314 0
M  V30 55 N 4.4343 0.785586 -1.36625 0
M  V30 56 C 5.3663 1.90711 -1.2713 0
M  V30 57 C 6.3793 1.61688 -0.189986 0
M  V30 58 O 7.5683 1.72864 -0.445014 0
M  V30 59 C 4.6683 3.25611 -0.939713 0
M  V30 60 C 3.8413 3.82385 -2.12369 0
M  V30 61 C 2.9003 4.95732 -1.76456 0
M  V30 62 O 1.9263 5.12047 -2.48589 0
M  V30 63 N 3.1283 5.76258 -0.700492 0
M  V30 64 H 5.8933 1.99376 -2.23762 0
M  V30 65 H 3.4543 0.964041 -1.30069 0
M  V30 66 H 5.4463 3.98937 -0.680554 0
M  V30 67 H 4.0163 3.12538 -0.0624074 0
M  V30 68 H 3.2363 3.01001 -2.54543 0
M  V30 69 H 4.5243 4.17047 -2.9146 0
M  V30 70 H 3.9223 5.65609 -0.101624 0
M  V30 71 H 2.4793 6.4987 -0.501165 0
M  V30 72 N 5.9124 1.20967 1.01018 0
M  V30 73 C 7.3284 0.965905 1.27053 0
M  V30 74 C 7.5284 -0.350785 1.98423 0
M  V30 75 O 6.5844 -1.07773 2.28344 0
M  V30 76 C 7.8974 2.15294 2.09926 0
M  V30 77 C 9.4454 2.19463 2.23171 0
M  V30 78 C 9.9204 3.3767 3.09424 0
M  V30 79 N 11.4114 3.37724 3.17012 0
M  V30 80 C 12.1464 4.25837 3.83993 0
M  V30 81 N 11.6424 5.24138 4.53047 0
M  V30 82 N 13.4354 4.1366 3.80581 0
M  V30 83 H 5.5864 2.0565 0.531194 0
M  V30 84 H 7.8494 0.90024 0.297106 0
M  V30 85 H 7.5554 3.10684 1.64828 0
M  V30 86 H 7.4294 2.13923 3.10672 0
M  V30 87 H 9.8164 1.24632 2.6749 0
M  V30 88 H 9.8974 2.2488 1.21912 0
M  V30 89 H 9.5414 4.32791 2.65808 0
M  V30 90 H 9.4714 3.29491 4.10784 0
M  V30 91 H 11.9624 2.6658 2.6785 0
M  V30 92 H 12.2754 5.87684 5.01844 0
M  V30 93 H 10.6204 5.28068 4.5185 0
M  V30 94 H 13.8114 3.36127 3.25785 0
M  V30 95 H 13.9844 4.82538 4.32505 0
M  V30 96 N 7.3905 -1.2043 1.01659 0
M  V30 97 C 8.6675 -1.8548 0.621004 0
M  V30 98 C 9.0475 -1.9091 -0.900919 0
M  V30 99 O 8.3955 -1.41694 -1.79263 0
M  V30 100 C 8.6055 -3.25119 1.2688 0
M  V30 101 C 9.9535 -4.01403 1.38423 0
M  V30 102 O 10.9775 -3.34473 1.22501 0
M  V30 103 O 9.8365 -5.21265 1.64151 0
M  V30 104 H 6.9305 -0.798761 0.214266 0
M  V30 105 H 9.4765 -1.28019 1.11396 0
M  V30 106 H 8.2485 -3.15932 2.30873 0
M  V30 107 H 7.8715 -3.90212 0.762917 0
M  V30 108 N 8.8686 -0.792821 -1.36206 0
M  V30 109 C 10.1166 -0.366062 -1.98757 0
M  V30 110 C 10.4376 1.0668 -1.63231 0
M  V30 111 O 9.7076 1.73587 -0.907978 0
M  V30 112 H 8.2876 -0.132364 -0.735179 0
M  V30 113 H 10.9496 -1.01562 -1.66347 0
M  V30 114 H 10.0456 -0.460638 -3.08682 0
M  V30 115 N 10.3467 1.47872 -0.545128 0
M  V30 116 C 11.2967 2.26842 0.229456 0
M  V30 117 C 12.2807 1.33626 0.896267 0
M  V30 118 O 13.4727 1.58063 0.79657 0
M  V30 119 C 10.6017 3.19089 1.26638 0
M  V30 120 C 9.6877 4.19783 0.603598 0
M  V30 121 N 10.0787 5.0479 -0.319405 0
M  V30 122 C 8.3767 4.3765 0.858989 0
M  V30 123 C 9.0777 5.77433 -0.703241 0
M  V30 124 N 8.0537 5.43566 -0.0608309 0
M  V30 125 H 11.8557 2.89947 -0.480391 0
M  V30 126 H 9.3697 1.58263 -0.364209 0
M  V30 127 H 11.3667 3.74337 1.83515 0
M  V30 128 H 10.0267 2.5754 1.97745 0
M  V30 129 H 11.0377 5.13244 -0.692889 0
M  V30 130 H 7.7147 3.87281 1.55948 0
M  V30 131 H 9.1047 6.55824 -1.46098 0
M  V30 132 N 11.8248 0.280983 1.55075 0
M  V30 133 C 13.0498 -0.340154 2.04592 0
M  V30 134 C 13.4748 -1.48246 1.15779 0
M  V30 135 O 12.8328 -1.80614 0.15761 0
M  V30 136 C 12.8808 -0.793104 3.5177 0
M  V30 137 O 11.9848 -1.89981 3.66034 0
M  V30 138 H 11.3258 -0.0694289 0.66036 0
M  V30 139 H 13.8558 0.416993 2.00306 0
M  V30 140 H 13.8658 -1.08729 3.93245 0
M  V30 141 H 12.5408 0.0426163 4.15878 0
M  V30 142 H 11.1178 -1.60771 3.36463 0
M  V30 143 N 13.3029 -1.57598 0.00835791 0
M  V30 144 C 14.2329 -2.1198 -0.979113 0
M  V30 145 C 15.2139 -1.03091 -1.35301 0
M  V30 146 O 16.3989 -1.30818 -1.43528 0
M  V30 147 C 13.5289 -2.62995 -2.26828 0
M  V30 148 C 12.4829 -3.76485 -2.03576 0
M  V30 149 C 11.8089 -4.13846 -3.38579 0
M  V30 150 C 13.1089 -5.0342 -1.39161 0
M  V30 151 H 14.8029 -2.94738 -0.526281 0
M  V30 152 H 12.3489 -1.41783 -0.251704 0
M  V30 153 H 14.3019 -2.99669 -2.96271 0
M  V30 154 H 13.0259 -1.7737 -2.7424 0
M  V30 155 H 11.6849 -3.40217 -1.36557 0
M  V30 156 H 11.3329 -3.25232 -3.83709 0
M  V30 157 H 11.0329 -4.90312 -3.23834 0
M  V30 158 H 12.5569 -4.53086 -4.09323 0
M  V30 159 H 13.9709 -5.37812 -1.98573 0
M  V30 160 H 12.3679 -5.84746 -1.34878 0
M  V30 161 H 13.4379 -4.83548 -0.361868 0
M  V30 162 N 14.781 0.264519 -1.55364 0
M  V30 163 C 16.029 0.993021 -1.76021 0
M  V30 164 C 16.35 1.86511 -0.569099 0
M  V30 165 O 15.62 1.91438 0.415735 0
M  V30 166 H 14.2 0.369639 -0.649135 0
M  V30 167 H 16.862 0.286707 -1.9278 0
M  V30 168 H 15.958 1.62502 -2.66457 0
M  V30 169 N 16.2591 1.48442 0.529413 0
M  V30 170 C 17.6751 1.34575 0.858004 0
M  V30 171 C 17.8751 0.3572 1.98309 0
M  V30 172 O 16.9311 -0.221379 2.51528 0
M  V30 173 C 18.2441 2.74617 1.22499 0
M  V30 174 C 19.7921 2.83109 1.33484 0
M  V30 175 C 20.2671 4.23854 1.73526 0
M  V30 176 N 21.7581 4.2653 1.80628 0
M  V30 177 C 22.4931 5.32372 2.12997 0
M  V30 178 N 21.9891 6.48491 2.43786 0
M  V30 179 N 23.7821 5.19766 2.14008 0
M  V30 180 H 15.9331 2.1133 -0.212925 0
M  V30 181 H 18.1961 0.947439 -0.0326199 0
M  V30 182 H 17.9021 3.4852 0.471905 0
M  V30 183 H 17.7761 3.08177 2.17501 0
M  V30 184 H 20.1631 2.09462 2.0787 0
M  V30 185 H 20.2441 2.53168 0.366027 0
M  V30 186 H 19.8881 4.98018 0.997013 0
M  V30 187 H 19.8181 4.5124 2.71459 0
M  V30 188 H 22.3091 3.42772 1.59108 0
M  V30 189 H 22.6221 7.24993 2.67592 0
M  V30 190 H 20.9671 6.51765 2.41304 0
M  V30 191 H 24.1581 4.28066 1.89412 0
M  V30 192 H 24.3311 6.02354 2.38902 0
M  V30 193 N 17.7372 -0.778329 1.37039 0
M  V30 194 C 18.9832 -1.53817 1.33086 0
M  V30 195 C 19.3382 -1.92208 -0.0860346 0
M  V30 196 O 18.6312 -1.60713 -1.04316 0
M  V30 197 C 18.8252 -2.81845 2.19768 0
M  V30 198 C 18.6542 -2.55967 3.69744 0
M  V30 199 C 17.4242 -2.50428 4.38878 0
M  V30 200 C 19.6222 -2.2441 4.62758 0
M  V30 201 N 17.6042 -2.16564 5.74433 0
M  V30 202 C 18.9752 -2.0063 5.86641 0
M  V30 203 C 21.0302 -2.1051 4.5121 0
M  V30 204 C 19.7332 -1.64354 7.00272 0
M  V30 205 C 21.7592 -1.75634 5.64718 0
M  V30 206 C 21.1212 -1.52709 6.87648 0
M  V30 207 H 17.2202 -0.563434 0.542279 0
M  V30 208 H 19.8042 -0.908617 1.72198 0
M  V30 209 H 17.9752 -3.42649 1.82883 0
M  V30 210 H 19.7072 -3.47682 2.07122 0
M  V30 211 H 16.4622 -2.66056 3.91805 0
M  V30 212 H 16.8862 -2.02348 6.46053 0
M  V30 213 H 21.5282 -2.26919 3.56746 0
M  V30 214 H 19.2462 -1.46683 7.94676 0
M  V30 215 H 22.8322 -1.65546 5.57751 0
M  V30 216 H 21.7122 -1.2612 7.73992 0
M  V30 217 N 19.2153 -1.21501 -1.00376 0
M  V30 218 C 20.4403 -1.05977 -1.78279 0
M  V30 219 C 20.8653 0.385994 -1.84097 0
M  V30 220 O 20.2233 1.27849 -1.28547 0
M  V30 221 C 20.2713 -1.66302 -3.19963 0
M  V30 222 O 19.3753 -0.909333 -4.0225 0
M  V30 223 H 18.7163 -0.372906 -0.549397 0
M  V30 224 H 21.2463 -1.6107 -1.26165 0
M  V30 225 H 21.2563 -1.70574 -3.70632 0
M  V30 226 H 19.9313 -2.71515 -3.15043 0
M  V30 227 H 18.5083 -0.941795 -3.60811 0
M  V30 228 N 20.6934 1.19889 -1.02296 0
M  V30 229 C 21.6234 2.25141 -0.619174 0
M  V30 230 C 22.6044 1.66051 0.368915 0
M  V30 231 O 23.7894 1.92546 0.252941 0
M  V30 232 C 20.9194 3.4728 0.0368783 0
M  V30 233 C 19.8734 4.19005 -0.872865 0
M  V30 234 C 19.1994 5.34637 -0.0822402 0
M  V30 235 C 20.4994 4.74452 -2.18387 0
M  V30 236 H 22.1934 2.59171 -1.49903 0
M  V30 237 H 19.7394 1.24579 -0.722222 0
M  V30 238 H 21.6924 4.20098 0.330958 0
M  V30 239 H 20.4164 3.12433 0.95149 0
M  V30 240 H 19.0754 3.48061 -1.15105 0
M  V30 241 H 18.7234 4.96034 0.83422 0
M  V30 242 H 18.4234 5.83557 -0.688149 0
M  V30 243 H 19.9474 6.10255 0.205238 0
M  V30 244 H 21.3614 5.39055 -1.95172 0
M  V30 245 H 19.7584 5.33834 -2.74119 0
M  V30 246 H 20.8284 3.92844 -2.84257 0
M  V30 247 N 22.1715 0.800033 1.35784 0
M  V30 248 C 23.4175 0.377901 1.99248 0
M  V30 249 C 23.7505 -1.05052 1.63333 0
M  V30 250 O 23.0255 -1.72768 0.893385 0
M  V30 251 C 23.3085 0.553922 3.55814 0
M  V30 252 C 23.1615 2.0268 4.01548 0
M  V30 253 C 24.4805 -0.0244802 4.40093 0
M  V30 254 H 21.5995 0.138782 0.723815 0
M  V30 255 H 24.2415 1.00835 1.61035 0
M  V30 256 H 22.3915 0.0172398 3.88496 0
M  V30 257 H 24.0635 2.62536 3.79305 0
M  V30 258 H 22.3065 2.5256 3.52698 0
M  V30 259 H 22.9775 2.10087 5.10458 0
M  V30 260 H 25.4535 0.433775 4.13833 0
M  V30 261 H 24.3295 0.128637 5.48749 0
M  V30 262 H 24.5905 -1.11758 4.27741 0
M  V30 263 N 23.6496 -1.47581 0.552962 0
M  V30 264 C 24.5796 -2.32762 -0.185451 0
M  V30 265 C 25.5606 -1.43527 -0.912905 0
M  V30 266 O 26.7456 -1.72388 -0.894201 0
M  V30 267 C 23.8756 -3.25219 -1.21859 0
M  V30 268 C 22.8296 -4.23661 -0.607864 0
M  V30 269 C 22.1556 -5.05413 -1.74533 0
M  V30 270 C 23.4556 -5.20481 0.435582 0
M  V30 271 H 25.1496 -2.94749 0.525684 0
M  V30 272 H 22.6956 -1.41738 0.254251 0
M  V30 273 H 24.6486 -3.8365 -1.7433 0
M  V30 274 H 23.3726 -2.61279 -1.95961 0
M  V30 275 H 22.0316 -3.66451 -0.104489 0
M  V30 276 H 21.6796 -4.3788 -2.47529 0
M  V30 277 H 21.3796 -5.72059 -1.34249 0
M  V30 278 H 22.9036 -5.66701 -2.27338 0
M  V30 279 H 24.3176 -5.733 -0.00290157 0
M  V30 280 H 22.7146 -5.95305 0.757067 0
M  V30 281 H 23.7846 -4.66217 1.33303 0
M  V30 282 N 25.1277 -0.289203 -1.54924 0
M  V30 283 C 26.0577 0.58549 -2.2604 0
M  V30 284 C 27.0387 1.14753 -1.25562 0
M  V30 285 O 28.2237 1.17906 -1.54311 0
M  V30 286 C 25.3537 1.76305 -2.99222 0
M  V30 287 C 24.3077 1.33191 -4.06748 0
M  V30 288 C 23.6337 2.5937 -4.6758 0
M  V30 289 C 24.9337 0.471775 -5.20165 0
M  V30 290 H 26.6277 -0.00763532 -2.99399 0
M  V30 291 H 24.1737 -0.00511229 -1.43999 0
M  V30 292 H 26.1267 2.38097 -3.47689 0
M  V30 293 H 24.8507 2.38223 -2.23422 0
M  V30 294 H 23.5097 0.737121 -3.59113 0
M  V30 295 H 23.1577 3.19576 -3.88433 0
M  V30 296 H 22.8577 2.31228 -5.40192 0
M  V30 297 H 24.3817 3.21985 -5.18804 0
M  V30 298 H 25.7957 0.995056 -5.64599 0
M  V30 299 H 24.1927 0.284639 -5.99425 0
M  V30 300 H 25.2627 -0.506041 -4.82252 0
M  V30 301 N 26.6058 1.57591 -0.0167156 0
M  V30 302 C 27.5358 2.12496 0.967858 0
M  V30 303 C 28.5168 1.03807 1.34752 0
M  V30 304 O 29.7018 1.31577 1.42833 0
M  V30 305 C 26.8318 2.64194 2.25431 0
M  V30 306 C 25.7858 3.77559 2.01576 0
M  V30 307 C 25.1118 4.15636 3.36379 0
M  V30 308 C 26.4118 5.04151 1.36489 0
M  V30 309 H 28.1058 2.95013 0.510643 0
M  V30 310 H 25.6518 1.41915 0.244181 0
M  V30 311 H 27.6048 3.01236 2.94678 0
M  V30 312 H 26.3288 1.78821 2.73296 0
M  V30 313 H 24.9878 3.40937 1.34751 0
M  V30 314 H 24.6358 3.27263 3.81979 0
M  V30 315 H 24.3358 4.92022 3.21229 0
M  V30 316 H 25.8598 4.5525 4.06915 0
M  V30 317 H 27.2738 5.38857 1.95718 0
M  V30 318 H 25.6708 5.85453 1.31776 0
M  V30 319 H 26.7408 4.83733 0.336219 0
M  V30 320 N 28.0839 -0.256276 1.55502 0
M  V30 321 C 29.0139 -1.32102 1.92539 0
M  V30 322 C 29.9949 -1.50684 0.789194 0
M  V30 323 O 31.1799 -1.63449 1.04872 0
M  V30 324 C 28.3099 -2.67752 2.21192 0
M  V30 325 C 27.2639 -2.63878 3.36975 0
M  V30 326 C 26.5899 -4.03236 3.51147 0
M  V30 327 C 27.8899 -2.21682 4.72921 0
M  V30 328 H 29.5839 -1.01351 2.81724 0
M  V30 329 H 27.1299 -0.486105 1.35547 0
M  V30 330 H 29.0829 -3.42365 2.45691 0
M  V30 331 H 27.8069 -3.0012 1.28824 0
M  V30 332 H 26.4659 -1.91722 3.12471 0
M  V30 333 H 26.1139 -4.32854 2.56216 0
M  V30 334 H 25.8139 -4.01535 4.29003 0
M  V30 335 H 27.3379 -4.79563 3.77957 0
M  V30 336 H 28.7519 -2.86023 4.96854 0
M  V30 337 H 27.1489 -2.3111 5.53812 0
M  V30 338 H 28.2189 -1.16833 4.70615 0
M  V30 339 N 29.562 -1.4872 -0.521534 0
M  V30 340 C 30.81 -1.56857 -1.27437 0
M  V30 341 C 31.131 -0.247982 -1.93417 0
M  V30 342 O 30.401 0.731151 -1.81744 0
M  V30 343 H 28.981 -0.577885 -0.473347 0
M  V30 344 H 31.643 -1.85233 -0.606205 0
M  V30 345 H 30.739 -2.35402 -2.0492 0
M  V30 346 N 31.0401 0.771051 -1.3745 0
M  V30 347 C 31.9701 1.89827 -1.3597 0
M  V30 348 C 32.9511 1.68562 -0.228216 0
M  V30 349 O 34.1361 1.8941 -0.428675 0
M  V30 350 C 31.2661 3.2712 -1.16662 0
M  V30 351 C 30.2201 3.6295 -2.2683 0
M  V30 352 C 29.5461 4.98791 -1.92644 0
M  V30 353 C 30.8461 3.69627 -3.69017 0
M  V30 354 H 32.5401 1.91323 -2.30295 0
M  V30 355 H 30.0861 0.919082 -1.10855 0
M  V30 356 H 32.0391 4.05615 -1.14256 0
M  V30 357 H 30.7631 3.26059 -0.187926 0
M  V30 358 H 29.4221 2.86763 -2.28392 0
M  V30 359 H 29.0701 4.94271 -0.933021 0
M  V30 360 H 28.7701 5.23733 -2.66416 0
M  V30 361 H 30.2941 5.79685 -1.91826 0
M  V30 362 H 31.7081 4.38273 -3.69581 0
M  V30 363 H 30.1051 4.06067 -4.41848 0
M  V30 364 H 31.1751 2.70273 -4.02592 0
M  V30 365 N 32.5182 1.22032 0.997298 0
M  V30 366 C 33.7642 1.04376 1.73878 0
M  V30 367 C 34.0972 -0.420716 1.89588 0
M  V30 368 O 33.3722 -1.31202 1.43583 0
M  V30 369 C 33.6552 1.75047 3.14691 0
M  V30 370 C 33.5082 3.29062 3.06656 0
M  V30 371 C 34.8272 1.49928 4.13775 0
M  V30 372 H 31.9462 0.380578 0.631133 0
M  V30 373 H 34.5882 1.50312 1.16217 0
M  V30 374 H 32.7382 1.35996 3.63919 0
M  V30 375 H 34.4102 3.7753 2.65083 0
M  V30 376 H 32.6532 3.58967 2.43568 0
M  V30 377 H 33.3242 3.73683 4.06282 0
M  V30 378 H 35.8002 1.83842 3.73285 0
M  V30 379 H 34.6762 2.01878 5.10428 0
M  V30 380 H 34.9372 0.430929 4.39995 0
M  V30 381 N 33.9963 -1.19345 1.0293 0
M  V30 382 C 34.9293 -2.21347 0.555029 0
M  V30 383 C 35.9073 -1.57492 -0.404351 0
M  V30 384 O 37.0913 -1.85741 -0.321352 0
M  V30 385 C 34.2183 -3.38163 -0.19064 0
M  V30 386 C 33.2643 -4.20375 0.720236 0
M  V30 387 S 34.0973 -4.88371 2.19668 0
M  V30 388 C 35.2533 -6.08597 1.46153 0
M  V30 389 H 35.4863 -2.61235 1.41929 0
M  V30 390 H 33.0193 -1.29598 0.839272 0
M  V30 391 H 34.9773 -4.05871 -0.614724 0
M  V30 392 H 33.6383 -2.9671 -1.03063 0
M  V30 393 H 32.8313 -5.03793 0.14455 0
M  V30 394 H 32.4333 -3.57987 1.08266 0
M  V30 395 H 34.7253 -6.73354 0.748357 0
M  V30 396 H 35.6683 -6.7065 2.27233 0
M  V30 397 H 36.0763 -5.56297 0.958842 0
M  V30 398 N 35.4744 -0.807222 -1.35358 0
M  V30 399 C 36.8854 -0.44876 -1.81226 0
M  V30 400 C 37.2364 1.02929 -1.67033 0
M  V30 401 O 36.3614 1.79991 -1.20133 0
M  V30 402 C 36.9564 -0.807774 -3.2903 0
M  V30 403 C 35.5154 -0.501901 -3.73039 0
M  V30 404 C 34.6624 -1.03304 -2.57339 0
M  V30 405 H 37.6134 -0.998808 -1.23327 0
M  V30 406 H 37.6344 -0.10554 -3.80354 0
M  V30 407 H 37.1464 -1.88357 -3.39328 0
M  V30 408 H 35.2474 0.565128 -3.68289 0
M  V30 409 H 35.3604 -1.03497 -4.67787 0
M  V30 410 H 33.7244 -0.455339 -2.50597 0
M  V30 411 H 34.5074 -2.11496 -2.70415 0
M  V30 412 N 36.9525 1.47285 -0.560781 0
M  V30 413 C 37.8825 2.32857 0.173105 0
M  V30 414 C 38.8635 1.44009 0.905281 0
M  V30 415 O 40.0485 1.7286 0.885046 0
M  V30 416 C 37.1785 3.25861 1.20133 0
M  V30 417 C 36.1325 4.23978 0.585388 0
M  V30 418 C 35.4585 5.06332 1.7185 0
M  V30 419 C 36.7585 5.20242 -0.463178 0
M  V30 420 H 38.4525 2.94466 -0.541307 0
M  V30 421 H 35.9985 1.41601 -0.261764 0
M  V30 422 H 37.9515 3.84569 1.72293 0
M  V30 423 H 36.6755 2.62315 1.94573 0
M  V30 424 H 35.3345 3.66501 0.085054 0
M  V30 425 H 34.9825 4.39186 2.45203 0
M  V30 426 H 34.6825 5.72762 1.31213 0
M  V30 427 H 36.2065 5.67899 2.24329 0
M  V30 428 H 37.6205 5.73293 -0.027502 0
M  V30 429 H 36.0175 5.94896 -0.788627 0
M  V30 430 H 37.0875 4.65504 -1.35773 0
M  V30 431 N 38.4306 0.297415 1.54768 0
M  V30 432 C 39.3936 -0.567375 2.22066 0
M  V30 433 C 40.3936 -1.06409 1.20556 0
M  V30 434 O 41.5836 -0.960691 1.45315 0
M  V30 435 C 38.7156 -1.78517 2.90421 0
M  V30 436 H 39.9086 0.0205534 2.99893 0
M  V30 437 H 37.4616 0.0482163 1.56226 0
M  V30 438 H 38.1966 -2.41303 2.16664 0
M  V30 439 H 37.9816 -1.43669 3.64831 0
M  V30 440 H 39.4716 -2.39964 3.41771 0
M  V30 441 N 39.9087 -1.5758 0.0250728 0
M  V30 442 C 41.1577 -1.90811 -0.653767 0
M  V30 443 C 41.4707 -0.90273 -1.73523 0
M  V30 444 O 42.6767 -1.12614 -2.47043 0
M  V30 445 C 41.1327 -3.38804 -1.21409 0
M  V30 446 C 40.7407 -4.47692 -0.166126 0
M  V30 447 C 42.4847 -3.81108 -1.86967 0
M  V30 448 C 40.3917 -5.86779 -0.737856 0
M  V30 449 H 39.3217 -0.712063 -0.247956 0
M  V30 450 H 41.9727 -1.83281 0.0897137 0
M  V30 451 H 40.3547 -3.41252 -2.00905 0
M  V30 452 H 41.5287 -4.56797 0.606079 0
M  V30 453 H 39.8437 -4.14565 0.390466 0
M  V30 454 H 42.4407 -4.82375 -2.30692 0
M  V30 455 H 42.7837 -3.15953 -2.71071 0
M  V30 456 H 43.3167 -3.81065 -1.14167 0
M  V30 457 H 40.0557 -6.55468 0.0649577 0
M  V30 458 H 39.5757 -5.81288 -1.47864 0
M  V30 459 H 41.2547 -6.35223 -1.22884 0
M  V30 460 N 41.3868 0.248026 -1.55636 0
M  V30 461 C 42.6358 0.974134 -1.76617 0
M  V30 462 C 42.9488 1.86528 -0.588796 0
M  V30 463 O 44.1548 2.62805 -0.681594 0
M  V30 464 C 42.6108 1.78213 -3.12679 0
M  V30 465 C 42.2188 0.93843 -4.38061 0
M  V30 466 C 43.9628 2.50104 -3.42999 0
M  V30 467 C 41.8698 1.74225 -5.65155 0
M  V30 468 H 40.7998 0.36745 -0.658405 0
M  V30 469 H 43.4508 0.22884 -1.82067 0
M  V30 470 H 41.8328 2.56933 -3.01333 0
M  V30 471 H 43.0068 0.193635 -4.60393 0
M  V30 472 H 41.3218 0.332905 -4.15067 0
M  V30 473 H 43.9188 3.10694 -4.3517 0
M  V30 474 H 44.2618 3.21662 -2.64271 0
M  V30 475 H 44.7948 1.78395 -3.55556 0
M  V30 476 H 41.5338 1.07043 -6.46701 0
M  V30 477 H 41.0538 2.46235 -5.46926 0
M  V30 478 H 42.7328 2.30967 -6.0437 0
M  V30 479 N 42.8649 1.48995 0.513639 0
M  V30 480 C 43.8279 1.64229 1.59879 0
M  V30 481 C 44.8279 0.514696 1.5234 0
M  V30 482 O 46.0179 0.78087 1.55718 0
M  V30 483 C 43.1499 1.62783 2.99524 0
M  V30 484 H 44.3429 2.61004 1.47705 0
M  V30 485 H 41.8959 1.37837 0.736936 0
M  V30 486 H 42.6309 0.675461 3.17188 0
M  V30 487 H 42.4159 2.4466 3.06404 0
M  V30 488 H 43.9059 1.76669 3.78388 0
M  V30 489 N 44.343 -0.763751 1.37857 0
M  V30 490 C 45.275 -1.88664 1.30148 0
M  V30 491 C 46.288 -1.61365 0.215685 0
M  V30 492 O 47.477 -1.72134 0.472459 0
M  V30 493 C 44.577 -3.24075 0.991396 0
M  V30 494 C 43.75 -3.78958 2.18426 0
M  V30 495 C 42.809 -4.92862 1.8432 0
M  V30 496 O 41.835 -5.08027 2.56704 0
M  V30 497 N 43.037 -5.75071 0.792081 0
M  V30 498 H 45.802 -1.95791 2.26905 0
M  V30 499 H 43.363 -0.943226 1.31586 0
M  V30 500 H 45.355 -3.97804 0.743935 0
M  V30 501 H 43.925 -3.12399 0.112122 0
M  V30 502 H 43.145 -2.96913 2.59299 0
M  V30 503 H 44.433 -4.12357 2.98058 0
M  V30 504 H 43.831 -5.65375 0.191595 0
M  V30 505 H 42.388 -6.48991 0.60449 0
M  V30 506 N 45.8211 -1.22559 -0.990812 0
M  V30 507 C 47.0671 -1.05297 -1.73322 0
M  V30 508 C 47.4001 0.410655 -1.89808 0
M  V30 509 O 46.6751 1.30439 -1.44277 0
M  V30 510 C 46.9581 -1.76713 -3.13759 0
M  V30 511 C 46.8111 -3.30684 -3.04907 0
M  V30 512 C 48.1301 -1.52121 -4.12974 0
M  V30 513 H 45.2491 -0.38392 -0.629106 0
M  V30 514 H 47.8911 -1.50926 -1.15418 0
M  V30 515 H 46.0411 -1.37924 -3.63193 0
M  V30 516 H 47.7131 -3.7893 -2.63077 0
M  V30 517 H 45.9561 -3.60253 -2.41661 0
M  V30 518 H 46.6271 -3.75833 -4.04294 0
M  V30 519 H 49.1031 -1.85819 -3.72304 0
M  V30 520 H 47.9791 -2.04582 -5.0935 0
M  V30 521 H 48.2401 -0.454257 -4.3976 0
M  V30 522 N 47.2992 1.18797 -1.03562 0
M  V30 523 C 48.2292 2.24472 -0.643019 0
M  V30 524 C 49.2102 1.66433 0.351283 0
M  V30 525 O 50.3952 1.92803 0.232505 0
M  V30 526 C 47.5252 3.473 4.24935e-05 0
M  V30 527 C 46.4792 4.18055 -0.917257 0
M  V30 528 C 45.8052 5.34519 -0.138941 0
M  V30 529 C 47.1052 4.72109 -2.23407 0
M  V30 530 H 48.7992 2.57566 -1.52643 0
M  V30 531 H 46.3452 1.23806 -0.735394 0
M  V30 532 H 48.2982 4.20426 0.286383 0
M  V30 533 H 47.0222 3.13424 0.918299 0
M  V30 534 H 45.6812 3.46821 -1.1879 0
M  V30 535 H 45.3292 4.96891 0.781562 0
M  V30 536 H 45.0292 5.82794 -0.750005 0
M  V30 537 H 46.5532 6.10438 0.1405 0
M  V30 538 H 47.9672 5.36955 -2.00879 0
M  V30 539 H 46.3642 5.30897 -2.79765 0
M  V30 540 H 47.4342 3.89807 -2.88407 0
M  V30 541 N 48.7773 0.814389 1.34928 0
M  V30 542 C 50.0023 0.410097 2.03305 0
M  V30 543 C 50.4273 -0.973464 1.60951 0
M  V30 544 O 49.7853 -1.63185 0.789964 0
M  V30 545 C 49.8333 0.51049 3.56968 0
M  V30 546 O 48.9373 -0.473035 4.09678 0
M  V30 547 H 48.2783 0.170088 0.641846 0
M  V30 548 H 50.8083 1.10244 1.72358 0
M  V30 549 H 50.8183 0.383135 4.06197 0
M  V30 550 H 49.4933 1.51963 3.87144 0
M  V30 551 H 48.0703 -0.305272 3.71648 0
M  V30 552 N 50.2554 -1.46986 0.568584 0
M  V30 553 C 51.4854 -2.0653 0.0539173 0
M  V30 554 C 51.8934 -1.42004 -1.25026 0
M  V30 555 O 51.2364 -0.514541 -1.76347 0
M  V30 556 C 51.2984 -3.58938 -0.200854 0
M  V30 557 C 50.9624 -4.45572 1.01559 0
M  V30 558 C 51.9594 -4.82986 1.92407 0
M  V30 559 C 49.6444 -4.8692 1.23346 0
M  V30 560 C 51.6384 -5.60559 3.03402 0
M  V30 561 C 49.3254 -5.64255 2.34649 0
M  V30 562 C 50.3234 -6.00986 3.24507 0
M  V30 563 O 50.0114 -6.76761 4.33878 0
M  V30 564 H 49.7434 -0.674292 0.0480234 0
M  V30 565 H 52.2974 -1.89812 0.784896 0
M  V30 566 H 50.5274 -3.73911 -0.986279 0
M  V30 567 H 52.2164 -4.0046 -0.662294 0
M  V30 568 H 52.9824 -4.51633 1.76785 0
M  V30 569 H 48.8614 -4.57789 0.543178 0
M  V30 570 H 52.4054 -5.89147 3.73565 0
M  V30 571 H 48.3024 -5.95021 2.5024 0
M  V30 572 H 49.0704 -6.95168 4.32068 0
M  V30 573 N 51.7335 -0.305618 -1.54608 0
M  V30 574 C 52.6805 0.568421 -2.23691 0
M  V30 575 C 53.6505 1.12592 -1.22116 0
M  V30 576 O 54.8355 1.16959 -1.50749 0
M  V30 577 C 51.9755 1.7322 -2.98477 0
M  V30 578 C 51.0885 1.20566 -4.14835 0
M  V30 579 C 50.2235 2.33368 -4.77193 0
M  V30 580 C 49.2625 1.7787 -5.85686 0
M  V30 581 N 48.3995 2.84263 -6.4198 0
M  V30 582 H 53.2395 -0.0272867 -2.97988 0
M  V30 583 H 50.7765 -0.0252363 -1.47078 0
M  V30 584 H 52.7345 2.41675 -3.40072 0
M  V30 585 H 51.3645 2.29947 -2.26548 0
M  V30 586 H 50.4165 0.413223 -3.78149 0
M  V30 587 H 51.7285 0.759417 -4.92985 0
M  V30 588 H 50.8825 3.09761 -5.21664 0
M  V30 589 H 49.6215 2.8132 -3.98385 0
M  V30 590 H 48.6265 0.99968 -5.40635 0
M  V30 591 H 49.8515 1.30816 -6.66381 0
M  V30 592 H 47.7975 3.31541 -5.66053 0
M  V30 593 H 47.7145 2.44149 -7.15491 0
M  V30 594 H 48.9825 3.6054 -6.91109 0
M  V30 595 N 53.2116 1.57565 -0.0334293 0
M  V30 596 C 54.1216 2.13943 0.962572 0
M  V30 597 C 55.1376 1.09276 1.35406 0
M  V30 598 O 56.3136 1.41355 1.4346 0
M  V30 599 C 53.3786 2.65887 2.22497 0
M  V30 600 C 52.4396 3.85286 1.8935 0
M  V30 601 C 51.6726 4.34743 3.09571 0
M  V30 602 O 51.8956 3.83352 4.22371 0
M  V30 603 O 50.8296 5.26538 2.91618 0
M  V30 604 H 54.6556 2.99333 0.513169 0
M  V30 605 H 52.2406 1.4822 0.18743 0
M  V30 606 H 54.1226 2.99346 2.96598 0
M  V30 607 H 52.7976 1.83578 2.6661 0
M  V30 608 H 51.7046 3.56746 1.1262 0
M  V30 609 H 53.0376 4.68771 1.5005 0
M  V30 610 N 54.6897 -0.239769 1.55765 0
M  V30 611 C 55.6527 -1.28038 1.90103 0
M  V30 612 C 56.6527 -1.40723 0.778055 0
M  V30 613 O 57.8427 -1.39301 1.04599 0
M  V30 614 C 54.9747 -2.65702 2.13577 0
M  V30 615 H 56.1677 -0.988048 2.83157 0
M  V30 616 H 53.7207 -0.479382 1.48767 0
M  V30 617 H 54.4557 -3.00063 1.23015 0
M  V30 618 H 54.2407 -2.57875 2.95369 0
M  V30 619 H 55.7307 -3.40828 2.41301 0
M  V30 620 N 56.1678 -1.49265 -0.50573 0
M  V30 621 C 57.4138 -1.58748 -1.26202 0
M  V30 622 C 57.7468 -0.271227 -1.92297 0
M  V30 623 O 57.0218 0.724831 -1.80489 0
M  V30 624 C 57.3048 -2.74332 -2.33268 0
M  V30 625 C 57.1578 -4.15737 -1.71705 0
M  V30 626 C 58.4768 -2.85576 -3.34865 0
M  V30 627 H 55.5958 -0.577826 -0.457478 0
M  V30 628 H 58.2378 -1.81532 -0.560897 0
M  V30 629 H 56.3878 -2.55036 -2.93068 0
M  V30 630 H 58.0598 -4.46537 -1.15769 0
M  V30 631 H 56.3028 -4.21605 -1.02135 0
M  V30 632 H 56.9738 -4.92477 -2.49341 0
M  V30 633 H 59.4498 -3.03127 -2.8505 0
M  V30 634 H 58.3258 -3.68135 -4.07146 0
M  V30 635 H 58.5868 -1.94732 -3.96903 0
M  V30 636 N 57.6459 0.756429 -1.3826 0
M  V30 637 C 58.5759 1.88374 -1.37976 0
M  V30 638 C 59.5569 1.68311 -0.246082 0
M  V30 639 O 60.7419 1.88944 -0.44874 0
M  V30 640 C 57.8719 3.25864 -1.20125 0
M  V30 641 C 56.8259 3.60523 -2.30666 0
M  V30 642 C 56.1519 4.9672 -1.97923 0
M  V30 643 C 57.4519 3.65692 -3.72916 0
M  V30 644 H 59.1459 1.88869 -2.32312 0
M  V30 645 H 56.6919 0.907272 -1.11824 0
M  V30 646 H 58.6449 4.0438 -1.18552 0
M  V30 647 H 57.3689 3.25841 -0.222498 0
M  V30 648 H 56.0279 2.84324 -2.3142 0
M  V30 649 H 55.6759 4.93253 -0.985393 0
M  V30 650 H 55.3759 5.20878 -2.71955 0
M  V30 651 H 56.8999 5.77618 -1.97964 0
M  V30 652 H 58.3139 4.34328 -3.74208 0
M  V30 653 H 56.7109 4.01358 -4.4613 0
M  V30 654 H 57.7809 2.65987 -4.05436 0
M  V30 655 N 59.124 1.23083 0.984299 0
M  V30 656 C 60.54 0.992637 1.24975 0
M  V30 657 C 60.74 -0.308618 1.99123 0
M  V30 658 O 59.796 -1.02905 2.30579 0
M  V30 659 C 61.109 2.19698 2.05312 0
M  V30 660 C 62.657 2.24147 2.18465 0
M  V30 661 C 63.132 3.44157 3.02192 0
M  V30 662 N 64.623 3.44372 3.09777 0
M  V30 663 C 65.358 4.33886 3.74874 0
M  V30 664 N 64.854 5.3363 4.41827 0
M  V30 665 N 66.647 4.21639 3.71721 0
M  V30 666 H 58.798 2.06731 0.487453 0
M  V30 667 H 61.061 0.906339 0.277944 0
M  V30 668 H 60.767 3.1411 1.58201 0
M  V30 669 H 60.641 2.20465 3.06064 0
M  V30 670 H 63.028 1.30277 2.64786 0
M  V30 671 H 63.109 2.27415 1.17115 0
M  V30 672 H 62.753 4.38332 2.56568 0
M  V30 673 H 62.683 3.3813 4.03702 0
M  V30 674 H 65.174 2.72201 2.62135 0
M  V30 675 H 65.487 5.98196 4.89266 0
M  V30 676 H 63.832 5.37534 4.40548 0
M  V30 677 H 67.023 3.42962 3.18582 0
M  V30 678 H 67.196 4.91604 4.22173 0
M  V30 679 N 60.6021 -1.18246 1.0419 0
M  V30 680 C 61.5651 -2.20128 0.638452 0
M  V30 681 C 62.5651 -1.57885 -0.304805 0
M  V30 682 O 63.7551 -1.73967 -0.0900369 0
M  V30 683 C 60.8871 -3.4084 -0.0637751 0
M  V30 684 H 62.0801 -2.57336 1.54007 0
M  V30 685 H 59.6331 -1.32152 0.834598 0
M  V30 686 H 60.3681 -3.09166 -0.979136 0
M  V30 687 H 60.1531 -3.8726 0.614198 0
M  V30 688 H 61.6431 -4.16274 -0.332512 0
M  V30 689 N 62.0802 -0.821533 -1.34494 0
M  V30 690 C 63.3292 -0.405355 -1.97585 0
M  V30 691 C 63.6422 1.03677 -1.65863 0
M  V30 692 O 64.8482 1.55679 -2.22433 0
M  V30 693 C 63.3042 -0.673861 -3.53535 0
M  V30 694 C 62.9122 -2.12951 -3.94152 0
M  V30 695 C 64.6562 -0.32378 -4.23263 0
M  V30 696 C 62.5632 -2.34298 -5.43009 0
M  V30 697 H 61.4932 -0.147836 -0.739365 0
M  V30 698 H 64.1442 -1.00769 -1.53355 0
M  V30 699 H 62.5262 -0.00137554 -3.96 0
M  V30 700 H 63.7002 -2.84104 -3.62797 0
M  V30 701 H 62.0152 -2.44089 -3.37356 0
M  V30 702 H 64.6122 -0.461126 -5.32708 0
M  V30 703 H 64.9552 0.731586 -4.09821 0
M  V30 704 H 65.4882 -0.950786 -3.8627 0
M  V30 705 H 62.2272 -3.38335 -5.61435 0
M  V30 706 H 61.7472 -1.67687 -5.75883 0
M  V30 707 H 63.4262 -2.16588 -6.09671 0
M  V30 708 N 63.5583 1.46682 -0.576371 0
M  V30 709 C 64.8353 1.95599 0.00703437 0
M  V30 710 C 65.2153 1.51904 1.46589 0
M  V30 711 O 64.5633 0.766755 2.15251 0
M  V30 712 C 64.7733 3.4864 -0.158404 0
M  V30 713 C 66.1213 4.24594 -0.0229439 0
M  V30 714 O 67.1453 3.56094 -0.0869173 0
M  V30 715 O 66.0043 5.46373 0.118015 0
M  V30 716 H 63.0983 0.825275 0.053384 0
M  V30 717 H 65.6443 1.56996 -0.644244 0
M  V30 718 H 64.4163 3.7331 -1.17282 0
M  V30 719 H 64.0393 3.94057 0.5296 0
M  V30 720 N 65.0364 0.313813 1.54444 0
M  V30 721 C 66.2844 -0.291099 1.99993 0
M  V30 722 C 66.6054 -1.53418 1.20366 0
M  V30 723 O 65.8754 -1.93544 0.302927 0
M  V30 724 H 64.4554 -0.110552 0.738774 0
M  V30 725 H 67.1174 0.428106 1.9014 0
M  V30 726 H 66.2134 -0.554268 3.07139 0
M  V30 727 N 66.5145 -1.57545 0.0417849 0
M  V30 728 C 67.7635 -1.91494 -0.633492 0
M  V30 729 C 68.0765 -0.921084 -1.72556 0
M  V30 730 O 69.2825 -1.15228 -2.45835 0
M  V30 731 C 67.7385 -3.40072 -1.17808 0
M  V30 732 C 67.3465 -4.47843 -0.118633 0
M  V30 733 C 69.0905 -3.8307 -1.82915 0
M  V30 734 C 66.9975 -5.87529 -0.675578 0
M  V30 735 H 65.9275 -0.714653 -0.24039 0
M  V30 736 H 68.5785 -1.83175 0.109148 0
M  V30 737 H 66.9605 -3.43364 -1.97274 0
M  V30 738 H 68.1345 -4.56128 0.654494 0
M  V30 739 H 66.4495 -4.14128 0.434414 0
M  V30 740 H 69.0465 -4.84794 -2.25563 0
M  V30 741 H 69.3895 -3.1881 -2.67705 0
M  V30 742 H 69.9225 -3.82255 -1.10119 0
M  V30 743 H 66.6615 -6.55362 0.134475 0
M  V30 744 H 66.1815 -5.82824 -1.4169 0
M  V30 745 H 67.8605 -6.36491 -1.1614 0
M  V30 746 N 67.9926 0.231505 -1.5589 0
M  V30 747 C 68.9406 1.30649 -1.92441 0
M  V30 748 C 69.9346 1.49037 -0.805254 0
M  V30 749 O 71.1406 1.50329 -0.990007 0
M  V30 750 H 67.5156 0.437812 -0.611412 0
M  V30 751 H 69.4866 0.970973 -2.82161 0
M  V30 752 C 68.2356 2.65179 -2.24889 0
M  V30 753 H 67.5586 2.51835 -3.10514 0
M  V30 754 H 68.9986 3.39234 -2.54355 0
M  V30 755 C 67.4576 3.19439 -1.07054 0
M  V30 756 O 67.9876 4.00371 -0.326499 0
M  V30 757 N 66.1936 2.77675 -0.85703 0
M  V30 758 H 65.7406 2.11969 -1.46379 0
M  V30 759 H 65.6986 3.14321 -0.0703223 0
M  V30 760 N 69.4707 1.49531 0.497807 0
M  V30 761 C 70.4027 1.62559 1.61578 0
M  V30 762 C 71.4157 0.508134 1.54667 0
M  V30 763 O 72.6047 0.780309 1.60541 0
M  V30 764 C 69.7047 1.56925 3.00379 0
M  V30 765 C 68.8777 2.84257 3.3244 0
M  V30 766 C 67.9367 2.71632 4.50669 0
M  V30 767 O 66.9627 3.4557 4.52294 0
M  V30 768 N 68.1647 1.83391 5.5077 0
M  V30 769 H 70.9297 2.58981 1.50828 0
M  V30 770 H 68.4907 1.4666 0.685743 0
M  V30 771 H 70.4827 1.46129 3.77397 0
M  V30 772 H 69.0527 0.683483 3.05037 0
M  V30 773 H 68.2727 3.09381 2.44289 0
M  V30 774 H 69.5607 3.68666 3.5066 0
M  V30 775 H 68.9587 1.22583 5.52259 0
M  V30 776 H 67.5157 1.78515 6.26878 0
M  V30 777 N 70.9488 -0.749086 1.3866 0
M  V30 778 C 72.3648 -1.05276 1.19955 0
M  V30 779 C 72.5648 -2.01435 0.05134 0
M  V30 780 O 71.6208 -2.45232 -0.60147 0
M  V30 781 C 72.9338 -1.62853 2.52783 0
M  V30 782 C 74.4818 -1.75002 2.59506 0
M  V30 783 C 74.9568 -2.35991 3.92521 0
M  V30 784 N 76.4478 -2.43416 3.94085 0
M  V30 785 C 77.1828 -2.91511 4.9377 0
M  V30 786 N 76.6788 -3.39608 6.03853 0
M  V30 787 N 78.4718 -2.90592 4.81157 0
M  V30 788 H 70.6228 -0.111066 2.12109 0
M  V30 789 H 72.8858 -0.111901 0.941373 0
M  V30 790 H 72.5918 -0.99664 3.37283 0
M  V30 791 H 72.4658 -2.61854 2.715 0
M  V30 792 H 74.8528 -2.37317 1.75398 0
M  V30 793 H 74.9338 -0.74693 2.44652 0
M  V30 794 H 74.5778 -1.74308 4.77053 0
M  V30 795 H 74.5078 -3.3695 4.04688 0
M  V30 796 H 76.9988 -2.09405 3.14576 0
M  V30 797 H 77.3118 -3.74775 6.75843 0
M  V30 798 H 75.6568 -3.37653 6.07466 0
M  V30 799 H 78.8478 -2.52332 3.94267 0
M  V30 800 H 79.0208 -3.27762 5.58996 0
M  V30 801 N 72.4269 -1.23603 -0.977757 0
M  V30 802 C 73.6519 -1.09735 -1.75991 0
M  V30 803 C 74.0769 0.346858 -1.84874 0
M  V30 804 O 73.4349 1.25093 -1.3123 0
M  V30 805 C 73.4829 -1.73051 -3.16363 0
M  V30 806 O 72.5869 -0.994452 -4.0023 0
M  V30 807 H 71.9279 -0.384476 -0.541364 0
M  V30 808 H 74.4579 -1.6371 -1.2272 0
M  V30 809 H 74.4679 -1.78398 -3.66931 0
M  V30 810 H 73.1429 -2.78137 -3.09213 0
M  V30 811 H 71.7199 -1.01812 -3.58732 0
M  V30 812 N 73.905 1.17692 -1.04816 0
M  V30 813 C 75.13 1.92327 -0.776207 0
M  V30 814 C 75.555 1.76082 0.661581 0
M  V30 815 O 74.913 1.076 1.45917 0
M  V30 816 C 74.961 3.41539 -1.15687 0
M  V30 817 O 74.065 4.11402 -0.286775 0
M  V30 818 H 73.406 0.599735 -0.284981 0
M  V30 819 H 75.936 1.49201 -1.4 0
M  V30 820 H 75.946 3.92269 -1.12202 0
M  V30 821 H 74.621 3.52684 -2.20425 0
M  V30 822 H 73.198 3.70939 -0.381903 0
M  V30 823 N 75.3831 0.828654 1.34056 0
M  V30 824 C 76.6601 0.341809 1.9259 0
M  V30 825 C 77.0401 -1.17158 1.75605 0
M  V30 826 O 76.3881 -1.98132 1.13824 0
M  V30 827 C 76.5981 0.777453 3.4023 0
M  V30 828 C 77.9461 0.779579 4.17382 0
M  V30 829 O 78.9701 0.7204 3.48839 0
M  V30 830 O 77.8291 0.857996 5.39723 0
M  V30 831 H 74.9231 0.0946085 0.821571 0
M  V30 832 H 77.4691 0.913827 1.42994 0
M  V30 833 H 76.2411 1.8196 3.46419 0
M  V30 834 H 75.8641 0.181444 3.97186 0
M  V30 835 N 76.8612 -1.46375 0.584142 0
M  V30 836 C 77.8242 -2.28784 -0.138108 0
M  V30 837 C 78.8242 -1.38471 -0.817462 0
M  V30 838 O 80.0142 -1.60833 -0.669199 0
M  V30 839 C 77.1462 -3.18892 -1.20503 0
M  V30 840 H 78.3392 -2.94117 0.586127 0
M  V30 841 H 75.8922 -1.52509 0.342171 0
M  V30 842 H 76.6272 -2.58309 -1.96079 0
M  V30 843 H 76.4122 -3.85388 -0.722384 0
M  V30 844 H 77.9022 -3.80914 -1.71155 0
M  V30 845 N 78.3393 -0.321999 -1.54275 0
M  V30 846 C 79.2873 0.560206 -2.25753 0
M  V30 847 C 80.2813 1.11984 -1.27106 0
M  V30 848 O 81.4873 1.06806 -1.44888 0
M  V30 849 H 77.8623 0.199304 -0.725108 0
M  V30 850 H 79.8333 -0.0649365 -2.98329 0
M  V30 851 C 78.5823 1.71023 -3.02731 0
M  V30 852 H 77.9053 1.28885 -3.78456 0
M  V30 853 H 79.3453 2.30314 -3.55993 0
M  V30 854 C 77.8043 2.62692 -2.10938 0
M  V30 855 O 78.3343 3.64364 -1.6912 0
M  V30 856 N 76.5403 2.30891 -1.76459 0
M  V30 857 H 76.0873 1.48253 -2.10663 0
M  V30 858 H 76.0453 2.92487 -1.1532 0
M  V30 859 N 79.8174 1.5752 -0.0501392 0
M  V30 860 C 80.7474 2.14502 0.922566 0
M  V30 861 C 81.7284 1.06642 1.3252 0
M  V30 862 O 82.9134 1.34577 1.4001 0
M  V30 863 C 80.0434 2.68916 2.19776 0
M  V30 864 C 78.9974 3.8175 1.93523 0
M  V30 865 C 78.3234 4.22677 3.27487 0
M  V30 866 C 79.6234 5.06932 1.25765 0
M  V30 867 H 81.3174 2.9603 0.447952 0
M  V30 868 H 78.8634 1.42401 0.214024 0
M  V30 869 H 80.8164 3.07419 2.88222 0
M  V30 870 H 79.5404 1.84578 2.69441 0
M  V30 871 H 78.1994 3.43718 1.27489 0
M  V30 872 H 77.8474 3.35291 3.74952 0
M  V30 873 H 77.5474 4.98725 3.1072 0
M  V30 874 H 79.0714 4.63779 3.97166 0
M  V30 875 H 80.4854 5.42888 1.84244 0
M  V30 876 H 78.8824 5.88116 1.19328 0
M  V30 877 H 79.9524 4.84337 0.233536 0
M  V30 878 N 81.2955 -0.223234 1.56011 0
M  V30 879 C 82.5255 -0.963413 1.82762 0
M  V30 880 C 82.9335 -1.78516 0.626804 0
M  V30 881 O 82.2765 -1.78974 -0.414014 0
M  V30 882 C 82.3385 -1.93126 3.0322 0
M  V30 883 C 82.0025 -1.2942 4.38291 0
M  V30 884 C 82.9995 -0.684916 5.15369 0
M  V30 885 C 80.6845 -1.30647 4.85012 0
M  V30 886 C 82.6785 -0.0963971 6.37327 0
M  V30 887 C 80.3655 -0.71411 6.06913 0
M  V30 888 C 81.3635 -0.110123 6.82911 0
M  V30 889 O 81.0515 0.47303 8.02507 0
M  V30 890 H 80.7835 -0.288011 0.611576 0
M  V30 891 H 83.3375 -0.244103 2.03944 0
M  V30 892 H 81.5675 -2.68952 2.77852 0
M  V30 893 H 83.2565 -2.53685 3.16857 0
M  V30 894 H 84.0225 -0.667774 4.80381 0
M  V30 895 H 79.9015 -1.76598 4.25833 0
M  V30 896 H 83.4455 0.375657 6.96588 0
M  V30 897 H 79.3425 -0.728659 6.41374 0
M  V30 898 H 80.1105 0.367186 8.17676 0
M  V30 899 N 82.7736 -1.49793 -0.48987 0
M  V30 900 C 84.1896 -1.36803 -0.822022 0
M  V30 901 C 84.3896 -0.409652 -1.97292 0
M  V30 902 O 83.4456 0.154614 -2.52026 0
M  V30 903 C 84.7586 -2.77768 -1.15175 0
M  V30 904 C 86.3066 -2.86549 -1.25931 0
M  V30 905 C 86.7816 -4.28306 -1.62228 0
M  V30 906 N 88.2726 -4.31169 -1.69256 0
M  V30 907 C 89.0076 -5.37832 -1.98807 0
M  V30 908 N 88.5036 -6.54726 -2.26507 0
M  V30 909 N 90.2966 -5.25258 -2.00152 0
M  V30 910 H 82.4476 -2.10691 0.268881 0
M  V30 911 H 84.7106 -0.946241 0.057728 0
M  V30 912 H 84.4166 -3.49648 -0.379335 0
M  V30 913 H 84.2906 -3.13836 -2.09253 0
M  V30 914 H 86.6776 -2.14899 -2.02243 0
M  V30 915 H 86.7586 -2.54049 -0.298776 0
M  V30 916 H 86.4026 -5.00486 -0.864622 0
M  V30 917 H 86.3326 -4.58279 -2.594 0
M  V30 918 H 88.8236 -3.4687 -1.49965 0
M  V30 919 H 89.1366 -7.31833 -2.48276 0
M  V30 920 H 87.4816 -6.57933 -2.23939 0
M  V30 921 H 90.6726 -4.32938 -1.77996 0
M  V30 922 H 90.8456 -6.08476 -2.22848 0
M  V30 923 N 84.2517 0.741722 -1.39055 0
M  V30 924 C 85.1817 1.869 -1.39966 0
M  V30 925 C 86.1627 1.6804 -0.26392 0
M  V30 926 O 87.3477 1.88458 -0.468755 0
M  V30 927 C 84.4777 3.24572 -1.23574 0
M  V30 928 C 83.4317 3.58056 -2.34477 0
M  V30 929 C 82.7577 4.94593 -2.0318 0
M  V30 930 C 84.0577 3.61716 -3.76774 0
M  V30 931 H 85.7517 1.86395 -2.34302 0
M  V30 932 H 83.2977 0.895361 -1.1278 0
M  V30 933 H 85.2507 4.031 -1.22834 0
M  V30 934 H 83.9747 3.25587 -0.257045 0
M  V30 935 H 82.6337 2.81854 -2.34423 0
M  V30 936 H 82.2817 4.92181 -1.03765 0
M  V30 937 H 81.9817 5.17964 -2.77465 0
M  V30 938 H 83.5057 5.75486 -2.04079 0
M  V30 939 H 84.9197 4.30335 -3.78794 0
M  V30 940 H 83.3167 3.96603 -4.50362 0
M  V30 941 H 84.3867 2.61672 -4.08235 0
M  V30 942 N 85.7298 1.2412 0.971189 0
M  V30 943 C 86.6598 1.05508 2.08304 0
M  V30 944 C 87.6408 -0.0308864 1.70072 0
M  V30 945 O 88.8258 0.135521 1.93727 0
M  V30 946 C 85.9558 0.655365 3.4106 0
M  V30 947 C 84.9098 1.68971 3.93234 0
M  V30 948 C 84.2358 1.14516 5.22293 0
M  V30 949 C 85.5358 3.08487 4.21465 0
M  V30 950 H 87.2298 1.98507 2.24132 0
M  V30 951 H 84.7758 0.955821 1.07704 0
M  V30 952 H 86.7288 0.51217 4.18276 0
M  V30 953 H 85.4528 -0.31032 3.25122 0
M  V30 954 H 84.1118 1.82106 3.18171 0
M  V30 955 H 83.7598 0.170189 5.02712 0
M  V30 956 H 83.4598 1.83635 5.58168 0
M  V30 957 H 84.9838 1.01401 6.02121 0
M  V30 958 H 86.3978 2.98601 4.89398 0
M  V30 959 H 84.7948 3.74926 4.68562 0
M  V30 960 H 85.8648 3.56787 3.28376 0
M  V30 961 N 87.2079 -1.17134 1.05439 0
M  V30 962 C 88.4849 -1.83411 0.679699 0
M  V30 963 C 88.8649 -1.9368 -0.839726 0
M  V30 964 O 88.2129 -1.47325 -1.74664 0
M  V30 965 C 88.4229 -3.20918 1.37159 0
M  V30 966 C 89.7709 -3.96796 1.51123 0
M  V30 967 O 90.7949 -3.30406 1.3308 0
M  V30 968 O 89.6539 -5.15778 1.80651 0
M  V30 969 H 86.7479 -0.79154 0.239569 0
M  V30 970 H 89.2939 -1.24411 1.15413 0
M  V30 971 H 88.0659 -3.08428 2.40807 0
M  V30 972 H 87.6889 -3.87587 0.886674 0
M  V30 973 N 88.686 -0.835752 -1.33615 0
M  V30 974 C 89.616 -0.281739 -2.31794 0
M  V30 975 C 90.597 0.608833 -1.58831 0
M  V30 976 O 91.782 0.533035 -1.86741 0
M  V30 977 C 88.912 0.546612 -3.42971 0
M  V30 978 C 87.866 -0.247904 -4.27281 0
M  V30 979 C 87.192 0.704001 -5.30045 0
M  V30 980 C 88.492 -1.46324 -5.01385 0
M  V30 981 H 90.186 -1.10206 -2.78379 0
M  V30 982 H 87.732 -0.531388 -1.33837 0
M  V30 983 H 89.685 0.944467 -4.1068 0
M  V30 984 H 88.409 1.40011 -2.95067 0
M  V30 985 H 87.068 -0.627281 -3.61194 0
M  V30 986 H 86.716 1.55381 -4.78399 0
M  V30 987 H 86.416 0.176524 -5.87335 0
M  V30 988 H 87.94 1.09944 -6.0062 0
M  V30 989 H 89.354 -1.13871 -5.61877 0
M  V30 990 H 87.751 -1.92728 -5.6831 0
M  V30 991 H 88.821 -2.23467 -4.30338 0
M  V30 992 N 90.1641 1.46063 -0.591896 0
M  V30 993 C 91.4411 1.95595 -0.0137119 0
M  V30 994 C 91.8211 1.5345 1.4497 0
M  V30 995 O 91.1691 0.789543 2.14426 0
M  V30 996 C 91.3791 3.48453 -0.195373 0
M  V30 997 C 92.7271 4.24546 -0.0679765 0
M  V30 998 O 93.7511 3.55982 -0.124681 0
M  V30 999 O 92.6101 5.46467 0.0600579 0
M  V30 1000 H 89.7041 0.825795 0.0446279 0
M  V30 1001 H 92.2501 1.56303 -0.660859 0
M  V30 1002 H 91.0221 3.72045 -1.21235 0
M  V30 1003 H 90.6451 3.94597 0.487775 0
M  V30 1004 N 91.6422 0.330177 1.54103 0
M  V30 1005 C 93.0532 -0.15652 1.86043 0
M  V30 1006 C 93.4042 -1.51086 1.2517 0
M  V30 1007 O 92.5292 -2.09023 0.560217 0
M  V30 1008 C 93.1242 -0.290784 3.3755 0
M  V30 1009 C 91.6832 -0.721705 3.69416 0
M  V30 1010 C 90.8302 0.152622 2.7688 0
M  V30 1011 H 93.7812 0.550237 1.48856 0
M  V30 1012 H 93.8022 -1.12058 3.63625 0
M  V30 1013 H 93.3142 0.695068 3.81825 0
M  V30 1014 H 91.4152 -1.71706 3.30678 0
M  V30 1015 H 91.5282 -0.520869 4.7626 0
M  V30 1016 H 89.8922 -0.372894 2.51956 0
M  V30 1017 H 90.6752 1.13536 3.23982 0
M  V30 1018 N 93.1203 -1.57491 0.0584922 0
M  V30 1019 C 94.5363 -1.56792 -0.298091 0
M  V30 1020 C 94.7363 -1.06679 -1.70944 0
M  V30 1021 O 93.7923 -0.726672 -2.41818 0
M  V30 1022 C 95.1053 -3.00461 -0.119879 0
M  V30 1023 C 96.6533 -3.1242 -0.190428 0
M  V30 1024 C 97.1283 -4.57982 -0.0406567 0
M  V30 1025 N 98.6193 -4.63099 -0.0966958 0
M  V30 1026 C 99.3543 -5.734 -0.00502943 0
M  V30 1027 N 98.8503 -6.9266 0.139402 0
M  V30 1028 N 100.643 -5.62067 -0.0611391 0
M  V30 1029 H 92.7943 -1.88386 0.98105 0
M  V30 1030 H 95.0573 -0.867865 0.381463 0
M  V30 1031 H 94.7633 -3.41187 0.85349 0
M  V30 1032 H 94.6373 -3.66843 -0.877833 0
M  V30 1033 H 97.0243 -2.71589 -1.15427 0
M  V30 1034 H 97.1053 -2.48702 0.598405 0
M  V30 1035 H 96.7493 -4.995 0.919897 0
M  V30 1036 H 96.6793 -5.19715 -0.848727 0
M  V30 1037 H 99.1703 -3.77331 -0.207277 0
M  V30 1038 H 99.4833 -7.72536 0.201855 0
M  V30 1039 H 97.8283 -6.94781 0.174586 0
M  V30 1040 H 101.019 -4.67782 -0.172583 0
M  V30 1041 H 101.192 -6.47999 0.0137562 0
M  V30 1042 N 94.5984 0.214957 -1.56127 0
M  V30 1043 C 96.0094 0.781386 -1.69562 0
M  V30 1044 C 96.3604 1.84707 -0.66165 0
M  V30 1045 O 95.4854 2.156 0.185927 0
M  V30 1046 C 96.0804 1.42411 -3.07416 0
M  V30 1047 C 94.6394 1.93786 -3.22683 0
M  V30 1048 C 93.7864 0.800438 -2.65496 0
M  V30 1049 H 96.7374 -0.00980633 -1.58697 0
M  V30 1050 H 96.7584 2.29309 -3.0364 0
M  V30 1051 H 96.2704 0.64826 -3.82648 0
M  V30 1052 H 94.3714 2.74152 -2.52332 0
M  V30 1053 H 94.4844 2.1133 -4.29973 0
M  V30 1054 H 92.8484 1.2095 -2.2415 0
M  V30 1055 H 93.6314 0.0371471 -3.4328 0
M  V30 1056 N 96.0765 1.50051 0.48192 0
M  V30 1057 C 97.3045 1.64237 1.25832 0
M  V30 1058 C 97.7195 0.321336 1.86045 0
M  V30 1059 O 97.0765 -0.695478 1.68729 0
M  V30 1060 C 97.1275 2.72548 2.37487 0
M  V30 1061 O 96.8485 3.99529 1.79745 0
M  V30 1062 C 98.3495 2.9761 3.28547 0
M  V30 1063 H 95.5695 0.55237 0.380957 0
M  V30 1064 H 98.1135 1.96207 0.576467 0
M  V30 1065 H 96.2685 2.43303 3.01467 0
M  V30 1066 H 96.6825 4.59342 2.5319 0
M  V30 1067 H 98.1565 3.77084 4.03127 0
M  V30 1068 H 98.6335 2.0826 3.86684 0
M  V30 1069 H 99.2395 3.28345 2.70314 0
M  V30 1070 N 97.5546 -0.734337 1.39446 0
M  V30 1071 C 98.4876 -1.85715 1.32609 0
M  V30 1072 C 99.4656 -1.6137 0.199636 0
M  V30 1073 O 100.65 -1.84626 0.380195 0
M  V30 1074 C 97.7766 -3.21709 1.05929 0
M  V30 1075 C 96.8226 -3.64913 2.20773 0
M  V30 1076 S 97.6556 -3.74203 3.83056 0
M  V30 1077 C 98.8116 -5.12986 3.58603 0
M  V30 1078 H 99.0446 -1.91232 2.27635 0
M  V30 1079 H 96.5776 -0.899263 1.25509 0
M  V30 1080 H 98.5356 -4.00236 0.912203 0
M  V30 1081 H 97.1966 -3.13848 0.125883 0
M  V30 1082 H 96.3896 -4.63606 1.97699 0
M  V30 1083 H 95.9916 -2.93593 2.31688 0
M  V30 1084 H 98.2836 -5.99339 3.15909 0
M  V30 1085 H 99.2266 -5.41088 4.5676 0
M  V30 1086 H 99.6346 -4.82694 2.9269 0
M  V30 1087 N 99.0327 -1.24633 -0.964593 0
M  V30 1088 C 100.31 -0.995809 -1.68354 0
M  V30 1089 C 100.69 0.480964 -2.05548 0
M  V30 1090 O 100.038 1.45599 -1.76105 0
M  V30 1091 C 100.248 -1.92177 -2.91323 0
M  V30 1092 C 101.596 -2.19446 -3.63495 0
M  V30 1093 O 102.62 -1.89855 -3.01386 0
M  V30 1094 O 101.479 -2.69714 -4.75307 0
M  V30 1095 H 98.5727 -0.376854 -0.736146 0
M  V30 1096 H 101.119 -1.35745 -1.0184 0
M  V30 1097 H 99.8907 -2.91938 -2.60553 0
M  V30 1098 H 99.5137 -1.56349 -3.65569 0
M  V30 1099 N 100.511 1.16574 -1.06058 0
M  V30 1100 C 101.759 1.86677 -0.77434 0
M  V30 1101 C 102.08 1.81959 0.701147 0
M  V30 1102 O 101.35 1.2515 1.50713 0
M  V30 1103 H 99.9298 0.691134 -0.283449 0
M  V30 1104 H 102.592 1.41378 -1.34158 0
M  V30 1105 H 101.688 2.92181 -1.09711 0
M  V30 1106 N 101.989 0.842826 1.3317 0
M  V30 1107 C 103.266 0.362216 1.92217 0
M  V30 1108 C 103.646 -1.15289 1.76838 0
M  V30 1109 O 102.994 -1.96914 1.15919 0
M  V30 1110 C 103.204 0.813495 3.39387 0
M  V30 1111 C 104.552 0.823804 4.16532 0
M  V30 1112 O 105.576 0.757358 3.48055 0
M  V30 1113 O 104.435 0.915193 5.38782 0
M  V30 1114 H 101.529 0.103317 0.820521 0
M  V30 1115 H 104.075 0.928942 1.42017 0
M  V30 1116 H 102.847 1.85624 3.4447 0
M  V30 1117 H 102.47 0.223561 3.96971 0
M  V30 1118 N 103.467 -1.45747 0.599634 0
M  V30 1119 C 104.878 -1.85853 0.177681 0
M  V30 1120 C 105.229 -1.50102 -1.26348 0
M  V30 1121 O 104.354 -0.923905 -1.95686 0
M  V30 1122 C 104.949 -3.37326 0.315688 0
M  V30 1123 C 103.508 -3.76365 -0.0515144 0
M  V30 1124 C 102.655 -2.69722 0.643822 0
M  V30 1125 H 105.606 -1.36661 0.806814 0
M  V30 1126 H 105.627 -3.77778 -0.454321 0
M  V30 1127 H 105.139 -3.63315 1.36468 0
M  V30 1128 H 103.24 -3.55993 -1.09999 0
M  V30 1129 H 103.353 -4.77916 0.336594 0
M  V30 1130 H 101.717 -2.54567 0.0822881 0
M  V30 1131 H 102.5 -2.98549 1.6948 0
M  V30 1132 N 104.945 -0.338344 -1.53925 0
M  V30 1133 C 106.222 0.314774 -1.93051 0
M  V30 1134 C 106.602 1.68669 -1.26941 0
M  V30 1135 O 105.95 2.24636 -0.418445 0
M  V30 1136 C 106.16 0.392249 -3.46789 0
M  V30 1137 C 107.508 0.645554 -4.19664 0
M  V30 1138 O 108.532 0.474575 -3.53024 0
M  V30 1139 O 107.391 0.976408 -5.37707 0
M  V30 1140 H 104.485 0.182598 -0.80659 0
M  V30 1141 H 107.031 -0.389141 -1.65178 0
M  V30 1142 H 105.803 -0.570702 -3.87116 0
M  V30 1143 H 105.426 1.14316 -3.80812 0
M  V30 1144 N 106.423 1.57458 -0.0668435 0
M  V30 1145 C 107.651 1.97624 0.612565 0
M  V30 1146 C 108.066 0.94502 1.63447 0
M  V30 1147 O 107.423 -0.0689276 1.8237 0
M  V30 1148 C 107.474 3.37869 1.28555 0
M  V30 1149 O 107.195 4.3704 0.304557 0
M  V30 1150 C 108.696 3.92882 2.05325 0
M  V30 1151 H 105.916 0.650045 0.166381 0
M  V30 1152 H 108.46 2.04035 -0.137782 0
M  V30 1153 H 106.615 3.3256 1.98702 0
M  V30 1154 H 107.029 5.18565 0.786779 0
M  V30 1155 H 108.503 4.93247 2.47812 0
M  V30 1156 H 108.98 3.29156 2.9078 0
M  V30 1157 H 109.586 4.01577 1.40056 0
M  V30 1158 N 107.901 -0.206675 1.56239 0
M  V30 1159 C 109.312 -0.772383 1.69974 0
M  V30 1160 C 109.663 -1.84353 0.671436 0
M  V30 1161 O 108.788 -2.15695 -0.174491 0
M  V30 1162 C 109.383 -1.40779 3.08167 0
M  V30 1163 C 107.942 -1.92072 3.23706 0
M  V30 1164 C 107.089 -0.786347 2.65917 0
M  V30 1165 H 110.04 0.0182223 1.5869 0
M  V30 1166 H 110.061 -2.27696 3.04852 0
M  V30 1167 H 109.573 -0.627958 3.82986 0
M  V30 1168 H 107.674 -2.7281 2.53782 0
M  V30 1169 H 107.787 -2.09046 4.31087 0
M  V30 1170 H 106.151 -1.1976 2.24788 0
M  V30 1171 H 106.934 -0.0189416 3.43295 0
M  V30 1172 N 109.379 -1.50304 -0.473955 0
M  V30 1173 C 110.326 -1.68959 -1.57231 0
M  V30 1174 C 111.296 -0.530899 -1.57387 0
M  V30 1175 O 112.481 -0.761133 -1.74961 0
M  V30 1176 C 109.621 -1.7871 -2.95223 0
M  V30 1177 C 108.734 -3.06061 -3.04878 0
M  V30 1178 C 107.869 -3.06626 -4.33767 0
M  V30 1179 C 106.908 -4.28443 -4.37154 0
M  V30 1180 N 106.045 -4.26763 -5.5751 0
M  V30 1181 H 110.885 -2.6273 -1.40631 0
M  V30 1182 H 108.422 -1.30241 -0.683789 0
M  V30 1183 H 110.38 -1.82344 -3.75242 0
M  V30 1184 H 109.01 -0.883806 -3.10465 0
M  V30 1185 H 108.062 -3.11911 -2.17751 0
M  V30 1186 H 109.374 -3.96039 -3.0324 0
M  V30 1187 H 108.528 -3.08973 -5.22131 0
M  V30 1188 H 107.267 -2.14473 -4.3801 0
M  V30 1189 H 106.272 -4.2631 -3.47188 0
M  V30 1190 H 107.497 -5.2182 -4.34605 0
M  V30 1191 H 105.443 -3.37462 -5.62544 0
M  V30 1192 H 105.36 -5.10507 -5.57601 0
M  V30 1193 H 106.628 -4.33253 -6.48006 0
M  V30 1194 N 110.857 0.726932 -1.39834 0
M  V30 1195 C 112.268 1.30558 -1.3346 0
M  V30 1196 C 112.619 1.962 -0.00273003 0
M  V30 1197 O 111.744 1.96826 0.899371 0
M  V30 1198 C 112.339 2.37404 -2.41713 0
M  V30 1199 C 110.898 2.90921 -2.38835 0
M  V30 1200 C 110.045 1.64578 -2.2318 0
M  V30 1201 H 112.996 0.523862 -1.49804 0
M  V30 1202 H 113.017 3.17984 -2.08966 0
M  V30 1203 H 112.529 1.89599 -3.38635 0
M  V30 1204 H 110.63 3.42985 -1.45575 0
M  V30 1205 H 110.743 3.43487 -3.33997 0
M  V30 1206 H 109.107 1.89219 -1.70494 0
M  V30 1207 H 109.89 1.18814 -3.22084 0
M  V30 1208 N 112.336 1.25143 0.95797 0
M  V30 1209 C 113.582 1.09855 1.70469 0
M  V30 1210 C 113.915 -0.360187 1.90831 0
M  V30 1211 O 113.19 -1.26568 1.47685 0
M  V30 1212 C 113.473 1.8497 3.08963 0
M  V30 1213 C 113.326 3.38652 2.96032 0
M  V30 1214 C 114.645 1.63016 4.08795 0
M  V30 1215 H 111.764 0.400465 0.618706 0
M  V30 1216 H 114.406 1.53933 1.11376 0
M  V30 1217 H 112.556 1.47505 3.59409 0
M  V30 1218 H 114.228 3.85772 2.52938 0
M  V30 1219 H 112.471 3.66534 2.32025 0
M  V30 1220 H 113.142 3.8642 3.94187 0
M  V30 1221 H 115.618 1.95625 3.67247 0
M  V30 1222 H 114.494 2.18015 5.03747 0
M  V30 1223 H 114.755 0.570692 4.38401 0
M  V30 1224 N 113.814 -1.1601 1.06675 0
M  V30 1225 C 115.039 -1.91068 0.806706 0
M  V30 1226 C 115.464 -1.77112 -0.633485 0
M  V30 1227 O 114.822 -1.09908 -1.44187 0
M  V30 1228 C 114.87 -3.39655 1.21106 0
M  V30 1229 O 113.974 -4.10893 0.352189 0
M  V30 1230 H 113.315 -0.595125 0.294486 0
M  V30 1231 H 115.845 -1.46955 1.42356 0
M  V30 1232 H 115.855 -3.90434 1.18428 0
M  V30 1233 H 114.53 -3.49132 2.26008 0
M  V30 1234 H 113.107 -3.70285 0.440868 0
M  V30 1235 N 115.292 -0.849877 -1.32721 0
M  V30 1236 C 116.539 -0.450923 -1.97416 0
M  V30 1237 C 116.867 0.992376 -1.67279 0
M  V30 1238 O 116.122 1.71048 -0.950845 0
M  V30 1239 C 116.421 -0.631272 -3.51781 0
M  V30 1240 C 116.087 -2.04432 -4.01894 0
M  V30 1241 C 114.749 -2.4308 -4.1529 0
M  V30 1242 C 117.101 -2.96679 -4.28522 0
M  V30 1243 C 114.429 -3.73257 -4.52654 0
M  V30 1244 C 116.781 -4.26349 -4.67343 0
M  V30 1245 C 115.445 -4.64939 -4.78945 0
M  V30 1246 H 114.715 -0.165004 -0.722395 0
M  V30 1247 H 117.362 -1.07901 -1.58207 0
M  V30 1248 H 115.667 0.0800767 -3.91718 0
M  V30 1249 H 117.364 -0.302709 -3.99856 0
M  V30 1250 H 113.954 -1.73419 -3.91949 0
M  V30 1251 H 118.138 -2.68054 -4.17685 0
M  V30 1252 H 113.394 -4.02946 -4.59831 0
M  V30 1253 H 117.568 -4.97895 -4.86902 0
M  V30 1254 H 115.195 -5.65855 -5.07654 0
M  V30 1255 N 116.77 1.45427 -0.607355 0
M  V30 1256 C 117.998 2.06614 -0.108814 0
M  V30 1257 C 118.413 1.45204 1.2067 0
M  V30 1258 O 117.77 0.566132 1.73497 0
M  V30 1259 C 117.821 3.61481 0.0375347 0
M  V30 1260 O 117.542 4.20598 -1.22593 0
M  V30 1261 C 119.043 4.39652 0.567561 0
M  V30 1262 H 116.263 0.66747 -0.0687351 0
M  V30 1263 H 118.807 1.86675 -0.835022 0
M  V30 1264 H 116.962 3.80762 0.714068 0
M  V30 1265 H 117.376 5.1377 -1.05547 0
M  V30 1266 H 118.85 5.48518 0.61905 0
M  V30 1267 H 119.327 4.09417 1.58978 0
M  V30 1268 H 119.933 4.25234 -0.0749202 0
M  V30 1269 N 118.248 0.346503 1.53744 0
M  V30 1270 C 119.494 -0.249473 2.0126 0
M  V30 1271 C 119.827 -1.49965 1.23386 0
M  V30 1272 O 119.102 -1.91811 0.32229 0
M  V30 1273 C 119.385 -0.560643 3.55709 0
M  V30 1274 C 119.238 0.701836 4.44291 0
M  V30 1275 C 120.557 -1.36905 4.18264 0
M  V30 1276 H 117.676 -0.0891987 0.731582 0
M  V30 1277 H 120.318 0.467624 1.84156 0
M  V30 1278 H 118.468 -1.17156 3.70414 0
M  V30 1279 H 120.14 1.33974 4.41417 0
M  V30 1280 H 118.383 1.32612 4.13033 0
M  V30 1281 H 119.054 0.43933 5.50249 0
M  V30 1282 H 121.53 -0.852448 4.07275 0
M  V30 1283 H 120.406 -1.55553 5.26398 0
M  V30 1284 H 120.667 -2.37203 3.73078 0
M  V30 1285 N 119.726 -1.57421 0.075193 0
M  V30 1286 C 120.673 -2.12915 -0.890843 0
M  V30 1287 C 121.643 -1.04252 -1.29309 0
M  V30 1288 O 122.828 -1.31933 -1.37834 0
M  V30 1289 C 119.968 -2.69795 -2.15186 0
M  V30 1290 C 119.081 -3.92624 -1.80194 0
M  V30 1291 C 118.216 -4.37736 -3.00933 0
M  V30 1292 C 117.255 -5.53205 -2.61974 0
M  V30 1293 N 116.392 -5.9326 -3.75483 0
M  V30 1294 H 121.232 -2.95156 -0.410735 0
M  V30 1295 H 118.769 -1.45854 -0.191086 0
M  V30 1296 H 120.727 -3.00883 -2.89008 0
M  V30 1297 H 119.357 -1.90313 -2.60731 0
M  V30 1298 H 118.409 -3.67977 -0.964218 0
M  V30 1299 H 119.721 -4.76482 -1.47534 0
M  V30 1300 H 118.875 -4.70503 -3.8303 0
M  V30 1301 H 117.614 -3.52739 -3.36789 0
M  V30 1302 H 116.619 -5.20086 -1.783 0
M  V30 1303 H 117.844 -6.39936 -2.27284 0
M  V30 1304 H 115.79 -5.11212 -4.11094 0
M  V30 1305 H 115.707 -6.71865 -3.46602 0
M  V30 1306 H 116.975 -6.30651 -4.58148 0
M  V30 1307 N 121.204 0.198386 -1.56346 0
M  V30 1308 C 122.114 1.2664 -1.97483 0
M  V30 1309 C 123.13 1.49989 -0.882002 0
M  V30 1310 O 124.306 1.62668 -1.18748 0
M  V30 1311 C 121.371 2.59141 -2.30319 0
M  V30 1312 C 120.432 2.43892 -3.53292 0
M  V30 1313 C 119.665 3.70074 -3.84553 0
M  V30 1314 O 119.888 4.74101 -3.1715 0
M  V30 1315 O 118.822 3.658 -4.7799 0
M  V30 1316 H 122.648 0.947304 -2.88548 0
M  V30 1317 H 120.233 0.403123 -1.43859 0
M  V30 1318 H 122.115 3.37352 -2.5253 0
M  V30 1319 H 120.79 2.90684 -1.42423 0
M  V30 1320 H 119.697 1.63803 -3.36332 0
M  V30 1321 H 121.03 2.17282 -4.41644 0
M  V30 1322 N 122.682 1.50554 0.465978 0
M  V30 1323 C 123.91 1.65563 1.24083 0
M  V30 1324 C 124.325 0.341051 1.85694 0
M  V30 1325 O 123.682 -0.677543 1.69457 0
M  V30 1326 C 123.733 2.75051 2.34583 0
M  V30 1327 O 123.454 4.01413 1.75497 0
M  V30 1328 C 124.955 3.01078 3.25372 0
M  V30 1329 H 122.175 0.55638 0.375077 0
M  V30 1330 H 124.719 1.96807 0.555624 0
M  V30 1331 H 122.874 2.46486 2.9887 0
M  V30 1332 H 123.288 4.62002 2.48303 0
M  V30 1333 H 124.762 3.81339 3.99105 0
M  V30 1334 H 125.239 2.12349 3.84453 0
M  V30 1335 H 125.845 3.31194 2.66816 0
M  V30 1336 N 124.16 -0.719506 1.40217 0
M  V30 1337 C 125.406 -1.48152 1.38488 0
M  V30 1338 C 125.739 -1.94195 -0.0141867 0
M  V30 1339 O 125.014 -1.67884 -0.982096 0
M  V30 1340 C 125.297 -2.71035 2.37091 0
M  V30 1341 C 125.15 -2.30912 3.86005 0
M  V30 1342 C 126.469 -3.73182 2.33288 0
M  V30 1343 H 123.588 -0.537395 0.504357 0
M  V30 1344 H 126.23 -0.821472 1.71324 0
M  V30 1345 H 124.38 -3.27352 2.0922 0
M  V30 1346 H 126.052 -1.80107 4.24687 0
M  V30 1347 H 124.295 -1.62958 4.02029 0
M  V30 1348 H 124.966 -3.18978 4.50508 0
M  V30 1349 H 127.442 -3.26485 2.57966 0
M  V30 1350 H 126.318 -4.56806 3.04334 0
M  V30 1351 H 126.579 -4.21202 1.34317 0
M  V30 1352 N 125.638 -1.25649 -0.95132 0
M  V30 1353 C 126.878 -1.11802 -1.71113 0
M  V30 1354 C 127.242 0.334758 -1.89059 0
M  V30 1355 O 128.443 0.595121 -2.62129 0
M  V30 1356 C 126.714 -1.85512 -3.05483 0
M  V30 1357 S 128.273 -1.87597 -3.96677 0
M  V30 1358 H 125.091 -0.399552 -0.588115 0
M  V30 1359 H 127.693 -1.59222 -1.1344 0
M  V30 1360 H 126.397 -2.90299 -2.90094 0
M  V30 1361 H 125.928 -1.38493 -3.68216 0
M  V30 1362 H 127.943 -0.955389 -4.86916 0
M  V30 1363 N 127.117 1.15442 -1.07289 0
M  V30 1364 C 128.528 1.67803 -0.818475 0
M  V30 1365 C 128.879 1.8489 0.656507 0
M  V30 1366 O 128.004 1.55176 1.50829 0
M  V30 1367 C 128.599 3.04805 -1.47917 0
M  V30 1368 C 127.158 3.54245 -1.27229 0
M  V30 1369 C 126.305 2.29986 -1.54925 0
M  V30 1370 H 129.256 0.996646 -1.23502 0
M  V30 1371 H 129.277 3.69702 -0.90005 0
M  V30 1372 H 128.789 2.92336 -2.55267 0
M  V30 1373 H 126.89 3.71956 -0.21899 0
M  V30 1374 H 127.003 4.35723 -1.99203 0
M  V30 1375 H 125.367 2.35496 -0.970242 0
M  V30 1376 H 126.15 2.20105 -2.63455 0
M  V30 1377 N 128.595 0.856903 1.32268 0
M  V30 1378 C 130.011 0.547061 1.49931 0
M  V30 1379 C 130.211 -0.921781 1.7918 0
M  V30 1380 O 129.267 -1.70469 1.8627 0
M  V30 1381 C 130.58 1.43599 2.64196 0
M  V30 1382 C 132.128 1.43665 2.78081 0
M  V30 1383 C 132.603 2.31085 3.95428 0
M  V30 1384 N 134.094 2.28893 4.02694 0
M  V30 1385 C 134.829 2.93262 4.92732 0
M  V30 1386 N 134.325 3.66751 5.87763 0
M  V30 1387 N 136.118 2.82638 4.85873 0
M  V30 1388 H 128.269 1.8075 1.11549 0
M  V30 1389 H 130.532 0.772144 0.549997 0
M  V30 1390 H 130.238 2.48058 2.49319 0
M  V30 1391 H 130.112 1.12502 3.60032 0
M  V30 1392 H 132.499 0.399701 2.92381 0
M  V30 1393 H 132.58 1.7878 1.82952 0
M  V30 1394 H 132.224 3.34849 3.81888 0
M  V30 1395 H 132.154 1.93302 4.89839 0
M  V30 1396 H 134.645 1.75466 3.34694 0
M  V30 1397 H 134.958 4.13027 6.53168 0
M  V30 1398 H 133.303 3.70859 5.87783 0
M  V30 1399 H 136.494 2.24774 4.10602 0
M  V30 1400 H 136.667 3.33084 5.55841 0
M  V30 1401 N 130.073 -1.45103 0.615059 0
M  V30 1402 C 131.301 -2.06553 0.11977 0
M  V30 1403 C 131.716 -1.45842 -1.19898 0
M  V30 1404 O 131.073 -0.575325 -1.73194 0
M  V30 1405 C 131.124 -3.61495 -0.018364 0
M  V30 1406 O 130.845 -4.19942 1.24822 0
M  V30 1407 C 132.346 -4.39947 -0.544237 0
M  V30 1408 H 129.566 -0.667096 0.0722739 0
M  V30 1409 H 132.11 -1.8623 0.84491 0
M  V30 1410 H 130.265 -3.81135 -0.693865 0
M  V30 1411 H 130.679 -5.13204 1.0827 0
M  V30 1412 H 132.153 -5.48838 -0.589953 0
M  V30 1413 H 132.63 -4.10255 -1.56805 0
M  V30 1414 H 133.236 -4.25188 0.0974703 0
M  V30 1415 N 131.551 -0.354651 -1.53558 0
M  V30 1416 C 132.779 0.239515 -2.05509 0
M  V30 1417 C 133.194 1.4333 -1.2289 0
M  V30 1418 O 132.551 1.80538 -0.266899 0
M  V30 1419 C 132.602 0.643719 -3.55723 0
M  V30 1420 O 132.323 -0.502602 -4.35207 0
M  V30 1421 C 133.824 1.29743 -4.23889 0
M  V30 1422 H 131.044 0.0442697 -0.669538 0
M  V30 1423 H 133.588 -0.509856 -1.98042 0
M  V30 1424 H 131.743 1.34302 -3.63376 0
M  V30 1425 H 132.157 -0.178172 -5.24197 0
M  V30 1426 H 133.631 1.53091 -5.30346 0
M  V30 1427 H 134.108 2.25441 -3.76926 0
M  V30 1428 H 134.714 0.639865 -4.20459 0
M  V30 1429 N 133.029 1.57378 -0.0835403 0
M  V30 1430 C 133.961 2.10389 0.909338 0
M  V30 1431 C 134.974 1.03858 1.25369 0
M  V30 1432 O 136.163 1.31338 1.20882 0
M  V30 1433 C 133.263 2.55908 2.2218 0
M  V30 1434 C 132.436 3.86145 2.05453 0
M  V30 1435 C 131.495 4.17633 3.20108 0
M  V30 1436 O 130.521 4.87043 2.94581 0
M  V30 1437 N 131.723 3.72113 4.45547 0
M  V30 1438 H 134.488 2.962 0.456657 0
M  V30 1439 H 132.049 1.61579 0.101877 0
M  V30 1440 H 134.041 2.74027 2.97811 0
M  V30 1441 H 132.611 1.75171 2.58909 0
M  V30 1442 H 131.831 3.7729 1.1422 0
M  V30 1443 H 133.119 4.7137 1.91541 0
M  V30 1444 H 132.517 3.16062 4.69171 0
M  V30 1445 H 131.074 3.95409 5.18165 0
M  V30 1446 N 134.507 -0.190092 1.56449 0
M  V30 1447 C 135.439 -1.25973 1.91477 0
M  V30 1448 C 136.452 -1.41452 0.805931 0
M  V30 1449 O 137.641 -1.41789 1.08435 0
M  V30 1450 C 134.741 -2.63117 2.13594 0
M  V30 1451 C 133.914 -2.69182 3.4476 0
M  V30 1452 C 132.973 -3.87557 3.5593 0
M  V30 1453 O 131.999 -3.74427 4.28711 0
M  V30 1454 N 133.201 -5.03224 2.89388 0
M  V30 1455 H 135.966 -0.962394 2.83828 0
M  V30 1456 H 133.527 -0.379981 1.57378 0
M  V30 1457 H 135.519 -3.40742 2.1835 0
M  V30 1458 H 134.089 -2.85319 1.27719 0
M  V30 1459 H 133.309 -1.77793 3.51828 0
M  V30 1460 H 134.597 -2.70229 4.31107 0
M  V30 1461 H 133.995 -5.16791 2.30094 0
M  V30 1462 H 132.552 -5.78778 2.99764 0
M  V30 1463 N 135.985 -1.50799 -0.457987 0
M  V30 1464 C 137.21 -1.66496 -1.23668 0
M  V30 1465 C 137.635 -0.353288 -1.84752 0
M  V30 1466 O 136.993 0.684346 -1.67888 0
M  V30 1467 C 137.041 -2.76763 -2.3116 0
M  V30 1468 O 136.145 -2.38928 -3.36136 0
M  V30 1469 H 135.486 -0.555828 -0.363252 0
M  V30 1470 H 138.016 -1.9725 -0.543474 0
M  V30 1471 H 138.026 -3.00232 -2.76269 0
M  V30 1472 H 136.701 -3.71954 -1.86073 0
M  V30 1473 H 135.278 -2.25953 -2.96647 0
M  V30 1474 N 137.463 0.71206 -1.40597 0
M  V30 1475 C 138.874 1.29135 -1.34837 0
M  V30 1476 C 139.225 1.96186 -0.0235395 0
M  V30 1477 O 138.35 1.97768 0.878444 0
M  V30 1478 C 138.945 2.34827 -2.44217 0
M  V30 1479 C 137.504 2.88371 -2.41907 0
M  V30 1480 C 136.651 1.62202 -2.24913 0
M  V30 1481 H 139.602 0.507944 -1.50352 0
M  V30 1482 H 139.623 3.15749 -2.12327 0
M  V30 1483 H 139.135 1.85996 -3.40627 0
M  V30 1484 H 137.236 3.41422 -1.49204 0
M  V30 1485 H 137.349 3.39925 -3.37621 0
M  V30 1486 H 135.713 1.874 -1.72492 0
M  V30 1487 H 136.496 1.15391 -3.23326 0
M  V30 1488 N 138.941 1.26152 0.944643 0
M  V30 1489 C 139.851 1.09176 2.07648 0
M  V30 1490 C 140.867 0.0261935 1.7398 0
M  V30 1491 O 142.043 0.229208 2.00091 0
M  V30 1492 C 139.108 0.722915 3.39079 0
M  V30 1493 C 138.169 1.86752 3.86552 0
M  V30 1494 C 137.402 1.51617 5.11711 0
M  V30 1495 O 137.625 0.416331 5.68879 0
M  V30 1496 O 136.559 2.34975 5.54139 0
M  V30 1497 H 140.385 2.0412 2.24875 0
M  V30 1498 H 137.97 1.05182 1.061 0
M  V30 1499 H 139.852 0.529787 4.18056 0
M  V30 1500 H 138.527 -0.197159 3.23099 0
M  V30 1501 H 137.434 2.11558 3.08535 0
M  V30 1502 H 138.767 2.76719 4.07047 0
M  V30 1503 N 140.419 -1.14872 1.07899 0
M  V30 1504 C 141.696 -1.81928 0.71845 0
M  V30 1505 C 142.076 -1.95417 -0.798455 0
M  V30 1506 O 141.424 -1.50997 -1.715 0
M  V30 1507 C 141.634 -3.17937 1.43935 0
M  V30 1508 C 142.982 -3.93501 1.59506 0
M  V30 1509 O 144.006 -3.27509 1.40058 0
M  V30 1510 O 142.865 -5.1183 1.91551 0
M  V30 1511 H 139.959 -0.78628 0.256305 0
M  V30 1512 H 142.505 -1.21934 1.18026 0
M  V30 1513 H 141.277 -3.0325 2.47295 0
M  V30 1514 H 140.9 -3.85619 0.968687 0
M  V30 1515 N 141.898 -0.863906 -1.31812 0
M  V30 1516 C 143.138 -0.47825 -1.98726 0
M  V30 1517 C 143.502 0.950397 -1.66828 0
M  V30 1518 O 144.703 1.44109 -2.26905 0
M  V30 1519 C 142.974 -0.721134 -3.50049 0
M  V30 1520 S 144.533 -0.434432 -4.36644 0
M  V30 1521 H 141.351 -0.178773 -0.688158 0
M  V30 1522 H 143.953 -1.11862 -1.60334 0
M  V30 1523 H 142.657 -1.75981 -3.70755 0
M  V30 1524 H 142.188 -0.0675315 -3.93342 0
M  V30 1525 H 144.203 0.735786 -4.90714 0
M  V30 1526 N 143.376 1.44774 -0.622745 0
M  V30 1527 C 144.653 1.95522 -0.0551974 0
M  V30 1528 C 145.033 1.5649 1.41683 0
M  V30 1529 O 144.381 0.834848 2.12703 0
M  V30 1530 C 144.591 3.4796 -0.269242 0
M  V30 1531 C 145.939 4.24306 -0.158014 0
M  V30 1532 O 146.963 3.55637 -0.200162 0
M  V30 1533 O 145.822 5.46471 -0.0558693 0
M  V30 1534 H 142.916 0.826556 0.0271015 0
M  V30 1535 H 145.462 1.54866 -0.693864 0
M  V30 1536 H 144.234 3.6939 -1.29099 0
M  V30 1537 H 143.857 3.95543 0.403966 0
M  V30 1538 N 144.854 0.36279 1.53368 0
M  V30 1539 C 146.101 -0.227776 2.01215 0
M  V30 1540 C 146.429 -1.49003 1.25014 0
M  V30 1541 O 145.684 -1.92876 0.331236 0
M  V30 1542 C 145.983 -0.568417 3.52851 0
M  V30 1543 C 145.649 0.59918 4.46901 0
M  V30 1544 C 144.311 0.919559 4.72332 0
M  V30 1545 C 146.663 1.38156 5.02556 0
M  V30 1546 C 143.991 2.02434 5.5067 0
M  V30 1547 C 146.343 2.47674 5.821 0
M  V30 1548 C 145.007 2.8025 6.05819 0
M  V30 1549 H 144.277 -0.083349 0.736297 0
M  V30 1550 H 146.924 0.494677 1.85001 0
M  V30 1551 H 145.229 -1.37185 3.66998 0
M  V30 1552 H 146.926 -1.03756 3.87344 0
M  V30 1553 H 143.516 0.339437 4.27254 0
M  V30 1554 H 147.7 1.14729 4.82857 0
M  V30 1555 H 142.956 2.28075 5.67267 0
M  V30 1556 H 147.13 3.08716 6.24234 0
M  V30 1557 H 144.757 3.65979 6.66306 0
M  V30 1558 N 146.332 -1.57332 0.0918853 0
M  V30 1559 C 147.279 -2.13847 -0.868211 0
M  V30 1560 C 148.249 -1.05618 -1.28196 0
M  V30 1561 O 149.434 -1.33387 -1.36427 0
M  V30 1562 C 146.574 -2.72062 -2.12312 0
M  V30 1563 C 145.687 -3.94514 -1.7602 0
M  V30 1564 C 144.822 -4.40903 -2.96273 0
M  V30 1565 C 143.861 -5.55953 -2.56092 0
M  V30 1566 N 142.998 -5.97209 -3.69169 0
M  V30 1567 H 147.838 -2.95575 -0.379406 0
M  V30 1568 H 145.375 -1.46048 -0.175606 0
M  V30 1569 H 147.333 -3.03931 -2.858 0
M  V30 1570 H 145.963 -1.93068 -2.58698 0
M  V30 1571 H 145.015 -3.68979 -0.925135 0
M  V30 1572 H 146.327 -4.7802 -1.42472 0
M  V30 1573 H 145.481 -4.74539 -3.78018 0
M  V30 1574 H 144.22 -3.56291 -3.33029 0
M  V30 1575 H 143.225 -5.21948 -1.72773 0
M  V30 1576 H 144.45 -6.42311 -2.20484 0
M  V30 1577 H 142.396 -5.15543 -4.05649 0
M  V30 1578 H 142.313 -6.75504 -3.39456 0
M  V30 1579 H 143.581 -6.35475 -4.51434 0
M  V30 1580 N 147.81 0.181792 -1.56548 0
M  V30 1581 C 148.757 1.22521 -1.95595 0
M  V30 1582 C 149.727 1.4454 -0.818373 0
M  V30 1583 O 150.912 1.57454 -1.07763 0
M  V30 1584 C 148.052 2.56193 -2.31212 0
M  V30 1585 C 147.165 2.41641 -3.58097 0
M  V30 1586 C 146.3 3.68108 -3.82975 0
M  V30 1587 C 145.339 3.48445 -5.03242 0
M  V30 1588 N 144.476 4.66956 -5.24306 0
M  V30 1589 H 149.316 0.885226 -2.84548 0
M  V30 1590 H 146.853 0.425718 -1.40805 0
M  V30 1591 H 148.811 3.34088 -2.49882 0
M  V30 1592 H 147.441 2.88208 -1.45382 0
M  V30 1593 H 146.493 1.54976 -3.474 0
M  V30 1594 H 147.805 2.23052 -4.46149 0
M  V30 1595 H 146.959 4.54441 -4.01956 0
M  V30 1596 H 145.698 3.89666 -2.93278 0
M  V30 1597 H 144.703 2.60499 -4.8417 0
M  V30 1598 H 145.928 3.2832 -5.9446 0
M  V30 1599 H 143.874 4.88752 -4.37559 0
M  V30 1600 H 143.791 4.51242 -6.06561 0
M  V30 1601 H 145.059 5.54602 -5.47756 0
M  V30 1602 N 149.288 1.51039 0.449983 0
M  V30 1603 C 150.565 1.53612 1.21089 0
M  V30 1604 C 150.945 0.292997 2.09057 0
M  V30 1605 O 150.293 -0.72259 2.16774 0
M  V30 1606 C 150.503 2.84337 2.0237 0
M  V30 1607 C 151.851 3.35807 2.59843 0
M  V30 1608 O 152.875 2.85802 2.12593 0
M  V30 1609 O 151.734 4.23029 3.45989 0
M  V30 1610 H 148.828 0.617057 0.550608 0
M  V30 1611 H 151.374 1.63344 0.460082 0
M  V30 1612 H 150.146 3.66278 1.37681 0
M  V30 1613 H 149.769 2.77708 2.84542 0
M  V30 1614 N 150.766 -0.704594 1.40972 0
M  V30 1615 C 152.014 -1.46169 1.39568 0
M  V30 1616 C 152.335 -1.95 0.00253745 0
M  V30 1617 O 151.605 -1.71095 -0.954114 0
M  V30 1618 H 150.185 -0.542326 0.513704 0
M  V30 1619 H 152.847 -0.834553 1.76128 0
M  V30 1620 H 151.943 -2.32922 2.07735 0
M  V30 1621 N 152.244 -1.26651 -0.937939 0
M  V30 1622 C 153.174 -1.10993 -2.05433 0
M  V30 1623 C 154.155 -0.0142161 -1.70094 0
M  V30 1624 O 155.34 -0.186837 -1.93299 0
M  V30 1625 C 152.47 -0.745561 -3.39203 0
M  V30 1626 C 151.424 -1.79337 -3.88616 0
M  V30 1627 C 150.75 -1.28324 -5.19073 0
M  V30 1628 C 152.05 -3.19553 -4.13138 0
M  V30 1629 H 153.744 -2.0438 -2.1879 0
M  V30 1630 H 151.29 -0.984041 -1.05131 0
M  V30 1631 H 153.243 -0.622888 -4.16771 0
M  V30 1632 H 151.967 0.22401 -3.25831 0
M  V30 1633 H 150.626 -1.90477 -3.13231 0
M  V30 1634 H 150.274 -0.303414 -5.02084 0
M  V30 1635 H 149.974 -1.98369 -5.53103 0
M  V30 1636 H 151.498 -1.1733 -5.99221 0
M  V30 1637 H 152.912 -3.11471 -4.81309 0
M  V30 1638 H 151.309 -3.87218 -4.58457 0
M  V30 1639 H 152.379 -3.65368 -3.18801 0
M  V30 1640 N 153.722 1.14298 -1.08507 0
M  V30 1641 C 154.968 1.85633 -0.816581 0
M  V30 1642 C 155.301 1.82784 0.656021 0
M  V30 1643 O 154.576 1.25926 1.48233 0
M  V30 1644 C 154.859 3.34223 -1.34041 0
M  V30 1645 C 154.712 3.45639 -2.87843 0
M  V30 1646 C 156.031 4.29356 -0.9665 0
M  V30 1647 H 153.15 0.67402 -0.298104 0
M  V30 1648 H 155.792 1.34214 -1.34487 0
M  V30 1649 H 153.942 3.78144 -0.89104 0
M  V30 1650 H 155.614 3.10498 -3.41158 0
M  V30 1651 H 153.857 2.86817 -3.25451 0
M  V30 1652 H 154.528 4.50089 -3.19569 0
M  V30 1653 H 157.004 3.93457 -1.35391 0
M  V30 1654 H 155.88 5.3178 -1.3602 0
M  V30 1655 H 156.141 4.41919 0.126362 0
M  V30 1656 N 155.201 0.870884 1.31352 0
M  V30 1657 C 156.148 0.325425 2.28494 0
M  V30 1658 C 157.118 -0.576615 1.5577 0
M  V30 1659 O 158.303 -0.508059 1.83911 0
M  V30 1660 C 155.443 -0.466283 3.41935 0
M  V30 1661 C 154.556 0.463378 4.29508 0
M  V30 1662 C 153.691 -0.342544 5.30094 0
M  V30 1663 C 152.73 0.583486 6.09313 0
M  V30 1664 N 151.867 -0.186244 7.01853 0
M  V30 1665 H 156.707 1.15901 2.74538 0
M  V30 1666 H 154.244 0.58294 1.35056 0
M  V30 1667 H 156.202 -0.941085 4.06447 0
M  V30 1668 H 154.832 -1.26456 2.97 0
M  V30 1669 H 153.884 1.05663 3.65431 0
M  V30 1670 H 155.196 1.1734 4.84802 0
M  V30 1671 H 154.35 -0.879816 6.00287 0
M  V30 1672 H 153.089 -1.08585 4.75458 0
M  V30 1673 H 152.094 1.13251 5.3801 0
M  V30 1674 H 153.319 1.32566 6.66035 0
M  V30 1675 H 151.265 -0.912348 6.49625 0
M  V30 1676 H 151.182 0.464422 7.54572 0
M  V30 1677 H 152.45 -0.704716 7.76308 0
M  V30 1678 N 156.679 -1.44442 0.630414 0
M  V30 1679 C 158.095 -1.56832 0.295973 0
M  V30 1680 C 158.295 -1.61806 -1.20088 0
M  V30 1681 O 157.351 -1.5607 -1.9849 0
M  V30 1682 C 158.664 -2.84031 0.987264 0
M  V30 1683 C 160.212 -2.97742 0.96534 0
M  V30 1684 C 160.687 -4.27743 1.63708 0
M  V30 1685 N 162.178 -4.34555 1.60364 0
M  V30 1686 C 162.913 -5.33862 2.09234 0
M  V30 1687 N 162.409 -6.39578 2.66292 0
M  V30 1688 N 164.202 -5.25366 1.99867 0
M  V30 1689 H 156.353 -1.39457 1.60205 0
M  V30 1690 H 158.616 -0.668237 0.672431 0
M  V30 1691 H 158.322 -2.86338 2.04215 0
M  V30 1692 H 158.196 -3.73534 0.524588 0
M  V30 1693 H 160.583 -2.94989 -0.0810639 0
M  V30 1694 H 160.664 -2.09589 1.4665 0
M  V30 1695 H 160.308 -4.31255 2.68293 0
M  V30 1696 H 160.238 -5.14752 1.11076 0
M  V30 1697 H 162.729 -3.58772 1.18705 0
M  V30 1698 H 163.042 -7.11637 3.01317 0
M  V30 1699 H 161.387 -6.40265 2.70343 0
M  V30 1700 H 164.578 -4.41688 1.55013 0
M  V30 1701 H 164.751 -6.02606 2.38265 0
M  V30 1702 N 158.157 -0.370918 -1.53173 0
M  V30 1703 C 159.397 0.217106 -2.03244 0
M  V30 1704 C 159.761 1.45558 -1.25207 0
M  V30 1705 O 160.962 2.11957 -1.65311 0
M  V30 1706 C 159.233 0.496664 -3.53932 0
M  V30 1707 S 160.792 1.0576 -4.25864 0
M  V30 1708 H 157.61 0.0627827 -0.708223 0
M  V30 1709 H 160.212 -0.515019 -1.88594 0
M  V30 1710 H 158.916 -0.412096 -4.08326 0
M  V30 1711 H 158.447 1.25772 -3.72753 0
M  V30 1712 H 160.462 2.34145 -4.37482 0
M  V30 1713 N 159.635 1.57281 -0.100228 0
M  V30 1714 C 160.568 2.09976 0.893612 0
M  V30 1715 C 161.546 1.01155 1.27304 0
M  V30 1716 O 162.73 1.28687 1.37739 0
M  V30 1717 C 159.857 2.58098 2.19324 0
M  V30 1718 C 158.903 3.78626 1.96328 0
M  V30 1719 S 159.736 5.21959 1.19662 0
M  V30 1720 C 160.892 5.73435 2.50844 0
M  V30 1721 H 161.125 2.93946 0.44534 0
M  V30 1722 H 158.658 1.53985 0.113167 0
M  V30 1723 H 160.616 2.8648 2.94005 0
M  V30 1724 H 159.277 1.74344 2.61272 0
M  V30 1725 H 158.47 4.10382 2.92579 0
M  V30 1726 H 158.072 3.50763 1.29775 0
M  V30 1727 H 160.364 5.82015 3.46792 0
M  V30 1728 H 161.307 6.7185 2.23659 0
M  V30 1729 H 161.715 5.01395 2.59352 0
M  V30 1730 N 161.113 -0.173488 1.56642 0
M  V30 1731 C 162.361 -0.888706 1.81512 0
M  V30 1732 C 162.682 -1.82875 0.676872 0
M  V30 1733 O 161.952 -1.93536 -0.303414 0
M  V30 1734 H 160.532 -0.331164 0.669582 0
M  V30 1735 H 163.194 -0.173823 1.94123 0
M  V30 1736 H 162.29 -1.46691 2.75478 0
M  V30 1737 N 162.591 -1.51276 -0.441967 0
M  V30 1738 C 163.819 -1.67516 -1.21434 0
M  V30 1739 C 164.234 -0.37055 -1.85128 0
M  V30 1740 O 163.591 0.650498 -1.70513 0
M  V30 1741 C 163.642 -2.78748 -2.30177 0
M  V30 1742 O 163.363 -4.04154 -1.69089 0
M  V30 1743 C 164.864 -3.06217 -3.20541 0
M  V30 1744 H 162.084 -0.562276 -0.366178 0
M  V30 1745 H 164.628 -1.97666 -0.524244 0
M  V30 1746 H 162.783 -2.5121 -2.94911 0
M  V30 1747 H 163.197 -4.65894 -2.40922 0
M  V30 1748 H 164.671 -3.8764 -3.92987 0
M  V30 1749 H 165.148 -2.18439 -3.81026 0
M  V30 1750 H 165.754 -3.35397 -2.61513 0
M  V30 1751 N 164.069 0.697108 -1.41344 0
M  V30 1752 C 165.315 1.4593 -1.40827 0
M  V30 1753 C 165.648 1.94193 -0.0167098 0
M  V30 1754 O 164.923 1.69425 0.955263 0
M  V30 1755 C 165.206 2.67229 -2.41373 0
M  V30 1756 C 165.059 2.24741 -3.8963 0
M  V30 1757 C 166.378 3.69423 -2.39196 0
M  V30 1758 H 163.497 0.529303 -0.512842 0
M  V30 1759 H 166.139 0.794112 -1.72609 0
M  V30 1760 H 164.289 3.23982 -2.14401 0
M  V30 1761 H 165.961 1.73327 -4.27499 0
M  V30 1762 H 164.204 1.56542 -4.0457 0
M  V30 1763 H 164.875 3.1177 -4.55525 0
M  V30 1764 H 167.351 3.2234 -2.63128 0
M  V30 1765 H 166.227 4.51907 -3.11563 0
M  V30 1766 H 166.488 4.19012 -1.41001 0
M  V30 1767 N 165.547 1.27147 0.931209 0
M  V30 1768 C 166.775 1.16082 1.71267 0
M  V30 1769 C 167.19 -0.282772 1.8667 0
M  V30 1770 O 166.547 -1.19283 1.38122 0
M  V30 1771 C 166.598 1.8358 3.11417 0
M  V30 1772 O 166.319 3.22299 2.96741 0
M  V30 1773 C 167.82 1.78597 4.05732 0
M  V30 1774 H 165.04 0.403758 0.535929 0
M  V30 1775 H 167.584 1.67953 1.16671 0
M  V30 1776 H 165.739 1.35623 3.62885 0
M  V30 1777 H 166.153 3.55851 3.85319 0
M  V30 1778 H 167.627 2.30444 5.01597 0
M  V30 1779 H 168.104 0.754564 4.3267 0
M  V30 1780 H 168.71 2.26152 3.60188 0
M  V30 1781 N 167.025 -1.13721 1.09112 0
M  V30 1782 C 167.955 -2.21148 0.749385 0
M  V30 1783 C 168.936 -1.6792 -0.271475 0
M  V30 1784 O 170.121 -1.93693 -0.140251 0
M  V30 1785 C 167.251 -3.46905 0.165659 0
M  V30 1786 C 166.205 -4.13203 1.11567 0
M  V30 1787 C 165.531 -5.33248 0.393809 0
M  V30 1788 C 166.831 -4.60912 2.45678 0
M  V30 1789 H 168.525 -2.4999 1.64758 0
M  V30 1790 H 166.071 -1.20156 0.793626 0
M  V30 1791 H 168.024 -4.21313 -0.085466 0
M  V30 1792 H 166.748 -3.17449 -0.767714 0
M  V30 1793 H 165.407 -3.40758 1.35202 0
M  V30 1794 H 165.055 -5.00054 -0.543599 0
M  V30 1795 H 164.755 -5.78552 1.02721 0
M  V30 1796 H 166.279 -6.10413 0.150908 0
M  V30 1797 H 167.693 -5.26759 2.26269 0
M  V30 1798 H 166.09 -5.16944 3.04776 0
M  V30 1799 H 167.16 -3.75603 3.06677 0
M  V30 1800 N 168.503 -0.877838 -1.30888 0
M  V30 1801 C 169.451 -0.328662 -2.30266 0
M  V30 1802 C 170.445 0.560496 -1.59859 0
M  V30 1803 O 171.651 0.445722 -1.74394 0
M  V30 1804 H 168.026 -0.0876142 -0.746879 0
M  V30 1805 H 169.997 -1.18061 -2.74051 0
M  V30 1806 C 168.746 0.448071 -3.44801 0
M  V30 1807 H 168.069 -0.226859 -3.99156 0
M  V30 1808 H 169.509 0.797541 -4.16432 0
M  V30 1809 C 167.968 1.64239 -2.94155 0
M  V30 1810 O 168.498 2.74175 -2.93583 0
M  V30 1811 N 166.704 1.47716 -2.50256 0
M  V30 1812 H 166.251 0.582821 -2.5092 0
M  V30 1813 H 166.209 2.27765 -2.16727 0
M  V30 1814 N 169.982 1.44106 -0.638065 0
M  V30 1815 C 170.914 2.28976 0.101205 0
M  V30 1816 C 171.927 1.4167 0.802088 0
M  V30 1817 O 173.116 1.65755 0.662375 0
M  V30 1818 C 170.216 3.18217 1.16581 0
M  V30 1819 C 169.389 4.33978 0.546066 0
M  V30 1820 C 168.448 5.04202 1.50554 0
M  V30 1821 O 167.474 5.59986 1.01999 0
M  V30 1822 N 168.676 5.06296 2.8398 0
M  V30 1823 H 171.441 2.93064 -0.627186 0
M  V30 1824 H 169.002 1.54629 -0.479731 0
M  V30 1825 H 170.994 3.62061 1.80815 0
M  V30 1826 H 169.564 2.55833 1.79634 0
M  V30 1827 H 168.784 3.93239 -0.275046 0
M  V30 1828 H 170.072 5.08675 0.112793 0
M  V30 1829 H 169.47 4.62319 3.26002 0
M  V30 1830 H 168.027 5.53907 3.43556 0
M  V30 1831 N 171.46 0.379036 1.52974 0
M  V30 1832 C 172.423 -0.448865 2.24762 0
M  V30 1833 C 173.423 -0.998689 1.26027 0
M  V30 1834 O 174.613 -0.882313 1.50203 0
M  V30 1835 C 171.745 -1.62872 2.99476 0
M  V30 1836 H 172.938 0.179491 2.99362 0
M  V30 1837 H 170.491 0.13096 1.5575 0
M  V30 1838 H 171.226 -2.29479 2.29151 0
M  V30 1839 H 171.011 -1.24128 3.71934 0
M  V30 1840 H 172.501 -2.2151 3.5401 0
M  V30 1841 N 172.938 -1.57226 0.108567 0
M  V30 1842 C 174.354 -1.5766 -0.248058 0
M  V30 1843 C 174.554 -1.12063 -1.67464 0
M  V30 1844 O 173.61 -0.803236 -2.39383 0
M  V30 1845 C 174.923 -3.0069 -0.0242287 0
M  V30 1846 C 176.471 -3.12868 -0.0909372 0
M  V30 1847 C 176.946 -4.57879 0.105067 0
M  V30 1848 N 178.437 -4.63172 0.0506846 0
M  V30 1849 C 179.172 -5.73126 0.177396 0
M  V30 1850 N 178.668 -6.91866 0.359696 0
M  V30 1851 N 180.461 -5.61977 0.117709 0
M  V30 1852 H 172.612 -1.85169 1.04049 0
M  V30 1853 H 174.875 -0.85529 0.40888 0
M  V30 1854 H 174.581 -3.38299 0.961604 0
M  V30 1855 H 174.455 -3.6945 -0.76068 0
M  V30 1856 H 176.842 -2.75124 -1.06729 0
M  V30 1857 H 176.923 -2.46672 0.677225 0
M  V30 1858 H 176.567 -4.96321 1.07834 0
M  V30 1859 H 176.497 -5.22153 -0.682954 0
M  V30 1860 H 178.988 -3.778 -0.0871266 0
M  V30 1861 H 179.301 -7.71503 0.447529 0
M  V30 1862 H 177.646 -6.93874 0.395536 0
M  V30 1863 H 180.837 -4.68094 -0.0236741 0
M  V30 1864 H 181.01 -6.47627 0.219905 0
M  V30 1865 N 174.416 0.165178 -1.56732 0
M  V30 1866 C 175.664 0.879068 -1.8198 0
M  V30 1867 C 175.985 1.82514 -0.686561 0
M  V30 1868 O 175.255 1.93694 0.293146 0
M  V30 1869 H 173.835 0.327608 -0.671329 0
M  V30 1870 H 176.497 0.163526 -1.94213 0
M  V30 1871 H 175.593 1.45228 -2.76252 0
M  V30 1872 N 175.894 1.51508 0.433938 0
M  V30 1873 C 177.119 1.68443 1.21003 0
M  V30 1874 C 177.544 0.382636 1.84167 0
M  V30 1875 O 176.902 -0.65755 1.68956 0
M  V30 1876 C 176.95 2.80405 2.26727 0
M  V30 1877 O 176.054 2.44245 3.32292 0
M  V30 1878 H 175.395 0.561536 0.354363 0
M  V30 1879 H 177.925 1.9809 0.512024 0
M  V30 1880 H 177.935 3.0459 2.71457 0
M  V30 1881 H 176.61 3.74867 1.80132 0
M  V30 1882 H 175.187 2.30644 2.93015 0
M  V30 1883 N 177.372 -0.689602 1.41712 0
M  V30 1884 C 178.619 -1.44966 1.4139 0
M  V30 1885 C 178.947 -1.94484 0.025105 0
M  V30 1886 O 178.202 -1.70307 -0.964048 0
M  V30 1887 C 178.501 -2.67298 2.37247 0
M  V30 1888 C 178.167 -2.36405 3.83958 0
M  V30 1889 C 176.829 -2.27691 4.23923 0
M  V30 1890 C 179.181 -2.11043 4.76561 0
M  V30 1891 C 176.509 -1.91719 5.54492 0
M  V30 1892 C 178.861 -1.76578 6.07456 0
M  V30 1893 C 177.525 -1.66363 6.46436 0
M  V30 1894 H 176.795 -0.53047 0.517381 0
M  V30 1895 H 179.442 -0.787655 1.74552 0
M  V30 1896 H 177.747 -3.38461 1.9736 0
M  V30 1897 H 179.444 -3.25452 2.34269 0
M  V30 1898 H 176.034 -2.44085 3.52308 0
M  V30 1899 H 180.218 -2.16717 4.46483 0
M  V30 1900 H 175.474 -1.82367 5.83568 0
M  V30 1901 H 179.648 -1.55974 6.78708 0
M  V30 1902 H 177.275 -1.38258 7.47522 0
M  V30 1903 N 178.85 -1.27639 -0.924453 0
M  V30 1904 C 180.127 -1.04887 -1.651 0
M  V30 1905 C 180.507 0.415327 -2.06974 0
M  V30 1906 O 179.855 1.39923 -1.80648 0
M  V30 1907 C 180.065 -2.01348 -2.85061 0
M  V30 1908 C 181.413 -2.30899 -3.56329 0
M  V30 1909 O 182.437 -1.99348 -2.95193 0
M  V30 1910 O 181.296 -2.84699 -4.66485 0
M  V30 1911 H 178.39 -0.400083 -0.723784 0
M  V30 1912 H 180.936 -1.38916 -0.974703 0
M  V30 1913 H 179.708 -3.0008 -2.51133 0
M  V30 1914 H 179.331 -1.679 -3.6041 0
M  V30 1915 N 180.328 1.1314 -1.09713 0
M  V30 1916 C 181.577 1.83838 -0.829851 0
M  V30 1917 C 181.89 1.84599 0.646728 0
M  V30 1918 O 183.096 2.51218 1.02965 0
M  V30 1919 C 181.552 3.30069 -1.43466 0
M  V30 1920 C 181.16 3.37688 -2.94399 0
M  V30 1921 C 182.904 4.05788 -1.24645 0
M  V30 1922 C 180.811 4.78209 -3.47952 0
M  V30 1923 H 179.741 0.68877 -0.306777 0
M  V30 1924 H 182.392 1.27448 -1.3202 0
M  V30 1925 H 180.774 3.8628 -0.871996 0
M  V30 1926 H 181.948 2.91456 -3.56918 0
M  V30 1927 H 180.263 2.75436 -3.12289 0
M  V30 1928 H 182.86 5.09535 -1.62107 0
M  V30 1929 H 183.203 4.15878 -0.187357 0
M  V30 1930 H 183.736 3.55915 -1.77678 0
M  V30 1931 H 180.475 4.73311 -4.53495 0
M  V30 1932 H 179.995 5.24924 -2.90198 0
M  V30 1933 H 181.674 5.47133 -3.45332 0
M  V30 1934 N 181.806 0.884767 1.30421 0
M  V30 1935 C 183.031 0.517288 2.00845 0
M  V30 1936 C 183.456 -0.886779 1.65885 0
M  V30 1937 O 182.814 -1.58768 0.875354 0
M  V30 1938 C 182.862 0.698994 3.5376 0
M  V30 1939 O 181.966 -0.255208 4.1161 0
M  V30 1940 H 181.307 0.203872 0.631927 0
M  V30 1941 H 183.837 1.19225 1.66272 0
M  V30 1942 H 183.847 0.597912 4.03595 0
M  V30 1943 H 182.522 1.72271 3.78544 0
M  V30 1944 H 181.099 -0.10784 3.72744 0
M  V30 1945 N 183.284 -1.43765 0.645699 0
M  V30 1946 C 184.524 -2.03776 0.159542 0
M  V30 1947 C 184.888 -1.49792 -1.2011 0
M  V30 1948 O 186.089 -2.01398 -1.78023 0
M  V30 1949 C 184.36 -3.57036 0.161251 0
M  V30 1950 S 185.919 -4.3804 -0.258159 0
M  V30 1951 H 182.737 -0.707717 0.0682454 0
M  V30 1952 H 185.339 -1.75941 0.852352 0
M  V30 1953 H 184.043 -3.9383 1.15439 0
M  V30 1954 H 183.574 -3.89503 -0.552339 0
M  V30 1955 H 185.589 -4.7302 -1.49889 0
M  V30 1956 N 184.763 -0.387143 -1.52771 0
M  V30 1957 C 186.04 0.253197 -1.93954 0
M  V30 1958 C 186.42 1.64545 -1.32243 0
M  V30 1959 O 185.768 2.23191 -0.489699 0
M  V30 1960 C 185.978 0.281722 -3.47861 0
M  V30 1961 C 187.326 0.511715 -4.21505 0
M  V30 1962 O 188.35 0.362023 -3.54356 0
M  V30 1963 O 187.209 0.804847 -5.40541 0
M  V30 1964 H 184.303 0.156845 -0.811991 0
M  V30 1965 H 186.849 -0.441494 -1.63856 0
M  V30 1966 H 185.621 -0.693571 -3.85104 0
M  V30 1967 H 185.244 1.02142 -3.84256 0
M  V30 1968 N 186.241 1.57166 -0.116904 0
M  V30 1969 C 187.188 2.15202 0.83408 0
M  V30 1970 C 188.158 1.07644 1.26499 0
M  V30 1971 O 189.343 1.35541 1.34288 0
M  V30 1972 C 186.483 2.75405 2.07957 0
M  V30 1973 C 185.596 3.97264 1.69721 0
M  V30 1974 C 184.731 4.45561 2.89221 0
M  V30 1975 C 183.77 5.59956 2.47215 0
M  V30 1976 N 182.907 6.03006 3.59622 0
M  V30 1977 H 187.747 2.96141 0.332335 0
M  V30 1978 H 185.284 1.46309 0.152349 0
M  V30 1979 H 187.242 3.08439 2.80929 0
M  V30 1980 H 185.872 1.97159 2.55594 0
M  V30 1981 H 184.924 3.70404 0.866316 0
M  V30 1982 H 186.236 4.80226 1.34849 0
M  V30 1983 H 185.39 4.80493 3.7042 0
M  V30 1984 H 184.129 3.61544 3.27318 0
M  V30 1985 H 183.134 5.2463 1.64448 0
M  V30 1986 H 184.359 6.45738 2.10238 0
M  V30 1987 H 182.305 5.21931 3.97396 0
M  V30 1988 H 182.222 6.80819 3.28667 0
M  V30 1989 H 183.49 6.42576 4.41267 0
M  V30 1990 N 187.719 -0.156864 1.56817 0
M  V30 1991 C 188.996 -0.899244 1.73704 0
M  V30 1992 C 189.376 -1.99771 0.682254 0
M  V30 1993 O 188.724 -2.26515 -0.300522 0
M  V30 1994 C 188.934 -1.45075 3.17418 0
M  V30 1995 C 190.282 -1.91802 3.7881 0
M  V30 1996 O 191.306 -1.54838 3.20786 0
M  V30 1997 O 190.165 -2.5994 4.80722 0
M  V30 1998 H 187.259 -0.424267 0.709878 0
M  V30 1999 H 189.805 -0.143561 1.69092 0
M  V30 2000 H 188.577 -0.660846 3.85679 0
M  V30 2001 H 188.2 -2.27021 3.26416 0
M  V30 2002 N 189.197 -1.51736 -0.425897 0
M  V30 2003 C 190.145 -1.74464 -1.53834 0
M  V30 2004 C 191.139 -0.611241 -1.57988 0
M  V30 2005 O 192.345 -0.792899 -1.61596 0
M  V30 2006 H 188.72 -0.551437 -0.511293 0
M  V30 2007 H 190.691 -2.67694 -1.31843 0
M  V30 2008 C 189.44 -1.8972 -2.91379 0
M  V30 2009 H 188.763 -2.76344 -2.88919 0
M  V30 2010 H 190.203 -2.09629 -3.68553 0
M  V30 2011 C 188.662 -0.65992 -3.30374 0
M  V30 2012 O 189.192 0.180083 -4.01296 0
M  V30 2013 N 187.398 -0.500677 -2.86254 0
M  V30 2014 H 186.945 -1.18532 -2.28709 0
M  V30 2015 H 186.903 0.325903 -3.12706 0
M  V30 2016 N 190.675 0.682077 -1.42076 0
M  V30 2017 C 191.622 1.79578 -1.44984 0
M  V30 2018 C 192.592 1.6332 -0.302614 0
M  V30 2019 O 193.777 1.83978 -0.505633 0
M  V30 2020 C 190.917 3.1756 -1.35091 0
M  V30 2021 C 190.03 3.45156 -2.59791 0
M  V30 2022 C 189.165 4.72826 -2.42093 0
M  V30 2023 C 188.204 4.93433 -3.62202 0
M  V30 2024 N 187.341 6.12338 -3.43491 0
M  V30 2025 H 192.181 1.76427 -2.40161 0
M  V30 2026 H 189.718 0.861376 -1.19242 0
M  V30 2027 H 191.676 3.97287 -1.27354 0
M  V30 2028 H 190.306 3.19854 -0.435133 0
M  V30 2029 H 189.358 2.59736 -2.77923 0
M  V30 2030 H 190.67 3.5628 -3.49094 0
M  V30 2031 H 189.824 5.60631 -2.319 0
M  V30 2032 H 188.563 4.63973 -1.50268 0
M  V30 2033 H 187.568 4.04073 -3.72834 0
M  V30 2034 H 188.793 5.04136 -4.54998 0
M  V30 2035 H 186.739 6.04672 -2.54377 0
M  V30 2036 H 186.656 6.2429 -4.26377 0
M  V30 2037 H 187.924 7.02841 -3.37097 0
M  V30 2038 N 192.153 1.28127 0.917671 0
M  V30 2039 C 193.569 1.05749 1.19538 0
M  V30 2040 C 193.769 -0.202633 2.00479 0
M  V30 2041 O 192.825 -0.905382 2.3571 0
M  V30 2042 C 194.138 2.30273 1.93378 0
M  V30 2043 C 195.686 2.35412 2.06277 0
M  V30 2044 C 196.161 3.59692 2.83524 0
M  V30 2045 N 197.652 3.60309 2.91087 0
M  V30 2046 C 198.387 4.53147 3.51348 0
M  V30 2047 N 197.883 5.563 4.12919 0
M  V30 2048 N 199.676 4.40751 3.48849 0
M  V30 2049 H 191.827 2.09024 0.377184 0
M  V30 2050 H 194.09 0.919798 0.22951 0
M  V30 2051 H 193.796 3.22055 1.41328 0
M  V30 2052 H 193.67 2.36378 2.93947 0
M  V30 2053 H 196.057 1.4413 2.57508 0
M  V30 2054 H 196.138 2.33304 1.04895 0
M  V30 2055 H 195.782 4.51316 2.32973 0
M  V30 2056 H 195.712 3.59054 3.85211 0
M  V30 2057 H 198.203 2.85714 2.47338 0
M  V30 2058 H 198.516 6.2329 4.56869 0
M  V30 2059 H 196.861 5.60131 4.11435 0
M  V30 2060 H 200.052 3.59367 2.99955 0
M  V30 2061 H 200.225 5.13291 3.9552 0
M  V30 2062 N 193.631 -1.12557 1.10312 0
M  V30 2063 C 194.878 -1.84038 0.844759 0
M  V30 2064 C 195.206 -1.84026 -0.629668 0
M  V30 2065 O 194.461 -1.28026 -1.48013 0
M  V30 2066 C 194.76 -3.31462 1.33669 0
M  V30 2067 C 194.426 -3.51647 2.82232 0
M  V30 2068 C 193.088 -3.56864 3.22802 0
M  V30 2069 C 195.44 -3.58867 3.77974 0
M  V30 2070 C 192.768 -3.66844 4.57867 0
M  V30 2071 C 195.12 -3.70375 5.1284 0
M  V30 2072 C 193.784 -3.73848 5.52986 0
M  V30 2073 H 193.054 -0.673444 0.309119 0
M  V30 2074 H 195.701 -1.32824 1.37949 0
M  V30 2075 H 194.006 -3.85091 0.721949 0
M  V30 2076 H 195.703 -3.85236 1.11329 0
M  V30 2077 H 192.293 -3.48249 2.49842 0
M  V30 2078 H 196.477 -3.54107 3.47738 0
M  V30 2079 H 191.733 -3.67804 4.88396 0
M  V30 2080 H 195.907 -3.74904 5.86873 0
M  V30 2081 H 193.534 -3.81333 6.57639 0
M  V30 2082 N 195.109 -0.891671 -1.2995 0
M  V30 2083 C 196.072 -0.36828 -2.26222 0
M  V30 2084 C 197.072 0.493014 -1.53056 0
M  V30 2085 O 198.262 0.299213 -1.71611 0
M  V30 2086 C 195.394 0.47442 -3.37583 0
M  V30 2087 H 196.587 -1.21844 -2.74033 0
M  V30 2088 H 194.14 -0.669107 -1.41254 0
M  V30 2089 H 194.875 1.34489 -2.95099 0
M  V30 2090 H 194.66 -0.142615 -3.91841 0
M  V30 2091 H 196.15 0.83218 -4.09224 0
M  V30 2092 N 196.587 1.43421 -0.653314 0
M  V30 2093 C 197.517 2.33487 0.0246656 0
M  V30 2094 C 198.498 1.49475 0.811863 0
M  V30 2095 O 199.683 1.78139 0.773322 0
M  V30 2096 C 196.813 3.32841 0.99166 0
M  V30 2097 C 195.767 4.26842 0.314568 0
M  V30 2098 C 195.093 5.16236 1.39302 0
M  V30 2099 C 196.393 5.16243 -0.793095 0
M  V30 2100 H 198.087 2.90427 -0.727481 0
M  V30 2101 H 195.633 1.39649 -0.351287 0
M  V30 2102 H 197.586 3.94747 1.47487 0
M  V30 2103 H 196.31 2.74158 1.77497 0
M  V30 2104 H 194.969 3.663 -0.148199 0
M  V30 2105 H 194.617 4.53891 2.16776 0
M  V30 2106 H 194.317 5.79948 0.945223 0
M  V30 2107 H 195.841 5.81015 1.87759 0
M  V30 2108 H 197.255 5.71958 -0.392039 0
M  V30 2109 H 195.652 5.88676 -1.16536 0
M  V30 2110 H 196.722 4.55927 -1.65103 0
M  V30 2111 N 198.065 0.39524 1.52563 0
M  V30 2112 C 198.995 -0.428384 2.29537 0
M  V30 2113 C 199.976 -1.05831 1.33169 0
M  V30 2114 O 201.161 -1.06995 1.62067 0
M  V30 2115 C 198.291 -1.55274 3.10656 0
M  V30 2116 C 197.245 -1.04855 4.14957 0
M  V30 2117 C 196.571 -2.26543 4.84337 0
M  V30 2118 C 197.871 -0.112324 5.22179 0
M  V30 2119 H 199.565 0.213867 2.98635 0
M  V30 2120 H 197.111 0.104298 1.43622 0
M  V30 2121 H 199.064 -2.1358 3.63265 0
M  V30 2122 H 197.788 -2.22266 2.39302 0
M  V30 2123 H 196.447 -0.487985 3.63338 0
M  V30 2124 H 196.095 -2.92059 4.09525 0
M  V30 2125 H 195.795 -1.93466 5.54837 0
M  V30 2126 H 197.319 -2.85481 5.39753 0
M  V30 2127 H 198.733 -0.603752 5.70112 0
M  V30 2128 H 197.13 0.128968 5.99961 0
M  V30 2129 H 198.2 0.837052 4.77621 0
M  V30 2130 N 199.544 -1.57102 0.125237 0
M  V30 2131 C 200.792 -1.95021 -0.530198 0
M  V30 2132 C 201.113 -1.00982 -1.66816 0
M  V30 2133 O 200.383 -0.0672693 -1.95784 0
M  V30 2134 H 198.963 -0.720046 -0.198853 0
M  V30 2135 H 201.625 -1.93916 0.19564 0
M  V30 2136 H 200.721 -2.98211 -0.920681 0
M  V30 2137 N 201.022 0.148545 -1.56898 0
M  V30 2138 C 202.299 0.890019 -1.74178 0
M  V30 2139 C 202.679 1.99407 -0.692839 0
M  V30 2140 O 202.027 2.26671 0.288505 0
M  V30 2141 C 202.237 1.43389 -3.18183 0
M  V30 2142 C 203.585 1.89791 -3.79822 0
M  V30 2143 O 204.609 1.53134 -3.21603 0
M  V30 2144 O 203.468 2.57387 -4.82093 0
M  V30 2145 H 200.562 0.420496 -0.712118 0
M  V30 2146 H 203.108 0.134591 -1.69165 0
M  V30 2147 H 201.88 0.640383 -3.86024 0
M  V30 2148 H 201.503 2.25287 -3.27615 0
M  V30 2149 N 202.5 1.5196 0.417844 0
M  V30 2150 C 203.747 1.65591 1.16559 0
M  V30 2151 C 204.075 0.381565 1.90721 0
M  V30 2152 O 203.33 -0.635156 1.85106 0
M  V30 2153 C 203.629 2.82269 2.19223 0
M  V30 2154 C 203.295 4.20819 1.61933 0
M  V30 2155 C 201.957 4.58506 1.46033 0
M  V30 2156 C 204.309 5.07196 1.20008 0
M  V30 2157 C 201.637 5.80257 0.867113 0
M  V30 2158 C 203.989 6.29544 0.621086 0
M  V30 2159 C 202.653 6.65987 0.449144 0
M  V30 2160 H 201.923 0.605939 0.42652 0
M  V30 2161 H 204.57 1.86041 0.45397 0
M  V30 2162 H 202.875 2.56118 2.96498 0
M  V30 2163 H 204.572 2.90012 2.76936 0
M  V30 2164 H 201.162 3.91116 1.7529 0
M  V30 2165 H 205.346 4.7867 1.31105 0
M  V30 2166 H 200.602 6.07124 0.721833 0
M  V30 2167 H 204.776 6.95805 0.287798 0
M  V30 2168 H 202.403 7.60199 -0.012632 0
M  V30 2169 N 203.978 -0.674533 1.42435 0
M  V30 2170 C 205.225 -1.43459 1.42919 0
M  V30 2171 C 205.553 -1.94446 0.0457312 0
M  V30 2172 O 204.808 -1.7132 -0.94593 0
M  V30 2173 C 205.107 -2.64767 2.40069 0
M  V30 2174 C 204.773 -2.3232 3.86443 0
M  V30 2175 C 203.435 -2.23182 4.26314 0
M  V30 2176 C 205.787 -2.05977 4.78773 0
M  V30 2177 C 203.115 -1.85827 5.56494 0
M  V30 2178 C 205.467 -1.70125 6.09295 0
M  V30 2179 C 204.131 -1.59498 6.48164 0
M  V30 2180 H 203.401 -0.524952 0.522978 0
M  V30 2181 H 206.048 -0.769097 1.75377 0
M  V30 2182 H 204.353 -3.36349 2.00939 0
M  V30 2183 H 206.05 -3.22949 2.37707 0
M  V30 2184 H 202.64 -2.40334 3.54877 0
M  V30 2185 H 206.824 -2.11969 4.48757 0
M  V30 2186 H 202.08 -1.76168 5.8547 0
M  V30 2187 H 206.254 -1.48767 6.80324 0
M  V30 2188 H 203.881 -1.30322 7.48946 0
M  V30 2189 N 205.456 -1.28612 -0.910864 0
M  V30 2190 C 206.872 -1.06381 -1.18976 0
M  V30 2191 C 207.072 0.191998 -2.00583 0
M  V30 2192 O 206.128 0.892869 -2.36187 0
M  V30 2193 C 207.441 -2.31295 -1.92154 0
M  V30 2194 C 208.989 -2.36503 -2.05025 0
M  V30 2195 C 209.464 -3.61191 -2.81612 0
M  V30 2196 N 210.955 -3.61847 -2.89172 0
M  V30 2197 C 211.69 -4.55004 -3.4894 0
M  V30 2198 N 211.186 -5.58482 -4.09963 0
M  V30 2199 N 212.979 -4.42594 -3.46506 0
M  V30 2200 H 205.13 -2.09221 -0.366094 0
M  V30 2201 H 207.393 -0.921003 -0.224629 0
M  V30 2202 H 207.099 -3.228 -1.39618 0
M  V30 2203 H 206.973 -2.37934 -2.9269 0
M  V30 2204 H 209.36 -1.45494 -2.5674 0
M  V30 2205 H 209.441 -2.33857 -1.03657 0
M  V30 2206 H 209.085 -4.52545 -2.30576 0
M  V30 2207 H 209.015 -3.61092 -3.83302 0
M  V30 2208 H 211.506 -2.87022 -2.45819 0
M  V30 2209 H 211.819 -6.25704 -4.53557 0
M  V30 2210 H 210.164 -5.62305 -4.08459 0
M  V30 2211 H 213.355 -3.60953 -2.98045 0
M  V30 2212 H 213.528 -5.15381 -3.92793 0
M  V30 2213 N 206.934 1.1197 -1.10907 0
M  V30 2214 C 207.881 2.17846 -0.762345 0
M  V30 2215 C 208.851 1.63995 0.263599 0
M  V30 2216 O 210.036 1.90273 0.141773 0
M  V30 2217 C 207.176 3.44487 -0.205651 0
M  V30 2218 C 206.289 4.12369 -1.28748 0
M  V30 2219 C 205.424 5.26674 -0.691919 0
M  V30 2220 C 204.463 5.86431 -1.75399 0
M  V30 2221 N 203.6 6.92142 -1.17833 0
M  V30 2222 H 208.44 2.46851 -1.6694 0
M  V30 2223 H 205.977 1.21188 -0.833776 0
M  V30 2224 H 207.935 4.16981 0.135037 0
M  V30 2225 H 206.565 3.15884 0.664613 0
M  V30 2226 H 205.617 3.38003 -1.74522 0
M  V30 2227 H 206.929 4.52844 -2.09125 0
M  V30 2228 H 206.083 6.05953 -0.300963 0
M  V30 2229 H 204.822 4.8749 0.143232 0
M  V30 2230 H 203.827 5.05835 -2.15432 0
M  V30 2231 H 205.052 6.27685 -2.59208 0
M  V30 2232 H 202.998 6.54985 -0.364725 0
M  V30 2233 H 202.915 7.31242 -1.91887 0
M  V30 2234 H 204.183 7.75237 -0.81408 0
M  V30 2235 N 208.412 0.89855 1.29475 0
M  V30 2236 C 209.637 0.538561 2.00285 0
M  V30 2237 C 210.062 -0.869135 1.66816 0
M  V30 2238 O 209.42 -1.57831 0.892145 0
M  V30 2239 C 209.468 0.736475 3.52999 0
M  V30 2240 O 208.572 -0.211537 4.11857 0
M  V30 2241 H 207.913 0.210563 0.62973 0
M  V30 2242 H 210.443 1.20982 1.64998 0
M  V30 2243 H 210.453 0.640685 4.02938 0
M  V30 2244 H 209.128 1.76276 3.76696 0
M  V30 2245 H 207.705 -0.0682991 3.72837 0
M  V30 2246 N 209.89 -1.43072 0.660911 0
M  V30 2247 C 210.837 -2.30785 -0.0259884 0
M  V30 2248 C 211.807 -1.45184 -0.806888 0
M  V30 2249 O 212.992 -1.74041 -0.781943 0
M  V30 2250 C 210.132 -3.30861 -0.981067 0
M  V30 2251 C 209.245 -4.31558 -0.195458 0
M  V30 2252 C 208.38 -5.18712 -1.14503 0
M  V30 2253 C 207.419 -6.11097 -0.350299 0
M  V30 2254 N 206.556 -6.90849 -1.25186 0
M  V30 2255 H 211.396 -2.88975 0.727846 0
M  V30 2256 H 208.933 -1.42353 0.370682 0
M  V30 2257 H 210.891 -3.87399 -1.54849 0
M  V30 2258 H 209.521 -2.74304 -1.70169 0
M  V30 2259 H 208.573 -3.77252 0.488374 0
M  V30 2260 H 209.885 -4.9701 0.422176 0
M  V30 2261 H 209.039 -5.79914 -1.78284 0
M  V30 2262 H 207.778 -4.53404 -1.79656 0
M  V30 2263 H 206.783 -5.48976 0.300808 0
M  V30 2264 H 208.008 -6.7845 0.296941 0
M  V30 2265 H 205.954 -6.28182 -1.89005 0
M  V30 2266 H 205.871 -7.52854 -0.688971 0
M  V30 2267 H 207.139 -7.5655 -1.87757 0
M  V30 2268 N 211.368 -0.403325 -1.52352 0
M  V30 2269 C 212.278 0.432009 -2.30588 0
M  V30 2270 C 213.294 1.05884 -1.38075 0
M  V30 2271 O 214.47 1.06161 -1.71148 0
M  V30 2272 C 211.535 1.53669 -3.10784 0
M  V30 2273 C 210.596 0.933525 -4.19027 0
M  V30 2274 C 209.829 1.98557 -4.9539 0
M  V30 2275 O 210.052 3.20283 -4.71991 0
M  V30 2276 O 208.986 1.59504 -5.80381 0
M  V30 2277 H 212.812 -0.205739 -3.03002 0
M  V30 2278 H 210.397 -0.166675 -1.48467 0
M  V30 2279 H 212.279 2.17814 -3.60742 0
M  V30 2280 H 210.954 2.15915 -2.41169 0
M  V30 2281 H 209.861 0.254954 -3.7323 0
M  V30 2282 H 211.194 0.35508 -4.90918 0
M  V30 2283 N 212.846 1.57033 -0.133567 0
M  V30 2284 C 213.793 2.16074 0.811208 0
M  V30 2285 C 214.763 1.08979 1.2535 0
M  V30 2286 O 215.948 1.36958 1.32843 0
M  V30 2287 C 213.088 2.77595 2.05024 0
M  V30 2288 C 212.201 3.99042 1.65498 0
M  V30 2289 C 211.336 4.48603 2.84479 0
M  V30 2290 C 210.375 5.62547 2.41262 0
M  V30 2291 N 209.512 6.06787 3.53206 0
M  V30 2292 H 214.352 2.96477 0.300906 0
M  V30 2293 H 211.889 1.46462 0.136822 0
M  V30 2294 H 213.847 3.11402 2.77642 0
M  V30 2295 H 212.477 1.99859 2.53488 0
M  V30 2296 H 211.529 3.71302 0.826981 0
M  V30 2297 H 212.841 4.81629 1.29748 0
M  V30 2298 H 211.995 4.84395 3.65303 0
M  V30 2299 H 210.734 3.64995 3.23465 0
M  V30 2300 H 209.739 5.26345 1.58874 0
M  V30 2301 H 210.964 6.47931 2.03377 0
M  V30 2302 H 208.91 5.26117 3.91838 0
M  V30 2303 H 208.827 6.84266 3.21427 0
M  V30 2304 H 210.095 6.4722 4.34427 0
M  V30 2305 N 214.325 -0.140222 1.56975 0
M  V30 2306 C 215.574 -0.850152 1.82908 0
M  V30 2307 C 215.887 -1.82028 0.715892 0
M  V30 2308 O 217.093 -2.57485 0.861016 0
M  V30 2309 C 215.549 -1.5625 3.24213 0
M  V30 2310 C 215.157 -0.63443 4.43485 0
M  V30 2311 C 216.901 -2.25881 3.59413 0
M  V30 2312 C 214.808 -1.34879 5.75814 0
M  V30 2313 H 213.738 -0.321221 0.682153 0
M  V30 2314 H 216.389 -0.102874 1.83211 0
M  V30 2315 H 214.771 -2.35565 3.18316 0
M  V30 2316 H 215.945 0.12398 4.60633 0
M  V30 2317 H 214.26 -0.0461836 4.16374 0
M  V30 2318 H 216.857 -2.79978 4.5554 0
M  V30 2319 H 217.2 -3.02693 2.85802 0
M  V30 2320 H 217.733 -1.53477 3.67001 0
M  V30 2321 H 214.472 -0.622385 6.52539 0
M  V30 2322 H 213.992 -2.07974 5.6259 0
M  V30 2323 H 215.671 -1.88784 6.18845 0
M  V30 2324 N 215.803 -1.52179 -0.40978 0
M  V30 2325 C 217.051 -1.65878 -1.15451 0
M  V30 2326 C 217.372 -0.390771 -1.91044 0
M  V30 2327 O 216.642 0.594323 -1.86667 0
M  V30 2328 H 215.222 -0.611405 -0.429177 0
M  V30 2329 H 217.884 -1.89219 -0.467134 0
M  V30 2330 H 216.98 -2.49954 -1.86894 0
M  V30 2331 N 217.281 0.66697 -1.42791 0
M  V30 2332 C 218.228 1.7803 -1.4688 0
M  V30 2333 C 219.198 1.6299 -0.319919 0
M  V30 2334 O 220.383 1.83432 -0.525118 0
M  V30 2335 C 217.523 3.1611 -1.38451 0
M  V30 2336 C 216.636 3.42381 -2.63437 0
M  V30 2337 C 215.771 4.70232 -2.47094 0
M  V30 2338 C 214.81 4.89564 -3.67415 0
M  V30 2339 N 213.947 6.08661 -3.49966 0
M  V30 2340 H 218.787 1.7387 -2.42019 0
M  V30 2341 H 216.324 0.84868 -1.20149 0
M  V30 2342 H 218.282 3.95914 -1.31561 0
M  V30 2343 H 216.912 3.19374 -0.469033 0
M  V30 2344 H 215.964 2.56774 -2.80662 0
M  V30 2345 H 217.276 3.52557 -3.52853 0
M  V30 2346 H 216.43 5.5814 -2.37834 0
M  V30 2347 H 215.169 4.62353 -1.5518 0
M  V30 2348 H 214.174 4.00096 -3.77099 0
M  V30 2349 H 215.399 4.99282 -4.6032 0
M  V30 2350 H 213.345 6.0194 -2.60776 0
M  V30 2351 H 213.262 6.19733 -4.32975 0
M  V30 2352 H 214.53 6.99226 -3.44532 0
M  V30 2353 N 218.759 1.29093 0.90403 0
M  V30 2354 C 219.669 1.15727 2.0407 0
M  V30 2355 C 220.685 0.0815308 1.73809 0
M  V30 2356 O 221.861 0.292749 1.99261 0
M  V30 2357 C 218.926 0.830424 3.36608 0
M  V30 2358 C 217.987 1.98955 3.80415 0
M  V30 2359 C 217.22 1.6782 5.06628 0
M  V30 2360 O 217.443 0.597105 5.67266 0
M  V30 2361 O 216.377 2.52486 5.46383 0
M  V30 2362 H 220.203 2.11171 2.18267 0
M  V30 2363 H 217.788 1.08504 1.027 0
M  V30 2364 H 219.67 0.662521 4.16159 0
M  V30 2365 H 218.345 -0.0942678 3.23563 0
M  V30 2366 H 217.252 2.21267 3.01648 0
M  V30 2367 H 218.585 2.89529 3.98037 0
M  V30 2368 N 220.237 -1.11381 1.11499 0
M  V30 2369 C 221.484 -1.83132 0.864231 0
M  V30 2370 C 221.812 -1.84683 -0.610114 0
M  V30 2371 O 221.067 -1.29589 -1.46646 0
M  V30 2372 C 221.366 -3.30026 1.37177 0
M  V30 2373 C 221.032 -3.48634 2.85946 0
M  V30 2374 C 219.694 -3.53421 3.26569 0
M  V30 2375 C 222.046 -3.54837 3.81759 0
M  V30 2376 C 219.374 -3.61967 4.61733 0
M  V30 2377 C 221.726 -3.64915 5.1674 0
M  V30 2378 C 220.39 -3.67962 5.5692 0
M  V30 2379 H 219.66 -0.670127 0.316245 0
M  V30 2380 H 222.307 -1.31354 1.3935 0
M  V30 2381 H 220.612 -3.84304 0.762753 0
M  V30 2382 H 222.309 -3.84034 1.15408 0
M  V30 2383 H 218.899 -3.45579 2.53521 0
M  V30 2384 H 223.083 -3.50399 3.51474 0
M  V30 2385 H 218.339 -3.62603 4.92269 0
M  V30 2386 H 222.513 -3.68658 5.90816 0
M  V30 2387 H 220.14 -3.74336 6.61647 0
M  V30 2388 N 221.715 -0.905404 -1.28997 0
M  V30 2389 C 222.662 -0.385892 -2.27551 0
M  V30 2390 C 223.632 0.535113 -1.57244 0
M  V30 2391 O 224.817 0.459119 -1.85194 0
M  V30 2392 C 221.957 0.375461 -3.43051 0
M  V30 2393 C 221.07 -0.577092 -4.28128 0
M  V30 2394 C 220.205 0.201879 -5.30816 0
M  V30 2395 C 219.244 -0.744829 -6.07551 0
M  V30 2396 N 218.381 9.42587e-05 -7.021 0
M  V30 2397 H 223.221 -1.23139 -2.71368 0
M  V30 2398 H 220.758 -0.618542 -1.33463 0
M  V30 2399 H 222.716 0.832992 -4.088 0
M  V30 2400 H 221.346 1.18537 -3.00248 0
M  V30 2401 H 220.398 -1.15315 -3.62501 0
M  V30 2402 H 221.71 -1.30152 -4.8152 0
M  V30 2403 H 220.864 0.720351 -6.02408 0
M  V30 2404 H 219.603 0.959413 -4.7817 0
M  V30 2405 H 218.608 -1.27475 -5.34818 0
M  V30 2406 H 219.833 -1.50178 -6.62286 0
M  V30 2407 H 217.779 0.739791 -6.51815 0
M  V30 2408 H 217.696 -0.664321 -7.53076 0
M  V30 2409 H 218.964 0.498644 -7.77903 0
M  V30 2410 N 223.193 1.4272 -0.668489 0
M  V30 2411 C 224.609 1.55992 -0.33745 0
M  V30 2412 C 224.809 1.64933 1.15756 0
M  V30 2413 O 223.865 1.61278 1.94282 0
M  V30 2414 C 225.178 2.81314 -1.06222 0
M  V30 2415 C 226.726 2.95078 -1.04394 0
M  V30 2416 C 227.201 4.23252 -1.74991 0
M  V30 2417 N 228.692 4.3015 -1.71829 0
M  V30 2418 C 229.427 5.28127 -2.23315 0
M  V30 2419 N 228.923 6.32293 -2.83156 0
M  V30 2420 N 230.716 5.19882 -2.13726 0
M  V30 2421 H 222.867 1.3516 -1.63846 0
M  V30 2422 H 225.13 0.650174 -0.689912 0
M  V30 2423 H 224.836 2.80823 -2.11734 0
M  V30 2424 H 224.71 3.72012 -0.62344 0
M  V30 2425 H 227.097 2.951 0.0028244 0
M  V30 2426 H 227.178 2.05627 -1.52155 0
M  V30 2427 H 226.822 4.2399 -2.79633 0
M  V30 2428 H 226.752 5.11626 -1.24685 0
M  V30 2429 H 229.243 3.55499 -1.28175 0
M  V30 2430 H 229.556 7.03398 -3.20079 0
M  V30 2431 H 227.901 6.32873 -2.87223 0
M  V30 2432 H 231.092 4.37423 -1.66669 0
M  V30 2433 H 231.265 5.96077 -2.54158 0
M  V30 2434 N 224.671 0.411399 1.52136 0
M  V30 2435 C 225.92 -0.165009 2.01024 0
M  V30 2436 C 226.233 -1.4603 1.30133 0
M  V30 2437 O 227.439 -2.1181 1.69849 0
M  V30 2438 C 225.895 -0.344618 3.58246 0
M  V30 2439 C 225.503 0.938716 4.38055 0
M  V30 2440 C 227.247 -0.876195 4.15359 0
M  V30 2441 C 225.154 0.726172 5.86925 0
M  V30 2442 H 224.084 -0.0654407 0.751155 0
M  V30 2443 H 226.735 0.537192 1.75461 0
M  V30 2444 H 225.117 -1.10921 3.80148 0
M  V30 2445 H 226.291 1.70963 4.27912 0
M  V30 2446 H 224.606 1.39688 3.92271 0
M  V30 2447 H 227.203 -1.05128 5.24263 0
M  V30 2448 H 227.546 -1.85152 3.7286 0
M  V30 2449 H 228.079 -0.170607 3.97434 0
M  V30 2450 H 224.818 1.67312 6.33788 0
M  V30 2451 H 224.338 -0.00540283 5.998 0
M  V30 2452 H 226.017 0.369231 6.45946 0
M  V30 2453 N 226.149 -1.5696 0.141893 0
M  V30 2454 C 227.395 -1.9625 -0.511248 0
M  V30 2455 C 227.728 -1.02654 -1.64851 0
M  V30 2456 O 227.003 -0.0679676 -1.94381 0
M  V30 2457 C 227.286 -3.45285 -1.02227 0
M  V30 2458 C 227.139 -4.49658 0.113138 0
M  V30 2459 C 228.458 -3.96698 -1.90574 0
M  V30 2460 H 225.577 -0.713567 -0.184367 0
M  V30 2461 H 228.219 -1.88698 0.222087 0
M  V30 2462 H 226.369 -3.51852 -1.64719 0
M  V30 2463 H 228.041 -4.55174 0.749302 0
M  V30 2464 H 226.284 -4.26857 0.773026 0
M  V30 2465 H 226.955 -5.51258 -0.286053 0
M  V30 2466 H 229.431 -3.92578 -1.37918 0
M  V30 2467 H 228.307 -5.01453 -2.2324 0
M  V30 2468 H 228.568 -3.3875 -2.84079 0
M  V30 2469 N 227.627 0.131896 -1.57047 0
M  V30 2470 C 228.559 1.1878 -1.9602 0
M  V30 2471 C 229.572 1.38363 -0.857875 0
M  V30 2472 O 230.761 1.37666 -1.13623 0
M  V30 2473 C 227.861 2.55008 -2.23213 0
M  V30 2474 C 227.034 2.56201 -3.54513 0
M  V30 2475 C 226.093 3.7408 -3.70069 0
M  V30 2476 O 225.119 3.58258 -4.42312 0
M  V30 2477 N 226.321 4.92137 -3.07866 0
M  V30 2478 H 229.086 0.85639 -2.87204 0
M  V30 2479 H 226.647 0.321309 -1.5868 0
M  V30 2480 H 228.639 3.32404 -2.30846 0
M  V30 2481 H 227.209 2.80382 -1.3822 0
M  V30 2482 H 226.429 1.64613 -3.58185 0
M  V30 2483 H 227.717 2.54043 -4.4084 0
M  V30 2484 H 227.115 5.07895 -2.49116 0
M  V30 2485 H 225.672 5.67254 -3.21039 0
M  V30 2486 N 229.106 1.52395 0.401703 0
M  V30 2487 C 230.522 1.41363 0.740864 0
M  V30 2488 C 230.722 0.523982 1.94568 0
M  V30 2489 O 229.778 -0.00741204 2.52499 0
M  V30 2490 C 231.091 2.84011 0.987847 0
M  V30 2491 C 232.639 2.93404 1.09011 0
M  V30 2492 C 233.114 4.37036 1.3698 0
M  V30 2493 N 234.605 4.40304 1.43829 0
M  V30 2494 C 235.34 5.48508 1.67112 0
M  V30 2495 N 234.836 6.66819 1.87949 0
M  V30 2496 N 236.629 5.36034 1.69187 0
M  V30 2497 H 228.78 2.08765 -0.391262 0
M  V30 2498 H 231.043 0.941265 -0.112798 0
M  V30 2499 H 230.749 3.51265 0.174835 0
M  V30 2500 H 230.623 3.25502 1.906 0
M  V30 2501 H 233.01 2.26325 1.8937 0
M  V30 2502 H 233.091 2.55359 0.15015 0
M  V30 2503 H 232.735 5.04676 0.571353 0
M  V30 2504 H 232.665 4.72623 2.3224 0
M  V30 2505 H 235.156 3.55024 1.29486 0
M  V30 2506 H 235.469 7.45063 2.05185 0
M  V30 2507 H 233.814 6.6987 1.85199 0
M  V30 2508 H 237.005 4.42579 1.52451 0
M  V30 2509 H 237.178 6.20434 1.86993 0
M  V30 2510 N 230.584 -0.659388 1.43143 0
M  V30 2511 C 231.833 -1.41518 1.43721 0
M  V30 2512 C 232.146 -1.95499 0.0628176 0
M  V30 2513 O 233.352 -2.71446 -0.0539683 0
M  V30 2514 C 231.808 -2.5608 2.52885 0
M  V30 2515 C 231.416 -2.08733 3.96402 0
M  V30 2516 C 233.16 -3.3349 2.62649 0
M  V30 2517 C 231.067 -3.20469 4.97045 0
M  V30 2518 H 229.997 -0.531705 0.534608 0
M  V30 2519 H 232.648 -0.712343 1.69109 0
M  V30 2520 H 231.03 -3.28805 2.20688 0
M  V30 2521 H 232.204 -1.43059 4.3803 0
M  V30 2522 H 230.519 -1.44219 3.90627 0
M  V30 2523 H 233.116 -4.16734 3.35017 0
M  V30 2524 H 233.459 -3.8111 1.67513 0
M  V30 2525 H 233.992 -2.67842 2.94118 0
M  V30 2526 H 230.731 -2.77824 5.93712 0
M  V30 2527 H 230.251 -3.84874 4.60034 0
M  V30 2528 H 231.93 -3.85698 5.19467 0
M  V30 2529 N 232.062 -1.29571 -0.897171 0
M  V30 2530 C 233.009 -1.14916 -2.00158 0
M  V30 2531 C 233.979 -0.0418149 -1.66047 0
M  V30 2532 O 235.164 -0.209793 -1.89643 0
M  V30 2533 C 232.304 -0.834307 -3.34863 0
M  V30 2534 C 231.417 -2.02234 -3.8174 0
M  V30 2535 C 230.552 -1.64664 -5.05034 0
M  V30 2536 C 229.591 -2.80033 -5.44286 0
M  V30 2537 N 228.728 -2.42843 -6.58765 0
M  V30 2538 H 233.568 -2.09403 -2.12025 0
M  V30 2539 H 231.105 -1.042 -1.0383 0
M  V30 2540 H 233.063 -0.632436 -4.12379 0
M  V30 2541 H 231.693 0.0736656 -3.22716 0
M  V30 2542 H 230.745 -2.33583 -3.00238 0
M  V30 2543 H 232.057 -2.88673 -4.06779 0
M  V30 2544 H 231.211 -1.4078 -5.9014 0
M  V30 2545 H 229.95 -0.753766 -4.8184 0
M  V30 2546 H 228.955 -3.04596 -4.57713 0
M  V30 2547 H 230.18 -3.69989 -5.6946 0
M  V30 2548 H 228.126 -1.56046 -6.3717 0
M  V30 2549 H 228.043 -3.22815 -6.83613 0
M  V30 2550 H 229.311 -2.22285 -7.47134 0
M  V30 2551 N 233.54 1.10788 -1.12088 0
M  V30 2552 C 234.817 1.79136 -0.785476 0
M  V30 2553 C 235.197 1.98246 0.725377 0
M  V30 2554 O 234.545 1.57258 1.65778 0
M  V30 2555 C 234.755 3.12375 -1.55636 0
M  V30 2556 C 236.103 3.8731 -1.74001 0
M  V30 2557 O 237.127 3.22085 -1.52117 0
M  V30 2558 O 235.986 5.04369 -2.10415 0
M  V30 2559 H 233.08 0.776226 -0.285311 0
M  V30 2560 H 235.626 1.1747 -1.2247 0
M  V30 2561 H 234.398 2.93863 -2.5838 0
M  V30 2562 H 234.021 3.81758 -1.11114 0
M  V30 2563 N 235.018 0.912232 1.28515 0
M  V30 2564 C 236.265 0.544599 1.95039 0
M  V30 2565 C 236.593 -0.911435 1.71823 0
M  V30 2566 O 235.848 -1.66317 1.03137 0
M  V30 2567 C 236.147 0.798392 3.48368 0
M  V30 2568 C 235.813 2.23374 3.91682 0
M  V30 2569 C 234.475 2.62617 4.03219 0
M  V30 2570 C 236.827 3.16786 4.13879 0
M  V30 2571 C 234.155 3.94429 4.3433 0
M  V30 2572 C 236.507 4.48161 4.46469 0
M  V30 2573 C 235.171 4.8726 4.56217 0
M  V30 2574 H 234.441 0.199283 0.7137 0
M  V30 2575 H 237.088 1.15327 1.52879 0
M  V30 2576 H 235.393 0.106908 3.91654 0
M  V30 2577 H 237.09 0.493141 3.97956 0
M  V30 2578 H 233.68 1.91922 3.83228 0
M  V30 2579 H 237.864 2.87677 4.0442 0
M  V30 2580 H 233.12 4.24426 4.40082 0
M  V30 2581 H 237.294 5.20559 4.62592 0
M  V30 2582 H 234.921 5.89431 4.80078 0
M  V30 2583 N 236.496 -1.42363 0.676048 0
M  V30 2584 C 237.426 -2.33497 0.0124832 0
M  V30 2585 C 238.407 -1.50748 -0.787981 0
M  V30 2586 O 239.592 -1.79346 -0.744884 0
M  V30 2587 C 236.722 -3.34377 -0.938582 0
M  V30 2588 C 235.676 -4.27289 -0.246622 0
M  V30 2589 C 235.002 -5.18386 -1.31071 0
M  V30 2590 C 236.302 -5.14916 0.875125 0
M  V30 2591 H 237.996 -2.89233 0.773593 0
M  V30 2592 H 235.542 -1.39073 0.37346 0
M  V30 2593 H 237.495 -3.97044 -1.41188 0
M  V30 2594 H 236.219 -2.76947 -1.73113 0
M  V30 2595 H 234.878 -3.66018 0.206456 0
M  V30 2596 H 234.526 -4.57282 -2.09528 0
M  V30 2597 H 234.226 -5.81378 -0.852839 0
M  V30 2598 H 235.75 -5.83929 -1.78492 0
M  V30 2599 H 237.164 -5.71262 0.482983 0
M  V30 2600 H 235.561 -5.86747 1.25887 0
M  V30 2601 H 236.631 -4.53242 1.72335 0
M  V30 2602 N 237.974 -0.419461 -1.51915 0
M  V30 2603 C 239.39 -0.0708431 -1.59443 0
M  V30 2604 C 239.59 1.41796 -1.43164 0
M  V30 2605 O 238.646 2.18596 -1.26381 0
M  V30 2606 C 239.959 -0.574991 -2.95151 0
M  V30 2607 C 241.507 -0.533867 -3.08413 0
M  V30 2608 C 241.982 -1.01469 -4.46618 0
M  V30 2609 N 243.473 -0.971939 -4.52888 0
M  V30 2610 C 244.208 -1.31505 -5.58116 0
M  V30 2611 N 243.704 -1.73014 -6.70849 0
M  V30 2612 N 245.497 -1.23436 -5.48379 0
M  V30 2613 H 237.648 -1.38836 -1.60743 0
M  V30 2614 H 239.911 -0.570998 -0.756747 0
M  V30 2615 H 239.617 -1.61597 -3.12377 0
M  V30 2616 H 239.491 0.00979777 -3.77199 0
M  V30 2617 H 241.878 0.498086 -2.90866 0
M  V30 2618 H 241.959 -1.15484 -2.28248 0
M  V30 2619 H 241.603 -2.04502 -4.6491 0
M  V30 2620 H 241.533 -0.370433 -5.25295 0
M  V30 2621 H 244.024 -0.666893 -3.71969 0
M  V30 2622 H 244.337 -1.97479 -7.47143 0
M  V30 2623 H 242.682 -1.76926 -6.72103 0
M  V30 2624 H 245.873 -0.908869 -4.59192 0
M  V30 2625 H 246.046 -1.50506 -6.30279 0
M  V30 2626 N 239.452 1.56882 -0.150215 0
M  V30 2627 C 240.4 2.18214 0.805313 0
M  V30 2628 C 241.394 1.14006 1.25296 0
M  V30 2629 O 242.6 1.3225 1.22107 0
M  V30 2630 H 238.975 0.698762 0.277913 0
M  V30 2631 H 240.946 2.97231 0.263862 0
M  V30 2632 C 239.695 2.82065 2.03309 0
M  V30 2633 H 239.018 3.61968 1.69763 0
M  V30 2634 H 240.458 3.28477 2.68103 0
M  V30 2635 C 238.917 1.80739 2.84315 0
M  V30 2636 O 239.447 1.27983 3.80767 0
M  V30 2637 N 237.653 1.4997 2.48913 0
M  V30 2638 H 237.2 1.93062 1.70542 0
M  V30 2639 H 237.158 0.824217 3.03404 0
M  V30 2640 N 240.93 -0.123565 1.57115 0
M  V30 2641 C 241.86 -1.15309 2.03042 0
M  V30 2642 C 242.841 -1.43454 0.914061 0
M  V30 2643 O 244.026 -1.53973 1.18347 0
M  V30 2644 C 241.156 -2.48043 2.43089 0
M  V30 2645 C 240.11 -2.3437 3.58127 0
M  V30 2646 C 239.436 -3.72026 3.84059 0
M  V30 2647 C 240.736 -1.80804 4.90007 0
M  V30 2648 H 242.43 -0.771102 2.893 0
M  V30 2649 H 239.976 -0.369479 1.39179 0
M  V30 2650 H 241.929 -3.20311 2.73823 0
M  V30 2651 H 240.653 -2.88122 1.53796 0
M  V30 2652 H 239.312 -1.64551 3.27595 0
M  V30 2653 H 238.96 -4.09582 2.91979 0
M  V30 2654 H 238.66 -3.63732 4.6149 0
M  V30 2655 H 240.184 -4.45806 4.1724 0
M  V30 2656 H 241.598 -2.42886 5.19307 0
M  V30 2657 H 239.995 -1.83343 5.71407 0
M  V30 2658 H 241.065 -0.76528 4.78823 0
M  V30 2659 N 242.408 -1.52605 -0.393616 0
M  V30 2660 C 243.654 -1.67672 -1.14079 0
M  V30 2661 C 243.987 -0.413121 -1.89755 0
M  V30 2662 O 243.262 0.588952 -1.85369 0
M  V30 2663 C 243.545 -2.9088 -2.12276 0
M  V30 2664 C 243.398 -4.27329 -1.40394 0
M  V30 2665 C 244.717 -3.09628 -3.12759 0
M  V30 2666 H 241.836 -0.610168 -0.413356 0
M  V30 2667 H 244.478 -1.85193 -0.424696 0
M  V30 2668 H 242.628 -2.76073 -2.73342 0
M  V30 2669 H 244.3 -4.53894 -0.82327 0
M  V30 2670 H 242.543 -4.2802 -0.705801 0
M  V30 2671 H 243.214 -5.09615 -2.12123 0
M  V30 2672 H 245.69 -3.23436 -2.61779 0
M  V30 2673 H 244.566 -3.97322 -3.78717 0
M  V30 2674 H 244.827 -2.23637 -3.81365 0
M  V30 2675 N 243.887 0.651787 -1.4349 0
M  V30 2676 C 245.298 1.233 -1.40193 0
M  V30 2677 C 245.649 1.9591 -0.106727 0
M  V30 2678 O 244.774 2.01316 0.793773 0
M  V30 2679 C 245.369 2.24257 -2.53957 0
M  V30 2680 C 243.928 2.77852 -2.5392 0
M  V30 2681 C 243.075 1.52517 -2.3159 0
M  V30 2682 H 246.026 0.443717 -1.52371 0
M  V30 2683 H 246.047 3.0646 -2.25528 0
M  V30 2684 H 245.559 1.71382 -3.4821 0
M  V30 2685 H 243.66 3.34786 -1.63551 0
M  V30 2686 H 243.773 3.25299 -3.51735 0
M  V30 2687 H 242.137 1.79915 -1.80285 0
M  V30 2688 H 242.92 1.01574 -3.27929 0
M  V30 2689 N 245.365 1.30045 0.890287 0
M  V30 2690 C 246.781 1.08261 1.17268 0
M  V30 2691 C 246.981 -0.160063 2.00863 0
M  V30 2692 O 246.037 -0.855181 2.37577 0
M  V30 2693 C 247.35 2.34323 1.8845 0
M  V30 2694 C 248.898 2.39735 2.01237 0
M  V30 2695 C 249.373 3.65625 2.7583 0
M  V30 2696 N 250.864 3.66402 2.83379 0
M  V30 2697 C 251.599 4.60498 3.41657 0
M  V30 2698 N 251.095 5.64933 4.01026 0
M  V30 2699 N 252.888 4.48051 3.39421 0
M  V30 2700 H 245.039 2.09777 0.332762 0
M  V30 2701 H 247.302 0.92446 0.209948 0
M  V30 2702 H 247.008 3.2498 1.34465 0
M  V30 2703 H 246.882 2.4256 2.88867 0
M  V30 2704 H 249.269 1.4956 2.54393 0
M  V30 2705 H 249.35 2.35476 0.999232 0
M  V30 2706 H 248.994 4.56156 2.23347 0
M  V30 2707 H 248.924 3.67144 3.77509 0
M  V30 2708 H 251.415 2.90896 2.41222 0
M  V30 2709 H 251.728 6.32841 4.43545 0
M  V30 2710 H 250.073 5.68732 3.99461 0
M  V30 2711 H 253.264 3.65649 2.92264 0
M  V30 2712 H 253.437 5.21565 3.84544 0
M  V30 2713 N 246.843 -1.10192 1.12674 0
M  V30 2714 C 248.071 -1.85983 0.906527 0
M  V30 2715 C 248.486 -1.80783 -0.544333 0
M  V30 2716 O 247.843 -1.19834 -1.37645 0
M  V30 2717 C 247.894 -3.34281 1.37618 0
M  V30 2718 O 247.615 -3.39401 2.77017 0
M  V30 2719 C 249.116 -4.26938 1.19325 0
M  V30 2720 H 246.336 -0.587716 0.323775 0
M  V30 2721 H 248.88 -1.39284 1.49734 0
M  V30 2722 H 247.035 -3.78436 0.828539 0
M  V30 2723 H 247.449 -4.31838 2.97684 0
M  V30 2724 H 248.923 -5.29181 1.57071 0
M  V30 2725 H 249.4 -4.38995 0.134097 0
M  V30 2726 H 250.006 -3.8859 1.72852 0
M  V30 2727 N 248.321 -0.919034 -1.28029 0
M  V30 2728 C 249.231 -0.416756 -2.30869 0
M  V30 2729 C 250.247 0.498235 -1.66714 0
M  V30 2730 O 251.423 0.383144 -1.97722 0
M  V30 2731 C 248.488 0.330274 -3.45123 0
M  V30 2732 C 247.549 -0.618578 -4.2482 0
M  V30 2733 C 246.782 0.0928959 -5.33619 0
M  V30 2734 O 247.005 1.31375 -5.55065 0
M  V30 2735 O 245.939 -0.574499 -5.99152 0
M  V30 2736 H 249.765 -1.27043 -2.75851 0
M  V30 2737 H 247.35 -0.684052 -1.3282 0
M  V30 2738 H 249.232 0.751972 -4.14636 0
M  V30 2739 H 247.907 1.1597 -3.02213 0
M  V30 2740 H 246.814 -1.08978 -3.57875 0
M  V30 2741 H 248.147 -1.41497 -4.71423 0
M  V30 2742 N 249.799 1.42003 -0.683588 0
M  V30 2743 C 251.024 2.06265 -0.216647 0
M  V30 2744 C 251.449 1.51059 1.12083 0
M  V30 2745 O 250.807 0.632638 1.69904 0
M  V30 2746 C 250.855 3.60191 -0.171759 0
M  V30 2747 O 249.959 4.03396 0.857069 0
M  V30 2748 H 249.3 0.65502 -0.108834 0
M  V30 2749 H 251.83 1.81982 -0.935077 0
M  V30 2750 H 251.84 4.08 0.0014303 0
M  V30 2751 H 250.515 3.99743 -1.14796 0
M  V30 2752 H 249.092 3.67117 0.654208 0
M  V30 2753 O 251.316 0.569597 1.51122 0
M  V30 2754 H 252.007 0.0705798 1.93571 0
M  V30 END ATOM
M  V30 BEGIN BOND
M  V30 END BOND
M  V30 END CTAB
M  END
$$$$
