drugbank_target|P50225 Sulfotransferase 1A1 (DB01812; DB04417)
 OpenBabel12092119433D

  0  0  0     0  0            999 V3000
M  V30 BEGIN CTAB
M  V30 COUNTS 4783 4856 0 0 0
M  V30 BEGIN ATOM
M  V30 1 H -0.908 1.98254 -0.117106 0
M  V30 2 N 0 1.576 0 0
M  V30 3 C 0.933 2.03868 1.02534 0
M  V30 4 C 1.911 0.928543 1.3348 0
M  V30 5 O 3.095 1.19667 1.45644 0
M  V30 6 C 0.222 2.43627 2.35294 0
M  V30 7 C -0.732 3.65373 2.2001 0
M  V30 8 S 0.101 5.13292 1.52614 0
M  V30 9 C 1.257 5.56322 2.86805 0
M  V30 10 H 1.49 2.90518 0.631377 0
M  V30 11 H -0.977 1.52953 0.210867 0
M  V30 12 H 0.981 2.67203 3.11629 0
M  V30 13 H -0.358 1.57376 2.7183 0
M  V30 14 H -1.165 3.90944 3.18086 0
M  V30 15 H -1.563 3.418 1.51819 0
M  V30 16 H 0.729 5.58782 3.83104 0
M  V30 17 H 1.672 6.56266 2.65933 0
M  V30 18 H 2.08 4.83886 2.90714 0
M  V30 19 N 1.4781 -0.272755 1.55222 0
M  V30 20 C 2.3881 -1.35918 1.91216 0
M  V30 21 C 3.4041 -1.54026 0.809436 0
M  V30 22 O 4.5801 -1.68148 1.10852 0
M  V30 23 C 1.6451 -2.69834 2.17693 0
M  V30 24 C 0.7061 -2.6047 3.41253 0
M  V30 25 C -0.0609 -3.88 3.66458 0
M  V30 26 O 0.1621 -4.88693 2.94169 0
M  V30 27 O -0.9039 -3.88189 4.59992 0
M  V30 28 H 2.9221 -1.0839 2.83699 0
M  V30 29 H 0.5071 -0.471301 1.41771 0
M  V30 30 H 2.3891 -3.49017 2.36147 0
M  V30 31 H 1.0641 -2.97148 1.28392 0
M  V30 32 H -0.0289 -1.79663 3.28134 0
M  V30 33 H 1.3041 -2.38106 4.30774 0
M  V30 34 N 2.9562 -1.48159 -0.537278 0
M  V30 35 C 3.8862 -1.65029 -1.6519 0
M  V30 36 C 4.8672 -0.499281 -1.62607 0
M  V30 37 O 6.0522 -0.730972 -1.79918 0
M  V30 38 C 3.1822 -1.68303 -3.03795 0
M  V30 39 C 2.1362 -2.8283 -3.21234 0
M  V30 40 C 1.4622 -2.71189 -4.60826 0
M  V30 41 C 2.7622 -4.24211 -3.04701 0
M  V30 42 H 4.4562 -2.58341 -1.51328 0
M  V30 43 H 2.0022 -1.24325 -0.726585 0
M  V30 44 H 3.9552 -1.78693 -3.81637 0
M  V30 45 H 2.6792 -0.715635 -3.18663 0
M  V30 46 H 1.3382 -2.71983 -2.45807 0
M  V30 47 H 0.9862 -1.72435 -4.7252 0
M  V30 48 H 0.6862 -3.48035 -4.7344 0
M  V30 49 H 2.2102 -2.83537 -5.40777 0
M  V30 50 H 3.6242 -4.3593 -3.72341 0
M  V30 51 H 2.0212 -5.01998 -3.28813 0
M  V30 52 H 3.0912 -4.41184 -2.01209 0
M  V30 53 N 4.4343 0.785586 -1.36625 0
M  V30 54 C 5.6833 1.53883 -1.30396 0
M  V30 55 C 5.9963 1.95271 0.113452 0
M  V30 56 O 7.2023 2.69858 0.298142 0
M  V30 57 C 5.6583 2.77808 -2.28802 0
M  V30 58 C 5.2663 2.43574 -3.75999 0
M  V30 59 C 7.0103 3.55783 -2.31558 0
M  V30 60 C 4.9173 3.63919 -4.66173 0
M  V30 61 H 3.8473 0.577678 -0.484566 0
M  V30 62 H 6.4983 0.861705 -1.62009 0
M  V30 63 H 4.8803 3.47339 -1.90188 0
M  V30 64 H 6.0543 1.81916 -4.23371 0
M  V30 65 H 4.3693 1.78803 -3.76056 0
M  V30 66 H 6.9663 4.45205 -2.96137 0
M  V30 67 H 7.3093 3.94644 -1.3252 0
M  V30 68 H 7.8423 2.93235 -2.68809 0
M  V30 69 H 4.5813 3.3015 -5.66287 0
M  V30 70 H 4.1013 4.2473 -4.23515 0
M  V30 71 H 5.7803 4.30901 -4.82632 0
M  V30 72 N 5.9124 1.20967 1.01018 0
M  V30 73 C 6.8444 0.922059 2.09835 0
M  V30 74 C 7.8574 -0.0927106 1.62536 0
M  V30 75 O 9.0464 0.139127 1.77957 0
M  V30 76 C 6.1464 0.362004 3.36961 0
M  V30 77 C 5.3194 1.42986 4.13369 0
M  V30 78 C 4.3784 0.879976 5.1879 0
M  V30 79 O 3.4044 1.56219 5.47343 0
M  V30 80 N 4.6064 -0.307396 5.79686 0
M  V30 81 H 7.3714 1.8588 2.35093 0
M  V30 82 H 4.9324 1.11422 1.1746 0
M  V30 83 H 6.9244 -0.0201474 4.04695 0
M  V30 84 H 5.4944 -0.479437 3.08902 0
M  V30 85 H 4.7144 1.98608 3.40512 0
M  V30 86 H 6.0024 2.14885 4.61196 0
M  V30 87 H 5.4004 -0.878796 5.58832 0
M  V30 88 H 3.9574 -0.631115 6.48737 0
M  V30 89 N 7.3905 -1.2043 1.01659 0
M  V30 90 C 8.6675 -1.8548 0.621004 0
M  V30 91 C 9.0475 -1.9091 -0.900919 0
M  V30 92 O 8.3955 -1.41694 -1.79263 0
M  V30 93 C 8.6055 -3.25119 1.2688 0
M  V30 94 C 9.9535 -4.01403 1.38423 0
M  V30 95 O 10.9775 -3.34473 1.22501 0
M  V30 96 O 9.8365 -5.21265 1.64151 0
M  V30 97 H 6.9305 -0.798761 0.214266 0
M  V30 98 H 9.4765 -1.28019 1.11396 0
M  V30 99 H 8.2485 -3.15932 2.30873 0
M  V30 100 H 7.8715 -3.90212 0.762917 0
M  V30 101 N 8.8686 -0.792821 -1.36206 0
M  V30 102 C 10.0966 -0.378825 -2.03402 0
M  V30 103 C 10.5116 1.00586 -1.59774 0
M  V30 104 O 9.8686 1.64574 -0.788764 0
M  V30 105 C 9.9196 -0.43683 -3.58851 0
M  V30 106 O 9.6406 -1.76691 -4.00889 0
M  V30 107 C 11.1416 -0.0138943 -4.43298 0
M  V30 108 H 8.3616 -0.155673 -0.652692 0
M  V30 109 H 10.9056 -1.07261 -1.74113 0
M  V30 110 H 9.0606 0.208575 -3.86838 0
M  V30 111 H 9.4746 -1.72011 -4.95492 0
M  V30 112 H 10.9486 -0.105615 -5.51899 0
M  V30 113 H 11.4256 1.03915 -4.2673 0
M  V30 114 H 12.0316 -0.63192 -4.20579 0
M  V30 115 N 10.3467 1.47872 -0.545128 0
M  V30 116 C 11.5717 2.07391 -0.0190611 0
M  V30 117 C 11.9967 1.39688 1.25971 0
M  V30 118 O 11.3547 0.467816 1.7516 0
M  V30 119 C 11.4027 3.60188 0.172335 0
M  V30 120 O 10.5067 3.9339 1.23766 0
M  V30 121 H 9.8477 0.662411 -0.0459059 0
M  V30 122 H 12.3777 1.90066 -0.757365 0
M  V30 123 H 12.3877 4.06129 0.390305 0
M  V30 124 H 11.0627 4.08865 -0.761725 0
M  V30 125 H 9.6397 3.5921 1.00114 0
M  V30 126 N 11.8248 0.280983 1.55075 0
M  V30 127 C 13.2408 -0.0729964 1.59433 0
M  V30 128 C 13.4408 -1.5411 1.29817 0
M  V30 129 O 12.4968 -2.29086 1.06187 0
M  V30 130 C 13.8098 0.306921 2.9913 0
M  V30 131 C 15.3578 0.254023 3.11968 0
M  V30 132 C 15.8328 0.608467 4.5394 0
M  V30 133 N 17.3238 0.560241 4.59799 0
M  V30 134 C 18.0588 0.80722 5.6769 0
M  V30 135 N 17.5548 1.11912 6.83701 0
M  V30 136 N 19.3478 0.735623 5.57266 0
M  V30 137 H 11.4988 1.238 1.7259 0
M  V30 138 H 13.7618 0.500547 0.805082 0
M  V30 139 H 13.4678 1.32816 3.25657 0
M  V30 140 H 13.3418 -0.349363 3.75579 0
M  V30 141 H 15.7288 -0.75794 2.852 0
M  V30 142 H 15.8098 0.944649 2.37718 0
M  V30 143 H 15.4538 1.61814 4.81434 0
M  V30 144 H 15.3838 -0.104013 5.26497 0
M  V30 145 H 17.8748 0.329288 3.76463 0
M  V30 146 H 18.1878 1.29409 7.61888 0
M  V30 147 H 16.5328 1.15695 6.85303 0
M  V30 148 H 19.7238 0.491752 4.6551 0
M  V30 149 H 19.8968 0.931482 6.4127 0
M  V30 150 N 13.3029 -1.57598 0.00835791 0
M  V30 151 C 14.7139 -1.7892 -0.53333 0
M  V30 152 C 15.0649 -0.916609 -1.73473 0
M  V30 153 O 14.1899 -0.121336 -2.1606 0
M  V30 154 C 14.7849 -3.24488 -0.974313 0
M  V30 155 C 13.3439 -3.46878 -1.46125 0
M  V30 156 C 12.4909 -2.74157 -0.416302 0
M  V30 157 H 15.4419 -1.56958 0.234495 0
M  V30 158 H 15.4629 -3.3306 -1.83988 0
M  V30 159 H 14.9749 -3.87972 -0.099718 0
M  V30 160 H 13.0759 -2.8862 -2.35646 0
M  V30 161 H 13.1889 -4.55572 -1.48295 0
M  V30 162 H 11.5529 -2.39022 -0.87981 0
M  V30 163 H 12.3359 -3.40345 0.44947 0
M  V30 164 N 14.781 0.264519 -1.55364 0
M  V30 165 C 16.192 0.834936 -1.6699 0
M  V30 166 C 16.543 1.86718 -0.602552 0
M  V30 167 O 15.668 2.14899 0.254425 0
M  V30 168 C 16.263 1.5212 -3.02729 0
M  V30 169 C 14.822 2.03954 -3.16354 0
M  V30 170 C 13.969 0.884498 -2.62815 0
M  V30 171 H 16.92 0.0406869 -1.58648 0
M  V30 172 H 16.941 2.38853 -2.96191 0
M  V30 173 H 16.453 0.769668 -3.80392 0
M  V30 174 H 14.554 2.82041 -2.43482 0
M  V30 175 H 14.667 2.24902 -4.23032 0
M  V30 176 H 13.031 1.2802 -2.20188 0
M  V30 177 H 13.814 0.14634 -3.42988 0
M  V30 178 N 16.2591 1.48442 0.529413 0
M  V30 179 C 17.1891 1.65902 1.64313 0
M  V30 180 C 18.1701 0.507897 1.6234 0
M  V30 181 O 19.3551 0.740503 1.79528 0
M  V30 182 C 16.4851 1.69911 3.02898 0
M  V30 183 C 15.4391 2.8453 3.19729 0
M  V30 184 C 14.7651 2.73629 4.59381 0
M  V30 185 C 16.0651 4.25821 3.02447 0
M  V30 186 H 17.7591 2.5914 1.49955 0
M  V30 187 H 15.3051 1.24709 0.719982 0
M  V30 188 H 17.2581 1.80715 3.80684 0
M  V30 189 H 15.9821 0.732524 3.18279 0
M  V30 190 H 14.6411 2.73283 2.44361 0
M  V30 191 H 14.2891 1.74938 4.71599 0
M  V30 192 H 13.9891 3.50541 4.71588 0
M  V30 193 H 15.5131 2.86401 5.39265 0
M  V30 194 H 16.9271 4.37898 3.70024 0
M  V30 195 H 15.3241 5.03735 3.26146 0
M  V30 196 H 16.3941 4.42244 1.98867 0
M  V30 197 N 17.7372 -0.778329 1.37039 0
M  V30 198 C 18.6472 -1.92253 1.34446 0
M  V30 199 C 19.6632 -1.72267 0.244991 0
M  V30 200 O 20.8392 -1.95615 0.479258 0
M  V30 201 C 17.9042 -3.27282 1.144 0
M  V30 202 C 16.9652 -3.59969 2.33925 0
M  V30 203 C 16.1982 -4.88555 2.14825 0
M  V30 204 O 16.4212 -5.59113 1.12912 0
M  V30 205 O 15.3552 -5.20153 3.02861 0
M  V30 206 H 19.1812 -1.97392 2.30803 0
M  V30 207 H 16.7662 -0.920154 1.17701 0
M  V30 208 H 18.6482 -4.08062 1.05182 0
M  V30 209 H 17.3232 -3.23011 0.211124 0
M  V30 210 H 16.2302 -2.7945 2.48714 0
M  V30 211 H 17.5632 -3.68976 3.25757 0
M  V30 212 N 19.2153 -1.21501 -1.00376 0
M  V30 213 C 20.4453 -1.05746 -1.77486 0
M  V30 214 C 20.8533 0.395655 -1.85017 0
M  V30 215 O 20.1963 1.28626 -1.31152 0
M  V30 216 C 20.2583 -1.58092 -3.22873 0
M  V30 217 C 19.9223 -3.06568 -3.38917 0
M  V30 218 C 20.9193 -4.04106 -3.271 0
M  V30 219 C 18.6043 -3.45799 -3.64319 0
M  V30 220 C 20.5983 -5.38862 -3.40451 0
M  V30 221 C 18.2853 -4.80707 -3.77311 0
M  V30 222 C 19.2833 -5.77047 -3.65384 0
M  V30 223 O 18.9713 -7.09507 -3.77961 0
M  V30 224 H 18.7033 -0.371778 -0.564586 0
M  V30 225 H 21.2573 -1.61319 -1.27143 0
M  V30 226 H 19.4873 -0.969163 -3.74358 0
M  V30 227 H 21.1763 -1.38162 -3.81662 0
M  V30 228 H 21.9423 -3.75141 -3.07399 0
M  V30 229 H 17.8213 -2.71344 -3.72684 0
M  V30 230 H 21.3653 -6.14041 -3.31058 0
M  V30 231 H 17.2623 -5.09357 -3.96517 0
M  V30 232 H 18.0303 -7.16935 -3.94901 0
M  V30 233 N 20.6934 1.19889 -1.02296 0
M  V30 234 C 21.9394 1.89701 -0.717033 0
M  V30 235 C 22.2724 1.7905 0.751989 0
M  V30 236 O 21.5474 1.17891 1.547 0
M  V30 237 C 21.8304 3.40858 -1.16136 0
M  V30 238 C 21.6834 3.60411 -2.69117 0
M  V30 239 C 23.0024 4.33876 -0.737549 0
M  V30 240 H 20.1214 0.688874 -0.261957 0
M  V30 241 H 22.7634 1.41154 -1.27183 0
M  V30 242 H 20.9134 3.82335 -0.689342 0
M  V30 243 H 22.5854 3.28145 -3.2422 0
M  V30 244 H 20.8284 3.03665 -3.0979 0
M  V30 245 H 21.4994 4.66396 -2.95261 0
M  V30 246 H 23.9754 4.00081 -1.14344 0
M  V30 247 H 22.8514 5.38242 -1.0764 0
M  V30 248 H 23.1124 4.40628 0.360436 0
M  V30 249 N 22.1715 0.800033 1.35784 0
M  V30 250 C 23.1185 0.203848 2.29898 0
M  V30 251 C 24.0885 -0.658375 1.52495 0
M  V30 252 O 25.2735 -0.604832 1.8096 0
M  V30 253 C 22.4135 -0.64688 3.38983 0
M  V30 254 C 21.5265 0.235054 4.3136 0
M  V30 255 C 20.6615 -0.623054 5.27533 0
M  V30 256 C 19.7005 0.259682 6.11549 0
M  V30 257 N 18.8375 -0.558019 6.99879 0
M  V30 258 H 23.6775 1.01186 2.80295 0
M  V30 259 H 21.2145 0.51053 1.37957 0
M  V30 260 H 23.1725 -1.15521 4.00887 0
M  V30 261 H 21.8025 -1.42021 2.89879 0
M  V30 262 H 20.8545 0.861438 3.70518 0
M  V30 263 H 22.1665 0.914768 4.9034 0
M  V30 264 H 21.3205 -1.19678 5.94779 0
M  V30 265 H 20.0595 -1.33636 4.69034 0
M  V30 266 H 19.0645 0.845726 5.43256 0
M  V30 267 H 20.2895 0.970748 6.72126 0
M  V30 268 H 18.2355 -1.25542 6.43875 0
M  V30 269 H 18.1525 0.0637872 7.55973 0
M  V30 270 H 19.4205 -1.11523 7.71481 0
M  V30 271 N 23.6496 -1.47581 0.552962 0
M  V30 272 C 24.8976 -2.02082 0.0272703 0
M  V30 273 C 25.2186 -1.4301 -1.32563 0
M  V30 274 O 24.4886 -0.603745 -1.86365 0
M  V30 275 H 23.0686 -0.746966 0.00709182 0
M  V30 276 H 25.7306 -1.81033 0.722008 0
M  V30 277 H 24.8266 -3.12034 -0.0639951 0
M  V30 278 N 25.1277 -0.289203 -1.54924 0
M  V30 279 C 26.3737 0.323998 -2.00195 0
M  V30 280 C 26.7067 1.54441 -1.17735 0
M  V30 281 O 25.9817 1.92875 -0.250878 0
M  V30 282 C 26.2647 0.692276 -3.53383 0
M  V30 283 C 26.1177 -0.536457 -4.46589 0
M  V30 284 C 27.4367 1.52335 -4.12895 0
M  V30 285 H 24.5557 0.116289 -0.727768 0
M  V30 286 H 27.1977 -0.398954 -1.85764 0
M  V30 287 H 25.3477 1.30822 -3.65811 0
M  V30 288 H 27.0197 -1.17499 -4.46085 0
M  V30 289 H 25.2627 -1.17192 -4.1767 0
M  V30 290 H 25.9337 -0.234806 -5.515 0
M  V30 291 H 28.4097 1.00302 -4.0383 0
M  V30 292 H 27.2857 1.74982 -5.20262 0
M  V30 293 H 27.5467 2.50886 -3.64018 0
M  V30 294 N 26.6058 1.57591 -0.0167156 0
M  V30 295 C 28.0168 1.79201 0.523834 0
M  V30 296 C 28.3678 0.925796 1.72984 0
M  V30 297 O 27.4928 0.132792 2.15992 0
M  V30 298 C 28.0878 3.25 0.957091 0
M  V30 299 C 26.6468 3.47648 1.44283 0
M  V30 300 C 25.7938 2.74374 0.401757 0
M  V30 301 H 28.7448 1.56831 -0.242816 0
M  V30 302 H 28.7658 3.34031 1.82219 0
M  V30 303 H 28.2778 3.88019 0.0791415 0
M  V30 304 H 26.3788 2.89866 2.34113 0
M  V30 305 H 26.4918 4.56352 1.45877 0
M  V30 306 H 24.8558 2.39485 0.867121 0
M  V30 307 H 25.6388 3.40102 -0.467513 0
M  V30 308 N 28.0839 -0.256276 1.55502 0
M  V30 309 C 29.0139 -1.32102 1.92539 0
M  V30 310 C 29.9949 -1.50684 0.789194 0
M  V30 311 O 31.1799 -1.63449 1.04872 0
M  V30 312 C 28.3099 -2.67752 2.21192 0
M  V30 313 C 27.2639 -2.63878 3.36975 0
M  V30 314 C 26.5899 -4.03236 3.51147 0
M  V30 315 C 27.8899 -2.21682 4.72921 0
M  V30 316 H 29.5839 -1.01351 2.81724 0
M  V30 317 H 27.1299 -0.486105 1.35547 0
M  V30 318 H 29.0829 -3.42365 2.45691 0
M  V30 319 H 27.8069 -3.0012 1.28824 0
M  V30 320 H 26.4659 -1.91722 3.12471 0
M  V30 321 H 26.1139 -4.32854 2.56216 0
M  V30 322 H 25.8139 -4.01535 4.29003 0
M  V30 323 H 27.3379 -4.79563 3.77957 0
M  V30 324 H 28.7519 -2.86023 4.96854 0
M  V30 325 H 27.1489 -2.3111 5.53812 0
M  V30 326 H 28.2189 -1.16833 4.70615 0
M  V30 327 N 29.562 -1.4872 -0.521534 0
M  V30 328 C 30.811 -1.56419 -1.27341 0
M  V30 329 C 31.124 -0.246805 -1.94037 0
M  V30 330 O 32.33 -0.202122 -2.70747 0
M  V30 331 C 30.786 -2.75896 -2.31105 0
M  V30 332 C 30.394 -4.14311 -1.70441 0
M  V30 333 C 32.138 -2.92913 -3.07249 0
M  V30 334 C 30.045 -5.25038 -2.72194 0
M  V30 335 H 28.975 -0.582344 -0.478949 0
M  V30 336 H 31.626 -1.75071 -0.549779 0
M  V30 337 H 30.008 -2.50697 -3.06541 0
M  V30 338 H 31.182 -4.49564 -1.01136 0
M  V30 339 H 29.497 -4.02482 -1.06759 0
M  V30 340 H 32.094 -3.72805 -3.83302 0
M  V30 341 H 32.437 -2.02689 -3.63625 0
M  V30 342 H 32.97 -3.18054 -2.38928 0
M  V30 343 H 29.709 -6.17255 -2.20627 0
M  V30 344 H 29.229 -4.94263 -3.39801 0
M  V30 345 H 30.908 -5.53508 -3.35019 0
M  V30 346 N 31.0401 0.771051 -1.3745 0
M  V30 347 C 31.9871 1.88435 -1.3327 0
M  V30 348 C 32.9571 1.64914 -0.198136 0
M  V30 349 O 34.1421 1.86821 -0.387606 0
M  V30 350 C 31.2821 3.25509 -1.14622 0
M  V30 351 C 30.3951 3.60979 -2.37314 0
M  V30 352 C 29.5301 4.87265 -2.11533 0
M  V30 353 C 28.5691 5.15469 -3.30088 0
M  V30 354 N 27.7061 6.32944 -3.03853 0
M  V30 355 H 32.5461 1.91344 -2.28455 0
M  V30 356 H 30.0831 0.935466 -1.13523 0
M  V30 357 H 32.0411 4.04582 -1.01831 0
M  V30 358 H 30.6711 3.21974 -0.230837 0
M  V30 359 H 29.7231 2.76885 -2.60842 0
M  V30 360 H 31.0351 3.77759 -3.25729 0
M  V30 361 H 30.1891 5.74244 -1.95777 0
M  V30 362 H 28.9281 4.7259 -1.20457 0
M  V30 363 H 27.9331 4.26966 -3.46382 0
M  V30 364 H 29.1581 5.32052 -4.22016 0
M  V30 365 H 27.1041 6.19625 -2.15407 0
M  V30 366 H 27.0211 6.50143 -3.85812 0
M  V30 367 H 28.2891 7.22857 -2.91716 0
M  V30 368 N 32.5182 1.22032 0.997298 0
M  V30 369 C 33.7482 1.06686 1.76923 0
M  V30 370 C 34.1562 -0.385838 1.85224 0
M  V30 371 O 33.4992 -1.27929 1.31833 0
M  V30 372 C 33.5612 1.59802 3.22031 0
M  V30 373 C 33.2252 3.08362 3.37286 0
M  V30 374 C 34.2222 4.05835 3.24952 0
M  V30 375 C 31.9072 3.47727 3.6248 0
M  V30 376 C 33.9012 5.4066 3.37588 0
M  V30 377 C 31.5882 4.82701 3.74757 0
M  V30 378 C 32.5862 5.78977 3.62319 0
M  V30 379 O 32.2742 7.11502 3.74193 0
M  V30 380 H 32.0062 0.374767 0.562606 0
M  V30 381 H 34.5602 1.61991 1.26286 0
M  V30 382 H 32.7902 0.989003 3.73839 0
M  V30 383 H 34.4792 1.40184 3.80924 0
M  V30 384 H 35.2452 3.76766 3.05405 0
M  V30 385 H 31.1242 2.73317 3.7124 0
M  V30 386 H 34.6682 6.15788 3.27796 0
M  V30 387 H 30.5652 5.11453 3.9381 0
M  V30 388 H 31.3332 7.19019 3.91093 0
M  V30 389 N 33.9963 -1.19345 1.0293 0
M  V30 390 C 35.2433 -1.89038 0.726008 0
M  V30 391 C 35.5713 -1.79649 -0.745427 0
M  V30 392 O 34.8263 -1.18354 -1.55855 0
M  V30 393 C 35.1253 -3.39292 1.12319 0
M  V30 394 C 34.7913 -3.68885 2.59297 0
M  V30 395 C 33.4533 -3.76671 2.99453 0
M  V30 396 C 35.8053 -3.82178 3.54386 0
M  V30 397 C 33.1333 -3.9522 4.33611 0
M  V30 398 C 35.4853 -4.0224 4.88248 0
M  V30 399 C 34.1493 -4.08259 5.28092 0
M  V30 400 H 33.4193 -0.691739 0.265665 0
M  V30 401 H 36.0663 -1.41328 1.29223 0
M  V30 402 H 34.3713 -3.88903 0.475584 0
M  V30 403 H 36.0683 -3.91536 0.866037 0
M  V30 404 H 32.6583 -3.63433 2.27189 0
M  V30 405 H 36.8423 -3.75505 3.24514 0
M  V30 406 H 32.0983 -3.98119 4.64016 0
M  V30 407 H 36.2723 -4.11468 5.61843 0
M  V30 408 H 33.8993 -4.22384 6.32057 0
M  V30 409 N 35.4744 -0.807222 -1.35358 0
M  V30 410 C 36.4374 -0.223665 -2.28106 0
M  V30 411 C 37.4374 0.589354 -1.4961 0
M  V30 412 O 38.6274 0.407745 -1.69361 0
M  V30 413 C 35.7594 0.688149 -3.33882 0
M  V30 414 H 36.9524 -1.04169 -2.81227 0
M  V30 415 H 34.5054 -0.577921 -1.45223 0
M  V30 416 H 35.2404 1.52984 -2.85948 0
M  V30 417 H 35.0254 0.10687 -3.91954 0
M  V30 418 H 36.5154 1.09075 -4.03104 0
M  V30 419 N 36.9525 1.47285 -0.560781 0
M  V30 420 C 37.8625 2.33846 0.187954 0
M  V30 421 C 38.8785 1.48412 0.908293 0
M  V30 422 O 40.0545 1.81332 0.876388 0
M  V30 423 C 37.1195 3.25178 1.2025 0
M  V30 424 C 36.1805 4.26504 0.489208 0
M  V30 425 C 35.4135 5.13472 1.45542 0
M  V30 426 O 35.6365 5.02959 2.6905 0
M  V30 427 O 34.5705 5.93902 0.977963 0
M  V30 428 H 38.3965 2.99177 -0.522177 0
M  V30 429 H 35.9815 1.45903 -0.321364 0
M  V30 430 H 37.8635 3.81584 1.78805 0
M  V30 431 H 36.5385 2.6247 1.89449 0
M  V30 432 H 35.4455 3.73847 -0.137627 0
M  V30 433 H 36.7785 4.91935 -0.161399 0
M  V30 434 N 38.4306 0.297415 1.54768 0
M  V30 435 C 39.3936 -0.567375 2.22066 0
M  V30 436 C 40.3936 -1.06409 1.20556 0
M  V30 437 O 41.5836 -0.960691 1.45315 0
M  V30 438 C 38.7156 -1.78517 2.90421 0
M  V30 439 H 39.9086 0.0205534 2.99893 0
M  V30 440 H 37.4616 0.0482163 1.56226 0
M  V30 441 H 38.1966 -2.41303 2.16664 0
M  V30 442 H 37.9816 -1.43669 3.64831 0
M  V30 443 H 39.4716 -2.39964 3.41771 0
M  V30 444 N 39.9087 -1.5758 0.0250728 0
M  V30 445 C 40.8387 -2.13007 -0.956575 0
M  V30 446 C 41.8197 -1.0452 -1.342 0
M  V30 447 O 43.0047 -1.32332 -1.42133 0
M  V30 448 C 40.1347 -2.65386 -2.24026 0
M  V30 449 C 39.0887 -3.78623 -1.99571 0
M  V30 450 C 38.4147 -4.17414 -3.3417 0
M  V30 451 C 39.7147 -5.04867 -1.33814 0
M  V30 452 H 41.4087 -2.9528 -0.494991 0
M  V30 453 H 38.9547 -1.42042 -0.236651 0
M  V30 454 H 40.9077 -3.02794 -2.93076 0
M  V30 455 H 39.6317 -1.80268 -2.72343 0
M  V30 456 H 38.2907 -3.41646 -1.32941 0
M  V30 457 H 37.9387 -3.29284 -3.80238 0
M  V30 458 H 37.6387 -4.93719 -3.18615 0
M  V30 459 H 39.1627 -4.57402 -4.04495 0
M  V30 460 H 40.5767 -5.39888 -1.92857 0
M  V30 461 H 38.9737 -5.86144 -1.28669 0
M  V30 462 H 40.0437 -4.83904 -0.310561 0
M  V30 463 N 41.3868 0.248026 -1.55636 0
M  V30 464 C 42.6348 0.974295 -1.77065 0
M  V30 465 C 42.9558 1.85897 -0.588849 0
M  V30 466 O 42.2258 1.91868 0.395407 0
M  V30 467 H 40.8058 0.362733 -0.653019 0
M  V30 468 H 43.4678 0.266244 -1.93073 0
M  V30 469 H 42.5638 1.59667 -2.68166 0
M  V30 470 N 42.8649 1.48995 0.513639 0
M  V30 471 C 44.2759 1.5119 1.09537 0
M  V30 472 C 44.6269 0.290906 1.94031 0
M  V30 473 O 43.7519 -0.60049 2.07902 0
M  V30 474 C 44.3469 2.73964 1.99322 0
M  V30 475 C 42.9059 2.78978 2.52682 0
M  V30 476 C 42.0529 2.44934 1.30009 0
M  V30 477 H 45.0039 1.55875 0.298125 0
M  V30 478 H 45.0249 2.53409 2.83838 0
M  V30 479 H 44.5369 3.62813 1.37799 0
M  V30 480 H 42.6379 1.94378 3.1788 0
M  V30 481 H 42.7509 3.8083 2.90698 0
M  V30 482 H 41.1149 1.9644 1.62122 0
M  V30 483 H 41.8979 3.36043 0.702131 0
M  V30 484 N 44.343 -0.763751 1.37857 0
M  V30 485 C 45.273 -1.89103 1.36975 0
M  V30 486 C 46.254 -1.68439 0.237152 0
M  V30 487 O 47.439 -1.8918 0.438713 0
M  V30 488 C 44.569 -3.26496 1.18395 0
M  V30 489 C 43.523 -3.61741 2.28751 0
M  V30 490 C 42.849 -4.97762 1.95286 0
M  V30 491 C 44.149 -3.67665 3.70972 0
M  V30 492 H 45.843 -1.90099 2.31307 0
M  V30 493 H 43.389 -0.91319 1.11341 0
M  V30 494 H 45.342 -4.05003 1.16406 0
M  V30 495 H 44.066 -3.25955 0.205215 0
M  V30 496 H 42.725 -2.85547 2.29909 0
M  V30 497 H 42.373 -4.93769 0.959221 0
M  V30 498 H 42.073 -5.22313 2.69189 0
M  V30 499 H 43.597 -5.7866 1.94898 0
M  V30 500 H 45.011 -4.36307 3.719 0
M  V30 501 H 43.408 -4.03718 4.43995 0
M  V30 502 H 44.478 -2.68134 4.0402 0
M  V30 503 N 45.8211 -1.22559 -0.990812 0
M  V30 504 C 46.7531 -0.955325 -2.08342 0
M  V30 505 C 47.7661 0.0668408 -1.62663 0
M  V30 506 O 48.9551 -0.167421 -1.77713 0
M  V30 507 C 46.0551 -0.415566 -3.36342 0
M  V30 508 C 45.2281 -1.49544 -4.11042 0
M  V30 509 C 44.2871 -0.962399 -5.17324 0
M  V30 510 O 43.3131 -1.64907 -5.44788 0
M  V30 511 N 44.5151 0.215134 -5.80101 0
M  V30 512 H 47.2801 -1.89596 -2.32106 0
M  V30 513 H 44.8411 -1.13276 -1.15673 0
M  V30 514 H 46.8331 -0.0442386 -4.04676 0
M  V30 515 H 45.4031 0.430232 -3.09625 0
M  V30 516 H 44.6231 -2.04 -3.37309 0
M  V30 517 H 45.9111 -2.22195 -4.57719 0
M  V30 518 H 45.3091 0.789779 -5.6016 0
M  V30 519 H 43.8661 0.527826 -6.49659 0
M  V30 520 N 47.2992 1.18797 -1.03562 0
M  V30 521 C 48.5242 1.9314 -0.755764 0
M  V30 522 C 48.9492 1.7537 0.68022 0
M  V30 523 O 48.3072 1.06046 1.47051 0
M  V30 524 C 48.3552 3.42747 -1.12058 0
M  V30 525 O 47.4592 4.11683 -0.243124 0
M  V30 526 H 46.8002 0.602724 -0.278604 0
M  V30 527 H 49.3302 1.50678 -1.3841 0
M  V30 528 H 49.3402 3.93437 -1.08035 0
M  V30 529 H 48.0152 3.55002 -2.16672 0
M  V30 530 H 46.5922 3.71323 -0.342539 0
M  V30 531 N 48.7773 0.814389 1.34928 0
M  V30 532 C 50.0243 0.398423 1.98542 0
M  V30 533 C 50.3523 -1.03638 1.64589 0
M  V30 534 O 49.6073 -1.73509 0.90516 0
M  V30 535 C 49.9063 0.537781 3.53331 0
M  V30 536 C 49.5723 1.93704 4.07172 0
M  V30 537 C 48.2343 2.31984 4.21589 0
M  V30 538 C 50.5863 2.85213 4.36237 0
M  V30 539 C 47.9143 3.61125 4.62391 0
M  V30 540 C 50.2663 4.13809 4.78482 0
M  V30 541 C 48.9303 4.52077 4.91104 0
M  V30 542 H 48.2003 0.145793 0.726516 0
M  V30 543 H 50.8473 1.03669 1.61012 0
M  V30 544 H 49.1523 -0.183906 3.91368 0
M  V30 545 H 50.8493 0.196588 4.00518 0
M  V30 546 H 47.4393 1.62966 3.96409 0
M  V30 547 H 51.6233 2.56885 4.24645 0
M  V30 548 H 46.8793 3.90612 4.70353 0
M  V30 549 H 51.0533 4.84811 4.99932 0
M  V30 550 H 48.6803 5.52196 5.22478 0
M  V30 551 N 50.2554 -1.46986 0.568584 0
M  V30 552 C 51.1874 -2.28233 -0.210337 0
M  V30 553 C 52.2004 -1.37682 -0.868767 0
M  V30 554 O 53.3894 -1.62406 -0.740705 0
M  V30 555 C 50.4894 -3.12293 -1.3163 0
M  V30 556 C 49.6624 -4.30878 -0.7525 0
M  V30 557 C 48.7214 -4.96445 -1.74439 0
M  V30 558 O 47.7474 -5.54482 -1.286 0
M  V30 559 N 48.9494 -4.92171 -3.07812 0
M  V30 560 H 51.7144 -2.95723 0.486648 0
M  V30 561 H 49.2754 -1.56742 0.405409 0
M  V30 562 H 51.2674 -3.53022 -1.97883 0
M  V30 563 H 49.8374 -2.46971 -1.91636 0
M  V30 564 H 49.0574 -3.94104 0.0871128 0
M  V30 565 H 50.3454 -5.07558 -0.35536 0
M  V30 566 H 49.7434 -4.46239 -3.47688 0
M  V30 567 H 48.3004 -5.36884 -3.69592 0
M  V30 568 N 51.7335 -0.305618 -1.54608 0
M  V30 569 C 52.6965 0.555591 -2.22364 0
M  V30 570 C 53.6965 1.05768 -1.21119 0
M  V30 571 O 54.8865 0.952972 -1.45822 0
M  V30 572 C 52.0185 1.76974 -2.91364 0
M  V30 573 H 53.2115 -0.0364572 -2.99878 0
M  V30 574 H 50.7645 -0.0565007 -1.56198 0
M  V30 575 H 51.4995 2.40151 -2.17941 0
M  V30 576 H 51.2845 1.41732 -3.65588 0
M  V30 577 H 52.7745 2.38148 -3.43038 0
M  V30 578 N 53.2116 1.57565 -0.0334293 0
M  V30 579 C 54.6276 1.56297 0.322997 0
M  V30 580 C 54.8276 1.03945 1.7262 0
M  V30 581 O 53.8836 0.688109 2.42943 0
M  V30 582 C 55.1966 3.00232 0.167664 0
M  V30 583 C 56.7446 3.12078 0.240107 0
M  V30 584 C 57.2196 4.57859 0.113513 0
M  V30 585 N 58.7106 4.62887 0.170359 0
M  V30 586 C 59.4456 5.73319 0.0962517 0
M  V30 587 N 58.9416 6.92794 -0.0291881 0
M  V30 588 N 60.7346 5.61898 0.150551 0
M  V30 589 H 52.8856 1.89923 -0.950956 0
M  V30 590 H 55.1486 0.873824 -0.367608 0
M  V30 591 H 54.8546 3.42501 -0.799102 0
M  V30 592 H 54.7286 3.654 0.936083 0
M  V30 593 H 57.1156 2.69718 1.19733 0
M  V30 594 H 57.1966 2.49623 -0.558763 0
M  V30 595 H 56.8406 5.009 -0.840314 0
M  V30 596 H 56.7706 5.18299 0.931302 0
M  V30 597 H 59.2616 3.76954 0.26728 0
M  V30 598 H 59.5746 7.7276 -0.0789252 0
M  V30 599 H 57.9196 6.94971 -0.0640299 0
M  V30 600 H 61.1106 4.67448 0.246981 0
M  V30 601 H 61.2836 6.47938 0.0893365 0
M  V30 602 N 54.6897 -0.239769 1.55765 0
M  V30 603 C 56.1007 -0.808263 1.68297 0
M  V30 604 C 56.4517 -1.85736 0.632181 0
M  V30 605 O 55.5767 -2.15277 -0.220204 0
M  V30 606 C 56.1717 -1.47284 3.05111 0
M  V30 607 C 54.7307 -1.98895 3.19559 0
M  V30 608 C 53.8777 -0.842575 2.64189 0
M  V30 609 H 56.8287 -0.0154422 1.58692 0
M  V30 610 H 56.8497 -2.34111 2.99954 0
M  V30 611 H 56.3617 -0.709053 3.81568 0
M  V30 612 H 54.4627 -2.78132 2.47938 0
M  V30 613 H 54.5757 -2.18143 4.26556 0
M  V30 614 H 52.9397 -1.24501 2.22197 0
M  V30 615 H 53.7227 -0.0917552 3.43177 0
M  V30 616 N 56.1678 -1.49265 -0.50573 0
M  V30 617 C 57.4448 -1.49012 -1.26707 0
M  V30 618 C 57.8248 -0.215205 -2.1 0
M  V30 619 O 57.1728 0.802547 -2.13943 0
M  V30 620 C 57.3828 -2.7663 -2.12783 0
M  V30 621 C 58.7308 -3.25932 -2.72127 0
M  V30 622 O 59.7548 -2.77715 -2.23054 0
M  V30 623 O 58.6138 -4.09897 -3.61451 0
M  V30 624 H 55.7078 -0.596197 -0.57313 0
M  V30 625 H 58.2538 -1.61524 -0.52039 0
M  V30 626 H 57.0258 -3.60916 -1.5118 0
M  V30 627 H 56.6488 -2.66956 -2.94653 0
M  V30 628 N 57.6459 0.756429 -1.3826 0
M  V30 629 C 58.9229 1.50584 -1.24835 0
M  V30 630 C 59.3029 2.10556 0.151485 0
M  V30 631 O 58.6509 1.96825 1.1607 0
M  V30 632 C 58.8609 2.57448 -2.3563 0
M  V30 633 C 60.2089 3.24429 -2.73917 0
M  V30 634 O 61.2329 2.67751 -2.34921 0
M  V30 635 O 60.0919 4.26937 -3.41156 0
M  V30 636 H 57.1859 0.667664 -0.48801 0
M  V30 637 H 59.7319 0.792083 -1.5008 0
M  V30 638 H 58.5039 2.11362 -3.29305 0
M  V30 639 H 58.1269 3.36408 -2.11933 0
M  V30 640 N 59.124 1.23083 0.984299 0
M  V30 641 C 60.054 1.03292 2.09411 0
M  V30 642 C 61.035 -0.048923 1.7003 0
M  V30 643 O 62.22 0.114967 1.93859 0
M  V30 644 C 59.35 0.619155 3.41736 0
M  V30 645 C 58.304 1.64791 3.95004 0
M  V30 646 C 57.63 1.0897 5.23478 0
M  V30 647 C 58.93 3.03999 4.24714 0
M  V30 648 H 60.624 1.96119 2.26225 0
M  V30 649 H 58.17 0.944344 1.08711 0
M  V30 650 H 60.123 0.467777 4.18796 0
M  V30 651 H 58.847 -0.344786 3.24775 0
M  V30 652 H 57.506 1.78721 3.20085 0
M  V30 653 H 57.154 0.11686 5.02864 0
M  V30 654 H 56.854 1.77704 5.60085 0
M  V30 655 H 58.378 0.950093 6.03163 0
M  V30 656 H 59.792 2.93393 4.92538 0
M  V30 657 H 58.189 3.69936 4.72512 0
M  V30 658 H 59.259 3.53285 3.32142 0
M  V30 659 N 60.6021 -1.18246 1.0419 0
M  V30 660 C 61.5321 -2.24127 0.654914 0
M  V30 661 C 62.5131 -1.66617 -0.342451 0
M  V30 662 O 63.6981 -1.92924 -0.222277 0
M  V30 663 C 60.8281 -3.47295 0.0183757 0
M  V30 664 C 59.7821 -4.17563 0.939414 0
M  V30 665 C 59.1081 -5.34438 0.167286 0
M  V30 666 C 60.4081 -4.70917 2.25908 0
M  V30 667 H 62.1021 -2.56753 1.54007 0
M  V30 668 H 59.6481 -1.23414 0.74195 0
M  V30 669 H 61.6011 -4.20572 -0.264082 0
M  V30 670 H 60.3251 -3.13907 -0.901664 0
M  V30 671 H 58.9841 -3.46186 1.20628 0
M  V30 672 H 58.6321 -4.97298 -0.7552 0
M  V30 673 H 58.3321 -5.82388 0.780901 0
M  V30 674 H 59.8561 -6.10504 -0.108125 0
M  V30 675 H 61.2701 -5.35882 2.03724 0
M  V30 676 H 59.6671 -5.29406 2.82577 0
M  V30 677 H 60.7371 -3.88272 2.9047 0
M  V30 678 N 62.0802 -0.821533 -1.34494 0
M  V30 679 C 63.3292 -0.405355 -1.97585 0
M  V30 680 C 63.6422 1.03677 -1.65863 0
M  V30 681 O 64.8482 1.55679 -2.22433 0
M  V30 682 C 63.3042 -0.673861 -3.53535 0
M  V30 683 C 62.9122 -2.12951 -3.94152 0
M  V30 684 C 64.6562 -0.32378 -4.23263 0
M  V30 685 C 62.5632 -2.34298 -5.43009 0
M  V30 686 H 61.4932 -0.147836 -0.739365 0
M  V30 687 H 64.1442 -1.00769 -1.53355 0
M  V30 688 H 62.5262 -0.00137554 -3.96 0
M  V30 689 H 63.7002 -2.84104 -3.62797 0
M  V30 690 H 62.0152 -2.44089 -3.37356 0
M  V30 691 H 64.6122 -0.461126 -5.32708 0
M  V30 692 H 64.9552 0.731586 -4.09821 0
M  V30 693 H 65.4882 -0.950786 -3.8627 0
M  V30 694 H 62.2272 -3.38335 -5.61435 0
M  V30 695 H 61.7472 -1.67687 -5.75883 0
M  V30 696 H 63.4262 -2.16588 -6.09671 0
M  V30 697 N 63.5583 1.46682 -0.576371 0
M  V30 698 C 64.7833 2.07304 -0.0630475 0
M  V30 699 C 65.2083 1.42329 1.2298 0
M  V30 700 O 64.5663 0.504865 1.74129 0
M  V30 701 C 64.6143 3.60472 0.095895 0
M  V30 702 O 63.7183 3.95927 1.15394 0
M  V30 703 H 63.0593 0.661288 -0.0599463 0
M  V30 704 H 65.5893 1.88417 -0.797511 0
M  V30 705 H 65.5993 4.06865 0.304071 0
M  V30 706 H 64.2743 4.07157 -0.84828 0
M  V30 707 H 62.8513 3.61252 0.924724 0
M  V30 708 N 65.0364 0.313813 1.54444 0
M  V30 709 C 66.2644 -0.293918 2.04802 0
M  V30 710 C 66.6794 -1.46537 1.19047 0
M  V30 711 O 66.0364 -1.81182 0.218939 0
M  V30 712 C 66.0874 -0.737806 3.53891 0
M  V30 713 O 65.8084 0.387038 4.36387 0
M  V30 714 C 67.3094 -1.40936 4.203 0
M  V30 715 H 64.5294 -0.0620057 0.668129 0
M  V30 716 H 67.0734 0.457169 1.99324 0
M  V30 717 H 65.2284 -1.43889 3.59687 0
M  V30 718 H 65.6424 0.0391274 5.24485 0
M  V30 719 H 67.1164 -1.67099 5.26101 0
M  V30 720 H 67.5934 -2.35355 3.70816 0
M  V30 721 H 68.1994 -0.751117 4.18615 0
M  V30 722 N 66.5145 -1.57545 0.0417849 0
M  V30 723 C 67.7445 -1.96339 -0.642995 0
M  V30 724 C 68.1525 -0.917536 -1.65463 0
M  V30 725 O 67.4955 0.107747 -1.83384 0
M  V30 726 C 67.5575 -3.31333 -1.39494 0
M  V30 727 C 67.2215 -4.53796 -0.540204 0
M  V30 728 C 68.2185 -5.19553 0.189806 0
M  V30 729 C 65.9035 -5.0006 -0.473886 0
M  V30 730 C 67.8975 -6.29904 0.974674 0
M  V30 731 C 65.5845 -6.10289 0.314677 0
M  V30 732 C 66.5825 -6.75072 1.03765 0
M  V30 733 O 66.2705 -7.83183 1.81327 0
M  V30 734 H 66.0025 -0.651241 -0.181277 0
M  V30 735 H 68.5565 -2.05148 0.101665 0
M  V30 736 H 66.7865 -3.19052 -2.18502 0
M  V30 737 H 68.4755 -3.54942 -1.96904 0
M  V30 738 H 69.2415 -4.84774 0.147981 0
M  V30 739 H 65.1205 -4.49433 -1.0262 0
M  V30 740 H 68.6645 -6.80401 1.5395 0
M  V30 741 H 64.5615 -6.44506 0.358174 0
M  V30 742 H 65.3295 -7.99913 1.73438 0
M  V30 743 N 67.9926 0.231505 -1.5589 0
M  V30 744 C 69.4036 0.799327 -1.68724 0
M  V30 745 C 69.7546 1.85398 -0.642022 0
M  V30 746 O 68.8796 2.1539 0.208784 0
M  V30 747 C 69.4746 1.45664 -3.05888 0
M  V30 748 C 68.0336 1.97197 -3.20609 0
M  V30 749 C 67.1806 0.828552 -2.64632 0
M  V30 750 H 70.1316 0.00702616 -1.58698 0
M  V30 751 H 70.1526 2.32517 -3.01191 0
M  V30 752 H 69.6646 0.688808 -3.81939 0
M  V30 753 H 67.7656 2.76813 -2.4941 0
M  V30 754 H 67.8786 2.15878 -4.27707 0
M  V30 755 H 66.2426 1.23321 -2.22854 0
M  V30 756 H 67.0256 0.0735544 -3.43221 0
M  V30 757 N 69.4707 1.49531 0.497807 0
M  V30 758 C 70.4177 1.66436 1.59899 0
M  V30 759 C 71.3877 0.505793 1.58212 0
M  V30 760 O 72.5727 0.733202 1.7615 0
M  V30 761 C 69.7127 1.7399 2.98029 0
M  V30 762 C 68.8257 3.01172 3.09708 0
M  V30 763 C 67.9607 2.99686 4.38591 0
M  V30 764 C 66.9997 4.21434 4.43914 0
M  V30 765 N 66.1367 4.1784 5.64229 0
M  V30 766 H 70.9767 2.60459 1.44793 0
M  V30 767 H 68.5137 1.29137 0.704423 0
M  V30 768 H 70.4717 1.76352 3.78095 0
M  V30 769 H 69.1017 0.834301 3.11832 0
M  V30 770 H 68.1537 3.08408 2.22685 0
M  V30 771 H 69.4657 3.91165 3.09502 0
M  V30 772 H 68.6197 3.00628 5.2698 0
M  V30 773 H 67.3587 2.07477 4.41367 0
M  V30 774 H 66.3637 4.20733 3.53926 0
M  V30 775 H 67.5887 5.14839 4.42851 0
M  V30 776 H 65.5347 3.28469 5.67841 0
M  V30 777 H 65.4517 5.01571 5.65652 0
M  V30 778 H 66.7197 4.22889 6.54817 0
M  V30 779 N 70.9488 -0.749086 1.3866 0
M  V30 780 C 72.1738 -1.54344 1.38538 0
M  V30 781 C 72.5988 -1.88088 -0.0216655 0
M  V30 782 O 71.9568 -1.50899 -1.00494 0
M  V30 783 C 72.0048 -2.8164 2.25192 0
M  V30 784 O 71.1088 -3.7698 1.67212 0
M  V30 785 H 70.4498 -0.466654 0.472367 0
M  V30 786 H 72.9798 -0.925355 1.82478 0
M  V30 787 H 72.9898 -3.30519 2.3921 0
M  V30 788 H 71.6648 -2.56411 3.27454 0
M  V30 789 H 70.2418 -3.35699 1.6236 0
M  V30 790 N 72.4269 -1.23603 -0.977757 0
M  V30 791 C 73.6749 -1.06759 -1.71601 0
M  V30 792 C 73.9959 0.395929 -1.90938 0
M  V30 793 O 73.2659 1.28356 -1.47992 0
M  V30 794 H 71.8459 -0.392062 -0.635843 0
M  V30 795 H 74.5079 -1.55362 -1.1768 0
M  V30 796 H 73.6039 -1.55763 -2.70452 0
M  V30 797 N 73.905 1.17692 -1.04816 0
M  V30 798 C 75.133 1.91786 -0.776254 0
M  V30 799 C 75.548 1.76604 0.667577 0
M  V30 800 O 74.905 1.10067 1.45573 0
M  V30 801 C 74.956 3.42967 -1.14263 0
M  V30 802 O 74.677 3.57678 -2.52978 0
M  V30 803 C 76.178 4.34144 -0.896311 0
M  V30 804 H 73.398 0.608624 -0.282519 0
M  V30 805 H 75.942 1.49268 -1.39783 0
M  V30 806 H 74.097 3.83245 -0.565874 0
M  V30 807 H 74.511 4.51319 -2.67229 0
M  V30 808 H 75.985 5.38744 -1.20244 0
M  V30 809 H 76.462 4.38876 0.168636 0
M  V30 810 H 77.068 3.99574 -1.45672 0
M  V30 811 N 75.3831 0.828654 1.34056 0
M  V30 812 C 76.6111 0.43262 2.02326 0
M  V30 813 C 77.0261 -0.963147 1.62385 0
M  V30 814 O 76.3831 -1.62425 0.832121 0
M  V30 815 C 76.4341 0.53182 3.57567 0
M  V30 816 O 76.1551 1.87258 3.96063 0
M  V30 817 C 77.6561 0.131422 4.43105 0
M  V30 818 H 74.8761 0.172923 0.648335 0
M  V30 819 H 77.4201 1.1184 1.71208 0
M  V30 820 H 75.5751 -0.105938 3.87255 0
M  V30 821 H 75.9891 1.85087 4.90758 0
M  V30 822 H 77.4631 0.251904 5.51425 0
M  V30 823 H 77.9401 -0.925645 4.29335 0
M  V30 824 H 78.5461 0.743207 4.18756 0
M  V30 825 N 76.8612 -1.46375 0.584142 0
M  V30 826 C 78.1072 -2.03248 0.0787103 0
M  V30 827 C 78.4622 -1.44737 -1.26763 0
M  V30 828 O 77.7552 -0.603625 -1.81843 0
M  V30 829 C 77.9492 -3.57373 -0.0439342 0
M  V30 830 C 77.7782 -4.30831 1.28897 0
M  V30 831 C 76.5482 -4.69683 1.8635 0
M  V30 832 C 78.7462 -4.64278 2.21248 0
M  V30 833 N 76.7282 -5.27898 3.13365 0
M  V30 834 C 78.0992 -5.23078 3.32851 0
M  V30 835 C 80.1542 -4.46209 2.20911 0
M  V30 836 C 78.8572 -5.65715 4.44251 0
M  V30 837 C 80.8832 -4.89864 3.31341 0
M  V30 838 C 80.2452 -5.48736 4.41665 0
M  V30 839 H 76.3442 -0.778714 0.0716144 0
M  V30 840 H 78.9282 -1.78509 0.777355 0
M  V30 841 H 77.0992 -3.81823 -0.711749 0
M  V30 842 H 78.8312 -4.00892 -0.553881 0
M  V30 843 H 75.5862 -4.52488 1.39826 0
M  V30 844 H 76.0102 -5.61525 3.78178 0
M  V30 845 H 80.6522 -4.00027 1.36888 0
M  V30 846 H 78.3702 -6.10875 5.29015 0
M  V30 847 H 81.9562 -4.77634 3.322 0
M  V30 848 H 80.8362 -5.81898 5.25704 0
M  V30 849 N 78.3393 -0.321999 -1.54275 0
M  V30 850 C 79.5853 0.281461 -2.00837 0
M  V30 851 C 79.9183 1.51909 -1.20985 0
M  V30 852 O 79.1933 1.923 -0.291733 0
M  V30 853 C 79.4763 0.617162 -3.54772 0
M  V30 854 C 79.3293 -0.631064 -4.45351 0
M  V30 855 C 80.6483 1.43542 -4.16033 0
M  V30 856 H 77.7673 0.100826 -0.730071 0
M  V30 857 H 80.4093 -0.438268 -1.84876 0
M  V30 858 H 78.5593 1.23034 -3.68504 0
M  V30 859 H 80.2313 -1.26934 -4.43492 0
M  V30 860 H 78.4743 -1.26025 -4.15091 0
M  V30 861 H 79.1453 -0.351735 -5.50878 0
M  V30 862 H 81.6213 0.917134 -4.05867 0
M  V30 863 H 80.4973 1.63907 -5.23856 0
M  V30 864 H 80.7583 2.43108 -3.69257 0
M  V30 865 N 79.8174 1.5752 -0.0501392 0
M  V30 866 C 81.0424 1.97376 0.636997 0
M  V30 867 C 81.4674 0.927466 1.63645 0
M  V30 868 O 80.8254 -0.10941 1.8097 0
M  V30 869 C 80.8734 3.36304 1.30123 0
M  V30 870 O 79.9774 3.34156 2.41689 0
M  V30 871 H 79.3184 0.642998 0.165679 0
M  V30 872 H 81.8484 2.04258 -0.118233 0
M  V30 873 H 81.8584 3.73008 1.65315 0
M  V30 874 H 80.5334 4.11993 0.568746 0
M  V30 875 H 79.1104 3.09196 2.08451 0
M  V30 876 N 81.2955 -0.223234 1.56011 0
M  V30 877 C 82.2275 -1.30006 1.88762 0
M  V30 878 C 83.2405 -1.43129 0.775746 0
M  V30 879 O 84.4295 -1.44057 1.05403 0
M  V30 880 C 81.5295 -2.67589 2.07965 0
M  V30 881 C 80.7025 -2.76434 3.38973 0
M  V30 882 C 79.7615 -3.95019 3.47629 0
M  V30 883 O 78.7875 -3.83436 4.20672 0
M  V30 884 N 79.9895 -5.09249 2.78649 0
M  V30 885 H 82.7545 -1.02238 2.81722 0
M  V30 886 H 80.3155 -0.413278 1.56536 0
M  V30 887 H 82.3075 -3.45297 2.11073 0
M  V30 888 H 80.8775 -2.87964 1.21638 0
M  V30 889 H 80.0975 -1.85216 3.47978 0
M  V30 890 H 81.3855 -2.79313 4.25278 0
M  V30 891 H 80.7835 -5.21556 2.19081 0
M  V30 892 H 79.3405 -5.85007 2.8742 0
M  V30 893 N 82.7736 -1.49793 -0.48987 0
M  V30 894 C 84.0226 -1.59085 -1.23995 0
M  V30 895 C 84.3356 -0.287907 -1.9347 0
M  V30 896 O 85.5416 -0.259506 -2.70257 0
M  V30 897 C 83.9976 -2.80736 -2.252 0
M  V30 898 C 83.6056 -4.17833 -1.61614 0
M  V30 899 C 85.3496 -2.99364 -3.00967 0
M  V30 900 C 83.2566 -5.30693 -2.60996 0
M  V30 901 H 82.1866 -0.592372 -0.466488 0
M  V30 902 H 84.8376 -1.76197 -0.51252 0
M  V30 903 H 83.2196 -2.57142 -3.01154 0
M  V30 904 H 84.3936 -4.51608 -0.915774 0
M  V30 905 H 82.7086 -4.04656 -0.981977 0
M  V30 906 H 85.3056 -3.80851 -3.75308 0
M  V30 907 H 85.6486 -2.10356 -3.59244 0
M  V30 908 H 86.1816 -3.2305 -2.32128 0
M  V30 909 H 82.9206 -6.21796 -2.07485 0
M  V30 910 H 82.4406 -5.01359 -3.2924 0
M  V30 911 H 84.1196 -5.6049 -3.23202 0
M  V30 912 N 84.2517 0.741722 -1.39055 0
M  V30 913 C 85.1817 1.869 -1.39966 0
M  V30 914 C 86.1627 1.6804 -0.26392 0
M  V30 915 O 87.3477 1.88458 -0.468755 0
M  V30 916 C 84.4777 3.24572 -1.23574 0
M  V30 917 C 83.4317 3.58056 -2.34477 0
M  V30 918 C 82.7577 4.94593 -2.0318 0
M  V30 919 C 84.0577 3.61716 -3.76774 0
M  V30 920 H 85.7517 1.86395 -2.34302 0
M  V30 921 H 83.2977 0.895361 -1.1278 0
M  V30 922 H 85.2507 4.031 -1.22834 0
M  V30 923 H 83.9747 3.25587 -0.257045 0
M  V30 924 H 82.6337 2.81854 -2.34423 0
M  V30 925 H 82.2817 4.92181 -1.03765 0
M  V30 926 H 81.9817 5.17964 -2.77465 0
M  V30 927 H 83.5057 5.75486 -2.04079 0
M  V30 928 H 84.9197 4.30335 -3.78794 0
M  V30 929 H 83.3167 3.96603 -4.50362 0
M  V30 930 H 84.3867 2.61672 -4.08235 0
M  V30 931 N 85.7298 1.2412 0.971189 0
M  V30 932 C 87.0068 0.986867 1.6888 0
M  V30 933 C 87.3868 -0.491857 2.0529 0
M  V30 934 O 86.7348 -1.46531 1.75331 0
M  V30 935 C 86.9448 1.9063 2.92338 0
M  V30 936 C 88.2928 2.17515 3.64654 0
M  V30 937 O 89.3168 1.88254 3.02388 0
M  V30 938 O 88.1758 2.6719 4.7673 0
M  V30 939 H 85.2698 0.372944 0.738134 0
M  V30 940 H 87.8158 1.35203 1.02559 0
M  V30 941 H 86.5878 2.90552 2.62097 0
M  V30 942 H 86.2108 1.54408 3.66393 0
M  V30 943 N 87.2079 -1.17134 1.05439 0
M  V30 944 C 88.1409 -2.2012 0.601855 0
M  V30 945 C 89.1189 -1.58314 -0.370854 0
M  V30 946 O 90.3029 -1.8638 -0.281882 0
M  V30 947 C 87.4299 -3.38491 -0.118868 0
M  V30 948 C 86.4759 -4.18752 0.809242 0
M  V30 949 S 87.3089 -4.83602 2.29977 0
M  V30 950 C 88.4649 -6.0536 1.59029 0
M  V30 951 H 88.6979 -2.58165 1.47438 0
M  V30 952 H 86.2309 -1.27788 0.866573 0
M  V30 953 H 88.1889 -4.07084 -0.528495 0
M  V30 954 H 86.8499 -2.98829 -0.967465 0
M  V30 955 H 86.0429 -5.03373 0.251379 0
M  V30 956 H 85.6449 -3.5561 1.15835 0
M  V30 957 H 87.9369 -6.71615 0.891017 0
M  V30 958 H 88.8799 -6.65679 2.41407 0
M  V30 959 H 89.2879 -5.54138 1.07663 0
M  V30 960 N 88.686 -0.835752 -1.33615 0
M  V30 961 C 89.935 -0.426289 -1.97144 0
M  V30 962 C 90.248 1.01912 -1.66953 0
M  V30 963 O 91.454 1.53311 -2.24072 0
M  V30 964 C 89.91 -0.711321 -3.52801 0
M  V30 965 C 89.518 -2.1712 -3.91871 0
M  V30 966 C 91.262 -0.368654 -4.22896 0
M  V30 967 C 89.169 -2.40044 -5.40493 0
M  V30 968 H 88.099 -0.15567 -0.737755 0
M  V30 969 H 90.75 -1.0239 -1.52278 0
M  V30 970 H 89.132 -0.0433766 -3.95976 0
M  V30 971 H 90.306 -2.87936 -3.59763 0
M  V30 972 H 88.621 -2.47654 -3.34749 0
M  V30 973 H 91.218 -0.517601 -5.32189 0
M  V30 974 H 91.561 0.688078 -4.10574 0
M  V30 975 H 92.094 -0.991702 -3.8524 0
M  V30 976 H 88.833 -3.44271 -5.57815 0
M  V30 977 H 88.353 -1.73785 -5.74072 0
M  V30 978 H 90.032 -2.23042 -6.0734 0
M  V30 979 N 90.1641 1.46063 -0.591896 0
M  V30 980 C 91.3941 2.06418 -0.0867676 0
M  V30 981 C 91.8021 1.43975 1.22751 0
M  V30 982 O 91.1451 0.542531 1.75506 0
M  V30 983 C 91.2071 3.59213 0.143725 0
M  V30 984 C 90.8711 4.439 -1.08635 0
M  V30 985 C 91.8681 4.79864 -2.00067 0
M  V30 986 C 89.5531 4.84896 -1.31077 0
M  V30 987 C 91.5471 5.55661 -3.12282 0
M  V30 988 C 89.2341 5.6045 -2.43596 0
M  V30 989 C 90.2321 5.95747 -3.34027 0
M  V30 990 O 89.9201 6.69772 -4.4459 0
M  V30 991 H 89.6521 0.673443 -0.0587447 0
M  V30 992 H 92.2061 1.88539 -0.814994 0
M  V30 993 H 90.4361 3.75433 0.926668 0
M  V30 994 H 92.1251 4.01463 0.5985 0
M  V30 995 H 92.8911 4.48763 -1.83947 0
M  V30 996 H 88.7701 4.56867 -0.61594 0
M  V30 997 H 92.3141 5.8313 -3.82891 0
M  V30 998 H 88.2111 5.90965 -2.59674 0
M  V30 999 H 88.9791 6.88207 -4.43073 0
M  V30 1000 N 91.6422 0.330177 1.54103 0
M  V30 1001 C 92.5742 -0.566902 2.22079 0
M  V30 1002 C 93.5872 -1.07462 1.22294 0
M  V30 1003 O 94.7762 -0.987065 1.48726 0
M  V30 1004 C 91.8762 -1.79138 2.87685 0
M  V30 1005 C 91.0492 -1.42123 4.13666 0
M  V30 1006 C 90.1082 -2.50394 4.62806 0
M  V30 1007 O 89.1342 -2.14261 5.27334 0
M  V30 1008 N 90.3362 -3.81433 4.37595 0
M  V30 1009 H 93.1012 0.0151844 2.99696 0
M  V30 1010 H 90.6622 0.153681 1.61169 0
M  V30 1011 H 92.6542 -2.50975 3.1748 0
M  V30 1012 H 91.2242 -2.28115 2.13734 0
M  V30 1013 H 90.4442 -0.534201 3.90564 0
M  V30 1014 H 91.7322 -1.14971 4.9564 0
M  V30 1015 H 91.1302 -4.13584 3.8596 0
M  V30 1016 H 89.6872 -4.4948 4.72029 0
M  V30 1017 N 93.1203 -1.57491 0.0584922 0
M  V30 1018 C 94.3683 -1.92597 -0.612436 0
M  V30 1019 C 94.6893 -0.938162 -1.70949 0
M  V30 1020 O 93.9593 0.0158301 -1.95894 0
M  V30 1021 H 92.5393 -0.710964 -0.229214 0
M  V30 1022 H 95.2013 -1.94571 0.113218 0
M  V30 1023 H 94.2973 -2.94038 -1.04633 0
M  V30 1024 N 94.5984 0.214957 -1.56127 0
M  V30 1025 C 95.8464 0.936518 -1.79091 0
M  V30 1026 C 96.1674 1.84606 -0.628148 0
M  V30 1027 O 95.4374 1.92664 0.35462 0
M  V30 1028 H 94.0174 0.3488 -0.660566 0
M  V30 1029 H 96.6794 0.22523 -1.93594 0
M  V30 1030 H 95.7754 1.53943 -2.71492 0
M  V30 1031 N 96.0765 1.50051 0.48192 0
M  V30 1032 C 97.3535 1.51009 1.2432 0
M  V30 1033 C 97.7335 0.248587 2.09631 0
M  V30 1034 O 97.0815 -0.768409 2.15192 0
M  V30 1035 C 97.2915 2.79981 2.08355 0
M  V30 1036 C 98.6395 3.3022 2.66908 0
M  V30 1037 O 99.6635 2.81228 2.18607 0
M  V30 1038 O 98.5225 4.15595 3.54884 0
M  V30 1039 H 95.6165 0.605239 0.563573 0
M  V30 1040 H 98.1625 1.62332 0.494627 0
M  V30 1041 H 96.9345 3.63275 1.45419 0
M  V30 1042 H 96.5575 2.7161 2.90368 0
M  V30 1043 N 97.5546 -0.734337 1.39446 0
M  V30 1044 C 98.4846 -1.86155 1.40955 0
M  V30 1045 C 99.4656 -1.67898 0.272827 0
M  V30 1046 O 100.651 -1.88207 0.478743 0
M  V30 1047 C 97.7806 -3.23912 1.25294 0
M  V30 1048 C 96.7346 -3.56808 2.36373 0
M  V30 1049 C 96.0606 -4.93508 2.058 0
M  V30 1050 C 97.3606 -3.59713 3.78687 0
M  V30 1051 H 99.0546 -1.8515 2.35287 0
M  V30 1052 H 96.6006 -0.889367 1.13253 0
M  V30 1053 H 98.5536 -4.02443 1.2497 0
M  V30 1054 H 97.2776 -3.25446 0.274308 0
M  V30 1055 H 95.9366 -2.80606 2.35914 0
M  V30 1056 H 95.5846 -4.91623 1.06374 0
M  V30 1057 H 95.2846 -5.16486 2.80208 0
M  V30 1058 H 96.8086 -5.74396 2.07128 0
M  V30 1059 H 98.2226 -4.2832 3.81071 0
M  V30 1060 H 96.6196 -3.94209 4.52459 0
M  V30 1061 H 97.6896 -2.59504 4.09617 0
M  V30 1062 N 99.0327 -1.24633 -0.964593 0
M  V30 1063 C 99.9427 -1.05859 -2.09359 0
M  V30 1064 C 100.959 0.00148855 -1.74 0
M  V30 1065 O 102.135 -0.197346 -2.00431 0
M  V30 1066 C 99.1997 -0.668879 -3.40187 0
M  V30 1067 C 98.2607 -1.80578 -3.89474 0
M  V30 1068 C 97.4937 -1.43457 -5.14058 0
M  V30 1069 O 97.7167 -0.325775 -5.69469 0
M  V30 1070 O 96.6507 -2.2613 -5.57807 0
M  V30 1071 H 100.477 -2.00516 -2.28094 0
M  V30 1072 H 98.0617 -1.03481 -1.0776 0
M  V30 1073 H 99.9437 -0.463211 -4.18846 0
M  V30 1074 H 98.6187 0.248536 -3.22744 0
M  V30 1075 H 97.5257 -2.06623 -3.11862 0
M  V30 1076 H 98.8587 -2.70208 -4.11398 0
M  V30 1077 N 100.511 1.16574 -1.06058 0
M  V30 1078 C 101.458 2.20883 -0.669263 0
M  V30 1079 C 102.428 1.62729 0.332918 0
M  V30 1080 O 103.613 1.895 0.222346 0
M  V30 1081 C 100.753 3.45049 -0.0593572 0
M  V30 1082 C 99.8658 4.17458 -1.11143 0
M  V30 1083 C 99.0008 5.29135 -0.467916 0
M  V30 1084 C 98.0398 5.93343 -1.50369 0
M  V30 1085 N 97.1768 6.96516 -0.883706 0
M  V30 1086 H 102.017 2.53709 -1.5632 0
M  V30 1087 H 99.5538 1.24616 -0.781625 0
M  V30 1088 H 101.512 4.16033 0.311771 0
M  V30 1089 H 100.142 3.12781 0.797992 0
M  V30 1090 H 99.1938 3.45101 -1.60029 0
M  V30 1091 H 100.506 4.61307 -1.89731 0
M  V30 1092 H 99.6598 6.06684 -0.0436871 0
M  V30 1093 H 98.3988 4.86443 0.349864 0
M  V30 1094 H 97.4038 5.14517 -1.93784 0
M  V30 1095 H 98.6288 6.38114 -2.32352 0
M  V30 1096 H 96.5748 6.55943 -0.086595 0
M  V30 1097 H 96.4918 7.38723 -1.607 0
M  V30 1098 H 97.7598 7.77993 -0.484543 0
M  V30 1099 N 101.989 0.842826 1.3317 0
M  V30 1100 C 103.229 0.446574 1.99462 0
M  V30 1101 C 103.593 -0.976818 1.65295 0
M  V30 1102 O 104.794 -1.477 2.24584 0
M  V30 1103 C 103.065 0.665353 3.51152 0
M  V30 1104 S 104.624 0.364911 4.3728 0
M  V30 1105 H 101.442 0.167803 0.690915 0
M  V30 1106 H 104.044 1.09297 1.62094 0
M  V30 1107 H 102.748 1.7006 3.73507 0
M  V30 1108 H 102.279 0.00494568 3.934 0
M  V30 1109 H 104.294 -0.813761 4.89482 0
M  V30 1110 N 103.467 -1.45747 0.599634 0
M  V30 1111 C 104.417 -2.27538 -0.145107 0
M  V30 1112 C 105.401 -1.3686 -0.846055 0
M  V30 1113 O 106.593 -1.6091 -0.737357 0
M  V30 1114 C 103.722 -3.23569 -1.14708 0
M  V30 1115 C 102.808 -4.21734 -0.447383 0
M  V30 1116 N 103.199 -5.03257 0.506535 0
M  V30 1117 C 101.497 -4.40536 -0.695966 0
M  V30 1118 C 102.198 -5.74426 0.917068 0
M  V30 1119 N 101.174 -5.42966 0.26253 0
M  V30 1120 H 104.976 -2.87965 0.587672 0
M  V30 1121 H 102.49 -1.56803 0.422697 0
M  V30 1122 H 104.487 -3.8089 -1.69495 0
M  V30 1123 H 103.147 -2.64702 -1.8805 0
M  V30 1124 H 104.158 -5.10319 0.882899 0
M  V30 1125 H 100.835 -3.92802 -1.41467 0
M  V30 1126 H 102.225 -6.4995 1.70338 0
M  V30 1127 N 104.945 -0.338344 -1.53925 0
M  V30 1128 C 106.361 0.0137736 -1.59594 0
M  V30 1129 C 106.561 1.49186 -1.35447 0
M  V30 1130 O 105.617 2.24987 -1.14616 0
M  V30 1131 C 106.93 -0.41773 -2.97784 0
M  V30 1132 C 108.478 -0.369633 -3.1081 0
M  V30 1133 C 108.953 -0.776524 -4.51369 0
M  V30 1134 N 110.444 -0.730506 -4.57403 0
M  V30 1135 C 111.179 -1.01736 -5.64303 0
M  V30 1136 N 110.675 -1.3721 -6.79077 0
M  V30 1137 N 112.468 -0.941942 -5.54151 0
M  V30 1138 H 104.619 -1.3012 -1.67876 0
M  V30 1139 H 106.882 -0.530082 -0.78595 0
M  V30 1140 H 106.588 -1.44811 -3.20504 0
M  V30 1141 H 106.462 0.209729 -3.76616 0
M  V30 1142 H 108.849 0.651568 -2.87817 0
M  V30 1143 H 108.93 -1.03223 -2.34049 0
M  V30 1144 H 108.574 -1.79571 -4.75096 0
M  V30 1145 H 108.504 -0.0914649 -5.26521 0
M  V30 1146 H 110.995 -0.468783 -3.74981 0
M  V30 1147 H 111.308 -1.57597 -7.5656 0
M  V30 1148 H 109.653 -1.4105 -6.80536 0
M  V30 1149 H 112.844 -0.664184 -4.63364 0
M  V30 1150 H 113.017 -1.16884 -6.37371 0
M  V30 1151 N 106.423 1.57458 -0.0668435 0
M  V30 1152 C 107.386 2.11323 0.887422 0
M  V30 1153 C 108.386 1.03618 1.22964 0
M  V30 1154 O 109.576 1.29626 1.16373 0
M  V30 1155 C 106.708 2.61048 2.19242 0
M  V30 1156 H 107.901 2.96942 0.420194 0
M  V30 1157 H 105.454 1.55239 0.181793 0
M  V30 1158 H 106.189 1.78868 2.70512 0
M  V30 1159 H 105.974 3.39769 1.95702 0
M  V30 1160 H 107.464 3.02814 2.87565 0
M  V30 1161 N 107.901 -0.206675 1.56239 0
M  V30 1162 C 109.312 -0.772383 1.69974 0
M  V30 1163 C 109.663 -1.84353 0.671436 0
M  V30 1164 O 108.788 -2.15695 -0.174491 0
M  V30 1165 C 109.383 -1.40779 3.08167 0
M  V30 1166 C 107.942 -1.92072 3.23706 0
M  V30 1167 C 107.089 -0.786347 2.65917 0
M  V30 1168 H 110.04 0.0182223 1.5869 0
M  V30 1169 H 110.061 -2.27696 3.04852 0
M  V30 1170 H 109.573 -0.627958 3.82986 0
M  V30 1171 H 107.674 -2.7281 2.53782 0
M  V30 1172 H 107.787 -2.09046 4.31087 0
M  V30 1173 H 106.151 -1.1976 2.24788 0
M  V30 1174 H 106.934 -0.0189416 3.43295 0
M  V30 1175 N 109.379 -1.50304 -0.473955 0
M  V30 1176 C 110.628 -1.60392 -1.22301 0
M  V30 1177 C 110.941 -0.308411 -1.93153 0
M  V30 1178 O 112.147 -0.288156 -2.69966 0
M  V30 1179 C 110.603 -2.83109 -2.2221 0
M  V30 1180 C 110.211 -4.19524 -1.57173 0
M  V30 1181 C 111.955 -3.0254 -2.97775 0
M  V30 1182 C 109.862 -5.33431 -2.55353 0
M  V30 1183 H 108.792 -0.597286 -0.460179 0
M  V30 1184 H 111.443 -1.76731 -0.493803 0
M  V30 1185 H 109.825 -2.60322 -2.9841 0
M  V30 1186 H 110.999 -4.52554 -0.867824 0
M  V30 1187 H 109.314 -4.05674 -0.939002 0
M  V30 1188 H 111.911 -3.84811 -3.71248 0
M  V30 1189 H 112.254 -2.14154 -3.56992 0
M  V30 1190 H 112.787 -3.25494 -2.28688 0
M  V30 1191 H 109.526 -6.23962 -2.00878 0
M  V30 1192 H 109.046 -5.04823 -3.23904 0
M  V30 1193 H 110.725 -5.63887 -3.17239 0
M  V30 1194 N 110.857 0.726932 -1.39834 0
M  V30 1195 C 112.104 1.48664 -1.37496 0
M  V30 1196 C 112.432 1.94482 0.0264678 0
M  V30 1197 O 111.687 1.67692 1.00886 0
M  V30 1198 C 111.986 2.73495 -2.30077 0
M  V30 1199 C 111.652 2.46502 -3.77555 0
M  V30 1200 C 110.314 2.3885 -4.17737 0
M  V30 1201 C 112.666 2.23604 -4.70798 0
M  V30 1202 C 109.994 2.06352 -5.49214 0
M  V30 1203 C 112.346 1.92622 -6.02561 0
M  V30 1204 C 111.01 1.83444 -6.41798 0
M  V30 1205 H 110.28 0.544001 -0.503135 0
M  V30 1206 H 112.927 0.833657 -1.72402 0
M  V30 1207 H 111.232 3.43575 -1.88317 0
M  V30 1208 H 112.929 3.31549 -2.25558 0
M  V30 1209 H 109.519 2.5334 -3.45712 0
M  V30 1210 H 113.703 2.28479 -4.40581 0
M  V30 1211 H 108.959 1.97776 -5.78528 0
M  V30 1212 H 113.133 1.73914 -6.74334 0
M  V30 1213 H 110.76 1.58029 -7.43593 0
M  V30 1214 N 112.336 1.25143 0.95797 0
M  V30 1215 C 113.269 0.995565 2.05338 0
M  V30 1216 C 114.247 -0.0740423 1.62431 0
M  V30 1217 O 115.431 0.0649212 1.88388 0
M  V30 1218 C 112.558 0.504298 3.34925 0
M  V30 1219 C 111.604 1.56393 3.96792 0
M  V30 1220 S 112.437 3.14815 4.33188 0
M  V30 1221 C 113.593 2.67415 5.65898 0
M  V30 1222 H 113.826 1.92309 2.26726 0
M  V30 1223 H 111.359 1.08635 1.09716 0
M  V30 1224 H 113.317 0.227497 4.09869 0
M  V30 1225 H 111.978 -0.402671 3.11508 0
M  V30 1226 H 111.171 1.17082 4.90212 0
M  V30 1227 H 110.773 1.79124 3.28315 0
M  V30 1228 H 113.065 2.10833 6.4386 0
M  V30 1229 H 114.008 3.59463 6.10076 0
M  V30 1230 H 114.416 2.07521 5.24972 0
M  V30 1231 N 113.814 -1.1601 1.06675 0
M  V30 1232 C 115.23 -1.38622 0.790948 0
M  V30 1233 C 115.43 -1.92109 -0.607965 0
M  V30 1234 O 114.486 -2.12239 -1.36787 0
M  V30 1235 C 115.799 -2.36347 1.85905 0
M  V30 1236 C 117.347 -2.50023 1.88301 0
M  V30 1237 C 117.822 -3.51033 2.94176 0
M  V30 1238 N 119.313 -3.58563 2.93235 0
M  V30 1239 C 120.048 -4.36521 3.71803 0
M  V30 1240 N 119.544 -5.17869 4.602 0
M  V30 1241 N 121.337 -4.31541 3.60178 0
M  V30 1242 H 113.488 -0.796294 1.96908 0
M  V30 1243 H 115.751 -0.412597 0.853503 0
M  V30 1244 H 115.457 -2.04147 2.86386 0
M  V30 1245 H 115.331 -3.36042 1.71334 0
M  V30 1246 H 117.718 -2.81524 0.884769 0
M  V30 1247 H 117.799 -1.5035 2.06951 0
M  V30 1248 H 117.443 -3.20268 3.94196 0
M  V30 1249 H 117.373 -4.50445 2.72776 0
M  V30 1250 H 119.864 -3.00496 2.29152 0
M  V30 1251 H 120.177 -5.74578 5.16797 0
M  V30 1252 H 118.522 -5.17199 4.64253 0
M  V30 1253 H 121.713 -3.67051 2.90502 0
M  V30 1254 H 121.886 -4.9205 4.21653 0
M  V30 1255 N 115.292 -0.849877 -1.32721 0
M  V30 1256 C 116.538 -0.451591 -1.97708 0
M  V30 1257 C 116.871 0.989175 -1.6712 0
M  V30 1258 O 116.146 1.69334 -0.956891 0
M  V30 1259 C 116.429 -0.685598 -3.53513 0
M  V30 1260 C 116.282 -2.17444 -3.93749 0
M  V30 1261 C 117.601 -0.138874 -4.39881 0
M  V30 1262 H 114.72 -0.16555 -0.718166 0
M  V30 1263 H 117.362 -1.06742 -1.57182 0
M  V30 1264 H 115.512 -0.161416 -3.88165 0
M  V30 1265 H 117.184 -2.76433 -3.693 0
M  V30 1266 H 115.427 -2.65476 -3.43081 0
M  V30 1267 H 116.098 -2.28888 -5.02309 0
M  V30 1268 H 118.574 -0.587068 -4.11938 0
M  V30 1269 H 117.45 -0.332213 -5.47894 0
M  V30 1270 H 117.711 0.95806 -4.31594 0
M  V30 1271 N 116.77 1.45427 -0.607355 0
M  V30 1272 C 118.181 1.85756 -0.187535 0
M  V30 1273 C 118.532 1.5077 1.25551 0
M  V30 1274 O 117.657 0.93427 1.95193 0
M  V30 1275 C 118.252 3.37154 -0.333572 0
M  V30 1276 C 116.811 3.76387 0.0315542 0
M  V30 1277 C 115.958 2.69377 -0.658117 0
M  V30 1278 H 118.909 1.36231 -0.81405 0
M  V30 1279 H 118.93 3.78014 0.43428 0
M  V30 1280 H 118.442 3.62586 -1.38393 0
M  V30 1281 H 116.543 3.56571 1.0811 0
M  V30 1282 H 116.656 4.77731 -0.361935 0
M  V30 1283 H 115.02 2.5452 -0.0957873 0
M  V30 1284 H 115.803 2.97646 -1.7106 0
M  V30 1285 N 118.248 0.346503 1.53744 0
M  V30 1286 C 119.495 -0.249104 2.00962 0
M  V30 1287 C 119.823 -1.5032 1.23426 0
M  V30 1288 O 119.078 -1.93217 0.310761 0
M  V30 1289 C 119.377 -0.605809 3.52228 0
M  V30 1290 C 119.043 0.551747 4.47512 0
M  V30 1291 C 117.705 0.86941 4.73281 0
M  V30 1292 C 120.057 1.32818 5.03993 0
M  V30 1293 C 117.385 1.96582 5.52786 0
M  V30 1294 C 119.737 2.41486 5.84694 0
M  V30 1295 C 118.401 2.73808 6.08757 0
M  V30 1296 H 117.671 -0.0911538 0.735372 0
M  V30 1297 H 120.318 0.475027 1.85515 0
M  V30 1298 H 118.623 -1.4107 3.65522 0
M  V30 1299 H 120.32 -1.07858 3.86222 0
M  V30 1300 H 116.91 0.294102 4.2759 0
M  V30 1301 H 121.094 1.09602 4.84047 0
M  V30 1302 H 116.35 2.22045 5.69654 0
M  V30 1303 H 120.524 3.02078 6.27473 0
M  V30 1304 H 118.151 3.58892 6.7015 0
M  V30 1305 N 119.726 -1.57421 0.075193 0
M  V30 1306 C 120.656 -2.15942 -0.888324 0
M  V30 1307 C 121.637 -1.08737 -1.30806 0
M  V30 1308 O 122.822 -1.36787 -1.37851 0
M  V30 1309 C 119.952 -2.72379 -2.1547 0
M  V30 1310 C 118.906 -3.8478 -1.87425 0
M  V30 1311 C 118.232 -4.27834 -3.20721 0
M  V30 1312 C 119.532 -5.08869 -1.17684 0
M  V30 1313 H 121.226 -2.96705 -0.400799 0
M  V30 1314 H 118.772 -1.42723 -0.191342 0
M  V30 1315 H 120.725 -3.11965 -2.83295 0
M  V30 1316 H 119.449 -1.88841 -2.6647 0
M  V30 1317 H 118.108 -3.45703 -1.22004 0
M  V30 1318 H 117.756 -3.41214 -3.6957 0
M  V30 1319 H 117.456 -5.03605 -3.02746 0
M  V30 1320 H 118.98 -4.70039 -3.89738 0
M  V30 1321 H 120.394 -5.4575 -1.75584 0
M  V30 1322 H 118.791 -5.8994 -1.09956 0
M  V30 1323 H 119.861 -4.84648 -0.156453 0
M  V30 1324 N 121.204 0.198386 -1.56346 0
M  V30 1325 C 122.114 1.2664 -1.97483 0
M  V30 1326 C 123.13 1.49989 -0.882002 0
M  V30 1327 O 124.306 1.62668 -1.18748 0
M  V30 1328 C 121.371 2.59141 -2.30319 0
M  V30 1329 C 120.432 2.43892 -3.53292 0
M  V30 1330 C 119.665 3.70074 -3.84553 0
M  V30 1331 O 119.888 4.74101 -3.1715 0
M  V30 1332 O 118.822 3.658 -4.7799 0
M  V30 1333 H 122.648 0.947304 -2.88548 0
M  V30 1334 H 120.233 0.403123 -1.43859 0
M  V30 1335 H 122.115 3.37352 -2.5253 0
M  V30 1336 H 120.79 2.90684 -1.42423 0
M  V30 1337 H 119.697 1.63803 -3.36332 0
M  V30 1338 H 121.03 2.17282 -4.41644 0
M  V30 1339 N 122.682 1.50554 0.465978 0
M  V30 1340 C 123.929 1.61798 1.21768 0
M  V30 1341 C 124.257 0.320696 1.91838 0
M  V30 1342 O 123.512 -0.693724 1.82992 0
M  V30 1343 C 123.811 2.75152 2.28093 0
M  V30 1344 C 123.477 4.15454 1.75239 0
M  V30 1345 C 122.139 4.53628 1.60546 0
M  V30 1346 C 124.491 5.03121 1.36083 0
M  V30 1347 C 121.819 5.77204 1.05128 0
M  V30 1348 C 124.171 6.27249 0.821056 0
M  V30 1349 C 122.835 6.64221 0.660795 0
M  V30 1350 H 122.105 0.592063 0.445582 0
M  V30 1351 H 124.752 1.84503 0.512927 0
M  V30 1352 H 123.057 2.46556 3.04496 0
M  V30 1353 H 124.754 2.81055 2.86023 0
M  V30 1354 H 121.344 3.85341 1.87644 0
M  V30 1355 H 125.528 4.74257 1.46267 0
M  V30 1356 H 120.784 6.0452 0.91462 0
M  V30 1357 H 124.958 6.94537 0.509018 0
M  V30 1358 H 122.585 7.59854 0.229226 0
M  V30 1359 N 124.16 -0.719506 1.40217 0
M  V30 1360 C 125.107 -1.83359 1.40172 0
M  V30 1361 C 126.077 -1.64065 0.259206 0
M  V30 1362 O 127.262 -1.85254 0.456677 0
M  V30 1363 C 124.402 -3.2103 1.26624 0
M  V30 1364 C 123.515 -3.51923 2.50548 0
M  V30 1365 C 122.65 -4.79079 2.29471 0
M  V30 1366 C 121.689 -5.02863 3.48992 0
M  V30 1367 N 120.826 -6.2123 3.27135 0
M  V30 1368 H 125.666 -1.82733 2.35399 0
M  V30 1369 H 123.203 -0.892688 1.16917 0
M  V30 1370 H 125.161 -4.00524 1.16776 0
M  V30 1371 H 123.791 -3.20895 0.350176 0
M  V30 1372 H 122.843 -2.67014 2.70939 0
M  V30 1373 H 124.155 -3.6541 3.39525 0
M  V30 1374 H 123.309 -5.66582 2.16955 0
M  V30 1375 H 122.048 -4.67794 1.37913 0
M  V30 1376 H 121.053 -4.13816 3.6199 0
M  V30 1377 H 122.278 -5.16023 4.41472 0
M  V30 1378 H 120.224 -6.11204 2.38256 0
M  V30 1379 H 120.141 -6.35375 4.09675 0
M  V30 1380 H 121.409 -7.11532 3.18344 0
M  V30 1381 N 125.638 -1.25649 -0.95132 0
M  V30 1382 C 126.601 -1.06399 -2.03007 0
M  V30 1383 C 127.601 -0.0156794 -1.60792 0
M  V30 1384 O 128.791 -0.25817 -1.72276 0
M  V30 1385 C 125.923 -0.616184 -3.35285 0
M  V30 1386 H 127.116 -2.02164 -2.21517 0
M  V30 1387 H 124.669 -1.08103 -1.12887 0
M  V30 1388 H 125.404 0.343917 -3.22471 0
M  V30 1389 H 125.189 -1.37301 -3.67275 0
M  V30 1390 H 126.679 -0.503032 -4.14559 0
M  V30 1391 N 127.117 1.15442 -1.07289 0
M  V30 1392 C 128.528 1.67803 -0.818475 0
M  V30 1393 C 128.879 1.8489 0.656507 0
M  V30 1394 O 128.004 1.55176 1.50829 0
M  V30 1395 C 128.599 3.04805 -1.47917 0
M  V30 1396 C 127.158 3.54245 -1.27229 0
M  V30 1397 C 126.305 2.29986 -1.54925 0
M  V30 1398 H 129.256 0.996646 -1.23502 0
M  V30 1399 H 129.277 3.69702 -0.90005 0
M  V30 1400 H 128.789 2.92336 -2.55267 0
M  V30 1401 H 126.89 3.71956 -0.21899 0
M  V30 1402 H 127.003 4.35723 -1.99203 0
M  V30 1403 H 125.367 2.35496 -0.970242 0
M  V30 1404 H 126.15 2.20105 -2.63455 0
M  V30 1405 N 128.595 0.856903 1.32268 0
M  V30 1406 C 129.843 0.460474 1.96784 0
M  V30 1407 C 130.164 -0.987701 1.68135 0
M  V30 1408 O 129.434 -1.69058 0.989765 0
M  V30 1409 H 128.014 0.167289 0.728027 0
M  V30 1410 H 130.676 1.09383 1.61312 0
M  V30 1411 H 129.772 0.60739 3.06133 0
M  V30 1412 N 130.073 -1.45103 0.615059 0
M  V30 1413 C 131.322 -2.01396 0.110718 0
M  V30 1414 C 131.635 -1.48834 -1.26916 0
M  V30 1415 O 132.841 -1.97152 -1.86664 0
M  V30 1416 C 131.297 -3.59599 0.14723 0
M  V30 1417 C 130.905 -4.21158 1.52743 0
M  V30 1418 C 132.649 -4.23428 -0.30148 0
M  V30 1419 C 130.556 -5.71535 1.51992 0
M  V30 1420 H 129.486 -0.753061 0.0376241 0
M  V30 1421 H 132.137 -1.66494 0.77149 0
M  V30 1422 H 130.519 -3.91724 -0.580339 0
M  V30 1423 H 131.693 -4.00594 2.2773 0
M  V30 1424 H 130.008 -3.69552 1.91886 0
M  V30 1425 H 132.605 -5.33703 -0.326392 0
M  V30 1426 H 132.948 -3.94629 -1.32565 0
M  V30 1427 H 133.481 -3.96047 0.373065 0
M  V30 1428 H 130.22 -6.05044 2.52193 0
M  V30 1429 H 129.74 -5.94268 0.81274 0
M  V30 1430 H 131.419 -6.34873 1.24681 0
M  V30 1431 N 131.551 -0.354651 -1.53558 0
M  V30 1432 C 132.962 0.126902 -1.86268 0
M  V30 1433 C 133.313 1.49075 -1.27558 0
M  V30 1434 O 132.438 2.08105 -0.5934 0
M  V30 1435 C 133.033 0.237046 -3.3797 0
M  V30 1436 C 131.592 0.662842 -3.70518 0
M  V30 1437 C 130.739 -0.196652 -2.76602 0
M  V30 1438 H 133.69 -0.573849 -1.47962 0
M  V30 1439 H 133.711 1.06259 -3.65362 0
M  V30 1440 H 133.223 -0.755725 -3.80671 0
M  V30 1441 H 131.324 1.66424 -3.33367 0
M  V30 1442 H 131.437 0.445034 -4.77029 0
M  V30 1443 H 129.801 0.332763 -2.52517 0
M  V30 1444 H 130.584 -1.18676 -3.22135 0
M  V30 1445 N 133.029 1.57378 -0.0835403 0
M  V30 1446 C 134.254 1.98682 0.594987 0
M  V30 1447 C 134.679 0.961969 1.61641 0
M  V30 1448 O 134.037 -0.0709989 1.81161 0
M  V30 1449 C 134.085 3.38988 1.2296 0
M  V30 1450 O 133.189 3.39208 2.34546 0
M  V30 1451 H 132.53 0.646368 0.152002 0
M  V30 1452 H 135.06 2.03961 -0.161533 0
M  V30 1453 H 135.07 3.76431 1.57366 0
M  V30 1454 H 133.745 4.13107 0.481228 0
M  V30 1455 H 132.322 3.13548 2.01846 0
M  V30 1456 N 134.507 -0.190092 1.56449 0
M  V30 1457 C 135.755 -0.907908 1.80559 0
M  V30 1458 C 136.076 -1.83583 0.657438 0
M  V30 1459 O 135.346 -1.93203 -0.323924 0
M  V30 1460 H 133.926 -0.338247 0.666032 0
M  V30 1461 H 136.588 -0.194403 1.93928 0
M  V30 1462 H 135.684 -1.49604 2.73907 0
M  V30 1463 N 135.985 -1.50799 -0.457987 0
M  V30 1464 C 136.918 -1.65273 -1.57353 0
M  V30 1465 C 137.896 -0.500578 -1.54703 0
M  V30 1466 O 139.08 -0.721781 -1.74134 0
M  V30 1467 C 136.207 -1.64737 -2.95938 0
M  V30 1468 C 135.253 -2.8567 -3.16693 0
M  V30 1469 S 136.086 -4.46791 -2.95191 0
M  V30 1470 C 137.242 -4.48968 -4.36095 0
M  V30 1471 H 137.475 -2.59633 -1.44838 0
M  V30 1472 H 135.008 -1.40225 -0.64625 0
M  V30 1473 H 136.966 -1.65112 -3.7583 0
M  V30 1474 H 135.627 -0.715899 -3.05833 0
M  V30 1475 H 134.82 -2.81637 -4.17967 0
M  V30 1476 H 134.422 -2.8293 -2.44594 0
M  V30 1477 H 136.714 -4.23337 -5.28954 0
M  V30 1478 H 137.657 -5.50664 -4.45168 0
M  V30 1479 H 138.065 -3.78522 -4.18786 0
M  V30 1480 N 137.463 0.71206 -1.40597 0
M  V30 1481 C 138.373 1.8562 -1.43466 0
M  V30 1482 C 139.389 1.70902 -0.326902 0
M  V30 1483 O 140.565 1.93105 -0.572043 0
M  V30 1484 C 137.63 3.21451 -1.29884 0
M  V30 1485 C 136.691 3.48398 -2.50833 0
M  V30 1486 C 135.924 4.77749 -2.3789 0
M  V30 1487 O 136.147 5.53089 -1.39459 0
M  V30 1488 O 135.081 5.05111 -3.27333 0
M  V30 1489 H 138.907 1.86155 -2.39958 0
M  V30 1490 H 136.492 0.86295 -1.21957 0
M  V30 1491 H 138.374 4.02579 -1.24531 0
M  V30 1492 H 137.049 3.21636 -0.364997 0
M  V30 1493 H 135.956 2.67265 -2.61763 0
M  V30 1494 H 137.289 3.53014 -3.4299 0
M  V30 1495 N 138.941 1.26152 0.944643 0
M  V30 1496 C 140.169 1.14259 1.72489 0
M  V30 1497 C 140.584 -0.302555 1.8636 0
M  V30 1498 O 139.941 -1.20741 1.36849 0
M  V30 1499 C 139.992 1.80266 3.13347 0
M  V30 1500 O 139.713 3.19133 3.00143 0
M  V30 1501 C 141.214 1.74283 4.07603 0
M  V30 1502 H 138.434 0.398051 0.540181 0
M  V30 1503 H 140.978 1.66706 1.18446 0
M  V30 1504 H 139.133 1.31766 3.64303 0
M  V30 1505 H 139.547 3.51744 3.89071 0
M  V30 1506 H 141.021 2.25111 5.04013 0
M  V30 1507 H 141.498 0.708631 4.33446 0
M  V30 1508 H 142.104 2.22319 3.62567 0
M  V30 1509 N 140.419 -1.14872 1.07899 0
M  V30 1510 C 141.349 -2.2193 0.725887 0
M  V30 1511 C 142.33 -1.67622 -0.28927 0
M  V30 1512 O 143.515 -1.93533 -0.160787 0
M  V30 1513 C 140.645 -3.47061 0.128856 0
M  V30 1514 C 139.599 -4.14363 1.07178 0
M  V30 1515 C 138.925 -5.33636 0.337229 0
M  V30 1516 C 140.225 -4.63492 2.40775 0
M  V30 1517 H 141.919 -2.51724 1.62097 0
M  V30 1518 H 139.465 -1.20991 0.780838 0
M  V30 1519 H 141.418 -4.21199 -0.130147 0
M  V30 1520 H 140.142 -3.16617 -0.80134 0
M  V30 1521 H 138.801 -3.42173 1.3158 0
M  V30 1522 H 138.449 -4.99449 -0.596606 0
M  V30 1523 H 138.149 -5.79609 0.965788 0
M  V30 1524 H 139.673 -6.10539 0.0861567 0
M  V30 1525 H 141.087 -5.2913 2.20669 0
M  V30 1526 H 139.484 -5.20148 2.99276 0
M  V30 1527 H 140.554 -3.78834 3.02676 0
M  V30 1528 N 141.898 -0.863906 -1.31812 0
M  V30 1529 C 142.845 -0.313303 -2.28664 0
M  V30 1530 C 143.815 0.584868 -1.55462 0
M  V30 1531 O 145 0.517805 -1.83639 0
M  V30 1532 C 142.14 0.48441 -3.41683 0
M  V30 1533 C 141.253 -0.440594 -4.29747 0
M  V30 1534 C 140.388 0.370652 -5.29905 0
M  V30 1535 C 139.427 -0.551164 -6.09613 0
M  V30 1536 N 138.564 0.223462 -7.01744 0
M  V30 1537 H 143.404 -1.14444 -2.75148 0
M  V30 1538 H 140.941 -0.575769 -1.35364 0
M  V30 1539 H 142.899 0.962627 -4.05943 0
M  V30 1540 H 141.529 1.28029 -2.96325 0
M  V30 1541 H 140.581 -1.03724 -3.65986 0
M  V30 1542 H 141.893 -1.14767 -4.85417 0
M  V30 1543 H 141.047 0.911638 -5.99812 0
M  V30 1544 H 139.786 1.11105 -4.74876 0
M  V30 1545 H 138.791 -1.10396 -5.38603 0
M  V30 1546 H 140.016 -1.29032 -6.66729 0
M  V30 1547 H 137.962 0.946787 -6.49132 0
M  V30 1548 H 137.879 -0.424399 -7.54808 0
M  V30 1549 H 139.147 0.745876 -7.75923 0
M  V30 1550 N 143.376 1.44774 -0.622745 0
M  V30 1551 C 144.653 1.95522 -0.0551974 0
M  V30 1552 C 145.033 1.5649 1.41683 0
M  V30 1553 O 144.381 0.834848 2.12703 0
M  V30 1554 C 144.591 3.4796 -0.269242 0
M  V30 1555 C 145.939 4.24306 -0.158014 0
M  V30 1556 O 146.963 3.55637 -0.200162 0
M  V30 1557 O 145.822 5.46471 -0.0558693 0
M  V30 1558 H 142.916 0.826556 0.0271015 0
M  V30 1559 H 145.462 1.54866 -0.693864 0
M  V30 1560 H 144.234 3.6939 -1.29099 0
M  V30 1561 H 143.857 3.95543 0.403966 0
M  V30 1562 N 144.854 0.36279 1.53368 0
M  V30 1563 C 146.082 -0.228613 2.05633 0
M  V30 1564 C 146.497 -1.42676 1.23649 0
M  V30 1565 O 145.854 -1.80394 0.27647 0
M  V30 1566 C 145.905 -0.624845 3.56059 0
M  V30 1567 O 145.626 0.525675 4.34935 0
M  V30 1568 C 147.127 -1.27493 4.24571 0
M  V30 1569 H 144.347 -0.0407183 0.669763 0
M  V30 1570 H 146.891 0.520352 1.97769 0
M  V30 1571 H 145.046 -1.32373 3.64083 0
M  V30 1572 H 145.46 0.205969 5.24095 0
M  V30 1573 H 146.934 -1.50277 5.31151 0
M  V30 1574 H 147.411 -2.23439 3.78116 0
M  V30 1575 H 148.017 -0.617558 4.20792 0
M  V30 1576 N 146.332 -1.57332 0.0918853 0
M  V30 1577 C 147.743 -1.81496 -0.437739 0
M  V30 1578 C 148.094 -1.00727 -1.6837 0
M  V30 1579 O 147.219 -0.235694 -2.15113 0
M  V30 1580 C 147.814 -3.29197 -0.800939 0
M  V30 1581 C 146.373 -3.54136 -1.27532 0
M  V30 1582 C 145.52 -2.75979 -0.270392 0
M  V30 1583 H 148.471 -1.55494 0.317366 0
M  V30 1584 H 148.492 -3.42344 -1.66074 0
M  V30 1585 H 148.004 -3.87955 0.106078 0
M  V30 1586 H 146.105 -3.00705 -2.20016 0
M  V30 1587 H 146.218 -4.62792 -1.23938 0
M  V30 1588 H 144.582 -2.43349 -0.751872 0
M  V30 1589 H 145.365 -3.37484 0.629248 0
M  V30 1590 N 147.81 0.181792 -1.56548 0
M  V30 1591 C 148.773 1.20894 -1.94724 0
M  V30 1592 C 149.773 1.37738 -0.829747 0
M  V30 1593 O 150.963 1.35323 -1.09697 0
M  V30 1594 C 148.095 2.57593 -2.23291 0
M  V30 1595 H 149.288 0.882275 -2.86629 0
M  V30 1596 H 146.841 0.423838 -1.50444 0
M  V30 1597 H 147.576 2.95291 -1.34067 0
M  V30 1598 H 147.361 2.46735 -3.04736 0
M  V30 1599 H 148.851 3.31637 -2.53785 0
M  V30 1600 N 149.288 1.51039 0.449983 0
M  V30 1601 C 150.699 1.557 1.03026 0
M  V30 1602 C 151.05 0.372939 1.92623 0
M  V30 1603 O 150.175 -0.511771 2.10261 0
M  V30 1604 C 150.77 2.82171 1.87523 0
M  V30 1605 C 149.329 2.89444 2.40622 0
M  V30 1606 C 148.476 2.50228 1.19504 0
M  V30 1607 H 151.427 1.56999 0.231745 0
M  V30 1608 H 151.448 2.65219 2.72835 0
M  V30 1609 H 150.96 3.68331 1.22286 0
M  V30 1610 H 149.061 2.07685 3.0935 0
M  V30 1611 H 149.174 3.92816 2.74285 0
M  V30 1612 H 147.538 2.03139 1.53644 0
M  V30 1613 H 148.321 3.38719 0.558972 0
M  V30 1614 N 150.766 -0.704594 1.40972 0
M  V30 1615 C 152.182 -1.01406 1.23244 0
M  V30 1616 C 152.382 -2.01169 0.115399 0
M  V30 1617 O 151.438 -2.47021 -0.523147 0
M  V30 1618 C 152.751 -1.54728 2.57836 0
M  V30 1619 C 154.299 -1.66658 2.64942 0
M  V30 1620 C 154.774 -2.23383 3.9983 0
M  V30 1621 N 156.265 -2.30756 4.01629 0
M  V30 1622 C 157 -2.75655 5.02794 0
M  V30 1623 N 156.496 -3.20225 6.14352 0
M  V30 1624 N 158.289 -2.75138 4.90159 0
M  V30 1625 H 150.44 -0.0435285 2.12355 0
M  V30 1626 H 152.703 -0.0818951 0.944456 0
M  V30 1627 H 152.409 -0.888832 3.40283 0
M  V30 1628 H 152.283 -2.53084 2.79693 0
M  V30 1629 H 154.67 -2.31617 1.8286 0
M  V30 1630 H 154.751 -0.668717 2.46904 0
M  V30 1631 H 154.395 -1.59043 4.82357 0
M  V30 1632 H 154.325 -3.23904 4.15203 0
M  V30 1633 H 156.816 -1.99291 3.21079 0
M  V30 1634 H 157.129 -3.53084 6.87424 0
M  V30 1635 H 155.474 -3.18156 6.17901 0
M  V30 1636 H 158.665 -2.39661 4.02095 0
M  V30 1637 H 158.838 -3.09812 5.6914 0
M  V30 1638 N 152.244 -1.26651 -0.937939 0
M  V30 1639 C 153.174 -1.10993 -2.05433 0
M  V30 1640 C 154.155 -0.0142161 -1.70094 0
M  V30 1641 O 155.34 -0.186837 -1.93299 0
M  V30 1642 C 152.47 -0.745561 -3.39203 0
M  V30 1643 C 151.424 -1.79337 -3.88616 0
M  V30 1644 C 150.75 -1.28324 -5.19073 0
M  V30 1645 C 152.05 -3.19553 -4.13138 0
M  V30 1646 H 153.744 -2.0438 -2.1879 0
M  V30 1647 H 151.29 -0.984041 -1.05131 0
M  V30 1648 H 153.243 -0.622888 -4.16771 0
M  V30 1649 H 151.967 0.22401 -3.25831 0
M  V30 1650 H 150.626 -1.90477 -3.13231 0
M  V30 1651 H 150.274 -0.303414 -5.02084 0
M  V30 1652 H 149.974 -1.98369 -5.53103 0
M  V30 1653 H 151.498 -1.1733 -5.99221 0
M  V30 1654 H 152.912 -3.11471 -4.81309 0
M  V30 1655 H 151.309 -3.87218 -4.58457 0
M  V30 1656 H 152.379 -3.65368 -3.18801 0
M  V30 1657 N 153.722 1.14298 -1.08507 0
M  V30 1658 C 154.652 2.21542 -0.737646 0
M  V30 1659 C 155.633 1.67773 0.280377 0
M  V30 1660 O 156.818 1.93616 0.150521 0
M  V30 1661 C 153.948 3.46988 -0.147259 0
M  V30 1662 C 152.902 4.13789 -1.09374 0
M  V30 1663 C 152.228 5.33449 -0.365524 0
M  V30 1664 C 153.528 4.62208 -2.4323 0
M  V30 1665 H 155.222 2.5086 -1.6343 0
M  V30 1666 H 152.768 1.20576 -0.787243 0
M  V30 1667 H 154.721 4.21262 0.107808 0
M  V30 1668 H 153.445 3.17037 0.784538 0
M  V30 1669 H 152.104 3.4147 -1.33393 0
M  V30 1670 H 151.752 4.99759 0.57011 0
M  V30 1671 H 151.452 5.79088 -0.996512 0
M  V30 1672 H 152.976 6.10485 -0.118534 0
M  V30 1673 H 154.39 5.27952 -2.23472 0
M  V30 1674 H 152.787 5.18553 -3.02031 0
M  V30 1675 H 153.857 3.77224 -3.04681 0
M  V30 1676 N 155.201 0.870884 1.31352 0
M  V30 1677 C 156.148 0.325425 2.28494 0
M  V30 1678 C 157.118 -0.576615 1.5577 0
M  V30 1679 O 158.303 -0.508059 1.83911 0
M  V30 1680 C 155.443 -0.466283 3.41935 0
M  V30 1681 C 154.556 0.463378 4.29508 0
M  V30 1682 C 153.691 -0.342544 5.30094 0
M  V30 1683 C 152.73 0.583486 6.09313 0
M  V30 1684 N 151.867 -0.186244 7.01853 0
M  V30 1685 H 156.707 1.15901 2.74538 0
M  V30 1686 H 154.244 0.58294 1.35056 0
M  V30 1687 H 156.202 -0.941085 4.06447 0
M  V30 1688 H 154.832 -1.26456 2.97 0
M  V30 1689 H 153.884 1.05663 3.65431 0
M  V30 1690 H 155.196 1.1734 4.84802 0
M  V30 1691 H 154.35 -0.879816 6.00287 0
M  V30 1692 H 153.089 -1.08585 4.75458 0
M  V30 1693 H 152.094 1.13251 5.3801 0
M  V30 1694 H 153.319 1.32566 6.66035 0
M  V30 1695 H 151.265 -0.912348 6.49625 0
M  V30 1696 H 151.182 0.464422 7.54572 0
M  V30 1697 H 152.45 -0.704716 7.76308 0
M  V30 1698 N 156.679 -1.44442 0.630414 0
M  V30 1699 C 157.907 -2.06414 0.141671 0
M  V30 1700 C 158.322 -1.47105 -1.18345 0
M  V30 1701 O 157.679 -0.593662 -1.72574 0
M  V30 1702 C 157.73 -3.61494 0.0199784 0
M  V30 1703 O 157.451 -4.18594 1.29269 0
M  V30 1704 C 158.952 -4.40499 -0.497544 0
M  V30 1705 H 156.172 -0.666292 0.0793452 0
M  V30 1706 H 158.716 -1.85323 0.864614 0
M  V30 1707 H 156.871 -3.8185 -0.653402 0
M  V30 1708 H 157.285 -5.12026 1.13707 0
M  V30 1709 H 158.759 -5.49433 -0.531708 0
M  V30 1710 H 159.236 -4.11895 -1.52445 0
M  V30 1711 H 159.842 -4.25061 0.142562 0
M  V30 1712 N 158.157 -0.370918 -1.53173 0
M  V30 1713 C 159.107 0.489588 -2.22681 0
M  V30 1714 C 160.091 1.04442 -1.22395 0
M  V30 1715 O 161.283 0.973578 -1.47819 0
M  V30 1716 C 158.412 1.626 -3.02351 0
M  V30 1717 C 157.498 1.08379 -4.10018 0
M  V30 1718 N 157.889 0.265004 -5.05105 0
M  V30 1719 C 156.187 1.35809 -4.2482 0
M  V30 1720 C 156.888 -0.0324755 -5.81691 0
M  V30 1721 N 155.864 0.566581 -5.40639 0
M  V30 1722 H 159.666 -0.142729 -2.93553 0
M  V30 1723 H 157.18 -0.179221 -1.61408 0
M  V30 1724 H 159.177 2.2547 -3.50669 0
M  V30 1725 H 157.837 2.26132 -2.33011 0
M  V30 1726 H 158.848 -0.0962352 -5.17811 0
M  V30 1727 H 155.525 1.9958 -3.66707 0
M  V30 1728 H 156.915 -0.69473 -6.68299 0
M  V30 1729 N 159.635 1.57281 -0.100228 0
M  V30 1730 C 160.565 2.17328 0.853857 0
M  V30 1731 C 161.546 1.10804 1.2906 0
M  V30 1732 O 162.731 1.38963 1.35657 0
M  V30 1733 C 159.861 2.75772 2.11109 0
M  V30 1734 C 158.815 3.87713 1.81279 0
M  V30 1735 C 158.141 4.32882 3.13874 0
M  V30 1736 C 159.441 5.10677 1.09574 0
M  V30 1737 H 161.135 2.97305 0.353545 0
M  V30 1738 H 158.681 1.43009 0.168612 0
M  V30 1739 H 160.634 3.16433 2.78296 0
M  V30 1740 H 159.358 1.93057 2.63432 0
M  V30 1741 H 158.017 3.476 1.16489 0
M  V30 1742 H 157.665 3.47051 3.64095 0
M  V30 1743 H 157.365 5.08358 2.94696 0
M  V30 1744 H 158.889 4.7618 3.82211 0
M  V30 1745 H 160.303 5.48474 1.66879 0
M  V30 1746 H 158.7 5.91615 1.00557 0
M  V30 1747 H 159.77 4.84835 0.0793299 0
M  V30 1748 N 161.113 -0.173488 1.56642 0
M  V30 1749 C 162.524 -0.736155 1.71574 0
M  V30 1750 C 162.875 -1.82888 0.710389 0
M  V30 1751 O 162 -2.16017 -0.1287 0
M  V30 1752 C 162.595 -1.34211 3.11083 0
M  V30 1753 C 161.154 -1.85162 3.27707 0
M  V30 1754 C 160.301 -0.729765 2.67525 0
M  V30 1755 H 163.252 0.0518786 1.58615 0
M  V30 1756 H 163.273 -2.21178 3.09613 0
M  V30 1757 H 162.785 -0.546579 3.84232 0
M  V30 1758 H 160.886 -2.67366 2.59512 0
M  V30 1759 H 160.999 -1.99855 4.35425 0
M  V30 1760 H 159.363 -1.14965 2.27278 0
M  V30 1761 H 160.146 0.0538806 3.43258 0
M  V30 1762 N 162.591 -1.51276 -0.441967 0
M  V30 1763 C 163.521 -1.752 -1.54361 0
M  V30 1764 C 164.502 -0.601682 -1.59103 0
M  V30 1765 O 165.687 -0.843913 -1.74905 0
M  V30 1766 C 162.817 -1.87282 -2.92477 0
M  V30 1767 C 161.771 -3.02687 -3.02596 0
M  V30 1768 C 161.097 -2.99947 -4.42647 0
M  V30 1769 C 162.397 -4.4273 -2.77106 0
M  V30 1770 H 164.091 -2.67442 -1.34592 0
M  V30 1771 H 161.637 -1.28694 -0.646048 0
M  V30 1772 H 163.59 -2.02602 -3.695 0
M  V30 1773 H 162.314 -0.916844 -3.13467 0
M  V30 1774 H 160.973 -2.87065 -2.28012 0
M  V30 1775 H 160.621 -2.02136 -4.60597 0
M  V30 1776 H 160.321 -3.77439 -4.50348 0
M  V30 1777 H 161.845 -3.17354 -5.2165 0
M  V30 1778 H 163.259 -4.58727 -3.43864 0
M  V30 1779 H 161.656 -5.21893 -2.96222 0
M  V30 1780 H 162.726 -4.53087 -1.72744 0
M  V30 1781 N 164.069 0.697108 -1.41344 0
M  V30 1782 C 165.032 1.79281 -1.42797 0
M  V30 1783 C 166.032 1.57607 -0.318837 0
M  V30 1784 O 167.222 1.64309 -0.578642 0
M  V30 1785 C 164.354 3.17632 -1.23785 0
M  V30 1786 H 165.547 1.79385 -2.40335 0
M  V30 1787 H 163.1 0.904582 -1.27464 0
M  V30 1788 H 163.835 3.23167 -0.270814 0
M  V30 1789 H 163.62 3.34765 -2.04144 0
M  V30 1790 H 165.11 3.97617 -1.27633 0
M  V30 1791 N 165.547 1.27147 0.931209 0
M  V30 1792 C 166.477 1.12081 2.04842 0
M  V30 1793 C 167.458 0.0232364 1.70084 0
M  V30 1794 O 168.643 0.197085 1.93197 0
M  V30 1795 C 165.773 0.76354 3.38803 0
M  V30 1796 C 164.727 1.81396 3.87659 0
M  V30 1797 C 164.053 1.31075 5.18385 0
M  V30 1798 C 165.353 3.21739 4.11438 0
M  V30 1799 H 167.047 2.05537 2.17703 0
M  V30 1800 H 164.593 0.989603 1.04608 0
M  V30 1801 H 166.546 0.644982 4.16435 0
M  V30 1802 H 165.27 -0.206727 3.25945 0
M  V30 1803 H 163.929 1.92136 3.12217 0
M  V30 1804 H 163.577 0.330037 5.01916 0
M  V30 1805 H 163.277 2.013 5.52044 0
M  V30 1806 H 164.801 1.20506 5.98591 0
M  V30 1807 H 166.215 3.14019 4.79651 0
M  V30 1808 H 164.612 3.89644 4.56397 0
M  V30 1809 H 165.682 3.67054 3.16859 0
M  V30 1810 N 167.025 -1.13721 1.09112 0
M  V30 1811 C 167.955 -2.21148 0.749385 0
M  V30 1812 C 168.936 -1.6792 -0.271475 0
M  V30 1813 O 170.121 -1.93693 -0.140251 0
M  V30 1814 C 167.251 -3.46905 0.165659 0
M  V30 1815 C 166.205 -4.13203 1.11567 0
M  V30 1816 C 165.531 -5.33248 0.393809 0
M  V30 1817 C 166.831 -4.60912 2.45678 0
M  V30 1818 H 168.525 -2.4999 1.64758 0
M  V30 1819 H 166.071 -1.20156 0.793626 0
M  V30 1820 H 168.024 -4.21313 -0.085466 0
M  V30 1821 H 166.748 -3.17449 -0.767714 0
M  V30 1822 H 165.407 -3.40758 1.35202 0
M  V30 1823 H 165.055 -5.00054 -0.543599 0
M  V30 1824 H 164.755 -5.78552 1.02721 0
M  V30 1825 H 166.279 -6.10413 0.150908 0
M  V30 1826 H 167.693 -5.26759 2.26269 0
M  V30 1827 H 166.09 -5.16944 3.04776 0
M  V30 1828 H 167.16 -3.75603 3.06677 0
M  V30 1829 N 168.503 -0.877838 -1.30888 0
M  V30 1830 C 169.914 -0.544193 -1.78593 0
M  V30 1831 C 170.265 0.939301 -1.72254 0
M  V30 1832 O 169.39 1.7337 -1.29505 0
M  V30 1833 C 169.985 -0.98105 -3.24285 0
M  V30 1834 C 168.544 -0.698935 -3.69854 0
M  V30 1835 C 167.691 -1.168 -2.51502 0
M  V30 1836 H 170.642 -1.06278 -1.17859 0
M  V30 1837 H 170.663 -0.307009 -3.79259 0
M  V30 1838 H 170.175 -2.06079 -3.28866 0
M  V30 1839 H 168.276 0.369112 -3.70767 0
M  V30 1840 H 168.389 -1.28148 -4.61644 0
M  V30 1841 H 166.753 -0.587535 -2.47831 0
M  V30 1842 H 167.536 -2.25533 -2.58824 0
M  V30 1843 N 169.982 1.44106 -0.638065 0
M  V30 1844 C 170.914 2.28976 0.101205 0
M  V30 1845 C 171.927 1.4167 0.802088 0
M  V30 1846 O 173.116 1.65755 0.662375 0
M  V30 1847 C 170.216 3.18217 1.16581 0
M  V30 1848 C 169.389 4.33978 0.546066 0
M  V30 1849 C 168.448 5.04202 1.50554 0
M  V30 1850 O 167.474 5.59986 1.01999 0
M  V30 1851 N 168.676 5.06296 2.8398 0
M  V30 1852 H 171.441 2.93064 -0.627186 0
M  V30 1853 H 169.002 1.54629 -0.479731 0
M  V30 1854 H 170.994 3.62061 1.80815 0
M  V30 1855 H 169.564 2.55833 1.79634 0
M  V30 1856 H 168.784 3.93239 -0.275046 0
M  V30 1857 H 170.072 5.08675 0.112793 0
M  V30 1858 H 169.47 4.62319 3.26002 0
M  V30 1859 H 168.027 5.53907 3.43556 0
M  V30 1860 N 171.46 0.379036 1.52974 0
M  V30 1861 C 172.688 -0.20679 2.05864 0
M  V30 1862 C 173.103 -1.41356 1.25155 0
M  V30 1863 O 172.46 -1.8009 0.295588 0
M  V30 1864 C 172.511 -0.587045 3.56702 0
M  V30 1865 O 172.232 0.571776 4.34353 0
M  V30 1866 C 173.733 -1.22983 4.25899 0
M  V30 1867 H 170.953 -0.0336123 0.670158 0
M  V30 1868 H 173.497 0.541298 1.97206 0
M  V30 1869 H 171.652 -1.28504 3.65466 0
M  V30 1870 H 172.066 0.261544 5.23847 0
M  V30 1871 H 173.54 -1.44635 5.32715 0
M  V30 1872 H 174.017 -2.19416 3.80465 0
M  V30 1873 H 174.623 -0.572892 4.21424 0
M  V30 1874 N 172.938 -1.57226 0.108567 0
M  V30 1875 C 173.868 -2.17778 -0.84232 0
M  V30 1876 C 174.849 -1.11487 -1.2847 0
M  V30 1877 O 176.034 -1.39681 -1.34918 0
M  V30 1878 C 173.164 -2.76888 -2.09644 0
M  V30 1879 C 172.118 -3.88669 -1.79221 0
M  V30 1880 C 171.444 -4.34541 -3.11574 0
M  V30 1881 C 172.744 -5.11251 -1.06864 0
M  V30 1882 H 174.438 -2.97489 -0.337774 0
M  V30 1883 H 171.984 -1.43097 -0.161025 0
M  V30 1884 H 173.937 -3.17904 -2.76614 0
M  V30 1885 H 172.661 -1.94451 -2.62405 0
M  V30 1886 H 171.32 -3.48213 -1.14644 0
M  V30 1887 H 170.968 -3.48977 -3.62249 0
M  V30 1888 H 170.668 -5.09914 -2.91996 0
M  V30 1889 H 172.192 -4.782 -3.7968 0
M  V30 1890 H 173.606 -5.49352 -1.63968 0
M  V30 1891 H 172.003 -5.9214 -0.974178 0
M  V30 1892 H 173.073 -4.8487 -0.0536168 0
M  V30 1893 N 174.416 0.165178 -1.56732 0
M  V30 1894 C 175.346 1.20651 -1.99914 0
M  V30 1895 C 176.327 1.45827 -0.875705 0
M  V30 1896 O 177.512 1.57057 -1.14223 0
M  V30 1897 C 174.642 2.54401 -2.36427 0
M  V30 1898 C 173.596 2.43782 -3.51787 0
M  V30 1899 C 172.922 3.82078 -3.7406 0
M  V30 1900 C 174.222 1.93732 -4.85041 0
M  V30 1901 H 175.916 0.847534 -2.87154 0
M  V30 1902 H 173.462 0.40625 -1.38151 0
M  V30 1903 H 175.415 3.27458 -2.65234 0
M  V30 1904 H 174.139 2.92098 -1.46103 0
M  V30 1905 H 172.798 1.73178 -3.23117 0
M  V30 1906 H 172.446 4.17179 -2.81017 0
M  V30 1907 H 172.146 3.7584 -4.51684 0
M  V30 1908 H 173.67 4.56712 -4.05274 0
M  V30 1909 H 175.084 2.56569 -5.12684 0
M  V30 1910 H 173.481 1.98428 -5.66345 0
M  V30 1911 H 174.551 0.891962 -4.76626 0
M  V30 1912 N 175.894 1.51508 0.433938 0
M  V30 1913 C 177.171 1.54888 1.19453 0
M  V30 1914 C 177.551 0.315154 2.08734 0
M  V30 1915 O 176.899 -0.699558 2.17528 0
M  V30 1916 C 177.109 2.86467 1.99342 0
M  V30 1917 C 178.457 3.38545 2.56267 0
M  V30 1918 O 179.481 2.88041 2.0955 0
M  V30 1919 O 178.34 4.26675 3.41483 0
M  V30 1920 H 175.434 0.622863 0.544032 0
M  V30 1921 H 177.98 1.63823 0.442732 0
M  V30 1922 H 176.752 3.67718 1.33788 0
M  V30 1923 H 176.375 2.8071 2.8158 0
M  V30 1924 N 177.372 -0.689602 1.41712 0
M  V30 1925 C 178.304 -1.815 1.39966 0
M  V30 1926 C 179.317 -1.59995 0.300917 0
M  V30 1927 O 180.506 -1.69387 0.563039 0
M  V30 1928 C 177.606 -3.18364 1.16179 0
M  V30 1929 C 176.779 -3.66847 2.38206 0
M  V30 1930 C 175.838 -4.82398 2.10186 0
M  V30 1931 O 174.864 -4.93706 2.83272 0
M  V30 1932 N 176.066 -5.70064 1.0958 0
M  V30 1933 H 178.831 -1.83488 2.36965 0
M  V30 1934 H 176.392 -0.872149 1.36401 0
M  V30 1935 H 178.384 -3.93301 0.953756 0
M  V30 1936 H 176.954 -3.11365 0.27756 0
M  V30 1937 H 176.174 -2.82751 2.74673 0
M  V30 1938 H 177.462 -3.95978 3.19498 0
M  V30 1939 H 176.86 -5.63565 0.491019 0
M  V30 1940 H 175.417 -6.44874 0.947656 0
M  V30 1941 N 178.85 -1.27639 -0.924453 0
M  V30 1942 C 179.797 -1.10644 -2.0255 0
M  V30 1943 C 180.767 -0.00658438 -1.66099 0
M  V30 1944 O 181.952 -0.16952 -1.90045 0
M  V30 1945 C 179.092 -0.76309 -3.36557 0
M  V30 1946 C 178.205 -1.94091 -3.85944 0
M  V30 1947 C 177.34 -1.53914 -5.08413 0
M  V30 1948 C 176.379 -2.68425 -5.50104 0
M  V30 1949 N 175.516 -2.28815 -6.63768 0
M  V30 1950 H 180.356 -2.04858 -2.16419 0
M  V30 1951 H 177.893 -1.01974 -1.06017 0
M  V30 1952 H 179.851 -0.544822 -4.13627 0
M  V30 1953 H 178.481 0.142102 -3.22487 0
M  V30 1954 H 177.533 -2.27162 -3.05125 0
M  V30 1955 H 178.845 -2.7998 -4.12811 0
M  V30 1956 H 177.999 -1.28231 -5.92994 0
M  V30 1957 H 176.738 -0.651391 -4.8333 0
M  V30 1958 H 175.743 -2.94819 -4.64071 0
M  V30 1959 H 176.968 -3.57826 -5.7718 0
M  V30 1960 H 174.914 -1.42495 -6.40337 0
M  V30 1961 H 174.831 -3.08242 -6.90306 0
M  V30 1962 H 176.099 -2.06387 -7.51681 0
M  V30 1963 N 180.328 1.1314 -1.09713 0
M  V30 1964 C 181.574 1.84757 -0.836224 0
M  V30 1965 C 181.907 1.8347 0.636598 0
M  V30 1966 O 181.182 1.27491 1.46889 0
M  V30 1967 C 181.465 3.32782 -1.37578 0
M  V30 1968 C 181.318 3.42567 -2.91493 0
M  V30 1969 C 182.637 4.28307 -1.01198 0
M  V30 1970 H 179.756 0.67082 -0.305236 0
M  V30 1971 H 182.398 1.3278 -1.35903 0
M  V30 1972 H 180.548 3.77177 -0.931097 0
M  V30 1973 H 182.22 3.06862 -3.44432 0
M  V30 1974 H 180.463 2.83349 -3.28475 0
M  V30 1975 H 181.134 4.46674 -3.24324 0
M  V30 1976 H 183.61 3.91999 -1.39556 0
M  V30 1977 H 182.486 5.30307 -1.41653 0
M  V30 1978 H 182.747 4.42029 0.0794833 0
M  V30 1979 N 181.806 0.884767 1.30421 0
M  V30 1980 C 182.753 0.349642 2.28136 0
M  V30 1981 C 183.723 -0.560061 1.56373 0
M  V30 1982 O 184.908 -0.488524 1.8444 0
M  V30 1983 C 182.048 -0.42999 3.42411 0
M  V30 1984 C 181.161 0.508907 4.28992 0
M  V30 1985 C 180.296 -0.286301 5.30428 0
M  V30 1986 C 179.335 0.648079 6.08659 0
M  V30 1987 N 178.472 -0.111792 7.02011 0
M  V30 1988 H 183.312 1.18807 2.73293 0
M  V30 1989 H 180.849 0.597231 1.3443 0
M  V30 1990 H 182.807 -0.897923 4.07423 0
M  V30 1991 H 181.437 -1.23299 2.98324 0
M  V30 1992 H 180.489 1.09533 3.64289 0
M  V30 1993 H 181.801 1.22475 4.8353 0
M  V30 1994 H 180.955 -0.816098 6.01186 0
M  V30 1995 H 179.694 -1.03536 4.76583 0
M  V30 1996 H 178.699 1.18951 5.36778 0
M  V30 1997 H 179.924 1.39623 6.64592 0
M  V30 1998 H 177.87 -0.843395 6.50556 0
M  V30 1999 H 177.787 0.544429 7.54037 0
M  V30 2000 H 179.055 -0.622339 7.77012 0
M  V30 2001 N 183.284 -1.43765 0.645699 0
M  V30 2002 C 184.53 -2.02197 0.156271 0
M  V30 2003 C 184.863 -1.50776 -1.22393 0
M  V30 2004 O 184.138 -0.697771 -1.81553 0
M  V30 2005 C 184.421 -3.59749 0.158872 0
M  V30 2006 C 184.274 -4.21419 1.57245 0
M  V30 2007 C 185.593 -4.37149 -0.50879 0
M  V30 2008 H 182.712 -0.734694 0.0582602 0
M  V30 2009 H 185.354 -1.71157 0.824951 0
M  V30 2010 H 183.504 -3.86325 -0.410525 0
M  V30 2011 H 185.176 -4.059 2.19186 0
M  V30 2012 H 183.419 -3.78356 2.122 0
M  V30 2013 H 184.09 -5.30482 1.52619 0
M  V30 2014 H 186.566 -4.16093 -0.024412 0
M  V30 2015 H 185.442 -5.4683 -0.476213 0
M  V30 2016 H 185.703 -4.12839 -1.58165 0
M  V30 2017 N 184.763 -0.387143 -1.52771 0
M  V30 2018 C 186.009 0.196025 -2.0185 0
M  V30 2019 C 186.342 1.46641 -1.27319 0
M  V30 2020 O 185.617 1.90889 -0.373032 0
M  V30 2021 C 185.9 0.466136 -3.5707 0
M  V30 2022 C 185.753 -0.819385 -4.42274 0
M  V30 2023 C 187.072 1.25768 -4.21747 0
M  V30 2024 H 184.191 0.0697708 -0.73369 0
M  V30 2025 H 186.833 -0.516286 -1.82851 0
M  V30 2026 H 184.983 1.07293 -3.7339 0
M  V30 2027 H 186.655 -1.4563 -4.37709 0
M  V30 2028 H 184.898 -1.43517 -4.09372 0
M  V30 2029 H 185.569 -0.585065 -5.48891 0
M  V30 2030 H 188.045 0.744167 -4.09391 0
M  V30 2031 H 186.921 1.41541 -5.30337 0
M  V30 2032 H 187.182 2.27228 -3.79236 0
M  V30 2033 N 186.241 1.57166 -0.116904 0
M  V30 2034 C 187.471 1.99184 0.548586 0
M  V30 2035 C 187.879 0.995436 1.60897 0
M  V30 2036 O 187.222 -0.0201293 1.83689 0
M  V30 2037 C 187.284 3.37611 1.23526 0
M  V30 2038 C 186.948 4.55857 0.323077 0
M  V30 2039 C 187.945 5.18056 -0.437476 0
M  V30 2040 C 185.63 5.01751 0.234761 0
M  V30 2041 C 187.624 6.24536 -1.2741 0
M  V30 2042 C 185.311 6.08093 -0.605496 0
M  V30 2043 C 186.309 6.69352 -1.35856 0
M  V30 2044 O 185.997 7.7364 -2.18487 0
M  V30 2045 H 185.729 0.659148 0.149999 0
M  V30 2046 H 188.283 2.0443 -0.199428 0
M  V30 2047 H 186.513 3.29113 2.0303 0
M  V30 2048 H 188.202 3.63932 1.79745 0
M  V30 2049 H 188.968 4.83516 -0.379105 0
M  V30 2050 H 184.847 4.53817 0.810601 0
M  V30 2051 H 188.391 6.72281 -1.86237 0
M  V30 2052 H 184.288 6.42063 -0.665268 0
M  V30 2053 H 185.056 7.90727 -2.11406 0
M  V30 2054 N 187.719 -0.156864 1.56817 0
M  V30 2055 C 188.965 -0.872416 1.83076 0
M  V30 2056 C 189.298 -1.81261 0.697001 0
M  V30 2057 O 188.573 -1.92171 -0.30008 0
M  V30 2058 C 188.856 -1.65551 3.19789 0
M  V30 2059 C 188.709 -0.737467 4.43713 0
M  V30 2060 C 190.028 -2.62012 3.53606 0
M  V30 2061 H 187.147 -0.315715 0.665953 0
M  V30 2062 H 189.789 -0.138004 1.89498 0
M  V30 2063 H 187.939 -2.28159 3.14445 0
M  V30 2064 H 189.611 -0.123143 4.61136 0
M  V30 2065 H 187.854 -0.0464067 4.33775 0
M  V30 2066 H 188.525 -1.32122 5.35955 0
M  V30 2067 H 191.001 -2.09525 3.59497 0
M  V30 2068 H 189.877 -3.13861 4.50314 0
M  V30 2069 H 190.138 -3.42902 2.79053 0
M  V30 2070 N 189.197 -1.51736 -0.425897 0
M  V30 2071 C 190.16 -1.73271 -1.50032 0
M  V30 2072 C 191.16 -0.602639 -1.4908 0
M  V30 2073 O 192.35 -0.87033 -1.509 0
M  V30 2074 C 189.482 -1.79969 -2.89523 0
M  V30 2075 H 190.675 -2.69172 -1.32237 0
M  V30 2076 H 188.228 -1.41899 -0.65532 0
M  V30 2077 H 188.963 -0.859241 -3.1271 0
M  V30 2078 H 188.748 -2.62109 -2.91619 0
M  V30 2079 H 190.238 -1.9843 -3.67444 0
M  V30 2080 N 190.675 0.682077 -1.42076 0
M  V30 2081 C 192.091 0.994324 -1.24841 0
M  V30 2082 C 192.291 2.0096 -0.147389 0
M  V30 2083 O 191.347 2.47822 0.483782 0
M  V30 2084 C 192.66 1.50607 -2.60265 0
M  V30 2085 C 194.208 1.62421 -2.6756 0
M  V30 2086 C 194.683 2.16994 -4.03333 0
M  V30 2087 N 196.174 2.24337 -4.0525 0
M  V30 2088 C 196.909 2.67621 -5.07116 0
M  V30 2089 N 196.405 3.1041 -6.19368 0
M  V30 2090 N 198.198 2.67305 -4.94474 0
M  V30 2091 H 190.349 0.00973908 -2.12398 0
M  V30 2092 H 192.612 0.0668593 -0.945639 0
M  V30 2093 H 192.318 0.834583 -3.41654 0
M  V30 2094 H 192.192 2.48602 -2.83684 0
M  V30 2095 H 194.579 2.28678 -1.86521 0
M  V30 2096 H 194.66 0.629352 -2.47937 0
M  V30 2097 H 194.304 1.51349 -4.84826 0
M  V30 2098 H 194.234 3.17258 -4.20304 0
M  V30 2099 H 196.725 1.94158 -3.24209 0
M  V30 2100 H 197.038 3.42103 -6.92954 0
M  V30 2101 H 195.383 3.08286 -6.22884 0
M  V30 2102 H 198.574 2.33233 -4.05857 0
M  V30 2103 H 198.747 3.00718 -5.73997 0
M  V30 2104 N 192.153 1.28127 0.917671 0
M  V30 2105 C 193.101 1.11569 2.04096 0
M  V30 2106 C 194.095 0.0360242 1.69362 0
M  V30 2107 O 195.301 0.194501 1.78946 0
M  V30 2108 H 191.676 0.344097 0.668656 0
M  V30 2109 H 193.647 2.06711 2.15205 0
M  V30 2110 C 192.396 0.790197 3.38602 0
M  V30 2111 H 191.719 1.61293 3.6582 0
M  V30 2112 H 193.159 0.714271 4.1794 0
M  V30 2113 C 191.618 -0.505897 3.3308 0
M  V30 2114 O 192.148 -1.53736 3.71117 0
M  V30 2115 N 190.354 -0.505193 2.86175 0
M  V30 2116 H 189.901 0.334621 2.55417 0
M  V30 2117 H 189.859 -1.37243 2.82863 0
M  V30 2118 N 193.631 -1.12557 1.10312 0
M  V30 2119 C 194.594 -2.16434 0.75424 0
M  V30 2120 C 195.594 -1.59278 -0.220685 0
M  V30 2121 O 196.784 -1.742 0.00230591 0
M  V30 2122 C 193.916 -3.40699 0.116987 0
M  V30 2123 H 195.109 -2.48811 1.67431 0
M  V30 2124 H 192.662 -1.27542 0.903475 0
M  V30 2125 H 193.397 -3.13921 -0.813877 0
M  V30 2126 H 193.182 -3.83459 0.818613 0
M  V30 2127 H 194.672 -4.17451 -0.111387 0
M  V30 2128 N 195.109 -0.891671 -1.2995 0
M  V30 2129 C 196.056 -0.361736 -2.27948 0
M  V30 2130 C 197.026 0.551761 -1.56668 0
M  V30 2131 O 198.211 0.478736 -1.84696 0
M  V30 2132 C 195.351 0.411825 -3.42634 0
M  V30 2133 C 194.464 -0.531651 -4.28716 0
M  V30 2134 C 193.599 0.258167 -5.30572 0
M  V30 2135 C 192.638 -0.680349 -6.08307 0
M  V30 2136 N 191.775 0.0745613 -7.0206 0
M  V30 2137 H 196.615 -1.20254 -2.72659 0
M  V30 2138 H 194.152 -0.604352 -1.34112 0
M  V30 2139 H 196.11 0.876304 -4.07893 0
M  V30 2140 H 194.74 1.21715 -2.98974 0
M  V30 2141 H 193.792 -1.11463 -3.63703 0
M  V30 2142 H 195.104 -1.25038 -4.82874 0
M  V30 2143 H 194.258 0.784204 -6.0161 0
M  V30 2144 H 192.997 1.01008 -4.77126 0
M  V30 2145 H 192.002 -1.21796 -5.3614 0
M  V30 2146 H 193.227 -1.43145 -6.63842 0
M  V30 2147 H 191.173 0.808883 -6.50994 0
M  V30 2148 H 191.09 -0.584409 -7.53738 0
M  V30 2149 H 192.358 0.581123 -7.77331 0
M  V30 2150 N 196.587 1.43421 -0.653314 0
M  V30 2151 C 197.864 1.95361 -0.0966581 0
M  V30 2152 C 198.244 1.59461 1.38331 0
M  V30 2153 O 197.592 0.879777 2.10884 0
M  V30 2154 C 197.802 3.47311 -0.342988 0
M  V30 2155 C 199.15 4.23875 -0.24798 0
M  V30 2156 O 200.174 3.55133 -0.275553 0
M  V30 2157 O 199.033 5.4623 -0.171771 0
M  V30 2158 H 196.127 0.826945 0.00956291 0
M  V30 2159 H 198.673 1.5336 -0.726558 0
M  V30 2160 H 197.445 3.66569 -1.36906 0
M  V30 2161 H 197.068 3.9631 0.319975 0
M  V30 2162 N 198.065 0.39524 1.52563 0
M  V30 2163 C 199.311 -0.185318 2.01952 0
M  V30 2164 C 199.644 -1.45964 1.28095 0
M  V30 2165 O 198.919 -1.90689 0.38315 0
M  V30 2166 C 199.202 -0.447193 3.57312 0
M  V30 2167 C 199.055 0.842828 4.41833 0
M  V30 2168 C 200.374 -1.23529 4.22408 0
M  V30 2169 H 197.493 -0.0658788 0.73405 0
M  V30 2170 H 200.135 0.525975 1.82575 0
M  V30 2171 H 198.285 -1.05312 3.73954 0
M  V30 2172 H 199.957 1.4795 4.36931 0
M  V30 2173 H 198.2 1.45686 4.08605 0
M  V30 2174 H 198.871 0.614165 5.48573 0
M  V30 2175 H 201.347 -0.722445 4.0978 0
M  V30 2176 H 200.223 -1.38727 5.3108 0
M  V30 2177 H 200.484 -2.25213 3.80436 0
M  V30 2178 N 199.544 -1.57102 0.125237 0
M  V30 2179 C 200.507 -2.14471 -0.80838 0
M  V30 2180 C 201.507 -1.0811 -1.19033 0
M  V30 2181 O 202.697 -1.33856 -1.11482 0
M  V30 2182 C 199.829 -2.69005 -2.09402 0
M  V30 2183 H 201.022 -2.98297 -0.309696 0
M  V30 2184 H 198.575 -1.55807 -0.124051 0
M  V30 2185 H 199.31 -1.88785 -2.63687 0
M  V30 2186 H 199.095 -3.46799 -1.82957 0
M  V30 2187 H 200.585 -3.13278 -2.76128 0
M  V30 2188 N 201.022 0.148545 -1.56898 0
M  V30 2189 C 202.268 0.862694 -1.83536 0
M  V30 2190 C 202.601 1.80889 -0.706604 0
M  V30 2191 O 201.876 1.92328 0.289885 0
M  V30 2192 C 202.159 1.63853 -3.20662 0
M  V30 2193 C 202.012 0.713925 -4.44098 0
M  V30 2194 C 203.331 2.60133 -3.54991 0
M  V30 2195 H 200.45 0.312179 -0.667618 0
M  V30 2196 H 203.092 0.127953 -1.89569 0
M  V30 2197 H 201.242 2.26489 -3.1565 0
M  V30 2198 H 202.914 0.098686 -4.61194 0
M  V30 2199 H 201.157 0.0234019 -4.33794 0
M  V30 2200 H 201.828 1.29278 -5.36648 0
M  V30 2201 H 204.304 2.07616 -3.60603 0
M  V30 2202 H 203.18 3.11468 -4.51972 0
M  V30 2203 H 203.441 3.41417 -2.80868 0
M  V30 2204 N 202.5 1.5196 0.417844 0
M  V30 2205 C 203.725 1.69717 1.1921 0
M  V30 2206 C 204.15 0.402148 1.83751 0
M  V30 2207 O 203.508 -0.639593 1.69643 0
M  V30 2208 C 203.556 2.82794 2.2374 0
M  V30 2209 O 202.66 2.47756 3.29683 0
M  V30 2210 H 202.001 0.565263 0.348387 0
M  V30 2211 H 204.531 1.98621 0.490985 0
M  V30 2212 H 204.541 3.07452 2.68212 0
M  V30 2213 H 203.216 3.76756 1.76146 0
M  V30 2214 H 201.793 2.33739 2.90552 0
M  V30 2215 N 203.978 -0.674533 1.42435 0
M  V30 2216 C 205.208 -1.46071 1.46105 0
M  V30 2217 C 205.616 -1.89067 0.0709605 0
M  V30 2218 O 204.959 -1.58731 -0.924677 0
M  V30 2219 C 205.021 -2.74145 2.32561 0
M  V30 2220 C 204.685 -2.53224 3.8043 0
M  V30 2221 C 205.682 -2.17809 4.72075 0
M  V30 2222 C 203.367 -2.6821 4.24698 0
M  V30 2223 C 205.361 -1.97648 6.05982 0
M  V30 2224 C 203.048 -2.47665 5.58664 0
M  V30 2225 C 204.046 -2.12437 6.49122 0
M  V30 2226 O 203.734 -1.9209 7.80613 0
M  V30 2227 H 203.466 -0.455959 0.499076 0
M  V30 2228 H 206.02 -0.836193 1.87609 0
M  V30 2229 H 204.25 -3.3908 1.85908 0
M  V30 2230 H 205.939 -3.36028 2.27683 0
M  V30 2231 H 206.705 -2.05826 4.39159 0
M  V30 2232 H 202.584 -2.94609 3.54579 0
M  V30 2233 H 206.128 -1.70075 6.7655 0
M  V30 2234 H 202.025 -2.59244 5.91154 0
M  V30 2235 H 202.793 -2.06686 7.91974 0
M  V30 2236 N 205.456 -1.28612 -0.910864 0
M  V30 2237 C 206.686 -1.1862 -1.69153 0
M  V30 2238 C 207.094 0.257324 -1.87442 0
M  V30 2239 O 206.437 1.18543 -1.40332 0
M  V30 2240 C 206.499 -1.81606 -3.10257 0
M  V30 2241 C 206.163 -3.30864 -3.15243 0
M  V30 2242 C 207.16 -4.27256 -2.96223 0
M  V30 2243 C 204.845 -3.71871 -3.37664 0
M  V30 2244 C 206.839 -5.62631 -2.99541 0
M  V30 2245 C 204.526 -5.07371 -3.40614 0
M  V30 2246 C 205.524 -6.02561 -3.21573 0
M  V30 2247 O 205.212 -7.35589 -3.2429 0
M  V30 2248 H 204.944 -0.412633 -0.535453 0
M  V30 2249 H 207.498 -1.70306 -1.14827 0
M  V30 2250 H 205.728 -1.24418 -3.66138 0
M  V30 2251 H 207.417 -1.66092 -3.70362 0
M  V30 2252 H 208.183 -3.9691 -2.78725 0
M  V30 2253 H 204.062 -2.98241 -3.5153 0
M  V30 2254 H 207.606 -6.36907 -2.84597 0
M  V30 2255 H 203.503 -5.37366 -3.57642 0
M  V30 2256 H 204.271 -7.44252 -3.40633 0
M  V30 2257 N 206.934 1.1197 -1.10907 0
M  V30 2258 C 207.884 2.15946 -0.731538 0
M  V30 2259 C 208.868 1.58758 0.261699 0
M  V30 2260 O 210.06 1.76863 0.0696722 0
M  V30 2261 C 207.189 3.42877 -0.170299 0
M  V30 2262 C 206.275 4.07037 -1.19087 0
M  V30 2263 N 206.666 4.46135 -2.38322 0
M  V30 2264 C 204.964 4.33884 -1.03252 0
M  V30 2265 C 205.665 4.96331 -3.03366 0
M  V30 2266 N 204.641 4.9214 -2.30865 0
M  V30 2267 H 208.443 2.43947 -1.63912 0
M  V30 2268 H 205.957 1.28927 -0.987505 0
M  V30 2269 H 207.954 4.16732 0.118271 0
M  V30 2270 H 206.614 3.16343 0.731935 0
M  V30 2271 H 207.625 4.38345 -2.75815 0
M  V30 2272 H 204.302 4.17084 -0.186256 0
M  V30 2273 H 205.692 5.36257 -4.04818 0
M  V30 2274 N 208.412 0.89855 1.29475 0
M  V30 2275 C 209.659 0.523882 1.95606 0
M  V30 2276 C 209.987 -0.929608 1.70847 0
M  V30 2277 O 209.242 -1.67401 1.01367 0
M  V30 2278 C 209.541 0.761398 3.49195 0
M  V30 2279 C 209.207 2.19207 3.94029 0
M  V30 2280 C 207.869 2.58326 4.05982 0
M  V30 2281 C 210.221 3.12379 4.17216 0
M  V30 2282 C 207.549 3.898 4.38489 0
M  V30 2283 C 209.901 4.43401 4.51197 0
M  V30 2284 C 208.565 4.82394 4.61359 0
M  V30 2285 H 207.835 0.191702 0.715773 0
M  V30 2286 H 210.482 1.13699 1.54094 0
M  V30 2287 H 208.787 0.0653622 3.91745 0
M  V30 2288 H 210.484 0.450904 3.98457 0
M  V30 2289 H 207.074 1.87846 3.85242 0
M  V30 2290 H 211.258 2.83371 4.07449 0
M  V30 2291 H 206.514 4.19734 4.44559 0
M  V30 2292 H 210.688 5.15623 4.68087 0
M  V30 2293 H 208.315 5.84306 4.86303 0
M  V30 2294 N 209.89 -1.43072 0.660911 0
M  V30 2295 C 211.12 -2.05769 0.185153 0
M  V30 2296 C 211.528 -1.49668 -1.15742 0
M  V30 2297 O 210.871 -0.625649 -1.72717 0
M  V30 2298 C 210.933 -3.59489 0.0278237 0
M  V30 2299 C 210.597 -4.38212 1.2969 0
M  V30 2300 C 211.594 -4.69772 2.22734 0
M  V30 2301 C 209.279 -4.7809 1.54063 0
M  V30 2302 C 211.273 -5.40129 3.38437 0
M  V30 2303 C 208.96 -5.4819 2.70058 0
M  V30 2304 C 209.958 -5.79132 3.62071 0
M  V30 2305 O 209.646 -6.47798 4.76039 0
M  V30 2306 H 209.378 -0.669873 0.0908086 0
M  V30 2307 H 211.932 -1.84436 0.90402 0
M  V30 2308 H 210.162 -3.79426 -0.746489 0
M  V30 2309 H 211.851 -4.03862 -0.406275 0
M  V30 2310 H 212.617 -4.39476 2.05149 0
M  V30 2311 H 208.496 -4.53408 0.833215 0
M  V30 2312 H 212.04 -5.64198 4.10277 0
M  V30 2313 H 207.937 -5.77902 2.87574 0
M  V30 2314 H 208.705 -6.66283 4.75404 0
M  V30 2315 N 211.368 -0.403325 -1.52352 0
M  V30 2316 C 212.318 0.442244 -2.2367 0
M  V30 2317 C 213.302 1.01823 -1.24583 0
M  V30 2318 O 214.494 0.942005 -1.49851 0
M  V30 2319 C 211.623 1.5615 -3.05732 0
M  V30 2320 C 210.709 0.996575 -4.12225 0
M  V30 2321 N 211.1 0.157804 -5.05554 0
M  V30 2322 C 209.398 1.26767 -4.27605 0
M  V30 2323 C 210.099 -0.155853 -5.81491 0
M  V30 2324 N 209.075 0.451775 -5.41719 0
M  V30 2325 H 212.877 -0.204964 -2.93184 0
M  V30 2326 H 210.391 -0.213418 -1.60992 0
M  V30 2327 H 212.388 2.17981 -3.55373 0
M  V30 2328 H 211.048 2.21139 -2.37755 0
M  V30 2329 H 212.059 -0.206049 -5.1749 0
M  V30 2330 H 208.736 1.91757 -3.70858 0
M  V30 2331 H 210.126 -0.836329 -6.66675 0
M  V30 2332 N 212.846 1.57033 -0.133567 0
M  V30 2333 C 213.779 2.11824 0.848872 0
M  V30 2334 C 214.757 1.03833 1.2513 0
M  V30 2335 O 215.941 1.31579 1.34978 0
M  V30 2336 C 213.068 2.62692 2.138 0
M  V30 2337 C 212.114 3.82705 1.88253 0
M  V30 2338 S 212.947 5.2438 1.08563 0
M  V30 2339 C 214.103 5.78627 2.38624 0
M  V30 2340 H 214.336 2.94824 0.38289 0
M  V30 2341 H 211.869 1.5419 0.0804796 0
M  V30 2342 H 213.827 2.92652 2.87863 0
M  V30 2343 H 212.488 1.79847 2.57515 0
M  V30 2344 H 211.681 4.16496 2.83809 0
M  V30 2345 H 211.283 3.53437 1.22305 0
M  V30 2346 H 213.575 5.8924 3.34369 0
M  V30 2347 H 214.518 6.76443 2.09358 0
M  V30 2348 H 214.926 5.06783 2.48658 0
M  V30 2349 N 214.325 -0.140222 1.56975 0
M  V30 2350 C 215.288 -1.15689 1.97861 0
M  V30 2351 C 216.288 -1.3549 0.865974 0
M  V30 2352 O 217.478 -1.32367 1.13246 0
M  V30 2353 C 214.61 -2.51582 2.30042 0
M  V30 2354 H 215.803 -0.805971 2.88867 0
M  V30 2355 H 213.356 -0.383801 1.51515 0
M  V30 2356 H 214.091 -2.91632 1.41849 0
M  V30 2357 H 213.876 -2.38569 3.11171 0
M  V30 2358 H 215.366 -3.24792 2.62488 0
M  V30 2359 N 215.803 -1.52179 -0.40978 0
M  V30 2360 C 216.75 -1.75475 -1.49924 0
M  V30 2361 C 217.72 -0.597175 -1.54994 0
M  V30 2362 O 218.905 -0.834655 -1.71575 0
M  V30 2363 C 216.045 -1.9107 -2.87378 0
M  V30 2364 C 215.158 -3.18717 -2.91622 0
M  V30 2365 C 214.293 -3.24747 -4.20372 0
M  V30 2366 C 213.332 -4.46598 -4.18588 0
M  V30 2367 N 212.469 -4.50025 -5.38908 0
M  V30 2368 H 217.309 -2.68458 -1.29361 0
M  V30 2369 H 214.846 -1.33024 -0.627934 0
M  V30 2370 H 216.804 -1.98096 -3.6717 0
M  V30 2371 H 215.434 -1.01469 -3.06437 0
M  V30 2372 H 214.486 -3.20866 -2.04326 0
M  V30 2373 H 215.798 -4.08544 -2.86169 0
M  V30 2374 H 214.952 -3.30841 -5.08556 0
M  V30 2375 H 213.691 -2.32857 -4.28519 0
M  V30 2376 H 212.696 -4.40652 -3.28794 0
M  V30 2377 H 213.921 -5.39783 -4.12081 0
M  V30 2378 H 211.867 -3.61017 -5.47725 0
M  V30 2379 H 211.784 -5.33697 -5.35447 0
M  V30 2380 H 213.052 -4.60347 -6.29048 0
M  V30 2381 N 217.281 0.66697 -1.42791 0
M  V30 2382 C 218.527 1.4291 -1.43891 0
M  V30 2383 C 218.86 1.94114 -0.0578972 0
M  V30 2384 O 218.135 1.71414 0.91911 0
M  V30 2385 C 218.418 2.62049 -2.46987 0
M  V30 2386 C 218.271 2.16426 -3.94309 0
M  V30 2387 C 219.59 3.64266 -2.46978 0
M  V30 2388 H 216.709 0.518306 -0.523954 0
M  V30 2389 H 219.351 0.757321 -1.74255 0
M  V30 2390 H 217.501 3.19361 -2.21225 0
M  V30 2391 H 219.173 1.64221 -4.31079 0
M  V30 2392 H 217.416 1.47925 -4.078 0
M  V30 2393 H 218.087 3.02038 -4.62036 0
M  V30 2394 H 220.563 3.16686 -2.69906 0
M  V30 2395 H 219.439 4.45196 -3.21079 0
M  V30 2396 H 219.7 4.15927 -1.49857 0
M  V30 2397 N 218.759 1.29093 0.90403 0
M  V30 2398 C 219.709 1.10482 1.99443 0
M  V30 2399 C 220.693 0.0255401 1.6088 0
M  V30 2400 O 221.885 0.24677 1.75271 0
M  V30 2401 C 219.014 0.778882 3.34348 0
M  V30 2402 C 218.1 1.89749 3.79284 0
M  V30 2403 N 218.491 3.14045 3.96497 0
M  V30 2404 C 216.789 1.78955 4.08523 0
M  V30 2405 C 217.49 3.86996 4.34292 0
M  V30 2406 N 216.466 3.14909 4.43095 0
M  V30 2407 H 220.268 2.04778 2.10815 0
M  V30 2408 H 217.782 1.20155 1.09255 0
M  V30 2409 H 219.779 0.62661 4.12164 0
M  V30 2410 H 218.439 -0.156205 3.24324 0
M  V30 2411 H 219.45 3.49548 3.82148 0
M  V30 2412 H 216.127 0.926886 4.07081 0
M  V30 2413 H 217.517 4.93941 4.55491 0
M  V30 2414 N 220.237 -1.11381 1.11499 0
M  V30 2415 C 221.648 -1.6465 0.880191 0
M  V30 2416 C 221.999 -1.87199 -0.587434 0
M  V30 2417 O 221.124 -1.60667 -1.44966 0
M  V30 2418 C 221.719 -2.99105 1.59128 0
M  V30 2419 C 220.278 -3.49279 1.40289 0
M  V30 2420 C 219.425 -2.24077 1.63354 0
M  V30 2421 H 222.376 -0.950123 1.27116 0
M  V30 2422 H 222.397 -3.66107 1.03664 0
M  V30 2423 H 221.909 -2.82661 2.65941 0
M  V30 2424 H 220.01 -3.70887 0.356888 0
M  V30 2425 H 220.123 -4.2803 2.15238 0
M  V30 2426 H 218.487 -2.31733 1.05698 0
M  V30 2427 H 219.27 -2.10175 2.71443 0
M  V30 2428 N 221.715 -0.905404 -1.28997 0
M  V30 2429 C 222.625 -0.392246 -2.31298 0
M  V30 2430 C 223.641 0.515889 -1.66176 0
M  V30 2431 O 224.817 0.404093 -1.97304 0
M  V30 2432 C 221.882 0.36686 -3.44754 0
M  V30 2433 C 220.943 -0.573485 -4.25452 0
M  V30 2434 C 220.176 0.149488 -5.33491 0
M  V30 2435 O 220.399 1.37255 -5.5364 0
M  V30 2436 O 219.333 -0.510919 -5.99728 0
M  V30 2437 H 223.159 -1.2411 -2.77183 0
M  V30 2438 H 220.744 -0.669926 -1.33538 0
M  V30 2439 H 222.626 0.795907 -4.13816 0
M  V30 2440 H 221.301 1.19169 -3.00966 0
M  V30 2441 H 220.208 -1.05176 -3.59011 0
M  V30 2442 H 221.541 -1.36489 -4.72897 0
M  V30 2443 N 223.193 1.4272 -0.668489 0
M  V30 2444 C 224.604 1.84793 -0.266151 0
M  V30 2445 C 224.955 1.55959 1.19043 0
M  V30 2446 O 224.08 1.01622 1.91055 0
M  V30 2447 C 224.675 3.35436 -0.476271 0
M  V30 2448 C 223.234 3.76182 -0.128113 0
M  V30 2449 C 222.381 2.66344 -0.771777 0
M  V30 2450 H 225.332 1.32656 -0.871098 0
M  V30 2451 H 225.353 3.79515 0.273561 0
M  V30 2452 H 224.865 3.5639 -1.53647 0
M  V30 2453 H 222.966 3.60836 0.928891 0
M  V30 2454 H 223.079 4.75766 -0.564231 0
M  V30 2455 H 221.443 2.53885 -0.203652 0
M  V30 2456 H 222.226 2.90123 -1.83531 0
M  V30 2457 N 224.671 0.411399 1.52136 0
M  V30 2458 C 225.919 -0.163322 2.01439 0
M  V30 2459 C 226.24 -1.45453 1.29879 0
M  V30 2460 O 225.51 -1.91225 0.4254 0
M  V30 2461 H 224.09 -0.0633447 0.744309 0
M  V30 2462 H 226.752 0.548161 1.87033 0
M  V30 2463 H 225.848 -0.357817 3.10042 0
M  V30 2464 N 226.149 -1.5696 0.141893 0
M  V30 2465 C 227.377 -2.00322 -0.517579 0
M  V30 2466 C 227.792 -1.02193 -1.58752 0
M  V30 2467 O 227.149 -0.0181619 -1.82491 0
M  V30 2468 C 227.2 -3.43618 -1.12289 0
M  V30 2469 O 226.921 -4.37995 -0.0956929 0
M  V30 2470 C 228.422 -4.02231 -1.86347 0
M  V30 2471 H 225.642 -0.657243 -0.135177 0
M  V30 2472 H 228.186 -2.03146 0.234973 0
M  V30 2473 H 226.341 -3.41662 -1.82609 0
M  V30 2474 H 226.755 -5.21729 -0.538469 0
M  V30 2475 H 228.229 -5.04509 -2.23997 0
M  V30 2476 H 228.706 -3.42655 -2.74744 0
M  V30 2477 H 229.312 -4.07802 -1.20737 0
M  V30 2478 N 227.627 0.131896 -1.57047 0
M  V30 2479 C 228.873 0.838268 -1.85323 0
M  V30 2480 C 229.228 1.78098 -0.727937 0
M  V30 2481 O 228.521 1.89645 0.27304 0
M  V30 2482 C 228.715 1.63703 -3.17704 0
M  V30 2483 C 228.544 0.773167 -4.43004 0
M  V30 2484 C 227.314 0.432956 -5.03442 0
M  V30 2485 C 229.512 0.0966216 -5.14209 0
M  V30 2486 N 227.494 -0.442924 -6.123 0
M  V30 2487 C 228.865 -0.638778 -6.16701 0
M  V30 2488 C 230.92 0.018861 -4.97896 0
M  V30 2489 C 229.623 -1.44462 -7.04644 0
M  V30 2490 C 231.649 -0.773762 -5.86316 0
M  V30 2491 C 231.011 -1.4974 -6.883 0
M  V30 2492 H 227.11 0.284086 -0.728573 0
M  V30 2493 H 229.694 0.102731 -1.94429 0
M  V30 2494 H 227.865 2.3437 -3.09718 0
M  V30 2495 H 229.597 2.28774 -3.33833 0
M  V30 2496 H 226.352 0.772237 -4.67262 0
M  V30 2497 H 226.776 -0.872332 -6.71356 0
M  V30 2498 H 231.418 0.56397 -4.19022 0
M  V30 2499 H 229.136 -2.00093 -7.82936 0
M  V30 2500 H 232.722 -0.83612 -5.75761 0
M  V30 2501 H 231.602 -2.10087 -7.55535 0
M  V30 2502 N 229.106 1.52395 0.401703 0
M  V30 2503 C 230.383 1.57387 1.16141 0
M  V30 2504 C 230.763 0.359359 2.08019 0
M  V30 2505 O 230.111 -0.65326 2.18963 0
M  V30 2506 C 230.321 2.90631 1.93221 0
M  V30 2507 C 231.669 3.43904 2.49028 0
M  V30 2508 O 232.693 2.92421 2.03393 0
M  V30 2509 O 231.552 4.33823 3.32356 0
M  V30 2510 H 228.646 0.634262 0.530698 0
M  V30 2511 H 231.192 1.64725 0.407883 0
M  V30 2512 H 229.964 3.70473 1.25958 0
M  V30 2513 H 229.587 2.8662 2.75563 0
M  V30 2514 N 230.584 -0.659388 1.43143 0
M  V30 2515 C 231.809 -1.45221 1.48073 0
M  V30 2516 C 232.234 -1.87845 0.097995 0
M  V30 2517 O 231.592 -1.56985 -0.90694 0
M  V30 2518 C 231.64 -2.66748 2.42647 0
M  V30 2519 O 230.744 -3.65583 1.90848 0
M  V30 2520 H 230.085 -0.435669 0.501088 0
M  V30 2521 H 232.615 -0.807432 1.87994 0
M  V30 2522 H 232.625 -3.14637 2.59745 0
M  V30 2523 H 231.3 -2.35067 3.43098 0
M  V30 2524 H 229.877 -3.24693 1.83381 0
M  V30 2525 N 232.062 -1.29571 -0.897171 0
M  V30 2526 C 233.309 -1.17689 -1.6479 0
M  V30 2527 C 233.637 0.27107 -1.92602 0
M  V30 2528 O 232.892 1.21193 -1.53658 0
M  V30 2529 C 233.191 -1.9382 -3.00281 0
M  V30 2530 C 232.857 -3.43522 -2.92068 0
M  V30 2531 C 231.519 -3.84348 -2.89535 0
M  V30 2532 C 233.871 -4.38906 -2.81089 0
M  V30 2533 C 231.199 -5.18869 -2.73846 0
M  V30 2534 C 233.551 -5.73521 -2.66939 0
M  V30 2535 C 232.215 -6.13601 -2.62774 0
M  V30 2536 H 231.485 -0.430654 -0.603008 0
M  V30 2537 H 234.132 -1.60536 -1.04404 0
M  V30 2538 H 232.437 -1.4357 -3.64547 0
M  V30 2539 H 234.134 -1.82028 -3.57305 0
M  V30 2540 H 230.724 -3.11072 -2.94842 0
M  V30 2541 H 234.908 -4.08315 -2.82121 0
M  V30 2542 H 230.164 -5.4903 -2.69027 0
M  V30 2543 H 234.338 -6.47078 -2.57416 0
M  V30 2544 H 231.965 -7.17786 -2.50375 0
M  V30 2545 N 233.54 1.10788 -1.12088 0
M  V30 2546 C 234.47 2.19083 -0.807755 0
M  V30 2547 C 235.451 1.6858 0.226859 0
M  V30 2548 O 236.636 1.93997 0.0888475 0
M  V30 2549 C 233.766 3.46344 -0.257576 0
M  V30 2550 C 232.72 4.101 -1.22483 0
M  V30 2551 C 232.046 5.32016 -0.535052 0
M  V30 2552 C 233.346 4.54236 -2.57811 0
M  V30 2553 H 235.04 2.45534 -1.71328 0
M  V30 2554 H 232.586 1.1801 -0.825205 0
M  V30 2555 H 234.539 4.21392 -0.0262679 0
M  V30 2556 H 233.263 3.19373 0.683278 0
M  V30 2557 H 231.922 3.37054 -1.44189 0
M  V30 2558 H 231.57 5.01319 0.410827 0
M  V30 2559 H 231.27 5.75625 -1.18024 0
M  V30 2560 H 232.794 6.09799 -0.312695 0
M  V30 2561 H 234.208 5.20575 -2.40155 0
M  V30 2562 H 232.605 5.08682 -3.18375 0
M  V30 2563 H 233.675 3.6734 -3.16528 0
M  V30 2564 N 235.018 0.912232 1.28515 0
M  V30 2565 C 235.928 0.404506 2.31086 0
M  V30 2566 C 236.944 -0.50707 1.66448 0
M  V30 2567 O 238.12 -0.393624 1.97516 0
M  V30 2568 C 235.185 -0.348572 3.44943 0
M  V30 2569 C 234.246 0.59604 4.25142 0
M  V30 2570 C 233.479 -0.121194 5.33562 0
M  V30 2571 O 233.702 -1.34317 5.5436 0
M  V30 2572 O 232.636 0.542716 5.99448 0
M  V30 2573 H 236.462 1.25579 2.76521 0
M  V30 2574 H 234.047 0.676998 1.33181 0
M  V30 2575 H 235.929 -0.77395 4.14232 0
M  V30 2576 H 234.604 -1.17571 3.01594 0
M  V30 2577 H 233.511 1.07079 3.58448 0
M  V30 2578 H 234.844 1.38995 4.72167 0
M  V30 2579 N 236.496 -1.42363 0.676048 0
M  V30 2580 C 237.443 -2.308 -0.00150904 0
M  V30 2581 C 238.413 -1.46032 -0.791444 0
M  V30 2582 O 239.598 -1.74861 -0.76344 0
M  V30 2583 C 236.738 -3.31883 -0.945919 0
M  V30 2584 C 235.851 -4.31741 -0.149675 0
M  V30 2585 C 234.986 -5.19898 -1.08995 0
M  V30 2586 C 234.025 -6.11434 -0.285465 0
M  V30 2587 N 233.162 -6.92138 -1.17851 0
M  V30 2588 H 238.002 -2.88187 0.758455 0
M  V30 2589 H 235.539 -1.41952 0.38576 0
M  V30 2590 H 237.497 -3.89019 -1.50731 0
M  V30 2591 H 236.127 -2.76093 -1.6725 0
M  V30 2592 H 235.179 -3.76713 0.528359 0
M  V30 2593 H 236.491 -4.96534 0.474866 0
M  V30 2594 H 235.645 -5.81772 -1.72123 0
M  V30 2595 H 234.384 -4.55284 -1.74837 0
M  V30 2596 H 233.389 -5.48627 0.359018 0
M  V30 2597 H 234.614 -6.78097 0.368883 0
M  V30 2598 H 232.56 -6.30152 -1.82332 0
M  V30 2599 H 232.477 -7.53542 -0.609082 0
M  V30 2600 H 233.745 -7.58499 -1.79722 0
M  V30 2601 N 237.974 -0.419461 -1.51915 0
M  V30 2602 C 239.221 0.152939 -2.01922 0
M  V30 2603 C 239.549 1.4426 -1.30458 0
M  V30 2604 O 238.804 1.91514 -0.402593 0
M  V30 2605 C 239.103 0.437067 -3.54717 0
M  V30 2606 C 238.769 -0.764632 -4.44369 0
M  V30 2607 C 237.431 -1.09423 -4.68594 0
M  V30 2608 C 239.783 -1.56713 -4.97082 0
M  V30 2609 C 237.111 -2.22732 -5.42777 0
M  V30 2610 C 239.463 -2.69107 -5.72507 0
M  V30 2611 C 238.127 -3.02541 -5.95 0
M  V30 2612 H 237.397 0.0559644 -0.738884 0
M  V30 2613 H 240.044 -0.562998 -1.83037 0
M  V30 2614 H 238.349 1.23469 -3.71837 0
M  V30 2615 H 240.046 0.893083 -3.90928 0
M  V30 2616 H 236.636 -0.497775 -4.257 0
M  V30 2617 H 240.82 -1.32571 -4.78266 0
M  V30 2618 H 236.076 -2.48971 -5.58411 0
M  V30 2619 H 240.25 -3.31671 -6.12346 0
M  V30 2620 H 237.877 -3.90457 -6.52264 0
M  V30 2621 N 239.452 1.56882 -0.150215 0
M  V30 2622 C 240.385 2.12712 0.826358 0
M  V30 2623 C 241.363 1.05154 1.24022 0
M  V30 2624 O 242.547 1.33004 1.33575 0
M  V30 2625 C 239.674 2.64945 2.11002 0
M  V30 2626 C 238.72 3.8468 1.84183 0
M  V30 2627 S 239.553 5.25502 1.02995 0
M  V30 2628 C 240.709 5.81125 2.32474 0
M  V30 2629 H 240.942 2.95214 0.351598 0
M  V30 2630 H 238.475 1.54267 0.0641211 0
M  V30 2631 H 240.433 2.95689 2.84742 0
M  V30 2632 H 239.094 1.82568 2.55593 0
M  V30 2633 H 238.287 4.19482 2.79375 0
M  V30 2634 H 237.889 3.54714 1.1855 0
M  V30 2635 H 240.181 5.92753 3.281 0
M  V30 2636 H 241.124 6.78625 2.02171 0
M  V30 2637 H 241.532 5.09392 2.43269 0
M  V30 2638 N 240.93 -0.123565 1.57115 0
M  V30 2639 C 242.176 -0.833386 1.84885 0
M  V30 2640 C 242.509 -1.79742 0.735292 0
M  V30 2641 O 241.784 -1.92764 -0.25925 0
M  V30 2642 C 242.067 -1.5873 3.23228 0
M  V30 2643 C 241.92 -0.643183 4.45178 0
M  V30 2644 C 243.239 -2.54453 3.59085 0
M  V30 2645 H 240.358 -0.301518 0.6725 0
M  V30 2646 H 243 -0.097778 1.89748 0
M  V30 2647 H 241.15 -2.21438 3.19214 0
M  V30 2648 H 242.822 -0.0253015 4.61293 0
M  V30 2649 H 241.065 0.0456139 4.33776 0
M  V30 2650 H 241.736 -1.20724 5.38637 0
M  V30 2651 H 244.212 -2.01853 3.63861 0
M  V30 2652 H 243.088 -3.04238 4.5687 0
M  V30 2653 H 243.349 -3.36906 2.86264 0
M  V30 2654 N 242.408 -1.52605 -0.393616 0
M  V30 2655 C 243.656 -1.67093 -1.13685 0
M  V30 2656 C 243.977 -0.411011 -1.90619 0
M  V30 2657 O 243.247 0.574491 -1.87287 0
M  V30 2658 H 241.827 -0.615923 -0.422668 0
M  V30 2659 H 244.489 -1.89704 -0.447039 0
M  V30 2660 H 243.585 -2.51922 -1.84232 0
M  V30 2661 N 243.887 0.651787 -1.4349 0
M  V30 2662 C 244.797 1.79368 -1.5121 0
M  V30 2663 C 245.813 1.69361 -0.399093 0
M  V30 2664 O 246.989 1.90505 -0.653431 0
M  V30 2665 C 244.054 3.15653 -1.43401 0
M  V30 2666 C 243.115 3.37446 -2.65384 0
M  V30 2667 C 242.348 4.67229 -2.57939 0
M  V30 2668 O 242.571 5.46676 -1.62792 0
M  V30 2669 O 241.505 4.90773 -3.48462 0
M  V30 2670 H 245.331 1.7581 -2.47638 0
M  V30 2671 H 242.916 0.810447 -1.25507 0
M  V30 2672 H 244.798 3.96935 -1.41494 0
M  V30 2673 H 243.473 3.19798 -0.501085 0
M  V30 2674 H 242.38 2.55923 -2.72863 0
M  V30 2675 H 243.713 3.38148 -3.57654 0
M  V30 2676 N 245.365 1.30045 0.890287 0
M  V30 2677 C 246.611 1.18737 1.64406 0
M  V30 2678 C 246.944 -0.258525 1.92472 0
M  V30 2679 O 246.219 -1.18562 1.54186 0
M  V30 2680 C 246.502 2.01087 2.98724 0
M  V30 2681 C 246.355 3.53867 2.77665 0
M  V30 2682 C 247.674 1.84457 3.9958 0
M  V30 2683 H 244.793 0.432698 0.596608 0
M  V30 2684 H 247.435 1.5962 1.0306 0
M  V30 2685 H 245.585 1.66349 3.51084 0
M  V30 2686 H 247.257 3.98637 2.32133 0
M  V30 2687 H 245.5 3.78318 2.12269 0
M  V30 2688 H 246.171 4.06772 3.7315 0
M  V30 2689 H 248.647 2.14817 3.56361 0
M  V30 2690 H 247.523 2.44411 4.91482 0
M  V30 2691 H 247.784 0.802276 4.3476 0
M  V30 2692 N 246.843 -1.10192 1.12674 0
M  V30 2693 C 248.068 -1.86523 0.906853 0
M  V30 2694 C 248.493 -1.80221 -0.538711 0
M  V30 2695 O 247.851 -1.17396 -1.38158 0
M  V30 2696 C 247.899 -3.32758 1.3894 0
M  V30 2697 O 247.003 -4.08449 0.5695 0
M  V30 2698 H 246.344 -0.578678 0.325619 0
M  V30 2699 H 248.874 -1.39203 1.49946 0
M  V30 2700 H 248.884 -3.83608 1.38958 0
M  V30 2701 H 247.559 -3.36661 2.44197 0
M  V30 2702 H 246.136 -3.67427 0.636528 0
M  V30 2703 N 248.321 -0.919034 -1.28029 0
M  V30 2704 C 249.551 -0.570143 -1.98577 0
M  V30 2705 C 249.959 0.854172 -1.68821 0
M  V30 2706 O 249.302 1.57807 -0.940351 0
M  V30 2707 C 249.364 -0.705734 -3.52505 0
M  V30 2708 C 249.028 -2.10057 -4.05863 0
M  V30 2709 C 250.025 -3.07385 -4.19298 0
M  V30 2710 C 247.71 -2.41517 -4.40426 0
M  V30 2711 C 249.704 -4.34287 -4.66555 0
M  V30 2712 C 247.391 -3.68657 -4.87376 0
M  V30 2713 C 248.389 -4.64856 -5.00398 0
M  V30 2714 O 248.077 -5.89735 -5.46322 0
M  V30 2715 H 247.809 -0.215592 -0.6407 0
M  V30 2716 H 250.363 -1.23583 -1.64062 0
M  V30 2717 H 248.593 0.0170414 -3.86696 0
M  V30 2718 H 250.282 -0.363172 -4.04272 0
M  V30 2719 H 251.048 -2.84398 -3.92865 0
M  V30 2720 H 246.927 -1.67389 -4.29537 0
M  V30 2721 H 250.471 -5.09377 -4.76635 0
M  V30 2722 H 246.368 -3.91466 -5.13249 0
M  V30 2723 H 247.136 -5.92599 -5.64596 0
M  V30 2724 N 249.799 1.42003 -0.683588 0
M  V30 2725 C 251.047 2.01015 -0.209101 0
M  V30 2726 C 251.368 1.54365 1.19149 0
M  V30 2727 O 250.638 0.769083 1.80172 0
M  V30 2728 H 249.218 0.743294 -0.074315 0
M  V30 2729 H 251.88 1.73798 -0.882066 0
M  V30 2730 H 250.976 3.11343 -0.2172 0
M  V30 2731 N 251.277 0.427512 1.51691 0
M  V30 2732 C 252.502 -0.143601 2.06902 0
M  V30 2733 C 252.927 -1.36536 1.29382 0
M  V30 2734 O 252.285 -1.78289 0.329043 0
M  V30 2735 C 252.333 -0.454207 3.57728 0
M  V30 2736 O 251.437 -1.54228 3.82475 0
M  V30 2737 H 250.778 -0.00617128 0.663971 0
M  V30 2738 H 253.308 0.606014 1.95419 0
M  V30 2739 H 253.318 -0.707525 4.01818 0
M  V30 2740 H 251.993 0.438812 4.13579 0
M  V30 2741 H 250.57 -1.2797 3.50254 0
M  V30 2742 N 252.755 -1.56801 0.158532 0
M  V30 2743 C 254.001 -1.97559 -0.483957 0
M  V30 2744 C 254.356 -1.04239 -1.61716 0
M  V30 2745 O 253.649 -0.079603 -1.91435 0
M  V30 2746 C 253.843 -3.4235 -1.02623 0
M  V30 2747 C 253.672 -4.49669 0.0528929 0
M  V30 2748 C 252.442 -5.02838 0.498234 0
M  V30 2749 C 254.64 -5.0725 0.848616 0
M  V30 2750 N 252.622 -5.93775 1.559 0
M  V30 2751 C 253.993 -5.94506 1.7596 0
M  V30 2752 C 256.048 -4.89788 0.895121 0
M  V30 2753 C 254.751 -6.66169 2.71314 0
M  V30 2754 C 256.777 -5.62161 1.83654 0
M  V30 2755 C 256.139 -6.49134 2.73503 0
M  V30 2756 H 252.238 -0.768332 -0.145566 0
M  V30 2757 H 254.822 -1.93012 0.255799 0
M  V30 2758 H 252.993 -3.47467 -1.73555 0
M  V30 2759 H 254.725 -3.70145 -1.63629 0
M  V30 2760 H 251.48 -4.73498 0.0983222 0
M  V30 2761 H 251.904 -6.43948 2.08949 0
M  V30 2762 H 256.546 -4.22255 0.21453 0
M  V30 2763 H 254.264 -7.32923 3.40367 0
M  V30 2764 H 257.85 -5.5064 1.87847 0
M  V30 2765 H 256.73 -7.04153 3.45163 0
M  V30 2766 N 254.233 0.115231 -1.57178 0
M  V30 2767 C 255.463 0.835224 -1.88964 0
M  V30 2768 C 255.871 1.73774 -0.74829 0
M  V30 2769 O 255.214 1.81401 0.289739 0
M  V30 2770 C 255.276 1.7178 -3.15804 0
M  V30 2771 C 254.94 0.989198 -4.46166 0
M  V30 2772 C 255.937 0.328263 -5.18863 0
M  V30 2773 C 253.622 0.969256 -4.9286 0
M  V30 2774 C 255.616 -0.342873 -6.36477 0
M  V30 2775 C 253.303 0.294324 -6.10391 0
M  V30 2776 C 254.301 -0.360582 -6.82048 0
M  V30 2777 O 253.989 -1.02474 -7.97342 0
M  V30 2778 H 253.721 0.245197 -0.629964 0
M  V30 2779 H 256.275 0.10303 -2.05141 0
M  V30 2780 H 254.505 2.49173 -2.95719 0
M  V30 2781 H 256.194 2.31255 -3.33581 0
M  V30 2782 H 256.96 0.335263 -4.8384 0
M  V30 2783 H 252.839 1.46844 -4.36987 0
M  V30 2784 H 256.383 -0.854629 -6.92345 0
M  V30 2785 H 252.28 0.285099 -6.4487 0
M  V30 2786 H 253.048 -0.929594 -8.13204 0
M  V30 2787 N 255.711 1.52812 0.385517 0
M  V30 2788 C 256.643 1.74096 1.49074 0
M  V30 2789 C 257.656 0.621462 1.50472 0
M  V30 2790 O 258.845 0.897245 1.54311 0
M  V30 2791 C 255.945 1.78774 2.87911 0
M  V30 2792 C 255.118 3.08134 3.10439 0
M  V30 2793 C 254.177 3.04313 4.29278 0
M  V30 2794 O 253.203 3.78168 4.25415 0
M  V30 2795 N 254.405 2.23741 5.35649 0
M  V30 2796 H 257.17 2.69455 1.31202 0
M  V30 2797 H 254.731 1.51343 0.575065 0
M  V30 2798 H 256.723 1.73721 3.65518 0
M  V30 2799 H 255.293 0.907869 2.99126 0
M  V30 2800 H 254.513 3.26649 2.20667 0
M  V30 2801 H 255.801 3.93662 3.22347 0
M  V30 2802 H 255.199 1.63211 5.41645 0
M  V30 2803 H 253.756 2.24524 6.11909 0
M  V30 2804 N 257.189 -0.644168 1.43834 0
M  V30 2805 C 258.139 -1.7501 1.46135 0
M  V30 2806 C 259.123 -1.57507 0.328685 0
M  V30 2807 O 260.315 -1.67465 0.5731 0
M  V30 2808 C 257.444 -3.13641 1.39585 0
M  V30 2809 C 256.53 -3.3666 2.57916 0
M  V30 2810 N 256.921 -3.30107 3.83227 0
M  V30 2811 C 255.219 -3.67411 2.52834 0
M  V30 2812 C 255.92 -3.53456 4.61999 0
M  V30 2813 N 254.896 -3.75705 3.9287 0
M  V30 2814 H 258.698 -1.68382 2.40883 0
M  V30 2815 H 256.212 -0.846169 1.38614 0
M  V30 2816 H 258.209 -3.92933 1.39317 0
M  V30 2817 H 256.869 -3.21444 0.45865 0
M  V30 2818 H 257.88 -3.09316 4.15384 0
M  V30 2819 H 254.557 -3.82275 1.67845 0
M  V30 2820 H 255.947 -3.54093 5.71024 0
M  V30 2821 N 258.668 -1.30515 -0.883378 0
M  V30 2822 C 259.914 -1.19607 -1.63774 0
M  V30 2823 C 260.247 0.248314 -1.92606 0
M  V30 2824 O 259.522 1.17742 -1.54813 0
M  V30 2825 C 259.805 -2.02669 -2.97653 0
M  V30 2826 C 259.658 -3.55335 -2.75784 0
M  V30 2827 C 260.977 -1.86573 -3.98596 0
M  V30 2828 H 258.096 -0.435856 -0.594305 0
M  V30 2829 H 260.738 -1.60165 -1.02212 0
M  V30 2830 H 258.888 -1.68208 -3.50197 0
M  V30 2831 H 260.56 -3.99863 -2.30016 0
M  V30 2832 H 258.803 -3.79438 -2.1026 0
M  V30 2833 H 259.474 -4.08745 -3.70988 0
M  V30 2834 H 261.95 -2.16703 -3.55217 0
M  V30 2835 H 260.826 -2.47014 -4.90179 0
M  V30 2836 H 261.087 -0.825321 -4.34328 0
M  V30 2837 N 260.146 1.09593 -1.13257 0
M  V30 2838 C 261.078 2.16015 -0.766167 0
M  V30 2839 C 262.091 1.61423 0.211303 0
M  V30 2840 O 263.28 1.78498 -0.00863946 0
M  V30 2841 C 260.38 3.38706 -0.114662 0
M  V30 2842 C 259.553 4.22717 -1.12379 0
M  V30 2843 C 258.612 5.23835 -0.498301 0
M  V30 2844 O 257.638 5.573 -1.15781 0
M  V30 2845 N 258.84 5.75886 0.730417 0
M  V30 2846 H 261.605 2.48055 -1.68193 0
M  V30 2847 H 259.166 1.25292 -1.02535 0
M  V30 2848 H 261.158 4.03464 0.315991 0
M  V30 2849 H 259.728 3.04569 0.704011 0
M  V30 2850 H 258.948 3.54122 -1.73179 0
M  V30 2851 H 260.236 4.75673 -1.80589 0
M  V30 2852 H 259.634 5.50911 1.28504 0
M  V30 2853 H 258.191 6.42387 1.10376 0
M  V30 2854 N 261.624 0.925811 1.2754 0
M  V30 2855 C 262.534 0.428993 2.30644 0
M  V30 2856 C 263.55 -0.489387 1.66976 0
M  V30 2857 O 264.726 -0.372653 1.97922 0
M  V30 2858 C 261.791 -0.311967 3.45294 0
M  V30 2859 C 260.852 0.641098 4.24486 0
M  V30 2860 C 260.085 -0.0645955 5.33661 0
M  V30 2861 O 260.308 -1.28429 5.55754 0
M  V30 2862 O 259.242 0.606265 5.98839 0
M  V30 2863 H 263.068 1.28504 2.75173 0
M  V30 2864 H 260.653 0.691086 1.32455 0
M  V30 2865 H 262.535 -0.729972 4.15029 0
M  V30 2866 H 261.21 -1.14365 3.02824 0
M  V30 2867 H 260.117 1.10874 3.57292 0
M  V30 2868 H 261.45 1.43995 4.70666 0
M  V30 2869 N 263.102 -1.41638 0.69111 0
M  V30 2870 C 264.348 -2.02104 0.229258 0
M  V30 2871 C 264.703 -1.53741 -1.15678 0
M  V30 2872 O 263.996 -0.736849 -1.76865 0
M  V30 2873 C 264.19 -3.56714 0.221277 0
M  V30 2874 C 264.019 -4.20083 1.605 0
M  V30 2875 C 262.789 -4.54566 2.20676 0
M  V30 2876 C 264.987 -4.46587 2.55078 0
M  V30 2877 N 262.969 -5.03199 3.5166 0
M  V30 2878 C 264.34 -4.96946 3.70735 0
M  V30 2879 C 266.395 -4.28593 2.53401 0
M  V30 2880 C 265.098 -5.31203 4.8499 0
M  V30 2881 C 267.124 -4.63936 3.66765 0
M  V30 2882 C 266.486 -5.14463 4.81152 0
M  V30 2883 H 262.585 -0.771256 0.12918 0
M  V30 2884 H 265.169 -1.72251 0.907626 0
M  V30 2885 H 263.34 -3.86051 -0.426562 0
M  V30 2886 H 265.072 -4.03896 -0.254983 0
M  V30 2887 H 261.827 -4.4087 1.73005 0
M  V30 2888 H 262.251 -5.31926 4.18789 0
M  V30 2889 H 266.893 -3.88771 1.66184 0
M  V30 2890 H 264.611 -5.69951 5.72871 0
M  V30 2891 H 268.197 -4.51677 3.66714 0
M  V30 2892 H 267.077 -5.41299 5.67419 0
M  V30 2893 N 264.58 -0.43555 -1.51462 0
M  V30 2894 C 265.826 0.123979 -2.03022 0
M  V30 2895 C 266.181 1.4054 -1.31401 0
M  V30 2896 O 265.474 1.86948 -0.419634 0
M  V30 2897 C 265.668 0.39942 -3.55161 0
M  V30 2898 C 265.497 -0.853754 -4.41521 0
M  V30 2899 C 264.267 -1.38675 -4.85898 0
M  V30 2900 C 266.465 -1.73939 -4.83994 0
M  V30 2901 N 264.447 -2.59265 -5.56466 0
M  V30 2902 C 265.818 -2.79135 -5.5361 0
M  V30 2903 C 267.873 -1.75402 -4.65981 0
M  V30 2904 C 266.576 -3.85737 -6.07124 0
M  V30 2905 C 268.602 -2.80938 -5.20411 0
M  V30 2906 C 267.964 -3.84854 -5.89972 0
M  V30 2907 H 264.063 0.00624887 -0.781975 0
M  V30 2908 H 266.647 -0.59582 -1.85359 0
M  V30 2909 H 264.818 1.08825 -3.72843 0
M  V30 2910 H 266.55 0.95015 -3.93388 0
M  V30 2911 H 263.305 -0.94094 -4.64159 0
M  V30 2912 H 263.729 -3.2041 -5.96378 0
M  V30 2913 H 268.371 -0.963926 -4.11665 0
M  V30 2914 H 266.089 -4.65586 -6.60496 0
M  V30 2915 H 269.675 -2.8301 -5.08327 0
M  V30 2916 H 268.555 -4.65176 -6.31333 0
M  V30 2917 N 266.058 1.56714 -0.166846 0
M  V30 2918 C 266.968 2.21331 0.777791 0
M  V30 2919 C 267.984 1.20358 1.25658 0
M  V30 2920 O 269.16 1.53005 1.30964 0
M  V30 2921 C 266.225 2.83787 1.99163 0
M  V30 2922 C 265.286 3.99947 1.56016 0
M  V30 2923 C 264.519 4.59415 2.71613 0
M  V30 2924 O 264.742 4.17769 3.88362 0
M  V30 2925 O 263.676 5.49359 2.45945 0
M  V30 2926 H 267.502 3.02605 0.257636 0
M  V30 2927 H 265.087 1.49275 0.0611393 0
M  V30 2928 H 266.969 3.23405 2.70161 0
M  V30 2929 H 265.644 2.05513 2.50092 0
M  V30 2930 H 264.551 3.65007 0.819809 0
M  V30 2931 H 265.884 4.79801 1.09782 0
M  V30 2932 N 267.536 -0.106894 1.57237 0
M  V30 2933 C 268.466 -1.13148 2.04254 0
M  V30 2934 C 269.447 -1.42476 0.929224 0
M  V30 2935 O 270.632 -1.52709 1.19973 0
M  V30 2936 C 267.762 -2.4545 2.45706 0
M  V30 2937 C 266.716 -2.30558 3.60592 0
M  V30 2938 C 266.042 -3.67931 3.87983 0
M  V30 2939 C 267.342 -1.75597 4.91897 0
M  V30 2940 H 269.036 -0.740374 2.90101 0
M  V30 2941 H 266.582 -0.354696 1.39563 0
M  V30 2942 H 268.535 -3.17389 2.77205 0
M  V30 2943 H 267.259 -2.86475 1.56843 0
M  V30 2944 H 265.918 -1.61067 3.29322 0
M  V30 2945 H 265.566 -4.06462 2.96306 0
M  V30 2946 H 265.266 -3.58817 4.65322 0
M  V30 2947 H 266.79 -4.41356 4.21945 0
M  V30 2948 H 268.204 -2.37364 5.21854 0
M  V30 2949 H 266.601 -1.77272 5.73319 0
M  V30 2950 H 267.671 -0.714451 4.79608 0
M  V30 2951 N 269.014 -1.53014 -0.377408 0
M  V30 2952 C 270.239 -1.72818 -1.14668 0
M  V30 2953 C 270.664 -0.450725 -1.8262 0
M  V30 2954 O 270.022 0.59439 -1.7128 0
M  V30 2955 C 270.07 -2.88627 -2.16164 0
M  V30 2956 O 269.174 -2.56409 -3.22998 0
M  V30 2957 H 268.515 -0.574301 -0.333278 0
M  V30 2958 H 271.045 -1.99853 -0.438152 0
M  V30 2959 H 271.055 -3.14455 -2.59966 0
M  V30 2960 H 269.73 -3.81294 -1.66095 0
M  V30 2961 H 268.307 -2.4136 -2.84253 0
M  V30 2962 N 270.492 0.636531 -1.44174 0
M  V30 2963 C 271.908 0.954104 -1.27941 0
M  V30 2964 C 272.108 2.0039 -0.211248 0
M  V30 2965 O 271.164 2.49236 0.404695 0
M  V30 2966 C 272.477 1.4225 -2.64925 0
M  V30 2967 C 274.025 1.53827 -2.72592 0
M  V30 2968 C 274.5 2.04053 -4.10032 0
M  V30 2969 N 275.991 2.11331 -4.12182 0
M  V30 2970 C 276.726 2.51352 -5.15374 0
M  V30 2971 N 276.222 2.90549 -6.2893 0
M  V30 2972 N 278.015 2.51438 -5.02728 0
M  V30 2973 H 270.166 -0.0578386 -2.12321 0
M  V30 2974 H 272.429 0.0367406 -0.947288 0
M  V30 2975 H 272.135 0.725466 -3.44136 0
M  V30 2976 H 272.009 2.39451 -2.9145 0
M  V30 2977 H 274.396 2.22628 -1.93702 0
M  V30 2978 H 274.477 0.550154 -2.49814 0
M  V30 2979 H 274.121 1.35848 -4.89395 0
M  V30 2980 H 274.051 3.03726 -4.30184 0
M  V30 2981 H 276.542 1.83745 -3.30222 0
M  V30 2982 H 276.855 3.19884 -7.03487 0
M  V30 2983 H 275.2 2.88313 -6.32377 0
M  V30 2984 H 278.391 2.20203 -4.13072 0
M  V30 2985 H 278.564 2.82304 -5.83274 0
M  V30 2986 N 271.97 1.30982 0.876444 0
M  V30 2987 C 273.198 1.23242 1.6619 0
M  V30 2988 C 273.613 -0.203345 1.87702 0
M  V30 2989 O 272.97 -1.13317 1.43057 0
M  V30 2990 C 273.021 1.96623 3.03351 0
M  V30 2991 O 272.742 3.34594 2.82804 0
M  V30 2992 C 274.243 1.95644 3.97792 0
M  V30 2993 H 271.463 0.426126 0.518322 0
M  V30 2994 H 274.007 1.7275 1.09442 0
M  V30 2995 H 272.162 1.50892 3.56806 0
M  V30 2996 H 272.576 3.71873 3.69879 0
M  V30 2997 H 274.05 2.51511 4.91372 0
M  V30 2998 H 274.527 0.937395 4.2908 0
M  V30 2999 H 275.133 2.41225 3.50272 0
M  V30 3000 N 273.449 -1.08991 1.13837 0
M  V30 3001 C 274.399 -2.1393 0.788535 0
M  V30 3002 C 275.383 -1.59396 -0.219516 0
M  V30 3003 O 276.575 -1.76985 -0.0227557 0
M  V30 3004 C 273.704 -3.42305 0.261147 0
M  V30 3005 C 272.79 -4.03736 1.29837 0
M  V30 3006 N 273.181 -4.39659 2.50067 0
M  V30 3007 C 271.479 -4.30993 1.1472 0
M  V30 3008 C 272.18 -4.88113 3.16419 0
M  V30 3009 N 271.156 -4.85846 2.43832 0
M  V30 3010 H 274.958 -2.39516 1.70322 0
M  V30 3011 H 272.472 -1.26263 1.02134 0
M  V30 3012 H 274.469 -4.16899 -0.0077405 0
M  V30 3013 H 273.129 -3.18172 -0.647805 0
M  V30 3014 H 274.14 -4.30878 2.8734 0
M  V30 3015 H 270.817 -4.16444 0.296773 0
M  V30 3016 H 272.207 -5.25336 4.18894 0
M  V30 3017 N 274.927 -0.932562 -1.27047 0
M  V30 3018 C 276.338 -0.619451 -1.76124 0
M  V30 3019 C 276.689 0.865397 -1.76083 0
M  V30 3020 O 275.814 1.67722 -1.36742 0
M  V30 3021 C 276.409 -1.11771 -3.19832 0
M  V30 3022 C 274.968 -0.855174 -3.66557 0
M  V30 3023 C 274.115 -1.27362 -2.46321 0
M  V30 3024 H 277.066 -1.11181 -1.13245 0
M  V30 3025 H 277.087 -0.46759 -3.77616 0
M  V30 3026 H 276.599 -2.19842 -3.1983 0
M  V30 3027 H 274.7 0.211524 -3.71999 0
M  V30 3028 H 274.813 -1.47613 -4.55793 0
M  V30 3029 H 273.177 -0.692119 -2.45116 0
M  V30 3030 H 273.96 -2.36307 -2.49025 0
M  V30 3031 N 276.405 1.4127 -0.698611 0
M  V30 3032 C 277.651 2.01478 -0.231207 0
M  V30 3033 C 277.984 1.55215 1.16713 0
M  V30 3034 O 277.259 0.764672 1.78838 0
M  V30 3035 C 277.542 3.58912 -0.292281 0
M  V30 3036 C 277.395 4.15293 -1.72778 0
M  V30 3037 C 278.714 4.38736 0.346194 0
M  V30 3038 H 275.833 0.732025 -0.0854878 0
M  V30 3039 H 278.475 1.67977 -0.887906 0
M  V30 3040 H 276.625 3.87582 0.26686 0
M  V30 3041 H 278.297 3.97486 -2.341 0
M  V30 3042 H 276.54 3.7022 -2.26096 0
M  V30 3043 H 277.211 5.24452 -1.72202 0
M  V30 3044 H 279.687 4.15897 -0.130035 0
M  V30 3045 H 278.563 5.48221 0.272932 0
M  V30 3046 H 278.824 4.18425 1.42734 0
M  V30 3047 N 277.883 0.443576 1.51229 0
M  V30 3048 C 278.813 -0.355142 2.30783 0
M  V30 3049 C 279.794 -1.0154 1.36468 0
M  V30 3050 O 280.979 -1.01785 1.65389 0
M  V30 3051 C 278.109 -1.45312 3.15439 0
M  V30 3052 C 277.063 -0.916002 4.18083 0
M  V30 3053 C 276.389 -2.1102 4.91299 0
M  V30 3054 C 277.689 0.0538602 5.22272 0
M  V30 3055 H 279.383 0.308767 2.97804 0
M  V30 3056 H 276.929 0.149937 1.43217 0
M  V30 3057 H 278.882 -2.01914 3.69876 0
M  V30 3058 H 277.606 -2.14541 2.46252 0
M  V30 3059 H 276.265 -0.372145 3.64706 0
M  V30 3060 H 275.913 -2.78882 4.18609 0
M  V30 3061 H 275.613 -1.75717 5.60712 0
M  V30 3062 H 277.137 -2.68164 5.48562 0
M  V30 3063 H 278.551 -0.422069 5.71744 0
M  V30 3064 H 276.948 0.319776 5.99247 0
M  V30 3065 H 278.018 0.98858 4.74716 0
M  V30 3066 N 279.361 -1.56624 0.175154 0
M  V30 3067 C 280.591 -2.01082 -0.474283 0
M  V30 3068 C 280.999 -1.05447 -1.57091 0
M  V30 3069 O 280.342 -0.0480595 -1.83637 0
M  V30 3070 C 280.404 -3.41963 -1.10911 0
M  V30 3071 C 280.068 -4.56742 -0.153666 0
M  V30 3072 C 281.065 -5.16076 0.629448 0
M  V30 3073 C 278.75 -5.02277 -0.0483776 0
M  V30 3074 C 280.744 -6.19377 1.50501 0
M  V30 3075 C 278.431 -6.05427 0.830768 0
M  V30 3076 C 279.429 -6.63849 1.60605 0
M  V30 3077 O 279.117 -7.64998 2.47049 0
M  V30 3078 H 278.849 -0.664261 -0.125432 0
M  V30 3079 H 281.403 -2.03549 0.275163 0
M  V30 3080 H 279.633 -3.36422 -1.90676 0
M  V30 3081 H 281.322 -3.70352 -1.66114 0
M  V30 3082 H 282.088 -4.81776 0.558297 0
M  V30 3083 H 277.967 -4.56513 -0.641611 0
M  V30 3084 H 281.511 -6.64906 2.1106 0
M  V30 3085 H 277.408 -6.39151 0.903107 0
M  V30 3086 H 278.176 -7.82336 2.40607 0
M  V30 3087 N 280.839 0.0985539 -1.57292 0
M  V30 3088 C 281.769 1.12064 -2.04851 0
M  V30 3089 C 282.75 1.41981 -0.936767 0
M  V30 3090 O 283.935 1.52071 -1.20781 0
M  V30 3091 C 281.065 2.44144 -2.47004 0
M  V30 3092 C 280.019 2.28643 -3.6181 0
M  V30 3093 C 279.345 3.65869 -3.89929 0
M  V30 3094 C 280.645 1.72986 -4.92822 0
M  V30 3095 H 282.339 0.724979 -2.9049 0
M  V30 3096 H 279.885 0.34729 -1.39749 0
M  V30 3097 H 281.838 3.15914 -2.78884 0
M  V30 3098 H 280.562 2.85639 -1.5836 0
M  V30 3099 H 279.221 1.59318 -3.30172 0
M  V30 3100 H 278.869 4.04885 -2.98458 0
M  V30 3101 H 278.569 3.56344 -4.67218 0
M  V30 3102 H 280.093 4.39112 -4.2428 0
M  V30 3103 H 281.507 2.34593 -5.23105 0
M  V30 3104 H 279.904 1.74229 -5.74251 0
M  V30 3105 H 280.974 0.689007 -4.7998 0
M  V30 3106 N 282.317 1.53212 0.369288 0
M  V30 3107 C 283.564 1.69215 1.11232 0
M  V30 3108 C 283.892 0.442048 1.8941 0
M  V30 3109 O 283.147 -0.575944 1.87033 0
M  V30 3110 C 283.446 2.89101 2.10132 0
M  V30 3111 C 283.112 4.25758 1.48463 0
M  V30 3112 C 281.774 4.6292 1.31372 0
M  V30 3113 C 284.126 5.10757 1.03811 0
M  V30 3114 C 281.454 5.82722 0.68207 0
M  V30 3115 C 283.806 6.31201 0.420487 0
M  V30 3116 C 282.47 6.67079 0.237038 0
M  V30 3117 H 281.74 0.619201 0.407027 0
M  V30 3118 H 284.387 1.87391 0.394552 0
M  V30 3119 H 282.692 2.65421 2.88199 0
M  V30 3120 H 284.389 2.98676 2.6757 0
M  V30 3121 H 280.979 3.96494 1.62758 0
M  V30 3122 H 285.163 4.82599 1.1581 0
M  V30 3123 H 280.419 6.09113 0.528316 0
M  V30 3124 H 284.593 6.96368 0.0662874 0
M  V30 3125 H 282.22 7.59774 -0.254477 0
M  V30 3126 N 283.795 -0.628877 1.44509 0
M  V30 3127 C 285.025 -1.41349 1.50678 0
M  V30 3128 C 285.433 -1.88745 0.131075 0
M  V30 3129 O 284.776 -1.61592 -0.87371 0
M  V30 3130 C 284.838 -2.66608 2.41165 0
M  V30 3131 C 284.502 -2.40993 3.88293 0
M  V30 3132 C 285.499 -2.0268 4.78766 0
M  V30 3133 C 283.184 -2.54563 4.33016 0
M  V30 3134 C 285.178 -1.78269 6.11963 0
M  V30 3135 C 282.865 -2.29766 5.6626 0
M  V30 3136 C 283.863 -1.91678 6.55552 0
M  V30 3137 O 283.551 -1.67158 7.86329 0
M  V30 3138 H 283.283 -0.439851 0.51333 0
M  V30 3139 H 285.837 -0.776084 1.90174 0
M  V30 3140 H 284.067 -3.32994 1.96601 0
M  V30 3141 H 285.756 -3.28615 2.38259 0
M  V30 3142 H 286.522 -1.91751 4.45485 0
M  V30 3143 H 282.401 -2.83179 3.63773 0
M  V30 3144 H 285.945 -1.48465 6.81619 0
M  V30 3145 H 281.842 -2.40306 5.99102 0
M  V30 3146 H 282.61 -1.81386 7.98149 0
M  V30 3147 N 285.273 -1.31445 -0.869486 0
M  V30 3148 C 286.183 -1.21097 -2.0093 0
M  V30 3149 C 287.199 -0.127584 -1.73532 0
M  V30 3150 O 288.375 -0.345477 -1.98415 0
M  V30 3151 C 285.44 -0.919378 -3.34288 0
M  V30 3152 C 284.501 -2.08971 -3.75006 0
M  V30 3153 C 283.734 -1.81194 -5.02001 0
M  V30 3154 O 283.957 -0.747296 -5.65484 0
M  V30 3155 O 282.891 -2.66883 -5.39497 0
M  V30 3156 H 286.717 -2.16883 -2.12592 0
M  V30 3157 H 284.302 -1.11189 -0.997868 0
M  V30 3158 H 286.184 -0.772625 -4.14257 0
M  V30 3159 H 284.859 0.00844772 -3.23699 0
M  V30 3160 H 283.766 -2.29187 -2.95676 0
M  V30 3161 H 285.099 -2.9998 -3.90221 0
M  V30 3162 N 286.751 1.08385 -1.14413 0
M  V30 3163 C 288.028 1.77429 -0.823297 0
M  V30 3164 C 288.408 1.9974 0.683163 0
M  V30 3165 O 287.756 1.60739 1.62405 0
M  V30 3166 C 287.966 3.09004 -1.62227 0
M  V30 3167 C 289.314 3.83532 -1.82177 0
M  V30 3168 O 290.338 3.18786 -1.58915 0
M  V30 3169 O 289.197 4.99792 -2.21067 0
M  V30 3170 H 286.291 0.769999 -0.301712 0
M  V30 3171 H 288.837 1.14846 -1.24934 0
M  V30 3172 H 287.609 2.88316 -2.64555 0
M  V30 3173 H 287.232 3.79316 -1.19187 0
M  V30 3174 N 288.23 0.939286 1.26551 0
M  V30 3175 C 289.163 0.391702 2.24813 0
M  V30 3176 C 290.141 -0.518421 1.54114 0
M  V30 3177 O 291.325 -0.456299 1.82894 0
M  V30 3178 C 288.452 -0.437382 3.35864 0
M  V30 3179 C 287.498 0.410946 4.24516 0
M  V30 3180 S 288.331 1.83372 5.03125 0
M  V30 3181 C 289.487 1.01264 6.17654 0
M  V30 3182 H 289.72 1.22448 2.70913 0
M  V30 3183 H 287.253 0.742269 1.35387 0
M  V30 3184 H 289.211 -0.909837 4.0029 0
M  V30 3185 H 287.872 -1.24482 2.8838 0
M  V30 3186 H 287.065 -0.224191 5.03501 0
M  V30 3187 H 286.667 0.818014 3.64945 0
M  V30 3188 H 288.959 0.254023 6.77024 0
M  V30 3189 H 289.902 1.77589 6.85469 0
M  V30 3190 H 290.31 0.549532 5.61819 0
M  V30 3191 N 289.708 -1.40897 0.706093 0
M  V30 3192 C 290.655 -2.30751 0.0474474 0
M  V30 3193 C 291.625 -1.47678 -0.76029 0
M  V30 3194 O 292.81 -1.76441 -0.726177 0
M  V30 3195 C 289.95 -3.33815 -0.875309 0
M  V30 3196 C 289.063 -4.31961 -0.0580623 0
M  V30 3197 C 288.198 -5.22093 -0.979425 0
M  V30 3198 C 287.237 -6.11902 -0.155706 0
M  V30 3199 N 286.374 -6.94482 -1.03144 0
M  V30 3200 H 291.214 -2.86513 0.819413 0
M  V30 3201 H 288.751 -1.41102 0.415783 0
M  V30 3202 H 290.709 -3.92129 -1.42446 0
M  V30 3203 H 289.339 -2.79579 -1.61356 0
M  V30 3204 H 288.391 -3.75507 0.608147 0
M  V30 3205 H 289.703 -4.95415 0.580082 0
M  V30 3206 H 288.857 -5.85292 -1.59744 0
M  V30 3207 H 287.596 -4.5889 -1.65141 0
M  V30 3208 H 286.601 -5.47742 0.475309 0
M  V30 3209 H 287.826 -6.77162 0.512635 0
M  V30 3210 H 285.772 -6.33877 -1.68924 0
M  V30 3211 H 285.689 -7.54665 -0.449108 0
M  V30 3212 H 286.957 -7.6214 -1.63593 0
M  V30 3213 N 291.186 -0.45159 -1.50991 0
M  V30 3214 C 292.096 0.358431 -2.31846 0
M  V30 3215 C 293.112 1.01438 -1.41373 0
M  V30 3216 O 294.288 1.00663 -1.74439 0
M  V30 3217 C 291.353 1.43704 -3.15515 0
M  V30 3218 C 290.414 0.799742 -4.21785 0
M  V30 3219 C 289.647 1.82696 -5.01456 0
M  V30 3220 O 289.87 3.05105 -4.81941 0
M  V30 3221 O 288.804 1.40958 -5.85162 0
M  V30 3222 H 292.63 -0.302032 -3.02194 0
M  V30 3223 H 290.215 -0.213825 -1.47862 0
M  V30 3224 H 292.097 2.06227 -3.67489 0
M  V30 3225 H 290.772 2.08133 -2.47916 0
M  V30 3226 H 289.679 0.136084 -3.73852 0
M  V30 3227 H 291.012 0.198718 -4.91799 0
M  V30 3228 N 292.664 1.56529 -0.183458 0
M  V30 3229 C 293.612 2.19873 0.758845 0
M  V30 3230 C 294.606 1.16638 1.22849 0
M  V30 3231 O 295.812 1.3481 1.19274 0
M  V30 3232 H 292.187 0.7045 0.263029 0
M  V30 3233 H 294.158 2.97724 0.200755 0
M  V30 3234 C 292.907 2.86314 1.9728 0
M  V30 3235 H 292.23 3.65487 1.62047 0
M  V30 3236 H 293.67 3.3409 2.61075 0
M  V30 3237 C 292.129 1.86729 2.80418 0
M  V30 3238 O 292.659 1.36031 3.77966 0
M  V30 3239 N 290.865 1.55216 2.45675 0
M  V30 3240 H 290.412 1.96636 1.66409 0
M  V30 3241 H 290.37 0.888388 3.01588 0
M  V30 3242 N 294.142 -0.090211 1.57342 0
M  V30 3243 C 295.553 -0.644173 1.75235 0
M  V30 3244 C 295.904 -1.78865 0.806335 0
M  V30 3245 O 295.029 -2.16395 -0.0140128 0
M  V30 3246 C 295.624 -1.17532 3.1776 0
M  V30 3247 C 294.183 -1.67531 3.37061 0
M  V30 3248 C 293.33 -0.58693 2.71017 0
M  V30 3249 H 296.281 0.135884 1.58117 0
M  V30 3250 H 296.302 -2.04455 3.20902 0
M  V30 3251 H 295.814 -0.342138 3.86589 0
M  V30 3252 H 293.915 -2.53234 2.73319 0
M  V30 3253 H 294.028 -1.76493 4.45406 0
M  V30 3254 H 292.392 -1.02756 2.33052 0
M  V30 3255 H 293.175 0.235758 3.4249 0
M  V30 3256 N 295.62 -1.53406 -0.361157 0
M  V30 3257 C 296.567 -1.80156 -1.44265 0
M  V30 3258 C 297.537 -0.646183 -1.53015 0
M  V30 3259 O 298.722 -0.888818 -1.68833 0
M  V30 3260 C 295.862 -2.00116 -2.81154 0
M  V30 3261 C 294.975 -3.27833 -2.81335 0
M  V30 3262 C 294.11 -3.37957 -4.09828 0
M  V30 3263 C 293.149 -4.59689 -4.04168 0
M  V30 3264 N 292.286 -4.66942 -5.24318 0
M  V30 3265 H 297.126 -2.72438 -1.20754 0
M  V30 3266 H 294.663 -1.34954 -0.585296 0
M  V30 3267 H 296.621 -2.09677 -3.60682 0
M  V30 3268 H 295.251 -1.11167 -3.03054 0
M  V30 3269 H 294.303 -3.27204 -1.94014 0
M  V30 3270 H 295.615 -4.17442 -2.73027 0
M  V30 3271 H 294.769 -3.46853 -4.97773 0
M  V30 3272 H 293.508 -2.46372 -4.20894 0
M  V30 3273 H 292.513 -4.50889 -3.14609 0
M  V30 3274 H 293.738 -5.5262 -3.947 0
M  V30 3275 H 291.684 -3.7826 -5.35962 0
M  V30 3276 H 291.601 -5.50462 -5.18197 0
M  V30 3277 H 292.869 -4.80127 -6.14084 0
M  V30 3278 N 297.098 0.621204 -1.44841 0
M  V30 3279 C 298.514 0.94048 -1.28946 0
M  V30 3280 C 298.714 2.00154 -0.23249 0
M  V30 3281 O 297.77 2.49651 0.378237 0
M  V30 3282 C 299.083 1.39433 -2.66419 0
M  V30 3283 C 300.631 1.50927 -2.74208 0
M  V30 3284 C 301.106 1.99692 -4.12174 0
M  V30 3285 N 302.597 2.06947 -4.144 0
M  V30 3286 C 303.332 2.45871 -5.1801 0
M  V30 3287 N 302.828 2.83862 -6.31977 0
M  V30 3288 N 304.621 2.46092 -5.05366 0
M  V30 3289 H 296.772 -0.0803548 -2.12248 0
M  V30 3290 H 299.035 0.0266913 -0.947624 0
M  V30 3291 H 298.741 0.688925 -3.44887 0
M  V30 3292 H 298.615 2.36347 -2.93973 0
M  V30 3293 H 301.002 2.20561 -1.96053 0
M  V30 3294 H 301.083 0.523627 -2.50383 0
M  V30 3295 H 300.727 1.30649 -4.90809 0
M  V30 3296 H 300.657 2.99146 -4.33381 0
M  V30 3297 H 303.148 1.80232 -3.32152 0
M  V30 3298 H 303.461 3.12405 -7.0684 0
M  V30 3299 H 301.806 2.8159 -6.35399 0
M  V30 3300 H 304.997 2.1581 -4.15384 0
M  V30 3301 H 305.17 2.76102 -5.86235 0
M  V30 3302 N 298.576 1.31904 0.862503 0
M  V30 3303 C 299.486 1.22161 2.00285 0
M  V30 3304 C 300.502 0.136785 1.73462 0
M  V30 3305 O 301.678 0.355994 1.98229 0
M  V30 3306 C 298.743 0.937093 3.33796 0
M  V30 3307 C 297.804 2.10957 3.73893 0
M  V30 3308 C 297.037 1.83853 5.01033 0
M  V30 3309 O 297.26 0.777274 5.65079 0
M  V30 3310 O 296.194 2.69741 5.38074 0
M  V30 3311 H 300.02 2.18008 2.11439 0
M  V30 3312 H 297.605 1.11716 0.991957 0
M  V30 3313 H 299.487 0.794583 4.13841 0
M  V30 3314 H 298.162 0.00871894 3.23699 0
M  V30 3315 H 297.069 2.30752 2.94456 0
M  V30 3316 H 298.402 3.02046 3.88625 0
M  V30 3317 N 300.054 -1.07777 1.14986 0
M  V30 3318 C 301.303 -1.79669 0.916617 0
M  V30 3319 C 301.616 -1.87474 -0.557917 0
M  V30 3320 O 302.822 -2.55845 -0.908617 0
M  V30 3321 C 301.278 -3.22848 1.59051 0
M  V30 3322 C 300.886 -3.23257 3.10176 0
M  V30 3323 C 302.63 -3.99379 1.43864 0
M  V30 3324 C 300.537 -4.61063 3.70372 0
M  V30 3325 H 299.467 -0.673349 0.33929 0
M  V30 3326 H 302.118 -1.21003 1.37951 0
M  V30 3327 H 300.5 -3.8168 1.0553 0
M  V30 3328 H 301.674 -2.74095 3.70417 0
M  V30 3329 H 299.989 -2.60222 3.25074 0
M  V30 3330 H 302.586 -5.0122 1.86232 0
M  V30 3331 H 302.929 -4.14511 0.385564 0
M  V30 3332 H 303.462 -3.47032 1.94457 0
M  V30 3333 H 300.201 -4.51135 4.7556 0
M  V30 3334 H 299.721 -5.1048 3.14913 0
M  V30 3335 H 301.4 -5.30034 3.71043 0
M  V30 3336 N 301.532 -0.945985 -1.26051 0
M  V30 3337 C 302.464 -0.416662 -2.25381 0
M  V30 3338 C 303.477 0.462712 -1.56086 0
M  V30 3339 O 304.666 0.272383 -1.7641 0
M  V30 3340 C 301.766 0.419812 -3.3629 0
M  V30 3341 C 300.939 -0.444531 -4.35135 0
M  V30 3342 C 299.998 0.332305 -5.2515 0
M  V30 3343 O 299.024 -0.266324 -5.68577 0
M  V30 3344 N 300.226 1.62763 -5.57215 0
M  V30 3345 H 302.991 -1.27059 -2.71433 0
M  V30 3346 H 300.552 -0.815392 -1.39868 0
M  V30 3347 H 302.544 0.947013 -3.93464 0
M  V30 3348 H 301.114 1.17456 -2.89694 0
M  V30 3349 H 300.334 -1.15291 -3.76964 0
M  V30 3350 H 301.622 -1.03478 -4.98166 0
M  V30 3351 H 301.02 2.13603 -5.23823 0
M  V30 3352 H 299.577 2.10097 -6.17011 0
M  V30 3353 N 303.011 1.40521 -0.713556 0
M  V30 3354 C 303.958 2.30723 -0.059684 0
M  V30 3355 C 304.928 1.48079 0.752448 0
M  V30 3356 O 306.113 1.76823 0.71681 0
M  V30 3357 C 303.253 3.34274 0.857594 0
M  V30 3358 C 302.366 4.31986 0.0351536 0
M  V30 3359 C 301.501 5.22605 0.951724 0
M  V30 3360 C 300.54 6.11976 0.123253 0
M  V30 3361 N 299.677 6.9502 0.99459 0
M  V30 3362 H 304.517 2.86074 -0.834596 0
M  V30 3363 H 302.054 1.40879 -0.42326 0
M  V30 3364 H 304.012 3.92879 1.40364 0
M  V30 3365 H 302.642 2.8043 1.59871 0
M  V30 3366 H 301.694 3.7518 -0.628052 0
M  V30 3367 H 303.006 4.95101 -0.606347 0
M  V30 3368 H 302.16 5.86131 1.56638 0
M  V30 3369 H 300.899 4.59759 1.62705 0
M  V30 3370 H 299.904 5.47482 -0.50435 0
M  V30 3371 H 301.129 6.76881 -0.548539 0
M  V30 3372 H 299.075 6.34764 1.6556 0
M  V30 3373 H 298.992 7.54892 0.40908 0
M  V30 3374 H 300.26 7.62997 1.59549 0
M  V30 3375 N 304.489 0.459591 1.5075 0
M  V30 3376 C 305.738 -0.100971 2.01447 0
M  V30 3377 C 306.051 -1.41816 1.34713 0
M  V30 3378 O 307.257 -2.06299 1.76502 0
M  V30 3379 C 305.713 -0.23047 3.59161 0
M  V30 3380 C 305.321 1.0776 4.34847 0
M  V30 3381 C 307.065 -0.743608 4.17936 0
M  V30 3382 C 304.972 0.91253 5.84317 0
M  V30 3383 H 303.902 -0.0415102 0.752856 0
M  V30 3384 H 306.553 0.592742 1.73663 0
M  V30 3385 H 304.935 -0.987703 3.83485 0
M  V30 3386 H 306.109 1.8449 4.22256 0
M  V30 3387 H 304.424 1.52097 3.87628 0
M  V30 3388 H 307.021 -0.883959 5.27343 0
M  V30 3389 H 307.364 -1.73196 3.78562 0
M  V30 3390 H 307.897 -0.04408 3.97776 0
M  V30 3391 H 304.636 1.87391 6.28144 0
M  V30 3392 H 304.156 0.185422 5.99513 0
M  V30 3393 H 305.835 0.574547 6.44444 0
M  V30 3394 N 305.967 -1.56429 0.191757 0
M  V30 3395 C 306.897 -2.21937 -0.725696 0
M  V30 3396 C 307.878 -1.1814 -1.2238 0
M  V30 3397 O 309.063 -1.46636 -1.27325 0
M  V30 3398 C 306.193 -2.87611 -1.94672 0
M  V30 3399 C 305.147 -3.97623 -1.58366 0
M  V30 3400 C 304.473 -4.50446 -2.88102 0
M  V30 3401 C 305.773 -5.16197 -0.796133 0
M  V30 3402 H 307.467 -2.98861 -0.179606 0
M  V30 3403 H 305.013 -1.43749 -0.0849464 0
M  V30 3404 H 306.966 -3.3212 -2.59373 0
M  V30 3405 H 305.69 -2.08087 -2.51728 0
M  V30 3406 H 304.349 -3.53801 -0.960247 0
M  V30 3407 H 303.997 -3.67688 -3.43241 0
M  V30 3408 H 303.697 -5.24675 -2.64556 0
M  V30 3409 H 305.221 -4.97654 -3.53798 0
M  V30 3410 H 306.635 -5.57271 -1.34618 0
M  V30 3411 H 305.032 -5.96471 -0.658928 0
M  V30 3412 H 306.102 -4.84473 0.203478 0
M  V30 3413 N 307.445 0.0818655 -1.57387 0
M  V30 3414 C 308.355 1.11642 -2.06333 0
M  V30 3415 C 309.371 1.43033 -0.99083 0
M  V30 3416 O 310.547 1.53411 -1.30488 0
M  V30 3417 C 307.612 2.41342 -2.48907 0
M  V30 3418 C 306.673 2.17014 -3.7041 0
M  V30 3419 C 305.906 3.4053 -4.10944 0
M  V30 3420 O 306.129 4.4927 -3.51444 0
M  V30 3421 O 305.063 3.29336 -5.03807 0
M  V30 3422 H 308.889 0.730657 -2.9478 0
M  V30 3423 H 306.474 0.295301 -1.46452 0
M  V30 3424 H 308.356 3.17691 -2.76858 0
M  V30 3425 H 307.031 2.79319 -1.63593 0
M  V30 3426 H 305.938 1.38403 -3.47556 0
M  V30 3427 H 307.271 1.83923 -4.56545 0
M  V30 3428 N 308.923 1.53595 0.353017 0
M  V30 3429 C 310.17 1.70385 1.09431 0
M  V30 3430 C 310.498 0.462113 1.88931 0
M  V30 3431 O 309.753 -0.556074 1.87633 0
M  V30 3432 C 310.052 2.91313 2.07054 0
M  V30 3433 C 309.718 4.27308 1.43939 0
M  V30 3434 C 308.38 4.64287 1.26454 0
M  V30 3435 C 310.732 5.11829 0.983883 0
M  V30 3436 C 308.06 5.83412 0.620226 0
M  V30 3437 C 310.412 6.31611 0.353516 0
M  V30 3438 C 309.076 6.67293 0.166272 0
M  V30 3439 H 308.346 0.623484 0.400436 0
M  V30 3440 H 310.993 1.87799 0.374655 0
M  V30 3441 H 309.298 2.68463 2.85368 0
M  V30 3442 H 310.995 3.01497 2.64387 0
M  V30 3443 H 307.585 3.98198 1.58543 0
M  V30 3444 H 311.769 4.838 1.10685 0
M  V30 3445 H 307.025 6.09639 0.463681 0
M  V30 3446 H 311.199 6.964 -0.00757555 0
M  V30 3447 H 308.826 7.59461 -0.335047 0
M  V30 3448 N 310.401 -0.613514 1.45168 0
M  V30 3449 C 311.647 -1.37471 1.49096 0
M  V30 3450 C 311.98 -1.93765 0.129901 0
M  V30 3451 O 311.255 -1.74707 -0.854858 0
M  V30 3452 C 311.538 -2.52701 2.56542 0
M  V30 3453 C 311.391 -2.01643 4.0207 0
M  V30 3454 C 312.71 -3.54849 2.60327 0
M  V30 3455 H 309.829 -0.498502 0.54283 0
M  V30 3456 H 312.471 -0.692125 1.76945 0
M  V30 3457 H 310.621 -3.10931 2.32926 0
M  V30 3458 H 312.293 -1.48108 4.36877 0
M  V30 3459 H 310.536 -1.32688 4.13009 0
M  V30 3460 H 311.207 -2.84681 4.72928 0
M  V30 3461 H 313.683 -3.0645 2.81474 0
M  V30 3462 H 312.559 -4.32973 3.37381 0
M  V30 3463 H 312.82 -4.10079 1.6519 0
M  V30 3464 N 311.879 -1.3236 -0.855495 0
M  V30 3465 C 313.127 -1.22629 -1.60644 0
M  V30 3466 C 313.448 0.212136 -1.93843 0
M  V30 3467 O 312.718 1.13666 -1.59552 0
M  V30 3468 H 311.298 -0.450882 -0.595579 0
M  V30 3469 H 313.96 -1.65871 -1.02337 0
M  V30 3470 H 313.056 -1.80832 -2.54374 0
M  V30 3471 N 313.357 1.07166 -1.15556 0
M  V30 3472 C 314.773 1.31899 -0.898603 0
M  V30 3473 C 314.973 1.96333 0.453383 0
M  V30 3474 O 314.029 2.22438 1.19489 0
M  V30 3475 C 315.342 2.20826 -2.04099 0
M  V30 3476 C 316.89 2.34269 -2.07574 0
M  V30 3477 C 317.365 3.26546 -3.21141 0
M  V30 3478 N 318.856 3.34127 -3.20801 0
M  V30 3479 C 319.591 4.05595 -4.05315 0
M  V30 3480 N 319.087 4.79661 -4.99897 0
M  V30 3481 N 320.88 4.01555 -3.93332 0
M  V30 3482 H 313.031 0.637302 -2.02613 0
M  V30 3483 H 315.294 0.343468 -0.883591 0
M  V30 3484 H 315 1.80744 -3.01703 0
M  V30 3485 H 314.874 3.21364 -1.97496 0
M  V30 3486 H 317.261 2.73603 -1.10568 0
M  V30 3487 H 317.342 1.33429 -2.18244 0
M  V30 3488 H 316.986 2.87931 -4.184 0
M  V30 3489 H 316.916 4.27345 -3.07708 0
M  V30 3490 H 319.407 2.81336 -2.52306 0
M  V30 3491 H 319.72 5.31694 -5.60822 0
M  V30 3492 H 318.065 4.78671 -5.03884 0
M  V30 3493 H 321.256 3.42806 -3.18751 0
M  V30 3494 H 321.429 4.56987 -4.5942 0
M  V30 3495 N 314.835 0.952656 1.25548 0
M  V30 3496 C 316.06 0.623025 1.97821 0
M  V30 3497 C 316.485 -0.7976 1.70352 0
M  V30 3498 O 315.843 -1.53905 0.958283 0
M  V30 3499 C 315.891 0.885532 3.49558 0
M  V30 3500 O 314.995 -0.0366641 4.12384 0
M  V30 3501 H 314.336 0.237082 0.620232 0
M  V30 3502 H 316.866 1.27871 1.59719 0
M  V30 3503 H 316.876 0.811009 3.99858 0
M  V30 3504 H 315.551 1.92094 3.6888 0
M  V30 3505 H 314.128 0.0898954 3.72792 0
M  V30 3506 N 316.313 -1.40141 0.720998 0
M  V30 3507 C 317.243 -2.33339 0.0867621 0
M  V30 3508 C 318.224 -1.53178 -0.739622 0
M  V30 3509 O 319.409 -1.81625 -0.687449 0
M  V30 3510 C 316.539 -3.37194 -0.831728 0
M  V30 3511 C 315.493 -4.27857 -0.110558 0
M  V30 3512 C 314.819 -5.22294 -1.14513 0
M  V30 3513 C 316.119 -5.11872 1.0385 0
M  V30 3514 H 317.813 -2.86626 0.865219 0
M  V30 3515 H 315.359 -1.37814 0.417516 0
M  V30 3516 H 317.312 -4.01335 -1.28485 0
M  V30 3517 H 316.036 -2.82314 -1.64214 0
M  V30 3518 H 314.695 -3.65176 0.322797 0
M  V30 3519 H 314.343 -4.63717 -1.94874 0
M  V30 3520 H 314.043 -5.83797 -0.667446 0
M  V30 3521 H 315.567 -5.89312 -1.59824 0
M  V30 3522 H 316.981 -5.69436 0.664482 0
M  V30 3523 H 315.378 -5.82445 1.4449 0
M  V30 3524 H 316.448 -4.4753 1.86668 0
M  V30 3525 N 317.792 -0.46758 -1.50504 0
M  V30 3526 C 319.203 -0.0116166 -1.86696 0
M  V30 3527 C 319.554 1.39202 -1.38265 0
M  V30 3528 O 318.679 2.0313 -0.746132 0
M  V30 3529 C 319.274 -0.0143044 -3.38797 0
M  V30 3530 C 317.833 0.386175 -3.74414 0
M  V30 3531 C 316.98 -0.401287 -2.74381 0
M  V30 3532 H 319.931 -0.682022 -1.43297 0
M  V30 3533 H 319.952 0.788641 -3.72237 0
M  V30 3534 H 319.464 -1.03602 -3.74016 0
M  V30 3535 H 317.565 1.41237 -3.44794 0
M  V30 3536 H 317.678 0.0899596 -4.79016 0
M  V30 3537 H 316.042 0.144536 -2.5429 0
M  V30 3538 H 316.825 -1.42244 -3.12444 0
M  V30 3539 N 319.27 1.56325 -0.20005 0
M  V30 3540 C 320.18 2.22931 0.730668 0
M  V30 3541 C 321.196 1.22997 1.23076 0
M  V30 3542 O 322.372 1.55748 1.27689 0
M  V30 3543 C 319.437 2.87948 1.93098 0
M  V30 3544 C 318.498 4.03166 1.47497 0
M  V30 3545 C 317.731 4.65073 2.61807 0
M  V30 3546 O 317.954 4.25913 3.79413 0
M  V30 3547 O 316.888 5.54452 2.34237 0
M  V30 3548 H 320.714 3.03084 0.193391 0
M  V30 3549 H 318.299 1.49371 0.0294621 0
M  V30 3550 H 320.181 3.29063 2.6324 0
M  V30 3551 H 318.856 2.10771 2.45677 0
M  V30 3552 H 317.763 3.66664 0.742201 0
M  V30 3553 H 319.096 4.82022 0.995796 0
M  V30 3554 N 320.748 -0.0735177 1.57428 0
M  V30 3555 C 321.658 -1.10547 2.06922 0
M  V30 3556 C 322.674 -1.42506 0.998402 0
M  V30 3557 O 323.85 -1.52717 1.31299 0
M  V30 3558 C 320.915 -2.40019 2.50184 0
M  V30 3559 C 319.976 -2.15046 3.71556 0
M  V30 3560 C 319.209 -3.38345 4.12745 0
M  V30 3561 O 319.432 -4.47399 3.53822 0
M  V30 3562 O 318.366 -3.2666 5.05546 0
M  V30 3563 H 322.192 -0.715013 2.95163 0
M  V30 3564 H 319.777 -0.287531 1.46607 0
M  V30 3565 H 321.659 -3.16218 2.78539 0
M  V30 3566 H 320.334 -2.78447 1.65072 0
M  V30 3567 H 319.241 -1.36558 3.48285 0
M  V30 3568 H 320.574 -1.81499 4.57514 0
M  V30 3569 N 322.226 -1.5378 -0.344866 0
M  V30 3570 C 323.454 -1.74899 -1.10534 0
M  V30 3571 C 323.869 -0.487534 -1.82397 0
M  V30 3572 O 323.226 0.540741 -1.74305 0
M  V30 3573 C 323.277 -2.92822 -2.11984 0
M  V30 3574 O 322.998 -4.14089 -1.43044 0
M  V30 3575 C 324.499 -3.25982 -3.00417 0
M  V30 3576 H 321.719 -0.584426 -0.329678 0
M  V30 3577 H 324.263 -2.006 -0.397474 0
M  V30 3578 H 322.418 -2.69457 -2.78338 0
M  V30 3579 H 322.832 -4.80272 -2.10805 0
M  V30 3580 H 324.306 -4.11848 -3.67539 0
M  V30 3581 H 324.783 -2.42228 -3.66363 0
M  V30 3582 H 325.389 -3.51349 -2.39654 0
M  V30 3583 N 323.704 0.605807 -1.45491 0
M  V30 3584 C 324.95 1.36679 -1.49823 0
M  V30 3585 C 325.283 1.93693 -0.140175 0
M  V30 3586 O 324.558 1.75158 0.845581 0
M  V30 3587 C 324.841 2.51337 -2.57879 0
M  V30 3588 C 324.694 1.99508 -4.03134 0
M  V30 3589 C 326.013 3.53463 -2.62205 0
M  V30 3590 H 323.132 0.495617 -0.545466 0
M  V30 3591 H 325.774 0.682732 -1.7731 0
M  V30 3592 H 323.924 3.09691 -2.34571 0
M  V30 3593 H 325.596 1.45789 -4.37656 0
M  V30 3594 H 323.839 1.30496 -4.13707 0
M  V30 3595 H 324.51 2.82169 -4.74431 0
M  V30 3596 H 326.986 3.04953 -2.83095 0
M  V30 3597 H 325.862 4.31178 -3.39672 0
M  V30 3598 H 326.123 4.09197 -1.67363 0
M  V30 3599 N 325.182 1.32811 0.848464 0
M  V30 3600 C 326.459 1.14334 1.58704 0
M  V30 3601 C 326.839 -0.293948 2.09043 0
M  V30 3602 O 326.187 -1.29153 1.88499 0
M  V30 3603 C 326.397 2.17626 2.72837 0
M  V30 3604 C 327.745 2.51282 3.42261 0
M  V30 3605 O 328.769 2.16219 2.83068 0
M  V30 3606 O 327.628 3.11413 4.49093 0
M  V30 3607 H 324.722 0.441601 0.699226 0
M  V30 3608 H 327.268 1.44362 0.892053 0
M  V30 3609 H 326.04 3.14211 2.3321 0
M  V30 3610 H 325.663 1.88628 3.50008 0
M  V30 3611 N 326.66 -1.06551 1.16123 0
M  V30 3612 C 327.907 -1.79302 0.941126 0
M  V30 3613 C 328.235 -1.87105 -0.531235 0
M  V30 3614 O 327.49 -1.35692 -1.41018 0
M  V30 3615 C 327.789 -3.23911 1.51052 0
M  V30 3616 C 327.455 -3.36193 3.00475 0
M  V30 3617 C 326.117 -3.39252 3.41265 0
M  V30 3618 C 328.469 -3.38326 3.96465 0
M  V30 3619 C 325.797 -3.42057 4.76669 0
M  V30 3620 C 328.149 -3.4267 5.31752 0
M  V30 3621 C 326.813 -3.4401 5.72026 0
M  V30 3622 H 326.083 -0.656111 0.344382 0
M  V30 3623 H 328.73 -1.25325 1.44796 0
M  V30 3624 H 327.035 -3.80723 0.925063 0
M  V30 3625 H 328.732 -3.78793 1.31593 0
M  V30 3626 H 325.322 -3.34516 2.6795 0
M  V30 3627 H 329.506 -3.35176 3.6602 0
M  V30 3628 H 324.762 -3.41398 5.07206 0
M  V30 3629 H 328.936 -3.43268 6.05921 0
M  V30 3630 H 326.563 -3.45937 6.76928 0
M  V30 3631 N 328.138 -0.959301 -1.25041 0
M  V30 3632 C 329.384 -0.617525 -1.9317 0
M  V30 3633 C 329.717 0.843981 -1.74902 0
M  V30 3634 O 328.992 1.60615 -1.09696 0
M  V30 3635 C 329.275 -0.982736 -3.46431 0
M  V30 3636 C 329.128 -2.50032 -3.73904 0
M  V30 3637 C 330.447 -0.511176 -4.37121 0
M  V30 3638 H 327.566 -0.22582 -0.701552 0
M  V30 3639 H 330.208 -1.19679 -1.4757 0
M  V30 3640 H 328.358 -0.489806 -3.854 0
M  V30 3641 H 330.03 -3.06737 -3.44544 0
M  V30 3642 H 328.273 -2.93598 -3.19348 0
M  V30 3643 H 328.944 -2.70635 -4.81103 0
M  V30 3644 H 331.42 -0.934075 -4.0548 0
M  V30 3645 H 330.296 -0.795361 -5.43107 0
M  V30 3646 H 330.557 0.588834 -4.38161 0
M  V30 3647 N 329.616 1.39756 -0.72842 0
M  V30 3648 C 330.862 2.00942 -0.273892 0
M  V30 3649 C 331.195 1.57656 1.13394 0
M  V30 3650 O 330.47 0.802434 1.77176 0
M  V30 3651 C 330.753 3.58211 -0.368346 0
M  V30 3652 C 330.606 4.11534 -1.81548 0
M  V30 3653 C 331.925 4.39372 0.253054 0
M  V30 3654 H 329.044 0.730047 -0.100996 0
M  V30 3655 H 331.686 1.66056 -0.923337 0
M  V30 3656 H 329.836 3.88061 0.184588 0
M  V30 3657 H 331.508 3.92431 -2.42478 0
M  V30 3658 H 329.751 3.65341 -2.33898 0
M  V30 3659 H 330.422 5.20682 -1.83288 0
M  V30 3660 H 332.898 4.15527 -0.218224 0
M  V30 3661 H 331.774 5.48677 0.156585 0
M  V30 3662 H 332.035 4.21358 1.33826 0
M  V30 3663 N 331.094 0.475555 1.50254 0
M  V30 3664 C 332.026 -0.352649 2.26471 0
M  V30 3665 C 333.039 -0.953165 1.3198 0
M  V30 3666 O 334.228 -0.840815 1.57457 0
M  V30 3667 C 331.328 -1.50902 3.0345 0
M  V30 3668 C 330.501 -1.02047 4.25329 0
M  V30 3669 C 329.56 -2.05142 4.84565 0
M  V30 3670 O 328.586 -1.63023 5.45355 0
M  V30 3671 N 329.788 -3.37987 4.71959 0
M  V30 3672 H 332.553 0.300767 2.98187 0
M  V30 3673 H 330.114 0.306598 1.5897 0
M  V30 3674 H 332.106 -2.19572 3.39956 0
M  V30 3675 H 330.676 -2.06705 2.34504 0
M  V30 3676 H 329.896 -0.159507 3.93877 0
M  V30 3677 H 331.184 -0.672061 5.04342 0
M  V30 3678 H 330.582 -3.74913 4.23623 0
M  V30 3679 H 329.139 -4.02443 5.12721 0
M  V30 3680 N 332.573 -1.56217 0.208337 0
M  V30 3681 C 333.523 -2.16324 -0.720281 0
M  V30 3682 C 334.507 -1.10775 -1.16695 0
M  V30 3683 O 335.699 -1.36801 -1.12314 0
M  V30 3684 C 332.828 -2.83644 -1.93393 0
M  V30 3685 C 331.914 -3.96401 -1.50755 0
M  V30 3686 N 332.305 -4.99546 -0.792937 0
M  V30 3687 C 330.603 -4.08246 -1.79585 0
M  V30 3688 C 331.304 -5.78828 -0.577364 0
M  V30 3689 N 330.28 -5.31723 -1.1301 0
M  V30 3690 H 334.082 -2.93432 -0.165725 0
M  V30 3691 H 331.596 -1.62397 0.00906463 0
M  V30 3692 H 333.593 -3.25107 -2.60981 0
M  V30 3693 H 332.253 -2.08027 -2.49308 0
M  V30 3694 H 333.264 -5.15967 -0.447004 0
M  V30 3695 H 329.941 -3.4377 -2.36915 0
M  V30 3696 H 331.331 -6.71899 -0.00952956 0
M  V30 3697 N 334.051 0.0651679 -1.57465 0
M  V30 3698 C 335.279 0.775808 -1.91804 0
M  V30 3699 C 335.694 1.70782 -0.804916 0
M  V30 3700 O 335.051 1.81153 0.221311 0
M  V30 3701 C 335.102 1.56381 -3.25925 0
M  V30 3702 O 334.823 0.669248 -4.32958 0
M  V30 3703 C 336.324 2.37485 -3.7432 0
M  V30 3704 H 333.544 0.2202 -0.63384 0
M  V30 3705 H 336.088 0.0334587 -2.04473 0
M  V30 3706 H 334.243 2.25837 -3.14764 0
M  V30 3707 H 334.657 1.21801 -5.10162 0
M  V30 3708 H 336.131 2.88223 -4.70778 0
M  V30 3709 H 336.608 3.17307 -3.03666 0
M  V30 3710 H 337.214 1.73173 -3.88447 0
M  V30 3711 N 335.529 1.53961 0.336706 0
M  V30 3712 C 336.754 1.75797 1.10046 0
M  V30 3713 C 337.179 0.498985 1.81361 0
M  V30 3714 O 336.537 -0.548769 1.72795 0
M  V30 3715 C 336.585 2.94257 2.08436 0
M  V30 3716 O 335.689 2.64883 3.16087 0
M  V30 3717 H 335.03 0.582936 0.317934 0
M  V30 3718 H 337.56 2.00945 0.38501 0
M  V30 3719 H 337.57 3.21237 2.51537 0
M  V30 3720 H 336.245 3.85564 1.55927 0
M  V30 3721 H 334.822 2.48812 2.77753 0
M  V30 3722 N 337.007 -0.598083 1.45811 0
M  V30 3723 C 338.254 -1.35681 1.50323 0
M  V30 3724 C 338.582 -1.9393 0.148739 0
M  V30 3725 O 337.837 -1.76094 -0.853787 0
M  V30 3726 C 338.136 -2.51669 2.53766 0
M  V30 3727 C 337.802 -2.11508 3.98215 0
M  V30 3728 C 336.464 -2.0027 4.37545 0
M  V30 3729 C 338.816 -1.80308 4.89018 0
M  V30 3730 C 336.144 -1.56067 5.65562 0
M  V30 3731 C 338.496 -1.37589 6.17456 0
M  V30 3732 C 337.16 -1.24916 6.55708 0
M  V30 3733 H 336.43 -0.496492 0.550069 0
M  V30 3734 H 339.077 -0.675052 1.79207 0
M  V30 3735 H 337.382 -3.25225 2.18486 0
M  V30 3736 H 339.079 -3.09895 2.54492 0
M  V30 3737 H 335.669 -2.21185 3.67117 0
M  V30 3738 H 339.853 -1.87884 4.59362 0
M  V30 3739 H 335.109 -1.44886 5.93985 0
M  V30 3740 H 339.283 -1.12495 6.87254 0
M  V30 3741 H 336.91 -0.904386 7.54801 0
M  V30 3742 N 338.485 -1.33259 -0.841409 0
M  V30 3743 C 339.432 -1.23302 -1.95103 0
M  V30 3744 C 340.402 -0.112204 -1.65721 0
M  V30 3745 O 341.587 -0.290038 -1.88583 0
M  V30 3746 C 338.727 -0.975583 -3.31023 0
M  V30 3747 C 337.84 -2.18243 -3.72819 0
M  V30 3748 C 336.975 -1.85936 -4.97595 0
M  V30 3749 C 336.014 -3.02866 -5.3192 0
M  V30 3750 N 335.151 -2.70565 -6.47873 0
M  V30 3751 H 339.991 -2.18207 -2.02952 0
M  V30 3752 H 337.528 -1.0851 -0.993173 0
M  V30 3753 H 339.486 -0.80677 -4.09325 0
M  V30 3754 H 338.116 -0.0632755 -3.22738 0
M  V30 3755 H 337.168 -2.46107 -2.90061 0
M  V30 3756 H 338.48 -3.05666 -3.94169 0
M  V30 3757 H 337.634 -1.65684 -5.83638 0
M  V30 3758 H 336.373 -0.957452 -4.78209 0
M  V30 3759 H 335.378 -3.23736 -4.44382 0
M  V30 3760 H 336.603 -3.93809 -5.53255 0
M  V30 3761 H 334.549 -1.8293 -6.29978 0
M  V30 3762 H 334.466 -3.51519 -6.69306 0
M  V30 3763 H 335.734 -2.53774 -7.37034 0
M  V30 3764 N 339.963 1.05934 -1.16686 0
M  V30 3765 C 340.873 2.17014 -0.891183 0
M  V30 3766 C 341.889 1.73453 0.137907 0
M  V30 3767 O 343.065 2.01361 -0.039592 0
M  V30 3768 C 340.13 3.44384 -0.400099 0
M  V30 3769 C 339.191 4.02433 -1.49486 0
M  V30 3770 C 338.424 5.23723 -1.02711 0
M  V30 3771 O 338.647 5.7027 0.121716 0
M  V30 3772 O 337.581 5.7382 -1.81699 0
M  V30 3773 H 341.407 2.43113 -1.82015 0
M  V30 3774 H 338.992 1.15541 -0.947132 0
M  V30 3775 H 340.874 4.21189 -0.133392 0
M  V30 3776 H 339.549 3.19802 0.500817 0
M  V30 3777 H 338.456 3.27102 -1.81535 0
M  V30 3778 H 339.789 4.31317 -2.37121 0
M  V30 3779 N 341.441 0.965919 1.2453 0
M  V30 3780 C 342.374 0.4393 2.23932 0
M  V30 3781 C 343.352 -0.485615 1.55179 0
M  V30 3782 O 344.536 -0.417402 1.83821 0
M  V30 3783 C 341.663 -0.366042 3.36716 0
M  V30 3784 C 340.709 0.5009 4.23548 0
M  V30 3785 S 341.542 1.94002 4.99123 0
M  V30 3786 C 342.698 1.14342 6.15367 0
M  V30 3787 H 342.931 1.28167 2.68254 0
M  V30 3788 H 340.464 0.770819 1.33782 0
M  V30 3789 H 342.422 -0.824724 4.0213 0
M  V30 3790 H 341.083 -1.18337 2.90956 0
M  V30 3791 H 340.276 -0.117341 5.03863 0
M  V30 3792 H 339.878 0.89524 3.63127 0
M  V30 3793 H 342.17 0.397572 6.76332 0
M  V30 3794 H 343.113 1.92089 6.81548 0
M  V30 3795 H 343.521 0.668579 5.60527 0
M  V30 3796 N 342.919 -1.39368 0.735821 0
M  V30 3797 C 343.866 -2.30599 0.0963825 0
M  V30 3798 C 344.836 -1.49257 -0.728794 0
M  V30 3799 O 346.021 -1.77941 -0.688588 0
M  V30 3800 C 343.161 -3.35596 -0.804305 0
M  V30 3801 C 342.274 -4.31987 0.0335761 0
M  V30 3802 C 341.409 -5.24053 -0.868461 0
M  V30 3803 C 340.448 -6.12095 -0.0258776 0
M  V30 3804 N 339.585 -6.96514 -0.883893 0
M  V30 3805 H 344.425 -2.8471 0.880002 0
M  V30 3806 H 341.962 -1.40188 0.445619 0
M  V30 3807 H 343.92 -3.95062 -1.34096 0
M  V30 3808 H 342.55 -2.82938 -1.55389 0
M  V30 3809 H 341.602 -3.74133 0.68766 0
M  V30 3810 H 342.914 -4.94074 0.685036 0
M  V30 3811 H 342.068 -5.88549 -1.47293 0
M  V30 3812 H 340.807 -4.62289 -1.5537 0
M  V30 3813 H 339.812 -5.4661 0.591386 0
M  V30 3814 H 341.037 -6.75923 0.656156 0
M  V30 3815 H 338.983 -6.37318 -1.55441 0
M  V30 3816 H 338.9 -7.55448 -0.288931 0
M  V30 3817 H 340.168 -7.65439 -1.4739 0
M  V30 3818 N 344.397 -0.483516 -1.5 0
M  V30 3819 C 345.344 0.304164 -2.28787 0
M  V30 3820 C 346.314 0.976114 -1.34392 0
M  V30 3821 O 347.499 0.986156 -1.63339 0
M  V30 3822 C 344.639 1.37298 -3.16612 0
M  V30 3823 C 343.752 0.714561 -4.26049 0
M  V30 3824 C 342.887 1.76232 -5.01114 0
M  V30 3825 C 341.926 1.08483 -6.0241 0
M  V30 3826 N 341.063 2.076 -6.70706 0
M  V30 3827 H 345.903 -0.373981 -2.95644 0
M  V30 3828 H 343.44 -0.196275 -1.45785 0
M  V30 3829 H 345.398 2.00445 -3.65893 0
M  V30 3830 H 344.028 2.02012 -2.51776 0
M  V30 3831 H 343.08 -0.0297798 -3.80388 0
M  V30 3832 H 344.392 0.180383 -4.98474 0
M  V30 3833 H 343.546 2.46929 -5.54176 0
M  V30 3834 H 342.285 2.33033 -4.28424 0
M  V30 3835 H 341.29 0.363545 -5.48597 0
M  V30 3836 H 342.515 0.523551 -6.77079 0
M  V30 3837 H 340.461 2.63394 -6.00799 0
M  V30 3838 H 340.378 1.59201 -7.39047 0
M  V30 3839 H 341.646 2.77639 -7.2838 0
M  V30 3840 N 345.875 1.56104 -0.216619 0
M  V30 3841 C 346.823 2.21434 0.712036 0
M  V30 3842 C 347.817 1.19218 1.20348 0
M  V30 3843 O 349.023 1.3731 1.16387 0
M  V30 3844 H 345.398 0.70992 0.248026 0
M  V30 3845 H 347.369 2.98083 0.137558 0
M  V30 3846 C 346.118 2.90434 1.91163 0
M  V30 3847 H 345.441 3.68842 1.54258 0
M  V30 3848 H 346.881 3.39552 2.5393 0
M  V30 3849 C 345.34 1.92635 2.76394 0
M  V30 3850 O 345.87 1.44017 3.74996 0
M  V30 3851 N 344.076 1.60392 2.42328 0
M  V30 3852 H 343.623 2.00122 1.622 0
M  V30 3853 H 343.581 0.952159 2.99635 0
M  V30 3854 N 347.353 -0.0568162 1.57498 0
M  V30 3855 C 348.764 -0.606858 1.76562 0
M  V30 3856 C 349.115 -1.77114 0.844094 0
M  V30 3857 O 348.24 -2.16376 0.0318911 0
M  V30 3858 C 348.835 -1.10766 3.20182 0
M  V30 3859 C 347.394 -1.60344 3.40539 0
M  V30 3860 C 346.541 -0.529311 2.72201 0
M  V30 3861 H 349.492 0.169393 1.57793 0
M  V30 3862 H 349.513 -1.97602 3.25167 0
M  V30 3863 H 349.025 -0.26006 3.87228 0
M  V30 3864 H 347.126 -2.47379 2.78629 0
M  V30 3865 H 347.239 -1.67006 4.4905 0
M  V30 3866 H 345.603 -0.977893 2.35179 0
M  V30 3867 H 346.386 0.308352 3.41912 0
M  V30 3868 N 348.832 -1.54138 -0.328536 0
M  V30 3869 C 349.765 -1.78014 -1.4278 0
M  V30 3870 C 350.743 -0.629889 -1.49904 0
M  V30 3871 O 351.927 -0.866763 -1.6739 0
M  V30 3872 C 349.054 -1.89225 -2.80912 0
M  V30 3873 C 348.1 -3.11483 -2.91343 0
M  V30 3874 S 348.933 -4.70201 -2.56263 0
M  V30 3875 C 350.089 -4.84312 -3.96476 0
M  V30 3876 H 350.322 -2.70974 -1.22313 0
M  V30 3877 H 347.855 -1.45197 -0.525084 0
M  V30 3878 H 349.813 -1.9637 -3.60485 0
M  V30 3879 H 348.474 -0.972518 -2.98665 0
M  V30 3880 H 347.667 -3.16046 -3.92595 0
M  V30 3881 H 347.269 -3.02642 -2.19736 0
M  V30 3882 H 349.561 -4.66643 -4.91173 0
M  V30 3883 H 350.504 -5.86411 -3.96898 0
M  V30 3884 H 350.912 -4.12652 -3.85199 0
M  V30 3885 N 350.31 0.590341 -1.46126 0
M  V30 3886 C 351.538 1.37504 -1.54597 0
M  V30 3887 C 351.953 1.87897 -0.184447 0
M  V30 3888 O 351.31 1.63192 0.816984 0
M  V30 3889 C 351.361 2.56779 -2.54454 0
M  V30 3890 O 351.082 2.08476 -3.85317 0
M  V30 3891 C 352.583 3.49427 -2.72792 0
M  V30 3892 H 349.803 0.420325 -0.523037 0
M  V30 3893 H 352.347 0.718383 -1.91467 0
M  V30 3894 H 350.502 3.1845 -2.20609 0
M  V30 3895 H 350.916 2.86097 -4.396 0
M  V30 3896 H 352.39 4.29619 -3.466 0
M  V30 3897 H 352.867 4.00876 -1.79429 0
M  V30 3898 H 353.473 2.93598 -3.07702 0
M  V30 3899 N 351.788 1.33704 0.83433 0
M  V30 3900 C 352.736 1.24323 1.96587 0
M  V30 3901 C 353.73 0.143659 1.6879 0
M  V30 3902 O 354.936 0.30791 1.77347 0
M  V30 3903 H 351.311 0.385925 0.645419 0
M  V30 3904 H 353.282 2.19978 2.01624 0
M  V30 3905 C 352.031 1.00394 3.32891 0
M  V30 3906 H 351.354 1.84231 3.54822 0
M  V30 3907 H 352.794 0.97862 4.12552 0
M  V30 3908 C 351.253 -0.293047 3.35623 0
M  V30 3909 O 351.783 -1.29823 3.80143 0
M  V30 3910 N 349.989 -0.322174 2.88809 0
M  V30 3911 H 349.536 0.496379 2.52772 0
M  V30 3912 H 349.494 -1.18977 2.91019 0
M  V30 3913 N 353.266 -1.05314 1.17247 0
M  V30 3914 C 354.496 -1.81707 0.983166 0
M  V30 3915 C 354.904 -1.83222 -0.471822 0
M  V30 3916 O 354.247 -1.25721 -1.3394 0
M  V30 3917 C 354.309 -3.29134 1.44606 0
M  V30 3918 C 353.973 -3.51304 2.92292 0
M  V30 3919 C 354.97 -3.4353 3.90235 0
M  V30 3920 C 352.655 -3.78306 3.30439 0
M  V30 3921 C 354.649 -3.62442 5.24323 0
M  V30 3922 C 352.336 -3.96866 4.64694 0
M  V30 3923 C 353.334 -3.88933 5.61445 0
M  V30 3924 O 353.022 -4.06976 6.93272 0
M  V30 3925 H 352.754 -0.579476 0.348114 0
M  V30 3926 H 355.308 -1.33705 1.55924 0
M  V30 3927 H 353.538 -3.78046 0.813537 0
M  V30 3928 H 355.227 -3.87049 1.22262 0
M  V30 3929 H 355.993 -3.22648 3.62109 0
M  V30 3930 H 351.872 -3.83585 2.55702 0
M  V30 3931 H 355.416 -3.56165 5.99827 0
M  V30 3932 H 351.313 -4.1724 4.92525 0
M  V30 3933 H 352.081 -4.24209 6.99992 0
M  V30 3934 N 354.744 -0.972509 -1.24016 0
M  V30 3935 C 355.972 -0.654803 -1.96265 0
M  V30 3936 C 356.387 0.776708 -1.72083 0
M  V30 3937 O 355.744 1.52171 -1.00748 0
M  V30 3938 C 355.795 -0.92592 -3.49441 0
M  V30 3939 O 355.516 -2.30116 -3.72798 0
M  V30 3940 C 357.017 -0.623068 -4.38899 0
M  V30 3941 H 354.237 -0.243907 -0.6251 0
M  V30 3942 H 356.781 -1.30175 -1.57717 0
M  V30 3943 H 354.936 -0.325108 -3.86033 0
M  V30 3944 H 355.35 -2.38483 -4.67147 0
M  V30 3945 H 356.824 -0.863189 -5.45209 0
M  V30 3946 H 357.301 0.442754 -4.36963 0
M  V30 3947 H 357.907 -1.204 -4.07902 0
M  V30 3948 N 356.222 1.38976 -0.743202 0
M  V30 3949 C 357.45 2.04636 -0.30525 0
M  V30 3950 C 357.865 1.56044 1.06281 0
M  V30 3951 O 357.222 0.728921 1.67311 0
M  V30 3952 C 357.273 3.60193 -0.307177 0
M  V30 3953 O 356.994 4.06998 -1.62124 0
M  V30 3954 C 358.495 4.4306 0.145928 0
M  V30 3955 H 355.715 0.65788 -0.132041 0
M  V30 3956 H 358.259 1.77866 -1.00915 0
M  V30 3957 H 356.414 3.85835 0.347898 0
M  V30 3958 H 356.828 5.01371 -1.54036 0
M  V30 3959 H 358.302 5.51921 0.0934183 0
M  V30 3960 H 358.779 4.22706 1.19231 0
M  V30 3961 H 359.385 4.22584 -0.479886 0
M  V30 3962 N 357.7 0.491464 1.49741 0
M  V30 3963 C 358.946 -0.0565092 2.02721 0
M  V30 3964 C 359.279 -1.37522 1.37118 0
M  V30 3965 O 358.554 -1.87866 0.503645 0
M  V30 3966 C 358.837 -0.219051 3.59433 0
M  V30 3967 C 358.69 1.12211 4.35579 0
M  V30 3968 C 360.009 -0.964157 4.29409 0
M  V30 3969 H 357.128 -0.0190627 0.736753 0
M  V30 3970 H 359.77 0.641021 1.7886 0
M  V30 3971 H 357.92 -0.813165 3.79895 0
M  V30 3972 H 359.592 1.75437 4.26637 0
M  V30 3973 H 357.835 1.71377 3.98513 0
M  V30 3974 H 358.506 0.961794 5.43556 0
M  V30 3975 H 360.982 -0.460378 4.13545 0
M  V30 3976 H 359.858 -1.04671 5.38828 0
M  V30 3977 H 360.119 -2.00563 3.93988 0
M  V30 3978 N 359.178 -1.55987 0.224894 0
M  V30 3979 C 360.589 -1.84553 -0.282345 0
M  V30 3980 C 360.94 -1.14634 -1.59227 0
M  V30 3981 O 360.065 -0.417155 -2.12341 0
M  V30 3982 C 360.66 -3.348 -0.519062 0
M  V30 3983 C 359.219 -3.63671 -0.970604 0
M  V30 3984 C 358.366 -2.77277 -0.0355261 0
M  V30 3985 H 361.317 -1.52245 0.448006 0
M  V30 3986 H 361.338 -3.55187 -1.36463 0
M  V30 3987 H 360.85 -3.8566 0.43449 0
M  V30 3988 H 358.951 -3.1827 -1.9374 0
M  V30 3989 H 359.064 -4.71631 -0.842698 0
M  V30 3990 H 357.428 -2.48846 -0.542927 0
M  V30 3991 H 358.211 -3.30937 0.913003 0
M  V30 3992 N 360.656 0.0484629 -1.57525 0
M  V30 3993 C 361.588 1.08222 -2.02041 0
M  V30 3994 C 362.601 1.33621 -0.930012 0
M  V30 3995 O 363.79 1.3145 -1.20761 0
M  V30 3996 C 360.89 2.42818 -2.36416 0
M  V30 3997 C 360.063 2.37049 -3.67596 0
M  V30 3998 C 359.122 3.53937 -3.89378 0
M  V30 3999 O 358.148 3.34308 -4.60681 0
M  V30 4000 N 359.35 4.75126 -3.3352 0
M  V30 4001 H 362.115 0.702946 -2.9134 0
M  V30 4002 H 359.676 0.236745 -1.6016 0
M  V30 4003 H 361.668 3.197 -2.48141 0
M  V30 4004 H 360.238 2.72661 -1.52888 0
M  V30 4005 H 359.458 1.45395 -3.66407 0
M  V30 4006 H 360.746 2.30318 -4.53686 0
M  V30 4007 H 360.144 4.93976 -2.75688 0
M  V30 4008 H 358.701 5.49439 -3.50656 0
M  V30 4009 N 362.134 1.5431 0.320358 0
M  V30 4010 C 363.044 1.86946 1.41734 0
M  V30 4011 C 364.06 0.761689 1.56443 0
M  V30 4012 O 365.236 1.05629 1.71477 0
M  V30 4013 C 362.301 2.09293 2.76401 0
M  V30 4014 C 361.362 3.33082 2.70841 0
M  V30 4015 C 360.595 3.54353 3.99086 0
M  V30 4016 O 360.818 2.79002 4.97508 0
M  V30 4017 O 359.752 4.47838 4.0215 0
M  V30 4018 H 363.578 2.80232 1.17062 0
M  V30 4019 H 361.163 1.40255 0.514673 0
M  V30 4020 H 363.045 2.25303 3.56113 0
M  V30 4021 H 361.72 1.19194 3.00956 0
M  V30 4022 H 360.627 3.22454 1.89668 0
M  V30 4023 H 361.96 4.23249 2.5124 0
M  V30 4024 N 363.613 -0.582584 1.46437 0
M  V30 4025 C 364.86 -1.34079 1.51753 0
M  V30 4026 C 365.188 -1.93762 0.169299 0
M  V30 4027 O 364.443 -1.76989 -0.835062 0
M  V30 4028 C 364.742 -2.48964 2.56421 0
M  V30 4029 C 364.408 -2.07273 4.00436 0
M  V30 4030 C 363.07 -1.95618 4.39644 0
M  V30 4031 C 365.422 -1.75111 4.90903 0
M  V30 4032 C 362.75 -1.5006 5.67185 0
M  V30 4033 C 365.102 -1.31032 6.18881 0
M  V30 4034 C 363.766 -1.17954 6.56996 0
M  V30 4035 H 363.036 -0.49063 0.555304 0
M  V30 4036 H 365.683 -0.656007 1.79913 0
M  V30 4037 H 363.988 -3.22889 2.21923 0
M  V30 4038 H 365.685 -3.07178 2.57765 0
M  V30 4039 H 362.275 -2.17279 3.69443 0
M  V30 4040 H 366.459 -1.83001 4.61329 0
M  V30 4041 H 361.715 -1.38577 5.95488 0
M  V30 4042 H 365.889 -1.052 6.88408 0
M  V30 4043 H 363.516 -0.824279 7.55718 0
M  V30 4044 N 365.091 -1.34144 -0.827227 0
M  V30 4045 C 366.024 -1.19707 -1.94282 0
M  V30 4046 C 367.002 -0.0897256 -1.62352 0
M  V30 4047 O 368.186 -0.254095 -1.8678 0
M  V30 4048 C 365.313 -0.838646 -3.28153 0
M  V30 4049 C 364.359 -1.95514 -3.79047 0
M  V30 4050 S 365.192 -3.56793 -3.99323 0
M  V30 4051 C 366.348 -3.22983 -5.36127 0
M  V30 4052 H 366.581 -2.1414 -2.06231 0
M  V30 4053 H 364.114 -1.19121 -0.982321 0
M  V30 4054 H 366.072 -0.638637 -4.05502 0
M  V30 4055 H 364.733 0.0872776 -3.13979 0
M  V30 4056 H 363.926 -1.658 -4.75948 0
M  V30 4057 H 363.528 -2.11241 -3.08631 0
M  V30 4058 H 365.82 -2.74531 -6.19386 0
M  V30 4059 H 366.763 -4.19008 -5.70822 0
M  V30 4060 H 367.171 -2.59276 -5.01434 0
M  V30 4061 N 366.569 1.04691 -1.17803 0
M  V30 4062 C 367.846 1.7472 -0.879328 0
M  V30 4063 C 368.226 2.01812 0.619271 0
M  V30 4064 O 367.574 1.65824 1.57209 0
M  V30 4065 C 367.784 3.03686 -1.71976 0
M  V30 4066 C 369.132 3.77542 -1.94286 0
M  V30 4067 O 370.156 3.13569 -1.68976 0
M  V30 4068 O 369.015 4.92506 -2.36855 0
M  V30 4069 H 366.109 0.760011 -0.326056 0
M  V30 4070 H 368.655 1.10813 -1.28525 0
M  V30 4071 H 367.427 2.79754 -2.73594 0
M  V30 4072 H 367.05 3.75332 -1.31194 0
M  V30 4073 N 368.047 0.979072 1.23499 0
M  V30 4074 C 368.997 0.489378 2.22686 0
M  V30 4075 C 369.981 -0.434871 1.54912 0
M  V30 4076 O 371.173 -0.263941 1.75021 0
M  V30 4077 C 368.302 -0.208178 3.42668 0
M  V30 4078 C 367.388 0.735563 4.17672 0
M  V30 4079 N 367.779 1.87763 4.69658 0
M  V30 4080 C 366.077 0.548625 4.42613 0
M  V30 4081 C 366.778 2.46886 5.26709 0
M  V30 4082 N 365.754 1.75287 5.14563 0
M  V30 4083 H 369.556 1.36062 2.60508 0
M  V30 4084 H 367.07 0.83958 1.39014 0
M  V30 4085 H 369.067 -0.576295 4.12898 0
M  V30 4086 H 367.727 -1.07572 3.06363 0
M  V30 4087 H 368.738 2.25885 4.66043 0
M  V30 4088 H 365.415 -0.274006 4.166 0
M  V30 4089 H 366.805 3.43326 5.77561 0
M  V30 4090 N 369.525 -1.3858 0.750561 0
M  V30 4091 C 370.75 -2.04997 0.314812 0
M  V30 4092 C 371.175 -1.56235 -1.04749 0
M  V30 4093 O 370.533 -0.712981 -1.66692 0
M  V30 4094 C 370.581 -3.58961 0.343415 0
M  V30 4095 O 369.685 -4.07025 -0.663628 0
M  V30 4096 H 369.026 -0.649081 0.139962 0
M  V30 4097 H 371.556 -1.77313 1.02084 0
M  V30 4098 H 371.566 -4.07542 0.193233 0
M  V30 4099 H 370.241 -3.93811 1.33738 0
M  V30 4100 H 368.818 -3.6982 -0.478307 0
M  V30 4101 N 371.003 -0.499398 -1.49478 0
M  V30 4102 C 372.252 0.0475259 -2.01644 0
M  V30 4103 C 372.565 1.38195 -1.38425 0
M  V30 4104 O 373.771 2.01547 -1.8191 0
M  V30 4105 C 372.227 0.135164 -3.59646 0
M  V30 4106 C 371.835 -1.19252 -4.31837 0
M  V30 4107 C 373.579 0.632538 -4.19761 0
M  V30 4108 C 371.486 -1.06713 -5.81693 0
M  V30 4109 H 370.416 0.0215349 -0.753692 0
M  V30 4110 H 373.067 -0.638577 -1.7203 0
M  V30 4111 H 371.449 0.885681 -3.85969 0
M  V30 4112 H 372.623 -1.9562 -4.17216 0
M  V30 4113 H 370.938 -1.62321 -3.83459 0
M  V30 4114 H 373.535 0.743833 -5.29501 0
M  V30 4115 H 373.878 1.63098 -3.83021 0
M  V30 4116 H 374.411 -0.0613987 -3.97753 0
M  V30 4117 H 371.15 -2.03979 -6.22955 0
M  V30 4118 H 370.67 -0.344307 -5.98811 0
M  V30 4119 H 372.349 -0.745208 -6.42694 0
M  V30 4120 N 372.481 1.55866 -0.233164 0
M  V30 4121 C 373.706 2.03449 0.402906 0
M  V30 4122 C 374.131 1.11166 1.51736 0
M  V30 4123 O 373.489 0.101996 1.81013 0
M  V30 4124 C 373.537 3.49165 0.9009 0
M  V30 4125 O 372.641 3.60019 2.01147 0
M  V30 4126 H 371.982 0.657913 0.0897025 0
M  V30 4127 H 374.512 2.01493 -0.355201 0
M  V30 4128 H 374.522 3.89716 1.2077 0
M  V30 4129 H 373.197 4.15813 0.0852889 0
M  V30 4130 H 371.774 3.3136 1.71042 0
M  V30 4131 N 373.959 -0.0401083 1.57549 0
M  V30 4132 C 375.37 -0.588097 1.77196 0
M  V30 4133 C 375.721 -1.76209 0.862832 0
M  V30 4134 O 374.846 -2.16331 0.0548389 0
M  V30 4135 C 375.441 -1.07363 3.21339 0
M  V30 4136 C 374 -1.56723 3.42221 0
M  V30 4137 C 373.147 -0.50041 2.72747 0
M  V30 4138 H 376.098 0.186119 1.57605 0
M  V30 4139 H 376.119 -1.94143 3.27244 0
M  V30 4140 H 375.631 -0.218975 3.87482 0
M  V30 4141 H 373.732 -2.4441 2.81237 0
M  V30 4142 H 373.845 -1.62234 4.50796 0
M  V30 4143 H 372.209 -0.952894 2.36203 0
M  V30 4144 H 372.992 0.344599 3.41566 0
M  V30 4145 N 375.437 -1.54477 -0.31217 0
M  V30 4146 C 376.684 -1.73227 -1.04875 0
M  V30 4147 C 377.012 -0.512042 -1.87639 0
M  V30 4148 O 376.267 0.506131 -1.89042 0
M  V30 4149 C 376.566 -2.967 -1.99258 0
M  V30 4150 C 376.232 -4.30974 -1.32559 0
M  V30 4151 C 374.894 -4.67477 -1.141 0
M  V30 4152 C 377.246 -5.14258 -0.847835 0
M  V30 4153 C 374.574 -5.84852 -0.465326 0
M  V30 4154 C 376.926 -6.32327 -0.185931 0
M  V30 4155 C 375.59 -6.67499 0.0107077 0
M  V30 4156 H 374.86 -0.633881 -0.383765 0
M  V30 4157 H 377.507 -1.88727 -0.324731 0
M  V30 4158 H 375.812 -2.75935 -2.7815 0
M  V30 4159 H 377.509 -3.08401 -2.563 0
M  V30 4160 H 374.099 -4.02262 -1.4793 0
M  V30 4161 H 378.283 -4.86565 -0.978192 0
M  V30 4162 H 373.539 -6.10654 -0.301883 0
M  V30 4163 H 377.713 -6.96135 0.192211 0
M  V30 4164 H 375.34 -7.58306 0.536287 0
M  V30 4165 N 376.915 0.57481 -1.46744 0
M  V30 4166 C 377.848 1.69827 -1.52427 0
M  V30 4167 C 378.826 1.58151 -0.377744 0
M  V30 4168 O 380.01 1.79257 -0.58303 0
M  V30 4169 C 377.137 3.07943 -1.41027 0
M  V30 4170 C 376.183 3.38116 -2.59961 0
M  V30 4171 S 377.016 3.29313 -4.22272 0
M  V30 4172 C 378.172 4.69953 -4.13394 0
M  V30 4173 H 378.405 1.64748 -2.47478 0
M  V30 4174 H 375.938 0.754203 -1.34726 0
M  V30 4175 H 377.896 3.87619 -1.35137 0
M  V30 4176 H 376.557 3.10504 -0.473909 0
M  V30 4177 H 375.75 4.38762 -2.47999 0
M  V30 4178 H 375.352 2.66024 -2.62882 0
M  V30 4179 H 377.644 5.60517 -3.80562 0
M  V30 4180 H 378.587 4.86972 -5.14066 0
M  V30 4181 H 378.995 4.47174 -3.44522 0
M  V30 4182 N 378.394 1.34581 0.820102 0
M  V30 4183 C 379.81 1.14325 1.11364 0
M  V30 4184 C 380.01 -0.0533648 2.01429 0
M  V30 4185 O 379.066 -0.728044 2.41776 0
M  V30 4186 C 380.379 2.43983 1.75764 0
M  V30 4187 C 381.927 2.50065 1.88246 0
M  V30 4188 C 382.402 3.79732 2.56061 0
M  V30 4189 N 383.893 3.80908 2.63558 0
M  V30 4190 C 384.628 4.77961 3.16766 0
M  V30 4191 N 384.124 5.85397 3.70517 0
M  V30 4192 N 385.917 4.65413 3.15194 0
M  V30 4193 H 378.068 2.11246 0.221096 0
M  V30 4194 H 380.331 0.934289 0.160649 0
M  V30 4195 H 380.037 3.31651 1.1705 0
M  V30 4196 H 379.911 2.57531 2.75604 0
M  V30 4197 H 382.298 1.62834 2.46108 0
M  V30 4198 H 382.379 2.40442 0.873006 0
M  V30 4199 H 382.023 4.67354 1.98853 0
M  V30 4200 H 381.953 3.86639 3.57516 0
M  V30 4201 H 384.444 3.03274 2.25463 0
M  V30 4202 H 384.757 6.55463 4.09376 0
M  V30 4203 H 383.102 5.89107 3.68752 0
M  V30 4204 H 386.293 3.80627 2.72471 0
M  V30 4205 H 386.466 5.41216 3.56356 0
M  V30 4206 N 379.872 -1.04064 1.18357 0
M  V30 4207 C 380.819 -2.12077 0.910603 0
M  V30 4208 C 381.789 -1.65421 -0.15 0
M  V30 4209 O 382.974 -1.90797 -0.0103614 0
M  V30 4210 C 380.114 -3.42252 0.442472 0
M  V30 4211 C 379.227 -4.0252 1.5685 0
M  V30 4212 C 378.362 -5.20657 1.05309 0
M  V30 4213 C 377.401 -5.72955 2.1538 0
M  V30 4214 N 376.538 -6.8238 1.65233 0
M  V30 4215 H 381.378 -2.34764 1.83548 0
M  V30 4216 H 378.915 -1.15157 0.915279 0
M  V30 4217 H 380.873 -4.16921 0.152534 0
M  V30 4218 H 379.503 -3.19712 -0.445428 0
M  V30 4219 H 378.555 -3.25178 1.97391 0
M  V30 4220 H 379.867 -4.37362 2.39824 0
M  V30 4221 H 379.021 -6.0244 0.717677 0
M  V30 4222 H 377.76 -4.87318 0.19293 0
M  V30 4223 H 376.765 -4.89793 2.49766 0
M  V30 4224 H 377.99 -6.08337 3.01832 0
M  V30 4225 H 375.936 -6.50917 0.815064 0
M  V30 4226 H 375.853 -7.16286 2.41805 0
M  V30 4227 H 377.121 -7.67788 1.34619 0
M  V30 4228 N 381.35 -0.985608 -1.22978 0
M  V30 4229 C 382.598 -0.656087 -1.91154 0
M  V30 4230 C 382.919 0.813561 -1.77218 0
M  V30 4231 O 382.189 1.58244 -1.1548 0
M  V30 4232 H 380.769 -0.239674 -0.707506 0
M  V30 4233 H 383.431 -1.25054 -1.49491 0
M  V30 4234 H 382.527 -0.912253 -2.9847 0
M  V30 4235 N 382.828 1.3818 -0.7579 0
M  V30 4236 C 383.761 2.28055 -0.0814093 0
M  V30 4237 C 384.739 1.45603 0.723779 0
M  V30 4238 O 385.923 1.74961 0.701491 0
M  V30 4239 C 383.05 3.2676 0.891394 0
M  V30 4240 C 382.096 4.26153 0.171909 0
M  V30 4241 S 382.929 5.23434 -1.13035 0
M  V30 4242 C 384.085 6.25694 -0.160727 0
M  V30 4243 H 384.318 2.85082 -0.84353 0
M  V30 4244 H 381.851 1.44246 -0.550671 0
M  V30 4245 H 383.809 3.8414 1.44731 0
M  V30 4246 H 382.47 2.68706 1.62652 0
M  V30 4247 H 381.663 4.95738 0.908843 0
M  V30 4248 H 381.265 3.72691 -0.312606 0
M  V30 4249 H 383.557 6.74161 0.671773 0
M  V30 4250 H 384.5 7.03285 -0.824353 0
M  V30 4251 H 384.908 5.64064 0.221892 0
M  V30 4252 N 384.306 0.507319 1.49211 0
M  V30 4253 C 385.269 -0.256763 2.27757 0
M  V30 4254 C 386.269 -0.888287 1.34038 0
M  V30 4255 O 387.459 -0.751841 1.5714 0
M  V30 4256 C 384.591 -1.36905 3.12202 0
M  V30 4257 H 385.784 0.432557 2.96764 0
M  V30 4258 H 383.337 0.262488 1.5408 0
M  V30 4259 H 384.072 -2.09233 2.47775 0
M  V30 4260 H 383.857 -0.921599 3.81115 0
M  V30 4261 H 385.347 -1.9071 3.7151 0
M  V30 4262 N 385.784 -1.5574 0.241426 0
M  V30 4263 C 387.032 -1.98417 -0.384075 0
M  V30 4264 C 387.353 -1.13078 -1.58866 0
M  V30 4265 O 386.623 -0.212312 -1.94746 0
M  V30 4266 H 385.203 -0.732813 -0.144894 0
M  V30 4267 H 387.865 -1.9193 0.338943 0
M  V30 4268 H 386.961 -3.04219 -0.696939 0
M  V30 4269 N 387.262 0.0317525 -1.57568 0
M  V30 4270 C 388.539 0.758366 -1.803 0
M  V30 4271 C 388.919 1.93718 -0.838845 0
M  V30 4272 O 388.267 2.28187 0.119571 0
M  V30 4273 C 388.477 1.19392 -3.27943 0
M  V30 4274 C 389.825 1.61094 -3.92854 0
M  V30 4275 O 390.849 1.28857 -3.32076 0
M  V30 4276 O 389.708 2.20918 -4.99858 0
M  V30 4277 H 386.802 0.366514 -0.741348 0
M  V30 4278 H 389.348 0.00873765 -1.69698 0
M  V30 4279 H 388.12 0.352275 -3.89711 0
M  V30 4280 H 387.743 2.00365 -3.43424 0
M  V30 4281 N 388.74 1.54641 0.303973 0
M  V30 4282 C 389.986 1.74969 1.03718 0
M  V30 4283 C 390.341 0.527461 1.85029 0
M  V30 4284 O 389.634 -0.480143 1.85486 0
M  V30 4285 C 389.828 2.97753 1.97681 0
M  V30 4286 C 389.657 4.318 1.25613 0
M  V30 4287 C 388.427 4.95616 0.984518 0
M  V30 4288 C 390.625 5.10021 0.662081 0
M  V30 4289 N 388.607 6.13455 0.233794 0
M  V30 4290 C 389.978 6.19984 0.0439736 0
M  V30 4291 C 392.033 4.94663 0.566835 0
M  V30 4292 C 390.736 7.16264 -0.66016 0
M  V30 4293 C 392.762 5.91271 -0.123637 0
M  V30 4294 C 392.124 7.00601 -0.730608 0
M  V30 4295 H 388.223 0.692873 0.362562 0
M  V30 4296 H 390.807 1.92116 0.316135 0
M  V30 4297 H 388.978 2.82036 2.6704 0
M  V30 4298 H 390.71 3.06621 2.64132 0
M  V30 4299 H 387.465 4.55921 1.28191 0
M  V30 4300 H 387.889 6.76879 -0.127996 0
M  V30 4301 H 392.531 4.10267 1.02181 0
M  V30 4302 H 390.249 8.00204 -1.12691 0
M  V30 4303 H 393.835 5.81466 -0.197236 0
M  V30 4304 H 392.715 7.7407 -1.2564 0
M  V30 4305 N 390.218 -0.567019 1.47046 0
M  V30 4306 C 391.165 -1.67489 1.58796 0
M  V30 4307 C 392.135 -1.60399 0.43144 0
M  V30 4308 O 393.32 -1.79378 0.650233 0
M  V30 4309 C 390.46 -3.05821 1.59899 0
M  V30 4310 C 389.573 -3.2342 2.86397 0
M  V30 4311 C 388.708 -4.52093 2.789 0
M  V30 4312 C 387.747 -4.6309 4.00267 0
M  V30 4313 N 386.884 -5.83106 3.91064 0
M  V30 4314 H 391.724 -1.56785 2.53422 0
M  V30 4315 H 389.261 -0.763896 1.2571 0
M  V30 4316 H 391.219 -3.8591 1.58522 0
M  V30 4317 H 389.849 -3.15384 0.687929 0
M  V30 4318 H 388.901 -2.3683 2.97684 0
M  V30 4319 H 390.213 -3.27412 3.76301 0
M  V30 4320 H 389.367 -5.4043 2.75718 0
M  V30 4321 H 388.106 -4.50565 1.86662 0
M  V30 4322 H 387.111 -3.73168 4.03765 0
M  V30 4323 H 388.336 -4.66386 4.93621 0
M  V30 4324 H 386.282 -5.82546 3.01623 0
M  V30 4325 H 386.199 -5.88434 4.74638 0
M  V30 4326 H 387.467 -6.73831 3.91882 0
M  V30 4327 N 391.696 -1.35014 -0.812953 0
M  V30 4328 C 392.924 -1.31031 -1.6012 0
M  V30 4329 C 393.339 0.113558 -1.88458 0
M  V30 4330 O 392.696 1.06363 -1.48301 0
M  V30 4331 C 392.747 -2.10872 -2.93624 0
M  V30 4332 O 392.468 -3.47706 -2.66518 0
M  V30 4333 C 393.969 -2.14401 -3.88004 0
M  V30 4334 H 391.189 -0.45037 -0.497401 0
M  V30 4335 H 393.733 -1.77775 -1.01076 0
M  V30 4336 H 391.888 -1.67744 -3.492 0
M  V30 4337 H 392.302 -3.89097 -3.51715 0
M  V30 4338 H 393.776 -2.74669 -4.78812 0
M  V30 4339 H 394.253 -1.14105 -4.24119 0
M  V30 4340 H 394.859 -2.57662 -3.38364 0
M  V30 4341 N 393.175 1.03435 -1.18907 0
M  V30 4342 C 394.403 1.80381 -1.01342 0
M  V30 4343 C 394.818 1.83649 0.438005 0
M  V30 4344 O 394.175 1.27655 1.30424 0
M  V30 4345 C 394.226 3.25689 -1.56873 0
M  V30 4346 O 393.947 3.22673 -2.96334 0
M  V30 4347 C 395.448 4.19255 -1.44014 0
M  V30 4348 H 392.668 0.56784 -0.35749 0
M  V30 4349 H 395.212 1.30317 -1.576 0
M  V30 4350 H 393.367 3.72962 -1.04777 0
M  V30 4351 H 393.781 4.13748 -3.22355 0
M  V30 4352 H 395.255 5.19123 -1.87657 0
M  V30 4353 H 395.732 4.37467 -0.389815 0
M  V30 4354 H 396.338 3.77851 -1.95214 0
M  V30 4355 N 394.653 0.992116 1.22453 0
M  V30 4356 C 395.9 0.667534 1.91181 0
M  V30 4357 C 396.228 -0.800317 1.77271 0
M  V30 4358 O 395.483 -1.59421 1.13505 0
M  V30 4359 C 395.782 1.01832 3.42586 0
M  V30 4360 C 395.448 2.47831 3.76684 0
M  V30 4361 C 394.11 2.87729 3.85701 0
M  V30 4362 C 396.462 3.42466 3.92895 0
M  V30 4363 C 393.79 4.21252 4.08367 0
M  V30 4364 C 396.142 4.75648 4.17064 0
M  V30 4365 C 394.806 5.15288 4.24305 0
M  V30 4366 H 394.076 0.244268 0.699581 0
M  V30 4367 H 396.723 1.24816 1.45235 0
M  V30 4368 H 395.028 0.355769 3.90181 0
M  V30 4369 H 396.725 0.745228 3.94014 0
M  V30 4370 H 393.315 2.15905 3.70247 0
M  V30 4371 H 397.499 3.12814 3.85307 0
M  V30 4372 H 392.755 4.51554 4.122 0
M  V30 4373 H 396.929 5.48924 4.2855 0
M  V30 4374 H 394.556 6.18769 4.41621 0
M  V30 4375 N 396.131 -1.37776 0.765217 0
M  V30 4376 C 397.359 -2.04124 0.337767 0
M  V30 4377 C 397.774 -1.57715 -1.03785 0
M  V30 4378 O 397.131 -0.755447 -1.6613 0
M  V30 4379 C 397.182 -3.59658 0.364442 0
M  V30 4380 O 396.903 -4.04367 1.68579 0
M  V30 4381 C 398.404 -4.43236 -0.0754221 0
M  V30 4382 H 395.624 -0.655696 0.142491 0
M  V30 4383 H 398.168 -1.76238 1.03732 0
M  V30 4384 H 396.323 -3.86339 -0.286471 0
M  V30 4385 H 396.737 -4.98857 1.61993 0
M  V30 4386 H 398.211 -5.52 -0.00560067 0
M  V30 4387 H 398.688 -4.2455 -1.12491 0
M  V30 4388 H 399.294 -4.21767 0.547055 0
M  V30 4389 N 397.609 -0.515225 -1.4894 0
M  V30 4390 C 398.855 0.0242508 -2.02785 0
M  V30 4391 C 399.188 1.35323 -1.39289 0
M  V30 4392 O 398.463 1.87041 -0.533469 0
M  V30 4393 C 398.746 0.16184 -3.59736 0
M  V30 4394 C 398.599 -1.19127 -4.33738 0
M  V30 4395 C 399.918 0.895719 -4.30888 0
M  V30 4396 H 397.037 0.00733914 -0.736963 0
M  V30 4397 H 399.679 -0.669395 -1.77818 0
M  V30 4398 H 397.829 0.752624 -3.8114 0
M  V30 4399 H 399.501 -1.82202 -4.23792 0
M  V30 4400 H 397.744 -1.77695 -3.95736 0
M  V30 4401 H 398.415 -1.04815 -5.41957 0
M  V30 4402 H 400.891 0.394528 -4.14225 0
M  V30 4403 H 399.767 0.960859 -5.40425 0
M  V30 4404 H 400.028 1.9427 -3.97129 0
M  V30 4405 N 399.087 1.5561 -0.249682 0
M  V30 4406 C 400.05 2.20217 0.635394 0
M  V30 4407 C 401.05 1.17227 1.10066 0
M  V30 4408 O 402.24 1.42292 1.00492 0
M  V30 4409 C 399.372 2.84794 1.87363 0
M  V30 4410 H 400.565 2.99814 0.0716752 0
M  V30 4411 H 398.118 1.563 -0.000153234 0
M  V30 4412 H 398.853 2.09142 2.47851 0
M  V30 4413 H 398.638 3.60241 1.5482 0
M  V30 4414 H 400.128 3.3423 2.5036 0
M  V30 4415 N 400.565 -0.0233959 1.57583 0
M  V30 4416 C 401.497 -1.04994 2.03737 0
M  V30 4417 C 402.51 -1.32125 0.951152 0
M  V30 4418 O 403.699 -1.29512 1.22837 0
M  V30 4419 C 400.799 -2.39026 2.40249 0
M  V30 4420 C 399.972 -2.31171 3.7132 0
M  V30 4421 C 399.031 -3.47698 3.94959 0
M  V30 4422 O 398.057 -3.26937 4.65941 0
M  V30 4423 N 399.259 -4.6976 3.41037 0
M  V30 4424 H 402.024 -0.656507 2.92421 0
M  V30 4425 H 399.585 -0.211235 1.60516 0
M  V30 4426 H 401.577 -3.15712 2.53196 0
M  V30 4427 H 400.147 -2.70194 1.57207 0
M  V30 4428 H 399.367 -1.39547 3.68674 0
M  V30 4429 H 400.655 -2.23071 4.57293 0
M  V30 4430 H 400.053 -4.89528 2.83512 0
M  V30 4431 H 398.61 -5.43791 3.59353 0
M  V30 4432 N 402.043 -1.548 -0.295768 0
M  V30 4433 C 402.991 -1.86874 -1.38495 0
M  V30 4434 C 403.985 -0.742938 -1.52239 0
M  V30 4435 O 405.191 -0.926999 -1.54294 0
M  V30 4436 H 401.566 -0.592786 -0.462719 0
M  V30 4437 H 403.537 -2.77904 -1.08682 0
M  V30 4438 C 402.286 -2.13732 -2.74252 0
M  V30 4439 H 401.609 -2.99835 -2.64459 0
M  V30 4440 H 403.049 -2.4011 -3.49461 0
M  V30 4441 C 401.508 -0.937539 -3.23592 0
M  V30 4442 O 402.038 -0.160665 -4.01379 0
M  V30 4443 N 400.244 -0.741478 -2.80981 0
M  V30 4444 H 399.791 -1.37489 -2.1784 0
M  V30 4445 H 399.749 0.0597103 -3.14343 0
M  V30 4446 N 403.521 0.559213 -1.47345 0
M  V30 4447 C 404.431 1.69388 -1.62311 0
M  V30 4448 C 405.447 1.6648 -0.505993 0
M  V30 4449 O 406.623 1.85964 -0.773262 0
M  V30 4450 C 403.688 3.05894 -1.63185 0
M  V30 4451 C 402.749 3.19885 -2.86307 0
M  V30 4452 C 401.982 4.49879 -2.87131 0
M  V30 4453 O 402.205 5.35217 -1.97229 0
M  V30 4454 O 401.139 4.67618 -3.78968 0
M  V30 4455 H 404.965 1.59706 -2.58317 0
M  V30 4456 H 402.55 0.728989 -1.30407 0
M  V30 4457 H 404.432 3.87133 -1.66451 0
M  V30 4458 H 403.107 3.15964 -0.70345 0
M  V30 4459 H 402.014 2.38052 -2.88587 0
M  V30 4460 H 403.347 3.14718 -3.78435 0
M  V30 4461 N 404.999 1.35443 0.805782 0
M  V30 4462 C 406.415 1.15499 1.10146 0
M  V30 4463 C 406.615 -0.0319975 2.01475 0
M  V30 4464 O 405.671 -0.70236 2.42535 0
M  V30 4465 C 406.984 2.45833 1.73166 0
M  V30 4466 C 408.532 2.52047 1.85583 0
M  V30 4467 C 409.007 3.82427 2.52019 0
M  V30 4468 N 410.498 3.83682 2.59504 0
M  V30 4469 C 411.233 4.81294 3.11679 0
M  V30 4470 N 410.729 5.89294 3.64287 0
M  V30 4471 N 412.522 4.6873 3.1024 0
M  V30 4472 H 404.673 2.11469 0.198678 0
M  V30 4473 H 406.936 0.93594 0.150731 0
M  V30 4474 H 406.642 3.32874 1.13526 0
M  V30 4475 H 406.516 2.6044 2.72857 0
M  V30 4476 H 408.903 1.65435 2.44367 0
M  V30 4477 H 408.984 2.41354 0.847455 0
M  V30 4478 H 408.628 4.69437 1.93885 0
M  V30 4479 H 408.558 3.90409 3.53395 0
M  V30 4480 H 411.049 3.05648 2.22234 0
M  V30 4481 H 411.362 6.59768 4.02401 0
M  V30 4482 H 409.707 5.92985 3.62483 0
M  V30 4483 H 412.898 3.83496 2.68419 0
M  V30 4484 H 413.071 5.44965 3.50596 0
M  V30 4485 N 406.477 -1.02803 1.19454 0
M  V30 4486 C 407.724 -1.76217 0.997693 0
M  V30 4487 C 408.052 -1.887 -0.47144 0
M  V30 4488 O 407.307 -1.4011 -1.3663 0
M  V30 4489 C 407.606 -3.18941 1.6128 0
M  V30 4490 C 407.272 -3.26463 3.11019 0
M  V30 4491 C 405.934 -3.28223 3.51885 0
M  V30 4492 C 408.286 -3.25542 4.07028 0
M  V30 4493 C 405.614 -3.26719 4.8731 0
M  V30 4494 C 407.966 -3.25579 5.42385 0
M  V30 4495 C 406.63 -3.25637 5.82681 0
M  V30 4496 H 405.9 -0.644823 0.365082 0
M  V30 4497 H 408.547 -1.20655 1.4871 0
M  V30 4498 H 406.852 -3.77587 1.04572 0
M  V30 4499 H 408.549 -3.74415 1.43577 0
M  V30 4500 H 405.139 -3.25822 2.78457 0
M  V30 4501 H 409.323 -3.23362 3.76498 0
M  V30 4502 H 404.579 -3.25089 5.1781 0
M  V30 4503 H 408.753 -3.23817 6.16535 0
M  V30 4504 H 406.38 -3.24226 6.87591 0
M  V30 4505 N 407.956 -0.998596 -1.21925 0
M  V30 4506 C 409.233 -0.593401 -1.86382 0
M  V30 4507 C 409.613 0.92916 -1.89552 0
M  V30 4508 O 408.961 1.81347 -1.39017 0
M  V30 4509 C 409.171 -1.22039 -3.26967 0
M  V30 4510 C 410.519 -1.32449 -4.03413 0
M  V30 4511 O 411.543 -1.17522 -3.36254 0
M  V30 4512 O 410.402 -1.56395 -5.23644 0
M  V30 4513 H 407.496 -0.202385 -0.801854 0
M  V30 4514 H 410.042 -1.09484 -1.29659 0
M  V30 4515 H 408.814 -2.26158 -3.19325 0
M  V30 4516 H 408.437 -0.704906 -3.91301 0
M  V30 4517 N 409.434 1.37368 -0.772513 0
M  V30 4518 C 410.397 2.28601 -0.165541 0
M  V30 4519 C 411.397 1.48062 0.627238 0
M  V30 4520 O 412.587 1.68268 0.450715 0
M  V30 4521 C 409.719 3.32023 0.772897 0
M  V30 4522 H 410.912 2.83787 -0.969787 0
M  V30 4523 H 408.465 1.46647 -0.540775 0
M  V30 4524 H 409.2 2.81962 1.60212 0
M  V30 4525 H 408.985 3.91555 0.206585 0
M  V30 4526 H 410.475 4.00197 1.19298 0
M  V30 4527 N 410.912 0.523116 1.48665 0
M  V30 4528 C 412.189 -0.0775449 1.95446 0
M  V30 4529 C 412.569 -1.5197 1.4652 0
M  V30 4530 O 411.917 -2.17876 0.688657 0
M  V30 4531 C 412.127 0.0326135 3.48985 0
M  V30 4532 C 413.475 -0.130141 4.24401 0
M  V30 4533 O 414.499 -0.0415142 3.56176 0
M  V30 4534 O 413.358 -0.31491 5.45592 0
M  V30 4535 H 410.452 -0.0831012 0.822814 0
M  V30 4536 H 412.998 0.587227 1.59216 0
M  V30 4537 H 411.77 1.03748 3.77296 0
M  V30 4538 H 411.393 -0.671317 3.91892 0
M  V30 4539 N 412.39 -1.55475 0.257931 0
M  V30 4540 C 413.62 -2.03314 -0.367026 0
M  V30 4541 C 414.028 -1.13625 -1.51281 0
M  V30 4542 O 413.371 -0.145334 -1.83124 0
M  V30 4543 C 413.433 -3.47362 -0.926284 0
M  V30 4544 C 413.097 -4.56914 0.0886584 0
M  V30 4545 C 414.094 -5.12013 0.902123 0
M  V30 4546 C 411.779 -5.01827 0.217936 0
M  V30 4547 C 413.773 -6.10529 1.83122 0
M  V30 4548 C 411.46 -6.00172 1.15052 0
M  V30 4549 C 412.458 -6.54402 1.95568 0
M  V30 4550 O 412.146 -7.50827 2.87253 0
M  V30 4551 H 411.878 -0.669976 -0.0900443 0
M  V30 4552 H 414.432 -2.01804 0.382673 0
M  V30 4553 H 412.662 -3.46056 -1.72575 0
M  V30 4554 H 414.351 -3.78637 -1.46249 0
M  V30 4555 H 415.117 -4.78139 0.812891 0
M  V30 4556 H 410.996 -4.59272 -0.398721 0
M  V30 4557 H 414.54 -6.52783 2.46008 0
M  V30 4558 H 410.437 -6.33465 1.24064 0
M  V30 4559 H 411.205 -7.68483 2.81739 0
M  V30 4560 N 413.868 0.0150385 -1.57593 0
M  V30 4561 C 414.831 0.995996 -2.06428 0
M  V30 4562 C 415.831 1.2818 -0.970903 0
M  V30 4563 O 417.021 1.22949 -1.23406 0
M  V30 4564 C 414.153 2.32506 -2.49307 0
M  V30 4565 H 415.346 0.573873 -2.94358 0
M  V30 4566 H 412.899 0.262186 -1.54085 0
M  V30 4567 H 413.634 2.79438 -1.64575 0
M  V30 4568 H 413.419 2.13087 -3.29145 0
M  V30 4569 H 414.909 3.02906 -2.87468 0
M  V30 4570 N 415.346 1.54954 0.287554 0
M  V30 4571 C 416.256 1.8991 1.37736 0
M  V30 4572 C 417.272 0.794701 1.54792 0
M  V30 4573 O 418.448 1.09243 1.69198 0
M  V30 4574 C 415.513 2.15108 2.71899 0
M  V30 4575 C 414.574 3.38752 2.63715 0
M  V30 4576 C 413.807 3.62739 3.91479 0
M  V30 4577 O 414.03 2.89492 4.91478 0
M  V30 4578 O 412.964 4.56267 3.92561 0
M  V30 4579 H 416.79 2.82652 1.11092 0
M  V30 4580 H 414.375 1.41315 0.484807 0
M  V30 4581 H 416.257 2.32806 3.51254 0
M  V30 4582 H 414.932 1.25551 2.9836 0
M  V30 4583 H 413.839 3.26405 1.82786 0
M  V30 4584 H 415.172 4.28483 2.42205 0
M  V30 4585 N 416.824 -0.551391 1.4764 0
M  V30 4586 C 417.771 -1.65796 1.60563 0
M  V30 4587 C 418.741 -1.59932 0.448428 0
M  V30 4588 O 419.926 -1.78679 0.669222 0
M  V30 4589 C 417.066 -3.04108 1.63133 0
M  V30 4590 C 416.179 -3.20365 2.89811 0
M  V30 4591 C 415.314 -4.49109 2.8368 0
M  V30 4592 C 414.353 -4.58819 4.05156 0
M  V30 4593 N 413.49 -5.78926 3.97227 0
M  V30 4594 H 418.33 -1.54088 2.5507 0
M  V30 4595 H 415.867 -0.75052 1.26513 0
M  V30 4596 H 417.825 -3.84207 1.62606 0
M  V30 4597 H 416.455 -3.14637 0.721341 0
M  V30 4598 H 415.507 -2.33659 3.00179 0
M  V30 4599 H 416.819 -3.23402 3.79753 0
M  V30 4600 H 415.973 -5.37475 2.81434 0
M  V30 4601 H 414.712 -4.4856 1.91431 0
M  V30 4602 H 413.717 -3.68864 4.077 0
M  V30 4603 H 414.942 -4.61124 4.98539 0
M  V30 4604 H 412.888 -5.79314 3.07785 0
M  V30 4605 H 412.805 -5.83367 4.80853 0
M  V30 4606 H 414.073 -6.69637 3.99007 0
M  V30 4607 N 418.302 -1.35869 -0.798587 0
M  V30 4608 C 419.235 -1.23801 -1.91699 0
M  V30 4609 C 420.213 -0.124143 -1.62125 0
M  V30 4610 O 421.397 -0.293656 -1.86199 0
M  V30 4611 C 418.524 -0.908063 -3.263 0
M  V30 4612 C 417.57 -2.0351 -3.74815 0
M  V30 4613 S 418.403 -3.65183 -3.91665 0
M  V30 4614 C 419.559 -3.34283 -5.29156 0
M  V30 4615 H 419.792 -2.18466 -2.01643 0
M  V30 4616 H 417.325 -1.21178 -0.956833 0
M  V30 4617 H 419.283 -0.724506 -4.04056 0
M  V30 4618 H 417.944 0.0206584 -3.14093 0
M  V30 4619 H 417.137 -1.75858 -4.72324 0
M  V30 4620 H 416.739 -2.1774 -3.04081 0
M  V30 4621 H 419.031 -2.87607 -6.13424 0
M  V30 4622 H 419.974 -4.31022 -5.61806 0
M  V30 4623 H 420.382 -2.69854 -4.95822 0
M  V30 4624 N 419.78 1.02168 -1.19998 0
M  V30 4625 C 420.743 2.08765 -0.94604 0
M  V30 4626 C 421.743 1.60618 0.0763846 0
M  V30 4627 O 422.933 1.73472 -0.159135 0
M  V30 4628 C 420.065 3.38262 -0.423255 0
M  V30 4629 H 421.258 2.32726 -1.89153 0
M  V30 4630 H 418.811 1.1889 -1.01464 0
M  V30 4631 H 419.546 3.19974 0.527938 0
M  V30 4632 H 419.331 3.74532 -1.16053 0
M  V30 4633 H 420.821 4.16759 -0.264911 0
M  V30 4634 N 421.258 1.00505 1.21394 0
M  V30 4635 C 422.506 0.686415 1.90086 0
M  V30 4636 C 422.827 -0.785264 1.7849 0
M  V30 4637 O 422.097 -1.56387 1.17983 0
M  V30 4638 H 420.677 0.2509 0.703604 0
M  V30 4639 H 423.339 1.27417 1.47482 0
M  V30 4640 H 422.435 0.959621 2.96981 0
M  V30 4641 N 422.737 -1.36956 0.779787 0
M  V30 4642 C 423.977 -2.01328 0.353043 0
M  V30 4643 C 424.341 -1.60558 -1.05286 0
M  V30 4644 O 425.542 -2.1745 -1.58016 0
M  V30 4645 C 423.813 -3.53874 0.500822 0
M  V30 4646 S 425.372 -4.38506 0.16053 0
M  V30 4647 H 422.19 -0.69799 0.13539 0
M  V30 4648 H 424.792 -1.67016 1.01617 0
M  V30 4649 H 423.496 -3.81034 1.52451 0
M  V30 4650 H 423.027 -3.92994 -0.178574 0
M  V30 4651 H 425.042 -4.85153 -1.04121 0
M  V30 4652 N 424.215 -0.530993 -1.48385 0
M  V30 4653 C 425.44 0.000729535 -2.074 0
M  V30 4654 C 425.865 1.27298 -1.3848 0
M  V30 4655 O 425.223 1.75599 -0.451081 0
M  V30 4656 C 425.271 0.206697 -3.60007 0
M  V30 4657 O 424.375 1.27514 -3.92191 0
M  V30 4658 H 423.716 -0.039583 -0.662819 0
M  V30 4659 H 426.246 -0.739194 -1.9078 0
M  V30 4660 H 426.256 0.42904 -4.05738 0
M  V30 4661 H 424.931 -0.722675 -4.09573 0
M  V30 4662 H 423.508 1.03537 -3.58238 0
M  V30 4663 N 425.693 1.55336 -0.266172 0
M  V30 4664 C 426.623 2.25146 0.618981 0
M  V30 4665 C 427.604 1.23845 1.16604 0
M  V30 4666 O 428.789 1.52544 1.20183 0
M  V30 4667 C 425.919 2.96572 1.80728 0
M  V30 4668 C 424.873 4.04726 1.39215 0
M  V30 4669 C 424.199 4.63678 2.66283 0
M  V30 4670 C 425.499 5.19407 0.548942 0
M  V30 4671 H 427.193 2.99377 0.0368116 0
M  V30 4672 H 424.739 1.43991 0.0162651 0
M  V30 4673 H 426.692 3.44116 2.43232 0
M  V30 4674 H 425.416 2.19861 2.41514 0
M  V30 4675 H 424.075 3.57979 0.790351 0
M  V30 4676 H 423.723 3.83646 3.25308 0
M  V30 4677 H 423.423 5.367 2.39222 0
M  V30 4678 H 424.947 5.13967 3.29651 0
M  V30 4679 H 426.361 5.63059 1.07876 0
M  V30 4680 H 424.758 5.98936 0.373593 0
M  V30 4681 H 425.828 4.8295 -0.434394 0
M  V30 4682 N 427.171 -0.0066808 1.57599 0
M  V30 4683 C 428.396 -0.707738 1.94951 0
M  V30 4684 C 428.821 -1.66882 0.867868 0
M  V30 4685 O 428.179 -1.80457 -0.17458 0
M  V30 4686 C 428.227 -1.42162 3.31394 0
M  V30 4687 O 427.331 -2.53578 3.25226 0
M  V30 4688 H 426.672 -0.188752 0.636607 0
M  V30 4689 H 429.202 0.0445193 2.04552 0
M  V30 4690 H 429.212 -1.78655 3.66806 0
M  V30 4691 H 427.887 -0.716903 4.09675 0
M  V30 4692 H 426.464 -2.19463 3.01481 0
M  V30 4693 N 428.649 -1.55105 -0.279332 0
M  V30 4694 C 429.896 -1.75412 -1.01177 0
M  V30 4695 C 430.224 -0.551728 -1.86511 0
M  V30 4696 O 429.479 0.465919 -1.90073 0
M  V30 4697 C 429.778 -3.0086 -1.92919 0
M  V30 4698 C 429.444 -4.33689 -1.23387 0
M  V30 4699 C 428.106 -4.69792 -1.04159 0
M  V30 4700 C 430.458 -5.15941 -0.738562 0
M  V30 4701 C 427.786 -5.85707 -0.341166 0
M  V30 4702 C 430.138 -6.32579 -0.0517636 0
M  V30 4703 C 428.802 -6.67326 0.152292 0
M  V30 4704 H 428.072 -0.641879 -0.370233 0
M  V30 4705 H 430.719 -1.89373 -0.284627 0
M  V30 4706 H 429.024 -2.81773 -2.72234 0
M  V30 4707 H 430.721 -3.13768 -2.49701 0
M  V30 4708 H 427.311 -4.05309 -1.39364 0
M  V30 4709 H 431.495 -4.8853 -0.874764 0
M  V30 4710 H 426.751 -6.11157 -0.172287 0
M  V30 4711 H 430.925 -6.9557 0.339828 0
M  V30 4712 H 428.552 -7.56998 0.697014 0
M  V30 4713 N 430.127 0.543554 -1.4793 0
M  V30 4714 C 431.543 0.870806 -1.3375 0
M  V30 4715 C 431.743 1.9864 -0.338261 0
M  V30 4716 O 430.799 2.51305 0.245371 0
M  V30 4717 C 432.112 1.25114 -2.73435 0
M  V30 4718 C 433.66 1.3618 -2.81823 0
M  V30 4719 C 434.135 1.77563 -4.22179 0
M  V30 4720 N 435.626 1.8469 -4.24787 0
M  V30 4721 C 436.361 2.18067 -5.30315 0
M  V30 4722 N 435.857 2.49963 -6.46135 0
M  V30 4723 N 437.65 2.18958 -5.17701 0
M  V30 4724 H 429.801 -0.19275 -2.11524 0
M  V30 4725 H 432.064 -0.0235777 -0.947707 0
M  V30 4726 H 431.77 0.50514 -3.48053 0
M  V30 4727 H 431.644 2.20431 -3.06088 0
M  V30 4728 H 434.031 2.09859 -2.07468 0
M  V30 4729 H 434.112 0.390169 -2.52807 0
M  V30 4730 H 433.756 1.04449 -4.97044 0
M  V30 4731 H 433.686 2.75753 -4.48629 0
M  V30 4732 H 436.177 1.62372 -3.41239 0
M  V30 4733 H 436.49 2.74497 -7.22406 0
M  V30 4734 H 434.835 2.47513 -6.49432 0
M  V30 4735 H 438.026 1.93488 -4.2624 0
M  V30 4736 H 438.199 2.44639 -6.00047 0
M  V30 4737 N 431.605 1.3629 0.791371 0
M  V30 4738 C 432.83 1.33726 1.58531 0
M  V30 4739 C 433.255 -0.0794933 1.87932 0
M  V30 4740 O 432.613 -1.05087 1.47738 0
M  V30 4741 C 432.661 2.16425 2.88431 0
M  V30 4742 O 431.765 1.5554 3.81944 0
M  V30 4743 H 431.106 0.457793 0.480959 0
M  V30 4744 H 433.636 1.79547 0.981031 0
M  V30 4745 H 433.646 2.28933 3.37718 0
M  V30 4746 H 432.321 3.19415 2.66359 0
M  V30 4747 H 430.898 1.51961 3.40532 0
M  V30 4748 N 433.083 -1.0153 1.20538 0
M  V30 4749 C 433.993 -2.13557 0.971113 0
M  V30 4750 C 435.009 -1.73845 -0.0734366 0
M  V30 4751 O 436.185 -2.01075 0.114299 0
M  V30 4752 C 433.25 -3.42661 0.527639 0
M  V30 4753 C 432.311 -3.96608 1.64319 0
M  V30 4754 C 431.544 -5.1955 1.22078 0
M  V30 4755 O 431.767 -5.70329 0.0900198 0
M  V30 4756 O 430.701 -5.66681 2.02871 0
M  V30 4757 H 434.527 -2.3619 1.90913 0
M  V30 4758 H 432.112 -1.11946 0.989362 0
M  V30 4759 H 433.994 -4.20404 0.289621 0
M  V30 4760 H 432.669 -3.21441 -0.381779 0
M  V30 4761 H 431.576 -3.20139 1.93551 0
M  V30 4762 H 432.909 -4.22219 2.52966 0
M  V30 4763 N 434.561 -1.01147 -1.20859 0
M  V30 4764 C 435.491 -0.597663 -2.25722 0
M  V30 4765 C 436.472 0.384744 -1.65692 0
M  V30 4766 O 437.657 0.271303 -1.92296 0
M  V30 4767 C 434.787 0.0700149 -3.47229 0
M  V30 4768 C 433.741 -0.832843 -4.19819 0
M  V30 4769 C 433.067 -0.0312202 -5.34691 0
M  V30 4770 C 434.367 -2.1385 -4.76514 0
M  V30 4771 H 436.061 -1.47423 -2.60589 0
M  V30 4772 H 433.607 -0.710301 -1.25263 0
M  V30 4773 H 435.56 0.37103 -4.19763 0
M  V30 4774 H 434.284 0.981259 -3.11511 0
M  V30 4775 H 432.943 -1.11778 -3.49144 0
M  V30 4776 H 432.591 0.881515 -4.95215 0
M  V30 4777 H 432.291 -0.632434 -5.84187 0
M  V30 4778 H 433.815 0.26346 -6.10031 0
M  V30 4779 H 435.229 -1.9002 -5.40893 0
M  V30 4780 H 433.626 -2.69012 -5.36426 0
M  V30 4781 H 434.696 -2.80495 -3.95538 0
M  V30 4782 O 436.078 1.32499 -0.923373 0
M  V30 4783 H 436.769 1.85906 -0.543924 0
M  V30 END ATOM
M  V30 BEGIN BOND
M  V30 END BOND
M  V30 END CTAB
M  END
$$$$
