drugbank_target|P50250 Adenosylhomocysteinase (DB11638)
 OpenBabel12092121113D

  0  0  0     0  0            999 V3000
M  V30 BEGIN CTAB
M  V30 COUNTS 7561 7629 0 0 0
M  V30 BEGIN ATOM
M  V30 1 H -0.908 1.98254 -0.117106 0
M  V30 2 N 0 1.576 0 0
M  V30 3 C 0.933 2.03868 1.02534 0
M  V30 4 C 1.911 0.928543 1.3348 0
M  V30 5 O 3.095 1.19667 1.45644 0
M  V30 6 C 0.222 2.43627 2.35294 0
M  V30 7 C -0.732 3.65373 2.2001 0
M  V30 8 S 0.101 5.13292 1.52614 0
M  V30 9 C 1.257 5.56322 2.86805 0
M  V30 10 H 1.49 2.90518 0.631377 0
M  V30 11 H -0.977 1.52953 0.210867 0
M  V30 12 H 0.981 2.67203 3.11629 0
M  V30 13 H -0.358 1.57376 2.7183 0
M  V30 14 H -1.165 3.90944 3.18086 0
M  V30 15 H -1.563 3.418 1.51819 0
M  V30 16 H 0.729 5.58782 3.83104 0
M  V30 17 H 1.672 6.56266 2.65933 0
M  V30 18 H 2.08 4.83886 2.90714 0
M  V30 19 N 1.4781 -0.272755 1.55222 0
M  V30 20 C 2.7241 -1.00581 1.761 0
M  V30 21 C 3.0571 -1.85932 0.560625 0
M  V30 22 O 2.3321 -1.89416 -0.441801 0
M  V30 23 C 2.6151 -1.88816 3.06628 0
M  V30 24 C 2.4681 -1.06457 4.37021 0
M  V30 25 C 3.7871 -2.8752 3.33197 0
M  V30 26 H 0.9061 -0.364244 0.640699 0
M  V30 27 H 3.5481 -0.278189 1.87952 0
M  V30 28 H 1.6981 -2.50856 2.96654 0
M  V30 29 H 3.3701 -0.464863 4.58952 0
M  V30 30 H 1.6131 -0.368043 4.32236 0
M  V30 31 H 2.2841 -1.71514 5.24678 0
M  V30 32 H 4.7601 -2.35615 3.42965 0
M  V30 33 H 3.6361 -3.46399 4.25792 0
M  V30 34 H 3.8971 -3.62657 2.52849 0
M  V30 35 N 2.9562 -1.48159 -0.537278 0
M  V30 36 C 3.8662 -1.64807 -1.6696 0
M  V30 37 C 4.8822 -0.530651 -1.65711 0
M  V30 38 O 6.0582 -0.800784 -1.84796 0
M  V30 39 C 3.1232 -1.67708 -3.03438 0
M  V30 40 C 2.1842 -2.91025 -3.156 0
M  V30 41 C 1.4172 -2.93778 -4.45567 0
M  V30 42 O 1.6402 -2.05153 -5.3223 0
M  V30 43 O 0.5742 -3.85868 -4.61941 0
M  V30 44 H 4.4002 -2.6066 -1.55853 0
M  V30 45 H 1.9852 -1.31475 -0.709549 0
M  V30 46 H 3.8672 -1.7218 -3.84619 0
M  V30 47 H 2.5422 -0.750278 -3.14885 0
M  V30 48 H 1.4492 -2.92089 -2.33741 0
M  V30 49 H 2.7822 -3.83065 -3.09066 0
M  V30 50 N 4.4343 0.785586 -1.36625 0
M  V30 51 C 5.3823 1.91978 -1.31329 0
M  V30 52 C 6.3763 1.68162 -0.204416 0
M  V30 53 O 7.5823 1.76122 -0.371645 0
M  V30 54 H 3.9573 0.631087 -0.408942 0
M  V30 55 H 5.9283 1.93562 -2.27104 0
M  V30 56 C 4.6773 3.29055 -1.12329 0
M  V30 57 H 4.0003 3.4795 -1.96903 0
M  V30 58 H 5.4403 4.08756 -1.12671 0
M  V30 59 C 3.8993 3.36461 0.171861 0
M  V30 60 O 4.4293 3.84576 1.16035 0
M  V30 61 N 2.6353 2.89782 0.217846 0
M  V30 62 H 2.1823 2.50819 -0.587183 0
M  V30 63 H 2.1403 2.95119 1.08408 0
M  V30 64 N 5.9124 1.20967 1.01018 0
M  V30 65 C 6.8594 0.964281 2.09691 0
M  V30 66 C 7.8294 -0.107853 1.65749 0
M  V30 67 O 9.0144 0.0381987 1.90762 0
M  V30 68 C 6.1544 0.52943 3.41015 0
M  V30 69 C 5.2674 1.67043 3.98398 0
M  V30 70 C 4.4024 1.18525 5.17808 0
M  V30 71 C 3.4414 2.29892 5.67288 0
M  V30 72 N 2.5784 1.82546 6.77954 0
M  V30 73 H 7.4184 1.89463 2.30017 0
M  V30 74 H 4.9554 0.944289 1.1279 0
M  V30 75 H 6.9134 0.258588 4.16398 0
M  V30 76 H 5.5434 -0.363919 3.20742 0
M  V30 77 H 4.5954 2.05603 3.20049 0
M  V30 78 H 5.9074 2.50877 4.31117 0
M  V30 79 H 5.0614 0.870762 6.00419 0
M  V30 80 H 3.8004 0.316887 4.86669 0
M  V30 81 H 2.8054 2.6215 4.83278 0
M  V30 82 H 4.0304 3.17216 6.00459 0
M  V30 83 H 1.9764 0.980454 6.48632 0
M  V30 84 H 1.8934 2.59956 7.09901 0
M  V30 85 H 3.1614 1.54115 7.64113 0
M  V30 86 N 7.3905 -1.2043 1.01659 0
M  V30 87 C 8.6155 -1.94318 0.724942 0
M  V30 88 C 9.0405 -1.74266 -0.708034 0
M  V30 89 O 8.3985 -1.03694 -1.48719 0
M  V30 90 C 8.4465 -3.44486 1.06591 0
M  V30 91 O 7.5505 -4.12017 0.177599 0
M  V30 92 H 6.8915 -0.60708 0.26898 0
M  V30 93 H 9.4215 -1.52861 1.35995 0
M  V30 94 H 9.4315 -3.95106 1.01762 0
M  V30 95 H 8.1065 -3.58404 2.10997 0
M  V30 96 H 6.6835 -3.71821 0.283421 0
M  V30 97 N 8.8686 -0.792821 -1.36206 0
M  V30 98 C 9.8156 -0.191653 -2.30003 0
M  V30 99 C 10.7856 0.666453 -1.52143 0
M  V30 100 O 11.9706 0.61442 -1.80636 0
M  V30 101 C 9.1106 0.664848 -3.38635 0
M  V30 102 C 8.2236 -0.212175 -4.31479 0
M  V30 103 C 7.3586 0.651022 -5.27196 0
M  V30 104 C 6.3976 -0.227247 -6.11678 0
M  V30 105 N 5.5346 0.595127 -6.99573 0
M  V30 106 H 10.3746 -0.996978 -2.80828 0
M  V30 107 H 7.9116 -0.503206 -1.38225 0
M  V30 108 H 9.8696 1.17645 -4.00269 0
M  V30 109 H 8.4996 1.43557 -2.89122 0
M  V30 110 H 7.5516 -0.841777 -3.70969 0
M  V30 111 H 8.8636 -0.888751 -4.90818 0
M  V30 112 H 8.0176 1.2283 -5.94136 0
M  V30 113 H 6.7566 1.36121 -4.68319 0
M  V30 114 H 5.7616 -0.816904 -5.43697 0
M  V30 115 H 6.9866 -0.93509 -6.72631 0
M  V30 116 H 4.9326 1.28955 -6.432 0
M  V30 117 H 4.8496 -0.0236952 -7.55996 0
M  V30 118 H 6.1176 1.15613 -7.70879 0
M  V30 119 N 10.3467 1.47872 -0.545128 0
M  V30 120 C 11.5927 2.02793 -0.0166104 0
M  V30 121 C 11.9257 1.41987 1.32489 0
M  V30 122 O 11.2007 0.571045 1.85928 0
M  V30 123 C 11.4837 3.59989 0.0893294 0
M  V30 124 C 11.3367 4.3125 -1.27841 0
M  V30 125 C 12.6557 4.32606 0.808724 0
M  V30 126 H 9.7747 0.736962 -0.00751035 0
M  V30 127 H 12.4167 1.76433 -0.705085 0
M  V30 128 H 10.5667 3.82579 0.675681 0
M  V30 129 H 12.2387 4.20035 -1.90704 0
M  V30 130 H 10.4817 3.92076 -1.85632 0
M  V30 131 H 11.1527 5.39736 -1.15713 0
M  V30 132 H 13.6287 4.14936 0.310992 0
M  V30 133 H 12.5047 5.42251 0.851782 0
M  V30 134 H 12.7657 4.00963 1.86229 0
M  V30 135 N 11.8248 0.280983 1.55075 0
M  V30 136 C 12.7718 -0.603937 2.22758 0
M  V30 137 C 13.7418 -1.1452 1.20309 0
M  V30 138 O 14.9268 -1.19343 1.48869 0
M  V30 139 C 12.0668 -1.77947 2.95684 0
M  V30 140 C 11.1798 -1.2715 4.12864 0
M  V30 141 C 10.3148 -2.4093 4.7342 0
M  V30 142 C 9.3538 -1.87165 5.82783 0
M  V30 143 N 8.4908 -2.94441 6.37377 0
M  V30 144 H 13.3308 -0.020124 2.97993 0
M  V30 145 H 10.8678 0.00183425 1.471 0
M  V30 146 H 12.8258 -2.47055 3.36184 0
M  V30 147 H 11.4558 -2.33522 2.22861 0
M  V30 148 H 10.5078 -0.473331 3.77444 0
M  V30 149 H 11.8198 -0.837751 4.91715 0
M  V30 150 H 10.9738 -3.18021 5.1667 0
M  V30 151 H 9.7128 -2.87623 3.93859 0
M  V30 152 H 8.7178 -1.08556 5.38976 0
M  V30 153 H 9.9428 -1.41401 6.64216 0
M  V30 154 H 7.8888 -3.40505 5.60707 0
M  V30 155 H 7.8058 -2.55501 7.11516 0
M  V30 156 H 9.0738 -3.71489 6.85285 0
M  V30 157 N 13.3029 -1.57598 0.00835791 0
M  V30 158 C 14.5799 -1.82172 -0.712235 0
M  V30 159 C 14.9599 -0.887873 -1.9152 0
M  V30 160 O 14.3079 0.06146 -2.28417 0
M  V30 161 C 14.5179 -3.30875 -1.11008 0
M  V30 162 C 15.8659 -3.96826 -1.51044 0
M  V30 163 O 16.8899 -3.35248 -1.20364 0
M  V30 164 O 15.7489 -5.05318 -2.08125 0
M  V30 165 H 12.8429 -0.750435 -0.347529 0
M  V30 166 H 15.3889 -1.69665 0.0344523 0
M  V30 167 H 14.1609 -3.90481 -0.252982 0
M  V30 168 H 13.7839 -3.48412 -1.9156 0
M  V30 169 N 14.781 0.264519 -1.55364 0
M  V30 170 C 16.03 0.992812 -1.75574 0
M  V30 171 C 16.343 1.87142 -0.568979 0
M  V30 172 O 17.549 2.63513 -0.653682 0
M  V30 173 C 16.005 1.81519 -3.10771 0
M  V30 174 C 15.613 0.984839 -4.37041 0
M  V30 175 C 17.357 2.53727 -3.40327 0
M  V30 176 C 15.264 1.80209 -5.63275 0
M  V30 177 H 14.194 0.374412 -0.65447 0
M  V30 178 H 16.845 0.248138 -1.81815 0
M  V30 179 H 15.227 2.60115 -2.98591 0
M  V30 180 H 16.401 0.242455 -4.60162 0
M  V30 181 H 14.716 0.37691 -4.14691 0
M  V30 182 H 17.313 3.15292 -4.3185 0
M  V30 183 H 17.656 3.24447 -2.60845 0
M  V30 184 H 18.189 1.82156 -3.53644 0
M  V30 185 H 14.928 1.13896 -6.45529 0
M  V30 186 H 14.448 2.52022 -5.44284 0
M  V30 187 H 16.127 2.37364 -6.01887 0
M  V30 188 N 16.2591 1.48442 0.529413 0
M  V30 189 C 17.4841 1.60406 1.31471 0
M  V30 190 C 17.9091 0.264738 1.86228 0
M  V30 191 O 17.2671 -0.763668 1.64432 0
M  V30 192 C 17.3151 2.65419 2.44101 0
M  V30 193 O 16.4191 2.22618 3.47153 0
M  V30 194 H 15.7601 0.537863 0.389357 0
M  V30 195 H 18.2901 1.94432 0.636965 0
M  V30 196 H 18.3001 2.86709 2.90279 0
M  V30 197 H 16.9751 3.62652 2.03608 0
M  V30 198 H 15.5521 2.11543 3.0709 0
M  V30 199 N 17.7372 -0.778329 1.37039 0
M  V30 200 C 18.6672 -1.90546 1.34962 0
M  V30 201 C 19.6482 -1.68681 0.219274 0
M  V30 202 O 20.8332 -1.89634 0.418624 0
M  V30 203 C 17.9632 -3.27734 1.14925 0
M  V30 204 C 16.9172 -3.64147 2.24902 0
M  V30 205 C 16.2432 -4.99806 1.89996 0
M  V30 206 C 17.5432 -3.71579 3.67051 0
M  V30 207 H 19.2372 -1.92541 2.29277 0
M  V30 208 H 16.7832 -0.924948 1.10366 0
M  V30 209 H 18.7362 -4.06215 1.12104 0
M  V30 210 H 17.4602 -3.26154 0.170631 0
M  V30 211 H 16.1192 -2.8797 2.26868 0
M  V30 212 H 15.7672 -4.94759 0.906796 0
M  V30 213 H 15.4672 -5.25139 2.63634 0
M  V30 214 H 16.9912 -5.80694 1.88749 0
M  V30 215 H 18.4052 -4.40227 3.67251 0
M  V30 216 H 16.8022 -4.08405 4.39688 0
M  V30 217 H 17.8722 -2.72404 4.01154 0
M  V30 218 N 19.2153 -1.21501 -1.00376 0
M  V30 219 C 20.1783 -0.976927 -2.07337 0
M  V30 220 C 21.1783 0.0525322 -1.60714 0
M  V30 221 O 22.3683 -0.184869 -1.73216 0
M  V30 222 C 19.5003 -0.473423 -3.37597 0
M  V30 223 H 20.6933 -1.92587 -2.29892 0
M  V30 224 H 18.2463 -1.03217 -1.17371 0
M  V30 225 H 18.9813 0.480379 -3.20722 0
M  V30 226 H 18.7663 -1.216 -3.72768 0
M  V30 227 H 20.2563 -0.32675 -4.1632 0
M  V30 228 N 20.6934 1.19889 -1.02296 0
M  V30 229 C 22.1044 1.71124 -0.746568 0
M  V30 230 C 22.4554 1.81939 0.734335 0
M  V30 231 O 21.5804 1.48639 1.57275 0
M  V30 232 C 22.1754 3.10804 -1.34857 0
M  V30 233 C 20.7344 3.59323 -1.1209 0
M  V30 234 C 19.8814 2.3635 -1.45031 0
M  V30 235 H 22.8324 1.04813 -1.19163 0
M  V30 236 H 22.8534 3.73186 -0.742437 0
M  V30 237 H 22.3654 3.029 -2.42638 0
M  V30 238 H 20.4664 3.7255 -0.0610337 0
M  V30 239 H 20.5794 4.4378 -1.80544 0
M  V30 240 H 18.9434 2.39399 -0.869487 0
M  V30 241 H 19.7264 2.31081 -2.53883 0
M  V30 242 N 22.1715 0.800033 1.35784 0
M  V30 243 C 23.4185 0.377342 1.98953 0
M  V30 244 C 23.7465 -1.05378 1.6348 0
M  V30 245 O 23.0015 -1.74459 0.886707 0
M  V30 246 C 23.3005 0.500276 3.53881 0
M  V30 247 C 22.9665 1.89375 4.09204 0
M  V30 248 C 21.6285 2.27499 4.24025 0
M  V30 249 C 23.9805 2.8057 4.39238 0
M  V30 250 C 21.3085 3.562 4.66195 0
M  V30 251 C 23.6605 4.0871 4.82844 0
M  V30 252 C 22.3245 4.46843 4.95871 0
M  V30 253 H 21.5945 0.138079 0.728021 0
M  V30 254 H 24.2415 1.01955 1.62103 0
M  V30 255 H 22.5465 -0.225405 3.91151 0
M  V30 256 H 24.2435 0.154097 4.00704 0
M  V30 257 H 20.8335 1.58753 3.98115 0
M  V30 258 H 25.0175 2.52367 4.27346 0
M  V30 259 H 20.2735 3.85602 4.74469 0
M  V30 260 H 24.4475 4.79481 5.05046 0
M  V30 261 H 22.0745 5.46623 5.28306 0
M  V30 262 N 23.6496 -1.47581 0.552962 0
M  V30 263 C 24.8976 -2.02082 0.0272703 0
M  V30 264 C 25.2186 -1.4301 -1.32563 0
M  V30 265 O 24.4886 -0.603745 -1.86365 0
M  V30 266 H 23.0686 -0.746966 0.00709182 0
M  V30 267 H 25.7306 -1.81033 0.722008 0
M  V30 268 H 24.8266 -3.12034 -0.0639951 0
M  V30 269 N 25.1277 -0.289203 -1.54924 0
M  V30 270 C 26.0747 0.592115 -2.23075 0
M  V30 271 C 27.0447 1.13881 -1.20915 0
M  V30 272 O 28.2297 1.18551 -1.495 0
M  V30 273 C 25.3697 1.76376 -2.96623 0
M  V30 274 C 24.4827 1.24959 -4.13533 0
M  V30 275 C 23.6177 2.38416 -4.74691 0
M  V30 276 C 22.6567 1.84072 -5.83767 0
M  V30 277 N 21.7937 2.91057 -6.38929 0
M  V30 278 H 26.6337 0.00432038 -2.98 0
M  V30 279 H 24.1707 -0.00963529 -1.47097 0
M  V30 280 H 26.1287 2.45268 -3.3749 0
M  V30 281 H 24.7587 2.32337 -2.24097 0
M  V30 282 H 23.8107 0.453307 -3.77689 0
M  V30 283 H 25.1227 0.811662 -4.92152 0
M  V30 284 H 24.2767 3.15276 -5.18349 0
M  V30 285 H 23.0157 2.8553 -3.95378 0
M  V30 286 H 22.0207 1.05697 -5.39545 0
M  V30 287 H 23.2457 1.37877 -6.64956 0
M  V30 288 H 21.1917 3.37526 -5.62505 0
M  V30 289 H 21.1087 2.51724 -7.12861 0
M  V30 290 H 22.3767 3.6785 -6.87246 0
M  V30 291 N 26.6058 1.57591 -0.0167156 0
M  V30 292 C 27.5388 2.04944 1.00366 0
M  V30 293 C 28.5168 0.942648 1.32487 0
M  V30 294 O 29.7008 1.21205 1.44367 0
M  V30 295 C 26.8278 2.46109 2.32697 0
M  V30 296 C 25.8738 3.67686 2.16123 0
M  V30 297 S 26.7068 5.14882 1.47161 0
M  V30 298 C 27.8628 5.59332 2.80888 0
M  V30 299 H 28.0958 2.91172 0.600528 0
M  V30 300 H 25.6288 1.53168 0.194632 0
M  V30 301 H 27.5868 2.70493 3.08778 0
M  V30 302 H 26.2478 1.6025 2.70146 0
M  V30 303 H 25.4408 3.94296 3.13922 0
M  V30 304 H 25.0428 3.43391 1.48185 0
M  V30 305 H 27.3348 5.62814 3.77156 0
M  V30 306 H 28.2778 6.5905 2.58958 0
M  V30 307 H 28.6858 4.86942 2.85565 0
M  V30 308 N 28.0839 -0.256276 1.55502 0
M  V30 309 C 29.0159 -1.33981 1.85962 0
M  V30 310 C 30.0289 -1.44743 0.745212 0
M  V30 311 O 31.2179 -1.4626 1.02324 0
M  V30 312 C 28.3179 -2.7194 2.02242 0
M  V30 313 C 27.4909 -2.83562 3.33033 0
M  V30 314 C 26.5499 -4.02304 3.39172 0
M  V30 315 O 25.5759 -3.92273 4.12444 0
M  V30 316 N 26.7779 -5.15045 2.67784 0
M  V30 317 H 29.5429 -1.08191 2.7949 0
M  V30 318 H 27.1039 -0.446388 1.55624 0
M  V30 319 H 29.0959 -3.49697 2.03701 0
M  V30 320 H 27.6659 -2.90479 1.15502 0
M  V30 321 H 26.8859 -1.92555 3.43971 0
M  V30 322 H 28.1739 -2.88271 4.19258 0
M  V30 323 H 27.5719 -5.26085 2.07968 0
M  V30 324 H 26.1289 -5.90972 2.74947 0
M  V30 325 N 29.562 -1.4872 -0.521534 0
M  V30 326 C 30.495 -1.58451 -1.64221 0
M  V30 327 C 31.473 -0.434513 -1.56687 0
M  V30 328 O 32.657 -0.647275 -1.77038 0
M  V30 329 C 29.784 -1.52037 -3.02659 0
M  V30 330 C 28.83 -2.71981 -3.28525 0
M  V30 331 S 29.663 -4.33869 -3.13876 0
M  V30 332 C 30.819 -4.30067 -4.54745 0
M  V30 333 H 31.052 -2.53256 -1.55719 0
M  V30 334 H 28.585 -1.37358 -0.705143 0
M  V30 335 H 30.543 -1.49023 -3.82495 0
M  V30 336 H 29.204 -0.585541 -3.08594 0
M  V30 337 H 28.397 -2.63656 -4.29536 0
M  V30 338 H 27.999 -2.72302 -2.56374 0
M  V30 339 H 30.291 -4.00521 -5.46433 0
M  V30 340 H 31.234 -5.31287 -4.68123 0
M  V30 341 H 31.642 -3.60419 -4.34463 0
M  V30 342 N 31.0401 0.771051 -1.3745 0
M  V30 343 C 31.9501 1.91538 -1.35464 0
M  V30 344 C 32.9661 1.72134 -0.254123 0
M  V30 345 O 34.1421 1.95358 -0.489626 0
M  V30 346 C 31.2071 3.26671 -1.16134 0
M  V30 347 C 30.2681 3.58723 -2.35831 0
M  V30 348 C 29.5011 4.87409 -2.17413 0
M  V30 349 O 29.7241 5.58506 -1.15876 0
M  V30 350 O 28.6581 5.18539 -3.05615 0
M  V30 351 H 32.4841 1.96165 -2.31847 0
M  V30 352 H 30.0691 0.9139 -1.18187 0
M  V30 353 H 31.9511 4.07499 -1.07345 0
M  V30 354 H 30.6261 3.22894 -0.228251 0
M  V30 355 H 29.5331 2.78127 -2.50192 0
M  V30 356 H 30.8661 3.67243 -3.27709 0
M  V30 357 N 32.5182 1.22032 0.997298 0
M  V30 358 C 33.7672 1.03637 1.73038 0
M  V30 359 C 34.0802 -0.429475 1.90827 0
M  V30 360 O 35.2862 -0.732995 2.61418 0
M  V30 361 C 33.7422 1.80582 3.11317 0
M  V30 362 C 33.3502 3.31387 3.01474 0
M  V30 363 C 35.0942 1.70621 3.88701 0
M  V30 364 C 33.0012 4.00791 4.3488 0
M  V30 365 H 31.9312 0.384179 0.648785 0
M  V30 366 H 34.5822 1.4584 1.11368 0
M  V30 367 H 32.9642 1.31175 3.73643 0
M  V30 368 H 34.1382 3.88155 2.4834 0
M  V30 369 H 32.4532 3.41976 2.37575 0
M  V30 370 H 35.0502 2.19799 4.87434 0
M  V30 371 H 35.3932 0.665823 4.10941 0
M  V30 372 H 35.9262 2.17547 3.33044 0
M  V30 373 H 32.6652 5.05064 4.1784 0
M  V30 374 H 32.1852 3.48811 4.87945 0
M  V30 375 H 33.8642 4.06139 5.03647 0
M  V30 376 N 33.9963 -1.19345 1.0293 0
M  V30 377 C 35.2213 -1.93538 0.745511 0
M  V30 378 C 35.6463 -1.75007 -0.689511 0
M  V30 379 O 35.0043 -1.05265 -1.47611 0
M  V30 380 C 35.0523 -3.43336 1.10239 0
M  V30 381 O 34.1563 -4.11806 0.221289 0
M  V30 382 H 33.4973 -0.604193 0.275404 0
M  V30 383 H 36.0273 -1.5141 1.37609 0
M  V30 384 H 36.0373 -3.94004 1.05947 0
M  V30 385 H 34.7123 -3.56146 2.14786 0
M  V30 386 H 33.2893 -3.715 0.322842 0
M  V30 387 N 35.4744 -0.807222 -1.35358 0
M  V30 388 C 36.3844 -0.219594 -2.3357 0
M  V30 389 C 37.4004 0.637734 -1.61892 0
M  V30 390 O 38.5764 0.549336 -1.93763 0
M  V30 391 C 35.6414 0.62158 -3.41083 0
M  V30 392 C 34.7024 -0.256315 -4.28534 0
M  V30 393 C 33.9354 0.544807 -5.30912 0
M  V30 394 O 34.1584 1.77944 -5.41934 0
M  V30 395 O 33.0924 -0.0646478 -6.01865 0
M  V30 396 H 36.9184 -1.03208 -2.85625 0
M  V30 397 H 34.5034 -0.569025 -1.38139 0
M  V30 398 H 36.3854 1.10067 -4.06772 0
M  V30 399 H 35.0604 1.41165 -2.91297 0
M  V30 400 H 33.9674 -0.782559 -3.65823 0
M  V30 401 H 35.3004 -1.01034 -4.81719 0
M  V30 402 N 36.9525 1.47285 -0.560781 0
M  V30 403 C 37.9005 2.31756 0.197942 0
M  V30 404 C 38.8945 1.43146 0.905854 0
M  V30 405 O 40.1005 1.59891 0.826733 0
M  V30 406 H 36.4755 0.747438 0.0827049 0
M  V30 407 H 38.4465 2.9359 -0.533629 0
M  V30 408 C 37.1955 3.25874 1.21249 0
M  V30 409 H 36.5185 3.94023 0.67719 0
M  V30 410 H 37.9585 3.87803 1.71419 0
M  V30 411 C 36.4175 2.49651 2.26221 0
M  V30 412 O 36.9475 2.24355 3.33208 0
M  V30 413 N 35.1535 2.10597 2.00243 0
M  V30 414 H 34.7005 2.31369 1.13252 0
M  V30 415 H 34.6585 1.59913 2.70694 0
M  V30 416 N 38.4306 0.297415 1.54768 0
M  V30 417 C 39.3406 -0.58983 2.27064 0
M  V30 418 C 40.3566 -1.15144 1.30453 0
M  V30 419 O 41.5326 -1.17699 1.63428 0
M  V30 420 C 38.5976 -1.74714 2.9946 0
M  V30 421 C 37.6586 -1.21997 4.11601 0
M  V30 422 C 36.8916 -2.32212 4.80535 0
M  V30 423 O 37.1146 -3.52036 4.48806 0
M  V30 424 O 36.0486 -1.99106 5.68014 0
M  V30 425 H 39.8746 -0.00348199 3.037 0
M  V30 426 H 37.4596 0.0640035 1.49263 0
M  V30 427 H 39.3416 -2.42147 3.44881 0
M  V30 428 H 38.0166 -2.32016 2.25722 0
M  V30 429 H 36.9236 -0.511458 3.70587 0
M  V30 430 H 38.2566 -0.692419 4.87305 0
M  V30 431 N 39.9087 -1.5758 0.0250728 0
M  V30 432 C 40.8417 -2.05473 -0.992777 0
M  V30 433 C 41.8197 -0.949661 -1.31986 0
M  V30 434 O 43.0037 -1.21969 -1.43722 0
M  V30 435 C 40.1307 -2.4734 -2.31389 0
M  V30 436 C 39.1767 -3.68827 -2.1417 0
M  V30 437 S 40.0097 -5.15655 -1.44429 0
M  V30 438 C 41.1657 -5.60814 -2.77918 0
M  V30 439 H 41.3987 -2.91486 -0.585078 0
M  V30 440 H 38.9317 -1.53269 -0.186507 0
M  V30 441 H 40.8897 -2.72127 -3.07339 0
M  V30 442 H 39.5507 -1.6168 -2.69292 0
M  V30 443 H 38.7437 -3.95955 -3.11826 0
M  V30 444 H 38.3457 -3.44172 -1.46362 0
M  V30 445 H 40.6377 -5.64806 -3.74166 0
M  V30 446 H 41.5807 -6.60414 -2.55459 0
M  V30 447 H 41.9887 -4.8845 -2.82979 0
M  V30 448 N 41.3868 0.248026 -1.55636 0
M  V30 449 C 42.7978 0.817177 -1.67866 0
M  V30 450 C 43.1488 1.86069 -0.622322 0
M  V30 451 O 42.2738 2.15157 0.231618 0
M  V30 452 C 42.8688 1.489 -3.04326 0
M  V30 453 C 41.4278 2.00587 -3.185 0
M  V30 454 C 40.5748 0.856573 -2.63739 0
M  V30 455 H 43.5258 0.0238579 -1.58682 0
M  V30 456 H 43.5468 2.35698 -2.98708 0
M  V30 457 H 43.0588 0.729279 -3.81186 0
M  V30 458 H 41.1598 2.79443 -2.4646 0
M  V30 459 H 41.2728 2.20402 -4.25393 0
M  V30 460 H 39.6368 1.25678 -2.21534 0
M  V30 461 H 40.4198 0.109953 -3.43124 0
M  V30 462 N 42.8649 1.48995 0.513639 0
M  V30 463 C 44.1129 1.57531 1.26604 0
M  V30 464 C 44.4339 0.258236 1.93283 0
M  V30 465 O 43.7039 -0.721502 1.8213 0
M  V30 466 H 42.2839 0.580387 0.470276 0
M  V30 467 H 44.9459 1.85552 0.596373 0
M  V30 468 H 44.0419 2.36486 2.03669 0
M  V30 469 N 44.343 -0.763751 1.37857 0
M  V30 470 C 45.273 -1.89103 1.36975 0
M  V30 471 C 46.254 -1.68439 0.237152 0
M  V30 472 O 47.439 -1.8918 0.438713 0
M  V30 473 C 44.569 -3.26496 1.18395 0
M  V30 474 C 43.523 -3.61741 2.28751 0
M  V30 475 C 42.849 -4.97762 1.95286 0
M  V30 476 C 44.149 -3.67665 3.70972 0
M  V30 477 H 45.843 -1.90099 2.31307 0
M  V30 478 H 43.389 -0.91319 1.11341 0
M  V30 479 H 45.342 -4.05003 1.16406 0
M  V30 480 H 44.066 -3.25955 0.205215 0
M  V30 481 H 42.725 -2.85547 2.29909 0
M  V30 482 H 42.373 -4.93769 0.959221 0
M  V30 483 H 42.073 -5.22313 2.69189 0
M  V30 484 H 43.597 -5.7866 1.94898 0
M  V30 485 H 45.011 -4.36307 3.719 0
M  V30 486 H 43.408 -4.03718 4.43995 0
M  V30 487 H 44.478 -2.68134 4.0402 0
M  V30 488 N 45.8211 -1.22559 -0.990812 0
M  V30 489 C 46.7541 -0.940773 -2.07905 0
M  V30 490 C 47.7321 0.117082 -1.62178 0
M  V30 491 O 48.9161 -0.0149506 -1.88494 0
M  V30 492 C 46.0431 -0.415321 -3.36144 0
M  V30 493 C 45.0891 -1.45818 -4.00799 0
M  V30 494 S 45.9221 -3.03219 -4.41382 0
M  V30 495 C 47.0781 -2.52317 -5.72789 0
M  V30 496 H 47.3111 -1.8623 -2.31745 0
M  V30 497 H 44.8441 -1.05688 -1.12558 0
M  V30 498 H 46.8021 -0.118747 -4.10328 0
M  V30 499 H 45.4631 0.485121 -3.10331 0
M  V30 500 H 44.6561 -1.04044 -4.93144 0
M  V30 501 H 44.2581 -1.70356 -3.32949 0
M  V30 502 H 46.5501 -1.93688 -6.49224 0
M  V30 503 H 47.4931 -3.43161 -6.19392 0
M  V30 504 H 47.9011 -1.93529 -5.30289 0
M  V30 505 N 47.2992 1.18797 -1.03562 0
M  V30 506 C 48.7152 1.40671 -0.753917 0
M  V30 507 C 48.9152 1.9043 0.658686 0
M  V30 508 O 47.9712 2.08538 1.42366 0
M  V30 509 C 49.2842 2.41192 -1.79574 0
M  V30 510 C 50.8322 2.54928 -1.81606 0
M  V30 511 C 51.3072 3.58709 -2.84766 0
M  V30 512 N 52.7982 3.66212 -2.83625 0
M  V30 513 C 53.5332 4.46225 -3.60098 0
M  V30 514 N 53.0292 5.29888 -4.46308 0
M  V30 515 N 54.8222 4.40939 -3.4861 0
M  V30 516 H 46.9732 0.848221 -1.94728 0
M  V30 517 H 49.2362 0.435081 -0.842264 0
M  V30 518 H 48.9422 2.11669 -2.80872 0
M  V30 519 H 48.8162 3.40467 -1.62365 0
M  V30 520 H 51.2032 2.83771 -0.809817 0
M  V30 521 H 51.2842 1.55784 -2.02891 0
M  V30 522 H 50.9282 3.30607 -3.85566 0
M  V30 523 H 50.8582 4.57519 -2.60737 0
M  V30 524 H 53.3492 3.06466 -2.21105 0
M  V30 525 H 53.6622 5.88078 -5.01382 0
M  V30 526 H 52.0072 5.29326 -4.50377 0
M  V30 527 H 55.1982 3.74624 -2.80668 0
M  V30 528 H 55.3712 5.03056 -4.08459 0
M  V30 529 N 48.7773 0.814389 1.34928 0
M  V30 530 C 50.0263 0.394871 1.97797 0
M  V30 531 C 50.3393 -1.04555 1.65311 0
M  V30 532 O 51.5453 -1.56856 2.21604 0
M  V30 533 C 50.0013 0.655103 3.53888 0
M  V30 534 C 49.6093 2.10858 3.95276 0
M  V30 535 C 51.3533 0.301329 4.23429 0
M  V30 536 C 49.2603 2.31415 5.44244 0
M  V30 537 H 48.1903 0.143913 0.740139 0
M  V30 538 H 50.8413 0.999544 1.53888 0
M  V30 539 H 49.2233 -0.0196253 3.95995 0
M  V30 540 H 50.3973 2.82176 3.64298 0
M  V30 541 H 48.7123 2.42297 3.38646 0
M  V30 542 H 51.3093 0.432869 5.32945 0
M  V30 543 H 51.6523 -0.75331 4.09428 0
M  V30 544 H 52.1853 0.930288 3.86769 0
M  V30 545 H 48.9243 3.35353 5.63222 0
M  V30 546 H 48.4443 1.6463 5.76764 0
M  V30 547 H 50.1233 2.13352 6.10811 0
M  V30 548 N 50.2554 -1.46986 0.568584 0
M  V30 549 C 51.6714 -1.57946 0.229189 0
M  V30 550 C 51.8714 -1.56567 -1.26843 0
M  V30 551 O 50.9274 -1.47511 -2.04931 0
M  V30 552 C 52.2404 -2.87963 0.865909 0
M  V30 553 C 53.7884 -3.01568 0.838188 0
M  V30 554 C 54.2634 -4.34301 1.45419 0
M  V30 555 N 55.7544 -4.40965 1.41788 0
M  V30 556 C 56.4894 -5.42256 1.86403 0
M  V30 557 N 55.9854 -6.50297 2.38926 0
M  V30 558 N 57.7784 -5.3337 1.77405 0
M  V30 559 H 49.9294 -1.46126 1.54146 0
M  V30 560 H 52.1924 -0.696156 0.643484 0
M  V30 561 H 51.8984 -2.94742 1.91886 0
M  V30 562 H 51.7724 -3.75423 0.365687 0
M  V30 563 H 54.1594 -2.94379 -0.206106 0
M  V30 564 H 54.2404 -2.1562 1.37629 0
M  V30 565 H 53.8844 -4.42247 2.49761 0
M  V30 566 H 53.8144 -5.19 0.891435 0
M  V30 567 H 56.3054 -3.63484 1.03381 0
M  V30 568 H 56.6184 -7.23777 2.70863 0
M  V30 569 H 54.9634 -6.51155 2.42944 0
M  V30 570 H 58.1544 -4.47865 1.3614 0
M  V30 571 H 58.3274 -6.12169 2.12492 0
M  V30 572 N 51.7335 -0.305618 -1.54608 0
M  V30 573 C 52.6435 0.57778 -2.27374 0
M  V30 574 C 53.6595 1.14451 -1.31061 0
M  V30 575 O 54.8355 1.16831 -1.6405 0
M  V30 576 C 51.9005 1.73123 -3.00382 0
M  V30 577 C 50.9615 1.19812 -4.12242 0
M  V30 578 C 50.1945 2.2966 -4.81759 0
M  V30 579 O 50.4175 3.49651 -4.50666 0
M  V30 580 O 49.3515 1.96091 -5.69062 0
M  V30 581 H 53.1775 -0.012624 -3.03697 0
M  V30 582 H 50.7625 -0.0719184 -1.49227 0
M  V30 583 H 52.6445 2.40315 -3.4616 0
M  V30 584 H 51.3195 2.30815 -2.26949 0
M  V30 585 H 50.2265 0.491798 -3.70853 0
M  V30 586 H 51.5595 0.666566 -4.87666 0
M  V30 587 N 53.2116 1.57565 -0.0334293 0
M  V30 588 C 54.1216 2.13943 0.962572 0
M  V30 589 C 55.1376 1.09276 1.35406 0
M  V30 590 O 56.3136 1.41355 1.4346 0
M  V30 591 C 53.3786 2.65887 2.22497 0
M  V30 592 C 52.4396 3.85286 1.8935 0
M  V30 593 C 51.6726 4.34743 3.09571 0
M  V30 594 O 51.8956 3.83352 4.22371 0
M  V30 595 O 50.8296 5.26538 2.91618 0
M  V30 596 H 54.6556 2.99333 0.513169 0
M  V30 597 H 52.2406 1.4822 0.18743 0
M  V30 598 H 54.1226 2.99346 2.96598 0
M  V30 599 H 52.7976 1.83578 2.6661 0
M  V30 600 H 51.7046 3.56746 1.1262 0
M  V30 601 H 53.0376 4.68771 1.5005 0
M  V30 602 N 54.6897 -0.239769 1.55765 0
M  V30 603 C 55.9197 -0.982743 1.8173 0
M  V30 604 C 56.3277 -1.7917 0.607835 0
M  V30 605 O 55.6707 -1.78525 -0.432973 0
M  V30 606 C 55.7327 -1.96332 3.01155 0
M  V30 607 C 55.3967 -1.34062 4.36894 0
M  V30 608 C 56.3937 -0.739539 5.14613 0
M  V30 609 C 54.0787 -1.35784 4.83599 0
M  V30 610 C 56.0727 -0.163989 6.37189 0
M  V30 611 C 53.7597 -0.778441 6.06122 0
M  V30 612 C 54.7577 -0.182548 6.82756 0
M  V30 613 O 54.4457 0.387887 8.02964 0
M  V30 614 H 54.1777 -0.294481 0.608487 0
M  V30 615 H 56.7317 -0.26572 2.03674 0
M  V30 616 H 54.9617 -2.71884 2.74984 0
M  V30 617 H 56.6507 -2.57032 3.14149 0
M  V30 618 H 57.4167 -0.718687 4.79646 0
M  V30 619 H 53.2957 -1.81105 4.23936 0
M  V30 620 H 56.8397 0.301753 6.96947 0
M  V30 621 H 52.7367 -0.796645 6.40565 0
M  V30 622 H 53.5047 0.28044 8.18019 0
M  V30 623 N 56.1678 -1.49265 -0.50573 0
M  V30 624 C 57.4158 -1.582 -1.25766 0
M  V30 625 C 57.7368 -0.268482 -1.93143 0
M  V30 626 O 57.0068 0.711833 -1.8251 0
M  V30 627 H 55.5868 -0.582873 -0.467191 0
M  V30 628 H 58.2488 -1.85865 -0.586525 0
M  V30 629 H 57.3448 -2.37563 -2.02412 0
M  V30 630 N 57.6459 0.756429 -1.3826 0
M  V30 631 C 58.5929 1.87011 -1.35261 0
M  V30 632 C 59.5629 1.64695 -0.215616 0
M  V30 633 O 60.7479 1.864 -0.407399 0
M  V30 634 C 57.8879 3.24275 -1.18068 0
M  V30 635 C 57.0009 3.58442 -2.41129 0
M  V30 636 C 56.1359 4.84994 -2.16689 0
M  V30 637 C 55.1749 5.11939 -3.35537 0
M  V30 638 N 54.3119 6.29685 -3.10549 0
M  V30 639 H 59.1519 1.8891 -2.30472 0
M  V30 640 H 56.6889 0.923373 -1.14509 0
M  V30 641 H 58.6469 4.03479 -1.06116 0
M  V30 642 H 57.2769 3.21711 -0.264973 0
M  V30 643 H 56.3289 2.74103 -2.63764 0
M  V30 644 H 57.6409 3.74283 -3.29717 0
M  V30 645 H 56.7949 5.72135 -2.01857 0
M  V30 646 H 55.5339 4.71286 -1.25462 0
M  V30 647 H 54.5389 4.23268 -3.50891 0
M  V30 648 H 55.7639 5.27546 -4.27635 0
M  V30 649 H 53.7099 6.17306 -2.21967 0
M  V30 650 H 53.6269 6.46014 -3.92686 0
M  V30 651 H 54.8949 7.19722 -2.99367 0
M  V30 652 N 59.124 1.23083 0.984299 0
M  V30 653 C 60.401 0.9689 1.69917 0
M  V30 654 C 60.781 -0.513604 2.04757 0
M  V30 655 O 60.129 -1.48383 1.73767 0
M  V30 656 C 60.339 1.87518 2.94343 0
M  V30 657 C 61.687 2.13636 3.6694 0
M  V30 658 O 62.711 1.85036 3.04368 0
M  V30 659 O 61.57 2.62119 4.79537 0
M  V30 660 H 58.664 0.365095 0.742048 0
M  V30 661 H 61.21 1.34107 1.03987 0
M  V30 662 H 59.982 2.87756 2.65164 0
M  V30 663 H 59.605 1.50514 3.6801 0
M  V30 664 N 60.6021 -1.18246 1.0419 0
M  V30 665 C 61.5341 -2.2142 0.592088 0
M  V30 666 C 62.5471 -1.59233 -0.338909 0
M  V30 667 O 63.7361 -1.78002 -0.133231 0
M  V30 668 C 60.8361 -3.38546 -0.154854 0
M  V30 669 C 60.0091 -4.3031 0.784328 0
M  V30 670 C 59.0681 -5.26138 0.0804583 0
M  V30 671 O 58.0941 -5.64738 0.711292 0
M  V30 672 N 59.2961 -5.68261 -1.18574 0
M  V30 673 H 62.0611 -2.60636 1.47949 0
M  V30 674 H 59.6221 -1.33044 0.922544 0
M  V30 675 H 61.6141 -3.99678 -0.635606 0
M  V30 676 H 60.1841 -2.98012 -0.943811 0
M  V30 677 H 59.4041 -3.66764 1.44491 0
M  V30 678 H 60.6921 -4.8852 1.42218 0
M  V30 679 H 60.0901 -5.38957 -1.71876 0
M  V30 680 H 58.6471 -6.31584 -1.61074 0
M  V30 681 N 62.0802 -0.821533 -1.34494 0
M  V30 682 C 63.4912 -0.467956 -1.8074 0
M  V30 683 C 63.8422 1.01151 -1.68116 0
M  V30 684 O 62.9672 1.78707 -1.22036 0
M  V30 685 C 63.5622 -0.842627 -3.28154 0
M  V30 686 C 62.1212 -0.541439 -3.72485 0
M  V30 687 C 61.2682 -1.06028 -2.56229 0
M  V30 688 H 64.2192 -1.01183 -1.22261 0
M  V30 689 H 64.2402 -0.145876 -3.8022 0
M  V30 690 H 63.7522 -1.91945 -3.37311 0
M  V30 691 H 61.8532 0.526034 -3.68868 0
M  V30 692 H 61.9662 -1.08453 -4.66663 0
M  V30 693 H 60.3302 -0.481892 -2.501 0
M  V30 694 H 61.1132 -2.14352 -2.68157 0
M  V30 695 N 63.5583 1.46682 -0.576371 0
M  V30 696 C 64.4883 2.33028 0.148397 0
M  V30 697 C 65.4693 1.44961 0.889956 0
M  V30 698 O 66.6543 1.73789 0.866662 0
M  V30 699 C 63.7843 3.27117 1.1667 0
M  V30 700 C 62.7383 4.24575 0.540386 0
M  V30 701 C 62.0643 5.08126 1.6647 0
M  V30 702 C 63.3643 5.19722 -0.518331 0
M  V30 703 H 65.0583 2.93875 -0.572509 0
M  V30 704 H 62.6043 1.41315 -0.276768 0
M  V30 705 H 64.5573 3.86374 1.68204 0
M  V30 706 H 63.2813 2.64364 1.9178 0
M  V30 707 H 61.9403 3.66571 0.0461769 0
M  V30 708 H 61.5883 4.41762 2.40531 0
M  V30 709 H 61.2883 5.74122 1.25131 0
M  V30 710 H 62.8123 5.70246 2.18293 0
M  V30 711 H 64.2263 5.73232 -0.0883058 0
M  V30 712 H 62.6233 5.94026 -0.851679 0
M  V30 713 H 63.6933 4.64037 -1.40703 0
M  V30 714 N 65.0364 0.313813 1.54444 0
M  V30 715 C 65.9834 -0.55655 2.23989 0
M  V30 716 C 66.9534 -1.11943 1.22711 0
M  V30 717 O 68.1384 -1.16158 1.51367 0
M  V30 718 C 65.2784 -1.71635 2.99392 0
M  V30 719 C 64.3914 -1.18364 4.15468 0
M  V30 720 C 63.5264 -2.30834 4.78424 0
M  V30 721 C 62.5654 -1.74762 5.86622 0
M  V30 722 N 61.7024 -2.80855 6.43479 0
M  V30 723 H 66.5424 0.0430893 2.97969 0
M  V30 724 H 64.0794 0.0330359 1.47063 0
M  V30 725 H 66.0374 -2.39868 3.41349 0
M  V30 726 H 64.6674 -2.28742 2.27765 0
M  V30 727 H 63.7194 -0.393163 3.78363 0
M  V30 728 H 65.0314 -0.733262 4.93381 0
M  V30 729 H 64.1854 -3.0699 5.23299 0
M  V30 730 H 62.9244 -2.79204 3.99871 0
M  V30 731 H 61.9294 -0.970995 5.41158 0
M  V30 732 H 63.1544 -1.2728 6.67066 0
M  V30 733 H 61.1004 -3.28535 5.67804 0
M  V30 734 H 61.0174 -2.40351 7.16776 0
M  V30 735 H 62.2854 -3.5687 6.93011 0
M  V30 736 N 66.5145 -1.57545 0.0417849 0
M  V30 737 C 67.4625 -2.12148 -0.953723 0
M  V30 738 C 68.4565 -1.05104 -1.32852 0
M  V30 739 O 69.6625 -1.23524 -1.30927 0
M  V30 740 H 66.0375 -0.677957 -0.325389 0
M  V30 741 H 68.0085 -2.94707 -0.467991 0
M  V30 742 C 66.7575 -2.6739 -2.22257 0
M  V30 743 H 66.0805 -3.49413 -1.94295 0
M  V30 744 H 67.5205 -3.09227 -2.90094 0
M  V30 745 C 65.9795 -1.60723 -2.96091 0
M  V30 746 O 66.5095 -1.01449 -3.88679 0
M  V30 747 N 64.7155 -1.32466 -2.58652 0
M  V30 748 H 64.2625 -1.80856 -1.83437 0
M  V30 749 H 64.2205 -0.61325 -3.08361 0
M  V30 750 N 67.9926 0.231505 -1.5589 0
M  V30 751 C 68.9556 1.27028 -1.90779 0
M  V30 752 C 69.9556 1.40308 -0.785507 0
M  V30 753 O 71.1456 1.38744 -1.05336 0
M  V30 754 C 68.2776 2.64566 -2.14983 0
M  V30 755 H 69.4706 0.973017 -2.83677 0
M  V30 756 H 67.0236 0.471486 -1.49019 0
M  V30 757 H 67.7586 2.99406 -1.24604 0
M  V30 758 H 67.5436 2.56305 -2.96732 0
M  V30 759 H 69.0336 3.39543 -2.43105 0
M  V30 760 N 69.4707 1.49531 0.497807 0
M  V30 761 C 70.4177 1.66436 1.59899 0
M  V30 762 C 71.3877 0.505793 1.58212 0
M  V30 763 O 72.5727 0.733202 1.7615 0
M  V30 764 C 69.7127 1.7399 2.98029 0
M  V30 765 C 68.8257 3.01172 3.09708 0
M  V30 766 C 67.9607 2.99686 4.38591 0
M  V30 767 C 66.9997 4.21434 4.43914 0
M  V30 768 N 66.1367 4.1784 5.64229 0
M  V30 769 H 70.9767 2.60459 1.44793 0
M  V30 770 H 68.5137 1.29137 0.704423 0
M  V30 771 H 70.4717 1.76352 3.78095 0
M  V30 772 H 69.1017 0.834301 3.11832 0
M  V30 773 H 68.1537 3.08408 2.22685 0
M  V30 774 H 69.4657 3.91165 3.09502 0
M  V30 775 H 68.6197 3.00628 5.2698 0
M  V30 776 H 67.3587 2.07477 4.41367 0
M  V30 777 H 66.3637 4.20733 3.53926 0
M  V30 778 H 67.5887 5.14839 4.42851 0
M  V30 779 H 65.5347 3.28469 5.67841 0
M  V30 780 H 65.4517 5.01571 5.65652 0
M  V30 781 H 66.7197 4.22889 6.54817 0
M  V30 782 N 70.9488 -0.749086 1.3866 0
M  V30 783 C 72.1978 -1.50371 1.3443 0
M  V30 784 C 72.5108 -1.95503 -0.0616397 0
M  V30 785 O 73.7168 -2.70554 -0.226489 0
M  V30 786 C 72.1728 -2.71644 2.36088 0
M  V30 787 C 71.7808 -2.3352 3.82325 0
M  V30 788 C 73.5248 -3.49518 2.40909 0
M  V30 789 C 71.4318 -3.51431 4.75658 0
M  V30 790 H 70.3618 -0.564628 0.499712 0
M  V30 791 H 73.0128 -0.818449 1.64237 0
M  V30 792 H 71.3948 -3.42175 1.9933 0
M  V30 793 H 72.5688 -1.70627 4.28046 0
M  V30 794 H 70.8838 -1.6877 3.80665 0
M  V30 795 H 73.4808 -4.37197 3.07836 0
M  V30 796 H 73.8238 -3.90992 1.42937 0
M  V30 797 H 74.3568 -2.86005 2.76489 0
M  V30 798 H 71.0958 -3.15019 5.74842 0
M  V30 799 H 70.6158 -4.13352 4.34627 0
M  V30 800 H 72.2948 -4.17953 4.93887 0
M  V30 801 N 72.4269 -1.23603 -0.977757 0
M  V30 802 C 73.6549 -1.09646 -1.75458 0
M  V30 803 C 74.0699 0.351859 -1.85492 0
M  V30 804 O 73.4269 1.24327 -1.336 0
M  V30 805 C 73.4779 -1.71895 -3.18016 0
M  V30 806 O 73.1989 -3.11063 -3.08498 0
M  V30 807 C 74.6999 -1.63415 -4.12081 0
M  V30 808 H 71.9199 -0.38359 -0.550545 0
M  V30 809 H 74.4639 -1.63507 -1.22824 0
M  V30 810 H 72.6189 -1.22061 -3.67668 0
M  V30 811 H 73.0329 -3.41305 -3.9826 0
M  V30 812 H 74.5069 -2.11669 -5.09804 0
M  V30 813 H 74.9839 -0.593462 -4.35172 0
M  V30 814 H 75.5899 -2.12628 -3.68334 0
M  V30 815 N 73.905 1.17692 -1.04816 0
M  V30 816 C 75.153 1.87488 -0.754497 0
M  V30 817 C 75.474 1.81205 0.720407 0
M  V30 818 O 74.744 1.23544 1.52032 0
M  V30 819 H 73.324 0.694101 -0.276102 0
M  V30 820 H 75.986 1.42793 -1.32651 0
M  V30 821 H 75.082 2.93328 -1.06606 0
M  V30 822 N 75.3831 0.828654 1.34056 0
M  V30 823 C 76.6231 0.425394 1.99924 0
M  V30 824 C 76.9871 -0.994294 1.64249 0
M  V30 825 O 78.1881 -1.50074 2.23005 0
M  V30 826 C 76.4591 0.628071 3.51838 0
M  V30 827 S 78.0181 0.318511 4.37642 0
M  V30 828 H 74.8361 0.160465 0.692656 0
M  V30 829 H 77.4381 1.07572 1.63244 0
M  V30 830 H 76.1421 1.66089 3.7529 0
M  V30 831 H 75.6731 -0.0367799 3.93383 0
M  V30 832 H 77.6881 -0.865632 4.88591 0
M  V30 833 N 76.8612 -1.46375 0.584142 0
M  V30 834 C 77.7912 -2.33103 -0.136037 0
M  V30 835 C 78.7722 -1.45431 -0.882255 0
M  V30 836 O 79.9572 -1.74246 -0.857434 0
M  V30 837 C 77.0872 -3.27731 -1.14933 0
M  V30 838 C 76.0412 -4.24855 -0.517862 0
M  V30 839 C 75.3672 -5.09001 -1.63773 0
M  V30 840 C 76.6672 -5.19439 0.545886 0
M  V30 841 H 78.3612 -2.93568 0.588086 0
M  V30 842 H 75.9072 -1.41166 0.284259 0
M  V30 843 H 77.8602 -3.87261 -1.66153 0
M  V30 844 H 76.5842 -2.65377 -1.90375 0
M  V30 845 H 75.2432 -3.6659 -0.0267361 0
M  V30 846 H 74.8912 -4.43031 -2.38185 0
M  V30 847 H 74.5912 -5.74777 -1.22085 0
M  V30 848 H 76.1152 -5.71396 -2.15266 0
M  V30 849 H 77.5292 -5.73177 0.118704 0
M  V30 850 H 75.9262 -5.93566 0.88317 0
M  V30 851 H 76.9962 -4.63285 1.43162 0
M  V30 852 N 78.3393 -0.321999 -1.54275 0
M  V30 853 C 79.2893 0.560185 -2.21011 0
M  V30 854 C 80.2733 1.08283 -1.19011 0
M  V30 855 O 81.4653 1.02011 -1.44647 0
M  V30 856 C 78.5943 1.72137 -2.97025 0
M  V30 857 C 77.6803 1.21369 -4.06363 0
M  V30 858 N 78.0713 0.425566 -5.04007 0
M  V30 859 C 76.3693 1.49255 -4.20284 0
M  V30 860 C 77.0703 0.152601 -5.815 0
M  V30 861 N 76.0463 0.738294 -5.38563 0
M  V30 862 H 79.8483 -0.049265 -2.93859 0
M  V30 863 H 77.3623 -0.127779 -1.61897 0
M  V30 864 H 79.3593 2.36512 -3.43319 0
M  V30 865 H 78.0193 2.33431 -2.25699 0
M  V30 866 H 79.0303 0.068551 -5.17855 0
M  V30 867 H 75.7073 2.11145 -3.60172 0
M  V30 868 H 77.0973 -0.481764 -6.70171 0
M  V30 869 N 79.8174 1.5752 -0.0501392 0
M  V30 870 C 80.7504 2.07026 0.959962 0
M  V30 871 C 81.7284 0.970539 1.30458 0
M  V30 872 O 82.9124 1.2424 1.41763 0
M  V30 873 C 80.0394 2.5099 2.27424 0
M  V30 874 C 79.0854 3.72188 2.08275 0
M  V30 875 S 79.9184 5.17888 1.36207 0
M  V30 876 C 81.0744 5.65165 2.6896 0
M  V30 877 H 81.3074 2.9238 0.538631 0
M  V30 878 H 78.8404 1.53547 0.162099 0
M  V30 879 H 80.7984 2.76982 3.02971 0
M  V30 880 H 79.4594 1.65944 2.66686 0
M  V30 881 H 78.6524 4.00866 3.05487 0
M  V30 882 H 78.2544 3.46457 1.40868 0
M  V30 883 H 80.5464 5.70687 3.65133 0
M  V30 884 H 81.4894 6.64394 2.4492 0
M  V30 885 H 81.8974 4.9289 2.75172 0
M  V30 886 N 81.2955 -0.223234 1.56011 0
M  V30 887 C 82.5235 -0.964812 1.83027 0
M  V30 888 C 82.9385 -1.78013 0.62904 0
M  V30 889 O 82.2955 -1.78008 -0.402414 0
M  V30 890 C 82.3465 -1.88373 3.08542 0
M  V30 891 O 82.0675 -1.10137 4.2403 0
M  V30 892 C 83.5685 -2.73934 3.48533 0
M  V30 893 H 80.7885 -0.282842 0.608475 0
M  V30 894 H 83.3325 -0.238971 2.03099 0
M  V30 895 H 81.4875 -2.56354 2.9045 0
M  V30 896 H 81.9015 -1.72501 4.95322 0
M  V30 897 H 83.3755 -3.34117 4.39397 0
M  V30 898 H 83.8525 -3.46244 2.70207 0
M  V30 899 H 84.4585 -2.11369 3.69057 0
M  V30 900 N 82.7736 -1.49793 -0.48987 0
M  V30 901 C 84.0196 -1.60078 -1.24511 0
M  V30 902 C 84.3526 -0.291608 -1.91998 0
M  V30 903 O 83.6276 0.705647 -1.81248 0
M  V30 904 C 83.9106 -2.76791 -2.30345 0
M  V30 905 C 83.7636 -4.17535 -1.67286 0
M  V30 906 C 85.0826 -2.89111 -3.31817 0
M  V30 907 H 82.2016 -0.582645 -0.451324 0
M  V30 908 H 84.8436 -1.82117 -0.541612 0
M  V30 909 H 82.9936 -2.5813 -2.90346 0
M  V30 910 H 84.6656 -4.4774 -1.11026 0
M  V30 911 H 82.9086 -4.22665 -0.976577 0
M  V30 912 H 83.5796 -4.95094 -2.44103 0
M  V30 913 H 86.0556 -3.06133 -2.81819 0
M  V30 914 H 84.9316 -3.72433 -4.03219 0
M  V30 915 H 85.1926 -1.9893 -3.94815 0
M  V30 916 N 84.2517 0.741722 -1.39055 0
M  V30 917 C 85.1617 1.88621 -1.39496 0
M  V30 918 C 86.1777 1.71557 -0.290578 0
M  V30 919 O 87.3537 1.94275 -0.530954 0
M  V30 920 C 84.4187 3.24134 -1.23037 0
M  V30 921 C 83.4797 3.5364 -2.43387 0
M  V30 922 C 82.7127 4.82687 -2.27703 0
M  V30 923 O 82.9357 5.55922 -1.27696 0
M  V30 924 O 81.8697 5.1194 -3.16545 0
M  V30 925 H 85.6957 1.91203 -2.35956 0
M  V30 926 H 83.2807 0.888625 -1.20099 0
M  V30 927 H 85.1627 4.0513 -1.15964 0
M  V30 928 H 83.8377 3.22337 -0.296691 0
M  V30 929 H 82.7447 2.72758 -2.56035 0
M  V30 930 H 84.0777 3.60209 -3.35425 0
M  V30 931 N 85.7298 1.2412 0.971189 0
M  V30 932 C 86.9698 1.09066 1.7287 0
M  V30 933 C 87.3338 -0.364794 1.88503 0
M  V30 934 O 88.5348 -0.636748 2.61149 0
M  V30 935 C 86.8058 1.80629 3.08396 0
M  V30 936 S 88.3648 1.81263 3.99611 0
M  V30 937 H 85.1828 0.390145 0.594397 0
M  V30 938 H 87.7848 1.57397 1.15959 0
M  V30 939 H 86.4888 2.85647 2.94676 0
M  V30 940 H 86.0198 1.32617 3.70373 0
M  V30 941 H 88.0348 0.877804 4.88374 0
M  V30 942 N 87.2079 -1.17134 1.05439 0
M  V30 943 C 88.1709 -2.19439 0.661764 0
M  V30 944 C 89.1709 -1.58199 -0.288042 0
M  V30 945 O 90.3609 -1.74053 -0.0715803 0
M  V30 946 C 87.4929 -3.40889 -0.0276209 0
M  V30 947 H 88.6859 -2.55688 1.56728 0
M  V30 948 H 86.2389 -1.31259 0.848567 0
M  V30 949 H 86.9739 -3.10187 -0.94629 0
M  V30 950 H 86.7589 -3.86586 0.655238 0
M  V30 951 H 88.2489 -4.16603 -0.288342 0
M  V30 952 N 88.686 -0.835752 -1.33615 0
M  V30 953 C 89.616 -0.281739 -2.31794 0
M  V30 954 C 90.597 0.608833 -1.58831 0
M  V30 955 O 91.782 0.533035 -1.86741 0
M  V30 956 C 88.912 0.546612 -3.42971 0
M  V30 957 C 87.866 -0.247904 -4.27281 0
M  V30 958 C 87.192 0.704001 -5.30045 0
M  V30 959 C 88.492 -1.46324 -5.01385 0
M  V30 960 H 90.186 -1.10206 -2.78379 0
M  V30 961 H 87.732 -0.531388 -1.33837 0
M  V30 962 H 89.685 0.944467 -4.1068 0
M  V30 963 H 88.409 1.40011 -2.95067 0
M  V30 964 H 87.068 -0.627281 -3.61194 0
M  V30 965 H 86.716 1.55381 -4.78399 0
M  V30 966 H 86.416 0.176524 -5.87335 0
M  V30 967 H 87.94 1.09944 -6.0062 0
M  V30 968 H 89.354 -1.13871 -5.61877 0
M  V30 969 H 87.751 -1.92728 -5.6831 0
M  V30 970 H 88.821 -2.23467 -4.30338 0
M  V30 971 N 90.1641 1.46063 -0.591896 0
M  V30 972 C 91.0941 2.33172 0.123673 0
M  V30 973 C 92.0751 1.45897 0.87453 0
M  V30 974 O 93.2601 1.74698 0.848181 0
M  V30 975 C 90.3901 3.28336 1.13194 0
M  V30 976 C 89.3441 4.25124 0.495324 0
M  V30 977 C 88.6701 5.09863 1.61071 0
M  V30 978 C 89.9701 5.19143 -0.573425 0
M  V30 979 H 91.6641 2.93252 -0.603646 0
M  V30 980 H 89.2101 1.41014 -0.291741 0
M  V30 981 H 91.1631 3.88137 1.64097 0
M  V30 982 H 89.8871 2.66383 1.88965 0
M  V30 983 H 88.5461 3.66599 0.00729452 0
M  V30 984 H 88.1941 4.44288 2.35832 0
M  V30 985 H 87.8941 5.75417 1.19035 0
M  V30 986 H 89.4181 5.72529 2.12233 0
M  V30 987 H 90.8321 5.73106 -0.1491 0
M  V30 988 H 89.2291 5.93089 -0.914636 0
M  V30 989 H 90.2991 4.62519 -1.45617 0
M  V30 990 N 91.6422 0.330177 1.54103 0
M  V30 991 C 92.8912 -0.271336 1.99867 0
M  V30 992 C 93.2042 -1.52723 1.22209 0
M  V30 993 O 94.4102 -2.20515 1.58383 0
M  V30 994 C 92.8662 -0.534032 3.55916 0
M  V30 995 C 92.4742 0.705193 4.42415 0
M  V30 996 C 94.2182 -1.09514 4.1013 0
M  V30 997 C 92.1252 0.414035 5.89949 0
M  V30 998 H 91.0552 -0.105166 0.74663 0
M  V30 999 H 93.7062 0.443429 1.78062 0
M  V30 1000 H 92.0882 -1.30915 3.73734 0
M  V30 1001 H 93.2622 1.4804 4.36372 0
M  V30 1002 H 91.5772 1.18698 3.99124 0
M  V30 1003 H 94.1742 -1.3277 5.17954 0
M  V30 1004 H 94.5172 -2.04656 3.62521 0
M  V30 1005 H 95.0502 -0.381038 3.95971 0
M  V30 1006 H 91.7892 1.33481 6.41766 0
M  V30 1007 H 91.3092 -0.323336 5.98928 0
M  V30 1008 H 92.9882 0.0263105 6.46995 0
M  V30 1009 N 93.1203 -1.57491 0.0584922 0
M  V30 1010 C 94.0303 -2.15448 -0.928414 0
M  V30 1011 C 95.0463 -1.11416 -1.3365 0
M  V30 1012 O 96.2223 -1.4362 -1.41193 0
M  V30 1013 C 93.2873 -2.69393 -2.18239 0
M  V30 1014 C 92.3483 -3.88249 -1.83196 0
M  V30 1015 C 91.5813 -4.39613 -3.02616 0
M  V30 1016 O 91.8043 -3.90023 -4.16219 0
M  V30 1017 O 90.7383 -5.31111 -2.83204 0
M  V30 1018 H 94.5643 -3.00112 -0.465483 0
M  V30 1019 H 92.1493 -1.48499 -0.163826 0
M  V30 1020 H 94.0313 -3.04026 -2.91798 0
M  V30 1021 H 92.7063 -1.87796 -2.63656 0
M  V30 1022 H 91.6133 -3.58492 -1.06931 0
M  V30 1023 H 92.9463 -4.71098 -1.42573 0
M  V30 1024 N 94.5984 0.214957 -1.56127 0
M  V30 1025 C 95.8264 0.955092 -1.83536 0
M  V30 1026 C 96.2414 1.77677 -0.638472 0
M  V30 1027 O 95.5984 1.78219 0.392968 0
M  V30 1028 C 95.6494 1.86734 -3.09536 0
M  V30 1029 O 95.3704 1.07887 -4.24608 0
M  V30 1030 C 96.8714 2.72082 -3.4998 0
M  V30 1031 H 94.0914 0.279611 -0.609966 0
M  V30 1032 H 96.6354 0.228197 -2.03223 0
M  V30 1033 H 94.7904 2.5481 -2.91806 0
M  V30 1034 H 95.2044 1.69872 -4.9623 0
M  V30 1035 H 96.6784 3.31782 -4.41163 0
M  V30 1036 H 97.1554 3.44806 -2.7204 0
M  V30 1037 H 97.7614 2.09409 -3.70173 0
M  V30 1038 N 96.0765 1.50051 0.48192 0
M  V30 1039 C 97.0065 1.71046 1.58951 0
M  V30 1040 C 97.9875 0.559288 1.60642 0
M  V30 1041 O 99.1725 0.797243 1.77081 0
M  V30 1042 C 96.3025 1.79462 2.97339 0
M  V30 1043 C 95.2565 2.94558 3.10515 0
M  V30 1044 C 94.5825 2.88105 4.50444 0
M  V30 1045 C 95.8825 4.35227 2.88747 0
M  V30 1046 H 97.5765 2.6378 1.41635 0
M  V30 1047 H 95.1225 1.26936 0.679942 0
M  V30 1048 H 97.0755 1.92734 3.74742 0
M  V30 1049 H 95.7995 0.833412 3.15788 0
M  V30 1050 H 94.4585 2.80918 2.35543 0
M  V30 1051 H 94.1065 1.89853 4.65795 0
M  V30 1052 H 93.8065 3.65366 4.60197 0
M  V30 1053 H 95.3305 3.03412 5.29881 0
M  V30 1054 H 96.7445 4.49449 3.55905 0
M  V30 1055 H 95.1415 5.13856 3.09955 0
M  V30 1056 H 96.2115 4.48347 1.84696 0
M  V30 1057 N 97.5546 -0.734337 1.39446 0
M  V30 1058 C 98.4866 -1.85861 1.34121 0
M  V30 1059 C 99.4996 -1.60871 0.249864 0
M  V30 1060 O 100.689 -1.71093 0.508865 0
M  V30 1061 C 97.7886 -3.21899 1.05991 0
M  V30 1062 C 96.9616 -3.74239 2.26415 0
M  V30 1063 C 96.0206 -4.88841 1.94733 0
M  V30 1064 O 95.0466 -5.02468 2.67422 0
M  V30 1065 N 96.2486 -5.73261 0.913884 0
M  V30 1066 H 99.0136 -1.90934 2.31007 0
M  V30 1067 H 96.5746 -0.915102 1.33557 0
M  V30 1068 H 98.5666 -3.96136 0.828147 0
M  V30 1069 H 97.1366 -3.12091 0.178361 0
M  V30 1070 H 96.3566 -2.91347 2.65539 0
M  V30 1071 H 97.6446 -4.05942 3.06738 0
M  V30 1072 H 97.0426 -5.64842 0.311476 0
M  V30 1073 H 95.5996 -6.47563 0.742015 0
M  V30 1074 N 99.0327 -1.24633 -0.964593 0
M  V30 1075 C 99.9797 -1.04144 -2.05968 0
M  V30 1076 C 100.95 0.046262 -1.66036 0
M  V30 1077 O 102.135 -0.108972 -1.90489 0
M  V30 1078 C 99.2747 -0.65563 -3.38815 0
M  V30 1079 C 98.3877 -1.81714 -3.91923 0
M  V30 1080 C 97.5227 -1.37662 -5.13052 0
M  V30 1081 C 96.5617 -2.50788 -5.58365 0
M  V30 1082 N 95.6987 -2.07582 -6.70712 0
M  V30 1083 H 100.539 -1.9787 -2.22827 0
M  V30 1084 H 98.0757 -0.9855 -1.09208 0
M  V30 1085 H 100.034 -0.412954 -4.15151 0
M  V30 1086 H 98.6637 0.244627 -3.21872 0
M  V30 1087 H 97.7157 -2.1734 -3.12198 0
M  V30 1088 H 99.0277 -2.66705 -4.21509 0
M  V30 1089 H 98.1817 -1.093 -5.96773 0
M  V30 1090 H 96.9207 -0.497293 -4.85158 0
M  V30 1091 H 95.9257 -2.79906 -4.73215 0
M  V30 1092 H 97.1507 -3.39283 -5.88272 0
M  V30 1093 H 95.0967 -1.22051 -6.44546 0
M  V30 1094 H 95.0137 -2.86125 -6.99763 0
M  V30 1095 H 96.2817 -1.82369 -7.57867 0
M  V30 1096 N 100.511 1.16574 -1.06058 0
M  V30 1097 C 101.441 2.23057 -0.690488 0
M  V30 1098 C 102.422 1.67141 0.315901 0
M  V30 1099 O 103.607 1.93253 0.191556 0
M  V30 1100 C 100.737 3.47222 -0.073625 0
M  V30 1101 C 99.6908 4.16016 -1.00573 0
M  V30 1102 C 99.0168 5.34104 -0.252289 0
M  V30 1103 C 100.317 4.67264 -2.33371 0
M  V30 1104 H 102.011 2.54271 -1.58072 0
M  V30 1105 H 99.5568 1.22218 -0.76149 0
M  V30 1106 H 101.51 4.20939 0.19714 0
M  V30 1107 H 100.234 3.15302 0.85161 0
M  V30 1108 H 98.8928 3.44223 -1.2612 0
M  V30 1109 H 98.5408 4.98437 0.675988 0
M  V30 1110 H 98.2408 5.81072 -0.873455 0
M  V30 1111 H 99.7648 6.10599 0.0109857 0
M  V30 1112 H 101.179 5.32573 -2.12223 0
M  V30 1113 H 99.5758 5.24843 -2.90963 0
M  V30 1114 H 100.646 3.83602 -2.96611 0
M  V30 1115 N 101.989 0.842826 1.3317 0
M  V30 1116 C 103.237 0.439577 1.97262 0
M  V30 1117 C 103.558 -1.00548 1.67078 0
M  V30 1118 O 102.828 -1.70098 0.971779 0
M  V30 1119 H 101.408 0.159558 0.72976 0
M  V30 1120 H 104.07 1.07665 1.62463 0
M  V30 1121 H 103.166 0.574886 3.0676 0
M  V30 1122 N 103.467 -1.45747 0.599634 0
M  V30 1123 C 104.43 -2.28917 -0.113835 0
M  V30 1124 C 105.43 -1.3933 -0.802729 0
M  V30 1125 O 106.62 -1.61534 -0.652103 0
M  V30 1126 C 103.752 -3.20152 -1.17114 0
M  V30 1127 H 104.945 -2.93478 0.617289 0
M  V30 1128 H 102.498 -1.52137 0.358327 0
M  V30 1129 H 103.233 -2.60374 -1.93329 0
M  V30 1130 H 103.018 -3.86133 -0.681468 0
M  V30 1131 H 104.508 -3.82708 -1.67105 0
M  V30 1132 N 104.945 -0.338344 -1.53925 0
M  V30 1133 C 105.877 0.555117 -2.22376 0
M  V30 1134 C 106.89 1.06812 -1.22862 0
M  V30 1135 O 108.079 0.979163 -1.49247 0
M  V30 1136 C 105.179 1.77609 -2.88631 0
M  V30 1137 C 104.352 1.39927 -4.14414 0
M  V30 1138 C 103.411 2.47936 -4.64127 0
M  V30 1139 O 102.437 2.11461 -5.28463 0
M  V30 1140 N 103.639 3.79107 -4.39612 0
M  V30 1141 H 106.404 -0.0310778 -2.99684 0
M  V30 1142 H 103.965 -0.162226 -1.61085 0
M  V30 1143 H 105.957 2.49287 -3.18807 0
M  V30 1144 H 104.527 2.26978 -2.14941 0
M  V30 1145 H 103.747 0.513481 -3.90841 0
M  V30 1146 H 105.035 1.12341 -4.96243 0
M  V30 1147 H 104.433 4.11531 -3.88148 0
M  V30 1148 H 102.99 4.4697 -4.74406 0
M  V30 1149 N 106.423 1.57458 -0.0668435 0
M  V30 1150 C 107.672 1.92477 0.602947 0
M  V30 1151 C 107.985 0.948419 1.71068 0
M  V30 1152 O 109.191 1.19124 2.43971 0
M  V30 1153 C 107.647 3.41903 1.12383 0
M  V30 1154 C 107.255 4.47975 0.04737 0
M  V30 1155 C 108.999 3.85931 1.76797 0
M  V30 1156 C 106.906 5.88529 0.582022 0
M  V30 1157 H 105.836 0.718387 0.22899 0
M  V30 1158 H 108.487 1.82978 -0.138276 0
M  V30 1159 H 106.869 3.46459 1.91787 0
M  V30 1160 H 108.043 4.55029 -0.726978 0
M  V30 1161 H 106.358 4.13384 -0.500243 0
M  V30 1162 H 108.955 4.88322 2.17821 0
M  V30 1163 H 109.298 3.23029 2.62599 0
M  V30 1164 H 109.831 3.83958 1.04024 0
M  V30 1165 H 106.57 6.55065 -0.238721 0
M  V30 1166 H 106.09 5.85004 1.324 0
M  V30 1167 H 107.769 6.38258 1.05999 0
M  V30 1168 N 107.901 -0.206675 1.56239 0
M  V30 1169 C 109.317 -0.557025 1.49564 0
M  V30 1170 C 109.517 -1.86424 0.764735 0
M  V30 1171 O 108.573 -2.50584 0.310491 0
M  V30 1172 C 109.886 -0.622478 2.94186 0
M  V30 1173 C 111.434 -0.712099 3.04792 0
M  V30 1174 C 111.909 -0.808767 4.50803 0
M  V30 1175 N 113.4 -0.8726 4.54907 0
M  V30 1176 C 114.135 -0.967365 5.65181 0
M  V30 1177 N 113.631 -1.02515 6.85173 0
M  V30 1178 N 115.424 -1.00366 5.53067 0
M  V30 1179 H 107.575 0.650943 2.02179 0
M  V30 1180 H 109.838 0.230387 0.919579 0
M  V30 1181 H 109.544 0.268727 3.50672 0
M  V30 1182 H 109.418 -1.4811 3.46905 0
M  V30 1183 H 111.805 -1.59374 2.48363 0
M  V30 1184 H 111.886 0.172489 2.55218 0
M  V30 1185 H 111.53 0.0684754 5.07854 0
M  V30 1186 H 111.46 -1.70899 4.98098 0
M  V30 1187 H 113.951 -0.837657 3.68499 0
M  V30 1188 H 114.264 -1.09765 7.64965 0
M  V30 1189 H 112.609 -0.994026 6.87855 0
M  V30 1190 H 115.8 -0.95527 4.58249 0
M  V30 1191 H 115.973 -1.07405 6.39037 0
M  V30 1192 N 109.379 -1.50304 -0.473955 0
M  V30 1193 C 110.625 -1.62358 -1.22521 0
M  V30 1194 C 110.98 -0.318555 -1.89745 0
M  V30 1195 O 110.273 0.683315 -1.79001 0
M  V30 1196 C 110.467 -2.73938 -2.29549 0
M  V30 1197 C 110.296 -4.15165 -1.72825 0
M  V30 1198 C 109.066 -4.81604 -1.52924 0
M  V30 1199 C 111.264 -4.99503 -1.22481 0
M  V30 1200 N 109.246 -6.07056 -0.91413 0
M  V30 1201 C 110.617 -6.15655 -0.732743 0
M  V30 1202 C 112.672 -4.85299 -1.11308 0
M  V30 1203 C 111.375 -7.19164 -0.139976 0
M  V30 1204 C 113.401 -5.88982 -0.534258 0
M  V30 1205 C 112.763 -7.0438 -0.0525562 0
M  V30 1206 H 108.862 -0.648286 -0.437321 0
M  V30 1207 H 111.446 -1.87413 -0.527692 0
M  V30 1208 H 109.617 -2.50611 -2.9673 0
M  V30 1209 H 111.349 -2.75366 -2.96573 0
M  V30 1210 H 108.104 -4.3885 -1.78067 0
M  V30 1211 H 108.528 -6.74108 -0.625071 0
M  V30 1212 H 113.17 -3.96369 -1.47144 0
M  V30 1213 H 110.888 -8.07771 0.230591 0
M  V30 1214 H 114.474 -5.80055 -0.450219 0
M  V30 1215 H 113.354 -7.83238 0.388324 0
M  V30 1216 N 110.857 0.726932 -1.39834 0
M  V30 1217 C 112.097 1.4992 -1.38936 0
M  V30 1218 C 112.461 1.91996 0.0126883 0
M  V30 1219 O 113.662 2.68399 0.146715 0
M  V30 1220 C 111.933 2.70013 -2.34153 0
M  V30 1221 S 113.492 3.59563 -2.51515 0
M  V30 1222 H 110.31 0.51271 -0.492595 0
M  V30 1223 H 112.912 0.85107 -1.76003 0
M  V30 1224 H 111.616 2.37254 -3.34871 0
M  V30 1225 H 111.147 3.39748 -1.98331 0
M  V30 1226 H 113.162 4.63973 -1.75909 0
M  V30 1227 N 112.336 1.25143 0.95797 0
M  V30 1228 C 113.561 1.12521 1.74223 0
M  V30 1229 C 113.986 -0.317402 1.85403 0
M  V30 1230 O 113.344 -1.2299 1.33204 0
M  V30 1231 C 113.392 1.78062 3.1357 0
M  V30 1232 O 112.496 1.058 3.98598 0
M  V30 1233 H 111.837 0.39304 0.535178 0
M  V30 1234 H 114.367 1.65641 1.201 0
M  V30 1235 H 114.377 1.84213 3.64046 0
M  V30 1236 H 113.052 2.83021 3.04749 0
M  V30 1237 H 111.629 1.07506 3.57067 0
M  V30 1238 N 113.814 -1.1601 1.06675 0
M  V30 1239 C 115.054 -1.88304 0.795037 0
M  V30 1240 C 115.418 -1.80062 -0.666466 0
M  V30 1241 O 116.619 -2.47319 -1.05293 0
M  V30 1242 C 114.89 -3.33664 1.28076 0
M  V30 1243 S 116.449 -4.23768 1.13868 0
M  V30 1244 H 113.267 -0.649928 0.288296 0
M  V30 1245 H 115.869 -1.4001 1.36445 0
M  V30 1246 H 114.573 -3.37203 2.33927 0
M  V30 1247 H 114.104 -3.87009 0.706253 0
M  V30 1248 H 116.119 -4.96148 0.0719668 0
M  V30 1249 N 115.292 -0.849877 -1.32721 0
M  V30 1250 C 116.24 -0.279745 -2.30912 0
M  V30 1251 C 117.234 0.594278 -1.58634 0
M  V30 1252 O 118.44 0.482613 -1.73409 0
M  V30 1253 H 114.815 -0.0717521 -0.748569 0
M  V30 1254 H 116.786 -1.12222 -2.76494 0
M  V30 1255 C 115.535 0.521108 -3.43773 0
M  V30 1256 H 114.858 -0.142141 -3.99547 0
M  V30 1257 H 116.298 0.885693 -4.14646 0
M  V30 1258 C 114.757 1.70442 -2.90605 0
M  V30 1259 O 115.287 2.8034 -2.87702 0
M  V30 1260 N 113.493 1.52991 -2.47067 0
M  V30 1261 H 113.04 0.635914 -2.49628 0
M  V30 1262 H 112.998 2.32311 -2.11847 0
M  V30 1263 N 116.77 1.45427 -0.607355 0
M  V30 1264 C 118.019 2.01452 -0.100036 0
M  V30 1265 C 118.332 1.48159 1.27704 0
M  V30 1266 O 119.538 1.96159 1.87707 0
M  V30 1267 C 117.994 3.59672 -0.128158 0
M  V30 1268 C 117.602 4.21962 -1.50507 0
M  V30 1269 C 119.346 4.23262 0.323932 0
M  V30 1270 C 117.253 5.72333 -1.48959 0
M  V30 1271 H 116.183 0.75325 -0.0336299 0
M  V30 1272 H 118.834 1.66901 -0.76265 0
M  V30 1273 H 117.216 3.91411 0.601105 0
M  V30 1274 H 118.39 4.01796 -2.25602 0
M  V30 1275 H 116.705 3.70565 -1.89923 0
M  V30 1276 H 119.302 5.33522 0.354691 0
M  V30 1277 H 119.645 3.93921 1.34656 0
M  V30 1278 H 120.178 3.96239 -0.352056 0
M  V30 1279 H 116.917 6.06373 -2.48981 0
M  V30 1280 H 116.437 5.94691 -0.781214 0
M  V30 1281 H 118.116 6.35525 -1.21313 0
M  V30 1282 N 118.248 0.346503 1.53744 0
M  V30 1283 C 119.478 -0.250047 2.05081 0
M  V30 1284 C 119.886 -1.44529 1.22098 0
M  V30 1285 O 119.229 -1.81992 0.249917 0
M  V30 1286 C 119.291 -0.725934 3.52094 0
M  V30 1287 C 118.955 0.350053 4.55657 0
M  V30 1288 C 119.952 1.19372 5.0601 0
M  V30 1289 C 117.637 0.504827 4.99757 0
M  V30 1290 C 119.631 2.17768 5.99046 0
M  V30 1291 C 117.318 1.49218 5.92602 0
M  V30 1292 C 118.316 2.32706 6.42135 0
M  V30 1293 O 118.004 3.2976 7.33153 0
M  V30 1294 H 117.736 -0.0515469 0.674032 0
M  V30 1295 H 120.29 0.497559 1.99282 0
M  V30 1296 H 118.52 -1.52483 3.55367 0
M  V30 1297 H 120.209 -1.24336 3.86388 0
M  V30 1298 H 120.975 1.08525 4.72702 0
M  V30 1299 H 116.854 -0.135178 4.60802 0
M  V30 1300 H 120.398 2.82971 6.37631 0
M  V30 1301 H 116.295 1.6012 6.25325 0
M  V30 1302 H 117.063 3.25265 7.51096 0
M  V30 1303 N 119.726 -1.57421 0.075193 0
M  V30 1304 C 120.951 -1.98364 -0.605515 0
M  V30 1305 C 121.376 -0.953383 -1.62149 0
M  V30 1306 O 120.734 0.0806053 -1.81121 0
M  V30 1307 C 120.782 -3.38332 -1.24756 0
M  V30 1308 O 119.886 -3.37959 -2.36342 0
M  V30 1309 H 119.227 -0.645553 -0.155428 0
M  V30 1310 H 121.757 -2.04044 0.150714 0
M  V30 1311 H 121.767 -3.75591 -1.5936 0
M  V30 1312 H 120.442 -4.12846 -0.503129 0
M  V30 1313 H 119.019 -3.12474 -2.03506 0
M  V30 1314 N 121.204 0.198386 -1.56346 0
M  V30 1315 C 122.432 0.935572 -1.84539 0
M  V30 1316 C 122.847 1.76989 -0.657281 0
M  V30 1317 O 122.204 1.78626 0.374043 0
M  V30 1318 C 122.255 1.8344 -3.11499 0
M  V30 1319 O 121.976 1.03377 -4.25728 0
M  V30 1320 C 123.477 2.68355 -3.52846 0
M  V30 1321 H 120.697 0.273126 -0.612897 0
M  V30 1322 H 123.241 0.20663 -2.03453 0
M  V30 1323 H 121.396 2.51701 -2.94492 0
M  V30 1324 H 121.81 1.64599 -4.98003 0
M  V30 1325 H 123.284 3.27085 -4.44657 0
M  V30 1326 H 123.761 3.41901 -2.75681 0
M  V30 1327 H 124.367 2.05471 -3.72373 0
M  V30 1328 N 122.682 1.50554 0.465978 0
M  V30 1329 C 123.645 1.69233 1.54574 0
M  V30 1330 C 124.645 0.562901 1.50626 0
M  V30 1331 O 125.835 0.830016 1.53155 0
M  V30 1332 C 122.967 1.7223 2.94193 0
M  V30 1333 H 124.16 2.65571 1.39327 0
M  V30 1334 H 121.713 1.40111 0.692711 0
M  V30 1335 H 122.448 0.77603 3.14878 0
M  V30 1336 H 122.233 2.54285 2.98466 0
M  V30 1337 H 123.723 1.88618 3.72576 0
M  V30 1338 N 124.16 -0.719506 1.40217 0
M  V30 1339 C 125.437 -1.47221 1.28784 0
M  V30 1340 C 125.817 -2.10883 -0.0956067 0
M  V30 1341 O 125.165 -1.99833 -1.10811 0
M  V30 1342 C 125.375 -2.5111 2.42373 0
M  V30 1343 C 126.723 -3.17053 2.82423 0
M  V30 1344 O 127.747 -2.61429 2.41937 0
M  V30 1345 O 126.606 -4.17742 3.52355 0
M  V30 1346 H 123.7 -0.654491 0.50554 0
M  V30 1347 H 126.246 -0.752014 1.52128 0
M  V30 1348 H 125.018 -2.02556 3.34793 0
M  V30 1349 H 124.641 -3.3067 2.20778 0
M  V30 1350 N 125.638 -1.25649 -0.95132 0
M  V30 1351 C 126.868 -1.13179 -1.72841 0
M  V30 1352 C 127.276 0.316827 -1.86528 0
M  V30 1353 O 126.619 1.22948 -1.3649 0
M  V30 1354 C 126.681 -1.71644 -3.15878 0
M  V30 1355 C 126.345 -3.20667 -3.25609 0
M  V30 1356 C 127.342 -4.17616 -3.09666 0
M  V30 1357 C 125.027 -3.6094 -3.49324 0
M  V30 1358 C 127.021 -5.52817 -3.17289 0
M  V30 1359 C 124.708 -4.96278 -3.56584 0
M  V30 1360 C 125.706 -5.92025 -3.40581 0
M  V30 1361 O 125.394 -7.24899 -3.47528 0
M  V30 1362 H 125.126 -0.395389 -0.54831 0
M  V30 1363 H 127.68 -1.66566 -1.20187 0
M  V30 1364 H 125.91 -1.12707 -3.69911 0
M  V30 1365 H 127.599 -1.54225 -3.75459 0
M  V30 1366 H 128.365 -3.87842 -2.91211 0
M  V30 1367 H 124.244 -2.86907 -3.6084 0
M  V30 1368 H 127.788 -6.2753 -3.04716 0
M  V30 1369 H 123.685 -5.25716 -3.74556 0
M  V30 1370 H 124.453 -7.33039 -3.64138 0
M  V30 1371 N 127.117 1.15442 -1.07289 0
M  V30 1372 C 128.08 2.18358 -0.696591 0
M  V30 1373 C 129.08 1.58637 0.262837 0
M  V30 1374 O 130.27 1.74145 0.0438809 0
M  V30 1375 C 127.402 3.4089 -0.0266151 0
M  V30 1376 H 128.595 2.53162 -1.60776 0
M  V30 1377 H 126.148 1.29893 -0.869342 0
M  V30 1378 H 126.883 3.11653 0.896822 0
M  V30 1379 H 126.668 3.85495 -0.716657 0
M  V30 1380 H 128.158 4.17009 0.222028 0
M  V30 1381 N 128.595 0.856903 1.32268 0
M  V30 1382 C 129.558 0.308171 2.27119 0
M  V30 1383 C 130.558 -0.533421 1.51695 0
M  V30 1384 O 131.748 -0.344607 1.70757 0
M  V30 1385 C 128.88 -0.563757 3.36206 0
M  V30 1386 H 130.073 1.14535 2.77167 0
M  V30 1387 H 127.626 0.631421 1.42978 0
M  V30 1388 H 128.361 -1.42266 2.91429 0
M  V30 1389 H 128.146 0.0386749 3.92081 0
M  V30 1390 H 129.636 -0.940386 4.06874 0
M  V30 1391 N 130.073 -1.45103 0.615059 0
M  V30 1392 C 131.036 -2.29025 -0.0895485 0
M  V30 1393 C 132.036 -1.40174 -0.787906 0
M  V30 1394 O 133.226 -1.62217 -0.634933 0
M  V30 1395 C 130.358 -3.21376 -1.13711 0
M  V30 1396 H 131.551 -2.92807 0.648382 0
M  V30 1397 H 129.104 -1.51749 0.374444 0
M  V30 1398 H 129.839 -2.6241 -1.90556 0
M  V30 1399 H 129.624 -3.86834 -0.640475 0
M  V30 1400 H 131.114 -3.84459 -1.63036 0
M  V30 1401 N 131.551 -0.354651 -1.53558 0
M  V30 1402 C 132.514 0.484566 -2.24019 0
M  V30 1403 C 133.514 1.01861 -1.24422 0
M  V30 1404 O 134.704 0.906097 -1.4878 0
M  V30 1405 C 131.836 1.67615 -2.96847 0
M  V30 1406 H 133.029 -0.131843 -2.9961 0
M  V30 1407 H 130.582 -0.106165 -1.55939 0
M  V30 1408 H 131.317 2.33095 -2.25471 0
M  V30 1409 H 131.102 1.30029 -3.69912 0
M  V30 1410 H 132.592 2.27114 -3.50441 0
M  V30 1411 N 133.029 1.57378 -0.0835403 0
M  V30 1412 C 134.275 1.94217 0.583733 0
M  V30 1413 C 134.608 0.964653 1.68547 0
M  V30 1414 O 133.883 -0.00422258 1.945 0
M  V30 1415 C 134.166 3.41253 1.14972 0
M  V30 1416 C 134.019 4.49768 0.0538277 0
M  V30 1417 C 135.338 3.89352 2.05166 0
M  V30 1418 H 132.457 0.706233 0.210724 0
M  V30 1419 H 135.099 1.89392 -0.1519 0
M  V30 1420 H 133.249 3.45496 1.77665 0
M  V30 1421 H 134.921 4.57641 -0.579851 0
M  V30 1422 H 133.164 4.29432 -0.614068 0
M  V30 1423 H 133.835 5.49817 0.490452 0
M  V30 1424 H 136.311 3.87189 1.52393 0
M  V30 1425 H 135.187 4.92822 2.41698 0
M  V30 1426 H 135.448 3.27973 2.96456 0
M  V30 1427 N 134.507 -0.190092 1.56449 0
M  V30 1428 C 135.732 -0.929864 1.85387 0
M  V30 1429 C 136.157 -1.7585 0.667704 0
M  V30 1430 O 135.515 -1.77198 -0.383459 0
M  V30 1431 C 135.563 -1.79773 3.12593 0
M  V30 1432 O 134.667 -2.89713 2.93496 0
M  V30 1433 H 134.008 -0.261574 0.610307 0
M  V30 1434 H 136.538 -0.193896 2.03679 0
M  V30 1435 H 136.548 -2.20139 3.43515 0
M  V30 1436 H 135.223 -1.18892 3.98544 0
M  V30 1437 H 133.8 -2.53065 2.73884 0
M  V30 1438 N 135.985 -1.50799 -0.457987 0
M  V30 1439 C 137.213 -1.66218 -1.23203 0
M  V30 1440 C 137.628 -0.350894 -1.85511 0
M  V30 1441 O 136.985 0.668546 -1.69814 0
M  V30 1442 C 137.036 -2.76291 -2.33121 0
M  V30 1443 O 136.757 -4.02338 -1.73366 0
M  V30 1444 C 138.258 -3.028 -3.2377 0
M  V30 1445 H 135.478 -0.558361 -0.372121 0
M  V30 1446 H 138.022 -1.97099 -0.545179 0
M  V30 1447 H 136.177 -2.48068 -2.97558 0
M  V30 1448 H 136.591 -4.63312 -2.4585 0
M  V30 1449 H 138.065 -3.8345 -3.97077 0
M  V30 1450 H 138.542 -2.14385 -3.83322 0
M  V30 1451 H 139.148 -3.32604 -2.65056 0
M  V30 1452 N 137.463 0.71206 -1.40597 0
M  V30 1453 C 138.393 1.83889 -1.43899 0
M  V30 1454 C 139.374 1.67442 -0.299504 0
M  V30 1455 O 140.559 1.87421 -0.508624 0
M  V30 1456 C 137.689 3.21877 -1.30431 0
M  V30 1457 C 136.643 3.53002 -2.42019 0
M  V30 1458 C 135.969 4.90172 -2.13626 0
M  V30 1459 C 137.269 3.53643 -3.84362 0
M  V30 1460 H 138.963 1.81383 -2.38203 0
M  V30 1461 H 136.509 0.871237 -1.14654 0
M  V30 1462 H 138.462 4.00404 -1.31357 0
M  V30 1463 H 137.186 3.24968 -0.326049 0
M  V30 1464 H 135.845 2.76818 -2.40349 0
M  V30 1465 H 135.493 4.89869 -1.14182 0
M  V30 1466 H 135.193 5.11962 -2.88389 0
M  V30 1467 H 136.717 5.71028 -2.1624 0
M  V30 1468 H 138.131 4.22203 -3.87837 0
M  V30 1469 H 136.528 3.86961 -4.58673 0
M  V30 1470 H 137.598 2.52954 -4.13693 0
M  V30 1471 N 138.941 1.26152 0.944643 0
M  V30 1472 C 139.851 1.09176 2.07648 0
M  V30 1473 C 140.867 0.0261935 1.7398 0
M  V30 1474 O 142.043 0.229208 2.00091 0
M  V30 1475 C 139.108 0.722915 3.39079 0
M  V30 1476 C 138.169 1.86752 3.86552 0
M  V30 1477 C 137.402 1.51617 5.11711 0
M  V30 1478 O 137.625 0.416331 5.68879 0
M  V30 1479 O 136.559 2.34975 5.54139 0
M  V30 1480 H 140.385 2.0412 2.24875 0
M  V30 1481 H 137.97 1.05182 1.061 0
M  V30 1482 H 139.852 0.529787 4.18056 0
M  V30 1483 H 138.527 -0.197159 3.23099 0
M  V30 1484 H 137.434 2.11558 3.08535 0
M  V30 1485 H 138.767 2.76719 4.07047 0
M  V30 1486 N 140.419 -1.14872 1.07899 0
M  V30 1487 C 141.367 -2.21857 0.698727 0
M  V30 1488 C 142.361 -1.66845 -0.293086 0
M  V30 1489 O 143.567 -1.79321 -0.156204 0
M  V30 1490 H 139.942 -0.722691 0.207899 0
M  V30 1491 H 141.913 -2.51205 1.61054 0
M  V30 1492 C 140.662 -3.47498 0.11858 0
M  V30 1493 H 139.985 -3.90154 0.872914 0
M  V30 1494 H 141.425 -4.23858 -0.109759 0
M  V30 1495 C 139.884 -3.16947 -1.1422 0
M  V30 1496 O 140.414 -3.3426 -2.22785 0
M  V30 1497 N 138.62 -2.70946 -1.05055 0
M  V30 1498 H 138.167 -2.57058 -0.167038 0
M  V30 1499 H 138.125 -2.50879 -1.89491 0
M  V30 1500 N 141.898 -0.863906 -1.31812 0
M  V30 1501 C 143.144 -0.472535 -1.97218 0
M  V30 1502 C 143.477 0.971394 -1.68159 0
M  V30 1503 O 142.752 1.68309 -0.974798 0
M  V30 1504 C 143.035 -0.723054 -3.52766 0
M  V30 1505 C 142.888 -2.21608 -3.91421 0
M  V30 1506 C 144.207 -0.185522 -4.39709 0
M  V30 1507 H 141.326 -0.173158 -0.71637 0
M  V30 1508 H 143.968 -1.08403 -1.56041 0
M  V30 1509 H 142.118 -0.202577 -3.87971 0
M  V30 1510 H 143.79 -2.80334 -3.66347 0
M  V30 1511 H 142.033 -2.691 -3.40246 0
M  V30 1512 H 142.704 -2.34203 -4.99853 0
M  V30 1513 H 145.18 -0.630726 -4.11292 0
M  V30 1514 H 144.056 -0.390306 -5.47511 0
M  V30 1515 H 144.317 0.912229 -4.32586 0
M  V30 1516 N 143.376 1.44774 -0.622745 0
M  V30 1517 C 144.604 2.06487 -0.130722 0
M  V30 1518 C 145.019 1.46476 1.19123 0
M  V30 1519 O 144.376 0.584502 1.72887 0
M  V30 1520 C 144.427 3.615 -0.000807207 0
M  V30 1521 O 144.148 4.19274 -1.27048 0
M  V30 1522 C 145.649 4.40229 0.520898 0
M  V30 1523 H 142.869 0.666704 -0.0758106 0
M  V30 1524 H 145.413 1.85779 -0.854774 0
M  V30 1525 H 143.568 3.81498 0.673643 0
M  V30 1526 H 143.982 5.12622 -1.1099 0
M  V30 1527 H 145.456 5.49144 0.560838 0
M  V30 1528 H 145.933 4.1108 1.54627 0
M  V30 1529 H 146.539 4.25131 -0.120018 0
M  V30 1530 N 144.854 0.36279 1.53368 0
M  V30 1531 C 146.1 -0.228113 2.01513 0
M  V30 1532 C 146.433 -1.48648 1.2497 0
M  V30 1533 O 145.708 -1.91459 0.342616 0
M  V30 1534 C 145.991 -0.522884 3.56284 0
M  V30 1535 C 145.844 0.74892 4.43521 0
M  V30 1536 C 147.163 -1.32461 4.19693 0
M  V30 1537 H 144.282 -0.0814343 0.732487 0
M  V30 1538 H 146.924 0.48713 1.83649 0
M  V30 1539 H 145.074 -1.1322 3.71636 0
M  V30 1540 H 146.746 1.38648 4.39971 0
M  V30 1541 H 144.989 1.36986 4.11603 0
M  V30 1542 H 145.66 0.497667 5.49752 0
M  V30 1543 H 148.136 -0.809203 4.08156 0
M  V30 1544 H 147.012 -1.49961 5.28018 0
M  V30 1545 H 147.273 -2.33232 3.75573 0
M  V30 1546 N 146.332 -1.57332 0.0918853 0
M  V30 1547 C 147.579 -1.94236 -0.572577 0
M  V30 1548 C 147.907 -0.973398 -1.6839 0
M  V30 1549 O 147.162 0.00756912 -1.95699 0
M  V30 1550 C 147.461 -3.37689 -1.17051 0
M  V30 1551 C 147.127 -4.50527 -0.183304 0
M  V30 1552 C 145.789 -4.81119 0.0882276 0
M  V30 1553 C 148.141 -5.18883 0.49095 0
M  V30 1554 C 145.469 -5.77395 1.04076 0
M  V30 1555 C 147.821 -6.1618 1.43193 0
M  V30 1556 C 146.485 -6.45179 1.71173 0
M  V30 1557 H 145.755 -0.710762 -0.209521 0
M  V30 1558 H 148.402 -1.9077 0.167036 0
M  V30 1559 H 146.707 -3.37718 -1.9863 0
M  V30 1560 H 148.404 -3.63543 -1.69227 0
M  V30 1561 H 144.994 -4.26681 -0.405124 0
M  V30 1562 H 149.178 -4.95427 0.294312 0
M  V30 1563 H 144.434 -5.98179 1.26457 0
M  V30 1564 H 148.608 -6.68243 1.96023 0
M  V30 1565 H 146.235 -7.1959 2.4514 0
M  V30 1566 N 147.81 0.181792 -1.56548 0
M  V30 1567 C 148.773 1.20894 -1.94724 0
M  V30 1568 C 149.773 1.37738 -0.829747 0
M  V30 1569 O 150.963 1.35323 -1.09697 0
M  V30 1570 C 148.095 2.57593 -2.23291 0
M  V30 1571 H 149.288 0.882275 -2.86629 0
M  V30 1572 H 146.841 0.423838 -1.50444 0
M  V30 1573 H 147.576 2.95291 -1.34067 0
M  V30 1574 H 147.361 2.46735 -3.04736 0
M  V30 1575 H 148.851 3.31637 -2.53785 0
M  V30 1576 N 149.288 1.51039 0.449983 0
M  V30 1577 C 150.534 1.64287 1.19923 0
M  V30 1578 C 150.889 0.348701 1.89214 0
M  V30 1579 O 150.182 -0.654751 1.80065 0
M  V30 1580 C 150.376 2.77556 2.25161 0
M  V30 1581 C 150.205 4.17862 1.66198 0
M  V30 1582 C 148.975 4.83976 1.45243 0
M  V30 1583 C 151.173 5.01388 1.14519 0
M  V30 1584 N 149.155 6.08433 0.817437 0
M  V30 1585 C 150.526 6.16743 0.634705 0
M  V30 1586 C 152.581 4.87008 1.03574 0
M  V30 1587 C 151.284 7.19295 0.0255452 0
M  V30 1588 C 153.31 5.89757 0.440489 0
M  V30 1589 C 152.672 7.04375 -0.0595112 0
M  V30 1590 H 148.771 0.655161 0.426952 0
M  V30 1591 H 151.355 1.88228 0.49781 0
M  V30 1592 H 149.526 2.553 2.92706 0
M  V30 1593 H 151.258 2.80049 2.92155 0
M  V30 1594 H 148.013 4.41627 1.71063 0
M  V30 1595 H 148.437 6.75017 0.517747 0
M  V30 1596 H 153.079 3.9866 1.4082 0
M  V30 1597 H 150.797 8.07302 -0.359071 0
M  V30 1598 H 154.383 5.80698 0.35788 0
M  V30 1599 H 153.263 7.82521 -0.512882 0
M  V30 1600 N 150.766 -0.704594 1.40972 0
M  V30 1601 C 151.713 -1.81862 1.42109 0
M  V30 1602 C 152.683 -1.63781 0.276593 0
M  V30 1603 O 153.868 -1.84759 0.4763 0
M  V30 1604 C 151.008 -3.19669 1.30022 0
M  V30 1605 C 150.121 -3.49246 2.54267 0
M  V30 1606 C 149.256 -4.76618 2.3454 0
M  V30 1607 C 148.295 -4.99133 3.54306 0
M  V30 1608 N 147.432 -6.17726 3.33706 0
M  V30 1609 H 152.272 -1.80226 2.37324 0
M  V30 1610 H 149.809 -0.880238 1.17857 0
M  V30 1611 H 151.767 -3.99263 1.21018 0
M  V30 1612 H 150.397 -3.20506 0.384192 0
M  V30 1613 H 149.449 -2.64125 2.73756 0
M  V30 1614 H 150.761 -3.61788 3.43381 0
M  V30 1615 H 149.915 -5.64249 2.22952 0
M  V30 1616 H 148.654 -4.66305 1.42867 0
M  V30 1617 H 147.659 -4.09953 3.66359 0
M  V30 1618 H 148.884 -5.11311 4.4692 0
M  V30 1619 H 146.83 -6.08642 2.44725 0
M  V30 1620 H 146.747 -6.30995 4.16391 0
M  V30 1621 H 148.015 -7.08115 3.25873 0
M  V30 1622 N 152.244 -1.26651 -0.937939 0
M  V30 1623 C 153.192 -1.08308 -2.05845 0
M  V30 1624 C 154.186 -0.0090757 -1.69398 0
M  V30 1625 O 155.392 -0.166007 -1.79233 0
M  V30 1626 H 151.767 -0.333416 -0.674046 0
M  V30 1627 H 153.738 -2.03261 -2.18467 0
M  V30 1628 C 152.487 -0.736229 -3.39816 0
M  V30 1629 H 151.81 -1.55453 -3.6834 0
M  V30 1630 H 153.25 -0.64769 -4.19024 0
M  V30 1631 C 151.709 0.558824 -3.32233 0
M  V30 1632 O 152.239 1.59621 -3.68624 0
M  V30 1633 N 150.445 0.550657 -2.85335 0
M  V30 1634 H 149.992 -0.293943 -2.55917 0
M  V30 1635 H 149.95 1.41726 -2.80644 0
M  V30 1636 N 153.722 1.14298 -1.08507 0
M  V30 1637 C 154.632 2.23027 -0.727753 0
M  V30 1638 C 155.648 1.71952 0.26619 0
M  V30 1639 O 156.824 2.011 0.109882 0
M  V30 1640 C 153.889 3.46403 -0.143541 0
M  V30 1641 C 152.95 4.12413 -1.19223 0
M  V30 1642 C 152.183 5.29899 -0.635798 0
M  V30 1643 O 152.406 5.67796 0.544393 0
M  V30 1644 O 151.34 5.85717 -1.38634 0
M  V30 1645 H 155.166 2.55945 -1.63481 0
M  V30 1646 H 152.751 1.22248 -0.858817 0
M  V30 1647 H 154.633 4.21018 0.179404 0
M  V30 1648 H 153.308 3.15206 0.736659 0
M  V30 1649 H 152.215 3.39667 -1.56772 0
M  V30 1650 H 153.548 4.47718 -2.04474 0
M  V30 1651 N 155.201 0.870884 1.31352 0
M  V30 1652 C 156.429 0.49677 2.00848 0
M  V30 1653 C 156.844 -0.910998 1.65367 0
M  V30 1654 O 156.201 -1.59696 0.883374 0
M  V30 1655 C 156.252 0.645308 3.55694 0
M  V30 1656 O 155.973 1.99764 3.89905 0
M  V30 1657 C 157.474 0.272326 4.42463 0
M  V30 1658 H 154.694 0.193462 0.642506 0
M  V30 1659 H 157.238 1.1723 1.67563 0
M  V30 1660 H 155.393 0.0173176 3.87396 0
M  V30 1661 H 155.807 2.00607 4.84621 0
M  V30 1662 H 157.281 0.427208 5.50344 0
M  V30 1663 H 157.758 -0.788587 4.32062 0
M  V30 1664 H 158.364 0.876054 4.1618 0
M  V30 1665 N 156.679 -1.44442 0.630414 0
M  V30 1666 C 157.609 -2.33418 -0.0618083 0
M  V30 1667 C 158.59 -1.48165 -0.835541 0
M  V30 1668 O 159.775 -1.76886 -0.801564 0
M  V30 1669 C 156.905 -3.31222 -1.04449 0
M  V30 1670 C 155.859 -4.26288 -0.382436 0
M  V30 1671 C 155.185 -5.13954 -1.47497 0
M  V30 1672 C 156.485 -5.1744 0.710865 0
M  V30 1673 H 158.179 -2.91548 0.681184 0
M  V30 1674 H 155.725 -1.40191 0.329026 0
M  V30 1675 H 157.678 -3.92351 -1.53748 0
M  V30 1676 H 156.402 -2.71299 -1.81836 0
M  V30 1677 H 155.061 -3.6649 0.0899054 0
M  V30 1678 H 154.709 -4.50385 -2.2397 0
M  V30 1679 H 154.409 -5.7837 -1.03737 0
M  V30 1680 H 155.933 -5.77955 -1.96979 0
M  V30 1681 H 157.347 -5.72509 0.300996 0
M  V30 1682 H 155.744 -5.90455 1.07156 0
M  V30 1683 H 156.814 -4.58496 1.57829 0
M  V30 1684 N 158.157 -0.370918 -1.53173 0
M  V30 1685 C 159.067 0.480823 -2.2962 0
M  V30 1686 C 160.083 1.08789 -1.35798 0
M  V30 1687 O 161.259 1.09768 -1.68858 0
M  V30 1688 C 158.324 1.60227 -3.07454 0
M  V30 1689 C 157.385 1.0222 -4.16953 0
M  V30 1690 C 156.618 2.0902 -4.91066 0
M  V30 1691 O 156.841 3.30222 -4.65091 0
M  V30 1692 O 155.775 1.71778 -5.76867 0
M  V30 1693 H 159.601 -0.141421 -3.03371 0
M  V30 1694 H 157.186 -0.135146 -1.48787 0
M  V30 1695 H 159.068 2.25417 -3.56041 0
M  V30 1696 H 157.743 2.20982 -2.36535 0
M  V30 1697 H 156.65 0.334064 -3.72605 0
M  V30 1698 H 157.983 0.459131 -4.90054 0
M  V30 1699 N 159.635 1.57281 -0.100228 0
M  V30 1700 C 160.545 2.17833 0.870965 0
M  V30 1701 C 161.561 1.14921 1.30649 0
M  V30 1702 O 162.737 1.47313 1.37335 0
M  V30 1703 C 159.802 2.75085 2.1102 0
M  V30 1704 C 158.863 3.9297 1.72838 0
M  V30 1705 C 158.096 4.47482 2.90854 0
M  V30 1706 O 158.319 4.00922 4.05731 0
M  V30 1707 O 157.253 5.38433 2.69023 0
M  V30 1708 H 161.079 3.0124 0.38575 0
M  V30 1709 H 158.664 1.48881 0.124397 0
M  V30 1710 H 160.546 3.11656 2.83634 0
M  V30 1711 H 159.221 1.94721 2.58584 0
M  V30 1712 H 158.128 3.61201 0.973883 0
M  V30 1713 H 159.461 4.74713 1.30033 0
M  V30 1714 N 161.113 -0.173488 1.56642 0
M  V30 1715 C 162.343 -0.904781 1.85734 0
M  V30 1716 C 162.751 -1.76431 0.68328 0
M  V30 1717 O 162.094 -1.802 -0.356865 0
M  V30 1718 C 162.156 -1.83382 3.09211 0
M  V30 1719 C 161.82 -1.15411 4.42187 0
M  V30 1720 C 162.817 -0.520609 5.17287 0
M  V30 1721 C 160.502 -1.15151 4.88923 0
M  V30 1722 C 162.496 0.106412 6.37311 0
M  V30 1723 C 160.183 -0.520664 6.08878 0
M  V30 1724 C 161.181 0.107196 6.82916 0
M  V30 1725 O 160.869 0.728102 8.00596 0
M  V30 1726 H 160.601 -0.268408 0.62043 0
M  V30 1727 H 163.155 -0.179096 2.04618 0
M  V30 1728 H 161.385 -2.59976 2.86268 0
M  V30 1729 H 163.074 -2.43476 3.24768 0
M  V30 1730 H 163.84 -0.514606 4.82262 0
M  V30 1731 H 159.719 -1.62961 4.31236 0
M  V30 1732 H 163.263 0.597081 6.9504 0
M  V30 1733 H 159.16 -0.524242 6.43368 0
M  V30 1734 H 159.928 0.627138 8.16094 0
M  V30 1735 N 162.591 -1.51276 -0.441967 0
M  V30 1736 C 163.837 -1.6492 -1.1905 0
M  V30 1737 C 164.192 -0.358731 -1.89026 0
M  V30 1738 O 163.485 0.645193 -1.8041 0
M  V30 1739 C 163.679 -2.78746 -2.23686 0
M  V30 1740 C 163.508 -4.18737 -1.63979 0
M  V30 1741 C 162.278 -4.84739 -1.42674 0
M  V30 1742 C 164.476 -5.01988 -1.11858 0
M  V30 1743 N 162.458 -6.08858 -0.785159 0
M  V30 1744 C 163.829 -6.17071 -0.601989 0
M  V30 1745 C 165.884 -4.87551 -1.0099 0
M  V30 1746 C 164.587 -7.19299 0.0126012 0
M  V30 1747 C 166.613 -5.89983 -0.409206 0
M  V30 1748 C 165.975 -7.04333 0.0968651 0
M  V30 1749 H 162.074 -0.657416 -0.423471 0
M  V30 1750 H 164.658 -1.8849 -0.48782 0
M  V30 1751 H 162.829 -2.56848 -2.91348 0
M  V30 1752 H 164.561 -2.81595 -2.90666 0
M  V30 1753 H 161.316 -4.42528 -1.68719 0
M  V30 1754 H 161.74 -6.75282 -0.481942 0
M  V30 1755 H 166.382 -3.99401 -1.38703 0
M  V30 1756 H 164.1 -8.071 0.401879 0
M  V30 1757 H 167.686 -5.8088 -0.327079 0
M  V30 1758 H 166.566 -7.82238 0.554373 0
M  V30 1759 N 164.069 0.697108 -1.41344 0
M  V30 1760 C 165.315 1.45796 -1.41828 0
M  V30 1761 C 165.67 1.92382 -0.0261743 0
M  V30 1762 O 164.963 1.66522 0.947688 0
M  V30 1763 C 165.157 2.68553 -2.35826 0
M  V30 1764 C 164.986 2.33975 -3.84039 0
M  V30 1765 C 163.756 2.24414 -4.52732 0
M  V30 1766 C 165.954 1.97048 -4.75054 0
M  V30 1767 N 163.936 1.82705 -5.86082 0
M  V30 1768 C 165.307 1.66086 -5.9734 0
M  V30 1769 C 167.362 1.83845 -4.62715 0
M  V30 1770 C 166.065 1.23246 -7.08663 0
M  V30 1771 C 168.091 1.4241 -5.73998 0
M  V30 1772 C 167.453 1.12357 -6.95381 0
M  V30 1773 H 163.552 0.530859 -0.574206 0
M  V30 1774 H 166.136 0.806674 -1.77203 0
M  V30 1775 H 164.307 3.31404 -2.02549 0
M  V30 1776 H 166.039 3.35015 -2.2704 0
M  V30 1777 H 162.794 2.4276 -4.0665 0
M  V30 1778 H 163.218 1.64337 -6.56751 0
M  V30 1779 H 167.86 2.05734 -3.69369 0
M  V30 1780 H 165.578 1.00102 -8.01876 0
M  V30 1781 H 169.164 1.32746 -5.66454 0
M  V30 1782 H 168.044 0.807795 -7.80028 0
M  V30 1783 N 165.547 1.27147 0.931209 0
M  V30 1784 C 166.787 1.14511 1.69312 0
M  V30 1785 C 167.151 -0.304638 1.89568 0
M  V30 1786 O 168.352 -0.553343 2.63043 0
M  V30 1787 C 166.623 1.90349 3.02493 0
M  V30 1788 S 168.182 1.93884 3.93642 0
M  V30 1789 H 165 0.408858 0.581684 0
M  V30 1790 H 167.602 1.61006 1.10893 0
M  V30 1791 H 166.306 2.94877 2.85439 0
M  V30 1792 H 165.837 1.44333 3.65966 0
M  V30 1793 H 167.852 1.03273 4.85334 0
M  V30 1794 N 167.025 -1.13721 1.09112 0
M  V30 1795 C 168.271 -1.85198 0.826414 0
M  V30 1796 C 168.604 -1.83129 -0.646319 0
M  V30 1797 O 167.879 -1.2671 -1.47563 0
M  V30 1798 C 168.162 -3.33507 1.35812 0
M  V30 1799 C 168.015 -3.44108 2.89672 0
M  V30 1800 C 169.334 -4.28838 0.989256 0
M  V30 1801 H 166.453 -0.67243 0.301675 0
M  V30 1802 H 169.095 -1.33499 1.35197 0
M  V30 1803 H 167.245 -3.77666 0.911082 0
M  V30 1804 H 168.917 -3.08684 3.428 0
M  V30 1805 H 167.16 -2.85087 3.26967 0
M  V30 1806 H 167.831 -4.48388 3.21951 0
M  V30 1807 H 170.307 -3.92734 1.37475 0
M  V30 1808 H 169.183 -5.31051 1.38838 0
M  V30 1809 H 169.444 -4.4198 -0.102924 0
M  V30 1810 N 168.503 -0.877838 -1.30888 0
M  V30 1811 C 169.413 -0.343096 -2.32078 0
M  V30 1812 C 170.429 0.551022 -1.65045 0
M  V30 1813 O 171.605 0.445854 -1.96403 0
M  V30 1814 C 168.67 0.439905 -3.43898 0
M  V30 1815 C 167.731 -0.483111 -4.26573 0
M  V30 1816 C 166.964 0.262616 -5.33053 0
M  V30 1817 O 167.187 1.48967 -5.50604 0
M  V30 1818 O 166.121 -0.383593 -6.00676 0
M  V30 1819 H 169.947 -1.18203 -2.79753 0
M  V30 1820 H 167.532 -0.64145 -1.34929 0
M  V30 1821 H 169.414 0.883504 -4.12034 0
M  V30 1822 H 168.089 1.25526 -2.98371 0
M  V30 1823 H 166.996 -0.975374 -3.61161 0
M  V30 1824 H 168.329 -1.26427 -4.75686 0
M  V30 1825 N 169.982 1.44106 -0.638065 0
M  V30 1826 C 171.207 2.0685 -0.150916 0
M  V30 1827 C 171.632 1.47417 1.16833 0
M  V30 1828 O 170.99 0.578264 1.71831 0
M  V30 1829 C 171.038 3.60555 -0.05708 0
M  V30 1830 O 170.142 4.00465 0.984972 0
M  V30 1831 H 169.483 0.658151 -0.0879399 0
M  V30 1832 H 172.013 1.84865 -0.876707 0
M  V30 1833 H 172.023 4.07789 0.131232 0
M  V30 1834 H 170.698 4.03193 -1.02021 0
M  V30 1835 H 169.275 3.64849 0.770672 0
M  V30 1836 N 171.46 0.379036 1.52974 0
M  V30 1837 C 172.423 -0.448865 2.24762 0
M  V30 1838 C 173.423 -0.998689 1.26027 0
M  V30 1839 O 174.613 -0.882313 1.50203 0
M  V30 1840 C 171.745 -1.62872 2.99476 0
M  V30 1841 H 172.938 0.179491 2.99362 0
M  V30 1842 H 170.491 0.13096 1.5575 0
M  V30 1843 H 171.226 -2.29479 2.29151 0
M  V30 1844 H 171.011 -1.24128 3.71934 0
M  V30 1845 H 172.501 -2.2151 3.5401 0
M  V30 1846 N 172.938 -1.57226 0.108567 0
M  V30 1847 C 173.868 -2.17778 -0.84232 0
M  V30 1848 C 174.849 -1.11487 -1.2847 0
M  V30 1849 O 176.034 -1.39681 -1.34918 0
M  V30 1850 C 173.164 -2.76888 -2.09644 0
M  V30 1851 C 172.118 -3.88669 -1.79221 0
M  V30 1852 C 171.444 -4.34541 -3.11574 0
M  V30 1853 C 172.744 -5.11251 -1.06864 0
M  V30 1854 H 174.438 -2.97489 -0.337774 0
M  V30 1855 H 171.984 -1.43097 -0.161025 0
M  V30 1856 H 173.937 -3.17904 -2.76614 0
M  V30 1857 H 172.661 -1.94451 -2.62405 0
M  V30 1858 H 171.32 -3.48213 -1.14644 0
M  V30 1859 H 170.968 -3.48977 -3.62249 0
M  V30 1860 H 170.668 -5.09914 -2.91996 0
M  V30 1861 H 172.192 -4.782 -3.7968 0
M  V30 1862 H 173.606 -5.49352 -1.63968 0
M  V30 1863 H 172.003 -5.9214 -0.974178 0
M  V30 1864 H 173.073 -4.8487 -0.0536168 0
M  V30 1865 N 174.416 0.165178 -1.56732 0
M  V30 1866 C 175.644 0.896218 -1.86482 0
M  V30 1867 C 176.059 1.75555 -0.694675 0
M  V30 1868 O 175.416 1.79379 0.33607 0
M  V30 1869 C 175.467 1.76792 -3.1532 0
M  V30 1870 O 175.188 0.943239 -4.27825 0
M  V30 1871 C 176.689 2.6081 -3.58459 0
M  V30 1872 H 173.909 0.260064 -0.618553 0
M  V30 1873 H 176.453 0.163428 -2.03846 0
M  V30 1874 H 174.608 2.45398 -2.99764 0
M  V30 1875 H 175.022 1.53998 -5.01383 0
M  V30 1876 H 176.496 3.17579 -4.51495 0
M  V30 1877 H 176.973 3.35977 -2.82872 0
M  V30 1878 H 177.579 1.97526 -3.76648 0
M  V30 1879 N 175.894 1.51508 0.433938 0
M  V30 1880 C 177.14 1.65549 1.18173 0
M  V30 1881 C 177.495 0.368751 1.88833 0
M  V30 1882 O 176.788 -0.635616 1.8075 0
M  V30 1883 C 176.982 2.79928 2.22205 0
M  V30 1884 C 176.811 4.19601 1.61756 0
M  V30 1885 C 175.581 4.85489 1.40101 0
M  V30 1886 C 177.779 5.02574 1.09194 0
M  V30 1887 N 175.761 6.09266 0.752859 0
M  V30 1888 C 177.132 6.17381 0.569255 0
M  V30 1889 C 179.187 4.88079 0.984025 0
M  V30 1890 C 177.89 7.19282 -0.0507472 0
M  V30 1891 C 179.916 5.90191 0.377912 0
M  V30 1892 C 179.278 7.04272 -0.134216 0
M  V30 1893 H 175.377 0.659653 0.419979 0
M  V30 1894 H 177.961 1.88746 0.477818 0
M  V30 1895 H 176.132 2.5839 2.89982 0
M  V30 1896 H 177.864 2.83132 2.89168 0
M  V30 1897 H 174.619 4.43417 1.66369 0
M  V30 1898 H 175.043 6.75528 0.446123 0
M  V30 1899 H 179.685 4.00131 1.36583 0
M  V30 1900 H 177.403 8.06876 -0.444676 0
M  V30 1901 H 180.989 5.81045 0.296269 0
M  V30 1902 H 179.869 7.81933 -0.59585 0
M  V30 1903 N 177.372 -0.689602 1.41712 0
M  V30 1904 C 178.62 -1.4468 1.4111 0
M  V30 1905 C 178.941 -1.94986 0.0232196 0
M  V30 1906 O 178.211 -1.72097 -0.935913 0
M  V30 1907 H 176.791 -0.536847 0.519427 0
M  V30 1908 H 179.453 -0.815825 1.77004 0
M  V30 1909 H 178.549 -2.30706 2.10193 0
M  V30 1910 N 178.85 -1.27639 -0.924453 0
M  V30 1911 C 180.127 -1.04887 -1.651 0
M  V30 1912 C 180.507 0.415327 -2.06974 0
M  V30 1913 O 179.855 1.39923 -1.80648 0
M  V30 1914 C 180.065 -2.01348 -2.85061 0
M  V30 1915 C 181.413 -2.30899 -3.56329 0
M  V30 1916 O 182.437 -1.99348 -2.95193 0
M  V30 1917 O 181.296 -2.84699 -4.66485 0
M  V30 1918 H 178.39 -0.400083 -0.723784 0
M  V30 1919 H 180.936 -1.38916 -0.974703 0
M  V30 1920 H 179.708 -3.0008 -2.51133 0
M  V30 1921 H 179.331 -1.679 -3.6041 0
M  V30 1922 N 180.328 1.1314 -1.09713 0
M  V30 1923 C 181.576 1.84119 -0.833338 0
M  V30 1924 C 181.897 1.84097 0.642904 0
M  V30 1925 O 181.167 1.29881 1.46655 0
M  V30 1926 H 179.747 0.681766 -0.305293 0
M  V30 1927 H 182.409 1.37038 -1.38588 0
M  V30 1928 H 181.505 2.88543 -1.18951 0
M  V30 1929 N 181.806 0.884767 1.30421 0
M  V30 1930 C 183.083 0.423185 1.90967 0
M  V30 1931 C 183.463 -1.09605 1.80416 0
M  V30 1932 O 182.811 -1.93126 1.22125 0
M  V30 1933 C 183.021 0.921056 3.36627 0
M  V30 1934 C 184.369 0.955903 4.137 0
M  V30 1935 O 185.393 0.867706 3.4547 0
M  V30 1936 O 184.252 1.08614 5.35598 0
M  V30 1937 H 181.346 0.129369 0.816819 0
M  V30 1938 H 183.892 0.973653 1.3899 0
M  V30 1939 H 182.664 1.96489 3.3839 0
M  V30 1940 H 182.287 0.349741 3.96059 0
M  V30 1941 N 183.284 -1.43765 0.645699 0
M  V30 1942 C 184.561 -1.9541 0.0862963 0
M  V30 1943 C 184.941 -1.58725 -1.39175 0
M  V30 1944 O 184.289 -0.868581 -2.11348 0
M  V30 1945 C 184.499 -3.47488 0.324565 0
M  V30 1946 C 185.847 -4.24001 0.225497 0
M  V30 1947 O 186.871 -3.55274 0.256715 0
M  V30 1948 O 185.73 -5.46313 0.142801 0
M  V30 1949 H 182.824 -0.826882 -0.0139483 0
M  V30 1950 H 185.37 -1.53743 0.718415 0
M  V30 1951 H 184.142 -3.67289 1.3496 0
M  V30 1952 H 183.765 -3.96135 -0.340987 0
M  V30 1953 N 184.763 -0.387143 -1.52771 0
M  V30 1954 C 185.711 0.463953 -2.27926 0
M  V30 1955 C 186.705 1.06493 -1.31741 0
M  V30 1956 O 187.911 1.00565 -1.49287 0
M  V30 1957 H 184.286 0.16837 -0.732909 0
M  V30 1958 H 186.257 -0.19141 -2.97785 0
M  V30 1959 C 185.006 1.5803 -3.09713 0
M  V30 1960 H 184.329 1.12718 -3.83581 0
M  V30 1961 H 185.769 2.15008 -3.65442 0
M  V30 1962 C 184.228 2.53509 -2.2189 0
M  V30 1963 O 184.758 3.56863 -1.84422 0
M  V30 1964 N 182.964 2.23199 -1.86093 0
M  V30 1965 H 182.511 1.39185 -2.16761 0
M  V30 1966 H 182.469 2.87333 -1.27621 0
M  V30 1967 N 186.241 1.57166 -0.116904 0
M  V30 1968 C 187.489 1.94737 0.540533 0
M  V30 1969 C 187.81 1.00096 1.67349 0
M  V30 1970 O 187.08 0.0568854 1.95817 0
M  V30 1971 H 185.66 0.718981 0.202669 0
M  V30 1972 H 188.322 1.94017 -0.185353 0
M  V30 1973 H 187.418 2.97719 0.936483 0
M  V30 1974 N 187.719 -0.156864 1.56817 0
M  V30 1975 C 189.13 -0.717916 1.72345 0
M  V30 1976 C 189.481 -1.82124 0.729747 0
M  V30 1977 O 188.606 -2.16141 -0.105781 0
M  V30 1978 C 189.201 -1.30904 3.12489 0
M  V30 1979 C 187.76 -1.81676 3.29653 0
M  V30 1980 C 186.907 -0.701349 2.68284 0
M  V30 1981 H 189.858 0.0686989 1.58551 0
M  V30 1982 H 189.879 -2.17882 3.11942 0
M  V30 1983 H 189.391 -0.505796 3.8479 0
M  V30 1984 H 187.492 -2.64598 2.62333 0
M  V30 1985 H 187.605 -1.95226 4.3752 0
M  V30 1986 H 185.969 -1.12548 2.28484 0
M  V30 1987 H 186.752 0.0902846 3.43181 0
M  V30 1988 N 189.197 -1.51736 -0.425897 0
M  V30 1989 C 190.474 -1.55519 -1.1863 0
M  V30 1990 C 190.854 -0.326219 -2.08564 0
M  V30 1991 O 190.202 0.688012 -2.17896 0
M  V30 1992 C 190.412 -2.87521 -1.9782 0
M  V30 1993 C 191.76 -3.39899 -2.54468 0
M  V30 1994 O 192.784 -2.89148 -2.08019 0
M  V30 1995 O 191.643 -4.2848 -3.39215 0
M  V30 1996 H 188.737 -0.625739 -0.540721 0
M  V30 1997 H 191.283 -1.64055 -0.434038 0
M  V30 1998 H 190.055 -3.68422 -1.31836 0
M  V30 1999 H 189.678 -2.822 -2.80088 0
M  V30 2000 N 190.675 0.682077 -1.42076 0
M  V30 2001 C 191.608 1.80666 -1.3941 0
M  V30 2002 C 192.586 1.60518 -0.25939 0
M  V30 2003 O 193.77 1.83088 -0.448456 0
M  V30 2004 C 190.897 3.17556 -1.17796 0
M  V30 2005 C 189.943 3.56468 -2.34164 0
M  V30 2006 S 190.776 3.59729 -3.96681 0
M  V30 2007 C 191.932 4.99323 -3.77395 0
M  V30 2008 H 192.165 1.82652 -2.34575 0
M  V30 2009 H 189.698 0.852062 -1.2876 0
M  V30 2010 H 191.656 3.96575 -1.06012 0
M  V30 2011 H 190.317 3.13164 -0.242279 0
M  V30 2012 H 189.51 4.5595 -2.1477 0
M  V30 2013 H 189.112 2.84792 -2.42425 0
M  V30 2014 H 191.404 5.87202 -3.37935 0
M  V30 2015 H 192.347 5.23763 -4.76527 0
M  V30 2016 H 192.755 4.71498 -3.10403 0
M  V30 2017 N 192.153 1.28127 0.917671 0
M  V30 2018 C 193.402 1.14432 1.66097 0
M  V30 2019 C 193.715 -0.307247 1.93172 0
M  V30 2020 O 194.921 -0.565259 2.65551 0
M  V30 2021 C 193.377 2.00015 2.99202 0
M  V30 2022 C 192.985 3.49889 2.79789 0
M  V30 2023 C 194.729 1.94996 3.77064 0
M  V30 2024 C 192.636 4.27636 4.08511 0
M  V30 2025 H 191.566 0.424662 0.62304 0
M  V30 2026 H 194.217 1.52628 1.01868 0
M  V30 2027 H 192.599 1.54672 3.64544 0
M  V30 2028 H 193.773 4.03162 2.23152 0
M  V30 2029 H 192.088 3.56392 2.15345 0
M  V30 2030 H 194.685 2.50354 4.72469 0
M  V30 2031 H 195.028 0.925819 4.05875 0
M  V30 2032 H 195.561 2.38287 3.18534 0
M  V30 2033 H 192.3 5.30615 3.84874 0
M  V30 2034 H 191.82 3.79137 4.64774 0
M  V30 2035 H 193.499 4.37346 4.76799 0
M  V30 2036 N 193.631 -1.12557 1.10312 0
M  V30 2037 C 194.877 -1.84311 0.846011 0
M  V30 2038 C 195.21 -1.83805 -0.626859 0
M  V30 2039 O 194.485 -1.28268 -1.46211 0
M  V30 2040 C 194.768 -3.32048 1.39341 0
M  V30 2041 C 194.621 -3.41016 2.93305 0
M  V30 2042 C 195.94 -4.27764 1.03468 0
M  V30 2043 H 193.059 -0.669192 0.30879 0
M  V30 2044 H 195.701 -1.32057 1.36605 0
M  V30 2045 H 193.851 -3.76678 0.951087 0
M  V30 2046 H 195.523 -3.05031 3.46055 0
M  V30 2047 H 193.766 -2.81603 3.29973 0
M  V30 2048 H 194.437 -4.44948 3.26689 0
M  V30 2049 H 196.913 -3.91253 1.41633 0
M  V30 2050 H 195.789 -5.29549 1.44463 0
M  V30 2051 H 196.05 -4.42064 -0.0560404 0
M  V30 2052 N 195.109 -0.891671 -1.2995 0
M  V30 2053 C 196.386 -0.433307 -1.9074 0
M  V30 2054 C 196.766 1.08646 -1.80995 0
M  V30 2055 O 196.114 1.92476 -1.23147 0
M  V30 2056 C 196.324 -0.938895 -3.36134 0
M  V30 2057 C 197.672 -0.977829 -4.13187 0
M  V30 2058 O 198.696 -0.886015 -3.45005 0
M  V30 2059 O 197.555 -1.11453 -5.35015 0
M  V30 2060 H 194.649 -0.133699 -0.816121 0
M  V30 2061 H 197.195 -0.981011 -1.38471 0
M  V30 2062 H 195.967 -1.98281 -3.37343 0
M  V30 2063 H 195.59 -0.37074 -3.95868 0
M  V30 2064 N 196.587 1.43421 -0.653314 0
M  V30 2065 C 197.864 1.95361 -0.0966581 0
M  V30 2066 C 198.244 1.59461 1.38331 0
M  V30 2067 O 197.592 0.879777 2.10884 0
M  V30 2068 C 197.802 3.47311 -0.342988 0
M  V30 2069 C 199.15 4.23875 -0.24798 0
M  V30 2070 O 200.174 3.55133 -0.275553 0
M  V30 2071 O 199.033 5.4623 -0.171771 0
M  V30 2072 H 196.127 0.826945 0.00956291 0
M  V30 2073 H 198.673 1.5336 -0.726558 0
M  V30 2074 H 197.445 3.66569 -1.36906 0
M  V30 2075 H 197.068 3.9631 0.319975 0
M  V30 2076 N 198.065 0.39524 1.52563 0
M  V30 2077 C 199.313 -0.184678 2.01254 0
M  V30 2078 C 199.634 -1.46822 1.28329 0
M  V30 2079 O 198.904 -1.91666 0.405094 0
M  V30 2080 H 197.484 -0.0712355 0.743596 0
M  V30 2081 H 200.146 0.528293 1.87603 0
M  V30 2082 H 199.242 -0.390681 3.09645 0
M  V30 2083 N 199.544 -1.57102 0.125237 0
M  V30 2084 C 200.792 -1.95021 -0.530198 0
M  V30 2085 C 201.113 -1.00982 -1.66816 0
M  V30 2086 O 200.383 -0.0672693 -1.95784 0
M  V30 2087 H 198.963 -0.720046 -0.198853 0
M  V30 2088 H 201.625 -1.93916 0.19564 0
M  V30 2089 H 200.721 -2.98211 -0.920681 0
M  V30 2090 N 201.022 0.148545 -1.56898 0
M  V30 2091 C 202.299 0.890019 -1.74178 0
M  V30 2092 C 202.679 1.99407 -0.692839 0
M  V30 2093 O 202.027 2.26671 0.288505 0
M  V30 2094 C 202.237 1.43389 -3.18183 0
M  V30 2095 C 203.585 1.89791 -3.79822 0
M  V30 2096 O 204.609 1.53134 -3.21603 0
M  V30 2097 O 203.468 2.57387 -4.82093 0
M  V30 2098 H 200.562 0.420496 -0.712118 0
M  V30 2099 H 203.108 0.134591 -1.69165 0
M  V30 2100 H 201.88 0.640383 -3.86024 0
M  V30 2101 H 201.503 2.25287 -3.27615 0
M  V30 2102 N 202.5 1.5196 0.417844 0
M  V30 2103 C 203.463 1.74065 1.49111 0
M  V30 2104 C 204.463 0.610537 1.48758 0
M  V30 2105 O 205.653 0.87832 1.50437 0
M  V30 2106 C 202.785 1.81502 2.88565 0
M  V30 2107 H 203.978 2.69869 1.30807 0
M  V30 2108 H 201.531 1.42244 0.647785 0
M  V30 2109 H 202.266 0.875813 3.1225 0
M  V30 2110 H 202.051 2.63651 2.90225 0
M  V30 2111 H 203.541 2.00376 3.66387 0
M  V30 2112 N 203.978 -0.674533 1.42435 0
M  V30 2113 C 205.206 -1.46283 1.46317 0
M  V30 2114 C 205.621 -1.88653 0.0745836 0
M  V30 2115 O 204.978 -1.58151 -0.91074 0
M  V30 2116 C 205.029 -2.71178 2.3905 0
M  V30 2117 O 204.75 -2.30586 3.72507 0
M  V30 2118 C 206.251 -3.64738 2.51955 0
M  V30 2119 H 203.471 -0.450104 0.497642 0
M  V30 2120 H 206.015 -0.828792 1.86953 0
M  V30 2121 H 204.17 -3.3077 2.01667 0
M  V30 2122 H 204.584 -3.11241 4.22172 0
M  V30 2123 H 206.058 -4.49096 3.20962 0
M  V30 2124 H 206.535 -4.10656 1.55752 0
M  V30 2125 H 207.141 -3.11038 2.90061 0
M  V30 2126 N 205.456 -1.28612 -0.910864 0
M  V30 2127 C 206.386 -1.15326 -2.03032 0
M  V30 2128 C 207.367 -0.0502924 -1.70026 0
M  V30 2129 O 208.552 -0.227797 -1.92859 0
M  V30 2130 C 205.682 -0.817343 -3.37545 0
M  V30 2131 C 204.636 -1.8754 -3.84724 0
M  V30 2132 C 203.962 -1.39305 -5.16235 0
M  V30 2133 C 205.262 -3.28244 -4.06267 0
M  V30 2134 H 206.956 -2.08975 -2.14406 0
M  V30 2135 H 204.502 -1.00612 -1.03021 0
M  V30 2136 H 206.455 -0.711151 -4.15356 0
M  V30 2137 H 205.179 0.154846 -3.26233 0
M  V30 2138 H 203.838 -1.97079 -3.09121 0
M  V30 2139 H 203.486 -0.409846 -5.01328 0
M  V30 2140 H 203.186 -2.10057 -5.48771 0
M  V30 2141 H 204.71 -1.30014 -5.96598 0
M  V30 2142 H 206.124 -3.21611 -4.74594 0
M  V30 2143 H 204.521 -3.96855 -4.5014 0
M  V30 2144 H 205.591 -3.72048 -3.10979 0
M  V30 2145 N 206.934 1.1197 -1.10907 0
M  V30 2146 C 207.864 2.19928 -0.784473 0
M  V30 2147 C 208.845 1.6833 0.244726 0
M  V30 2148 O 210.03 1.93892 0.109418 0
M  V30 2149 C 207.16 3.46597 -0.220827 0
M  V30 2150 C 206.114 4.11376 -1.18127 0
M  V30 2151 C 205.44 5.32554 -0.478594 0
M  V30 2152 C 206.74 4.56945 -2.52979 0
M  V30 2153 H 208.434 2.47337 -1.68715 0
M  V30 2154 H 205.98 1.18879 -0.812642 0
M  V30 2155 H 207.933 4.21396 0.0184278 0
M  V30 2156 H 206.657 3.1863 0.717113 0
M  V30 2157 H 205.316 3.38564 -1.40606 0
M  V30 2158 H 204.964 5.00856 0.463976 0
M  V30 2159 H 204.664 5.76844 -1.11912 0
M  V30 2160 H 206.188 6.10096 -0.248 0
M  V30 2161 H 207.602 5.23093 -2.3462 0
M  V30 2162 H 205.999 5.1203 -3.12962 0
M  V30 2163 H 207.069 3.70676 -3.12614 0
M  V30 2164 N 208.412 0.89855 1.29475 0
M  V30 2165 C 209.658 0.524658 1.95896 0
M  V30 2166 C 209.991 -0.926468 1.70676 0
M  V30 2167 O 209.266 -1.65665 1.01908 0
M  V30 2168 C 209.549 0.81633 3.50725 0
M  V30 2169 C 209.402 2.31907 3.85408 0
M  V30 2170 C 210.721 0.302038 4.39062 0
M  V30 2171 H 207.84 0.19209 0.711527 0
M  V30 2172 H 210.482 1.12502 1.53112 0
M  V30 2173 H 208.632 0.305369 3.87298 0
M  V30 2174 H 210.304 2.89949 3.58786 0
M  V30 2175 H 208.547 2.78027 3.32992 0
M  V30 2176 H 209.218 2.47373 4.93468 0
M  V30 2177 H 211.694 0.739551 4.09475 0
M  V30 2178 H 210.57 0.535331 5.46283 0
M  V30 2179 H 210.831 -0.797216 4.34853 0
M  V30 2180 N 209.89 -1.43072 0.660911 0
M  V30 2181 C 210.84 -2.27948 -0.04847 0
M  V30 2182 C 211.824 -1.40325 -0.787246 0
M  V30 2183 O 213.016 -1.63893 -0.668446 0
M  V30 2184 C 210.145 -3.28143 -1.00881 0
M  V30 2185 C 209.231 -4.23252 -0.268108 0
M  V30 2186 N 209.622 -5.00656 0.719528 0
M  V30 2187 C 207.92 -4.43092 -0.508493 0
M  V30 2188 C 208.621 -5.70019 1.15988 0
M  V30 2189 N 207.597 -5.41364 0.492584 0
M  V30 2190 H 211.399 -2.85213 0.709279 0
M  V30 2191 H 208.913 -1.54869 0.488822 0
M  V30 2192 H 210.91 -3.87736 -1.53188 0
M  V30 2193 H 209.57 -2.7244 -1.76654 0
M  V30 2194 H 210.581 -5.06115 1.09855 0
M  V30 2195 H 207.258 -3.98449 -1.24679 0
M  V30 2196 H 208.648 -6.4214 1.97751 0
M  V30 2197 N 211.368 -0.403325 -1.52352 0
M  V30 2198 C 212.315 0.425011 -2.26853 0
M  V30 2199 C 213.285 1.04598 -1.29029 0
M  V30 2200 O 214.47 1.07135 -1.57882 0
M  V30 2201 C 211.61 1.53888 -3.08889 0
M  V30 2202 C 210.723 0.939396 -4.21663 0
M  V30 2203 C 209.858 2.02547 -4.91068 0
M  V30 2204 C 208.897 1.40263 -5.95813 0
M  V30 2205 N 208.034 2.4286 -6.58759 0
M  V30 2206 H 212.874 -0.21674 -2.97211 0
M  V30 2207 H 210.411 -0.118722 -1.4662 0
M  V30 2208 H 212.369 2.19558 -3.54753 0
M  V30 2209 H 210.999 2.15074 -2.40714 0
M  V30 2210 H 210.051 0.171898 -3.80011 0
M  V30 2211 H 211.363 0.44436 -4.96817 0
M  V30 2212 H 210.517 2.75958 -5.40308 0
M  V30 2213 H 209.256 2.55415 -4.15469 0
M  V30 2214 H 208.261 0.653833 -5.45898 0
M  V30 2215 H 209.486 0.881719 -6.73352 0
M  V30 2216 H 207.432 2.94871 -5.85992 0
M  V30 2217 H 207.349 1.98152 -7.2957 0
M  V30 2218 H 208.617 3.15858 -7.12639 0
M  V30 2219 N 212.846 1.57033 -0.133567 0
M  V30 2220 C 214.094 1.953 0.519848 0
M  V30 2221 C 214.415 1.01866 1.66278 0
M  V30 2222 O 213.685 0.0776513 1.95746 0
M  V30 2223 H 212.265 0.721091 0.195032 0
M  V30 2224 H 214.927 1.93809 -0.205921 0
M  V30 2225 H 214.023 2.98695 0.904854 0
M  V30 2226 N 214.325 -0.140222 1.56975 0
M  V30 2227 C 215.571 -0.852949 1.83991 0
M  V30 2228 C 215.904 -1.80512 0.716187 0
M  V30 2229 O 215.179 -1.92479 -0.279681 0
M  V30 2230 C 215.462 -1.6215 3.21527 0
M  V30 2231 C 215.315 -0.690363 4.4447 0
M  V30 2232 C 216.634 -2.58247 3.56366 0
M  V30 2233 H 213.753 -0.308634 0.669264 0
M  V30 2234 H 216.395 -0.117898 1.89634 0
M  V30 2235 H 214.545 -2.24812 3.16847 0
M  V30 2236 H 216.217 -0.0742264 4.6124 0
M  V30 2237 H 214.46 -0.000396433 4.338 0
M  V30 2238 H 215.131 -1.2643 5.37326 0
M  V30 2239 H 217.607 -2.05701 3.61699 0
M  V30 2240 H 216.483 -3.09067 4.53617 0
M  V30 2241 H 216.744 -3.39923 2.82674 0
M  V30 2242 N 215.803 -1.52179 -0.40978 0
M  V30 2243 C 216.713 -1.78364 -1.52392 0
M  V30 2244 C 217.729 -0.669183 -1.60617 0
M  V30 2245 O 218.905 -0.954518 -1.77344 0
M  V30 2246 C 215.97 -1.92822 -2.88133 0
M  V30 2247 C 215.031 -3.16725 -2.898 0
M  V30 2248 C 214.264 -3.30483 -4.19067 0
M  V30 2249 O 214.487 -2.49522 -5.12928 0
M  V30 2250 O 213.421 -4.2363 -4.27576 0
M  V30 2251 H 217.247 -2.72931 -1.33201 0
M  V30 2252 H 214.832 -1.37016 -0.59557 0
M  V30 2253 H 216.714 -2.04157 -3.68643 0
M  V30 2254 H 215.389 -1.01444 -3.07393 0
M  V30 2255 H 214.296 -3.10848 -2.08146 0
M  V30 2256 H 215.629 -4.07881 -2.75489 0
M  V30 2257 N 217.281 0.66697 -1.42791 0
M  V30 2258 C 218.511 1.45294 -1.46878 0
M  V30 2259 C 218.919 1.89027 -0.0809861 0
M  V30 2260 O 218.262 1.59219 0.916246 0
M  V30 2261 C 218.324 2.72908 -2.34012 0
M  V30 2262 C 217.988 2.51203 -3.81767 0
M  V30 2263 C 218.985 2.15302 -4.73224 0
M  V30 2264 C 216.67 2.65954 -4.26115 0
M  V30 2265 C 218.664 1.94431 -6.07022 0
M  V30 2266 C 216.351 2.44699 -5.59969 0
M  V30 2267 C 217.349 2.08992 -6.5024 0
M  V30 2268 O 217.037 1.87948 -7.81621 0
M  V30 2269 H 216.769 0.453306 -0.501487 0
M  V30 2270 H 219.323 0.826232 -1.88049 0
M  V30 2271 H 217.553 3.38089 -1.87703 0
M  V30 2272 H 219.242 3.34816 -2.29462 0
M  V30 2273 H 220.008 2.03495 -4.40244 0
M  V30 2274 H 215.887 2.92724 -3.56137 0
M  V30 2275 H 219.431 1.66484 -6.77443 0
M  V30 2276 H 215.328 2.56105 -5.9252 0
M  V30 2277 H 216.096 2.02483 -7.93059 0
M  V30 2278 N 218.759 1.29093 0.90403 0
M  V30 2279 C 219.669 1.15727 2.0407 0
M  V30 2280 C 220.685 0.0815308 1.73809 0
M  V30 2281 O 221.861 0.292749 1.99261 0
M  V30 2282 C 218.926 0.830424 3.36608 0
M  V30 2283 C 217.987 1.98955 3.80415 0
M  V30 2284 C 217.22 1.6782 5.06628 0
M  V30 2285 O 217.443 0.597105 5.67266 0
M  V30 2286 O 216.377 2.52486 5.46383 0
M  V30 2287 H 220.203 2.11171 2.18267 0
M  V30 2288 H 217.788 1.08504 1.027 0
M  V30 2289 H 219.67 0.662521 4.16159 0
M  V30 2290 H 218.345 -0.0942678 3.23563 0
M  V30 2291 H 217.252 2.21267 3.01648 0
M  V30 2292 H 218.585 2.89529 3.98037 0
M  V30 2293 N 220.237 -1.11381 1.11499 0
M  V30 2294 C 221.184 -2.17439 0.773887 0
M  V30 2295 C 222.154 -1.64132 -0.254899 0
M  V30 2296 O 223.339 -1.90345 -0.13168 0
M  V30 2297 C 220.479 -3.44373 0.223917 0
M  V30 2298 C 219.592 -4.1168 1.30934 0
M  V30 2299 C 218.727 -5.263 0.71984 0
M  V30 2300 C 217.766 -5.85493 1.78507 0
M  V30 2301 N 216.903 -6.91507 1.21502 0
M  V30 2302 H 221.743 -2.45962 1.68246 0
M  V30 2303 H 219.28 -1.20744 0.840191 0
M  V30 2304 H 221.238 -4.17047 -0.112921 0
M  V30 2305 H 219.868 -3.16232 -0.647851 0
M  V30 2306 H 218.92 -3.37073 1.76312 0
M  V30 2307 H 220.232 -4.51729 2.11524 0
M  V30 2308 H 219.386 -6.05785 0.333094 0
M  V30 2309 H 218.125 -4.87559 -0.117377 0
M  V30 2310 H 217.13 -5.04686 2.18111 0
M  V30 2311 H 218.355 -6.26301 2.62533 0
M  V30 2312 H 216.301 -6.54783 0.399455 0
M  V30 2313 H 216.218 -7.30214 1.95763 0
M  V30 2314 H 217.486 -7.74795 0.855181 0
M  V30 2315 N 221.715 -0.905404 -1.28997 0
M  V30 2316 C 222.645 -0.404212 -2.29975 0
M  V30 2317 C 223.626 0.523784 -1.61835 0
M  V30 2318 O 224.811 0.433298 -1.89304 0
M  V30 2319 C 221.941 0.364042 -3.45387 0
M  V30 2320 C 220.895 -0.474048 -4.25367 0
M  V30 2321 C 220.221 0.422045 -5.33032 0
M  V30 2322 C 221.521 -1.72696 -4.92923 0
M  V30 2323 H 223.215 -1.24807 -2.72146 0
M  V30 2324 H 220.761 -0.601585 -1.30832 0
M  V30 2325 H 222.714 0.725447 -4.15109 0
M  V30 2326 H 221.438 1.24174 -3.02074 0
M  V30 2327 H 220.097 -0.81786 -3.57361 0
M  V30 2328 H 219.745 1.29804 -4.85963 0
M  V30 2329 H 219.445 -0.135057 -5.87445 0
M  V30 2330 H 220.969 0.779517 -6.05604 0
M  V30 2331 H 222.383 -1.43495 -5.55051 0
M  V30 2332 H 220.78 -2.22582 -5.57295 0
M  V30 2333 H 221.85 -2.45964 -4.17887 0
M  V30 2334 N 223.193 1.4272 -0.668489 0
M  V30 2335 C 224.423 2.05668 -0.196063 0
M  V30 2336 C 224.831 1.5028 1.14946 0
M  V30 2337 O 224.174 0.6348 1.72383 0
M  V30 2338 C 224.236 3.59469 -0.0468879 0
M  V30 2339 C 223.9 4.37518 -1.32012 0
M  V30 2340 C 224.897 4.68584 -2.25222 0
M  V30 2341 C 222.582 4.77266 -1.56596 0
M  V30 2342 C 224.576 5.38326 -3.41297 0
M  V30 2343 C 222.263 5.4675 -2.72962 0
M  V30 2344 C 223.261 5.77204 -3.65137 0
M  V30 2345 O 222.949 6.45264 -4.79468 0
M  V30 2346 H 222.681 0.669382 -0.0943599 0
M  V30 2347 H 225.235 1.83954 -0.913788 0
M  V30 2348 H 223.465 3.79817 0.726357 0
M  V30 2349 H 225.154 4.04071 0.384852 0
M  V30 2350 H 225.92 4.38382 -2.07477 0
M  V30 2351 H 221.799 4.52959 -0.857249 0
M  V30 2352 H 225.343 5.62014 -4.13263 0
M  V30 2353 H 221.24 5.76369 -2.90635 0
M  V30 2354 H 222.008 6.63753 -4.78931 0
M  V30 2355 N 224.671 0.411399 1.52136 0
M  V30 2356 C 225.581 -0.419774 2.30814 0
M  V30 2357 C 226.597 -1.0515 1.38634 0
M  V30 2358 O 227.773 -1.05252 1.71709 0
M  V30 2359 C 224.838 -1.52019 3.11594 0
M  V30 2360 C 223.899 -0.91129 4.19516 0
M  V30 2361 C 223.132 -1.95927 4.96436 0
M  V30 2362 O 223.355 -3.17775 4.73683 0
M  V30 2363 O 222.289 -1.56423 5.81219 0
M  V30 2364 H 226.115 0.221805 3.02889 0
M  V30 2365 H 223.7 0.174547 1.48377 0
M  V30 2366 H 225.582 -2.15898 3.61892 0
M  V30 2367 H 224.257 -2.14633 2.42311 0
M  V30 2368 H 223.164 -0.235157 3.7336 0
M  V30 2369 H 224.497 -0.32904 4.91099 0
M  V30 2370 N 226.149 -1.5696 0.141893 0
M  V30 2371 C 227.059 -2.20066 -0.812905 0
M  V30 2372 C 228.075 -1.18344 -1.27557 0
M  V30 2373 O 229.251 -1.50902 -1.33381 0
M  V30 2374 C 226.316 -2.80583 -2.03652 0
M  V30 2375 C 225.377 -3.97414 -1.62359 0
M  V30 2376 C 224.61 -4.55036 -2.78887 0
M  V30 2377 O 224.833 -4.11538 -3.94959 0
M  V30 2378 O 223.767 -5.45376 -2.54653 0
M  V30 2379 H 227.593 -3.02157 -0.305746 0
M  V30 2380 H 225.178 -1.49159 -0.0848799 0
M  V30 2381 H 227.06 -3.19067 -2.75272 0
M  V30 2382 H 225.735 -2.01508 -2.5333 0
M  V30 2383 H 224.642 -3.63656 -0.877775 0
M  V30 2384 H 225.975 -4.77994 -1.17401 0
M  V30 2385 N 227.627 0.131896 -1.57047 0
M  V30 2386 C 228.574 1.16236 -1.99393 0
M  V30 2387 C 229.544 1.41863 -0.863943 0
M  V30 2388 O 230.729 1.53946 -1.12718 0
M  V30 2389 C 227.869 2.48708 -2.39245 0
M  V30 2390 C 226.982 2.30127 -3.65603 0
M  V30 2391 C 226.117 3.55738 -3.94492 0
M  V30 2392 C 225.156 3.32259 -5.14073 0
M  V30 2393 N 224.293 4.50039 -5.38896 0
M  V30 2394 H 229.133 0.794251 -2.87221 0
M  V30 2395 H 226.67 0.380707 -1.42088 0
M  V30 2396 H 228.628 3.25969 -2.60384 0
M  V30 2397 H 227.258 2.83437 -1.54478 0
M  V30 2398 H 226.31 1.43845 -3.52154 0
M  V30 2399 H 227.622 2.08746 -4.5302 0
M  V30 2400 H 226.776 4.41423 -4.1621 0
M  V30 2401 H 225.515 3.80138 -3.05526 0
M  V30 2402 H 224.52 2.44963 -4.92212 0
M  V30 2403 H 225.745 3.09242 -6.04604 0
M  V30 2404 H 223.691 4.74584 -4.52886 0
M  V30 2405 H 223.608 4.31716 -6.2061 0
M  V30 2406 H 224.876 5.36895 -5.65123 0
M  V30 2407 N 229.106 1.52395 0.401703 0
M  V30 2408 C 230.054 1.7689 1.51039 0
M  V30 2409 C 231.048 0.636298 1.56996 0
M  V30 2410 O 232.254 0.818507 1.60314 0
M  V30 2411 H 228.629 0.559502 0.502456 0
M  V30 2412 H 230.6 2.69757 1.27568 0
M  V30 2413 C 229.349 1.94331 2.88324 0
M  V30 2414 H 228.672 2.80905 2.84486 0
M  V30 2415 H 230.112 2.15466 3.65172 0
M  V30 2416 C 228.571 0.712396 3.29282 0
M  V30 2417 O 229.101 -0.116218 4.01532 0
M  V30 2418 N 227.307 0.546154 2.85422 0
M  V30 2419 H 226.854 1.22156 2.26794 0
M  V30 2420 H 226.812 -0.276113 3.13185 0
M  V30 2421 N 230.584 -0.659388 1.43143 0
M  V30 2422 C 231.833 -1.41518 1.43721 0
M  V30 2423 C 232.146 -1.95499 0.0628176 0
M  V30 2424 O 233.352 -2.71446 -0.0539683 0
M  V30 2425 C 231.808 -2.5608 2.52885 0
M  V30 2426 C 231.416 -2.08733 3.96402 0
M  V30 2427 C 233.16 -3.3349 2.62649 0
M  V30 2428 C 231.067 -3.20469 4.97045 0
M  V30 2429 H 229.997 -0.531705 0.534608 0
M  V30 2430 H 232.648 -0.712343 1.69109 0
M  V30 2431 H 231.03 -3.28805 2.20688 0
M  V30 2432 H 232.204 -1.43059 4.3803 0
M  V30 2433 H 230.519 -1.44219 3.90627 0
M  V30 2434 H 233.116 -4.16734 3.35017 0
M  V30 2435 H 233.459 -3.8111 1.67513 0
M  V30 2436 H 233.992 -2.67842 2.94118 0
M  V30 2437 H 230.731 -2.77824 5.93712 0
M  V30 2438 H 230.251 -3.84874 4.60034 0
M  V30 2439 H 231.93 -3.85698 5.19467 0
M  V30 2440 N 232.062 -1.29571 -0.897171 0
M  V30 2441 C 232.992 -1.17473 -2.01798 0
M  V30 2442 C 233.973 -0.068323 -1.69963 0
M  V30 2443 O 235.158 -0.248239 -1.92607 0
M  V30 2444 C 232.288 -0.853099 -3.36659 0
M  V30 2445 C 231.242 -1.9161 -3.82713 0
M  V30 2446 C 230.568 -1.44773 -5.14728 0
M  V30 2447 C 231.868 -3.32535 -4.02763 0
M  V30 2448 H 233.562 -2.11237 -2.12177 0
M  V30 2449 H 231.108 -1.01699 -1.01948 0
M  V30 2450 H 233.061 -0.755165 -4.14578 0
M  V30 2451 H 231.785 0.120236 -3.26379 0
M  V30 2452 H 230.444 -2.00346 -3.07013 0
M  V30 2453 H 230.092 -0.462995 -5.00865 0
M  V30 2454 H 229.792 -2.15865 -5.46513 0
M  V30 2455 H 231.316 -1.36334 -5.95185 0
M  V30 2456 H 232.73 -3.26626 -4.71156 0
M  V30 2457 H 231.127 -4.01607 -4.45905 0
M  V30 2458 H 232.197 -3.75326 -3.07016 0
M  V30 2459 N 233.54 1.10788 -1.12088 0
M  V30 2460 C 234.951 1.64181 -0.88891 0
M  V30 2461 C 235.302 1.87508 0.577498 0
M  V30 2462 O 234.427 1.61434 1.44112 0
M  V30 2463 C 235.022 2.98257 -1.60712 0
M  V30 2464 C 233.581 3.4853 -1.42139 0
M  V30 2465 C 232.728 2.23208 -1.6454 0
M  V30 2466 H 235.679 0.943368 -1.27618 0
M  V30 2467 H 235.7 3.65552 -1.05604 0
M  V30 2468 H 235.212 2.81246 -2.67436 0
M  V30 2469 H 233.313 3.70692 -0.376552 0
M  V30 2470 H 233.426 4.26882 -2.17505 0
M  V30 2471 H 231.79 2.31169 -1.06925 0
M  V30 2472 H 232.573 2.08733 -2.72554 0
M  V30 2473 N 235.018 0.912232 1.28515 0
M  V30 2474 C 236.295 0.463597 1.90027 0
M  V30 2475 C 236.675 -1.05753 1.82701 0
M  V30 2476 O 236.023 -1.90492 1.26194 0
M  V30 2477 C 236.233 0.992253 3.34597 0
M  V30 2478 C 237.581 1.04344 4.11579 0
M  V30 2479 O 238.605 0.94079 3.43551 0
M  V30 2480 O 237.464 1.1995 5.33174 0
M  V30 2481 H 234.558 0.146666 0.813891 0
M  V30 2482 H 237.104 1.00292 1.36893 0
M  V30 2483 H 235.876 2.03623 3.34146 0
M  V30 2484 H 235.499 0.433672 3.95228 0
M  V30 2485 N 236.496 -1.42363 0.676048 0
M  V30 2486 C 237.907 -1.84649 0.275948 0
M  V30 2487 C 238.258 -1.56588 -1.18214 0
M  V30 2488 O 237.383 -1.02634 -1.90513 0
M  V30 2489 C 237.978 -3.35178 0.494053 0
M  V30 2490 C 236.537 -3.76109 0.148061 0
M  V30 2491 C 235.684 -2.65931 0.785891 0
M  V30 2492 H 238.635 -1.32192 0.878121 0
M  V30 2493 H 238.656 -3.79655 -0.25343 0
M  V30 2494 H 238.168 -3.55571 1.55535 0
M  V30 2495 H 236.269 -3.61323 -0.909742 0
M  V30 2496 H 236.382 -4.7546 0.589454 0
M  V30 2497 H 234.746 -2.53773 0.217113 0
M  V30 2498 H 235.529 -2.89146 1.85067 0
M  V30 2499 N 237.974 -0.419461 -1.51915 0
M  V30 2500 C 238.884 0.407528 -2.31033 0
M  V30 2501 C 239.9 1.04413 -1.3919 0
M  V30 2502 O 241.076 1.0434 -1.72265 0
M  V30 2503 C 238.141 1.50365 -3.12396 0
M  V30 2504 C 237.202 0.889029 -4.19994 0
M  V30 2505 C 236.435 1.93291 -4.97468 0
M  V30 2506 O 236.658 3.15259 -4.75361 0
M  V30 2507 O 235.592 1.53339 -5.8204 0
M  V30 2508 H 239.418 -0.237865 -3.02767 0
M  V30 2509 H 237.003 -0.182413 -1.48282 0
M  V30 2510 H 238.885 2.13975 -3.63032 0
M  V30 2511 H 237.56 2.13345 -2.43445 0
M  V30 2512 H 236.467 0.215353 -3.7348 0
M  V30 2513 H 237.8 0.302991 -4.91267 0
M  V30 2514 N 239.452 1.56882 -0.150215 0
M  V30 2515 C 240.399 2.16922 0.788244 0
M  V30 2516 C 241.369 1.10303 1.24187 0
M  V30 2517 O 242.554 1.38359 1.31383 0
M  V30 2518 C 239.694 2.79754 2.02068 0
M  V30 2519 C 238.807 4.00775 1.61257 0
M  V30 2520 C 237.942 4.51595 2.79705 0
M  V30 2521 C 236.981 5.65074 2.35282 0
M  V30 2522 N 236.118 6.10499 3.4675 0
M  V30 2523 H 240.958 2.96779 0.269444 0
M  V30 2524 H 238.495 1.46599 0.12128 0
M  V30 2525 H 240.453 3.14329 2.74323 0
M  V30 2526 H 239.083 2.02536 2.51354 0
M  V30 2527 H 238.135 3.72158 0.787553 0
M  V30 2528 H 239.447 4.82978 1.24633 0
M  V30 2529 H 238.601 4.88242 3.60145 0
M  V30 2530 H 237.34 3.68406 3.19576 0
M  V30 2531 H 236.345 5.28 1.53283 0
M  V30 2532 H 237.57 6.50052 1.96493 0
M  V30 2533 H 235.516 5.30243 3.86236 0
M  V30 2534 H 235.433 6.87637 3.14152 0
M  V30 2535 H 236.701 6.51791 4.27537 0
M  V30 2536 N 240.93 -0.123565 1.57115 0
M  V30 2537 C 241.893 -1.13583 1.99076 0
M  V30 2538 C 242.893 -1.34564 0.880296 0
M  V30 2539 O 244.083 -1.31158 1.14644 0
M  V30 2540 C 241.215 -2.49128 2.32698 0
M  V30 2541 H 242.408 -0.775287 2.89706 0
M  V30 2542 H 239.961 -0.36771 1.51913 0
M  V30 2543 H 240.696 -2.90111 1.44934 0
M  V30 2544 H 240.481 -2.35255 3.13684 0
M  V30 2545 H 241.971 -3.2199 2.65918 0
M  V30 2546 N 242.408 -1.52605 -0.393616 0
M  V30 2547 C 243.355 -1.77055 -1.48054 0
M  V30 2548 C 244.325 -0.61358 -1.54352 0
M  V30 2549 O 245.51 -0.852806 -1.70681 0
M  V30 2550 C 242.65 -1.94108 -2.85335 0
M  V30 2551 C 241.763 -3.21792 -2.88226 0
M  V30 2552 C 240.898 -3.29188 -4.16904 0
M  V30 2553 C 239.937 -4.51013 -4.13828 0
M  V30 2554 N 239.074 -4.55716 -5.34105 0
M  V30 2555 H 243.914 -2.69815 -1.26506 0
M  V30 2556 H 241.451 -1.33683 -0.61379 0
M  V30 2557 H 243.409 -2.01979 -3.65049 0
M  V30 2558 H 242.039 -1.04713 -3.05344 0
M  V30 2559 H 241.091 -3.23015 -2.00911 0
M  V30 2560 H 242.403 -4.11557 -2.8182 0
M  V30 2561 H 241.557 -3.36216 -5.05018 0
M  V30 2562 H 240.296 -2.37389 -4.26026 0
M  V30 2563 H 239.301 -4.44115 -3.24102 0
M  V30 2564 H 240.526 -5.44123 -4.06333 0
M  V30 2565 H 238.472 -3.66807 -5.43865 0
M  V30 2566 H 238.389 -5.39346 -5.29756 0
M  V30 2567 H 239.657 -4.66993 -6.2413 0
M  V30 2568 N 243.887 0.651787 -1.4349 0
M  V30 2569 C 244.835 1.78586 -1.49029 0
M  V30 2570 C 245.829 1.65448 -0.363767 0
M  V30 2571 O 247.035 1.71777 -0.537821 0
M  V30 2572 H 243.41 0.589236 -0.467231 0
M  V30 2573 H 245.381 1.71035 -2.44519 0
M  V30 2574 C 244.13 3.16851 -1.43181 0
M  V30 2575 H 243.453 3.27598 -2.29171 0
M  V30 2576 H 244.893 3.96156 -1.51118 0
M  V30 2577 C 243.352 3.36568 -0.149616 0
M  V30 2578 O 243.882 3.93885 0.788509 0
M  V30 2579 N 242.088 2.90539 -0.0593484 0
M  V30 2580 H 241.635 2.4408 -0.823575 0
M  V30 2581 H 241.593 3.04108 0.797853 0
M  V30 2582 N 245.365 1.30045 0.890287 0
M  V30 2583 C 246.275 1.17885 2.02831 0
M  V30 2584 C 247.291 0.0999609 1.73713 0
M  V30 2585 O 248.467 0.313867 1.98939 0
M  V30 2586 C 245.532 0.866079 3.35708 0
M  V30 2587 C 244.593 2.02979 3.78283 0
M  V30 2588 C 243.826 1.73184 5.0482 0
M  V30 2589 O 244.049 0.657237 5.66601 0
M  V30 2590 O 242.983 2.58267 5.43674 0
M  V30 2591 H 246.809 2.13474 2.16015 0
M  V30 2592 H 244.394 1.09587 1.01543 0
M  V30 2593 H 246.276 0.706623 4.15433 0
M  V30 2594 H 244.951 -0.0599443 3.23644 0
M  V30 2595 H 243.858 2.24454 2.99285 0
M  V30 2596 H 245.191 2.93734 3.94944 0
M  V30 2597 N 246.843 -1.10192 1.12674 0
M  V30 2598 C 247.753 -2.20172 0.810026 0
M  V30 2599 C 248.769 -1.72821 -0.202188 0
M  V30 2600 O 249.945 -2.01369 -0.0351691 0
M  V30 2601 C 247.01 -3.45631 0.272007 0
M  V30 2602 C 246.071 -4.07704 1.34447 0
M  V30 2603 C 245.304 -5.27175 0.832029 0
M  V30 2604 O 245.527 -5.69425 -0.333284 0
M  V30 2605 O 244.461 -5.80168 1.60277 0
M  V30 2606 H 248.287 -2.49701 1.72867 0
M  V30 2607 H 245.872 -1.18977 0.903597 0
M  V30 2608 H 247.754 -4.21394 -0.0230219 0
M  V30 2609 H 246.429 -3.17723 -0.619164 0
M  V30 2610 H 245.336 -3.33614 1.6927 0
M  V30 2611 H 246.669 -4.3982 2.2095 0
M  V30 2612 N 248.321 -0.919034 -1.28029 0
M  V30 2613 C 249.231 -0.416756 -2.30869 0
M  V30 2614 C 250.247 0.498235 -1.66714 0
M  V30 2615 O 251.423 0.383144 -1.97722 0
M  V30 2616 C 248.488 0.330274 -3.45123 0
M  V30 2617 C 247.549 -0.618578 -4.2482 0
M  V30 2618 C 246.782 0.0928959 -5.33619 0
M  V30 2619 O 247.005 1.31375 -5.55065 0
M  V30 2620 O 245.939 -0.574499 -5.99152 0
M  V30 2621 H 249.765 -1.27043 -2.75851 0
M  V30 2622 H 247.35 -0.684052 -1.3282 0
M  V30 2623 H 249.232 0.751972 -4.14636 0
M  V30 2624 H 247.907 1.1597 -3.02213 0
M  V30 2625 H 246.814 -1.08978 -3.57875 0
M  V30 2626 H 248.147 -1.41497 -4.71423 0
M  V30 2627 N 249.799 1.42003 -0.683588 0
M  V30 2628 C 251.215 1.55625 -0.353976 0
M  V30 2629 C 251.415 1.66151 1.14 0
M  V30 2630 O 250.471 1.63329 1.92561 0
M  V30 2631 C 251.784 2.80171 -1.092 0
M  V30 2632 C 253.332 2.93954 -1.07518 0
M  V30 2633 C 253.807 4.21372 -1.79471 0
M  V30 2634 N 255.298 4.28303 -1.76381 0
M  V30 2635 C 256.033 5.25729 -2.28904 0
M  V30 2636 N 255.529 6.29254 -2.89846 0
M  V30 2637 N 257.322 5.17586 -2.19228 0
M  V30 2638 H 249.473 1.33415 -1.6527 0
M  V30 2639 H 251.736 0.64282 -0.696769 0
M  V30 2640 H 251.442 2.78561 -2.14701 0
M  V30 2641 H 251.316 3.7133 -0.662862 0
M  V30 2642 H 253.703 2.95086 -0.028475 0
M  V30 2643 H 253.784 2.04002 -1.54328 0
M  V30 2644 H 253.428 4.21001 -2.84114 0
M  V30 2645 H 253.358 5.10275 -1.30104 0
M  V30 2646 H 255.849 3.54119 -1.31939 0
M  V30 2647 H 256.162 6.99964 -3.27522 0
M  V30 2648 H 254.507 6.29791 -2.93919 0
M  V30 2649 H 257.698 4.35631 -1.71299 0
M  V30 2650 H 257.871 5.93348 -2.60466 0
M  V30 2651 N 251.277 0.427512 1.51691 0
M  V30 2652 C 252.517 -0.141524 2.03909 0
M  V30 2653 C 252.881 -1.40811 1.30523 0
M  V30 2654 O 254.082 -2.05676 1.73063 0
M  V30 2655 C 252.353 -0.364962 3.55532 0
M  V30 2656 S 253.912 -0.898812 4.29496 0
M  V30 2657 H 250.73 -0.0364542 0.710065 0
M  V30 2658 H 253.332 0.584659 1.86553 0
M  V30 2659 H 252.036 0.56336 4.06515 0
M  V30 2660 H 251.567 -1.1185 3.77164 0
M  V30 2661 H 253.582 -2.17747 4.45871 0
M  V30 2662 N 252.755 -1.56801 0.158532 0
M  V30 2663 C 254.002 -1.9649 -0.489679 0
M  V30 2664 C 254.33 -1.04394 -1.6411 0
M  V30 2665 O 253.585 -0.0754401 -1.95555 0
M  V30 2666 C 253.884 -3.4235 -1.02623 0
M  V30 2667 C 253.55 -4.50899 0.00794526 0
M  V30 2668 C 252.212 -4.80312 0.292207 0
M  V30 2669 C 254.564 -5.16333 0.710584 0
M  V30 2670 C 251.892 -5.72461 1.28472 0
M  V30 2671 C 254.244 -6.09553 1.69199 0
M  V30 2672 C 252.908 -6.37339 1.98383 0
M  V30 2673 H 252.178 -0.719009 -0.179186 0
M  V30 2674 H 254.825 -1.8989 0.247798 0
M  V30 2675 H 253.13 -3.45838 -1.84128 0
M  V30 2676 H 254.827 -3.70393 -1.53656 0
M  V30 2677 H 251.417 -4.28015 -0.22379 0
M  V30 2678 H 255.601 -4.93732 0.504174 0
M  V30 2679 H 250.857 -5.92278 1.51714 0
M  V30 2680 H 255.031 -6.59327 2.24189 0
M  V30 2681 H 252.658 -7.08546 2.7544 0
M  V30 2682 N 254.233 0.115231 -1.57178 0
M  V30 2683 C 255.163 1.1423 -2.03651 0
M  V30 2684 C 256.144 1.42967 -0.921655 0
M  V30 2685 O 257.329 1.53343 -1.19162 0
M  V30 2686 C 254.459 2.4675 -2.44401 0
M  V30 2687 C 253.413 2.32467 -3.59365 0
M  V30 2688 C 252.739 3.69984 -3.86026 0
M  V30 2689 C 254.039 1.78203 -4.90959 0
M  V30 2690 H 255.733 0.755749 -2.89705 0
M  V30 2691 H 253.279 0.362093 -1.39373 0
M  V30 2692 H 255.232 3.18854 -2.75517 0
M  V30 2693 H 253.956 2.87302 -1.55322 0
M  V30 2694 H 252.615 1.62811 -3.28463 0
M  V30 2695 H 252.263 4.08028 -2.94147 0
M  V30 2696 H 251.963 3.61279 -4.63412 0
M  V30 2697 H 253.487 4.43587 -4.19599 0
M  V30 2698 H 254.901 2.40128 -5.20587 0
M  V30 2699 H 253.298 1.8031 -5.72371 0
M  V30 2700 H 254.368 0.739876 -4.79222 0
M  V30 2701 N 255.711 1.52812 0.385517 0
M  V30 2702 C 256.939 1.71907 1.15133 0
M  V30 2703 C 257.354 0.439004 1.83625 0
M  V30 2704 O 256.711 -0.586765 1.7281 0
M  V30 2705 C 256.762 2.87099 2.19673 0
M  V30 2706 O 256.483 4.10151 1.53973 0
M  V30 2707 C 257.984 3.17902 3.08955 0
M  V30 2708 H 255.204 0.575479 0.345057 0
M  V30 2709 H 257.748 1.99476 0.45052 0
M  V30 2710 H 255.903 2.61982 2.85384 0
M  V30 2711 H 256.317 4.74514 2.23465 0
M  V30 2712 H 257.791 4.01959 3.7833 0
M  V30 2713 H 258.268 2.3243 3.72657 0
M  V30 2714 H 258.874 3.44871 2.48885 0
M  V30 2715 N 257.189 -0.644168 1.43834 0
M  V30 2716 C 258.119 -1.76814 1.52509 0
M  V30 2717 C 259.1 -1.65823 0.379052 0
M  V30 2718 O 260.285 -1.84781 0.597466 0
M  V30 2719 C 257.415 -3.15288 1.4564 0
M  V30 2720 C 256.369 -3.41053 2.58586 0
M  V30 2721 C 255.695 -4.79421 2.36769 0
M  V30 2722 C 256.995 -3.34902 4.00797 0
M  V30 2723 H 258.689 -1.69812 2.46586 0
M  V30 2724 H 256.235 -0.815542 1.1868 0
M  V30 2725 H 258.188 -3.93681 1.50311 0
M  V30 2726 H 256.912 -3.23043 0.480725 0
M  V30 2727 H 255.571 -2.65035 2.53282 0
M  V30 2728 H 255.219 -4.83863 1.37424 0
M  V30 2729 H 254.919 -4.9762 3.12487 0
M  V30 2730 H 256.443 -5.6006 2.43238 0
M  V30 2731 H 257.857 -4.03218 4.07539 0
M  V30 2732 H 256.254 -3.64637 4.76613 0
M  V30 2733 H 257.324 -2.32928 4.25291 0
M  V30 2734 N 258.668 -1.30515 -0.883378 0
M  V30 2735 C 259.598 -1.19607 -2.00541 0
M  V30 2736 C 260.579 -0.086346 -1.69881 0
M  V30 2737 O 261.764 -0.268654 -1.92333 0
M  V30 2738 C 258.894 -0.888758 -3.35736 0
M  V30 2739 C 257.848 -1.95659 -3.8066 0
M  V30 2740 C 257.174 -1.50224 -5.13164 0
M  V30 2741 C 258.474 -3.36788 -3.99213 0
M  V30 2742 H 260.168 -2.13476 -2.09925 0
M  V30 2743 H 257.714 -1.02775 -1.00863 0
M  V30 2744 H 259.667 -0.799094 -4.13754 0
M  V30 2745 H 258.391 0.0856125 -3.26488 0
M  V30 2746 H 257.05 -2.03591 -3.04871 0
M  V30 2747 H 256.698 -0.516092 -5.00345 0
M  V30 2748 H 256.398 -2.2165 -5.44192 0
M  V30 2749 H 257.922 -1.42639 -5.93706 0
M  V30 2750 H 259.336 -3.31605 -4.67665 0
M  V30 2751 H 257.733 -4.06314 -4.41621 0
M  V30 2752 H 258.803 -3.78561 -3.03017 0
M  V30 2753 N 260.146 1.09593 -1.13257 0
M  V30 2754 C 261.093 2.1618 -0.808381 0
M  V30 2755 C 262.063 1.64517 0.228754 0
M  V30 2756 O 263.248 1.9053 0.101381 0
M  V30 2757 C 260.388 3.43973 -0.278675 0
M  V30 2758 C 259.501 4.09545 -1.37466 0
M  V30 2759 C 258.636 5.25088 -0.803479 0
M  V30 2760 C 257.675 5.82579 -1.87799 0
M  V30 2761 N 256.812 6.89486 -1.32488 0
M  V30 2762 H 261.652 2.43254 -1.72138 0
M  V30 2763 H 259.189 1.19392 -0.859294 0
M  V30 2764 H 261.147 4.17174 0.0465583 0
M  V30 2765 H 259.777 3.17223 0.597459 0
M  V30 2766 H 258.829 3.34226 -1.81652 0
M  V30 2767 H 260.141 4.48307 -2.18684 0
M  V30 2768 H 259.295 6.05178 -0.429427 0
M  V30 2769 H 258.034 4.87684 0.0397956 0
M  V30 2770 H 257.039 5.01152 -2.26113 0
M  V30 2771 H 258.264 6.22045 -2.72463 0
M  V30 2772 H 256.21 6.54064 -0.503575 0
M  V30 2773 H 256.127 7.27007 -2.07355 0
M  V30 2774 H 257.395 7.73336 -0.978336 0
M  V30 2775 N 261.624 0.925811 1.2754 0
M  V30 2776 C 262.572 0.413897 2.28888 0
M  V30 2777 C 263.566 -0.500779 1.61829 0
M  V30 2778 O 264.772 -0.38069 1.75928 0
M  V30 2779 H 261.147 0.115274 0.743112 0
M  V30 2780 H 263.118 1.28151 2.69481 0
M  V30 2781 C 261.867 -0.319792 3.46226 0
M  V30 2782 H 261.19 0.374846 3.98039 0
M  V30 2783 H 262.63 -0.642435 4.19105 0
M  V30 2784 C 261.089 -1.53209 3.00048 0
M  V30 2785 O 261.619 -2.6309 3.03557 0
M  V30 2786 N 259.825 -1.38326 2.55566 0
M  V30 2787 H 259.372 -0.489292 2.5291 0
M  V30 2788 H 259.33 -2.19564 2.25031 0
M  V30 2789 N 263.102 -1.41638 0.69111 0
M  V30 2790 C 264.327 -2.06148 0.227583 0
M  V30 2791 C 264.752 -1.51652 -1.11281 0
M  V30 2792 O 264.11 -0.64164 -1.69566 0
M  V30 2793 C 264.158 -3.60095 0.190858 0
M  V30 2794 O 263.262 -4.03845 -0.835664 0
M  V30 2795 H 262.603 -0.654434 0.112306 0
M  V30 2796 H 265.133 -1.81484 0.944714 0
M  V30 2797 H 265.143 -4.07995 0.020207 0
M  V30 2798 H 263.818 -3.99129 1.16915 0
M  V30 2799 H 262.395 -3.67458 -0.63473 0
M  V30 2800 N 264.58 -0.43555 -1.51462 0
M  V30 2801 C 265.829 0.133007 -2.01261 0
M  V30 2802 C 266.142 1.43942 -1.32439 0
M  V30 2803 O 267.348 2.09081 -1.73198 0
M  V30 2804 C 265.804 0.287581 -3.58749 0
M  V30 2805 C 265.412 -1.00829 -4.36506 0
M  V30 2806 C 267.156 0.810004 -4.167 0
M  V30 2807 C 265.063 -0.819454 -5.85695 0
M  V30 2808 H 263.993 0.0534822 -0.752101 0
M  V30 2809 H 266.644 -0.565038 -1.74584 0
M  V30 2810 H 265.026 1.04859 -3.81865 0
M  V30 2811 H 266.2 -1.77749 -4.25138 0
M  V30 2812 H 264.515 -1.45911 -3.89999 0
M  V30 2813 H 267.112 0.967743 -5.2587 0
M  V30 2814 H 267.455 1.79196 -3.75758 0
M  V30 2815 H 267.988 0.107357 -3.97655 0
M  V30 2816 H 264.727 -1.77374 -6.31046 0
M  V30 2817 H 264.247 -0.0900208 -5.99732 0
M  V30 2818 H 265.926 -0.471949 -6.45276 0
M  V30 2819 N 266.058 1.56714 -0.166846 0
M  V30 2820 C 266.988 2.20754 0.760913 0
M  V30 2821 C 267.969 1.16178 1.24244 0
M  V30 2822 O 269.154 1.44592 1.29641 0
M  V30 2823 C 266.284 2.84478 1.99223 0
M  V30 2824 C 265.238 3.95053 1.64672 0
M  V30 2825 C 264.564 4.45805 2.95232 0
M  V30 2826 C 265.864 5.14865 0.878155 0
M  V30 2827 H 267.558 2.98537 0.22713 0
M  V30 2828 H 265.104 1.43596 0.107805 0
M  V30 2829 H 267.057 3.27951 2.64624 0
M  V30 2830 H 265.781 2.04056 2.55007 0
M  V30 2831 H 264.44 3.52228 1.01641 0
M  V30 2832 H 264.088 3.62181 3.49047 0
M  V30 2833 H 263.788 5.204 2.7287 0
M  V30 2834 H 265.312 4.91962 3.6167 0
M  V30 2835 H 266.726 5.55059 1.43466 0
M  V30 2836 H 265.123 5.95348 0.753738 0
M  V30 2837 H 266.193 4.84735 -0.126377 0
M  V30 2838 N 267.536 -0.106894 1.57237 0
M  V30 2839 C 268.483 -1.13049 2.01217 0
M  V30 2840 C 269.453 -1.40471 0.886403 0
M  V30 2841 O 270.638 -1.52133 1.15153 0
M  V30 2842 C 267.778 -2.4487 2.43172 0
M  V30 2843 C 266.891 -2.24281 3.69218 0
M  V30 2844 C 266.026 -3.49417 4.00101 0
M  V30 2845 C 265.065 -3.24038 5.19294 0
M  V30 2846 N 264.202 -4.41409 5.45988 0
M  V30 2847 H 269.042 -0.748456 2.88448 0
M  V30 2848 H 266.579 -0.358054 1.42676 0
M  V30 2849 H 268.537 -3.21786 2.65537 0
M  V30 2850 H 267.167 -2.80944 1.58967 0
M  V30 2851 H 266.219 -1.38224 3.54398 0
M  V30 2852 H 267.531 -2.01512 4.56283 0
M  V30 2853 H 266.685 -4.34746 4.2318 0
M  V30 2854 H 265.424 -3.75229 3.11535 0
M  V30 2855 H 264.429 -2.37102 4.96047 0
M  V30 2856 H 265.654 -2.99584 6.09447 0
M  V30 2857 H 263.6 -4.67319 4.60379 0
M  V30 2858 H 263.517 -4.21788 6.274 0
M  V30 2859 H 264.785 -5.27836 5.73593 0
M  V30 2860 N 269.014 -1.53014 -0.377408 0
M  V30 2861 C 269.962 -1.7927 -1.48206 0
M  V30 2862 C 270.956 -0.661195 -1.55963 0
M  V30 2863 O 272.162 -0.843908 -1.58991 0
M  V30 2864 H 268.537 -0.567425 -0.493491 0
M  V30 2865 H 270.508 -2.71753 -1.2326 0
M  V30 2866 C 269.257 -1.98894 -2.85196 0
M  V30 2867 H 268.58 -2.85395 -2.79981 0
M  V30 2868 H 270.02 -2.21249 -3.61698 0
M  V30 2869 C 268.479 -0.764691 -3.28107 0
M  V30 2870 O 269.009 0.0523226 -4.01666 0
M  V30 2871 N 267.215 -0.591493 -2.84517 0
M  V30 2872 H 266.762 -1.25749 -2.24822 0
M  V30 2873 H 266.72 0.226253 -3.13585 0
M  V30 2874 N 270.492 0.636531 -1.44174 0
M  V30 2875 C 271.903 1.21806 -1.41493 0
M  V30 2876 C 272.254 1.95785 -0.1275 0
M  V30 2877 O 271.379 2.02147 0.772376 0
M  V30 2878 C 271.974 2.21551 -2.56321 0
M  V30 2879 C 270.533 2.75143 -2.56853 0
M  V30 2880 C 269.68 1.50052 -2.33195 0
M  V30 2881 H 272.631 0.427531 -1.52833 0
M  V30 2882 H 272.652 3.0405 -2.28765 0
M  V30 2883 H 272.164 1.67679 -3.50008 0
M  V30 2884 H 270.265 3.33033 -1.67093 0
M  V30 2885 H 270.378 3.2155 -3.55165 0
M  V30 2886 H 268.742 1.77993 -1.82183 0
M  V30 2887 H 269.525 0.980903 -3.28988 0
M  V30 2888 N 271.97 1.30982 0.876444 0
M  V30 2889 C 272.917 1.18085 1.98304 0
M  V30 2890 C 273.887 0.0682263 1.6596 0
M  V30 2891 O 275.072 0.239937 1.89285 0
M  V30 2892 C 272.212 0.887475 3.33493 0
M  V30 2893 C 271.325 2.08281 3.78475 0
M  V30 2894 C 270.46 1.72678 5.0235 0
M  V30 2895 C 269.499 2.88657 5.39762 0
M  V30 2896 N 268.636 2.53292 6.54819 0
M  V30 2897 H 273.476 2.1275 2.08666 0
M  V30 2898 H 271.013 1.05839 1.02159 0
M  V30 2899 H 272.971 0.697961 4.1132 0
M  V30 2900 H 271.601 -0.022315 3.22792 0
M  V30 2901 H 270.653 2.3833 2.96484 0
M  V30 2902 H 271.965 2.95108 4.02135 0
M  V30 2903 H 271.119 1.50151 5.87826 0
M  V30 2904 H 269.858 0.830327 4.8058 0
M  V30 2905 H 268.863 3.1184 4.52809 0
M  V30 2906 H 270.088 3.79002 5.63502 0
M  V30 2907 H 268.034 1.66163 6.34607 0
M  V30 2908 H 267.951 3.3365 6.7839 0
M  V30 2909 H 269.219 2.34143 7.43503 0
M  V30 2910 N 273.449 -1.08991 1.13837 0
M  V30 2911 C 274.396 -2.15748 0.819835 0
M  V30 2912 C 275.366 -1.64636 -0.220026 0
M  V30 2913 O 276.551 -1.90582 -0.0912757 0
M  V30 2914 C 273.691 -3.4382 0.296913 0
M  V30 2915 C 272.804 -4.0881 1.39636 0
M  V30 2916 C 271.939 -5.24655 0.831314 0
M  V30 2917 C 270.978 -5.81575 1.90886 0
M  V30 2918 N 270.115 -6.88774 1.36142 0
M  V30 2919 H 274.955 -2.42338 1.73426 0
M  V30 2920 H 272.492 -1.18935 0.865613 0
M  V30 2921 H 274.45 -4.17193 -0.0244339 0
M  V30 2922 H 273.08 -3.17535 -0.580628 0
M  V30 2923 H 272.132 -3.33258 1.83422 0
M  V30 2924 H 273.444 -4.47141 2.21058 0
M  V30 2925 H 272.598 -6.04942 0.461515 0
M  V30 2926 H 271.337 -4.87698 -0.013932 0
M  V30 2927 H 270.342 -4.99946 2.28767 0
M  V30 2928 H 271.567 -6.20592 2.75758 0
M  V30 2929 H 269.513 -6.53788 0.538254 0
M  V30 2930 H 269.43 -7.25898 2.11208 0
M  V30 2931 H 270.698 -7.72806 1.01933 0
M  V30 2932 N 274.927 -0.932562 -1.27047 0
M  V30 2933 C 276.173 -0.585913 -1.94778 0
M  V30 2934 C 276.528 0.864142 -1.71902 0
M  V30 2935 O 275.821 1.60894 -1.04037 0
M  V30 2936 C 276.015 -0.853713 -3.47054 0
M  V30 2937 C 275.844 -2.32825 -3.84737 0
M  V30 2938 C 274.614 -2.98184 -4.07939 0
M  V30 2939 C 276.812 -3.30612 -3.93954 0
M  V30 2940 N 274.794 -4.3574 -4.3244 0
M  V30 2941 C 276.165 -4.53395 -4.22887 0
M  V30 2942 C 278.22 -3.25755 -3.76548 0
M  V30 2943 C 276.923 -5.71927 -4.36224 0
M  V30 2944 C 278.949 -4.43604 -3.91113 0
M  V30 2945 C 278.311 -5.65166 -4.20437 0
M  V30 2946 H 274.41 -0.264617 -0.735868 0
M  V30 2947 H 276.994 -1.20019 -1.53309 0
M  V30 2948 H 275.165 -0.268557 -3.8747 0
M  V30 2949 H 276.897 -0.469202 -4.01971 0
M  V30 2950 H 273.652 -2.48835 -4.02961 0
M  V30 2951 H 274.076 -5.06915 -4.48738 0
M  V30 2952 H 278.718 -2.32835 -3.52913 0
M  V30 2953 H 276.436 -6.65308 -4.58683 0
M  V30 2954 H 280.022 -4.41368 -3.79059 0
M  V30 2955 H 278.902 -6.54836 -4.31462 0
M  V30 2956 N 276.405 1.4127 -0.698611 0
M  V30 2957 C 277.633 2.05503 -0.239992 0
M  V30 2958 C 278.048 1.52584 1.11191 0
M  V30 2959 O 277.405 0.675323 1.69545 0
M  V30 2960 C 277.456 3.60987 -0.192429 0
M  V30 2961 O 277.177 4.1195 -1.49094 0
M  V30 2962 C 278.678 4.42371 0.28681 0
M  V30 2963 H 275.898 0.661748 -0.111045 0
M  V30 2964 H 278.442 1.80987 -0.95205 0
M  V30 2965 H 276.597 3.84533 0.470472 0
M  V30 2966 H 277.011 5.06018 -1.38007 0
M  V30 2967 H 278.485 5.51344 0.26896 0
M  V30 2968 H 278.962 4.18699 1.32619 0
M  V30 2969 H 279.568 4.23897 -0.345201 0
M  V30 2970 N 277.883 0.443576 1.51229 0
M  V30 2971 C 278.831 -0.37904 2.29491 0
M  V30 2972 C 279.825 -1.0153 1.35603 0
M  V30 2973 O 281.031 -0.94955 1.52917 0
M  V30 2974 H 277.406 -0.141053 0.738653 0
M  V30 2975 H 279.377 0.301799 2.9687 0
M  V30 2976 C 278.126 -1.46426 3.15364 0
M  V30 2977 H 277.449 -0.984037 3.87501 0
M  V30 2978 H 278.889 -2.01297 3.7317 0
M  V30 2979 C 277.348 -2.45099 2.31146 0
M  V30 2980 O 277.878 -3.49773 1.9754 0
M  V30 2981 N 276.084 -2.16139 1.94249 0
M  V30 2982 H 275.631 -1.31044 2.21777 0
M  V30 2983 H 275.589 -2.82398 1.38198 0
M  V30 2984 N 279.361 -1.56624 0.175154 0
M  V30 2985 C 280.61 -1.96173 -0.468921 0
M  V30 2986 C 280.923 -1.06401 -1.64128 0
M  V30 2987 O 282.129 -1.35648 -2.35185 0
M  V30 2988 C 280.585 -3.48833 -0.885633 0
M  V30 2989 C 280.193 -4.47237 0.261343 0
M  V30 2990 C 281.937 -3.97194 -1.49791 0
M  V30 2991 C 279.844 -5.9114 -0.175214 0
M  V30 2992 H 278.774 -0.732455 -0.178958 0
M  V30 2993 H 281.425 -1.81591 0.263997 0
M  V30 2994 H 279.807 -3.58848 -1.67464 0
M  V30 2995 H 280.981 -4.4894 1.03871 0
M  V30 2996 H 279.296 -4.08956 0.783827 0
M  V30 2997 H 281.893 -5.02167 -1.83665 0
M  V30 2998 H 282.236 -3.40351 -2.39722 0
M  V30 2999 H 282.769 -3.90212 -0.773267 0
M  V30 3000 H 279.508 -6.51865 0.689414 0
M  V30 3001 H 279.028 -5.92735 -0.91786 0
M  V30 3002 H 280.707 -6.44044 -0.617792 0
M  V30 3003 N 280.839 0.0985539 -1.57292 0
M  V30 3004 C 281.802 1.10402 -2.00858 0
M  V30 3005 C 282.802 1.33146 -0.901593 0
M  V30 3006 O 283.992 1.29318 -1.16716 0
M  V30 3007 C 281.124 2.45394 -2.36632 0
M  V30 3008 H 282.317 0.729099 -2.90902 0
M  V30 3009 H 279.87 0.343495 -1.52479 0
M  V30 3010 H 280.605 2.87769 -1.49531 0
M  V30 3011 H 280.39 2.30235 -3.17387 0
M  V30 3012 H 281.88 3.17718 -2.71007 0
M  V30 3013 N 282.317 1.53212 0.369288 0
M  V30 3014 C 283.264 1.79388 1.45219 0
M  V30 3015 C 284.234 0.638059 1.53356 0
M  V30 3016 O 285.419 0.879852 1.69302 0
M  V30 3017 C 282.559 1.98623 2.82211 0
M  V30 3018 C 281.672 3.26337 2.8307 0
M  V30 3019 C 280.807 3.35779 4.11614 0
M  V30 3020 C 279.846 4.5754 4.06601 0
M  V30 3021 N 278.983 4.64155 5.26787 0
M  V30 3022 H 283.823 2.71794 1.22198 0
M  V30 3023 H 281.36 1.34642 0.592444 0
M  V30 3024 H 283.318 2.07761 3.61789 0
M  V30 3025 H 281.948 1.09558 3.03639 0
M  V30 3026 H 281 3.26171 1.95747 0
M  V30 3027 H 282.312 4.15988 2.75237 0
M  V30 3028 H 281.466 3.44208 4.99606 0
M  V30 3029 H 280.205 2.44137 4.22195 0
M  V30 3030 H 279.21 4.49215 3.16996 0
M  V30 3031 H 280.435 5.50519 3.97625 0
M  V30 3032 H 278.381 3.75413 5.3796 0
M  V30 3033 H 278.298 5.47706 5.21109 0
M  V30 3034 H 279.566 4.76863 6.16621 0
M  V30 3035 N 283.795 -0.628877 1.44509 0
M  V30 3036 C 284.742 -1.74074 1.51549 0
M  V30 3037 C 285.712 -1.62084 0.363021 0
M  V30 3038 O 286.897 -1.81975 0.573567 0
M  V30 3039 C 284.037 -3.12328 1.46784 0
M  V30 3040 C 283.15 -3.35277 2.72422 0
M  V30 3041 C 282.285 -4.63515 2.59475 0
M  V30 3042 C 281.324 -4.7965 3.80266 0
M  V30 3043 N 280.461 -5.99168 3.65981 0
M  V30 3044 H 285.301 -1.67392 2.46544 0
M  V30 3045 H 282.838 -0.816527 1.22357 0
M  V30 3046 H 284.796 -3.92286 1.42012 0
M  V30 3047 H 283.426 -3.18018 0.553544 0
M  V30 3048 H 282.478 -2.49242 2.87372 0
M  V30 3049 H 283.79 -3.43078 3.62076 0
M  V30 3050 H 282.944 -5.51638 2.52548 0
M  V30 3051 H 281.683 -4.58076 1.67384 0
M  V30 3052 H 280.688 -3.89957 3.87574 0
M  V30 3053 H 281.913 -4.86902 4.73395 0
M  V30 3054 H 279.859 -5.94814 2.76644 0
M  V30 3055 H 279.776 -6.08035 4.49254 0
M  V30 3056 H 281.044 -6.89846 3.6295 0
M  V30 3057 N 285.273 -1.31445 -0.869486 0
M  V30 3058 C 286.522 -1.20517 -1.61736 0
M  V30 3059 C 286.835 0.235341 -1.94179 0
M  V30 3060 O 288.041 0.466312 -2.67465 0
M  V30 3061 C 286.497 -2.10982 -2.91573 0
M  V30 3062 C 286.105 -3.60032 -2.66611 0
M  V30 3063 C 287.849 -2.08856 -3.69567 0
M  V30 3064 C 285.756 -4.42503 -3.92358 0
M  V30 3065 H 284.686 -0.447493 -0.606849 0
M  V30 3066 H 287.337 -1.56303 -0.96133 0
M  V30 3067 H 285.719 -1.68095 -3.58553 0
M  V30 3068 H 286.893 -4.11167 -2.08035 0
M  V30 3069 H 285.208 -3.64139 -2.0197 0
M  V30 3070 H 287.805 -2.67716 -4.62852 0
M  V30 3071 H 288.148 -1.07582 -4.02159 0
M  V30 3072 H 288.681 -2.49945 -3.09471 0
M  V30 3073 H 285.42 -5.44533 -3.64916 0
M  V30 3074 H 284.94 -3.96125 -4.50383 0
M  V30 3075 H 286.619 -4.54741 -4.60238 0
M  V30 3076 N 286.751 1.08385 -1.14413 0
M  V30 3077 C 288 1.80153 -0.907076 0
M  V30 3078 C 288.313 1.87176 0.567851 0
M  V30 3079 O 289.519 2.55359 0.922172 0
M  V30 3080 C 287.975 3.23687 -1.57336 0
M  V30 3081 C 287.583 3.24897 -3.08457 0
M  V30 3082 C 289.327 4.00136 -1.41744 0
M  V30 3083 C 287.234 4.6302 -3.67921 0
M  V30 3084 H 286.164 0.675139 -0.335714 0
M  V30 3085 H 288.815 1.21733 -1.37307 0
M  V30 3086 H 287.197 3.82234 -1.03505 0
M  V30 3087 H 288.371 2.76055 -3.68958 0
M  V30 3088 H 286.686 2.61943 -3.2369 0
M  V30 3089 H 289.283 5.02201 -1.83572 0
M  V30 3090 H 289.626 4.14709 -0.363576 0
M  V30 3091 H 290.159 3.48058 -1.92614 0
M  V30 3092 H 286.898 4.5365 -4.73161 0
M  V30 3093 H 286.418 5.12143 -3.12201 0
M  V30 3094 H 288.097 5.31994 -3.68227 0
M  V30 3095 N 288.23 0.939286 1.26551 0
M  V30 3096 C 289.478 0.58469 1.93457 0
M  V30 3097 C 289.799 -0.878774 1.74076 0
M  V30 3098 O 289.069 -1.62421 1.09528 0
M  V30 3099 H 287.649 0.21325 0.715914 0
M  V30 3100 H 290.311 1.1942 1.54029 0
M  V30 3101 H 289.407 0.800849 3.0165 0
M  V30 3102 N 289.708 -1.40897 0.706093 0
M  V30 3103 C 290.954 -2.01352 0.241889 0
M  V30 3104 C 291.287 -1.55832 -1.15888 0
M  V30 3105 O 290.562 -0.774145 -1.7843 0
M  V30 3106 C 290.845 -3.58752 0.311311 0
M  V30 3107 C 290.698 -4.1437 1.74978 0
M  V30 3108 C 292.017 -4.38914 -0.322922 0
M  V30 3109 H 289.136 -0.731562 0.0893687 0
M  V30 3110 H 291.778 -1.67504 0.896802 0
M  V30 3111 H 289.928 -3.87718 -0.246302 0
M  V30 3112 H 291.6 -3.96239 2.36205 0
M  V30 3113 H 289.843 -3.69016 2.28057 0
M  V30 3114 H 290.514 -5.23532 1.74981 0
M  V30 3115 H 292.99 -4.15822 0.152089 0
M  V30 3116 H 291.866 -5.48358 -0.243855 0
M  V30 3117 H 292.127 -4.19176 -1.40513 0
M  V30 3118 N 291.186 -0.45159 -1.50991 0
M  V30 3119 C 292.411 0.110667 -2.07105 0
M  V30 3120 C 292.836 1.3446 -1.31538 0
M  V30 3121 O 292.194 1.77743 -0.357365 0
M  V30 3122 C 292.242 0.397238 -3.58405 0
M  V30 3123 O 291.346 1.48124 -3.84881 0
M  V30 3124 H 290.687 -0.00439271 -0.663985 0
M  V30 3125 H 293.217 -0.637026 -1.9443 0
M  V30 3126 H 293.227 0.64351 -4.02893 0
M  V30 3127 H 291.902 -0.504553 -4.12828 0
M  V30 3128 H 290.479 1.22381 -3.52246 0
M  V30 3129 N 292.664 1.56529 -0.183458 0
M  V30 3130 C 293.574 2.22144 0.754272 0
M  V30 3131 C 294.59 1.21684 1.24374 0
M  V30 3132 O 295.766 1.54385 1.29333 0
M  V30 3133 C 292.831 2.85884 1.96141 0
M  V30 3134 C 291.892 4.01579 1.51765 0
M  V30 3135 C 291.125 4.6227 2.66725 0
M  V30 3136 O 291.348 4.21865 3.83909 0
M  V30 3137 O 290.282 5.51936 2.40104 0
M  V30 3138 H 294.108 3.02861 0.225527 0
M  V30 3139 H 291.693 1.49331 0.0453032 0
M  V30 3140 H 293.575 3.26253 2.66715 0
M  V30 3141 H 292.25 2.08154 2.47899 0
M  V30 3142 H 291.157 3.65856 0.781049 0
M  V30 3143 H 292.49 4.80938 1.04686 0
M  V30 3144 N 294.142 -0.090211 1.57342 0
M  V30 3145 C 295.052 -1.12735 2.05738 0
M  V30 3146 C 296.068 -1.43557 0.983231 0
M  V30 3147 O 297.244 -1.54101 1.29672 0
M  V30 3148 C 294.309 -2.42659 2.47624 0
M  V30 3149 C 293.37 -2.18975 3.69254 0
M  V30 3150 C 292.603 -3.42704 4.09133 0
M  V30 3151 O 292.826 -4.51127 3.49057 0
M  V30 3152 O 291.76 -3.32003 5.02053 0
M  V30 3153 H 295.586 -0.746279 2.94388 0
M  V30 3154 H 293.171 -0.303064 1.46294 0
M  V30 3155 H 295.053 -3.19155 2.7517 0
M  V30 3156 H 293.728 -2.80182 1.62109 0
M  V30 3157 H 292.635 -1.40244 3.46818 0
M  V30 3158 H 293.968 -1.86342 4.55563 0
M  V30 3159 N 295.62 -1.53406 -0.361157 0
M  V30 3160 C 296.848 -1.73717 -1.12383 0
M  V30 3161 C 297.263 -0.468161 -1.82904 0
M  V30 3162 O 296.62 0.559198 -1.73722 0
M  V30 3163 C 296.671 -2.90558 -2.15078 0
M  V30 3164 O 296.392 -4.12549 -1.47428 0
M  V30 3165 C 297.893 -3.22777 -3.03858 0
M  V30 3166 H 295.113 -0.580896 -0.335858 0
M  V30 3167 H 297.657 -2.00167 -0.418728 0
M  V30 3168 H 295.812 -2.66489 -2.8118 0
M  V30 3169 H 296.226 -4.78009 -2.15887 0
M  V30 3170 H 297.7 -4.07927 -3.71887 0
M  V30 3171 H 298.177 -2.38329 -3.68912 0
M  V30 3172 H 298.783 -3.48787 -2.43367 0
M  V30 3173 N 297.098 0.621204 -1.44841 0
M  V30 3174 C 298.326 1.40752 -1.51646 0
M  V30 3175 C 298.741 1.88246 -0.144549 0
M  V30 3176 O 298.098 1.61422 0.851416 0
M  V30 3177 C 298.149 2.62119 -2.4895 0
M  V30 3178 O 297.87 2.16602 -3.80808 0
M  V30 3179 C 299.371 3.55135 -2.65319 0
M  V30 3180 H 296.591 0.431325 -0.514004 0
M  V30 3181 H 299.135 0.758835 -1.899 0
M  V30 3182 H 297.29 3.23058 -2.13805 0
M  V30 3183 H 297.704 2.95358 -4.33433 0
M  V30 3184 H 299.178 4.36874 -3.37409 0
M  V30 3185 H 299.655 4.04592 -1.70886 0
M  V30 3186 H 300.261 3.00058 -3.01405 0
M  V30 3187 N 298.576 1.31904 0.862503 0
M  V30 3188 C 299.804 1.24998 1.64873 0
M  V30 3189 C 300.219 -0.183425 1.87907 0
M  V30 3190 O 299.576 -1.11794 1.44251 0
M  V30 3191 C 299.627 1.99829 3.01248 0
M  V30 3192 O 299.348 3.37575 2.79239 0
M  V30 3193 C 300.849 1.99852 3.95694 0
M  V30 3194 H 298.069 0.431599 0.513773 0
M  V30 3195 H 300.613 1.73901 1.07604 0
M  V30 3196 H 298.768 1.54668 3.55185 0
M  V30 3197 H 299.182 3.75776 3.65914 0
M  V30 3198 H 300.656 2.56709 4.88676 0
M  V30 3199 H 301.133 0.982852 4.28062 0
M  V30 3200 H 301.739 2.44926 3.47694 0
M  V30 3201 N 300.054 -1.07777 1.14986 0
M  V30 3202 C 301.302 -1.79934 0.920235 0
M  V30 3203 C 301.623 -1.86955 -0.554336 0
M  V30 3204 O 300.893 -1.36731 -1.40291 0
M  V30 3205 H 299.473 -0.666424 0.337473 0
M  V30 3206 H 302.135 -1.3027 1.44968 0
M  V30 3207 H 301.231 -2.82539 1.32583 0
M  V30 3208 N 301.532 -0.945985 -1.26051 0
M  V30 3209 C 302.778 -0.597002 -1.93814 0
M  V30 3210 C 303.111 0.862484 -1.73997 0
M  V30 3211 O 302.386 1.61769 -1.07986 0
M  V30 3212 C 302.669 -0.945937 -3.47454 0
M  V30 3213 C 302.522 -2.46052 -3.76535 0
M  V30 3214 C 303.841 -0.464785 -4.37639 0
M  V30 3215 H 300.96 -0.218366 -0.703907 0
M  V30 3216 H 303.602 -1.18107 -1.48831 0
M  V30 3217 H 301.752 -0.448902 -3.85898 0
M  V30 3218 H 303.424 -3.03065 -3.47778 0
M  V30 3219 H 301.667 -2.90194 -3.22444 0
M  V30 3220 H 302.338 -2.65517 -4.83947 0
M  V30 3221 H 304.814 -0.891016 -4.06448 0
M  V30 3222 H 303.69 -0.737712 -5.4392 0
M  V30 3223 H 303.951 0.635274 -4.37512 0
M  V30 3224 N 303.011 1.40521 -0.713556 0
M  V30 3225 C 303.941 2.33381 -0.0743864 0
M  V30 3226 C 304.922 1.52784 0.747735 0
M  V30 3227 O 306.107 1.81258 0.697071 0
M  V30 3228 C 303.237 3.36748 0.849598 0
M  V30 3229 C 302.191 4.27793 0.133247 0
M  V30 3230 C 301.517 5.21679 1.17281 0
M  V30 3231 C 302.817 5.12415 -1.01134 0
M  V30 3232 H 304.511 2.87081 -0.850007 0
M  V30 3233 H 302.057 1.38034 -0.410201 0
M  V30 3234 H 304.01 4.00648 1.30612 0
M  V30 3235 H 302.734 2.81439 1.65709 0
M  V30 3236 H 301.393 3.65342 -0.303426 0
M  V30 3237 H 301.041 4.62677 1.9733 0
M  V30 3238 H 300.741 5.83435 0.698397 0
M  V30 3239 H 302.265 5.88456 1.62947 0
M  V30 3240 H 303.679 5.69781 -0.634274 0
M  V30 3241 H 302.076 5.83203 -1.41399 0
M  V30 3242 H 303.146 4.48514 -1.84292 0
M  V30 3243 N 304.489 0.459591 1.5075 0
M  V30 3244 C 305.905 0.113092 1.59199 0
M  V30 3245 C 306.105 -1.37951 1.46874 0
M  V30 3246 O 305.161 -2.15168 1.32132 0
M  V30 3247 C 306.474 0.653043 2.93523 0
M  V30 3248 C 308.022 0.615449 3.0689 0
M  V30 3249 C 308.497 1.13275 4.43771 0
M  V30 3250 N 309.988 1.09167 4.50152 0
M  V30 3251 C 310.723 1.46256 5.54434 0
M  V30 3252 N 310.219 1.90739 6.66026 0
M  V30 3253 N 312.012 1.37932 5.44914 0
M  V30 3254 H 304.163 1.43049 1.57005 0
M  V30 3255 H 306.426 0.590861 0.741341 0
M  V30 3256 H 306.132 1.69822 3.07983 0
M  V30 3257 H 306.006 0.0902132 3.77092 0
M  V30 3258 H 308.393 -0.420793 2.92084 0
M  V30 3259 H 308.474 1.21495 2.25106 0
M  V30 3260 H 308.118 2.16757 4.59324 0
M  V30 3261 H 308.048 0.509576 5.24129 0
M  V30 3262 H 310.539 0.76528 3.7007 0
M  V30 3263 H 310.852 2.17218 7.41644 0
M  V30 3264 H 309.197 1.94683 6.67176 0
M  V30 3265 H 312.388 1.0303 4.56621 0
M  V30 3266 H 312.561 1.67164 6.26067 0
M  V30 3267 N 305.967 -1.56429 0.191757 0
M  V30 3268 C 306.897 -2.21937 -0.725696 0
M  V30 3269 C 307.878 -1.1814 -1.2238 0
M  V30 3270 O 309.063 -1.46636 -1.27325 0
M  V30 3271 C 306.193 -2.87611 -1.94672 0
M  V30 3272 C 305.147 -3.97623 -1.58366 0
M  V30 3273 C 304.473 -4.50446 -2.88102 0
M  V30 3274 C 305.773 -5.16197 -0.796133 0
M  V30 3275 H 307.467 -2.98861 -0.179606 0
M  V30 3276 H 305.013 -1.43749 -0.0849464 0
M  V30 3277 H 306.966 -3.3212 -2.59373 0
M  V30 3278 H 305.69 -2.08087 -2.51728 0
M  V30 3279 H 304.349 -3.53801 -0.960247 0
M  V30 3280 H 303.997 -3.67688 -3.43241 0
M  V30 3281 H 303.697 -5.24675 -2.64556 0
M  V30 3282 H 305.221 -4.97654 -3.53798 0
M  V30 3283 H 306.635 -5.57271 -1.34618 0
M  V30 3284 H 305.032 -5.96471 -0.658928 0
M  V30 3285 H 306.102 -4.84473 0.203478 0
M  V30 3286 N 307.445 0.0818655 -1.57387 0
M  V30 3287 C 308.392 1.09834 -2.0299 0
M  V30 3288 C 309.362 1.39043 -0.908639 0
M  V30 3289 O 310.547 1.50282 -1.17559 0
M  V30 3290 C 307.687 2.40971 -2.47037 0
M  V30 3291 C 306.8 2.18379 -3.7274 0
M  V30 3292 C 305.935 3.43008 -4.0561 0
M  V30 3293 C 304.974 3.15736 -5.24383 0
M  V30 3294 N 304.111 4.32667 -5.52941 0
M  V30 3295 H 308.951 0.702472 -2.89602 0
M  V30 3296 H 306.488 0.33531 -1.43227 0
M  V30 3297 H 308.446 3.1752 -2.70623 0
M  V30 3298 H 307.076 2.78379 -1.63417 0
M  V30 3299 H 306.128 1.32569 -3.56552 0
M  V30 3300 H 307.44 1.94227 -4.59431 0
M  V30 3301 H 306.594 4.27958 -4.30043 0
M  V30 3302 H 305.333 3.70225 -3.17466 0
M  V30 3303 H 304.338 2.2918 -4.99757 0
M  V30 3304 H 305.563 2.8985 -6.14136 0
M  V30 3305 H 303.509 4.59935 -4.67756 0
M  V30 3306 H 303.426 4.11753 -6.34031 0
M  V30 3307 H 304.694 5.18644 -5.81918 0
M  V30 3308 N 308.923 1.53595 0.353017 0
M  V30 3309 C 309.87 1.80919 1.43308 0
M  V30 3310 C 310.84 0.654288 1.5267 0
M  V30 3311 O 312.025 0.897759 1.6836 0
M  V30 3312 C 309.165 2.01605 2.80089 0
M  V30 3313 C 308.278 3.29321 2.79593 0
M  V30 3314 C 307.413 3.40125 4.0803 0
M  V30 3315 C 306.452 4.61826 4.01725 0
M  V30 3316 N 305.589 4.69716 5.21834 0
M  V30 3317 H 310.429 2.73074 1.19308 0
M  V30 3318 H 307.966 1.35263 0.578131 0
M  V30 3319 H 309.924 2.11586 3.59565 0
M  V30 3320 H 308.554 1.12772 3.0246 0
M  V30 3321 H 307.606 3.28229 1.92276 0
M  V30 3322 H 308.918 4.18884 2.70809 0
M  V30 3323 H 308.072 3.49488 4.95927 0
M  V30 3324 H 306.811 2.48601 4.19582 0
M  V30 3325 H 305.816 4.52552 3.12213 0
M  V30 3326 H 307.041 5.54705 3.91764 0
M  V30 3327 H 304.987 3.81097 5.33948 0
M  V30 3328 H 304.904 5.53202 5.1527 0
M  V30 3329 H 306.172 4.83376 6.11529 0
M  V30 3330 N 310.401 -0.613514 1.45168 0
M  V30 3331 C 311.334 -1.73809 1.47871 0
M  V30 3332 C 312.312 -1.59097 0.33568 0
M  V30 3333 O 313.496 -1.8074 0.535299 0
M  V30 3334 C 310.623 -3.11574 1.32813 0
M  V30 3335 C 309.669 -3.4489 2.50905 0
M  V30 3336 S 310.502 -3.40393 4.13392 0
M  V30 3337 C 311.658 -4.80749 4.00789 0
M  V30 3338 H 311.891 -1.71252 2.43023 0
M  V30 3339 H 309.424 -0.789658 1.32679 0
M  V30 3340 H 311.382 -3.91065 1.24812 0
M  V30 3341 H 310.043 -3.11652 0.391418 0
M  V30 3342 H 309.236 -4.45183 2.36279 0
M  V30 3343 H 308.838 -2.72901 2.55736 0
M  V30 3344 H 311.13 -5.7041 3.65567 0
M  V30 3345 H 312.073 -5.00431 5.00974 0
M  V30 3346 H 312.481 -4.56151 3.32545 0
M  V30 3347 N 311.879 -1.3236 -0.855495 0
M  V30 3348 C 313.156 -1.13491 -1.59309 0
M  V30 3349 C 313.536 0.30503 -2.08885 0
M  V30 3350 O 312.884 1.30151 -1.87811 0
M  V30 3351 C 313.094 -2.16176 -2.73987 0
M  V30 3352 C 314.442 -2.49463 -3.43589 0
M  V30 3353 O 315.466 -2.14715 -2.84211 0
M  V30 3354 O 314.325 -3.09027 -4.50738 0
M  V30 3355 H 311.419 -0.437887 -0.701559 0
M  V30 3356 H 313.965 -1.43887 -0.899696 0
M  V30 3357 H 312.737 -3.1297 -2.34873 0
M  V30 3358 H 312.36 -1.86769 -3.51003 0
M  V30 3359 N 313.357 1.07166 -1.15556 0
M  V30 3360 C 314.304 2.14417 -0.854055 0
M  V30 3361 C 315.274 1.64965 0.193806 0
M  V30 3362 O 316.459 1.90703 0.0609443 0
M  V30 3363 C 313.599 3.43304 -0.351574 0
M  V30 3364 C 312.712 4.06537 -1.46123 0
M  V30 3365 C 311.847 5.23266 -0.914677 0
M  V30 3366 C 310.886 5.78464 -2.00114 0
M  V30 3367 N 310.023 6.86521 -1.47083 0
M  V30 3368 H 314.863 2.39548 -1.77259 0
M  V30 3369 H 312.4 1.17543 -0.884425 0
M  V30 3370 H 314.358 4.17179 -0.0419409 0
M  V30 3371 H 312.988 3.18419 0.530037 0
M  V30 3372 H 312.04 3.30297 -1.88701 0
M  V30 3373 H 313.352 4.43567 -2.28144 0
M  V30 3374 H 312.506 6.04131 -0.557698 0
M  V30 3375 H 311.245 4.87658 -0.0636583 0
M  V30 3376 H 310.25 4.96243 -2.36692 0
M  V30 3377 H 311.475 6.16126 -2.85597 0
M  V30 3378 H 309.421 6.52849 -0.642198 0
M  V30 3379 H 309.338 7.22446 -2.22729 0
M  V30 3380 H 310.606 7.71087 -1.14215 0
M  V30 3381 N 314.835 0.952656 1.25548 0
M  V30 3382 C 315.767 0.428609 2.25157 0
M  V30 3383 C 316.78 -0.454428 1.56329 0
M  V30 3384 O 317.969 -0.263023 1.76552 0
M  V30 3385 C 315.069 -0.401972 3.36508 0
M  V30 3386 C 314.242 0.467601 4.34893 0
M  V30 3387 C 313.301 -0.30445 5.25319 0
M  V30 3388 O 312.327 0.296473 5.68427 0
M  V30 3389 N 313.529 -1.59805 5.5807 0
M  V30 3390 H 316.294 1.28497 2.70756 0
M  V30 3391 H 313.855 0.822798 1.39433 0
M  V30 3392 H 315.847 -0.926134 3.9396 0
M  V30 3393 H 314.417 -1.15918 2.90313 0
M  V30 3394 H 313.637 1.17288 3.76347 0
M  V30 3395 H 314.925 1.06119 4.97611 0
M  V30 3396 H 314.323 -2.10823 5.24948 0
M  V30 3397 H 312.88 -2.06822 6.18116 0
M  V30 3398 N 316.313 -1.40141 0.720998 0
M  V30 3399 C 317.261 -2.3252 0.0608547 0
M  V30 3400 C 318.255 -1.52326 -0.741152 0
M  V30 3401 O 319.461 -1.68089 -0.643911 0
M  V30 3402 H 315.836 -0.751999 0.000876664 0
M  V30 3403 H 317.807 -2.8584 0.856614 0
M  V30 3404 C 316.556 -3.37331 -0.842809 0
M  V30 3405 H 315.879 -3.99108 -0.235084 0
M  V30 3406 H 317.319 -4.04452 -1.27257 0
M  V30 3407 C 315.778 -2.73246 -1.97074 0
M  V30 3408 O 316.308 -2.59998 -3.06209 0
M  V30 3409 N 314.514 -2.31547 -1.75597 0
M  V30 3410 H 314.061 -2.42522 -0.868368 0
M  V30 3411 H 314.019 -1.89007 -2.51244 0
M  V30 3412 N 317.792 -0.46758 -1.50504 0
M  V30 3413 C 318.702 0.33382 -2.32213 0
M  V30 3414 C 319.718 0.999323 -1.42441 0
M  V30 3415 O 320.894 0.988068 -1.75497 0
M  V30 3416 C 317.959 1.4035 -3.17022 0
M  V30 3417 C 317.02 0.754961 -4.2261 0
M  V30 3418 C 316.253 1.77367 -5.03365 0
M  V30 3419 O 316.476 2.99976 -4.8515 0
M  V30 3420 O 315.41 1.34744 -5.86624 0
M  V30 3421 H 319.236 -0.334067 -3.01857 0
M  V30 3422 H 316.821 -0.229496 -1.47627 0
M  V30 3423 H 318.703 2.02318 -3.69656 0
M  V30 3424 H 317.378 2.05492 -2.5011 0
M  V30 3425 H 316.285 0.0964244 -3.73976 0
M  V30 3426 H 317.618 0.146545 -4.91982 0
M  V30 3427 N 319.27 1.56325 -0.20005 0
M  V30 3428 C 320.2 2.22318 0.713916 0
M  V30 3429 C 321.181 1.18788 1.21752 0
M  V30 3430 O 322.366 1.47309 1.26545 0
M  V30 3431 C 319.496 2.88639 1.93144 0
M  V30 3432 C 318.45 3.98457 1.56255 0
M  V30 3433 C 317.776 4.51967 2.85709 0
M  V30 3434 C 319.076 5.16612 0.768747 0
M  V30 3435 H 320.77 2.98952 0.163755 0
M  V30 3436 H 318.316 1.43792 0.0773219 0
M  V30 3437 H 320.269 3.33491 2.57608 0
M  V30 3438 H 318.993 2.09419 2.50621 0
M  V30 3439 H 317.652 3.54305 0.941471 0
M  V30 3440 H 317.3 3.69503 3.41287 0
M  V30 3441 H 317 5.26071 2.6177 0
M  V30 3442 H 318.524 4.99523 3.51154 0
M  V30 3443 H 319.938 5.57977 1.3166 0
M  V30 3444 H 318.335 5.96812 0.627286 0
M  V30 3445 H 319.405 4.84358 -0.229168 0
M  V30 3446 N 320.748 -0.0735177 1.57428 0
M  V30 3447 C 321.678 -1.0879 2.06608 0
M  V30 3448 C 322.659 -1.40473 0.959237 0
M  V30 3449 O 323.844 -1.5013 1.23185 0
M  V30 3450 C 320.974 -2.40183 2.50857 0
M  V30 3451 C 319.928 -2.22858 3.65402 0
M  V30 3452 C 319.254 -3.59619 3.957 0
M  V30 3453 C 320.554 -1.65123 4.95511 0
M  V30 3454 H 322.248 -0.678673 2.91607 0
M  V30 3455 H 319.794 -0.325013 1.40284 0
M  V30 3456 H 321.747 -3.11437 2.83874 0
M  V30 3457 H 320.471 -2.83083 1.62885 0
M  V30 3458 H 319.13 -1.54045 3.32664 0
M  V30 3459 H 318.778 -4.00086 3.04861 0
M  V30 3460 H 318.478 -3.48866 4.72828 0
M  V30 3461 H 320.002 -4.32306 4.31212 0
M  V30 3462 H 321.416 -2.26241 5.26771 0
M  V30 3463 H 319.813 -1.65071 5.7695 0
M  V30 3464 H 320.883 -0.612559 4.81015 0
M  V30 3465 N 322.226 -1.5378 -0.344866 0
M  V30 3466 C 323.473 -1.70963 -1.08526 0
M  V30 3467 C 323.801 -0.472126 -1.88683 0
M  V30 3468 O 323.056 0.546116 -1.87926 0
M  V30 3469 C 323.355 -2.92407 -2.05506 0
M  V30 3470 C 323.021 -4.28066 -1.41671 0
M  V30 3471 C 321.683 -4.64951 -1.2399 0
M  V30 3472 C 324.035 -5.12344 -0.956726 0
M  V30 3473 C 321.363 -5.83733 -0.589277 0
M  V30 3474 C 323.715 -6.3179 -0.320015 0
M  V30 3475 C 322.379 -6.67372 -0.130881 0
M  V30 3476 H 321.649 -0.625598 -0.397124 0
M  V30 3477 H 324.296 -1.87995 -0.36469 0
M  V30 3478 H 322.601 -2.69973 -2.8394 0
M  V30 3479 H 324.298 -3.02895 -2.62784 0
M  V30 3480 H 320.888 -3.99034 -1.56429 0
M  V30 3481 H 325.072 -4.8438 -1.08118 0
M  V30 3482 H 320.328 -6.09877 -0.431344 0
M  V30 3483 H 324.502 -6.96386 0.0445072 0
M  V30 3484 H 322.129 -7.59273 0.375318 0
M  V30 3485 N 323.704 0.605807 -1.45491 0
M  V30 3486 C 324.932 1.39136 -1.5313 0
M  V30 3487 C 325.347 1.88082 -0.164507 0
M  V30 3488 O 324.704 1.62316 0.834247 0
M  V30 3489 C 324.755 2.59463 -2.51716 0
M  V30 3490 O 324.476 2.12551 -3.83084 0
M  V30 3491 C 325.977 3.52301 -2.6907 0
M  V30 3492 H 323.197 0.425849 -0.51855 0
M  V30 3493 H 325.741 0.73865 -1.90694 0
M  V30 3494 H 323.896 3.20772 -2.17219 0
M  V30 3495 H 324.31 2.90744 -4.36541 0
M  V30 3496 H 325.784 4.33271 -3.42024 0
M  V30 3497 H 326.261 4.02757 -1.75167 0
M  V30 3498 H 326.867 2.96845 -3.04571 0
M  V30 3499 N 325.182 1.32811 0.848464 0
M  V30 3500 C 326.145 1.22194 1.9391 0
M  V30 3501 C 327.145 0.143404 1.60159 0
M  V30 3502 O 328.335 0.394253 1.6968 0
M  V30 3503 C 325.467 0.88067 3.29328 0
M  V30 3504 H 326.66 2.19127 2.04752 0
M  V30 3505 H 324.213 1.16731 1.0394 0
M  V30 3506 H 324.948 -0.0865776 3.24184 0
M  V30 3507 H 324.733 1.66052 3.55203 0
M  V30 3508 H 326.223 0.830871 4.09251 0
M  V30 3509 N 326.66 -1.06551 1.16123 0
M  V30 3510 C 327.909 -1.78687 0.935622 0
M  V30 3511 C 328.222 -1.88056 -0.538001 0
M  V30 3512 O 329.428 -2.56794 -0.88143 0
M  V30 3513 C 327.884 -3.21143 1.62466 0
M  V30 3514 C 327.492 -3.19949 3.13587 0
M  V30 3515 C 329.236 -3.9783 1.48092 0
M  V30 3516 C 327.143 -4.57108 3.75241 0
M  V30 3517 H 326.073 -0.669712 0.346412 0
M  V30 3518 H 328.724 -1.19534 1.39226 0
M  V30 3519 H 327.106 -3.80539 1.09572 0
M  V30 3520 H 328.28 -2.70151 3.73303 0
M  V30 3521 H 326.595 -2.5676 3.27816 0
M  V30 3522 H 329.192 -4.99217 1.91538 0
M  V30 3523 H 329.535 -4.14078 0.429507 0
M  V30 3524 H 330.068 -3.4495 1.98127 0
M  V30 3525 H 326.807 -4.46065 4.80319 0
M  V30 3526 H 326.327 -5.07111 3.20309 0
M  V30 3527 H 328.006 -5.26069 3.76644 0
M  V30 3528 N 328.138 -0.959301 -1.25041 0
M  V30 3529 C 329.086 -0.474437 -2.2771 0
M  V30 3530 C 330.08 0.457697 -1.631 0
M  V30 3531 O 331.286 0.333912 -1.76876 0
M  V30 3532 H 327.661 -0.134936 -0.739795 0
M  V30 3533 H 329.632 -1.35251 -2.65988 0
M  V30 3534 C 328.381 0.227884 -3.46952 0
M  V30 3535 H 327.704 -0.480248 -3.96905 0
M  V30 3536 H 329.144 0.531091 -4.20661 0
M  V30 3537 C 327.603 1.452 -3.04004 0
M  V30 3538 O 328.133 2.54949 -3.10426 0
M  V30 3539 N 326.339 1.31502 -2.59144 0
M  V30 3540 H 325.886 0.422065 -2.54119 0
M  V30 3541 H 325.844 2.13521 -2.30773 0
M  V30 3542 N 329.616 1.39756 -0.72842 0
M  V30 3543 C 330.862 2.00942 -0.273892 0
M  V30 3544 C 331.195 1.57656 1.13394 0
M  V30 3545 O 330.47 0.802434 1.77176 0
M  V30 3546 C 330.753 3.58211 -0.368346 0
M  V30 3547 C 330.606 4.11534 -1.81548 0
M  V30 3548 C 331.925 4.39372 0.253054 0
M  V30 3549 H 329.044 0.730047 -0.100996 0
M  V30 3550 H 331.686 1.66056 -0.923337 0
M  V30 3551 H 329.836 3.88061 0.184588 0
M  V30 3552 H 331.508 3.92431 -2.42478 0
M  V30 3553 H 329.751 3.65341 -2.33898 0
M  V30 3554 H 330.422 5.20682 -1.83288 0
M  V30 3555 H 332.898 4.15527 -0.218224 0
M  V30 3556 H 331.774 5.48677 0.156585 0
M  V30 3557 H 332.035 4.21358 1.33826 0
M  V30 3558 N 331.094 0.475555 1.50254 0
M  V30 3559 C 332.042 -0.330276 2.30243 0
M  V30 3560 C 333.036 -0.986306 1.37726 0
M  V30 3561 O 334.242 -0.9169 1.54897 0
M  V30 3562 H 330.617 -0.125353 0.741479 0
M  V30 3563 H 332.588 0.364702 2.96163 0
M  V30 3564 C 331.337 -1.39704 3.18399 0
M  V30 3565 H 330.66 -0.901621 3.89501 0
M  V30 3566 H 332.1 -1.93336 3.77355 0
M  V30 3567 C 330.559 -2.4014 2.36293 0
M  V30 3568 O 331.089 -3.45504 2.04914 0
M  V30 3569 N 329.295 -2.1197 1.98789 0
M  V30 3570 H 328.842 -1.2631 2.24507 0
M  V30 3571 H 328.8 -2.79403 1.44157 0
M  V30 3572 N 332.573 -1.56217 0.208337 0
M  V30 3573 C 333.85 -1.89739 -0.475234 0
M  V30 3574 C 334.23 -1.1238 -1.78701 0
M  V30 3575 O 333.578 -0.228979 -2.2735 0
M  V30 3576 C 333.788 -3.42289 -0.681101 0
M  V30 3577 C 335.136 -4.12789 -0.994507 0
M  V30 3578 O 336.16 -3.47814 -0.768357 0
M  V30 3579 O 335.019 -5.27649 -1.42299 0
M  V30 3580 H 332.113 -0.788478 -0.249461 0
M  V30 3581 H 334.659 -1.67855 0.249538 0
M  V30 3582 H 333.431 -3.90534 0.244722 0
M  V30 3583 H 333.054 -3.69909 -1.45785 0
M  V30 3584 N 334.051 0.0651679 -1.57465 0
M  V30 3585 C 335.014 1.06117 -2.03155 0
M  V30 3586 C 336.014 1.31204 -0.929632 0
M  V30 3587 O 337.204 1.26813 -1.19432 0
M  V30 3588 C 334.336 2.4032 -2.41783 0
M  V30 3589 H 335.529 0.667231 -2.92383 0
M  V30 3590 H 333.082 0.311075 -1.53173 0
M  V30 3591 H 333.817 2.84532 -1.55601 0
M  V30 3592 H 333.602 2.23451 -3.22199 0
M  V30 3593 H 335.092 3.11898 -2.77685 0
M  V30 3594 N 335.529 1.53961 0.336706 0
M  V30 3595 C 336.775 1.7179 1.07777 0
M  V30 3596 C 337.108 0.483263 1.88091 0
M  V30 3597 O 336.383 -0.519747 1.87427 0
M  V30 3598 C 336.666 2.98558 2.01334 0
M  V30 3599 C 336.519 4.32245 1.24437 0
M  V30 3600 C 337.838 3.21023 3.01052 0
M  V30 3601 H 334.957 0.625089 0.390426 0
M  V30 3602 H 337.599 1.86641 0.35567 0
M  V30 3603 H 335.749 2.86028 2.62908 0
M  V30 3604 H 337.421 4.56637 0.654243 0
M  V30 3605 H 335.664 4.30344 0.546458 0
M  V30 3606 H 336.335 5.17137 1.93063 0
M  V30 3607 H 338.811 3.32929 2.49595 0
M  V30 3608 H 337.687 4.11104 3.6371 0
M  V30 3609 H 337.948 2.37637 3.72802 0
M  V30 3610 N 337.007 -0.598083 1.45811 0
M  V30 3611 C 338.235 -1.38322 1.53866 0
M  V30 3612 C 338.65 -1.87992 0.174479 0
M  V30 3613 O 338.007 -1.62756 -0.825627 0
M  V30 3614 C 338.058 -2.58125 2.53089 0
M  V30 3615 O 337.779 -2.10516 3.84206 0
M  V30 3616 C 339.28 -3.50869 2.70935 0
M  V30 3617 H 336.5 -0.423093 0.520801 0
M  V30 3618 H 339.044 -0.728527 1.91083 0
M  V30 3619 H 337.199 -3.19615 2.18917 0
M  V30 3620 H 337.613 -2.88425 4.38077 0
M  V30 3621 H 339.087 -4.31451 3.44317 0
M  V30 3622 H 339.564 -4.01822 1.77301 0
M  V30 3623 H 340.17 -2.95225 3.06141 0
M  V30 3624 N 338.485 -1.33259 -0.841409 0
M  V30 3625 C 339.432 -1.23302 -1.95103 0
M  V30 3626 C 340.402 -0.112204 -1.65721 0
M  V30 3627 O 341.587 -0.290038 -1.88583 0
M  V30 3628 C 338.727 -0.975583 -3.31023 0
M  V30 3629 C 337.84 -2.18243 -3.72819 0
M  V30 3630 C 336.975 -1.85936 -4.97595 0
M  V30 3631 C 336.014 -3.02866 -5.3192 0
M  V30 3632 N 335.151 -2.70565 -6.47873 0
M  V30 3633 H 339.991 -2.18207 -2.02952 0
M  V30 3634 H 337.528 -1.0851 -0.993173 0
M  V30 3635 H 339.486 -0.80677 -4.09325 0
M  V30 3636 H 338.116 -0.0632755 -3.22738 0
M  V30 3637 H 337.168 -2.46107 -2.90061 0
M  V30 3638 H 338.48 -3.05666 -3.94169 0
M  V30 3639 H 337.634 -1.65684 -5.83638 0
M  V30 3640 H 336.373 -0.957452 -4.78209 0
M  V30 3641 H 335.378 -3.23736 -4.44382 0
M  V30 3642 H 336.603 -3.93809 -5.53255 0
M  V30 3643 H 334.549 -1.8293 -6.29978 0
M  V30 3644 H 334.466 -3.51519 -6.69306 0
M  V30 3645 H 335.734 -2.53774 -7.37034 0
M  V30 3646 N 339.963 1.05934 -1.16686 0
M  V30 3647 C 340.895 2.13468 -0.834503 0
M  V30 3648 C 341.908 1.62013 0.15984 0
M  V30 3649 O 343.097 1.7838 -0.0654228 0
M  V30 3650 C 340.197 3.3817 -0.222361 0
M  V30 3651 C 339.37 4.18928 -1.25771 0
M  V30 3652 C 338.429 5.21985 -0.664703 0
M  V30 3653 O 337.455 5.53334 -1.33453 0
M  V30 3654 N 338.657 5.77919 0.546834 0
M  V30 3655 H 341.422 2.42578 -1.75999 0
M  V30 3656 H 338.983 1.21967 -1.06469 0
M  V30 3657 H 340.975 4.04266 0.187472 0
M  V30 3658 H 339.545 3.06655 0.606758 0
M  V30 3659 H 338.765 3.48433 -1.84358 0
M  V30 3660 H 340.053 4.69687 -1.95631 0
M  V30 3661 H 339.451 5.54721 1.10912 0
M  V30 3662 H 338.008 6.45573 0.898829 0
M  V30 3663 N 341.441 0.965919 1.2453 0
M  V30 3664 C 342.388 0.49402 2.25451 0
M  V30 3665 C 343.358 -0.45948 1.59618 0
M  V30 3666 O 344.543 -0.370238 1.87173 0
M  V30 3667 C 341.683 -0.211359 3.44452 0
M  V30 3668 C 340.796 0.7807 4.24887 0
M  V30 3669 C 339.931 0.0516105 5.31175 0
M  V30 3670 C 338.97 1.03385 6.03306 0
M  V30 3671 N 338.107 0.334887 7.01301 0
M  V30 3672 H 342.947 1.35946 2.65184 0
M  V30 3673 H 340.484 0.681515 1.3036 0
M  V30 3674 H 342.442 -0.637 4.12308 0
M  V30 3675 H 341.072 -1.04077 3.05562 0
M  V30 3676 H 340.124 1.32479 3.56586 0
M  V30 3677 H 341.436 1.52978 4.74762 0
M  V30 3678 H 340.59 -0.432114 6.05159 0
M  V30 3679 H 339.329 -0.730179 4.82203 0
M  V30 3680 H 338.334 1.52847 5.28127 0
M  V30 3681 H 339.559 1.81606 6.54367 0
M  V30 3682 H 337.505 -0.427959 6.54603 0
M  V30 3683 H 337.422 1.02287 7.49048 0
M  V30 3684 H 338.69 -0.126928 7.79397 0
M  V30 3685 N 342.919 -1.39368 0.735821 0
M  V30 3686 C 344.149 -2.04498 0.293967 0
M  V30 3687 C 344.557 -1.55593 -1.07645 0
M  V30 3688 O 343.9 -0.716324 -1.69158 0
M  V30 3689 C 343.962 -3.58836 0.218342 0
M  V30 3690 C 343.626 -4.30721 1.52736 0
M  V30 3691 C 344.623 -4.57305 2.47322 0
M  V30 3692 C 342.308 -4.69251 1.79189 0
M  V30 3693 C 344.302 -5.21429 3.66593 0
M  V30 3694 C 341.989 -5.33104 2.98737 0
M  V30 3695 C 342.987 -5.59125 3.9226 0
M  V30 3696 O 342.675 -6.21653 5.09708 0
M  V30 3697 H 342.407 -0.664118 0.126189 0
M  V30 3698 H 344.961 -1.79385 1.00051 0
M  V30 3699 H 343.191 -3.8285 -0.544314 0
M  V30 3700 H 344.88 -4.05447 -0.191626 0
M  V30 3701 H 345.646 -4.27983 2.28156 0
M  V30 3702 H 341.525 -4.48354 1.07239 0
M  V30 3703 H 345.069 -5.41656 4.39607 0
M  V30 3704 H 340.966 -5.61846 3.17803 0
M  V30 3705 H 341.734 -6.40146 5.10054 0
M  V30 3706 N 344.397 -0.483516 -1.5 0
M  V30 3707 C 345.674 0.129337 -1.95172 0
M  V30 3708 C 346.054 1.55802 -1.4244 0
M  V30 3709 O 345.402 2.19625 -0.630649 0
M  V30 3710 C 345.612 0.0599251 -3.48949 0
M  V30 3711 C 346.96 0.242617 -4.23906 0
M  V30 3712 O 347.984 0.135933 -3.55941 0
M  V30 3713 O 346.843 0.459454 -5.44565 0
M  V30 3714 H 343.937 0.104887 -0.820322 0
M  V30 3715 H 346.483 -0.544807 -1.60717 0
M  V30 3716 H 345.255 -0.937079 -3.79914 0
M  V30 3717 H 344.878 0.774984 -3.89974 0
M  V30 3718 N 345.875 1.56104 -0.216619 0
M  V30 3719 C 346.823 2.21434 0.712036 0
M  V30 3720 C 347.817 1.19218 1.20348 0
M  V30 3721 O 349.023 1.3731 1.16387 0
M  V30 3722 H 345.398 0.70992 0.248026 0
M  V30 3723 H 347.369 2.98083 0.137558 0
M  V30 3724 C 346.118 2.90434 1.91163 0
M  V30 3725 H 345.441 3.68842 1.54258 0
M  V30 3726 H 346.881 3.39552 2.5393 0
M  V30 3727 C 345.34 1.92635 2.76394 0
M  V30 3728 O 345.87 1.44017 3.74996 0
M  V30 3729 N 344.076 1.60392 2.42328 0
M  V30 3730 H 343.623 2.00122 1.622 0
M  V30 3731 H 343.581 0.952159 2.99635 0
M  V30 3732 N 347.353 -0.0568162 1.57498 0
M  V30 3733 C 348.599 -0.75422 1.88253 0
M  V30 3734 C 348.932 -1.76461 0.810865 0
M  V30 3735 O 348.207 -1.93691 -0.177259 0
M  V30 3736 C 348.49 -1.44878 3.2967 0
M  V30 3737 C 348.343 -0.453789 4.47505 0
M  V30 3738 C 349.662 -2.38994 3.69554 0
M  V30 3739 H 346.781 -0.272724 0.684683 0
M  V30 3740 H 349.423 -0.0172113 1.89992 0
M  V30 3741 H 347.573 -2.077 3.28318 0
M  V30 3742 H 349.245 0.170371 4.60985 0
M  V30 3743 H 347.488 0.229552 4.33192 0
M  V30 3744 H 348.159 -0.977699 5.43273 0
M  V30 3745 H 350.635 -1.86239 3.72095 0
M  V30 3746 H 349.511 -2.84587 4.69363 0
M  V30 3747 H 349.772 -3.24461 3.00296 0
M  V30 3748 N 348.832 -1.54138 -0.328536 0
M  V30 3749 C 350.062 -1.75807 -1.08516 0
M  V30 3750 C 350.47 -0.50428 -1.82356 0
M  V30 3751 O 349.813 0.534451 -1.75754 0
M  V30 3752 C 349.875 -2.89423 -2.13248 0
M  V30 3753 C 349.539 -4.28504 -1.5885 0
M  V30 3754 C 350.536 -5.09536 -1.03289 0
M  V30 3755 C 348.221 -4.75034 -1.63243 0
M  V30 3756 C 350.215 -6.35206 -0.52845 0
M  V30 3757 C 347.902 -6.00672 -1.12411 0
M  V30 3758 C 348.9 -6.80592 -0.573062 0
M  V30 3759 O 348.588 -8.03867 -0.0723692 0
M  V30 3760 H 348.32 -0.590633 -0.328829 0
M  V30 3761 H 350.874 -2.01819 -0.381868 0
M  V30 3762 H 349.104 -2.5897 -2.87178 0
M  V30 3763 H 350.793 -2.98921 -2.74592 0
M  V30 3764 H 351.559 -4.74745 -0.99206 0
M  V30 3765 H 347.438 -4.12875 -2.05074 0
M  V30 3766 H 350.982 -6.97532 -0.0976774 0
M  V30 3767 H 346.879 -6.34955 -1.162 0
M  V30 3768 H 347.647 -8.18283 -0.188258 0
M  V30 3769 N 350.31 0.590341 -1.46126 0
M  V30 3770 C 351.558 1.34616 -1.50742 0
M  V30 3771 C 351.879 1.94363 -0.157486 0
M  V30 3772 O 351.149 1.78136 0.815136 0
M  V30 3773 H 349.729 0.499789 -0.555175 0
M  V30 3774 H 352.391 0.691953 -1.82203 0
M  V30 3775 H 351.487 2.15678 -2.25587 0
M  V30 3776 N 351.788 1.33704 0.83433 0
M  V30 3777 C 353.028 1.26754 1.60352 0
M  V30 3778 C 353.392 -0.163182 1.91305 0
M  V30 3779 O 354.593 -0.3567 2.66423 0
M  V30 3780 C 352.864 2.12262 2.8754 0
M  V30 3781 S 354.423 2.22549 3.78176 0
M  V30 3782 H 351.241 0.450879 0.549753 0
M  V30 3783 H 353.843 1.68788 0.986444 0
M  V30 3784 H 352.547 3.15238 2.62779 0
M  V30 3785 H 352.078 1.71082 3.54252 0
M  V30 3786 H 354.093 1.3899 4.76336 0
M  V30 3787 N 353.266 -1.05314 1.17247 0
M  V30 3788 C 354.682 -1.30452 0.919473 0
M  V30 3789 C 354.882 -1.9703 -0.42209 0
M  V30 3790 O 353.938 -2.24311 -1.15935 0
M  V30 3791 C 355.251 -2.17551 2.07586 0
M  V30 3792 C 356.799 -2.30937 2.11275 0
M  V30 3793 C 357.274 -3.21396 3.26296 0
M  V30 3794 N 358.765 -3.28981 3.26076 0
M  V30 3795 C 359.5 -3.99095 4.11716 0
M  V30 3796 N 358.996 -4.71648 5.07465 0
M  V30 3797 N 360.789 -3.95247 3.9967 0
M  V30 3798 H 352.94 -0.604988 2.03602 0
M  V30 3799 H 355.203 -0.329368 0.888944 0
M  V30 3800 H 354.909 -1.75921 3.0454 0
M  V30 3801 H 354.783 -3.18182 2.02584 0
M  V30 3802 H 357.17 -2.71809 1.14907 0
M  V30 3803 H 357.251 -1.2994 2.20339 0
M  V30 3804 H 356.895 -2.81238 4.22927 0
M  V30 3805 H 356.825 -4.22395 3.14467 0
M  V30 3806 H 359.316 -2.77286 2.5675 0
M  V30 3807 H 359.629 -5.22705 5.6921 0
M  V30 3808 H 357.974 -4.70594 5.11435 0
M  V30 3809 H 361.165 -3.37691 3.24164 0
M  V30 3810 H 361.338 -4.4962 4.66632 0
M  V30 3811 N 354.744 -0.972509 -1.24016 0
M  V30 3812 C 355.694 -0.477561 -2.22942 0
M  V30 3813 C 356.678 0.44308 -1.54679 0
M  V30 3814 O 357.87 0.273219 -1.74879 0
M  V30 3815 C 354.999 0.226348 -3.42553 0
M  V30 3816 C 354.085 -0.713403 -4.18057 0
M  V30 3817 N 354.476 -1.8527 -4.70647 0
M  V30 3818 C 352.774 -0.525145 -4.42898 0
M  V30 3819 C 353.475 -2.44089 -5.28011 0
M  V30 3820 N 352.451 -1.72556 -5.15486 0
M  V30 3821 H 356.253 -1.34678 -2.61226 0
M  V30 3822 H 353.767 -0.832196 -1.39457 0
M  V30 3823 H 355.764 0.598184 -4.12586 0
M  V30 3824 H 354.424 1.09195 -3.05788 0
M  V30 3825 H 355.435 -2.2341 -4.67235 0
M  V30 3826 H 352.112 0.296096 -4.16449 0
M  V30 3827 H 353.502 -3.40259 -5.79374 0
M  V30 3828 N 356.222 1.38976 -0.743202 0
M  V30 3829 C 357.447 2.05161 -0.303936 0
M  V30 3830 C 357.872 1.55677 1.05576 0
M  V30 3831 O 357.23 0.704131 1.67068 0
M  V30 3832 C 357.278 3.59138 -0.324373 0
M  V30 3833 O 356.382 4.06668 0.685204 0
M  V30 3834 H 355.723 0.649815 -0.136518 0
M  V30 3835 H 358.253 1.77852 -1.01142 0
M  V30 3836 H 358.263 4.07639 -0.171618 0
M  V30 3837 H 356.938 3.94515 -1.31647 0
M  V30 3838 H 355.515 3.69561 0.497913 0
M  V30 3839 N 357.7 0.491464 1.49741 0
M  V30 3840 C 358.63 -0.28154 2.31796 0
M  V30 3841 C 359.611 -0.971473 1.3963 0
M  V30 3842 O 360.796 -0.964719 1.68543 0
M  V30 3843 C 357.926 -1.35203 3.19902 0
M  V30 3844 C 356.88 -0.782529 4.20786 0
M  V30 3845 C 356.206 -1.95283 4.97764 0
M  V30 3846 C 357.506 0.21999 5.21837 0
M  V30 3847 H 359.2 0.403355 2.96671 0
M  V30 3848 H 356.746 0.195425 1.42668 0
M  V30 3849 H 358.699 -1.90045 3.76113 0
M  V30 3850 H 357.423 -2.06598 2.52953 0
M  V30 3851 H 356.082 -0.255928 3.65706 0
M  V30 3852 H 355.73 -2.65423 4.2727 0
M  V30 3853 H 355.43 -1.57789 5.66018 0
M  V30 3854 H 356.954 -2.50577 5.56816 0
M  V30 3855 H 358.368 -0.23996 5.72798 0
M  V30 3856 H 356.765 0.51026 5.97927 0
M  V30 3857 H 357.835 1.13911 4.7133 0
M  V30 3858 N 359.178 -1.55987 0.224894 0
M  V30 3859 C 360.589 -1.84553 -0.282345 0
M  V30 3860 C 360.94 -1.14634 -1.59227 0
M  V30 3861 O 360.065 -0.417155 -2.12341 0
M  V30 3862 C 360.66 -3.348 -0.519062 0
M  V30 3863 C 359.219 -3.63671 -0.970604 0
M  V30 3864 C 358.366 -2.77277 -0.0355261 0
M  V30 3865 H 361.317 -1.52245 0.448006 0
M  V30 3866 H 361.338 -3.55187 -1.36463 0
M  V30 3867 H 360.85 -3.8566 0.43449 0
M  V30 3868 H 358.951 -3.1827 -1.9374 0
M  V30 3869 H 359.064 -4.71631 -0.842698 0
M  V30 3870 H 357.428 -2.48846 -0.542927 0
M  V30 3871 H 358.211 -3.30937 0.913003 0
M  V30 3872 N 360.656 0.0484629 -1.57525 0
M  V30 3873 C 361.933 0.777447 -1.79486 0
M  V30 3874 C 362.313 1.94597 -0.818251 0
M  V30 3875 O 361.661 2.28047 0.143767 0
M  V30 3876 C 361.871 1.22864 -3.26658 0
M  V30 3877 C 363.219 1.65251 -3.91123 0
M  V30 3878 O 364.243 1.32372 -3.3069 0
M  V30 3879 O 363.102 2.26207 -4.97486 0
M  V30 3880 H 360.196 0.374357 -0.737419 0
M  V30 3881 H 362.742 0.0267359 -1.69679 0
M  V30 3882 H 361.514 0.393589 -3.89316 0
M  V30 3883 H 361.137 2.03996 -3.41279 0
M  V30 3884 N 362.134 1.5431 0.320358 0
M  V30 3885 C 363.382 1.72327 1.05583 0
M  V30 3886 C 363.703 0.50149 1.88441 0
M  V30 3887 O 362.973 -0.48448 1.89815 0
M  V30 3888 H 361.553 0.635387 0.3928 0
M  V30 3889 H 364.215 1.91621 0.356019 0
M  V30 3890 H 363.311 2.60426 1.72003 0
M  V30 3891 N 363.613 -0.582584 1.46437 0
M  V30 3892 C 364.543 -1.70187 1.59871 0
M  V30 3893 C 365.524 -1.64066 0.449042 0
M  V30 3894 O 366.709 -1.82081 0.6753 0
M  V30 3895 C 363.839 -3.08827 1.58881 0
M  V30 3896 C 362.793 -3.29779 2.72819 0
M  V30 3897 C 362.119 -4.68947 2.5689 0
M  V30 3898 C 363.419 -3.17601 4.1464 0
M  V30 3899 H 365.113 -1.592 2.53566 0
M  V30 3900 H 362.659 -0.764472 1.22032 0
M  V30 3901 H 364.612 -3.86951 1.66873 0
M  V30 3902 H 363.336 -3.20713 0.617306 0
M  V30 3903 H 361.995 -2.54054 2.64296 0
M  V30 3904 H 361.643 -4.77599 1.57823 0
M  V30 3905 H 361.343 -4.83919 3.33312 0
M  V30 3906 H 362.867 -5.4924 2.66773 0
M  V30 3907 H 364.281 -3.8557 4.24274 0
M  V30 3908 H 362.678 -3.44094 4.9165 0
M  V30 3909 H 363.748 -2.14681 4.34788 0
M  V30 3910 N 365.091 -1.34144 -0.827227 0
M  V30 3911 C 366.024 -1.19707 -1.94282 0
M  V30 3912 C 367.002 -0.0897256 -1.62352 0
M  V30 3913 O 368.186 -0.254095 -1.8678 0
M  V30 3914 C 365.313 -0.838646 -3.28153 0
M  V30 3915 C 364.359 -1.95514 -3.79047 0
M  V30 3916 S 365.192 -3.56793 -3.99323 0
M  V30 3917 C 366.348 -3.22983 -5.36127 0
M  V30 3918 H 366.581 -2.1414 -2.06231 0
M  V30 3919 H 364.114 -1.19121 -0.982321 0
M  V30 3920 H 366.072 -0.638637 -4.05502 0
M  V30 3921 H 364.733 0.0872776 -3.13979 0
M  V30 3922 H 363.926 -1.658 -4.75948 0
M  V30 3923 H 363.528 -2.11241 -3.08631 0
M  V30 3924 H 365.82 -2.74531 -6.19386 0
M  V30 3925 H 366.763 -4.19008 -5.70822 0
M  V30 3926 H 367.171 -2.59276 -5.01434 0
M  V30 3927 N 366.569 1.04691 -1.17803 0
M  V30 3928 C 367.985 1.29963 -0.926379 0
M  V30 3929 C 368.185 1.97251 0.411635 0
M  V30 3930 O 367.241 2.24922 1.14744 0
M  V30 3931 C 368.554 2.16447 -2.08737 0
M  V30 3932 C 370.102 2.29814 -2.12496 0
M  V30 3933 C 370.577 3.19661 -3.27995 0
M  V30 3934 N 372.068 3.27247 -3.27816 0
M  V30 3935 C 372.803 3.96906 -4.13827 0
M  V30 3936 N 372.299 4.6895 -5.09959 0
M  V30 3937 N 374.092 3.93122 -4.01761 0
M  V30 3938 H 366.243 0.594182 -2.0392 0
M  V30 3939 H 368.506 0.324649 -0.890678 0
M  V30 3940 H 368.212 1.74304 -3.05469 0
M  V30 3941 H 368.086 3.17103 -2.04268 0
M  V30 3942 H 370.473 2.71196 -1.16347 0
M  V30 3943 H 370.554 1.2877 -2.21025 0
M  V30 3944 H 370.198 2.78991 -4.24413 0
M  V30 3945 H 370.128 4.20722 -3.16703 0
M  V30 3946 H 372.619 2.75921 -2.58217 0
M  V30 3947 H 372.932 5.19679 -5.71974 0
M  V30 3948 H 371.277 4.67875 -5.13924 0
M  V30 3949 H 374.468 3.35967 -3.2595 0
M  V30 3950 H 374.641 4.47139 -4.6901 0
M  V30 3951 N 368.047 0.979072 1.23499 0
M  V30 3952 C 369.01 0.523244 2.23147 0
M  V30 3953 C 370.01 -0.386406 1.56088 0
M  V30 3954 O 371.2 -0.180283 1.73265 0
M  V30 3955 C 368.332 -0.240739 3.40049 0
M  V30 3956 H 369.525 1.40432 2.64989 0
M  V30 3957 H 367.078 0.764824 1.36309 0
M  V30 3958 H 367.813 -1.13841 3.03662 0
M  V30 3959 H 367.598 0.412207 3.89927 0
M  V30 3960 H 369.088 -0.548297 4.13985 0
M  V30 3961 N 369.525 -1.3858 0.750561 0
M  V30 3962 C 370.753 -2.04471 0.316098 0
M  V30 3963 C 371.168 -1.56606 -1.05452 0
M  V30 3964 O 370.525 -0.737784 -1.66922 0
M  V30 3965 C 370.576 -3.60025 0.326275 0
M  V30 3966 O 370.297 -4.06133 1.6428 0
M  V30 3967 C 371.798 -4.43131 -0.122429 0
M  V30 3968 H 369.018 -0.65717 0.135528 0
M  V30 3969 H 371.562 -1.77329 1.01857 0
M  V30 3970 H 369.717 -3.86014 -0.327431 0
M  V30 3971 H 370.131 -5.00547 1.56693 0
M  V30 3972 H 371.605 -5.51963 -0.0641473 0
M  V30 3973 H 372.082 -4.23333 -1.16988 0
M  V30 3974 H 372.688 -4.22323 0.50229 0
M  V30 3975 N 371.003 -0.499398 -1.49478 0
M  V30 3976 C 372.28 0.108629 -1.95298 0
M  V30 3977 C 372.66 1.54282 -1.44084 0
M  V30 3978 O 372.008 2.18944 -0.653908 0
M  V30 3979 C 372.218 0.0229111 -3.48992 0
M  V30 3980 C 373.566 0.197643 -4.2414 0
M  V30 3981 O 374.59 0.0981735 -3.56065 0
M  V30 3982 O 373.449 0.401669 -5.45022 0
M  V30 3983 H 370.543 0.096181 -0.821388 0
M  V30 3984 H 373.089 -0.561822 -1.6013 0
M  V30 3985 H 371.861 -0.977321 -3.78899 0
M  V30 3986 H 371.484 0.733579 -3.90774 0
M  V30 3987 N 372.481 1.55866 -0.233164 0
M  V30 3988 C 373.728 1.98603 0.395374 0
M  V30 3989 C 374.056 1.12105 1.58942 0
M  V30 3990 O 373.311 0.168656 1.94972 0
M  V30 3991 C 373.61 3.46856 0.861724 0
M  V30 3992 C 373.276 4.50348 -0.223066 0
M  V30 3993 C 371.938 4.78371 -0.521038 0
M  V30 3994 C 374.29 5.12355 -0.956124 0
M  V30 3995 C 371.618 5.6568 -1.55638 0
M  V30 3996 C 373.97 6.00786 -1.98089 0
M  V30 3997 C 372.634 6.27148 -2.28565 0
M  V30 3998 H 371.904 0.726739 0.144677 0
M  V30 3999 H 374.551 1.88491 -0.338114 0
M  V30 4000 H 372.856 3.5423 1.67418 0
M  V30 4001 H 374.553 3.77302 1.35809 0
M  V30 4002 H 371.143 4.28596 0.0193234 0
M  V30 4003 H 375.327 4.90765 -0.739166 0
M  V30 4004 H 370.583 5.84365 -1.798 0
M  V30 4005 H 374.757 6.4788 -2.55391 0
M  V30 4006 H 372.384 6.94597 -3.08932 0
M  V30 4007 N 373.959 -0.0401083 1.57549 0
M  V30 4008 C 374.889 -1.04384 2.08869 0
M  V30 4009 C 375.87 -1.38407 0.988817 0
M  V30 4010 O 377.055 -1.47483 1.26342 0
M  V30 4011 C 374.185 -2.34808 2.55895 0
M  V30 4012 C 373.139 -2.15057 3.70047 0
M  V30 4013 C 372.465 -3.51145 4.03239 0
M  V30 4014 C 373.765 -1.54576 4.98902 0
M  V30 4015 H 375.459 -0.616666 2.92981 0
M  V30 4016 H 373.005 -0.295184 1.40942 0
M  V30 4017 H 374.958 -3.05346 2.90417 0
M  V30 4018 H 373.682 -2.79565 1.68853 0
M  V30 4019 H 372.341 -1.46954 3.35857 0
M  V30 4020 H 371.989 -3.93529 3.13279 0
M  V30 4021 H 371.689 -3.38758 4.80122 0
M  V30 4022 H 373.213 -4.23062 4.40285 0
M  V30 4023 H 374.627 -2.15017 5.31451 0
M  V30 4024 H 373.024 -1.52796 5.80322 0
M  V30 4025 H 374.094 -0.51039 4.82206 0
M  V30 4026 N 375.437 -1.54477 -0.31217 0
M  V30 4027 C 376.686 -1.72438 -1.04633 0
M  V30 4028 C 376.999 -0.511163 -1.88803 0
M  V30 4029 O 378.205 -0.572341 -2.65399 0
M  V30 4030 C 376.661 -3.05043 -1.9099 0
M  V30 4031 C 376.269 -4.33806 -1.11877 0
M  V30 4032 C 378.013 -3.32364 -2.64073 0
M  V30 4033 C 375.92 -5.57467 -1.97445 0
M  V30 4034 H 374.85 -0.642647 -0.394361 0
M  V30 4035 H 377.501 -1.80966 -0.303929 0
M  V30 4036 H 375.883 -2.90451 -2.69173 0
M  V30 4037 H 377.057 -4.59199 -0.383843 0
M  V30 4038 H 375.372 -4.13336 -0.504252 0
M  V30 4039 H 377.969 -4.21951 -3.28423 0
M  V30 4040 H 378.312 -2.50745 -3.32314 0
M  V30 4041 H 378.845 -3.47875 -1.92944 0
M  V30 4042 H 375.584 -6.41722 -1.33692 0
M  V30 4043 H 375.104 -5.36277 -2.6864 0
M  V30 4044 H 376.783 -5.94303 -2.5576 0
M  V30 4045 N 376.915 0.57481 -1.46744 0
M  V30 4046 C 378.14 1.36341 -1.56288 0
M  V30 4047 C 378.565 1.86954 -0.207347 0
M  V30 4048 O 377.923 1.62006 0.813871 0
M  V30 4049 C 377.971 2.52147 -2.57787 0
M  V30 4050 O 377.075 3.53834 -2.11838 0
M  V30 4051 H 376.416 0.405713 -0.525636 0
M  V30 4052 H 378.946 0.696453 -1.92382 0
M  V30 4053 H 378.956 2.98958 -2.77648 0
M  V30 4054 H 377.631 2.14663 -3.5622 0
M  V30 4055 H 376.208 3.1345 -2.01999 0
M  V30 4056 N 378.394 1.34581 0.820102 0
M  V30 4057 C 379.642 1.26845 1.57336 0
M  V30 4058 C 379.963 -0.160667 1.94337 0
M  V30 4059 O 379.233 -1.09396 1.6251 0
M  V30 4060 H 377.813 0.466514 0.583415 0
M  V30 4061 H 380.475 1.68526 0.979027 0
M  V30 4062 H 379.571 1.87513 2.4949 0
M  V30 4063 N 379.872 -1.04064 1.18357 0
M  V30 4064 C 380.819 -2.12077 0.910603 0
M  V30 4065 C 381.789 -1.65421 -0.15 0
M  V30 4066 O 382.974 -1.90797 -0.0103614 0
M  V30 4067 C 380.114 -3.42252 0.442472 0
M  V30 4068 C 379.227 -4.0252 1.5685 0
M  V30 4069 C 378.362 -5.20657 1.05309 0
M  V30 4070 C 377.401 -5.72955 2.1538 0
M  V30 4071 N 376.538 -6.8238 1.65233 0
M  V30 4072 H 381.378 -2.34764 1.83548 0
M  V30 4073 H 378.915 -1.15157 0.915279 0
M  V30 4074 H 380.873 -4.16921 0.152534 0
M  V30 4075 H 379.503 -3.19712 -0.445428 0
M  V30 4076 H 378.555 -3.25178 1.97391 0
M  V30 4077 H 379.867 -4.37362 2.39824 0
M  V30 4078 H 379.021 -6.0244 0.717677 0
M  V30 4079 H 377.76 -4.87318 0.19293 0
M  V30 4080 H 376.765 -4.89793 2.49766 0
M  V30 4081 H 377.99 -6.08337 3.01832 0
M  V30 4082 H 375.936 -6.50917 0.815064 0
M  V30 4083 H 375.853 -7.16286 2.41805 0
M  V30 4084 H 377.121 -7.67788 1.34619 0
M  V30 4085 N 381.35 -0.985608 -1.22978 0
M  V30 4086 C 382.599 -0.652881 -1.90841 0
M  V30 4087 C 382.912 0.817842 -1.77681 0
M  V30 4088 O 384.118 1.26185 -2.40395 0
M  V30 4089 C 382.574 -1.11717 -3.42122 0
M  V30 4090 C 382.182 -2.6126 -3.63933 0
M  V30 4091 C 383.926 -0.85843 -4.1573 0
M  V30 4092 C 381.833 -3.0133 -5.08876 0
M  V30 4093 H 380.763 -0.240491 -0.714619 0
M  V30 4094 H 383.414 -1.1942 -1.39324 0
M  V30 4095 H 381.796 -0.504027 -3.92779 0
M  V30 4096 H 382.97 -3.27858 -3.23799 0
M  V30 4097 H 381.285 -2.84937 -3.03644 0
M  V30 4098 H 383.882 -1.13359 -5.22546 0
M  V30 4099 H 384.225 0.205461 -4.15793 0
M  V30 4100 H 384.758 -1.43341 -3.71077 0
M  V30 4101 H 381.497 -4.06864 -5.13947 0
M  V30 4102 H 381.017 -2.3943 -5.49939 0
M  V30 4103 H 382.696 -2.92224 -5.77247 0
M  V30 4104 N 382.828 1.3818 -0.7579 0
M  V30 4105 C 384.074 2.00316 -0.316453 0
M  V30 4106 C 384.407 1.60026 1.10025 0
M  V30 4107 O 383.682 0.839835 1.75434 0
M  V30 4108 C 383.965 3.57349 -0.444245 0
M  V30 4109 C 383.818 4.07591 -1.90236 0
M  V30 4110 C 385.137 4.3981 0.1598 0
M  V30 4111 H 382.256 0.727741 -0.116459 0
M  V30 4112 H 384.898 1.6406 -0.958352 0
M  V30 4113 H 383.048 3.88365 0.102233 0
M  V30 4114 H 384.72 3.87199 -2.50748 0
M  V30 4115 H 382.963 3.60297 -2.41595 0
M  V30 4116 H 383.634 5.16677 -1.94291 0
M  V30 4117 H 386.11 4.14971 -0.306314 0
M  V30 4118 H 384.986 5.48885 0.0401675 0
M  V30 4119 H 385.247 4.24102 1.24859 0
M  V30 4120 N 384.306 0.507319 1.49211 0
M  V30 4121 C 385.552 -0.0350047 2.0277 0
M  V30 4122 C 385.885 -1.3606 1.38569 0
M  V30 4123 O 385.16 -1.87321 0.523542 0
M  V30 4124 C 385.443 -0.180916 3.59645 0
M  V30 4125 C 385.296 1.16825 4.34364 0
M  V30 4126 C 386.615 -0.918558 4.30407 0
M  V30 4127 H 383.734 -0.0112473 0.736914 0
M  V30 4128 H 386.376 0.659956 1.7817 0
M  V30 4129 H 384.526 -0.772826 3.80736 0
M  V30 4130 H 386.198 1.79952 4.24753 0
M  V30 4131 H 384.441 1.75594 3.96673 0
M  V30 4132 H 385.112 1.01939 5.42506 0
M  V30 4133 H 387.588 -0.41649 4.1401 0
M  V30 4134 H 386.464 -0.989505 5.39907 0
M  V30 4135 H 386.725 -1.96373 3.96093 0
M  V30 4136 N 385.784 -1.5574 0.241426 0
M  V30 4137 C 387.033 -1.97986 -0.385295 0
M  V30 4138 C 387.346 -1.13267 -1.59468 0
M  V30 4139 O 388.552 -1.45501 -2.2922 0
M  V30 4140 C 387.008 -3.52275 -0.736884 0
M  V30 4141 C 386.616 -4.45726 0.450796 0
M  V30 4142 C 388.36 -4.03189 -1.3281 0
M  V30 4143 C 386.267 -5.91352 0.0756662 0
M  V30 4144 H 385.197 -0.739386 -0.147731 0
M  V30 4145 H 387.848 -1.80308 0.340779 0
M  V30 4146 H 386.23 -3.65628 -1.52094 0
M  V30 4147 H 387.404 -4.44131 1.22819 0
M  V30 4148 H 385.719 -4.05264 0.956573 0
M  V30 4149 H 388.316 -5.09505 -1.62201 0
M  V30 4150 H 388.659 -3.50212 -2.25071 0
M  V30 4151 H 389.192 -3.93141 -0.607069 0
M  V30 4152 H 385.931 -6.48354 0.965272 0
M  V30 4153 H 385.451 -5.96095 -0.665635 0
M  V30 4154 H 387.13 -6.46084 -0.344075 0
M  V30 4155 N 387.262 0.0317525 -1.57568 0
M  V30 4156 C 388.502 0.727979 -1.90997 0
M  V30 4157 C 388.866 1.72664 -0.839708 0
M  V30 4158 O 390.067 2.47092 -1.05825 0
M  V30 4159 C 388.338 1.38239 -3.29583 0
M  V30 4160 S 389.897 2.10814 -3.84841 0
M  V30 4161 H 386.715 0.241226 -0.668828 0
M  V30 4162 H 389.317 -0.0173037 -1.95492 0
M  V30 4163 H 388.021 0.642288 -4.05343 0
M  V30 4164 H 387.552 2.16628 -3.28384 0
M  V30 4165 H 389.567 3.3792 -3.63352 0
M  V30 4166 N 388.74 1.54641 0.303973 0
M  V30 4167 C 389.988 1.73437 1.0375 0
M  V30 4168 C 390.309 0.521449 1.87899 0
M  V30 4169 O 389.579 -0.46432 1.90318 0
M  V30 4170 H 388.159 0.639518 0.386039 0
M  V30 4171 H 390.821 1.91988 0.335675 0
M  V30 4172 H 389.917 2.62235 1.69231 0
M  V30 4173 N 390.218 -0.567019 1.47046 0
M  V30 4174 C 391.448 -1.34831 1.56538 0
M  V30 4175 C 391.856 -1.8802 0.21101 0
M  V30 4176 O 391.199 -1.65152 -0.804387 0
M  V30 4177 C 391.261 -2.56139 2.52256 0
M  V30 4178 C 390.925 -2.24307 3.98165 0
M  V30 4179 C 391.922 -1.82192 4.86931 0
M  V30 4180 C 389.607 -2.35968 4.43423 0
M  V30 4181 C 391.601 -1.52153 6.18973 0
M  V30 4182 C 389.288 -2.05542 5.75496 0
M  V30 4183 C 390.286 -1.63701 6.63092 0
M  V30 4184 O 389.974 -1.33657 7.92711 0
M  V30 4185 H 389.706 -0.417683 0.531523 0
M  V30 4186 H 392.26 -0.694726 1.93294 0
M  V30 4187 H 390.49 -3.24356 2.10548 0
M  V30 4188 H 392.179 -3.18214 2.51982 0
M  V30 4189 H 392.945 -1.72684 4.53217 0
M  V30 4190 H 388.824 -2.67495 3.75456 0
M  V30 4191 H 392.368 -1.19421 6.87302 0
M  V30 4192 H 388.265 -2.14679 6.08755 0
M  V30 4193 H 389.033 -1.4737 8.05124 0
M  V30 4194 N 391.696 -1.35014 -0.812953 0
M  V30 4195 C 392.944 -1.27678 -1.56661 0
M  V30 4196 C 393.265 0.150359 -1.94419 0
M  V30 4197 O 392.535 1.08532 -1.63088 0
M  V30 4198 H 391.115 -0.469602 -0.580933 0
M  V30 4199 H 393.777 -1.69043 -0.970076 0
M  V30 4200 H 392.873 -1.88833 -2.48492 0
M  V30 4201 N 393.175 1.03435 -1.18907 0
M  V30 4202 C 394.452 1.73778 -0.89781 0
M  V30 4203 C 394.832 2.02458 0.597832 0
M  V30 4204 O 394.18 1.67482 1.55441 0
M  V30 4205 C 394.39 3.01845 -1.75187 0
M  V30 4206 C 395.738 3.7546 -1.9828 0
M  V30 4207 O 396.762 3.11759 -1.72293 0
M  V30 4208 O 395.621 4.89966 -2.42065 0
M  V30 4209 H 392.715 0.75651 -0.334098 0
M  V30 4210 H 395.261 1.09444 -1.29693 0
M  V30 4211 H 394.033 2.76836 -2.76545 0
M  V30 4212 H 393.656 3.73919 -1.35167 0
M  V30 4213 N 394.653 0.992116 1.22453 0
M  V30 4214 C 395.899 0.668523 1.91464 0
M  V30 4215 C 396.232 -0.797313 1.77078 0
M  V30 4216 O 395.507 -1.5765 1.13916 0
M  V30 4217 C 395.79 1.07424 3.43703 0
M  V30 4218 C 395.643 2.59857 3.67143 0
M  V30 4219 C 396.962 0.626891 4.35612 0
M  V30 4220 H 394.081 0.244341 0.695318 0
M  V30 4221 H 396.723 1.2355 1.44345 0
M  V30 4222 H 394.873 0.591816 3.83966 0
M  V30 4223 H 396.545 3.15764 3.3629 0
M  V30 4224 H 394.788 3.01961 3.11451 0
M  V30 4225 H 395.459 2.83296 4.73759 0
M  V30 4226 H 397.935 1.04125 4.02861 0
M  V30 4227 H 396.811 0.939076 5.40807 0
M  V30 4228 H 397.072 -0.472457 4.39568 0
M  V30 4229 N 396.131 -1.37776 0.765217 0
M  V30 4230 C 397.379 -1.99454 0.325943 0
M  V30 4231 C 397.7 -1.61049 -1.09947 0
M  V30 4232 O 396.97 -0.872821 -1.75381 0
M  V30 4233 H 395.55 -0.737697 0.117525 0
M  V30 4234 H 398.212 -1.68359 0.981895 0
M  V30 4235 H 397.308 -3.09547 0.398353 0
M  V30 4236 N 397.609 -0.515225 -1.4894 0
M  V30 4237 C 398.556 0.255567 -2.29381 0
M  V30 4238 C 399.526 0.947387 -1.36432 0
M  V30 4239 O 400.711 0.951288 -1.65394 0
M  V30 4240 C 397.851 1.30551 -3.19453 0
M  V30 4241 C 396.964 0.624029 -4.27469 0
M  V30 4242 C 396.099 1.65563 -5.0474 0
M  V30 4243 C 395.138 0.956802 -6.04576 0
M  V30 4244 N 394.275 1.93326 -6.74959 0
M  V30 4245 H 399.115 -0.436607 -2.94784 0
M  V30 4246 H 396.652 -0.227154 -1.45336 0
M  V30 4247 H 398.61 1.92639 -3.70062 0
M  V30 4248 H 397.24 1.96626 -2.56004 0
M  V30 4249 H 396.292 -0.110459 -3.8024 0
M  V30 4250 H 397.604 0.0746092 -4.98744 0
M  V30 4251 H 396.758 2.35119 -5.59289 0
M  V30 4252 H 395.497 2.23893 -4.3327 0
M  V30 4253 H 394.502 0.247097 -5.49244 0
M  V30 4254 H 395.727 0.379814 -6.78037 0
M  V30 4255 H 393.673 2.50591 -6.06251 0
M  V30 4256 H 393.59 1.43489 -7.42258 0
M  V30 4257 H 394.858 2.62126 -7.34105 0
M  V30 4258 N 399.087 1.5561 -0.249682 0
M  V30 4259 C 400.335 1.98618 0.373548 0
M  V30 4260 C 400.656 1.13919 1.58264 0
M  V30 4261 O 399.926 0.222637 1.94631 0
M  V30 4262 H 398.506 0.733571 0.141006 0
M  V30 4263 H 401.168 1.91748 -0.349117 0
M  V30 4264 H 400.264 3.04584 0.680796 0
M  V30 4265 N 400.565 -0.0233959 1.57583 0
M  V30 4266 C 401.805 -0.71784 1.9138 0
M  V30 4267 C 402.169 -1.72216 0.848853 0
M  V30 4268 O 403.37 -2.46527 1.07134 0
M  V30 4269 C 401.641 -1.36489 3.30311 0
M  V30 4270 S 403.2 -2.0877 3.85954 0
M  V30 4271 H 400.018 -0.237676 0.670098 0
M  V30 4272 H 402.62 0.0276709 1.9548 0
M  V30 4273 H 401.324 -0.620782 4.05678 0
M  V30 4274 H 400.855 -2.14883 3.29528 0
M  V30 4275 H 402.87 -3.35988 3.65139 0
M  V30 4276 N 402.043 -1.548 -0.295768 0
M  V30 4277 C 403.006 -1.85363 -1.34808 0
M  V30 4278 C 404.006 -0.726817 -1.43436 0
M  V30 4279 O 405.196 -0.995088 -1.42981 0
M  V30 4280 C 402.328 -2.03859 -2.73229 0
M  V30 4281 H 403.521 -2.7941 -1.08949 0
M  V30 4282 H 401.074 -1.46942 -0.532702 0
M  V30 4283 H 401.809 -1.12117 -3.04303 0
M  V30 4284 H 401.594 -2.8588 -2.68356 0
M  V30 4285 H 403.084 -2.28857 -3.49305 0
M  V30 4286 N 403.521 0.559213 -1.47345 0
M  V30 4287 C 404.746 1.34676 -1.57725 0
M  V30 4288 C 405.171 1.86723 -0.227164 0
M  V30 4289 O 404.529 1.6286 0.796642 0
M  V30 4290 C 404.577 2.49399 -2.60447 0
M  V30 4291 O 403.681 3.51567 -2.15578 0
M  V30 4292 H 403.022 0.400115 -0.52991 0
M  V30 4293 H 405.552 0.676009 -1.93109 0
M  V30 4294 H 405.562 2.95996 -2.80803 0
M  V30 4295 H 404.237 2.10873 -3.58477 0
M  V30 4296 H 402.814 3.11289 -2.05313 0
M  V30 4297 N 404.999 1.35443 0.805782 0
M  V30 4298 C 406.224 1.32037 1.59941 0
M  V30 4299 C 406.649 -0.0994215 1.87837 0
M  V30 4300 O 406.007 -1.06648 1.46615 0
M  V30 4301 C 406.055 2.13354 2.90711 0
M  V30 4302 O 405.159 1.5148 3.83572 0
M  V30 4303 H 404.5 0.452666 0.485787 0
M  V30 4304 H 407.03 1.78496 1.00002 0
M  V30 4305 H 407.04 2.25338 3.40128 0
M  V30 4306 H 405.715 3.16572 2.69732 0
M  V30 4307 H 404.292 1.4834 3.42125 0
M  V30 4308 N 406.477 -1.02803 1.19454 0
M  V30 4309 C 407.41 -2.107 0.876396 0
M  V30 4310 C 408.388 -1.61741 -0.166897 0
M  V30 4311 O 409.572 -1.88451 -0.0430195 0
M  V30 4312 C 406.699 -3.37262 0.311758 0
M  V30 4313 C 405.745 -4.05093 1.33424 0
M  V30 4314 S 406.578 -4.50498 2.89503 0
M  V30 4315 C 407.734 -5.80277 2.34584 0
M  V30 4316 H 407.967 -2.37362 1.79016 0
M  V30 4317 H 405.5 -1.15755 1.02177 0
M  V30 4318 H 407.458 -4.10499 -0.00748752 0
M  V30 4319 H 406.119 -3.08693 -0.58032 0
M  V30 4320 H 405.312 -4.9611 0.888302 0
M  V30 4321 H 404.914 -3.3803 1.60037 0
M  V30 4322 H 407.206 -6.54873 1.73633 0
M  V30 4323 H 408.149 -6.29651 3.23952 0
M  V30 4324 H 408.557 -5.3599 1.77131 0
M  V30 4325 N 407.956 -0.998596 -1.21925 0
M  V30 4326 C 408.903 -0.553621 -2.24062 0
M  V30 4327 C 409.873 0.416999 -1.6078 0
M  V30 4328 O 411.058 0.320482 -1.88089 0
M  V30 4329 C 408.198 0.119959 -3.44891 0
M  V30 4330 C 407.311 -0.893077 -4.22668 0
M  V30 4331 C 406.446 -0.192424 -5.30851 0
M  V30 4332 C 405.485 -1.19344 -6.00353 0
M  V30 4333 N 404.622 -0.520707 -7.00166 0
M  V30 4334 H 409.462 -1.4293 -2.61486 0
M  V30 4335 H 406.999 -0.715838 -1.28507 0
M  V30 4336 H 408.957 0.527459 -4.13852 0
M  V30 4337 H 407.587 0.959389 -3.08214 0
M  V30 4338 H 406.639 -1.41886 -3.52948 0
M  V30 4339 H 407.951 -1.65512 -4.70539 0
M  V30 4340 H 407.105 0.271515 -6.06092 0
M  V30 4341 H 405.844 0.602075 -4.83969 0
M  V30 4342 H 404.849 -1.66795 -5.23889 0
M  V30 4343 H 406.074 -1.98891 -6.49322 0
M  V30 4344 H 404.02 0.254252 -6.55507 0
M  V30 4345 H 403.937 -1.2211 -7.46073 0
M  V30 4346 H 405.205 -0.0797596 -7.79459 0
M  V30 4347 N 409.434 1.37368 -0.772513 0
M  V30 4348 C 410.682 1.99279 -0.336516 0
M  V30 4349 C 411.003 1.6163 1.09091 0
M  V30 4350 O 410.273 0.882109 1.74916 0
M  V30 4351 H 408.853 0.737063 -0.121435 0
M  V30 4352 H 411.515 1.67836 -0.990809 0
M  V30 4353 H 410.611 3.09332 -0.414763 0
M  V30 4354 N 410.912 0.523116 1.48665 0
M  V30 4355 C 411.842 -0.23231 2.32342 0
M  V30 4356 C 412.823 -0.941637 1.41659 0
M  V30 4357 O 414.008 -0.928751 1.70552 0
M  V30 4358 C 411.138 -1.28387 3.22698 0
M  V30 4359 C 410.092 -0.693098 4.22351 0
M  V30 4360 C 409.418 -1.8468 5.01794 0
M  V30 4361 C 410.718 0.33063 5.21252 0
M  V30 4362 H 412.412 0.466192 2.95748 0
M  V30 4363 H 409.958 0.225643 1.42221 0
M  V30 4364 H 411.911 -1.82024 3.80059 0
M  V30 4365 H 410.635 -2.01186 2.57278 0
M  V30 4366 H 409.294 -0.178299 3.66166 0
M  V30 4367 H 408.942 -2.56301 4.32804 0
M  V30 4368 H 408.642 -1.45747 5.69238 0
M  V30 4369 H 410.166 -2.38709 5.62006 0
M  V30 4370 H 411.58 -0.118407 5.73178 0
M  V30 4371 H 409.977 0.636974 5.9671 0
M  V30 4372 H 411.047 1.23883 4.68808 0
M  V30 4373 N 412.39 -1.55475 0.257931 0
M  V30 4374 C 413.638 -1.98813 -0.363009 0
M  V30 4375 C 413.959 -1.14757 -1.57657 0
M  V30 4376 O 413.229 -0.232956 -1.9451 0
M  V30 4377 H 411.809 -0.734308 -0.137113 0
M  V30 4378 H 414.471 -1.9156 0.359281 0
M  V30 4379 H 413.567 -3.04941 -0.664634 0
M  V30 4380 N 413.868 0.0150385 -1.57593 0
M  V30 4381 C 414.831 0.995996 -2.06428 0
M  V30 4382 C 415.831 1.2818 -0.970903 0
M  V30 4383 O 417.021 1.22949 -1.23406 0
M  V30 4384 C 414.153 2.32506 -2.49307 0
M  V30 4385 H 415.346 0.573873 -2.94358 0
M  V30 4386 H 412.899 0.262186 -1.54085 0
M  V30 4387 H 413.634 2.79438 -1.64575 0
M  V30 4388 H 413.419 2.13087 -3.29145 0
M  V30 4389 H 414.909 3.02906 -2.87468 0
M  V30 4390 N 415.346 1.54954 0.287554 0
M  V30 4391 C 416.762 1.46469 0.633964 0
M  V30 4392 C 416.962 0.666865 1.90145 0
M  V30 4393 O 416.018 0.179906 2.51858 0
M  V30 4394 C 417.331 2.90556 0.774454 0
M  V30 4395 C 418.879 3.00681 0.869462 0
M  V30 4396 C 419.354 4.45993 1.04184 0
M  V30 4397 N 420.845 4.4976 1.10772 0
M  V30 4398 C 421.58 5.59393 1.25964 0
M  V30 4399 N 421.076 6.78923 1.37968 0
M  V30 4400 N 422.869 5.47107 1.28959 0
M  V30 4401 H 415.02 2.05288 -0.545041 0
M  V30 4402 H 417.283 0.930305 -0.182308 0
M  V30 4403 H 416.989 3.51594 -0.086207 0
M  V30 4404 H 416.863 3.38743 1.6593 0
M  V30 4405 H 419.25 2.39749 1.7206 0
M  V30 4406 H 419.331 2.55769 -0.0396831 0
M  V30 4407 H 418.975 5.07524 0.195422 0
M  V30 4408 H 418.905 4.88548 1.96542 0
M  V30 4409 H 421.396 3.63651 1.02794 0
M  V30 4410 H 421.709 7.58231 1.49353 0
M  V30 4411 H 420.054 6.81763 1.34999 0
M  V30 4412 H 423.245 4.52668 1.19202 0
M  V30 4413 H 423.418 6.32595 1.40455 0
M  V30 4414 N 416.824 -0.551391 1.4764 0
M  V30 4415 C 418.07 -1.31024 1.54792 0
M  V30 4416 C 418.403 -1.9304 0.211967 0
M  V30 4417 O 417.678 -1.78175 -0.77999 0
M  V30 4418 C 417.961 -2.41593 2.67029 0
M  V30 4419 C 417.814 -1.84408 4.10261 0
M  V30 4420 C 419.133 -3.43488 2.75143 0
M  V30 4421 H 416.252 -0.475031 0.563485 0
M  V30 4422 H 418.894 -0.616454 1.79722 0
M  V30 4423 H 417.044 -3.00772 2.45904 0
M  V30 4424 H 418.716 -1.29445 4.42766 0
M  V30 4425 H 416.959 -1.15051 4.18265 0
M  V30 4426 H 417.63 -2.64367 4.84576 0
M  V30 4427 H 420.106 -2.94236 2.94218 0
M  V30 4428 H 418.982 -4.18274 3.55441 0
M  V30 4429 H 419.243 -4.02703 1.82435 0
M  V30 4430 N 418.302 -1.35869 -0.798587 0
M  V30 4431 C 419.532 -1.32529 -1.58491 0
M  V30 4432 C 419.94 0.0975405 -1.88948 0
M  V30 4433 O 419.283 1.06224 -1.49874 0
M  V30 4434 C 419.345 -2.07247 -2.9375 0
M  V30 4435 C 419.009 -3.56391 -2.86068 0
M  V30 4436 C 420.006 -4.50824 -2.58947 0
M  V30 4437 C 417.691 -3.9915 -3.04933 0
M  V30 4438 C 419.685 -5.85993 -2.5078 0
M  V30 4439 C 417.372 -5.34413 -2.96389 0
M  V30 4440 C 418.37 -6.27646 -2.69349 0
M  V30 4441 O 418.058 -7.60426 -2.60782 0
M  V30 4442 H 417.79 -0.456529 -0.498556 0
M  V30 4443 H 420.344 -1.79425 -0.999799 0
M  V30 4444 H 418.574 -1.55001 -3.54276 0
M  V30 4445 H 420.263 -1.96883 -3.54954 0
M  V30 4446 H 421.029 -4.19104 -2.44084 0
M  V30 4447 H 416.908 -3.26961 -3.24989 0
M  V30 4448 H 420.452 -6.58735 -2.29595 0
M  V30 4449 H 416.349 -5.65743 -3.10813 0
M  V30 4450 H 417.117 -7.70444 -2.76331 0
M  V30 4451 N 419.78 1.02168 -1.19998 0
M  V30 4452 C 421.029 1.75091 -1.0013 0
M  V30 4453 C 421.342 1.89923 0.467835 0
M  V30 4454 O 422.548 2.59888 0.785515 0
M  V30 4455 C 421.004 3.14892 -1.74273 0
M  V30 4456 C 420.612 3.0809 -3.25245 0
M  V30 4457 C 422.356 3.9206 -1.62755 0
M  V30 4458 C 420.263 4.42867 -3.91948 0
M  V30 4459 H 419.193 0.656394 -0.37103 0
M  V30 4460 H 421.844 1.14284 -1.43567 0
M  V30 4461 H 420.226 3.7621 -1.2362 0
M  V30 4462 H 421.4 2.5611 -3.83072 0
M  V30 4463 H 419.715 2.44416 -3.3712 0
M  V30 4464 H 422.312 4.91764 -2.09934 0
M  V30 4465 H 422.655 4.12199 -0.582894 0
M  V30 4466 H 423.188 3.37359 -2.10793 0
M  V30 4467 H 419.927 4.27931 -4.96543 0
M  V30 4468 H 419.447 4.94874 -3.3891 0
M  V30 4469 H 421.126 5.11728 -3.95909 0
M  V30 4470 N 421.258 1.00505 1.21394 0
M  V30 4471 C 422.486 0.706609 1.9446 0
M  V30 4472 C 422.901 -0.73081 1.74082 0
M  V30 4473 O 422.258 -1.49446 1.04747 0
M  V30 4474 C 422.309 1.01824 3.46863 0
M  V30 4475 O 422.03 2.39919 3.66566 0
M  V30 4476 C 423.531 0.739216 4.37093 0
M  V30 4477 H 420.751 0.260394 0.618414 0
M  V30 4478 H 423.295 1.34311 1.54211 0
M  V30 4479 H 421.45 0.427343 3.85036 0
M  V30 4480 H 421.864 2.50784 4.6066 0
M  V30 4481 H 423.338 1.00744 5.42729 0
M  V30 4482 H 423.815 -0.326746 4.37983 0
M  V30 4483 H 424.421 1.31173 4.04566 0
M  V30 4484 N 422.737 -1.36956 0.779787 0
M  V30 4485 C 423.647 -2.33965 0.172491 0
M  V30 4486 C 424.663 -1.60574 -0.670222 0
M  V30 4487 O 425.839 -1.92617 -0.588263 0
M  V30 4488 C 422.904 -3.39761 -0.690173 0
M  V30 4489 C 421.965 -4.28964 0.169924 0
M  V30 4490 C 421.198 -5.29707 -0.651662 0
M  V30 4491 O 421.421 -5.38238 -1.88827 0
M  V30 4492 O 420.355 -6.01873 -0.0566264 0
M  V30 4493 H 424.181 -2.87647 0.974321 0
M  V30 4494 H 421.766 -1.39258 0.541078 0
M  V30 4495 H 423.648 -4.04471 -1.1824 0
M  V30 4496 H 422.323 -2.88394 -1.47006 0
M  V30 4497 H 421.23 -3.67326 0.708696 0
M  V30 4498 H 422.563 -4.83656 0.913085 0
M  V30 4499 N 424.215 -0.530993 -1.48385 0
M  V30 4500 C 425.464 0.00474348 -2.01699 0
M  V30 4501 C 425.777 1.35227 -1.41325 0
M  V30 4502 O 426.983 1.97643 -1.86144 0
M  V30 4503 C 425.439 0.0588473 -3.59852 0
M  V30 4504 C 425.047 -1.28385 -4.2921 0
M  V30 4505 C 426.791 0.543358 -4.21008 0
M  V30 4506 C 424.698 -1.19028 -5.79298 0
M  V30 4507 H 423.628 0.00554317 -0.75398 0
M  V30 4508 H 426.279 -0.674924 -1.70637 0
M  V30 4509 H 424.661 0.803612 -3.8776 0
M  V30 4510 H 425.835 -2.04426 -4.12973 0
M  V30 4511 H 424.15 -1.70418 -3.7993 0
M  V30 4512 H 426.747 0.631351 -5.3096 0
M  V30 4513 H 427.09 1.54937 -3.86394 0
M  V30 4514 H 427.623 -0.145754 -3.97533 0
M  V30 4515 H 424.362 -2.17147 -6.18488 0
M  V30 4516 H 423.882 -0.471246 -5.97946 0
M  V30 4517 H 425.561 -0.881365 -6.40969 0
M  V30 4518 N 425.693 1.55336 -0.266172 0
M  V30 4519 C 426.97 1.91372 0.404486 0
M  V30 4520 C 427.35 1.18935 1.74407 0
M  V30 4521 O 426.698 0.3132 2.26343 0
M  V30 4522 C 426.908 3.44581 0.553593 0
M  V30 4523 C 428.256 4.16196 0.840618 0
M  V30 4524 O 429.28 3.50426 0.638739 0
M  V30 4525 O 428.139 5.32567 1.22618 0
M  V30 4526 H 425.233 0.797194 0.220025 0
M  V30 4527 H 427.779 1.66813 -0.311664 0
M  V30 4528 H 426.551 3.89357 -0.389498 0
M  V30 4529 H 426.174 3.75065 1.31955 0
M  V30 4530 N 427.171 -0.0066808 1.57599 0
M  V30 4531 C 428.582 -0.550379 1.78403 0
M  V30 4532 C 428.933 -1.74339 0.900014 0
M  V30 4533 O 428.058 -2.16166 0.100713 0
M  V30 4534 C 428.653 -1.00523 3.23544 0
M  V30 4535 C 427.212 -1.49428 3.45468 0
M  V30 4536 C 426.359 -0.442444 2.73748 0
M  V30 4537 H 429.31 0.219508 1.57175 0
M  V30 4538 H 429.331 -1.87157 3.31289 0
M  V30 4539 H 428.843 -0.136735 3.87859 0
M  V30 4540 H 426.944 -2.3839 2.86358 0
M  V30 4541 H 427.057 -1.52635 4.54136 0
M  V30 4542 H 425.421 -0.902578 2.38171 0
M  V30 4543 H 426.204 0.416973 3.40758 0
M  V30 4544 N 428.649 -1.55105 -0.279332 0
M  V30 4545 C 429.898 -1.74618 -1.00952 0
M  V30 4546 C 430.211 -0.551096 -1.87676 0
M  V30 4547 O 431.417 -0.628507 -2.64125 0
M  V30 4548 C 429.873 -3.09025 -1.84476 0
M  V30 4549 C 429.481 -4.36081 -1.0265 0
M  V30 4550 C 431.225 -3.37891 -2.56963 0
M  V30 4551 C 429.132 -5.6153 -1.85576 0
M  V30 4552 H 428.062 -0.650868 -0.38064 0
M  V30 4553 H 430.713 -1.81569 -0.265475 0
M  V30 4554 H 429.095 -2.96095 -2.62952 0
M  V30 4555 H 430.269 -4.59909 -0.286354 0
M  V30 4556 H 428.584 -4.14312 -0.416464 0
M  V30 4557 H 431.181 -4.28822 -3.19399 0
M  V30 4558 H 431.524 -2.57737 -3.26921 0
M  V30 4559 H 432.057 -3.5189 -1.85522 0
M  V30 4560 H 428.796 -6.44413 -1.2005 0
M  V30 4561 H 428.316 -5.41854 -2.57204 0
M  V30 4562 H 429.995 -5.99594 -2.43096 0
M  V30 4563 N 430.127 0.543554 -1.4793 0
M  V30 4564 C 431.367 1.31072 -1.56843 0
M  V30 4565 C 431.731 1.90604 -0.231124 0
M  V30 4566 O 432.932 2.68091 -0.195165 0
M  V30 4567 C 431.203 2.38106 -2.66533 0
M  V30 4568 S 432.762 3.24729 -2.95122 0
M  V30 4569 H 429.58 0.446035 -0.553691 0
M  V30 4570 H 432.182 0.620777 -1.85382 0
M  V30 4571 H 430.886 1.92828 -3.62278 0
M  V30 4572 H 430.417 3.11824 -2.39852 0
M  V30 4573 H 432.432 4.37891 -2.3338 0
M  V30 4574 N 431.605 1.3629 0.791371 0
M  V30 4575 C 432.568 1.30309 1.88553 0
M  V30 4576 C 433.568 0.211204 1.59407 0
M  V30 4577 O 434.758 0.465865 1.67855 0
M  V30 4578 C 431.89 1.01956 3.25297 0
M  V30 4579 H 433.083 2.27614 1.95273 0
M  V30 4580 H 430.636 1.21035 0.988953 0
M  V30 4581 H 431.371 0.050998 3.2426 0
M  V30 4582 H 431.156 1.80968 3.4784 0
M  V30 4583 H 432.646 1.0037 4.05359 0
M  V30 4584 N 433.083 -1.0153 1.20538 0
M  V30 4585 C 434.332 -1.74558 1.01057 0
M  V30 4586 C 434.645 -1.90168 -0.457756 0
M  V30 4587 O 435.851 -2.60301 -0.771722 0
M  V30 4588 C 434.307 -3.13963 1.75941 0
M  V30 4589 C 433.915 -3.06361 3.26875 0
M  V30 4590 C 435.659 -3.91191 1.64832 0
M  V30 4591 C 433.566 -4.40782 3.94291 0
M  V30 4592 H 432.496 -0.654417 0.374505 0
M  V30 4593 H 435.147 -1.13521 1.44171 0
M  V30 4594 H 433.529 -3.75549 1.25614 0
M  V30 4595 H 434.703 -2.54074 3.84425 0
M  V30 4596 H 433.018 -2.42625 3.38411 0
M  V30 4597 H 435.615 -4.90644 2.12539 0
M  V30 4598 H 435.958 -4.11884 0.604745 0
M  V30 4599 H 436.491 -3.36236 2.12579 0
M  V30 4600 H 433.23 -4.25292 4.98805 0
M  V30 4601 H 432.75 -4.9307 3.41529 0
M  V30 4602 H 434.429 -5.09621 3.98617 0
M  V30 4603 N 434.561 -1.01147 -1.20859 0
M  V30 4604 C 435.493 -0.535546 -2.22855 0
M  V30 4605 C 436.506 0.379323 -1.58319 0
M  V30 4606 O 437.695 0.178489 -1.77605 0
M  V30 4607 C 434.795 0.240962 -3.38042 0
M  V30 4608 C 433.968 -0.674562 -4.32167 0
M  V30 4609 C 433.027 0.053467 -5.26173 0
M  V30 4610 O 432.053 -0.567339 -5.66366 0
M  V30 4611 N 433.255 1.32997 -5.65059 0
M  V30 4612 H 436.02 -1.41268 -2.64317 0
M  V30 4613 H 433.581 -0.888386 -1.35349 0
M  V30 4614 H 435.573 0.737115 -3.97931 0
M  V30 4615 H 434.143 1.01935 -2.95513 0
M  V30 4616 H 433.363 -1.35111 -3.70322 0
M  V30 4617 H 434.651 -1.2974 -4.91981 0
M  V30 4618 H 434.049 1.85536 -5.34409 0
M  V30 4619 H 432.606 1.77095 -6.2728 0
M  V30 4620 N 436.039 1.36541 -0.78704 0
M  V30 4621 C 437.002 2.28413 -0.189778 0
M  V30 4622 C 438.002 1.48719 0.611499 0
M  V30 4623 O 439.192 1.68737 0.432842 0
M  V30 4624 C 436.324 3.32824 0.737638 0
M  V30 4625 H 437.517 2.82743 -0.999831 0
M  V30 4626 H 435.07 1.46065 -0.556298 0
M  V30 4627 H 435.805 2.83646 1.57212 0
M  V30 4628 H 435.59 3.91752 0.165044 0
M  V30 4629 H 437.08 4.0144 1.15047 0
M  V30 4630 N 437.518 0.538854 1.48102 0
M  V30 4631 C 438.764 0.00801365 2.02798 0
M  V30 4632 C 439.097 -1.3309 1.41424 0
M  V30 4633 O 438.372 -1.86169 0.563158 0
M  V30 4634 C 438.655 -0.104589 3.59948 0
M  V30 4635 C 438.508 1.26012 4.31788 0
M  V30 4636 C 439.827 -0.827055 4.32259 0
M  V30 4637 H 436.946 0.00438624 0.736987 0
M  V30 4638 H 439.588 0.6976 1.7673 0
M  V30 4639 H 437.738 -0.691893 3.82289 0
M  V30 4640 H 439.41 1.88922 4.2084 0
M  V30 4641 H 437.653 1.83968 3.92859 0
M  V30 4642 H 438.324 1.13424 5.40221 0
M  V30 4643 H 440.8 -0.328578 4.14801 0
M  V30 4644 H 439.676 -0.87476 5.41885 0
M  V30 4645 H 439.937 -1.87927 4.0017 0
M  V30 4646 N 438.996 -1.55193 0.274407 0
M  V30 4647 C 439.929 -2.18606 -0.654712 0
M  V30 4648 C 440.907 -1.14677 -1.15273 0
M  V30 4649 O 442.091 -1.43198 -1.22583 0
M  V30 4650 C 439.218 -2.80875 -1.89281 0
M  V30 4651 C 438.264 -3.981 -1.53032 0
M  V30 4652 S 439.097 -5.32025 -0.609107 0
M  V30 4653 C 440.253 -5.97761 -1.85559 0
M  V30 4654 H 440.486 -2.97074 -0.115894 0
M  V30 4655 H 438.019 -1.54288 0.05867 0
M  V30 4656 H 439.977 -3.17381 -2.60345 0
M  V30 4657 H 438.638 -2.02302 -2.40277 0
M  V30 4658 H 437.831 -4.40356 -2.45158 0
M  V30 4659 H 437.433 -3.63013 -0.899874 0
M  V30 4660 H 439.725 -6.16951 -2.7996 0
M  V30 4661 H 440.668 -6.92545 -1.47605 0
M  V30 4662 H 441.076 -5.27113 -2.02021 0
M  V30 4663 N 440.474 -0.00167713 -1.576 0
M  V30 4664 C 441.384 1.00548 -2.1196 0
M  V30 4665 C 442.4 1.3758 -1.06526 0
M  V30 4666 O 443.576 1.46278 -1.38436 0
M  V30 4667 C 440.641 2.27809 -2.6135 0
M  V30 4668 C 439.702 1.97074 -3.81393 0
M  V30 4669 C 438.935 3.18267 -4.28417 0
M  V30 4670 O 439.158 4.30009 -3.74765 0
M  V30 4671 O 438.092 3.02167 -5.20556 0
M  V30 4672 H 441.918 0.573373 -2.98238 0
M  V30 4673 H 439.503 0.217255 -1.47812 0
M  V30 4674 H 441.385 3.02568 -2.93309 0
M  V30 4675 H 440.06 2.70254 -1.78169 0
M  V30 4676 H 438.967 1.19785 -3.54404 0
M  V30 4677 H 440.3 1.59464 -4.65652 0
M  V30 4678 N 441.952 1.55251 0.271103 0
M  V30 4679 C 443.2 1.75599 1.00047 0
M  V30 4680 C 443.521 0.561188 1.8675 0
M  V30 4681 O 442.791 -0.423846 1.9126 0
M  V30 4682 H 441.371 0.647562 0.372387 0
M  V30 4683 H 444.033 1.92656 0.294876 0
M  V30 4684 H 443.129 2.65766 1.6363 0
M  V30 4685 N 443.43 -0.535701 1.48216 0
M  V30 4686 C 444.677 -1.29183 1.55942 0
M  V30 4687 C 445.005 -1.93125 0.230857 0
M  V30 4688 O 444.26 -1.79556 -0.778331 0
M  V30 4689 C 444.559 -2.4068 2.64212 0
M  V30 4690 C 444.225 -1.94428 4.06827 0
M  V30 4691 C 442.887 -1.81532 4.45645 0
M  V30 4692 C 445.239 -1.59405 4.96225 0
M  V30 4693 C 442.567 -1.31939 5.71672 0
M  V30 4694 C 444.919 -1.11276 6.22736 0
M  V30 4695 C 443.583 -0.969924 6.60416 0
M  V30 4696 H 442.853 -0.472715 0.570632 0
M  V30 4697 H 445.5 -0.598437 1.81909 0
M  V30 4698 H 443.805 -3.15666 2.32083 0
M  V30 4699 H 445.502 -2.98822 2.67407 0
M  V30 4700 H 442.092 -2.05415 3.76168 0
M  V30 4701 H 446.276 -1.68231 4.66917 0
M  V30 4702 H 441.532 -1.19562 5.99596 0
M  V30 4703 H 445.706 -0.832453 6.91407 0
M  V30 4704 H 443.333 -0.583436 7.57958 0
M  V30 4705 N 444.908 -1.36708 -0.784132 0
M  V30 4706 C 445.856 -1.31533 -1.91838 0
M  V30 4707 C 446.85 -0.206205 -1.6814 0
M  V30 4708 O 448.056 -0.373519 -1.76082 0
M  V30 4709 H 444.431 -0.409613 -0.630651 0
M  V30 4710 H 446.402 -2.2731 -1.9332 0
M  V30 4711 C 445.151 -1.12679 -3.28936 0
M  V30 4712 H 444.474 -1.97274 -3.4774 0
M  V30 4713 H 445.914 -1.13106 -4.08636 0
M  V30 4714 C 444.373 0.168281 -3.36479 0
M  V30 4715 O 444.903 1.15625 -3.84699 0
M  V30 4716 N 443.109 0.214762 -2.89805 0
M  V30 4717 H 442.656 -0.589852 -2.50756 0
M  V30 4718 H 442.614 1.08094 -2.95234 0
M  V30 4719 N 446.386 1.0089 -1.21074 0
M  V30 4720 C 447.632 1.74866 -1.02712 0
M  V30 4721 C 447.965 1.89178 0.438787 0
M  V30 4722 O 447.24 1.42325 1.32567 0
M  V30 4723 C 447.523 3.16347 -1.72036 0
M  V30 4724 C 447.376 3.09782 -3.26121 0
M  V30 4725 C 448.695 4.15187 -1.45973 0
M  V30 4726 H 445.814 0.634736 -0.374539 0
M  V30 4727 H 448.456 1.17646 -1.49196 0
M  V30 4728 H 446.606 3.65201 -1.32517 0
M  V30 4729 H 448.278 2.68673 -3.74983 0
M  V30 4730 H 446.521 2.46982 -3.56626 0
M  V30 4731 H 447.192 4.09829 -3.6979 0
M  V30 4732 H 449.668 3.75022 -1.80272 0
M  V30 4733 H 448.544 5.12331 -1.96999 0
M  V30 4734 H 448.805 4.40386 -0.388924 0
M  V30 4735 N 447.864 1.01787 1.20321 0
M  V30 4736 C 449.11 0.708985 1.90003 0
M  V30 4737 C 449.443 -0.759572 1.78729 0
M  V30 4738 O 448.718 -1.55198 1.17234 0
M  V30 4739 C 449.001 1.1469 3.41348 0
M  V30 4740 C 448.854 2.67586 3.61549 0
M  V30 4741 C 450.173 0.71915 4.34185 0
M  V30 4742 H 447.292 0.259034 0.689978 0
M  V30 4743 H 449.934 1.26584 1.41692 0
M  V30 4744 H 448.084 0.673128 3.82624 0
M  V30 4745 H 449.756 3.22826 3.29517 0
M  V30 4746 H 447.999 3.085 3.04976 0
M  V30 4747 H 448.67 2.93281 4.67643 0
M  V30 4748 H 451.146 1.12647 4.00562 0
M  V30 4749 H 450.022 1.05358 5.38694 0
M  V30 4750 H 450.283 -0.379111 4.40472 0
M  V30 4751 N 449.342 -1.36122 0.79427 0
M  V30 4752 C 450.57 -2.03362 0.380989 0
M  V30 4753 C 450.985 -1.59881 -1.00416 0
M  V30 4754 O 450.342 -0.790515 -1.6449 0
M  V30 4755 C 450.393 -3.58804 0.440649 0
M  V30 4756 O 450.114 -4.007 1.77118 0
M  V30 4757 C 451.615 -4.43296 0.0186117 0
M  V30 4758 H 448.835 -0.652526 0.156367 0
M  V30 4759 H 451.379 -1.73998 1.07447 0
M  V30 4760 H 449.534 -3.8686 -0.204458 0
M  V30 4761 H 449.948 -4.95309 1.72538 0
M  V30 4762 H 451.422 -5.51887 0.111488 0
M  V30 4763 H 451.899 -4.2684 -1.03461 0
M  V30 4764 H 452.505 -4.20512 0.636395 0
M  V30 4765 N 450.82 -0.546701 -1.47814 0
M  V30 4766 C 451.75 0.195317 -2.32682 0
M  V30 4767 C 452.731 0.918981 -1.43139 0
M  V30 4768 O 453.916 0.901501 -1.72008 0
M  V30 4769 C 451.046 1.23237 -3.247 0
M  V30 4770 C 450 0.625818 -4.234 0
M  V30 4771 C 449.326 1.76674 -5.04669 0
M  V30 4772 C 450.626 -0.413515 -5.2066 0
M  V30 4773 H 452.32 -0.513184 -2.94969 0
M  V30 4774 H 449.866 -0.248241 -1.41844 0
M  V30 4775 H 451.819 1.75955 -3.82907 0
M  V30 4776 H 450.543 1.97067 -2.60446 0
M  V30 4777 H 449.202 0.120023 -3.66403 0
M  V30 4778 H 448.85 2.49383 -4.36826 0
M  V30 4779 H 448.55 1.36673 -5.71484 0
M  V30 4780 H 450.074 2.29738 -5.65732 0
M  V30 4781 H 451.488 0.0272042 -5.73294 0
M  V30 4782 H 449.885 -0.731825 -5.95621 0
M  V30 4783 H 450.955 -1.31325 -4.66778 0
M  V30 4784 N 452.299 1.55045 -0.282633 0
M  V30 4785 C 453.576 1.9179 0.384166 0
M  V30 4786 C 453.956 1.20778 1.73136 0
M  V30 4787 O 453.304 0.33719 2.25998 0
M  V30 4788 C 453.514 3.45149 0.517014 0
M  V30 4789 C 454.862 4.17064 0.796427 0
M  V30 4790 O 455.886 3.51084 0.601535 0
M  V30 4791 O 454.745 5.33837 1.16962 0
M  V30 4792 H 451.839 0.799483 0.211558 0
M  V30 4793 H 454.385 1.66474 -0.32934 0
M  V30 4794 H 453.157 3.88922 -0.430772 0
M  V30 4795 H 452.78 3.76443 1.2797 0
M  V30 4796 N 453.777 0.010035 1.57597 0
M  V30 4797 C 454.687 -0.994226 2.12491 0
M  V30 4798 C 455.703 -1.37013 1.07254 0
M  V30 4799 O 456.879 -1.45542 1.3921 0
M  V30 4800 C 453.944 -2.2642 2.62555 0
M  V30 4801 C 453.005 -1.95049 3.82432 0
M  V30 4802 C 452.238 -3.15991 4.30099 0
M  V30 4803 O 452.461 -4.28015 3.7704 0
M  V30 4804 O 451.395 -2.99403 5.22151 0
M  V30 4805 H 455.221 -0.557549 2.98538 0
M  V30 4806 H 452.806 -0.209413 1.47925 0
M  V30 4807 H 454.688 -3.01009 2.9491 0
M  V30 4808 H 453.363 -2.69306 1.796 0
M  V30 4809 H 452.27 -1.17904 3.55034 0
M  V30 4810 H 453.603 -1.56992 4.66491 0
M  V30 4811 N 455.255 -1.55392 -0.262866 0
M  V30 4812 C 456.504 -1.75679 -0.990943 0
M  V30 4813 C 456.817 -0.57097 -1.87081 0
M  V30 4814 O 458.023 -0.656486 -2.63444 0
M  V30 4815 C 456.479 -3.10964 -1.81188 0
M  V30 4816 C 456.087 -4.37146 -0.980188 0
M  V30 4817 C 457.831 -3.40597 -2.53365 0
M  V30 4818 C 455.738 -5.63466 -1.7961 0
M  V30 4819 H 454.668 -0.654868 -0.373716 0
M  V30 4820 H 457.319 -1.81841 -0.246203 0
M  V30 4821 H 455.701 -2.98867 -2.59797 0
M  V30 4822 H 456.875 -4.60187 -0.237558 0
M  V30 4823 H 455.19 -4.14731 -0.372497 0
M  V30 4824 H 457.787 -4.32186 -3.14833 0
M  V30 4825 H 458.13 -2.6119 -3.24169 0
M  V30 4826 H 458.663 -3.53838 -1.81779 0
M  V30 4827 H 455.402 -6.4565 -1.13209 0
M  V30 4828 H 454.922 -5.44552 -2.51443 0
M  V30 4829 H 456.601 -6.02139 -2.36723 0
M  V30 4830 N 456.733 0.527833 -1.48498 0
M  V30 4831 C 457.979 1.28545 -1.56857 0
M  V30 4832 C 458.312 1.92678 -0.242651 0
M  V30 4833 O 457.587 1.79394 0.751545 0
M  V30 4834 C 457.87 2.37314 -2.70839 0
M  V30 4835 C 457.723 1.77858 -4.13142 0
M  V30 4836 C 459.042 3.39068 -2.80573 0
M  V30 4837 H 456.161 0.466006 -0.570971 0
M  V30 4838 H 458.803 0.587784 -1.8068 0
M  V30 4839 H 456.953 2.96821 -2.50658 0
M  V30 4840 H 458.625 1.22385 -4.44769 0
M  V30 4841 H 456.868 1.08383 -4.20042 0
M  V30 4842 H 457.539 2.56624 -4.88721 0
M  V30 4843 H 460.015 2.89518 -2.98862 0
M  V30 4844 H 458.891 4.12566 -3.6205 0
M  V30 4845 H 459.152 3.9975 -1.88818 0
M  V30 4846 N 458.211 1.37122 0.776871 0
M  V30 4847 C 459.488 1.22586 1.52421 0
M  V30 4848 C 459.868 -0.182726 2.10308 0
M  V30 4849 O 459.216 -1.18979 1.9508 0
M  V30 4850 C 459.426 2.31782 2.60918 0
M  V30 4851 C 460.774 2.69071 3.2846 0
M  V30 4852 O 461.798 2.3092 2.71209 0
M  V30 4853 O 460.657 3.3478 4.31954 0
M  V30 4854 H 457.751 0.478045 0.674835 0
M  V30 4855 H 460.297 1.48888 0.814275 0
M  V30 4856 H 459.069 3.26131 2.16227 0
M  V30 4857 H 458.692 2.06916 3.39517 0
M  V30 4858 N 459.689 -1.00246 1.21608 0
M  V30 4859 C 460.636 -2.09073 0.977613 0
M  V30 4860 C 461.606 -1.65815 -0.097297 0
M  V30 4861 O 462.791 -1.90734 0.0503445 0
M  V30 4862 C 459.931 -3.40671 0.551133 0
M  V30 4863 C 459.044 -3.97326 1.69576 0
M  V30 4864 C 458.179 -5.17043 1.2182 0
M  V30 4865 C 457.218 -5.65813 2.335 0
M  V30 4866 N 456.355 -6.76778 1.86859 0
M  V30 4867 H 461.195 -2.28806 1.90924 0
M  V30 4868 H 458.732 -1.12186 0.951452 0
M  V30 4869 H 460.69 -4.16225 0.285097 0
M  V30 4870 H 459.32 -3.20967 -0.343489 0
M  V30 4871 H 458.372 -3.18734 2.07637 0
M  V30 4872 H 459.684 -4.29511 2.53617 0
M  V30 4873 H 458.838 -5.99852 0.908975 0
M  V30 4874 H 457.577 -4.86458 0.347869 0
M  V30 4875 H 456.582 -4.81599 2.65222 0
M  V30 4876 H 457.807 -5.98427 3.21033 0
M  V30 4877 H 455.753 -6.47994 1.02174 0
M  V30 4878 H 455.67 -7.08231 2.64471 0
M  V30 4879 H 456.938 -7.63116 1.58978 0
M  V30 4880 N 461.167 -1.02423 -1.1978 0
M  V30 4881 C 462.415 -0.716569 -1.8897 0
M  V30 4882 C 462.736 0.756769 -1.79716 0
M  V30 4883 O 462.006 1.5449 -1.20456 0
M  V30 4884 H 460.586 -0.262062 -0.699523 0
M  V30 4885 H 463.248 -1.29747 -1.45436 0
M  V30 4886 H 462.344 -1.00675 -2.95417 0
M  V30 4887 N 462.645 1.35699 -0.801477 0
M  V30 4888 C 463.922 1.9324 -0.302937 0
M  V30 4889 C 464.302 1.73209 1.20672 0
M  V30 4890 O 463.65 1.09809 2.00385 0
M  V30 4891 C 463.86 3.41728 -0.708747 0
M  V30 4892 C 465.208 4.18868 -0.695328 0
M  V30 4893 O 466.232 3.5022 -0.649971 0
M  V30 4894 O 465.091 5.41342 -0.749081 0
M  V30 4895 H 462.185 0.82331 -0.0780367 0
M  V30 4896 H 464.731 1.44806 -0.884832 0
M  V30 4897 H 463.503 3.50015 -1.74944 0
M  V30 4898 H 463.126 3.97471 -0.101384 0
M  V30 4899 N 464.123 0.554532 1.47522 0
M  V30 4900 C 465.37 0.029479 2.02479 0
M  V30 4901 C 465.698 -1.31929 1.42916 0
M  V30 4902 O 464.953 -1.87112 0.573385 0
M  V30 4903 C 465.252 -0.115927 3.57212 0
M  V30 4904 C 464.918 1.16161 4.3568 0
M  V30 4905 C 463.58 1.51168 4.56839 0
M  V30 4906 C 465.932 2.0083 4.80954 0
M  V30 4907 C 463.26 2.70696 5.2052 0
M  V30 4908 C 465.612 3.19559 5.45953 0
M  V30 4909 C 464.276 3.54882 5.65345 0
M  V30 4910 H 463.546 0.0107871 0.740921 0
M  V30 4911 H 466.193 0.725506 1.77225 0
M  V30 4912 H 464.498 -0.894902 3.81443 0
M  V30 4913 H 466.195 -0.53749 3.97381 0
M  V30 4914 H 462.785 0.879026 4.19489 0
M  V30 4915 H 466.969 1.75093 4.64388 0
M  V30 4916 H 462.225 2.98236 5.33728 0
M  V30 4917 H 466.399 3.85456 5.79997 0
M  V30 4918 H 464.026 4.47596 6.1446 0
M  V30 4919 N 465.601 -1.54893 0.290851 0
M  V30 4920 C 466.848 -1.99933 -0.321391 0
M  V30 4921 C 467.176 -1.17927 -1.54672 0
M  V30 4922 O 466.431 -0.240902 -1.94212 0
M  V30 4923 C 466.73 -3.49815 -0.732397 0
M  V30 4924 C 466.396 -4.4921 0.390056 0
M  V30 4925 C 465.058 -4.76107 0.698223 0
M  V30 4926 C 467.41 -5.08453 1.14562 0
M  V30 4927 C 464.738 -5.59514 1.76526 0
M  V30 4928 C 467.09 -5.9302 2.2025 0
M  V30 4929 C 465.754 -6.18232 2.51684 0
M  V30 4930 H 465.024 -0.731608 -0.117605 0
M  V30 4931 H 467.671 -1.87107 0.407839 0
M  V30 4932 H 465.976 -3.60199 -1.54155 0
M  V30 4933 H 467.673 -3.82083 -1.21712 0
M  V30 4934 H 464.263 -4.28372 0.13976 0
M  V30 4935 H 468.447 -4.87683 0.920801 0
M  V30 4936 H 463.703 -5.77289 2.01364 0
M  V30 4937 H 467.877 -6.37955 2.7926 0
M  V30 4938 H 465.504 -6.82653 3.34499 0
M  V30 4939 N 467.08 -0.0183926 -1.57589 0
M  V30 4940 C 468.329 0.66185 -1.90532 0
M  V30 4941 C 468.642 1.73904 -0.895366 0
M  V30 4942 O 469.848 2.47518 -1.11566 0
M  V30 4943 C 468.304 1.22844 -3.38286 0
M  V30 4944 C 467.912 0.185103 -4.47617 0
M  V30 4945 C 469.656 1.88581 -3.80312 0
M  V30 4946 C 467.563 0.762723 -5.86461 0
M  V30 4947 H 466.493 0.250972 -0.711006 0
M  V30 4948 H 469.144 -0.0819435 -1.83317 0
M  V30 4949 H 467.526 2.0235 -3.40398 0
M  V30 4950 H 468.7 -0.58671 -4.5705 0
M  V30 4951 H 467.015 -0.372889 -4.14727 0
M  V30 4952 H 469.612 2.32735 -4.81392 0
M  V30 4953 H 469.955 2.72408 -3.14801 0
M  V30 4954 H 470.488 1.15782 -3.80578 0
M  V30 4955 H 467.227 -0.0371713 -6.55489 0
M  V30 4956 H 466.747 1.50327 -5.80656 0
M  V30 4957 H 468.426 1.25576 -6.34697 0
M  V30 4958 N 468.558 1.5553 0.254621 0
M  V30 4959 C 469.786 1.81046 1.00149 0
M  V30 4960 C 470.201 0.593047 1.79244 0
M  V30 4961 O 469.558 -0.438196 1.77161 0
M  V30 4962 C 469.609 3.04684 1.94551 0
M  V30 4963 O 469.33 4.21725 1.18658 0
M  V30 4964 C 470.831 3.42943 2.80901 0
M  V30 4965 H 468.051 0.602653 0.295044 0
M  V30 4966 H 470.595 2.02576 0.279842 0
M  V30 4967 H 468.75 2.85226 2.62154 0
M  V30 4968 H 469.164 4.91746 1.82445 0
M  V30 4969 H 470.638 4.32576 3.42902 0
M  V30 4970 H 471.115 2.63176 3.51617 0
M  V30 4971 H 471.721 3.64724 2.18762 0
M  V30 4972 N 470.036 -0.519951 1.48776 0
M  V30 4973 C 471.276 -1.2856 1.58908 0
M  V30 4974 C 471.64 -1.90212 0.261418 0
M  V30 4975 O 472.841 -2.67746 0.237791 0
M  V30 4976 C 471.112 -2.33836 2.70288 0
M  V30 4977 S 472.671 -3.19992 3.0025 0
M  V30 4978 H 469.489 -0.43717 0.560717 0
M  V30 4979 H 472.091 -0.591205 1.86346 0
M  V30 4980 H 470.795 -1.87041 3.653 0
M  V30 4981 H 470.326 -3.07969 2.44783 0
M  V30 4982 H 472.341 -4.34122 2.40317 0
M  V30 4983 N 471.514 -1.37532 -0.769588 0
M  V30 4984 C 472.742 -1.36059 -1.55871 0
M  V30 4985 C 473.157 0.053544 -1.88724 0
M  V30 4986 O 472.514 1.01591 -1.5161 0
M  V30 4987 C 472.565 -2.20107 -2.86767 0
M  V30 4988 O 472.286 -3.56009 -2.55321 0
M  V30 4989 C 473.787 -2.26636 -3.80987 0
M  V30 4990 H 471.007 -0.465967 -0.482821 0
M  V30 4991 H 473.551 -1.80901 -0.953686 0
M  V30 4992 H 471.706 -1.78768 -3.43687 0
M  V30 4993 H 472.12 -4.0009 -3.39158 0
M  V30 4994 H 473.594 -2.89763 -4.69831 0
M  V30 4995 H 474.071 -1.2754 -4.20274 0
M  V30 4996 H 474.677 -2.68296 -3.29996 0
M  V30 4997 N 472.992 0.995999 -1.22138 0
M  V30 4998 C 474.24 1.73167 -1.042 0
M  V30 4999 C 474.561 1.90329 0.42423 0
M  V30 5000 O 473.831 1.4607 1.30539 0
M  V30 5001 H 472.411 0.641593 -0.38258 0
M  V30 5002 H 475.073 1.19974 -1.53598 0
M  V30 5003 H 474.169 2.72734 -1.51731 0
M  V30 5004 N 474.47 1.03057 1.19235 0
M  V30 5005 C 475.418 0.606391 2.24557 0
M  V30 5006 C 476.412 -0.361826 1.65491 0
M  V30 5007 O 477.618 -0.23022 1.78522 0
M  V30 5008 H 473.993 0.177838 0.730669 0
M  V30 5009 H 475.964 1.50529 2.5765 0
M  V30 5010 C 474.713 -0.0252127 3.47691 0
M  V30 5011 H 474.036 0.710838 3.9343 0
M  V30 5012 H 475.476 -0.284931 4.23042 0
M  V30 5013 C 473.935 -1.27229 3.11953 0
M  V30 5014 O 474.465 -2.36416 3.24762 0
M  V30 5015 N 472.671 -1.16169 2.6637 0
M  V30 5016 H 472.218 -0.273189 2.56147 0
M  V30 5017 H 472.176 -1.99703 2.42829 0
M  V30 5018 N 475.948 -1.35272 0.808662 0
M  V30 5019 C 477.194 -1.99003 0.390581 0
M  V30 5020 C 477.527 -1.63999 -1.0401 0
M  V30 5021 O 476.802 -0.904368 -1.72196 0
M  V30 5022 C 477.085 -3.55454 0.576566 0
M  V30 5023 C 476.938 -4.00249 2.05233 0
M  V30 5024 C 478.257 -4.401 0.00354277 0
M  V30 5025 H 475.376 -0.722917 0.143388 0
M  V30 5026 H 478.018 -1.6039 1.01858 0
M  V30 5027 H 476.168 -3.88477 0.0419766 0
M  V30 5028 H 477.84 -3.77626 2.64946 0
M  V30 5029 H 476.083 -3.51082 2.54801 0
M  V30 5030 H 476.754 -5.0911 2.13333 0
M  V30 5031 H 479.23 -4.13548 0.460117 0
M  V30 5032 H 478.106 -5.48656 0.163575 0
M  V30 5033 H 478.367 -4.28444 -1.09032 0
M  V30 5034 N 477.426 -0.562348 -1.47226 0
M  V30 5035 C 478.703 0.0256985 -1.95583 0
M  V30 5036 C 479.083 1.48032 -1.50498 0
M  V30 5037 O 478.431 2.15973 -0.746181 0
M  V30 5038 C 478.641 -0.125129 -3.48776 0
M  V30 5039 C 479.989 0.0175728 -4.24596 0
M  V30 5040 O 481.013 -0.0529341 -3.56161 0
M  V30 5041 O 479.872 0.170145 -5.46235 0
M  V30 5042 H 476.966 0.0612565 -0.824728 0
M  V30 5043 H 479.512 -0.629233 -1.57603 0
M  V30 5044 H 478.284 -1.13715 -3.74412 0
M  V30 5045 H 477.907 0.567178 -3.93534 0
M  V30 5046 N 478.904 1.54736 -0.299062 0
M  V30 5047 C 480.15 2.00397 0.311244 0
M  V30 5048 C 480.483 1.18716 1.53688 0
M  V30 5049 O 479.758 0.263154 1.92712 0
M  V30 5050 C 480.041 3.53817 0.669761 0
M  V30 5051 C 479.894 4.46239 -0.564882 0
M  V30 5052 C 481.213 4.13856 1.49702 0
M  V30 5053 H 478.332 0.728493 0.111653 0
M  V30 5054 H 480.974 1.85506 -0.410774 0
M  V30 5055 H 479.124 3.66637 1.28491 0
M  V30 5056 H 480.796 4.45328 -1.20337 0
M  V30 5057 H 479.039 4.16916 -1.19849 0
M  V30 5058 H 479.71 5.5134 -0.269918 0
M  V30 5059 H 482.186 4.04461 0.977284 0
M  V30 5060 H 481.062 5.21365 1.71666 0
M  V30 5061 H 481.323 3.65608 2.48563 0
M  V30 5062 N 480.382 0.0267497 1.57577 0
M  V30 5063 C 481.631 -0.651736 1.9088 0
M  V30 5064 C 481.944 -1.73427 0.904576 0
M  V30 5065 O 483.15 -2.46923 1.12877 0
M  V30 5066 C 481.606 -1.21048 3.38933 0
M  V30 5067 C 481.214 -0.161362 4.47709 0
M  V30 5068 C 482.958 -1.86562 3.81307 0
M  V30 5069 C 480.865 -0.731611 5.86857 0
M  V30 5070 H 479.795 -0.247198 0.712326 0
M  V30 5071 H 482.446 0.0916641 1.83271 0
M  V30 5072 H 480.828 -2.00542 3.41466 0
M  V30 5073 H 482.002 0.61094 4.56732 0
M  V30 5074 H 480.317 0.394877 4.14523 0
M  V30 5075 H 482.914 -2.30178 4.8262 0
M  V30 5076 H 483.257 -2.70735 3.16241 0
M  V30 5077 H 483.79 -1.13762 3.81186 0
M  V30 5078 H 480.529 0.0719329 6.55461 0
M  V30 5079 H 480.049 -1.47245 5.81445 0
M  V30 5080 H 481.728 -1.22208 6.35354 0
M  V30 5081 N 481.861 -1.55662 -0.24637 0
M  V30 5082 C 482.808 -1.90361 -1.30504 0
M  V30 5083 C 483.778 -0.757905 -1.47801 0
M  V30 5084 O 484.963 -1.01161 -1.61775 0
M  V30 5085 C 482.103 -2.2042 -2.65535 0
M  V30 5086 C 481.216 -3.47799 -2.56242 0
M  V30 5087 C 480.351 -3.67426 -3.8363 0
M  V30 5088 C 479.39 -4.88403 -3.68956 0
M  V30 5089 N 478.527 -5.04548 -4.88237 0
M  V30 5090 H 483.367 -2.80645 -1.00213 0
M  V30 5091 H 480.904 -1.38924 -0.483577 0
M  V30 5092 H 482.862 -2.35853 -3.44135 0
M  V30 5093 H 481.492 -1.3334 -2.93973 0
M  V30 5094 H 480.544 -3.40694 -1.69208 0
M  V30 5095 H 481.856 -4.36544 -2.4131 0
M  V30 5096 H 481.01 -3.82821 -4.70673 0
M  V30 5097 H 479.749 -2.76914 -4.01459 0
M  V30 5098 H 478.754 -4.72984 -2.80296 0
M  V30 5099 H 479.979 -5.80375 -3.52621 0
M  V30 5100 H 477.925 -4.16974 -5.06427 0
M  V30 5101 H 477.842 -5.87384 -4.75937 0
M  V30 5102 H 479.11 -5.24355 -5.76777 0
M  V30 5103 N 483.339 0.512053 -1.4905 0
M  V30 5104 C 484.269 1.62365 -1.67809 0
M  V30 5105 C 485.25 1.61737 -0.526809 0
M  V30 5106 O 486.435 1.78651 -0.761404 0
M  V30 5107 C 483.565 3.00895 -1.73435 0
M  V30 5108 C 482.519 3.16387 -2.88242 0
M  V30 5109 C 481.845 4.56157 -2.78971 0
M  V30 5110 C 483.145 2.97457 -4.29321 0
M  V30 5111 H 484.839 1.46921 -2.60873 0
M  V30 5112 H 482.385 0.705379 -1.2554 0
M  V30 5113 H 484.338 3.78549 -1.85145 0
M  V30 5114 H 483.062 3.17403 -0.769619 0
M  V30 5115 H 481.721 2.41155 -2.76116 0
M  V30 5116 H 481.369 4.69525 -1.8043 0
M  V30 5117 H 481.069 4.67465 -3.5602 0
M  V30 5118 H 482.593 5.35886 -2.92675 0
M  V30 5119 H 484.007 3.64888 -4.42187 0
M  V30 5120 H 482.404 3.20245 -5.07507 0
M  V30 5121 H 483.474 1.93692 -4.44535 0
M  V30 5122 N 484.817 1.37938 0.762283 0
M  V30 5123 C 485.727 1.36681 1.90671 0
M  V30 5124 C 486.743 0.265078 1.71969 0
M  V30 5125 O 487.919 0.502055 1.95042 0
M  V30 5126 C 484.984 1.18211 3.25925 0
M  V30 5127 C 484.045 2.3811 3.57214 0
M  V30 5128 C 483.278 2.20512 4.86014 0
M  V30 5129 O 483.501 1.19429 5.57757 0
M  V30 5130 O 482.435 3.08911 5.16583 0
M  V30 5131 H 486.261 2.33091 1.94685 0
M  V30 5132 H 483.846 1.18767 0.906356 0
M  V30 5133 H 485.728 1.09937 4.06807 0
M  V30 5134 H 484.403 0.248807 3.22742 0
M  V30 5135 H 483.31 2.51958 2.76529 0
M  V30 5136 H 484.643 3.30041 3.65149 0
M  V30 5137 N 486.295 -0.989507 1.22664 0
M  V30 5138 C 487.245 -2.06478 0.967005 0
M  V30 5139 C 488.229 -1.60682 -0.0836374 0
M  V30 5140 O 489.421 -1.76541 0.127322 0
M  V30 5141 C 486.55 -3.38861 0.550313 0
M  V30 5142 C 485.636 -3.9128 1.63587 0
M  V30 5143 N 486.027 -4.16884 2.86429 0
M  V30 5144 C 484.325 -4.1972 1.50834 0
M  V30 5145 C 485.026 -4.5954 3.56648 0
M  V30 5146 N 484.002 -4.63434 2.84131 0
M  V30 5147 H 487.804 -2.24219 1.90008 0
M  V30 5148 H 485.318 -1.17153 1.12467 0
M  V30 5149 H 487.315 -4.15465 0.345612 0
M  V30 5150 H 485.975 -3.22518 -0.375822 0
M  V30 5151 H 486.986 -4.04976 3.22823 0
M  V30 5152 H 483.663 -4.1243 0.648643 0
M  V30 5153 H 485.053 -4.87944 4.61909 0
M  V30 5154 N 487.773 -1.03688 -1.18687 0
M  V30 5155 C 488.703 -0.645407 -2.24403 0
M  V30 5156 C 489.684 0.349511 -1.66471 0
M  V30 5157 O 490.869 0.230453 -1.92828 0
M  V30 5158 C 487.999 -0.00365337 -3.473 0
M  V30 5159 C 486.953 -0.921705 -4.17958 0
M  V30 5160 C 486.279 -0.144629 -5.34504 0
M  V30 5161 C 487.579 -2.23909 -4.71871 0
M  V30 5162 H 489.273 -1.52917 -2.57404 0
M  V30 5163 H 486.819 -0.736711 -1.23728 0
M  V30 5164 H 488.772 0.281908 -4.20456 0
M  V30 5165 H 487.496 0.914963 -3.13522 0
M  V30 5166 H 486.155 -1.19159 -3.46694 0
M  V30 5167 H 485.803 0.776274 -4.96974 0
M  V30 5168 H 485.503 -0.756206 -5.82714 0
M  V30 5169 H 487.027 0.134004 -6.10453 0
M  V30 5170 H 488.441 -2.0145 -5.36741 0
M  V30 5171 H 486.838 -2.8033 -5.30599 0
M  V30 5172 H 487.908 -2.88822 -3.895 0
M  V30 5173 N 489.251 1.34841 -0.815825 0
M  V30 5174 C 490.181 2.32187 -0.247298 0
M  V30 5175 C 491.162 1.5791 0.632344 0
M  V30 5176 O 492.347 1.8593 0.560698 0
M  V30 5177 C 489.477 3.42122 0.597466 0
M  V30 5178 C 488.431 4.27602 -0.184446 0
M  V30 5179 C 487.757 5.28942 0.782609 0
M  V30 5180 C 489.057 5.03502 -1.38865 0
M  V30 5181 H 490.751 2.79985 -1.06061 0
M  V30 5182 H 488.297 1.34611 -0.511461 0
M  V30 5183 H 490.25 4.09232 1.00533 0
M  V30 5184 H 488.974 2.92956 1.44376 0
M  V30 5185 H 487.633 3.62085 -0.573592 0
M  V30 5186 H 487.281 4.7604 1.62466 0
M  V30 5187 H 486.981 5.87008 0.263695 0
M  V30 5188 H 488.505 5.98922 1.18848 0
M  V30 5189 H 489.919 5.63506 -1.05518 0
M  V30 5190 H 488.316 5.71108 -1.8427 0
M  V30 5191 H 489.386 4.33608 -2.17054 0
M  V30 5192 N 490.729 0.570148 1.46925 0
M  V30 5193 C 491.676 -0.170257 2.30171 0
M  V30 5194 C 492.646 -0.896099 1.39855 0
M  V30 5195 O 493.831 -0.889248 1.68811 0
M  V30 5196 C 490.971 -1.18605 3.24079 0
M  V30 5197 C 490.084 -0.464947 4.29491 0
M  V30 5198 C 489.219 -1.46716 5.10537 0
M  V30 5199 C 488.258 -0.731758 6.0771 0
M  V30 5200 N 487.395 -1.68142 6.81669 0
M  V30 5201 H 492.235 0.545713 2.92961 0
M  V30 5202 H 489.772 0.280938 1.44392 0
M  V30 5203 H 491.73 -1.78771 3.76957 0
M  V30 5204 H 490.36 -1.86989 2.63125 0
M  V30 5205 H 489.412 0.251506 3.79568 0
M  V30 5206 H 490.724 0.110548 4.98677 0
M  V30 5207 H 489.878 -2.14199 5.6763 0
M  V30 5208 H 488.617 -2.07658 4.41282 0
M  V30 5209 H 487.622 -0.0430787 5.49783 0
M  V30 5210 H 488.847 -0.127904 6.7898 0
M  V30 5211 H 486.793 -2.27918 6.15134 0
M  V30 5212 H 486.71 -1.15841 7.47072 0
M  V30 5213 H 487.978 -2.347 7.43328 0
M  V30 5214 N 492.207 -1.54576 0.307264 0
M  V30 5215 C 493.14 -2.19946 -0.608195 0
M  V30 5216 C 494.118 -1.17096 -1.12815 0
M  V30 5217 O 495.302 -1.45766 -1.19518 0
M  V30 5218 C 492.429 -2.84826 -1.8328 0
M  V30 5219 C 491.475 -4.01256 -1.44554 0
M  V30 5220 S 492.308 -5.33197 -0.49612 0
M  V30 5221 C 493.464 -6.01563 -1.72838 0
M  V30 5222 H 493.697 -2.97253 -0.0528544 0
M  V30 5223 H 491.23 -1.54129 0.0913837 0
M  V30 5224 H 493.188 -3.22832 -2.53554 0
M  V30 5225 H 491.849 -2.07353 -2.35931 0
M  V30 5226 H 491.042 -4.45457 -2.35762 0
M  V30 5227 H 490.644 -3.6484 -0.822671 0
M  V30 5228 H 492.936 -6.22751 -2.6681 0
M  V30 5229 H 493.879 -6.9552 -1.32882 0
M  V30 5230 H 494.287 -5.31279 -1.90795 0
M  V30 5231 N 493.685 -0.035106 -1.57561 0
M  V30 5232 C 494.632 0.94474 -2.10578 0
M  V30 5233 C 495.602 1.3192 -1.00927 0
M  V30 5234 O 496.787 1.41147 -1.28382 0
M  V30 5235 C 493.927 2.21982 -2.64231 0
M  V30 5236 C 493.04 1.90128 -3.87911 0
M  V30 5237 C 492.175 3.11975 -4.29936 0
M  V30 5238 C 491.214 2.75968 -5.46359 0
M  V30 5239 N 490.351 3.90459 -5.83512 0
M  V30 5240 H 495.191 0.485717 -2.94015 0
M  V30 5241 H 492.728 0.228143 -1.4532 0
M  V30 5242 H 494.686 2.96572 -2.9343 0
M  V30 5243 H 493.316 2.6549 -1.83616 0
M  V30 5244 H 492.368 1.05755 -3.65404 0
M  V30 5245 H 493.68 1.59613 -4.72573 0
M  V30 5246 H 492.834 3.9488 -4.60603 0
M  V30 5247 H 491.573 3.45657 -3.44053 0
M  V30 5248 H 490.578 1.91478 -5.1538 0
M  V30 5249 H 491.803 2.43497 -6.33945 0
M  V30 5250 H 489.749 4.23971 -5.00584 0
M  V30 5251 H 489.666 3.63588 -6.62827 0
M  V30 5252 H 490.934 4.7405 -6.18787 0
M  V30 5253 N 495.163 1.55791 0.238111 0
M  V30 5254 C 496.111 1.91885 1.31464 0
M  V30 5255 C 497.105 0.798929 1.49377 0
M  V30 5256 O 498.311 0.983626 1.50747 0
M  V30 5257 H 494.686 0.609551 0.440399 0
M  V30 5258 H 496.657 2.81747 0.982925 0
M  V30 5259 C 495.406 2.23763 2.6613 0
M  V30 5260 H 494.729 3.09444 2.53149 0
M  V30 5261 H 496.169 2.52915 3.40309 0
M  V30 5262 C 494.628 1.05699 3.1989 0
M  V30 5263 O 495.158 0.309524 4.00506 0
M  V30 5264 N 493.364 0.845251 2.78036 0
M  V30 5265 H 492.911 1.4548 2.12588 0
M  V30 5266 H 492.869 0.0569973 3.14348 0
M  V30 5267 N 496.642 -0.504142 1.49319 0
M  V30 5268 C 497.59 -1.62689 1.66238 0
M  V30 5269 C 498.584 -1.6095 0.528349 0
M  V30 5270 O 499.79 -1.65496 0.707887 0
M  V30 5271 H 496.165 -0.539247 0.524134 0
M  V30 5272 H 498.136 -1.45571 2.60484 0
M  V30 5273 C 496.885 -3.00841 1.74328 0
M  V30 5274 H 496.208 -3.02884 2.60963 0
M  V30 5275 H 497.648 -3.78945 1.90202 0
M  V30 5276 C 496.107 -3.33355 0.487416 0
M  V30 5277 O 496.637 -3.99819 -0.388294 0
M  V30 5278 N 494.843 -2.88469 0.351306 0
M  V30 5279 H 494.39 -2.34557 1.06492 0
M  V30 5280 H 494.348 -3.10591 -0.487899 0
M  V30 5281 N 498.12 -1.38341 -0.754957 0
M  V30 5282 C 499.083 -1.35262 -1.85032 0
M  V30 5283 C 500.083 -0.253393 -1.58791 0
M  V30 5284 O 501.273 -0.510205 -1.66561 0
M  V30 5285 C 498.405 -1.10544 -3.22479 0
M  V30 5286 H 499.598 -2.32712 -1.8917 0
M  V30 5287 H 497.151 -1.23614 -0.956515 0
M  V30 5288 H 497.886 -0.136952 -3.24011 0
M  V30 5289 H 497.671 -1.90127 -3.4292 0
M  V30 5290 H 499.161 -1.11082 -4.02555 0
M  V30 5291 N 499.598 0.982988 -1.23187 0
M  V30 5292 C 500.844 1.72648 -1.06398 0
M  V30 5293 C 501.177 1.90066 0.398561 0
M  V30 5294 O 500.452 1.45105 1.29518 0
M  V30 5295 C 500.735 3.12627 -1.78707 0
M  V30 5296 C 500.588 3.02795 -3.32618 0
M  V30 5297 C 501.907 4.11997 -1.54747 0
M  V30 5298 H 499.026 0.626649 -0.387918 0
M  V30 5299 H 501.668 1.14455 -1.51658 0
M  V30 5300 H 499.818 3.62308 -1.40234 0
M  V30 5301 H 501.49 2.60659 -3.80598 0
M  V30 5302 H 499.733 2.39362 -3.61785 0
M  V30 5303 H 500.404 4.01893 -3.78399 0
M  V30 5304 H 502.88 3.71114 -1.88186 0
M  V30 5305 H 501.756 5.08037 -2.07821 0
M  V30 5306 H 502.017 4.39462 -0.482249 0
M  V30 5307 N 501.076 1.04316 1.18135 0
M  V30 5308 C 502.322 0.749128 1.88457 0
M  V30 5309 C 502.655 -0.72149 1.803 0
M  V30 5310 O 501.93 -1.52676 1.205 0
M  V30 5311 C 502.213 1.21905 3.38838 0
M  V30 5312 C 502.066 2.75195 3.55792 0
M  V30 5313 C 503.385 0.811085 4.32561 0
M  V30 5314 H 500.504 0.273611 0.684329 0
M  V30 5315 H 503.146 1.29561 1.38975 0
M  V30 5316 H 501.296 0.754137 3.8111 0
M  V30 5317 H 502.968 3.29743 3.22595 0
M  V30 5318 H 501.211 3.14899 2.98364 0
M  V30 5319 H 501.882 3.03135 4.61317 0
M  V30 5320 H 504.358 1.21118 3.98082 0
M  V30 5321 H 503.234 1.16761 5.36338 0
M  V30 5322 H 503.495 -0.285596 4.41177 0
M  V30 5323 N 502.554 -1.34406 0.822964 0
M  V30 5324 C 503.802 -1.97892 0.410245 0
M  V30 5325 C 504.123 -1.65567 -1.03017 0
M  V30 5326 O 503.393 -0.94642 -1.71522 0
M  V30 5327 H 501.973 -0.732049 0.148707 0
M  V30 5328 H 504.635 -1.64043 1.05242 0
M  V30 5329 H 503.731 -3.07579 0.529284 0
M  V30 5330 N 504.032 -0.577932 -1.46621 0
M  V30 5331 C 504.98 0.170882 -2.31971 0
M  V30 5332 C 505.974 0.889086 -1.44193 0
M  V30 5333 O 507.18 0.808017 -1.60845 0
M  V30 5334 H 503.555 0.0739763 -0.748353 0
M  V30 5335 H 505.526 -0.567856 -2.92947 0
M  V30 5336 C 504.275 1.17438 -3.27267 0
M  V30 5337 H 503.598 0.63116 -3.94787 0
M  V30 5338 H 505.038 1.66882 -3.89778 0
M  V30 5339 C 503.497 2.23292 -2.52274 0
M  V30 5340 O 504.027 3.30567 -2.28229 0
M  V30 5341 N 502.233 1.97772 -2.12919 0
M  V30 5342 H 501.78 1.10545 -2.32675 0
M  V30 5343 H 501.738 2.68809 -1.63062 0
M  V30 5344 N 505.51 1.54411 -0.315457 0
M  V30 5345 C 506.759 1.99599 0.290395 0
M  V30 5346 C 507.072 1.20746 1.53882 0
M  V30 5347 O 508.278 1.56272 2.22017 0
M  V30 5348 C 506.734 3.5539 0.56797 0
M  V30 5349 C 506.342 4.43068 -0.662945 0
M  V30 5350 C 508.086 4.09067 1.13422 0
M  V30 5351 C 505.993 5.90317 -0.357722 0
M  V30 5352 H 504.923 0.745592 0.112286 0
M  V30 5353 H 507.574 1.78477 -0.426418 0
M  V30 5354 H 505.956 3.72468 1.34476 0
M  V30 5355 H 507.13 4.37765 -1.43869 0
M  V30 5356 H 505.445 4.00238 -1.14884 0
M  V30 5357 H 508.042 5.16663 1.37707 0
M  V30 5358 H 508.385 3.60552 2.08106 0
M  V30 5359 H 508.918 3.95589 0.418805 0
M  V30 5360 H 505.657 6.4301 -1.27351 0
M  V30 5361 H 505.177 5.98592 0.380472 0
M  V30 5362 H 506.856 6.4699 0.0354284 0
M  V30 5363 N 506.988 0.0434614 1.5754 0
M  V30 5364 C 508.236 -0.630786 1.92004 0
M  V30 5365 C 508.557 -1.71836 0.921807 0
M  V30 5366 O 507.827 -1.9587 -0.034522 0
M  V30 5367 H 506.407 -0.235988 0.708745 0
M  V30 5368 H 509.069 0.0946462 1.9467 0
M  V30 5369 H 508.165 -1.07434 2.93026 0
M  V30 5370 N 508.466 -1.55915 -0.229846 0
M  V30 5371 C 509.416 -1.8813 -1.28807 0
M  V30 5372 C 510.4 -0.743621 -1.42685 0
M  V30 5373 O 511.592 -1.00588 -1.4564 0
M  V30 5374 C 508.721 -2.19431 -2.64017 0
M  V30 5375 C 507.807 -3.39569 -2.54074 0
M  V30 5376 N 508.198 -4.58404 -2.13774 0
M  V30 5377 C 506.496 -3.43019 -2.85051 0
M  V30 5378 C 507.197 -5.40557 -2.1488 0
M  V30 5379 N 506.173 -4.80054 -2.55047 0
M  V30 5380 H 509.975 -2.77527 -0.967261 0
M  V30 5381 H 507.489 -1.5637 -0.438433 0
M  V30 5382 H 509.486 -2.40681 -3.40409 0
M  V30 5383 H 508.146 -1.31341 -2.9695 0
M  V30 5384 H 509.157 -4.83716 -1.8504 0
M  V30 5385 H 505.834 -2.65249 -3.22411 0
M  V30 5386 H 507.224 -6.45666 -1.85918 0
M  V30 5387 N 509.944 0.496216 -1.49584 0
M  V30 5388 C 511.191 1.25003 -1.59312 0
M  V30 5389 C 511.519 1.92445 -0.28198 0
M  V30 5390 O 510.774 1.81557 0.730452 0
M  V30 5391 C 511.073 2.3359 -2.705 0
M  V30 5392 C 510.739 1.83574 -4.11839 0
M  V30 5393 C 509.401 1.69653 -4.50302 0
M  V30 5394 C 511.753 1.46193 -5.00277 0
M  V30 5395 C 509.081 1.16736 -5.74969 0
M  V30 5396 C 511.433 0.947265 -6.25468 0
M  V30 5397 C 510.097 0.794485 -6.62755 0
M  V30 5398 H 509.367 0.45742 -0.582965 0
M  V30 5399 H 512.014 0.549996 -1.83432 0
M  V30 5400 H 510.319 3.09401 -2.40371 0
M  V30 5401 H 512.016 2.91627 -2.75235 0
M  V30 5402 H 508.606 1.9537 -3.81482 0
M  V30 5403 H 512.79 1.55793 -4.71214 0
M  V30 5404 H 508.046 1.03623 -6.02555 0
M  V30 5405 H 512.22 0.648846 -6.93371 0
M  V30 5406 H 509.847 0.382271 -7.59238 0
M  V30 5407 N 511.423 1.38739 0.74761 0
M  V30 5408 C 512.7 1.25791 1.49786 0
M  V30 5409 C 513.08 -0.138075 2.10648 0
M  V30 5410 O 512.428 -1.14815 1.9756 0
M  V30 5411 C 512.638 2.37265 2.55942 0
M  V30 5412 C 513.986 2.75978 3.22679 0
M  V30 5413 O 515.01 2.36621 2.6625 0
M  V30 5414 O 513.869 3.43867 4.24756 0
M  V30 5415 H 510.963 0.492251 0.664543 0
M  V30 5416 H 513.509 1.50582 0.782511 0
M  V30 5417 H 512.281 3.30644 2.0926 0
M  V30 5418 H 511.904 2.14071 3.35051 0
M  V30 5419 N 512.901 -0.976442 1.23707 0
M  V30 5420 C 514.178 -1.69296 0.979699 0
M  V30 5421 C 514.558 -2.0508 -0.500555 0
M  V30 5422 O 513.906 -1.74708 -1.47273 0
M  V30 5423 C 514.116 -2.93143 1.89389 0
M  V30 5424 C 515.464 -3.65572 2.15968 0
M  V30 5425 O 516.488 -3.03184 1.86971 0
M  V30 5426 O 515.347 -4.77859 2.65167 0
M  V30 5427 H 512.441 -0.739708 0.369812 0
M  V30 5428 H 514.987 -1.03131 1.34767 0
M  V30 5429 H 513.759 -2.63327 2.89439 0
M  V30 5430 H 513.382 -3.67044 1.52854 0
M  V30 5431 N 514.379 -1.04941 -1.1758 0
M  V30 5432 C 515.289 -0.658826 -2.25159 0
M  V30 5433 C 516.305 0.318941 -1.71052 0
M  V30 5434 O 517.481 0.171669 -2.00667 0
M  V30 5435 C 514.546 -0.0369522 -3.4668 0
M  V30 5436 C 513.607 -1.06484 -4.15884 0
M  V30 5437 C 512.84 -0.472551 -5.31604 0
M  V30 5438 O 513.063 0.718736 -5.65854 0
M  V30 5439 O 511.997 -1.20557 -5.89703 0
M  V30 5440 H 515.823 -1.55533 -2.60851 0
M  V30 5441 H 513.408 -0.820819 -1.24832 0
M  V30 5442 H 515.29 0.308784 -4.20267 0
M  V30 5443 H 513.965 0.833238 -3.12792 0
M  V30 5444 H 512.872 -1.46253 -3.44327 0
M  V30 5445 H 514.205 -1.9061 -4.53794 0
M  V30 5446 N 515.857 1.33968 -0.830081 0
M  V30 5447 C 517.106 1.97323 -0.417928 0
M  V30 5448 C 517.419 1.6652 1.02618 0
M  V30 5449 O 518.625 2.2342 1.54259 0
M  V30 5450 C 517.081 3.53099 -0.696359 0
M  V30 5451 C 516.689 3.92788 -2.15457 0
M  V30 5452 C 518.433 4.23049 -0.350724 0
M  V30 5453 C 516.34 5.41506 -2.37751 0
M  V30 5454 H 515.27 0.738409 -0.152541 0
M  V30 5455 H 517.921 1.52711 -1.01744 0
M  V30 5456 H 516.303 3.95991 -0.0265904 0
M  V30 5457 H 517.477 3.6098 -2.86408 0
M  V30 5458 H 515.792 3.35795 -2.46232 0
M  V30 5459 H 518.389 5.32403 -0.495036 0
M  V30 5460 H 518.732 4.10279 0.705476 0
M  V30 5461 H 519.265 3.85657 -0.975362 0
M  V30 5462 H 516.004 5.5927 -3.41903 0
M  V30 5463 H 515.524 5.74804 -1.7135 0
M  V30 5464 H 517.203 6.0828 -2.20465 0
M  V30 5465 N 517.335 0.585699 1.46312 0
M  V30 5466 C 518.267 -0.183687 2.28463 0
M  V30 5467 C 519.28 -0.85264 1.38686 0
M  V30 5468 O 520.469 -0.721701 1.6326 0
M  V30 5469 C 517.569 -1.27977 3.13808 0
M  V30 5470 C 516.742 -0.702164 4.31727 0
M  V30 5471 C 515.801 -1.68633 4.98447 0
M  V30 5472 O 514.827 -1.22121 5.55945 0
M  V30 5473 N 516.029 -3.02047 4.95729 0
M  V30 5474 H 518.794 0.521127 2.95134 0
M  V30 5475 H 516.355 0.423673 1.56258 0
M  V30 5476 H 518.347 -1.9375 3.55307 0
M  V30 5477 H 516.917 -1.8874 2.4919 0
M  V30 5478 H 516.137 0.1331 3.93975 0
M  V30 5479 H 517.425 -0.296101 5.07938 0
M  V30 5480 H 516.823 -3.42457 4.50266 0
M  V30 5481 H 515.38 -3.63301 5.41161 0
M  V30 5482 N 518.813 -1.54241 0.323641 0
M  V30 5483 C 520.059 -2.00867 -0.279323 0
M  V30 5484 C 520.392 -1.21146 -1.5178 0
M  V30 5485 O 519.667 -0.29378 -1.92269 0
M  V30 5486 C 519.95 -3.54837 -0.613387 0
M  V30 5487 C 519.803 -4.45284 0.635803 0
M  V30 5488 C 521.122 -4.16186 -1.43099 0
M  V30 5489 H 518.241 -0.730177 -0.100049 0
M  V30 5490 H 520.883 -1.84829 0.440235 0
M  V30 5491 H 519.033 -3.68634 -1.22641 0
M  V30 5492 H 520.705 -4.43357 1.27406 0
M  V30 5493 H 518.948 -4.14956 1.26466 0
M  V30 5494 H 519.619 -5.5084 0.357597 0
M  V30 5495 H 522.095 -4.05964 -0.912814 0
M  V30 5496 H 520.971 -5.24031 -1.6335 0
M  V30 5497 H 521.232 -3.69516 -2.42715 0
M  V30 5498 N 520.291 -0.0518155 -1.57515 0
M  V30 5499 C 521.239 0.940195 -2.12751 0
M  V30 5500 C 522.233 1.3218 -1.05948 0
M  V30 5501 O 523.439 1.30138 -1.24355 0
M  V30 5502 H 519.814 0.321066 -0.680015 0
M  V30 5503 H 521.785 0.449217 -2.94999 0
M  V30 5504 C 520.534 2.2055 -2.68799 0
M  V30 5505 H 519.857 1.92066 -3.50643 0
M  V30 5506 H 521.297 2.88119 -3.11068 0
M  V30 5507 C 519.756 2.95061 -1.62605 0
M  V30 5508 O 520.286 3.88025 -1.03921 0
M  V30 5509 N 518.492 2.57804 -1.34111 0
M  V30 5510 H 518.039 1.82281 -1.8202 0
M  V30 5511 H 517.997 3.07964 -0.632872 0
M  V30 5512 N 521.769 1.56035 0.221574 0
M  V30 5513 C 522.679 1.95581 1.29558 0
M  V30 5514 C 523.695 0.859639 1.51282 0
M  V30 5515 O 524.871 1.16321 1.64413 0
M  V30 5516 C 521.936 2.26447 2.62531 0
M  V30 5517 C 520.997 3.49632 2.4911 0
M  V30 5518 C 520.23 3.79017 3.75742 0
M  V30 5519 O 520.453 3.10077 4.78757 0
M  V30 5520 O 519.387 4.72507 3.72855 0
M  V30 5521 H 523.213 2.8711 0.990035 0
M  V30 5522 H 520.798 1.43244 0.424434 0
M  V30 5523 H 522.68 2.47494 3.41064 0
M  V30 5524 H 521.355 1.38092 2.92766 0
M  V30 5525 H 520.262 3.33864 1.68777 0
M  V30 5526 H 521.595 4.3837 2.23814 0
M  V30 5527 N 523.247 -0.488276 1.49845 0
M  V30 5528 C 524.177 -1.59675 1.70371 0
M  V30 5529 C 525.158 -1.60878 0.552473 0
M  V30 5530 O 526.343 -1.77417 0.78973 0
M  V30 5531 C 523.473 -2.98098 1.782 0
M  V30 5532 C 522.427 -3.11761 2.93239 0
M  V30 5533 C 521.753 -4.51661 2.86193 0
M  V30 5534 C 523.053 -2.90589 4.33999 0
M  V30 5535 H 524.747 -1.42752 2.63177 0
M  V30 5536 H 522.293 -0.685317 1.26647 0
M  V30 5537 H 524.246 -3.75555 1.91144 0
M  V30 5538 H 522.97 -3.16138 0.820018 0
M  V30 5539 H 521.629 -2.36732 2.79917 0
M  V30 5540 H 521.277 -4.66595 1.87877 0
M  V30 5541 H 520.977 -4.61742 3.63412 0
M  V30 5542 H 522.501 -5.31162 3.01163 0
M  V30 5543 H 523.915 -3.57807 4.47936 0
M  V30 5544 H 522.312 -3.1213 5.12538 0
M  V30 5545 H 523.382 -1.86595 4.4756 0
M  V30 5546 N 524.725 -1.39134 -0.740242 0
M  V30 5547 C 525.972 -1.36071 -1.49969 0
M  V30 5548 C 526.3 0.0450245 -1.94448 0
M  V30 5549 O 525.555 1.02482 -1.66721 0
M  V30 5550 C 525.854 -2.27457 -2.75678 0
M  V30 5551 C 525.52 -3.75185 -2.50094 0
M  V30 5552 C 524.182 -4.15439 -2.42825 0
M  V30 5553 C 526.534 -4.68643 -2.28086 0
M  V30 5554 C 523.862 -5.4722 -2.11584 0
M  V30 5555 C 526.214 -6.00695 -1.98363 0
M  V30 5556 C 524.878 -6.40018 -1.8956 0
M  V30 5557 H 524.148 -0.497921 -0.548777 0
M  V30 5558 H 526.795 -1.71599 -0.85007 0
M  V30 5559 H 525.1 -1.8503 -3.45356 0
M  V30 5560 H 526.797 -2.22384 -3.33686 0
M  V30 5561 H 523.387 -3.43279 -2.56627 0
M  V30 5562 H 527.571 -4.3838 -2.32672 0
M  V30 5563 H 522.827 -5.76615 -2.03287 0
M  V30 5564 H 527.001 -6.72644 -1.80341 0
M  V30 5565 H 524.628 -7.42051 -1.65117 0
M  V30 5566 N 526.204 0.969867 -1.24223 0
M  V30 5567 C 527.152 2.08535 -1.03034 0
M  V30 5568 C 528.146 1.69366 0.0340379 0
M  V30 5569 O 529.352 1.79597 -0.12034 0
M  V30 5570 H 525.727 0.682313 -0.316154 0
M  V30 5571 H 527.698 2.23569 -1.97635 0
M  V30 5572 C 526.447 3.4158 -0.649509 0
M  V30 5573 H 525.77 3.72177 -1.46028 0
M  V30 5574 H 527.21 4.20536 -0.540841 0
M  V30 5575 C 525.669 3.30703 0.643194 0
M  V30 5576 O 526.199 3.64443 1.68951 0
M  V30 5577 N 524.405 2.83841 0.623095 0
M  V30 5578 H 523.952 2.56583 -0.228719 0
M  V30 5579 H 523.91 2.76946 1.48823 0
M  V30 5580 N 527.682 1.05563 1.17022 0
M  V30 5581 C 528.912 0.787307 1.91011 0
M  V30 5582 C 529.32 -0.661256 1.77268 0
M  V30 5583 O 528.663 -1.46379 1.10991 0
M  V30 5584 C 528.725 1.09313 3.42478 0
M  V30 5585 C 528.389 2.53863 3.80004 0
M  V30 5586 C 529.386 3.52081 3.82538 0
M  V30 5587 C 527.071 2.88969 4.10855 0
M  V30 5588 C 529.065 4.83449 4.15399 0
M  V30 5589 C 526.752 4.2054 4.43384 0
M  V30 5590 C 527.75 5.17589 4.45635 0
M  V30 5591 O 527.438 6.46799 4.77395 0
M  V30 5592 H 527.17 0.285463 0.61277 0
M  V30 5593 H 529.724 1.41051 1.49311 0
M  V30 5594 H 527.954 0.412833 3.8449 0
M  V30 5595 H 529.643 0.810224 3.97731 0
M  V30 5596 H 530.409 3.26299 3.58823 0
M  V30 5597 H 526.288 2.1409 4.08272 0
M  V30 5598 H 529.832 5.59194 4.1707 0
M  V30 5599 H 525.729 4.46083 4.66563 0
M  V30 5600 H 526.497 6.51677 4.95237 0
M  V30 5601 N 529.16 -1.33526 0.837174 0
M  V30 5602 C 530.107 -2.29248 0.267169 0
M  V30 5603 C 531.077 -1.54252 -0.616071 0
M  V30 5604 O 532.262 -1.82559 -0.554699 0
M  V30 5605 C 529.402 -3.40638 -0.553152 0
M  V30 5606 C 528.515 -4.30548 0.353921 0
M  V30 5607 C 527.65 -5.29051 -0.477339 0
M  V30 5608 C 526.689 -6.106 0.42823 0
M  V30 5609 N 525.826 -7.01152 -0.364801 0
M  V30 5610 H 530.666 -2.77398 1.08877 0
M  V30 5611 H 528.203 -1.36496 0.54838 0
M  V30 5612 H 530.161 -4.03921 -1.04422 0
M  V30 5613 H 528.791 -2.93685 -1.33973 0
M  V30 5614 H 527.843 -3.68001 0.963289 0
M  V30 5615 H 529.155 -4.87631 1.04964 0
M  V30 5616 H 528.309 -5.97853 -1.0323 0
M  V30 5617 H 527.048 -4.72541 -1.2065 0
M  V30 5618 H 526.053 -5.40718 0.995219 0
M  V30 5619 H 527.278 -6.69193 1.15573 0
M  V30 5620 H 525.224 -6.47092 -1.07738 0
M  V30 5621 H 525.141 -7.5551 0.272238 0
M  V30 5622 H 526.409 -7.74263 -0.902054 0
M  V30 5623 N 530.638 -0.59345 -1.46 0
M  V30 5624 C 531.886 -0.082988 -2.0193 0
M  V30 5625 C 532.207 1.28569 -1.46612 0
M  V30 5626 O 531.477 1.84629 -0.654909 0
M  V30 5627 H 530.057 -0.0276882 -0.746487 0
M  V30 5628 H 532.719 -0.771657 -1.78973 0
M  V30 5629 H 531.815 -0.022079 -3.12092 0
M  V30 5630 N 532.116 1.54067 -0.331816 0
M  V30 5631 C 533.365 1.99895 0.269209 0
M  V30 5632 C 533.678 1.22371 1.52593 0
M  V30 5633 O 534.884 1.58618 2.20347 0
M  V30 5634 C 533.34 3.55972 0.530244 0
M  V30 5635 C 532.948 4.4234 -0.709901 0
M  V30 5636 C 534.692 4.10247 1.09077 0
M  V30 5637 C 532.599 5.89905 -0.420312 0
M  V30 5638 H 531.529 0.746741 0.104371 0
M  V30 5639 H 534.18 1.78014 -0.445324 0
M  V30 5640 H 532.562 3.73873 1.30518 0
M  V30 5641 H 533.736 4.36215 -1.48504 0
M  V30 5642 H 532.051 3.98997 -1.19123 0
M  V30 5643 H 534.648 5.18095 1.32219 0
M  V30 5644 H 534.991 3.62739 2.0427 0
M  V30 5645 H 535.524 3.96011 0.376824 0
M  V30 5646 H 532.263 6.41623 -1.34164 0
M  V30 5647 H 531.783 5.98962 0.316962 0
M  V30 5648 H 533.462 6.46991 -0.0331956 0
M  V30 5649 N 533.594 0.0601682 1.57485 0
M  V30 5650 C 534.544 -0.920969 2.08572 0
M  V30 5651 C 535.528 -1.26617 0.992827 0
M  V30 5652 O 536.72 -1.24708 1.25606 0
M  V30 5653 C 533.849 -2.19267 2.64153 0
M  V30 5654 C 532.935 -1.87447 3.80427 0
M  V30 5655 N 533.326 -1.26025 4.89848 0
M  V30 5656 C 531.624 -2.17265 3.89502 0
M  V30 5657 C 532.325 -1.12036 5.70809 0
M  V30 5658 N 531.301 -1.62624 5.18705 0
M  V30 5659 H 535.103 -0.441561 2.90564 0
M  V30 5660 H 532.617 -0.144043 1.6176 0
M  V30 5661 H 534.614 -2.90462 2.99061 0
M  V30 5662 H 533.274 -2.67806 1.83603 0
M  V30 5663 H 534.285 -0.931336 5.09457 0
M  V30 5664 H 530.962 -2.68262 3.19909 0
M  V30 5665 H 532.352 -0.642783 6.68818 0
M  V30 5666 N 535.072 -1.5615 -0.213296 0
M  V30 5667 C 536.321 -1.78743 -0.93455 0
M  V30 5668 C 536.634 -0.630199 -1.8517 0
M  V30 5669 O 537.84 -0.739966 -2.61222 0
M  V30 5670 C 536.296 -3.16571 -1.71203 0
M  V30 5671 C 535.904 -4.40043 -0.840617 0
M  V30 5672 C 537.648 -3.48485 -2.42401 0
M  V30 5673 C 535.555 -5.68895 -1.61592 0
M  V30 5674 H 534.485 -0.666426 -0.352692 0
M  V30 5675 H 537.136 -1.82532 -0.188227 0
M  V30 5676 H 535.518 -3.06981 -2.50157 0
M  V30 5677 H 536.692 -4.6071 -0.0910326 0
M  V30 5678 H 535.007 -4.15706 -0.240365 0
M  V30 5679 H 537.604 -4.41983 -3.00924 0
M  V30 5680 H 537.947 -2.71371 -3.15695 0
M  V30 5681 H 538.48 -3.59442 -1.7043 0
M  V30 5682 H 535.219 -6.48925 -0.926106 0
M  V30 5683 H 534.739 -5.52275 -2.33991 0
M  V30 5684 H 536.418 -6.09365 -2.17447 0
M  V30 5685 N 536.55 0.480323 -1.50102 0
M  V30 5686 C 537.46 1.60547 -1.71061 0
M  V30 5687 C 538.476 1.63564 -0.593529 0
M  V30 5688 O 539.652 1.81604 -0.870751 0
M  V30 5689 C 536.717 2.96814 -1.79171 0
M  V30 5690 C 535.778 3.04259 -3.02861 0
M  V30 5691 C 535.011 4.34027 -3.10574 0
M  V30 5692 O 535.234 5.24009 -2.25323 0
M  V30 5693 O 534.168 4.46873 -4.03223 0
M  V30 5694 H 537.994 1.45788 -2.6642 0
M  V30 5695 H 535.579 0.658838 -1.34088 0
M  V30 5696 H 537.461 3.77765 -1.86738 0
M  V30 5697 H 536.136 3.11791 -0.869947 0
M  V30 5698 H 535.043 2.22419 -3.008 0
M  V30 5699 H 536.376 2.94216 -3.94586 0
M  V30 5700 N 538.028 1.39524 0.732853 0
M  V30 5701 C 538.976 1.38563 1.86824 0
M  V30 5702 C 539.97 0.268467 1.67259 0
M  V30 5703 O 541.176 0.438613 1.74574 0
M  V30 5704 H 537.551 0.432737 0.615014 0
M  V30 5705 H 539.522 2.34328 1.84751 0
M  V30 5706 C 538.271 1.2481 3.24527 0
M  V30 5707 H 537.594 2.10044 3.40179 0
M  V30 5708 H 539.034 1.28194 4.04156 0
M  V30 5709 C 537.493 -0.0432825 3.36872 0
M  V30 5710 O 538.023 -1.01268 3.88726 0
M  V30 5711 N 536.229 -0.107055 2.90403 0
M  V30 5712 H 535.776 0.682512 2.48394 0
M  V30 5713 H 535.734 -0.970618 2.99042 0
M  V30 5714 N 539.506 -0.963266 1.24736 0
M  V30 5715 C 540.752 -1.70933 1.09131 0
M  V30 5716 C 541.085 -1.90676 -0.368273 0
M  V30 5717 O 540.36 -1.47147 -1.27193 0
M  V30 5718 C 540.643 -3.09744 1.83658 0
M  V30 5719 C 540.496 -2.97465 3.37394 0
M  V30 5720 C 541.815 -4.09483 1.61282 0
M  V30 5721 H 538.934 -0.620398 0.397838 0
M  V30 5722 H 541.576 -1.12028 1.53459 0
M  V30 5723 H 539.726 -3.60031 1.4598 0
M  V30 5724 H 541.398 -2.54571 3.84696 0
M  V30 5725 H 539.641 -2.33576 3.65547 0
M  V30 5726 H 540.312 -3.95822 3.84745 0
M  V30 5727 H 542.788 -3.68073 1.94066 0
M  V30 5728 H 541.664 -5.04666 2.15878 0
M  V30 5729 H 541.925 -4.38639 0.552102 0
M  V30 5730 N 540.985 -1.06182 -1.16461 0
M  V30 5731 C 541.932 -0.671613 -2.20812 0
M  V30 5732 C 542.902 0.331186 -1.62765 0
M  V30 5733 O 544.087 0.22033 -1.89524 0
M  V30 5734 C 541.227 -0.063029 -3.45042 0
M  V30 5735 C 540.34 -1.11587 -4.1734 0
M  V30 5736 C 539.475 -0.473546 -5.29085 0
M  V30 5737 C 538.514 -1.51 -5.93182 0
M  V30 5738 N 537.651 -0.891118 -6.96422 0
M  V30 5739 H 542.491 -1.56589 -2.53542 0
M  V30 5740 H 540.028 -0.782951 -1.24532 0
M  V30 5741 H 541.986 0.307344 -4.16066 0
M  V30 5742 H 540.616 0.794663 -3.12866 0
M  V30 5743 H 539.668 -1.60396 -3.44931 0
M  V30 5744 H 540.98 -1.90221 -4.61104 0
M  V30 5745 H 540.134 -0.0501432 -6.06679 0
M  V30 5746 H 538.873 0.344687 -4.8648 0
M  V30 5747 H 537.878 -1.94331 -5.14311 0
M  V30 5748 H 539.103 -2.33031 -6.37866 0
M  V30 5749 H 537.049 -0.0935753 -6.55933 0
M  V30 5750 H 536.966 -1.61486 -7.38551 0
M  V30 5751 H 538.234 -0.492822 -7.77941 0
M  V30 5752 N 542.463 1.3308 -0.844243 0
M  V30 5753 C 543.874 1.7992 -0.498566 0
M  V30 5754 C 544.225 1.69808 0.982834 0
M  V30 5755 O 543.35 1.25051 1.7661 0
M  V30 5756 C 543.945 3.26677 -0.898204 0
M  V30 5757 C 542.504 3.71513 -0.604583 0
M  V30 5758 C 541.651 2.54393 -1.10362 0
M  V30 5759 H 544.602 1.20526 -1.03244 0
M  V30 5760 H 544.623 3.79918 -0.21039 0
M  V30 5761 H 544.135 3.34004 -1.97643 0
M  V30 5762 H 542.236 3.69708 0.46335 0
M  V30 5763 H 542.349 4.64755 -1.16358 0
M  V30 5764 H 540.713 2.49246 -0.524273 0
M  V30 5765 H 541.496 2.6448 -2.18873 0
M  V30 5766 N 543.941 0.601185 1.45683 0
M  V30 5767 C 544.873 -0.159446 2.28645 0
M  V30 5768 C 545.886 -0.837882 1.39583 0
M  V30 5769 O 547.075 -0.704344 1.64016 0
M  V30 5770 C 544.175 -1.24641 3.15147 0
M  V30 5771 C 543.348 -0.656334 4.32448 0
M  V30 5772 C 542.407 -1.63337 5.00208 0
M  V30 5773 O 541.433 -1.16217 5.57209 0
M  V30 5774 N 542.635 -2.96773 4.98905 0
M  V30 5775 H 545.4 0.5524 2.94565 0
M  V30 5776 H 542.961 0.440223 1.558 0
M  V30 5777 H 544.953 -1.8997 3.57342 0
M  V30 5778 H 543.523 -1.86087 2.51178 0
M  V30 5779 H 542.743 0.174879 3.93812 0
M  V30 5780 H 544.031 -0.242211 5.08223 0
M  V30 5781 H 543.429 -3.37662 4.53873 0
M  V30 5782 H 541.986 -3.57541 5.44984 0
M  V30 5783 N 545.419 -1.53889 0.339982 0
M  V30 5784 C 546.665 -2.01152 -0.258003 0
M  V30 5785 C 546.998 -1.22749 -1.50487 0
M  V30 5786 O 546.273 -0.314156 -1.91946 0
M  V30 5787 C 546.556 -3.55468 -0.575717 0
M  V30 5788 C 546.409 -4.44584 0.682996 0
M  V30 5789 C 547.728 -4.1768 -1.38677 0
M  V30 5790 H 544.847 -0.731198 -0.0922992 0
M  V30 5791 H 547.489 -1.84352 0.459814 0
M  V30 5792 H 545.639 -3.69914 -1.18725 0
M  V30 5793 H 547.311 -4.41981 1.32102 0
M  V30 5794 H 545.554 -4.13592 1.3086 0
M  V30 5795 H 546.225 -5.5043 0.416001 0
M  V30 5796 H 548.701 -4.0691 -0.869705 0
M  V30 5797 H 547.577 -5.25734 -1.57783 0
M  V30 5798 H 547.838 -3.72069 -2.38782 0
M  V30 5799 N 546.897 -0.0685191 -1.57451 0
M  V30 5800 C 548.174 0.642167 -1.84758 0
M  V30 5801 C 548.554 1.87991 -0.960344 0
M  V30 5802 O 547.902 2.28485 -0.0257894 0
M  V30 5803 C 548.112 0.982946 -3.34872 0
M  V30 5804 C 549.46 1.35784 -4.02303 0
M  V30 5805 O 550.484 1.07477 -3.39598 0
M  V30 5806 O 549.343 1.88681 -5.12895 0
M  V30 5807 H 546.437 0.318625 -0.763156 0
M  V30 5808 H 548.983 -0.0992015 -1.6941 0
M  V30 5809 H 547.755 0.10372 -3.91163 0
M  V30 5810 H 547.378 1.78119 -3.55471 0
M  V30 5811 N 548.375 1.56261 0.205012 0
M  V30 5812 C 549.791 1.49623 0.555433 0
M  V30 5813 C 549.991 0.766719 1.86343 0
M  V30 5814 O 549.047 0.313158 2.50551 0
M  V30 5815 C 550.36 2.94253 0.619347 0
M  V30 5816 C 551.908 3.04868 0.708855 0
M  V30 5817 C 552.383 4.50888 0.803969 0
M  V30 5818 N 553.874 4.54999 0.867758 0
M  V30 5819 C 554.609 5.65284 0.96135 0
M  V30 5820 N 554.105 6.85282 1.01786 0
M  V30 5821 N 555.898 5.53174 0.997771 0
M  V30 5822 H 548.049 2.0211 -0.653094 0
M  V30 5823 H 550.312 0.919333 -0.231366 0
M  V30 5824 H 550.018 3.50643 -0.272458 0
M  V30 5825 H 549.892 3.47063 1.47741 0
M  V30 5826 H 552.279 2.48532 1.5911 0
M  V30 5827 H 552.36 2.55199 -0.175205 0
M  V30 5828 H 552.004 5.07846 -0.0738798 0
M  V30 5829 H 551.934 4.98279 1.70369 0
M  V30 5830 H 554.425 3.68588 0.833735 0
M  V30 5831 H 554.738 7.65081 1.08951 0
M  V30 5832 H 553.083 6.8796 0.986706 0
M  V30 5833 H 556.274 4.5835 0.950392 0
M  V30 5834 H 556.447 6.39151 1.06725 0
M  V30 5835 N 549.853 -0.472356 1.50355 0
M  V30 5836 C 551.102 -1.2213 1.60522 0
M  V30 5837 C 551.415 -1.9312 0.310466 0
M  V30 5838 O 552.621 -2.69936 0.291029 0
M  V30 5839 C 551.077 -2.21909 2.83345 0
M  V30 5840 C 550.685 -1.56727 4.19691 0
M  V30 5841 C 552.429 -2.97453 3.02856 0
M  V30 5842 C 550.336 -2.54785 5.33703 0
M  V30 5843 H 549.266 -0.459543 0.597776 0
M  V30 5844 H 551.917 -0.491922 1.76783 0
M  V30 5845 H 550.299 -2.98133 2.60639 0
M  V30 5846 H 551.473 -0.863007 4.52646 0
M  V30 5847 H 549.788 -0.934685 4.05774 0
M  V30 5848 H 552.385 -3.70838 3.85205 0
M  V30 5849 H 552.728 -3.56764 2.14534 0
M  V30 5850 H 553.261 -2.28342 3.25737 0
M  V30 5851 H 550 -2.00214 6.24175 0
M  V30 5852 H 549.52 -3.23367 5.05167 0
M  V30 5853 H 551.199 -3.16639 5.64224 0
M  V30 5854 N 551.331 -1.39911 -0.725443 0
M  V30 5855 C 552.559 -1.40949 -1.51463 0
M  V30 5856 C 552.974 -0.0065242 -1.88799 0
M  V30 5857 O 552.331 0.967163 -1.54765 0
M  V30 5858 C 552.382 -2.29119 -2.79619 0
M  V30 5859 O 552.103 -3.63952 -2.43866 0
M  V30 5860 C 553.604 -2.38642 -3.73584 0
M  V30 5861 H 550.824 -0.481091 -0.467752 0
M  V30 5862 H 553.368 -1.83843 -0.895651 0
M  V30 5863 H 551.523 -1.89612 -3.37826 0
M  V30 5864 H 551.937 -4.10677 -3.26258 0
M  V30 5865 H 553.411 -3.04563 -4.60375 0
M  V30 5866 H 553.888 -1.40846 -4.16004 0
M  V30 5867 H 554.494 -2.78659 -3.21293 0
M  V30 5868 N 552.809 0.956637 -1.25245 0
M  V30 5869 C 553.739 2.07058 -1.07931 0
M  V30 5870 C 554.72 1.70096 0.0110361 0
M  V30 5871 O 555.905 1.93555 -0.158121 0
M  V30 5872 C 553.035 3.40272 -0.695124 0
M  V30 5873 C 551.989 3.91235 -1.73549 0
M  V30 5874 C 551.315 5.20921 -1.20604 0
M  V30 5875 C 552.615 4.17837 -3.13385 0
M  V30 5876 H 554.309 2.218 -2.01109 0
M  V30 5877 H 551.855 1.06581 -0.968326 0
M  V30 5878 H 553.808 4.1765 -0.560949 0
M  V30 5879 H 552.532 3.25462 0.272355 0
M  V30 5880 H 551.191 3.16025 -1.85807 0
M  V30 5881 H 550.839 5.02479 -0.228846 0
M  V30 5882 H 550.539 5.55987 -1.90136 0
M  V30 5883 H 552.063 6.00897 -1.08421 0
M  V30 5884 H 553.477 4.8588 -3.04292 0
M  V30 5885 H 551.874 4.64154 -3.80369 0
M  V30 5886 H 552.944 3.2419 -3.60595 0
M  V30 5887 N 554.287 1.06798 1.15896 0
M  V30 5888 C 555.698 0.811355 1.68149 0
M  V30 5889 C 556.049 -0.664339 1.8461 0
M  V30 5890 O 555.174 -1.51485 1.54535 0
M  V30 5891 C 555.769 1.46624 3.05429 0
M  V30 5892 C 554.328 1.25726 3.54781 0
M  V30 5893 C 553.475 1.53949 2.3064 0
M  V30 5894 H 556.426 1.23078 1.00187 0
M  V30 5895 H 556.447 0.88437 3.7008 0
M  V30 5896 H 555.959 2.54025 2.93416 0
M  V30 5897 H 554.06 0.20322 3.72045 0
M  V30 5898 H 554.173 1.97354 4.36564 0
M  V30 5899 H 552.537 0.96025 2.35905 0
M  V30 5900 H 553.32 2.6252 2.2122 0
M  V30 5901 N 555.766 -1.3263 0.851289 0
M  V30 5902 C 556.714 -2.30882 0.282202 0
M  V30 5903 C 557.708 -1.58697 -0.592589 0
M  V30 5904 O 558.914 -1.73461 -0.480768 0
M  V30 5905 H 555.289 -0.748492 0.0725487 0
M  V30 5906 H 557.26 -2.76374 1.12516 0
M  V30 5907 C 556.009 -3.43828 -0.517449 0
M  V30 5908 H 555.332 -3.99532 0.146392 0
M  V30 5909 H 556.772 -4.1474 -0.88128 0
M  V30 5910 C 555.231 -2.90786 -1.70133 0
M  V30 5911 O 555.761 -2.88 -2.80034 0
M  V30 5912 N 553.967 -2.4723 -1.52728 0
M  V30 5913 H 553.514 -2.49695 -0.633257 0
M  V30 5914 H 553.472 -2.12094 -2.32085 0
M  V30 5915 N 557.244 -0.608902 -1.45362 0
M  V30 5916 C 558.492 -0.104401 -2.0183 0
M  V30 5917 C 558.813 1.27007 -1.47967 0
M  V30 5918 O 558.083 1.83924 -0.674455 0
M  V30 5919 H 556.663 -0.0356042 -0.746151 0
M  V30 5920 H 559.325 -0.790596 -1.78145 0
M  V30 5921 H 558.421 -0.0551793 -3.12051 0
M  V30 5922 N 558.722 1.53707 -0.348139 0
M  V30 5923 C 559.67 2.26671 0.521808 0
M  V30 5924 C 560.664 1.28988 1.09811 0
M  V30 5925 O 561.87 1.4668 1.04332 0
M  V30 5926 H 558.245 0.728387 0.186968 0
M  V30 5927 H 560.216 2.98176 -0.115563 0
M  V30 5928 C 558.965 3.05591 1.6586 0
M  V30 5929 H 558.288 3.80589 1.22443 0
M  V30 5930 H 559.728 3.59851 2.24239 0
M  V30 5931 C 558.187 2.15366 2.59073 0
M  V30 5932 O 558.717 1.7528 3.61441 0
M  V30 5933 N 556.923 1.80352 2.27863 0
M  V30 5934 H 556.47 2.13149 1.44656 0
M  V30 5935 H 556.428 1.20268 2.90488 0
M  V30 5936 N 560.2 0.0768682 1.57412 0
M  V30 5937 C 561.147 -0.888577 2.13009 0
M  V30 5938 C 562.117 -1.29198 1.0439 0
M  V30 5939 O 563.302 -1.37694 1.3208 0
M  V30 5940 C 560.442 -2.14899 2.70023 0
M  V30 5941 C 559.555 -1.79777 3.92816 0
M  V30 5942 C 558.69 -3.00467 4.38056 0
M  V30 5943 C 557.729 -2.61385 5.53484 0
M  V30 5944 N 556.866 -3.74851 5.93659 0
M  V30 5945 H 561.706 -0.407593 2.95199 0
M  V30 5946 H 559.243 -0.189534 1.45874 0
M  V30 5947 H 561.201 -2.88688 3.0119 0
M  V30 5948 H 559.831 -2.60529 1.9059 0
M  V30 5949 H 558.883 -0.960301 3.68079 0
M  V30 5950 H 560.195 -1.47027 4.76639 0
M  V30 5951 H 559.349 -3.82529 4.7091 0
M  V30 5952 H 558.088 -3.36413 3.53097 0
M  V30 5953 H 557.093 -1.77746 5.20275 0
M  V30 5954 H 558.318 -2.26603 6.40178 0
M  V30 5955 H 556.264 -4.1055 5.11649 0
M  V30 5956 H 556.181 -3.45887 6.72234 0
M  V30 5957 H 557.449 -4.57477 6.31138 0
M  V30 5958 N 561.678 -1.56367 -0.196722 0
M  V30 5959 C 562.927 -1.79724 -0.915539 0
M  V30 5960 C 563.24 -0.649804 -1.84491 0
M  V30 5961 O 564.446 -0.767631 -2.60422 0
M  V30 5962 C 562.902 -3.18369 -1.67836 0
M  V30 5963 C 562.51 -4.4091 -0.793897 0
M  V30 5964 C 564.254 -3.51037 -2.38691 0
M  V30 5965 C 562.161 -5.70577 -1.55549 0
M  V30 5966 H 561.091 -0.67013 -0.345604 0
M  V30 5967 H 563.742 -1.82721 -0.168856 0
M  V30 5968 H 562.124 -3.09617 -2.46887 0
M  V30 5969 H 563.298 -4.60781 -0.042163 0
M  V30 5970 H 561.613 -4.15937 -0.19626 0
M  V30 5971 H 564.21 -4.4515 -2.96219 0
M  V30 5972 H 564.553 -2.74704 -3.12799 0
M  V30 5973 H 565.086 -3.61229 -1.66608 0
M  V30 5974 H 561.825 -6.49871 -0.857226 0
M  V30 5975 H 561.345 -5.54726 -2.2812 0
M  V30 5976 H 563.024 -6.11637 -2.10971 0
M  V30 5977 N 563.156 0.464375 -1.50603 0
M  V30 5978 C 564.405 1.21277 -1.61167 0
M  V30 5979 C 564.718 1.92953 -0.320704 0
M  V30 5980 O 565.924 2.69778 -0.30534 0
M  V30 5981 C 564.38 2.20403 -2.84518 0
M  V30 5982 C 563.988 1.54499 -4.20516 0
M  V30 5983 C 565.732 2.95843 -3.0443 0
M  V30 5984 C 563.639 2.51951 -5.35047 0
M  V30 5985 H 562.569 0.456367 -0.600204 0
M  V30 5986 H 565.22 0.48254 -1.77042 0
M  V30 5987 H 563.602 2.96746 -2.62217 0
M  V30 5988 H 564.776 0.83899 -4.53098 0
M  V30 5989 H 563.091 0.913152 -4.06264 0
M  V30 5990 H 565.688 3.6879 -3.87167 0
M  V30 5991 H 566.031 3.55622 -2.16423 0
M  V30 5992 H 566.564 2.26611 -3.26944 0
M  V30 5993 H 563.303 1.96901 -6.25228 0
M  V30 5994 H 562.823 3.20683 -5.06875 0
M  V30 5995 H 564.502 3.13643 -5.65895 0
M  V30 5996 N 564.634 1.40294 0.718013 0
M  V30 5997 C 565.88 1.38645 1.48005 0
M  V30 5998 C 566.213 -0.0121202 1.94196 0
M  V30 5999 O 565.488 -0.980309 1.67989 0
M  V30 6000 C 565.771 2.37379 2.70782 0
M  V30 6001 C 565.624 3.8625 2.30501 0
M  V30 6002 C 566.943 2.33685 3.72933 0
M  V30 6003 H 564.062 0.504928 0.536858 0
M  V30 6004 H 566.704 1.71411 0.819649 0
M  V30 6005 H 564.854 2.09568 3.27129 0
M  V30 6006 H 566.526 4.24879 1.79655 0
M  V30 6007 H 564.769 4.02202 1.6253 0
M  V30 6008 H 565.44 4.50847 3.18498 0
M  V30 6009 H 567.916 2.58314 3.2621 0
M  V30 6010 H 566.792 3.0482 4.56482 0
M  V30 6011 H 567.053 1.34765 4.21059 0
M  V30 6012 N 566.112 -0.949982 1.2575 0
M  V30 6013 C 567.042 -2.06483 1.09028 0
M  V30 6014 C 568.023 -1.701 -0.00201532 0
M  V30 6015 O 569.208 -1.93469 0.168383 0
M  V30 6016 C 566.338 -3.39899 0.71316 0
M  V30 6017 C 565.292 -3.90309 1.75621 0
M  V30 6018 C 564.618 -5.20274 1.23365 0
M  V30 6019 C 565.918 -4.16169 3.15596 0
M  V30 6020 H 567.612 -2.20731 2.02283 0
M  V30 6021 H 565.158 -1.06066 0.973964 0
M  V30 6022 H 567.111 -4.17346 0.58309 0
M  V30 6023 H 565.835 -3.25602 -0.255091 0
M  V30 6024 H 564.494 -3.15035 1.8748 0
M  V30 6025 H 564.142 -5.02351 0.255491 0
M  V30 6026 H 563.842 -5.54971 1.93082 0
M  V30 6027 H 565.366 -6.00314 1.11607 0
M  V30 6028 H 566.78 -4.84259 3.06864 0
M  V30 6029 H 565.177 -4.62131 3.82825 0
M  V30 6030 H 566.247 -3.22273 3.6231 0
M  V30 6031 N 567.59 -1.07411 -1.15328 0
M  V30 6032 C 568.553 -0.698914 -2.18284 0
M  V30 6033 C 569.553 0.261149 -1.58665 0
M  V30 6034 O 570.743 0.0420277 -1.74149 0
M  V30 6035 C 567.875 -0.0302427 -3.40887 0
M  V30 6036 H 569.068 -1.61045 -2.52991 0
M  V30 6037 H 566.621 -0.870724 -1.298 0
M  V30 6038 H 567.356 0.893505 -3.11748 0
M  V30 6039 H 567.141 -0.720759 -3.85419 0
M  V30 6040 H 568.631 0.21759 -4.17033 0
M  V30 6041 N 569.068 1.32177 -0.85831 0
M  V30 6042 C 570.484 1.49873 -0.548656 0
M  V30 6043 C 570.684 1.79278 0.919874 0
M  V30 6044 O 569.74 1.86451 1.70271 0
M  V30 6045 C 571.053 2.64043 -1.4388 0
M  V30 6046 C 572.601 2.77928 -1.43961 0
M  V30 6047 C 573.076 3.95182 -2.31506 0
M  V30 6048 N 574.567 4.0245 -2.29321 0
M  V30 6049 C 575.302 4.9242 -2.93786 0
M  V30 6050 N 574.798 5.87373 -3.67376 0
M  V30 6051 N 576.591 4.85572 -2.83155 0
M  V30 6052 H 568.742 1.11357 -1.80868 0
M  V30 6053 H 571.005 0.549175 -0.772729 0
M  V30 6054 H 570.711 2.49055 -2.48324 0
M  V30 6055 H 570.585 3.59912 -1.12885 0
M  V30 6056 H 572.972 2.92338 -0.402813 0
M  V30 6057 H 573.053 1.82762 -1.78974 0
M  V30 6058 H 572.697 3.81531 -3.35256 0
M  V30 6059 H 572.627 4.89633 -1.93823 0
M  V30 6060 H 575.118 3.34507 -1.75822 0
M  V30 6061 H 575.431 6.52728 -4.13722 0
M  V30 6062 H 573.776 5.87388 -3.71484 0
M  V30 6063 H 576.967 4.10363 -2.25211 0
M  V30 6064 H 577.14 5.55486 -3.33676 0
M  V30 6065 N 570.547 0.616602 1.45037 0
M  V30 6066 C 571.795 0.115103 2.01772 0
M  V30 6067 C 572.116 -1.2622 1.48639 0
M  V30 6068 O 571.386 -1.83563 0.684199 0
M  V30 6069 H 569.966 0.0395607 0.745952 0
M  V30 6070 H 572.628 0.800032 1.77723 0
M  V30 6071 H 571.724 0.0717274 3.12018 0
M  V30 6072 N 572.025 -1.5352 0.356285 0
M  V30 6073 C 573.441 -1.59599 0.00485267 0
M  V30 6074 C 573.641 -1.37179 -1.47595 0
M  V30 6075 O 572.697 -1.17234 -2.23635 0
M  V30 6076 C 574.01 -2.97277 0.452454 0
M  V30 6077 C 575.558 -3.10357 0.405881 0
M  V30 6078 C 576.033 -4.50432 0.829148 0
M  V30 6079 N 577.524 -4.5652 0.783838 0
M  V30 6080 C 578.259 -5.63077 1.08315 0
M  V30 6081 N 577.755 -6.77429 1.45126 0
M  V30 6082 N 579.548 -5.53014 1.00655 0
M  V30 6083 H 571.699 -1.66346 1.32071 0
M  V30 6084 H 573.962 -0.77971 0.539218 0
M  V30 6085 H 573.668 -3.18792 1.48542 0
M  V30 6086 H 573.542 -3.76836 -0.165762 0
M  V30 6087 H 575.929 -2.88558 -0.617934 0
M  V30 6088 H 576.01 -2.32828 1.05947 0
M  V30 6089 H 575.654 -4.72968 1.85103 0
M  V30 6090 H 575.584 -5.26378 0.152906 0
M  V30 6091 H 578.075 -3.74408 0.512513 0
M  V30 6092 H 578.388 -7.54669 1.66415 0
M  V30 6093 H 576.733 -6.78844 1.48983 0
M  V30 6094 H 579.924 -4.62557 0.718215 0
M  V30 6095 H 580.097 -6.35964 1.24315 0
M  V30 6096 N 573.503 -0.0852151 -1.57369 0
M  V30 6097 C 574.433 0.874556 -2.16503 0
M  V30 6098 C 575.414 1.30111 -1.09568 0
M  V30 6099 O 576.599 1.36977 -1.37662 0
M  V30 6100 C 573.729 2.13731 -2.73745 0
M  V30 6101 C 572.683 1.84971 -3.85966 0
M  V30 6102 C 572.009 3.17991 -4.29867 0
M  V30 6103 C 573.309 1.14442 -5.09608 0
M  V30 6104 H 575.003 0.381899 -2.96954 0
M  V30 6105 H 572.549 0.18225 -1.42842 0
M  V30 6106 H 574.502 2.81302 -3.13763 0
M  V30 6107 H 573.226 2.65263 -1.90534 0
M  V30 6108 H 571.885 1.19801 -3.46473 0
M  V30 6109 H 571.533 3.6739 -3.4356 0
M  V30 6110 H 571.233 2.99534 -5.05523 0
M  V30 6111 H 572.757 3.86737 -4.72511 0
M  V30 6112 H 574.171 1.72105 -5.46857 0
M  V30 6113 H 572.568 1.06197 -5.90629 0
M  V30 6114 H 573.638 0.12559 -4.84737 0
M  V30 6115 N 574.981 1.5647 0.188427 0
M  V30 6116 C 575.911 1.98101 1.23606 0
M  V30 6117 C 576.892 0.853961 1.47111 0
M  V30 6118 O 578.077 1.11879 1.58735 0
M  V30 6119 C 575.207 2.32624 2.57882 0
M  V30 6120 C 574.161 3.48129 2.48978 0
M  V30 6121 C 573.487 3.68347 3.87588 0
M  V30 6122 C 574.787 4.82112 2.00911 0
M  V30 6123 H 576.481 2.85864 0.890068 0
M  V30 6124 H 574.027 1.37532 0.426714 0
M  V30 6125 H 575.98 2.60343 3.3136 0
M  V30 6126 H 574.704 1.41751 2.94235 0
M  V30 6127 H 573.363 3.20511 1.77956 0
M  V30 6128 H 573.011 2.74793 4.21305 0
M  V30 6129 H 572.711 4.46055 3.82503 0
M  V30 6130 H 574.235 3.98449 4.62678 0
M  V30 6131 H 575.649 5.08819 2.64151 0
M  V30 6132 H 574.046 5.63337 2.06814 0
M  V30 6133 H 575.116 4.75249 0.96262 0
M  V30 6134 N 576.459 -0.456382 1.50847 0
M  V30 6135 C 577.407 -1.57318 1.71329 0
M  V30 6136 C 578.401 -1.59187 0.579287 0
M  V30 6137 O 579.607 -1.6316 0.76018 0
M  V30 6138 H 575.982 -0.5223 0.541024 0
M  V30 6139 H 577.953 -1.3721 2.64983 0
M  V30 6140 C 576.702 -2.95142 1.83811 0
M  V30 6141 H 576.025 -2.94428 2.70467 0
M  V30 6142 H 577.465 -3.72702 2.02161 0
M  V30 6143 C 575.924 -3.31636 0.593224 0
M  V30 6144 O 576.454 -4.00852 -0.260898 0
M  V30 6145 N 574.66 -2.87205 0.442902 0
M  V30 6146 H 574.207 -2.31051 1.13901 0
M  V30 6147 H 574.165 -3.11986 -0.38884 0
M  V30 6148 N 577.937 -1.40673 -0.710563 0
M  V30 6149 C 578.867 -1.44095 -1.83736 0
M  V30 6150 C 579.848 -0.301286 -1.67411 0
M  V30 6151 O 581.033 -0.510618 -1.87367 0
M  V30 6152 C 578.163 -1.30773 -3.21738 0
M  V30 6153 C 577.117 -2.42395 -3.52745 0
M  V30 6154 C 576.443 -2.14147 -4.89944 0
M  V30 6155 C 577.743 -3.84738 -3.53234 0
M  V30 6156 H 579.437 -2.38396 -1.81129 0
M  V30 6157 H 576.983 -1.14746 -0.870017 0
M  V30 6158 H 578.936 -1.31783 -4.00264 0
M  V30 6159 H 577.66 -0.329507 -3.24934 0
M  V30 6160 H 576.319 -2.40643 -2.76562 0
M  V30 6161 H 575.967 -1.14703 -4.89747 0
M  V30 6162 H 575.667 -2.88934 -5.11655 0
M  V30 6163 H 577.191 -2.16848 -5.70797 0
M  V30 6164 H 578.605 -3.88286 -4.2179 0
M  V30 6165 H 577.002 -4.59085 -3.86473 0
M  V30 6166 H 578.072 -4.13962 -2.52514 0
M  V30 6167 N 579.415 0.9433 -1.26252 0
M  V30 6168 C 580.663 1.68592 -1.11451 0
M  V30 6169 C 580.984 1.91957 0.343123 0
M  V30 6170 O 580.254 1.51475 1.24226 0
M  V30 6171 H 578.834 0.624789 -0.409448 0
M  V30 6172 H 581.496 1.13351 -1.58548 0
M  V30 6173 H 580.592 2.66054 -1.63162 0
M  V30 6174 N 580.893 1.08022 1.14757 0
M  V30 6175 C 582.133 0.816959 1.87364 0
M  V30 6176 C 582.497 -0.645407 1.80827 0
M  V30 6177 O 583.698 -1.024 2.48531 0
M  V30 6178 C 581.969 1.31961 3.32146 0
M  V30 6179 S 583.528 1.18806 4.2241 0
M  V30 6180 H 580.346 0.295862 0.646519 0
M  V30 6181 H 582.948 1.3807 1.38408 0
M  V30 6182 H 581.652 2.37847 3.3445 0
M  V30 6183 H 581.183 0.751371 3.86158 0
M  V30 6184 H 583.198 0.129865 4.9603 0
M  V30 6185 N 582.371 -1.3172 0.865308 0
M  V30 6186 C 583.334 -2.26918 0.322627 0
M  V30 6187 C 584.334 -1.52031 -0.523751 0
M  V30 6188 O 585.524 -1.70973 -0.333727 0
M  V30 6189 C 582.656 -3.36558 -0.542338 0
M  V30 6190 H 583.849 -2.76432 1.16298 0
M  V30 6191 H 581.402 -1.42573 0.640512 0
M  V30 6192 H 582.137 -2.92329 -1.40407 0
M  V30 6193 H 581.922 -3.92048 0.0636395 0
M  V30 6194 H 583.412 -4.07465 -0.91446 0
M  V30 6195 N 583.85 -0.624285 -1.44708 0
M  V30 6196 C 585.077 -0.132919 -2.06473 0
M  V30 6197 C 585.493 1.18967 -1.46602 0
M  V30 6198 O 584.85 1.72824 -0.586341 0
M  V30 6199 C 584.901 -0.00465418 -3.615 0
M  V30 6200 O 584.622 -1.27494 -4.19138 0
M  V30 6201 C 586.123 0.516213 -4.40284 0
M  V30 6202 H 583.343 -0.0765201 -0.666623 0
M  V30 6203 H 585.887 -0.856751 -1.85688 0
M  V30 6204 H 584.042 0.669583 -3.8157 0
M  V30 6205 H 584.456 -1.11536 -5.12504 0
M  V30 6206 H 585.93 0.554994 -5.49203 0
M  V30 6207 H 586.407 1.5419 -4.11245 0
M  V30 6208 H 587.013 -0.124542 -4.25118 0
M  V30 6209 N 585.328 1.53329 -0.364422 0
M  V30 6210 C 586.576 2.00842 0.225189 0
M  V30 6211 C 586.897 1.25345 1.49378 0
M  V30 6212 O 586.167 0.366396 1.92443 0
M  V30 6213 H 584.747 0.742009 0.0862027 0
M  V30 6214 H 587.409 1.8863 -0.490389 0
M  V30 6215 H 586.505 3.08795 0.452987 0
M  V30 6216 N 586.806 0.0935595 1.57322 0
M  V30 6217 C 587.756 -0.876521 2.10478 0
M  V30 6218 C 588.74 -1.24482 1.01946 0
M  V30 6219 O 589.932 -1.22016 1.28223 0
M  V30 6220 C 587.061 -2.13615 2.68745 0
M  V30 6221 C 586.147 -1.79335 3.84317 0
M  V30 6222 N 586.538 -1.15606 4.92411 0
M  V30 6223 C 584.836 -2.08954 3.94023 0
M  V30 6224 C 585.537 -0.999036 5.73057 0
M  V30 6225 N 584.513 -1.51585 5.22037 0
M  V30 6226 H 588.315 -0.379829 2.91435 0
M  V30 6227 H 585.829 -0.109699 1.62029 0
M  V30 6228 H 587.826 -2.84053 3.05155 0
M  V30 6229 H 586.486 -2.63851 1.89242 0
M  V30 6230 H 587.497 -0.823063 5.11318 0
M  V30 6231 H 584.174 -2.61416 3.25527 0
M  V30 6232 H 585.564 -0.500772 6.70031 0
M  V30 6233 N 588.284 -1.56567 -0.180126 0
M  V30 6234 C 589.695 -1.7126 -0.743422 0
M  V30 6235 C 590.046 -0.70263 -1.83187 0
M  V30 6236 O 589.171 0.137856 -2.1596 0
M  V30 6237 C 589.766 -3.10512 -1.35528 0
M  V30 6238 C 588.325 -3.26919 -1.8655 0
M  V30 6239 C 587.472 -2.67213 -0.741099 0
M  V30 6240 H 590.423 -1.58636 0.0451543 0
M  V30 6241 H 590.444 -3.08673 -2.22489 0
M  V30 6242 H 589.956 -3.83997 -0.562862 0
M  V30 6243 H 588.057 -2.58376 -2.68464 0
M  V30 6244 H 588.17 -4.34574 -2.01699 0
M  V30 6245 H 586.534 -2.26788 -1.15927 0
M  V30 6246 H 587.317 -3.43277 0.0393291 0
M  V30 6247 N 589.762 0.448376 -1.51087 0
M  V30 6248 C 590.725 1.52588 -1.71025 0
M  V30 6249 C 591.725 1.49958 -0.580442 0
M  V30 6250 O 592.915 1.52176 -0.847833 0
M  V30 6251 C 590.047 2.92163 -1.75652 0
M  V30 6252 H 591.24 1.36218 -2.67179 0
M  V30 6253 H 588.793 0.676313 -1.4091 0
M  V30 6254 H 589.528 3.13951 -0.812724 0
M  V30 6255 H 589.313 2.95478 -2.57751 0
M  V30 6256 H 590.803 3.70349 -1.92953 0
M  V30 6257 N 591.24 1.41047 0.703093 0
M  V30 6258 C 592.487 1.4 1.46309 0
M  V30 6259 C 592.815 0.00654574 1.94499 0
M  V30 6260 O 592.07 -0.980255 1.6938 0
M  V30 6261 C 592.369 2.34686 2.6955 0
M  V30 6262 C 592.035 3.81684 2.40058 0
M  V30 6263 C 590.697 4.21731 2.31725 0
M  V30 6264 C 593.049 4.74525 2.15581 0
M  V30 6265 C 590.377 5.52637 1.97001 0
M  V30 6266 C 592.729 6.05744 1.82366 0
M  V30 6267 C 591.393 6.44819 1.72524 0
M  V30 6268 H 590.663 0.512295 0.535382 0
M  V30 6269 H 593.31 1.73792 0.804275 0
M  V30 6270 H 591.615 1.94122 3.40329 0
M  V30 6271 H 593.312 2.31152 3.27673 0
M  V30 6272 H 589.902 3.49963 2.47435 0
M  V30 6273 H 594.086 4.44395 2.20968 0
M  V30 6274 H 589.342 5.81802 1.87928 0
M  V30 6275 H 593.516 6.77189 1.62444 0
M  V30 6276 H 591.143 7.46168 1.45385 0
M  V30 6277 N 592.718 -0.936591 1.26751 0
M  V30 6278 C 593.964 -1.6858 1.12733 0
M  V30 6279 C 594.297 -1.91414 -0.327745 0
M  V30 6280 O 593.572 -1.49812 -1.24043 0
M  V30 6281 C 593.855 -3.05779 1.90187 0
M  V30 6282 C 593.708 -2.90242 3.43627 0
M  V30 6283 C 595.027 -4.0597 1.69931 0
M  V30 6284 H 592.146 -0.61182 0.410908 0
M  V30 6285 H 594.788 -1.08747 1.55801 0
M  V30 6286 H 592.938 -3.56853 1.53584 0
M  V30 6287 H 594.61 -2.46354 3.9001 0
M  V30 6288 H 592.853 -2.2577 3.70419 0
M  V30 6289 H 593.524 -3.87572 3.93055 0
M  V30 6290 H 596 -3.63874 2.0183 0
M  V30 6291 H 594.876 -4.99974 2.26534 0
M  V30 6292 H 595.137 -4.37369 0.64502 0
M  V30 6293 N 594.196 -1.08629 -1.14182 0
M  V30 6294 C 595.129 -0.662329 -2.18377 0
M  V30 6295 C 596.107 0.327054 -1.59277 0
M  V30 6296 O 597.291 0.230376 -1.87087 0
M  V30 6297 C 594.418 0.0254765 -3.3869 0
M  V30 6298 C 593.464 -0.924414 -4.16361 0
M  V30 6299 S 594.297 -2.43226 -4.77076 0
M  V30 6300 C 595.453 -1.75663 -6.00744 0
M  V30 6301 H 595.686 -1.54501 -2.54001 0
M  V30 6302 H 593.219 -0.901484 -1.2535 0
M  V30 6303 H 595.177 0.416032 -4.08386 0
M  V30 6304 H 593.838 0.884689 -3.01384 0
M  V30 6305 H 593.031 -0.390099 -5.02488 0
M  V30 6306 H 592.633 -1.25598 -3.5228 0
M  V30 6307 H 594.925 -1.07589 -6.68903 0
M  V30 6308 H 595.868 -2.59673 -6.58768 0
M  V30 6309 H 596.276 -1.22903 -5.50958 0
M  V30 6310 N 595.674 1.31259 -0.872281 0
M  V30 6311 C 596.899 2.0133 -0.498099 0
M  V30 6312 C 597.324 1.65031 0.902568 0
M  V30 6313 O 596.682 0.860164 1.59596 0
M  V30 6314 C 596.73 3.54411 -0.665205 0
M  V30 6315 O 595.834 4.11347 0.294473 0
M  V30 6316 H 595.175 0.633844 -0.197832 0
M  V30 6317 H 597.705 1.67402 -1.17633 0
M  V30 6318 H 597.715 4.04147 -0.559373 0
M  V30 6319 H 596.39 3.80171 -1.68651 0
M  V30 6320 H 594.967 3.72624 0.143403 0
M  V30 6321 N 597.152 0.631951 1.44375 0
M  V30 6322 C 598.399 0.136767 2.02038 0
M  V30 6323 C 598.727 -1.24168 1.49709 0
M  V30 6324 O 597.982 -1.83809 0.671763 0
M  V30 6325 C 598.281 0.0735861 3.57324 0
M  V30 6326 C 597.947 1.39092 4.28911 0
M  V30 6327 C 596.609 1.75171 4.48184 0
M  V30 6328 C 598.961 2.26042 4.69632 0
M  V30 6329 C 596.289 2.97907 5.05439 0
M  V30 6330 C 598.641 3.4805 5.28246 0
M  V30 6331 C 597.305 3.84351 5.45738 0
M  V30 6332 H 596.575 0.0500466 0.739308 0
M  V30 6333 H 599.222 0.818429 1.7313 0
M  V30 6334 H 597.527 -0.691449 3.8565 0
M  V30 6335 H 599.224 -0.326091 3.99672 0
M  V30 6336 H 595.814 1.10015 4.1424 0
M  V30 6337 H 599.998 1.99463 4.54454 0
M  V30 6338 H 595.254 3.26108 5.17169 0
M  V30 6339 H 599.428 4.15658 5.5875 0
M  V30 6340 H 597.055 4.79538 5.8987 0
M  V30 6341 N 598.631 -1.53133 0.372548 0
M  V30 6342 C 599.856 -2.0625 -0.218098 0
M  V30 6343 C 600.281 -1.24375 -1.41111 0
M  V30 6344 O 599.639 -0.264554 -1.79359 0
M  V30 6345 C 599.687 -3.55858 -0.582876 0
M  V30 6346 O 598.791 -3.76667 -1.67917 0
M  V30 6347 H 598.132 -0.663317 -0.030104 0
M  V30 6348 H 600.662 -1.97477 0.535169 0
M  V30 6349 H 600.672 -3.99007 -0.851925 0
M  V30 6350 H 599.347 -4.14892 0.289428 0
M  V30 6351 H 597.924 -3.45413 -1.40513 0
M  V30 6352 N 600.109 -0.101901 -1.5727 0
M  V30 6353 C 601.356 0.560197 -1.94597 0
M  V30 6354 C 601.684 1.67767 -0.984101 0
M  V30 6355 O 600.939 1.95699 -0.00489193 0
M  V30 6356 C 601.238 1.14898 -3.38427 0
M  V30 6357 C 600.904 0.154613 -4.50635 0
M  V30 6358 C 599.566 -0.118861 -4.81053 0
M  V30 6359 C 601.918 -0.523979 -5.18559 0
M  V30 6360 C 599.246 -1.0775 -5.76721 0
M  V30 6361 C 601.598 -1.47114 -6.15256 0
M  V30 6362 C 600.262 -1.75278 -6.44076 0
M  V30 6363 H 599.532 0.204991 -0.712081 0
M  V30 6364 H 602.179 -0.17918 -1.9066 0
M  V30 6365 H 600.484 1.96476 -3.38976 0
M  V30 6366 H 602.181 1.66909 -3.64613 0
M  V30 6367 H 598.771 0.377948 -4.2693 0
M  V30 6368 H 602.955 -0.325851 -4.95229 0
M  V30 6369 H 598.211 -1.30263 -5.97362 0
M  V30 6370 H 602.385 -2.00274 -6.66981 0
M  V30 6371 H 600.012 -2.49717 -7.18015 0
M  V30 6372 N 601.587 1.56661 0.17182 0
M  V30 6373 C 602.827 1.83762 0.895029 0
M  V30 6374 C 603.191 0.682752 1.79451 0
M  V30 6375 O 604.392 0.834208 2.55528 0
M  V30 6376 C 602.663 3.15976 1.67015 0
M  V30 6377 S 604.222 3.64558 2.44219 0
M  V30 6378 H 601.04 0.644713 0.299778 0
M  V30 6379 H 603.642 1.94871 0.156701 0
M  V30 6380 H 602.346 3.98021 1.00039 0
M  V30 6381 H 601.877 3.07807 2.44986 0
M  V30 6382 H 603.892 3.31845 3.68909 0
M  V30 6383 N 603.065 -0.440357 1.51323 0
M  V30 6384 C 604.013 -1.55492 1.72988 0
M  V30 6385 C 605.007 -1.58564 0.596138 0
M  V30 6386 O 606.213 -1.62345 0.777443 0
M  V30 6387 H 602.588 -0.516532 0.546533 0
M  V30 6388 H 604.559 -1.34392 2.66423 0
M  V30 6389 C 603.308 -2.93176 1.86931 0
M  V30 6390 H 602.631 -2.91543 2.73574 0
M  V30 6391 H 604.071 -3.70537 2.06103 0
M  V30 6392 C 602.53 -3.30988 0.628365 0
M  V30 6393 O 603.06 -4.01106 -0.218367 0
M  V30 6394 N 601.266 -2.86719 0.473339 0
M  V30 6395 H 600.813 -2.2983 1.16345 0
M  V30 6396 H 600.771 -3.12381 -0.355727 0
M  V30 6397 N 604.543 -1.41418 -0.695603 0
M  V30 6398 C 605.475 -1.39195 -1.82092 0
M  V30 6399 C 606.488 -0.294132 -1.60121 0
M  V30 6400 O 607.677 -0.555854 -1.69625 0
M  V30 6401 C 604.777 -1.14828 -3.18854 0
M  V30 6402 C 603.95 -2.36649 -3.67853 0
M  V30 6403 C 603.009 -2.08139 -4.83285 0
M  V30 6404 O 602.035 -2.81177 -4.94902 0
M  V30 6405 N 603.237 -1.07162 -5.70523 0
M  V30 6406 H 606.002 -2.36185 -1.84491 0
M  V30 6407 H 603.563 -1.3603 -0.877923 0
M  V30 6408 H 605.555 -0.937075 -3.93702 0
M  V30 6409 H 604.125 -0.264358 -3.1148 0
M  V30 6410 H 603.345 -2.73472 -2.83913 0
M  V30 6411 H 604.633 -3.17816 -3.97329 0
M  V30 6412 H 604.031 -0.467124 -5.63768 0
M  V30 6413 H 602.588 -0.920311 -6.4527 0
M  V30 6414 N 606.021 0.929856 -1.27246 0
M  V30 6415 C 607.249 1.71144 -1.16265 0
M  V30 6416 C 607.664 1.867 0.280786 0
M  V30 6417 O 607.021 1.38249 1.19136 0
M  V30 6418 C 607.072 3.11222 -1.83911 0
M  V30 6419 O 606.793 2.96398 -3.22614 0
M  V30 6420 C 608.294 4.05541 -1.79028 0
M  V30 6421 H 605.514 0.535499 -0.404328 0
M  V30 6422 H 608.058 1.16492 -1.68077 0
M  V30 6423 H 606.213 3.6274 -1.36009 0
M  V30 6424 H 606.627 3.8494 -3.56261 0
M  V30 6425 H 608.101 5.01351 -2.30978 0
M  V30 6426 H 608.578 4.32589 -0.759168 0
M  V30 6427 H 609.184 3.59947 -2.26535 0
M  V30 6428 N 607.499 1.09233 1.13605 0
M  V30 6429 C 608.746 0.827159 1.84836 0
M  V30 6430 C 609.074 -0.647199 1.83416 0
M  V30 6431 O 608.329 -1.49228 1.26608 0
M  V30 6432 C 608.628 1.305 3.32723 0
M  V30 6433 C 608.294 2.78864 3.54325 0
M  V30 6434 C 606.956 3.19382 3.59928 0
M  V30 6435 C 609.308 3.74532 3.62457 0
M  V30 6436 C 606.636 4.54346 3.71196 0
M  V30 6437 C 608.988 5.09283 3.75252 0
M  V30 6438 C 607.652 5.49394 3.79108 0
M  V30 6439 H 606.922 0.302679 0.676363 0
M  V30 6440 H 609.569 1.36676 1.34134 0
M  V30 6441 H 607.874 0.68517 3.85762 0
M  V30 6442 H 609.571 1.07648 3.86281 0
M  V30 6443 H 606.161 2.46507 3.50617 0
M  V30 6444 H 610.345 3.44343 3.57409 0
M  V30 6445 H 605.601 4.84864 3.72447 0
M  V30 6446 H 609.775 5.83269 3.80487 0
M  V30 6447 H 607.402 6.5397 3.87591 0
M  V30 6448 N 608.977 -1.30795 0.87923 0
M  V30 6449 C 609.94 -2.26563 0.346676 0
M  V30 6450 C 610.94 -1.52578 -0.507597 0
M  V30 6451 O 612.13 -1.71318 -0.315575 0
M  V30 6452 C 609.262 -3.37115 -0.506611 0
M  V30 6453 H 610.455 -2.75183 1.19223 0
M  V30 6454 H 608.008 -1.41886 0.655598 0
M  V30 6455 H 608.743 -2.93802 -1.37299 0
M  V30 6456 H 608.528 -3.91959 0.105218 0
M  V30 6457 H 610.018 -4.08412 -0.871192 0
M  V30 6458 N 610.455 -0.639598 -1.44038 0
M  V30 6459 C 611.387 0.0987684 -2.28987 0
M  V30 6460 C 612.4 0.80058 -1.41755 0
M  V30 6461 O 613.589 0.660611 -1.65826 0
M  V30 6462 C 610.689 1.16242 -3.18341 0
M  V30 6463 C 609.862 0.541447 -4.34036 0
M  V30 6464 C 608.921 1.50017 -5.04362 0
M  V30 6465 O 607.947 1.01403 -5.60095 0
M  V30 6466 N 609.149 2.83441 -5.06598 0
M  V30 6467 H 611.914 -0.630305 -2.92997 0
M  V30 6468 H 609.475 -0.481376 -1.54578 0
M  V30 6469 H 611.467 1.80429 -3.62253 0
M  V30 6470 H 610.037 1.79362 -2.56024 0
M  V30 6471 H 609.257 -0.27923 -3.9321 0
M  V30 6472 H 610.545 0.107379 -5.08687 0
M  V30 6473 H 609.943 3.2551 -4.62666 0
M  V30 6474 H 608.5 3.42966 -5.54272 0
M  V30 6475 N 611.933 1.52934 -0.380664 0
M  V30 6476 C 612.863 2.29118 0.450268 0
M  V30 6477 C 613.844 1.32153 1.07096 0
M  V30 6478 O 615.029 1.61038 1.08537 0
M  V30 6479 C 612.159 3.09161 1.58231 0
M  V30 6480 C 611.113 4.13938 1.0881 0
M  V30 6481 C 610.439 4.82153 2.31155 0
M  V30 6482 C 611.739 5.22048 0.162146 0
M  V30 6483 H 613.433 2.98826 -0.185361 0
M  V30 6484 H 610.979 1.43715 -0.0905886 0
M  V30 6485 H 612.932 3.61211 2.17036 0
M  V30 6486 H 611.656 2.3717 2.2454 0
M  V30 6487 H 610.315 3.62855 0.522633 0
M  V30 6488 H 609.963 4.06719 2.95953 0
M  V30 6489 H 609.663 5.52966 1.98752 0
M  V30 6490 H 611.187 5.37004 2.90618 0
M  V30 6491 H 612.601 5.6951 0.658126 0
M  V30 6492 H 610.998 6.00057 -0.0717122 0
M  V30 6493 H 612.068 4.78398 -0.791438 0
M  V30 6494 N 613.412 0.11024 1.57214 0
M  V30 6495 C 614.689 -0.592956 1.86396 0
M  V30 6496 C 615.069 -1.85379 1.00985 0
M  V30 6497 O 614.417 -2.28337 0.0863592 0
M  V30 6498 C 614.627 -0.893816 3.3736 0
M  V30 6499 C 615.975 -1.25069 4.05762 0
M  V30 6500 O 616.999 -0.984356 3.42329 0
M  V30 6501 O 615.858 -1.75017 5.17718 0
M  V30 6502 H 612.952 -0.29828 0.771335 0
M  V30 6503 H 615.498 0.144083 1.69087 0
M  V30 6504 H 614.27 2.6031e-05 3.913 0
M  V30 6505 H 613.893 -1.68631 3.60068 0
M  V30 6506 N 614.89 -1.56749 -0.16351 0
M  V30 6507 C 615.82 -2.00042 -1.20438 0
M  V30 6508 C 616.801 -0.877256 -1.45733 0
M  V30 6509 O 617.986 -1.1439 -1.56935 0
M  V30 6510 C 615.116 -2.36697 -2.54149 0
M  V30 6511 C 614.07 -3.52046 -2.43408 0
M  V30 6512 C 613.396 -3.74466 -3.81679 0
M  V30 6513 C 614.696 -4.85247 -1.93216 0
M  V30 6514 H 616.39 -2.87244 -0.844477 0
M  V30 6515 H 613.936 -1.38194 -0.40478 0
M  V30 6516 H 615.889 -2.65582 -3.27176 0
M  V30 6517 H 614.613 -1.46414 -2.91943 0
M  V30 6518 H 613.272 -3.23301 -1.72834 0
M  V30 6519 H 612.92 -2.81461 -4.1688 0
M  V30 6520 H 612.62 -4.52084 -3.75359 0
M  V30 6521 H 614.144 -4.0576 -4.5628 0
M  V30 6522 H 615.558 -5.12957 -2.56023 0
M  V30 6523 H 613.955 -5.66556 -1.97825 0
M  V30 6524 H 615.025 -4.7672 -0.88689 0
M  V30 6525 N 616.368 0.432326 -1.51554 0
M  V30 6526 C 617.614 1.17997 -1.65675 0
M  V30 6527 C 617.969 1.88794 -0.37076 0
M  V30 6528 O 617.262 1.80817 0.633692 0
M  V30 6529 C 617.456 2.21907 -2.80164 0
M  V30 6530 C 617.285 1.6131 -4.19773 0
M  V30 6531 C 616.055 1.39585 -4.85638 0
M  V30 6532 C 618.253 1.08659 -5.0269 0
M  V30 6533 N 616.235 0.746374 -6.09346 0
M  V30 6534 C 617.606 0.562685 -6.17441 0
M  V30 6535 C 619.661 0.978831 -4.88184 0
M  V30 6536 C 618.364 -0.0584015 -7.19276 0
M  V30 6537 C 620.39 0.371631 -5.90231 0
M  V30 6538 C 619.752 -0.141711 -7.04257 0
M  V30 6539 H 615.851 0.419277 -0.660099 0
M  V30 6540 H 618.435 0.475809 -1.88797 0
M  V30 6541 H 616.606 2.89706 -2.58698 0
M  V30 6542 H 618.338 2.88867 -2.8344 0
M  V30 6543 H 615.093 1.65897 -4.43593 0
M  V30 6544 H 615.517 0.438934 -6.75576 0
M  V30 6545 H 620.159 1.36157 -4.00276 0
M  V30 6546 H 617.877 -0.453262 -8.06828 0
M  V30 6547 H 621.463 0.290086 -5.81076 0
M  V30 6548 H 620.343 -0.60417 -7.81869 0
M  V30 6549 N 617.846 1.41785 0.688094 0
M  V30 6550 C 618.778 1.40159 1.81351 0
M  V30 6551 C 619.791 0.30262 1.59963 0
M  V30 6552 O 620.98 0.564841 1.69327 0
M  V30 6553 C 618.08 1.16517 3.1824 0
M  V30 6554 C 617.253 2.38597 3.66593 0
M  V30 6555 C 616.312 2.10699 4.82174 0
M  V30 6556 O 615.338 2.83798 4.93404 0
M  V30 6557 N 616.54 1.10187 5.69947 0
M  V30 6558 H 619.305 2.3716 1.83236 0
M  V30 6559 H 616.866 1.36494 0.870697 0
M  V30 6560 H 618.858 0.957941 3.93199 0
M  V30 6561 H 617.428 0.280873 3.11336 0
M  V30 6562 H 616.648 2.74974 2.82459 0
M  V30 6563 H 617.936 3.19919 3.95638 0
M  V30 6564 H 617.334 0.497016 5.63512 0
M  V30 6565 H 615.891 0.954518 6.44773 0
M  V30 6566 N 619.324 -0.923095 1.27737 0
M  V30 6567 C 620.272 -2.04567 1.10703 0
M  V30 6568 C 621.266 -1.69375 0.0288445 0
M  V30 6569 O 622.472 -1.79027 0.186913 0
M  V30 6570 H 618.847 -0.670109 0.34126 0
M  V30 6571 H 620.818 -2.1608 2.05796 0
M  V30 6572 C 619.567 -3.38934 0.775837 0
M  V30 6573 H 618.89 -3.66501 1.59741 0
M  V30 6574 H 620.33 -4.18239 0.696548 0
M  V30 6575 C 618.789 -3.32863 -0.520012 0
M  V30 6576 O 619.319 -3.70462 -1.55308 0
M  V30 6577 N 617.525 -2.85958 -0.51732 0
M  V30 6578 H 617.072 -2.55557 0.32379 0
M  V30 6579 H 617.03 -2.82279 -1.38441 0
M  V30 6580 N 620.802 -1.09834 -1.13024 0
M  V30 6581 C 621.749 -0.741522 -2.18564 0
M  V30 6582 C 622.719 0.279236 -1.63736 0
M  V30 6583 O 623.904 0.159923 -1.90129 0
M  V30 6584 C 621.044 -0.17277 -3.44667 0
M  V30 6585 C 620.157 -1.24808 -4.13578 0
M  V30 6586 C 619.292 -0.641631 -5.27311 0
M  V30 6587 C 618.331 -1.69795 -5.88078 0
M  V30 6588 N 617.468 -1.11223 -6.93234 0
M  V30 6589 H 622.308 -1.64576 -2.48432 0
M  V30 6590 H 619.845 -0.822174 -1.21978 0
M  V30 6591 H 621.803 0.17482 -4.16834 0
M  V30 6592 H 620.433 0.694725 -3.15235 0
M  V30 6593 H 619.485 -1.71288 -3.39653 0
M  V30 6594 H 620.797 -2.04795 -4.54819 0
M  V30 6595 H 619.951 -0.243128 -6.06213 0
M  V30 6596 H 618.69 0.189742 -4.87331 0
M  V30 6597 H 617.695 -2.10595 -5.07868 0
M  V30 6598 H 618.92 -2.53206 -6.3013 0
M  V30 6599 H 616.866 -0.302208 -6.55304 0
M  V30 6600 H 616.783 -1.84901 -7.3304 0
M  V30 6601 H 618.051 -0.740068 -7.75979 0
M  V30 6602 N 622.28 1.30327 -0.886154 0
M  V30 6603 C 623.557 1.90922 -0.425217 0
M  V30 6604 C 623.937 1.80533 1.09413 0
M  V30 6605 O 623.285 1.2233 1.92996 0
M  V30 6606 C 623.495 3.36529 -0.924638 0
M  V30 6607 C 624.843 4.13598 -0.960305 0
M  V30 6608 O 625.867 3.45377 -0.871382 0
M  V30 6609 O 624.726 5.35482 -1.09184 0
M  V30 6610 H 621.82 0.81668 -0.130238 0
M  V30 6611 H 624.366 1.38886 -0.975132 0
M  V30 6612 H 623.138 3.38181 -1.96849 0
M  V30 6613 H 622.761 3.96021 -0.353955 0
M  V30 6614 N 623.758 0.647228 1.43697 0
M  V30 6615 C 624.986 0.16575 2.06235 0
M  V30 6616 C 625.401 -1.1662 1.48476 0
M  V30 6617 O 624.758 -1.7187 0.613762 0
M  V30 6618 C 624.809 0.0621651 3.61447 0
M  V30 6619 O 624.53 1.34146 4.17057 0
M  V30 6620 C 626.031 -0.446102 4.4105 0
M  V30 6621 H 623.251 0.0871158 0.665321 0
M  V30 6622 H 625.795 0.886183 1.84301 0
M  V30 6623 H 623.95 -0.608794 3.82587 0
M  V30 6624 H 624.364 1.19675 5.10664 0
M  V30 6625 H 625.838 -0.46755 5.50016 0
M  V30 6626 H 626.315 -1.47627 4.13646 0
M  V30 6627 H 626.921 0.192159 4.24866 0
M  V30 6628 N 625.236 -1.5273 0.388769 0
M  V30 6629 C 626.184 -2.27975 -0.461527 0
M  V30 6630 C 627.178 -1.31854 -1.06352 0
M  V30 6631 O 628.384 -1.49394 -1.00406 0
M  V30 6632 H 624.759 -0.733088 -0.16759 0
M  V30 6633 H 626.73 -2.97765 0.194579 0
M  V30 6634 C 625.479 -3.09881 -1.577 0
M  V30 6635 H 624.802 -3.83701 -1.12309 0
M  V30 6636 H 626.242 -3.6567 -2.14619 0
M  V30 6637 C 624.701 -2.22159 -2.53272 0
M  V30 6638 O 625.231 -1.84802 -3.56667 0
M  V30 6639 N 623.437 -1.8633 -2.23001 0
M  V30 6640 H 622.984 -2.16909 -1.38954 0
M  V30 6641 H 622.942 -1.27927 -2.87197 0
M  V30 6642 N 626.714 -0.118576 -1.57153 0
M  V30 6643 C 627.661 0.831789 -2.1529 0
M  V30 6644 C 628.631 1.26385 -1.07778 0
M  V30 6645 O 629.816 1.34144 -1.35684 0
M  V30 6646 C 626.956 2.07664 -2.75626 0
M  V30 6647 C 626.069 1.69298 -3.97444 0
M  V30 6648 C 625.204 2.88747 -4.45868 0
M  V30 6649 C 624.243 2.46619 -5.60219 0
M  V30 6650 N 623.38 3.5898 -6.03389 0
M  V30 6651 H 628.22 0.329183 -2.96176 0
M  V30 6652 H 625.757 0.150792 -1.46325 0
M  V30 6653 H 627.715 2.80601 -3.08738 0
M  V30 6654 H 626.345 2.55384 -1.97431 0
M  V30 6655 H 625.397 0.862374 -3.70496 0
M  V30 6656 H 626.709 1.34338 -4.80369 0
M  V30 6657 H 625.863 3.69909 -4.80887 0
M  V30 6658 H 624.602 3.26933 -3.61892 0
M  V30 6659 H 623.607 1.63889 -5.24805 0
M  V30 6660 H 624.832 2.0955 -6.45961 0
M  V30 6661 H 622.778 3.9684 -5.22354 0
M  V30 6662 H 622.695 3.27942 -6.81168 0
M  V30 6663 H 623.963 4.40583 -6.43045 0
M  V30 6664 N 628.193 1.56834 0.155195 0
M  V30 6665 C 629.423 1.86778 0.883044 0
M  V30 6666 C 629.831 0.703824 1.75622 0
M  V30 6667 O 629.174 -0.33581 1.80605 0
M  V30 6668 C 629.236 3.1133 1.79761 0
M  V30 6669 C 628.9 4.43504 1.10242 0
M  V30 6670 C 629.897 5.17859 0.460204 0
M  V30 6671 C 627.582 4.90233 1.09437 0
M  V30 6672 C 629.576 6.37144 -0.180782 0
M  V30 6673 C 627.263 6.09444 0.449569 0
M  V30 6674 C 628.261 6.82744 -0.186888 0
M  V30 6675 O 627.949 7.99692 -0.821486 0
M  V30 6676 H 627.681 0.62352 0.261149 0
M  V30 6677 H 630.235 2.04813 0.155204 0
M  V30 6678 H 628.465 2.89282 2.56618 0
M  V30 6679 H 630.154 3.27587 2.39669 0
M  V30 6680 H 630.92 4.8283 0.458289 0
M  V30 6681 H 626.799 4.33109 1.57917 0
M  V30 6682 H 630.343 6.94296 -0.678154 0
M  V30 6683 H 626.24 6.43936 0.449123 0
M  V30 6684 H 627.008 8.15306 -0.722337 0
M  V30 6685 N 629.671 -0.424282 1.51781 0
M  V30 6686 C 630.581 -1.54087 1.76902 0
M  V30 6687 C 631.597 -1.61249 0.653826 0
M  V30 6688 O 632.773 -1.78247 0.937552 0
M  V30 6689 C 629.838 -2.8996 1.90063 0
M  V30 6690 C 628.899 -2.92809 3.13945 0
M  V30 6691 C 628.132 -4.22201 3.26469 0
M  V30 6692 O 628.355 -5.15286 2.44616 0
M  V30 6693 O 627.289 -4.31599 4.1953 0
M  V30 6694 H 631.115 -1.358 2.71647 0
M  V30 6695 H 628.7 -0.608618 1.36441 0
M  V30 6696 H 630.582 -3.70575 2.0063 0
M  V30 6697 H 629.257 -3.08347 0.985067 0
M  V30 6698 H 628.164 -2.11102 3.08847 0
M  V30 6699 H 629.497 -2.79369 4.05233 0
M  V30 6700 N 631.149 -1.42148 -0.680565 0
M  V30 6701 C 632.097 -1.45401 -1.81552 0
M  V30 6702 C 633.091 -0.33036 -1.66147 0
M  V30 6703 O 634.297 -0.503103 -1.72826 0
M  V30 6704 H 630.672 -0.455265 -0.59853 0
M  V30 6705 H 632.643 -2.41024 -1.75926 0
M  V30 6706 C 631.392 -1.36769 -3.19671 0
M  V30 6707 H 630.715 -2.22525 -3.32149 0
M  V30 6708 H 632.155 -1.43106 -3.9912 0
M  V30 6709 C 630.614 -0.0817752 -3.36801 0
M  V30 6710 O 631.144 0.867707 -3.92216 0
M  V30 6711 N 629.35 -0.000799811 -2.906 0
M  V30 6712 H 628.897 -0.774231 -2.4569 0
M  V30 6713 H 628.855 0.858961 -3.02439 0
M  V30 6714 N 632.627 0.916307 -1.28225 0
M  V30 6715 C 633.574 2.01841 -1.11932 0
M  V30 6716 C 634.544 1.66091 -0.0171604 0
M  V30 6717 O 635.729 1.89934 -0.181617 0
M  V30 6718 C 632.869 3.36065 -0.784504 0
M  V30 6719 C 631.982 3.847 -1.96544 0
M  V30 6720 C 631.117 5.07423 -1.57149 0
M  V30 6721 C 630.156 5.48384 -2.71922 0
M  V30 6722 N 629.293 6.62298 -2.33037 0
M  V30 6723 H 634.133 2.1511 -2.06232 0
M  V30 6724 H 631.67 1.05366 -1.02647 0
M  V30 6725 H 633.628 4.13272 -0.571148 0
M  V30 6726 H 632.258 3.22571 0.121565 0
M  V30 6727 H 631.31 3.03673 -2.291 0
M  V30 6728 H 632.622 4.1102 -2.82603 0
M  V30 6729 H 631.776 5.92165 -1.32004 0
M  V30 6730 H 630.515 4.82906 -0.682153 0
M  V30 6731 H 629.52 4.62184 -2.97768 0
M  V30 6732 H 630.745 5.7489 -3.61494 0
M  V30 6733 H 628.691 6.39416 -1.4657 0
M  V30 6734 H 628.608 6.8833 -3.12631 0
M  V30 6735 H 629.876 7.50352 -2.11169 0
M  V30 6736 N 634.105 1.10431 1.1244 0
M  V30 6737 C 635.351 0.847972 1.84221 0
M  V30 6738 C 635.684 -0.624903 1.83871 0
M  V30 6739 O 634.959 -1.46074 1.28423 0
M  V30 6740 C 635.242 1.39695 3.319 0
M  V30 6741 C 635.095 2.93668 3.40704 0
M  V30 6742 C 636.414 1.03924 4.27654 0
M  V30 6743 H 633.533 0.309502 0.668863 0
M  V30 6744 H 636.175 1.36745 1.31912 0
M  V30 6745 H 634.325 0.955095 3.76577 0
M  V30 6746 H 635.997 3.46379 3.04662 0
M  V30 6747 H 634.24 3.30272 2.81252 0
M  V30 6748 H 634.911 3.27162 4.446 0
M  V30 6749 H 637.387 1.42049 3.91102 0
M  V30 6750 H 636.263 1.45027 5.29394 0
M  V30 6751 H 636.524 -0.051336 4.4207 0
M  V30 6752 N 635.583 -1.29855 0.893053 0
M  V30 6753 C 636.813 -1.99686 0.530019 0
M  V30 6754 C 637.221 -1.67066 -0.888012 0
M  V30 6755 O 636.564 -0.908366 -1.5967 0
M  V30 6756 C 636.626 -3.53855 0.63457 0
M  V30 6757 C 636.29 -4.10013 2.01837 0
M  V30 6758 C 637.287 -4.25406 2.98874 0
M  V30 6759 C 634.972 -4.45202 2.32595 0
M  V30 6760 C 636.966 -4.7521 4.24799 0
M  V30 6761 C 634.653 -4.94704 3.58763 0
M  V30 6762 C 635.651 -5.09662 4.5468 0
M  V30 6763 O 635.339 -5.58093 5.78608 0
M  V30 6764 H 635.071 -0.644913 0.20264 0
M  V30 6765 H 637.625 -1.66518 1.20253 0
M  V30 6766 H 635.855 -3.86583 -0.0949477 0
M  V30 6767 H 637.544 -4.04922 0.281648 0
M  V30 6768 H 638.31 -3.98515 2.76425 0
M  V30 6769 H 634.189 -4.32822 1.58701 0
M  V30 6770 H 637.733 -4.86801 4.99671 0
M  V30 6771 H 633.63 -5.21032 3.81046 0
M  V30 6772 H 634.398 -5.7642 5.81104 0
M  V30 6773 N 637.061 -0.65484 -1.43351 0
M  V30 6774 C 637.991 0.0221809 -2.33489 0
M  V30 6775 C 638.972 0.810272 -1.49561 0
M  V30 6776 O 640.157 0.771426 -1.78221 0
M  V30 6777 C 637.287 0.988117 -3.32947 0
M  V30 6778 C 636.241 0.310026 -4.26876 0
M  V30 6779 C 635.567 1.38752 -5.16384 0
M  V30 6780 C 636.867 -0.798589 -5.16159 0
M  V30 6781 H 638.561 -0.730571 -2.9035 0
M  V30 6782 H 636.107 -0.352773 -1.39612 0
M  V30 6783 H 638.06 1.47067 -3.94904 0
M  V30 6784 H 636.784 1.77205 -2.74346 0
M  V30 6785 H 635.443 -0.152097 -3.66284 0
M  V30 6786 H 635.091 2.16293 -4.54121 0
M  V30 6787 H 634.791 0.939051 -5.80048 0
M  V30 6788 H 636.315 1.87141 -5.81215 0
M  V30 6789 H 637.729 -0.398126 -5.71916 0
M  V30 6790 H 636.126 -1.17163 -5.88552 0
M  V30 6791 H 637.196 -1.65588 -4.55751 0
M  V30 6792 N 638.539 1.52521 -0.396863 0
M  V30 6793 C 639.469 2.29582 0.425941 0
M  V30 6794 C 640.45 1.33281 1.05689 0
M  V30 6795 O 641.635 1.62181 1.06823 0
M  V30 6796 C 638.765 3.10821 1.54943 0
M  V30 6797 C 637.719 4.15069 1.04413 0
M  V30 6798 C 637.045 4.84578 2.26028 0
M  V30 6799 C 638.345 5.22191 0.106767 0
M  V30 6800 H 640.039 2.98612 -0.217045 0
M  V30 6801 H 637.585 1.43611 -0.105826 0
M  V30 6802 H 639.538 3.63492 2.13193 0
M  V30 6803 H 638.262 2.39538 2.22011 0
M  V30 6804 H 636.921 3.63389 0.484118 0
M  V30 6805 H 636.569 4.09835 2.91623 0
M  V30 6806 H 636.269 5.55043 1.92876 0
M  V30 6807 H 637.793 5.40056 2.84906 0
M  V30 6808 H 639.207 5.70176 0.597685 0
M  V30 6809 H 637.604 5.99947 -0.135352 0
M  V30 6810 H 638.674 4.77531 -0.842134 0
M  V30 6811 N 640.017 0.126909 1.57088 0
M  V30 6812 C 641.428 -0.397201 1.82426 0
M  V30 6813 C 641.779 -1.66084 1.04453 0
M  V30 6814 O 640.904 -2.14534 0.283552 0
M  V30 6815 C 641.499 -0.727411 3.30899 0
M  V30 6816 C 640.058 -1.19612 3.56889 0
M  V30 6817 C 639.205 -0.20885 2.76512 0
M  V30 6818 H 642.156 0.351924 1.54749 0
M  V30 6819 H 642.177 -1.58407 3.45959 0
M  V30 6820 H 641.689 0.19247 3.87622 0
M  V30 6821 H 639.79 -2.13263 3.05532 0
M  V30 6822 H 639.903 -1.13598 4.65438 0
M  V30 6823 H 638.267 -0.697479 2.44964 0
M  V30 6824 H 639.05 0.704267 3.35998 0
M  V30 6825 N 641.495 -1.56914 -0.146875 0
M  V30 6826 C 642.442 -1.98275 -1.18134 0
M  V30 6827 C 643.412 -0.850367 -1.42681 0
M  V30 6828 O 644.597 -1.11244 -1.55014 0
M  V30 6829 C 641.737 -2.36861 -2.5098 0
M  V30 6830 C 640.85 -3.63391 -2.33605 0
M  V30 6831 C 639.985 -3.91079 -3.59486 0
M  V30 6832 C 639.024 -5.10879 -3.37149 0
M  V30 6833 N 638.161 -5.34577 -4.55161 0
M  V30 6834 H 643.001 -2.8645 -0.821622 0
M  V30 6835 H 640.538 -1.41718 -0.394248 0
M  V30 6836 H 642.496 -2.57262 -3.28439 0
M  V30 6837 H 641.126 -1.51766 -2.84898 0
M  V30 6838 H 640.178 -3.50766 -1.47199 0
M  V30 6839 H 641.49 -4.51007 -2.13059 0
M  V30 6840 H 640.644 -4.11979 -4.45374 0
M  V30 6841 H 639.383 -3.01885 -3.83036 0
M  V30 6842 H 638.388 -4.89853 -2.49649 0
M  V30 6843 H 639.613 -6.01626 -3.14997 0
M  V30 6844 H 637.559 -4.48337 -4.78884 0
M  V30 6845 H 637.476 -6.16463 -4.37618 0
M  V30 6846 H 638.744 -5.59975 -5.42263 0
M  V30 6847 N 642.974 0.416227 -1.52004 0
M  V30 6848 C 643.924 1.50558 -1.7122 0
M  V30 6849 C 644.908 1.50613 -0.56609 0
M  V30 6850 O 646.1 1.56709 -0.822874 0
M  V30 6851 C 643.229 2.88556 -1.85984 0
M  V30 6852 C 642.315 2.93177 -3.06445 0
M  V30 6853 N 642.706 2.67505 -4.29272 0
M  V30 6854 C 641.004 3.24343 -3.06133 0
M  V30 6855 C 641.705 2.78511 -5.10692 0
M  V30 6856 N 640.681 3.11087 -4.45787 0
M  V30 6857 H 644.483 1.29494 -2.63834 0
M  V30 6858 H 641.997 0.62384 -1.4994 0
M  V30 6859 H 643.994 3.66954 -1.97865 0
M  V30 6860 H 642.654 3.10624 -0.945654 0
M  V30 6861 H 643.665 2.42033 -4.57865 0
M  V30 6862 H 640.342 3.52051 -2.24425 0
M  V30 6863 H 641.732 2.62438 -6.18527 0
M  V30 6864 N 644.452 1.42507 0.673017 0
M  V30 6865 C 645.382 1.48916 1.79851 0
M  V30 6866 C 646.363 0.345566 1.66553 0
M  V30 6867 O 647.548 0.560116 1.85947 0
M  V30 6868 C 644.678 1.39258 3.18158 0
M  V30 6869 C 643.632 2.51662 3.46194 0
M  V30 6870 C 642.958 2.27062 4.84094 0
M  V30 6871 C 644.258 3.93968 3.42909 0
M  V30 6872 H 645.952 2.43114 1.74745 0
M  V30 6873 H 643.498 1.17013 0.839288 0
M  V30 6874 H 645.451 1.42349 3.96629 0
M  V30 6875 H 644.175 0.415542 3.23946 0
M  V30 6876 H 642.834 2.47891 2.70084 0
M  V30 6877 H 642.482 1.27648 4.86534 0
M  V30 6878 H 642.182 3.02398 5.03815 0
M  V30 6879 H 643.706 2.31905 5.64847 0
M  V30 6880 H 645.12 3.99332 4.11347 0
M  V30 6881 H 643.517 4.6917 3.74165 0
M  V30 6882 H 644.587 4.20512 2.41449 0
M  V30 6883 N 645.93 -0.909495 1.28709 0
M  V30 6884 C 647.207 -1.63865 1.06806 0
M  V30 6885 C 647.587 -2.07445 -0.391143 0
M  V30 6886 O 646.935 -1.82269 -1.37805 0
M  V30 6887 C 647.145 -2.82692 2.04661 0
M  V30 6888 C 648.493 -3.5361 2.35042 0
M  V30 6889 O 649.517 -2.92847 2.02779 0
M  V30 6890 O 648.376 -4.63131 2.90124 0
M  V30 6891 H 645.47 -0.719065 0.408502 0
M  V30 6892 H 648.016 -0.958424 1.40044 0
M  V30 6893 H 646.788 -2.47614 3.0299 0
M  V30 6894 H 646.411 -3.58426 1.72095 0
M  V30 6895 N 647.408 -1.11026 -1.11852 0
M  V30 6896 C 648.318 -0.777252 -2.2135 0
M  V30 6897 C 649.334 0.227821 -1.72502 0
M  V30 6898 O 650.51 0.0650587 -2.01295 0
M  V30 6899 C 647.575 -0.220668 -3.45997 0
M  V30 6900 C 646.636 -1.2838 -4.09655 0
M  V30 6901 C 645.869 -0.753678 -5.28352 0
M  V30 6902 O 646.092 0.417779 -5.68868 0
M  V30 6903 O 645.026 -1.51647 -5.82483 0
M  V30 6904 H 648.852 -1.69141 -2.5224 0
M  V30 6905 H 646.437 -0.885836 -1.20305 0
M  V30 6906 H 648.319 0.0855756 -4.21313 0
M  V30 6907 H 646.994 0.666262 -3.16769 0
M  V30 6908 H 645.901 -1.64299 -3.3609 0
M  V30 6909 H 647.234 -2.14396 -4.43052 0
M  V30 6910 N 648.886 1.2938 -0.899927 0
M  V30 6911 C 649.833 2.27713 -0.376243 0
M  V30 6912 C 650.803 1.57016 0.541774 0
M  V30 6913 O 651.988 1.84997 0.466966 0
M  V30 6914 C 649.128 3.42889 0.39 0
M  V30 6915 C 648.241 4.28369 -0.558938 0
M  V30 6916 C 647.376 5.30726 0.224379 0
M  V30 6917 C 646.415 6.07862 -0.719068 0
M  V30 6918 N 645.552 7.02094 0.0298569 0
M  V30 6919 H 650.392 2.71888 -1.21988 0
M  V30 6920 H 647.929 1.33724 -0.612879 0
M  V30 6921 H 649.887 4.08443 0.850314 0
M  V30 6922 H 648.517 2.99743 1.19809 0
M  V30 6923 H 647.569 3.62986 -1.13777 0
M  V30 6924 H 648.881 4.82068 -1.2811 0
M  V30 6925 H 648.035 6.02098 0.745881 0
M  V30 6926 H 646.774 4.77759 0.979674 0
M  V30 6927 H 645.779 5.35353 -1.25207 0
M  V30 6928 H 647.004 6.62917 -1.4737 0
M  V30 6929 H 644.95 6.51496 0.767415 0
M  V30 6930 H 644.867 7.5335 -0.632391 0
M  V30 6931 H 646.135 7.77685 0.531615 0
M  V30 6932 N 650.364 0.662433 1.43002 0
M  V30 6933 C 651.61 0.179857 2.02001 0
M  V30 6934 C 651.943 -1.20625 1.52195 0
M  V30 6935 O 651.218 -1.80726 0.718911 0
M  V30 6936 C 651.501 0.200845 3.59539 0
M  V30 6937 C 651.354 1.62153 4.19555 0
M  V30 6938 C 652.673 -0.457738 4.37713 0
M  V30 6939 H 649.792 0.0668305 0.733964 0
M  V30 6940 H 652.434 0.84487 1.70182 0
M  V30 6941 H 650.584 -0.365411 3.86778 0
M  V30 6942 H 652.256 2.23908 4.03315 0
M  V30 6943 H 650.499 2.16601 3.75854 0
M  V30 6944 H 651.17 1.58799 5.28665 0
M  V30 6945 H 653.646 0.0241495 4.16093 0
M  V30 6946 H 652.522 -0.412363 5.47349 0
M  V30 6947 H 652.783 -1.53336 4.14657 0
M  V30 6948 N 651.842 -1.52309 0.404946 0
M  V30 6949 C 652.805 -2.25491 -0.410651 0
M  V30 6950 C 653.805 -1.27704 -0.977154 0
M  V30 6951 O 654.995 -1.51679 -0.856691 0
M  V30 6952 C 652.127 -3.02197 -1.57765 0
M  V30 6953 H 653.32 -2.99015 0.230277 0
M  V30 6954 H 650.873 -1.55506 0.157377 0
M  V30 6955 H 651.608 -2.33013 -2.25556 0
M  V30 6956 H 651.393 -3.73987 -1.17797 0
M  V30 6957 H 652.883 -3.57719 -2.15469 0
M  V30 6958 N 653.32 -0.135238 -1.57019 0
M  V30 6959 C 654.25 0.805235 -2.19176 0
M  V30 6960 C 655.231 1.2656 -1.13651 0
M  V30 6961 O 656.416 1.32528 -1.4195 0
M  V30 6962 C 653.546 2.04914 -2.80406 0
M  V30 6963 C 652.5 1.72598 -3.91655 0
M  V30 6964 C 651.826 3.04154 -4.39766 0
M  V30 6965 C 653.126 0.981709 -5.12991 0
M  V30 6966 H 654.82 0.287232 -2.98019 0
M  V30 6967 H 652.366 0.136714 -1.4335 0
M  V30 6968 H 654.319 2.71178 -3.22553 0
M  V30 6969 H 653.043 2.59067 -1.98877 0
M  V30 6970 H 651.702 1.08717 -3.50109 0
M  V30 6971 H 651.35 3.56274 -3.55075 0
M  V30 6972 H 651.05 2.83299 -5.14796 0
M  V30 6973 H 652.574 3.71509 -4.84576 0
M  V30 6974 H 653.988 1.5462 -5.52056 0
M  V30 6975 H 652.385 0.873533 -5.93708 0
M  V30 6976 H 653.455 -0.0286887 -4.84892 0
M  V30 6977 N 654.798 1.5699 0.138552 0
M  V30 6978 C 656.028 1.87704 0.863184 0
M  V30 6979 C 656.436 0.722411 1.74865 0
M  V30 6980 O 655.779 -0.316636 1.80951 0
M  V30 6981 C 655.841 3.13219 1.76449 0
M  V30 6982 C 655.505 4.44648 1.05532 0
M  V30 6983 C 656.502 5.18318 0.405252 0
M  V30 6984 C 654.187 4.91367 1.04231 0
M  V30 6985 C 656.181 6.36916 -0.24835 0
M  V30 6986 C 653.868 6.09887 0.384904 0
M  V30 6987 C 654.866 6.82508 -0.259292 0
M  V30 6988 O 654.554 7.98775 -0.906258 0
M  V30 6989 H 654.286 0.626255 0.254521 0
M  V30 6990 H 656.84 2.04966 0.133472 0
M  V30 6991 H 655.07 2.91988 2.53535 0
M  V30 6992 H 656.759 3.30111 2.36181 0
M  V30 6993 H 657.525 4.83289 0.407053 0
M  V30 6994 H 653.404 4.34759 1.53315 0
M  V30 6995 H 656.948 6.93538 -0.751755 0
M  V30 6996 H 652.845 6.44376 0.380799 0
M  V30 6997 H 653.613 8.14494 -0.80877 0
M  V30 6998 N 656.276 -0.40816 1.52223 0
M  V30 6999 C 657.226 -1.49648 1.72016 0
M  V30 7000 C 658.21 -1.50311 0.574069 0
M  V30 7001 O 659.402 -1.56271 0.831173 0
M  V30 7002 C 656.531 -2.87566 1.87512 0
M  V30 7003 C 655.617 -2.91547 3.07995 0
M  V30 7004 N 656.008 -2.65225 4.30685 0
M  V30 7005 C 654.306 -3.22715 3.07849 0
M  V30 7006 C 655.007 -2.75799 5.12162 0
M  V30 7007 N 653.983 -3.08719 4.4743 0
M  V30 7008 H 657.785 -1.28093 2.64517 0
M  V30 7009 H 655.299 -0.61588 1.50269 0
M  V30 7010 H 657.296 -3.65899 1.99809 0
M  V30 7011 H 655.956 -3.10118 0.962114 0
M  V30 7012 H 656.967 -2.39601 4.59142 0
M  V30 7013 H 653.644 -3.50856 2.26289 0
M  V30 7014 H 655.034 -2.59155 6.1991 0
M  V30 7015 N 657.755 -1.42862 -0.66545 0
M  V30 7016 C 658.685 -1.49867 -1.79059 0
M  V30 7017 C 659.666 -0.354394 -1.66367 0
M  V30 7018 O 660.851 -0.569969 -1.85647 0
M  V30 7019 C 657.981 -1.40943 -3.17415 0
M  V30 7020 C 656.935 -2.53495 -3.44854 0
M  V30 7021 C 656.261 -2.29626 -4.82883 0
M  V30 7022 C 657.561 -3.95781 -3.40815 0
M  V30 7023 H 659.255 -2.44037 -1.73453 0
M  V30 7024 H 656.801 -1.17456 -0.833071 0
M  V30 7025 H 658.754 -1.4445 -3.95869 0
M  V30 7026 H 657.478 -0.432716 -3.23721 0
M  V30 7027 H 656.137 -2.4932 -2.68766 0
M  V30 7028 H 655.785 -1.30226 -4.8585 0
M  V30 7029 H 655.485 -3.05065 -5.02204 0
M  V30 7030 H 657.009 -2.34897 -5.63609 0
M  V30 7031 H 658.423 -4.01508 -4.09224 0
M  V30 7032 H 656.82 -4.71148 -3.71672 0
M  V30 7033 H 657.89 -4.21786 -2.39216 0
M  V30 7034 N 659.233 0.902656 -1.29189 0
M  V30 7035 C 660.18 2.00643 -1.14066 0
M  V30 7036 C 661.15 1.66064 -0.0347756 0
M  V30 7037 O 662.335 1.8973 -0.201752 0
M  V30 7038 C 659.475 3.35214 -0.820104 0
M  V30 7039 C 658.588 3.82594 -2.00614 0
M  V30 7040 C 657.723 5.05727 -1.62522 0
M  V30 7041 C 656.762 5.45469 -2.77724 0
M  V30 7042 N 655.899 6.59789 -2.40048 0
M  V30 7043 H 660.739 2.1291 -2.08502 0
M  V30 7044 H 658.276 1.04271 -1.03759 0
M  V30 7045 H 660.234 4.12643 -0.614949 0
M  V30 7046 H 658.864 3.22682 0.0873452 0
M  V30 7047 H 657.916 3.01226 -2.32308 0
M  V30 7048 H 659.228 4.07999 -2.86946 0
M  V30 7049 H 658.382 5.90732 -1.38277 0
M  V30 7050 H 657.121 4.82155 -0.733333 0
M  V30 7051 H 656.126 4.59 -3.02653 0
M  V30 7052 H 657.351 5.71024 -3.67572 0
M  V30 7053 H 655.297 6.37826 -1.53343 0
M  V30 7054 H 655.214 6.84975 -3.19914 0
M  V30 7055 H 656.482 7.4807 -2.19116 0
M  V30 7056 N 660.711 1.11618 1.11262 0
M  V30 7057 C 661.658 0.7762 2.17356 0
M  V30 7058 C 662.628 -0.253152 1.6416 0
M  V30 7059 O 663.813 -0.129655 1.90359 0
M  V30 7060 C 660.953 0.227581 3.44349 0
M  V30 7061 C 660.066 1.31372 4.1154 0
M  V30 7062 C 659.201 0.72544 5.26223 0
M  V30 7063 C 658.24 1.7913 5.85302 0
M  V30 7064 N 657.377 1.22237 6.91377 0
M  V30 7065 H 662.217 1.68508 2.45783 0
M  V30 7066 H 659.754 0.841475 1.20655 0
M  V30 7067 H 661.712 -0.108483 4.17059 0
M  V30 7068 H 660.342 -0.644486 3.16301 0
M  V30 7069 H 659.394 1.7667 3.36885 0
M  V30 7070 H 660.706 2.12005 4.51504 0
M  V30 7071 H 659.86 0.339541 6.05749 0
M  V30 7072 H 658.599 -0.112188 4.87571 0
M  V30 7073 H 657.604 2.18648 5.04453 0
M  V30 7074 H 658.829 2.63199 6.26022 0
M  V30 7075 H 656.775 0.406423 6.5474 0
M  V30 7076 H 656.692 1.9654 7.30006 0
M  V30 7077 H 657.96 0.863426 7.74703 0
M  V30 7078 N 662.189 -1.289 0.906776 0
M  V30 7079 C 663.119 -2.29932 0.406659 0
M  V30 7080 C 664.1 -1.6189 -0.522061 0
M  V30 7081 O 665.285 -1.8935 -0.431283 0
M  V30 7082 C 662.415 -3.45425 -0.360366 0
M  V30 7083 C 661.369 -4.25316 0.478574 0
M  V30 7084 C 660.695 -5.33076 -0.416373 0
M  V30 7085 C 661.995 -4.92739 1.7322 0
M  V30 7086 H 663.689 -2.72013 1.25097 0
M  V30 7087 H 661.235 -1.30768 0.602977 0
M  V30 7088 H 663.188 -4.15186 -0.721029 0
M  V30 7089 H 661.912 -3.02206 -1.23852 0
M  V30 7090 H 660.571 -3.57273 0.821662 0
M  V30 7091 H 660.219 -4.86101 -1.29287 0
M  V30 7092 H 659.919 -5.8743 0.141309 0
M  V30 7093 H 661.443 -6.05686 -0.773072 0
M  V30 7094 H 662.857 -5.54898 1.44086 0
M  V30 7095 H 661.254 -5.57057 2.23175 0
M  V30 7096 H 662.324 -4.17625 2.46408 0
M  V30 7097 N 663.667 -0.670007 -1.42649 0
M  V30 7098 C 664.615 0.0230106 -2.32589 0
M  V30 7099 C 665.609 0.795585 -1.49555 0
M  V30 7100 O 666.815 0.70409 -1.65658 0
M  V30 7101 H 663.19 0.0262342 -0.751542 0
M  V30 7102 H 665.161 -0.753009 -2.88743 0
M  V30 7103 C 663.91 0.963872 -3.34073 0
M  V30 7104 H 663.233 0.378813 -3.98001 0
M  V30 7105 H 664.673 1.41755 -3.99602 0
M  V30 7106 C 663.132 2.06797 -2.65964 0
M  V30 7107 O 663.662 3.15383 -2.48789 0
M  V30 7108 N 661.868 1.83831 -2.25066 0
M  V30 7109 H 661.415 0.955235 -2.39234 0
M  V30 7110 H 661.373 2.57895 -1.79827 0
M  V30 7111 N 665.145 1.52092 -0.413018 0
M  V30 7112 C 666.108 2.25706 0.398687 0
M  V30 7113 C 667.108 1.28221 0.970368 0
M  V30 7114 O 668.298 1.52131 0.848635 0
M  V30 7115 C 665.43 3.03029 1.5616 0
M  V30 7116 H 666.623 2.98888 -0.246131 0
M  V30 7117 H 664.176 1.5542 -0.165622 0
M  V30 7118 H 664.911 2.34205 2.24317 0
M  V30 7119 H 664.696 3.74606 1.15812 0
M  V30 7120 H 666.186 3.58857 2.13569 0
M  V30 7121 N 666.623 0.143563 1.56945 0
M  V30 7122 C 667.848 -0.518701 2.00809 0
M  V30 7123 C 668.273 -1.5785 1.02298 0
M  V30 7124 O 667.631 -1.813 -0.0017839 0
M  V30 7125 C 667.679 -1.09929 3.43436 0
M  V30 7126 O 666.783 -2.21425 3.47915 0
M  V30 7127 H 666.124 -0.127215 0.6517 0
M  V30 7128 H 668.654 0.239283 2.03196 0
M  V30 7129 H 668.664 -1.4288 3.82164 0
M  V30 7130 H 667.339 -0.323162 4.14643 0
M  V30 7131 H 665.916 -1.89728 3.21026 0
M  V30 7132 N 668.101 -1.57061 -0.130224 0
M  V30 7133 C 669.031 -2.02552 -1.16168 0
M  V30 7134 C 670.012 -0.907971 -1.4384 0
M  V30 7135 O 671.197 -1.17693 -1.54473 0
M  V30 7136 C 668.327 -2.42035 -2.49071 0
M  V30 7137 C 667.281 -3.5713 -2.35886 0
M  V30 7138 C 666.607 -3.82478 -3.7365 0
M  V30 7139 C 667.907 -4.89236 -1.8288 0
M  V30 7140 H 669.601 -2.8897 -0.783359 0
M  V30 7141 H 667.147 -1.39021 -0.375376 0
M  V30 7142 H 669.1 -2.72462 -3.21469 0
M  V30 7143 H 667.824 -1.52573 -2.88771 0
M  V30 7144 H 666.483 -3.26895 -1.65938 0
M  V30 7145 H 666.131 -2.9024 -4.10816 0
M  V30 7146 H 665.831 -4.59944 -3.65685 0
M  V30 7147 H 667.355 -4.15347 -4.47571 0
M  V30 7148 H 668.769 -5.18272 -2.45085 0
M  V30 7149 H 667.166 -5.70624 -1.85763 0
M  V30 7150 H 668.236 -4.78494 -0.785571 0
M  V30 7151 N 669.579 0.400081 -1.52437 0
M  V30 7152 C 670.807 1.16768 -1.70801 0
M  V30 7153 C 671.222 1.84036 -0.421462 0
M  V30 7154 O 670.579 1.72242 0.603228 0
M  V30 7155 C 670.63 2.22403 -2.8499 0
M  V30 7156 O 670.351 1.57879 -4.08663 0
M  V30 7157 C 671.852 3.11974 -3.1494 0
M  V30 7158 H 669.072 0.350533 -0.57216 0
M  V30 7159 H 671.616 0.469534 -1.99037 0
M  V30 7160 H 669.771 2.87871 -2.59247 0
M  V30 7161 H 670.185 2.27982 -4.7236 0
M  V30 7162 H 671.659 3.82148 -3.9833 0
M  V30 7163 H 672.136 3.74858 -2.28863 0
M  V30 7164 H 672.742 2.52165 -3.42481 0
M  V30 7165 N 671.057 1.43213 0.657864 0
M  V30 7166 C 671.967 1.50448 1.80007 0
M  V30 7167 C 672.983 0.39191 1.69529 0
M  V30 7168 O 674.159 0.645349 1.90781 0
M  V30 7169 C 671.224 1.42062 3.16258 0
M  V30 7170 C 670.285 2.63951 3.38568 0
M  V30 7171 C 669.518 2.55956 4.68318 0
M  V30 7172 O 669.741 1.60473 5.47361 0
M  V30 7173 O 668.675 3.46378 4.92245 0
M  V30 7174 H 672.501 2.4689 1.76858 0
M  V30 7175 H 670.086 1.25163 0.81576 0
M  V30 7176 H 671.968 1.3981 3.97531 0
M  V30 7177 H 670.643 0.487524 3.20008 0
M  V30 7178 H 669.55 2.71776 2.57077 0
M  V30 7179 H 670.883 3.56217 3.39662 0
M  V30 7180 N 672.536 -0.895792 1.29666 0
M  V30 7181 C 673.466 -2.01673 1.17688 0
M  V30 7182 C 674.447 -1.69955 0.0701317 0
M  V30 7183 O 675.632 -1.9258 0.250289 0
M  V30 7184 C 672.762 -3.36568 0.856681 0
M  V30 7185 C 671.716 -3.82509 1.92017 0
M  V30 7186 C 671.042 -5.14574 1.4532 0
M  V30 7187 C 672.342 -4.02409 3.32963 0
M  V30 7188 H 674.036 -2.11953 2.11463 0
M  V30 7189 H 671.582 -1.01839 1.01807 0
M  V30 7190 H 673.535 -4.14498 0.759577 0
M  V30 7191 H 672.259 -3.26391 -0.116763 0
M  V30 7192 H 670.918 -3.068 2.00673 0
M  V30 7193 H 670.566 -5.00815 0.468325 0
M  V30 7194 H 670.266 -5.46283 2.16447 0
M  V30 7195 H 671.79 -5.9504 1.36968 0
M  V30 7196 H 673.204 -4.70808 3.27127 0
M  V30 7197 H 671.601 -4.45478 4.02082 0
M  V30 7198 H 672.671 -3.06616 3.75652 0
M  V30 7199 N 674.014 -1.12206 -1.10668 0
M  V30 7200 C 675.291 -0.787382 -1.79052 0
M  V30 7201 C 675.671 0.723267 -1.98323 0
M  V30 7202 O 675.019 1.6561 -1.57434 0
M  V30 7203 C 675.229 -1.55968 -3.1221 0
M  V30 7204 C 676.577 -1.74413 -3.87125 0
M  V30 7205 O 677.601 -1.5246 -3.21923 0
M  V30 7206 O 676.46 -2.10952 -5.04144 0
M  V30 7207 H 673.554 -0.286137 -0.775922 0
M  V30 7208 H 676.1 -1.22595 -1.1734 0
M  V30 7209 H 674.872 -2.58692 -2.93588 0
M  V30 7210 H 674.495 -1.1152 -3.8164 0
M  V30 7211 N 675.492 1.28418 -0.913599 0
M  V30 7212 C 676.769 1.89977 -0.465619 0
M  V30 7213 C 677.149 1.82813 1.05559 0
M  V30 7214 O 676.497 1.26397 1.90358 0
M  V30 7215 C 676.707 3.34492 -0.995813 0
M  V30 7216 C 678.055 4.11468 -1.04782 0
M  V30 7217 O 679.079 3.43451 -0.944445 0
M  V30 7218 O 677.938 5.33046 -1.20518 0
M  V30 7219 H 675.032 0.813734 -0.147532 0
M  V30 7220 H 677.578 1.36786 -1.00437 0
M  V30 7221 H 676.35 3.33929 -2.03978 0
M  V30 7222 H 675.973 3.95181 -0.437878 0
M  V30 7223 N 676.97 0.677563 1.42291 0
M  V30 7224 C 677.918 -0.0106755 2.32598 0
M  V30 7225 C 678.912 -0.787643 1.49975 0
M  V30 7226 O 680.118 -0.695295 1.66029 0
M  V30 7227 H 676.493 -0.0222482 0.751671 0
M  V30 7228 H 678.464 0.768312 2.88339 0
M  V30 7229 C 677.213 -0.946142 3.3458 0
M  V30 7230 H 676.536 -0.357701 3.98197 0
M  V30 7231 H 677.976 -1.39634 4.00348 0
M  V30 7232 C 676.435 -2.05383 2.67057 0
M  V30 7233 O 676.965 -3.1406 2.50458 0
M  V30 7234 N 675.171 -1.82635 2.26038 0
M  V30 7235 H 674.718 -0.942534 2.39737 0
M  V30 7236 H 674.676 -2.56937 1.81192 0
M  V30 7237 N 678.448 -1.51871 0.421078 0
M  V30 7238 C 679.38 -2.25052 -0.434065 0
M  V30 7239 C 680.393 -1.28458 -1.00013 0
M  V30 7240 O 681.582 -1.54323 -0.897033 0
M  V30 7241 C 678.682 -2.97813 -1.61743 0
M  V30 7242 C 677.855 -4.21374 -1.17315 0
M  V30 7243 C 676.914 -4.76854 -2.22478 0
M  V30 7244 O 675.94 -5.39123 -1.82577 0
M  V30 7245 N 677.142 -4.59467 -3.54782 0
M  V30 7246 H 679.907 -2.99077 0.193073 0
M  V30 7247 H 677.468 -1.59972 0.249088 0
M  V30 7248 H 679.46 -3.3182 -2.31685 0
M  V30 7249 H 678.03 -2.26899 -2.15024 0
M  V30 7250 H 677.25 -3.93046 -0.3014 0
M  V30 7251 H 678.538 -5.01591 -0.853444 0
M  V30 7252 H 677.936 -4.09832 -3.89941 0
M  V30 7253 H 676.493 -4.9788 -4.20665 0
M  V30 7254 N 679.926 -0.151884 -1.56866 0
M  V30 7255 C 681.166 0.500695 -1.98173 0
M  V30 7256 C 681.53 1.61715 -1.03499 0
M  V30 7257 O 682.731 2.33093 -1.33869 0
M  V30 7258 C 681.002 0.989333 -3.43434 0
M  V30 7259 S 682.561 1.64583 -4.06765 0
M  V30 7260 H 679.379 0.16173 -0.692361 0
M  V30 7261 H 681.981 -0.244754 -1.93962 0
M  V30 7262 H 680.685 0.166072 -4.10064 0
M  V30 7263 H 680.216 1.76929 -3.51368 0
M  V30 7264 H 682.231 2.93326 -4.00218 0
M  V30 7265 N 681.404 1.57128 0.121893 0
M  V30 7266 C 682.336 1.96773 1.17529 0
M  V30 7267 C 683.349 0.866668 1.37814 0
M  V30 7268 O 684.538 1.14497 1.3694 0
M  V30 7269 C 681.638 2.24832 2.53582 0
M  V30 7270 C 680.811 3.56138 2.53939 0
M  V30 7271 C 679.87 3.72443 3.71716 0
M  V30 7272 O 678.896 4.44584 3.55434 0
M  V30 7273 N 680.098 3.10993 4.90167 0
M  V30 7274 H 682.863 2.87743 0.838086 0
M  V30 7275 H 680.424 1.58881 0.311199 0
M  V30 7276 H 682.416 2.32958 3.30927 0
M  V30 7277 H 680.986 1.40002 2.79496 0
M  V30 7278 H 680.206 3.59226 1.62329 0
M  V30 7279 H 681.494 4.42448 2.51231 0
M  V30 7280 H 680.892 2.52345 5.06299 0
M  V30 7281 H 679.449 3.24644 5.65198 0
M  V30 7282 N 682.882 -0.391992 1.52647 0
M  V30 7283 C 684.129 -1.13732 1.67545 0
M  V30 7284 C 684.457 -1.90045 0.413881 0
M  V30 7285 O 683.712 -1.86157 -0.603646 0
M  V30 7286 C 684.011 -2.14401 2.85949 0
M  V30 7287 C 683.677 -1.54767 4.23507 0
M  V30 7288 C 682.339 -1.38229 4.60919 0
M  V30 7289 C 684.691 -1.11382 5.0916 0
M  V30 7290 C 682.019 -0.7685 5.81645 0
M  V30 7291 C 684.371 -0.514143 6.30507 0
M  V30 7292 C 683.035 -0.33604 6.66654 0
M  V30 7293 H 682.305 -0.416174 0.613091 0
M  V30 7294 H 684.952 -0.422327 1.86785 0
M  V30 7295 H 683.257 -2.92108 2.61114 0
M  V30 7296 H 684.954 -2.71974 2.94671 0
M  V30 7297 H 681.544 -1.68626 3.94035 0
M  V30 7298 H 685.728 -1.22962 4.80826 0
M  V30 7299 H 680.984 -0.618681 6.08262 0
M  V30 7300 H 685.158 -0.169657 6.96193 0
M  V30 7301 H 682.785 0.14166 7.60068 0
M  V30 7302 N 684.36 -1.4356 -0.65026 0
M  V30 7303 C 685.29 -1.51758 -1.77459 0
M  V30 7304 C 686.271 -0.372019 -1.65982 0
M  V30 7305 O 687.456 -0.589627 -1.85033 0
M  V30 7306 C 684.586 -1.44302 -3.15902 0
M  V30 7307 C 683.54 -2.57138 -3.42146 0
M  V30 7308 C 682.866 -2.34735 -4.8042 0
M  V30 7309 C 684.166 -3.99373 -3.36598 0
M  V30 7310 H 685.86 -2.45863 -1.70855 0
M  V30 7311 H 683.406 -1.18333 -0.820566 0
M  V30 7312 H 685.359 -1.48641 -3.94314 0
M  V30 7313 H 684.083 -0.467026 -3.23244 0
M  V30 7314 H 682.742 -2.52157 -2.66106 0
M  V30 7315 H 682.39 -1.35372 -4.84441 0
M  V30 7316 H 682.09 -3.10375 -4.9894 0
M  V30 7317 H 683.614 -2.40862 -5.61086 0
M  V30 7318 H 685.028 -4.05826 -4.04942 0
M  V30 7319 H 683.425 -4.75063 -3.66654 0
M  V30 7320 H 684.495 -4.243 -2.34729 0
M  V30 7321 N 685.838 0.888903 -1.30139 0
M  V30 7322 C 687.086 1.63713 -1.18501 0
M  V30 7323 C 687.407 1.9324 0.261399 0
M  V30 7324 O 686.677 1.56608 1.17689 0
M  V30 7325 H 685.257 0.606861 -0.435579 0
M  V30 7326 H 687.919 1.06525 -1.63213 0
M  V30 7327 H 687.015 2.58894 -1.743 0
M  V30 7328 N 687.317 1.12792 1.10072 0
M  V30 7329 C 688.563 0.886857 1.82381 0
M  V30 7330 C 688.896 -0.58576 1.85155 0
M  V30 7331 O 688.171 -1.43317 1.31493 0
M  V30 7332 C 688.454 1.46703 3.28862 0
M  V30 7333 C 688.307 3.00829 3.34398 0
M  V30 7334 C 689.626 1.12971 4.25353 0
M  V30 7335 H 686.745 0.32362 0.662148 0
M  V30 7336 H 689.387 1.39513 1.28982 0
M  V30 7337 H 687.537 1.03476 3.74466 0
M  V30 7338 H 689.209 3.52764 2.97247 0
M  V30 7339 H 687.452 3.36164 2.74183 0
M  V30 7340 H 688.123 3.36519 4.3756 0
M  V30 7341 H 690.599 1.50313 3.88001 0
M  V30 7342 H 689.475 1.56223 5.26199 0
M  V30 7343 H 689.736 0.0424452 4.4208 0
M  V30 7344 N 688.795 -1.27931 0.920396 0
M  V30 7345 C 689.743 -2.29061 0.404191 0
M  V30 7346 C 690.737 -1.61615 -0.507634 0
M  V30 7347 O 691.943 -1.75765 -0.388144 0
M  V30 7348 H 688.318 -0.743594 0.112123 0
M  V30 7349 H 690.289 -2.70021 1.27008 0
M  V30 7350 C 689.038 -3.46088 -0.334466 0
M  V30 7351 H 688.361 -3.98194 0.35797 0
M  V30 7352 H 689.801 -4.18829 -0.660196 0
M  V30 7353 C 688.26 -2.99396 -1.54479 0
M  V30 7354 O 688.79 -3.02439 -2.64374 0
M  V30 7355 N 686.996 -2.54978 -1.39408 0
M  V30 7356 H 686.543 -2.52701 -0.500009 0
M  V30 7357 H 686.501 -2.24098 -2.20516 0
M  V30 7358 N 690.273 -0.685099 -1.4193 0
M  V30 7359 C 691.22 -0.0131869 -2.30796 0
M  V30 7360 C 692.19 0.782129 -1.46533 0
M  V30 7361 O 693.375 0.75229 -1.75343 0
M  V30 7362 C 690.515 0.924768 -3.32479 0
M  V30 7363 C 689.628 0.122181 -4.31827 0
M  V30 7364 C 688.763 1.05682 -5.20581 0
M  V30 7365 C 687.802 0.246526 -6.11603 0
M  V30 7366 N 686.939 1.13442 -6.92875 0
M  V30 7367 H 691.779 -0.776789 -2.87698 0
M  V30 7368 H 689.316 -0.394791 -1.41703 0
M  V30 7369 H 691.274 1.48251 -3.89971 0
M  V30 7370 H 689.904 1.65488 -2.77152 0
M  V30 7371 H 688.956 -0.552335 -3.76369 0
M  V30 7372 H 690.268 -0.506473 -4.96222 0
M  V30 7373 H 689.422 1.68415 -5.82856 0
M  V30 7374 H 688.161 1.71935 -4.56388 0
M  V30 7375 H 687.166 -0.393944 -5.48387 0
M  V30 7376 H 688.391 -0.412053 -6.77849 0
M  V30 7377 H 686.337 1.78316 -6.313 0
M  V30 7378 H 686.254 0.561089 -7.53915 0
M  V30 7379 H 687.522 1.74889 -7.59628 0
M  V30 7380 N 691.751 1.51645 -0.429126 0
M  V30 7381 C 692.976 2.06917 0.141399 0
M  V30 7382 C 693.401 1.29527 1.36398 0
M  V30 7383 O 692.759 0.33094 1.78254 0
M  V30 7384 C 692.807 3.57776 0.4504 0
M  V30 7385 O 691.911 3.82639 1.53821 0
M  V30 7386 H 691.252 0.663978 0.0054647 0
M  V30 7387 H 693.782 1.95355 -0.608093 0
M  V30 7388 H 693.792 4.01894 0.703249 0
M  V30 7389 H 692.467 4.13532 -0.443213 0
M  V30 7390 H 691.044 3.5039 1.27597 0
M  V30 7391 N 693.229 0.160201 1.56784 0
M  V30 7392 C 694.477 -0.486625 1.96154 0
M  V30 7393 C 694.798 -1.64525 1.04673 0
M  V30 7394 O 694.068 -1.95586 0.110864 0
M  V30 7395 H 692.648 -0.182764 0.724297 0
M  V30 7396 H 695.31 0.238787 1.93432 0
M  V30 7397 H 694.406 -0.854025 3.00188 0
M  V30 7398 N 694.707 -1.5719 -0.113559 0
M  V30 7399 C 696.118 -1.74259 -0.670116 0
M  V30 7400 C 696.469 -0.779694 -1.80042 0
M  V30 7401 O 695.594 0.0461353 -2.16351 0
M  V30 7402 C 696.189 -3.15981 -1.22236 0
M  V30 7403 C 694.748 -3.34537 -1.72516 0
M  V30 7404 C 693.895 -2.70116 -0.627098 0
M  V30 7405 H 696.846 -1.58301 0.112396 0
M  V30 7406 H 696.867 -3.17832 -2.09197 0
M  V30 7407 H 696.379 -3.86038 -0.39949 0
M  V30 7408 H 694.48 -2.6953 -2.57263 0
M  V30 7409 H 694.593 -4.42737 -1.83086 0
M  V30 7410 H 692.957 -2.31501 -1.06204 0
M  V30 7411 H 693.74 -3.42802 0.184889 0
M  V30 7412 N 696.185 0.383891 -1.52853 0
M  V30 7413 C 697.432 1.12842 -1.68146 0
M  V30 7414 C 697.76 1.89823 -0.423954 0
M  V30 7415 O 697.015 1.86475 0.593765 0
M  V30 7416 C 697.314 2.12881 -2.87082 0
M  V30 7417 C 696.98 1.52519 -4.24322 0
M  V30 7418 C 695.642 1.35783 -4.61645 0
M  V30 7419 C 697.994 1.0868 -5.09743 0
M  V30 7420 C 695.322 0.737643 -5.82044 0
M  V30 7421 C 697.674 0.480699 -6.30771 0
M  V30 7422 C 696.338 0.300681 -6.66822 0
M  V30 7423 H 695.608 0.412917 -0.615289 0
M  V30 7424 H 698.255 0.412416 -1.87006 0
M  V30 7425 H 696.56 2.90719 -2.62659 0
M  V30 7426 H 698.257 2.70408 -2.96109 0
M  V30 7427 H 694.847 1.66534 -3.94923 0
M  V30 7428 H 699.031 1.2041 -4.81472 0
M  V30 7429 H 694.287 0.586415 -6.08581 0
M  V30 7430 H 698.461 0.132733 -6.96273 0
M  V30 7431 H 696.088 -0.181966 -7.59982 0
M  V30 7432 N 697.663 1.43903 0.642637 0
M  V30 7433 C 698.61 1.49881 1.75512 0
M  V30 7434 C 699.58 0.347538 1.62423 0
M  V30 7435 O 700.765 0.556177 1.82514 0
M  V30 7436 C 697.905 1.43797 3.13714 0
M  V30 7437 C 697.018 2.6921 3.37861 0
M  V30 7438 C 696.153 2.5504 4.6597 0
M  V30 7439 C 695.192 3.75671 4.83257 0
M  V30 7440 N 694.329 3.60247 6.02633 0
M  V30 7441 H 699.169 2.44935 1.69737 0
M  V30 7442 H 696.706 1.21572 0.828165 0
M  V30 7443 H 698.664 1.38262 3.93624 0
M  V30 7444 H 697.294 0.523173 3.18532 0
M  V30 7445 H 696.346 2.8498 2.51973 0
M  V30 7446 H 697.658 3.58786 3.46517 0
M  V30 7447 H 696.812 2.47273 5.54023 0
M  V30 7448 H 695.551 1.63006 4.59653 0
M  V30 7449 H 694.556 3.83836 3.93637 0
M  V30 7450 H 695.781 4.68728 4.91397 0
M  V30 7451 H 693.727 2.70955 5.97427 0
M  V30 7452 H 693.644 4.43431 6.12295 0
M  V30 7453 H 694.912 3.56351 6.93278 0
M  V30 7454 N 699.141 -0.881989 1.30609 0
M  V30 7455 C 700.366 -1.67236 1.22665 0
M  V30 7456 C 700.791 -1.8696 -0.206777 0
M  V30 7457 O 700.149 -1.4027 -1.14865 0
M  V30 7458 C 700.197 -3.02446 1.96363 0
M  V30 7459 O 699.301 -3.91614 1.29276 0
M  V30 7460 H 698.642 -0.510902 0.424117 0
M  V30 7461 H 701.172 -1.10055 1.72479 0
M  V30 7462 H 701.182 -3.52468 2.055 0
M  V30 7463 H 699.857 -2.8741 3.00613 0
M  V30 7464 H 698.434 -3.50055 1.28514 0
M  V30 7465 N 700.619 -1.13374 -1.09472 0
M  V30 7466 C 701.567 -0.806105 -2.18185 0
M  V30 7467 C 702.561 0.21136 -1.68076 0
M  V30 7468 O 703.767 0.0685558 -1.79869 0
M  V30 7469 H 700.142 -0.242901 -0.71169 0
M  V30 7470 H 702.113 -1.73115 -2.43051 0
M  V30 7471 C 700.862 -0.287928 -3.46506 0
M  V30 7472 H 700.185 -1.06217 -3.85432 0
M  V30 7473 H 701.625 -0.0971054 -4.23889 0
M  V30 7474 C 700.084 0.986256 -3.22141 0
M  V30 7475 O 700.614 2.06217 -3.44728 0
M  V30 7476 N 698.82 0.917153 -2.75747 0
M  V30 7477 H 698.367 0.0414609 -2.57567 0
M  V30 7478 H 698.325 1.77029 -2.59823 0
M  V30 7479 N 702.098 1.27442 -0.927168 0
M  V30 7480 C 703.008 2.30599 -0.431448 0
M  V30 7481 C 704.024 1.67028 0.48761 0
M  V30 7482 O 705.2 1.97962 0.370546 0
M  V30 7483 C 702.265 3.45327 0.308292 0
M  V30 7484 C 701.326 4.24418 -0.645615 0
M  V30 7485 C 700.559 5.33667 0.0589164 0
M  V30 7486 O 700.782 5.5589 1.27838 0
M  V30 7487 O 699.716 5.98774 -0.612638 0
M  V30 7488 H 703.542 2.75036 -1.28797 0
M  V30 7489 H 701.127 1.32382 -0.692495 0
M  V30 7490 H 703.009 4.15107 0.725555 0
M  V30 7491 H 701.684 3.02945 1.14043 0
M  V30 7492 H 700.591 3.57174 -1.11255 0
M  V30 7493 H 701.924 4.70512 -1.44496 0
M  V30 7494 N 703.576 0.692616 1.41565 0
M  V30 7495 C 704.806 0.230943 2.05305 0
M  V30 7496 C 705.214 -1.12379 1.52209 0
M  V30 7497 O 704.557 -1.71281 0.663968 0
M  V30 7498 C 704.619 0.107894 3.59338 0
M  V30 7499 C 704.283 1.39419 4.35214 0
M  V30 7500 C 705.28 2.33143 4.64694 0
M  V30 7501 C 702.965 1.64674 4.74539 0
M  V30 7502 C 704.959 3.50385 5.32456 0
M  V30 7503 C 702.646 2.82202 5.42038 0
M  V30 7504 C 703.644 3.74881 5.70923 0
M  V30 7505 O 703.332 4.90351 6.37033 0
M  V30 7506 H 703.064 0.105708 0.667684 0
M  V30 7507 H 705.618 0.94488 1.82376 0
M  V30 7508 H 703.848 -0.661785 3.80995 0
M  V30 7509 H 705.537 -0.316213 4.04666 0
M  V30 7510 H 706.303 2.14887 4.34797 0
M  V30 7511 H 702.182 0.934007 4.51439 0
M  V30 7512 H 705.726 4.22743 5.54918 0
M  V30 7513 H 701.623 3.00376 5.71353 0
M  V30 7514 H 702.391 4.90128 6.55528 0
M  V30 7515 N 705.054 -1.51416 0.437162 0
M  V30 7516 C 706.47 -1.59349 0.0894459 0
M  V30 7517 C 706.67 -1.44809 -1.40116 0
M  V30 7518 O 705.726 -1.28924 -2.17106 0
M  V30 7519 C 707.039 -2.9446 0.609398 0
M  V30 7520 C 708.587 -3.07769 0.569824 0
M  V30 7521 C 709.062 -4.45404 1.06675 0
M  V30 7522 N 710.553 -4.51723 1.02473 0
M  V30 7523 C 711.288 -5.56544 1.3801 0
M  V30 7524 N 710.784 -6.68784 1.80831 0
M  V30 7525 N 712.577 -5.46901 1.29828 0
M  V30 7526 H 704.728 -1.59112 1.40703 0
M  V30 7527 H 706.991 -0.750031 0.579791 0
M  V30 7528 H 706.697 -3.1047 1.65231 0
M  V30 7529 H 706.571 -3.77184 0.0342236 0
M  V30 7530 H 708.958 -2.91428 -0.464107 0
M  V30 7531 H 709.039 -2.26885 1.1814 0
M  V30 7532 H 708.683 -4.62492 2.09914 0
M  V30 7533 H 708.613 -5.24827 0.431712 0
M  V30 7534 H 711.104 -3.71165 0.710258 0
M  V30 7535 H 711.417 -7.44787 2.06185 0
M  V30 7536 H 709.762 -6.69992 1.84757 0
M  V30 7537 H 712.953 -4.581 0.962397 0
M  V30 7538 H 713.126 -6.2848 1.57851 0
M  V30 7539 N 706.532 -0.168513 -1.56696 0
M  V30 7540 C 707.762 0.482802 -2.0088 0
M  V30 7541 C 708.17 1.57537 -1.0478 0
M  V30 7542 O 707.513 1.83656 -0.0402746 0
M  V30 7543 C 707.575 1.1236 -3.4149 0
M  V30 7544 C 707.239 0.173027 -4.56672 0
M  V30 7545 C 708.236 -0.607565 -5.16338 0
M  V30 7546 C 705.921 0.0696691 -5.02252 0
M  V30 7547 C 707.915 -1.47874 -6.2001 0
M  V30 7548 C 705.602 -0.805096 -6.05773 0
M  V30 7549 C 706.6 -1.57789 -6.64524 0
M  V30 7550 O 706.288 -2.43804 -7.66038 0
M  V30 7551 H 706.02 0.128246 -0.663723 0
M  V30 7552 H 708.574 -0.266532 -2.03663 0
M  V30 7553 H 706.804 1.921 -3.35611 0
M  V30 7554 H 708.493 1.67683 -3.69645 0
M  V30 7555 H 709.259 -0.53787 -4.82008 0
M  V30 7556 H 705.138 0.660957 -4.56237 0
M  V30 7557 H 708.682 -2.0824 -6.65794 0
M  V30 7558 H 704.579 -0.876005 -6.39528 0
M  V30 7559 H 705.347 -2.37289 -7.83349 0
M  V30 7560 O 708.049 1.61471 -0.0305634 0
M  V30 7561 H 708.74 1.84756 0.581805 0
M  V30 END ATOM
M  V30 BEGIN BOND
M  V30 END BOND
M  V30 END CTAB
M  END
$$$$
