drugbank_target|P50391 Neuropeptide Y receptor type 4 (DB05004; DB05045; DB05085)
 OpenBabel12092120143D

  0  0  0     0  0            999 V3000
M  V30 BEGIN CTAB
M  V30 COUNTS 6012 6085 0 0 0
M  V30 BEGIN ATOM
M  V30 1 H -0.908 1.98254 -0.117106 0
M  V30 2 N 0 1.576 0 0
M  V30 3 C 0.933 2.03868 1.02534 0
M  V30 4 C 1.911 0.928543 1.3348 0
M  V30 5 O 3.095 1.19667 1.45644 0
M  V30 6 C 0.222 2.43627 2.35294 0
M  V30 7 C -0.732 3.65373 2.2001 0
M  V30 8 S 0.101 5.13292 1.52614 0
M  V30 9 C 1.257 5.56322 2.86805 0
M  V30 10 H 1.49 2.90518 0.631377 0
M  V30 11 H -0.977 1.52953 0.210867 0
M  V30 12 H 0.981 2.67203 3.11629 0
M  V30 13 H -0.358 1.57376 2.7183 0
M  V30 14 H -1.165 3.90944 3.18086 0
M  V30 15 H -1.563 3.418 1.51819 0
M  V30 16 H 0.729 5.58782 3.83104 0
M  V30 17 H 1.672 6.56266 2.65933 0
M  V30 18 H 2.08 4.83886 2.90714 0
M  V30 19 N 1.4781 -0.272755 1.55222 0
M  V30 20 C 2.4261 -1.35705 1.88909 0
M  V30 21 C 3.4201 -1.5112 0.765456 0
M  V30 22 O 4.6261 -1.52901 0.949802 0
M  V30 23 H 1.0011 -0.453868 0.59959 0
M  V30 24 H 2.9721 -1.04544 2.79487 0
M  V30 25 C 1.7211 -2.71049 2.17779 0
M  V30 26 H 1.0441 -2.59979 3.03728 0
M  V30 27 H 2.4841 -3.45858 2.45272 0
M  V30 28 C 0.9431 -3.22165 0.985473 0
M  V30 29 O 1.4731 -4.01096 0.220233 0
M  V30 30 N -0.3209 -2.7985 0.783108 0
M  V30 31 H -0.7739 -2.15775 1.40708 0
M  V30 32 H -0.8159 -3.14397 -0.0130392 0
M  V30 33 N 2.9562 -1.48159 -0.537278 0
M  V30 34 C 4.1842 -1.59454 -1.31841 0
M  V30 35 C 4.5992 -0.252065 -1.8711 0
M  V30 36 O 3.9562 0.757621 -1.66031 0
M  V30 37 C 4.0072 -2.63546 -2.47439 0
M  V30 38 O 3.7282 -3.92583 -1.94449 0
M  V30 39 C 5.2292 -2.85212 -3.39366 0
M  V30 40 H 2.4492 -0.53785 -0.401196 0
M  V30 41 H 4.9932 -1.93932 -0.648891 0
M  V30 42 H 3.1482 -2.31946 -3.1029 0
M  V30 43 H 3.5622 -4.49629 -2.70063 0
M  V30 44 H 5.0362 -3.61863 -4.16844 0
M  V30 45 H 5.5132 -1.93765 -3.94147 0
M  V30 46 H 6.1192 -3.18086 -2.82314 0
M  V30 47 N 4.4343 0.785586 -1.36625 0
M  V30 48 C 5.6593 1.57963 -1.34397 0
M  V30 49 C 6.0843 1.87964 0.071526 0
M  V30 50 O 5.4423 1.48182 1.0446 0
M  V30 51 C 5.4903 2.87511 -2.17646 0
M  V30 52 O 4.5943 3.81281 -1.57158 0
M  V30 53 H 3.9353 0.479014 -0.459828 0
M  V30 54 H 6.4653 0.973411 -1.79961 0
M  V30 55 H 6.4753 3.36745 -2.30362 0
M  V30 56 H 5.1503 2.65002 -3.20541 0
M  V30 57 H 3.7273 3.39885 -1.53403 0
M  V30 58 N 5.9124 1.20967 1.01018 0
M  V30 59 C 6.8624 0.93182 2.08089 0
M  V30 60 C 7.8464 -0.110898 1.60517 0
M  V30 61 O 9.0384 0.0973392 1.76732 0
M  V30 62 C 6.1674 0.492719 3.39746 0
M  V30 63 C 5.2534 1.56922 3.94 0
M  V30 64 N 5.6444 2.79312 4.21686 0
M  V30 65 C 3.9424 1.43688 4.2222 0
M  V30 66 C 4.6434 3.48797 4.65527 0
M  V30 67 N 3.6194 2.76224 4.68189 0
M  V30 68 H 7.4214 1.86175 2.27412 0
M  V30 69 H 4.9354 1.10463 1.19045 0
M  V30 70 H 6.9324 0.275044 4.15992 0
M  V30 71 H 5.5924 -0.430509 3.21833 0
M  V30 72 H 6.6034 3.15903 4.10397 0
M  V30 73 H 3.2804 0.578548 4.13472 0
M  V30 74 H 4.6704 4.53561 4.95714 0
M  V30 75 N 7.3905 -1.2043 1.01659 0
M  V30 76 C 8.3205 -2.25466 0.607226 0
M  V30 77 C 9.3015 -1.65853 -0.377716 0
M  V30 78 O 10.4865 -1.92409 -0.263149 0
M  V30 79 C 7.6165 -3.47256 -0.0552949 0
M  V30 80 C 6.5705 -4.19462 0.850632 0
M  V30 81 C 5.8965 -5.34673 0.0538859 0
M  V30 82 C 7.1965 -4.75603 2.15868 0
M  V30 83 H 8.8905 -2.59962 1.48526 0
M  V30 84 H 6.4365 -1.2496 0.715605 0
M  V30 85 H 8.3895 -4.19917 -0.353233 0
M  V30 86 H 7.1135 -3.11924 -0.968045 0
M  V30 87 H 5.7725 -3.48667 1.13257 0
M  V30 88 H 5.4205 -4.95585 -0.860514 0
M  V30 89 H 5.1205 -5.83913 0.657192 0
M  V30 90 H 6.6445 -6.10138 -0.237598 0
M  V30 91 H 8.0585 -5.40083 1.92311 0
M  V30 92 H 6.4555 -5.3528 2.71284 0
M  V30 93 H 7.5255 -3.94346 2.82169 0
M  V30 94 N 8.8686 -0.792821 -1.36206 0
M  V30 95 C 9.7986 -0.207853 -2.32573 0
M  V30 96 C 10.7796 0.659055 -1.56813 0
M  V30 97 O 11.9646 0.592176 -1.84951 0
M  V30 98 C 9.0946 0.655449 -3.41059 0
M  V30 99 C 8.0486 -0.111842 -4.27854 0
M  V30 100 C 7.3746 0.872274 -5.27537 0
M  V30 101 C 8.6746 -1.30299 -5.05786 0
M  V30 102 H 10.3686 -1.01294 -2.81744 0
M  V30 103 H 7.9146 -0.48854 -1.3546 0
M  V30 104 H 9.8676 1.07464 -4.07467 0
M  V30 105 H 8.5916 1.49328 -2.90463 0
M  V30 106 H 7.2506 -0.512053 -3.63006 0
M  V30 107 H 6.8986 1.70523 -4.73214 0
M  V30 108 H 6.5986 0.363291 -5.86476 0
M  V30 109 H 8.1226 1.28996 -5.96818 0
M  V30 110 H 9.5366 -0.959379 -5.65216 0
M  V30 111 H 7.9336 -1.7455 -5.74154 0
M  V30 112 H 9.0036 -2.09663 -4.37229 0
M  V30 113 N 10.3467 1.47872 -0.545128 0
M  V30 114 C 11.3097 2.28337 0.198717 0
M  V30 115 C 12.3097 1.36255 0.853888 0
M  V30 116 O 13.4997 1.59003 0.711606 0
M  V30 117 C 10.6317 3.15585 1.28915 0
M  V30 118 H 11.8247 2.95567 -0.507941 0
M  V30 119 H 9.3777 1.53362 -0.301616 0
M  V30 120 H 10.1127 2.53019 2.02859 0
M  V30 121 H 9.8977 3.83337 0.824309 0
M  V30 122 H 11.3877 3.76243 1.81194 0
M  V30 123 N 11.8248 0.280983 1.55075 0
M  V30 124 C 12.7548 -0.597469 2.25727 0
M  V30 125 C 13.7358 -1.15417 1.24952 0
M  V30 126 O 14.9208 -1.18722 1.53684 0
M  V30 127 C 12.0508 -1.7789 2.98283 0
M  V30 128 C 11.0048 -1.35347 4.06036 0
M  V30 129 C 10.3308 -2.61846 4.66198 0
M  V30 130 C 11.6308 -0.499354 5.19907 0
M  V30 131 H 13.3248 -0.00824265 2.99399 0
M  V30 132 H 10.8708 -0.0025244 1.44 0
M  V30 133 H 12.8238 -2.39937 3.46422 0
M  V30 134 H 11.5478 -2.39405 2.22155 0
M  V30 135 H 10.2068 -0.756156 3.58717 0
M  V30 136 H 9.8548 -3.21632 3.86732 0
M  V30 137 H 9.5548 -2.3409 5.38958 0
M  V30 138 H 11.0788 -3.24732 5.1709 0
M  V30 139 H 12.4928 -1.02498 5.64063 0
M  V30 140 H 10.8898 -0.316424 5.99265 0
M  V30 141 H 11.9598 0.480459 4.82514 0
M  V30 142 N 13.3029 -1.57598 0.00835791 0
M  V30 143 C 14.2329 -2.1198 -0.979113 0
M  V30 144 C 15.2139 -1.03091 -1.35301 0
M  V30 145 O 16.3989 -1.30818 -1.43528 0
M  V30 146 C 13.5289 -2.62995 -2.26828 0
M  V30 147 C 12.4829 -3.76485 -2.03576 0
M  V30 148 C 11.8089 -4.13846 -3.38579 0
M  V30 149 C 13.1089 -5.0342 -1.39161 0
M  V30 150 H 14.8029 -2.94738 -0.526281 0
M  V30 151 H 12.3489 -1.41783 -0.251704 0
M  V30 152 H 14.3019 -2.99669 -2.96271 0
M  V30 153 H 13.0259 -1.7737 -2.7424 0
M  V30 154 H 11.6849 -3.40217 -1.36557 0
M  V30 155 H 11.3329 -3.25232 -3.83709 0
M  V30 156 H 11.0329 -4.90312 -3.23834 0
M  V30 157 H 12.5569 -4.53086 -4.09323 0
M  V30 158 H 13.9709 -5.37812 -1.98573 0
M  V30 159 H 12.3679 -5.84746 -1.34878 0
M  V30 160 H 13.4379 -4.83548 -0.361868 0
M  V30 161 N 14.781 0.264519 -1.55364 0
M  V30 162 C 15.711 1.33121 -1.91836 0
M  V30 163 C 16.692 1.51101 -0.781192 0
M  V30 164 O 17.877 1.64003 -1.04003 0
M  V30 165 C 15.007 2.68921 -2.19769 0
M  V30 166 C 13.961 2.65661 -3.35571 0
M  V30 167 C 13.287 4.05093 -3.49004 0
M  V30 168 C 14.587 2.24187 -4.71739 0
M  V30 169 H 16.281 1.02844 -2.81182 0
M  V30 170 H 13.827 0.493286 -1.35287 0
M  V30 171 H 15.78 3.43663 -2.43872 0
M  V30 172 H 14.504 3.00799 -1.27231 0
M  V30 173 H 13.163 1.93377 -3.1145 0
M  V30 174 H 12.811 4.34206 -2.53917 0
M  V30 175 H 12.511 4.03804 -4.26868 0
M  V30 176 H 14.035 4.81561 -3.75408 0
M  V30 177 H 15.449 2.88654 -4.9533 0
M  V30 178 H 13.846 2.34044 -5.52579 0
M  V30 179 H 14.916 1.19327 -4.69988 0
M  V30 180 N 16.2591 1.48442 0.529413 0
M  V30 181 C 17.6701 1.5002 1.11134 0
M  V30 182 C 18.0211 0.27031 1.94329 0
M  V30 183 O 17.1461 -0.622507 2.07253 0
M  V30 184 C 17.7411 2.71834 2.02217 0
M  V30 185 C 16.3001 2.76283 2.55627 0
M  V30 186 C 15.4471 2.43542 1.326 0
M  V30 187 H 18.3981 1.5555 0.314641 0
M  V30 188 H 18.4191 2.50384 2.8651 0
M  V30 189 H 17.9311 3.61331 1.41639 0
M  V30 190 H 16.0321 1.90995 3.19924 0
M  V30 191 H 16.1451 3.77725 2.94721 0
M  V30 192 H 14.5091 1.94709 1.64196 0
M  V30 193 H 15.2921 3.3528 0.737734 0
M  V30 194 N 17.7372 -0.778329 1.37039 0
M  V30 195 C 18.6842 -1.89139 1.32269 0
M  V30 196 C 19.6542 -1.65017 0.189387 0
M  V30 197 O 20.8392 -1.87024 0.377693 0
M  V30 198 C 17.9792 -3.26112 1.12894 0
M  V30 199 C 17.0922 -3.62233 2.35396 0
M  V30 200 C 16.2272 -4.8838 2.08946 0
M  V30 201 C 15.2662 -5.17212 3.2735 0
M  V30 202 N 14.4032 -6.34546 3.00492 0
M  V30 203 H 19.2432 -1.92552 2.27437 0
M  V30 204 H 16.7802 -0.941473 1.13025 0
M  V30 205 H 18.7382 -4.05116 0.996835 0
M  V30 206 H 17.3682 -3.22091 0.213758 0
M  V30 207 H 16.4202 -2.78265 2.5937 0
M  V30 208 H 17.7322 -3.79481 3.23721 0
M  V30 209 H 16.8862 -5.75274 1.92729 0
M  V30 210 H 15.6252 -4.73222 1.17949 0
M  V30 211 H 14.6302 -4.28796 3.44113 0
M  V30 212 H 15.8552 -5.34283 4.19188 0
M  V30 213 H 13.8012 -6.20759 2.12118 0
M  V30 214 H 13.7182 -6.52179 3.82358 0
M  V30 215 H 14.9862 -7.24394 2.87879 0
M  V30 216 N 19.2153 -1.21501 -1.00376 0
M  V30 217 C 20.4403 -1.05977 -1.78279 0
M  V30 218 C 20.8653 0.385994 -1.84097 0
M  V30 219 O 20.2233 1.27849 -1.28547 0
M  V30 220 C 20.2713 -1.66302 -3.19963 0
M  V30 221 O 19.3753 -0.909333 -4.0225 0
M  V30 222 H 18.7163 -0.372906 -0.549397 0
M  V30 223 H 21.2463 -1.6107 -1.26165 0
M  V30 224 H 21.2563 -1.70574 -3.70632 0
M  V30 225 H 19.9313 -2.71515 -3.15043 0
M  V30 226 H 18.5083 -0.941795 -3.60811 0
M  V30 227 N 20.6934 1.19889 -1.02296 0
M  V30 228 C 22.1044 1.71124 -0.746568 0
M  V30 229 C 22.4554 1.81939 0.734335 0
M  V30 230 O 21.5804 1.48639 1.57275 0
M  V30 231 C 22.1754 3.10804 -1.34857 0
M  V30 232 C 20.7344 3.59323 -1.1209 0
M  V30 233 C 19.8814 2.3635 -1.45031 0
M  V30 234 H 22.8324 1.04813 -1.19163 0
M  V30 235 H 22.8534 3.73186 -0.742437 0
M  V30 236 H 22.3654 3.029 -2.42638 0
M  V30 237 H 20.4664 3.7255 -0.0610337 0
M  V30 238 H 20.5794 4.4378 -1.80544 0
M  V30 239 H 18.9434 2.39399 -0.869487 0
M  V30 240 H 19.7264 2.31081 -2.53883 0
M  V30 241 N 22.1715 0.800033 1.35784 0
M  V30 242 C 23.1035 0.163596 2.28615 0
M  V30 243 C 24.1165 -0.633317 1.49976 0
M  V30 244 O 25.3055 -0.466754 1.72289 0
M  V30 245 C 22.4055 -0.790958 3.29541 0
M  V30 246 C 21.5785 -0.0418255 4.3738 0
M  V30 247 C 20.6375 -0.91389 5.18203 0
M  V30 248 O 19.6635 -0.367234 5.68014 0
M  V30 249 N 20.8655 -2.23682 5.35674 0
M  V30 250 H 23.6305 0.96105 2.83873 0
M  V30 251 H 21.1915 0.654894 1.48063 0
M  V30 252 H 23.1835 -1.37844 3.80501 0
M  V30 253 H 21.7535 -1.48925 2.74846 0
M  V30 254 H 20.9735 0.726813 3.87442 0
M  V30 255 H 22.2615 0.474719 5.06581 0
M  V30 256 H 21.6595 -2.70497 4.96838 0
M  V30 257 H 20.2165 -2.77369 5.89839 0
M  V30 258 N 23.6496 -1.47581 0.552962 0
M  V30 259 C 24.8976 -2.02082 0.0272703 0
M  V30 260 C 25.2186 -1.4301 -1.32563 0
M  V30 261 O 24.4886 -0.603745 -1.86365 0
M  V30 262 H 23.0686 -0.746966 0.00709182 0
M  V30 263 H 25.7306 -1.81033 0.722008 0
M  V30 264 H 24.8266 -3.12034 -0.0639951 0
M  V30 265 N 25.1277 -0.289203 -1.54924 0
M  V30 266 C 26.0377 0.601863 -2.26748 0
M  V30 267 C 27.0537 1.15834 -1.2984 0
M  V30 268 O 28.2297 1.18564 -1.62802 0
M  V30 269 C 25.2947 1.76299 -2.98529 0
M  V30 270 C 24.3557 1.24178 -4.10948 0
M  V30 271 C 23.5887 2.34757 -4.79296 0
M  V30 272 O 23.8117 3.54411 -4.46933 0
M  V30 273 O 22.7457 2.02115 -5.66951 0
M  V30 274 H 26.5717 0.0195879 -3.03694 0
M  V30 275 H 24.1567 -0.0560868 -1.49295 0
M  V30 276 H 26.0387 2.43973 -3.43592 0
M  V30 277 H 24.7137 2.33209 -2.24488 0
M  V30 278 H 23.6207 0.531104 -3.70311 0
M  V30 279 H 24.9537 0.718252 -4.86931 0
M  V30 280 N 26.6058 1.57591 -0.0167156 0
M  V30 281 C 27.5538 2.10604 0.987353 0
M  V30 282 C 28.5478 1.02977 1.34507 0
M  V30 283 O 29.7538 1.21425 1.32875 0
M  V30 284 H 26.1288 0.672695 0.336134 0
M  V30 285 H 28.0998 2.93925 0.514817 0
M  V30 286 C 26.8488 2.6382 2.26483 0
M  V30 287 H 26.1718 3.46278 1.99829 0
M  V30 288 H 27.6118 3.04573 2.94977 0
M  V30 289 C 26.0708 1.55992 2.9861 0
M  V30 290 O 26.6008 0.952521 3.90243 0
M  V30 291 N 24.8068 1.28335 2.60727 0
M  V30 292 H 24.3538 1.77914 1.86291 0
M  V30 293 H 24.3118 0.564115 3.09298 0
M  V30 294 N 28.0839 -0.256276 1.55502 0
M  V30 295 C 29.4999 -0.604325 1.47716 0
M  V30 296 C 29.6999 -1.88763 0.705039 0
M  V30 297 O 28.7559 -2.51445 0.230613 0
M  V30 298 C 30.0689 -0.715756 2.92057 0
M  V30 299 C 31.6169 -0.808706 3.02372 0
M  V30 300 C 32.0919 -0.951777 4.48001 0
M  V30 301 N 33.5829 -1.01688 4.519 0
M  V30 302 C 34.3179 -1.14668 5.61817 0
M  V30 303 N 33.8139 -1.24261 6.81565 0
M  V30 304 N 35.6069 -1.1791 5.49594 0
M  V30 305 H 27.7579 0.586291 2.04148 0
M  V30 306 H 30.0209 0.201015 0.926443 0
M  V30 307 H 29.7269 0.157027 3.51349 0
M  V30 308 H 29.6009 -1.59071 3.42018 0
M  V30 309 H 31.9879 -1.67195 2.43166 0
M  V30 310 H 32.0689 0.0912063 2.55637 0
M  V30 311 H 31.7129 -0.0931291 5.07815 0
M  V30 312 H 31.6429 -1.86659 4.92408 0
M  V30 313 H 34.1339 -0.954468 3.65648 0
M  V30 314 H 34.4469 -1.34046 7.61086 0
M  V30 315 H 32.7919 -1.21236 6.84344 0
M  V30 316 H 35.9829 -1.10057 4.54978 0
M  V30 317 H 36.1559 -1.27681 6.35296 0
M  V30 318 N 29.562 -1.4872 -0.521534 0
M  V30 319 C 30.787 -1.61101 -1.30618 0
M  V30 320 C 31.212 -0.274611 -1.86085 0
M  V30 321 O 30.57 0.754937 -1.64834 0
M  V30 322 C 30.618 -2.66709 -2.4269 0
M  V30 323 O 29.722 -2.24456 -3.45967 0
M  V30 324 H 29.063 -0.539921 -0.386499 0
M  V30 325 H 31.593 -1.94767 -0.626645 0
M  V30 326 H 31.603 -2.88245 -2.88754 0
M  V30 327 H 30.278 -3.63727 -2.01682 0
M  V30 328 H 28.855 -2.13168 -3.05964 0
M  V30 329 N 31.0401 0.771051 -1.3745 0
M  V30 330 C 31.9871 1.88435 -1.3327 0
M  V30 331 C 32.9571 1.64914 -0.198136 0
M  V30 332 O 34.1421 1.86821 -0.387606 0
M  V30 333 C 31.2821 3.25509 -1.14622 0
M  V30 334 C 30.3951 3.60979 -2.37314 0
M  V30 335 C 29.5301 4.87265 -2.11533 0
M  V30 336 C 28.5691 5.15469 -3.30088 0
M  V30 337 N 27.7061 6.32944 -3.03853 0
M  V30 338 H 32.5461 1.91344 -2.28455 0
M  V30 339 H 30.0831 0.935466 -1.13523 0
M  V30 340 H 32.0411 4.04582 -1.01831 0
M  V30 341 H 30.6711 3.21974 -0.230837 0
M  V30 342 H 29.7231 2.76885 -2.60842 0
M  V30 343 H 31.0351 3.77759 -3.25729 0
M  V30 344 H 30.1891 5.74244 -1.95777 0
M  V30 345 H 28.9281 4.7259 -1.20457 0
M  V30 346 H 27.9331 4.26966 -3.46382 0
M  V30 347 H 29.1581 5.32052 -4.22016 0
M  V30 348 H 27.1041 6.19625 -2.15407 0
M  V30 349 H 27.0211 6.50143 -3.85812 0
M  V30 350 H 28.2891 7.22857 -2.91716 0
M  V30 351 N 32.5182 1.22032 0.997298 0
M  V30 352 C 33.9292 1.0397 1.55071 0
M  V30 353 C 34.2802 -0.398192 1.92117 0
M  V30 354 O 33.4052 -1.28254 1.74298 0
M  V30 355 C 34.0002 1.88109 2.81781 0
M  V30 356 C 32.5592 1.74357 3.33581 0
M  V30 357 C 31.7062 1.84846 2.06706 0
M  V30 358 H 34.6572 1.35941 0.818883 0
M  V30 359 H 34.6782 1.39589 3.53971 0
M  V30 360 H 34.1902 2.92754 2.54787 0
M  V30 361 H 32.2912 0.72427 3.65493 0
M  V30 362 H 32.4042 2.56772 4.04481 0
M  V30 363 H 30.7682 1.28238 2.20062 0
M  V30 364 H 31.5512 2.91014 1.82114 0
M  V30 365 N 33.9963 -1.19345 1.0293 0
M  V30 366 C 34.9263 -2.2481 0.631105 0
M  V30 367 C 35.9073 -1.66245 -0.360104 0
M  V30 368 O 37.0923 -1.92677 -0.242726 0
M  V30 369 C 34.2223 -3.47295 -0.0184607 0
M  V30 370 C 33.1763 -4.18536 0.895073 0
M  V30 371 C 32.5023 -5.34586 0.110592 0
M  V30 372 C 33.8023 -4.73287 2.209 0
M  V30 373 H 35.4963 -2.58372 1.51275 0
M  V30 374 H 33.0423 -1.24194 0.728818 0
M  V30 375 H 34.9953 -4.20268 -0.308675 0
M  V30 376 H 33.7193 -3.12933 -0.934907 0
M  V30 377 H 32.3783 -3.47446 1.16949 0
M  V30 378 H 32.0263 -4.96469 -0.807902 0
M  V30 379 H 31.7263 -5.83183 0.719087 0
M  V30 380 H 33.2503 -6.10355 -0.172871 0
M  V30 381 H 34.6643 -5.38013 1.98028 0
M  V30 382 H 33.0613 -5.32373 2.76946 0
M  V30 383 H 34.1313 -3.91331 2.86336 0
M  V30 384 N 35.4744 -0.807222 -1.35358 0
M  V30 385 C 36.7224 -0.387122 -1.98358 0
M  V30 386 C 37.0434 1.04942 -1.64354 0
M  V30 387 O 36.3134 1.72615 -0.926339 0
M  V30 388 H 34.8934 -0.140154 -0.733734 0
M  V30 389 H 37.5554 -1.0332 -1.6526 0
M  V30 390 H 36.6514 -0.493352 -3.08176 0
M  V30 391 N 36.9525 1.47285 -0.560781 0
M  V30 392 C 38.1805 2.06855 -0.0430262 0
M  V30 393 C 38.5955 1.41291 1.25229 0
M  V30 394 O 37.9525 0.510648 1.7521 0
M  V30 395 C 38.0035 3.61178 0.152518 0
M  V30 396 O 37.7245 4.24285 -1.0915 0
M  V30 397 C 39.2255 4.37624 0.707145 0
M  V30 398 H 36.4455 0.669319 -0.0474652 0
M  V30 399 H 38.9895 1.89237 -0.77521 0
M  V30 400 H 37.1445 3.78298 0.834843 0
M  V30 401 H 37.5585 5.16868 -0.891482 0
M  V30 402 H 39.0325 5.46271 0.793244 0
M  V30 403 H 39.5095 4.04152 1.71923 0
M  V30 404 H 40.1155 4.25257 0.0604027 0
M  V30 405 N 38.4306 0.297415 1.54768 0
M  V30 406 C 39.8416 -0.195947 1.85669 0
M  V30 407 C 40.1926 -1.53707 1.21937 0
M  V30 408 O 39.3176 -2.10164 0.515754 0
M  V30 409 C 39.9126 -0.362318 3.36857 0
M  V30 410 C 38.4716 -0.799901 3.67802 0
M  V30 411 C 37.6186 0.0938578 2.77141 0
M  V30 412 H 40.5696 0.518538 1.4999 0
M  V30 413 H 40.5906 -1.19745 3.61167 0
M  V30 414 H 40.1026 0.613921 3.83214 0
M  V30 415 H 38.2036 -1.78682 3.26961 0
M  V30 416 H 38.3166 -0.621773 4.75048 0
M  V30 417 H 36.6806 -0.426254 2.51108 0
M  V30 418 H 37.4636 1.06639 3.26318 0
M  V30 419 N 39.9087 -1.5758 0.0250728 0
M  V30 420 C 41.1387 -1.95646 -0.663783 0
M  V30 421 C 41.5467 -0.899935 -1.66427 0
M  V30 422 O 40.8897 0.127191 -1.83259 0
M  V30 423 C 40.9517 -3.29835 -1.43 0
M  V30 424 C 40.6157 -4.53197 -0.588305 0
M  V30 425 C 41.6127 -5.19726 0.13469 0
M  V30 426 C 39.2977 -4.99529 -0.526897 0
M  V30 427 C 41.2917 -6.30902 0.90781 0
M  V30 428 C 38.9787 -6.10589 0.24993 0
M  V30 429 C 39.9767 -6.76134 0.965994 0
M  V30 430 O 39.6647 -7.85062 1.7301 0
M  V30 431 H 39.3967 -0.649282 -0.188174 0
M  V30 432 H 41.9507 -2.05245 0.0799006 0
M  V30 433 H 40.1807 -3.16716 -2.21873 0
M  V30 434 H 41.8697 -3.52833 -2.00658 0
M  V30 435 H 42.6357 -4.84904 0.0965562 0
M  V30 436 H 38.5147 -4.48319 -1.07381 0
M  V30 437 H 42.0587 -6.81995 1.46724 0
M  V30 438 H 37.9557 -6.44849 0.289795 0
M  V30 439 H 38.7237 -8.01708 1.64944 0
M  V30 440 N 41.3868 0.248026 -1.55636 0
M  V30 441 C 42.3348 1.32683 -1.91045 0
M  V30 442 C 43.3288 1.49883 -0.789401 0
M  V30 443 O 44.5348 1.51371 -0.974007 0
M  V30 444 H 40.9098 0.444272 -0.606734 0
M  V30 445 H 42.8808 1.00085 -2.81115 0
M  V30 446 C 41.6298 2.6755 -2.22064 0
M  V30 447 H 40.9528 2.55114 -3.07826 0
M  V30 448 H 42.3928 3.41912 -2.50743 0
M  V30 449 C 40.8518 3.20556 -1.0366 0
M  V30 450 O 41.3818 4.00695 -0.284016 0
M  V30 451 N 39.5878 2.78568 -0.82753 0
M  V30 452 H 39.1348 2.1351 -1.44123 0
M  V30 453 H 39.0928 3.14378 -0.0369803 0
M  V30 454 N 42.8649 1.48995 0.513639 0
M  V30 455 C 44.1119 1.57843 1.26854 0
M  V30 456 C 44.4399 0.259501 1.92761 0
M  V30 457 O 43.6949 -0.75159 1.80692 0
M  V30 458 C 43.9939 2.67756 2.36731 0
M  V30 459 C 43.6599 4.09669 1.88368 0
M  V30 460 C 42.3219 4.48291 1.74896 0
M  V30 461 C 44.6739 4.98537 1.52021 0
M  V30 462 C 42.0019 5.73568 1.23438 0
M  V30 463 C 44.3539 6.24319 1.0202 0
M  V30 464 C 43.0179 6.61783 0.871778 0
M  V30 465 H 42.2879 0.577587 0.464192 0
M  V30 466 H 44.9349 1.82778 0.571366 0
M  V30 467 H 43.2399 2.36743 3.12185 0
M  V30 468 H 44.9369 2.71813 2.9482 0
M  V30 469 H 41.5269 3.79176 1.99808 0
M  V30 470 H 45.7109 4.69363 1.61281 0
M  V30 471 H 40.9669 6.01304 1.10648 0
M  V30 472 H 45.1409 6.92566 0.729722 0
M  V30 473 H 42.7679 7.5874 0.470852 0
M  V30 474 N 44.343 -0.763751 1.37857 0
M  V30 475 C 45.568 -1.55805 1.36893 0
M  V30 476 C 45.993 -1.88054 -0.0416135 0
M  V30 477 O 45.351 -1.49825 -1.02089 0
M  V30 478 C 45.399 -2.84012 2.22192 0
M  V30 479 O 44.503 -3.78732 1.63204 0
M  V30 480 H 43.844 -0.471638 0.46739 0
M  V30 481 H 46.374 -0.944657 1.81487 0
M  V30 482 H 46.384 -3.33037 2.35691 0
M  V30 483 H 45.059 -2.59869 3.24716 0
M  V30 484 H 43.636 -3.37402 1.58791 0
M  V30 485 N 45.8211 -1.22559 -0.990812 0
M  V30 486 C 46.7311 -1.01394 -2.11557 0
M  V30 487 C 47.7471 0.0383962 -1.73958 0
M  V30 488 O 48.9231 -0.154787 -2.00804 0
M  V30 489 C 45.9881 -0.596569 -3.41529 0
M  V30 490 C 45.0491 -1.72276 -3.93217 0
M  V30 491 C 44.2821 -1.32521 -5.16985 0
M  V30 492 O 44.5051 -0.204909 -5.70032 0
M  V30 493 O 43.4391 -2.14247 -5.62478 0
M  V30 494 H 47.2651 -1.95633 -2.32296 0
M  V30 495 H 44.8501 -1.01172 -1.0993 0
M  V30 496 H 46.7321 -0.374263 -4.19735 0
M  V30 497 H 45.4071 0.316939 -3.22145 0
M  V30 498 H 44.3141 -1.99961 -3.16174 0
M  V30 499 H 45.6471 -2.61421 -4.17037 0
M  V30 500 N 47.2992 1.18797 -1.03562 0
M  V30 501 C 48.2492 2.20161 -0.592724 0
M  V30 502 C 49.2332 1.56772 0.362133 0
M  V30 503 O 50.4252 1.76062 0.182009 0
M  V30 504 C 47.5542 3.43266 0.0481024 0
M  V30 505 C 46.6402 4.13786 -0.9296 0
M  V30 506 N 47.0312 4.60388 -2.09467 0
M  V30 507 C 45.3292 4.39572 -0.754499 0
M  V30 508 C 46.0302 5.14619 -2.71187 0
M  V30 509 N 45.0062 5.05826 -1.991 0
M  V30 510 H 48.8082 2.53877 -1.48066 0
M  V30 511 H 46.3222 1.34946 -0.903514 0
M  V30 512 H 48.3192 4.15136 0.383058 0
M  V30 513 H 46.9792 3.11048 0.931636 0
M  V30 514 H 47.9902 4.54999 -2.47379 0
M  V30 515 H 44.6672 4.17425 0.0793713 0
M  V30 516 H 46.0572 5.60917 -3.69895 0
M  V30 517 N 48.7773 0.814389 1.34928 0
M  V30 518 C 50.0173 0.404165 2.00364 0
M  V30 519 C 50.3813 -1.01166 1.63185 0
M  V30 520 O 51.5823 -1.52431 2.21401 0
M  V30 521 C 49.8533 0.590718 3.52484 0
M  V30 522 S 51.4123 0.272075 4.37956 0
M  V30 523 H 48.2303 0.15311 0.694319 0
M  V30 524 H 50.8323 1.05834 1.64376 0
M  V30 525 H 49.5363 1.62099 3.77031 0
M  V30 526 H 49.0673 -0.0785013 3.93322 0
M  V30 527 H 51.0823 -0.917405 4.87645 0
M  V30 528 N 50.2554 -1.46986 0.568584 0
M  V30 529 C 51.1874 -2.28233 -0.210337 0
M  V30 530 C 52.2004 -1.37682 -0.868767 0
M  V30 531 O 53.3894 -1.62406 -0.740705 0
M  V30 532 C 50.4894 -3.12293 -1.3163 0
M  V30 533 C 49.6624 -4.30878 -0.7525 0
M  V30 534 C 48.7214 -4.96445 -1.74439 0
M  V30 535 O 47.7474 -5.54482 -1.286 0
M  V30 536 N 48.9494 -4.92171 -3.07812 0
M  V30 537 H 51.7144 -2.95723 0.486648 0
M  V30 538 H 49.2754 -1.56742 0.405409 0
M  V30 539 H 51.2674 -3.53022 -1.97883 0
M  V30 540 H 49.8374 -2.46971 -1.91636 0
M  V30 541 H 49.0574 -3.94104 0.0871128 0
M  V30 542 H 50.3454 -5.07558 -0.35536 0
M  V30 543 H 49.7434 -4.46239 -3.47688 0
M  V30 544 H 48.3004 -5.36884 -3.69592 0
M  V30 545 N 51.7335 -0.305618 -1.54608 0
M  V30 546 C 53.0105 0.355652 -1.92339 0
M  V30 547 C 53.3905 1.71324 -1.23335 0
M  V30 548 O 52.7385 2.25473 -0.370702 0
M  V30 549 C 52.9485 0.46572 -3.45879 0
M  V30 550 C 54.2965 0.734426 -4.182 0
M  V30 551 O 55.3205 0.54935 -3.51938 0
M  V30 552 O 54.1795 1.09024 -5.35515 0
M  V30 553 H 51.2735 0.199666 -0.802535 0
M  V30 554 H 53.8195 -0.354017 -1.65966 0
M  V30 555 H 52.5915 -0.488461 -3.88239 0
M  V30 556 H 52.2145 1.22367 -3.78301 0
M  V30 557 N 53.2116 1.57565 -0.0334293 0
M  V30 558 C 54.4366 1.96689 0.657895 0
M  V30 559 C 54.8616 0.910057 1.64619 0
M  V30 560 O 54.2196 -0.128598 1.80843 0
M  V30 561 C 54.2676 3.34905 1.33683 0
M  V30 562 O 53.3716 3.31574 2.45219 0
M  V30 563 H 52.7126 0.641205 0.172489 0
M  V30 564 H 55.2426 2.04372 -0.0965621 0
M  V30 565 H 55.2526 3.71234 1.69262 0
M  V30 566 H 53.9276 4.11366 0.612411 0
M  V30 567 H 52.5046 3.06968 2.11719 0
M  V30 568 N 54.6897 -0.239769 1.55765 0
M  V30 569 C 55.9357 -0.968234 1.78194 0
M  V30 570 C 56.2687 -1.84701 0.599938 0
M  V30 571 O 55.5437 -1.9031 -0.401524 0
M  V30 572 C 55.8267 -1.8227 3.10564 0
M  V30 573 C 55.6797 -0.971633 4.3918 0
M  V30 574 C 56.9987 -2.80388 3.39221 0
M  V30 575 H 54.1177 -0.350572 0.648281 0
M  V30 576 H 56.7597 -0.238259 1.885 0
M  V30 577 H 54.9097 -2.44507 3.01908 0
M  V30 578 H 56.5817 -0.367408 4.59835 0
M  V30 579 H 54.8247 -0.276276 4.32919 0
M  V30 580 H 55.4957 -1.60346 5.28198 0
M  V30 581 H 57.9717 -2.28287 3.47885 0
M  V30 582 H 56.8477 -3.3729 4.33044 0
M  V30 583 H 57.1087 -3.57212 2.60484 0
M  V30 584 N 56.1678 -1.49265 -0.50573 0
M  V30 585 C 57.4448 -1.49012 -1.26707 0
M  V30 586 C 57.8248 -0.215205 -2.1 0
M  V30 587 O 57.1728 0.802547 -2.13943 0
M  V30 588 C 57.3828 -2.7663 -2.12783 0
M  V30 589 C 58.7308 -3.25932 -2.72127 0
M  V30 590 O 59.7548 -2.77715 -2.23054 0
M  V30 591 O 58.6138 -4.09897 -3.61451 0
M  V30 592 H 55.7078 -0.596197 -0.57313 0
M  V30 593 H 58.2538 -1.61524 -0.52039 0
M  V30 594 H 57.0258 -3.60916 -1.5118 0
M  V30 595 H 56.6488 -2.66956 -2.94653 0
M  V30 596 N 57.6459 0.756429 -1.3826 0
M  V30 597 C 58.8919 1.51772 -1.34511 0
M  V30 598 C 59.2249 1.94089 0.0656691 0
M  V30 599 O 58.4999 1.65221 1.02626 0
M  V30 600 C 58.7829 2.77226 -2.29821 0
M  V30 601 C 58.6359 2.41065 -3.79747 0
M  V30 602 C 59.9549 3.79236 -2.23312 0
M  V30 603 H 57.0739 0.550578 -0.489931 0
M  V30 604 H 59.7159 0.866607 -1.69086 0
M  V30 605 H 57.8659 3.32784 -2.00467 0
M  V30 606 H 59.5379 1.91303 -4.19763 0
M  V30 607 H 57.7809 1.7356 -3.97567 0
M  V30 608 H 58.4519 3.3081 -4.41892 0
M  V30 609 H 60.9279 3.3321 -2.49219 0
M  V30 610 H 59.8039 4.64714 -2.92116 0
M  V30 611 H 60.0649 4.24615 -1.23102 0
M  V30 612 N 59.124 1.23083 0.984299 0
M  V30 613 C 60.057 0.951786 2.07404 0
M  V30 614 C 61.035 -0.10848 1.62238 0
M  V30 615 O 62.219 0.0249467 1.88483 0
M  V30 616 C 59.346 0.433142 3.35919 0
M  V30 617 C 58.392 1.47941 4.0002 0
M  V30 618 S 59.225 3.05556 4.39768 0
M  V30 619 C 60.381 2.55351 5.71442 0
M  V30 620 H 60.614 1.87456 2.30754 0
M  V30 621 H 58.147 1.06284 1.11996 0
M  V30 622 H 60.105 0.140506 4.10259 0
M  V30 623 H 58.766 -0.468656 3.10584 0
M  V30 624 H 57.959 1.06658 4.92585 0
M  V30 625 H 57.561 1.7212 3.3204 0
M  V30 626 H 59.853 1.97128 6.48187 0
M  V30 627 H 60.796 3.46441 6.17563 0
M  V30 628 H 61.204 1.96339 5.29255 0
M  V30 629 N 60.6021 -1.18246 1.0419 0
M  V30 630 C 61.8481 -1.88536 0.747122 0
M  V30 631 C 62.1811 -1.80223 -0.723409 0
M  V30 632 O 61.4561 -1.20337 -1.52804 0
M  V30 633 C 61.7391 -3.38968 1.21544 0
M  V30 634 C 61.5921 -3.56084 2.74816 0
M  V30 635 C 62.9111 -4.32648 0.806482 0
M  V30 636 H 60.0301 -0.684619 0.272883 0
M  V30 637 H 62.6721 -1.39113 1.29413 0
M  V30 638 H 60.8221 -3.8119 0.750081 0
M  V30 639 H 62.4941 -3.22946 3.29399 0
M  V30 640 H 60.7371 -2.98699 3.14582 0
M  V30 641 H 61.4081 -4.61639 3.02644 0
M  V30 642 H 63.8841 -3.98211 1.20695 0
M  V30 643 H 62.7601 -5.36462 1.1619 0
M  V30 644 H 63.0211 -4.41146 -0.29029 0
M  V30 645 N 62.0802 -0.821533 -1.34494 0
M  V30 646 C 63.3272 -0.408946 -1.98328 0
M  V30 647 C 63.6552 1.02764 -1.65136 0
M  V30 648 O 62.9102 1.73026 -0.914349 0
M  V30 649 C 63.2092 -0.556512 -3.53041 0
M  V30 650 C 62.8752 -1.95861 -4.0614 0
M  V30 651 C 61.5372 -2.34217 -4.20352 0
M  V30 652 C 63.8892 -2.87523 -4.34718 0
M  V30 653 C 61.2172 -3.63572 -4.6047 0
M  V30 654 C 63.5692 -4.1634 -4.76281 0
M  V30 655 C 62.2332 -4.54675 -4.88699 0
M  V30 656 H 61.5032 -0.149644 -0.725732 0
M  V30 657 H 64.1502 -1.04521 -1.6046 0
M  V30 658 H 62.4552 0.163148 -3.9146 0
M  V30 659 H 64.1522 -0.217826 -4.00408 0
M  V30 660 H 60.7422 -1.65066 -3.95539 0
M  V30 661 H 64.9262 -2.59133 -4.23277 0
M  V30 662 H 60.1822 -3.93101 -4.68275 0
M  V30 663 H 64.3562 -4.87455 -4.97354 0
M  V30 664 H 61.9832 -5.54959 -5.19542 0
M  V30 665 N 63.5583 1.46682 -0.576371 0
M  V30 666 C 64.8073 2.01619 -0.0572825 0
M  V30 667 C 65.1203 1.45417 1.30818 0
M  V30 668 O 66.3263 1.92133 1.91825 0
M  V30 669 C 64.7823 3.59863 -0.0518371 0
M  V30 670 C 64.3903 4.25059 -1.41523 0
M  V30 671 C 66.1343 4.2248 0.413639 0
M  V30 672 C 64.0413 5.75364 -1.36785 0
M  V30 673 H 62.9713 0.753794 -0.0176448 0
M  V30 674 H 65.6223 1.68481 -0.727076 0
M  V30 675 H 64.0043 3.90048 0.683994 0
M  V30 676 H 65.1783 4.06491 -2.17029 0
M  V30 677 H 63.4933 3.7451 -1.8202 0
M  V30 678 H 66.0903 5.3265 0.467779 0
M  V30 679 H 66.4333 3.90976 1.42982 0
M  V30 680 H 66.9663 3.96897 -0.267929 0
M  V30 681 H 63.7053 6.11518 -2.36063 0
M  V30 682 H 63.2253 5.96214 -0.654895 0
M  V30 683 H 64.9043 6.37955 -1.07805 0
M  V30 684 N 65.0364 0.313813 1.54444 0
M  V30 685 C 66.2824 -0.292108 2.00685 0
M  V30 686 C 66.6154 -1.52548 1.20177 0
M  V30 687 O 65.8904 -1.92452 0.281531 0
M  V30 688 C 66.1734 -0.635968 3.5444 0
M  V30 689 C 66.0264 0.607437 4.4568 0
M  V30 690 C 67.3454 -1.45747 4.15266 0
M  V30 691 H 64.4644 -0.104697 0.729526 0
M  V30 692 H 67.1064 0.428457 1.85106 0
M  V30 693 H 65.2564 -1.24986 3.67846 0
M  V30 694 H 66.9284 1.24581 4.44159 0
M  V30 695 H 65.1714 1.23822 4.15753 0
M  V30 696 H 65.8424 0.322515 5.51057 0
M  V30 697 H 68.3184 -0.938645 4.05375 0
M  V30 698 H 67.1944 -1.66683 5.2298 0
M  V30 699 H 67.4554 -2.45063 3.67963 0
M  V30 700 N 66.5145 -1.57545 0.0417849 0
M  V30 701 C 67.7425 -1.96624 -0.643928 0
M  V30 702 C 68.1575 -0.918897 -1.64929 0
M  V30 703 O 67.5145 0.0979323 -1.82237 0
M  V30 704 C 67.5655 -3.35781 -1.33914 0
M  V30 705 O 67.2865 -4.365 -0.374048 0
M  V30 706 C 68.7875 -3.89566 -2.1155 0
M  V30 707 H 66.0075 -0.647316 -0.176702 0
M  V30 708 H 68.5515 -2.04229 0.105304 0
M  V30 709 H 66.7065 -3.29357 -2.03968 0
M  V30 710 H 67.1205 -5.17248 -0.869179 0
M  V30 711 H 68.5945 -4.89242 -2.55628 0
M  V30 712 H 69.0715 -3.24488 -2.9598 0
M  V30 713 H 69.6775 -3.99298 -1.46427 0
M  V30 714 N 67.9926 0.231505 -1.5589 0
M  V30 715 C 69.2176 0.978689 -1.82856 0
M  V30 716 C 69.6426 1.77559 -0.620846 0
M  V30 717 O 69.0006 1.76119 0.430305 0
M  V30 718 C 69.0486 1.87997 -3.07716 0
M  V30 719 O 68.1526 2.97393 -2.85712 0
M  V30 720 H 67.4936 0.277663 -0.603158 0
M  V30 721 H 70.0236 0.24783 -2.03093 0
M  V30 722 H 70.0336 2.2917 -3.37558 0
M  V30 723 H 68.7086 1.29417 -3.95252 0
M  V30 724 H 67.2856 2.60238 -2.67078 0
M  V30 725 N 69.4707 1.49531 0.497807 0
M  V30 726 C 70.7007 1.62657 1.27382 0
M  V30 727 C 71.1087 0.298488 1.86831 0
M  V30 728 O 70.4517 -0.72647 1.68725 0
M  V30 729 C 70.5137 2.6393 2.44093 0
M  V30 730 C 70.1777 4.08195 2.05489 0
M  V30 731 C 71.1747 4.949 1.59279 0
M  V30 732 C 68.8597 4.53948 2.15026 0
M  V30 733 C 70.8537 6.25397 1.23113 0
M  V30 734 C 68.5407 5.84458 1.78473 0
M  V30 735 C 69.5387 6.70006 1.32591 0
M  V30 736 O 69.2267 7.98083 0.965327 0
M  V30 737 H 68.9587 0.550429 0.392434 0
M  V30 738 H 71.5127 1.96325 0.603801 0
M  V30 739 H 69.7427 2.25449 3.14181 0
M  V30 740 H 71.4317 2.66552 3.06113 0
M  V30 741 H 72.1977 4.60779 1.51354 0
M  V30 742 H 68.0767 3.87525 2.4969 0
M  V30 743 H 71.6207 6.92125 0.872299 0
M  V30 744 H 67.5177 6.18107 1.86048 0
M  V30 745 H 68.2857 8.11122 1.09652 0
M  V30 746 N 70.9488 -0.749086 1.3866 0
M  V30 747 C 72.1738 -1.54344 1.38538 0
M  V30 748 C 72.5988 -1.88088 -0.0216655 0
M  V30 749 O 71.9568 -1.50899 -1.00494 0
M  V30 750 C 72.0048 -2.8164 2.25192 0
M  V30 751 O 71.1088 -3.7698 1.67212 0
M  V30 752 H 70.4498 -0.466654 0.472367 0
M  V30 753 H 72.9798 -0.925355 1.82478 0
M  V30 754 H 72.9898 -3.30519 2.3921 0
M  V30 755 H 71.6648 -2.56411 3.27454 0
M  V30 756 H 70.2418 -3.35699 1.6236 0
M  V30 757 N 72.4269 -1.23603 -0.977757 0
M  V30 758 C 73.6759 -1.06377 -1.71368 0
M  V30 759 C 73.9889 0.399062 -1.91486 0
M  V30 760 O 75.1949 0.691312 -2.62551 0
M  V30 761 C 73.6509 -1.85512 -3.08404 0
M  V30 762 C 73.2589 -3.36141 -2.96164 0
M  V30 763 C 75.0029 -1.76783 -3.85938 0
M  V30 764 C 72.9099 -4.07659 -4.28449 0
M  V30 765 H 71.8399 -0.394452 -0.642591 0
M  V30 766 H 74.4909 -1.47594 -1.09034 0
M  V30 767 H 72.8729 -1.37103 -3.71509 0
M  V30 768 H 74.0469 -3.92056 -2.42133 0
M  V30 769 H 72.3619 -3.45712 -2.32104 0
M  V30 770 H 74.9589 -2.27526 -4.83876 0
M  V30 771 H 75.3019 -0.731116 -4.0983 0
M  V30 772 H 75.8349 -2.22818 -3.2954 0
M  V30 773 H 72.5739 -5.11648 -4.09752 0
M  V30 774 H 72.0939 -3.5653 -4.82334 0
M  V30 775 H 73.7729 -4.141 -4.97122 0
M  V30 776 N 73.905 1.17692 -1.04816 0
M  V30 777 C 74.815 2.25229 -0.65643 0
M  V30 778 C 75.831 1.71018 0.320761 0
M  V30 779 O 77.007 2.00649 0.173805 0
M  V30 780 C 74.072 3.46684 -0.0332629 0
M  V30 781 C 73.133 4.15997 -1.06042 0
M  V30 782 C 72.366 5.31654 -0.466893 0
M  V30 783 O 72.589 5.65777 0.724758 0
M  V30 784 O 71.523 5.89831 -1.1993 0
M  V30 785 H 75.349 2.61016 -1.55255 0
M  V30 786 H 72.934 1.24919 -0.81949 0
M  V30 787 H 74.816 4.20234 0.313256 0
M  V30 788 H 73.491 3.12703 0.836566 0
M  V30 789 H 72.398 3.44482 -1.45886 0
M  V30 790 H 73.731 4.53996 -1.90127 0
M  V30 791 N 75.3831 0.828654 1.34056 0
M  V30 792 C 76.6111 0.43262 2.02326 0
M  V30 793 C 77.0261 -0.963147 1.62385 0
M  V30 794 O 76.3831 -1.62425 0.832121 0
M  V30 795 C 76.4341 0.53182 3.57567 0
M  V30 796 O 76.1551 1.87258 3.96063 0
M  V30 797 C 77.6561 0.131422 4.43105 0
M  V30 798 H 74.8761 0.172923 0.648335 0
M  V30 799 H 77.4201 1.1184 1.71208 0
M  V30 800 H 75.5751 -0.105938 3.87255 0
M  V30 801 H 75.9891 1.85087 4.90758 0
M  V30 802 H 77.4631 0.251904 5.51425 0
M  V30 803 H 77.9401 -0.925645 4.29335 0
M  V30 804 H 78.5461 0.743207 4.18756 0
M  V30 805 N 76.8612 -1.46375 0.584142 0
M  V30 806 C 78.1072 -2.02678 0.0703716 0
M  V30 807 C 78.4402 -1.4545 -1.28678 0
M  V30 808 O 77.7152 -0.62014 -1.84349 0
M  V30 809 C 77.9982 -3.60099 0.00614674 0
M  V30 810 C 77.8512 -4.27709 1.3923 0
M  V30 811 C 79.1702 -4.34598 -0.693742 0
M  V30 812 H 76.2892 -0.736504 0.027047 0
M  V30 813 H 78.9312 -1.74501 0.751615 0
M  V30 814 H 77.0812 -3.84236 -0.574009 0
M  V30 815 H 78.7532 -4.14832 2.01773 0
M  V30 816 H 76.9962 -3.87016 1.95962 0
M  V30 817 H 77.6672 -5.36478 1.29982 0
M  V30 818 H 80.1432 -4.15615 -0.200869 0
M  V30 819 H 79.0192 -5.44318 -0.707714 0
M  V30 820 H 79.2802 -4.05759 -1.75533 0
M  V30 821 N 78.3393 -0.321999 -1.54275 0
M  V30 822 C 79.5853 0.281461 -2.00837 0
M  V30 823 C 79.9183 1.51909 -1.20985 0
M  V30 824 O 79.1933 1.923 -0.291733 0
M  V30 825 C 79.4763 0.617162 -3.54772 0
M  V30 826 C 79.3293 -0.631064 -4.45351 0
M  V30 827 C 80.6483 1.43542 -4.16033 0
M  V30 828 H 77.7673 0.100826 -0.730071 0
M  V30 829 H 80.4093 -0.438268 -1.84876 0
M  V30 830 H 78.5593 1.23034 -3.68504 0
M  V30 831 H 80.2313 -1.26934 -4.43492 0
M  V30 832 H 78.4743 -1.26025 -4.15091 0
M  V30 833 H 79.1453 -0.351735 -5.50878 0
M  V30 834 H 81.6213 0.917134 -4.05867 0
M  V30 835 H 80.4973 1.63907 -5.23856 0
M  V30 836 H 80.7583 2.43108 -3.69257 0
M  V30 837 N 79.8174 1.5752 -0.0501392 0
M  V30 838 C 81.0654 1.9227 0.622642 0
M  V30 839 C 81.3864 0.929083 1.71444 0
M  V30 840 O 80.6564 -0.0262186 1.95882 0
M  V30 841 H 79.2364 0.709739 0.232981 0
M  V30 842 H 81.8984 1.94628 -0.102898 0
M  V30 843 H 80.9944 2.93479 1.06191 0
M  V30 844 N 81.2955 -0.223234 1.56011 0
M  V30 845 C 82.5415 -0.949279 1.79211 0
M  V30 846 C 82.8745 -1.84054 0.619494 0
M  V30 847 O 82.1495 -1.90726 -0.381317 0
M  V30 848 C 82.4325 -1.78965 3.12479 0
M  V30 849 C 82.2855 -0.924997 4.40186 0
M  V30 850 C 83.6045 -2.76774 3.42175 0
M  V30 851 H 80.7235 -0.343676 0.651963 0
M  V30 852 H 83.3655 -0.218253 1.88742 0
M  V30 853 H 81.5155 -2.41291 3.04485 0
M  V30 854 H 83.1875 -0.318615 4.60198 0
M  V30 855 H 81.4305 -0.230344 4.33188 0
M  V30 856 H 82.1015 -1.54735 5.29869 0
M  V30 857 H 84.5775 -2.24584 3.50287 0
M  V30 858 H 83.4535 -3.32678 4.36597 0
M  V30 859 H 83.7145 -3.54429 2.64258 0
M  V30 860 N 82.7736 -1.49793 -0.48987 0
M  V30 861 C 83.7036 -1.70201 -1.59856 0
M  V30 862 C 84.6846 -0.55076 -1.60937 0
M  V30 863 O 85.8696 -0.787841 -1.77501 0
M  V30 864 C 82.9996 -1.77882 -2.98287 0
M  V30 865 C 81.9536 -2.92907 -3.12073 0
M  V30 866 C 81.2796 -2.85712 -4.51965 0
M  V30 867 C 82.5796 -4.3369 -2.91051 0
M  V30 868 H 84.2736 -2.63025 -1.43032 0
M  V30 869 H 81.8196 -1.26574 -0.686664 0
M  V30 870 H 83.7726 -1.90744 -3.75759 0
M  V30 871 H 82.4966 -0.816653 -3.16225 0
M  V30 872 H 81.1556 -2.79665 -2.37029 0
M  V30 873 H 80.8036 -1.8738 -4.66795 0
M  V30 874 H 80.5036 -3.62921 -4.62128 0
M  V30 875 H 82.0276 -3.00598 -5.31482 0
M  V30 876 H 83.4416 -4.47555 -3.58284 0
M  V30 877 H 81.8386 -5.12205 -3.12675 0
M  V30 878 H 82.9086 -4.47362 -1.87071 0
M  V30 879 N 84.2517 0.741722 -1.39055 0
M  V30 880 C 85.4997 1.49818 -1.35643 0
M  V30 881 C 85.8207 1.94938 0.0491642 0
M  V30 882 O 85.0907 1.68505 0.999141 0
M  V30 883 H 83.6707 0.555755 -0.499144 0
M  V30 884 H 86.3327 0.880957 -1.73854 0
M  V30 885 H 85.4287 2.38348 -2.01486 0
M  V30 886 N 85.7298 1.2412 0.971189 0
M  V30 887 C 86.6778 1.02812 2.08644 0
M  V30 888 C 87.6718 -0.0358403 1.69362 0
M  V30 889 O 88.8778 0.118429 1.7961 0
M  V30 890 H 85.2528 0.315428 0.682649 0
M  V30 891 H 87.2238 1.97397 2.23779 0
M  V30 892 C 85.9728 0.645874 3.41649 0
M  V30 893 H 85.2958 1.45632 3.72332 0
M  V30 894 H 86.7358 0.536366 4.20594 0
M  V30 895 C 85.1948 -0.646713 3.30635 0
M  V30 896 O 85.7248 -1.69338 3.64263 0
M  V30 897 N 83.9308 -0.626115 2.83775 0
M  V30 898 H 83.4778 0.225988 2.56607 0
M  V30 899 H 83.4358 -1.49117 2.76788 0
M  V30 900 N 87.2079 -1.17134 1.05439 0
M  V30 901 C 88.1379 -2.2342 0.678649 0
M  V30 902 C 89.1189 -1.66971 -0.32476 0
M  V30 903 O 90.3039 -1.93149 -0.201802 0
M  V30 904 C 87.4339 -3.47256 0.0552099 0
M  V30 905 C 86.3879 -4.16543 0.98365 0
M  V30 906 C 85.7139 -5.34231 0.223961 0
M  V30 907 C 87.0139 -4.68495 2.3089 0
M  V30 908 H 88.7079 -2.55105 1.56722 0
M  V30 909 H 86.2539 -1.2262 0.754998 0
M  V30 910 H 88.2069 -4.20828 -0.21946 0
M  V30 911 H 86.9309 -3.14846 -0.868319 0
M  V30 912 H 85.5899 -3.44887 1.24293 0
M  V30 913 H 85.2379 -4.98071 -0.702412 0
M  V30 914 H 84.9379 -5.81527 0.842627 0
M  V30 915 H 86.4619 -6.10585 -0.0433671 0
M  V30 916 H 87.8759 -5.33691 2.09396 0
M  V30 917 H 86.2729 -5.26379 2.88176 0
M  V30 918 H 87.3429 -3.85169 2.94572 0
M  V30 919 N 88.686 -0.835752 -1.33615 0
M  V30 920 C 89.926 -0.43599 -1.99696 0
M  V30 921 C 90.29 0.98557 -1.64774 0
M  V30 922 O 91.491 1.48889 -2.23798 0
M  V30 923 C 89.762 -0.646721 -3.515 0
M  V30 924 S 91.321 -0.341715 -4.37467 0
M  V30 925 H 88.139 -0.164136 -0.691795 0
M  V30 926 H 90.741 -1.08436 -1.62671 0
M  V30 927 H 89.445 -1.68077 -3.74404 0
M  V30 928 H 88.976 0.0159173 -3.93397 0
M  V30 929 H 90.991 0.839708 -4.89043 0
M  V30 930 N 90.1641 1.46063 -0.591896 0
M  V30 931 C 91.0941 2.33172 0.123673 0
M  V30 932 C 92.0751 1.45897 0.87453 0
M  V30 933 O 93.2601 1.74698 0.848181 0
M  V30 934 C 90.3901 3.28336 1.13194 0
M  V30 935 C 89.3441 4.25124 0.495324 0
M  V30 936 C 88.6701 5.09863 1.61071 0
M  V30 937 C 89.9701 5.19143 -0.573425 0
M  V30 938 H 91.6641 2.93252 -0.603646 0
M  V30 939 H 89.2101 1.41014 -0.291741 0
M  V30 940 H 91.1631 3.88137 1.64097 0
M  V30 941 H 89.8871 2.66383 1.88965 0
M  V30 942 H 88.5461 3.66599 0.00729452 0
M  V30 943 H 88.1941 4.44288 2.35832 0
M  V30 944 H 87.8941 5.75417 1.19035 0
M  V30 945 H 89.4181 5.72529 2.12233 0
M  V30 946 H 90.8321 5.73106 -0.1491 0
M  V30 947 H 89.2291 5.93089 -0.914636 0
M  V30 948 H 90.2991 4.62519 -1.45617 0
M  V30 949 N 91.6422 0.330177 1.54103 0
M  V30 950 C 92.5752 -0.575477 2.20825 0
M  V30 951 C 93.5532 -1.11064 1.18758 0
M  V30 952 O 94.7372 -1.17341 1.47524 0
M  V30 953 C 91.8642 -1.79032 2.87516 0
M  V30 954 C 90.9102 -1.38581 4.03358 0
M  V30 955 S 91.7432 -0.416911 5.33875 0
M  V30 956 C 92.8992 -1.63889 6.04062 0
M  V30 957 H 93.1322 -0.00872114 2.97299 0
M  V30 958 H 90.6652 0.114254 1.53977 0
M  V30 959 H 92.6232 -2.48734 3.2656 0
M  V30 960 H 91.2842 -2.32827 2.10832 0
M  V30 961 H 90.4772 -2.29123 4.48908 0
M  V30 962 H 90.0792 -0.768419 3.66021 0
M  V30 963 H 92.3712 -2.57536 6.26643 0
M  V30 964 H 93.3142 -1.22542 6.97416 0
M  V30 965 H 93.7222 -1.82887 5.34053 0
M  V30 966 N 93.1203 -1.57491 0.0584922 0
M  V30 967 C 94.3603 -1.94851 -0.617458 0
M  V30 968 C 94.7243 -0.937165 -1.67575 0
M  V30 969 O 95.9253 -1.19795 -2.40629 0
M  V30 970 C 94.1963 -3.36955 -1.19147 0
M  V30 971 S 95.7553 -3.96277 -1.8844 0
M  V30 972 H 92.5733 -0.681539 -0.202547 0
M  V30 973 H 95.1753 -1.95073 0.129176 0
M  V30 974 H 93.8793 -4.08355 -0.409215 0
M  V30 975 H 93.4103 -3.40245 -1.97476 0
M  V30 976 H 95.4253 -3.82099 -3.16568 0
M  V30 977 N 94.5984 0.214957 -1.56127 0
M  V30 978 C 95.8444 0.939762 -1.79712 0
M  V30 979 C 96.1774 1.83723 -0.629247 0
M  V30 980 O 95.4524 1.90925 0.371197 0
M  V30 981 C 95.7354 1.77306 -3.13424 0
M  V30 982 C 95.5884 0.90164 -4.40671 0
M  V30 983 C 96.9074 2.74956 -3.43638 0
M  V30 984 H 94.0264 0.340214 -0.653776 0
M  V30 985 H 96.6684 0.20824 -1.88855 0
M  V30 986 H 94.8184 2.39673 -3.0576 0
M  V30 987 H 96.4904 0.294206 -4.60361 0
M  V30 988 H 94.7334 0.207368 -4.33304 0
M  V30 989 H 95.4044 1.51923 -5.30682 0
M  V30 990 H 97.8804 2.22724 -3.51473 0
M  V30 991 H 96.7564 3.30358 -4.38355 0
M  V30 992 H 97.0174 3.53023 -2.66134 0
M  V30 993 N 96.0765 1.50051 0.48192 0
M  V30 994 C 97.3045 1.64237 1.25832 0
M  V30 995 C 97.7195 0.321336 1.86045 0
M  V30 996 O 97.0765 -0.695478 1.68729 0
M  V30 997 C 97.1275 2.72548 2.37487 0
M  V30 998 O 96.8485 3.99529 1.79745 0
M  V30 999 C 98.3495 2.9761 3.28547 0
M  V30 1000 H 95.5695 0.55237 0.380957 0
M  V30 1001 H 98.1135 1.96207 0.576467 0
M  V30 1002 H 96.2685 2.43303 3.01467 0
M  V30 1003 H 96.6825 4.59342 2.5319 0
M  V30 1004 H 98.1565 3.77084 4.03127 0
M  V30 1005 H 98.6335 2.0826 3.86684 0
M  V30 1006 H 99.2395 3.28345 2.70314 0
M  V30 1007 N 97.5546 -0.734337 1.39446 0
M  V30 1008 C 98.8006 -1.49613 1.36908 0
M  V30 1009 C 99.1336 -1.94169 -0.0347829 0
M  V30 1010 O 98.4086 -1.66833 -0.999847 0
M  V30 1011 C 98.6916 -2.73534 2.34203 0
M  V30 1012 C 98.5446 -2.34993 3.83534 0
M  V30 1013 C 99.8636 -3.75635 2.29317 0
M  V30 1014 H 96.9826 -0.542714 0.498629 0
M  V30 1015 H 99.6246 -0.839597 1.70443 0
M  V30 1016 H 97.7746 -3.29553 2.05736 0
M  V30 1017 H 99.4466 -1.84601 4.22753 0
M  V30 1018 H 97.6896 -1.67213 4.00278 0
M  V30 1019 H 98.3606 -3.23738 4.47099 0
M  V30 1020 H 100.837 -3.29203 2.54489 0
M  V30 1021 H 99.7126 -4.60008 2.99472 0
M  V30 1022 H 99.9736 -4.22603 1.29842 0
M  V30 1023 N 99.0327 -1.24633 -0.964593 0
M  V30 1024 C 100.449 -1.01239 -1.2338 0
M  V30 1025 C 100.649 0.2769 -1.99588 0
M  V30 1026 O 99.7047 0.992241 -2.32187 0
M  V30 1027 C 101.018 -2.22937 -2.01791 0
M  V30 1028 C 102.566 -2.27594 -2.14872 0
M  V30 1029 C 103.041 -3.48921 -2.96678 0
M  V30 1030 N 104.532 -3.49257 -3.04259 0
M  V30 1031 C 105.267 -4.39795 -3.67924 0
M  V30 1032 N 104.763 -5.40591 -4.33281 0
M  V30 1033 N 106.556 -4.275 -3.64966 0
M  V30 1034 H 98.7067 -2.0748 -0.454502 0
M  V30 1035 H 100.97 -0.910647 -0.26349 0
M  V30 1036 H 100.676 -3.16587 -1.53184 0
M  V30 1037 H 100.55 -2.25306 -3.02518 0
M  V30 1038 H 102.937 -1.34473 -2.6268 0
M  V30 1039 H 103.018 -2.2925 -1.13482 0
M  V30 1040 H 102.662 -4.42359 -2.49562 0
M  V30 1041 H 102.592 -3.4451 -3.98272 0
M  V30 1042 H 105.083 -2.76337 -2.57771 0
M  V30 1043 H 105.396 -6.05904 -4.79687 0
M  V30 1044 H 103.741 -5.44475 -4.3194 0
M  V30 1045 H 106.932 -3.47987 -3.13086 0
M  V30 1046 H 107.105 -4.98258 -4.14298 0
M  V30 1047 N 100.511 1.16574 -1.06058 0
M  V30 1048 C 101.443 2.2045 -0.627239 0
M  V30 1049 C 102.456 1.59752 0.313534 0
M  V30 1050 O 103.645 1.78192 0.104896 0
M  V30 1051 C 100.745 3.3875 0.100974 0
M  V30 1052 C 99.9178 4.29008 -0.852687 0
M  V30 1053 C 98.9768 5.25944 -0.164152 0
M  V30 1054 O 98.0028 5.63535 -0.801047 0
M  V30 1055 N 99.2048 5.70075 1.09518 0
M  V30 1056 H 101.97 2.58249 -1.52077 0
M  V30 1057 H 99.5308 1.3156 -0.943594 0
M  V30 1058 H 101.523 4.00638 0.57194 0
M  V30 1059 H 100.093 2.99476 0.89628 0
M  V30 1060 H 99.3128 3.64419 -1.50308 0
M  V30 1061 H 100.601 4.86195 -1.49972 0
M  V30 1062 H 99.9988 5.41624 1.6328 0
M  V30 1063 H 98.5558 6.34067 1.51006 0
M  V30 1064 N 101.989 0.842826 1.3317 0
M  V30 1065 C 102.936 0.276885 2.29133 0
M  V30 1066 C 103.906 -0.609527 1.54512 0
M  V30 1067 O 105.091 -0.546955 1.82792 0
M  V30 1068 C 102.231 -0.538707 3.40869 0
M  V30 1069 C 101.344 0.372169 4.30394 0
M  V30 1070 C 100.479 -0.454908 5.29249 0
M  V30 1071 C 99.5179 0.45411 6.10413 0
M  V30 1072 N 98.6549 -0.335075 7.013 0
M  V30 1073 H 103.495 1.10052 2.76934 0
M  V30 1074 H 101.032 0.554161 1.36262 0
M  V30 1075 H 102.99 -1.02709 4.0436 0
M  V30 1076 H 101.62 -1.32727 2.9425 0
M  V30 1077 H 100.672 0.97888 3.6759 0
M  V30 1078 H 101.984 1.0703 4.87182 0
M  V30 1079 H 101.138 -1.00695 5.98285 0
M  V30 1080 H 99.8769 -1.18646 4.73048 0
M  V30 1081 H 98.8819 1.01813 5.40291 0
M  V30 1082 H 100.107 1.18409 6.68697 0
M  V30 1083 H 98.0529 -1.04994 6.47543 0
M  V30 1084 H 97.9699 0.304262 7.55387 0
M  V30 1085 H 99.2379 -0.869224 7.74638 0
M  V30 1086 N 103.467 -1.45747 0.599634 0
M  V30 1087 C 104.377 -2.34262 -0.125888 0
M  V30 1088 C 105.393 -1.50768 -0.868625 0
M  V30 1089 O 106.569 -1.83592 -0.828003 0
M  V30 1090 C 103.634 -3.28252 -1.11587 0
M  V30 1091 C 102.695 -4.27651 -0.375956 0
M  V30 1092 C 101.928 -5.1715 -1.31877 0
M  V30 1093 O 102.151 -5.09916 -2.55621 0
M  V30 1094 O 101.085 -5.96286 -0.820157 0
M  V30 1095 H 104.911 -2.97688 0.601315 0
M  V30 1096 H 102.496 -1.44999 0.359934 0
M  V30 1097 H 104.378 -3.86191 -1.68626 0
M  V30 1098 H 103.053 -2.67401 -1.82424 0
M  V30 1099 H 101.96 -3.7335 0.236698 0
M  V30 1100 H 103.293 -4.91334 0.29177 0
M  V30 1101 N 104.945 -0.338344 -1.53925 0
M  V30 1102 C 105.892 0.520845 -2.24846 0
M  V30 1103 C 106.862 1.09976 -1.24477 0
M  V30 1104 O 108.047 1.13735 -1.53196 0
M  V30 1105 C 105.187 1.6685 -3.02084 0
M  V30 1106 C 104.3 1.11739 -4.17299 0
M  V30 1107 C 103.435 2.23193 -4.82036 0
M  V30 1108 C 102.474 1.65407 -5.89328 0
M  V30 1109 N 101.611 2.70582 -6.47866 0
M  V30 1110 H 106.451 -0.0904881 -2.97863 0
M  V30 1111 H 103.988 -0.0564282 -1.46992 0
M  V30 1112 H 105.946 2.34407 -3.45122 0
M  V30 1113 H 104.576 2.2509 -2.31375 0
M  V30 1114 H 103.628 0.332919 -3.7894 0
M  V30 1115 H 104.94 0.654677 -4.94485 0
M  V30 1116 H 104.094 2.98626 -5.28117 0
M  V30 1117 H 102.833 2.72807 -4.04262 0
M  V30 1118 H 101.838 0.884779 -5.42634 0
M  V30 1119 H 103.063 1.16652 -6.69006 0
M  V30 1120 H 101.009 3.1946 -5.72959 0
M  V30 1121 H 100.926 2.28917 -7.20509 0
M  V30 1122 H 102.194 3.45799 -6.98601 0
M  V30 1123 N 106.423 1.57458 -0.0668435 0
M  V30 1124 C 107.386 2.11323 0.887422 0
M  V30 1125 C 108.386 1.03618 1.22964 0
M  V30 1126 O 109.576 1.29626 1.16373 0
M  V30 1127 C 106.708 2.61048 2.19242 0
M  V30 1128 H 107.901 2.96942 0.420194 0
M  V30 1129 H 105.454 1.55239 0.181793 0
M  V30 1130 H 106.189 1.78868 2.70512 0
M  V30 1131 H 105.974 3.39769 1.95702 0
M  V30 1132 H 107.464 3.02814 2.87565 0
M  V30 1133 N 107.901 -0.206675 1.56239 0
M  V30 1134 C 108.849 -1.27571 1.94495 0
M  V30 1135 C 109.843 -1.47737 0.828862 0
M  V30 1136 O 111.049 -1.48735 1.0138 0
M  V30 1137 H 107.424 -0.428029 0.6183 0
M  V30 1138 H 109.395 -0.925961 2.8367 0
M  V30 1139 C 108.144 -2.61568 2.29079 0
M  V30 1140 H 107.467 -2.46863 3.14482 0
M  V30 1141 H 108.907 -3.35144 2.5972 0
M  V30 1142 C 107.366 -3.17695 1.12123 0
M  V30 1143 O 107.896 -3.99801 0.390153 0
M  V30 1144 N 106.102 -2.76276 0.901097 0
M  V30 1145 H 105.649 -2.09613 1.49733 0
M  V30 1146 H 105.607 -3.1417 0.120319 0
M  V30 1147 N 109.379 -1.50304 -0.473955 0
M  V30 1148 C 110.625 -1.61389 -1.22806 0
M  V30 1149 C 110.958 -0.311955 -1.91678 0
M  V30 1150 O 110.233 0.686384 -1.81986 0
M  V30 1151 C 110.516 -2.79219 -2.27396 0
M  V30 1152 C 110.369 -4.19286 -1.62848 0
M  V30 1153 C 111.688 -2.92614 -3.28732 0
M  V30 1154 H 108.807 -0.587399 -0.445119 0
M  V30 1155 H 111.449 -1.82681 -0.522265 0
M  V30 1156 H 109.599 -2.61195 -2.87592 0
M  V30 1157 H 111.271 -4.48892 -1.06271 0
M  V30 1158 H 109.514 -4.23677 -0.931693 0
M  V30 1159 H 110.185 -4.97655 -2.38838 0
M  V30 1160 H 112.661 -3.09105 -2.78556 0
M  V30 1161 H 111.537 -3.76688 -3.99246 0
M  V30 1162 H 111.798 -2.03107 -3.92683 0
M  V30 1163 N 110.857 0.726932 -1.39834 0
M  V30 1164 C 112.085 1.51613 -1.40787 0
M  V30 1165 C 112.5 1.88799 -0.00451505 0
M  V30 1166 O 111.857 1.54662 0.968809 0
M  V30 1167 C 111.908 2.79863 -2.28821 0
M  V30 1168 O 111.629 2.44253 -3.63692 0
M  V30 1169 C 113.13 3.73837 -2.38245 0
M  V30 1170 H 110.35 0.468264 -0.480593 0
M  V30 1171 H 112.894 0.897607 -1.83748 0
M  V30 1172 H 111.049 3.38027 -1.89252 0
M  V30 1173 H 111.463 3.26695 -4.1033 0
M  V30 1174 H 112.937 4.60699 -3.04073 0
M  V30 1175 H 113.414 4.16153 -1.40403 0
M  V30 1176 H 114.02 3.21589 -2.78317 0
M  V30 1177 N 112.336 1.25143 0.95797 0
M  V30 1178 C 113.284 1.05019 2.07542 0
M  V30 1179 C 114.278 -0.0178751 1.69391 0
M  V30 1180 O 115.484 0.137472 1.79474 0
M  V30 1181 H 111.859 0.32265 0.679265 0
M  V30 1182 H 113.83 1.99759 2.21673 0
M  V30 1183 C 112.579 0.682074 3.40944 0
M  V30 1184 H 111.902 1.49573 3.70767 0
M  V30 1185 H 113.342 0.580945 4.20001 0
M  V30 1186 C 111.801 -0.611608 3.31302 0
M  V30 1187 O 112.331 -1.65465 3.66038 0
M  V30 1188 N 110.537 -0.595982 2.84423 0
M  V30 1189 H 110.084 0.253192 2.56353 0
M  V30 1190 H 110.042 -1.46173 2.78354 0
M  V30 1191 N 113.814 -1.1601 1.06675 0
M  V30 1192 C 114.744 -2.22688 0.702307 0
M  V30 1193 C 115.725 -1.67306 -0.307032 0
M  V30 1194 O 116.91 -1.93352 -0.181305 0
M  V30 1195 C 114.04 -3.47178 0.092038 0
M  V30 1196 C 112.994 -4.15477 1.02777 0
M  V30 1197 C 112.32 -5.33963 0.28061 0
M  V30 1198 C 113.62 -4.66019 2.35846 0
M  V30 1199 H 115.314 -2.53429 1.59419 0
M  V30 1200 H 112.86 -1.21813 0.767961 0
M  V30 1201 H 114.813 -4.21037 -0.174814 0
M  V30 1202 H 113.537 -3.15749 -0.834877 0
M  V30 1203 H 112.196 -3.43549 1.27944 0
M  V30 1204 H 111.844 -4.98788 -0.649545 0
M  V30 1205 H 111.544 -5.806 0.904258 0
M  V30 1206 H 113.068 -6.10596 0.021396 0
M  V30 1207 H 114.482 -5.3144 2.15045 0
M  V30 1208 H 112.879 -5.23293 2.93743 0
M  V30 1209 H 113.949 -3.82023 2.98641 0
M  V30 1210 N 115.292 -0.849877 -1.32721 0
M  V30 1211 C 116.222 -0.306308 -2.31482 0
M  V30 1212 C 117.203 0.591952 -1.59468 0
M  V30 1213 O 118.388 0.513199 -1.87296 0
M  V30 1214 C 115.518 0.510204 -3.43532 0
M  V30 1215 C 114.472 -0.293209 -4.26994 0
M  V30 1216 C 113.798 0.647743 -5.30762 0
M  V30 1217 C 115.098 -1.51634 -4.99804 0
M  V30 1218 H 116.792 -1.13153 -2.77195 0
M  V30 1219 H 114.338 -0.545553 -1.33266 0
M  V30 1220 H 116.291 0.900856 -4.11658 0
M  V30 1221 H 115.015 1.36874 -2.96535 0
M  V30 1222 H 113.674 -0.665555 -3.60508 0
M  V30 1223 H 113.322 1.50299 -4.8002 0
M  V30 1224 H 113.022 0.11422 -5.87489 0
M  V30 1225 H 114.546 1.03567 -6.01753 0
M  V30 1226 H 115.96 -1.19824 -5.60638 0
M  V30 1227 H 114.357 -1.98745 -5.66234 0
M  V30 1228 H 115.427 -2.28018 -4.27943 0
M  V30 1229 N 116.77 1.45427 -0.607355 0
M  V30 1230 C 118.019 2.01452 -0.100036 0
M  V30 1231 C 118.332 1.48159 1.27704 0
M  V30 1232 O 119.538 1.96159 1.87707 0
M  V30 1233 C 117.994 3.59672 -0.128158 0
M  V30 1234 C 117.602 4.21962 -1.50507 0
M  V30 1235 C 119.346 4.23262 0.323932 0
M  V30 1236 C 117.253 5.72333 -1.48959 0
M  V30 1237 H 116.183 0.75325 -0.0336299 0
M  V30 1238 H 118.834 1.66901 -0.76265 0
M  V30 1239 H 117.216 3.91411 0.601105 0
M  V30 1240 H 118.39 4.01796 -2.25602 0
M  V30 1241 H 116.705 3.70565 -1.89923 0
M  V30 1242 H 119.302 5.33522 0.354691 0
M  V30 1243 H 119.645 3.93921 1.34656 0
M  V30 1244 H 120.178 3.96239 -0.352056 0
M  V30 1245 H 116.917 6.06373 -2.48981 0
M  V30 1246 H 116.437 5.94691 -0.781214 0
M  V30 1247 H 118.116 6.35525 -1.21313 0
M  V30 1248 N 118.248 0.346503 1.53744 0
M  V30 1249 C 119.211 -0.496439 2.23759 0
M  V30 1250 C 120.211 -1.0252 1.2388 0
M  V30 1251 O 121.401 -0.913974 1.48297 0
M  V30 1252 C 118.533 -1.69187 2.95954 0
M  V30 1253 H 119.726 0.115952 2.99676 0
M  V30 1254 H 117.279 0.0978939 1.55993 0
M  V30 1255 H 118.014 -2.34288 2.24231 0
M  V30 1256 H 117.799 -1.31989 3.69217 0
M  V30 1257 H 119.289 -2.28969 3.49232 0
M  V30 1258 N 119.726 -1.57421 0.075193 0
M  V30 1259 C 120.674 -2.14124 -0.908508 0
M  V30 1260 C 121.668 -1.07898 -1.30592 0
M  V30 1261 O 122.874 -1.26273 -1.28277 0
M  V30 1262 H 119.249 -0.684707 -0.310935 0
M  V30 1263 H 121.22 -2.95634 -0.405374 0
M  V30 1264 C 119.969 -2.72044 -2.16535 0
M  V30 1265 H 119.292 -3.53456 -1.86839 0
M  V30 1266 H 120.732 -3.15311 -2.83469 0
M  V30 1267 C 119.191 -1.66968 -2.92615 0
M  V30 1268 O 119.721 -1.0967 -3.86439 0
M  V30 1269 N 117.927 -1.37923 -2.55784 0
M  V30 1270 H 117.474 -1.84706 -1.79559 0
M  V30 1271 H 117.432 -0.67852 -3.06991 0
M  V30 1272 N 121.204 0.198386 -1.56346 0
M  V30 1273 C 122.134 1.24865 -1.9731 0
M  V30 1274 C 123.115 1.47651 -0.844576 0
M  V30 1275 O 124.3 1.59444 -1.10866 0
M  V30 1276 C 121.43 2.59358 -2.30977 0
M  V30 1277 C 120.384 2.5119 -3.46537 0
M  V30 1278 C 119.71 3.89926 -3.65871 0
M  V30 1279 C 121.01 2.03977 -4.80823 0
M  V30 1280 H 122.704 0.908252 -2.85291 0
M  V30 1281 H 120.25 0.435462 -1.37258 0
M  V30 1282 H 122.203 3.33011 -2.58228 0
M  V30 1283 H 120.927 2.95132 -1.39874 0
M  V30 1284 H 119.586 1.79993 -3.19371 0
M  V30 1285 H 119.234 4.23046 -2.72105 0
M  V30 1286 H 118.934 3.85336 -4.4361 0
M  V30 1287 H 120.458 4.65205 -3.95495 0
M  V30 1288 H 121.872 2.67386 -5.07127 0
M  V30 1289 H 120.269 2.10397 -5.62008 0
M  V30 1290 H 121.339 0.992861 -4.74626 0
M  V30 1291 N 122.682 1.50554 0.465978 0
M  V30 1292 C 123.645 1.69233 1.54574 0
M  V30 1293 C 124.645 0.562901 1.50626 0
M  V30 1294 O 125.835 0.830016 1.53155 0
M  V30 1295 C 122.967 1.7223 2.94193 0
M  V30 1296 H 124.16 2.65571 1.39327 0
M  V30 1297 H 121.713 1.40111 0.692711 0
M  V30 1298 H 122.448 0.77603 3.14878 0
M  V30 1299 H 122.233 2.54285 2.98466 0
M  V30 1300 H 123.723 1.88618 3.72576 0
M  V30 1301 N 124.16 -0.719506 1.40217 0
M  V30 1302 C 125.407 -1.47933 1.38283 0
M  V30 1303 C 125.735 -1.94493 -0.0161536 0
M  V30 1304 O 124.99 -1.68224 -0.999956 0
M  V30 1305 C 125.289 -2.72271 2.31524 0
M  V30 1306 C 124.955 -2.44496 3.78857 0
M  V30 1307 C 123.617 -2.36631 4.18998 0
M  V30 1308 C 125.969 -2.21104 4.71977 0
M  V30 1309 C 123.297 -2.03437 5.503 0
M  V30 1310 C 125.649 -1.89423 6.03574 0
M  V30 1311 C 124.313 -1.80038 6.42762 0
M  V30 1312 H 123.583 -0.541325 0.506012 0
M  V30 1313 H 126.23 -0.824502 1.72842 0
M  V30 1314 H 124.535 -3.42572 1.90137 0
M  V30 1315 H 126.232 -3.30348 2.27313 0
M  V30 1316 H 122.822 -2.51503 3.47051 0
M  V30 1317 H 127.006 -2.26139 4.41786 0
M  V30 1318 H 122.262 -1.94705 5.79569 0
M  V30 1319 H 126.436 -1.70336 6.75247 0
M  V30 1320 H 124.063 -1.54083 7.44421 0
M  V30 1321 N 125.638 -1.25649 -0.95132 0
M  V30 1322 C 126.863 -1.13443 -1.73624 0
M  V30 1323 C 127.288 0.307565 -1.85568 0
M  V30 1324 O 126.646 1.22282 -1.33854 0
M  V30 1325 C 126.694 -1.79723 -3.12621 0
M  V30 1326 O 125.798 -1.07912 -3.98031 0
M  V30 1327 H 125.139 -0.395872 -0.533086 0
M  V30 1328 H 127.669 -1.66276 -1.1922 0
M  V30 1329 H 127.679 -1.86141 -3.63064 0
M  V30 1330 H 126.354 -2.84633 -3.03244 0
M  V30 1331 H 124.931 -1.09398 -3.56492 0
M  V30 1332 N 127.117 1.15442 -1.07289 0
M  V30 1333 C 128.394 1.82306 -0.708792 0
M  V30 1334 C 128.774 1.94991 0.808807 0
M  V30 1335 O 128.122 1.50085 1.72298 0
M  V30 1336 C 128.332 3.18695 -1.42247 0
M  V30 1337 C 129.68 3.94341 -1.57417 0
M  V30 1338 O 130.704 3.28247 -1.38319 0
M  V30 1339 O 129.563 5.12839 -1.88834 0
M  V30 1340 H 126.657 0.787628 -0.252132 0
M  V30 1341 H 129.203 1.22559 -1.17377 0
M  V30 1342 H 127.975 3.04557 -2.45684 0
M  V30 1343 H 127.598 3.86128 -0.948223 0
M  V30 1344 N 128.595 0.856903 1.32268 0
M  V30 1345 C 129.842 0.461386 1.97174 0
M  V30 1346 C 130.17 -0.983491 1.67803 0
M  V30 1347 O 129.425 -1.70541 0.959903 0
M  V30 1348 C 129.724 0.649919 3.51441 0
M  V30 1349 C 129.39 2.0656 4.00804 0
M  V30 1350 C 128.052 2.45279 4.13995 0
M  V30 1351 C 130.404 2.98947 4.26943 0
M  V30 1352 C 127.732 3.75653 4.50668 0
M  V30 1353 C 130.084 4.28822 4.65075 0
M  V30 1354 C 128.748 4.67472 4.76472 0
M  V30 1355 H 128.018 0.168833 0.72151 0
M  V30 1356 H 130.665 1.08739 1.57633 0
M  V30 1357 H 128.97 -0.0593018 3.91755 0
M  V30 1358 H 130.667 0.32391 3.9969 0
M  V30 1359 H 127.257 1.75495 3.91024 0
M  V30 1360 H 131.441 2.70265 4.16258 0
M  V30 1361 H 126.697 4.05379 4.57688 0
M  V30 1362 H 130.871 5.0047 4.84255 0
M  V30 1363 H 128.498 5.68539 5.04646 0
M  V30 1364 N 130.073 -1.45103 0.615059 0
M  V30 1365 C 131.003 -2.33339 -0.0865619 0
M  V30 1366 C 131.984 -1.4727 -0.851209 0
M  V30 1367 O 133.169 -1.76026 -0.820281 0
M  V30 1368 C 130.299 -3.30095 -1.07956 0
M  V30 1369 C 129.253 -4.25858 -0.427628 0
M  V30 1370 C 128.579 -5.12361 -1.5294 0
M  V30 1371 C 129.879 -5.18165 0.655944 0
M  V30 1372 H 131.573 -2.92254 0.650224 0
M  V30 1373 H 129.119 -1.40532 0.314138 0
M  V30 1374 H 131.072 -3.90698 -1.57901 0
M  V30 1375 H 129.796 -2.69355 -1.84703 0
M  V30 1376 H 128.455 -3.66564 0.0510292 0
M  V30 1377 H 128.103 -4.47984 -2.28734 0
M  V30 1378 H 127.803 -5.77238 -1.09865 0
M  V30 1379 H 129.327 -5.75833 -2.03098 0
M  V30 1380 H 130.741 -5.72796 0.240257 0
M  V30 1381 H 129.138 -5.91559 1.00888 0
M  V30 1382 H 130.208 -4.60144 1.52957 0
M  V30 1383 N 131.551 -0.354651 -1.53558 0
M  V30 1384 C 132.484 0.540273 -2.21712 0
M  V30 1385 C 133.462 1.09161 -1.2051 0
M  V30 1386 O 134.646 1.14979 -1.49372 0
M  V30 1387 C 131.773 1.74435 -2.90328 0
M  V30 1388 C 130.819 1.32146 -4.05512 0
M  V30 1389 S 131.652 0.331924 -5.3447 0
M  V30 1390 C 132.808 1.54258 -6.06593 0
M  V30 1391 H 133.041 -0.0385776 -2.97275 0
M  V30 1392 H 130.574 -0.138736 -1.53775 0
M  V30 1393 H 132.532 2.43507 -3.30476 0
M  V30 1394 H 131.193 2.29444 -2.1451 0
M  V30 1395 H 130.386 2.21952 -4.52497 0
M  V30 1396 H 129.988 0.710091 -3.67197 0
M  V30 1397 H 132.28 2.47534 -6.30661 0
M  V30 1398 H 133.223 1.11431 -6.99277 0
M  V30 1399 H 133.631 1.74367 -5.36895 0
M  V30 1400 N 133.029 1.57378 -0.0835403 0
M  V30 1401 C 134.269 1.95808 0.586381 0
M  V30 1402 C 134.633 0.963706 1.66062 0
M  V30 1403 O 135.834 1.23608 2.38693 0
M  V30 1404 C 134.105 3.38808 1.13771 0
M  V30 1405 S 135.664 3.99225 1.82112 0
M  V30 1406 H 132.482 0.684675 0.191679 0
M  V30 1407 H 135.084 1.94843 -0.160194 0
M  V30 1408 H 133.788 4.08954 0.344197 0
M  V30 1409 H 133.319 3.43344 1.92038 0
M  V30 1410 H 135.334 3.87087 3.10449 0
M  V30 1411 N 134.507 -0.190092 1.56449 0
M  V30 1412 C 135.437 -1.23816 1.97969 0
M  V30 1413 C 136.418 -1.47201 0.852395 0
M  V30 1414 O 137.603 -1.58854 1.1171 0
M  V30 1415 C 134.733 -2.5813 2.3235 0
M  V30 1416 C 133.687 -2.49348 3.47864 0
M  V30 1417 C 133.013 -3.8798 3.67934 0
M  V30 1418 C 134.313 -2.01424 4.81898 0
M  V30 1419 H 136.007 -0.89311 2.85769 0
M  V30 1420 H 133.553 -0.428177 1.37487 0
M  V30 1421 H 135.506 -3.31637 2.59991 0
M  V30 1422 H 134.23 -2.94386 1.41438 0
M  V30 1423 H 132.889 -1.78297 3.20321 0
M  V30 1424 H 132.537 -4.21597 2.74344 0
M  V30 1425 H 132.237 -3.82978 4.45648 0
M  V30 1426 H 133.761 -4.63101 3.97957 0
M  V30 1427 H 135.175 -2.64693 5.08538 0
M  V30 1428 H 133.572 -2.07413 5.63116 0
M  V30 1429 H 134.642 -0.967677 4.75146 0
M  V30 1430 N 135.985 -1.50799 -0.457987 0
M  V30 1431 C 136.915 -1.73553 -1.5621 0
M  V30 1432 C 137.896 -0.584774 -1.59732 0
M  V30 1433 O 139.081 -0.825314 -1.7579 0
M  V30 1434 C 136.211 -1.84169 -2.94447 0
M  V30 1435 C 135.165 -2.99461 -3.0579 0
M  V30 1436 C 134.491 -2.95235 -4.45803 0
M  V30 1437 C 135.791 -4.39766 -2.81786 0
M  V30 1438 H 137.485 -2.66 -1.37421 0
M  V30 1439 H 135.031 -1.28002 -0.659662 0
M  V30 1440 H 136.984 -1.98672 -3.71628 0
M  V30 1441 H 135.708 -0.883545 -3.14422 0
M  V30 1442 H 134.367 -2.8463 -2.31044 0
M  V30 1443 H 134.015 -1.97239 -4.62715 0
M  V30 1444 H 133.715 -3.72642 -4.54326 0
M  V30 1445 H 135.239 -3.11803 -5.24987 0
M  V30 1446 H 136.653 -4.55054 -3.4871 0
M  V30 1447 H 135.05 -5.18722 -3.0174 0
M  V30 1448 H 136.12 -4.51229 -1.7754 0
M  V30 1449 N 137.463 0.71206 -1.40597 0
M  V30 1450 C 138.703 1.48438 -1.40519 0
M  V30 1451 C 139.067 1.91998 -0.00767611 0
M  V30 1452 O 140.268 2.6854 0.118239 0
M  V30 1453 C 138.539 2.67514 -2.37004 0
M  V30 1454 S 140.098 3.56875 -2.55315 0
M  V30 1455 H 136.916 0.507457 -0.498005 0
M  V30 1456 H 139.518 0.832355 -1.76896 0
M  V30 1457 H 138.222 2.33689 -3.37368 0
M  V30 1458 H 137.753 3.37625 -2.01923 0
M  V30 1459 H 139.768 4.62081 -1.8082 0
M  V30 1460 N 138.941 1.26152 0.944643 0
M  V30 1461 C 139.873 1.03199 2.04652 0
M  V30 1462 C 140.886 -0.00642356 1.62799 0
M  V30 1463 O 142.075 0.233263 1.76969 0
M  V30 1464 C 139.175 0.540111 3.34568 0
M  V30 1465 C 138.348 1.64697 4.05208 0
M  V30 1466 C 137.407 1.15374 5.13396 0
M  V30 1467 O 136.433 1.85013 5.38293 0
M  V30 1468 N 137.635 0.00031529 5.805 0
M  V30 1469 H 140.4 1.9808 2.2491 0
M  V30 1470 H 137.961 1.17491 1.11389 0
M  V30 1471 H 139.953 0.194401 4.04233 0
M  V30 1472 H 138.523 -0.315021 3.11009 0
M  V30 1473 H 137.743 2.16379 3.29506 0
M  V30 1474 H 139.031 2.3903 4.49157 0
M  V30 1475 H 138.429 -0.581336 5.62705 0
M  V30 1476 H 136.986 -0.286346 6.51171 0
M  V30 1477 N 140.419 -1.14872 1.07899 0
M  V30 1478 C 141.83 -1.67367 0.827363 0
M  V30 1479 C 142.181 -1.85236 -0.646693 0
M  V30 1480 O 141.306 -1.55974 -1.50004 0
M  V30 1481 C 141.901 -3.04016 1.49532 0
M  V30 1482 C 140.46 -3.53566 1.29106 0
M  V30 1483 C 139.607 -2.29161 1.56143 0
M  V30 1484 H 142.558 -0.990083 1.24028 0
M  V30 1485 H 142.579 -3.69219 0.919643 0
M  V30 1486 H 142.091 -2.90978 2.56814 0
M  V30 1487 H 140.192 -3.71835 0.238713 0
M  V30 1488 H 140.305 -4.34661 2.01511 0
M  V30 1489 H 138.669 -2.34978 0.982717 0
M  V30 1490 H 139.452 -2.18705 2.64619 0
M  V30 1491 N 141.898 -0.863906 -1.31812 0
M  V30 1492 C 142.828 -0.330843 -2.31144 0
M  V30 1493 C 143.809 0.575005 -1.60087 0
M  V30 1494 O 144.994 0.493304 -1.8783 0
M  V30 1495 C 142.124 0.47374 -3.44054 0
M  V30 1496 C 141.078 -0.338481 -4.26659 0
M  V30 1497 C 140.404 0.591412 -5.31419 0
M  V30 1498 C 141.704 -1.56926 -4.98168 0
M  V30 1499 H 143.398 -1.16086 -2.75979 0
M  V30 1500 H 140.944 -0.559657 -1.32679 0
M  V30 1501 H 142.897 0.857143 -4.12591 0
M  V30 1502 H 141.621 1.33721 -2.9797 0
M  V30 1503 H 140.28 -0.703754 -3.59782 0
M  V30 1504 H 139.928 1.45199 -4.81587 0
M  V30 1505 H 139.628 0.0519022 -5.87577 0
M  V30 1506 H 141.152 0.97179 -6.02817 0
M  V30 1507 H 142.566 -1.25764 -5.59336 0
M  V30 1508 H 140.963 -2.04739 -5.64094 0
M  V30 1509 H 142.033 -2.32544 -4.25501 0
M  V30 1510 N 143.376 1.44774 -0.622745 0
M  V30 1511 C 144.604 2.06487 -0.130722 0
M  V30 1512 C 145.019 1.46476 1.19123 0
M  V30 1513 O 144.376 0.584502 1.72887 0
M  V30 1514 C 144.427 3.615 -0.000807207 0
M  V30 1515 O 144.148 4.19274 -1.27048 0
M  V30 1516 C 145.649 4.40229 0.520898 0
M  V30 1517 H 142.869 0.666704 -0.0758106 0
M  V30 1518 H 145.413 1.85779 -0.854774 0
M  V30 1519 H 143.568 3.81498 0.673643 0
M  V30 1520 H 143.982 5.12622 -1.1099 0
M  V30 1521 H 145.456 5.49144 0.560838 0
M  V30 1522 H 145.933 4.1108 1.54627 0
M  V30 1523 H 146.539 4.25131 -0.120018 0
M  V30 1524 N 144.854 0.36279 1.53368 0
M  V30 1525 C 145.817 -0.472679 2.24273 0
M  V30 1526 C 146.817 -1.012 1.24961 0
M  V30 1527 O 148.007 -0.898194 1.49259 0
M  V30 1528 C 145.139 -1.66039 2.97731 0
M  V30 1529 H 146.332 0.14773 2.99536 0
M  V30 1530 H 143.885 0.114434 1.55881 0
M  V30 1531 H 144.62 -2.31896 2.26704 0
M  V30 1532 H 144.405 -1.28066 3.70596 0
M  V30 1533 H 145.895 -2.25252 3.51641 0
M  V30 1534 N 146.332 -1.57332 0.0918853 0
M  V30 1535 C 147.578 -1.94524 -0.573425 0
M  V30 1536 C 147.911 -0.973578 -1.68033 0
M  V30 1537 O 147.186 -0.00609226 -1.94499 0
M  V30 1538 C 147.469 -3.41858 -1.13161 0
M  V30 1539 C 147.322 -4.4979 -0.0299747 0
M  V30 1540 C 148.641 -3.90435 -2.03098 0
M  V30 1541 H 145.76 -0.70734 -0.206975 0
M  V30 1542 H 148.402 -1.89309 0.161942 0
M  V30 1543 H 146.552 -3.46433 -1.7583 0
M  V30 1544 H 148.224 -4.57327 0.604112 0
M  V30 1545 H 146.467 -4.291 0.636833 0
M  V30 1546 H 147.138 -5.50069 -0.461287 0
M  V30 1547 H 149.614 -3.87992 -1.50338 0
M  V30 1548 H 148.49 -4.94097 -2.39081 0
M  V30 1549 H 148.751 -3.29541 -2.94712 0
M  V30 1550 N 147.81 0.181792 -1.56548 0
M  V30 1551 C 149.04 0.914618 -1.85252 0
M  V30 1552 C 149.448 1.76791 -0.673914 0
M  V30 1553 O 148.791 1.80009 0.366416 0
M  V30 1554 C 148.853 1.85019 -3.08234 0
M  V30 1555 C 148.517 1.17754 -4.41569 0
M  V30 1556 C 149.514 0.548035 -5.17003 0
M  V30 1557 C 147.199 1.17742 -4.88305 0
M  V30 1558 C 149.193 -0.0726128 -6.37359 0
M  V30 1559 C 146.88 0.552946 -6.08593 0
M  V30 1560 C 147.878 -0.070978 -6.82963 0
M  V30 1561 O 147.566 -0.685635 -8.00971 0
M  V30 1562 H 147.298 0.271695 -0.618998 0
M  V30 1563 H 149.852 0.189944 -2.0452 0
M  V30 1564 H 148.082 2.61491 -2.84885 0
M  V30 1565 H 149.771 2.45195 -3.23472 0
M  V30 1566 H 150.537 0.540174 -4.81982 0
M  V30 1567 H 146.416 1.65246 -4.30366 0
M  V30 1568 H 149.96 -0.560213 -6.95347 0
M  V30 1569 H 145.857 0.558354 -6.43081 0
M  V30 1570 H 146.625 -0.58385 -8.16415 0
M  V30 1571 N 149.288 1.51039 0.449983 0
M  V30 1572 C 150.516 1.66869 1.2232 0
M  V30 1573 C 150.931 0.360727 1.85322 0
M  V30 1574 O 150.288 -0.659531 1.70166 0
M  V30 1575 C 150.339 2.77524 2.31652 0
M  V30 1576 O 150.06 4.03252 1.7123 0
M  V30 1577 C 151.561 3.04512 3.2216 0
M  V30 1578 H 148.781 0.560326 0.369155 0
M  V30 1579 H 151.325 1.97385 0.534719 0
M  V30 1580 H 149.48 2.49642 2.96239 0
M  V30 1581 H 149.894 4.64609 2.43389 0
M  V30 1582 H 151.368 3.85551 3.95038 0
M  V30 1583 H 151.845 2.16415 3.8218 0
M  V30 1584 H 152.451 3.34005 2.63288 0
M  V30 1585 N 150.766 -0.704594 1.40972 0
M  V30 1586 C 152.015 -1.46018 1.39146 0
M  V30 1587 C 152.328 -1.956 0.000589254 0
M  V30 1588 O 153.534 -2.71137 -0.1403 0
M  V30 1589 C 151.99 -2.63996 2.4461 0
M  V30 1590 C 151.598 -2.21238 3.89561 0
M  V30 1591 C 153.342 -3.41677 2.51907 0
M  V30 1592 C 151.249 -3.3612 4.86598 0
M  V30 1593 H 150.179 -0.548444 0.517422 0
M  V30 1594 H 152.83 -0.765784 1.66757 0
M  V30 1595 H 151.212 -3.3566 2.10115 0
M  V30 1596 H 152.386 -1.56923 4.33257 0
M  V30 1597 H 150.701 -1.56574 3.85841 0
M  V30 1598 H 153.298 -4.27182 3.2159 0
M  V30 1599 H 153.641 -3.86247 1.55303 0
M  V30 1600 H 154.174 -2.77064 2.85448 0
M  V30 1601 H 150.913 -2.96572 5.84573 0
M  V30 1602 H 150.433 -3.99315 4.47557 0
M  V30 1603 H 152.112 -4.02029 5.06934 0
M  V30 1604 N 152.244 -1.26651 -0.937939 0
M  V30 1605 C 153.177 -1.02811 -2.03728 0
M  V30 1606 C 154.155 0.0481915 -1.62529 0
M  V30 1607 O 155.339 -0.0948839 -1.88261 0
M  V30 1608 C 152.466 -0.557517 -3.3408 0
M  V30 1609 C 151.512 -1.62686 -3.94253 0
M  V30 1610 S 152.345 -3.21667 -4.28125 0
M  V30 1611 C 153.501 -2.76384 -5.61572 0
M  V30 1612 H 153.734 -1.95891 -2.23638 0
M  V30 1613 H 151.267 -1.10367 -1.07974 0
M  V30 1614 H 153.225 -0.292674 -4.09455 0
M  V30 1615 H 151.886 0.353062 -3.12109 0
M  V30 1616 H 151.079 -1.24866 -4.88287 0
M  V30 1617 H 150.681 -1.84324 -3.25424 0
M  V30 1618 H 152.973 -2.2105 -6.40424 0
M  V30 1619 H 153.916 -3.69123 -6.0428 0
M  V30 1620 H 154.324 -2.15847 -5.21604 0
M  V30 1621 N 153.722 1.14298 -1.08507 0
M  V30 1622 C 154.999 1.81544 -0.728088 0
M  V30 1623 C 155.379 1.95838 0.78808 0
M  V30 1624 O 154.727 1.51904 1.70697 0
M  V30 1625 C 154.937 3.17169 -1.45619 0
M  V30 1626 C 156.285 3.9265 -1.61591 0
M  V30 1627 O 157.309 3.26762 -1.41793 0
M  V30 1628 O 156.168 5.10807 -1.94263 0
M  V30 1629 H 153.262 0.78491 -0.260471 0
M  V30 1630 H 155.808 1.21307 -1.18671 0
M  V30 1631 H 154.58 3.01934 -2.489 0
M  V30 1632 H 154.203 3.851 -0.989124 0
M  V30 1633 N 155.201 0.870884 1.31352 0
M  V30 1634 C 156.431 0.496049 2.00557 0
M  V30 1635 C 156.839 -0.916241 1.65534 0
M  V30 1636 O 156.182 -1.61188 0.881134 0
M  V30 1637 C 156.244 0.574418 3.54881 0
M  V30 1638 C 155.908 1.94849 4.1338 0
M  V30 1639 C 156.905 2.91611 4.30417 0
M  V30 1640 C 154.59 2.25005 4.49086 0
M  V30 1641 C 156.584 4.16672 4.82352 0
M  V30 1642 C 154.271 3.50315 5.00722 0
M  V30 1643 C 155.269 4.45964 5.17306 0
M  V30 1644 O 154.957 5.69052 5.67833 0
M  V30 1645 H 154.689 0.191664 0.64826 0
M  V30 1646 H 157.243 1.17409 1.68536 0
M  V30 1647 H 155.473 -0.160549 3.86367 0
M  V30 1648 H 157.162 0.212879 4.05341 0
M  V30 1649 H 157.928 2.69622 4.03149 0
M  V30 1650 H 153.807 1.51332 4.35453 0
M  V30 1651 H 157.351 4.91336 4.95211 0
M  V30 1652 H 153.248 3.72147 5.27424 0
M  V30 1653 H 154.016 5.71236 5.86201 0
M  V30 1654 N 156.679 -1.44442 0.630414 0
M  V30 1655 C 157.925 -2.02894 0.143332 0
M  V30 1656 C 158.28 -1.48697 -1.22094 0
M  V30 1657 O 157.573 -0.661171 -1.79831 0
M  V30 1658 C 157.767 -3.57332 0.0697835 0
M  V30 1659 C 157.596 -4.26512 1.42539 0
M  V30 1660 C 156.366 -4.63516 2.01198 0
M  V30 1661 C 158.564 -4.57004 2.35907 0
M  V30 1662 N 156.546 -5.17661 3.30001 0
M  V30 1663 C 157.917 -5.12223 3.49324 0
M  V30 1664 C 159.972 -4.38955 2.34995 0
M  V30 1665 C 158.675 -5.51295 4.62024 0
M  V30 1666 C 160.701 -4.79075 3.46758 0
M  V30 1667 C 160.063 -5.34407 4.58899 0
M  V30 1668 H 156.162 -0.776041 0.0963523 0
M  V30 1669 H 158.746 -1.75945 0.833752 0
M  V30 1670 H 156.917 -3.83894 -0.589915 0
M  V30 1671 H 158.649 -4.02451 -0.42606 0
M  V30 1672 H 155.404 -4.47811 1.54151 0
M  V30 1673 H 155.828 -5.4921 3.95851 0
M  V30 1674 H 160.47 -3.95469 1.49545 0
M  V30 1675 H 158.188 -5.93736 5.48182 0
M  V30 1676 H 161.774 -4.66824 3.47227 0
M  V30 1677 H 160.654 -5.64878 5.4395 0
M  V30 1678 N 158.157 -0.370918 -1.53173 0
M  V30 1679 C 159.406 0.218249 -2.00516 0
M  V30 1680 C 159.719 1.49429 -1.26215 0
M  V30 1681 O 160.925 2.16239 -1.64174 0
M  V30 1682 C 159.381 0.43948 -3.57207 0
M  V30 1683 C 158.989 -0.822244 -4.4039 0
M  V30 1684 C 160.733 0.986012 -4.1289 0
M  V30 1685 C 158.64 -0.570304 -5.88644 0
M  V30 1686 H 157.57 0.0853333 -0.749156 0
M  V30 1687 H 160.221 -0.490483 -1.76823 0
M  V30 1688 H 158.603 1.20961 -3.77074 0
M  V30 1689 H 159.777 -1.59557 -4.32294 0
M  V30 1690 H 158.092 -1.29238 -3.95836 0
M  V30 1691 H 160.689 1.18991 -5.21292 0
M  V30 1692 H 161.032 1.94972 -3.6782 0
M  V30 1693 H 161.565 0.27592 -3.96842 0
M  V30 1694 H 158.304 -1.50449 -6.38001 0
M  V30 1695 H 157.824 0.164427 -5.99575 0
M  V30 1696 H 159.503 -0.19784 -6.46697 0
M  V30 1697 N 159.635 1.57281 -0.100228 0
M  V30 1698 C 160.882 1.94537 0.562268 0
M  V30 1699 C 161.21 0.982315 1.67871 0
M  V30 1700 O 160.465 0.00280936 1.957 0
M  V30 1701 C 160.764 3.38305 1.15259 0
M  V30 1702 C 160.43 4.50618 0.159409 0
M  V30 1703 C 159.092 4.81066 -0.113741 0
M  V30 1704 C 161.444 5.18615 -0.518461 0
M  V30 1705 C 158.772 5.76835 -1.07137 0
M  V30 1706 C 161.124 6.15412 -1.46459 0
M  V30 1707 C 159.788 6.44262 -1.74592 0
M  V30 1708 H 159.058 0.711863 0.205748 0
M  V30 1709 H 161.705 1.90679 -0.17715 0
M  V30 1710 H 160.01 3.38766 1.96836 0
M  V30 1711 H 161.707 3.64435 1.67297 0
M  V30 1712 H 158.297 4.2689 0.382491 0
M  V30 1713 H 162.481 4.95264 -0.320581 0
M  V30 1714 H 157.737 5.975 -1.29628 0
M  V30 1715 H 161.911 6.67194 -1.99564 0
M  V30 1716 H 159.538 7.1828 -2.48953 0
M  V30 1717 N 161.113 -0.173488 1.56642 0
M  V30 1718 C 162.361 -0.888706 1.81512 0
M  V30 1719 C 162.682 -1.82875 0.676872 0
M  V30 1720 O 161.952 -1.93536 -0.303414 0
M  V30 1721 H 160.532 -0.331164 0.669582 0
M  V30 1722 H 163.194 -0.173823 1.94123 0
M  V30 1723 H 162.29 -1.46691 2.75478 0
M  V30 1724 N 162.591 -1.51276 -0.441967 0
M  V30 1725 C 163.501 -1.75092 -1.56141 0
M  V30 1726 C 164.517 -0.634963 -1.62001 0
M  V30 1727 O 165.693 -0.916686 -1.79329 0
M  V30 1728 C 162.758 -1.86666 -2.92158 0
M  V30 1729 C 161.819 -3.10506 -2.96453 0
M  V30 1730 C 161.052 -3.21519 -4.25982 0
M  V30 1731 O 161.275 -2.38586 -5.18105 0
M  V30 1732 O 160.209 -4.14465 -4.36466 0
M  V30 1733 H 164.035 -2.70044 -1.38961 0
M  V30 1734 H 161.62 -1.35722 -0.624499 0
M  V30 1735 H 163.502 -1.96292 -3.72891 0
M  V30 1736 H 162.177 -0.949014 -3.09476 0
M  V30 1737 H 161.084 -3.06363 -2.14692 0
M  V30 1738 H 162.417 -4.01945 -2.84079 0
M  V30 1739 N 164.069 0.697108 -1.41344 0
M  V30 1740 C 165.297 1.48593 -1.43972 0
M  V30 1741 C 165.712 1.88747 -0.0445612 0
M  V30 1742 O 165.069 1.56682 0.935785 0
M  V30 1743 C 165.12 2.74946 -2.34706 0
M  V30 1744 O 164.841 2.36484 -3.68791 0
M  V30 1745 C 166.342 3.687 -2.46121 0
M  V30 1746 H 163.562 0.457964 -0.490418 0
M  V30 1747 H 166.106 0.858429 -1.8561 0
M  V30 1748 H 164.261 3.33937 -1.9638 0
M  V30 1749 H 164.675 3.17918 -4.17167 0
M  V30 1750 H 166.149 4.54145 -3.13777 0
M  V30 1751 H 166.626 4.13081 -1.49199 0
M  V30 1752 H 167.232 3.15613 -2.85076 0
M  V30 1753 N 165.547 1.27147 0.931209 0
M  V30 1754 C 166.477 1.12081 2.04842 0
M  V30 1755 C 167.458 0.0232364 1.70084 0
M  V30 1756 O 168.643 0.197085 1.93197 0
M  V30 1757 C 165.773 0.76354 3.38803 0
M  V30 1758 C 164.727 1.81396 3.87659 0
M  V30 1759 C 164.053 1.31075 5.18385 0
M  V30 1760 C 165.353 3.21739 4.11438 0
M  V30 1761 H 167.047 2.05537 2.17703 0
M  V30 1762 H 164.593 0.989603 1.04608 0
M  V30 1763 H 166.546 0.644982 4.16435 0
M  V30 1764 H 165.27 -0.206727 3.25945 0
M  V30 1765 H 163.929 1.92136 3.12217 0
M  V30 1766 H 163.577 0.330037 5.01916 0
M  V30 1767 H 163.277 2.013 5.52044 0
M  V30 1768 H 164.801 1.20506 5.98591 0
M  V30 1769 H 166.215 3.14019 4.79651 0
M  V30 1770 H 164.612 3.89644 4.56397 0
M  V30 1771 H 165.682 3.67054 3.16859 0
M  V30 1772 N 167.025 -1.13721 1.09112 0
M  V30 1773 C 168.265 -1.86576 0.834801 0
M  V30 1774 C 168.629 -1.81435 -0.628122 0
M  V30 1775 O 169.83 -2.49497 -1.00024 0
M  V30 1776 C 168.101 -3.30872 1.35124 0
M  V30 1777 S 169.66 -4.21257 1.22832 0
M  V30 1778 H 166.478 -0.643666 0.302017 0
M  V30 1779 H 169.08 -1.37085 1.39385 0
M  V30 1780 H 167.784 -3.32166 2.41027 0
M  V30 1781 H 167.315 -3.85423 0.788185 0
M  V30 1782 H 169.33 -4.95884 0.177191 0
M  V30 1783 N 168.503 -0.877838 -1.30888 0
M  V30 1784 C 169.45 -0.337538 -2.28318 0
M  V30 1785 C 170.42 0.568346 -1.56074 0
M  V30 1786 O 171.605 0.498298 -1.84178 0
M  V30 1787 C 168.745 0.448142 -3.42178 0
M  V30 1788 C 167.858 -0.48615 -4.29256 0
M  V30 1789 C 166.993 0.314427 -5.30269 0
M  V30 1790 C 166.032 -0.615791 -6.08995 0
M  V30 1791 N 165.169 0.14902 -7.01942 0
M  V30 1792 H 170.009 -1.17356 -2.73919 0
M  V30 1793 H 167.546 -0.590094 -1.34745 0
M  V30 1794 H 169.504 0.919517 -4.06941 0
M  V30 1795 H 168.134 1.24879 -2.97666 0
M  V30 1796 H 167.186 -1.076 -3.64865 0
M  V30 1797 H 168.498 -1.19909 -4.84173 0
M  V30 1798 H 167.652 0.847969 -6.00745 0
M  V30 1799 H 166.391 1.06062 -4.76027 0
M  V30 1800 H 165.396 -1.16102 -5.37401 0
M  V30 1801 H 166.621 -1.36097 -6.65323 0
M  V30 1802 H 164.567 0.877884 -6.50099 0
M  V30 1803 H 164.484 -0.504433 -7.54315 0
M  V30 1804 H 165.752 0.663537 -7.76671 0
M  V30 1805 N 169.982 1.44106 -0.638065 0
M  V30 1806 C 170.915 2.27924 0.112161 0
M  V30 1807 C 171.893 1.38945 0.844574 0
M  V30 1808 O 173.077 1.68386 0.847248 0
M  V30 1809 C 170.204 3.18029 1.16512 0
M  V30 1810 C 169.25 4.23163 0.532458 0
M  V30 1811 S 170.083 5.31131 -0.682666 0
M  V30 1812 C 171.239 6.24805 0.37013 0
M  V30 1813 H 171.472 2.91205 -0.598887 0
M  V30 1814 H 169.005 1.48394 -0.426441 0
M  V30 1815 H 170.963 3.70492 1.76766 0
M  V30 1816 H 169.624 2.53955 1.8484 0
M  V30 1817 H 168.817 4.86252 1.32571 0
M  V30 1818 H 168.419 3.74 0.00437644 0
M  V30 1819 H 170.711 6.66042 1.24071 0
M  V30 1820 H 171.654 7.07741 -0.225349 0
M  V30 1821 H 172.062 5.60154 0.699141 0
M  V30 1822 N 171.46 0.379036 1.52974 0
M  V30 1823 C 172.685 -0.209353 2.06341 0
M  V30 1824 C 173.11 -1.40583 1.24972 0
M  V30 1825 O 172.468 -1.79246 0.272155 0
M  V30 1826 C 172.516 -0.567786 3.56102 0
M  V30 1827 O 171.62 -1.66318 3.77375 0
M  V30 1828 H 170.961 -0.0272919 0.663439 0
M  V30 1829 H 173.491 0.543536 1.97248 0
M  V30 1830 H 173.501 -0.835003 3.99364 0
M  V30 1831 H 172.176 0.307013 4.14765 0
M  V30 1832 H 170.753 -1.39048 3.46006 0
M  V30 1833 N 172.938 -1.57226 0.108567 0
M  V30 1834 C 173.901 -2.13602 -0.831082 0
M  V30 1835 C 174.901 -1.06841 -1.20173 0
M  V30 1836 O 176.091 -1.32666 -1.12895 0
M  V30 1837 C 173.223 -2.66769 -2.12243 0
M  V30 1838 H 174.416 -2.97951 -0.341317 0
M  V30 1839 H 171.969 -1.55667 -0.14057 0
M  V30 1840 H 172.704 -1.85977 -2.65675 0
M  V30 1841 H 172.489 -3.44839 -1.86625 0
M  V30 1842 H 173.979 -3.10332 -2.79435 0
M  V30 1843 N 174.416 0.165178 -1.56732 0
M  V30 1844 C 175.663 0.880807 -1.8234 0
M  V30 1845 C 175.991 1.81977 -0.686621 0
M  V30 1846 O 175.246 1.92971 0.325697 0
M  V30 1847 C 175.545 1.70405 -3.1416 0
M  V30 1848 C 175.211 0.913475 -4.4155 0
M  V30 1849 C 173.873 0.695303 -4.7615 0
M  V30 1850 C 176.225 0.359349 -5.1996 0
M  V30 1851 C 173.553 -0.0879947 -5.86634 0
M  V30 1852 C 175.905 -0.410893 -6.31264 0
M  V30 1853 C 174.569 -0.639808 -6.64427 0
M  V30 1854 H 173.839 0.32231 -0.667231 0
M  V30 1855 H 176.486 0.145402 -1.90947 0
M  V30 1856 H 174.791 2.50903 -3.00923 0
M  V30 1857 H 176.488 2.26091 -3.31186 0
M  V30 1858 H 173.078 1.09357 -4.14414 0
M  V30 1859 H 177.262 0.515228 -4.93618 0
M  V30 1860 H 172.518 -0.27503 -6.10781 0
M  V30 1861 H 176.692 -0.847494 -6.91224 0
M  V30 1862 H 174.319 -1.24864 -7.49875 0
M  V30 1863 N 175.894 1.51508 0.433938 0
M  V30 1864 C 177.143 1.63578 1.18005 0
M  V30 1865 C 177.456 0.359514 1.92268 0
M  V30 1866 O 178.662 0.359632 2.69108 0
M  V30 1867 C 177.118 2.88901 2.14626 0
M  V30 1868 C 176.726 4.23544 1.45995 0
M  V30 1869 C 178.47 3.10328 2.89649 0
M  V30 1870 C 176.377 5.40014 2.4112 0
M  V30 1871 H 175.307 0.609277 0.444182 0
M  V30 1872 H 177.958 1.77978 0.446773 0
M  V30 1873 H 176.34 2.68142 2.91403 0
M  V30 1874 H 177.514 4.54696 0.747532 0
M  V30 1875 H 175.829 4.08021 0.831115 0
M  V30 1876 H 178.426 3.94518 3.60915 0
M  V30 1877 H 178.769 2.23544 3.51189 0
M  V30 1878 H 179.302 3.31443 2.19978 0
M  V30 1879 H 176.041 6.29068 1.84264 0
M  V30 1880 H 175.561 5.13233 3.10406 0
M  V30 1881 H 177.24 5.72099 3.02177 0
M  V30 1882 N 177.372 -0.689602 1.41712 0
M  V30 1883 C 178.304 -1.815 1.39966 0
M  V30 1884 C 179.317 -1.59995 0.300917 0
M  V30 1885 O 180.506 -1.69387 0.563039 0
M  V30 1886 C 177.606 -3.18364 1.16179 0
M  V30 1887 C 176.779 -3.66847 2.38206 0
M  V30 1888 C 175.838 -4.82398 2.10186 0
M  V30 1889 O 174.864 -4.93706 2.83272 0
M  V30 1890 N 176.066 -5.70064 1.0958 0
M  V30 1891 H 178.831 -1.83488 2.36965 0
M  V30 1892 H 176.392 -0.872149 1.36401 0
M  V30 1893 H 178.384 -3.93301 0.953756 0
M  V30 1894 H 176.954 -3.11365 0.27756 0
M  V30 1895 H 176.174 -2.82751 2.74673 0
M  V30 1896 H 177.462 -3.95978 3.19498 0
M  V30 1897 H 176.86 -5.63565 0.491019 0
M  V30 1898 H 175.417 -6.44874 0.947656 0
M  V30 1899 N 178.85 -1.27639 -0.924453 0
M  V30 1900 C 180.09 -1.15407 -1.68703 0
M  V30 1901 C 180.454 0.294581 -1.89727 0
M  V30 1902 O 181.655 0.539385 -2.63333 0
M  V30 1903 C 179.926 -1.9195 -3.0148 0
M  V30 1904 S 181.485 -1.95969 -3.92609 0
M  V30 1905 H 178.303 -0.411937 -0.579507 0
M  V30 1906 H 180.905 -1.61592 -1.10038 0
M  V30 1907 H 179.609 -2.96387 -2.83871 0
M  V30 1908 H 179.14 -1.46272 -3.65196 0
M  V30 1909 H 181.155 -1.05846 -4.84779 0
M  V30 1910 N 180.328 1.1314 -1.09713 0
M  V30 1911 C 181.261 2.17735 -0.683137 0
M  V30 1912 C 182.239 1.59582 0.311841 0
M  V30 1913 O 183.423 1.87298 0.212514 0
M  V30 1914 C 180.55 3.38699 -0.00684324 0
M  V30 1915 C 179.596 4.1546 -0.964102 0
M  V30 1916 S 180.429 4.74733 -2.47767 0
M  V30 1917 C 181.585 5.9904 -1.81387 0
M  V30 1918 H 181.818 2.52515 -1.56918 0
M  V30 1919 H 179.351 1.24484 -0.913404 0
M  V30 1920 H 181.309 4.08765 0.377044 0
M  V30 1921 H 179.97 3.02214 0.85589 0
M  V30 1922 H 179.163 5.02093 -0.43803 0
M  V30 1923 H 178.765 3.51066 -1.28953 0
M  V30 1924 H 181.057 6.67846 -1.13967 0
M  V30 1925 H 182 6.56261 -2.65947 0
M  V30 1926 H 182.408 5.4976 -1.28155 0
M  V30 1927 N 181.806 0.884767 1.30421 0
M  V30 1928 C 183.031 0.517288 2.00845 0
M  V30 1929 C 183.456 -0.886779 1.65885 0
M  V30 1930 O 182.814 -1.58768 0.875354 0
M  V30 1931 C 182.862 0.698994 3.5376 0
M  V30 1932 O 181.966 -0.255208 4.1161 0
M  V30 1933 H 181.307 0.203872 0.631927 0
M  V30 1934 H 183.837 1.19225 1.66272 0
M  V30 1935 H 183.847 0.597912 4.03595 0
M  V30 1936 H 182.522 1.72271 3.78544 0
M  V30 1937 H 181.099 -0.10784 3.72744 0
M  V30 1938 N 183.284 -1.43765 0.645699 0
M  V30 1939 C 184.53 -2.02197 0.156271 0
M  V30 1940 C 184.863 -1.50776 -1.22393 0
M  V30 1941 O 184.138 -0.697771 -1.81553 0
M  V30 1942 C 184.421 -3.59749 0.158872 0
M  V30 1943 C 184.274 -4.21419 1.57245 0
M  V30 1944 C 185.593 -4.37149 -0.50879 0
M  V30 1945 H 182.712 -0.734694 0.0582602 0
M  V30 1946 H 185.354 -1.71157 0.824951 0
M  V30 1947 H 183.504 -3.86325 -0.410525 0
M  V30 1948 H 185.176 -4.059 2.19186 0
M  V30 1949 H 183.419 -3.78356 2.122 0
M  V30 1950 H 184.09 -5.30482 1.52619 0
M  V30 1951 H 186.566 -4.16093 -0.024412 0
M  V30 1952 H 185.442 -5.4683 -0.476213 0
M  V30 1953 H 185.703 -4.12839 -1.58165 0
M  V30 1954 N 184.763 -0.387143 -1.52771 0
M  V30 1955 C 185.991 0.195869 -2.05971 0
M  V30 1956 C 186.406 1.40691 -1.25903 0
M  V30 1957 O 185.763 1.79931 -0.305134 0
M  V30 1958 C 185.814 0.56812 -3.57008 0
M  V30 1959 O 185.535 -0.594803 -4.34043 0
M  V30 1960 C 187.036 1.20723 -4.26545 0
M  V30 1961 H 184.256 0.0300578 -0.670326 0
M  V30 1962 H 186.8 -0.551749 -1.96916 0
M  V30 1963 H 184.955 1.26564 -3.66143 0
M  V30 1964 H 185.369 -0.289322 -5.23701 0
M  V30 1965 H 186.843 1.41807 -5.33474 0
M  V30 1966 H 187.32 2.17395 -3.81623 0
M  V30 1967 H 187.926 0.550535 -4.21722 0
M  V30 1968 N 186.241 1.57166 -0.116904 0
M  V30 1969 C 187.487 1.95412 0.542405 0
M  V30 1970 C 187.82 1.00019 1.66463 0
M  V30 1971 O 187.095 0.0370346 1.94465 0
M  V30 1972 C 187.378 3.43615 1.07708 0
M  V30 1973 C 187.231 4.49781 -0.0415868 0
M  V30 1974 C 188.55 3.93616 1.96861 0
M  V30 1975 H 185.669 0.710543 0.195696 0
M  V30 1976 H 188.311 1.89027 -0.192038 0
M  V30 1977 H 186.461 3.49187 1.70296 0
M  V30 1978 H 188.133 4.56308 -0.676793 0
M  V30 1979 H 186.376 4.28033 -0.705019 0
M  V30 1980 H 187.047 5.50733 0.373717 0
M  V30 1981 H 189.523 3.90335 1.44146 0
M  V30 1982 H 188.399 4.97838 2.3119 0
M  V30 1983 H 188.66 3.34188 2.89432 0
M  V30 1984 N 187.719 -0.156864 1.56817 0
M  V30 1985 C 188.944 -0.890331 1.87318 0
M  V30 1986 C 189.369 -1.74394 0.704855 0
M  V30 1987 O 188.727 -1.77972 -0.345786 0
M  V30 1988 C 188.775 -1.73102 3.16336 0
M  V30 1989 O 187.879 -2.83422 2.99576 0
M  V30 1990 H 187.22 -0.24857 0.615718 0
M  V30 1991 H 189.75 -0.150649 2.04045 0
M  V30 1992 H 189.76 -2.12803 3.48107 0
M  V30 1993 H 188.435 -1.10412 4.00976 0
M  V30 1994 H 187.012 -2.47199 2.7919 0
M  V30 1995 N 189.197 -1.51736 -0.425897 0
M  V30 1996 C 190.446 -1.64201 -1.17136 0
M  V30 1997 C 190.759 -0.369705 -1.92074 0
M  V30 1998 O 191.965 -0.373898 -2.68913 0
M  V30 1999 C 190.421 -2.90035 -2.13091 0
M  V30 2000 C 190.029 -4.24312 -1.43747 0
M  V30 2001 C 191.773 -3.1186 -2.87999 0
M  V30 2002 C 189.68 -5.41285 -2.38253 0
M  V30 2003 H 188.61 -0.611624 -0.440944 0
M  V30 2004 H 191.261 -1.78212 -0.437328 0
M  V30 2005 H 189.643 -2.69684 -2.89977 0
M  V30 2006 H 190.817 -4.55086 -0.723408 0
M  V30 2007 H 189.132 -4.08456 -0.809465 0
M  V30 2008 H 191.729 -3.96427 -3.58817 0
M  V30 2009 H 192.072 -2.25403 -3.49999 0
M  V30 2010 H 192.605 -3.32605 -2.18217 0
M  V30 2011 H 189.344 -6.30037 -1.80925 0
M  V30 2012 H 188.864 -5.14872 -3.0768 0
M  V30 2013 H 190.543 -5.73694 -2.99139 0
M  V30 2014 N 190.675 0.682077 -1.42076 0
M  V30 2015 C 191.605 1.80796 -1.47767 0
M  V30 2016 C 192.586 1.6677 -0.334954 0
M  V30 2017 O 193.771 1.863 -0.548264 0
M  V30 2018 C 190.901 3.19038 -1.37229 0
M  V30 2019 C 189.855 3.47789 -2.49453 0
M  V30 2020 C 189.181 4.8553 -2.23975 0
M  V30 2021 C 190.481 3.45411 -3.91776 0
M  V30 2022 H 192.175 1.7629 -2.41997 0
M  V30 2023 H 189.721 0.846721 -1.16476 0
M  V30 2024 H 191.674 3.97528 -1.39821 0
M  V30 2025 H 190.398 3.24204 -0.394907 0
M  V30 2026 H 189.057 2.71657 -2.46166 0
M  V30 2027 H 188.705 4.87337 -1.24547 0
M  V30 2028 H 188.405 5.0573 -2.99184 0
M  V30 2029 H 189.929 5.66312 -2.28304 0
M  V30 2030 H 191.343 4.13882 -3.96705 0
M  V30 2031 H 189.74 3.77145 -4.66778 0
M  V30 2032 H 190.81 2.44122 -4.18966 0
M  V30 2033 N 192.153 1.28127 0.917671 0
M  V30 2034 C 193.378 1.18007 1.70555 0
M  V30 2035 C 193.803 -0.258257 1.86319 0
M  V30 2036 O 193.161 -1.1869 1.37049 0
M  V30 2037 C 193.209 1.87948 3.07746 0
M  V30 2038 O 192.313 1.18427 3.9503 0
M  V30 2039 H 191.654 0.409867 0.522403 0
M  V30 2040 H 194.184 1.69379 1.1477 0
M  V30 2041 H 194.194 1.95701 3.58001 0
M  V30 2042 H 192.869 2.92573 2.95591 0
M  V30 2043 H 191.446 1.18811 3.53466 0
M  V30 2044 N 193.631 -1.12557 1.10312 0
M  V30 2045 C 194.561 -2.20341 0.772798 0
M  V30 2046 C 195.542 -1.68198 -0.25365 0
M  V30 2047 O 196.727 -1.93831 -0.119699 0
M  V30 2048 C 193.857 -3.46709 0.202443 0
M  V30 2049 C 192.811 -4.11996 1.15943 0
M  V30 2050 C 192.137 -5.328 0.450345 0
M  V30 2051 C 193.437 -4.5828 2.50552 0
M  V30 2052 H 195.131 -2.48229 1.674 0
M  V30 2053 H 192.677 -1.19308 0.806326 0
M  V30 2054 H 194.63 -4.2138 -0.0407752 0
M  V30 2055 H 193.354 -3.18245 -0.734001 0
M  V30 2056 H 192.013 -3.39305 1.38808 0
M  V30 2057 H 191.661 -5.00602 -0.490531 0
M  V30 2058 H 191.361 -5.7743 1.08851 0
M  V30 2059 H 192.885 -6.10219 0.215642 0
M  V30 2060 H 194.299 -5.2433 2.31843 0
M  V30 2061 H 192.696 -5.13683 3.10242 0
M  V30 2062 H 193.766 -3.72329 3.10643 0
M  V30 2063 N 195.109 -0.891671 -1.2995 0
M  V30 2064 C 196.355 -0.514261 -1.96171 0
M  V30 2065 C 196.688 0.935506 -1.70182 0
M  V30 2066 O 195.963 1.66204 -1.01028 0
M  V30 2067 C 196.246 -0.797719 -3.51153 0
M  V30 2068 C 196.099 -2.2986 -3.86632 0
M  V30 2069 C 197.418 -0.278749 -4.39216 0
M  V30 2070 H 194.537 -0.188314 -0.712535 0
M  V30 2071 H 197.179 -1.11689 -1.53706 0
M  V30 2072 H 195.329 -0.284826 -3.87455 0
M  V30 2073 H 197.001 -2.88042 -3.60319 0
M  V30 2074 H 195.244 -2.76257 -3.34462 0
M  V30 2075 H 195.915 -2.44753 -4.94773 0
M  V30 2076 H 198.391 -0.717825 -4.09862 0
M  V30 2077 H 197.267 -0.506353 -5.46559 0
M  V30 2078 H 197.528 0.820266 -4.34424 0
M  V30 2079 N 196.587 1.43421 -0.653314 0
M  V30 2080 C 197.517 2.33487 0.0246656 0
M  V30 2081 C 198.498 1.49475 0.811863 0
M  V30 2082 O 199.683 1.78139 0.773322 0
M  V30 2083 C 196.813 3.32841 0.99166 0
M  V30 2084 C 195.767 4.26842 0.314568 0
M  V30 2085 C 195.093 5.16236 1.39302 0
M  V30 2086 C 196.393 5.16243 -0.793095 0
M  V30 2087 H 198.087 2.90427 -0.727481 0
M  V30 2088 H 195.633 1.39649 -0.351287 0
M  V30 2089 H 197.586 3.94747 1.47487 0
M  V30 2090 H 196.31 2.74158 1.77497 0
M  V30 2091 H 194.969 3.663 -0.148199 0
M  V30 2092 H 194.617 4.53891 2.16776 0
M  V30 2093 H 194.317 5.79948 0.945223 0
M  V30 2094 H 195.841 5.81015 1.87759 0
M  V30 2095 H 197.255 5.71958 -0.392039 0
M  V30 2096 H 195.652 5.88676 -1.16536 0
M  V30 2097 H 196.722 4.55927 -1.65103 0
M  V30 2098 N 198.065 0.39524 1.52563 0
M  V30 2099 C 199.311 -0.185318 2.01952 0
M  V30 2100 C 199.644 -1.45964 1.28095 0
M  V30 2101 O 198.919 -1.90689 0.38315 0
M  V30 2102 C 199.202 -0.447193 3.57312 0
M  V30 2103 C 199.055 0.842828 4.41833 0
M  V30 2104 C 200.374 -1.23529 4.22408 0
M  V30 2105 H 197.493 -0.0658788 0.73405 0
M  V30 2106 H 200.135 0.525975 1.82575 0
M  V30 2107 H 198.285 -1.05312 3.73954 0
M  V30 2108 H 199.957 1.4795 4.36931 0
M  V30 2109 H 198.2 1.45686 4.08605 0
M  V30 2110 H 198.871 0.614165 5.48573 0
M  V30 2111 H 201.347 -0.722445 4.0978 0
M  V30 2112 H 200.223 -1.38727 5.3108 0
M  V30 2113 H 200.484 -2.25213 3.80436 0
M  V30 2114 N 199.544 -1.57102 0.125237 0
M  V30 2115 C 200.507 -2.14471 -0.80838 0
M  V30 2116 C 201.507 -1.0811 -1.19033 0
M  V30 2117 O 202.697 -1.33856 -1.11482 0
M  V30 2118 C 199.829 -2.69005 -2.09402 0
M  V30 2119 H 201.022 -2.98297 -0.309696 0
M  V30 2120 H 198.575 -1.55807 -0.124051 0
M  V30 2121 H 199.31 -1.88785 -2.63687 0
M  V30 2122 H 199.095 -3.46799 -1.82957 0
M  V30 2123 H 200.585 -3.13278 -2.76128 0
M  V30 2124 N 201.022 0.148545 -1.56898 0
M  V30 2125 C 201.952 1.18524 -2.01182 0
M  V30 2126 C 202.933 1.4489 -0.891123 0
M  V30 2127 O 204.118 1.55836 -1.15882 0
M  V30 2128 C 201.248 2.51879 -2.39112 0
M  V30 2129 C 200.202 2.40038 -3.54353 0
M  V30 2130 C 199.528 3.78089 -3.78091 0
M  V30 2131 C 200.828 1.88577 -4.87069 0
M  V30 2132 H 202.522 0.817029 -2.88036 0
M  V30 2133 H 200.068 0.391575 -1.38574 0
M  V30 2134 H 202.021 3.24627 -2.68692 0
M  V30 2135 H 200.745 2.90532 -1.49193 0
M  V30 2136 H 199.404 1.69742 -3.24936 0
M  V30 2137 H 199.052 4.14175 -2.85426 0
M  V30 2138 H 198.752 3.71028 -4.55645 0
M  V30 2139 H 200.276 4.52387 -4.10095 0
M  V30 2140 H 201.69 2.51117 -5.15377 0
M  V30 2141 H 200.087 1.9241 -5.68417 0
M  V30 2142 H 201.157 0.84136 -4.77545 0
M  V30 2143 N 202.5 1.5196 0.417844 0
M  V30 2144 C 203.41 1.77554 1.53336 0
M  V30 2145 C 204.426 0.660655 1.6097 0
M  V30 2146 O 205.602 0.945099 1.77848 0
M  V30 2147 C 202.667 1.91291 2.89152 0
M  V30 2148 C 201.728 3.15183 2.91475 0
M  V30 2149 C 200.961 3.28256 4.20813 0
M  V30 2150 O 201.184 2.46798 5.14244 0
M  V30 2151 O 200.118 4.21356 4.29817 0
M  V30 2152 H 203.944 2.7222 1.34647 0
M  V30 2153 H 201.529 1.36698 0.602828 0
M  V30 2154 H 203.411 2.02199 3.69721 0
M  V30 2155 H 202.086 0.998129 3.07927 0
M  V30 2156 H 200.993 3.09739 2.09791 0
M  V30 2157 H 202.326 4.06414 2.77648 0
M  V30 2158 N 203.978 -0.674533 1.42435 0
M  V30 2159 C 205.394 -0.98769 1.25367 0
M  V30 2160 C 205.594 -2.00879 0.158044 0
M  V30 2161 O 204.65 -2.48075 -0.470633 0
M  V30 2162 C 205.963 -1.49224 2.6106 0
M  V30 2163 C 207.511 -1.61 2.68417 0
M  V30 2164 C 207.986 -2.14852 4.04478 0
M  V30 2165 N 209.477 -2.22185 4.06434 0
M  V30 2166 C 210.212 -2.64928 5.08528 0
M  V30 2167 N 209.708 -3.07121 6.21006 0
M  V30 2168 N 211.501 -2.64679 4.95885 0
M  V30 2169 H 203.652 0.00152503 2.124 0
M  V30 2170 H 205.915 -0.0618434 0.945981 0
M  V30 2171 H 205.621 -0.816453 3.42092 0
M  V30 2172 H 205.495 -2.47094 2.84999 0
M  V30 2173 H 207.882 -2.27686 1.87732 0
M  V30 2174 H 207.963 -0.616195 2.48267 0
M  V30 2175 H 207.607 -1.48775 4.85622 0
M  V30 2176 H 207.537 -3.15024 4.2198 0
M  V30 2177 H 210.028 -1.92435 3.25234 0
M  V30 2178 H 210.341 -3.38423 6.94759 0
M  V30 2179 H 208.686 -3.04978 6.24511 0
M  V30 2180 H 211.877 -2.31078 4.07088 0
M  V30 2181 H 212.05 -2.9767 5.75584 0
M  V30 2182 N 205.456 -1.28612 -0.910864 0
M  V30 2183 C 206.406 -1.09423 -2.00026 0
M  V30 2184 C 207.39 -0.0170079 -1.60891 0
M  V30 2185 O 208.582 -0.237472 -1.754 0
M  V30 2186 C 205.711 -0.76114 -3.34756 0
M  V30 2187 C 204.797 -1.87735 -3.80285 0
M  V30 2188 N 205.188 -3.11938 -3.98156 0
M  V30 2189 C 203.486 -1.76786 -4.09467 0
M  V30 2190 C 204.187 -3.84687 -4.36338 0
M  V30 2191 N 203.163 -3.12555 -4.44759 0
M  V30 2192 H 206.965 -2.03658 -2.11898 0
M  V30 2193 H 204.479 -1.19573 -1.09891 0
M  V30 2194 H 206.476 -0.604743 -4.12491 0
M  V30 2195 H 205.136 0.173403 -3.24237 0
M  V30 2196 H 206.147 -3.47516 -3.83996 0
M  V30 2197 H 202.824 -0.905284 -4.07567 0
M  V30 2198 H 204.214 -4.91518 -4.58104 0
M  V30 2199 N 206.934 1.1197 -1.10907 0
M  V30 2200 C 207.866 2.17592 -0.720175 0
M  V30 2201 C 208.879 1.60938 0.245495 0
M  V30 2202 O 210.068 1.78476 0.0292245 0
M  V30 2203 C 207.168 3.38873 -0.0427917 0
M  V30 2204 C 206.341 4.25006 -1.03388 0
M  V30 2205 C 205.4 5.24774 -0.387075 0
M  V30 2206 O 204.426 5.59631 -1.03934 0
M  V30 2207 N 205.628 5.74208 0.852407 0
M  V30 2208 H 208.393 2.51567 -1.62893 0
M  V30 2209 H 205.954 1.27439 -0.998543 0
M  V30 2210 H 207.946 4.02703 0.401501 0
M  V30 2211 H 206.516 3.03007 0.768456 0
M  V30 2212 H 205.736 3.57716 -1.65629 0
M  V30 2213 H 207.024 4.79397 -1.70458 0
M  V30 2214 H 206.422 5.48062 1.40161 0
M  V30 2215 H 204.979 6.39901 1.23977 0
M  V30 2216 N 208.412 0.89855 1.29475 0
M  V30 2217 C 209.342 0.39201 2.30186 0
M  V30 2218 C 210.323 -0.532359 1.61555 0
M  V30 2219 O 211.508 -0.443331 1.89072 0
M  V30 2220 C 208.638 -0.382353 3.45189 0
M  V30 2221 C 207.592 0.451483 4.25612 0
M  V30 2222 C 206.918 -0.450307 5.328 0
M  V30 2223 C 208.218 1.70079 4.93832 0
M  V30 2224 H 209.912 1.23362 2.72804 0
M  V30 2225 H 207.458 0.594638 1.31149 0
M  V30 2226 H 209.411 -0.747451 4.14718 0
M  V30 2227 H 208.135 -1.25774 3.01411 0
M  V30 2228 H 206.794 0.798897 3.57789 0
M  V30 2229 H 206.442 -1.32379 4.85268 0
M  V30 2230 H 206.142 0.103902 5.87508 0
M  V30 2231 H 207.666 -0.811623 6.05182 0
M  V30 2232 H 209.08 1.40549 5.55805 0
M  V30 2233 H 207.477 2.19623 5.58467 0
M  V30 2234 H 208.547 2.43744 4.19186 0
M  V30 2235 N 209.89 -1.43072 0.660911 0
M  V30 2236 C 211.139 -2.00942 0.174735 0
M  V30 2237 C 211.452 -1.52797 -1.22117 0
M  V30 2238 O 212.658 -2.02991 -1.80297 0
M  V30 2239 C 211.114 -3.58948 0.261559 0
M  V30 2240 C 210.722 -4.16085 1.66064 0
M  V30 2241 C 212.466 -4.24173 -0.166617 0
M  V30 2242 C 210.373 -5.6641 1.70098 0
M  V30 2243 H 209.303 -0.751483 0.0615631 0
M  V30 2244 H 211.954 -1.63955 0.824069 0
M  V30 2245 H 210.336 -3.93372 -0.455421 0
M  V30 2246 H 211.51 -3.93147 2.40359 0
M  V30 2247 H 209.825 -3.6326 2.03546 0
M  V30 2248 H 212.422 -5.34471 -0.156433 0
M  V30 2249 H 212.765 -3.98647 -1.19943 0
M  V30 2250 H 213.298 -3.94659 0.498875 0
M  V30 2251 H 210.037 -5.96715 2.71315 0
M  V30 2252 H 209.557 -5.91382 1.00139 0
M  V30 2253 H 211.236 -6.30585 1.44816 0
M  V30 2254 N 211.368 -0.403325 -1.52352 0
M  V30 2255 C 212.617 0.175668 -2.00934 0
M  V30 2256 C 212.93 1.46718 -1.29356 0
M  V30 2257 O 214.136 2.12708 -1.68724 0
M  V30 2258 C 212.592 0.363612 -3.58058 0
M  V30 2259 C 212.2 -0.915472 -4.38547 0
M  V30 2260 C 213.944 0.89821 -4.14888 0
M  V30 2261 C 211.851 -0.695035 -5.87302 0
M  V30 2262 H 210.781 0.0694234 -0.750797 0
M  V30 2263 H 213.432 -0.527879 -1.75743 0
M  V30 2264 H 211.814 1.12935 -3.79555 0
M  V30 2265 H 212.988 -1.68691 -4.28812 0
M  V30 2266 H 211.303 -1.37606 -3.93006 0
M  V30 2267 H 213.9 1.07907 -5.23699 0
M  V30 2268 H 214.243 1.87126 -3.71873 0
M  V30 2269 H 214.776 0.191681 -3.97338 0
M  V30 2270 H 211.515 -1.63948 -6.34666 0
M  V30 2271 H 211.035 0.0372116 -5.99788 0
M  V30 2272 H 212.714 -0.33497 -6.46132 0
M  V30 2273 N 212.846 1.57033 -0.133567 0
M  V30 2274 C 213.794 2.17348 0.828412 0
M  V30 2275 C 214.788 1.12671 1.26498 0
M  V30 2276 O 215.994 1.30947 1.23502 0
M  V30 2277 H 212.369 0.695775 0.285309 0
M  V30 2278 H 214.34 2.96935 0.295372 0
M  V30 2279 C 213.089 2.79893 2.06289 0
M  V30 2280 H 212.412 3.60147 1.73592 0
M  V30 2281 H 213.852 3.25615 2.71572 0
M  V30 2282 C 212.311 1.77713 2.86216 0
M  V30 2283 O 212.841 1.23937 3.82103 0
M  V30 2284 N 211.047 1.47321 2.50489 0
M  V30 2285 H 210.594 1.91243 1.7258 0
M  V30 2286 H 210.552 0.79199 3.04261 0
M  V30 2287 N 214.325 -0.140222 1.56975 0
M  V30 2288 C 215.736 -0.699596 1.73097 0
M  V30 2289 C 216.087 -1.8134 0.749022 0
M  V30 2290 O 215.212 -2.16241 -0.0828503 0
M  V30 2291 C 215.807 -1.27582 3.1386 0
M  V30 2292 C 214.366 -1.78169 3.31561 0
M  V30 2293 C 213.513 -0.672855 2.69013 0
M  V30 2294 H 216.464 0.0855115 1.58469 0
M  V30 2295 H 216.485 -2.14561 3.14235 0
M  V30 2296 H 215.997 -0.464955 3.85305 0
M  V30 2297 H 214.098 -2.61801 2.65124 0
M  V30 2298 H 214.211 -1.90574 4.39566 0
M  V30 2299 H 212.575 -1.10118 2.29665 0
M  V30 2300 H 213.358 0.126679 3.43066 0
M  V30 2301 N 215.803 -1.52179 -0.40978 0
M  V30 2302 C 217.031 -1.70054 -1.17853 0
M  V30 2303 C 217.446 -0.409735 -1.843 0
M  V30 2304 O 216.803 0.614183 -1.71855 0
M  V30 2305 C 216.854 -2.83568 -2.24213 0
M  V30 2306 O 216.575 -4.0765 -1.60478 0
M  V30 2307 C 218.076 -3.12947 -3.13973 0
M  V30 2308 H 215.296 -0.569917 -0.354169 0
M  V30 2309 H 217.84 -1.98734 -0.482198 0
M  V30 2310 H 215.995 -2.57409 -2.89516 0
M  V30 2311 H 216.409 -4.70899 -2.30986 0
M  V30 2312 H 217.883 -3.95889 -3.84677 0
M  V30 2313 H 218.36 -2.26472 -3.76307 0
M  V30 2314 H 218.966 -3.40868 -2.5434 0
M  V30 2315 N 217.281 0.66697 -1.42791 0
M  V30 2316 C 218.529 1.42417 -1.43394 0
M  V30 2317 C 218.85 1.94925 -0.0542373 0
M  V30 2318 O 218.12 1.73564 0.908415 0
M  V30 2319 H 216.7 0.528515 -0.527902 0
M  V30 2320 H 219.362 0.787562 -1.78279 0
M  V30 2321 H 218.458 2.27333 -2.13837 0
M  V30 2322 N 218.759 1.29093 0.90403 0
M  V30 2323 C 220.005 1.17996 1.65676 0
M  V30 2324 C 220.36 -0.266816 1.90541 0
M  V30 2325 O 219.653 -1.19 1.50165 0
M  V30 2326 C 219.847 1.92224 3.01305 0
M  V30 2327 C 219.676 3.43972 2.89678 0
M  V30 2328 C 218.446 4.1332 2.90679 0
M  V30 2329 C 220.644 4.39546 2.67028 0
M  V30 2330 N 218.626 5.51463 2.69743 0
M  V30 2331 C 219.997 5.65119 2.5503 0
M  V30 2332 C 222.052 4.29359 2.52101 0
M  V30 2333 C 220.755 6.81663 2.29626 0
M  V30 2334 C 222.781 5.4565 2.28079 0
M  V30 2335 C 222.143 6.70193 2.16843 0
M  V30 2336 H 218.242 0.486759 0.612037 0
M  V30 2337 H 220.826 1.62868 1.06688 0
M  V30 2338 H 218.997 1.49773 3.58361 0
M  V30 2339 H 220.729 1.73429 3.65656 0
M  V30 2340 H 217.484 3.64984 3.01801 0
M  V30 2341 H 217.908 6.24105 2.6234 0
M  V30 2342 H 222.55 3.33769 2.59534 0
M  V30 2343 H 220.268 7.77313 2.20932 0
M  V30 2344 H 223.854 5.39664 2.1738 0
M  V30 2345 H 222.734 7.58659 1.98511 0
M  V30 2346 N 220.237 -1.11381 1.11499 0
M  V30 2347 C 221.184 -2.17439 0.773887 0
M  V30 2348 C 222.154 -1.64132 -0.254899 0
M  V30 2349 O 223.339 -1.90345 -0.13168 0
M  V30 2350 C 220.479 -3.44373 0.223917 0
M  V30 2351 C 219.592 -4.1168 1.30934 0
M  V30 2352 C 218.727 -5.263 0.71984 0
M  V30 2353 C 217.766 -5.85493 1.78507 0
M  V30 2354 N 216.903 -6.91507 1.21502 0
M  V30 2355 H 221.743 -2.45962 1.68246 0
M  V30 2356 H 219.28 -1.20744 0.840191 0
M  V30 2357 H 221.238 -4.17047 -0.112921 0
M  V30 2358 H 219.868 -3.16232 -0.647851 0
M  V30 2359 H 218.92 -3.37073 1.76312 0
M  V30 2360 H 220.232 -4.51729 2.11524 0
M  V30 2361 H 219.386 -6.05785 0.333094 0
M  V30 2362 H 218.125 -4.87559 -0.117377 0
M  V30 2363 H 217.13 -5.04686 2.18111 0
M  V30 2364 H 218.355 -6.26301 2.62533 0
M  V30 2365 H 216.301 -6.54783 0.399455 0
M  V30 2366 H 216.218 -7.30214 1.95763 0
M  V30 2367 H 217.486 -7.74795 0.855181 0
M  V30 2368 N 221.715 -0.905404 -1.28997 0
M  V30 2369 C 223.126 -0.581953 -1.77398 0
M  V30 2370 C 223.477 0.902552 -1.74208 0
M  V30 2371 O 222.602 1.70584 -1.33154 0
M  V30 2372 C 223.197 -1.04961 -3.22131 0
M  V30 2373 C 221.756 -0.777229 -3.68288 0
M  V30 2374 C 220.903 -1.22109 -2.48967 0
M  V30 2375 H 223.854 -1.08754 -1.15578 0
M  V30 2376 H 223.875 -0.387387 -3.78523 0
M  V30 2377 H 223.387 -2.13008 -3.24421 0
M  V30 2378 H 221.488 0.290383 -3.71467 0
M  V30 2379 H 221.601 -1.37911 -4.58822 0
M  V30 2380 H 219.965 -0.639971 -2.46529 0
M  V30 2381 H 220.748 -2.30972 -2.53982 0
M  V30 2382 N 223.193 1.4272 -0.668489 0
M  V30 2383 C 224.418 2.06484 -0.194758 0
M  V30 2384 C 224.843 1.49862 1.13679 0
M  V30 2385 O 224.201 0.614582 1.70565 0
M  V30 2386 C 224.249 3.60353 -0.133546 0
M  V30 2387 O 223.353 4.02464 0.899806 0
M  V30 2388 H 222.694 0.656137 -0.10188 0
M  V30 2389 H 225.224 1.82964 -0.915722 0
M  V30 2390 H 225.234 4.07976 0.0447041 0
M  V30 2391 H 223.909 4.00938 -1.1055 0
M  V30 2392 H 222.486 3.66402 0.693109 0
M  V30 2393 N 224.671 0.411399 1.52136 0
M  V30 2394 C 225.92 -0.165009 2.01024 0
M  V30 2395 C 226.233 -1.4603 1.30133 0
M  V30 2396 O 227.439 -2.1181 1.69849 0
M  V30 2397 C 225.895 -0.344618 3.58246 0
M  V30 2398 C 225.503 0.938716 4.38055 0
M  V30 2399 C 227.247 -0.876195 4.15359 0
M  V30 2400 C 225.154 0.726172 5.86925 0
M  V30 2401 H 224.084 -0.0654407 0.751155 0
M  V30 2402 H 226.735 0.537192 1.75461 0
M  V30 2403 H 225.117 -1.10921 3.80148 0
M  V30 2404 H 226.291 1.70963 4.27912 0
M  V30 2405 H 224.606 1.39688 3.92271 0
M  V30 2406 H 227.203 -1.05128 5.24263 0
M  V30 2407 H 227.546 -1.85152 3.7286 0
M  V30 2408 H 228.079 -0.170607 3.97434 0
M  V30 2409 H 224.818 1.67312 6.33788 0
M  V30 2410 H 224.338 -0.00540283 5.998 0
M  V30 2411 H 226.017 0.369231 6.45946 0
M  V30 2412 N 226.149 -1.5696 0.141893 0
M  V30 2413 C 227.374 -2.00754 -0.520838 0
M  V30 2414 C 227.799 -1.0213 -1.57959 0
M  V30 2415 O 227.157 0.00371324 -1.813 0
M  V30 2416 C 227.205 -3.43318 -1.10294 0
M  V30 2417 O 226.309 -3.47679 -2.21795 0
M  V30 2418 H 225.65 -0.651564 -0.127908 0
M  V30 2419 H 228.18 -2.03221 0.23712 0
M  V30 2420 H 228.19 -3.82012 -1.43287 0
M  V30 2421 H 226.865 -4.14608 -0.327574 0
M  V30 2422 H 225.442 -3.20824 -1.9007 0
M  V30 2423 N 227.627 0.131896 -1.57047 0
M  V30 2424 C 228.559 1.1878 -1.9602 0
M  V30 2425 C 229.572 1.38363 -0.857875 0
M  V30 2426 O 230.761 1.37666 -1.13623 0
M  V30 2427 C 227.861 2.55008 -2.23213 0
M  V30 2428 C 227.034 2.56201 -3.54513 0
M  V30 2429 C 226.093 3.7408 -3.70069 0
M  V30 2430 O 225.119 3.58258 -4.42312 0
M  V30 2431 N 226.321 4.92137 -3.07866 0
M  V30 2432 H 229.086 0.85639 -2.87204 0
M  V30 2433 H 226.647 0.321309 -1.5868 0
M  V30 2434 H 228.639 3.32404 -2.30846 0
M  V30 2435 H 227.209 2.80382 -1.3822 0
M  V30 2436 H 226.429 1.64613 -3.58185 0
M  V30 2437 H 227.717 2.54043 -4.4084 0
M  V30 2438 H 227.115 5.07895 -2.49116 0
M  V30 2439 H 225.672 5.67254 -3.21039 0
M  V30 2440 N 229.106 1.52395 0.401703 0
M  V30 2441 C 230.069 1.75636 1.47257 0
M  V30 2442 C 231.069 0.62628 1.48103 0
M  V30 2443 O 232.259 0.894227 1.49497 0
M  V30 2444 C 229.391 1.84553 2.86624 0
M  V30 2445 H 230.584 2.71241 1.27938 0
M  V30 2446 H 228.137 1.42923 0.632662 0
M  V30 2447 H 228.872 0.908882 3.11303 0
M  V30 2448 H 228.657 2.66715 2.87412 0
M  V30 2449 H 230.147 2.04251 3.64241 0
M  V30 2450 N 230.584 -0.659388 1.43143 0
M  V30 2451 C 231.814 -1.44513 1.47646 0
M  V30 2452 C 232.222 -1.88981 0.0910095 0
M  V30 2453 O 231.565 -1.59702 -0.907789 0
M  V30 2454 C 231.627 -2.71663 2.35456 0
M  V30 2455 C 231.291 -2.49175 3.83094 0
M  V30 2456 C 232.288 -2.1279 4.74359 0
M  V30 2457 C 229.973 -2.63691 4.27519 0
M  V30 2458 C 231.967 -1.9121 6.08044 0
M  V30 2459 C 229.654 -2.41726 5.61259 0
M  V30 2460 C 230.652 -2.0554 6.51339 0
M  V30 2461 O 230.34 -1.838 7.82606 0
M  V30 2462 H 230.072 -0.45064 0.503884 0
M  V30 2463 H 232.626 -0.816248 1.88485 0
M  V30 2464 H 230.856 -3.37089 1.89493 0
M  V30 2465 H 232.545 -3.33595 2.31235 0
M  V30 2466 H 233.311 -2.01157 4.41317 0
M  V30 2467 H 229.19 -2.90832 3.57684 0
M  V30 2468 H 232.734 -1.62889 6.78316 0
M  V30 2469 H 228.631 -2.52959 5.9387 0
M  V30 2470 H 229.399 -1.98275 7.94122 0
M  V30 2471 N 232.062 -1.29571 -0.897171 0
M  V30 2472 C 232.992 -1.17473 -2.01798 0
M  V30 2473 C 233.973 -0.068323 -1.69963 0
M  V30 2474 O 235.158 -0.248239 -1.92607 0
M  V30 2475 C 232.288 -0.853099 -3.36659 0
M  V30 2476 C 231.242 -1.9161 -3.82713 0
M  V30 2477 C 230.568 -1.44773 -5.14728 0
M  V30 2478 C 231.868 -3.32535 -4.02763 0
M  V30 2479 H 233.562 -2.11237 -2.12177 0
M  V30 2480 H 231.108 -1.01699 -1.01948 0
M  V30 2481 H 233.061 -0.755165 -4.14578 0
M  V30 2482 H 231.785 0.120236 -3.26379 0
M  V30 2483 H 230.444 -2.00346 -3.07013 0
M  V30 2484 H 230.092 -0.462995 -5.00865 0
M  V30 2485 H 229.792 -2.15865 -5.46513 0
M  V30 2486 H 231.316 -1.36334 -5.95185 0
M  V30 2487 H 232.73 -3.26626 -4.71156 0
M  V30 2488 H 231.127 -4.01607 -4.45905 0
M  V30 2489 H 232.197 -3.75326 -3.07016 0
M  V30 2490 N 233.54 1.10788 -1.12088 0
M  V30 2491 C 234.788 1.8231 -0.872205 0
M  V30 2492 C 235.109 1.85419 0.603709 0
M  V30 2493 O 234.379 1.32963 1.43867 0
M  V30 2494 H 232.959 0.675137 -0.319686 0
M  V30 2495 H 235.621 1.34068 -1.41463 0
M  V30 2496 H 234.717 2.85955 -1.25045 0
M  V30 2497 N 235.018 0.912232 1.28515 0
M  V30 2498 C 236.267 0.540504 1.94323 0
M  V30 2499 C 236.58 -0.920044 1.72611 0
M  V30 2500 O 237.786 -1.39986 2.32629 0
M  V30 2501 C 236.242 0.915803 3.48053 0
M  V30 2502 C 235.85 2.39598 3.78546 0
M  V30 2503 C 237.594 0.614588 4.20027 0
M  V30 2504 C 235.501 2.71148 5.25578 0
M  V30 2505 H 234.431 0.198418 0.727424 0
M  V30 2506 H 237.082 1.11094 1.46049 0
M  V30 2507 H 235.464 0.274168 3.9505 0
M  V30 2508 H 236.638 3.08422 3.42364 0
M  V30 2509 H 234.953 2.66749 3.1974 0
M  V30 2510 H 237.55 0.827002 5.28266 0
M  V30 2511 H 237.893 -0.447531 4.13887 0
M  V30 2512 H 238.426 1.21462 3.78803 0
M  V30 2513 H 235.165 3.76207 5.36794 0
M  V30 2514 H 234.685 2.0696 5.62963 0
M  V30 2515 H 236.364 2.58072 5.93302 0
M  V30 2516 N 236.496 -1.42363 0.676048 0
M  V30 2517 C 237.742 -2.0182 0.199125 0
M  V30 2518 C 238.075 -1.53339 -1.19168 0
M  V30 2519 O 237.35 -0.736124 -1.80032 0
M  V30 2520 C 237.633 -3.59331 0.235144 0
M  V30 2521 C 237.486 -4.17989 1.66149 0
M  V30 2522 C 238.805 -4.3813 -0.41595 0
M  V30 2523 H 235.924 -0.733293 0.0738311 0
M  V30 2524 H 238.566 -1.69368 0.86107 0
M  V30 2525 H 236.716 -3.87109 -0.328487 0
M  V30 2526 H 238.388 -4.0116 2.27747 0
M  V30 2527 H 236.631 -3.7377 2.20178 0
M  V30 2528 H 237.302 -5.27126 1.63837 0
M  V30 2529 H 239.778 -4.16051 0.0638529 0
M  V30 2530 H 238.654 -5.47717 -0.360115 0
M  V30 2531 H 238.915 -4.16101 -1.49373 0
M  V30 2532 N 237.974 -0.419461 -1.51915 0
M  V30 2533 C 238.904 0.391813 -2.30189 0
M  V30 2534 C 239.885 1.03699 -1.34836 0
M  V30 2535 O 241.07 1.04403 -1.63748 0
M  V30 2536 C 238.2 1.50312 -3.13087 0
M  V30 2537 C 237.154 0.9824 -4.16573 0
M  V30 2538 C 236.48 2.18809 -4.8788 0
M  V30 2539 C 237.78 0.0292356 -5.22292 0
M  V30 2540 H 239.474 -0.26135 -2.98257 0
M  V30 2541 H 237.02 -0.127134 -1.43438 0
M  V30 2542 H 238.973 2.07773 -3.66617 0
M  V30 2543 H 237.697 2.18431 -2.42807 0
M  V30 2544 H 236.356 0.430119 -3.64068 0
M  V30 2545 H 236.004 2.85507 -4.14119 0
M  V30 2546 H 235.704 1.84615 -5.57845 0
M  V30 2547 H 237.228 2.76858 -5.44226 0
M  V30 2548 H 238.642 0.512976 -5.71 0
M  V30 2549 H 237.039 -0.2244 -5.9968 0
M  V30 2550 H 238.109 -0.912931 -4.76228 0
M  V30 2551 N 239.452 1.56882 -0.150215 0
M  V30 2552 C 240.701 1.95403 0.500071 0
M  V30 2553 C 241.014 1.03777 1.658 0
M  V30 2554 O 242.22 1.31889 2.37313 0
M  V30 2555 C 240.676 3.4738 0.941018 0
M  V30 2556 C 240.284 4.47596 -0.190158 0
M  V30 2557 C 242.028 3.9476 1.56091 0
M  V30 2558 C 239.935 5.90787 0.269237 0
M  V30 2559 H 238.865 0.729515 0.190588 0
M  V30 2560 H 241.516 1.81988 -0.235074 0
M  V30 2561 H 239.898 3.56138 1.73152 0
M  V30 2562 H 241.072 4.50536 -0.967157 0
M  V30 2563 H 239.387 4.10151 -0.718666 0
M  V30 2564 H 241.984 4.99181 1.9163 0
M  V30 2565 H 242.327 3.36494 2.45107 0
M  V30 2566 H 242.86 3.88932 0.835249 0
M  V30 2567 H 239.599 6.52879 -0.585621 0
M  V30 2568 H 239.119 5.912 1.01204 0
M  V30 2569 H 240.798 6.42979 0.720176 0
M  V30 2570 N 240.93 -0.123565 1.57115 0
M  V30 2571 C 242.176 -0.828428 1.85765 0
M  V30 2572 C 242.531 -1.77709 0.737371 0
M  V30 2573 O 241.824 -1.89787 -0.262978 0
M  V30 2574 C 242.018 -1.62016 3.18568 0
M  V30 2575 C 241.847 -0.749663 4.43407 0
M  V30 2576 C 240.617 -0.406251 5.03664 0
M  V30 2577 C 242.815 -0.0693505 5.14253 0
M  V30 2578 N 240.797 0.475389 6.12057 0
M  V30 2579 C 242.168 0.671474 6.16353 0
M  V30 2580 C 244.223 0.00754393 4.97899 0
M  V30 2581 C 242.926 1.48197 7.03868 0
M  V30 2582 C 244.952 0.804845 5.85898 0
M  V30 2583 C 244.314 1.53388 6.87497 0
M  V30 2584 H 240.413 -0.280219 0.73007 0
M  V30 2585 H 242.997 -0.0924183 1.94481 0
M  V30 2586 H 241.168 -2.32724 3.10957 0
M  V30 2587 H 242.9 -2.27 3.35042 0
M  V30 2588 H 239.655 -0.747446 4.67665 0
M  V30 2589 H 240.079 0.907924 6.70884 0
M  V30 2590 H 244.721 -0.541741 4.19315 0
M  V30 2591 H 242.439 2.04242 7.81864 0
M  V30 2592 H 246.025 0.866642 5.75309 0
M  V30 2593 H 244.905 2.1409 7.5441 0
M  V30 2594 N 242.408 -1.52605 -0.393616 0
M  V30 2595 C 243.654 -1.67672 -1.14079 0
M  V30 2596 C 243.987 -0.413121 -1.89755 0
M  V30 2597 O 243.262 0.588952 -1.85369 0
M  V30 2598 C 243.545 -2.9088 -2.12276 0
M  V30 2599 C 243.398 -4.27329 -1.40394 0
M  V30 2600 C 244.717 -3.09628 -3.12759 0
M  V30 2601 H 241.836 -0.610168 -0.413356 0
M  V30 2602 H 244.478 -1.85193 -0.424696 0
M  V30 2603 H 242.628 -2.76073 -2.73342 0
M  V30 2604 H 244.3 -4.53894 -0.82327 0
M  V30 2605 H 242.543 -4.2802 -0.705801 0
M  V30 2606 H 243.214 -5.09615 -2.12123 0
M  V30 2607 H 245.69 -3.23436 -2.61779 0
M  V30 2608 H 244.566 -3.97322 -3.78717 0
M  V30 2609 H 244.827 -2.23637 -3.81365 0
M  V30 2610 N 243.887 0.651787 -1.4349 0
M  V30 2611 C 245.136 1.40754 -1.44469 0
M  V30 2612 C 245.449 1.95463 -0.0731845 0
M  V30 2613 O 246.655 2.71471 0.0395721 0
M  V30 2614 C 245.111 2.54735 -2.5424 0
M  V30 2615 C 244.719 2.06628 -3.97504 0
M  V30 2616 C 246.463 3.32092 -2.64414 0
M  V30 2617 C 244.37 3.17829 -4.98737 0
M  V30 2618 H 243.3 0.528862 -0.53742 0
M  V30 2619 H 245.951 0.703365 -1.69485 0
M  V30 2620 H 244.333 3.2763 -2.22428 0
M  V30 2621 H 245.507 1.40734 -4.38783 0
M  V30 2622 H 243.822 1.42146 -3.91387 0
M  V30 2623 H 246.419 4.14952 -3.37223 0
M  V30 2624 H 246.762 3.80217 -1.69532 0
M  V30 2625 H 247.295 2.66279 -2.95534 0
M  V30 2626 H 244.034 2.74671 -5.95177 0
M  V30 2627 H 243.554 3.82429 -4.62069 0
M  V30 2628 H 245.233 3.82937 -5.21505 0
M  V30 2629 N 245.365 1.30045 0.890287 0
M  V30 2630 C 246.328 1.15963 1.977 0
M  V30 2631 C 247.328 0.0923777 1.60534 0
M  V30 2632 O 248.518 0.340071 1.70848 0
M  V30 2633 C 245.65 0.775451 3.31963 0
M  V30 2634 H 246.843 2.12502 2.11619 0
M  V30 2635 H 244.396 1.13366 1.07601 0
M  V30 2636 H 245.131 -0.189671 3.23745 0
M  V30 2637 H 244.916 1.54668 3.60306 0
M  V30 2638 H 246.406 0.700251 4.11687 0
M  V30 2639 N 246.843 -1.10192 1.12674 0
M  V30 2640 C 248.083 -1.83825 0.893736 0
M  V30 2641 C 248.447 -1.83341 -0.570082 0
M  V30 2642 O 249.648 -2.52553 -0.920354 0
M  V30 2643 C 247.919 -3.26405 1.45582 0
M  V30 2644 S 249.478 -4.17136 1.36171 0
M  V30 2645 H 246.296 -0.633732 0.322342 0
M  V30 2646 H 248.898 -1.32581 1.43675 0
M  V30 2647 H 247.602 -3.24329 2.51473 0
M  V30 2648 H 247.133 -3.82721 0.910405 0
M  V30 2649 H 249.148 -4.95069 0.334863 0
M  V30 2650 N 248.321 -0.919034 -1.28029 0
M  V30 2651 C 249.567 -0.555757 -1.95036 0
M  V30 2652 C 249.9 0.899198 -1.72128 0
M  V30 2653 O 249.175 1.64023 -1.04531 0
M  V30 2654 C 249.458 -0.872024 -3.49382 0
M  V30 2655 C 249.311 -2.3801 -3.81669 0
M  V30 2656 C 250.63 -0.37185 -4.38526 0
M  V30 2657 H 247.749 -0.203386 -0.708381 0
M  V30 2658 H 250.391 -1.14924 -1.51303 0
M  V30 2659 H 248.541 -0.366946 -3.86763 0
M  V30 2660 H 250.213 -2.9562 -3.54128 0
M  V30 2661 H 248.456 -2.83289 -3.28526 0
M  V30 2662 H 249.127 -2.55192 -4.8947 0
M  V30 2663 H 251.603 -0.804602 -4.08247 0
M  V30 2664 H 250.479 -0.622173 -5.45362 0
M  V30 2665 H 250.74 0.727934 -4.36066 0
M  V30 2666 N 249.799 1.42003 -0.683588 0
M  V30 2667 C 250.729 2.33487 -0.024866 0
M  V30 2668 C 251.71 1.51163 0.779975 0
M  V30 2669 O 252.895 1.79739 0.735362 0
M  V30 2670 C 250.025 3.3487 0.920836 0
M  V30 2671 C 248.979 4.27414 0.223958 0
M  V30 2672 C 248.305 5.19074 1.2832 0
M  V30 2673 C 249.605 5.14445 -0.90242 0
M  V30 2674 H 251.299 2.88819 -0.788921 0
M  V30 2675 H 248.845 1.38873 -0.38083 0
M  V30 2676 H 250.798 3.97787 1.39081 0
M  V30 2677 H 249.522 2.77861 1.71642 0
M  V30 2678 H 248.181 3.65904 -0.225864 0
M  V30 2679 H 247.829 4.58387 2.071 0
M  V30 2680 H 247.529 5.81822 0.821995 0
M  V30 2681 H 249.053 5.84867 1.75392 0
M  V30 2682 H 250.467 5.70998 -0.513272 0
M  V30 2683 H 248.864 5.86072 -1.28997 0
M  V30 2684 H 249.934 4.52322 -1.74737 0
M  V30 2685 N 251.277 0.427512 1.51691 0
M  V30 2686 C 252.502 -0.143601 2.06902 0
M  V30 2687 C 252.927 -1.36536 1.29382 0
M  V30 2688 O 252.285 -1.78289 0.329043 0
M  V30 2689 C 252.333 -0.454207 3.57728 0
M  V30 2690 O 251.437 -1.54228 3.82475 0
M  V30 2691 H 250.778 -0.00617128 0.663971 0
M  V30 2692 H 253.308 0.606014 1.95419 0
M  V30 2693 H 253.318 -0.707525 4.01818 0
M  V30 2694 H 251.993 0.438812 4.13579 0
M  V30 2695 H 250.57 -1.2797 3.50254 0
M  V30 2696 N 252.755 -1.56801 0.158532 0
M  V30 2697 C 253.685 -2.20347 -0.772609 0
M  V30 2698 C 254.666 -1.15518 -1.24859 0
M  V30 2699 O 255.851 -1.43902 -1.30406 0
M  V30 2700 C 252.981 -2.83417 -2.00729 0
M  V30 2701 C 251.935 -3.94174 -1.66765 0
M  V30 2702 C 251.261 -4.44233 -2.97592 0
M  V30 2703 C 252.561 -5.14392 -0.905447 0
M  V30 2704 H 254.255 -2.98413 -0.242959 0
M  V30 2705 H 251.801 -1.43537 -0.115419 0
M  V30 2706 H 253.754 -3.26543 -2.6636 0
M  V30 2707 H 252.478 -2.02701 -2.56086 0
M  V30 2708 H 251.137 -3.51684 -1.03508 0
M  V30 2709 H 250.785 -3.60325 -3.50963 0
M  V30 2710 H 250.485 -5.18945 -2.75626 0
M  V30 2711 H 252.009 -4.90037 -3.64274 0
M  V30 2712 H 253.423 -5.5429 -1.46408 0
M  V30 2713 H 251.82 -5.9494 -0.7853 0
M  V30 2714 H 252.89 -4.84795 0.100668 0
M  V30 2715 N 254.233 0.115231 -1.57178 0
M  V30 2716 C 255.644 0.67197 -1.74188 0
M  V30 2717 C 255.995 1.80125 -0.777777 0
M  V30 2718 O 255.12 2.16346 0.0484376 0
M  V30 2719 C 255.715 1.22573 -3.1585 0
M  V30 2720 C 254.274 1.72872 -3.34353 0
M  V30 2721 C 253.421 0.629972 -2.70049 0
M  V30 2722 H 256.372 -0.110712 -1.58313 0
M  V30 2723 H 256.393 2.09535 -3.17609 0
M  V30 2724 H 255.905 0.403598 -3.85996 0
M  V30 2725 H 254.006 2.5755 -2.69256 0
M  V30 2726 H 254.119 1.83557 -4.42542 0
M  V30 2727 H 252.483 1.0645 -2.31388 0
M  V30 2728 H 253.266 -0.181241 -3.42821 0
M  V30 2729 N 255.711 1.52812 0.385517 0
M  V30 2730 C 256.958 1.68026 1.1302 0
M  V30 2731 C 257.286 0.421934 1.89868 0
M  V30 2732 O 256.541 -0.595749 1.86412 0
M  V30 2733 C 256.84 2.86856 2.13187 0
M  V30 2734 C 256.506 4.24159 1.5297 0
M  V30 2735 C 255.168 4.61501 1.36274 0
M  V30 2736 C 257.52 5.09627 1.09223 0
M  V30 2737 C 254.848 5.81966 0.743837 0
M  V30 2738 C 257.2 6.30719 0.487411 0
M  V30 2739 C 255.864 6.6679 0.307777 0
M  V30 2740 H 255.134 0.614849 0.413571 0
M  V30 2741 H 257.781 1.86962 0.414405 0
M  V30 2742 H 256.086 2.6235 2.90998 0
M  V30 2743 H 257.783 2.95821 2.70722 0
M  V30 2744 H 254.373 3.94746 1.66954 0
M  V30 2745 H 258.557 4.81343 1.20922 0
M  V30 2746 H 253.813 6.08519 0.592891 0
M  V30 2747 H 257.987 6.96259 0.140143 0
M  V30 2748 H 255.614 7.60001 -0.173879 0
M  V30 2749 N 257.189 -0.644168 1.43834 0
M  V30 2750 C 258.119 -1.76814 1.52509 0
M  V30 2751 C 259.1 -1.65823 0.379052 0
M  V30 2752 O 260.285 -1.84781 0.597466 0
M  V30 2753 C 257.415 -3.15288 1.4564 0
M  V30 2754 C 256.369 -3.41053 2.58586 0
M  V30 2755 C 255.695 -4.79421 2.36769 0
M  V30 2756 C 256.995 -3.34902 4.00797 0
M  V30 2757 H 258.689 -1.69812 2.46586 0
M  V30 2758 H 256.235 -0.815542 1.1868 0
M  V30 2759 H 258.188 -3.93681 1.50311 0
M  V30 2760 H 256.912 -3.23043 0.480725 0
M  V30 2761 H 255.571 -2.65035 2.53282 0
M  V30 2762 H 255.219 -4.83863 1.37424 0
M  V30 2763 H 254.919 -4.9762 3.12487 0
M  V30 2764 H 256.443 -5.6006 2.43238 0
M  V30 2765 H 257.857 -4.03218 4.07539 0
M  V30 2766 H 256.254 -3.64637 4.76613 0
M  V30 2767 H 257.324 -2.32928 4.25291 0
M  V30 2768 N 258.668 -1.30515 -0.883378 0
M  V30 2769 C 259.631 -1.1701 -1.97082 0
M  V30 2770 C 260.631 -0.10089 -1.60483 0
M  V30 2771 O 261.821 -0.349127 -1.70666 0
M  V30 2772 C 258.953 -0.793045 -3.31547 0
M  V30 2773 H 260.146 -2.13622 -2.10489 0
M  V30 2774 H 257.699 -1.13935 -1.06998 0
M  V30 2775 H 258.434 0.172499 -3.23841 0
M  V30 2776 H 258.219 -1.56576 -3.5948 0
M  V30 2777 H 259.709 -0.722073 -4.1131 0
M  V30 2778 N 260.146 1.09593 -1.13257 0
M  V30 2779 C 261.094 2.18271 -0.803783 0
M  V30 2780 C 262.088 1.68054 0.213148 0
M  V30 2781 O 263.294 1.79862 0.0704699 0
M  V30 2782 H 259.669 0.711949 -0.242143 0
M  V30 2783 H 261.64 2.43235 -1.72856 0
M  V30 2784 C 260.389 3.46536 -0.28424 0
M  V30 2785 H 259.712 3.85545 -1.05807 0
M  V30 2786 H 261.152 4.23899 -0.0925945 0
M  V30 2787 C 259.611 3.22036 0.989684 0
M  V30 2788 O 260.141 3.44509 2.06584 0
M  V30 2789 N 258.347 2.7565 0.920086 0
M  V30 2790 H 257.894 2.57562 0.0442019 0
M  V30 2791 H 257.852 2.59635 1.77306 0
M  V30 2792 N 261.624 0.925811 1.2754 0
M  V30 2793 C 262.849 0.580924 1.99098 0
M  V30 2794 C 263.274 -0.833555 1.68622 0
M  V30 2795 O 262.632 -1.55903 0.925422 0
M  V30 2796 C 262.68 0.811186 3.51358 0
M  V30 2797 O 261.784 -0.124129 4.12213 0
M  V30 2798 H 261.125 0.223873 0.625122 0
M  V30 2799 H 263.655 1.24455 1.62395 0
M  V30 2800 H 263.665 0.72601 4.01489 0
M  V30 2801 H 262.34 1.84227 3.72872 0
M  V30 2802 H 260.917 0.0108006 3.72898 0
M  V30 2803 N 263.102 -1.41638 0.69111 0
M  V30 2804 C 264.351 -2.00526 0.217318 0
M  V30 2805 C 264.664 -1.55353 -1.18848 0
M  V30 2806 O 265.87 -2.06769 -1.75951 0
M  V30 2807 C 264.326 -3.58313 0.337639 0
M  V30 2808 C 263.934 -4.12469 1.74852 0
M  V30 2809 C 265.678 -4.24431 -0.0766066 0
M  V30 2810 C 263.585 -5.62675 1.82074 0
M  V30 2811 H 262.515 -0.750008 0.0774893 0
M  V30 2812 H 265.166 -1.6217 0.858661 0
M  V30 2813 H 263.548 -3.9425 -0.371879 0
M  V30 2814 H 264.722 -3.8796 2.48644 0
M  V30 2815 H 263.037 -3.58861 2.11205 0
M  V30 2816 H 265.634 -5.34683 -0.0430284 0
M  V30 2817 H 265.977 -4.01101 -1.1146 0
M  V30 2818 H 266.51 -3.93512 0.582476 0
M  V30 2819 H 263.249 -5.90826 2.83911 0
M  V30 2820 H 262.769 -5.89124 1.12661 0
M  V30 2821 H 264.448 -6.27371 1.58159 0
M  V30 2822 N 264.58 -0.43555 -1.51462 0
M  V30 2823 C 265.51 0.367376 -2.30592 0
M  V30 2824 C 266.491 1.02263 -1.35928 0
M  V30 2825 O 267.676 1.02661 -1.64847 0
M  V30 2826 C 264.806 1.46983 -3.14664 0
M  V30 2827 C 263.76 0.938161 -4.17591 0
M  V30 2828 C 263.086 2.13622 -4.90173 0
M  V30 2829 C 264.386 -0.0261621 -5.22293 0
M  V30 2830 H 266.08 -0.292969 -2.97963 0
M  V30 2831 H 263.626 -0.14234 -1.43295 0
M  V30 2832 H 265.579 2.03873 -3.688 0
M  V30 2833 H 264.303 2.15843 -2.4511 0
M  V30 2834 H 262.962 0.391481 -3.64504 0
M  V30 2835 H 262.61 2.81098 -4.17124 0
M  V30 2836 H 262.31 1.78688 -5.59772 0
M  V30 2837 H 263.834 2.7107 -5.47132 0
M  V30 2838 H 265.248 0.452384 -5.71512 0
M  V30 2839 H 263.645 -0.287992 -5.99409 0
M  V30 2840 H 264.715 -0.963391 -4.75233 0
M  V30 2841 N 266.058 1.56714 -0.166846 0
M  V30 2842 C 266.968 2.21331 0.777791 0
M  V30 2843 C 267.984 1.20358 1.25658 0
M  V30 2844 O 269.16 1.53005 1.30964 0
M  V30 2845 C 266.225 2.83787 1.99163 0
M  V30 2846 C 265.286 3.99947 1.56016 0
M  V30 2847 C 264.519 4.59415 2.71613 0
M  V30 2848 O 264.742 4.17769 3.88362 0
M  V30 2849 O 263.676 5.49359 2.45945 0
M  V30 2850 H 267.502 3.02605 0.257636 0
M  V30 2851 H 265.087 1.49275 0.0611393 0
M  V30 2852 H 266.969 3.23405 2.70161 0
M  V30 2853 H 265.644 2.05513 2.50092 0
M  V30 2854 H 264.551 3.65007 0.819809 0
M  V30 2855 H 265.884 4.79801 1.09782 0
M  V30 2856 N 267.536 -0.106894 1.57237 0
M  V30 2857 C 268.484 -1.14944 2.02215 0
M  V30 2858 C 269.478 -1.42167 0.92114 0
M  V30 2859 O 270.684 -1.41987 1.10634 0
M  V30 2860 H 267.059 -0.387841 0.64427 0
M  V30 2861 H 269.03 -0.743683 2.88984 0
M  V30 2862 C 267.779 -2.4647 2.4525 0
M  V30 2863 H 267.102 -2.26363 3.29545 0
M  V30 2864 H 268.542 -3.17948 2.80508 0
M  V30 2865 C 267.001 -3.09921 1.321 0
M  V30 2866 O 267.531 -3.9651 0.643622 0
M  V30 2867 N 265.737 -2.69986 1.07497 0
M  V30 2868 H 265.284 -1.99667 1.62761 0
M  V30 2869 H 265.242 -3.12769 0.319876 0
M  V30 2870 N 269.014 -1.53014 -0.377408 0
M  V30 2871 C 270.26 -1.68872 -1.12294 0
M  V30 2872 C 270.593 -0.433224 -1.89306 0
M  V30 2873 O 269.868 0.569258 -1.85983 0
M  V30 2874 C 270.151 -2.93115 -2.09179 0
M  V30 2875 C 270.004 -4.28794 -1.35853 0
M  V30 2876 C 271.323 -3.12928 -3.09458 0
M  V30 2877 H 268.442 -0.614518 -0.406862 0
M  V30 2878 H 271.084 -1.85633 -0.40503 0
M  V30 2879 H 269.234 -2.78956 -2.70399 0
M  V30 2880 H 270.906 -4.54742 -0.775082 0
M  V30 2881 H 269.149 -4.28744 -0.660364 0
M  V30 2882 H 269.82 -5.11837 -2.06706 0
M  V30 2883 H 272.296 -3.26194 -2.58334 0
M  V30 2884 H 271.172 -4.01316 -3.74482 0
M  V30 2885 H 271.433 -2.27669 -3.78971 0
M  V30 2886 N 270.492 0.636531 -1.44174 0
M  V30 2887 C 271.739 1.39619 -1.46672 0
M  V30 2888 C 272.067 1.94257 -0.0972691 0
M  V30 2889 O 271.322 1.73768 0.900175 0
M  V30 2890 C 271.621 2.58309 -2.47005 0
M  V30 2891 C 271.287 2.21992 -3.92467 0
M  V30 2892 C 269.949 2.118 -4.32081 0
M  V30 2893 C 272.301 1.9321 -4.84065 0
M  V30 2894 C 269.629 1.71007 -5.61225 0
M  V30 2895 C 271.981 1.53911 -6.13591 0
M  V30 2896 C 270.645 1.42257 -6.52165 0
M  V30 2897 H 269.915 0.510902 -0.536712 0
M  V30 2898 H 272.562 0.722328 -1.77355 0
M  V30 2899 H 270.867 3.30903 -2.09786 0
M  V30 2900 H 272.564 3.16533 -2.46186 0
M  V30 2901 H 269.154 2.30841 -3.61124 0
M  V30 2902 H 273.338 1.99997 -4.54219 0
M  V30 2903 H 268.594 1.60583 -5.89935 0
M  V30 2904 H 272.768 1.30677 -6.8403 0
M  V30 2905 H 270.395 1.10419 -7.52138 0
M  V30 2906 N 271.97 1.30982 0.876444 0
M  V30 2907 C 272.92 1.14688 1.97055 0
M  V30 2908 C 273.904 0.0596593 1.60789 0
M  V30 2909 O 275.096 0.283892 1.74708 0
M  V30 2910 C 272.225 0.849627 3.3262 0
M  V30 2911 C 271.311 1.97752 3.75173 0
M  V30 2912 N 271.702 3.22384 3.89746 0
M  V30 2913 C 270 1.8758 4.04635 0
M  V30 2914 C 270.701 3.96121 4.25985 0
M  V30 2915 N 269.677 3.24237 4.36315 0
M  V30 2916 H 273.479 2.09204 2.06424 0
M  V30 2917 H 270.993 1.22445 1.06682 0
M  V30 2918 H 272.99 0.713895 4.10742 0
M  V30 2919 H 271.65 -0.087376 3.24582 0
M  V30 2920 H 272.661 3.57575 3.74647 0
M  V30 2921 H 269.338 1.01303 4.05024 0
M  V30 2922 H 270.728 5.03491 4.44911 0
M  V30 2923 N 273.449 -1.08991 1.13837 0
M  V30 2924 C 274.396 -2.15748 0.819835 0
M  V30 2925 C 275.366 -1.64636 -0.220026 0
M  V30 2926 O 276.551 -1.90582 -0.0912757 0
M  V30 2927 C 273.691 -3.4382 0.296913 0
M  V30 2928 C 272.804 -4.0881 1.39636 0
M  V30 2929 C 271.939 -5.24655 0.831314 0
M  V30 2930 C 270.978 -5.81575 1.90886 0
M  V30 2931 N 270.115 -6.88774 1.36142 0
M  V30 2932 H 274.955 -2.42338 1.73426 0
M  V30 2933 H 272.492 -1.18935 0.865613 0
M  V30 2934 H 274.45 -4.17193 -0.0244339 0
M  V30 2935 H 273.08 -3.17535 -0.580628 0
M  V30 2936 H 272.132 -3.33258 1.83422 0
M  V30 2937 H 273.444 -4.47141 2.21058 0
M  V30 2938 H 272.598 -6.04942 0.461515 0
M  V30 2939 H 271.337 -4.87698 -0.013932 0
M  V30 2940 H 270.342 -4.99946 2.28767 0
M  V30 2941 H 271.567 -6.20592 2.75758 0
M  V30 2942 H 269.513 -6.53788 0.538254 0
M  V30 2943 H 269.43 -7.25898 2.11208 0
M  V30 2944 H 270.698 -7.72806 1.01933 0
M  V30 2945 N 274.927 -0.932562 -1.27047 0
M  V30 2946 C 275.875 -0.42603 -2.28665 0
M  V30 2947 C 276.869 0.49219 -1.62092 0
M  V30 2948 O 278.075 0.371355 -1.76128 0
M  V30 2949 H 274.45 -0.119213 -0.742491 0
M  V30 2950 H 276.421 -1.29579 -2.68797 0
M  V30 2951 C 275.17 0.301426 -3.46391 0
M  V30 2952 H 274.493 -0.39595 -3.97834 0
M  V30 2953 H 275.933 0.6202 -4.1944 0
M  V30 2954 C 274.392 1.51616 -3.00856 0
M  V30 2955 O 274.922 2.61476 -3.04948 0
M  V30 2956 N 273.128 1.36969 -2.56296 0
M  V30 2957 H 272.675 0.475873 -2.53166 0
M  V30 2958 H 272.633 2.18368 -2.26192 0
M  V30 2959 N 276.405 1.4127 -0.698611 0
M  V30 2960 C 277.355 2.27997 -0.0119836 0
M  V30 2961 C 278.339 1.42363 0.749765 0
M  V30 2962 O 279.531 1.65607 0.624758 0
M  V30 2963 C 276.66 3.30702 0.921458 0
M  V30 2964 C 275.746 4.23814 0.155796 0
M  V30 2965 N 276.137 4.98572 -0.852015 0
M  V30 2966 C 274.435 4.44284 0.390836 0
M  V30 2967 C 275.136 5.66744 -1.3106 0
M  V30 2968 N 274.112 5.39867 -0.635944 0
M  V30 2969 H 277.914 2.83232 -0.784649 0
M  V30 2970 H 275.428 1.53518 -0.529711 0
M  V30 2971 H 277.425 3.91661 1.42854 0
M  V30 2972 H 276.085 2.77028 1.69369 0
M  V30 2973 H 277.096 5.03024 -1.23235 0
M  V30 2974 H 273.773 4.01614 1.14071 0
M  V30 2975 H 275.163 6.36672 -2.14707 0
M  V30 2976 N 277.883 0.443576 1.51229 0
M  V30 2977 C 279.108 -0.121648 2.07043 0
M  V30 2978 C 279.533 -1.35156 1.30823 0
M  V30 2979 O 278.891 -1.7793 0.347934 0
M  V30 2980 C 278.939 -0.41624 3.5819 0
M  V30 2981 O 278.043 -1.50163 3.8409 0
M  V30 2982 H 277.384 0.000871367 0.663999 0
M  V30 2983 H 279.914 0.626706 1.94765 0
M  V30 2984 H 279.924 -0.664867 4.02546 0
M  V30 2985 H 278.599 0.482653 4.1309 0
M  V30 2986 H 277.176 -1.24248 3.51592 0
M  V30 2987 N 279.361 -1.56624 0.175154 0
M  V30 2988 C 280.308 -2.18149 -0.753634 0
M  V30 2989 C 281.278 -1.12265 -1.22417 0
M  V30 2990 O 282.463 -1.40432 -1.29165 0
M  V30 2991 C 279.603 -2.82933 -1.97592 0
M  V30 2992 C 278.716 -4.03289 -1.5486 0
M  V30 2993 C 277.851 -4.55988 -2.72485 0
M  V30 2994 C 276.89 -5.68746 -2.26262 0
M  V30 2995 N 276.027 -6.15938 -3.36994 0
M  V30 2996 H 280.867 -2.9717 -0.222195 0
M  V30 2997 H 278.404 -1.46774 -0.0979422 0
M  V30 2998 H 280.362 -3.18653 -2.69288 0
M  V30 2999 H 278.992 -2.06509 -2.481 0
M  V30 3000 H 278.044 -3.73364 -0.728246 0
M  V30 3001 H 279.356 -4.849 -1.16933 0
M  V30 3002 H 278.51 -4.9391 -3.52332 0
M  V30 3003 H 277.249 -3.73443 -3.13674 0
M  V30 3004 H 276.254 -5.30372 -1.44863 0
M  V30 3005 H 277.479 -6.53095 -1.86127 0
M  V30 3006 H 275.425 -5.36321 -3.77751 0
M  V30 3007 H 275.342 -6.92548 -3.03172 0
M  V30 3008 H 276.61 -6.58511 -4.17114 0
M  V30 3009 N 280.839 0.0985539 -1.57292 0
M  V30 3010 C 281.802 1.10402 -2.00858 0
M  V30 3011 C 282.802 1.33146 -0.901593 0
M  V30 3012 O 283.992 1.29318 -1.16716 0
M  V30 3013 C 281.124 2.45394 -2.36632 0
M  V30 3014 H 282.317 0.729099 -2.90902 0
M  V30 3015 H 279.87 0.343495 -1.52479 0
M  V30 3016 H 280.605 2.87769 -1.49531 0
M  V30 3017 H 280.39 2.30235 -3.17387 0
M  V30 3018 H 281.88 3.17718 -2.71007 0
M  V30 3019 N 282.317 1.53212 0.369288 0
M  V30 3020 C 283.247 1.82365 1.45826 0
M  V30 3021 C 284.228 0.676907 1.56051 0
M  V30 3022 O 285.413 0.926401 1.70679 0
M  V30 3023 C 282.543 2.01023 2.83208 0
M  V30 3024 C 281.497 3.1678 2.8781 0
M  V30 3025 C 280.823 3.20724 4.27832 0
M  V30 3026 C 282.123 4.55447 2.55667 0
M  V30 3027 H 283.817 2.73559 1.21678 0
M  V30 3028 H 281.363 1.3163 0.583911 0
M  V30 3029 H 283.316 2.20001 3.59413 0
M  V30 3030 H 282.04 1.06536 3.08736 0
M  V30 3031 H 280.699 2.97616 2.14056 0
M  V30 3032 H 280.347 2.23882 4.50429 0
M  V30 3033 H 280.047 3.98496 4.31827 0
M  V30 3034 H 281.571 3.41881 5.05915 0
M  V30 3035 H 282.985 4.74611 3.21586 0
M  V30 3036 H 281.382 5.35432 2.70984 0
M  V30 3037 H 282.452 4.60812 1.5093 0
M  V30 3038 N 283.795 -0.628877 1.44509 0
M  V30 3039 C 284.705 -1.7694 1.54044 0
M  V30 3040 C 285.721 -1.68705 0.425987 0
M  V30 3041 O 286.897 -1.89442 0.683656 0
M  V30 3042 C 283.962 -3.13332 1.48405 0
M  V30 3043 C 283.023 -3.33181 2.70719 0
M  V30 3044 C 282.256 -4.63067 2.6534 0
M  V30 3045 O 282.479 -5.44017 1.71469 0
M  V30 3046 O 281.413 -4.85167 3.56226 0
M  V30 3047 H 285.239 -1.71848 2.50403 0
M  V30 3048 H 282.824 -0.790378 1.26781 0
M  V30 3049 H 284.706 -3.94634 1.47791 0
M  V30 3050 H 283.381 -3.1896 0.551898 0
M  V30 3051 H 282.288 -2.51549 2.769 0
M  V30 3052 H 283.621 -3.32416 3.62988 0
M  V30 3053 N 285.273 -1.31445 -0.869486 0
M  V30 3054 C 286.52 -1.21158 -1.62256 0
M  V30 3055 C 286.848 0.230155 -1.93133 0
M  V30 3056 O 286.103 1.17906 -1.56194 0
M  V30 3057 C 286.402 -2.00145 -2.96102 0
M  V30 3058 C 286.068 -3.4964 -2.84715 0
M  V30 3059 C 284.73 -3.90403 -2.81317 0
M  V30 3060 C 287.082 -4.44769 -2.71716 0
M  V30 3061 C 284.41 -5.24561 -2.62778 0
M  V30 3062 C 286.762 -5.79054 -2.54714 0
M  V30 3063 C 285.426 -6.19037 -2.49699 0
M  V30 3064 H 284.696 -0.443348 -0.593737 0
M  V30 3065 H 287.343 -1.62715 -1.00976 0
M  V30 3066 H 285.648 -1.5127 -3.6142 0
M  V30 3067 H 287.345 -1.89566 -3.53363 0
M  V30 3068 H 283.935 -3.17256 -2.88178 0
M  V30 3069 H 288.119 -4.14208 -2.73397 0
M  V30 3070 H 283.375 -5.54613 -2.57321 0
M  V30 3071 H 287.549 -6.52393 -2.43632 0
M  V30 3072 H 285.176 -7.22935 -2.35093 0
M  V30 3073 N 286.751 1.08385 -1.14413 0
M  V30 3074 C 287.681 2.17321 -0.854044 0
M  V30 3075 C 288.662 1.69024 0.191049 0
M  V30 3076 O 289.847 1.94141 0.0476779 0
M  V30 3077 C 286.977 3.45719 -0.330983 0
M  V30 3078 C 285.931 4.07409 -1.31155 0
M  V30 3079 C 285.257 5.30762 -0.64778 0
M  V30 3080 C 286.557 4.48665 -2.67388 0
M  V30 3081 H 288.251 2.41845 -1.76498 0
M  V30 3082 H 285.797 1.16233 -0.850051 0
M  V30 3083 H 287.75 4.21241 -0.115645 0
M  V30 3084 H 286.474 3.2075 0.615381 0
M  V30 3085 H 285.133 3.33919 -1.51306 0
M  V30 3086 H 284.781 5.02078 0.304398 0
M  V30 3087 H 284.481 5.72992 -1.30207 0
M  V30 3088 H 286.005 6.08998 -0.441972 0
M  V30 3089 H 287.419 5.15364 -2.51143 0
M  V30 3090 H 285.816 5.01814 -3.29093 0
M  V30 3091 H 286.886 3.60543 -3.24248 0
M  V30 3092 N 288.23 0.939286 1.26551 0
M  V30 3093 C 289.193 0.451987 2.24699 0
M  V30 3094 C 290.193 -0.435869 1.5478 0
M  V30 3095 O 291.383 -0.235314 1.72603 0
M  V30 3096 C 288.515 -0.348801 3.39111 0
M  V30 3097 H 289.708 1.3193 2.69322 0
M  V30 3098 H 287.261 0.721072 1.38673 0
M  V30 3099 H 287.996 -1.23444 2.99887 0
M  V30 3100 H 287.781 0.287945 3.91041 0
M  V30 3101 H 289.271 -0.679726 4.12031 0
M  V30 3102 N 289.708 -1.40897 0.706093 0
M  V30 3103 C 290.985 -1.94868 0.169099 0
M  V30 3104 C 291.365 -1.64485 -1.32318 0
M  V30 3105 O 290.713 -0.95744 -2.07474 0
M  V30 3106 C 290.923 -3.45798 0.471654 0
M  V30 3107 C 292.271 -4.22663 0.405127 0
M  V30 3108 O 293.295 -3.53865 0.407168 0
M  V30 3109 O 292.154 -5.45216 0.374383 0
M  V30 3110 H 289.248 -0.82673 0.0211352 0
M  V30 3111 H 291.794 -1.50558 0.782976 0
M  V30 3112 H 290.566 -3.61235 1.50416 0
M  V30 3113 H 290.189 -3.97225 -0.172666 0
M  V30 3114 N 291.186 -0.45159 -1.50991 0
M  V30 3115 C 292.133 0.352625 -2.2809 0
M  V30 3116 C 293.103 1.0044 -1.32291 0
M  V30 3117 O 294.288 1.02058 -1.6121 0
M  V30 3118 C 291.428 1.43983 -3.13629 0
M  V30 3119 C 290.541 0.804772 -4.24438 0
M  V30 3120 C 289.676 1.86822 -4.97263 0
M  V30 3121 C 288.715 1.21236 -5.99973 0
M  V30 3122 N 287.852 2.2178 -6.66152 0
M  V30 3123 H 292.692 -0.311186 -2.96371 0
M  V30 3124 H 290.229 -0.165308 -1.46168 0
M  V30 3125 H 292.187 2.08161 -3.61559 0
M  V30 3126 H 290.817 2.07307 -2.47434 0
M  V30 3127 H 289.869 0.0509129 -3.80366 0
M  V30 3128 H 291.181 0.286076 -4.97979 0
M  V30 3129 H 290.335 2.58628 -5.48813 0
M  V30 3130 H 289.074 2.42068 -4.23385 0
M  V30 3131 H 288.079 0.479828 -5.47702 0
M  V30 3132 H 289.304 0.667051 -6.75816 0
M  V30 3133 H 287.25 2.76079 -5.95077 0
M  V30 3134 H 287.167 1.74841 -7.35504 0
M  V30 3135 H 288.435 2.93026 -7.22327 0
M  V30 3136 N 292.664 1.56529 -0.183458 0
M  V30 3137 C 293.91 1.97537 0.459036 0
M  V30 3138 C 294.243 1.06989 1.62071 0
M  V30 3139 O 293.518 0.11948 1.94133 0
M  V30 3140 C 293.801 3.47874 0.930368 0
M  V30 3141 C 293.654 4.492 -0.232317 0
M  V30 3142 C 294.973 4.01612 1.79989 0
M  V30 3143 H 292.092 0.718204 0.165383 0
M  V30 3144 H 294.734 1.88042 -0.272038 0
M  V30 3145 H 292.884 3.56095 1.55333 0
M  V30 3146 H 294.556 4.53027 -0.86972 0
M  V30 3147 H 292.799 4.24657 -0.885928 0
M  V30 3148 H 293.47 5.51823 0.139796 0
M  V30 3149 H 295.946 3.96097 1.27461 0
M  V30 3150 H 294.822 5.07195 2.09867 0
M  V30 3151 H 295.083 3.46163 2.74998 0
M  V30 3152 N 294.142 -0.090211 1.57342 0
M  V30 3153 C 295.388 -0.793982 1.86611 0
M  V30 3154 C 295.721 -1.78142 0.773252 0
M  V30 3155 O 294.996 -1.93271 -0.218304 0
M  V30 3156 C 295.279 -1.51839 3.26523 0
M  V30 3157 C 295.132 -0.548609 4.46442 0
M  V30 3158 C 296.451 -2.46779 3.64401 0
M  V30 3159 H 293.57 -0.287186 0.678744 0
M  V30 3160 H 296.212 -0.0575076 1.89913 0
M  V30 3161 H 294.362 -2.14617 3.23839 0
M  V30 3162 H 296.034 0.0725513 4.61243 0
M  V30 3163 H 294.277 0.137614 4.33582 0
M  V30 3164 H 294.948 -1.09271 5.41076 0
M  V30 3165 H 297.424 -1.94089 3.68061 0
M  V30 3166 H 296.3 -2.94479 4.63221 0
M  V30 3167 H 296.561 -3.30758 2.93346 0
M  V30 3168 N 295.62 -1.53406 -0.361157 0
M  V30 3169 C 296.86 -1.71507 -1.11197 0
M  V30 3170 C 297.224 -0.459337 -1.86425 0
M  V30 3171 O 298.425 -0.517102 -2.63779 0
M  V30 3172 C 296.696 -2.93307 -2.0422 0
M  V30 3173 S 298.255 -3.32135 -2.86761 0
M  V30 3174 H 295.073 -0.603448 -0.375995 0
M  V30 3175 H 297.675 -1.91516 -0.392642 0
M  V30 3176 H 296.379 -3.82891 -1.47724 0
M  V30 3177 H 295.91 -2.75712 -2.80618 0
M  V30 3178 H 297.925 -2.84493 -4.06544 0
M  V30 3179 N 297.098 0.621204 -1.44841 0
M  V30 3180 C 298.326 1.40752 -1.51646 0
M  V30 3181 C 298.741 1.88246 -0.144549 0
M  V30 3182 O 298.098 1.61422 0.851416 0
M  V30 3183 C 298.149 2.62119 -2.4895 0
M  V30 3184 O 297.87 2.16602 -3.80808 0
M  V30 3185 C 299.371 3.55135 -2.65319 0
M  V30 3186 H 296.591 0.431325 -0.514004 0
M  V30 3187 H 299.135 0.758835 -1.899 0
M  V30 3188 H 297.29 3.23058 -2.13805 0
M  V30 3189 H 297.704 2.95358 -4.33433 0
M  V30 3190 H 299.178 4.36874 -3.37409 0
M  V30 3191 H 299.655 4.04592 -1.70886 0
M  V30 3192 H 300.261 3.00058 -3.01405 0
M  V30 3193 N 298.576 1.31904 0.862503 0
M  V30 3194 C 299.486 1.22161 2.00285 0
M  V30 3195 C 300.502 0.136785 1.73462 0
M  V30 3196 O 301.678 0.355994 1.98229 0
M  V30 3197 C 298.743 0.937093 3.33796 0
M  V30 3198 C 297.804 2.10957 3.73893 0
M  V30 3199 C 297.037 1.83853 5.01033 0
M  V30 3200 O 297.26 0.777274 5.65079 0
M  V30 3201 O 296.194 2.69741 5.38074 0
M  V30 3202 H 300.02 2.18008 2.11439 0
M  V30 3203 H 297.605 1.11716 0.991957 0
M  V30 3204 H 299.487 0.794583 4.13841 0
M  V30 3205 H 298.162 0.00871894 3.23699 0
M  V30 3206 H 297.069 2.30752 2.94456 0
M  V30 3207 H 298.402 3.02046 3.88625 0
M  V30 3208 N 300.054 -1.07777 1.14986 0
M  V30 3209 C 301.279 -1.84558 0.946213 0
M  V30 3210 C 301.704 -1.81323 -0.500362 0
M  V30 3211 O 301.062 -1.20301 -1.35637 0
M  V30 3212 C 301.11 -3.29736 1.45968 0
M  V30 3213 O 300.214 -4.07149 0.65601 0
M  V30 3214 H 299.555 -0.571641 0.33782 0
M  V30 3215 H 302.085 -1.35991 1.52865 0
M  V30 3216 H 302.095 -3.80574 1.47063 0
M  V30 3217 H 300.77 -3.31406 2.51283 0
M  V30 3218 H 299.347 -3.65994 0.714322 0
M  V30 3219 N 301.532 -0.945985 -1.26051 0
M  V30 3220 C 302.778 -0.606539 -1.94146 0
M  V30 3221 C 303.133 0.84586 -1.72809 0
M  V30 3222 O 302.426 1.59781 -1.05738 0
M  V30 3223 C 302.62 -0.890475 -3.46129 0
M  V30 3224 C 302.449 -2.36892 -3.82246 0
M  V30 3225 C 301.219 -3.02494 -4.04753 0
M  V30 3226 C 303.417 -3.34772 -3.90425 0
M  V30 3227 N 301.399 -4.40302 -4.27794 0
M  V30 3228 C 302.77 -4.57855 -4.18054 0
M  V30 3229 C 304.825 -3.2973 -3.73072 0
M  V30 3230 C 303.528 -5.76522 -4.30134 0
M  V30 3231 C 305.554 -4.47727 -3.86386 0
M  V30 3232 C 304.916 -5.69593 -4.14419 0
M  V30 3233 H 301.015 -0.272407 -0.73302 0
M  V30 3234 H 303.599 -1.21638 -1.52027 0
M  V30 3235 H 301.77 -0.309638 -3.87164 0
M  V30 3236 H 303.502 -0.51181 -4.01451 0
M  V30 3237 H 300.257 -2.53095 -4.003 0
M  V30 3238 H 300.681 -5.11646 -4.43337 0
M  V30 3239 H 305.323 -2.36565 -3.50424 0
M  V30 3240 H 303.041 -6.70136 -4.51601 0
M  V30 3241 H 306.627 -4.45363 -3.74356 0
M  V30 3242 H 305.507 -6.59375 -4.24493 0
M  V30 3243 N 303.011 1.40521 -0.713556 0
M  V30 3244 C 304.422 1.83853 -0.324807 0
M  V30 3245 C 304.773 1.59667 1.14021 0
M  V30 3246 O 303.898 1.07649 1.87725 0
M  V30 3247 C 304.493 3.33751 -0.582746 0
M  V30 3248 C 303.052 3.75584 -0.247727 0
M  V30 3249 C 302.199 2.63753 -0.856121 0
M  V30 3250 H 305.15 1.29817 -0.91286 0
M  V30 3251 H 305.171 3.80194 0.152682 0
M  V30 3252 H 304.683 3.51322 -1.64908 0
M  V30 3253 H 302.784 3.63608 0.813624 0
M  V30 3254 H 302.897 4.7373 -0.715307 0
M  V30 3255 H 301.261 2.53108 -0.28432 0
M  V30 3256 H 302.044 2.84137 -1.92668 0
M  V30 3257 N 304.489 0.459591 1.5075 0
M  V30 3258 C 305.419 -0.330644 2.31147 0
M  V30 3259 C 306.4 -1.00087 1.37538 0
M  V30 3260 O 307.585 -1.00025 1.66459 0
M  V30 3261 C 304.715 -1.41958 3.16962 0
M  V30 3262 C 303.669 -0.871608 4.19031 0
M  V30 3263 C 302.995 -2.05797 4.9351 0
M  V30 3264 C 304.295 0.109251 5.22186 0
M  V30 3265 H 305.989 0.340336 2.97459 0
M  V30 3266 H 303.535 0.165119 1.4305 0
M  V30 3267 H 305.488 -1.9798 3.71997 0
M  V30 3268 H 304.212 -2.11917 2.48513 0
M  V30 3269 H 302.871 -0.333442 3.6508 0
M  V30 3270 H 302.519 -2.74427 4.21544 0
M  V30 3271 H 302.219 -1.6976 5.62544 0
M  V30 3272 H 303.743 -2.62331 5.51375 0
M  V30 3273 H 305.157 -0.361405 5.7216 0
M  V30 3274 H 303.554 0.383316 5.98875 0
M  V30 3275 H 304.624 1.03887 4.73641 0
M  V30 3276 N 305.967 -1.56429 0.191757 0
M  V30 3277 C 306.93 -2.17707 -0.716688 0
M  V30 3278 C 307.93 -1.13061 -1.14341 0
M  V30 3279 O 309.12 -1.38464 -1.05704 0
M  V30 3280 C 306.252 -2.77644 -1.97804 0
M  V30 3281 H 307.445 -2.99342 -0.1829 0
M  V30 3282 H 304.998 -1.56193 -0.0578566 0
M  V30 3283 H 305.733 -1.99799 -2.55443 0
M  V30 3284 H 305.518 -3.54246 -1.68083 0
M  V30 3285 H 307.008 -3.24708 -2.62592 0
M  V30 3286 N 307.445 0.0818655 -1.57387 0
M  V30 3287 C 308.395 1.10501 -1.99433 0
M  V30 3288 C 309.379 1.35041 -0.874798 0
M  V30 3289 O 310.571 1.35511 -1.13868 0
M  V30 3290 C 307.7 2.42159 -2.43339 0
M  V30 3291 C 306.786 2.20937 -3.62005 0
M  V30 3292 N 307.177 1.69616 -4.76512 0
M  V30 3293 C 305.475 2.51451 -3.68359 0
M  V30 3294 C 306.176 1.62973 -5.58404 0
M  V30 3295 N 305.152 2.08664 -5.01956 0
M  V30 3296 H 308.954 0.701373 -2.85408 0
M  V30 3297 H 306.468 0.289096 -1.59806 0
M  V30 3298 H 308.465 3.16208 -2.71695 0
M  V30 3299 H 307.125 2.83249 -1.58746 0
M  V30 3300 H 308.136 1.38624 -4.99003 0
M  V30 3301 H 304.813 2.95975 -2.94457 0
M  V30 3302 H 306.203 1.24233 -6.60315 0
M  V30 3303 N 308.923 1.53595 0.353017 0
M  V30 3304 C 309.873 1.77299 1.43349 0
M  V30 3305 C 310.857 0.627884 1.48143 0
M  V30 3306 O 312.049 0.88697 1.53173 0
M  V30 3307 C 309.178 1.97757 2.80619 0
M  V30 3308 C 308.264 3.18305 2.80254 0
M  V30 3309 N 308.655 4.39967 2.49526 0
M  V30 3310 C 306.953 3.19283 3.11407 0
M  V30 3311 C 307.654 5.21772 2.57156 0
M  V30 3312 N 306.63 4.58269 2.92388 0
M  V30 3313 H 310.432 2.68963 1.18474 0
M  V30 3314 H 307.946 1.52391 0.561306 0
M  V30 3315 H 309.943 2.1287 3.58458 0
M  V30 3316 H 308.603 1.07329 3.06448 0
M  V30 3317 H 309.614 4.67482 2.22893 0
M  V30 3318 H 306.291 2.3879 3.4247 0
M  V30 3319 H 307.681 6.2885 2.36638 0
M  V30 3320 N 310.401 -0.613514 1.45168 0
M  V30 3321 C 311.817 -0.933629 1.29443 0
M  V30 3322 C 312.017 -2.00028 0.243101 0
M  V30 3323 O 311.073 -2.49848 -0.364992 0
M  V30 3324 C 312.386 -1.38018 2.67155 0
M  V30 3325 C 313.934 -1.49471 2.75004 0
M  V30 3326 C 314.409 -1.97503 4.13227 0
M  V30 3327 N 315.9 -2.04746 4.15491 0
M  V30 3328 C 316.635 -2.43121 5.19307 0
M  V30 3329 N 316.131 -2.80506 6.33473 0
M  V30 3330 N 317.924 -2.43408 5.06664 0
M  V30 3331 H 310.075 0.0916097 2.12202 0
M  V30 3332 H 312.338 -0.0216655 0.947752 0
M  V30 3333 H 312.044 -0.670625 3.45247 0
M  V30 3334 H 311.918 -2.34784 2.95222 0
M  V30 3335 H 314.305 -2.19519 1.9722 0
M  V30 3336 H 314.386 -0.510342 2.50657 0
M  V30 3337 H 314.03 -1.28045 4.91495 0
M  V30 3338 H 313.96 -2.96843 4.34962 0
M  V30 3339 H 316.451 -1.78468 3.33103 0
M  V30 3340 H 316.764 -3.08652 7.08487 0
M  V30 3341 H 315.109 -2.78216 6.36884 0
M  V30 3342 H 318.3 -2.13604 4.16523 0
M  V30 3343 H 318.473 -2.72989 5.87691 0
M  V30 3344 N 311.879 -1.3236 -0.855495 0
M  V30 3345 C 313.107 -1.2587 -1.64208 0
M  V30 3346 C 313.522 0.173457 -1.88002 0
M  V30 3347 O 312.879 1.11027 -1.44842 0
M  V30 3348 C 312.93 -2.01424 -3.00184 0
M  V30 3349 O 312.651 -3.39051 -2.77445 0
M  V30 3350 C 314.152 -2.01948 -3.94629 0
M  V30 3351 H 311.372 -0.434318 -0.511477 0
M  V30 3352 H 313.916 -1.74469 -1.0668 0
M  V30 3353 H 312.071 -1.56549 -3.5436 0
M  V30 3354 H 312.485 -3.77711 -3.63916 0
M  V30 3355 H 313.959 -2.59297 -4.87308 0
M  V30 3356 H 314.436 -1.00554 -4.27534 0
M  V30 3357 H 315.042 -2.46767 -3.4639 0
M  V30 3358 N 313.357 1.07166 -1.15556 0
M  V30 3359 C 314.606 1.79181 -0.926132 0
M  V30 3360 C 314.919 1.87768 0.547967 0
M  V30 3361 O 316.125 2.56323 0.895036 0
M  V30 3362 C 314.581 3.22 -1.60761 0
M  V30 3363 C 314.189 3.21607 -3.11886 0
M  V30 3364 C 315.933 3.9861 -1.4598 0
M  V30 3365 C 313.84 4.59092 -3.72812 0
M  V30 3366 H 312.77 0.67154 -0.342856 0
M  V30 3367 H 315.421 1.2027 -1.3859 0
M  V30 3368 H 313.803 3.81115 -1.07553 0
M  V30 3369 H 314.977 2.72127 -3.71865 0
M  V30 3370 H 313.292 2.58495 -3.2645 0
M  V30 3371 H 315.889 5.00225 -1.88888 0
M  V30 3372 H 316.232 4.143 -0.407541 0
M  V30 3373 H 316.765 3.45996 -1.96295 0
M  V30 3374 H 313.504 4.48606 -4.77946 0
M  V30 3375 H 313.024 5.08803 -3.17616 0
M  V30 3376 H 314.703 5.28059 -3.73848 0
M  V30 3377 N 314.835 0.952656 1.25548 0
M  V30 3378 C 316.065 0.622592 1.96996 0
M  V30 3379 C 316.473 -0.809112 1.71026 0
M  V30 3380 O 315.816 -1.55258 0.981861 0
M  V30 3381 C 315.878 0.798946 3.5051 0
M  V30 3382 C 315.542 2.20744 4.00151 0
M  V30 3383 C 316.539 3.18394 4.11001 0
M  V30 3384 C 314.224 2.5311 4.33867 0
M  V30 3385 C 316.218 4.46504 4.54877 0
M  V30 3386 C 313.905 3.8145 4.7743 0
M  V30 3387 C 314.903 4.77959 4.87897 0
M  V30 3388 O 314.591 6.04012 5.30494 0
M  V30 3389 H 314.323 0.232503 0.634758 0
M  V30 3390 H 316.877 1.2789 1.60728 0
M  V30 3391 H 315.107 0.0854903 3.86605 0
M  V30 3392 H 316.796 0.47023 4.03167 0
M  V30 3393 H 317.562 2.94715 3.85186 0
M  V30 3394 H 313.441 1.78719 4.24948 0
M  V30 3395 H 316.985 5.21835 4.62962 0
M  V30 3396 H 312.882 4.04936 5.0269 0
M  V30 3397 H 313.65 6.0736 5.48685 0
M  V30 3398 N 316.313 -1.40141 0.720998 0
M  V30 3399 C 317.541 -2.05096 0.272656 0
M  V30 3400 C 317.956 -1.54334 -1.0875 0
M  V30 3401 O 317.313 -0.702211 -1.6845 0
M  V30 3402 C 317.364 -3.60636 0.249835 0
M  V30 3403 O 317.085 -4.09526 1.55629 0
M  V30 3404 C 318.586 -4.42772 -0.216396 0
M  V30 3405 H 315.806 -0.659897 0.121558 0
M  V30 3406 H 318.35 -1.79449 0.980723 0
M  V30 3407 H 316.505 -3.85232 -0.409237 0
M  V30 3408 H 316.919 -5.03758 1.4604 0
M  V30 3409 H 318.393 -5.51702 -0.181212 0
M  V30 3410 H 318.87 -4.20756 -1.25941 0
M  V30 3411 H 319.476 -4.23294 0.412596 0
M  V30 3412 N 317.792 -0.46758 -1.50504 0
M  V30 3413 C 319.02 0.0864133 -2.06719 0
M  V30 3414 C 319.435 1.33819 -1.33184 0
M  V30 3415 O 318.792 1.78061 -0.400083 0
M  V30 3416 C 318.843 0.378079 -3.59517 0
M  V30 3417 O 318.564 -0.824044 -4.3028 0
M  V30 3418 C 320.065 0.979426 -4.32345 0
M  V30 3419 H 317.285 -0.00551697 -0.670977 0
M  V30 3420 H 319.829 -0.655354 -1.93715 0
M  V30 3421 H 317.984 1.06977 -3.72337 0
M  V30 3422 H 318.398 -0.566518 -5.21432 0
M  V30 3423 H 319.872 1.1333 -5.40241 0
M  V30 3424 H 320.349 1.9686 -3.9261 0
M  V30 3425 H 320.955 0.326216 -4.24047 0
M  V30 3426 N 319.27 1.56325 -0.20005 0
M  V30 3427 C 320.517 1.97719 0.437411 0
M  V30 3428 C 320.845 1.08709 1.61284 0
M  V30 3429 O 320.1 0.127261 1.95286 0
M  V30 3430 C 320.399 3.4495 0.935103 0
M  V30 3431 C 320.065 4.5072 -0.12749 0
M  V30 3432 C 318.727 4.79368 -0.419451 0
M  V30 3433 C 321.079 5.14268 -0.847231 0
M  V30 3434 C 318.407 5.68854 -1.43604 0
M  V30 3435 C 320.759 6.04852 -1.85301 0
M  V30 3436 C 319.423 6.31855 -2.15211 0
M  V30 3437 H 318.693 0.723507 0.16006 0
M  V30 3438 H 321.34 1.89166 -0.298056 0
M  V30 3439 H 319.645 3.50599 1.74894 0
M  V30 3440 H 321.342 3.74337 1.43781 0
M  V30 3441 H 317.932 4.28458 0.11023 0
M  V30 3442 H 322.116 4.92222 -0.634901 0
M  V30 3443 H 317.372 5.88047 -1.67364 0
M  V30 3444 H 321.546 6.53152 -2.41591 0
M  V30 3445 H 319.173 7.00994 -2.94129 0
M  V30 3446 N 320.748 -0.0735177 1.57428 0
M  V30 3447 C 321.678 -1.0879 2.06608 0
M  V30 3448 C 322.659 -1.40473 0.959237 0
M  V30 3449 O 323.844 -1.5013 1.23185 0
M  V30 3450 C 320.974 -2.40183 2.50857 0
M  V30 3451 C 319.928 -2.22858 3.65402 0
M  V30 3452 C 319.254 -3.59619 3.957 0
M  V30 3453 C 320.554 -1.65123 4.95511 0
M  V30 3454 H 322.248 -0.678673 2.91607 0
M  V30 3455 H 319.794 -0.325013 1.40284 0
M  V30 3456 H 321.747 -3.11437 2.83874 0
M  V30 3457 H 320.471 -2.83083 1.62885 0
M  V30 3458 H 319.13 -1.54045 3.32664 0
M  V30 3459 H 318.778 -4.00086 3.04861 0
M  V30 3460 H 318.478 -3.48866 4.72828 0
M  V30 3461 H 320.002 -4.32306 4.31212 0
M  V30 3462 H 321.416 -2.26241 5.26771 0
M  V30 3463 H 319.813 -1.65071 5.7695 0
M  V30 3464 H 320.883 -0.612559 4.81015 0
M  V30 3465 N 322.226 -1.5378 -0.344866 0
M  V30 3466 C 323.156 -1.84662 -1.42906 0
M  V30 3467 C 324.137 -0.701648 -1.54955 0
M  V30 3468 O 325.322 -0.953438 -1.69184 0
M  V30 3469 C 322.452 -2.05503 -2.79974 0
M  V30 3470 C 321.406 -3.21318 -2.82734 0
M  V30 3471 C 320.732 -3.2749 -4.22675 0
M  V30 3472 C 322.032 -4.59456 -2.48389 0
M  V30 3473 H 323.726 -2.75461 -1.17311 0
M  V30 3474 H 321.272 -1.32542 -0.562896 0
M  V30 3475 H 323.225 -2.25691 -3.55867 0
M  V30 3476 H 321.949 -1.11434 -3.07002 0
M  V30 3477 H 320.608 -3.00984 -2.09294 0
M  V30 3478 H 320.256 -2.31019 -4.4681 0
M  V30 3479 H 319.956 -4.05316 -4.25433 0
M  V30 3480 H 321.48 -3.49887 -5.00412 0
M  V30 3481 H 322.894 -4.79667 -3.13995 0
M  V30 3482 H 321.291 -5.39675 -2.62432 0
M  V30 3483 H 322.361 -4.63155 -1.4358 0
M  V30 3484 N 323.704 0.605807 -1.45491 0
M  V30 3485 C 324.634 1.72709 -1.57143 0
M  V30 3486 C 325.615 1.6476 -0.422884 0
M  V30 3487 O 326.8 1.83132 -0.646247 0
M  V30 3488 C 323.93 3.11316 -1.53948 0
M  V30 3489 C 322.884 3.34077 -2.67537 0
M  V30 3490 C 322.21 4.72975 -2.49397 0
M  V30 3491 C 323.51 3.24158 -4.09535 0
M  V30 3492 H 325.204 1.63214 -2.51001 0
M  V30 3493 H 322.75 0.78379 -1.208 0
M  V30 3494 H 324.703 3.89557 -1.60696 0
M  V30 3495 H 323.427 3.21655 -0.566205 0
M  V30 3496 H 322.086 2.58227 -2.6022 0
M  V30 3497 H 321.734 4.8005 -1.50205 0
M  V30 3498 H 321.434 4.8916 -3.25571 0
M  V30 3499 H 322.958 5.53414 -2.58002 0
M  V30 3500 H 324.372 3.92271 -4.18086 0
M  V30 3501 H 322.769 3.51872 -4.86113 0
M  V30 3502 H 323.839 2.2157 -4.31317 0
M  V30 3503 N 325.182 1.32811 0.848464 0
M  V30 3504 C 326.429 1.23724 1.60308 0
M  V30 3505 C 326.757 -0.1994 1.93475 0
M  V30 3506 O 326.012 -1.15406 1.5805 0
M  V30 3507 C 326.311 2.04831 2.92881 0
M  V30 3508 C 325.977 3.54125 2.79117 0
M  V30 3509 C 324.639 3.94829 2.7507 0
M  V30 3510 C 326.991 4.49036 2.64606 0
M  V30 3511 C 324.319 5.28675 2.544 0
M  V30 3512 C 326.671 5.83033 2.4547 0
M  V30 3513 C 325.335 6.22931 2.39819 0
M  V30 3514 H 324.605 0.452737 0.586609 0
M  V30 3515 H 327.252 1.64301 0.983743 0
M  V30 3516 H 325.557 1.57001 3.58968 0
M  V30 3517 H 327.254 1.95164 3.50303 0
M  V30 3518 H 323.844 3.21801 2.83094 0
M  V30 3519 H 328.028 4.18505 2.66772 0
M  V30 3520 H 323.284 5.58637 2.48465 0
M  V30 3521 H 327.458 6.56186 2.33222 0
M  V30 3522 H 325.085 7.26584 2.23562 0
M  V30 3523 N 326.66 -1.06551 1.16123 0
M  V30 3524 C 327.592 -2.13908 0.823171 0
M  V30 3525 C 328.605 -1.61926 -0.16843 0
M  V30 3526 O 329.794 -1.78412 0.055962 0
M  V30 3527 C 326.894 -3.38283 0.204424 0
M  V30 3528 C 326.067 -4.19589 1.23548 0
M  V30 3529 C 325.126 -5.2233 0.637011 0
M  V30 3530 O 324.152 -5.54034 1.30516 0
M  V30 3531 N 325.354 -5.77621 -0.577474 0
M  V30 3532 H 328.119 -2.43508 1.74711 0
M  V30 3533 H 325.68 -1.2253 1.05821 0
M  V30 3534 H 327.672 -4.0416 -0.208909 0
M  V30 3535 H 326.242 -3.06329 -0.623012 0
M  V30 3536 H 325.462 -3.49406 1.82507 0
M  V30 3537 H 326.75 -4.70718 1.93137 0
M  V30 3538 H 326.148 -5.54125 -1.13853 0
M  V30 3539 H 324.705 -6.45087 -0.933053 0
M  V30 3540 N 328.138 -0.959301 -1.25041 0
M  V30 3541 C 329.368 -0.63303 -1.96663 0
M  V30 3542 C 329.776 0.800031 -1.71453 0
M  V30 3543 O 329.119 1.54736 -0.99008 0
M  V30 3544 C 329.181 -0.817523 -3.50081 0
M  V30 3545 C 328.845 -2.22863 -3.98975 0
M  V30 3546 C 329.842 -3.20569 -4.09306 0
M  V30 3547 C 327.527 -2.55407 -4.32519 0
M  V30 3548 C 329.521 -4.4891 -4.52503 0
M  V30 3549 C 327.208 -3.83976 -4.754 0
M  V30 3550 C 328.206 -4.8054 -4.85356 0
M  V30 3551 O 327.894 -6.06817 -5.27284 0
M  V30 3552 H 327.626 -0.235866 -0.633516 0
M  V30 3553 H 330.18 -1.2874 -1.60047 0
M  V30 3554 H 328.41 -0.105992 -3.86555 0
M  V30 3555 H 330.099 -0.491604 -4.02912 0
M  V30 3556 H 330.865 -2.96753 -3.83618 0
M  V30 3557 H 326.744 -1.8097 -4.23994 0
M  V30 3558 H 330.288 -5.24283 -4.60188 0
M  V30 3559 H 326.185 -4.07596 -5.00535 0
M  V30 3560 H 326.953 -6.10262 -5.45457 0
M  V30 3561 N 329.616 1.39756 -0.72842 0
M  V30 3562 C 330.856 2.025 -0.278078 0
M  V30 3563 C 331.22 1.5654 1.11173 0
M  V30 3564 O 332.421 2.11435 1.65978 0
M  V30 3565 C 330.692 3.55489 -0.369139 0
M  V30 3566 S 332.251 4.388 0.00232983 0
M  V30 3567 H 329.069 0.702534 -0.109391 0
M  V30 3568 H 331.671 1.70672 -0.95348 0
M  V30 3569 H 330.375 3.86429 -1.38204 0
M  V30 3570 H 329.906 3.92061 0.324308 0
M  V30 3571 H 331.921 4.80954 1.22055 0
M  V30 3572 N 331.094 0.475555 1.50254 0
M  V30 3573 C 332.024 -0.30611 2.31485 0
M  V30 3574 C 333.005 -0.986228 1.38591 0
M  V30 3575 O 334.19 -0.982541 1.67511 0
M  V30 3576 C 331.32 -1.38588 3.1845 0
M  V30 3577 C 330.274 -0.827115 4.19932 0
M  V30 3578 C 329.6 -2.00551 4.95665 0
M  V30 3579 C 330.9 0.16463 5.2204 0
M  V30 3580 H 332.594 0.371866 2.97082 0
M  V30 3581 H 330.14 0.180282 1.42867 0
M  V30 3582 H 332.093 -1.94023 3.74076 0
M  V30 3583 H 330.817 -2.09269 2.50747 0
M  V30 3584 H 329.476 -0.294702 3.65414 0
M  V30 3585 H 329.124 -2.6994 4.2443 0
M  V30 3586 H 328.824 -1.63784 5.64313 0
M  V30 3587 H 330.348 -2.56468 5.54127 0
M  V30 3588 H 331.762 -0.300699 5.72511 0
M  V30 3589 H 330.159 0.446813 5.98434 0
M  V30 3590 H 331.229 1.08905 4.72512 0
M  V30 3591 N 332.573 -1.56217 0.208337 0
M  V30 3592 C 333.984 -1.84243 -0.301904 0
M  V30 3593 C 334.335 -1.12939 -1.60434 0
M  V30 3594 O 333.46 -0.39461 -2.12772 0
M  V30 3595 C 334.055 -3.34231 -0.554543 0
M  V30 3596 C 332.614 -3.62621 -1.00912 0
M  V30 3597 C 331.761 -2.77224 -0.064933 0
M  V30 3598 H 334.712 -1.52712 0.431833 0
M  V30 3599 H 334.733 -3.5372 -1.40223 0
M  V30 3600 H 334.245 -3.86099 0.393561 0
M  V30 3601 H 332.346 -3.16197 -1.97104 0
M  V30 3602 H 332.459 -4.7071 -0.892674 0
M  V30 3603 H 330.823 -2.48256 -0.56929 0
M  V30 3604 H 331.606 -3.31887 0.877851 0
M  V30 3605 N 334.051 0.0651679 -1.57465 0
M  V30 3606 C 334.981 1.07693 -2.07182 0
M  V30 3607 C 335.962 1.39962 -0.966673 0
M  V30 3608 O 337.147 1.49475 -1.2398 0
M  V30 3609 C 334.277 2.3885 -2.52127 0
M  V30 3610 C 333.231 2.20917 -3.66579 0
M  V30 3611 C 332.557 3.57515 -3.97601 0
M  V30 3612 C 333.857 1.62493 -4.9638 0
M  V30 3613 H 335.551 0.663199 -2.91962 0
M  V30 3614 H 333.097 0.317569 -1.40455 0
M  V30 3615 H 335.05 3.09928 -2.85522 0
M  V30 3616 H 333.774 2.82215 -1.64384 0
M  V30 3617 H 332.433 1.52279 -3.33477 0
M  V30 3618 H 332.081 3.98463 -3.06979 0
M  V30 3619 H 331.781 3.46353 -4.74672 0
M  V30 3620 H 333.305 4.30013 -4.33499 0
M  V30 3621 H 334.719 2.23445 -5.27963 0
M  V30 3622 H 333.116 1.62009 -5.77818 0
M  V30 3623 H 334.186 0.587041 -4.81333 0
M  V30 3624 N 335.529 1.53961 0.336706 0
M  V30 3625 C 336.777 1.71197 1.07405 0
M  V30 3626 C 337.098 0.481475 1.88962 0
M  V30 3627 O 336.368 -0.504585 1.8929 0
M  V30 3628 H 334.948 0.631185 0.399517 0
M  V30 3629 H 337.61 1.91232 0.376323 0
M  V30 3630 H 336.706 2.58587 1.74755 0
M  V30 3631 N 337.007 -0.598083 1.45811 0
M  V30 3632 C 338.254 -1.35681 1.50323 0
M  V30 3633 C 338.582 -1.9393 0.148739 0
M  V30 3634 O 337.837 -1.76094 -0.853787 0
M  V30 3635 C 338.136 -2.51669 2.53766 0
M  V30 3636 C 337.802 -2.11508 3.98215 0
M  V30 3637 C 336.464 -2.0027 4.37545 0
M  V30 3638 C 338.816 -1.80308 4.89018 0
M  V30 3639 C 336.144 -1.56067 5.65562 0
M  V30 3640 C 338.496 -1.37589 6.17456 0
M  V30 3641 C 337.16 -1.24916 6.55708 0
M  V30 3642 H 336.43 -0.496492 0.550069 0
M  V30 3643 H 339.077 -0.675052 1.79207 0
M  V30 3644 H 337.382 -3.25225 2.18486 0
M  V30 3645 H 339.079 -3.09895 2.54492 0
M  V30 3646 H 335.669 -2.21185 3.67117 0
M  V30 3647 H 339.853 -1.87884 4.59362 0
M  V30 3648 H 335.109 -1.44886 5.93985 0
M  V30 3649 H 339.283 -1.12495 6.87254 0
M  V30 3650 H 336.91 -0.904386 7.54801 0
M  V30 3651 N 338.485 -1.33259 -0.841409 0
M  V30 3652 C 339.734 -1.23921 -1.59143 0
M  V30 3653 C 340.047 0.1941 -1.94635 0
M  V30 3654 O 341.253 0.409474 -2.68394 0
M  V30 3655 C 339.709 -2.17119 -2.87032 0
M  V30 3656 C 339.317 -3.65606 -2.58914 0
M  V30 3657 C 341.061 -2.16648 -3.65053 0
M  V30 3658 C 338.968 -4.50726 -3.82884 0
M  V30 3659 H 337.898 -0.460264 -0.597221 0
M  V30 3660 H 340.549 -1.58307 -0.927959 0
M  V30 3661 H 338.931 -1.75663 -3.54906 0
M  V30 3662 H 340.105 -4.15487 -1.99267 0
M  V30 3663 H 338.42 -3.68341 -1.942 0
M  V30 3664 H 341.017 -2.77474 -4.57069 0
M  V30 3665 H 341.36 -1.16088 -3.99787 0
M  V30 3666 H 341.893 -2.56453 -3.041 0
M  V30 3667 H 338.632 -5.52151 -3.53283 0
M  V30 3668 H 338.152 -4.0559 -4.41879 0
M  V30 3669 H 339.831 -4.64401 -4.50489 0
M  V30 3670 N 339.963 1.05934 -1.16686 0
M  V30 3671 C 340.893 2.1546 -0.899949 0
M  V30 3672 C 341.874 1.69391 0.155154 0
M  V30 3673 O 343.059 1.94199 0.00648693 0
M  V30 3674 C 340.189 3.44939 -0.404241 0
M  V30 3675 C 339.143 4.04536 -1.39767 0
M  V30 3676 C 338.469 5.29268 -0.760216 0
M  V30 3677 C 339.769 4.42893 -2.76845 0
M  V30 3678 H 341.463 2.38046 -1.81588 0
M  V30 3679 H 339.009 1.14404 -0.874514 0
M  V30 3680 H 340.962 4.20901 -0.204971 0
M  V30 3681 H 339.686 3.21983 0.547206 0
M  V30 3682 H 338.345 3.30635 -1.58355 0
M  V30 3683 H 337.993 5.02611 0.197831 0
M  V30 3684 H 337.693 5.70101 -1.42332 0
M  V30 3685 H 339.217 6.07924 -0.57105 0
M  V30 3686 H 340.631 5.09921 -2.62019 0
M  V30 3687 H 339.028 4.94721 -3.39663 0
M  V30 3688 H 340.098 3.53584 -3.31823 0
M  V30 3689 N 341.441 0.965919 1.2453 0
M  V30 3690 C 342.687 0.62776 1.92839 0
M  V30 3691 C 343.02 -0.834694 1.75347 0
M  V30 3692 O 342.295 -1.60031 1.10546 0
M  V30 3693 C 342.578 1.00109 3.45905 0
M  V30 3694 C 342.431 2.52011 3.72573 0
M  V30 3695 C 343.75 0.53435 4.36844 0
M  V30 3696 H 340.869 0.229537 0.700344 0
M  V30 3697 H 343.511 1.2046 1.46933 0
M  V30 3698 H 341.661 0.510238 3.85135 0
M  V30 3699 H 343.333 3.08559 3.42912 0
M  V30 3700 H 341.576 2.95287 3.17786 0
M  V30 3701 H 342.247 2.73183 4.79661 0
M  V30 3702 H 344.723 0.955565 4.04979 0
M  V30 3703 H 343.599 0.824152 5.42678 0
M  V30 3704 H 343.86 -0.565589 4.38467 0
M  V30 3705 N 342.919 -1.39368 0.735821 0
M  V30 3706 C 344.159 -2.02349 0.288813 0
M  V30 3707 C 344.523 -1.57127 -1.10341 0
M  V30 3708 O 345.724 -2.12312 -1.64854 0
M  V30 3709 C 343.995 -3.55288 0.387986 0
M  V30 3710 S 345.554 -4.38795 0.0209408 0
M  V30 3711 H 342.372 -0.701944 0.113115 0
M  V30 3712 H 344.974 -1.70164 0.962518 0
M  V30 3713 H 343.678 -3.85691 1.40252 0
M  V30 3714 H 343.209 -3.92227 -0.303512 0
M  V30 3715 H 345.224 -4.81595 -1.19503 0
M  V30 3716 N 344.397 -0.483516 -1.5 0
M  V30 3717 C 345.627 0.0643896 -2.065 0
M  V30 3718 C 346.035 1.32949 -1.34615 0
M  V30 3719 O 345.378 1.79003 -0.412756 0
M  V30 3720 C 345.44 0.405983 -3.572 0
M  V30 3721 C 345.104 -0.758875 -4.50655 0
M  V30 3722 C 346.101 -1.64445 -4.93208 0
M  V30 3723 C 343.786 -0.952725 -4.93182 0
M  V30 3724 C 345.78 -2.70818 -5.77006 0
M  V30 3725 C 343.467 -2.01966 -5.76761 0
M  V30 3726 C 344.465 -2.89574 -6.18576 0
M  V30 3727 O 344.153 -3.94429 -7.00486 0
M  V30 3728 H 343.885 -0.00934786 -0.675935 0
M  V30 3729 H 346.439 -0.674959 -1.93993 0
M  V30 3730 H 344.669 1.19869 -3.67652 0
M  V30 3731 H 346.358 0.890433 -3.96013 0
M  V30 3732 H 347.124 -1.50643 -4.61012 0
M  V30 3733 H 343.003 -0.280247 -4.60147 0
M  V30 3734 H 346.547 -3.3923 -6.09565 0
M  V30 3735 H 342.444 -2.1577 -6.0837 0
M  V30 3736 H 343.212 -3.91568 -7.1876 0
M  V30 3737 N 345.875 1.56104 -0.216619 0
M  V30 3738 C 346.838 2.18819 0.681962 0
M  V30 3739 C 347.838 1.14866 1.12528 0
M  V30 3740 O 349.028 1.40128 1.03488 0
M  V30 3741 C 346.16 2.80756 1.93362 0
M  V30 3742 H 347.353 2.99595 0.135254 0
M  V30 3743 H 344.906 1.56265 0.0330003 0
M  V30 3744 H 345.641 2.03837 2.52232 0
M  V30 3745 H 345.426 3.56876 1.62426 0
M  V30 3746 H 346.916 3.28844 2.57393 0
M  V30 3747 N 347.353 -0.0568162 1.57498 0
M  V30 3748 C 348.769 -0.411933 1.54192 0
M  V30 3749 C 348.969 -1.78287 0.938942 0
M  V30 3750 O 348.025 -2.46483 0.547919 0
M  V30 3751 C 349.338 -0.339244 2.9878 0
M  V30 3752 C 350.886 -0.418348 3.10192 0
M  V30 3753 C 351.361 -0.375407 4.56459 0
M  V30 3754 N 352.852 -0.435038 4.61153 0
M  V30 3755 C 353.587 -0.424265 5.71828 0
M  V30 3756 N 353.083 -0.367418 6.91825 0
M  V30 3757 N 354.876 -0.471938 5.60115 0
M  V30 3758 H 347.027 0.840684 1.95055 0
M  V30 3759 H 349.29 0.316987 0.893433 0
M  V30 3760 H 348.996 0.601742 3.46514 0
M  V30 3761 H 348.87 -1.14371 3.59443 0
M  V30 3762 H 351.257 -1.34976 2.62422 0
M  V30 3763 H 351.338 0.414962 2.52412 0
M  V30 3764 H 350.982 0.552219 5.04889 0
M  V30 3765 H 350.912 -1.22645 5.12119 0
M  V30 3766 H 353.403 -0.482612 3.74806 0
M  V30 3767 H 353.716 -0.363535 7.71944 0
M  V30 3768 H 352.061 -0.333879 6.94198 0
M  V30 3769 H 355.252 -0.514145 4.65268 0
M  V30 3770 H 355.425 -0.460073 6.46365 0
M  V30 3771 N 348.832 -1.54138 -0.328536 0
M  V30 3772 C 350.081 -1.71318 -1.06456 0
M  V30 3773 C 350.394 -0.491109 -1.89334 0
M  V30 3774 O 351.6 -0.54416 -2.65991 0
M  V30 3775 C 350.056 -3.03 -1.94214 0
M  V30 3776 C 349.664 -4.32595 -1.16471 0
M  V30 3777 C 351.408 -3.29544 -2.67583 0
M  V30 3778 C 349.315 -5.55341 -2.03347 0
M  V30 3779 H 348.245 -0.638429 -0.401155 0
M  V30 3780 H 350.896 -1.80633 -0.323106 0
M  V30 3781 H 349.278 -2.87579 -2.72239 0
M  V30 3782 H 350.452 -4.58766 -0.432525 0
M  V30 3783 H 348.767 -4.12777 -0.548063 0
M  V30 3784 H 351.364 -4.18444 -3.3288 0
M  V30 3785 H 351.707 -2.47206 -3.34955 0
M  V30 3786 H 352.24 -3.45809 -1.96623 0
M  V30 3787 H 348.979 -6.40268 -1.40491 0
M  V30 3788 H 348.499 -5.33397 -2.74313 0
M  V30 3789 H 350.178 -5.91557 -2.62049 0
M  V30 3790 N 350.31 0.590341 -1.46126 0
M  V30 3791 C 351.54 1.37304 -1.54373 0
M  V30 3792 C 351.948 1.88332 -0.181071 0
M  V30 3793 O 351.291 1.63852 0.830559 0
M  V30 3794 C 351.353 2.6012 -2.48149 0
M  V30 3795 C 351.017 2.30613 -3.94546 0
M  V30 3796 C 352.014 1.89915 -4.83971 0
M  V30 3797 C 349.699 2.42993 -4.39613 0
M  V30 3798 C 351.693 1.61981 -6.16475 0
M  V30 3799 C 349.38 2.14672 -5.72153 0
M  V30 3800 C 350.378 1.7423 -6.60404 0
M  V30 3801 O 350.066 1.46251 -7.90485 0
M  V30 3802 H 349.798 0.426086 -0.524811 0
M  V30 3803 H 352.352 0.72539 -1.92165 0
M  V30 3804 H 350.582 3.27664 -2.05361 0
M  V30 3805 H 352.271 3.22182 -2.46887 0
M  V30 3806 H 353.037 1.79872 -4.50412 0
M  V30 3807 H 348.916 2.73435 -3.71153 0
M  V30 3808 H 352.46 1.30341 -6.85315 0
M  V30 3809 H 348.357 2.24337 -6.05263 0
M  V30 3810 H 349.125 1.6016 -8.02677 0
M  V30 3811 N 351.788 1.33704 0.83433 0
M  V30 3812 C 353.204 1.13137 1.12571 0
M  V30 3813 C 353.404 -0.0747261 2.01361 0
M  V30 3814 O 352.46 -0.753647 2.4099 0
M  V30 3815 C 353.773 2.42105 1.78342 0
M  V30 3816 C 355.321 2.48054 1.90888 0
M  V30 3817 C 355.796 3.76995 2.60075 0
M  V30 3818 N 357.287 3.78092 2.67584 0
M  V30 3819 C 358.022 4.74574 3.21818 0
M  V30 3820 N 357.518 5.81434 3.76705 0
M  V30 3821 N 359.311 4.62044 3.20112 0
M  V30 3822 H 351.462 2.11 0.243489 0
M  V30 3823 H 353.725 0.932532 0.17055 0
M  V30 3824 H 353.431 3.30391 1.20561 0
M  V30 3825 H 353.305 2.54594 2.7832 0
M  V30 3826 H 355.692 1.60215 2.47821 0
M  V30 3827 H 355.773 2.39502 0.898459 0
M  V30 3828 H 355.417 4.65219 2.03799 0
M  V30 3829 H 355.347 3.82825 3.61597 0
M  V30 3830 H 357.838 3.00865 2.28667 0
M  V30 3831 H 358.151 6.51084 4.16305 0
M  V30 3832 H 356.496 5.85163 3.7498 0
M  V30 3833 H 359.687 3.77716 2.76493 0
M  V30 3834 H 359.86 5.37406 3.62076 0
M  V30 3835 N 353.266 -1.05314 1.17247 0
M  V30 3836 C 354.682 -1.30452 0.919473 0
M  V30 3837 C 354.882 -1.9703 -0.42209 0
M  V30 3838 O 353.938 -2.24311 -1.15935 0
M  V30 3839 C 355.251 -2.17551 2.07586 0
M  V30 3840 C 356.799 -2.30937 2.11275 0
M  V30 3841 C 357.274 -3.21396 3.26296 0
M  V30 3842 N 358.765 -3.28981 3.26076 0
M  V30 3843 C 359.5 -3.99095 4.11716 0
M  V30 3844 N 358.996 -4.71648 5.07465 0
M  V30 3845 N 360.789 -3.95247 3.9967 0
M  V30 3846 H 352.94 -0.604988 2.03602 0
M  V30 3847 H 355.203 -0.329368 0.888944 0
M  V30 3848 H 354.909 -1.75921 3.0454 0
M  V30 3849 H 354.783 -3.18182 2.02584 0
M  V30 3850 H 357.17 -2.71809 1.14907 0
M  V30 3851 H 357.251 -1.2994 2.20339 0
M  V30 3852 H 356.895 -2.81238 4.22927 0
M  V30 3853 H 356.825 -4.22395 3.14467 0
M  V30 3854 H 359.316 -2.77286 2.5675 0
M  V30 3855 H 359.629 -5.22705 5.6921 0
M  V30 3856 H 357.974 -4.70594 5.11435 0
M  V30 3857 H 361.165 -3.37691 3.24164 0
M  V30 3858 H 361.338 -4.4962 4.66632 0
M  V30 3859 N 354.744 -0.972509 -1.24016 0
M  V30 3860 C 355.674 -0.525548 -2.27509 0
M  V30 3861 C 356.655 0.437262 -1.64384 0
M  V30 3862 O 357.84 0.332343 -1.91335 0
M  V30 3863 C 354.97 0.180448 -3.46831 0
M  V30 3864 C 353.924 -0.698859 -4.22256 0
M  V30 3865 C 353.25 0.138903 -5.3452 0
M  V30 3866 C 354.55 -1.98582 -4.83076 0
M  V30 3867 H 356.244 -1.39058 -2.65148 0
M  V30 3868 H 353.79 -0.67009 -1.27459 0
M  V30 3869 H 355.743 0.504387 -4.18371 0
M  V30 3870 H 354.467 1.07987 -3.08231 0
M  V30 3871 H 353.126 -1.00614 -3.52523 0
M  V30 3872 H 352.774 1.03862 -4.9216 0
M  V30 3873 H 352.474 -0.446259 -5.85903 0
M  V30 3874 H 353.998 0.457404 -6.08884 0
M  V30 3875 H 355.412 -1.72715 -5.46665 0
M  V30 3876 H 353.809 -2.5181 -5.44713 0
M  V30 3877 H 354.879 -2.67769 -4.04262 0
M  V30 3878 N 356.222 1.38976 -0.743202 0
M  V30 3879 C 357.154 2.29096 -0.0689228 0
M  V30 3880 C 358.167 1.47229 0.694791 0
M  V30 3881 O 359.356 1.70212 0.537597 0
M  V30 3882 C 356.456 3.25988 0.926548 0
M  V30 3883 C 355.629 4.36833 0.222647 0
M  V30 3884 C 354.688 5.13981 1.12739 0
M  V30 3885 O 353.714 5.6601 0.601795 0
M  V30 3886 N 354.916 5.25966 2.45641 0
M  V30 3887 H 357.681 2.87604 -0.842846 0
M  V30 3888 H 355.242 1.50645 -0.593109 0
M  V30 3889 H 357.234 3.74476 1.5346 0
M  V30 3890 H 355.804 2.68453 1.60162 0
M  V30 3891 H 355.024 3.90116 -0.565983 0
M  V30 3892 H 356.312 5.0811 -0.264841 0
M  V30 3893 H 355.71 4.85228 2.9081 0
M  V30 3894 H 354.267 5.77865 3.01522 0
M  V30 3895 N 357.7 0.491464 1.49741 0
M  V30 3896 C 359.116 0.146835 1.58923 0
M  V30 3897 C 359.316 -1.34804 1.49767 0
M  V30 3898 O 358.372 -2.12317 1.36667 0
M  V30 3899 C 359.685 0.715157 2.92072 0
M  V30 3900 C 361.233 0.680407 3.05515 0
M  V30 3901 C 361.708 1.22663 4.41269 0
M  V30 3902 N 363.199 1.18691 4.47735 0
M  V30 3903 C 363.934 1.57984 5.51207 0
M  V30 3904 N 363.43 2.04824 6.6183 0
M  V30 3905 N 365.223 1.49459 5.41866 0
M  V30 3906 H 357.374 1.46347 1.53936 0
M  V30 3907 H 359.637 0.606453 0.728642 0
M  V30 3908 H 359.343 1.76317 3.04311 0
M  V30 3909 H 359.217 0.17018 3.76816 0
M  V30 3910 H 361.604 -0.358743 2.92911 0
M  V30 3911 H 361.685 1.26242 2.22478 0
M  V30 3912 H 361.329 2.26451 4.54623 0
M  V30 3913 H 361.259 0.620637 5.2293 0
M  V30 3914 H 363.75 0.843605 3.68364 0
M  V30 3915 H 364.063 2.32901 7.3687 0
M  V30 3916 H 362.408 2.08791 6.62896 0
M  V30 3917 H 365.599 1.12692 4.54333 0
M  V30 3918 H 365.772 1.80406 6.22381 0
M  V30 3919 N 359.178 -1.55987 0.224894 0
M  V30 3920 C 360.11 -2.17722 -0.716224 0
M  V30 3921 C 361.123 -1.14723 -1.15509 0
M  V30 3922 O 362.312 -1.41688 -1.08567 0
M  V30 3923 C 359.412 -2.74873 -1.98238 0
M  V30 3924 C 358.585 -4.03074 -1.69853 0
M  V30 3925 C 357.644 -4.44757 -2.81208 0
M  V30 3926 O 356.67 -5.11587 -2.49534 0
M  V30 3927 N 357.872 -4.10716 -4.10235 0
M  V30 3928 H 360.637 -2.99109 -0.188123 0
M  V30 3929 H 358.198 -1.6184 0.0440123 0
M  V30 3930 H 360.19 -2.99727 -2.7193 0
M  V30 3931 H 358.76 -1.9777 -2.42086 0
M  V30 3932 H 357.98 -3.86041 -0.797875 0
M  V30 3933 H 359.268 -4.86701 -1.48324 0
M  V30 3934 H 358.666 -3.57019 -4.38809 0
M  V30 3935 H 357.223 -4.40455 -4.80461 0
M  V30 3936 N 360.656 0.0484629 -1.57525 0
M  V30 3937 C 361.904 0.741657 -1.88 0
M  V30 3938 C 362.225 1.76918 -0.820054 0
M  V30 3939 O 361.495 1.95335 0.148661 0
M  V30 3940 H 360.075 0.276908 -0.69378 0
M  V30 3941 H 362.737 0.019013 -1.94891 0
M  V30 3942 H 361.833 1.24336 -2.86264 0
M  V30 3943 N 362.134 1.5431 0.320358 0
M  V30 3944 C 363.55 1.45091 0.664889 0
M  V30 3945 C 363.75 0.626382 1.91517 0
M  V30 3946 O 362.806 0.126443 2.52183 0
M  V30 3947 C 364.119 2.88848 0.83591 0
M  V30 3948 C 365.667 2.9877 0.933046 0
M  V30 3949 C 366.142 4.43683 1.13621 0
M  V30 3950 N 367.633 4.47309 1.20287 0
M  V30 3951 C 368.368 5.56595 1.37801 0
M  V30 3952 N 367.864 6.75844 1.52338 0
M  V30 3953 N 369.657 5.44248 1.40535 0
M  V30 3954 H 361.808 2.06398 -0.501374 0
M  V30 3955 H 364.071 0.933963 -0.162534 0
M  V30 3956 H 363.777 3.51698 -0.0116092 0
M  V30 3957 H 363.651 3.35148 1.73078 0
M  V30 3958 H 366.038 2.36045 1.77107 0
M  V30 3959 H 366.119 2.55796 0.0145782 0
M  V30 3960 H 365.763 5.06995 0.303032 0
M  V30 3961 H 365.693 4.84269 2.0686 0
M  V30 3962 H 368.184 3.61388 1.10485 0
M  V30 3963 H 368.497 7.54892 1.65403 0
M  V30 3964 H 366.842 6.78746 1.4943 0
M  V30 3965 H 370.033 4.50038 1.28777 0
M  V30 3966 H 370.206 6.29473 1.53842 0
M  V30 3967 N 363.613 -0.582584 1.46437 0
M  V30 3968 C 364.859 -1.34278 1.51978 0
M  V30 3969 C 365.192 -1.93446 0.170973 0
M  V30 3970 O 364.467 -1.76481 -0.817608 0
M  V30 3971 C 364.75 -2.47203 2.61845 0
M  V30 3972 C 364.603 -1.93069 4.06257 0
M  V30 3973 C 365.922 -3.49247 2.67795 0
M  V30 3974 H 363.041 -0.486876 0.553282 0
M  V30 3975 H 365.683 -0.654437 1.78374 0
M  V30 3976 H 363.833 -3.0592 2.39469 0
M  V30 3977 H 365.505 -1.38808 4.3992 0
M  V30 3978 H 363.748 -1.23898 4.1573 0
M  V30 3979 H 364.419 -2.74586 4.7886 0
M  V30 3980 H 366.895 -3.00411 2.8791 0
M  V30 3981 H 365.771 -4.25719 3.46489 0
M  V30 3982 H 366.032 -4.06482 1.73852 0
M  V30 3983 N 365.091 -1.34144 -0.827227 0
M  V30 3984 C 366.338 -1.26258 -1.58319 0
M  V30 3985 C 366.666 0.168595 -1.93768 0
M  V30 3986 O 365.921 1.12877 -1.59866 0
M  V30 3987 C 366.22 -2.09464 -2.89585 0
M  V30 3988 C 365.886 -3.58521 -2.73448 0
M  V30 3989 C 364.548 -3.99155 -2.68754 0
M  V30 3990 C 366.9 -4.53189 -2.57428 0
M  V30 3991 C 364.228 -5.32656 -2.45957 0
M  V30 3992 C 366.58 -5.86864 -2.36163 0
M  V30 3993 C 365.244 -6.26667 -2.29879 0
M  V30 3994 H 364.514 -0.462013 -0.579332 0
M  V30 3995 H 367.161 -1.65845 -0.95748 0
M  V30 3996 H 365.466 -1.62692 -3.56425 0
M  V30 3997 H 367.163 -2.00712 -3.47154 0
M  V30 3998 H 363.753 -3.26264 -2.77939 0
M  V30 3999 H 367.937 -4.22696 -2.60081 0
M  V30 4000 H 363.193 -5.62519 -2.39546 0
M  V30 4001 H 367.367 -6.59813 -2.22754 0
M  V30 4002 H 364.994 -7.30049 -2.11975 0
M  V30 4003 N 366.569 1.04691 -1.17803 0
M  V30 4004 C 367.519 2.10856 -0.867391 0
M  V30 4005 C 368.503 1.601 0.160206 0
M  V30 4006 O 369.695 1.76948 -0.042947 0
M  V30 4007 C 366.824 3.411 -0.388012 0
M  V30 4008 C 365.91 3.9864 -1.44732 0
M  V30 4009 N 366.301 4.30075 -2.66212 0
M  V30 4010 C 364.599 4.26439 -1.30637 0
M  V30 4011 C 365.3 4.76033 -3.34317 0
M  V30 4012 N 364.276 4.76462 -2.61696 0
M  V30 4013 H 368.078 2.33029 -1.79094 0
M  V30 4014 H 365.592 1.22386 -1.0675 0
M  V30 4015 H 367.589 4.16641 -0.146994 0
M  V30 4016 H 366.249 3.20357 0.529271 0
M  V30 4017 H 367.26 4.19917 -3.03134 0
M  V30 4018 H 363.937 4.15056 -0.451129 0
M  V30 4019 H 365.327 5.09427 -4.38103 0
M  V30 4020 N 368.047 0.979072 1.23499 0
M  V30 4021 C 368.994 0.517904 2.24914 0
M  V30 4022 C 369.964 -0.442525 1.60097 0
M  V30 4023 O 371.149 -0.350365 1.87556 0
M  V30 4024 C 368.289 -0.174813 3.44657 0
M  V30 4025 C 367.402 0.825721 4.24035 0
M  V30 4026 C 366.537 0.107946 5.3109 0
M  V30 4027 C 365.576 1.09778 6.02175 0
M  V30 4028 N 364.713 0.40925 7.00906 0
M  V30 4029 H 369.553 1.38751 2.63727 0
M  V30 4030 H 367.09 0.695303 1.2963 0
M  V30 4031 H 369.048 -0.593233 4.12961 0
M  V30 4032 H 367.678 -1.0083 3.06648 0
M  V30 4033 H 366.73 1.36253 3.55161 0
M  V30 4034 H 368.042 1.58005 4.73113 0
M  V30 4035 H 367.196 -0.367904 6.05583 0
M  V30 4036 H 365.935 -0.678994 4.8295 0
M  V30 4037 H 364.94 1.5844 5.26476 0
M  V30 4038 H 366.165 1.88536 6.52404 0
M  V30 4039 H 364.111 -0.358506 6.5502 0
M  V30 4040 H 364.028 1.10226 7.47921 0
M  V30 4041 H 365.296 -0.0442557 7.79487 0
M  V30 4042 N 369.525 -1.3858 0.750561 0
M  V30 4043 C 370.773 -1.99789 0.30477 0
M  V30 4044 C 371.094 -1.59874 -1.11649 0
M  V30 4045 O 370.364 -0.85417 -1.76297 0
M  V30 4046 H 368.944 -0.738902 0.109694 0
M  V30 4047 H 371.606 -1.69391 0.963983 0
M  V30 4048 H 370.702 -3.09952 0.365499 0
M  V30 4049 N 371.003 -0.499398 -1.49478 0
M  V30 4050 C 372.231 0.0425456 -2.06856 0
M  V30 4051 C 372.646 1.30964 -1.35992 0
M  V30 4052 O 372.003 1.77172 -0.437762 0
M  V30 4053 C 372.054 0.301735 -3.60239 0
M  V30 4054 O 371.775 -0.915127 -4.28436 0
M  V30 4055 C 373.276 0.887499 -4.34325 0
M  V30 4056 H 370.496 -0.0197482 -0.670709 0
M  V30 4057 H 373.04 -0.696297 -1.92281 0
M  V30 4058 H 371.195 0.990556 -3.74522 0
M  V30 4059 H 371.609 -0.676993 -5.20113 0
M  V30 4060 H 373.083 1.01845 -5.42523 0
M  V30 4061 H 373.56 1.88488 -3.96698 0
M  V30 4062 H 374.166 0.236196 -4.24644 0
M  V30 4063 N 372.481 1.55866 -0.233164 0
M  V30 4064 C 373.711 2.02704 0.399325 0
M  V30 4065 C 374.119 1.11204 1.53069 0
M  V30 4066 O 373.462 0.116182 1.83332 0
M  V30 4067 C 373.524 3.45844 0.981429 0
M  V30 4068 C 373.188 4.56997 -0.0159561 0
M  V30 4069 C 374.185 5.13384 -0.820552 0
M  V30 4070 C 371.87 5.0211 -0.138072 0
M  V30 4071 C 373.864 6.13365 -1.73386 0
M  V30 4072 C 371.551 6.01926 -1.0549 0
M  V30 4073 C 372.549 6.57431 -1.85132 0
M  V30 4074 O 372.237 7.55302 -2.75272 0
M  V30 4075 H 371.969 0.668459 0.100692 0
M  V30 4076 H 374.523 2.02387 -0.35052 0
M  V30 4077 H 372.753 3.43267 1.78058 0
M  V30 4078 H 374.442 3.76262 1.52255 0
M  V30 4079 H 375.208 4.79372 -0.736721 0
M  V30 4080 H 371.087 4.5858 0.471737 0
M  V30 4081 H 374.631 6.56614 -2.35592 0
M  V30 4082 H 370.528 6.35359 -1.1397 0
M  V30 4083 H 371.296 7.72867 -2.69477 0
M  V30 4084 N 373.959 -0.0401083 1.57549 0
M  V30 4085 C 375.184 -0.748931 1.93406 0
M  V30 4086 C 375.609 -1.68686 0.832274 0
M  V30 4087 O 374.967 -1.80047 -0.212818 0
M  V30 4088 C 375.015 -1.4916 3.28304 0
M  V30 4089 O 374.119 -2.6042 3.19774 0
M  V30 4090 H 373.46 -0.202212 0.63246 0
M  V30 4091 H 375.99 0.00112086 2.046 0
M  V30 4092 H 376 -1.86395 3.62934 0
M  V30 4093 H 374.675 -0.80364 4.08062 0
M  V30 4094 H 373.252 -2.25808 2.96758 0
M  V30 4095 N 375.437 -1.54477 -0.31217 0
M  V30 4096 C 376.367 -1.87652 -1.38957 0
M  V30 4097 C 377.348 -0.734358 -1.53431 0
M  V30 4098 O 378.533 -0.98911 -1.67123 0
M  V30 4099 C 375.663 -2.11396 -2.75552 0
M  V30 4100 C 374.617 -3.27243 -2.75855 0
M  V30 4101 C 373.943 -3.36382 -4.15633 0
M  V30 4102 C 375.243 -4.64622 -2.38587 0
M  V30 4103 H 376.937 -2.77887 -1.11442 0
M  V30 4104 H 374.483 -1.33707 -0.534655 0
M  V30 4105 H 376.436 -2.33189 -3.51 0
M  V30 4106 H 375.16 -1.17921 -3.04569 0
M  V30 4107 H 373.819 -3.05356 -2.02863 0
M  V30 4108 H 373.467 -2.40445 -4.41809 0
M  V30 4109 H 373.167 -4.14249 -4.1674 0
M  V30 4110 H 374.691 -3.60422 -4.92877 0
M  V30 4111 H 376.105 -4.86219 -3.03749 0
M  V30 4112 H 374.502 -5.45121 -2.50925 0
M  V30 4113 H 375.572 -4.66097 -1.33723 0
M  V30 4114 N 376.915 0.57481 -1.46744 0
M  V30 4115 C 378.331 0.898981 -1.31873 0
M  V30 4116 C 378.531 1.99313 -0.29605 0
M  V30 4117 O 377.587 2.50728 0.298621 0
M  V30 4118 C 378.9 1.30886 -2.7072 0
M  V30 4119 C 380.448 1.42127 -2.78871 0
M  V30 4120 C 380.923 1.86478 -4.18318 0
M  V30 4121 N 382.414 1.93658 -4.20774 0
M  V30 4122 C 383.149 2.29267 -5.2557 0
M  V30 4123 N 382.645 2.63612 -6.40688 0
M  V30 4124 N 384.438 2.29889 -5.1294 0
M  V30 4125 H 376.589 -0.147839 -2.11885 0
M  V30 4126 H 378.852 -0.00347013 -0.947994 0
M  V30 4127 H 378.558 0.578853 -3.46904 0
M  V30 4128 H 378.432 2.26874 -3.01343 0
M  V30 4129 H 380.819 2.14213 -2.0297 0
M  V30 4130 H 380.9 0.443705 -2.51922 0
M  V30 4131 H 380.544 1.14968 -4.94717 0
M  V30 4132 H 380.474 2.85207 -4.42679 0
M  V30 4133 H 382.965 1.69574 -3.37718 0
M  V30 4134 H 383.278 2.89759 -7.16421 0
M  V30 4135 H 381.623 2.61232 -6.44036 0
M  V30 4136 H 384.814 2.02485 -4.22039 0
M  V30 4137 H 384.987 2.57312 -5.94722 0
M  V30 4138 N 378.394 1.34581 0.820102 0
M  V30 4139 C 379.357 1.2628 1.91275 0
M  V30 4140 C 380.357 0.177344 1.59819 0
M  V30 4141 O 381.547 0.430156 1.68806 0
M  V30 4142 C 378.679 0.950327 3.27386 0
M  V30 4143 H 379.872 2.23421 2.00057 0
M  V30 4144 H 377.425 1.1891 1.0144 0
M  V30 4145 H 378.16 -0.0177938 3.24295 0
M  V30 4146 H 377.945 1.73549 3.51601 0
M  V30 4147 H 379.435 0.917492 4.07396 0
M  V30 4148 N 379.872 -1.04064 1.18357 0
M  V30 4149 C 381.12 -1.76915 0.977013 0
M  V30 4150 C 381.441 -1.88624 -0.494577 0
M  V30 4151 O 380.711 -1.41125 -1.3587 0
M  V30 4152 H 379.291 -0.65535 0.358504 0
M  V30 4153 H 381.953 -1.25592 1.49039 0
M  V30 4154 H 381.049 -2.78178 1.41504 0
M  V30 4155 N 381.35 -0.985608 -1.22978 0
M  V30 4156 C 382.3 -0.50118 -2.22423 0
M  V30 4157 C 383.284 0.426649 -1.5514 0
M  V30 4158 O 384.476 0.254656 -1.75159 0
M  V30 4159 C 381.605 0.190003 -3.42774 0
M  V30 4160 C 380.691 -0.757703 -4.17276 0
M  V30 4161 N 381.082 -1.90251 -4.68656 0
M  V30 4162 C 379.38 -0.57209 -4.42316 0
M  V30 4163 C 380.081 -2.49676 -5.25392 0
M  V30 4164 N 379.057 -1.78013 -5.13627 0
M  V30 4165 H 382.859 -1.37441 -2.59783 0
M  V30 4166 H 380.373 -0.846941 -1.38567 0
M  V30 4167 H 382.37 0.55439 -4.13197 0
M  V30 4168 H 381.03 1.05946 -3.06929 0
M  V30 4169 H 382.041 -2.28354 -4.64839 0
M  V30 4170 H 378.718 0.251909 -4.16739 0
M  V30 4171 H 380.108 -3.46384 -5.75732 0
M  V30 4172 N 382.828 1.3818 -0.7579 0
M  V30 4173 C 383.761 2.28055 -0.0814093 0
M  V30 4174 C 384.739 1.45603 0.723779 0
M  V30 4175 O 385.923 1.74961 0.701491 0
M  V30 4176 C 383.05 3.2676 0.891394 0
M  V30 4177 C 382.096 4.26153 0.171909 0
M  V30 4178 S 382.929 5.23434 -1.13035 0
M  V30 4179 C 384.085 6.25694 -0.160727 0
M  V30 4180 H 384.318 2.85082 -0.84353 0
M  V30 4181 H 381.851 1.44246 -0.550671 0
M  V30 4182 H 383.809 3.8414 1.44731 0
M  V30 4183 H 382.47 2.68706 1.62652 0
M  V30 4184 H 381.663 4.95738 0.908843 0
M  V30 4185 H 381.265 3.72691 -0.312606 0
M  V30 4186 H 383.557 6.74161 0.671773 0
M  V30 4187 H 384.5 7.03285 -0.824353 0
M  V30 4188 H 384.908 5.64064 0.221892 0
M  V30 4189 N 384.306 0.507319 1.49211 0
M  V30 4190 C 385.253 -0.267728 2.29242 0
M  V30 4191 C 386.223 -0.954609 1.35928 0
M  V30 4192 O 387.408 -0.960046 1.64887 0
M  V30 4193 C 384.548 -1.32243 3.18756 0
M  V30 4194 C 383.661 -0.64669 4.27132 0
M  V30 4195 C 382.796 -1.68238 5.03855 0
M  V30 4196 C 381.835 -0.98885 6.0406 0
M  V30 4197 N 380.972 -1.96903 6.73924 0
M  V30 4198 H 385.812 0.420968 2.95012 0
M  V30 4199 H 383.349 0.219443 1.45454 0
M  V30 4200 H 385.307 -1.94599 3.69036 0
M  V30 4201 H 383.937 -1.97981 2.54958 0
M  V30 4202 H 382.989 0.0902926 3.80293 0
M  V30 4203 H 384.301 -0.101058 4.98698 0
M  V30 4204 H 383.455 -2.38081 5.58034 0
M  V30 4205 H 382.194 -2.26187 4.32077 0
M  V30 4206 H 381.199 -0.276222 5.49106 0
M  V30 4207 H 382.424 -0.415767 6.77826 0
M  V30 4208 H 380.37 -2.53803 6.04913 0
M  V30 4209 H 380.287 -1.47423 7.41487 0
M  V30 4210 H 381.555 -2.66015 7.32705 0
M  V30 4211 N 385.784 -1.5574 0.241426 0
M  V30 4212 C 386.716 -2.18469 -0.693091 0
M  V30 4213 C 387.729 -1.15942 -1.14286 0
M  V30 4214 O 388.918 -1.42832 -1.07058 0
M  V30 4215 C 386.018 -2.7696 -1.95311 0
M  V30 4216 C 385.191 -4.04853 -1.65568 0
M  V30 4217 C 384.25 -4.47715 -2.76474 0
M  V30 4218 O 383.276 -5.14205 -2.44094 0
M  V30 4219 N 384.478 -4.15044 -4.05855 0
M  V30 4220 H 387.243 -2.99292 -0.156388 0
M  V30 4221 H 384.804 -1.61784 0.0611752 0
M  V30 4222 H 386.796 -3.02594 -2.68736 0
M  V30 4223 H 385.366 -2.00326 -2.39975 0
M  V30 4224 H 384.586 -3.86865 -0.756886 0
M  V30 4225 H 385.874 -4.88246 -1.43153 0
M  V30 4226 H 385.272 -3.61654 -4.34998 0
M  V30 4227 H 383.829 -4.45526 -4.75762 0
M  V30 4228 N 387.262 0.0317525 -1.57568 0
M  V30 4229 C 388.508 0.724175 -1.8943 0
M  V30 4230 C 388.841 1.75149 -0.838836 0
M  V30 4231 O 388.116 1.93948 0.146422 0
M  V30 4232 C 388.399 1.39615 -3.31933 0
M  V30 4233 C 388.252 0.382537 -4.4817 0
M  V30 4234 C 389.571 2.33084 -3.73309 0
M  V30 4235 H 386.69 0.261797 -0.688935 0
M  V30 4236 H 389.332 -0.013017 -1.89996 0
M  V30 4237 H 387.482 2.02451 -3.31581 0
M  V30 4238 H 389.154 -0.243689 -4.60656 0
M  V30 4239 H 387.397 -0.29844 -4.32772 0
M  V30 4240 H 388.068 0.891145 -5.44759 0
M  V30 4241 H 390.544 1.80295 -3.7501 0
M  V30 4242 H 389.42 2.77084 -4.73831 0
M  V30 4243 H 389.681 3.19643 -3.05419 0
M  V30 4244 N 388.74 1.54641 0.303973 0
M  V30 4245 C 389.688 1.86137 1.39484 0
M  V30 4246 C 390.682 0.734854 1.52631 0
M  V30 4247 O 391.888 0.918803 1.54784 0
M  V30 4248 H 388.263 0.590324 0.465856 0
M  V30 4249 H 390.234 2.77324 1.10154 0
M  V30 4250 C 388.983 2.12274 2.75382 0
M  V30 4251 H 388.306 2.98429 2.66046 0
M  V30 4252 H 389.746 2.38254 3.5073 0
M  V30 4253 C 388.205 0.920365 3.24085 0
M  V30 4254 O 388.735 0.139377 4.01458 0
M  V30 4255 N 386.941 0.726566 2.81371 0
M  V30 4256 H 386.488 1.36332 2.18567 0
M  V30 4257 H 386.446 -0.0763799 3.14307 0
M  V30 4258 N 390.218 -0.567019 1.47046 0
M  V30 4259 C 391.464 -1.32658 1.53394 0
M  V30 4260 C 391.797 -1.93254 0.19148 0
M  V30 4261 O 391.072 -1.77338 -0.798844 0
M  V30 4262 C 391.355 -2.44412 2.64452 0
M  V30 4263 C 391.208 -1.88749 4.08282 0
M  V30 4264 C 392.527 -3.46387 2.71485 0
M  V30 4265 H 389.646 -0.48098 0.558415 0
M  V30 4266 H 392.288 -0.635481 1.79058 0
M  V30 4267 H 390.438 -3.03363 2.427 0
M  V30 4268 H 392.11 -1.34134 4.41368 0
M  V30 4269 H 390.353 -1.19481 4.17021 0
M  V30 4270 H 391.024 -2.69491 4.81745 0
M  V30 4271 H 393.5 -2.9734 2.91081 0
M  V30 4272 H 392.376 -4.2202 3.50985 0
M  V30 4273 H 392.637 -4.04616 1.78153 0
M  V30 4274 N 391.696 -1.35014 -0.812953 0
M  V30 4275 C 392.942 -1.2812 -1.57204 0
M  V30 4276 C 393.275 0.145869 -1.93651 0
M  V30 4277 O 392.55 1.0937 -1.60836 0
M  V30 4278 C 392.833 -2.18162 -2.86492 0
M  V30 4279 C 392.686 -3.69454 -2.56561 0
M  V30 4280 C 394.005 -2.07439 -3.88145 0
M  V30 4281 H 391.124 -0.466746 -0.570366 0
M  V30 4282 H 393.766 -1.65357 -0.935783 0
M  V30 4283 H 391.916 -1.86535 -3.40789 0
M  V30 4284 H 393.588 -4.11493 -2.08497 0
M  V30 4285 H 391.831 -3.9005 -1.89851 0
M  V30 4286 H 392.502 -4.27835 -3.48799 0
M  V30 4287 H 394.978 -2.35228 -3.4323 0
M  V30 4288 H 393.854 -2.7265 -4.76396 0
M  V30 4289 H 394.115 -1.05439 -4.29343 0
M  V30 4290 N 393.175 1.03435 -1.18907 0
M  V30 4291 C 394.105 2.13503 -0.945448 0
M  V30 4292 C 395.086 1.69682 0.119189 0
M  V30 4293 O 396.271 1.94169 -0.034707 0
M  V30 4294 C 393.401 3.44004 -0.477316 0
M  V30 4295 C 392.355 4.0148 -1.48316 0
M  V30 4296 C 391.681 5.27537 -0.872311 0
M  V30 4297 C 392.981 4.36921 -2.86177 0
M  V30 4298 H 394.675 2.34141 -1.86597 0
M  V30 4299 H 392.221 1.12523 -0.898584 0
M  V30 4300 H 394.174 4.20372 -0.294204 0
M  V30 4301 H 392.898 3.23072 0.478786 0
M  V30 4302 H 391.557 3.27201 -1.65332 0
M  V30 4303 H 391.205 5.02917 0.0911752 0
M  V30 4304 H 390.905 5.66954 -1.54393 0
M  V30 4305 H 392.429 6.06576 -0.699871 0
M  V30 4306 H 393.843 5.04248 -2.72776 0
M  V30 4307 H 392.24 4.87405 -3.50081 0
M  V30 4308 H 393.31 3.46466 -3.39248 0
M  V30 4309 N 394.653 0.992116 1.22453 0
M  V30 4310 C 395.899 0.668523 1.91464 0
M  V30 4311 C 396.232 -0.797313 1.77078 0
M  V30 4312 O 395.507 -1.5765 1.13916 0
M  V30 4313 C 395.79 1.07424 3.43703 0
M  V30 4314 C 395.643 2.59857 3.67143 0
M  V30 4315 C 396.962 0.626891 4.35612 0
M  V30 4316 H 394.081 0.244341 0.695318 0
M  V30 4317 H 396.723 1.2355 1.44345 0
M  V30 4318 H 394.873 0.591816 3.83966 0
M  V30 4319 H 396.545 3.15764 3.3629 0
M  V30 4320 H 394.788 3.01961 3.11451 0
M  V30 4321 H 395.459 2.83296 4.73759 0
M  V30 4322 H 397.935 1.04125 4.02861 0
M  V30 4323 H 396.811 0.939076 5.40807 0
M  V30 4324 H 397.072 -0.472457 4.39568 0
M  V30 4325 N 396.131 -1.37776 0.765217 0
M  V30 4326 C 397.377 -2.00145 0.327072 0
M  V30 4327 C 397.71 -1.60607 -1.09175 0
M  V30 4328 O 396.985 -0.849127 -1.74986 0
M  V30 4329 C 397.268 -3.57109 0.46319 0
M  V30 4330 C 397.121 -4.06576 1.92395 0
M  V30 4331 C 398.44 -4.39888 -0.136473 0
M  V30 4332 H 395.559 -0.727113 0.120316 0
M  V30 4333 H 398.201 -1.63549 0.967039 0
M  V30 4334 H 396.351 -3.88414 -0.0816358 0
M  V30 4335 H 398.023 -3.85864 2.52798 0
M  V30 4336 H 396.266 -3.59011 2.43503 0
M  V30 4337 H 396.937 -5.15639 1.97028 0
M  V30 4338 H 399.413 -4.14803 0.328317 0
M  V30 4339 H 398.289 -5.48899 -0.0110582 0
M  V30 4340 H 398.55 -4.24758 -1.22608 0
M  V30 4341 N 397.609 -0.515225 -1.4894 0
M  V30 4342 C 398.542 0.302518 -2.26186 0
M  V30 4343 C 399.52 0.957895 -1.31389 0
M  V30 4344 O 400.704 0.985198 -1.60705 0
M  V30 4345 C 397.831 1.42719 -3.07163 0
M  V30 4346 C 396.877 0.884736 -4.17223 0
M  V30 4347 S 397.71 -0.235767 -5.34981 0
M  V30 4348 C 398.866 0.891731 -6.19515 0
M  V30 4349 H 399.099 -0.353076 -2.95196 0
M  V30 4350 H 396.632 -0.300753 -1.51443 0
M  V30 4351 H 398.59 2.07152 -3.54398 0
M  V30 4352 H 397.251 2.05445 -2.37595 0
M  V30 4353 H 396.444 1.72801 -4.73451 0
M  V30 4354 H 396.046 0.317362 -3.72651 0
M  V30 4355 H 398.338 1.79377 -6.53322 0
M  V30 4356 H 399.281 0.367751 -7.07144 0
M  V30 4357 H 399.689 1.16548 -5.52338 0
M  V30 4358 N 399.087 1.5561 -0.249682 0
M  V30 4359 C 400.333 1.99306 0.374841 0
M  V30 4360 C 400.666 1.13767 1.57387 0
M  V30 4361 O 399.941 0.201711 1.93451 0
M  V30 4362 C 400.224 3.51507 0.781986 0
M  V30 4363 C 400.077 4.4781 -0.422629 0
M  V30 4364 C 401.396 4.08884 1.62793 0
M  V30 4365 H 398.515 0.724572 0.134773 0
M  V30 4366 H 401.157 1.86719 -0.351549 0
M  V30 4367 H 399.307 3.62363 1.4009 0
M  V30 4368 H 400.979 4.48931 -1.06108 0
M  V30 4369 H 399.222 4.20518 -1.06524 0
M  V30 4370 H 399.893 5.51919 -0.0943766 0
M  V30 4371 H 402.369 4.01147 1.10547 0
M  V30 4372 H 401.245 5.1564 1.88166 0
M  V30 4373 H 401.506 3.57515 2.60068 0
M  V30 4374 N 400.565 -0.0233959 1.57583 0
M  V30 4375 C 401.811 -0.714119 1.89811 0
M  V30 4376 C 402.144 -1.74702 0.848113 0
M  V30 4377 O 401.419 -1.94023 -0.136135 0
M  V30 4378 C 401.702 -1.37853 3.32669 0
M  V30 4379 C 401.555 -0.358764 4.48367 0
M  V30 4380 C 402.874 -2.31101 3.7454 0
M  V30 4381 H 399.993 -0.25814 0.690314 0
M  V30 4382 H 402.635 0.0230927 1.89986 0
M  V30 4383 H 400.785 -2.00689 3.3265 0
M  V30 4384 H 402.457 0.268115 4.6052 0
M  V30 4385 H 400.7 0.321387 4.32608 0
M  V30 4386 H 401.371 -0.862242 5.45224 0
M  V30 4387 H 403.847 -1.78304 3.75961 0
M  V30 4388 H 402.723 -2.74567 4.75294 0
M  V30 4389 H 402.984 -3.18018 3.0711 0
M  V30 4390 N 402.043 -1.548 -0.295768 0
M  V30 4391 C 403.006 -1.85363 -1.34808 0
M  V30 4392 C 404.006 -0.726817 -1.43436 0
M  V30 4393 O 405.196 -0.995088 -1.42981 0
M  V30 4394 C 402.328 -2.03859 -2.73229 0
M  V30 4395 H 403.521 -2.7941 -1.08949 0
M  V30 4396 H 401.074 -1.46942 -0.532702 0
M  V30 4397 H 401.809 -1.12117 -3.04303 0
M  V30 4398 H 401.594 -2.8588 -2.68356 0
M  V30 4399 H 403.084 -2.28857 -3.49305 0
M  V30 4400 N 403.521 0.559213 -1.47345 0
M  V30 4401 C 404.768 1.31648 -1.53867 0
M  V30 4402 C 405.096 1.93468 -0.200104 0
M  V30 4403 O 404.351 1.78295 0.806799 0
M  V30 4404 C 404.65 2.44853 -2.6035 0
M  V30 4405 C 404.316 2.00876 -4.03683 0
M  V30 4406 C 402.978 1.88599 -4.42701 0
M  V30 4407 C 405.33 1.67279 -4.93626 0
M  V30 4408 C 402.658 1.41017 -5.69501 0
M  V30 4409 C 405.01 1.21169 -6.20887 0
M  V30 4410 C 403.674 1.07487 -6.58789 0
M  V30 4411 H 402.944 0.481734 -0.56304 0
M  V30 4412 H 405.591 0.627301 -1.80934 0
M  V30 4413 H 403.896 3.19318 -2.27032 0
M  V30 4414 H 405.593 3.03039 -2.62619 0
M  V30 4415 H 402.183 2.11374 -3.72853 0
M  V30 4416 H 406.367 1.75638 -4.64182 0
M  V30 4417 H 401.623 1.29086 -5.97618 0
M  V30 4418 H 405.797 0.942345 -6.89995 0
M  V30 4419 H 403.424 0.703946 -7.56934 0
M  V30 4420 N 404.999 1.35443 0.805782 0
M  V30 4421 C 405.962 1.28301 1.89925 0
M  V30 4422 C 406.962 0.194285 1.59622 0
M  V30 4423 O 408.152 0.448036 1.6834 0
M  V30 4424 C 405.284 0.984997 3.2636 0
M  V30 4425 H 406.477 2.2553 1.97677 0
M  V30 4426 H 404.03 1.19979 1.00173 0
M  V30 4427 H 404.765 0.016603 3.24296 0
M  V30 4428 H 404.55 1.77269 3.4974 0
M  V30 4429 H 406.04 0.960651 4.064 0
M  V30 4430 N 406.477 -1.02803 1.19454 0
M  V30 4431 C 407.723 -1.76478 0.999171 0
M  V30 4432 C 408.056 -1.88456 -0.468828 0
M  V30 4433 O 407.331 -1.40198 -1.34814 0
M  V30 4434 C 407.614 -3.19044 1.66981 0
M  V30 4435 C 407.467 -3.14932 3.21151 0
M  V30 4436 C 408.786 -4.17456 1.39349 0
M  V30 4437 H 405.905 -0.640614 0.364393 0
M  V30 4438 H 408.547 -1.20005 1.47305 0
M  V30 4439 H 406.697 -3.67263 1.2669 0
M  V30 4440 H 408.369 -2.74605 3.70661 0
M  V30 4441 H 406.612 -2.52625 3.52652 0
M  V30 4442 H 407.283 -4.1566 3.63223 0
M  V30 4443 H 409.759 -3.77842 1.74283 0
M  V30 4444 H 408.635 -5.154 1.88823 0
M  V30 4445 H 408.896 -4.40949 0.318813 0
M  V30 4446 N 407.956 -0.998596 -1.21925 0
M  V30 4447 C 408.886 -0.573688 -2.26343 0
M  V30 4448 C 409.867 0.402296 -1.65274 0
M  V30 4449 O 411.052 0.291683 -1.91997 0
M  V30 4450 C 408.182 0.106839 -3.47136 0
M  V30 4451 C 407.136 -0.788269 -4.20678 0
M  V30 4452 C 406.462 0.0254927 -5.34694 0
M  V30 4453 C 407.762 -2.08784 -4.78755 0
M  V30 4454 H 409.456 -1.44651 -2.62138 0
M  V30 4455 H 407.002 -0.696975 -1.26009 0
M  V30 4456 H 408.955 0.415531 -4.19346 0
M  V30 4457 H 407.679 1.01424 -3.10452 0
M  V30 4458 H 406.338 -1.08069 -3.50309 0
M  V30 4459 H 405.986 0.933989 -4.94253 0
M  V30 4460 H 405.686 -0.570437 -5.84825 0
M  V30 4461 H 407.21 0.328147 -6.09718 0
M  V30 4462 H 408.624 -1.84272 -5.42878 0
M  V30 4463 H 407.021 -2.63307 -5.39249 0
M  V30 4464 H 408.091 -2.76284 -3.98491 0
M  V30 4465 N 409.434 1.37368 -0.772513 0
M  V30 4466 C 410.68 2.00423 -0.3467 0
M  V30 4467 C 411.035 1.60224 1.06518 0
M  V30 4468 O 410.328 0.838712 1.72268 0
M  V30 4469 C 410.522 3.54817 -0.428876 0
M  V30 4470 C 410.351 4.10011 -1.84719 0
M  V30 4471 C 409.121 4.40927 -2.46803 0
M  V30 4472 C 411.319 4.30955 -2.80681 0
M  V30 4473 N 409.301 4.8184 -3.80399 0
M  V30 4474 C 410.672 4.74486 -3.99078 0
M  V30 4475 C 412.727 4.1309 -2.77958 0
M  V30 4476 C 411.43 5.02023 -5.15136 0
M  V30 4477 C 413.456 4.41764 -3.9319 0
M  V30 4478 C 412.818 4.85535 -5.10328 0
M  V30 4479 H 408.917 0.762413 -0.173927 0
M  V30 4480 H 411.501 1.66666 -1.00651 0
M  V30 4481 H 409.672 3.87881 0.200757 0
M  V30 4482 H 411.404 4.04696 0.0190668 0
M  V30 4483 H 408.159 4.30033 -1.98415 0
M  V30 4484 H 408.583 5.06604 -4.49089 0
M  V30 4485 H 413.225 3.7842 -1.88568 0
M  V30 4486 H 410.943 5.35582 -6.05126 0
M  V30 4487 H 414.529 4.29528 -3.92425 0
M  V30 4488 H 413.409 5.07296 -5.98013 0
M  V30 4489 N 410.912 0.523116 1.48665 0
M  V30 4490 C 411.842 -0.23231 2.32342 0
M  V30 4491 C 412.823 -0.941637 1.41659 0
M  V30 4492 O 414.008 -0.928751 1.70552 0
M  V30 4493 C 411.138 -1.28387 3.22698 0
M  V30 4494 C 410.092 -0.693098 4.22351 0
M  V30 4495 C 409.418 -1.8468 5.01794 0
M  V30 4496 C 410.718 0.33063 5.21252 0
M  V30 4497 H 412.412 0.466192 2.95748 0
M  V30 4498 H 409.958 0.225643 1.42221 0
M  V30 4499 H 411.911 -1.82024 3.80059 0
M  V30 4500 H 410.635 -2.01186 2.57278 0
M  V30 4501 H 409.294 -0.178299 3.66166 0
M  V30 4502 H 408.942 -2.56301 4.32804 0
M  V30 4503 H 408.642 -1.45747 5.69238 0
M  V30 4504 H 410.166 -2.38709 5.62006 0
M  V30 4505 H 411.58 -0.118407 5.73178 0
M  V30 4506 H 409.977 0.636974 5.9671 0
M  V30 4507 H 411.047 1.23883 4.68808 0
M  V30 4508 N 412.39 -1.55475 0.257931 0
M  V30 4509 C 413.801 -1.8511 -0.243135 0
M  V30 4510 C 414.152 -1.17986 -1.5676 0
M  V30 4511 O 413.277 -0.462102 -2.11409 0
M  V30 4512 C 413.872 -3.35826 -0.447929 0
M  V30 4513 C 412.431 -3.65647 -0.893245 0
M  V30 4514 C 411.578 -2.7729 0.0232965 0
M  V30 4515 H 414.529 -1.51261 0.480199 0
M  V30 4516 H 414.55 -3.58002 -1.28898 0
M  V30 4517 H 414.062 -3.84652 0.516196 0
M  V30 4518 H 412.163 -3.22308 -1.86945 0
M  V30 4519 H 412.276 -4.73312 -0.742469 0
M  V30 4520 H 410.64 -2.49942 -0.490021 0
M  V30 4521 H 411.423 -3.28926 0.982994 0
M  V30 4522 N 413.868 0.0150385 -1.57593 0
M  V30 4523 C 414.798 1.01047 -2.10503 0
M  V30 4524 C 415.779 1.36816 -1.01071 0
M  V30 4525 O 416.964 1.45455 -1.28672 0
M  V30 4526 C 414.094 2.30708 -2.59598 0
M  V30 4527 C 413.048 2.09142 -3.73421 0
M  V30 4528 C 412.374 3.44685 -4.08774 0
M  V30 4529 C 413.674 1.46619 -5.01298 0
M  V30 4530 H 415.368 0.569978 -2.93925 0
M  V30 4531 H 412.914 0.272724 -1.41394 0
M  V30 4532 H 414.867 3.00687 -2.95238 0
M  V30 4533 H 413.591 2.76843 -1.73279 0
M  V30 4534 H 412.25 1.41592 -3.38153 0
M  V30 4535 H 411.898 3.88495 -3.195 0
M  V30 4536 H 411.598 3.31077 -4.8545 0
M  V30 4537 H 413.122 4.16004 -4.4696 0
M  V30 4538 H 414.536 2.06535 -5.34805 0
M  V30 4539 H 412.933 1.43544 -5.82679 0
M  V30 4540 H 414.003 0.433611 -4.82957 0
M  V30 4541 N 415.346 1.54954 0.287554 0
M  V30 4542 C 416.296 1.8322 1.357 0
M  V30 4543 C 417.28 0.690152 1.45347 0
M  V30 4544 O 418.472 0.951137 1.49273 0
M  V30 4545 C 415.601 2.09481 2.71979 0
M  V30 4546 C 414.687 3.29906 2.66502 0
M  V30 4547 N 415.078 4.50154 2.30641 0
M  V30 4548 C 413.376 3.32203 2.97585 0
M  V30 4549 C 414.077 5.32209 2.34794 0
M  V30 4550 N 413.053 4.70258 2.72688 0
M  V30 4551 H 416.855 2.73746 1.0696 0
M  V30 4552 H 414.369 1.54635 0.496167 0
M  V30 4553 H 416.366 2.27882 3.49107 0
M  V30 4554 H 415.026 1.2023 3.0162 0
M  V30 4555 H 416.037 4.76515 2.02865 0
M  V30 4556 H 412.714 2.53101 3.32034 0
M  V30 4557 H 414.104 6.38321 2.09753 0
M  V30 4558 N 416.824 -0.551391 1.4764 0
M  V30 4559 C 418.07 -1.31024 1.54792 0
M  V30 4560 C 418.403 -1.9304 0.211967 0
M  V30 4561 O 417.678 -1.78175 -0.77999 0
M  V30 4562 C 417.961 -2.41593 2.67029 0
M  V30 4563 C 417.814 -1.84408 4.10261 0
M  V30 4564 C 419.133 -3.43488 2.75143 0
M  V30 4565 H 416.252 -0.475031 0.563485 0
M  V30 4566 H 418.894 -0.616454 1.79722 0
M  V30 4567 H 417.044 -3.00772 2.45904 0
M  V30 4568 H 418.716 -1.29445 4.42766 0
M  V30 4569 H 416.959 -1.15051 4.18265 0
M  V30 4570 H 417.63 -2.64367 4.84576 0
M  V30 4571 H 420.106 -2.94236 2.94218 0
M  V30 4572 H 418.982 -4.18274 3.55441 0
M  V30 4573 H 419.243 -4.02703 1.82435 0
M  V30 4574 N 418.302 -1.35869 -0.798587 0
M  V30 4575 C 419.549 -1.29588 -1.55606 0
M  V30 4576 C 419.877 0.127456 -1.94082 0
M  V30 4577 O 419.132 1.09461 -1.62225 0
M  V30 4578 C 419.431 -2.1556 -2.85077 0
M  V30 4579 C 419.097 -3.6424 -2.65781 0
M  V30 4580 C 417.759 -4.04766 -2.60227 0
M  V30 4581 C 420.111 -4.58547 -2.47758 0
M  V30 4582 C 417.439 -5.37753 -2.34603 0
M  V30 4583 C 419.791 -5.91742 -2.23662 0
M  V30 4584 C 418.455 -6.31402 -2.16534 0
M  V30 4585 H 417.725 -0.474197 -0.569402 0
M  V30 4586 H 420.372 -1.67839 -0.922086 0
M  V30 4587 H 418.677 -1.70216 -3.52893 0
M  V30 4588 H 420.374 -2.08031 -3.42818 0
M  V30 4589 H 416.964 -3.32086 -2.70956 0
M  V30 4590 H 421.148 -4.28117 -2.51056 0
M  V30 4591 H 416.404 -5.67474 -2.2756 0
M  V30 4592 H 420.578 -6.6439 -2.08708 0
M  V30 4593 H 418.205 -7.34381 -1.96441 0
M  V30 4594 N 419.78 1.02168 -1.19998 0
M  V30 4595 C 420.728 2.12717 -0.940967 0
M  V30 4596 C 421.722 1.69069 0.105841 0
M  V30 4597 O 422.928 1.79946 -0.0440583 0
M  V30 4598 H 419.303 0.695108 -0.28693 0
M  V30 4599 H 421.274 2.3175 -1.87975 0
M  V30 4600 C 420.023 3.44027 -0.504049 0
M  V30 4601 H 419.346 3.78036 -1.30112 0
M  V30 4602 H 420.786 4.22452 -0.361991 0
M  V30 4603 C 419.245 3.27678 0.782878 0
M  V30 4604 O 419.775 3.56949 1.84256 0
M  V30 4605 N 417.981 2.80943 0.742921 0
M  V30 4606 H 417.528 2.57322 -0.119687 0
M  V30 4607 H 417.486 2.70385 1.60435 0
M  V30 4608 N 421.258 1.00505 1.21394 0
M  V30 4609 C 422.483 0.706367 1.95001 0
M  V30 4610 C 422.908 -0.72463 1.73582 0
M  V30 4611 O 422.266 -1.49702 1.0227 0
M  V30 4612 C 422.314 1.03299 3.45487 0
M  V30 4613 O 421.418 0.138275 4.12168 0
M  V30 4614 H 420.759 0.263175 0.609619 0
M  V30 4615 H 423.289 1.34531 1.54151 0
M  V30 4616 H 423.299 0.979872 3.96059 0
M  V30 4617 H 421.974 2.07567 3.60401 0
M  V30 4618 H 420.551 0.247928 3.72075 0
M  V30 4619 N 422.737 -1.36956 0.779787 0
M  V30 4620 C 423.667 -2.32761 0.185651 0
M  V30 4621 C 424.648 -1.56177 -0.673989 0
M  V30 4622 O 425.833 -1.84378 -0.609797 0
M  V30 4623 C 422.963 -3.40418 -0.687964 0
M  V30 4624 C 421.917 -4.27941 0.0710102 0
M  V30 4625 C 421.243 -5.26681 -0.922573 0
M  V30 4626 C 422.543 -5.07006 1.25467 0
M  V30 4627 H 424.237 -2.82698 0.986008 0
M  V30 4628 H 421.783 -1.3592 0.475592 0
M  V30 4629 H 423.736 -4.06423 -1.11348 0
M  V30 4630 H 422.46 -2.89025 -1.52093 0
M  V30 4631 H 421.119 -3.63478 0.47739 0
M  V30 4632 H 420.767 -4.71565 -1.7503 0
M  V30 4633 H 420.467 -5.86103 -0.419237 0
M  V30 4634 H 421.991 -5.9556 -1.34686 0
M  V30 4635 H 423.405 -5.66105 0.905401 0
M  V30 4636 H 421.802 -5.75793 1.69063 0
M  V30 4637 H 422.872 -4.3921 2.05481 0
M  V30 4638 N 424.215 -0.530993 -1.48385 0
M  V30 4639 C 425.125 0.23503 -2.3342 0
M  V30 4640 C 426.141 0.93801 -1.46552 0
M  V30 4641 O 427.317 0.912745 -1.7953 0
M  V30 4642 C 424.382 1.26778 -3.22689 0
M  V30 4643 C 423.443 0.575038 -4.25431 0
M  V30 4644 C 422.676 1.55858 -5.10435 0
M  V30 4645 O 422.899 2.79129 -4.97437 0
M  V30 4646 O 421.833 1.09742 -5.91811 0
M  V30 4647 H 425.659 -0.461794 -3.00169 0
M  V30 4648 H 423.244 -0.291903 -1.46521 0
M  V30 4649 H 425.126 1.86457 -3.77904 0
M  V30 4650 H 423.801 1.94699 -2.586 0
M  V30 4651 H 422.708 -0.0622782 -3.74048 0
M  V30 4652 H 424.041 -0.062253 -4.92161 0
M  V30 4653 N 425.693 1.55336 -0.266172 0
M  V30 4654 C 426.97 1.91372 0.404486 0
M  V30 4655 C 427.35 1.18935 1.74407 0
M  V30 4656 O 426.698 0.3132 2.26343 0
M  V30 4657 C 426.908 3.44581 0.553593 0
M  V30 4658 C 428.256 4.16196 0.840618 0
M  V30 4659 O 429.28 3.50426 0.638739 0
M  V30 4660 O 428.139 5.32567 1.22618 0
M  V30 4661 H 425.233 0.797194 0.220025 0
M  V30 4662 H 427.779 1.66813 -0.311664 0
M  V30 4663 H 426.551 3.89357 -0.389498 0
M  V30 4664 H 426.174 3.75065 1.31955 0
M  V30 4665 N 427.171 -0.0066808 1.57599 0
M  V30 4666 C 428.417 -0.68835 1.91398 0
M  V30 4667 C 428.772 -1.7175 0.86716 0
M  V30 4668 O 428.065 -1.91215 -0.121475 0
M  V30 4669 C 428.259 -1.37939 3.29708 0
M  V30 4670 C 428.088 -0.418689 4.47747 0
M  V30 4671 C 426.858 -0.031526 5.0529 0
M  V30 4672 C 429.056 0.312301 5.13351 0
M  V30 4673 N 427.038 0.928088 6.06844 0
M  V30 4674 C 428.409 1.12682 6.09674 0
M  V30 4675 C 430.464 0.376853 4.96472 0
M  V30 4676 C 429.167 2 6.90936 0
M  V30 4677 C 431.193 1.23723 5.78314 0
M  V30 4678 C 430.555 2.03962 6.74225 0
M  V30 4679 H 426.654 -0.225292 0.748844 0
M  V30 4680 H 429.238 0.0520973 1.9463 0
M  V30 4681 H 427.409 -2.09017 3.27363 0
M  V30 4682 H 429.141 -2.01522 3.50957 0
M  V30 4683 H 425.896 -0.398485 4.71921 0
M  V30 4684 H 426.32 1.40307 6.62301 0
M  V30 4685 H 430.962 -0.22921 4.22178 0
M  V30 4686 H 428.68 2.61676 7.64559 0
M  V30 4687 H 432.266 1.291 5.67296 0
M  V30 4688 H 431.146 2.69461 7.36451 0
M  V30 4689 N 428.649 -1.55105 -0.279332 0
M  V30 4690 C 429.599 -1.83937 -1.34727 0
M  V30 4691 C 430.583 -0.69785 -1.44979 0
M  V30 4692 O 431.775 -0.95904 -1.48766 0
M  V30 4693 C 428.904 -2.1092 -2.70864 0
M  V30 4694 C 427.99 -3.31314 -2.64748 0
M  V30 4695 N 428.381 -4.51371 -2.2825 0
M  V30 4696 C 426.679 -3.33777 -2.95819 0
M  V30 4697 C 427.38 -5.33447 -2.31969 0
M  V30 4698 N 426.356 -4.71697 -2.7019 0
M  V30 4699 H 430.158 -2.74309 -1.05506 0
M  V30 4700 H 427.672 -1.54896 -0.487959 0
M  V30 4701 H 429.669 -2.2973 -3.47893 0
M  V30 4702 H 428.329 -1.21828 -3.00979 0
M  V30 4703 H 429.34 -4.77584 -2.00335 0
M  V30 4704 H 426.017 -2.54858 -3.30687 0
M  V30 4705 H 427.407 -6.39424 -2.06365 0
M  V30 4706 N 430.127 0.543554 -1.4793 0
M  V30 4707 C 431.077 1.64527 -1.57844 0
M  V30 4708 C 432.061 1.54869 -0.436408 0
M  V30 4709 O 433.253 1.63119 -0.687101 0
M  V30 4710 C 430.382 3.03281 -1.6086 0
M  V30 4711 C 429.468 3.18093 -2.80495 0
M  V30 4712 N 429.859 3.02923 -4.05057 0
M  V30 4713 C 428.157 3.49121 -2.77543 0
M  V30 4714 C 428.858 3.20791 -4.85251 0
M  V30 4715 N 427.834 3.47749 -4.17818 0
M  V30 4716 H 431.636 1.51388 -2.5191 0
M  V30 4717 H 429.15 0.748671 -1.44113 0
M  V30 4718 H 431.147 3.82403 -1.66054 0
M  V30 4719 H 429.807 3.17521 -0.678996 0
M  V30 4720 H 430.818 2.79966 -4.35705 0
M  V30 4721 H 427.495 3.69804 -1.93781 0
M  V30 4722 H 428.885 3.13915 -5.9406 0
M  V30 4723 N 431.605 1.3629 0.791371 0
M  V30 4724 C 432.515 1.32606 1.93527 0
M  V30 4725 C 433.531 0.228541 1.72493 0
M  V30 4726 O 434.707 0.460571 1.96063 0
M  V30 4727 C 431.772 1.11271 3.28359 0
M  V30 4728 C 430.833 2.3048 3.62185 0
M  V30 4729 C 430.066 2.10154 4.90583 0
M  V30 4730 O 430.289 1.07572 5.60165 0
M  V30 4731 O 429.223 2.97884 5.23019 0
M  V30 4732 H 433.049 2.28909 1.99585 0
M  V30 4733 H 430.634 1.16818 0.931344 0
M  V30 4734 H 432.516 1.01283 4.09047 0
M  V30 4735 H 431.191 0.180292 3.23198 0
M  V30 4736 H 430.098 2.46036 2.81811 0
M  V30 4737 H 431.431 3.22221 3.72068 0
M  V30 4738 N 433.083 -1.0153 1.20538 0
M  V30 4739 C 434.046 -2.0826 0.957098 0
M  V30 4740 C 435.046 -1.60657 -0.0678655 0
M  V30 4741 O 436.236 -1.73385 0.168332 0
M  V30 4742 C 433.368 -3.38033 0.441188 0
M  V30 4743 H 434.561 -2.31719 1.90384 0
M  V30 4744 H 432.114 -1.1835 1.02093 0
M  V30 4745 H 432.849 -3.20249 -0.510961 0
M  V30 4746 H 432.634 -3.73911 1.18038 0
M  V30 4747 H 434.124 -4.16613 0.287009 0
M  V30 4748 N 434.561 -1.01147 -1.20859 0
M  V30 4749 C 435.81 -0.693214 -1.89413 0
M  V30 4750 C 436.123 0.779969 -1.79376 0
M  V30 4751 O 437.329 1.21057 -2.43017 0
M  V30 4752 C 435.785 -1.18949 -3.39675 0
M  V30 4753 C 435.393 -2.68921 -3.58309 0
M  V30 4754 C 437.137 -0.94642 -4.13815 0
M  V30 4755 C 435.044 -3.12056 -5.0237 0
M  V30 4756 H 433.974 -0.255595 -0.709357 0
M  V30 4757 H 436.625 -1.22349 -1.36759 0
M  V30 4758 H 435.007 -0.587228 -3.91622 0
M  V30 4759 H 436.181 -3.34652 -3.16772 0
M  V30 4760 H 434.496 -2.91314 -2.97532 0
M  V30 4761 H 437.093 -1.24417 -5.20023 0
M  V30 4762 H 437.436 0.117219 -4.16135 0
M  V30 4763 H 437.969 -1.5118 -3.67953 0
M  V30 4764 H 434.708 -4.17674 -5.05202 0
M  V30 4765 H 434.228 -2.51041 -5.44737 0
M  V30 4766 H 435.907 -3.04403 -5.70918 0
M  V30 4767 N 436.039 1.36541 -0.78704 0
M  V30 4768 C 437.45 1.81873 -0.421807 0
M  V30 4769 C 437.801 1.65487 1.05397 0
M  V30 4770 O 436.926 1.17448 1.81755 0
M  V30 4771 C 437.521 3.30192 -0.758841 0
M  V30 4772 C 436.08 3.73743 -0.446468 0
M  V30 4773 C 435.227 2.58844 -0.994728 0
M  V30 4774 H 438.178 1.24796 -0.98039 0
M  V30 4775 H 438.199 3.80468 -0.0490648 0
M  V30 4776 H 437.711 3.42087 -1.83299 0
M  V30 4777 H 435.812 3.6741 0.619739 0
M  V30 4778 H 435.925 4.69272 -0.965415 0
M  V30 4779 H 434.289 2.51245 -0.418087 0
M  V30 4780 H 435.072 2.73525 -2.07458 0
M  V30 4781 N 437.518 0.538854 1.48102 0
M  V30 4782 C 438.767 0.0059532 2.01699 0
M  V30 4783 C 439.08 -1.34476 1.42041 0
M  V30 4784 O 440.286 -1.96653 1.87189 0
M  V30 4785 C 438.742 -0.0397627 3.59878 0
M  V30 4786 C 438.35 1.30659 4.28523 0
M  V30 4787 C 440.094 -0.521024 4.2129 0
M  V30 4788 C 438.001 1.22098 5.78659 0
M  V30 4789 H 436.931 -0.00154456 0.753998 0
M  V30 4790 H 439.582 0.683963 1.70277 0
M  V30 4791 H 437.964 -0.783037 3.88181 0
M  V30 4792 H 439.138 2.06613 4.11883 0
M  V30 4793 H 437.453 1.7243 3.79021 0
M  V30 4794 H 440.05 -0.603184 5.31287 0
M  V30 4795 H 440.393 -1.52885 3.8721 0
M  V30 4796 H 440.926 0.166834 3.9745 0
M  V30 4797 H 437.665 2.20424 6.17328 0
M  V30 4798 H 437.185 0.50295 5.97688 0
M  V30 4799 H 438.864 0.915345 6.40492 0
M  V30 4800 N 438.996 -1.55193 0.274407 0
M  V30 4801 C 440.236 -2.01488 -0.343778 0
M  V30 4802 C 440.6 -1.1586 -1.53103 0
M  V30 4803 O 441.801 -1.51732 -2.2188 0
M  V30 4804 C 440.072 -3.50134 -0.717021 0
M  V30 4805 S 441.631 -4.18417 -1.32184 0
M  V30 4806 H 438.449 -0.70291 -0.106948 0
M  V30 4807 H 441.051 -1.91446 0.396075 0
M  V30 4808 H 439.755 -4.10104 0.155947 0
M  V30 4809 H 439.286 -3.64159 -1.48835 0
M  V30 4810 H 441.301 -4.21984 -2.61044 0
M  V30 4811 N 440.474 -0.00167713 -1.576 0
M  V30 4812 C 441.424 0.997744 -2.0501 0
M  V30 4813 C 442.408 1.30214 -0.94515 0
M  V30 4814 O 443.6 1.29284 -1.20891 0
M  V30 4815 C 440.729 2.2892 -2.55833 0
M  V30 4816 C 439.815 2.01437 -3.73208 0
M  V30 4817 N 440.206 1.44119 -4.84833 0
M  V30 4818 C 438.504 2.31571 -3.8117 0
M  V30 4819 C 439.205 1.33145 -5.66257 0
M  V30 4820 N 438.181 1.81763 -5.12312 0
M  V30 4821 H 441.983 0.549098 -2.88725 0
M  V30 4822 H 439.497 0.20398 -1.61114 0
M  V30 4823 H 441.494 3.01361 -2.88075 0
M  V30 4824 H 440.154 2.74436 -1.73537 0
M  V30 4825 H 441.165 1.11978 -5.0565 0
M  V30 4826 H 437.842 2.7995 -3.09732 0
M  V30 4827 H 439.232 0.890567 -6.65972 0
M  V30 4828 N 441.952 1.55251 0.271103 0
M  V30 4829 C 443.2 1.75599 1.00047 0
M  V30 4830 C 443.521 0.561188 1.8675 0
M  V30 4831 O 442.791 -0.423846 1.9126 0
M  V30 4832 H 441.371 0.647562 0.372387 0
M  V30 4833 H 444.033 1.92656 0.294876 0
M  V30 4834 H 443.129 2.65766 1.6363 0
M  V30 4835 N 443.43 -0.535701 1.48216 0
M  V30 4836 C 444.378 -1.66179 1.62749 0
M  V30 4837 C 445.372 -1.62034 0.49409 0
M  V30 4838 O 446.578 -1.6696 0.672624 0
M  V30 4839 H 442.953 -0.550244 0.512578 0
M  V30 4840 H 444.924 -1.51063 2.57337 0
M  V30 4841 C 443.673 -3.04471 1.67907 0
M  V30 4842 H 442.996 -3.08351 2.54479 0
M  V30 4843 H 444.436 -3.82894 1.82121 0
M  V30 4844 C 442.895 -3.34314 0.416596 0
M  V30 4845 O 443.425 -3.98905 -0.473014 0
M  V30 4846 N 441.631 -2.89149 0.290038 0
M  V30 4847 H 441.178 -2.36764 1.01493 0
M  V30 4848 H 441.136 -3.09486 -0.55367 0
M  V30 4849 N 444.908 -1.36708 -0.784132 0
M  V30 4850 C 445.838 -1.34153 -1.91116 0
M  V30 4851 C 446.819 -0.212121 -1.68772 0
M  V30 4852 O 448.004 -0.410581 -1.8981 0
M  V30 4853 C 445.134 -1.13535 -3.28218 0
M  V30 4854 C 444.088 -2.23356 -3.65097 0
M  V30 4855 C 443.414 -1.87875 -5.00607 0
M  V30 4856 C 444.714 -3.65473 -3.73131 0
M  V30 4857 H 446.408 -2.28459 -1.93512 0
M  V30 4858 H 443.954 -1.09973 -0.929618 0
M  V30 4859 H 445.907 -1.10381 -4.06687 0
M  V30 4860 H 444.631 -0.156804 -3.26223 0
M  V30 4861 H 443.29 -2.25645 -2.88929 0
M  V30 4862 H 442.938 -0.885814 -4.95139 0
M  V30 4863 H 442.638 -2.61406 -5.26252 0
M  V30 4864 H 444.162 -1.86286 -5.81489 0
M  V30 4865 H 445.576 -3.65382 -4.41779 0
M  V30 4866 H 443.973 -4.37953 -4.10265 0
M  V30 4867 H 445.043 -3.99995 -2.74102 0
M  V30 4868 N 446.386 1.0089 -1.21074 0
M  V30 4869 C 447.635 1.74019 -1.01981 0
M  V30 4870 C 447.948 1.90408 0.447665 0
M  V30 4871 O 449.154 2.60707 0.757906 0
M  V30 4872 C 447.61 3.13026 -1.77603 0
M  V30 4873 C 447.218 3.04623 -3.28495 0
M  V30 4874 C 448.962 3.90312 -1.66904 0
M  V30 4875 C 446.869 4.38685 -3.96623 0
M  V30 4876 H 445.799 0.652422 -0.377971 0
M  V30 4877 H 448.45 1.12755 -1.44771 0
M  V30 4878 H 446.832 3.74878 -1.27604 0
M  V30 4879 H 448.006 2.52032 -3.85767 0
M  V30 4880 H 446.321 2.40827 -3.39693 0
M  V30 4881 H 448.918 4.8951 -2.15138 0
M  V30 4882 H 449.261 4.11558 -0.62658 0
M  V30 4883 H 449.794 3.35104 -2.14359 0
M  V30 4884 H 446.533 4.22641 -5.01054 0
M  V30 4885 H 446.053 4.91252 -3.4414 0
M  V30 4886 H 447.732 5.075 -4.01314 0
M  V30 4887 N 447.864 1.01787 1.20321 0
M  V30 4888 C 449.111 0.707936 1.89722 0
M  V30 4889 C 449.439 -0.762535 1.78929 0
M  V30 4890 O 448.694 -1.56977 1.16861 0
M  V30 4891 C 448.993 1.09076 3.40349 0
M  V30 4892 C 448.659 2.55765 3.71342 0
M  V30 4893 C 447.321 2.95845 3.79511 0
M  V30 4894 C 449.673 3.50723 3.85542 0
M  V30 4895 C 447.001 4.2982 3.99339 0
M  V30 4896 C 449.353 4.84387 4.06881 0
M  V30 4897 C 448.017 5.24172 4.1328 0
M  V30 4898 H 447.287 0.259052 0.694243 0
M  V30 4899 H 449.934 1.27868 1.42555 0
M  V30 4900 H 448.239 0.438453 3.89339 0
M  V30 4901 H 449.936 0.828636 3.92345 0
M  V30 4902 H 446.526 2.2371 3.65584 0
M  V30 4903 H 450.71 3.20916 3.78585 0
M  V30 4904 H 445.966 4.60196 4.02529 0
M  V30 4905 H 450.14 5.57891 4.1681 0
M  V30 4906 H 447.767 6.27997 4.28396 0
M  V30 4907 N 449.342 -1.36122 0.79427 0
M  V30 4908 C 450.272 -2.32551 0.210328 0
M  V30 4909 C 451.253 -1.56884 -0.657386 0
M  V30 4910 O 452.438 -1.85014 -0.590207 0
M  V30 4911 C 449.568 -3.41128 -0.651819 0
M  V30 4912 C 448.522 -4.27842 0.116395 0
M  V30 4913 C 447.848 -5.2763 -0.86666 0
M  V30 4914 C 449.148 -5.05647 1.30837 0
M  V30 4915 H 450.842 -2.81636 1.01594 0
M  V30 4916 H 448.388 -1.35407 0.489981 0
M  V30 4917 H 450.341 -4.07581 -1.07031 0
M  V30 4918 H 449.065 -2.90622 -1.49019 0
M  V30 4919 H 447.724 -3.62952 0.515915 0
M  V30 4920 H 447.372 -4.73395 -1.70019 0
M  V30 4921 H 447.072 -5.86514 -0.35705 0
M  V30 4922 H 448.596 -5.96955 -1.28361 0
M  V30 4923 H 450.01 -5.65113 0.965393 0
M  V30 4924 H 448.407 -5.73967 1.75161 0
M  V30 4925 H 449.477 -4.37006 2.10128 0
M  V30 4926 N 450.82 -0.546701 -1.47814 0
M  V30 4927 C 452.066 -0.0187684 -2.02791 0
M  V30 4928 C 452.399 1.32338 -1.42128 0
M  V30 4929 O 451.674 1.85867 -0.573023 0
M  V30 4930 C 451.957 0.0854985 -3.59998 0
M  V30 4931 C 451.81 -1.283 -4.31114 0
M  V30 4932 C 453.129 0.80412 -4.32691 0
M  V30 4933 H 450.248 -0.0082946 -0.736953 0
M  V30 4934 H 452.89 -0.706962 -1.76358 0
M  V30 4935 H 451.04 0.671609 -3.82651 0
M  V30 4936 H 452.712 -1.91151 -4.19832 0
M  V30 4937 H 450.955 -1.86049 -3.91878 0
M  V30 4938 H 451.626 -1.16287 -5.39612 0
M  V30 4939 H 454.102 0.306576 -4.14969 0
M  V30 4940 H 452.978 0.846011 -5.42341 0
M  V30 4941 H 453.239 1.85802 -4.01161 0
M  V30 4942 N 452.299 1.55045 -0.282633 0
M  V30 4943 C 453.539 2.01668 0.333088 0
M  V30 4944 C 453.903 1.1667 1.52486 0
M  V30 4945 O 455.104 1.52907 2.21072 0
M  V30 4946 C 453.375 3.50509 0.698442 0
M  V30 4947 S 454.934 4.19112 1.29963 0
M  V30 4948 H 451.752 0.703468 0.103219 0
M  V30 4949 H 454.354 1.91233 -0.406222 0
M  V30 4950 H 453.058 4.10015 -0.177693 0
M  V30 4951 H 452.589 3.64943 1.46902 0
M  V30 4952 H 454.604 4.23362 2.58803 0
M  V30 4953 N 453.777 0.010035 1.57597 0
M  V30 4954 C 454.727 -0.986858 2.05536 0
M  V30 4955 C 455.711 -1.29711 0.952042 0
M  V30 4956 O 456.903 -1.28641 1.21575 0
M  V30 4957 C 454.032 -2.2756 2.57043 0
M  V30 4958 C 453.118 -1.99455 3.74271 0
M  V30 4959 N 453.509 -1.41546 4.85591 0
M  V30 4960 C 451.807 -2.29547 3.82393 0
M  V30 4961 C 452.508 -1.3014 5.66956 0
M  V30 4962 N 451.484 -1.79044 5.13268 0
M  V30 4963 H 455.286 -0.533778 2.89012 0
M  V30 4964 H 452.8 -0.195432 1.6122 0
M  V30 4965 H 454.797 -2.99829 2.89669 0
M  V30 4966 H 453.457 -2.73512 1.7499 0
M  V30 4967 H 454.468 -1.09294 5.06236 0
M  V30 4968 H 451.145 -2.78304 3.11213 0
M  V30 4969 H 452.535 -0.855237 6.66435 0
M  V30 4970 N 455.255 -1.55392 -0.262866 0
M  V30 4971 C 456.185 -1.91978 -1.32917 0
M  V30 4972 C 457.166 -0.7828 -1.51017 0
M  V30 4973 O 458.351 -1.04178 -1.63892 0
M  V30 4974 C 455.481 -2.20055 -2.68687 0
M  V30 4975 C 454.435 -3.35854 -2.65304 0
M  V30 4976 C 453.761 -3.49435 -4.04721 0
M  V30 4977 C 455.061 -4.71977 -2.23685 0
M  V30 4978 H 456.755 -2.81292 -1.02544 0
M  V30 4979 H 454.301 -1.3534 -0.491846 0
M  V30 4980 H 456.254 -2.44237 -3.43404 0
M  V30 4981 H 454.978 -1.27551 -3.00663 0
M  V30 4982 H 453.637 -3.11655 -1.93045 0
M  V30 4983 H 453.285 -2.54379 -4.33936 0
M  V30 4984 H 452.985 -4.27297 -4.0335 0
M  V30 4985 H 454.509 -3.7592 -4.81161 0
M  V30 4986 H 455.923 -4.95637 -2.88127 0
M  V30 4987 H 454.32 -5.52828 -2.33456 0
M  V30 4988 H 455.39 -4.70115 -1.18827 0
M  V30 4989 N 456.733 0.527833 -1.48498 0
M  V30 4990 C 457.663 1.64136 -1.66077 0
M  V30 4991 C 458.644 1.62286 -0.509625 0
M  V30 4992 O 459.829 1.79449 -0.742413 0
M  V30 4993 C 456.959 3.02717 -1.70234 0
M  V30 4994 C 455.913 3.19426 -2.8487 0
M  V30 4995 C 455.239 4.5909 -2.74118 0
M  V30 4996 C 456.539 3.01993 -4.26142 0
M  V30 4997 H 458.233 1.4968 -2.593 0
M  V30 4998 H 455.779 0.718654 -1.24785 0
M  V30 4999 H 457.732 3.80491 -1.8112 0
M  V30 5000 H 456.456 3.18201 -0.735911 0
M  V30 5001 H 455.115 2.4407 -2.73542 0
M  V30 5002 H 454.763 4.71413 -1.7544 0
M  V30 5003 H 454.463 4.71214 -3.51042 0
M  V30 5004 H 455.987 5.3896 -2.86974 0
M  V30 5005 H 457.401 3.69558 -4.38292 0
M  V30 5006 H 455.798 3.2561 -5.04082 0
M  V30 5007 H 456.868 1.98396 -4.42456 0
M  V30 5008 N 458.211 1.37122 0.776871 0
M  V30 5009 C 459.174 1.32301 1.8716 0
M  V30 5010 C 460.174 0.228099 1.59174 0
M  V30 5011 O 461.364 0.483642 1.67352 0
M  V30 5012 C 458.496 1.054 3.24197 0
M  V30 5013 H 459.689 2.29673 1.92848 0
M  V30 5014 H 457.242 1.22077 0.97606 0
M  V30 5015 H 457.977 0.0853872 3.24188 0
M  V30 5016 H 457.762 1.84648 3.45901 0
M  V30 5017 H 459.252 1.04664 4.04271 0
M  V30 5018 N 459.689 -1.00246 1.21608 0
M  V30 5019 C 460.622 -2.08794 0.920892 0
M  V30 5020 C 461.6 -1.62059 -0.132552 0
M  V30 5021 O 462.784 -1.885 -0.0030366 0
M  V30 5022 C 459.911 -3.36525 0.383226 0
M  V30 5023 C 458.957 -4.02172 1.41987 0
M  V30 5024 S 459.79 -4.44256 2.98994 0
M  V30 5025 C 460.946 -5.7517 2.4684 0
M  V30 5026 H 461.179 -2.33511 1.8401 0
M  V30 5027 H 458.712 -1.13562 1.04609 0
M  V30 5028 H 460.67 -4.10423 0.0795871 0
M  V30 5029 H 459.331 -3.09854 -0.514711 0
M  V30 5030 H 458.524 -4.94114 0.993335 0
M  V30 5031 H 458.126 -3.34559 1.67171 0
M  V30 5032 H 460.418 -6.51042 1.87484 0
M  V30 5033 H 461.361 -6.22638 3.37235 0
M  V30 5034 H 461.769 -5.32112 1.88461 0
M  V30 5035 N 461.167 -1.02423 -1.1978 0
M  V30 5036 C 462.13 -0.605703 -2.21052 0
M  V30 5037 C 463.13 0.328209 -1.57415 0
M  V30 5038 O 464.32 0.115853 -1.73814 0
M  V30 5039 C 461.452 0.114366 -3.40708 0
M  V30 5040 H 462.645 -1.5017 -2.59594 0
M  V30 5041 H 460.198 -0.814888 -1.33376 0
M  V30 5042 H 460.933 1.02492 -3.07678 0
M  V30 5043 H 460.718 -0.556641 -3.88129 0
M  V30 5044 H 462.208 0.394272 -4.15735 0
M  V30 5045 N 462.645 1.35699 -0.801477 0
M  V30 5046 C 463.87 2.03687 -0.390678 0
M  V30 5047 C 464.295 1.60015 0.988778 0
M  V30 5048 O 463.653 0.774357 1.63931 0
M  V30 5049 C 463.701 3.57439 -0.476404 0
M  V30 5050 O 462.805 4.09208 0.512106 0
M  V30 5051 H 462.146 0.64344 -0.163956 0
M  V30 5052 H 464.676 1.73403 -1.08594 0
M  V30 5053 H 464.686 4.06544 -0.344357 0
M  V30 5054 H 463.361 3.88576 -1.48262 0
M  V30 5055 H 461.938 3.7134 0.340721 0
M  V30 5056 N 464.123 0.554532 1.47522 0
M  V30 5057 C 465.351 0.034257 2.06872 0
M  V30 5058 C 465.766 -1.25826 1.40759 0
M  V30 5059 O 465.123 -1.75425 0.503217 0
M  V30 5060 C 465.174 -0.167827 3.6111 0
M  V30 5061 O 464.895 1.07351 4.24744 0
M  V30 5062 C 466.396 -0.72569 4.3732 0
M  V30 5063 H 463.616 0.0446275 0.669514 0
M  V30 5064 H 466.16 0.767181 1.89564 0
M  V30 5065 H 464.315 -0.850872 3.7794 0
M  V30 5066 H 464.729 0.869563 5.17242 0
M  V30 5067 H 466.203 -0.816394 5.45929 0
M  V30 5068 H 466.68 -1.73635 4.0342 0
M  V30 5069 H 467.286 -0.0784292 4.25228 0
M  V30 5070 N 465.601 -1.54893 0.290851 0
M  V30 5071 C 466.841 -2.01842 -0.322388 0
M  V30 5072 C 467.205 -1.17477 -1.51865 0
M  V30 5073 O 468.406 -1.54077 -2.20258 0
M  V30 5074 C 466.677 -3.50874 -0.679844 0
M  V30 5075 S 468.236 -4.19796 -1.27739 0
M  V30 5076 H 465.054 -0.704005 -0.0994866 0
M  V30 5077 H 467.656 -1.91015 0.416358 0
M  V30 5078 H 466.36 -4.09915 0.199435 0
M  V30 5079 H 465.891 -3.65717 -1.44964 0
M  V30 5080 H 467.906 -4.24729 -2.56554 0
M  V30 5081 N 467.08 -0.0183926 -1.57589 0
M  V30 5082 C 468.326 0.663543 -1.91638 0
M  V30 5083 C 468.659 1.72392 -0.894134 0
M  V30 5084 O 467.934 1.94316 0.0846449 0
M  V30 5085 C 468.217 1.28984 -3.36207 0
M  V30 5086 C 468.07 0.239761 -4.49161 0
M  V30 5087 C 469.389 2.2109 -3.80536 0
M  V30 5088 H 466.508 0.239746 -0.696915 0
M  V30 5089 H 469.15 -0.073456 -1.89858 0
M  V30 5090 H 467.3 1.91799 -3.37854 0
M  V30 5091 H 468.972 -0.390119 -4.59647 0
M  V30 5092 H 467.215 -0.435972 -4.31604 0
M  V30 5093 H 467.886 0.717383 -5.47319 0
M  V30 5094 H 470.362 1.68273 -3.80557 0
M  V30 5095 H 469.238 2.61869 -4.82406 0
M  V30 5096 H 469.499 3.09764 -3.15434 0
M  V30 5097 N 468.558 1.5553 0.254621 0
M  V30 5098 C 469.506 1.9048 1.33492 0
M  V30 5099 C 470.5 0.78304 1.50216 0
M  V30 5100 O 471.706 0.967582 1.51782 0
M  V30 5101 H 468.081 0.604846 0.44684 0
M  V30 5102 H 470.052 2.80688 1.01275 0
M  V30 5103 C 468.801 2.20928 2.68489 0
M  V30 5104 H 468.124 3.06742 2.56417 0
M  V30 5105 H 469.564 2.49291 3.42972 0
M  V30 5106 C 468.023 1.023 3.20993 0
M  V30 5107 O 468.553 0.267027 4.00811 0
M  V30 5108 N 466.759 0.815714 2.78917 0
M  V30 5109 H 466.306 1.43217 2.14119 0
M  V30 5110 H 466.264 0.0236532 3.14391 0
M  V30 5111 N 470.036 -0.519951 1.48776 0
M  V30 5112 C 471.447 -1.10177 1.50725 0
M  V30 5113 C 471.798 -1.94153 0.282678 0
M  V30 5114 O 470.923 -2.07645 -0.609298 0
M  V30 5115 C 471.518 -2.00482 2.73116 0
M  V30 5116 C 470.077 -2.53862 2.77905 0
M  V30 5117 C 469.224 -1.31047 2.44381 0
M  V30 5118 H 472.175 -0.30473 1.55747 0
M  V30 5119 H 472.196 -2.8491 2.52203 0
M  V30 5120 H 471.708 -1.39335 3.62225 0
M  V30 5121 H 469.809 -3.18702 1.93029 0
M  V30 5122 H 469.922 -2.9231 3.79594 0
M  V30 5123 H 468.286 -1.62953 1.95751 0
M  V30 5124 H 469.069 -0.71637 3.35743 0
M  V30 5125 N 471.514 -1.37532 -0.769588 0
M  V30 5126 C 472.761 -1.3286 -1.52822 0
M  V30 5127 C 473.089 0.0862597 -1.94309 0
M  V30 5128 O 472.344 1.05995 -1.6451 0
M  V30 5129 C 472.643 -2.21558 -2.8044 0
M  V30 5130 C 472.309 -3.69796 -2.57996 0
M  V30 5131 C 470.971 -4.10194 -2.51583 0
M  V30 5132 C 473.323 -4.63699 -2.37976 0
M  V30 5133 C 470.651 -5.42608 -2.23144 0
M  V30 5134 C 473.003 -5.96353 -2.1106 0
M  V30 5135 C 471.667 -6.35853 -2.03093 0
M  V30 5136 H 470.937 -0.486168 -0.559215 0
M  V30 5137 H 473.584 -1.69757 -0.886277 0
M  V30 5138 H 471.889 -1.77663 -3.49204 0
M  V30 5139 H 473.586 -2.15256 -3.38328 0
M  V30 5140 H 470.176 -3.37759 -2.63851 0
M  V30 5141 H 474.36 -4.33346 -2.41919 0
M  V30 5142 H 469.616 -5.72173 -2.15472 0
M  V30 5143 H 473.79 -6.68667 -1.94568 0
M  V30 5144 H 471.417 -7.38382 -1.8082 0
M  V30 5145 N 472.992 0.995999 -1.22138 0
M  V30 5146 C 474.241 1.72928 -1.03821 0
M  V30 5147 C 474.554 1.90872 0.427444 0
M  V30 5148 O 475.76 2.61496 0.730212 0
M  V30 5149 C 474.216 3.11124 -1.80913 0
M  V30 5150 C 473.824 3.01122 -3.31707 0
M  V30 5151 C 475.568 3.8852 -1.71035 0
M  V30 5152 C 473.475 4.34453 -4.01253 0
M  V30 5153 H 472.405 0.648376 -0.384869 0
M  V30 5154 H 475.056 1.11213 -1.45959 0
M  V30 5155 H 473.438 3.73503 -1.31573 0
M  V30 5156 H 474.612 2.47926 -3.88419 0
M  V30 5157 H 472.927 2.3721 -3.42228 0
M  V30 5158 H 475.524 4.872 -2.20318 0
M  V30 5159 H 475.867 4.1087 -0.670196 0
M  V30 5160 H 476.4 3.32812 -2.17902 0
M  V30 5161 H 473.139 4.17303 -5.05508 0
M  V30 5162 H 472.659 4.87574 -3.49331 0
M  V30 5163 H 474.338 5.03215 -4.06674 0
M  V30 5164 N 474.47 1.03057 1.19235 0
M  V30 5165 C 475.7 0.746613 1.92638 0
M  V30 5166 C 476.108 -0.698708 1.75826 0
M  V30 5167 O 475.451 -1.487 1.07861 0
M  V30 5168 C 475.513 1.02024 3.44719 0
M  V30 5169 C 475.177 2.45745 3.85303 0
M  V30 5170 C 476.174 3.43887 3.8992 0
M  V30 5171 C 473.859 2.8019 4.16892 0
M  V30 5172 C 475.853 4.74529 4.2556 0
M  V30 5173 C 473.54 4.1104 4.52205 0
M  V30 5174 C 474.538 5.0802 4.56513 0
M  V30 5175 O 474.226 6.36527 4.91008 0
M  V30 5176 H 473.958 0.272401 0.618687 0
M  V30 5177 H 476.512 1.37853 1.52269 0
M  V30 5178 H 474.742 0.331184 3.85279 0
M  V30 5179 H 476.431 0.725677 3.9936 0
M  V30 5180 H 477.197 3.18614 3.65664 0
M  V30 5181 H 473.076 2.05382 4.12722 0
M  V30 5182 H 476.62 5.50222 4.28838 0
M  V30 5183 H 472.517 4.36086 4.7592 0
M  V30 5184 H 473.285 6.41025 5.08949 0
M  V30 5185 N 475.948 -1.35272 0.808662 0
M  V30 5186 C 477.196 -1.98316 0.389233 0
M  V30 5187 C 477.517 -1.64465 -1.04767 0
M  V30 5188 O 476.787 -0.928175 -1.72516 0
M  V30 5189 H 475.367 -0.733585 0.140935 0
M  V30 5190 H 478.029 -1.6515 1.03496 0
M  V30 5191 H 477.125 -3.08123 0.496631 0
M  V30 5192 N 477.426 -0.562348 -1.47226 0
M  V30 5193 C 478.673 -0.0402165 -2.0246 0
M  V30 5194 C 479.001 1.31169 -1.43614 0
M  V30 5195 O 478.256 1.86805 -0.5833 0
M  V30 5196 C 478.555 0.0969817 -3.57268 0
M  V30 5197 C 478.221 -1.1847 -4.35058 0
M  V30 5198 C 476.883 -1.53588 -4.56031 0
M  V30 5199 C 479.235 -2.03378 -4.79882 0
M  V30 5200 C 476.563 -2.73452 -5.19077 0
M  V30 5201 C 478.915 -3.2245 -5.44251 0
M  V30 5202 C 477.579 -3.57876 -5.63455 0
M  V30 5203 H 476.849 -0.0147163 -0.740854 0
M  V30 5204 H 479.496 -0.734895 -1.76838 0
M  V30 5205 H 477.801 0.87466 -3.81912 0
M  V30 5206 H 479.498 0.516408 -3.97661 0
M  V30 5207 H 476.088 -0.90126 -4.19017 0
M  V30 5208 H 480.272 -1.77553 -4.63453 0
M  V30 5209 H 475.528 -3.01062 -5.32139 0
M  V30 5210 H 479.702 -3.88526 -5.77945 0
M  V30 5211 H 477.329 -4.50849 -6.12078 0
M  V30 5212 N 478.904 1.54736 -0.299062 0
M  V30 5213 C 479.834 2.26409 0.571085 0
M  V30 5214 C 480.815 1.2629 1.13951 0
M  V30 5215 O 482 1.55059 1.16921 0
M  V30 5216 C 479.13 3.00338 1.74396 0
M  V30 5217 C 478.084 4.07588 1.30599 0
M  V30 5218 C 477.41 4.69222 2.56387 0
M  V30 5219 C 478.71 5.20455 0.438645 0
M  V30 5220 H 480.404 2.99388 -0.0266991 0
M  V30 5221 H 477.95 1.43993 -0.0142812 0
M  V30 5222 H 479.903 3.49198 2.35878 0
M  V30 5223 H 478.627 2.24934 2.36796 0
M  V30 5224 H 477.286 3.59575 0.71424 0
M  V30 5225 H 476.934 3.9046 3.17097 0
M  V30 5226 H 476.634 5.41653 2.27784 0
M  V30 5227 H 478.158 5.20844 3.18675 0
M  V30 5228 H 479.572 5.65221 0.959085 0
M  V30 5229 H 477.969 5.99594 0.246466 0
M  V30 5230 H 479.039 4.8192 -0.536738 0
M  V30 5231 N 480.382 0.0267497 1.57577 0
M  V30 5232 C 481.33 -0.973923 2.11229 0
M  V30 5233 C 482.324 -1.33849 1.03831 0
M  V30 5234 O 483.53 -1.321 1.22269 0
M  V30 5235 H 479.905 -0.331844 0.674821 0
M  V30 5236 H 481.876 -0.496092 2.94247 0
M  V30 5237 C 480.625 -2.24798 2.65257 0
M  V30 5238 H 479.948 -1.9762 3.47543 0
M  V30 5239 H 481.388 -2.93031 3.06445 0
M  V30 5240 C 479.847 -2.97611 1.57891 0
M  V30 5241 O 480.377 -3.89629 0.97735 0
M  V30 5242 N 478.583 -2.59905 1.29992 0
M  V30 5243 H 478.13 -1.85154 1.79097 0
M  V30 5244 H 478.088 -3.08932 0.583798 0
M  V30 5245 N 481.861 -1.55662 -0.24637 0
M  V30 5246 C 483.089 -1.81575 -0.991876 0
M  V30 5247 C 483.504 -0.602545 -1.78927 0
M  V30 5248 O 482.861 0.428795 -1.77391 0
M  V30 5249 C 482.912 -3.05711 -1.92933 0
M  V30 5250 O 482.633 -4.22348 -1.1642 0
M  V30 5251 C 484.134 -3.44428 -2.79078 0
M  V30 5252 H 481.354 -0.604209 -0.291844 0
M  V30 5253 H 483.898 -2.02722 -0.269095 0
M  V30 5254 H 482.053 -2.86612 -2.60638 0
M  V30 5255 H 482.467 -4.92706 -1.79835 0
M  V30 5256 H 483.941 -4.34388 -3.40603 0
M  V30 5257 H 484.418 -2.65037 -3.50217 0
M  V30 5258 H 485.024 -3.65879 -2.16824 0
M  V30 5259 N 483.339 0.512053 -1.4905 0
M  V30 5260 C 484.287 1.63568 -1.65373 0
M  V30 5261 C 485.281 1.61228 -0.519806 0
M  V30 5262 O 486.487 1.65869 -0.699101 0
M  V30 5263 H 482.862 0.542019 -0.521267 0
M  V30 5264 H 484.833 1.4695 -2.59708 0
M  V30 5265 C 483.582 3.01761 -1.7273 0
M  V30 5266 H 482.905 3.04263 -2.59353 0
M  V30 5267 H 484.345 3.79948 -1.8819 0
M  V30 5268 C 482.804 3.33609 -0.46973 0
M  V30 5269 O 483.334 3.99607 0.409492 0
M  V30 5270 N 481.54 2.88651 -0.336003 0
M  V30 5271 H 481.087 2.35119 -1.05247 0
M  V30 5272 H 481.045 3.10328 0.504363 0
M  V30 5273 N 484.817 1.37938 0.762283 0
M  V30 5274 C 486.064 1.33668 1.52115 0
M  V30 5275 C 486.392 -0.0759538 1.94352 0
M  V30 5276 O 485.647 -1.05121 1.6507 0
M  V30 5277 C 485.946 2.23042 2.79261 0
M  V30 5278 C 485.612 3.71159 2.56031 0
M  V30 5279 C 484.274 4.11523 2.49404 0
M  V30 5280 C 486.626 4.64955 2.35513 0
M  V30 5281 C 483.954 5.43784 2.20263 0
M  V30 5282 C 486.306 5.97464 2.07894 0
M  V30 5283 C 484.97 6.36922 1.99718 0
M  V30 5284 H 484.24 0.489127 0.556629 0
M  V30 5285 H 486.887 1.70224 0.877262 0
M  V30 5286 H 485.192 1.79512 3.48256 0
M  V30 5287 H 486.889 2.17047 3.37182 0
M  V30 5288 H 483.479 3.39153 2.62056 0
M  V30 5289 H 487.663 4.34623 2.39617 0
M  V30 5290 H 482.919 5.73307 2.12435 0
M  V30 5291 H 487.093 6.6969 1.91019 0
M  V30 5292 H 484.72 7.39331 1.76902 0
M  V30 5293 N 486.295 -0.989507 1.22664 0
M  V30 5294 C 487.242 -2.08024 0.999733 0
M  V30 5295 C 488.212 -1.65909 -0.0797047 0
M  V30 5296 O 489.397 -1.90669 0.0705715 0
M  V30 5297 C 486.537 -3.40067 0.587234 0
M  V30 5298 C 485.65 -3.95505 1.73781 0
M  V30 5299 C 484.785 -5.15722 1.27297 0
M  V30 5300 C 483.824 -5.63305 2.39488 0
M  V30 5301 N 482.961 -6.74758 1.94026 0
M  V30 5302 H 487.801 -2.26768 1.9334 0
M  V30 5303 H 485.338 -1.11171 0.963297 0
M  V30 5304 H 487.296 -4.15899 0.329227 0
M  V30 5305 H 485.926 -3.21314 -0.309426 0
M  V30 5306 H 484.978 -3.16513 2.11006 0
M  V30 5307 H 486.29 -4.26797 2.58158 0
M  V30 5308 H 485.444 -5.98854 0.972546 0
M  V30 5309 H 484.183 -4.86061 0.399445 0
M  V30 5310 H 483.188 -4.78759 2.70315 0
M  V30 5311 H 484.413 -5.94988 3.27362 0
M  V30 5312 H 482.359 -6.46874 1.09041 0
M  V30 5313 H 482.276 -7.05386 2.71968 0
M  V30 5314 H 483.544 -7.61387 1.67062 0
M  V30 5315 N 487.773 -1.03688 -1.18687 0
M  V30 5316 C 488.72 -0.624624 -2.22187 0
M  V30 5317 C 489.69 0.365636 -1.62026 0
M  V30 5318 O 490.875 0.260481 -1.89014 0
M  V30 5319 C 488.015 0.0101738 -3.45099 0
M  V30 5320 C 487.128 -1.02709 -4.19613 0
M  V30 5321 C 486.263 -0.361213 -5.2997 0
M  V30 5322 C 485.302 -1.38384 -5.96252 0
M  V30 5323 N 484.439 -0.743196 -6.98155 0
M  V30 5324 H 489.279 -1.51176 -2.56807 0
M  V30 5325 H 486.816 -0.75636 -1.26165 0
M  V30 5326 H 488.774 0.395528 -4.15321 0
M  V30 5327 H 487.404 0.860848 -3.1111 0
M  V30 5328 H 486.456 -1.53043 -3.48256 0
M  V30 5329 H 487.768 -1.80398 -4.65036 0
M  V30 5330 H 486.922 0.0785537 -6.06649 0
M  V30 5331 H 485.661 0.447799 -4.8564 0
M  V30 5332 H 484.666 -1.83378 -5.18317 0
M  V30 5333 H 485.891 -2.19448 -6.42666 0
M  V30 5334 H 483.837 0.0455789 -6.55984 0
M  V30 5335 H 483.754 -1.45784 -7.41811 0
M  V30 5336 H 485.022 -0.327698 -7.78811 0
M  V30 5337 N 489.251 1.34841 -0.815825 0
M  V30 5338 C 490.161 2.33425 -0.234462 0
M  V30 5339 C 491.177 1.62295 0.627413 0
M  V30 5340 O 492.353 1.94109 0.536987 0
M  V30 5341 C 489.418 3.41471 0.599849 0
M  V30 5342 C 488.479 4.28362 -0.283596 0
M  V30 5343 C 487.712 5.31248 0.51099 0
M  V30 5344 O 487.935 5.43056 1.7449 0
M  V30 5345 O 486.869 6.01812 -0.10297 0
M  V30 5346 H 490.695 2.84962 -1.05024 0
M  V30 5347 H 488.28 1.37774 -0.577809 0
M  V30 5348 H 490.162 4.07464 1.07475 0
M  V30 5349 H 488.837 2.9219 1.39308 0
M  V30 5350 H 487.744 3.65318 -0.805836 0
M  V30 5351 H 489.077 4.81066 -1.041 0
M  V30 5352 N 490.729 0.570148 1.46925 0
M  V30 5353 C 491.978 0.0487352 2.01641 0
M  V30 5354 C 492.291 -1.31433 1.44861 0
M  V30 5355 O 493.497 -1.92638 1.91318 0
M  V30 5356 C 491.953 0.0365817 3.59881 0
M  V30 5357 C 491.561 1.39719 4.25655 0
M  V30 5358 C 493.305 -0.431545 4.22301 0
M  V30 5359 C 491.212 1.34345 5.75939 0
M  V30 5360 H 490.142 0.0144492 0.753862 0
M  V30 5361 H 492.793 0.719928 1.68788 0
M  V30 5362 H 491.175 -0.700522 3.89755 0
M  V30 5363 H 492.349 2.15303 4.07408 0
M  V30 5364 H 490.664 1.80431 3.75278 0
M  V30 5365 H 493.261 -0.490354 5.32447 0
M  V30 5366 H 493.604 -1.44638 3.90366 0
M  V30 5367 H 494.137 0.251102 3.97007 0
M  V30 5368 H 490.876 2.33469 6.12513 0
M  V30 5369 H 490.396 0.629615 5.96486 0
M  V30 5370 H 492.075 1.051 6.38407 0
M  V30 5371 N 492.207 -1.54576 0.307264 0
M  V30 5372 C 493.154 -2.23751 -0.56604 0
M  V30 5373 C 494.124 -1.22235 -1.12462 0
M  V30 5374 O 495.309 -1.50873 -1.16799 0
M  V30 5375 C 492.449 -2.98661 -1.72903 0
M  V30 5376 C 491.562 -4.14963 -1.20124 0
M  V30 5377 C 490.697 -4.77441 -2.3286 0
M  V30 5378 C 489.736 -5.85875 -1.77247 0
M  V30 5379 N 488.873 -6.42282 -2.8358 0
M  V30 5380 H 493.713 -2.97984 0.0304578 0
M  V30 5381 H 491.25 -1.47076 0.0268015 0
M  V30 5382 H 493.208 -3.40329 -2.41313 0
M  V30 5383 H 491.838 -2.26793 -2.29706 0
M  V30 5384 H 490.89 -3.78193 -0.409198 0
M  V30 5385 H 492.202 -4.93066 -0.754171 0
M  V30 5386 H 491.356 -5.21993 -3.09205 0
M  V30 5387 H 490.095 -3.98684 -2.80896 0
M  V30 5388 H 489.1 -5.40741 -0.993926 0
M  V30 5389 H 490.325 -6.6652 -1.30107 0
M  V30 5390 H 488.271 -5.66406 -3.30939 0
M  V30 5391 H 488.188 -7.1575 -2.43388 0
M  V30 5392 H 489.456 -6.91492 -3.59804 0
M  V30 5393 N 493.685 -0.035106 -1.57561 0
M  V30 5394 C 494.648 0.929819 -2.09492 0
M  V30 5395 C 495.648 1.25026 -1.01119 0
M  V30 5396 O 496.838 1.18961 -1.27255 0
M  V30 5397 C 493.97 2.24457 -2.56577 0
M  V30 5398 H 495.163 0.479935 -2.96035 0
M  V30 5399 H 492.716 0.213033 -1.54841 0
M  V30 5400 H 493.451 2.74061 -1.73382 0
M  V30 5401 H 493.236 2.02508 -3.35757 0
M  V30 5402 H 494.726 2.93607 -2.96959 0
M  V30 5403 N 495.163 1.55791 0.238111 0
M  V30 5404 C 496.093 1.94068 1.29846 0
M  V30 5405 C 497.074 0.806726 1.49753 0
M  V30 5406 O 498.259 1.06772 1.62214 0
M  V30 5407 C 495.389 2.24302 2.65153 0
M  V30 5408 C 494.343 3.40032 2.59927 0
M  V30 5409 C 493.669 3.55829 3.99111 0
M  V30 5410 C 494.969 4.75476 2.16148 0
M  V30 5411 H 496.663 2.82887 0.980563 0
M  V30 5412 H 494.209 1.36105 0.470253 0
M  V30 5413 H 496.162 2.4967 3.39475 0
M  V30 5414 H 494.886 1.32318 2.98596 0
M  V30 5415 H 493.545 3.14687 1.88063 0
M  V30 5416 H 493.193 2.6125 4.29834 0
M  V30 5417 H 492.893 4.3366 3.96501 0
M  V30 5418 H 494.417 3.83528 4.7512 0
M  V30 5419 H 495.831 5.00158 2.80205 0
M  V30 5420 H 494.228 5.56472 2.24631 0
M  V30 5421 H 495.298 4.71946 1.11333 0
M  V30 5422 N 496.642 -0.504142 1.49319 0
M  V30 5423 C 497.888 -1.26033 1.58882 0
M  V30 5424 C 498.221 -1.92268 0.273274 0
M  V30 5425 O 497.496 -1.80567 -0.72291 0
M  V30 5426 C 497.779 -2.32976 2.7458 0
M  V30 5427 C 497.632 -1.71263 4.1592 0
M  V30 5428 C 498.951 -3.34561 2.85932 0
M  V30 5429 H 496.07 -0.456863 0.578312 0
M  V30 5430 H 498.712 -0.558965 1.81592 0
M  V30 5431 H 496.862 -2.92796 2.55348 0
M  V30 5432 H 498.534 -1.15294 4.4666 0
M  V30 5433 H 496.777 -1.01686 4.21714 0
M  V30 5434 H 497.448 -2.48816 4.92742 0
M  V30 5435 H 499.924 -2.84727 3.0343 0
M  V30 5436 H 498.8 -4.06754 3.68568 0
M  V30 5437 H 499.061 -3.96695 1.95154 0
M  V30 5438 N 498.12 -1.38341 -0.754957 0
M  V30 5439 C 499.05 -1.38176 -1.88227 0
M  V30 5440 C 500.031 -0.247873 -1.68284 0
M  V30 5441 O 501.216 -0.45075 -1.88896 0
M  V30 5442 C 498.346 -1.20471 -3.25736 0
M  V30 5443 C 497.3 -2.3105 -3.60278 0
M  V30 5444 C 496.626 -1.98452 -4.96509 0
M  V30 5445 C 497.926 -3.73305 -3.65295 0
M  V30 5446 H 499.62 -2.32512 -1.88622 0
M  V30 5447 H 497.166 -1.1192 -0.906082 0
M  V30 5448 H 499.119 -1.18982 -4.04254 0
M  V30 5449 H 497.843 -0.225965 -3.25817 0
M  V30 5450 H 496.502 -2.31723 -2.84078 0
M  V30 5451 H 496.15 -0.990641 -4.93148 0
M  V30 5452 H 495.85 -2.7251 -5.20588 0
M  V30 5453 H 497.374 -1.98578 -5.77407 0
M  V30 5454 H 498.788 -3.7467 -4.3393 0
M  V30 5455 H 497.185 -4.46557 -4.00883 0
M  V30 5456 H 498.255 -4.05719 -2.65556 0
M  V30 5457 N 499.598 0.982988 -1.23187 0
M  V30 5458 C 500.826 1.75921 -1.08901 0
M  V30 5459 C 501.241 1.85341 0.359719 0
M  V30 5460 O 500.598 1.33072 1.24892 0
M  V30 5461 C 500.649 3.18742 -1.70545 0
M  V30 5462 O 500.37 3.09814 -3.09753 0
M  V30 5463 C 501.871 4.1277 -1.61667 0
M  V30 5464 H 499.091 0.552166 -0.381252 0
M  V30 5465 H 501.635 1.23516 -1.62985 0
M  V30 5466 H 499.79 3.68182 -1.20501 0
M  V30 5467 H 500.204 3.99703 -3.39614 0
M  V30 5468 H 501.678 5.10697 -2.09506 0
M  V30 5469 H 502.155 4.3542 -0.575009 0
M  V30 5470 H 502.761 3.69232 -2.11064 0
M  V30 5471 N 501.076 1.04316 1.18135 0
M  V30 5472 C 502.316 0.756937 1.89868 0
M  V30 5473 C 502.68 -0.702609 1.78682 0
M  V30 5474 O 503.881 -1.10255 2.45148 0
M  V30 5475 C 502.152 1.21327 3.36176 0
M  V30 5476 S 503.711 1.05307 4.25976 0
M  V30 5477 H 500.529 0.275143 0.655604 0
M  V30 5478 H 503.131 1.33597 1.42731 0
M  V30 5479 H 501.835 2.27086 3.41848 0
M  V30 5480 H 501.366 0.628137 3.88353 0
M  V30 5481 H 503.381 -0.0280093 4.96192 0
M  V30 5482 N 502.554 -1.34406 0.822964 0
M  V30 5483 C 503.486 -2.28305 0.202375 0
M  V30 5484 C 504.499 -1.5103 -0.60777 0
M  V30 5485 O 505.688 -1.73057 -0.437444 0
M  V30 5486 C 502.788 -3.30836 -0.734911 0
M  V30 5487 C 501.961 -4.37388 0.0324177 0
M  V30 5488 C 501.02 -5.1968 -0.825803 0
M  V30 5489 O 500.046 -5.68556 -0.270771 0
M  V30 5490 N 501.248 -5.39393 -2.14558 0
M  V30 5491 H 504.013 -2.82201 1.00909 0
M  V30 5492 H 501.574 -1.4693 0.67993 0
M  V30 5493 H 503.566 -3.82786 -1.31365 0
M  V30 5494 H 502.136 -2.77334 -1.44238 0
M  V30 5495 H 501.356 -3.86152 0.792469 0
M  V30 5496 H 502.644 -5.05702 0.560633 0
M  V30 5497 H 502.042 -5.01357 -2.62025 0
M  V30 5498 H 500.599 -5.94461 -2.67318 0
M  V30 5499 N 504.032 -0.577932 -1.46621 0
M  V30 5500 C 504.964 0.195801 -2.28362 0
M  V30 5501 C 505.977 0.859983 -1.38232 0
M  V30 5502 O 507.166 0.730349 -1.62875 0
M  V30 5503 C 504.266 1.29639 -3.13124 0
M  V30 5504 C 503.439 0.725049 -4.31349 0
M  V30 5505 C 502.498 1.71274 -4.97546 0
M  V30 5506 O 501.524 1.25067 -5.5529 0
M  V30 5507 N 502.726 3.04672 -4.94121 0
M  V30 5508 H 505.491 -0.505468 -2.95407 0
M  V30 5509 H 503.052 -0.415381 -1.56481 0
M  V30 5510 H 505.044 1.95631 -3.54275 0
M  V30 5511 H 503.614 1.90059 -2.48186 0
M  V30 5512 H 502.834 -0.112205 -3.9404 0
M  V30 5513 H 504.122 0.323034 -5.07774 0
M  V30 5514 H 503.52 3.4484 -4.48444 0
M  V30 5515 H 502.077 3.66166 -5.39227 0
M  V30 5516 N 505.51 1.54411 -0.315457 0
M  V30 5517 C 506.735 2.05299 0.294496 0
M  V30 5518 C 507.16 1.19052 1.4563 0
M  V30 5519 O 506.518 0.197804 1.80218 0
M  V30 5520 C 506.566 3.5345 0.714549 0
M  V30 5521 O 505.67 3.70175 1.81781 0
M  V30 5522 H 505.011 0.661743 0.0547019 0
M  V30 5523 H 507.541 1.99327 -0.461508 0
M  V30 5524 H 507.551 3.9557 0.999426 0
M  V30 5525 H 506.226 4.1568 -0.135244 0
M  V30 5526 H 504.803 3.3996 1.53236 0
M  V30 5527 N 506.988 0.0434614 1.5754 0
M  V30 5528 C 507.951 -0.918696 2.09982 0
M  V30 5529 C 508.951 -1.24488 1.01781 0
M  V30 5530 O 510.141 -1.18284 1.27885 0
M  V30 5531 C 507.273 -2.23093 2.57764 0
M  V30 5532 H 508.466 -0.464229 2.96285 0
M  V30 5533 H 506.019 -0.204818 1.54952 0
M  V30 5534 H 506.754 -2.73137 1.74832 0
M  V30 5535 H 506.539 -2.00724 3.36827 0
M  V30 5536 H 508.029 -2.92028 2.98512 0
M  V30 5537 N 508.466 -1.55915 -0.229846 0
M  V30 5538 C 509.877 -1.68809 -0.797531 0
M  V30 5539 C 510.228 -0.643995 -1.8533 0
M  V30 5540 O 509.353 0.206492 -2.15413 0
M  V30 5541 C 509.948 -3.06043 -1.45338 0
M  V30 5542 C 508.507 -3.20819 -1.96856 0
M  V30 5543 C 507.654 -2.6472 -0.825736 0
M  V30 5544 H 510.605 -1.58699 -0.00533733 0
M  V30 5545 H 510.626 -3.01438 -2.32196 0
M  V30 5546 H 510.138 -3.82012 -0.684743 0
M  V30 5547 H 508.239 -2.49704 -2.76548 0
M  V30 5548 H 508.352 -4.27937 -2.15423 0
M  V30 5549 H 506.716 -2.22985 -1.23084 0
M  V30 5550 H 507.499 -3.43229 -0.0699019 0
M  V30 5551 N 509.944 0.496216 -1.49584 0
M  V30 5552 C 510.874 1.60576 -1.69521 0
M  V30 5553 C 511.855 1.61169 -0.543933 0
M  V30 5554 O 513.04 1.77834 -0.78031 0
M  V30 5555 C 510.17 2.99038 -1.76616 0
M  V30 5556 C 509.124 3.13312 -2.91581 0
M  V30 5557 C 508.45 4.53172 -2.83794 0
M  V30 5558 C 509.75 2.92886 -4.32452 0
M  V30 5559 H 511.444 1.44146 -2.62416 0
M  V30 5560 H 508.99 0.692024 -1.26282 0
M  V30 5561 H 510.943 3.76564 -1.8915 0
M  V30 5562 H 509.667 3.16568 -0.80324 0
M  V30 5563 H 508.326 2.38213 -2.78658 0
M  V30 5564 H 507.974 4.67585 -1.854 0
M  V30 5565 H 507.674 4.63662 -3.60958 0
M  V30 5566 H 509.198 5.32752 -2.98342 0
M  V30 5567 H 510.612 3.60178 -4.46032 0
M  V30 5568 H 509.009 3.14844 -5.10875 0
M  V30 5569 H 510.079 1.88966 -4.46565 0
M  V30 5570 N 511.423 1.38739 0.74761 0
M  V30 5571 C 512.333 1.38696 1.89211 0
M  V30 5572 C 513.349 0.283303 1.71678 0
M  V30 5573 O 514.525 0.522713 1.94498 0
M  V30 5574 C 511.59 1.21662 3.24653 0
M  V30 5575 C 510.651 2.41886 3.54669 0
M  V30 5576 C 509.884 2.25655 4.83648 0
M  V30 5577 O 510.107 1.25339 5.56459 0
M  V30 5578 O 509.041 3.14372 5.13277 0
M  V30 5579 H 512.867 2.35143 1.92202 0
M  V30 5580 H 510.452 1.19721 0.893708 0
M  V30 5581 H 512.334 1.14246 4.05618 0
M  V30 5582 H 511.009 0.283024 3.2246 0
M  V30 5583 H 509.916 2.54877 2.73841 0
M  V30 5584 H 511.249 3.33895 3.61628 0
M  V30 5585 N 512.901 -0.976442 1.23707 0
M  V30 5586 C 513.811 -2.10359 1.03856 0
M  V30 5587 C 514.827 -1.73991 -0.0180919 0
M  V30 5588 O 516.003 -2.0061 0.178211 0
M  V30 5589 C 513.068 -3.40809 0.636387 0
M  V30 5590 C 512.129 -3.91179 1.76854 0
M  V30 5591 C 511.362 -5.15404 1.38546 0
M  V30 5592 O 511.585 -5.69754 0.27142 0
M  V30 5593 O 510.519 -5.5994 2.20797 0
M  V30 5594 H 514.345 -2.29997 1.98331 0
M  V30 5595 H 511.93 -1.08742 1.02448 0
M  V30 5596 H 513.812 -4.19269 0.423223 0
M  V30 5597 H 512.487 -3.22493 -0.279322 0
M  V30 5598 H 511.394 -3.13819 2.03638 0
M  V30 5599 H 512.727 -4.13958 2.6627 0
M  V30 5600 N 514.379 -1.04941 -1.1758 0
M  V30 5601 C 515.604 -0.778253 -1.92245 0
M  V30 5602 C 516.029 0.659707 -1.76152 0
M  V30 5603 O 515.387 1.45803 -1.07755 0
M  V30 5604 C 515.435 -1.16051 -3.41416 0
M  V30 5605 O 514.539 -0.291153 -4.11371 0
M  V30 5606 H 513.88 -0.285619 -0.599431 0
M  V30 5607 H 516.41 -1.40159 -1.49052 0
M  V30 5608 H 516.42 -1.12619 -3.92149 0
M  V30 5609 H 515.095 -2.208 -3.52449 0
M  V30 5610 H 513.672 -0.385851 -3.70898 0
M  V30 5611 N 515.857 1.33968 -0.830081 0
M  V30 5612 C 516.767 2.33164 -0.259207 0
M  V30 5613 C 517.783 1.62951 0.610164 0
M  V30 5614 O 518.959 1.94668 0.516369 0
M  V30 5615 C 516.024 3.42088 0.563598 0
M  V30 5616 C 515.085 4.28037 -0.329014 0
M  V30 5617 C 514.318 5.3176 0.454616 0
M  V30 5618 O 514.541 5.44876 1.6872 0
M  V30 5619 O 513.475 6.01669 -0.166794 0
M  V30 5620 H 517.301 2.83832 -1.08041 0
M  V30 5621 H 514.886 1.37154 -0.59239 0
M  V30 5622 H 516.768 4.08581 1.03147 0
M  V30 5623 H 515.443 2.93651 1.36201 0
M  V30 5624 H 514.35 3.64443 -0.844538 0
M  V30 5625 H 515.683 4.79934 -1.09196 0
M  V30 5626 N 517.335 0.585699 1.46312 0
M  V30 5627 C 518.285 -0.166813 2.27389 0
M  V30 5628 C 519.269 -0.859076 1.36047 0
M  V30 5629 O 520.461 -0.752678 1.60199 0
M  V30 5630 C 517.59 -1.17791 3.2246 0
M  V30 5631 C 516.676 -0.487605 4.21288 0
M  V30 5632 N 517.067 0.45849 5.03718 0
M  V30 5633 C 515.365 -0.737971 4.39852 0
M  V30 5634 C 516.066 0.862213 5.75275 0
M  V30 5635 N 515.042 0.210707 5.43191 0
M  V30 5636 H 518.844 0.560167 2.88512 0
M  V30 5637 H 516.358 0.407715 1.57199 0
M  V30 5638 H 518.355 -1.73122 3.79255 0
M  V30 5639 H 517.015 -1.90568 2.62896 0
M  V30 5640 H 518.026 0.834163 5.11138 0
M  V30 5641 H 514.703 -1.45209 3.91434 0
M  V30 5642 H 516.093 1.64128 6.51546 0
M  V30 5643 N 518.813 -1.54241 0.323641 0
M  V30 5644 C 519.743 -2.27289 -0.534993 0
M  V30 5645 C 520.724 -1.28087 -1.11927 0
M  V30 5646 O 521.909 -1.56899 -1.14439 0
M  V30 5647 C 519.039 -3.03075 -1.69596 0
M  V30 5648 C 517.993 -4.09614 -1.24098 0
M  V30 5649 C 517.319 -4.73242 -2.4889 0
M  V30 5650 C 518.619 -5.21087 -0.355789 0
M  V30 5651 H 520.313 -2.99308 0.0743257 0
M  V30 5652 H 517.859 -1.43952 0.0371874 0
M  V30 5653 H 519.812 -3.52907 -2.30293 0
M  V30 5654 H 518.536 -2.28673 -2.33187 0
M  V30 5655 H 517.195 -3.60666 -0.656945 0
M  V30 5656 H 516.843 -3.95455 -3.10845 0
M  V30 5657 H 516.543 -5.45209 -2.19138 0
M  V30 5658 H 518.067 -5.25848 -3.10348 0
M  V30 5659 H 519.481 -5.66675 -0.869042 0
M  V30 5660 H 517.878 -5.9991 -0.151045 0
M  V30 5661 H 518.948 -4.81005 0.613339 0
M  V30 5662 N 520.291 -0.0518155 -1.57515 0
M  V30 5663 C 521.702 0.483787 -1.80323 0
M  V30 5664 C 522.053 1.70879 -0.964099 0
M  V30 5665 O 521.178 2.15643 -0.180872 0
M  V30 5666 C 521.773 0.884459 -3.27052 0
M  V30 5667 C 520.332 1.36504 -3.50776 0
M  V30 5668 C 519.479 0.340539 -2.75201 0
M  V30 5669 H 522.43 -0.277691 -1.56252 0
M  V30 5670 H 522.451 1.74733 -3.38007 0
M  V30 5671 H 521.963 -0.00731093 -3.88099 0
M  V30 5672 H 520.064 2.27598 -2.95009 0
M  V30 5673 H 520.177 1.35675 -4.59488 0
M  V30 5674 H 518.541 0.81356 -2.41357 0
M  V30 5675 H 519.324 -0.543156 -3.38976 0
M  V30 5676 N 521.769 1.56035 0.221574 0
M  V30 5677 C 522.699 1.95434 1.2778 0
M  V30 5678 C 523.68 0.822564 1.48889 0
M  V30 5679 O 524.865 1.08486 1.61072 0
M  V30 5680 C 521.995 2.27102 2.62759 0
M  V30 5681 C 520.949 3.4277 2.56306 0
M  V30 5682 C 520.275 3.60043 3.95314 0
M  V30 5683 C 521.575 4.77742 2.11093 0
M  V30 5684 H 523.269 2.83912 0.950504 0
M  V30 5685 H 520.815 1.36596 0.455791 0
M  V30 5686 H 522.768 2.53256 3.36807 0
M  V30 5687 H 521.492 1.35478 2.97176 0
M  V30 5688 H 520.151 3.16664 1.84715 0
M  V30 5689 H 519.799 2.65794 4.27039 0
M  V30 5690 H 519.499 4.37841 3.91879 0
M  V30 5691 H 521.023 3.88545 4.71025 0
M  V30 5692 H 522.437 5.03102 2.74885 0
M  V30 5693 H 520.834 5.58823 2.18716 0
M  V30 5694 H 521.904 4.731 1.06321 0
M  V30 5695 N 523.247 -0.488276 1.49845 0
M  V30 5696 C 524.472 -1.26997 1.63971 0
M  V30 5697 C 524.897 -1.85427 0.315994 0
M  V30 5698 O 524.255 -1.66475 -0.718032 0
M  V30 5699 C 524.303 -2.36689 2.72049 0
M  V30 5700 O 523.407 -3.40882 2.32107 0
M  V30 5701 H 522.748 -0.374376 0.548396 0
M  V30 5702 H 525.278 -0.583104 1.96115 0
M  V30 5703 H 525.288 -2.82262 2.94605 0
M  V30 5704 H 523.963 -1.93529 3.68129 0
M  V30 5705 H 522.54 -3.01139 2.19931 0
M  V30 5706 N 524.725 -1.39134 -0.740242 0
M  V30 5707 C 525.953 -1.39334 -1.5295 0
M  V30 5708 C 526.368 0.0135008 -1.88795 0
M  V30 5709 O 525.725 0.983524 -1.5373 0
M  V30 5710 C 525.776 -2.2614 -2.82034 0
M  V30 5711 O 525.497 -3.61345 -2.47712 0
M  V30 5712 C 526.998 -2.34666 -3.76094 0
M  V30 5713 H 524.218 -0.476103 -0.472828 0
M  V30 5714 H 526.762 -1.82883 -0.9151 0
M  V30 5715 H 524.917 -1.86018 -3.39818 0
M  V30 5716 H 525.331 -4.07194 -3.30595 0
M  V30 5717 H 526.805 -2.99663 -4.63579 0
M  V30 5718 H 527.282 -1.36426 -4.17474 0
M  V30 5719 H 527.888 -2.75236 -3.2423 0
M  V30 5720 N 526.204 0.969867 -1.24223 0
M  V30 5721 C 527.45 1.7151 -1.08223 0
M  V30 5722 C 527.783 1.90478 0.37838 0
M  V30 5723 O 527.058 1.4647 1.27971 0
M  V30 5724 C 527.341 3.10714 -1.82013 0
M  V30 5725 C 527.194 2.9925 -3.35811 0
M  V30 5726 C 528.513 4.10332 -1.59108 0
M  V30 5727 H 525.632 0.622499 -0.394543 0
M  V30 5728 H 528.274 1.1284 -1.52863 0
M  V30 5729 H 526.424 3.608 -1.44068 0
M  V30 5730 H 528.096 2.56608 -3.83341 0
M  V30 5731 H 526.339 2.35512 -3.64303 0
M  V30 5732 H 527.01 3.97857 -3.82641 0
M  V30 5733 H 529.486 3.69097 -1.92111 0
M  V30 5734 H 528.362 5.05804 -2.13198 0
M  V30 5735 H 528.623 4.38926 -0.528832 0
M  V30 5736 N 527.682 1.05563 1.17022 0
M  V30 5737 C 528.632 0.630007 2.19123 0
M  V30 5738 C 529.616 -0.335472 1.57364 0
M  V30 5739 O 530.808 -0.1521 1.76345 0
M  V30 5740 C 527.937 0.0101676 3.43298 0
M  V30 5741 C 527.023 0.999698 4.12149 0
M  V30 5742 N 527.414 2.17251 4.56766 0
M  V30 5743 C 525.712 0.829 4.38228 0
M  V30 5744 C 526.413 2.79883 5.09942 0
M  V30 5745 N 525.389 2.07656 5.02374 0
M  V30 5746 H 529.191 1.52353 2.51328 0
M  V30 5747 H 526.705 0.926288 1.33393 0
M  V30 5748 H 528.702 -0.312541 4.15727 0
M  V30 5749 H 527.362 -0.878707 3.12584 0
M  V30 5750 H 528.373 2.55067 4.50734 0
M  V30 5751 H 525.05 -0.00850974 4.17499 0
M  V30 5752 H 526.44 3.79362 5.54558 0
M  V30 5753 N 529.16 -1.33526 0.837174 0
M  V30 5754 C 530.388 -2.02047 0.445494 0
M  V30 5755 C 530.803 -1.62995 -0.952788 0
M  V30 5756 O 530.16 -0.842447 -1.61892 0
M  V30 5757 C 530.211 -3.57221 0.554577 0
M  V30 5758 O 529.932 -3.94863 1.89776 0
M  V30 5759 C 531.433 -4.43012 0.159634 0
M  V30 5760 H 528.653 -0.647221 0.177048 0
M  V30 5761 H 531.197 -1.70492 1.12928 0
M  V30 5762 H 529.352 -3.87315 -0.0812781 0
M  V30 5763 H 529.766 -4.89569 1.88208 0
M  V30 5764 H 531.24 -5.51253 0.28701 0
M  V30 5765 H 531.717 -4.29916 -0.898289 0
M  V30 5766 H 532.323 -4.18274 0.769855 0
M  V30 5767 N 530.638 -0.59345 -1.46 0
M  V30 5768 C 531.548 0.135817 -2.34207 0
M  V30 5769 C 532.564 0.875008 -1.50398 0
M  V30 5770 O 533.74 0.835778 -1.83239 0
M  V30 5771 C 530.805 1.12977 -3.27776 0
M  V30 5772 C 529.866 0.394081 -4.27487 0
M  V30 5773 C 529.099 1.34068 -5.16586 0
M  V30 5774 O 529.322 2.5778 -5.08828 0
M  V30 5775 O 528.256 0.845426 -5.95933 0
M  V30 5776 H 532.082 -0.588691 -2.9794 0
M  V30 5777 H 529.667 -0.353784 -1.45151 0
M  V30 5778 H 531.549 1.70261 -3.85473 0
M  V30 5779 H 530.224 1.83556 -2.66625 0
M  V30 5780 H 529.131 -0.220869 -3.73447 0
M  V30 5781 H 530.464 -0.270939 -4.91454 0
M  V30 5782 N 532.116 1.54067 -0.331816 0
M  V30 5783 C 533.362 2.01012 0.268667 0
M  V30 5784 C 533.695 1.2195 1.51136 0
M  V30 5785 O 532.97 0.303972 1.9211 0
M  V30 5786 C 533.253 3.55158 0.59456 0
M  V30 5787 C 533.106 4.4494 -0.659409 0
M  V30 5788 C 534.425 4.16939 1.4089 0
M  V30 5789 H 531.544 0.730698 0.0961756 0
M  V30 5790 H 534.186 1.84593 -0.450031 0
M  V30 5791 H 532.336 3.6928 1.20685 0
M  V30 5792 H 534.008 4.42675 -1.29756 0
M  V30 5793 H 532.251 4.1428 -1.28665 0
M  V30 5794 H 532.922 5.50643 -0.386804 0
M  V30 5795 H 535.398 4.06443 0.891272 0
M  V30 5796 H 534.274 5.24889 1.60569 0
M  V30 5797 H 534.535 3.70798 2.40752 0
M  V30 5798 N 533.594 0.0601682 1.57485 0
M  V30 5799 C 534.819 -0.624416 1.97777 0
M  V30 5800 C 535.244 -1.63051 0.937867 0
M  V30 5801 O 534.602 -1.81036 -0.0978845 0
M  V30 5802 C 534.65 -1.27979 3.37126 0
M  V30 5803 O 533.754 -2.39556 3.35688 0
M  V30 5804 H 533.095 -0.161581 0.64404 0
M  V30 5805 H 535.625 0.131237 2.04179 0
M  V30 5806 H 535.635 -1.62937 3.74053 0
M  V30 5807 H 534.31 -0.542501 4.12347 0
M  V30 5808 H 532.887 -2.06478 3.10517 0
M  V30 5809 N 535.072 -1.5615 -0.213296 0
M  V30 5810 C 536.019 -1.93086 -1.26437 0
M  V30 5811 C 536.989 -0.789086 -1.4616 0
M  V30 5812 O 538.174 -1.04569 -1.59593 0
M  V30 5813 C 535.314 -2.26003 -2.608 0
M  V30 5814 C 534.427 -3.53156 -2.48807 0
M  V30 5815 C 533.562 -3.7548 -3.7575 0
M  V30 5816 C 532.601 -4.96119 -3.58514 0
M  V30 5817 N 531.738 -5.14791 -4.77425 0
M  V30 5818 H 536.578 -2.82707 -0.942376 0
M  V30 5819 H 534.115 -1.39919 -0.454001 0
M  V30 5820 H 536.073 -2.431 -3.39055 0
M  V30 5821 H 534.703 -1.39546 -2.91079 0
M  V30 5822 H 533.755 -3.44207 -1.61944 0
M  V30 5823 H 535.067 -4.41565 -2.31996 0
M  V30 5824 H 534.221 -3.92718 -4.62447 0
M  V30 5825 H 532.96 -2.85368 -3.95495 0
M  V30 5826 H 531.965 -4.78823 -2.70201 0
M  V30 5827 H 533.19 -5.87724 -3.40231 0
M  V30 5828 H 531.136 -4.27623 -4.97468 0
M  V30 5829 H 531.053 -5.97347 -4.63371 0
M  V30 5830 H 532.321 -5.36471 -5.65525 0
M  V30 5831 N 536.55 0.480323 -1.50102 0
M  V30 5832 C 537.798 1.23063 -1.60312 0
M  V30 5833 C 538.119 1.92659 -0.301226 0
M  V30 5834 O 537.389 1.83691 0.680753 0
M  V30 5835 H 535.969 0.457231 -0.590719 0
M  V30 5836 H 538.631 0.554893 -1.86834 0
M  V30 5837 H 537.727 1.9835 -2.40964 0
M  V30 5838 N 538.028 1.39524 0.732853 0
M  V30 5839 C 539.253 1.40329 1.52717 0
M  V30 5840 C 539.678 0.000286574 1.881 0
M  V30 5841 O 539.036 -0.987262 1.52062 0
M  V30 5842 C 539.084 2.28464 2.78992 0
M  V30 5843 O 538.188 1.716 3.75003 0
M  V30 5844 H 537.529 0.47778 0.461109 0
M  V30 5845 H 540.059 1.83546 0.903996 0
M  V30 5846 H 540.069 2.43051 3.27705 0
M  V30 5847 H 538.744 3.30425 2.52572 0
M  V30 5848 H 537.321 1.66267 3.33781 0
M  V30 5849 N 539.506 -0.963266 1.24736 0
M  V30 5850 C 540.436 -2.07628 1.06832 0
M  V30 5851 C 541.417 -1.70088 -0.0200566 0
M  V30 5852 O 542.602 -1.93636 0.147854 0
M  V30 5853 C 539.732 -3.40636 0.677069 0
M  V30 5854 C 538.686 -3.9215 1.71471 0
M  V30 5855 C 538.012 -5.21553 1.1784 0
M  V30 5856 C 539.312 -4.19493 3.11164 0
M  V30 5857 H 541.006 -2.22864 1.9993 0
M  V30 5858 H 538.552 -1.07093 0.96266 0
M  V30 5859 H 540.505 -4.17941 0.538792 0
M  V30 5860 H 539.229 -3.25313 -0.289612 0
M  V30 5861 H 537.888 -3.17005 1.84128 0
M  V30 5862 H 537.536 -5.02593 0.202195 0
M  V30 5863 H 537.236 -5.56988 1.87185 0
M  V30 5864 H 538.76 -6.01463 1.05233 0
M  V30 5865 H 540.174 -4.87487 3.01711 0
M  V30 5866 H 538.571 -4.66165 3.77902 0
M  V30 5867 H 539.641 -3.26097 3.58871 0
M  V30 5868 N 540.985 -1.06182 -1.16461 0
M  V30 5869 C 542.401 -0.785065 -1.38956 0
M  V30 5870 C 542.601 0.616103 -1.9185 0
M  V30 5871 O 541.657 1.37686 -2.11657 0
M  V30 5872 C 542.97 -1.84902 -2.37132 0
M  V30 5873 C 544.518 -1.8724 -2.50819 0
M  V30 5874 C 544.993 -2.92686 -3.52277 0
M  V30 5875 N 546.484 -2.91712 -3.59803 0
M  V30 5876 C 547.219 -3.69949 -4.38093 0
M  V30 5877 N 546.715 -4.58 -5.19815 0
M  V30 5878 N 548.508 -3.58346 -4.33064 0
M  V30 5879 H 540.659 -1.96569 -0.804634 0
M  V30 5880 H 542.922 -0.851747 -0.416211 0
M  V30 5881 H 542.628 -2.85518 -2.0536 0
M  V30 5882 H 542.502 -1.69908 -3.36766 0
M  V30 5883 H 544.889 -0.872827 -2.81897 0
M  V30 5884 H 544.97 -2.06311 -1.51226 0
M  V30 5885 H 544.614 -3.92835 -3.21937 0
M  V30 5886 H 544.544 -2.70864 -4.51598 0
M  V30 5887 H 547.035 -2.27876 -3.01464 0
M  V30 5888 H 547.348 -5.14357 -5.76764 0
M  V30 5889 H 545.693 -4.62056 -5.19162 0
M  V30 5890 H 548.884 -2.88943 -3.68279 0
M  V30 5891 H 549.057 -4.19563 -4.93833 0
M  V30 5892 N 542.463 1.3308 -0.844243 0
M  V30 5893 C 543.393 2.3161 -0.296493 0
M  V30 5894 C 544.374 1.59215 0.598707 0
M  V30 5895 O 545.559 1.87077 0.521134 0
M  V30 5896 C 542.689 3.43313 0.524762 0
M  V30 5897 C 541.643 4.27115 -0.275106 0
M  V30 5898 C 540.969 5.30483 0.670236 0
M  V30 5899 C 542.269 5.00443 -1.49514 0
M  V30 5900 H 543.963 2.77672 -1.11976 0
M  V30 5901 H 541.509 1.33496 -0.539899 0
M  V30 5902 H 543.462 4.11273 0.918298 0
M  V30 5903 H 542.186 2.95952 1.3813 0
M  V30 5904 H 540.845 3.60787 -0.650267 0
M  V30 5905 H 540.493 4.79379 1.52332 0
M  V30 5906 H 540.193 5.87435 0.139123 0
M  V30 5907 H 541.717 6.01308 1.06117 0
M  V30 5908 H 543.131 5.61141 -1.17447 0
M  V30 5909 H 541.528 5.67071 -1.96343 0
M  V30 5910 H 542.598 4.28906 -2.26202 0
M  V30 5911 N 543.941 0.601185 1.45683 0
M  V30 5912 C 545.166 0.0982245 2.07167 0
M  V30 5913 C 545.591 -1.20546 1.44396 0
M  V30 5914 O 544.949 -1.73247 0.534347 0
M  V30 5915 C 544.997 -0.0346976 3.60583 0
M  V30 5916 O 544.101 -1.08657 3.97828 0
M  V30 5917 H 543.442 0.0711618 0.660176 0
M  V30 5918 H 545.972 0.829376 1.87036 0
M  V30 5919 H 545.982 -0.234969 4.07323 0
M  V30 5920 H 544.657 0.917265 4.05659 0
M  V30 5921 H 543.234 -0.863275 3.6277 0
M  V30 5922 N 545.419 -1.53889 0.339982 0
M  V30 5923 C 546.667 -2.00458 -0.257112 0
M  V30 5924 C 546.988 -1.22953 -1.51353 0
M  V30 5925 O 546.258 -0.335734 -1.93002 0
M  V30 5926 H 544.838 -0.740544 -0.0979965 0
M  V30 5927 H 547.5 -1.89386 0.460317 0
M  V30 5928 H 546.596 -3.08035 -0.502057 0
M  V30 5929 N 546.897 -0.0685191 -1.57451 0
M  V30 5930 C 548.313 0.288101 -1.56978 0
M  V30 5931 C 548.513 1.70262 -1.07765 0
M  V30 5932 O 547.569 2.4135 -0.742054 0
M  V30 5933 C 548.882 0.100745 -3.00531 0
M  V30 5934 C 550.43 0.170531 -3.12535 0
M  V30 5935 C 550.905 0.0114944 -4.57999 0
M  V30 5936 N 552.396 0.0672065 -4.63151 0
M  V30 5937 C 553.131 -0.0314813 -5.73391 0
M  V30 5938 N 552.627 -0.183503 -6.92557 0
M  V30 5939 N 554.42 0.0253489 -5.62094 0
M  V30 5940 H 546.571 -0.993026 -1.87757 0
M  V30 5941 H 548.834 -0.386981 -0.865419 0
M  V30 5942 H 548.54 -0.875197 -3.40636 0
M  V30 5943 H 548.414 0.854457 -3.67395 0
M  V30 5944 H 550.801 1.13696 -2.72318 0
M  V30 5945 H 550.882 -0.614229 -2.48316 0
M  V30 5946 H 550.526 -0.951684 -4.98904 0
M  V30 5947 H 550.456 0.815617 -5.20245 0
M  V30 5948 H 552.947 0.183246 -3.77455 0
M  V30 5949 H 553.26 -0.251041 -7.72392 0
M  V30 5950 H 551.605 -0.218822 -6.94655 0
M  V30 5951 H 554.796 0.142794 -4.67882 0
M  V30 5952 H 554.969 -0.0550166 -6.47977 0
M  V30 5953 N 548.375 1.56261 0.205012 0
M  V30 5954 C 549.6 1.84491 0.947512 0
M  V30 5955 C 550.025 0.650894 1.76479 0
M  V30 5956 O 549.383 -0.40035 1.76824 0
M  V30 5957 C 549.431 3.10863 1.82747 0
M  V30 5958 O 548.535 2.90719 2.925 0
M  V30 5959 H 547.876 0.607783 0.267386 0
M  V30 5960 H 550.406 2.03485 0.213323 0
M  V30 5961 H 550.416 3.41399 2.23407 0
M  V30 5962 H 549.091 3.97392 1.2269 0
M  V30 5963 H 547.668 2.71457 2.55667 0
M  V30 5964 N 549.853 -0.472356 1.50355 0
M  V30 5965 C 550.801 -1.59126 1.69651 0
M  V30 5966 C 551.795 -1.59793 0.56237 0
M  V30 5967 O 553.001 -1.63957 0.742832 0
M  V30 5968 H 549.376 -0.528008 0.535454 0
M  V30 5969 H 551.347 -1.40013 2.63513 0
M  V30 5970 C 550.096 -2.97075 1.8067 0
M  V30 5971 H 549.419 -2.9728 2.67329 0
M  V30 5972 H 550.859 -3.74825 1.98197 0
M  V30 5973 C 549.318 -3.32247 0.558016 0
M  V30 5974 O 549.848 -4.00553 -0.303399 0
M  V30 5975 N 548.054 -2.87659 0.412415 0
M  V30 5976 H 547.601 -2.32246 1.11443 0
M  V30 5977 H 547.559 -3.11556 -0.421908 0
M  V30 5978 N 551.331 -1.39911 -0.725443 0
M  V30 5979 C 552.742 -1.33599 -1.30415 0
M  V30 5980 C 553.093 -0.00481792 -1.96199 0
M  V30 5981 O 552.218 0.897275 -1.96921 0
M  V30 5982 C 552.813 -2.41965 -2.37146 0
M  V30 5983 C 551.372 -2.39144 -2.90667 0
M  V30 5984 C 550.519 -2.23355 -1.64341 0
M  V30 5985 H 553.47 -1.4986 -0.522267 0
M  V30 5986 H 553.491 -2.09304 -3.17761 0
M  V30 5987 H 553.003 -3.38837 -1.89238 0
M  V30 5988 H 551.104 -1.4594 -3.4283 0
M  V30 5989 H 551.217 -3.34362 -3.43131 0
M  V30 5990 H 549.581 -1.70696 -1.89037 0
M  V30 5991 H 550.364 -3.2221 -1.18471 0
M  V30 5992 N 552.809 0.956637 -1.25245 0
M  V30 5993 C 554.058 1.69537 -1.0927 0
M  V30 5994 C 554.371 1.92136 0.366503 0
M  V30 5995 O 555.577 2.63687 0.64665 0
M  V30 5996 C 554.033 3.05211 -1.9072 0
M  V30 5997 C 553.641 2.90416 -3.41119 0
M  V30 5998 C 555.385 3.82882 -1.83308 0
M  V30 5999 C 553.292 4.21468 -4.14872 0
M  V30 6000 H 552.222 0.635804 -0.405302 0
M  V30 6001 H 554.873 1.06513 -1.49423 0
M  V30 6002 H 553.255 3.69128 -1.43389 0
M  V30 6003 H 554.429 2.35444 -3.9611 0
M  V30 6004 H 552.744 2.26203 -3.49602 0
M  V30 6005 H 555.341 4.79944 -2.35706 0
M  V30 6006 H 555.684 4.0853 -0.800572 0
M  V30 6007 H 556.217 3.25711 -2.28379 0
M  V30 6008 H 552.956 4.01009 -5.18529 0
M  V30 6009 H 552.476 4.76213 -3.64665 0
M  V30 6010 H 554.155 4.90022 -4.22478 0
M  V30 6011 O 554.326 1.1921 1.08956 0
M  V30 6012 H 555.017 0.939352 1.69399 0
M  V30 END ATOM
M  V30 BEGIN BOND
M  V30 END BOND
M  V30 END CTAB
M  END
$$$$
