drugbank_target|P50597 Ribonuclease PH (DB03309)
 OpenBabel12092120023D

  0  0  0     0  0            999 V3000
M  V30 BEGIN CTAB
M  V30 COUNTS 3624 3645 0 0 0
M  V30 BEGIN ATOM
M  V30 1 H -0.908 1.98254 -0.117106 0
M  V30 2 N 0 1.576 0 0
M  V30 3 C 0.933 2.03868 1.02534 0
M  V30 4 C 1.911 0.928543 1.3348 0
M  V30 5 O 3.095 1.19667 1.45644 0
M  V30 6 C 0.222 2.43627 2.35294 0
M  V30 7 C -0.732 3.65373 2.2001 0
M  V30 8 S 0.101 5.13292 1.52614 0
M  V30 9 C 1.257 5.56322 2.86805 0
M  V30 10 H 1.49 2.90518 0.631377 0
M  V30 11 H -0.977 1.52953 0.210867 0
M  V30 12 H 0.981 2.67203 3.11629 0
M  V30 13 H -0.358 1.57376 2.7183 0
M  V30 14 H -1.165 3.90944 3.18086 0
M  V30 15 H -1.563 3.418 1.51819 0
M  V30 16 H 0.729 5.58782 3.83104 0
M  V30 17 H 1.672 6.56266 2.65933 0
M  V30 18 H 2.08 4.83886 2.90714 0
M  V30 19 N 1.4781 -0.272755 1.55222 0
M  V30 20 C 2.4261 -1.35705 1.88909 0
M  V30 21 C 3.4201 -1.5112 0.765456 0
M  V30 22 O 4.6261 -1.52901 0.949802 0
M  V30 23 H 1.0011 -0.453868 0.59959 0
M  V30 24 H 2.9721 -1.04544 2.79487 0
M  V30 25 C 1.7211 -2.71049 2.17779 0
M  V30 26 H 1.0441 -2.59979 3.03728 0
M  V30 27 H 2.4841 -3.45858 2.45272 0
M  V30 28 C 0.9431 -3.22165 0.985473 0
M  V30 29 O 1.4731 -4.01096 0.220233 0
M  V30 30 N -0.3209 -2.7985 0.783108 0
M  V30 31 H -0.7739 -2.15775 1.40708 0
M  V30 32 H -0.8159 -3.14397 -0.0130392 0
M  V30 33 N 2.9562 -1.48159 -0.537278 0
M  V30 34 C 4.3722 -1.34118 -0.865129 0
M  V30 35 C 4.5722 -0.346678 -1.98495 0
M  V30 36 O 3.6282 0.234715 -2.51407 0
M  V30 37 C 4.9412 -2.73963 -1.23954 0
M  V30 38 C 6.4892 -2.82397 -1.34984 0
M  V30 39 C 6.9642 -4.22928 -1.75772 0
M  V30 40 N 8.4552 -4.25566 -1.82887 0
M  V30 41 C 9.1902 -5.31235 -2.15817 0
M  V30 42 N 8.6862 -6.47189 -2.47222 0
M  V30 43 N 10.4792 -5.18624 -2.16761 0
M  V30 44 H 2.6302 -2.1144 0.201715 0
M  V30 45 H 4.8932 -0.947598 0.0275949 0
M  V30 46 H 4.5992 -3.48264 -0.490381 0
M  V30 47 H 4.4732 -3.0702 -2.19132 0
M  V30 48 H 6.8602 -2.08356 -2.08978 0
M  V30 49 H 6.9412 -2.5297 -0.379448 0
M  V30 50 H 6.5852 -4.97482 -1.02341 0
M  V30 51 H 6.5152 -4.49794 -2.73848 0
M  V30 52 H 9.0062 -3.41924 -1.60924 0
M  V30 53 H 9.3192 -7.23564 -2.71433 0
M  V30 54 H 7.6642 -6.50476 -2.44757 0
M  V30 55 H 10.8552 -4.27056 -1.91679 0
M  V30 56 H 11.0282 -6.01078 -2.42093 0
M  V30 57 N 4.4343 0.785586 -1.36625 0
M  V30 58 C 5.8453 1.36101 -1.27803 0
M  V30 59 C 6.1963 1.96035 0.0804875 0
M  V30 60 O 5.3213 1.92834 0.982042 0
M  V30 61 C 5.9163 2.47442 -2.31426 0
M  V30 62 C 4.4753 3.00789 -2.26281 0
M  V30 63 C 3.6223 1.73896 -2.15999 0
M  V30 64 H 6.5733 0.586928 -1.47448 0
M  V30 65 H 6.5943 3.2656 -1.95291 0
M  V30 66 H 6.1063 2.03791 -3.30289 0
M  V30 67 H 4.2073 3.48851 -1.30896 0
M  V30 68 H 4.3203 3.57343 -3.19128 0
M  V30 69 H 2.6843 1.9628 -1.62316 0
M  V30 70 H 3.4673 1.32368 -3.16755 0
M  V30 71 N 5.9124 1.20967 1.01018 0
M  V30 72 C 7.1374 1.0503 1.78839 0
M  V30 73 C 7.5624 -0.395752 1.8389 0
M  V30 74 O 6.9204 -1.28529 1.27867 0
M  V30 75 C 6.9684 1.64602 3.2084 0
M  V30 76 O 6.0724 0.887988 4.02726 0
M  V30 77 H 5.4134 0.369987 0.551367 0
M  V30 78 H 7.9434 1.60399 1.27018 0
M  V30 79 H 7.9534 1.68607 3.71532 0
M  V30 80 H 6.6284 2.69841 3.16479 0
M  V30 81 H 5.2054 0.922648 3.61305 0
M  V30 82 N 7.3905 -1.2043 1.01659 0
M  V30 83 C 8.6385 -1.89423 0.704522 0
M  V30 84 C 8.9595 -1.79231 -0.768197 0
M  V30 85 O 8.2295 -1.1947 -1.55254 0
M  V30 86 H 6.8095 -0.701178 0.257602 0
M  V30 87 H 9.4715 -1.4626 1.28818 0
M  V30 88 H 8.5675 -2.96052 0.987916 0
M  V30 89 N 8.8686 -0.792821 -1.36206 0
M  V30 90 C 10.2846 -0.474903 -1.52371 0
M  V30 91 C 10.4846 1.00622 -1.74578 0
M  V30 92 O 9.5406 1.79162 -1.77924 0
M  V30 93 C 10.8536 -1.3083 -2.70747 0
M  V30 94 C 12.4016 -1.30234 -2.84619 0
M  V30 95 C 12.8766 -2.11956 -4.06004 0
M  V30 96 N 14.3676 -2.09419 -4.13156 0
M  V30 97 C 15.1026 -2.69419 -5.06163 0
M  V30 98 N 14.5986 -3.3829 -6.04592 0
M  V30 99 N 16.3916 -2.59134 -4.98804 0
M  V30 100 H 8.5426 -1.75222 -1.20046 0
M  V30 101 H 10.8056 -0.745024 -0.586211 0
M  V30 102 H 10.5116 -2.35881 -2.6087 0
M  V30 103 H 10.3856 -0.95196 -3.6499 0
M  V30 104 H 12.7726 -0.259748 -2.93955 0
M  V30 105 H 12.8536 -1.69847 -1.91274 0
M  V30 106 H 12.4976 -3.16248 -3.97429 0
M  V30 107 H 12.4276 -1.69711 -4.98503 0
M  V30 108 H 14.9186 -1.59297 -3.42685 0
M  V30 109 H 15.2316 -3.81394 -6.7213 0
M  V30 110 H 13.5766 -3.42393 -6.04807 0
M  V30 111 H 16.7676 -2.04927 -4.20859 0
M  V30 112 H 16.9406 -3.06185 -5.711 0
M  V30 113 N 10.3467 1.47872 -0.545128 0
M  V30 114 C 11.3097 2.28337 0.198717 0
M  V30 115 C 12.3097 1.36255 0.853888 0
M  V30 116 O 13.4997 1.59003 0.711606 0
M  V30 117 C 10.6317 3.15585 1.28915 0
M  V30 118 H 11.8247 2.95567 -0.507941 0
M  V30 119 H 9.3777 1.53362 -0.301616 0
M  V30 120 H 10.1127 2.53019 2.02859 0
M  V30 121 H 9.8977 3.83337 0.824309 0
M  V30 122 H 11.3877 3.76243 1.81194 0
M  V30 123 N 11.8248 0.280983 1.55075 0
M  V30 124 C 12.7878 -0.590896 2.21452 0
M  V30 125 C 13.7878 -1.07682 1.19421 0
M  V30 126 O 14.9778 -0.97605 1.44288 0
M  V30 127 C 12.1098 -1.81587 2.88511 0
M  V30 128 H 13.3028 -0.0112554 2.99898 0
M  V30 129 H 10.8558 0.0316438 1.56268 0
M  V30 130 H 11.5908 -2.43587 2.14093 0
M  V30 131 H 11.3758 -1.4753 3.63287 0
M  V30 132 H 12.8658 -2.43575 3.39206 0
M  V30 133 N 13.3029 -1.57598 0.00835791 0
M  V30 134 C 14.5799 -1.82172 -0.712235 0
M  V30 135 C 14.9599 -0.887873 -1.9152 0
M  V30 136 O 14.3079 0.06146 -2.28417 0
M  V30 137 C 14.5179 -3.30875 -1.11008 0
M  V30 138 C 15.8659 -3.96826 -1.51044 0
M  V30 139 O 16.8899 -3.35248 -1.20364 0
M  V30 140 O 15.7489 -5.05318 -2.08125 0
M  V30 141 H 12.8429 -0.750435 -0.347529 0
M  V30 142 H 15.3889 -1.69665 0.0344523 0
M  V30 143 H 14.1609 -3.90481 -0.252982 0
M  V30 144 H 13.7839 -3.48412 -1.9156 0
M  V30 145 N 14.781 0.264519 -1.55364 0
M  V30 146 C 15.713 1.34965 -1.85248 0
M  V30 147 C 16.726 1.45136 -0.737525 0
M  V30 148 O 17.915 1.46801 -1.01547 0
M  V30 149 C 15.015 2.73008 -2.00797 0
M  V30 150 C 14.188 2.85324 -3.31525 0
M  V30 151 C 13.247 4.04097 -3.37034 0
M  V30 152 O 12.273 3.94455 -4.10358 0
M  V30 153 N 13.475 5.16458 -2.65049 0
M  V30 154 H 16.24 1.09672 -2.78913 0
M  V30 155 H 13.801 0.454635 -1.55386 0
M  V30 156 H 15.793 3.50772 -2.01844 0
M  V30 157 H 14.363 2.91087 -1.1396 0
M  V30 158 H 13.583 1.94377 -3.42945 0
M  V30 159 H 14.871 2.9049 -4.17724 0
M  V30 160 H 14.269 5.27181 -2.05175 0
M  V30 161 H 12.826 5.92422 -2.71809 0
M  V30 162 N 16.2591 1.48442 0.529413 0
M  V30 163 C 17.1891 1.65902 1.64313 0
M  V30 164 C 18.1701 0.507897 1.6234 0
M  V30 165 O 19.3551 0.740503 1.79528 0
M  V30 166 C 16.4851 1.69911 3.02898 0
M  V30 167 C 15.4391 2.8453 3.19729 0
M  V30 168 C 14.7651 2.73629 4.59381 0
M  V30 169 C 16.0651 4.25821 3.02447 0
M  V30 170 H 17.7591 2.5914 1.49955 0
M  V30 171 H 15.3051 1.24709 0.719982 0
M  V30 172 H 17.2581 1.80715 3.80684 0
M  V30 173 H 15.9821 0.732524 3.18279 0
M  V30 174 H 14.6411 2.73283 2.44361 0
M  V30 175 H 14.2891 1.74938 4.71599 0
M  V30 176 H 13.9891 3.50541 4.71588 0
M  V30 177 H 15.5131 2.86401 5.39265 0
M  V30 178 H 16.9271 4.37898 3.70024 0
M  V30 179 H 15.3241 5.03735 3.26146 0
M  V30 180 H 16.3941 4.42244 1.98867 0
M  V30 181 N 17.7372 -0.778329 1.37039 0
M  V30 182 C 19.1532 -1.07796 1.17695 0
M  V30 183 C 19.3532 -2.01498 0.00860115 0
M  V30 184 O 18.4092 -2.43901 -0.653352 0
M  V30 185 C 19.7222 -1.68178 2.49272 0
M  V30 186 C 21.2702 -1.80467 2.55735 0
M  V30 187 C 21.7452 -2.44263 3.87427 0
M  V30 188 N 23.2362 -2.51721 3.88833 0
M  V30 189 C 23.9712 -3.01919 4.87476 0
M  V30 190 N 23.4672 -3.5234 5.96513 0
M  V30 191 N 25.2602 -3.00733 4.74885 0
M  V30 192 H 17.4112 -0.156032 2.11826 0
M  V30 193 H 19.6742 -0.131844 0.938787 0
M  V30 194 H 19.3802 -1.06796 3.35093 0
M  V30 195 H 19.2542 -2.67554 2.65885 0
M  V30 196 H 21.6412 -2.40984 1.70325 0
M  V30 197 H 21.7222 -0.798656 2.43013 0
M  V30 198 H 21.3662 -1.84388 4.73248 0
M  V30 199 H 21.2962 -3.45458 3.9745 0
M  V30 200 H 23.7872 -2.1603 3.10063 0
M  V30 201 H 24.1002 -3.89027 6.67741 0
M  V30 202 H 22.4452 -3.50462 6.00168 0
M  V30 203 H 25.6362 -2.60638 3.88826 0
M  V30 204 H 25.8092 -3.39545 5.51918 0
M  V30 205 N 19.2153 -1.21501 -1.00376 0
M  V30 206 C 20.6263 -1.03146 -1.55621 0
M  V30 207 C 20.9773 0.408375 -1.91903 0
M  V30 208 O 20.1023 1.29177 -1.73616 0
M  V30 209 C 20.6973 -1.86612 -2.82775 0
M  V30 210 C 19.2563 -1.72586 -3.34501 0
M  V30 211 C 18.4033 -1.83747 -2.07683 0
M  V30 212 H 21.3543 -1.35505 -0.826081 0
M  V30 213 H 21.3753 -1.3771 -3.54706 0
M  V30 214 H 20.8873 -2.91399 -2.56336 0
M  V30 215 H 18.9883 -0.704877 -3.65872 0
M  V30 216 H 19.1013 -2.54623 -4.05837 0
M  V30 217 H 17.4653 -1.27069 -2.20739 0
M  V30 218 H 18.2483 -2.90044 -1.83655 0
M  V30 219 N 20.6934 1.19889 -1.02296 0
M  V30 220 C 21.9424 1.88743 -0.711257 0
M  V30 221 C 22.2554 1.80112 0.762817 0
M  V30 222 O 23.4614 2.44161 1.18733 0
M  V30 223 C 21.9174 3.38525 -1.22185 0
M  V30 224 C 21.5254 3.55727 -2.72328 0
M  V30 225 C 23.2694 4.12893 -0.985864 0
M  V30 226 C 21.1764 4.99369 -3.16835 0
M  V30 227 H 20.1064 0.706885 -0.262353 0
M  V30 228 H 22.7574 1.35586 -1.23648 0
M  V30 229 H 21.1394 3.91044 -0.624571 0
M  V30 230 H 22.3134 3.13564 -3.3766 0
M  V30 231 H 20.6284 2.94739 -2.9414 0
M  V30 232 H 23.2254 5.18813 -1.29374 0
M  V30 233 H 23.5684 4.16228 0.0775055 0
M  V30 234 H 24.1014 3.66494 -1.54684 0
M  V30 235 H 20.8404 5.01193 -4.22476 0
M  V30 236 H 20.3604 5.42317 -2.56228 0
M  V30 237 H 22.0394 5.67988 -3.09837 0
M  V30 238 N 22.1715 0.800033 1.35784 0
M  V30 239 C 23.5875 0.482977 1.52117 0
M  V30 240 C 23.7875 -0.996948 1.75109 0
M  V30 241 O 22.8435 -1.78216 1.78872 0
M  V30 242 C 24.1565 1.32264 2.70049 0
M  V30 243 C 25.7045 1.31742 2.83924 0
M  V30 244 C 26.1795 2.14106 4.04874 0
M  V30 245 N 27.6705 2.11607 4.12039 0
M  V30 246 C 28.4055 2.72099 5.04727 0
M  V30 247 N 27.9015 3.41492 6.02789 0
M  V30 248 N 29.6945 2.61776 4.97423 0
M  V30 249 H 21.8455 1.75856 1.19115 0
M  V30 250 H 24.1085 0.748122 0.582252 0
M  V30 251 H 23.8145 2.37261 2.59616 0
M  V30 252 H 23.6885 0.971303 3.6448 0
M  V30 253 H 26.0755 0.275333 2.93813 0
M  V30 254 H 26.1565 1.70859 1.9037 0
M  V30 255 H 25.8005 3.18351 3.95746 0
M  V30 256 H 25.7305 1.72353 4.97596 0
M  V30 257 H 28.2215 1.61112 3.41835 0
M  V30 258 H 28.5345 3.84953 6.70098 0
M  V30 259 H 26.8795 3.45596 6.02983 0
M  V30 260 H 30.0705 2.07157 4.19766 0
M  V30 261 H 30.2435 3.0921 5.69468 0
M  V30 262 N 23.6496 -1.47581 0.552962 0
M  V30 263 C 24.8986 -2.01684 0.0251995 0
M  V30 264 C 25.2116 -1.43317 -1.33115 0
M  V30 265 O 26.4176 -1.89057 -1.94858 0
M  V30 266 C 24.8736 -3.599 -0.00542052 0
M  V30 267 C 24.4816 -4.27257 1.34742 0
M  V30 268 C 26.2256 -4.21768 -0.4808 0
M  V30 269 C 24.1326 -5.77467 1.27614 0
M  V30 270 H 23.0626 -0.753979 0.00565033 0
M  V30 271 H 25.7136 -1.69616 0.70018 0
M  V30 272 H 24.0956 -3.88911 -0.745961 0
M  V30 273 H 25.2696 -4.09893 2.10534 0
M  V30 274 H 23.5846 -3.77358 1.76039 0
M  V30 275 H 26.1816 -5.31838 -0.55246 0
M  V30 276 H 26.5246 -3.88651 -1.49184 0
M  V30 277 H 27.0576 -3.97273 0.204752 0
M  V30 278 H 23.7966 -6.15196 2.26304 0
M  V30 279 H 23.3166 -5.9718 0.55996 0
M  V30 280 H 24.9956 -6.3959 0.976421 0
M  V30 281 N 25.1277 -0.289203 -1.54924 0
M  V30 282 C 26.3557 0.326463 -2.04308 0
M  V30 283 C 26.7707 1.48413 -1.16701 0
M  V30 284 O 26.1277 1.81507 -0.190087 0
M  V30 285 C 26.1787 0.794014 -3.52672 0
M  V30 286 O 25.8997 -0.317564 -4.36948 0
M  V30 287 C 27.4007 1.47605 -4.18004 0
M  V30 288 H 24.6207 0.0726272 -0.667058 0
M  V30 289 H 27.1647 -0.425401 -2.00026 0
M  V30 290 H 25.3197 1.49593 -3.57352 0
M  V30 291 H 25.7337 0.0443186 -5.24481 0
M  V30 292 H 27.2077 1.75447 -5.23376 0
M  V30 293 H 27.6847 2.41224 -3.67025 0
M  V30 294 H 28.2907 0.81762 -4.17367 0
M  V30 295 N 26.6058 1.57591 -0.0167156 0
M  V30 296 C 28.0218 1.55946 0.339557 0
M  V30 297 C 28.2218 1.02109 1.73713 0
M  V30 298 O 27.2778 0.662303 2.43659 0
M  V30 299 C 28.5908 3.00037 0.199499 0
M  V30 300 C 30.1388 3.11805 0.273193 0
M  V30 301 C 30.6138 4.57713 0.162068 0
M  V30 302 N 32.1048 4.6268 0.219444 0
M  V30 303 C 32.8398 5.73185 0.157054 0
M  V30 304 N 32.3358 6.92786 0.0442936 0
M  V30 305 N 34.1288 5.61707 0.21014 0
M  V30 306 H 26.2798 1.90921 -0.930758 0
M  V30 307 H 28.5428 0.877674 -0.358319 0
M  V30 308 H 28.2488 3.4333 -0.76273 0
M  V30 309 H 28.1228 3.64387 0.974786 0
M  V30 310 H 30.5098 2.68433 1.22587 0
M  V30 311 H 30.5908 2.50201 -0.532256 0
M  V30 312 H 30.2348 5.01763 -0.78714 0
M  V30 313 H 30.1648 5.17283 0.986222 0
M  V30 314 H 32.6558 3.76649 0.307246 0
M  V30 315 H 32.9688 7.728 0.00304069 0
M  V30 316 H 31.3138 6.94999 0.00968457 0
M  V30 317 H 34.5048 4.6716 0.296546 0
M  V30 318 H 34.6778 6.47807 0.158054 0
M  V30 319 N 28.0839 -0.256276 1.55502 0
M  V30 320 C 29.0339 -1.31981 1.85916 0
M  V30 321 C 30.0179 -1.43927 0.719296 0
M  V30 322 O 31.2099 -1.47326 0.981019 0
M  V30 323 C 28.3389 -2.67703 2.14918 0
M  V30 324 C 27.4249 -2.59801 3.35208 0
M  V30 325 N 27.8159 -2.21524 4.54709 0
M  V30 326 C 26.1139 -2.90832 3.38131 0
M  V30 327 C 26.8149 -2.24024 5.36832 0
M  V30 328 N 25.7909 -2.63158 4.75656 0
M  V30 329 H 29.5929 -1.01423 2.75845 0
M  V30 330 H 27.1069 -0.464911 1.55603 0
M  V30 331 H 29.1039 -3.44445 2.34869 0
M  V30 332 H 27.7639 -2.99137 1.26282 0
M  V30 333 H 28.7749 -1.93223 4.80505 0
M  V30 334 H 25.4519 -3.26867 2.59739 0
M  V30 335 H 26.8419 -1.9685 6.42417 0
M  V30 336 N 29.562 -1.4872 -0.521534 0
M  V30 337 C 30.792 -1.6061 -1.29954 0
M  V30 338 C 31.2 -0.268728 -1.87282 0
M  V30 339 O 30.543 0.753221 -1.67548 0
M  V30 340 C 30.605 -2.60013 -2.48261 0
M  V30 341 C 30.269 -4.04874 -2.11957 0
M  V30 342 C 31.266 -4.92304 -1.67132 0
M  V30 343 C 28.951 -4.5047 -2.22221 0
M  V30 344 C 30.945 -6.2336 -1.33047 0
M  V30 345 C 28.632 -5.81544 -1.87748 0
M  V30 346 C 29.63 -6.67812 -1.43234 0
M  V30 347 O 29.318 -7.96446 -1.09217 0
M  V30 348 H 29.05 -0.544116 -0.401141 0
M  V30 349 H 31.604 -1.95339 -0.634958 0
M  V30 350 H 29.834 -2.20422 -3.17728 0
M  V30 351 H 31.523 -2.61648 -3.10315 0
M  V30 352 H 32.289 -4.58312 -1.58665 0
M  V30 353 H 28.168 -3.83504 -2.55823 0
M  V30 354 H 31.712 -6.90649 -0.982299 0
M  V30 355 H 27.609 -6.15069 -1.95858 0
M  V30 356 H 28.377 -8.09275 -1.22542 0
M  V30 357 N 31.0401 0.771051 -1.3745 0
M  V30 358 C 32.2681 1.56015 -1.35893 0
M  V30 359 C 32.6831 1.88718 0.0555523 0
M  V30 360 O 32.0401 1.51502 1.01752 0
M  V30 361 C 32.0911 2.87001 -2.19801 0
M  V30 362 O 31.8121 2.557 -3.55738 0
M  V30 363 C 33.3131 3.81228 -2.26231 0
M  V30 364 H 30.5331 0.483317 -0.465453 0
M  V30 365 H 33.0771 0.955611 -1.80799 0
M  V30 366 H 31.2321 3.43877 -1.78402 0
M  V30 367 H 31.6461 3.39584 -3.99729 0
M  V30 368 H 33.1201 4.70139 -2.89263 0
M  V30 369 H 33.5971 4.20409 -1.27093 0
M  V30 370 H 34.2031 3.30281 -2.67945 0
M  V30 371 N 32.5182 1.22032 0.997298 0
M  V30 372 C 33.4652 0.986467 2.08656 0
M  V30 373 C 34.4352 -0.0902671 1.65855 0
M  V30 374 O 35.6202 0.0584294 1.90711 0
M  V30 375 C 32.7602 0.565569 3.40434 0
M  V30 376 C 31.8732 1.71259 3.96604 0
M  V30 377 C 31.0082 1.24011 5.16522 0
M  V30 378 C 30.0472 2.35896 5.64818 0
M  V30 379 N 29.1842 1.89726 6.7598 0
M  V30 380 H 34.0242 1.91892 2.27994 0
M  V30 381 H 31.5612 0.956199 1.11782 0
M  V30 382 H 33.5192 0.302738 4.161 0
M  V30 383 H 32.1492 -0.329879 3.2111 0
M  V30 384 H 31.2012 2.08986 3.17851 0
M  V30 385 H 32.5132 2.55436 4.28432 0
M  V30 386 H 31.6672 0.934395 5.99461 0
M  V30 387 H 30.4062 0.368487 4.86306 0
M  V30 388 H 29.4112 2.67261 4.8047 0
M  V30 389 H 30.6362 3.23567 5.97061 0
M  V30 390 H 28.5822 1.0492 6.47555 0
M  V30 391 H 28.4992 2.67471 7.07103 0
M  V30 392 H 29.7672 1.62211 7.62435 0
M  V30 393 N 33.9963 -1.19345 1.0293 0
M  V30 394 C 34.9463 -2.20472 0.58104 0
M  V30 395 C 35.9303 -1.56578 -0.370442 0
M  V30 396 O 37.1223 -1.75963 -0.191344 0
M  V30 397 C 34.2513 -3.43236 -0.066306 0
M  V30 398 C 33.3373 -4.14274 0.907642 0
M  V30 399 N 33.7283 -4.61492 2.07023 0
M  V30 400 C 32.0263 -4.39966 0.731177 0
M  V30 401 C 32.7273 -5.1605 2.68454 0
M  V30 402 N 31.7033 -5.06875 1.96414 0
M  V30 403 H 35.5053 -2.54659 1.46717 0
M  V30 404 H 33.0193 -1.35423 0.896345 0
M  V30 405 H 35.0163 -4.14927 -0.405068 0
M  V30 406 H 33.6763 -3.10549 -0.948118 0
M  V30 407 H 34.6873 -4.56304 2.44963 0
M  V30 408 H 31.3643 -4.17377 -0.101507 0
M  V30 409 H 32.7543 -5.6287 3.66915 0
M  V30 410 N 35.4744 -0.807222 -1.35358 0
M  V30 411 C 36.4374 -0.223665 -2.28106 0
M  V30 412 C 37.4374 0.589354 -1.4961 0
M  V30 413 O 38.6274 0.407745 -1.69361 0
M  V30 414 C 35.7594 0.688149 -3.33882 0
M  V30 415 H 36.9524 -1.04169 -2.81227 0
M  V30 416 H 34.5054 -0.577921 -1.45223 0
M  V30 417 H 35.2404 1.52984 -2.85948 0
M  V30 418 H 35.0254 0.10687 -3.91954 0
M  V30 419 H 36.5154 1.09075 -4.03104 0
M  V30 420 N 36.9525 1.47285 -0.560781 0
M  V30 421 C 37.8625 2.33846 0.187954 0
M  V30 422 C 38.8785 1.48412 0.908293 0
M  V30 423 O 40.0545 1.81332 0.876388 0
M  V30 424 C 37.1195 3.25178 1.2025 0
M  V30 425 C 36.1805 4.26504 0.489208 0
M  V30 426 C 35.4135 5.13472 1.45542 0
M  V30 427 O 35.6365 5.02959 2.6905 0
M  V30 428 O 34.5705 5.93902 0.977963 0
M  V30 429 H 38.3965 2.99177 -0.522177 0
M  V30 430 H 35.9815 1.45903 -0.321364 0
M  V30 431 H 37.8635 3.81584 1.78805 0
M  V30 432 H 36.5385 2.6247 1.89449 0
M  V30 433 H 35.4455 3.73847 -0.137627 0
M  V30 434 H 36.7785 4.91935 -0.161399 0
M  V30 435 N 38.4306 0.297415 1.54768 0
M  V30 436 C 39.6786 -0.312295 1.99673 0
M  V30 437 C 39.9996 -1.54686 1.18732 0
M  V30 438 O 39.2696 -1.93854 0.282382 0
M  V30 439 H 37.8496 -0.118381 0.73756 0
M  V30 440 H 40.5116 0.407915 1.90583 0
M  V30 441 H 39.6076 -0.586813 3.06534 0
M  V30 442 N 39.9087 -1.5758 0.0250728 0
M  V30 443 C 41.1337 -1.96337 -0.668317 0
M  V30 444 C 41.5587 -0.901314 -1.651 0
M  V30 445 O 40.9167 0.138187 -1.80773 0
M  V30 446 C 40.9647 -3.34191 -1.35457 0
M  V30 447 O 40.0687 -3.30269 -2.46974 0
M  V30 448 H 39.4097 -0.640281 -0.175887 0
M  V30 449 H 41.9397 -2.0442 0.0857224 0
M  V30 450 H 41.9497 -3.70331 -1.71228 0
M  V30 451 H 40.6247 -4.11036 -0.634218 0
M  V30 452 H 39.2017 -3.05841 -2.13344 0
M  V30 453 N 41.3868 0.248026 -1.55636 0
M  V30 454 C 42.6328 0.97767 -1.77678 0
M  V30 455 C 42.9658 1.85016 -0.590135 0
M  V30 456 O 42.2408 1.90095 0.411611 0
M  V30 457 C 42.5238 1.83914 -3.09593 0
M  V30 458 C 42.3768 0.99491 -4.38659 0
M  V30 459 C 43.6958 2.82183 -3.37729 0
M  V30 460 H 40.8148 0.354005 -0.646413 0
M  V30 461 H 43.4568 0.248253 -1.88371 0
M  V30 462 H 41.6068 2.46104 -3.00608 0
M  V30 463 H 43.2788 0.391789 -4.59633 0
M  V30 464 H 41.5218 0.299231 -4.32767 0
M  V30 465 H 42.1928 1.63145 -5.2734 0
M  V30 466 H 44.6688 2.30129 -3.4667 0
M  V30 467 H 43.5448 3.39582 -4.31249 0
M  V30 468 H 43.8058 3.58588 -2.58586 0
M  V30 469 N 42.8649 1.48995 0.513639 0
M  V30 470 C 43.7949 1.67636 1.62544 0
M  V30 471 C 44.7759 0.525087 1.61793 0
M  V30 472 O 45.9609 0.759502 1.78732 0
M  V30 473 C 43.0909 1.73114 3.01079 0
M  V30 474 C 42.0449 2.87905 3.16693 0
M  V30 475 C 41.3709 2.78486 4.56453 0
M  V30 476 C 42.6709 4.29005 2.97913 0
M  V30 477 H 44.3649 2.60716 1.47198 0
M  V30 478 H 41.9109 1.25465 0.706714 0
M  V30 479 H 43.8639 1.84742 3.78746 0
M  V30 480 H 42.5879 0.766241 3.17484 0
M  V30 481 H 41.2469 2.75859 2.41448 0
M  V30 482 H 40.8949 1.7993 4.69717 0
M  V30 483 H 40.5949 3.55523 4.67843 0
M  V30 484 H 42.1189 2.92104 5.36197 0
M  V30 485 H 43.5329 4.41798 3.65359 0
M  V30 486 H 41.9299 5.07166 3.20785 0
M  V30 487 H 42.9999 4.44329 1.94165 0
M  V30 488 N 44.343 -0.763751 1.37857 0
M  V30 489 C 45.589 -1.52483 1.33704 0
M  V30 490 C 45.922 -1.94051 -0.0759612 0
M  V30 491 O 45.197 -1.64675 -1.03501 0
M  V30 492 C 45.48 -2.78441 2.28348 0
M  V30 493 C 45.333 -2.43075 3.78463 0
M  V30 494 C 46.652 -3.80415 2.21298 0
M  V30 495 H 43.771 -0.553169 0.487005 0
M  V30 496 H 46.413 -0.875562 1.68624 0
M  V30 497 H 44.563 -3.33842 1.987 0
M  V30 498 H 46.235 -1.93527 4.18742 0
M  V30 499 H 44.478 -1.75666 3.96641 0
M  V30 500 H 45.149 -3.33149 4.40132 0
M  V30 501 H 47.625 -3.34527 2.47449 0
M  V30 502 H 46.501 -4.66257 2.89647 0
M  V30 503 H 46.762 -4.25262 1.20849 0
M  V30 504 N 45.8211 -1.22559 -0.990812 0
M  V30 505 C 46.7311 -1.01394 -2.11557 0
M  V30 506 C 47.7471 0.0383962 -1.73958 0
M  V30 507 O 48.9231 -0.154787 -2.00804 0
M  V30 508 C 45.9881 -0.596569 -3.41529 0
M  V30 509 C 45.0491 -1.72276 -3.93217 0
M  V30 510 C 44.2821 -1.32521 -5.16985 0
M  V30 511 O 44.5051 -0.204909 -5.70032 0
M  V30 512 O 43.4391 -2.14247 -5.62478 0
M  V30 513 H 47.2651 -1.95633 -2.32296 0
M  V30 514 H 44.8501 -1.01172 -1.0993 0
M  V30 515 H 46.7321 -0.374263 -4.19735 0
M  V30 516 H 45.4071 0.316939 -3.22145 0
M  V30 517 H 44.3141 -1.99961 -3.16174 0
M  V30 518 H 45.6471 -2.61421 -4.17037 0
M  V30 519 N 47.2992 1.18797 -1.03562 0
M  V30 520 C 48.5462 1.8865 -0.736023 0
M  V30 521 C 48.8742 1.80041 0.735889 0
M  V30 522 O 48.1292 1.19179 1.55225 0
M  V30 523 C 48.4282 3.38692 -1.14117 0
M  V30 524 C 48.0942 3.67504 -2.6125 0
M  V30 525 C 46.7562 3.75078 -3.01447 0
M  V30 526 C 49.1082 3.80293 -3.56408 0
M  V30 527 C 46.4362 3.92915 -4.35701 0
M  V30 528 C 48.7882 3.99645 -4.90374 0
M  V30 529 C 47.4522 4.05453 -5.30249 0
M  V30 530 H 46.7222 0.690321 -0.26933 0
M  V30 531 H 49.3692 1.40641 -1.29971 0
M  V30 532 H 47.6742 3.88645 -0.496202 0
M  V30 533 H 49.3712 3.91072 -0.886789 0
M  V30 534 H 45.9612 3.62223 -2.29113 0
M  V30 535 H 50.1452 3.73779 -3.26501 0
M  V30 536 H 45.4012 3.95653 -4.66121 0
M  V30 537 H 49.5752 4.08482 -5.64017 0
M  V30 538 H 47.2022 4.19027 -6.34288 0
M  V30 539 N 48.7773 0.814389 1.34928 0
M  V30 540 C 50.0253 0.397636 1.9815 0
M  V30 541 C 50.3463 -1.04069 1.64908 0
M  V30 542 O 49.6163 -1.72121 0.93548 0
M  V30 543 H 48.1963 0.144043 0.732981 0
M  V30 544 H 50.8583 1.04195 1.6471 0
M  V30 545 H 49.9543 0.509688 3.0791 0
M  V30 546 N 50.2554 -1.46986 0.568584 0
M  V30 547 C 51.5324 -1.95592 -0.0174074 0
M  V30 548 C 51.9124 -1.51124 -1.47393 0
M  V30 549 O 51.2604 -0.755329 -2.15655 0
M  V30 550 C 51.4704 -3.48719 0.139913 0
M  V30 551 C 52.8184 -4.246 0.000426376 0
M  V30 552 O 53.8424 -3.56135 0.0680316 0
M  V30 553 O 52.7014 -5.46302 -0.146988 0
M  V30 554 H 49.7954 -0.82498 -0.0577599 0
M  V30 555 H 52.3414 -1.57335 0.635909 0
M  V30 556 H 51.1134 -3.73927 1.15301 0
M  V30 557 H 50.7364 -3.93771 -0.550491 0
M  V30 558 N 51.7335 -0.305618 -1.54608 0
M  V30 559 C 52.9615 0.304775 -2.04643 0
M  V30 560 C 53.3765 1.47167 -1.18268 0
M  V30 561 O 52.7335 1.81296 -0.209328 0
M  V30 562 C 52.7845 0.756564 -3.53495 0
M  V30 563 O 52.5055 -0.36389 -4.36586 0
M  V30 564 C 54.0065 1.43163 -4.19546 0
M  V30 565 H 51.2265 0.0655481 -0.667791 0
M  V30 566 H 53.7705 -0.446592 -1.99564 0
M  V30 567 H 51.9255 1.45794 -3.58919 0
M  V30 568 H 52.3395 -0.0113121 -5.24499 0
M  V30 569 H 53.8135 1.69886 -5.25207 0
M  V30 570 H 54.2905 2.37318 -3.69563 0
M  V30 571 H 54.8965 0.773307 -4.18211 0
M  V30 572 N 53.2116 1.57565 -0.0334293 0
M  V30 573 C 54.1586 2.10478 0.946981 0
M  V30 574 C 55.1286 1.00787 1.32027 0
M  V30 575 O 56.3136 1.28232 1.41284 0
M  V30 576 C 53.4536 2.63994 2.22263 0
M  V30 577 C 52.5666 3.87709 1.90541 0
M  V30 578 C 51.7016 4.29604 3.12433 0
M  V30 579 C 50.7406 5.46065 2.76549 0
M  V30 580 N 49.8776 5.83096 3.9108 0
M  V30 581 H 54.7176 2.93963 0.488846 0
M  V30 582 H 52.2546 1.45296 0.22969 0
M  V30 583 H 54.2126 2.93114 2.96884 0
M  V30 584 H 52.8426 1.83333 2.65685 0
M  V30 585 H 51.8946 3.65291 1.06144 0
M  V30 586 H 53.2066 4.72403 1.60116 0
M  V30 587 H 52.3606 4.60182 3.9537 0
M  V30 588 H 51.0996 3.43685 3.46023 0
M  V30 589 H 50.1046 5.15176 1.92026 0
M  V30 590 H 51.3296 6.33685 2.44171 0
M  V30 591 H 49.2756 5.00132 4.24504 0
M  V30 592 H 49.1926 6.6244 3.64293 0
M  V30 593 H 50.4606 6.18282 4.74708 0
M  V30 594 N 54.6897 -0.239769 1.55765 0
M  V30 595 C 55.9357 -0.968234 1.78194 0
M  V30 596 C 56.2687 -1.84701 0.599938 0
M  V30 597 O 55.5437 -1.9031 -0.401524 0
M  V30 598 C 55.8267 -1.8227 3.10564 0
M  V30 599 C 55.6797 -0.971633 4.3918 0
M  V30 600 C 56.9987 -2.80388 3.39221 0
M  V30 601 H 54.1177 -0.350572 0.648281 0
M  V30 602 H 56.7597 -0.238259 1.885 0
M  V30 603 H 54.9097 -2.44507 3.01908 0
M  V30 604 H 56.5817 -0.367408 4.59835 0
M  V30 605 H 54.8247 -0.276276 4.32919 0
M  V30 606 H 55.4957 -1.60346 5.28198 0
M  V30 607 H 57.9717 -2.28287 3.47885 0
M  V30 608 H 56.8477 -3.3729 4.33044 0
M  V30 609 H 57.1087 -3.57212 2.60484 0
M  V30 610 N 56.1678 -1.49265 -0.50573 0
M  V30 611 C 57.4168 -1.57761 -1.25675 0
M  V30 612 C 57.7298 -0.267371 -1.93764 0
M  V30 613 O 58.9358 -0.230827 -2.70517 0
M  V30 614 C 57.3918 -2.78332 -2.28165 0
M  V30 615 C 56.9998 -4.16096 -1.66037 0
M  V30 616 C 58.7438 -2.96155 -3.04125 0
M  V30 617 C 56.6508 -5.27895 -2.6661 0
M  V30 618 H 55.5808 -0.587391 -0.472745 0
M  V30 619 H 58.2318 -1.75644 -0.53118 0
M  V30 620 H 56.6138 -2.53934 -3.03865 0
M  V30 621 H 57.7878 -4.50612 -0.963622 0
M  V30 622 H 56.1028 -4.03591 -1.02484 0
M  V30 623 H 58.6998 -3.76849 -3.79327 0
M  V30 624 H 59.0428 -2.06534 -3.61455 0
M  V30 625 H 59.5758 -3.2057 -2.35541 0
M  V30 626 H 56.3148 -6.1956 -2.14068 0
M  V30 627 H 55.8348 -4.97839 -3.34539 0
M  V30 628 H 57.5138 -5.57031 -3.29129 0
M  V30 629 N 57.6459 0.756429 -1.3826 0
M  V30 630 C 58.8859 1.52833 -1.35725 0
M  V30 631 C 59.2499 1.91926 0.0534106 0
M  V30 632 O 60.4509 2.68028 0.203613 0
M  V30 633 C 58.7219 2.74919 -2.28373 0
M  V30 634 S 60.2809 3.64817 -2.43832 0
M  V30 635 H 57.0989 0.523043 -0.481608 0
M  V30 636 H 59.7009 0.888212 -1.74158 0
M  V30 637 H 58.4049 2.44304 -3.29763 0
M  V30 638 H 57.9359 3.43878 -1.91079 0
M  V30 639 H 59.9509 4.676 -1.66027 0
M  V30 640 N 59.124 1.23083 0.984299 0
M  V30 641 C 60.352 1.08714 1.76037 0
M  V30 642 C 60.767 -0.361691 1.85303 0
M  V30 643 O 60.124 -1.25034 1.32939 0
M  V30 644 C 60.175 1.70206 3.18923 0
M  V30 645 O 59.896 3.09423 3.10144 0
M  V30 646 C 61.397 1.61227 4.12941 0
M  V30 647 H 58.617 0.380664 0.552572 0
M  V30 648 H 61.161 1.62853 1.23689 0
M  V30 649 H 59.316 1.20109 3.6831 0
M  V30 650 H 59.73 3.39188 4.00065 0
M  V30 651 H 61.204 2.08962 5.10919 0
M  V30 652 H 61.681 0.570375 4.35481 0
M  V30 653 H 62.287 2.10671 3.69456 0
M  V30 654 N 60.6021 -1.18246 1.0419 0
M  V30 655 C 61.8481 -1.88536 0.747122 0
M  V30 656 C 62.1811 -1.80223 -0.723409 0
M  V30 657 O 61.4561 -1.20337 -1.52804 0
M  V30 658 C 61.7391 -3.38968 1.21544 0
M  V30 659 C 61.5921 -3.56084 2.74816 0
M  V30 660 C 62.9111 -4.32648 0.806482 0
M  V30 661 H 60.0301 -0.684619 0.272883 0
M  V30 662 H 62.6721 -1.39113 1.29413 0
M  V30 663 H 60.8221 -3.8119 0.750081 0
M  V30 664 H 62.4941 -3.22946 3.29399 0
M  V30 665 H 60.7371 -2.98699 3.14582 0
M  V30 666 H 61.4081 -4.61639 3.02644 0
M  V30 667 H 63.8841 -3.98211 1.20695 0
M  V30 668 H 62.7601 -5.36462 1.1619 0
M  V30 669 H 63.0211 -4.41146 -0.29029 0
M  V30 670 N 62.0802 -0.821533 -1.34494 0
M  V30 671 C 63.3052 -0.420873 -2.03085 0
M  V30 672 C 63.7302 0.964915 -1.61465 0
M  V30 673 O 63.0882 1.62763 -0.798607 0
M  V30 674 C 63.1362 -0.529414 -3.56693 0
M  V30 675 O 62.2402 0.451302 -4.09923 0
M  V30 676 H 61.5812 -0.173489 -0.640935 0
M  V30 677 H 64.1112 -1.11157 -1.71771 0
M  V30 678 H 64.1212 -0.404671 -4.05988 0
M  V30 679 H 62.7962 -1.54014 -3.86332 0
M  V30 680 H 61.3732 0.285558 -3.71805 0
M  V30 681 N 63.5583 1.46682 -0.576371 0
M  V30 682 C 64.5213 2.28707 0.150239 0
M  V30 683 C 65.5213 1.38035 0.824794 0
M  V30 684 O 66.7113 1.60476 0.677719 0
M  V30 685 C 63.8433 3.18248 1.22192 0
M  V30 686 H 65.0363 2.94423 -0.570521 0
M  V30 687 H 62.5893 1.52688 -0.334078 0
M  V30 688 H 63.3243 2.57265 1.97447 0
M  V30 689 H 63.1093 3.85 0.742812 0
M  V30 690 H 64.5993 3.80001 1.73172 0
M  V30 691 N 65.0364 0.313813 1.54444 0
M  V30 692 C 65.9464 -0.565714 2.27677 0
M  V30 693 C 66.9624 -1.13754 1.31666 0
M  V30 694 O 68.1384 -1.15959 1.64668 0
M  V30 695 C 65.2034 -1.71528 3.01296 0
M  V30 696 C 64.2644 -1.17624 4.12872 0
M  V30 697 C 63.4974 -2.27102 4.8297 0
M  V30 698 O 63.7204 -3.47256 4.52514 0
M  V30 699 O 62.6544 -1.9307 5.70094 0
M  V30 700 H 66.4804 0.0287296 3.03686 0
M  V30 701 H 64.0654 0.0798312 1.49187 0
M  V30 702 H 65.9474 -2.38476 3.4743 0
M  V30 703 H 64.6224 -2.29608 2.2817 0
M  V30 704 H 63.5294 -0.472124 3.71109 0
M  V30 705 H 64.8624 -0.640695 4.88012 0
M  V30 706 N 66.5145 -1.57545 0.0417849 0
M  V30 707 C 67.7395 -1.97035 -0.647455 0
M  V30 708 C 68.1645 -0.918775 -1.64135 0
M  V30 709 O 67.5225 0.119006 -1.80909 0
M  V30 710 C 67.5705 -3.35609 -1.31905 0
M  V30 711 O 66.6745 -3.3287 -2.43457 0
M  V30 712 H 66.0155 -0.64211 -0.169086 0
M  V30 713 H 68.5455 -2.04318 0.107399 0
M  V30 714 H 68.5555 -3.72126 -1.67291 0
M  V30 715 H 67.2305 -4.11685 -0.590586 0
M  V30 716 H 65.8075 -3.08087 -2.10088 0
M  V30 717 N 67.9926 0.231505 -1.5589 0
M  V30 718 C 69.2406 0.955461 -1.78088 0
M  V30 719 C 69.5616 1.85262 -0.608533 0
M  V30 720 O 68.8316 1.92277 0.375035 0
M  V30 721 H 67.4116 0.355787 -0.656829 0
M  V30 722 H 70.0736 0.245751 -1.93344 0
M  V30 723 H 69.1696 1.56814 -2.69844 0
M  V30 724 N 69.4707 1.49531 0.497807 0
M  V30 725 C 70.7167 1.59415 1.25358 0
M  V30 726 C 71.0497 0.281422 1.9215 0
M  V30 727 O 70.3247 -0.715249 1.80871 0
M  V30 728 C 70.6077 2.75566 2.3181 0
M  V30 729 C 70.4607 4.16642 1.69498 0
M  V30 730 C 71.7797 2.87347 3.33346 0
M  V30 731 H 68.8987 0.580244 0.454408 0
M  V30 732 H 71.5407 1.81827 0.551262 0
M  V30 733 H 69.6907 2.56587 2.91711 0
M  V30 734 H 71.3627 4.47145 1.13399 0
M  V30 735 H 69.6057 4.22141 0.998978 0
M  V30 736 H 70.2767 4.93792 2.46725 0
M  V30 737 H 72.7527 3.04634 2.83438 0
M  V30 738 H 71.6287 3.70289 4.05188 0
M  V30 739 H 71.8897 1.96834 3.95865 0
M  V30 740 N 70.9488 -0.749086 1.3866 0
M  V30 741 C 72.3598 -1.32664 1.31366 0
M  V30 742 C 72.7108 -1.96179 -0.028484 0
M  V30 743 O 71.8358 -1.9537 -0.93057 0
M  V30 744 C 72.4308 -2.41219 2.37905 0
M  V30 745 C 70.9898 -2.94684 2.34176 0
M  V30 746 C 70.1368 -1.68108 2.20533 0
M  V30 747 H 73.0878 -0.547628 1.48952 0
M  V30 748 H 73.1088 -3.21268 2.0388 0
M  V30 749 H 72.6208 -1.94962 3.35576 0
M  V30 750 H 70.7218 -3.45258 1.401 0
M  V30 751 H 70.8348 -3.48757 3.2849 0
M  V30 752 H 69.1988 -1.91907 1.67463 0
M  V30 753 H 69.9818 -1.23923 3.20153 0
M  V30 754 N 72.4269 -1.23603 -0.977757 0
M  V30 755 C 73.8429 -0.999251 -1.24447 0
M  V30 756 C 74.0429 0.298053 -1.99283 0
M  V30 757 O 73.0989 1.01681 -2.31122 0
M  V30 758 C 74.4119 -2.20784 -2.04144 0
M  V30 759 C 75.9599 -2.25303 -2.17273 0
M  V30 760 C 76.4349 -3.45755 -3.00362 0
M  V30 761 N 77.9259 -3.4601 -3.07947 0
M  V30 762 C 78.6609 -4.35868 -3.72568 0
M  V30 763 N 78.1569 -5.35966 -4.38991 0
M  V30 764 N 79.9499 -4.23605 -3.6948 0
M  V30 765 H 72.1009 -2.06986 -0.476483 0
M  V30 766 H 74.3639 -0.907801 -0.273134 0
M  V30 767 H 74.0699 -3.14945 -1.56533 0
M  V30 768 H 73.9439 -2.22085 -3.04891 0
M  V30 769 H 76.3309 -1.3168 -2.64092 0
M  V30 770 H 76.4119 -2.28033 -1.15907 0
M  V30 771 H 76.0559 -4.39687 -2.5424 0
M  V30 772 H 75.9859 -3.40266 -4.01904 0
M  V30 773 H 78.4769 -2.73588 -2.60688 0
M  V30 774 H 78.7899 -6.00783 -4.86086 0
M  V30 775 H 77.1349 -5.39863 -4.37691 0
M  V30 776 H 80.3259 -3.44647 -3.16759 0
M  V30 777 H 80.4989 -4.93836 -4.1956 0
M  V30 778 N 73.905 1.17692 -1.04816 0
M  V30 779 C 75.152 1.87859 -0.75599 0
M  V30 780 C 75.48 1.80812 0.716752 0
M  V30 781 O 74.735 1.20819 1.53952 0
M  V30 782 C 75.034 3.37462 -1.17703 0
M  V30 783 C 74.7 3.64713 -2.65133 0
M  V30 784 C 73.362 3.71859 -3.05408 0
M  V30 785 C 75.714 3.76492 -3.60421 0
M  V30 786 C 73.042 3.88271 -4.39843 0
M  V30 787 C 75.394 3.94421 -4.94585 0
M  V30 788 C 74.058 3.99806 -5.3452 0
M  V30 789 H 73.328 0.687425 -0.276636 0
M  V30 790 H 75.975 1.39255 -1.31455 0
M  V30 791 H 74.28 3.88097 -0.537395 0
M  V30 792 H 75.977 3.90109 -0.928218 0
M  V30 793 H 72.567 3.59772 -2.32942 0
M  V30 794 H 76.751 3.70295 -3.30447 0
M  V30 795 H 72.007 3.90687 -4.70291 0
M  V30 796 H 76.181 4.02477 -5.68318 0
M  V30 797 H 73.808 4.12276 -6.38696 0
M  V30 798 N 75.3831 0.828654 1.34056 0
M  V30 799 C 76.3131 0.269443 2.3194 0
M  V30 800 C 77.2941 -0.617247 1.58506 0
M  V30 801 O 78.4791 -0.542931 1.86456 0
M  V30 802 C 75.6091 -0.564793 3.42677 0
M  V30 803 C 74.5631 0.225241 4.27407 0
M  V30 804 C 73.8891 -0.7321 5.29664 0
M  V30 805 C 75.1891 1.43663 5.02154 0
M  V30 806 H 76.8831 1.08728 2.7896 0
M  V30 807 H 74.4291 0.524283 1.34117 0
M  V30 808 H 76.3821 -0.966233 4.10173 0
M  V30 809 H 75.1061 -1.41574 2.9432 0
M  V30 810 H 73.7651 0.608117 3.61521 0
M  V30 811 H 73.4131 -1.57916 4.77568 0
M  V30 812 H 73.1131 -0.20767 5.87233 0
M  V30 813 H 74.6371 -1.13128 6.00029 0
M  V30 814 H 76.0511 1.1089 5.62473 0
M  V30 815 H 74.4481 1.89711 5.69324 0
M  V30 816 H 75.5181 2.21181 4.31517 0
M  V30 817 N 76.8612 -1.46375 0.584142 0
M  V30 818 C 77.8082 -2.30323 -0.148286 0
M  V30 819 C 78.7782 -1.40703 -0.882713 0
M  V30 820 O 79.9632 -1.69651 -0.873099 0
M  V30 821 C 77.1032 -3.25196 -1.15507 0
M  V30 822 C 76.2162 -4.29915 -0.423943 0
M  V30 823 C 75.3512 -5.11914 -1.41838 0
M  V30 824 C 74.3902 -6.08381 -0.673736 0
M  V30 825 N 73.5272 -6.83242 -1.6163 0
M  V30 826 H 78.3672 -2.92427 0.573644 0
M  V30 827 H 75.9042 -1.44118 0.294703 0
M  V30 828 H 77.8622 -3.78646 -1.75166 0
M  V30 829 H 76.4922 -2.64898 -1.8447 0
M  V30 830 H 75.5442 -3.7931 0.287714 0
M  V30 831 H 76.8562 -4.98549 0.158128 0
M  V30 832 H 76.0102 -5.69648 -2.08773 0
M  V30 833 H 74.7492 -4.43243 -2.03438 0
M  V30 834 H 73.7542 -5.49799 0.00938483 0
M  V30 835 H 74.9792 -6.79071 -0.0631082 0
M  V30 836 H 72.9252 -6.1728 -2.22038 0
M  V30 837 H 72.8422 -7.48144 -1.08707 0
M  V30 838 H 74.1102 -7.45534 -2.27596 0
M  V30 839 N 78.3393 -0.321999 -1.54275 0
M  V30 840 C 79.5873 0.280489 -2.00144 0
M  V30 841 C 79.9083 1.52777 -1.21178 0
M  V30 842 O 79.1783 1.9338 -0.313187 0
M  V30 843 H 77.7583 0.106632 -0.73935 0
M  V30 844 H 80.4203 -0.438184 -1.8991 0
M  V30 845 H 79.5163 0.537972 -3.07428 0
M  V30 846 N 79.8174 1.5752 -0.0501392 0
M  V30 847 C 80.7494 2.08413 0.95376 0
M  V30 848 C 81.7624 1.01175 1.27544 0
M  V30 849 O 82.9514 1.28744 1.23641 0
M  V30 850 C 80.0514 2.51138 2.27559 0
M  V30 851 C 79.2244 3.817 2.13598 0
M  V30 852 C 78.2834 4.10749 3.28895 0
M  V30 853 O 77.3094 4.80685 3.04845 0
M  V30 854 N 78.5114 3.62579 4.5334 0
M  V30 855 H 81.2764 2.95165 0.519383 0
M  V30 856 H 78.8374 1.61327 0.136127 0
M  V30 857 H 80.8294 2.67648 3.03557 0
M  V30 858 H 79.3994 1.6964 2.62567 0
M  V30 859 H 78.6194 3.74782 1.22197 0
M  V30 860 H 79.9074 4.67201 2.01496 0
M  V30 861 H 79.3054 3.06039 4.75769 0
M  V30 862 H 77.8624 3.84329 5.26436 0
M  V30 863 N 81.2955 -0.223234 1.56011 0
M  V30 864 C 82.5435 -0.946003 1.78592 0
M  V30 865 C 82.8645 -1.84936 0.618349 0
M  V30 866 O 82.1345 -1.92473 -0.364833 0
M  V30 867 H 80.7145 -0.352298 0.658707 0
M  V30 868 H 83.3765 -0.235494 1.93472 0
M  V30 869 H 82.4725 -1.55381 2.70672 0
M  V30 870 N 82.7736 -1.49793 -0.48987 0
M  V30 871 C 83.7056 -1.63413 -1.60713 0
M  V30 872 C 84.7186 -0.516329 -1.54395 0
M  V30 873 O 85.9076 -0.788812 -1.60125 0
M  V30 874 C 83.0076 -1.58516 -2.99543 0
M  V30 875 C 82.1806 -2.86016 -3.30928 0
M  V30 876 C 81.2396 -2.74018 -4.49222 0
M  V30 877 O 80.2656 -3.47964 -4.50455 0
M  V30 878 N 81.4676 -1.86309 -5.4979 0
M  V30 879 H 84.2326 -2.59777 -1.49452 0
M  V30 880 H 81.7936 -1.47022 -0.677955 0
M  V30 881 H 83.7856 -1.48128 -3.76617 0
M  V30 882 H 82.3556 -0.69965 -3.0467 0
M  V30 883 H 81.5756 -3.10672 -2.42645 0
M  V30 884 H 82.8636 -3.70521 -3.487 0
M  V30 885 H 82.2616 -1.2551 -5.51601 0
M  V30 886 H 80.8186 -1.81837 -6.25922 0
M  V30 887 N 84.2517 0.741722 -1.39055 0
M  V30 888 C 85.4997 1.49818 -1.35643 0
M  V30 889 C 85.8207 1.94938 0.0491642 0
M  V30 890 O 85.0907 1.68505 0.999141 0
M  V30 891 H 83.6707 0.555755 -0.499144 0
M  V30 892 H 86.3327 0.880957 -1.73854 0
M  V30 893 H 85.4287 2.38348 -2.01486 0
M  V30 894 N 85.7298 1.2412 0.971189 0
M  V30 895 C 86.9758 1.09048 1.71698 0
M  V30 896 C 87.3308 -0.367442 1.88859 0
M  V30 897 O 86.6238 -1.26792 1.43646 0
M  V30 898 C 86.8178 1.75983 3.11071 0
M  V30 899 C 86.6468 3.28133 3.07504 0
M  V30 900 C 85.4168 3.97331 3.1218 0
M  V30 901 C 87.6148 4.24773 2.89952 0
M  V30 902 N 85.5968 5.3639 2.98596 0
M  V30 903 C 86.9678 5.50806 2.84627 0
M  V30 904 C 89.0228 4.15392 2.74506 0
M  V30 905 C 87.7258 6.68533 2.65437 0
M  V30 906 C 89.7518 5.32793 2.56682 0
M  V30 907 C 89.1138 6.57756 2.52063 0
M  V30 908 H 85.2128 0.453632 0.636979 0
M  V30 909 H 87.7968 1.56983 1.15171 0
M  V30 910 H 85.9678 1.30566 3.65796 0
M  V30 911 H 87.6998 1.53803 3.74335 0
M  V30 912 H 84.4548 3.48473 3.20724 0
M  V30 913 H 84.8788 6.09321 2.95054 0
M  V30 914 H 89.5208 3.19543 2.76861 0
M  V30 915 H 87.2388 7.64509 2.61825 0
M  V30 916 H 90.8248 5.27383 2.4568 0
M  V30 917 H 89.7048 7.4707 2.38446 0
M  V30 918 N 87.2079 -1.17134 1.05439 0
M  V30 919 C 88.1379 -2.2342 0.678649 0
M  V30 920 C 89.1189 -1.66971 -0.32476 0
M  V30 921 O 90.3039 -1.93149 -0.201802 0
M  V30 922 C 87.4339 -3.47256 0.0552099 0
M  V30 923 C 86.3879 -4.16543 0.98365 0
M  V30 924 C 85.7139 -5.34231 0.223961 0
M  V30 925 C 87.0139 -4.68495 2.3089 0
M  V30 926 H 88.7079 -2.55105 1.56722 0
M  V30 927 H 86.2539 -1.2262 0.754998 0
M  V30 928 H 88.2069 -4.20828 -0.21946 0
M  V30 929 H 86.9309 -3.14846 -0.868319 0
M  V30 930 H 85.5899 -3.44887 1.24293 0
M  V30 931 H 85.2379 -4.98071 -0.702412 0
M  V30 932 H 84.9379 -5.81527 0.842627 0
M  V30 933 H 86.4619 -6.10585 -0.0433671 0
M  V30 934 H 87.8759 -5.33691 2.09396 0
M  V30 935 H 86.2729 -5.26379 2.88176 0
M  V30 936 H 87.3429 -3.85169 2.94572 0
M  V30 937 N 88.686 -0.835752 -1.33615 0
M  V30 938 C 89.914 -0.443344 -2.02094 0
M  V30 939 C 90.329 0.954522 -1.62894 0
M  V30 940 O 89.686 1.61982 -0.840723 0
M  V30 941 C 89.737 -0.550775 -3.5728 0
M  V30 942 O 89.458 -1.89356 -3.95065 0
M  V30 943 C 90.959 -0.154919 -4.43029 0
M  V30 944 H 88.179 -0.176359 -0.647409 0
M  V30 945 H 90.723 -1.12746 -1.70612 0
M  V30 946 H 88.878 0.0853997 -3.87306 0
M  V30 947 H 89.292 -1.87687 -4.89769 0
M  V30 948 H 90.766 -0.281144 -5.51284 0
M  V30 949 H 91.243 0.902863 -4.2982 0
M  V30 950 H 91.849 -0.765404 -4.18356 0
M  V30 951 N 90.1641 1.46063 -0.591896 0
M  V30 952 C 91.1271 2.28854 0.125973 0
M  V30 953 C 92.1271 1.38903 0.810107 0
M  V30 954 O 93.3171 1.61186 0.66066 0
M  V30 955 C 90.4491 3.19526 1.1881 0
M  V30 956 H 91.6421 2.93802 -0.601717 0
M  V30 957 H 89.1951 1.52325 -0.350254 0
M  V30 958 H 89.9301 2.59345 1.94707 0
M  V30 959 H 89.7151 3.85766 0.701936 0
M  V30 960 H 91.2051 3.81817 1.69132 0
M  V30 961 N 91.6422 0.330177 1.54103 0
M  V30 962 C 92.5522 -0.541534 2.28264 0
M  V30 963 C 93.5682 -1.12351 1.32866 0
M  V30 964 O 94.7442 -1.14206 1.65888 0
M  V30 965 C 91.8092 -1.68322 3.03098 0
M  V30 966 C 90.8702 -1.13238 4.14096 0
M  V30 967 C 90.1032 -2.21966 4.85352 0
M  V30 968 O 90.3262 -3.42437 4.56172 0
M  V30 969 O 89.2602 -1.87013 5.7211 0
M  V30 970 H 93.0862 0.060938 3.03639 0
M  V30 971 H 90.6712 0.09565 1.49093 0
M  V30 972 H 92.5532 -2.34777 3.49939 0
M  V30 973 H 91.2282 -2.27176 2.30593 0
M  V30 974 H 90.1352 -0.432736 3.71589 0
M  V30 975 H 91.4682 -0.588898 4.88664 0
M  V30 976 N 93.1203 -1.57491 0.0584922 0
M  V30 977 C 94.3503 -1.9701 -0.622134 0
M  V30 978 C 94.7583 -0.935034 -1.6448 0
M  V30 979 O 94.1013 0.0882904 -1.83488 0
M  V30 980 C 94.1633 -3.32794 -1.35972 0
M  V30 981 C 93.8273 -4.54343 -0.492043 0
M  V30 982 C 94.8243 -5.19323 0.244901 0
M  V30 983 C 92.5093 -5.00534 -0.420821 0
M  V30 984 C 94.5033 -6.28835 1.04143 0
M  V30 985 C 92.1903 -6.09921 0.379389 0
M  V30 986 C 93.1883 -6.73933 1.10919 0
M  V30 987 O 92.8763 -7.81216 1.89623 0
M  V30 988 H 92.6083 -0.653127 -0.174359 0
M  V30 989 H 95.1623 -2.05029 0.123418 0
M  V30 990 H 93.3923 -3.21351 -2.15105 0
M  V30 991 H 95.0813 -3.5701 -1.93129 0
M  V30 992 H 95.8473 -4.8459 0.19939 0
M  V30 993 H 91.7263 -4.50496 -0.978474 0
M  V30 994 H 95.2703 -6.7873 1.61157 0
M  V30 995 H 91.1673 -6.44089 0.426512 0
M  V30 996 H 91.9353 -7.98029 1.81913 0
M  V30 997 N 94.5984 0.214957 -1.56127 0
M  V30 998 C 95.8464 0.936518 -1.79091 0
M  V30 999 C 96.1674 1.84606 -0.628148 0
M  V30 1000 O 95.4374 1.92664 0.35462 0
M  V30 1001 H 94.0174 0.3488 -0.660566 0
M  V30 1002 H 96.6794 0.22523 -1.93594 0
M  V30 1003 H 95.7754 1.53943 -2.71492 0
M  V30 1004 N 96.0765 1.50051 0.48192 0
M  V30 1005 C 97.0095 1.62749 1.59963 0
M  V30 1006 C 97.9875 0.475903 1.5548 0
M  V30 1007 O 99.1715 0.693986 1.7526 0
M  V30 1008 C 96.2985 1.60008 2.98522 0
M  V30 1009 C 95.3445 2.80596 3.21198 0
M  V30 1010 S 96.1775 4.42038 3.02262 0
M  V30 1011 C 97.3335 4.41973 4.43182 0
M  V30 1012 H 97.5665 2.57296 1.4895 0
M  V30 1013 H 95.0995 1.39179 0.668477 0
M  V30 1014 H 97.0575 1.59112 3.78409 0
M  V30 1015 H 95.7185 0.667153 3.06933 0
M  V30 1016 H 94.9115 2.74952 4.22395 0
M  V30 1017 H 94.5135 2.79003 2.49065 0
M  V30 1018 H 96.8055 4.14868 5.35622 0
M  V30 1019 H 97.7485 5.43512 4.53873 0
M  V30 1020 H 98.1565 3.71812 4.24755 0
M  V30 1021 N 97.5546 -0.734337 1.39446 0
M  V30 1022 C 98.4846 -1.86155 1.40955 0
M  V30 1023 C 99.4656 -1.67898 0.272827 0
M  V30 1024 O 100.651 -1.88207 0.478743 0
M  V30 1025 C 97.7806 -3.23912 1.25294 0
M  V30 1026 C 96.7346 -3.56808 2.36373 0
M  V30 1027 C 96.0606 -4.93508 2.058 0
M  V30 1028 C 97.3606 -3.59713 3.78687 0
M  V30 1029 H 99.0546 -1.8515 2.35287 0
M  V30 1030 H 96.6006 -0.889367 1.13253 0
M  V30 1031 H 98.5536 -4.02443 1.2497 0
M  V30 1032 H 97.2776 -3.25446 0.274308 0
M  V30 1033 H 95.9366 -2.80606 2.35914 0
M  V30 1034 H 95.5846 -4.91623 1.06374 0
M  V30 1035 H 95.2846 -5.16486 2.80208 0
M  V30 1036 H 96.8086 -5.74396 2.07128 0
M  V30 1037 H 98.2226 -4.2832 3.81071 0
M  V30 1038 H 96.6196 -3.94209 4.52459 0
M  V30 1039 H 97.6896 -2.59504 4.09617 0
M  V30 1040 N 99.0327 -1.24633 -0.964593 0
M  V30 1041 C 100.444 -1.08045 -1.5226 0
M  V30 1042 C 100.795 0.347116 -1.93105 0
M  V30 1043 O 99.9197 1.23588 -1.77637 0
M  V30 1044 C 100.515 -1.95514 -2.76695 0
M  V30 1045 C 99.0737 -1.8314 -3.28841 0
M  V30 1046 C 98.2207 -1.90262 -2.01732 0
M  V30 1047 H 101.172 -1.38064 -0.782553 0
M  V30 1048 H 101.193 -1.48925 -3.50145 0
M  V30 1049 H 100.705 -2.99407 -2.46936 0
M  V30 1050 H 98.8057 -0.82092 -3.63444 0
M  V30 1051 H 98.9187 -2.67406 -3.97531 0
M  V30 1052 H 97.2827 -1.34027 -2.16584 0
M  V30 1053 H 98.0657 -2.9574 -1.74334 0
M  V30 1054 N 100.511 1.16574 -1.06058 0
M  V30 1055 C 101.927 1.3904 -0.783585 0
M  V30 1056 C 102.127 1.91784 0.618145 0
M  V30 1057 O 101.183 2.11511 1.37911 0
M  V30 1058 C 102.496 2.37329 -1.84649 0
M  V30 1059 C 104.044 2.51018 -1.86973 0
M  V30 1060 C 104.519 3.52588 -2.92311 0
M  V30 1061 N 106.01 3.60113 -2.91329 0
M  V30 1062 C 106.745 4.38486 -3.69482 0
M  V30 1063 N 106.241 5.20302 -4.57447 0
M  V30 1064 N 108.034 4.33446 -3.57885 0
M  V30 1065 H 100.185 0.806725 -1.96483 0
M  V30 1066 H 102.448 0.417117 -0.851303 0
M  V30 1067 H 102.154 2.05663 -2.85299 0
M  V30 1068 H 102.028 3.36946 -1.6955 0
M  V30 1069 H 104.415 2.81989 -0.869827 0
M  V30 1070 H 104.496 1.51445 -2.0615 0
M  V30 1071 H 104.14 3.22354 -3.92492 0
M  V30 1072 H 104.07 4.51886 -2.70383 0
M  V30 1073 H 106.561 3.01707 -2.27555 0
M  V30 1074 H 106.874 5.77311 -5.13743 0
M  V30 1075 H 105.219 5.19653 -4.61503 0
M  V30 1076 H 108.41 3.68586 -2.88551 0
M  V30 1077 H 108.583 4.94279 -4.19037 0
M  V30 1078 N 101.989 0.842826 1.3317 0
M  V30 1079 C 103.214 0.453129 2.02389 0
M  V30 1080 C 103.639 -0.939105 1.6298 0
M  V30 1081 O 102.997 -1.61472 0.8244 0
M  V30 1082 C 103.045 0.586094 3.55805 0
M  V30 1083 O 102.149 -0.386029 4.10589 0
M  V30 1084 H 101.49 0.183664 0.638094 0
M  V30 1085 H 104.02 1.13875 1.69981 0
M  V30 1086 H 104.03 0.469209 4.05293 0
M  V30 1087 H 102.705 1.6014 3.83833 0
M  V30 1088 H 101.282 -0.226371 3.72212 0
M  V30 1089 N 103.467 -1.45747 0.599634 0
M  V30 1090 C 104.695 -2.06668 0.0978551 0
M  V30 1091 C 105.11 -1.44562 -1.21439 0
M  V30 1092 O 104.467 -0.556923 -1.73795 0
M  V30 1093 C 104.518 -3.61456 -0.0567044 0
M  V30 1094 O 104.239 -4.21242 1.20361 0
M  V30 1095 C 105.74 -4.39345 -0.590869 0
M  V30 1096 H 102.96 -0.667825 0.0651943 0
M  V30 1097 H 105.504 -1.87115 0.82511 0
M  V30 1098 H 103.659 -3.80378 -0.734251 0
M  V30 1099 H 104.073 -5.14323 1.02821 0
M  V30 1100 H 105.547 -5.48182 -0.648131 0
M  V30 1101 H 106.024 -4.08568 -1.61147 0
M  V30 1102 H 106.63 -4.25268 0.0523679 0
M  V30 1103 N 104.945 -0.338344 -1.53925 0
M  V30 1104 C 106.193 0.259245 -2.0043 0
M  V30 1105 C 106.514 1.51484 -1.22791 0
M  V30 1106 O 105.784 1.93037 -0.33368 0
M  V30 1107 H 104.364 0.0987845 -0.740439 0
M  V30 1108 H 107.026 -0.458302 -1.89435 0
M  V30 1109 H 106.122 0.505334 -3.07982 0
M  V30 1110 N 106.423 1.57458 -0.0668435 0
M  V30 1111 C 107.333 2.15937 0.916975 0
M  V30 1112 C 108.349 1.12123 1.33058 0
M  V30 1113 O 109.525 1.44366 1.40429 0
M  V30 1114 C 106.59 2.70547 2.16807 0
M  V30 1115 C 105.651 3.89215 1.81135 0
M  V30 1116 C 104.884 4.41211 3.0028 0
M  V30 1117 O 105.107 3.92225 4.14144 0
M  V30 1118 O 104.041 5.32605 2.80384 0
M  V30 1119 H 107.867 3.00354 0.449561 0
M  V30 1120 H 105.452 1.48584 0.155949 0
M  V30 1121 H 107.334 3.0557 2.90181 0
M  V30 1122 H 106.009 1.89192 2.62656 0
M  V30 1123 H 104.916 3.59054 1.05028 0
M  V30 1124 H 106.249 4.71848 1.40073 0
M  V30 1125 N 107.901 -0.206675 1.56239 0
M  V30 1126 C 109.317 -0.557025 1.49564 0
M  V30 1127 C 109.517 -1.86424 0.764735 0
M  V30 1128 O 108.573 -2.50584 0.310491 0
M  V30 1129 C 109.886 -0.622478 2.94186 0
M  V30 1130 C 111.434 -0.712099 3.04792 0
M  V30 1131 C 111.909 -0.808767 4.50803 0
M  V30 1132 N 113.4 -0.8726 4.54907 0
M  V30 1133 C 114.135 -0.967365 5.65181 0
M  V30 1134 N 113.631 -1.02515 6.85173 0
M  V30 1135 N 115.424 -1.00366 5.53067 0
M  V30 1136 H 107.575 0.650943 2.02179 0
M  V30 1137 H 109.838 0.230387 0.919579 0
M  V30 1138 H 109.544 0.268727 3.50672 0
M  V30 1139 H 109.418 -1.4811 3.46905 0
M  V30 1140 H 111.805 -1.59374 2.48363 0
M  V30 1141 H 111.886 0.172489 2.55218 0
M  V30 1142 H 111.53 0.0684754 5.07854 0
M  V30 1143 H 111.46 -1.70899 4.98098 0
M  V30 1144 H 113.951 -0.837657 3.68499 0
M  V30 1145 H 114.264 -1.09765 7.64965 0
M  V30 1146 H 112.609 -0.994026 6.87855 0
M  V30 1147 H 115.8 -0.95527 4.58249 0
M  V30 1148 H 115.973 -1.07405 6.39037 0
M  V30 1149 N 109.379 -1.50304 -0.473955 0
M  V30 1150 C 110.327 -1.69482 -1.59307 0
M  V30 1151 C 111.321 -0.560669 -1.59853 0
M  V30 1152 O 112.527 -0.741087 -1.64036 0
M  V30 1153 H 108.902 -0.534892 -0.528578 0
M  V30 1154 H 110.873 -2.63364 -1.40293 0
M  V30 1155 C 109.622 -1.80354 -2.97267 0
M  V30 1156 H 108.945 -2.67012 -2.97564 0
M  V30 1157 H 110.385 -1.97798 -3.75036 0
M  V30 1158 C 108.844 -0.55448 -3.32306 0
M  V30 1159 O 109.374 0.307661 -4.0052 0
M  V30 1160 N 107.58 -0.409354 -2.87702 0
M  V30 1161 H 107.127 -1.11196 -2.32364 0
M  V30 1162 H 107.085 0.425223 -3.11511 0
M  V30 1163 N 110.857 0.726932 -1.39834 0
M  V30 1164 C 111.789 1.85147 -1.35104 0
M  V30 1165 C 112.802 1.60736 -0.258392 0
M  V30 1166 O 113.991 1.70821 -0.517931 0
M  V30 1167 C 111.091 3.21332 -1.07697 0
M  V30 1168 C 110.264 3.73033 -2.28396 0
M  V30 1169 C 109.323 4.87802 -1.97322 0
M  V30 1170 O 108.349 5.01043 -2.70083 0
M  V30 1171 N 109.551 5.72768 -0.944273 0
M  V30 1172 H 112.316 1.89706 -2.32017 0
M  V30 1173 H 109.877 0.908006 -1.3404 0
M  V30 1174 H 111.869 3.95691 -0.849144 0
M  V30 1175 H 110.439 3.11992 -0.194909 0
M  V30 1176 H 109.659 2.89934 -2.6708 0
M  V30 1177 H 110.947 4.0431 -3.08887 0
M  V30 1178 H 110.345 5.64669 -0.341427 0
M  V30 1179 H 108.902 6.4716 -0.776346 0
M  V30 1180 N 112.336 1.25143 0.95797 0
M  V30 1181 C 113.752 1.01892 1.22842 0
M  V30 1182 C 113.952 -0.266311 1.99732 0
M  V30 1183 O 113.008 -0.979913 2.3271 0
M  V30 1184 C 114.321 2.24004 2.00606 0
M  V30 1185 C 115.869 2.28731 2.13662 0
M  V30 1186 C 116.344 3.5049 2.94823 0
M  V30 1187 N 117.835 3.50866 3.02403 0
M  V30 1188 C 118.57 4.4174 3.65586 0
M  V30 1189 N 118.066 5.42882 4.30408 0
M  V30 1190 N 119.859 4.29429 3.62694 0
M  V30 1191 H 112.01 2.07718 0.443493 0
M  V30 1192 H 114.273 0.912031 0.258657 0
M  V30 1193 H 113.979 3.17395 1.51503 0
M  V30 1194 H 113.853 2.26907 3.01319 0
M  V30 1195 H 116.24 1.35865 2.61963 0
M  V30 1196 H 116.321 2.29848 1.12265 0
M  V30 1197 H 115.965 4.43676 2.47213 0
M  V30 1198 H 115.895 3.46617 3.96439 0
M  V30 1199 H 118.386 2.777 2.56302 0
M  V30 1200 H 118.699 6.0844 4.76467 0
M  V30 1201 H 117.044 5.46758 4.29047 0
M  V30 1202 H 120.235 3.49643 3.11236 0
M  V30 1203 H 120.408 5.00448 4.1165 0
M  V30 1204 N 113.814 -1.1601 1.06675 0
M  V30 1205 C 114.724 -2.24156 0.692179 0
M  V30 1206 C 115.74 -1.71507 -0.293513 0
M  V30 1207 O 116.916 -2.009 -0.141861 0
M  V30 1208 C 113.981 -3.46587 0.0884131 0
M  V30 1209 C 113.042 -4.14257 1.12646 0
M  V30 1210 C 112.275 -5.30844 0.551416 0
M  V30 1211 O 112.498 -5.66858 -0.634656 0
M  V30 1212 O 111.432 -5.87848 1.29298 0
M  V30 1213 H 115.258 -2.58513 1.59388 0
M  V30 1214 H 112.843 -1.23599 0.83926 0
M  V30 1215 H 114.725 -4.20679 -0.246361 0
M  V30 1216 H 113.4 -3.13994 -0.786712 0
M  V30 1217 H 112.307 -3.42118 1.51348 0
M  V30 1218 H 113.64 -4.50914 1.97325 0
M  V30 1219 N 115.292 -0.849877 -1.32721 0
M  V30 1220 C 116.255 -0.296122 -2.27279 0
M  V30 1221 C 117.255 0.541458 -1.5141 0
M  V30 1222 O 118.445 0.353658 -1.70572 0
M  V30 1223 C 115.577 0.581579 -3.35902 0
M  V30 1224 H 116.77 -1.13064 -2.77771 0
M  V30 1225 H 114.323 -0.62383 -1.43311 0
M  V30 1226 H 115.058 1.43809 -2.9067 0
M  V30 1227 H 114.843 -0.0178814 -3.92096 0
M  V30 1228 H 116.333 0.961951 -4.0637 0
M  V30 1229 N 116.77 1.45427 -0.607355 0
M  V30 1230 C 117.995 2.07124 -0.107006 0
M  V30 1231 C 118.42 1.44906 1.19933 0
M  V30 1232 O 117.778 0.541687 1.73019 0
M  V30 1233 C 117.826 3.60595 0.0194119 0
M  V30 1234 O 116.93 3.98285 1.0697 0
M  V30 1235 H 116.271 0.659868 -0.0739597 0
M  V30 1236 H 118.801 1.86683 -0.837297 0
M  V30 1237 H 118.811 4.07419 0.2177 0
M  V30 1238 H 117.486 4.05266 -0.934453 0
M  V30 1239 H 116.063 3.63133 0.847889 0
M  V30 1240 N 118.248 0.346503 1.53744 0
M  V30 1241 C 119.664 -0.00530975 1.59599 0
M  V30 1242 C 119.864 -1.48465 1.36236 0
M  V30 1243 O 118.92 -2.24376 1.15808 0
M  V30 1244 C 120.233 0.433516 2.97559 0
M  V30 1245 C 121.781 0.386111 3.10609 0
M  V30 1246 C 122.256 0.800451 4.50951 0
M  V30 1247 N 123.747 0.754753 4.5701 0
M  V30 1248 C 124.482 1.04727 5.63755 0
M  V30 1249 N 123.978 1.4081 6.7834 0
M  V30 1250 N 125.771 0.971316 5.53644 0
M  V30 1251 H 117.922 1.31009 1.67184 0
M  V30 1252 H 120.185 0.534242 0.783128 0
M  V30 1253 H 119.891 1.46509 3.19731 0
M  V30 1254 H 119.765 -0.189753 3.76722 0
M  V30 1255 H 122.152 -0.636295 2.88158 0
M  V30 1256 H 122.233 1.04462 2.33498 0
M  V30 1257 H 121.877 1.82088 4.74137 0
M  V30 1258 H 121.807 0.119386 5.26465 0
M  V30 1259 H 124.298 0.488662 3.74727 0
M  V30 1260 H 124.611 1.61607 7.55714 0
M  V30 1261 H 122.956 1.44657 6.79779 0
M  V30 1262 H 126.147 0.688748 4.63005 0
M  V30 1263 H 126.32 1.20263 6.36742 0
M  V30 1264 N 119.726 -1.57421 0.075193 0
M  V30 1265 C 120.974 -1.93236 -0.591974 0
M  V30 1266 C 121.295 -0.956241 -1.69944 0
M  V30 1267 O 120.565 -0.00494792 -1.95899 0
M  V30 1268 H 119.145 -0.713355 -0.22166 0
M  V30 1269 H 121.807 -1.9444 0.133848 0
M  V30 1270 H 120.903 -2.95131 -1.01509 0
M  V30 1271 N 121.204 0.198386 -1.56346 0
M  V30 1272 C 122.151 1.24589 -1.94284 0
M  V30 1273 C 123.121 1.454 -0.802997 0
M  V30 1274 O 124.306 1.58588 -1.06087 0
M  V30 1275 C 121.446 2.58631 -2.28482 0
M  V30 1276 C 120.559 2.45426 -3.55514 0
M  V30 1277 C 119.694 3.7215 -3.79049 0
M  V30 1278 C 118.733 3.53763 -4.99518 0
M  V30 1279 N 117.87 4.72491 -5.19323 0
M  V30 1280 H 122.71 0.915356 -2.83593 0
M  V30 1281 H 120.247 0.440629 -1.40346 0
M  V30 1282 H 122.205 3.3672 -2.46324 0
M  V30 1283 H 120.835 2.89734 -1.42317 0
M  V30 1284 H 119.887 1.58652 -3.45737 0
M  V30 1285 H 121.199 2.27772 -4.43758 0
M  V30 1286 H 120.353 4.58679 -3.97113 0
M  V30 1287 H 119.092 3.92754 -2.89129 0
M  V30 1288 H 118.097 2.65619 -4.8138 0
M  V30 1289 H 119.322 3.34607 -5.90944 0
M  V30 1290 H 117.268 4.93365 -4.3235 0
M  V30 1291 H 117.185 4.5765 -6.01741 0
M  V30 1292 H 118.453 5.6038 -5.41843 0
M  V30 1293 N 122.682 1.50554 0.465978 0
M  V30 1294 C 123.614 1.65949 1.58093 0
M  V30 1295 C 124.627 0.540827 1.53554 0
M  V30 1296 O 125.816 0.814187 1.5885 0
M  V30 1297 C 122.916 1.63261 2.96983 0
M  V30 1298 C 122.089 2.91245 3.26336 0
M  V30 1299 C 121.148 2.8113 4.44806 0
M  V30 1300 O 120.174 3.55086 4.44862 0
M  V30 1301 N 121.376 1.95032 5.46756 0
M  V30 1302 H 124.141 2.62122 1.45301 0
M  V30 1303 H 121.702 1.48082 0.65448 0
M  V30 1304 H 123.694 1.54101 3.74212 0
M  V30 1305 H 122.264 0.748032 3.03518 0
M  V30 1306 H 121.484 3.14493 2.37672 0
M  V30 1307 H 122.772 3.76022 3.42761 0
M  V30 1308 H 122.17 1.3427 5.49534 0
M  V30 1309 H 120.727 1.91772 6.2295 0
M  V30 1310 N 124.16 -0.719506 1.40217 0
M  V30 1311 C 125.408 -1.47641 1.3801 0
M  V30 1312 C 125.729 -1.94992 -0.018145 0
M  V30 1313 O 124.999 -1.70073 -0.972207 0
M  V30 1314 H 123.579 -0.547744 0.507923 0
M  V30 1315 H 126.241 -0.853187 1.75233 0
M  V30 1316 H 125.337 -2.35112 2.05253 0
M  V30 1317 N 125.638 -1.25649 -0.95132 0
M  V30 1318 C 126.886 -1.10375 -1.69298 0
M  V30 1319 C 127.207 0.355339 -1.91735 0
M  V30 1320 O 126.477 1.25188 -1.50681 0
M  V30 1321 H 125.057 -0.405461 -0.627384 0
M  V30 1322 H 127.719 -1.57823 -1.14358 0
M  V30 1323 H 126.815 -1.61465 -2.67087 0
M  V30 1324 N 127.117 1.15442 -1.07289 0
M  V30 1325 C 128.533 1.38201 -0.798288 0
M  V30 1326 C 128.733 1.92429 0.597769 0
M  V30 1327 O 127.789 2.12962 1.3566 0
M  V30 1328 C 129.102 2.35357 -1.87156 0
M  V30 1329 C 130.65 2.49021 -1.89624 0
M  V30 1330 C 131.125 3.49468 -2.96034 0
M  V30 1331 N 132.616 3.57003 -2.95132 0
M  V30 1332 C 133.351 4.34543 -3.74112 0
M  V30 1333 N 132.847 5.15421 -4.6294 0
M  V30 1334 N 134.64 4.29625 -3.62462 0
M  V30 1335 H 126.791 0.78584 -1.97328 0
M  V30 1336 H 129.054 0.408065 -0.855679 0
M  V30 1337 H 128.76 2.02626 -2.87464 0
M  V30 1338 H 128.634 3.35129 -1.73114 0
M  V30 1339 H 131.021 2.81051 -0.899687 0
M  V30 1340 H 131.102 1.4925 -2.07745 0
M  V30 1341 H 130.746 3.18173 -3.95889 0
M  V30 1342 H 130.676 4.48992 -2.75161 0
M  V30 1343 H 133.167 2.99276 -2.30743 0
M  V30 1344 H 133.48 5.7183 -5.19837 0
M  V30 1345 H 131.825 5.14729 -4.66989 0
M  V30 1346 H 135.016 3.65505 -2.92444 0
M  V30 1347 H 135.189 4.89807 -4.24256 0
M  V30 1348 N 128.595 0.856903 1.32268 0
M  V30 1349 C 129.823 0.475439 2.01363 0
M  V30 1350 C 130.238 -0.928486 1.64392 0
M  V30 1351 O 129.595 -1.60624 0.866387 0
M  V30 1352 C 129.646 0.607545 3.56358 0
M  V30 1353 O 129.367 1.95617 3.92002 0
M  V30 1354 C 130.868 0.225382 4.42727 0
M  V30 1355 H 128.088 0.186636 0.644521 0
M  V30 1356 H 130.632 1.15446 1.68797 0
M  V30 1357 H 128.787 -0.0237719 3.87393 0
M  V30 1358 H 129.201 1.95455 4.86721 0
M  V30 1359 H 130.675 0.368813 5.50767 0
M  V30 1360 H 131.152 -0.834369 4.31202 0
M  V30 1361 H 131.758 0.831864 4.17085 0
M  V30 1362 N 130.073 -1.45103 0.615059 0
M  V30 1363 C 131.003 -2.33339 -0.0865619 0
M  V30 1364 C 131.984 -1.4727 -0.851209 0
M  V30 1365 O 133.169 -1.76026 -0.820281 0
M  V30 1366 C 130.299 -3.30095 -1.07956 0
M  V30 1367 C 129.253 -4.25858 -0.427628 0
M  V30 1368 C 128.579 -5.12361 -1.5294 0
M  V30 1369 C 129.879 -5.18165 0.655944 0
M  V30 1370 H 131.573 -2.92254 0.650224 0
M  V30 1371 H 129.119 -1.40532 0.314138 0
M  V30 1372 H 131.072 -3.90698 -1.57901 0
M  V30 1373 H 129.796 -2.69355 -1.84703 0
M  V30 1374 H 128.455 -3.66564 0.0510292 0
M  V30 1375 H 128.103 -4.47984 -2.28734 0
M  V30 1376 H 127.803 -5.77238 -1.09865 0
M  V30 1377 H 129.327 -5.75833 -2.03098 0
M  V30 1378 H 130.741 -5.72796 0.240257 0
M  V30 1379 H 129.138 -5.91559 1.00888 0
M  V30 1380 H 130.208 -4.60144 1.52957 0
M  V30 1381 N 131.551 -0.354651 -1.53558 0
M  V30 1382 C 132.461 0.50515 -2.29097 0
M  V30 1383 C 133.477 1.10223 -1.34636 0
M  V30 1384 O 134.653 1.11553 -1.67684 0
M  V30 1385 C 131.718 1.63479 -3.05738 0
M  V30 1386 C 130.779 1.06636 -4.15845 0
M  V30 1387 C 130.012 2.14217 -4.88822 0
M  V30 1388 O 130.235 3.35137 -4.61562 0
M  V30 1389 O 129.169 1.77887 -5.75013 0
M  V30 1390 H 132.995 -0.109237 -3.03503 0
M  V30 1391 H 130.58 -0.119357 -1.48922 0
M  V30 1392 H 132.462 2.2918 -3.5363 0
M  V30 1393 H 131.137 2.23478 -2.34178 0
M  V30 1394 H 130.044 0.373565 -3.7223 0
M  V30 1395 H 131.377 0.511081 -4.89539 0
M  V30 1396 N 133.029 1.57378 -0.0835403 0
M  V30 1397 C 134.278 1.93106 0.582498 0
M  V30 1398 C 134.591 0.96651 1.70053 0
M  V30 1399 O 135.797 1.21705 2.42693 0
M  V30 1400 C 134.253 3.43076 1.08751 0
M  V30 1401 C 133.861 4.48 -0.000146404 0
M  V30 1402 C 135.605 3.87785 1.72694 0
M  V30 1403 C 133.512 5.89113 0.519568 0
M  V30 1404 H 132.442 0.720775 0.221358 0
M  V30 1405 H 135.093 1.82821 -0.157675 0
M  V30 1406 H 133.475 3.48474 1.88101 0
M  V30 1407 H 134.649 4.54233 -0.775199 0
M  V30 1408 H 132.964 4.1283 -0.54406 0
M  V30 1409 H 135.561 4.90604 2.1263 0
M  V30 1410 H 135.904 3.25796 2.59158 0
M  V30 1411 H 136.437 3.8504 0.999457 0
M  V30 1412 H 133.176 6.54775 -0.308186 0
M  V30 1413 H 132.696 5.86376 1.26188 0
M  V30 1414 H 134.375 6.39346 0.992237 0
M  V30 1415 N 134.507 -0.190092 1.56449 0
M  V30 1416 C 135.439 -1.25973 1.91477 0
M  V30 1417 C 136.452 -1.41452 0.805931 0
M  V30 1418 O 137.641 -1.41789 1.08435 0
M  V30 1419 C 134.741 -2.63117 2.13594 0
M  V30 1420 C 133.914 -2.69182 3.4476 0
M  V30 1421 C 132.973 -3.87557 3.5593 0
M  V30 1422 O 131.999 -3.74427 4.28711 0
M  V30 1423 N 133.201 -5.03224 2.89388 0
M  V30 1424 H 135.966 -0.962394 2.83828 0
M  V30 1425 H 133.527 -0.379981 1.57378 0
M  V30 1426 H 135.519 -3.40742 2.1835 0
M  V30 1427 H 134.089 -2.85319 1.27719 0
M  V30 1428 H 133.309 -1.77793 3.51828 0
M  V30 1429 H 134.597 -2.70229 4.31107 0
M  V30 1430 H 133.995 -5.16791 2.30094 0
M  V30 1431 H 132.552 -5.78778 2.99764 0
M  V30 1432 N 135.985 -1.50799 -0.457987 0
M  V30 1433 C 137.401 -1.38515 -0.792819 0
M  V30 1434 C 137.601 -0.451409 -1.96379 0
M  V30 1435 O 136.657 0.10112 -2.52297 0
M  V30 1436 C 137.97 -2.80149 -1.09258 0
M  V30 1437 C 139.518 -2.89156 -1.19825 0
M  V30 1438 C 139.993 -4.31651 -1.53106 0
M  V30 1439 N 141.484 -4.34662 -1.60072 0
M  V30 1440 C 142.219 -5.41928 -1.87354 0
M  V30 1441 N 141.715 -6.59384 -2.12568 0
M  V30 1442 N 143.508 -5.29385 -1.88965 0
M  V30 1443 H 135.659 -2.10073 0.313511 0
M  V30 1444 H 137.922 -0.944803 0.0777862 0
M  V30 1445 H 137.628 -3.50374 -0.305084 0
M  V30 1446 H 137.502 -3.18204 -2.02549 0
M  V30 1447 H 139.889 -2.19141 -1.97639 0
M  V30 1448 H 139.97 -2.54626 -0.244821 0
M  V30 1449 H 139.614 -5.02208 -0.758266 0
M  V30 1450 H 139.544 -4.63678 -2.49621 0
M  V30 1451 H 142.035 -3.49973 -1.42573 0
M  V30 1452 H 142.348 -7.36934 -2.32696 0
M  V30 1453 H 140.693 -6.62535 -2.09933 0
M  V30 1454 H 143.884 -4.36616 -1.68772 0
M  V30 1455 H 144.057 -6.13066 -2.09891 0
M  V30 1456 N 137.463 0.71206 -1.40597 0
M  V30 1457 C 138.393 1.83889 -1.43899 0
M  V30 1458 C 139.374 1.67442 -0.299504 0
M  V30 1459 O 140.559 1.87421 -0.508624 0
M  V30 1460 C 137.689 3.21877 -1.30431 0
M  V30 1461 C 136.643 3.53002 -2.42019 0
M  V30 1462 C 135.969 4.90172 -2.13626 0
M  V30 1463 C 137.269 3.53643 -3.84362 0
M  V30 1464 H 138.963 1.81383 -2.38203 0
M  V30 1465 H 136.509 0.871237 -1.14654 0
M  V30 1466 H 138.462 4.00404 -1.31357 0
M  V30 1467 H 137.186 3.24968 -0.326049 0
M  V30 1468 H 135.845 2.76818 -2.40349 0
M  V30 1469 H 135.493 4.89869 -1.14182 0
M  V30 1470 H 135.193 5.11962 -2.88389 0
M  V30 1471 H 136.717 5.71028 -2.1624 0
M  V30 1472 H 138.131 4.22203 -3.87837 0
M  V30 1473 H 136.528 3.86961 -4.58673 0
M  V30 1474 H 137.598 2.52954 -4.13693 0
M  V30 1475 N 138.941 1.26152 0.944643 0
M  V30 1476 C 140.19 1.10883 1.68487 0
M  V30 1477 C 140.503 -0.348153 1.92477 0
M  V30 1478 O 141.709 -0.621459 2.64292 0
M  V30 1479 C 140.165 1.93624 3.03377 0
M  V30 1480 C 139.773 3.43875 2.87148 0
M  V30 1481 C 141.517 1.86954 3.81115 0
M  V30 1482 C 139.424 4.18875 4.1749 0
M  V30 1483 H 138.354 0.41135 0.631907 0
M  V30 1484 H 141.005 1.50433 1.05082 0
M  V30 1485 H 139.387 1.46904 3.67743 0
M  V30 1486 H 140.561 3.98338 2.31653 0
M  V30 1487 H 138.876 3.51744 2.22856 0
M  V30 1488 H 141.473 2.40275 4.77673 0
M  V30 1489 H 141.816 0.839518 4.07747 0
M  V30 1490 H 142.349 2.31477 3.23517 0
M  V30 1491 H 139.088 5.22332 3.96043 0
M  V30 1492 H 138.608 3.69193 4.72712 0
M  V30 1493 H 140.287 4.27134 4.85968 0
M  V30 1494 N 140.419 -1.14872 1.07899 0
M  V30 1495 C 141.667 -1.85422 0.803941 0
M  V30 1496 C 141.988 -1.83051 -0.67211 0
M  V30 1497 O 141.258 -1.27532 -1.48703 0
M  V30 1498 H 139.838 -0.686537 0.294408 0
M  V30 1499 H 142.5 -1.39226 1.3639 0
M  V30 1500 H 141.596 -2.90399 1.14346 0
M  V30 1501 N 141.898 -0.863906 -1.31812 0
M  V30 1502 C 143.314 -0.555004 -1.49639 0
M  V30 1503 C 143.514 0.912266 -1.79666 0
M  V30 1504 O 142.57 1.69479 -1.87171 0
M  V30 1505 C 143.883 -1.44998 -2.63431 0
M  V30 1506 C 145.431 -1.45138 -2.77316 0
M  V30 1507 C 145.906 -2.33179 -3.94197 0
M  V30 1508 N 147.397 -2.31025 -4.01474 0
M  V30 1509 C 148.132 -2.95871 -4.9117 0
M  V30 1510 N 147.628 -3.69863 -5.8581 0
M  V30 1511 N 149.421 -2.85211 -4.84367 0
M  V30 1512 H 141.572 -1.81339 -1.10589 0
M  V30 1513 H 143.835 -0.77505 -0.545895 0
M  V30 1514 H 143.541 -2.49377 -2.48 0
M  V30 1515 H 143.415 -1.14409 -3.59431 0
M  V30 1516 H 145.802 -0.415201 -2.92164 0
M  V30 1517 H 145.883 -1.79747 -1.82001 0
M  V30 1518 H 145.527 -3.3687 -3.80107 0
M  V30 1519 H 145.457 -1.95897 -4.88807 0
M  V30 1520 H 147.948 -1.77238 -3.33759 0
M  V30 1521 H 148.261 -4.16486 -6.50968 0
M  V30 1522 H 146.606 -3.73971 -5.85808 0
M  V30 1523 H 149.797 -2.26948 -4.09405 0
M  V30 1524 H 149.97 -3.36027 -5.54066 0
M  V30 1525 N 143.376 1.44774 -0.622745 0
M  V30 1526 C 144.601 2.06999 -0.128968 0
M  V30 1527 C 145.026 1.4617 1.1839 0
M  V30 1528 O 144.384 0.560007 1.72434 0
M  V30 1529 C 144.432 3.60595 -0.0188351 0
M  V30 1530 O 143.536 3.99398 1.02739 0
M  V30 1531 H 142.877 0.659047 -0.0809544 0
M  V30 1532 H 145.407 1.85784 -0.85705 0
M  V30 1533 H 145.417 4.07627 0.174476 0
M  V30 1534 H 144.092 4.04252 -0.977384 0
M  V30 1535 H 142.669 3.64011 0.809326 0
M  V30 1536 N 144.854 0.36279 1.53368 0
M  V30 1537 C 145.784 -0.476976 2.28576 0
M  V30 1538 C 146.765 -1.08631 1.30894 0
M  V30 1539 O 147.95 -1.10409 1.59761 0
M  V30 1540 C 145.08 -1.61828 3.07293 0
M  V30 1541 C 144.034 -1.13633 4.1264 0
M  V30 1542 C 143.36 -2.36766 4.79423 0
M  V30 1543 C 144.66 -0.223061 5.21823 0
M  V30 1544 H 146.354 0.150474 2.99022 0
M  V30 1545 H 143.9 0.0738103 1.43811 0
M  V30 1546 H 145.853 -2.21237 3.58653 0
M  V30 1547 H 144.577 -2.27292 2.34533 0
M  V30 1548 H 143.236 -0.564945 3.62221 0
M  V30 1549 H 142.884 -3.0068 4.03238 0
M  V30 1550 H 142.584 -2.05192 5.50609 0
M  V30 1551 H 144.108 -2.96865 5.33576 0
M  V30 1552 H 145.522 -0.724545 5.68703 0
M  V30 1553 H 143.919 0.001678 6.001 0
M  V30 1554 H 144.989 0.735553 4.79289 0
M  V30 1555 N 146.332 -1.57332 0.0918853 0
M  V30 1556 C 147.748 -1.57389 -0.264766 0
M  V30 1557 C 147.948 -1.10281 -1.68643 0
M  V30 1558 O 147.004 -0.777801 -2.40222 0
M  V30 1559 C 148.317 -3.00648 -0.0561195 0
M  V30 1560 C 149.865 -3.12754 -0.124116 0
M  V30 1561 C 150.34 -4.57965 0.0564972 0
M  V30 1562 N 151.831 -4.632 0.00155611 0
M  V30 1563 C 152.566 -5.73281 0.116598 0
M  V30 1564 N 152.062 -6.92208 0.286294 0
M  V30 1565 N 153.855 -5.6207 0.0580973 0
M  V30 1566 H 146.006 -1.86262 1.02079 0
M  V30 1567 H 148.269 -0.859579 0.399786 0
M  V30 1568 H 147.975 -3.393 0.925669 0
M  V30 1569 H 147.849 -3.68623 -0.799823 0
M  V30 1570 H 150.236 -2.73976 -1.09641 0
M  V30 1571 H 150.317 -2.47377 0.651024 0
M  V30 1572 H 149.961 -4.97436 1.02564 0
M  V30 1573 H 149.891 -5.21399 -0.738297 0
M  V30 1574 H 152.382 -3.77686 -0.127192 0
M  V30 1575 H 152.695 -7.71934 0.365676 0
M  V30 1576 H 151.04 -6.94254 0.32192 0
M  V30 1577 H 154.231 -4.68043 -0.0733204 0
M  V30 1578 H 154.404 -6.47824 0.151203 0
M  V30 1579 N 147.81 0.181792 -1.56548 0
M  V30 1580 C 148.773 1.20894 -1.94724 0
M  V30 1581 C 149.773 1.37738 -0.829747 0
M  V30 1582 O 150.963 1.35323 -1.09697 0
M  V30 1583 C 148.095 2.57593 -2.23291 0
M  V30 1584 H 149.288 0.882275 -2.86629 0
M  V30 1585 H 146.841 0.423838 -1.50444 0
M  V30 1586 H 147.576 2.95291 -1.34067 0
M  V30 1587 H 147.361 2.46735 -3.04736 0
M  V30 1588 H 148.851 3.31637 -2.53785 0
M  V30 1589 N 149.288 1.51039 0.449983 0
M  V30 1590 C 150.251 1.70863 1.5277 0
M  V30 1591 C 151.251 0.578846 1.5002 0
M  V30 1592 O 152.441 0.846213 1.52266 0
M  V30 1593 C 149.573 1.75341 2.9235 0
M  V30 1594 H 150.766 2.67034 1.36502 0
M  V30 1595 H 148.319 1.40838 0.677812 0
M  V30 1596 H 149.054 0.809383 3.14037 0
M  V30 1597 H 148.839 2.57436 2.95752 0
M  V30 1598 H 150.329 1.92559 3.70555 0
M  V30 1599 N 150.766 -0.704594 1.40972 0
M  V30 1600 C 151.696 -1.83124 1.44872 0
M  V30 1601 C 152.677 -1.67281 0.30838 0
M  V30 1602 O 153.862 -1.87149 0.518556 0
M  V30 1603 C 150.992 -3.21181 1.32136 0
M  V30 1604 C 149.946 -3.51714 2.43888 0
M  V30 1605 C 149.272 -4.89032 2.16222 0
M  V30 1606 C 150.572 -3.516 3.86232 0
M  V30 1607 H 152.266 -1.80117 2.39161 0
M  V30 1608 H 149.812 -0.865145 1.15114 0
M  V30 1609 H 151.765 -3.99702 1.33479 0
M  V30 1610 H 150.489 -3.24791 0.343279 0
M  V30 1611 H 149.148 -2.75539 2.41813 0
M  V30 1612 H 148.796 -4.89256 1.16778 0
M  V30 1613 H 148.496 -5.10426 2.911 0
M  V30 1614 H 150.02 -5.69873 2.19265 0
M  V30 1615 H 151.434 -4.2014 3.9007 0
M  V30 1616 H 149.831 -3.84523 4.60719 0
M  V30 1617 H 150.901 -2.50757 4.15029 0
M  V30 1618 N 152.244 -1.26651 -0.937939 0
M  V30 1619 C 153.521 -1.0313 -1.66204 0
M  V30 1620 C 153.901 0.437256 -2.06522 0
M  V30 1621 O 153.249 1.41831 -1.79154 0
M  V30 1622 C 153.459 -1.98314 -2.87181 0
M  V30 1623 C 154.807 -2.27107 -3.58758 0
M  V30 1624 O 155.831 -1.96205 -2.97291 0
M  V30 1625 O 154.69 -2.79736 -4.69479 0
M  V30 1626 H 151.784 -0.392384 -0.727986 0
M  V30 1627 H 154.33 -1.37874 -0.989382 0
M  V30 1628 H 153.102 -2.97399 -2.54302 0
M  V30 1629 H 152.725 -1.64068 -3.6217 0
M  V30 1630 N 153.722 1.14298 -1.08507 0
M  V30 1631 C 154.652 2.21542 -0.737646 0
M  V30 1632 C 155.633 1.67773 0.280377 0
M  V30 1633 O 156.818 1.93616 0.150521 0
M  V30 1634 C 153.948 3.46988 -0.147259 0
M  V30 1635 C 152.902 4.13789 -1.09374 0
M  V30 1636 C 152.228 5.33449 -0.365524 0
M  V30 1637 C 153.528 4.62208 -2.4323 0
M  V30 1638 H 155.222 2.5086 -1.6343 0
M  V30 1639 H 152.768 1.20576 -0.787243 0
M  V30 1640 H 154.721 4.21262 0.107808 0
M  V30 1641 H 153.445 3.17037 0.784538 0
M  V30 1642 H 152.104 3.4147 -1.33393 0
M  V30 1643 H 151.752 4.99759 0.57011 0
M  V30 1644 H 151.452 5.79088 -0.996512 0
M  V30 1645 H 152.976 6.10485 -0.118534 0
M  V30 1646 H 154.39 5.27952 -2.23472 0
M  V30 1647 H 152.787 5.18553 -3.02031 0
M  V30 1648 H 153.857 3.77224 -3.04681 0
M  V30 1649 N 155.201 0.870884 1.31352 0
M  V30 1650 C 156.426 0.495957 2.01383 0
M  V30 1651 C 156.851 -0.904324 1.64935 0
M  V30 1652 O 156.209 -1.59687 0.858466 0
M  V30 1653 C 156.257 0.661433 3.54482 0
M  V30 1654 O 155.361 -0.298851 4.11316 0
M  V30 1655 H 154.702 0.197158 0.634054 0
M  V30 1656 H 157.232 1.17455 1.67527 0
M  V30 1657 H 157.242 0.555072 4.04207 0
M  V30 1658 H 155.917 1.68246 3.8035 0
M  V30 1659 H 154.494 -0.147368 3.72609 0
M  V30 1660 N 156.679 -1.44442 0.630414 0
M  V30 1661 C 157.626 -2.30678 -0.0749355 0
M  V30 1662 C 158.596 -1.4344 -0.837502 0
M  V30 1663 O 159.781 -1.72343 -0.818684 0
M  V30 1664 C 156.921 -3.28706 -1.05103 0
M  V30 1665 C 156.034 -4.31046 -0.286954 0
M  V30 1666 C 155.169 -5.16167 -1.2548 0
M  V30 1667 C 154.208 -6.10216 -0.479843 0
M  V30 1668 N 153.345 -6.88039 -1.39811 0
M  V30 1669 H 158.185 -2.90454 0.666386 0
M  V30 1670 H 155.722 -1.43107 0.340404 0
M  V30 1671 H 157.68 -3.84027 -1.63031 0
M  V30 1672 H 156.31 -2.70632 -1.75949 0
M  V30 1673 H 155.362 -3.78203 0.408243 0
M  V30 1674 H 156.674 -4.97794 0.316657 0
M  V30 1675 H 155.828 -5.76002 -1.90544 0
M  V30 1676 H 154.567 -4.49491 -1.89233 0
M  V30 1677 H 153.572 -5.49491 0.184295 0
M  V30 1678 H 154.797 -6.78928 0.152965 0
M  V30 1679 H 152.743 -6.24032 -2.02287 0
M  V30 1680 H 152.66 -7.51223 -0.848508 0
M  V30 1681 H 153.928 -7.52397 -2.03762 0
M  V30 1682 N 158.157 -0.370918 -1.53173 0
M  V30 1683 C 159.087 0.464847 -2.28826 0
M  V30 1684 C 160.068 1.07936 -1.31468 0
M  V30 1685 O 161.253 1.0956 -1.60344 0
M  V30 1686 C 158.383 1.60196 -3.08147 0
M  V30 1687 C 157.337 1.11443 -4.13237 0
M  V30 1688 C 156.663 2.3422 -4.80672 0
M  V30 1689 C 157.963 0.195384 -5.21934 0
M  V30 1690 H 159.657 -0.166329 -2.98938 0
M  V30 1691 H 157.203 -0.0814359 -1.4377 0
M  V30 1692 H 159.156 2.19332 -3.59822 0
M  V30 1693 H 157.88 2.26045 -2.35735 0
M  V30 1694 H 156.539 0.545727 -3.62515 0
M  V30 1695 H 156.187 2.98537 -4.04827 0
M  V30 1696 H 155.887 2.02269 -5.51689 0
M  V30 1697 H 157.411 2.94032 -5.35143 0
M  V30 1698 H 158.825 0.694375 -5.69079 0
M  V30 1699 H 157.222 -0.0335027 -6.00091 0
M  V30 1700 H 158.292 -0.760961 -4.78892 0
M  V30 1701 N 159.635 1.57281 -0.100228 0
M  V30 1702 C 160.883 1.94153 0.561157 0
M  V30 1703 C 161.204 0.983157 1.68401 0
M  V30 1704 O 160.474 0.0361132 1.95867 0
M  V30 1705 H 159.054 0.716791 0.210283 0
M  V30 1706 H 161.716 1.94202 -0.164765 0
M  V30 1707 H 160.812 2.96709 0.968008 0
M  V30 1708 N 161.113 -0.173488 1.56642 0
M  V30 1709 C 162.023 -1.23482 1.99473 0
M  V30 1710 C 163.039 -1.48567 0.905752 0
M  V30 1711 O 164.215 -1.60758 1.21321 0
M  V30 1712 C 161.28 -2.55444 2.34413 0
M  V30 1713 C 160.341 -2.38241 3.57127 0
M  V30 1714 C 159.574 -3.63909 3.90392 0
M  V30 1715 O 159.797 -4.68996 3.24653 0
M  V30 1716 O 158.731 -3.58149 4.83749 0
M  V30 1717 H 162.557 -0.901279 2.90018 0
M  V30 1718 H 160.142 -0.380185 1.44482 0
M  V30 1719 H 162.024 -3.33292 2.57865 0
M  V30 1720 H 160.699 -2.88382 1.4703 0
M  V30 1721 H 159.606 -1.58431 3.38896 0
M  V30 1722 H 160.939 -2.10228 4.45045 0
M  V30 1723 N 162.591 -1.51276 -0.441967 0
M  V30 1724 C 163.539 -1.72823 -1.55676 0
M  V30 1725 C 164.533 -0.59445 -1.58627 0
M  V30 1726 O 165.739 -0.775715 -1.62427 0
M  V30 1727 H 162.114 -0.545983 -0.517113 0
M  V30 1728 H 164.085 -2.6628 -1.34675 0
M  V30 1729 C 162.834 -1.86619 -2.93375 0
M  V30 1730 H 162.157 -2.73264 -2.91834 0
M  V30 1731 H 163.597 -2.05709 -3.70756 0
M  V30 1732 C 162.056 -0.624842 -3.31055 0
M  V30 1733 O 162.586 0.222636 -4.01083 0
M  V30 1734 N 160.792 -0.470288 -2.86769 0
M  V30 1735 H 160.339 -1.161 -2.29953 0
M  V30 1736 H 160.297 0.359051 -3.12343 0
M  V30 1737 N 164.069 0.697108 -1.41344 0
M  V30 1738 C 165.297 1.48593 -1.43972 0
M  V30 1739 C 165.712 1.88747 -0.0445612 0
M  V30 1740 O 165.069 1.56682 0.935785 0
M  V30 1741 C 165.12 2.74946 -2.34706 0
M  V30 1742 O 164.841 2.36484 -3.68791 0
M  V30 1743 C 166.342 3.687 -2.46121 0
M  V30 1744 H 163.562 0.457964 -0.490418 0
M  V30 1745 H 166.106 0.858429 -1.8561 0
M  V30 1746 H 164.261 3.33937 -1.9638 0
M  V30 1747 H 164.675 3.17918 -4.17167 0
M  V30 1748 H 166.149 4.54145 -3.13777 0
M  V30 1749 H 166.626 4.13081 -1.49199 0
M  V30 1750 H 167.232 3.15613 -2.85076 0
M  V30 1751 N 165.547 1.27147 0.931209 0
M  V30 1752 C 166.477 1.12081 2.04842 0
M  V30 1753 C 167.458 0.0232364 1.70084 0
M  V30 1754 O 168.643 0.197085 1.93197 0
M  V30 1755 C 165.773 0.76354 3.38803 0
M  V30 1756 C 164.727 1.81396 3.87659 0
M  V30 1757 C 164.053 1.31075 5.18385 0
M  V30 1758 C 165.353 3.21739 4.11438 0
M  V30 1759 H 167.047 2.05537 2.17703 0
M  V30 1760 H 164.593 0.989603 1.04608 0
M  V30 1761 H 166.546 0.644982 4.16435 0
M  V30 1762 H 165.27 -0.206727 3.25945 0
M  V30 1763 H 163.929 1.92136 3.12217 0
M  V30 1764 H 163.577 0.330037 5.01916 0
M  V30 1765 H 163.277 2.013 5.52044 0
M  V30 1766 H 164.801 1.20506 5.98591 0
M  V30 1767 H 166.215 3.14019 4.79651 0
M  V30 1768 H 164.612 3.89644 4.56397 0
M  V30 1769 H 165.682 3.67054 3.16859 0
M  V30 1770 N 167.025 -1.13721 1.09112 0
M  V30 1771 C 168.255 -1.88499 0.845671 0
M  V30 1772 C 168.663 -1.79218 -0.606432 0
M  V30 1773 O 168.006 -1.1544 -1.42896 0
M  V30 1774 C 168.068 -3.38954 1.19793 0
M  V30 1775 C 167.732 -3.72018 2.65428 0
M  V30 1776 C 168.729 -3.7153 3.63677 0
M  V30 1777 C 166.414 -4.01775 3.01467 0
M  V30 1778 C 168.408 -4.00336 4.95994 0
M  V30 1779 C 166.095 -4.30243 4.33975 0
M  V30 1780 C 167.093 -4.29508 5.31048 0
M  V30 1781 O 166.781 -4.5728 6.61173 0
M  V30 1782 H 166.513 -0.603702 0.304171 0
M  V30 1783 H 169.067 -1.44903 1.45576 0
M  V30 1784 H 167.297 -3.83039 0.530871 0
M  V30 1785 H 168.986 -3.95052 0.932146 0
M  V30 1786 H 169.752 -3.4862 3.37179 0
M  V30 1787 H 165.631 -4.01496 2.26544 0
M  V30 1788 H 169.175 -3.99678 5.71755 0
M  V30 1789 H 165.072 -4.52625 4.60219 0
M  V30 1790 H 165.84 -4.74964 6.66597 0
M  V30 1791 N 168.503 -0.877838 -1.30888 0
M  V30 1792 C 169.752 -0.488793 -1.95688 0
M  V30 1793 C 170.065 0.965485 -1.70111 0
M  V30 1794 O 171.271 1.46104 -2.28836 0
M  V30 1795 C 169.727 -0.823201 -3.50359 0
M  V30 1796 C 169.335 -2.29477 -3.84765 0
M  V30 1797 C 171.079 -0.503009 -4.21509 0
M  V30 1798 C 168.986 -2.57118 -5.32583 0
M  V30 1799 H 167.916 -0.179062 -0.732429 0
M  V30 1800 H 170.567 -1.07183 -1.48943 0
M  V30 1801 H 168.949 -0.169331 -3.95638 0
M  V30 1802 H 170.123 -2.99236 -3.5042 0
M  V30 1803 H 168.438 -2.58178 -3.267 0
M  V30 1804 H 171.035 -0.68665 -5.30273 0
M  V30 1805 H 171.378 0.557109 -4.12555 0
M  V30 1806 H 171.911 -1.11376 -3.8189 0
M  V30 1807 H 168.65 -3.61843 -5.4658 0
M  V30 1808 H 168.17 -1.91961 -5.68253 0
M  V30 1809 H 169.849 -2.42251 -5.99936 0
M  V30 1810 N 169.982 1.44106 -0.638065 0
M  V30 1811 C 171.259 1.95453 -0.0759321 0
M  V30 1812 C 171.639 1.57984 1.40015 0
M  V30 1813 O 170.987 0.857361 2.11806 0
M  V30 1814 C 171.197 3.47655 -0.306132 0
M  V30 1815 C 172.545 4.24114 -0.203008 0
M  V30 1816 O 173.569 3.55405 -0.237871 0
M  V30 1817 O 172.428 5.46381 -0.113827 0
M  V30 1818 H 169.522 0.826797 0.0183332 0
M  V30 1819 H 172.068 1.54122 -0.710251 0
M  V30 1820 H 170.84 3.68 -1.3301 0
M  V30 1821 H 170.463 3.95949 0.361991 0
M  V30 1822 N 171.46 0.379036 1.52974 0
M  V30 1823 C 172.7 -0.206325 2.03356 0
M  V30 1824 C 173.064 -1.44892 1.25977 0
M  V30 1825 O 174.265 -2.11078 1.66432 0
M  V30 1826 C 172.536 -0.477887 3.54191 0
M  V30 1827 S 174.095 -1.035 4.26419 0
M  V30 1828 H 170.913 -0.0590259 0.708546 0
M  V30 1829 H 173.515 0.525013 1.88319 0
M  V30 1830 H 172.219 0.433745 4.08101 0
M  V30 1831 H 171.75 -1.23793 3.73415 0
M  V30 1832 H 173.765 -2.31821 4.38718 0
M  V30 1833 N 172.938 -1.57226 0.108567 0
M  V30 1834 C 174.215 -1.86333 -0.594939 0
M  V30 1835 C 174.595 -1.00788 -1.85486 0
M  V30 1836 O 173.943 -0.0839293 -2.28346 0
M  V30 1837 C 174.153 -3.37265 -0.897405 0
M  V30 1838 C 175.501 -4.05629 -1.25501 0
M  V30 1839 O 176.525 -3.42224 -0.987998 0
M  V30 1840 O 175.384 -5.17531 -1.75567 0
M  V30 1841 H 172.478 -0.771018 -0.2991 0
M  V30 1842 H 175.024 -1.69102 0.142283 0
M  V30 1843 H 173.796 -3.913 -0.00413806 0
M  V30 1844 H 173.419 -3.59889 -1.69014 0
M  V30 1845 N 174.416 0.165178 -1.56732 0
M  V30 1846 C 175.662 0.882112 -1.82611 0
M  V30 1847 C 175.995 1.81628 -0.687378 0
M  V30 1848 O 175.27 1.92009 0.310267 0
M  V30 1849 C 175.553 1.67245 -3.18906 0
M  V30 1850 C 175.406 0.760987 -4.43316 0
M  V30 1851 C 176.725 2.63884 -3.52212 0
M  V30 1852 H 173.844 0.319242 -0.664269 0
M  V30 1853 H 176.486 0.148052 -1.89422 0
M  V30 1854 H 174.636 2.29824 -3.1323 0
M  V30 1855 H 176.308 0.147596 -4.61064 0
M  V30 1856 H 174.551 0.0694102 -4.33744 0
M  V30 1857 H 175.222 1.34962 -5.35247 0
M  V30 1858 H 177.698 2.11429 -3.58381 0
M  V30 1859 H 176.574 3.16245 -4.48643 0
M  V30 1860 H 176.835 3.44377 -2.77231 0
M  V30 1861 N 175.894 1.51508 0.433938 0
M  V30 1862 C 177.143 1.63578 1.18005 0
M  V30 1863 C 177.456 0.359514 1.92268 0
M  V30 1864 O 178.662 0.359632 2.69108 0
M  V30 1865 C 177.118 2.88901 2.14626 0
M  V30 1866 C 176.726 4.23544 1.45995 0
M  V30 1867 C 178.47 3.10328 2.89649 0
M  V30 1868 C 176.377 5.40014 2.4112 0
M  V30 1869 H 175.307 0.609277 0.444182 0
M  V30 1870 H 177.958 1.77978 0.446773 0
M  V30 1871 H 176.34 2.68142 2.91403 0
M  V30 1872 H 177.514 4.54696 0.747532 0
M  V30 1873 H 175.829 4.08021 0.831115 0
M  V30 1874 H 178.426 3.94518 3.60915 0
M  V30 1875 H 178.769 2.23544 3.51189 0
M  V30 1876 H 179.302 3.31443 2.19978 0
M  V30 1877 H 176.041 6.29068 1.84264 0
M  V30 1878 H 175.561 5.13233 3.10406 0
M  V30 1879 H 177.24 5.72099 3.02177 0
M  V30 1880 N 177.372 -0.689602 1.41712 0
M  V30 1881 C 178.304 -1.815 1.39966 0
M  V30 1882 C 179.317 -1.59995 0.300917 0
M  V30 1883 O 180.506 -1.69387 0.563039 0
M  V30 1884 C 177.606 -3.18364 1.16179 0
M  V30 1885 C 176.779 -3.66847 2.38206 0
M  V30 1886 C 175.838 -4.82398 2.10186 0
M  V30 1887 O 174.864 -4.93706 2.83272 0
M  V30 1888 N 176.066 -5.70064 1.0958 0
M  V30 1889 H 178.831 -1.83488 2.36965 0
M  V30 1890 H 176.392 -0.872149 1.36401 0
M  V30 1891 H 178.384 -3.93301 0.953756 0
M  V30 1892 H 176.954 -3.11365 0.27756 0
M  V30 1893 H 176.174 -2.82751 2.74673 0
M  V30 1894 H 177.462 -3.95978 3.19498 0
M  V30 1895 H 176.86 -5.63565 0.491019 0
M  V30 1896 H 175.417 -6.44874 0.947656 0
M  V30 1897 N 178.85 -1.27639 -0.924453 0
M  V30 1898 C 179.813 -1.10681 -2.00705 0
M  V30 1899 C 180.813 -0.0497823 -1.60723 0
M  V30 1900 O 182.003 -0.294654 -1.7169 0
M  V30 1901 C 179.135 -0.687164 -3.33902 0
M  V30 1902 H 180.328 -2.06817 -2.17179 0
M  V30 1903 H 177.881 -1.10473 -1.10569 0
M  V30 1904 H 178.616 0.275439 -3.23128 0
M  V30 1905 H 178.401 -1.45061 -3.6428 0
M  V30 1906 H 179.891 -0.590853 -4.13399 0
M  V30 1907 N 180.328 1.1314 -1.09713 0
M  V30 1908 C 181.605 1.80762 -0.747302 0
M  V30 1909 C 181.985 1.96663 0.767265 0
M  V30 1910 O 181.333 1.53706 1.69076 0
M  V30 1911 C 181.543 3.15606 -1.48975 0
M  V30 1912 C 182.891 3.90914 -1.65746 0
M  V30 1913 O 183.915 3.25239 -1.45251 0
M  V30 1914 O 182.774 5.08718 -1.9967 0
M  V30 1915 H 179.868 0.782103 -0.268782 0
M  V30 1916 H 182.414 1.20041 -1.19951 0
M  V30 1917 H 181.186 2.99278 -2.52088 0
M  V30 1918 H 180.809 3.84029 -1.02991 0
M  V30 1919 N 181.806 0.884767 1.30421 0
M  V30 1920 C 183.054 0.502112 1.95763 0
M  V30 1921 C 183.375 -0.951815 1.70192 0
M  V30 1922 O 182.645 -1.6692 1.0254 0
M  V30 1923 H 181.225 0.182694 0.724315 0
M  V30 1924 H 183.887 1.1278 1.58955 0
M  V30 1925 H 182.983 0.672188 3.04775 0
M  V30 1926 N 183.284 -1.43765 0.645699 0
M  V30 1927 C 184.532 -2.01499 0.155731 0
M  V30 1928 C 184.853 -1.51151 -1.232 0
M  V30 1929 O 184.123 -0.721044 -1.82148 0
M  V30 1930 H 182.703 -0.745003 0.0545817 0
M  V30 1931 H 185.365 -1.76075 0.835677 0
M  V30 1932 H 184.461 -3.1181 0.134577 0
M  V30 1933 N 184.763 -0.387143 -1.52771 0
M  V30 1934 C 185.991 0.195869 -2.05971 0
M  V30 1935 C 186.406 1.40691 -1.25903 0
M  V30 1936 O 185.763 1.79931 -0.305134 0
M  V30 1937 C 185.814 0.56812 -3.57008 0
M  V30 1938 O 185.535 -0.594803 -4.34043 0
M  V30 1939 C 187.036 1.20723 -4.26545 0
M  V30 1940 H 184.256 0.0300578 -0.670326 0
M  V30 1941 H 186.8 -0.551749 -1.96916 0
M  V30 1942 H 184.955 1.26564 -3.66143 0
M  V30 1943 H 185.369 -0.289322 -5.23701 0
M  V30 1944 H 186.843 1.41807 -5.33474 0
M  V30 1945 H 187.32 2.17395 -3.81623 0
M  V30 1946 H 187.926 0.550535 -4.21722 0
M  V30 1947 N 186.241 1.57166 -0.116904 0
M  V30 1948 C 187.657 1.5779 0.239693 0
M  V30 1949 C 187.857 1.1295 1.66867 0
M  V30 1950 O 186.913 0.81592 2.38954 0
M  V30 1951 C 188.226 3.00699 0.00828202 0
M  V30 1952 C 189.774 3.12912 0.0743438 0
M  V30 1953 C 190.249 4.57817 -0.129348 0
M  V30 1954 N 191.74 4.63139 -0.075247 0
M  V30 1955 C 192.475 5.73023 -0.207788 0
M  V30 1956 N 191.971 6.91665 -0.396382 0
M  V30 1957 N 193.764 5.61906 -0.14751 0
M  V30 1958 H 185.915 1.84615 -1.05029 0
M  V30 1959 H 188.178 0.85311 -0.41341 0
M  V30 1960 H 187.884 3.37784 -0.979531 0
M  V30 1961 H 187.758 3.69848 0.741077 0
M  V30 1962 H 190.145 2.75686 1.05268 0
M  V30 1963 H 190.226 2.4631 -0.690297 0
M  V30 1964 H 189.87 4.95742 -1.10465 0
M  V30 1965 H 189.8 5.22507 0.655253 0
M  V30 1966 H 192.291 3.7784 0.0670898 0
M  V30 1967 H 192.604 7.71255 -0.488437 0
M  V30 1968 H 190.949 6.93654 -0.432329 0
M  V30 1969 H 194.14 4.681 -0.00115036 0
M  V30 1970 H 194.313 6.47501 -0.254247 0
M  V30 1971 N 187.719 -0.156864 1.56817 0
M  V30 1972 C 188.947 -0.886316 1.86955 0
M  V30 1973 C 189.362 -1.75185 0.703975 0
M  V30 1974 O 188.719 -1.79555 -0.326552 0
M  V30 1975 C 188.77 -1.75117 3.16253 0
M  V30 1976 O 188.491 -0.920537 4.2832 0
M  V30 1977 C 189.992 -2.58905 3.59837 0
M  V30 1978 H 187.212 -0.25678 0.619923 0
M  V30 1979 H 189.756 -0.152615 2.0393 0
M  V30 1980 H 187.911 -2.43805 3.01062 0
M  V30 1981 H 188.325 -1.51337 5.02192 0
M  V30 1982 H 189.799 -3.1518 4.53172 0
M  V30 1983 H 190.276 -3.34472 2.84649 0
M  V30 1984 H 190.882 -1.95526 3.7769 0
M  V30 1985 N 189.197 -1.51736 -0.425897 0
M  V30 1986 C 190.16 -1.73271 -1.50032 0
M  V30 1987 C 191.16 -0.602639 -1.4908 0
M  V30 1988 O 192.35 -0.87033 -1.509 0
M  V30 1989 C 189.482 -1.79969 -2.89523 0
M  V30 1990 H 190.675 -2.69172 -1.32237 0
M  V30 1991 H 188.228 -1.41899 -0.65532 0
M  V30 1992 H 188.963 -0.859241 -3.1271 0
M  V30 1993 H 188.748 -2.62109 -2.91619 0
M  V30 1994 H 190.238 -1.9843 -3.67444 0
M  V30 1995 N 190.675 0.682077 -1.42076 0
M  V30 1996 C 191.9 1.47558 -1.45744 0
M  V30 1997 C 192.325 1.87977 -0.0680981 0
M  V30 1998 O 191.683 1.55522 0.9318 0
M  V30 1999 C 191.731 2.70575 -2.38373 0
M  V30 2000 O 190.835 3.68573 -1.85007 0
M  V30 2001 H 190.176 0.443585 -0.494093 0
M  V30 2002 H 192.706 0.837238 -1.86686 0
M  V30 2003 H 192.716 3.18729 -2.54707 0
M  V30 2004 H 191.391 2.40495 -3.39315 0
M  V30 2005 H 189.968 3.2757 -1.78192 0
M  V30 2006 N 192.153 1.28127 0.917671 0
M  V30 2007 C 193.402 1.14432 1.66097 0
M  V30 2008 C 193.715 -0.307247 1.93172 0
M  V30 2009 O 194.921 -0.565259 2.65551 0
M  V30 2010 C 193.377 2.00015 2.99202 0
M  V30 2011 C 192.985 3.49889 2.79789 0
M  V30 2012 C 194.729 1.94996 3.77064 0
M  V30 2013 C 192.636 4.27636 4.08511 0
M  V30 2014 H 191.566 0.424662 0.62304 0
M  V30 2015 H 194.217 1.52628 1.01868 0
M  V30 2016 H 192.599 1.54672 3.64544 0
M  V30 2017 H 193.773 4.03162 2.23152 0
M  V30 2018 H 192.088 3.56392 2.15345 0
M  V30 2019 H 194.685 2.50354 4.72469 0
M  V30 2020 H 195.028 0.925819 4.05875 0
M  V30 2021 H 195.561 2.38287 3.18534 0
M  V30 2022 H 192.3 5.30615 3.84874 0
M  V30 2023 H 191.82 3.79137 4.64774 0
M  V30 2024 H 193.499 4.37346 4.76799 0
M  V30 2025 N 193.631 -1.12557 1.10312 0
M  V30 2026 C 194.859 -1.87864 0.866873 0
M  V30 2027 C 195.274 -1.79588 -0.582557 0
M  V30 2028 O 194.631 -1.16887 -1.40156 0
M  V30 2029 C 194.682 -3.37125 1.30496 0
M  V30 2030 O 194.403 -3.45201 2.69755 0
M  V30 2031 C 195.904 -4.29373 1.10243 0
M  V30 2032 H 193.124 -0.594452 0.311236 0
M  V30 2033 H 195.668 -1.42429 1.46745 0
M  V30 2034 H 193.823 -3.80109 0.748081 0
M  V30 2035 H 194.237 -4.38056 2.88457 0
M  V30 2036 H 195.711 -5.32394 1.45811 0
M  V30 2037 H 196.188 -4.39181 0.0409492 0
M  V30 2038 H 196.794 -3.92169 1.64571 0
M  V30 2039 N 195.109 -0.891671 -1.2995 0
M  V30 2040 C 196.357 -0.512486 -1.95494 0
M  V30 2041 C 196.678 0.942776 -1.70695 0
M  V30 2042 O 195.948 1.66374 -1.03424 0
M  V30 2043 H 194.528 -0.186533 -0.723336 0
M  V30 2044 H 197.19 -1.13621 -1.58355 0
M  V30 2045 H 196.286 -0.688342 -3.04415 0
M  V30 2046 N 196.587 1.43421 -0.653314 0
M  V30 2047 C 197.55 2.29182 0.0287951 0
M  V30 2048 C 198.55 1.42213 0.750465 0
M  V30 2049 O 199.74 1.63843 0.591701 0
M  V30 2050 C 196.872 3.24278 1.05151 0
M  V30 2051 H 198.065 2.90985 -0.725786 0
M  V30 2052 H 195.618 1.50702 -0.414545 0
M  V30 2053 H 196.353 2.6737 1.83532 0
M  V30 2054 H 196.138 3.88396 0.537687 0
M  V30 2055 H 197.628 3.88647 1.52786 0
M  V30 2056 N 198.065 0.39524 1.52563 0
M  V30 2057 C 199.293 -0.184943 2.06072 0
M  V30 2058 C 199.708 -1.40021 1.26647 0
M  V30 2059 O 199.065 -1.79767 0.314672 0
M  V30 2060 C 199.116 -0.549179 3.57304 0
M  V30 2061 O 198.837 0.617813 4.33722 0
M  V30 2062 C 200.338 -1.18459 4.2718 0
M  V30 2063 H 197.558 -0.0265025 0.670476 0
M  V30 2064 H 200.102 0.562184 1.96621 0
M  V30 2065 H 198.257 -1.2462 3.66809 0
M  V30 2066 H 198.671 0.317091 5.23541 0
M  V30 2067 H 200.145 -1.38976 5.34219 0
M  V30 2068 H 200.622 -2.15368 3.82771 0
M  V30 2069 H 201.228 -0.528163 4.22008 0
M  V30 2070 N 199.544 -1.57102 0.125237 0
M  V30 2071 C 200.79 -1.95697 -0.532035 0
M  V30 2072 C 201.123 -1.009 -1.6593 0
M  V30 2073 O 200.398 -0.047347 -1.94442 0
M  V30 2074 C 200.681 -3.44181 -1.05884 0
M  V30 2075 C 200.534 -4.49752 0.0654392 0
M  V30 2076 C 201.853 -3.94655 -1.9477 0
M  V30 2077 H 198.972 -0.711571 -0.191925 0
M  V30 2078 H 201.614 -1.88923 0.20206 0
M  V30 2079 H 199.764 -3.50085 -1.68442 0
M  V30 2080 H 201.436 -4.55943 0.700982 0
M  V30 2081 H 199.679 -4.27653 0.727709 0
M  V30 2082 H 200.35 -5.50924 -0.344505 0
M  V30 2083 H 202.826 -3.91094 -1.42074 0
M  V30 2084 H 201.702 -4.99057 -2.28546 0
M  V30 2085 H 201.963 -3.35718 -2.87656 0
M  V30 2086 N 201.022 0.148545 -1.56898 0
M  V30 2087 C 201.985 1.16736 -1.97244 0
M  V30 2088 C 202.985 1.35947 -0.858777 0
M  V30 2089 O 204.175 1.32966 -1.12542 0
M  V30 2090 C 201.307 2.52798 -2.28705 0
M  V30 2091 H 202.5 0.821279 -2.88435 0
M  V30 2092 H 200.053 0.391831 -1.51309 0
M  V30 2093 H 200.788 2.92381 -1.403 0
M  V30 2094 H 200.573 2.40216 -3.09901 0
M  V30 2095 H 202.063 3.26179 -2.60762 0
M  V30 2096 N 202.5 1.5196 0.417844 0
M  V30 2097 C 203.43 1.77634 1.51554 0
M  V30 2098 C 204.411 0.626918 1.58126 0
M  V30 2099 O 205.596 0.871632 1.7354 0
M  V30 2100 C 202.726 1.91911 2.8946 0
M  V30 2101 C 201.68 3.07463 2.97743 0
M  V30 2102 C 201.006 3.06951 4.37819 0
M  V30 2103 C 202.306 4.47082 2.70027 0
M  V30 2104 H 204 2.6955 1.3032 0
M  V30 2105 H 201.546 1.29706 0.625492 0
M  V30 2106 H 203.499 2.08455 3.6623 0
M  V30 2107 H 202.223 0.966598 3.11969 0
M  V30 2108 H 200.882 2.90656 2.23416 0
M  V30 2109 H 200.53 2.09438 4.57323 0
M  V30 2110 H 200.23 3.84556 4.44286 0
M  V30 2111 H 201.754 3.25613 5.16535 0
M  V30 2112 H 203.168 4.6414 3.36522 0
M  V30 2113 H 201.565 5.2654 2.87881 0
M  V30 2114 H 202.635 4.55777 1.65514 0
M  V30 2115 N 203.978 -0.674533 1.42435 0
M  V30 2116 C 205.227 -1.43034 1.42212 0
M  V30 2117 C 205.54 -1.95555 0.0420788 0
M  V30 2118 O 206.746 -2.71374 -0.0827558 0
M  V30 2119 C 205.202 -2.58748 2.50155 0
M  V30 2120 C 204.81 -2.12925 3.94166 0
M  V30 2121 C 206.554 -3.36257 2.59098 0
M  V30 2122 C 204.461 -3.25723 4.93618 0
M  V30 2123 H 203.391 -0.537345 0.528939 0
M  V30 2124 H 206.042 -0.73024 1.68344 0
M  V30 2125 H 204.424 -3.31128 2.17188 0
M  V30 2126 H 205.598 -1.47697 4.36488 0
M  V30 2127 H 203.913 -1.48354 3.89076 0
M  V30 2128 H 206.51 -4.20264 3.30578 0
M  V30 2129 H 206.853 -3.82866 1.63461 0
M  V30 2130 H 207.386 -2.70947 2.9126 0
M  V30 2131 H 204.125 -2.84105 5.90732 0
M  V30 2132 H 203.645 -3.89732 4.55926 0
M  V30 2133 H 205.324 -3.91186 5.15347 0
M  V30 2134 N 205.456 -1.28612 -0.910864 0
M  V30 2135 C 206.733 -1.06632 -1.63979 0
M  V30 2136 C 207.113 0.393351 -2.07403 0
M  V30 2137 O 206.461 1.37999 -1.82122 0
M  V30 2138 C 206.671 -2.0436 -2.8291 0
M  V30 2139 C 208.019 -2.34666 -3.5386 0
M  V30 2140 O 209.043 -2.02467 -2.93062 0
M  V30 2141 O 207.902 -2.89631 -4.63439 0
M  V30 2142 H 204.996 -0.407737 -0.7195 0
M  V30 2143 H 207.542 -1.39942 -0.959914 0
M  V30 2144 H 206.314 -3.02727 -2.47936 0
M  V30 2145 H 205.937 -1.71714 -3.58609 0
M  V30 2146 N 206.934 1.1197 -1.10907 0
M  V30 2147 C 207.897 2.16031 -0.765707 0
M  V30 2148 C 208.897 1.59393 0.212235 0
M  V30 2149 O 210.087 1.74196 -0.0115441 0
M  V30 2150 C 207.219 3.40632 -0.135053 0
M  V30 2151 H 208.412 2.47919 -1.68748 0
M  V30 2152 H 205.965 1.27061 -0.910226 0
M  V30 2153 H 206.7 3.14348 0.797218 0
M  V30 2154 H 206.485 3.8302 -0.838937 0
M  V30 2155 H 207.975 4.17505 0.0892469 0
M  V30 2156 N 208.412 0.89855 1.29475 0
M  V30 2157 C 209.342 0.39201 2.30186 0
M  V30 2158 C 210.323 -0.532359 1.61555 0
M  V30 2159 O 211.508 -0.443331 1.89072 0
M  V30 2160 C 208.638 -0.382353 3.45189 0
M  V30 2161 C 207.592 0.451483 4.25612 0
M  V30 2162 C 206.918 -0.450307 5.328 0
M  V30 2163 C 208.218 1.70079 4.93832 0
M  V30 2164 H 209.912 1.23362 2.72804 0
M  V30 2165 H 207.458 0.594638 1.31149 0
M  V30 2166 H 209.411 -0.747451 4.14718 0
M  V30 2167 H 208.135 -1.25774 3.01411 0
M  V30 2168 H 206.794 0.798897 3.57789 0
M  V30 2169 H 206.442 -1.32379 4.85268 0
M  V30 2170 H 206.142 0.103902 5.87508 0
M  V30 2171 H 207.666 -0.811623 6.05182 0
M  V30 2172 H 209.08 1.40549 5.55805 0
M  V30 2173 H 207.477 2.19623 5.58467 0
M  V30 2174 H 208.547 2.43744 4.19186 0
M  V30 2175 N 209.89 -1.43072 0.660911 0
M  V30 2176 C 210.853 -2.29194 -0.0166406 0
M  V30 2177 C 211.853 -1.42609 -0.742912 0
M  V30 2178 O 213.043 -1.64155 -0.583004 0
M  V30 2179 C 210.175 -3.24831 -1.0343 0
M  V30 2180 H 211.368 -2.90596 0.741208 0
M  V30 2181 H 208.921 -1.5048 0.422532 0
M  V30 2182 H 209.656 -2.68339 -1.82111 0
M  V30 2183 H 209.441 -3.88676 -0.517082 0
M  V30 2184 H 210.931 -3.89451 -1.50723 0
M  V30 2185 N 211.368 -0.403325 -1.52352 0
M  V30 2186 C 212.614 0.174605 -2.02047 0
M  V30 2187 C 212.947 1.45282 -1.28867 0
M  V30 2188 O 212.222 1.90483 -0.393257 0
M  V30 2189 C 212.505 0.428238 -3.57545 0
M  V30 2190 C 212.358 -0.866248 -4.4138 0
M  V30 2191 C 213.677 1.21287 -4.23057 0
M  V30 2192 H 210.796 0.0619851 -0.734389 0
M  V30 2193 H 213.438 -0.53565 -1.82293 0
M  V30 2194 H 211.588 1.03327 -3.74507 0
M  V30 2195 H 213.26 -1.50265 -4.3614 0
M  V30 2196 H 211.503 -1.47851 -4.07827 0
M  V30 2197 H 212.174 -0.643249 -5.48239 0
M  V30 2198 H 214.65 0.700703 -4.10158 0
M  V30 2199 H 213.526 1.35909 -5.31808 0
M  V30 2200 H 213.787 2.23193 -3.81625 0
M  V30 2201 N 212.846 1.57033 -0.133567 0
M  V30 2202 C 213.776 2.1909 0.807567 0
M  V30 2203 C 214.757 1.13517 1.26681 0
M  V30 2204 O 215.942 1.41809 1.32679 0
M  V30 2205 C 213.072 2.80188 2.05212 0
M  V30 2206 C 212.026 3.91471 1.73015 0
M  V30 2207 C 211.352 4.39443 3.04622 0
M  V30 2208 C 212.652 5.12886 0.987168 0
M  V30 2209 H 214.346 2.97988 0.290403 0
M  V30 2210 H 211.892 1.43335 0.138239 0
M  V30 2211 H 213.845 3.22264 2.71521 0
M  V30 2212 H 212.569 1.98601 2.59278 0
M  V30 2213 H 211.228 3.49993 1.0909 0
M  V30 2214 H 210.876 3.54695 3.56651 0
M  V30 2215 H 210.576 5.14495 2.83847 0
M  V30 2216 H 212.1 4.8418 3.72024 0
M  V30 2217 H 213.514 5.51891 1.55208 0
M  V30 2218 H 211.911 5.93615 0.87985 0
M  V30 2219 H 212.981 4.84894 -0.0235286 0
M  V30 2220 N 214.325 -0.140222 1.56975 0
M  V30 2221 C 215.272 -1.17292 1.98774 0
M  V30 2222 C 216.242 -1.4232 0.856408 0
M  V30 2223 O 217.427 -1.54541 1.119 0
M  V30 2224 C 214.567 -2.49973 2.37923 0
M  V30 2225 C 213.68 -2.32062 3.64378 0
M  V30 2226 C 212.815 -3.57825 3.926 0
M  V30 2227 C 211.854 -3.3498 5.12303 0
M  V30 2228 N 210.991 -4.52891 5.36502 0
M  V30 2229 H 215.831 -0.809472 2.86795 0
M  V30 2230 H 213.368 -0.388237 1.41884 0
M  V30 2231 H 215.326 -3.27346 2.58652 0
M  V30 2232 H 213.956 -2.84252 1.52972 0
M  V30 2233 H 213.008 -1.45711 3.51387 0
M  V30 2234 H 214.32 -2.11145 4.51906 0
M  V30 2235 H 213.474 -4.43624 4.13863 0
M  V30 2236 H 212.213 -3.81753 3.03506 0
M  V30 2237 H 211.218 -2.4757 4.90906 0
M  V30 2238 H 212.443 -3.12444 6.02956 0
M  V30 2239 H 210.389 -4.76979 4.50363 0
M  V30 2240 H 210.306 -4.35001 6.18312 0
M  V30 2241 H 211.574 -5.39884 5.62268 0
M  V30 2242 N 215.803 -1.52179 -0.40978 0
M  V30 2243 C 216.75 -1.75475 -1.49924 0
M  V30 2244 C 217.72 -0.597175 -1.54994 0
M  V30 2245 O 218.905 -0.834655 -1.71575 0
M  V30 2246 C 216.045 -1.9107 -2.87378 0
M  V30 2247 C 215.158 -3.18717 -2.91622 0
M  V30 2248 C 214.293 -3.24747 -4.20372 0
M  V30 2249 C 213.332 -4.46598 -4.18588 0
M  V30 2250 N 212.469 -4.50025 -5.38908 0
M  V30 2251 H 217.309 -2.68458 -1.29361 0
M  V30 2252 H 214.846 -1.33024 -0.627934 0
M  V30 2253 H 216.804 -1.98096 -3.6717 0
M  V30 2254 H 215.434 -1.01469 -3.06437 0
M  V30 2255 H 214.486 -3.20866 -2.04326 0
M  V30 2256 H 215.798 -4.08544 -2.86169 0
M  V30 2257 H 214.952 -3.30841 -5.08556 0
M  V30 2258 H 213.691 -2.32857 -4.28519 0
M  V30 2259 H 212.696 -4.40652 -3.28794 0
M  V30 2260 H 213.921 -5.39783 -4.12081 0
M  V30 2261 H 211.867 -3.61017 -5.47725 0
M  V30 2262 H 211.784 -5.33697 -5.35447 0
M  V30 2263 H 213.052 -4.60347 -6.29048 0
M  V30 2264 N 217.281 0.66697 -1.42791 0
M  V30 2265 C 218.697 0.981027 -1.25889 0
M  V30 2266 C 218.897 2.00793 -0.168695 0
M  V30 2267 O 217.953 2.48321 0.45747 0
M  V30 2268 C 219.266 1.47838 -2.61848 0
M  V30 2269 C 220.814 1.59575 -2.69267 0
M  V30 2270 C 221.289 2.12704 -4.05612 0
M  V30 2271 N 222.78 2.20026 -4.07606 0
M  V30 2272 C 223.515 2.62227 -5.09926 0
M  V30 2273 N 223.011 3.03824 -6.22626 0
M  V30 2274 N 224.804 2.62045 -4.97281 0
M  V30 2275 H 216.955 -0.0127891 -2.12396 0
M  V30 2276 H 219.218 0.0568258 -0.946295 0
M  V30 2277 H 218.924 0.798299 -3.4252 0
M  V30 2278 H 218.798 2.45579 -2.86305 0
M  V30 2279 H 221.185 2.26687 -1.88936 0
M  V30 2280 H 221.266 0.60302 -2.48591 0
M  V30 2281 H 220.91 1.46198 -4.86404 0
M  V30 2282 H 220.84 3.12782 -4.23645 0
M  V30 2283 H 223.331 1.90708 -3.2625 0
M  V30 2284 H 223.644 3.34734 -6.96544 0
M  V30 2285 H 221.989 3.01662 -6.26119 0
M  V30 2286 H 225.18 2.28916 -4.08308 0
M  V30 2287 H 225.353 2.94613 -5.77154 0
M  V30 2288 N 218.759 1.29093 0.90403 0
M  V30 2289 C 220.007 1.16583 1.65085 0
M  V30 2290 C 220.328 -0.283933 1.92922 0
M  V30 2291 O 219.598 -1.19509 1.55224 0
M  V30 2292 H 218.178 0.428467 0.611903 0
M  V30 2293 H 220.84 1.61959 1.08422 0
M  V30 2294 H 219.936 1.71266 2.6091 0
M  V30 2295 N 220.237 -1.11381 1.11499 0
M  V30 2296 C 221.2 -2.15622 0.777153 0
M  V30 2297 C 222.2 -1.59504 -0.203779 0
M  V30 2298 O 223.39 -1.74188 0.020782 0
M  V30 2299 C 220.522 -3.40556 0.153116 0
M  V30 2300 H 221.715 -2.47021 1.70061 0
M  V30 2301 H 219.268 -1.26577 0.916952 0
M  V30 2302 H 220.003 -3.14767 -0.780536 0
M  V30 2303 H 219.788 -3.8257 0.859238 0
M  V30 2304 H 221.278 -4.17546 -0.0671044 0
M  V30 2305 N 221.715 -0.905404 -1.28997 0
M  V30 2306 C 222.645 -0.404212 -2.29975 0
M  V30 2307 C 223.626 0.523784 -1.61835 0
M  V30 2308 O 224.811 0.433298 -1.89304 0
M  V30 2309 C 221.941 0.364042 -3.45387 0
M  V30 2310 C 220.895 -0.474048 -4.25367 0
M  V30 2311 C 220.221 0.422045 -5.33032 0
M  V30 2312 C 221.521 -1.72696 -4.92923 0
M  V30 2313 H 223.215 -1.24807 -2.72146 0
M  V30 2314 H 220.761 -0.601585 -1.30832 0
M  V30 2315 H 222.714 0.725447 -4.15109 0
M  V30 2316 H 221.438 1.24174 -3.02074 0
M  V30 2317 H 220.097 -0.81786 -3.57361 0
M  V30 2318 H 219.745 1.29804 -4.85963 0
M  V30 2319 H 219.445 -0.135057 -5.87445 0
M  V30 2320 H 220.969 0.779517 -6.05604 0
M  V30 2321 H 222.383 -1.43495 -5.55051 0
M  V30 2322 H 220.78 -2.22582 -5.57295 0
M  V30 2323 H 221.85 -2.45964 -4.17887 0
M  V30 2324 N 223.193 1.4272 -0.668489 0
M  V30 2325 C 224.14 2.30796 0.0137489 0
M  V30 2326 C 225.11 1.4561 0.799177 0
M  V30 2327 O 226.295 1.74453 0.772702 0
M  V30 2328 C 223.435 3.31377 0.963507 0
M  V30 2329 C 222.548 4.31655 0.172569 0
M  V30 2330 C 221.683 5.19312 1.1175 0
M  V30 2331 C 220.722 6.11274 0.317886 0
M  V30 2332 N 219.859 6.91504 1.2152 0
M  V30 2333 H 224.699 2.88585 -0.743161 0
M  V30 2334 H 222.236 1.42154 -0.378226 0
M  V30 2335 H 224.194 3.88214 1.52792 0
M  V30 2336 H 222.824 2.75202 1.68712 0
M  V30 2337 H 221.876 3.76988 -0.508374 0
M  V30 2338 H 223.188 4.96779 -0.448527 0
M  V30 2339 H 222.342 5.80851 1.75206 0
M  V30 2340 H 221.081 4.5435 1.77249 0
M  V30 2341 H 220.086 5.48809 -0.329918 0
M  V30 2342 H 221.311 6.78283 -0.332917 0
M  V30 2343 H 219.257 6.29176 1.85671 0
M  V30 2344 H 219.174 7.53209 0.649036 0
M  V30 2345 H 220.442 7.57535 1.83742 0
M  V30 2346 N 224.671 0.411399 1.52136 0
M  V30 2347 C 225.919 -0.163322 2.01439 0
M  V30 2348 C 226.24 -1.45453 1.29879 0
M  V30 2349 O 225.51 -1.91225 0.4254 0
M  V30 2350 H 224.09 -0.0633447 0.744309 0
M  V30 2351 H 226.752 0.548161 1.87033 0
M  V30 2352 H 225.848 -0.357817 3.10042 0
M  V30 2353 N 226.149 -1.5696 0.141893 0
M  V30 2354 C 227.097 -2.17784 -0.816874 0
M  V30 2355 C 228.091 -1.1334 -1.25899 0
M  V30 2356 O 229.297 -1.316 -1.22806 0
M  V30 2357 H 225.672 -0.697278 -0.281615 0
M  V30 2358 H 227.643 -2.97087 -0.279621 0
M  V30 2359 C 226.392 -2.80983 -2.04802 0
M  V30 2360 H 225.715 -3.61062 -1.7168 0
M  V30 2361 H 227.155 -3.2705 -2.69841 0
M  V30 2362 C 225.614 -1.79228 -2.8527 0
M  V30 2363 O 226.144 -1.25962 -3.8144 0
M  V30 2364 N 224.35 -1.48647 -2.49704 0
M  V30 2365 H 223.897 -1.92155 -1.71564 0
M  V30 2366 H 223.855 -0.808115 -3.03837 0
M  V30 2367 N 227.627 0.131896 -1.57047 0
M  V30 2368 C 229.038 0.690407 -1.73465 0
M  V30 2369 C 229.389 1.8094 -0.758629 0
M  V30 2370 O 228.514 2.16282 0.0713813 0
M  V30 2371 C 229.109 1.25916 -3.14532 0
M  V30 2372 C 227.668 1.76409 -3.32501 0
M  V30 2373 C 226.815 0.658579 -2.69366 0
M  V30 2374 H 229.766 -0.0939144 -1.58422 0
M  V30 2375 H 229.787 2.12892 -3.15369 0
M  V30 2376 H 229.299 0.444515 -3.85546 0
M  V30 2377 H 227.4 2.60391 -2.66509 0
M  V30 2378 H 227.513 1.88241 -4.4057 0
M  V30 2379 H 225.877 1.08899 -2.30246 0
M  V30 2380 H 226.66 -0.14487 -3.42994 0
M  V30 2381 N 229.106 1.52395 0.401703 0
M  V30 2382 C 230.036 1.79231 1.49661 0
M  V30 2383 C 231.017 0.643654 1.57452 0
M  V30 2384 O 232.202 0.889989 1.72606 0
M  V30 2385 C 229.332 1.94971 2.87409 0
M  V30 2386 C 228.286 3.10604 2.94465 0
M  V30 2387 C 227.612 3.11577 4.34538 0
M  V30 2388 C 228.912 4.49921 2.6527 0
M  V30 2389 H 230.606 2.70917 1.27454 0
M  V30 2390 H 228.152 1.30362 0.6117 0
M  V30 2391 H 230.105 2.12328 3.63999 0
M  V30 2392 H 228.829 0.999632 3.10926 0
M  V30 2393 H 227.488 2.93009 2.20321 0
M  V30 2394 H 227.136 2.14277 4.55076 0
M  V30 2395 H 226.836 3.89247 4.40183 0
M  V30 2396 H 228.36 3.31073 5.13053 0
M  V30 2397 H 229.774 4.67683 3.31581 0
M  V30 2398 H 228.171 5.29564 2.82281 0
M  V30 2399 H 229.241 4.57507 1.60671 0
M  V30 2400 N 230.584 -0.659388 1.43143 0
M  V30 2401 C 231.531 -1.77249 1.47822 0
M  V30 2402 C 232.501 -1.62818 0.328558 0
M  V30 2403 O 233.686 -1.83151 0.534838 0
M  V30 2404 C 230.826 -3.15371 1.40126 0
M  V30 2405 C 229.939 -3.4098 2.65249 0
M  V30 2406 C 229.074 -4.68915 2.49584 0
M  V30 2407 C 228.113 -4.87608 3.70006 0
M  V30 2408 N 227.25 -6.06796 3.53189 0
M  V30 2409 H 232.09 -1.72584 2.42938 0
M  V30 2410 H 229.627 -0.842297 1.20598 0
M  V30 2411 H 231.585 -3.9521 1.33659 0
M  V30 2412 H 230.215 -3.19121 0.485964 0
M  V30 2413 H 229.267 -2.55282 2.8202 0
M  V30 2414 H 230.579 -3.50681 3.54717 0
M  V30 2415 H 229.733 -5.56871 2.4079 0
M  V30 2416 H 228.472 -4.61524 1.5763 0
M  V30 2417 H 227.477 -3.9809 3.79215 0
M  V30 2418 H 228.702 -4.96834 4.62961 0
M  V30 2419 H 226.648 -6.00549 2.63965 0
M  V30 2420 H 226.565 -6.17428 4.36255 0
M  V30 2421 H 227.833 -6.9739 3.48236 0
M  V30 2422 N 232.062 -1.29571 -0.897171 0
M  V30 2423 C 232.994 -1.10724 -2.00681 0
M  V30 2424 C 234.007 -0.0540026 -1.6271 0
M  V30 2425 O 235.196 -0.298783 -1.75982 0
M  V30 2426 C 232.296 -0.663912 -3.32333 0
M  V30 2427 C 231.469 -1.79622 -3.98816 0
M  V30 2428 C 230.528 -1.34349 -5.0876 0
M  V30 2429 O 229.554 -2.04864 -5.31055 0
M  V30 2430 N 230.756 -0.215764 -5.80099 0
M  V30 2431 H 233.521 -2.06291 -2.17403 0
M  V30 2432 H 231.082 -1.21544 -1.06951 0
M  V30 2433 H 233.074 -0.344295 -4.03233 0
M  V30 2434 H 231.644 0.199375 -3.11964 0
M  V30 2435 H 230.864 -2.28459 -3.21248 0
M  V30 2436 H 232.152 -2.55535 -4.39976 0
M  V30 2437 H 231.55 0.372091 -5.64475 0
M  V30 2438 H 230.107 0.0444707 -6.51785 0
M  V30 2439 N 233.54 1.10788 -1.12088 0
M  V30 2440 C 234.473 2.16237 -0.729168 0
M  V30 2441 C 235.451 1.60207 0.277921 0
M  V30 2442 O 236.635 1.87707 0.172737 0
M  V30 2443 C 233.762 3.38609 -0.0786848 0
M  V30 2444 C 232.808 4.13322 -1.05201 0
M  V30 2445 S 233.641 4.69371 -2.57781 0
M  V30 2446 C 234.797 5.95058 -1.94053 0
M  V30 2447 H 235.03 2.4913 -1.62239 0
M  V30 2448 H 232.563 1.22519 -0.939603 0
M  V30 2449 H 234.521 4.09473 0.290254 0
M  V30 2450 H 233.182 3.03962 0.791593 0
M  V30 2451 H 232.375 5.01051 -0.544433 0
M  V30 2452 H 231.977 3.48251 -1.36371 0
M  V30 2453 H 234.269 6.65278 -1.28107 0
M  V30 2454 H 235.212 6.50472 -2.79807 0
M  V30 2455 H 235.62 5.46918 -1.39787 0
M  V30 2456 N 235.018 0.912232 1.28515 0
M  V30 2457 C 236.264 0.545405 1.95328 0
M  V30 2458 C 236.597 -0.908313 1.71649 0
M  V30 2459 O 235.872 -1.64575 1.03659 0
M  V30 2460 C 236.155 0.853483 3.4984 0
M  V30 2461 C 236.008 2.35982 3.82926 0
M  V30 2462 C 237.327 0.348589 4.38717 0
M  V30 2463 H 234.446 0.199626 0.709449 0
M  V30 2464 H 237.088 1.1412 1.5191 0
M  V30 2465 H 235.238 0.34643 3.86952 0
M  V30 2466 H 236.91 2.93738 3.55691 0
M  V30 2467 H 235.153 2.81543 3.30024 0
M  V30 2468 H 235.824 2.52593 4.90816 0
M  V30 2469 H 238.3 0.78294 4.08668 0
M  V30 2470 H 237.176 0.593242 5.45685 0
M  V30 2471 H 237.437 -0.751049 4.35674 0
M  V30 2472 N 236.496 -1.42363 0.676048 0
M  V30 2473 C 237.459 -2.29199 0.00766941 0
M  V30 2474 C 238.459 -1.43389 -0.727745 0
M  V30 2475 O 239.649 -1.64764 -0.56556 0
M  V30 2476 C 236.781 -3.2591 -0.999785 0
M  V30 2477 H 237.974 -2.89794 0.771988 0
M  V30 2478 H 235.527 -1.50024 0.438468 0
M  V30 2479 H 236.262 -2.70256 -1.79255 0
M  V30 2480 H 236.047 -3.89202 -0.475829 0
M  V30 2481 H 237.537 -3.91028 -1.46583 0
M  V30 2482 N 237.974 -0.419461 -1.51915 0
M  V30 2483 C 238.937 0.389116 -2.25873 0
M  V30 2484 C 239.937 0.964924 -1.28631 0
M  V30 2485 O 241.127 0.842179 -1.52489 0
M  V30 2486 C 238.259 1.54874 -3.03689 0
M  V30 2487 H 239.452 -0.258799 -2.98781 0
M  V30 2488 H 237.005 -0.172209 -1.55348 0
M  V30 2489 H 237.74 2.23323 -2.35154 0
M  V30 2490 H 237.525 1.14223 -3.75094 0
M  V30 2491 H 239.015 2.12046 -3.59759 0
M  V30 2492 N 239.452 1.56882 -0.150215 0
M  V30 2493 C 240.698 1.96518 0.500834 0
M  V30 2494 C 241.031 1.03527 1.64304 0
M  V30 2495 O 240.306 0.0782751 1.94342 0
M  V30 2496 C 240.589 3.45822 1.00395 0
M  V30 2497 C 240.442 4.49591 -0.136983 0
M  V30 2498 C 241.761 3.97704 1.88467 0
M  V30 2499 H 238.88 0.714535 0.18058 0
M  V30 2500 H 241.522 1.88577 -0.232091 0
M  V30 2501 H 239.672 3.5272 1.62851 0
M  V30 2502 H 241.344 4.5477 -0.77343 0
M  V30 2503 H 239.587 4.26441 -0.795652 0
M  V30 2504 H 240.258 5.51402 0.256815 0
M  V30 2505 H 242.734 3.93304 1.35834 0
M  V30 2506 H 241.61 5.0263 2.20578 0
M  V30 2507 H 241.871 3.40252 2.82279 0
M  V30 2508 N 240.93 -0.123565 1.57115 0
M  V30 2509 C 242.155 -0.850398 1.89164 0
M  V30 2510 C 242.58 -1.7286 0.741688 0
M  V30 2511 O 241.938 -1.78665 -0.307958 0
M  V30 2512 C 241.986 -1.66353 3.19936 0
M  V30 2513 O 241.09 -2.77004 3.0552 0
M  V30 2514 H 240.431 -0.235454 0.620852 0
M  V30 2515 H 242.961 -0.107335 2.04318 0
M  V30 2516 H 242.971 -2.05372 3.52543 0
M  V30 2517 H 241.646 -1.01881 4.03228 0
M  V30 2518 H 240.223 -2.41221 2.84371 0
M  V30 2519 N 242.408 -1.52605 -0.393616 0
M  V30 2520 C 243.654 -1.67672 -1.14079 0
M  V30 2521 C 243.987 -0.413121 -1.89755 0
M  V30 2522 O 243.262 0.588952 -1.85369 0
M  V30 2523 C 243.545 -2.9088 -2.12276 0
M  V30 2524 C 243.398 -4.27329 -1.40394 0
M  V30 2525 C 244.717 -3.09628 -3.12759 0
M  V30 2526 H 241.836 -0.610168 -0.413356 0
M  V30 2527 H 244.478 -1.85193 -0.424696 0
M  V30 2528 H 242.628 -2.76073 -2.73342 0
M  V30 2529 H 244.3 -4.53894 -0.82327 0
M  V30 2530 H 242.543 -4.2802 -0.705801 0
M  V30 2531 H 243.214 -5.09615 -2.12123 0
M  V30 2532 H 245.69 -3.23436 -2.61779 0
M  V30 2533 H 244.566 -3.97322 -3.78717 0
M  V30 2534 H 244.827 -2.23637 -3.81365 0
M  V30 2535 N 243.887 0.651787 -1.4349 0
M  V30 2536 C 245.135 1.40888 -1.44897 0
M  V30 2537 C 245.456 1.94856 -0.0749086 0
M  V30 2538 O 244.726 1.74518 0.889956 0
M  V30 2539 H 243.306 0.522887 -0.533478 0
M  V30 2540 H 245.968 0.768609 -1.79104 0
M  V30 2541 H 245.064 2.25052 -2.16236 0
M  V30 2542 N 245.365 1.30045 0.890287 0
M  V30 2543 C 246.614 1.17929 1.63633 0
M  V30 2544 C 246.927 -0.266204 1.9378 0
M  V30 2545 O 248.133 -0.508804 2.6669 0
M  V30 2546 C 246.589 2.06317 2.94892 0
M  V30 2547 C 246.197 3.55745 2.72305 0
M  V30 2548 C 247.941 2.0295 3.72843 0
M  V30 2549 C 245.848 4.36205 3.99348 0
M  V30 2550 H 244.778 0.437782 0.613892 0
M  V30 2551 H 247.429 1.54754 0.986075 0
M  V30 2552 H 245.811 1.6237 3.61182 0
M  V30 2553 H 246.985 4.07805 2.1455 0
M  V30 2554 H 245.3 3.6088 2.07737 0
M  V30 2555 H 247.897 2.60319 4.67053 0
M  V30 2556 H 248.24 1.0117 4.0382 0
M  V30 2557 H 248.773 2.4499 3.13408 0
M  V30 2558 H 245.512 5.38659 3.73533 0
M  V30 2559 H 245.032 3.8891 4.56628 0
M  V30 2560 H 246.711 4.47362 4.67415 0
M  V30 2561 N 246.843 -1.10192 1.12674 0
M  V30 2562 C 248.073 -1.85713 0.905213 0
M  V30 2563 C 248.481 -1.81056 -0.549108 0
M  V30 2564 O 247.824 -1.19927 -1.39151 0
M  V30 2565 C 247.886 -3.34972 1.30516 0
M  V30 2566 C 247.55 -3.63385 2.77129 0
M  V30 2567 C 248.547 -3.59772 3.75313 0
M  V30 2568 C 246.232 -3.91981 3.14096 0
M  V30 2569 C 248.226 -3.84354 5.08479 0
M  V30 2570 C 245.913 -4.16218 4.47443 0
M  V30 2571 C 246.911 -4.12395 5.44444 0
M  V30 2572 O 246.599 -4.36014 6.75387 0
M  V30 2573 H 246.331 -0.593719 0.323223 0
M  V30 2574 H 248.885 -1.40198 1.50112 0
M  V30 2575 H 247.115 -3.81156 0.652463 0
M  V30 2576 H 248.804 -3.91886 1.05736 0
M  V30 2577 H 249.57 -3.37716 3.48099 0
M  V30 2578 H 245.449 -3.94085 2.39202 0
M  V30 2579 H 248.993 -3.81285 5.84181 0
M  V30 2580 H 244.89 -4.37754 4.74386 0
M  V30 2581 H 245.658 -4.53516 6.8137 0
M  V30 2582 N 248.321 -0.919034 -1.28029 0
M  V30 2583 C 249.253 -0.368762 -2.26214 0
M  V30 2584 C 250.266 0.495716 -1.55069 0
M  V30 2585 O 251.455 0.30974 -1.75792 0
M  V30 2586 C 248.555 0.491049 -3.35324 0
M  V30 2587 C 247.728 -0.352133 -4.3598 0
M  V30 2588 C 246.787 0.443622 -5.24327 0
M  V30 2589 O 245.813 -0.14566 -5.69014 0
M  V30 2590 N 247.015 1.74545 -5.53637 0
M  V30 2591 H 249.78 -1.21273 -2.74068 0
M  V30 2592 H 247.341 -0.785541 -1.41566 0
M  V30 2593 H 249.333 1.03026 -3.91366 0
M  V30 2594 H 247.903 1.23574 -2.87138 0
M  V30 2595 H 247.123 -1.07269 -3.79324 0
M  V30 2596 H 248.411 -0.928883 -5.00249 0
M  V30 2597 H 247.809 2.24666 -5.19174 0
M  V30 2598 H 246.366 2.23138 -6.12416 0
M  V30 2599 N 249.799 1.42003 -0.683588 0
M  V30 2600 C 251.047 2.01015 -0.209101 0
M  V30 2601 C 251.368 1.54365 1.19149 0
M  V30 2602 O 250.638 0.769083 1.80172 0
M  V30 2603 H 249.218 0.743294 -0.074315 0
M  V30 2604 H 251.88 1.73798 -0.882066 0
M  V30 2605 H 250.976 3.11343 -0.2172 0
M  V30 2606 N 251.277 0.427512 1.51691 0
M  V30 2607 C 252.523 -0.142439 2.02299 0
M  V30 2608 C 252.856 -1.43214 1.31162 0
M  V30 2609 O 252.131 -1.89833 0.423511 0
M  V30 2610 C 252.414 -0.371301 3.58181 0
M  V30 2611 C 252.267 0.936358 4.39946 0
M  V30 2612 C 253.586 -1.14542 4.24933 0
M  V30 2613 H 250.705 -0.0502937 0.735282 0
M  V30 2614 H 253.347 0.564584 1.81418 0
M  V30 2615 H 251.497 -0.973559 3.76104 0
M  V30 2616 H 253.169 1.57184 4.33694 0
M  V30 2617 H 251.412 1.5432 4.05423 0
M  V30 2618 H 252.083 0.730388 5.47147 0
M  V30 2619 H 254.559 -0.635362 4.11221 0
M  V30 2620 H 253.435 -1.27431 5.33903 0
M  V30 2621 H 253.696 -2.17093 3.85127 0
M  V30 2622 N 252.755 -1.56801 0.158532 0
M  V30 2623 C 254.166 -1.83189 -0.360366 0
M  V30 2624 C 254.517 -1.07778 -1.63946 0
M  V30 2625 O 253.642 -0.326718 -2.13919 0
M  V30 2626 C 254.237 -3.32297 -0.660595 0
M  V30 2627 C 252.796 -3.59227 -1.12398 0
M  V30 2628 C 251.943 -2.76877 -0.153097 0
M  V30 2629 H 254.894 -1.54008 0.383031 0
M  V30 2630 H 254.915 -3.4908 -1.51405 0
M  V30 2631 H 254.427 -3.87156 0.270527 0
M  V30 2632 H 252.528 -3.09766 -2.07064 0
M  V30 2633 H 252.641 -4.67632 -1.04197 0
M  V30 2634 H 251.005 -2.46319 -0.647983 0
M  V30 2635 H 251.788 -3.34511 0.77182 0
M  V30 2636 N 254.233 0.115231 -1.57178 0
M  V30 2637 C 255.479 0.82357 -1.85325 0
M  V30 2638 C 255.812 1.79349 -0.744814 0
M  V30 2639 O 255.087 1.92899 0.249024 0
M  V30 2640 C 255.37 1.57014 -3.24066 0
M  V30 2641 C 255.223 0.619565 -4.45513 0
M  V30 2642 C 256.542 2.52545 -3.60429 0
M  V30 2643 H 253.661 0.297948 -0.674089 0
M  V30 2644 H 256.303 0.0877138 -1.89797 0
M  V30 2645 H 254.453 2.19742 -3.20383 0
M  V30 2646 H 256.125 0.000837639 -4.613 0
M  V30 2647 H 254.368 -0.0686174 -4.33746 0
M  V30 2648 H 255.039 1.17866 -5.3927 0
M  V30 2649 H 257.515 1.9992 -3.64926 0
M  V30 2650 H 256.391 3.01811 -4.58477 0
M  V30 2651 H 256.652 3.35383 -2.88047 0
M  V30 2652 N 255.711 1.52812 0.385517 0
M  V30 2653 C 256.641 1.80808 1.47752 0
M  V30 2654 C 257.622 0.660318 1.5676 0
M  V30 2655 O 258.807 0.908246 1.71652 0
M  V30 2656 C 255.937 1.98008 2.85324 0
M  V30 2657 C 254.891 3.13709 2.91154 0
M  V30 2658 C 254.217 3.16169 4.31209 0
M  V30 2659 C 255.517 4.52709 2.60483 0
M  V30 2660 H 257.211 2.72253 1.24573 0
M  V30 2661 H 254.757 1.31003 0.597839 0
M  V30 2662 H 256.71 2.16176 3.61726 0
M  V30 2663 H 255.434 1.03255 3.09848 0
M  V30 2664 H 254.093 2.95329 2.17201 0
M  V30 2665 H 253.741 2.19092 4.52778 0
M  V30 2666 H 253.441 3.93894 4.36029 0
M  V30 2667 H 254.965 3.36496 5.09512 0
M  V30 2668 H 256.379 4.71173 3.26602 0
M  V30 2669 H 254.776 5.32528 2.76648 0
M  V30 2670 H 255.846 4.59186 1.55809 0
M  V30 2671 N 257.189 -0.644168 1.43834 0
M  V30 2672 C 258.466 -1.40188 1.36406 0
M  V30 2673 C 258.846 -2.11094 0.0163124 0
M  V30 2674 O 258.194 -2.05426 -1.00062 0
M  V30 2675 C 258.404 -2.3791 2.55343 0
M  V30 2676 C 259.752 -3.01637 2.98832 0
M  V30 2677 O 260.776 -2.48237 2.55455 0
M  V30 2678 O 259.635 -3.98477 3.74003 0
M  V30 2679 H 256.729 -0.626773 0.539523 0
M  V30 2680 H 259.275 -0.670317 1.559 0
M  V30 2681 H 258.047 -1.84525 3.4506 0
M  V30 2682 H 257.67 -3.18503 2.37995 0
M  V30 2683 N 258.668 -1.30515 -0.883378 0
M  V30 2684 C 259.598 -1.19607 -2.00541 0
M  V30 2685 C 260.579 -0.086346 -1.69881 0
M  V30 2686 O 261.764 -0.268654 -1.92333 0
M  V30 2687 C 258.894 -0.888758 -3.35736 0
M  V30 2688 C 257.848 -1.95659 -3.8066 0
M  V30 2689 C 257.174 -1.50224 -5.13164 0
M  V30 2690 C 258.474 -3.36788 -3.99213 0
M  V30 2691 H 260.168 -2.13476 -2.09925 0
M  V30 2692 H 257.714 -1.02775 -1.00863 0
M  V30 2693 H 259.667 -0.799094 -4.13754 0
M  V30 2694 H 258.391 0.0856125 -3.26488 0
M  V30 2695 H 257.05 -2.03591 -3.04871 0
M  V30 2696 H 256.698 -0.516092 -5.00345 0
M  V30 2697 H 256.398 -2.2165 -5.44192 0
M  V30 2698 H 257.922 -1.42639 -5.93706 0
M  V30 2699 H 259.336 -3.31605 -4.67665 0
M  V30 2700 H 257.733 -4.06314 -4.41621 0
M  V30 2701 H 258.803 -3.78561 -3.03017 0
M  V30 2702 N 260.146 1.09593 -1.13257 0
M  V30 2703 C 261.423 1.78293 -0.804432 0
M  V30 2704 C 261.803 1.99004 0.70431 0
M  V30 2705 O 261.151 1.59007 1.641 0
M  V30 2706 C 261.361 3.10707 -1.5894 0
M  V30 2707 C 262.709 3.85443 -1.78099 0
M  V30 2708 O 263.733 3.20454 -1.55525 0
M  V30 2709 O 262.592 5.02108 -2.15753 0
M  V30 2710 H 259.686 0.773156 -0.293528 0
M  V30 2711 H 262.232 1.16164 -1.23709 0
M  V30 2712 H 261.004 2.91106 -2.61482 0
M  V30 2713 H 260.627 3.80558 -1.15157 0
M  V30 2714 N 261.624 0.925811 1.2754 0
M  V30 2715 C 262.854 0.580666 1.98272 0
M  V30 2716 C 263.262 -0.845207 1.69272 0
M  V30 2717 O 262.605 -1.57306 0.948707 0
M  V30 2718 C 262.667 0.724418 3.52126 0
M  V30 2719 C 262.331 2.12206 4.04744 0
M  V30 2720 C 263.328 3.09604 4.17662 0
M  V30 2721 C 261.013 2.4385 4.39138 0
M  V30 2722 C 263.007 4.36755 4.64246 0
M  V30 2723 C 260.694 3.71237 4.85414 0
M  V30 2724 C 261.692 4.67503 4.97926 0
M  V30 2725 O 261.38 5.92624 5.43187 0
M  V30 2726 H 261.112 0.218987 0.639547 0
M  V30 2727 H 263.666 1.24452 1.63404 0
M  V30 2728 H 261.896 0.0034663 3.867 0
M  V30 2729 H 263.585 0.384607 4.04074 0
M  V30 2730 H 264.351 2.86478 3.91351 0
M  V30 2731 H 260.23 1.69665 4.28643 0
M  V30 2732 H 263.774 5.11898 4.73927 0
M  V30 2733 H 259.671 3.94182 5.11166 0
M  V30 2734 H 260.439 5.95585 5.61445 0
M  V30 2735 N 263.102 -1.41638 0.69111 0
M  V30 2736 C 264.032 -2.3347 0.037248 0
M  V30 2737 C 265.013 -1.51575 -0.771947 0
M  V30 2738 O 266.198 -1.80126 -0.72582 0
M  V30 2739 C 263.328 -3.35354 -0.903064 0
M  V30 2740 C 262.282 -4.27526 -0.201288 0
M  V30 2741 C 261.608 -5.19747 -1.25565 0
M  V30 2742 C 262.908 -5.13959 0.929689 0
M  V30 2743 H 264.602 -2.88397 0.804227 0
M  V30 2744 H 262.148 -1.38669 0.388189 0
M  V30 2745 H 264.101 -3.98519 -1.36969 0
M  V30 2746 H 262.825 -2.78767 -1.70166 0
M  V30 2747 H 261.484 -3.65779 0.245265 0
M  V30 2748 H 261.132 -4.59479 -2.04666 0
M  V30 2749 H 260.832 -5.8225 -0.791128 0
M  V30 2750 H 262.356 -5.85789 -1.72288 0
M  V30 2751 H 263.77 -5.70718 0.543546 0
M  V30 2752 H 262.167 -5.85379 1.32103 0
M  V30 2753 H 263.237 -4.51389 1.77133 0
M  V30 2754 N 264.58 -0.43555 -1.51462 0
M  V30 2755 C 265.49 0.383001 -2.31453 0
M  V30 2756 C 266.506 1.02931 -1.4029 0
M  V30 2757 O 267.682 1.02507 -1.73362 0
M  V30 2758 C 264.747 1.47043 -3.13973 0
M  V30 2759 C 263.808 0.844433 -4.20913 0
M  V30 2760 C 263.041 1.88004 -4.9949 0
M  V30 2761 O 263.264 3.10199 -4.78678 0
M  V30 2762 O 262.198 1.47157 -5.83634 0
M  V30 2763 H 266.024 -0.269964 -3.02498 0
M  V30 2764 H 263.609 -0.19813 -1.4808 0
M  V30 2765 H 265.491 2.10113 -3.65281 0
M  V30 2766 H 264.166 2.10751 -2.45695 0
M  V30 2767 H 263.073 0.175729 -3.73687 0
M  V30 2768 H 264.406 0.250869 -4.9156 0
M  V30 2769 N 266.058 1.56714 -0.166846 0
M  V30 2770 C 267.335 1.88412 0.525373 0
M  V30 2771 C 267.715 1.07602 1.81618 0
M  V30 2772 O 267.063 0.168621 2.27877 0
M  V30 2773 C 267.273 3.40363 0.771613 0
M  V30 2774 C 268.621 4.10007 1.1036 0
M  V30 2775 O 269.645 3.45655 0.860304 0
M  V30 2776 O 268.504 5.2369 1.56239 0
M  V30 2777 H 265.598 0.781587 0.270278 0
M  V30 2778 H 268.144 1.68458 -0.204946 0
M  V30 2779 H 266.916 3.91046 -0.141093 0
M  V30 2780 H 266.539 3.65914 1.55541 0
M  V30 2781 N 267.536 -0.106894 1.57237 0
M  V30 2782 C 268.761 -0.830287 1.90055 0
M  V30 2783 C 269.186 -1.72064 0.75998 0
M  V30 2784 O 268.544 -1.78982 -0.288991 0
M  V30 2785 C 268.592 -1.6295 3.21683 0
M  V30 2786 O 267.696 -2.73748 3.08441 0
M  V30 2787 H 267.037 -0.228855 0.623315 0
M  V30 2788 H 269.567 -0.085658 2.04421 0
M  V30 2789 H 269.577 -2.01621 3.54701 0
M  V30 2790 H 268.252 -0.975989 4.04286 0
M  V30 2791 H 266.829 -2.38192 2.86913 0
M  V30 2792 N 269.014 -1.53014 -0.377408 0
M  V30 2793 C 269.977 -1.77957 -1.44444 0
M  V30 2794 C 270.977 -0.649763 -1.47087 0
M  V30 2795 O 272.167 -0.917897 -1.48055 0
M  V30 2796 C 269.299 -1.89089 -2.83651 0
M  V30 2797 H 270.492 -2.73243 -1.23606 0
M  V30 2798 H 268.045 -1.43912 -0.609844 0
M  V30 2799 H 268.78 -0.958293 -3.09818 0
M  V30 2800 H 268.565 -2.71254 -2.83132 0
M  V30 2801 H 270.055 -2.1002 -3.60945 0
M  V30 2802 N 270.492 0.636531 -1.44174 0
M  V30 2803 C 271.455 1.73063 -1.50273 0
M  V30 2804 C 272.455 1.56113 -0.385397 0
M  V30 2805 O 273.645 1.61707 -0.64781 0
M  V30 2806 C 270.777 3.12096 -1.37145 0
M  V30 2807 H 271.97 1.69031 -2.47727 0
M  V30 2808 H 269.523 0.849706 -1.31186 0
M  V30 2809 H 270.258 3.21728 -0.407636 0
M  V30 2810 H 270.043 3.25805 -2.18159 0
M  V30 2811 H 271.533 3.91846 -1.44382 0
M  V30 2812 N 271.97 1.30982 0.876444 0
M  V30 2813 C 272.88 1.2003 2.01569 0
M  V30 2814 C 273.896 0.11838 1.73597 0
M  V30 2815 O 275.072 0.33495 1.98595 0
M  V30 2816 C 272.137 0.901637 3.34771 0
M  V30 2817 C 271.198 2.06979 3.76109 0
M  V30 2818 C 270.431 1.78529 5.02954 0
M  V30 2819 O 270.654 0.717296 5.65872 0
M  V30 2820 O 269.588 2.64019 5.40905 0
M  V30 2821 H 273.414 2.15753 2.13739 0
M  V30 2822 H 270.999 1.10658 1.00375 0
M  V30 2823 H 272.881 0.750645 4.1466 0
M  V30 2824 H 271.556 -0.0256141 3.2369 0
M  V30 2825 H 270.463 2.27616 2.96887 0
M  V30 2826 H 271.796 2.97907 3.91807 0
M  V30 2827 N 273.449 -1.08991 1.13837 0
M  V30 2828 C 274.677 -1.85011 0.926202 0
M  V30 2829 C 275.092 -1.8135 -0.525127 0
M  V30 2830 O 274.449 -1.21287 -1.36366 0
M  V30 2831 C 274.5 -3.32802 1.41155 0
M  V30 2832 O 274.221 -3.36444 2.80601 0
M  V30 2833 C 275.722 -4.25649 1.23847 0
M  V30 2834 H 272.942 -0.584249 0.32999 0
M  V30 2835 H 275.486 -1.37688 1.51202 0
M  V30 2836 H 273.641 -3.77536 0.868631 0
M  V30 2837 H 274.055 -4.28657 3.02248 0
M  V30 2838 H 275.529 -5.27485 1.62675 0
M  V30 2839 H 276.006 -4.38828 0.18065 0
M  V30 2840 H 276.612 -3.86735 1.76964 0
M  V30 2841 N 274.927 -0.932562 -1.27047 0
M  V30 2842 C 276.204 -0.49377 -1.89265 0
M  V30 2843 C 276.584 1.02833 -1.8436 0
M  V30 2844 O 275.932 1.88461 -1.29209 0
M  V30 2845 C 276.142 -1.04536 -3.32976 0
M  V30 2846 C 277.49 -1.10879 -4.09867 0
M  V30 2847 O 278.514 -0.995327 -3.42011 0
M  V30 2848 O 277.373 -1.28417 -5.31198 0
M  V30 2849 H 274.467 -0.159596 -0.811454 0
M  V30 2850 H 277.013 -1.02457 -1.3528 0
M  V30 2851 H 275.785 -2.08913 -3.30864 0
M  V30 2852 H 275.408 -0.496494 -3.94488 0
M  V30 2853 N 276.405 1.4127 -0.698611 0
M  V30 2854 C 277.335 2.33447 -0.049629 0
M  V30 2855 C 278.316 1.51982 0.763898 0
M  V30 2856 O 279.501 1.80509 0.716257 0
M  V30 2857 C 276.631 3.35828 0.885267 0
M  V30 2858 C 275.585 4.27627 0.178613 0
M  V30 2859 C 274.911 5.20406 1.22807 0
M  V30 2860 C 276.211 5.13459 -0.956933 0
M  V30 2861 H 277.905 2.87966 -0.81951 0
M  V30 2862 H 275.451 1.38461 -0.395538 0
M  V30 2863 H 277.404 3.9924 1.34854 0
M  V30 2864 H 276.128 2.79666 1.68685 0
M  V30 2865 H 274.787 3.65643 -0.26466 0
M  V30 2866 H 274.435 4.60558 2.02226 0
M  V30 2867 H 274.135 5.82661 0.760239 0
M  V30 2868 H 275.659 5.86695 1.69179 0
M  V30 2869 H 277.073 5.70421 -0.573805 0
M  V30 2870 H 275.47 5.8467 -1.35205 0
M  V30 2871 H 276.54 4.50443 -1.79524 0
M  V30 2872 N 277.883 0.443576 1.51229 0
M  V30 2873 C 278.831 -0.37904 2.29491 0
M  V30 2874 C 279.825 -1.0153 1.35603 0
M  V30 2875 O 281.031 -0.94955 1.52917 0
M  V30 2876 H 277.406 -0.141053 0.738653 0
M  V30 2877 H 279.377 0.301799 2.9687 0
M  V30 2878 C 278.126 -1.46426 3.15364 0
M  V30 2879 H 277.449 -0.984037 3.87501 0
M  V30 2880 H 278.889 -2.01297 3.7317 0
M  V30 2881 C 277.348 -2.45099 2.31146 0
M  V30 2882 O 277.878 -3.49773 1.9754 0
M  V30 2883 N 276.084 -2.16139 1.94249 0
M  V30 2884 H 275.631 -1.31044 2.21777 0
M  V30 2885 H 275.589 -2.82398 1.38198 0
M  V30 2886 N 279.361 -1.56624 0.175154 0
M  V30 2887 C 280.607 -1.9729 -0.469506 0
M  V30 2888 C 280.94 -1.06128 -1.62636 0
M  V30 2889 O 280.215 -0.109183 -1.94193 0
M  V30 2890 C 280.498 -3.47375 -0.948804 0
M  V30 2891 C 280.351 -4.49317 0.208491 0
M  V30 2892 C 281.67 -4.00652 -1.82116 0
M  V30 2893 H 278.789 -0.717317 -0.16919 0
M  V30 2894 H 281.431 -1.88184 0.262062 0
M  V30 2895 H 279.581 -3.55267 -1.57219 0
M  V30 2896 H 281.253 -4.53482 0.845682 0
M  V30 2897 H 279.496 -4.25121 0.863395 0
M  V30 2898 H 280.167 -5.51741 -0.169059 0
M  V30 2899 H 282.643 -3.95416 -1.2956 0
M  V30 2900 H 281.519 -5.06075 -2.12554 0
M  V30 2901 H 281.78 -3.44699 -2.7683 0
M  V30 2902 N 280.839 0.0985539 -1.57292 0
M  V30 2903 C 282.085 0.803867 -1.86188 0
M  V30 2904 C 282.418 1.78549 -0.763794 0
M  V30 2905 O 281.693 1.93153 0.22855 0
M  V30 2906 C 281.976 1.53568 -3.25713 0
M  V30 2907 C 281.829 0.572277 -4.46145 0
M  V30 2908 C 283.148 2.48708 -3.63087 0
M  V30 2909 H 280.267 0.290781 -0.677211 0
M  V30 2910 H 282.909 0.0675783 -1.8988 0
M  V30 2911 H 281.059 2.16332 -3.22696 0
M  V30 2912 H 282.731 -0.0480894 -4.61275 0
M  V30 2913 H 280.974 -0.114618 -4.33649 0
M  V30 2914 H 281.645 1.12139 -5.40489 0
M  V30 2915 H 284.121 1.96039 -3.67026 0
M  V30 2916 H 282.997 2.96932 -4.61652 0
M  V30 2917 H 283.258 3.32309 -2.91588 0
M  V30 2918 N 282.317 1.53212 0.369288 0
M  V30 2919 C 283.25 1.74166 1.4745 0
M  V30 2920 C 284.228 0.589923 1.51521 0
M  V30 2921 O 285.412 0.822078 1.69629 0
M  V30 2922 C 282.539 1.81711 2.8583 0
M  V30 2923 C 281.585 3.03649 2.99499 0
M  V30 2924 S 282.418 4.63242 2.6864 0
M  V30 2925 C 283.574 4.7363 4.09177 0
M  V30 2926 H 283.807 2.67636 1.29454 0
M  V30 2927 H 281.34 1.43754 0.563396 0
M  V30 2928 H 283.298 1.86743 3.65564 0
M  V30 2929 H 281.959 0.89299 3.01139 0
M  V30 2930 H 281.152 3.05526 4.00836 0
M  V30 2931 H 280.754 2.9671 2.27683 0
M  V30 2932 H 283.046 4.53456 5.03372 0
M  V30 2933 H 283.989 5.75682 4.12306 0
M  V30 2934 H 284.397 4.02295 3.96004 0
M  V30 2935 N 283.795 -0.628877 1.44509 0
M  V30 2936 C 285.023 -1.41554 1.50897 0
M  V30 2937 C 285.438 -1.8832 0.134564 0
M  V30 2938 O 284.795 -1.60969 -0.859965 0
M  V30 2939 C 284.846 -2.63435 2.47556 0
M  V30 2940 O 284.567 -2.18619 3.79654 0
M  V30 2941 C 286.068 -3.56537 2.63431 0
M  V30 2942 H 283.288 -0.434044 0.511709 0
M  V30 2943 H 285.832 -0.768895 1.89495 0
M  V30 2944 H 283.987 -3.24187 2.12089 0
M  V30 2945 H 284.401 -2.97652 4.31861 0
M  V30 2946 H 285.875 -4.38657 3.35088 0
M  V30 2947 H 286.352 -4.05493 1.68738 0
M  V30 2948 H 286.958 -3.01653 2.9981 0
M  V30 2949 N 285.273 -1.31445 -0.869486 0
M  V30 2950 C 286.55 -1.11795 -1.60503 0
M  V30 2951 C 286.93 0.327168 -2.08549 0
M  V30 2952 O 286.278 1.32135 -1.8642 0
M  V30 2953 C 286.488 -2.13258 -2.76265 0
M  V30 2954 C 287.836 -2.45805 -3.46215 0
M  V30 2955 O 288.86 -2.11688 -2.86473 0
M  V30 2956 O 287.719 -3.04228 -4.5399 0
M  V30 2957 H 284.813 -0.430421 -0.706163 0
M  V30 2958 H 287.359 -1.42925 -0.914907 0
M  V30 2959 H 286.131 -3.10461 -2.3818 0
M  V30 2960 H 285.754 -1.83035 -3.52964 0
M  V30 2961 N 286.751 1.08385 -1.14413 0
M  V30 2962 C 287.714 2.13486 -0.834048 0
M  V30 2963 C 288.714 1.59988 0.161418 0
M  V30 2964 O 289.904 1.74071 -0.0669575 0
M  V30 2965 C 287.036 3.4003 -0.243354 0
M  V30 2966 H 288.229 2.42425 -1.7655 0
M  V30 2967 H 285.782 1.24101 -0.950189 0
M  V30 2968 H 286.517 3.16726 0.696807 0
M  V30 2969 H 286.302 3.80157 -0.960367 0
M  V30 2970 H 287.792 4.17577 -0.0436242 0
M  V30 2971 N 288.23 0.939286 1.26551 0
M  V30 2972 C 289.478 0.58469 1.93457 0
M  V30 2973 C 289.799 -0.878774 1.74076 0
M  V30 2974 O 289.069 -1.62421 1.09528 0
M  V30 2975 H 287.649 0.21325 0.715914 0
M  V30 2976 H 290.311 1.1942 1.54029 0
M  V30 2977 H 289.407 0.800849 3.0165 0
M  V30 2978 N 289.708 -1.40897 0.706093 0
M  V30 2979 C 290.956 -2.00657 0.241054 0
M  V30 2980 C 291.277 -1.56241 -1.16678 0
M  V30 2981 O 290.547 -0.79765 -1.78926 0
M  V30 2982 H 289.127 -0.742018 0.0861308 0
M  V30 2983 H 291.789 -1.72372 0.909604 0
M  V30 2984 H 290.885 -3.10958 0.266705 0
M  V30 2985 N 291.186 -0.45159 -1.50991 0
M  V30 2986 C 292.433 0.110074 -2.02201 0
M  V30 2987 C 292.761 1.4146 -1.33489 0
M  V30 2988 O 292.016 1.90617 -0.443125 0
M  V30 2989 C 292.315 0.361728 -3.55565 0
M  V30 2990 C 291.981 -0.858717 -4.42648 0
M  V30 2991 C 290.643 -1.19338 -4.66167 0
M  V30 2992 C 292.995 -1.67221 -4.93646 0
M  V30 2993 C 290.323 -2.34195 -5.37931 0
M  V30 2994 C 292.675 -2.8119 -5.6667 0
M  V30 2995 C 291.339 -3.15094 -5.88449 0
M  V30 2996 H 290.609 0.040279 -0.739904 0
M  V30 2997 H 293.256 -0.601696 -1.81802 0
M  V30 2998 H 291.561 1.15554 -3.74372 0
M  V30 2999 H 293.258 0.80996 -3.92735 0
M  V30 3000 H 289.848 -0.58796 -4.24548 0
M  V30 3001 H 294.032 -1.42686 -4.75347 0
M  V30 3002 H 289.288 -2.6076 -5.53005 0
M  V30 3003 H 293.462 -3.44585 -6.05173 0
M  V30 3004 H 291.089 -4.04204 -6.43835 0
M  V30 3005 N 292.664 1.56529 -0.183458 0
M  V30 3006 C 293.913 1.96419 0.458511 0
M  V30 3007 C 294.226 1.0727 1.63562 0
M  V30 3008 O 295.432 1.36893 2.34462 0
M  V30 3009 C 293.888 3.49298 0.867122 0
M  V30 3010 C 293.496 4.47092 -0.285057 0
M  V30 3011 C 295.24 3.97983 1.47683 0
M  V30 3012 C 293.147 5.91225 0.143862 0
M  V30 3013 H 292.077 0.733394 0.175071 0
M  V30 3014 H 294.728 1.81448 -0.273624 0
M  V30 3015 H 293.11 3.59731 1.65559 0
M  V30 3016 H 294.284 4.48383 -1.0625 0
M  V30 3017 H 292.599 4.08535 -0.805503 0
M  V30 3018 H 295.196 5.03134 1.80999 0
M  V30 3019 H 295.539 3.41618 2.37914 0
M  V30 3020 H 296.072 3.90617 0.752562 0
M  V30 3021 H 292.811 6.5149 -0.723974 0
M  V30 3022 H 292.331 5.93214 0.886413 0
M  V30 3023 H 294.01 6.44362 0.583628 0
M  V30 3024 N 294.142 -0.090211 1.57342 0
M  V30 3025 C 295.052 -1.12735 2.05738 0
M  V30 3026 C 296.068 -1.43557 0.983231 0
M  V30 3027 O 297.244 -1.54101 1.29672 0
M  V30 3028 C 294.309 -2.42659 2.47624 0
M  V30 3029 C 293.37 -2.18975 3.69254 0
M  V30 3030 C 292.603 -3.42704 4.09133 0
M  V30 3031 O 292.826 -4.51127 3.49057 0
M  V30 3032 O 291.76 -3.32003 5.02053 0
M  V30 3033 H 295.586 -0.746279 2.94388 0
M  V30 3034 H 293.171 -0.303064 1.46294 0
M  V30 3035 H 295.053 -3.19155 2.7517 0
M  V30 3036 H 293.728 -2.80182 1.62109 0
M  V30 3037 H 292.635 -1.40244 3.46818 0
M  V30 3038 H 293.968 -1.86342 4.55563 0
M  V30 3039 N 295.62 -1.53406 -0.361157 0
M  V30 3040 C 296.866 -1.70054 -1.10496 0
M  V30 3041 C 297.199 -0.453278 -1.88836 0
M  V30 3042 O 296.474 0.5495 -1.86576 0
M  V30 3043 C 296.757 -2.95317 -2.06058 0
M  V30 3044 C 296.61 -4.3021 -1.31298 0
M  V30 3045 C 297.929 -3.16193 -3.06121 0
M  V30 3046 H 295.048 -0.618799 -0.400321 0
M  V30 3047 H 297.69 -1.86052 -0.385318 0
M  V30 3048 H 295.84 -2.81809 -2.67425 0
M  V30 3049 H 297.512 -4.55538 -0.726807 0
M  V30 3050 H 295.755 -4.29421 -0.614853 0
M  V30 3051 H 296.426 -5.14 -2.01265 0
M  V30 3052 H 298.902 -3.28916 -2.5486 0
M  V30 3053 H 297.778 -4.05266 -3.70204 0
M  V30 3054 H 298.039 -2.31676 -3.76535 0
M  V30 3055 N 297.098 0.621204 -1.44841 0
M  V30 3056 C 298.03 1.74615 -1.48466 0
M  V30 3057 C 299.043 1.58377 -0.37691 0
M  V30 3058 O 300.232 1.66508 -0.643215 0
M  V30 3059 C 297.332 3.12459 -1.31236 0
M  V30 3060 C 296.505 3.55064 -2.55438 0
M  V30 3061 C 295.564 4.71821 -2.32963 0
M  V30 3062 O 294.59 4.79628 -3.06505 0
M  V30 3063 N 295.792 5.64186 -1.36654 0
M  V30 3064 H 298.557 1.71973 -2.45449 0
M  V30 3065 H 296.118 0.806077 -1.40407 0
M  V30 3066 H 298.11 3.88302 -1.14032 0
M  V30 3067 H 296.68 3.09686 -0.4258 0
M  V30 3068 H 295.9 2.69324 -2.87851 0
M  V30 3069 H 297.188 3.80284 -3.38026 0
M  V30 3070 H 296.586 5.6058 -0.759344 0
M  V30 3071 H 295.143 6.39618 -1.25425 0
M  V30 3072 N 298.576 1.31904 0.862503 0
M  V30 3073 C 299.824 1.21776 1.61292 0
M  V30 3074 C 300.145 -0.222413 1.93727 0
M  V30 3075 O 299.415 -1.1451 1.58947 0
M  V30 3076 H 297.995 0.447717 0.597962 0
M  V30 3077 H 300.657 1.65326 1.03215 0
M  V30 3078 H 299.753 1.7948 2.5533 0
M  V30 3079 N 300.054 -1.07777 1.14986 0
M  V30 3080 C 301.282 -1.84018 0.945773 0
M  V30 3081 C 301.697 -1.81897 -0.505863 0
M  V30 3082 O 301.054 -1.22726 -1.35072 0
M  V30 3083 C 301.105 -3.31287 1.44677 0
M  V30 3084 O 300.826 -3.33449 2.84154 0
M  V30 3085 C 302.327 -4.24311 1.28355 0
M  V30 3086 H 299.547 -0.580716 0.336169 0
M  V30 3087 H 302.091 -1.36077 1.52654 0
M  V30 3088 H 300.246 -3.76594 0.908625 0
M  V30 3089 H 300.66 -4.25427 3.06777 0
M  V30 3090 H 302.134 -5.2573 1.68261 0
M  V30 3091 H 302.611 -4.38612 0.227184 0
M  V30 3092 H 303.217 -3.84836 1.81056 0
M  V30 3093 N 301.532 -0.945985 -1.26051 0
M  V30 3094 C 302.495 -0.463897 -2.24456 0
M  V30 3095 C 303.495 0.427655 -1.55009 0
M  V30 3096 O 304.685 0.226157 -1.72726 0
M  V30 3097 C 301.817 0.330812 -3.39291 0
M  V30 3098 H 303.01 -1.33357 -2.68619 0
M  V30 3099 H 300.563 -0.728416 -1.38289 0
M  V30 3100 H 301.298 1.21852 -3.00537 0
M  V30 3101 H 301.083 -0.308679 -3.90883 0
M  V30 3102 H 302.573 0.657865 -4.12386 0
M  V30 3103 N 303.011 1.40521 -0.713556 0
M  V30 3104 C 303.921 2.34522 -0.0606667 0
M  V30 3105 C 304.937 1.57193 0.74607 0
M  V30 3106 O 306.113 1.89591 0.679493 0
M  V30 3107 C 303.178 3.36081 0.851491 0
M  V30 3108 C 302.239 4.29286 0.0349339 0
M  V30 3109 C 301.472 5.25994 0.903649 0
M  V30 3110 O 301.695 5.28616 2.14292 0
M  V30 3111 O 300.629 6.00918 0.343723 0
M  V30 3112 H 304.455 2.91968 -0.835972 0
M  V30 3113 H 302.04 1.41681 -0.47402 0
M  V30 3114 H 303.922 3.98369 1.37404 0
M  V30 3115 H 302.597 2.81052 1.60598 0
M  V30 3116 H 301.504 3.70289 -0.532633 0
M  V30 3117 H 302.837 4.87462 -0.681287 0
M  V30 3118 N 304.489 0.459591 1.5075 0
M  V30 3119 C 305.737 -0.0991532 2.01857 0
M  V30 3120 C 306.058 -1.41247 1.34441 0
M  V30 3121 O 305.328 -1.89775 0.486022 0
M  V30 3122 H 303.908 -0.039633 0.745948 0
M  V30 3123 H 306.57 0.607387 1.85194 0
M  V30 3124 H 305.666 -0.258998 3.11023 0
M  V30 3125 N 305.967 -1.56429 0.191757 0
M  V30 3126 C 306.93 -2.17707 -0.716688 0
M  V30 3127 C 307.93 -1.13061 -1.14341 0
M  V30 3128 O 309.12 -1.38464 -1.05704 0
M  V30 3129 C 306.252 -2.77644 -1.97804 0
M  V30 3130 H 307.445 -2.99342 -0.1829 0
M  V30 3131 H 304.998 -1.56193 -0.0578566 0
M  V30 3132 H 305.733 -1.99799 -2.55443 0
M  V30 3133 H 305.518 -3.54246 -1.68083 0
M  V30 3134 H 307.008 -3.24708 -2.62592 0
M  V30 3135 N 307.445 0.0818655 -1.57387 0
M  V30 3136 C 308.856 0.634871 -1.75574 0
M  V30 3137 C 309.207 1.78435 -0.815809 0
M  V30 3138 O 308.332 2.164 0.0025366 0
M  V30 3139 C 308.927 1.15845 -3.18379 0
M  V30 3140 C 307.486 1.65741 -3.37945 0
M  V30 3141 C 306.633 0.572549 -2.71325 0
M  V30 3142 H 309.584 -0.144268 -1.58043 0
M  V30 3143 H 309.605 2.02751 -3.21982 0
M  V30 3144 H 309.117 0.321631 -3.86765 0
M  V30 3145 H 307.218 2.51781 -2.74658 0
M  V30 3146 H 307.331 1.74129 -4.46336 0
M  V30 3147 H 305.695 1.01518 -2.33594 0
M  V30 3148 H 306.478 -0.253918 -3.4236 0
M  V30 3149 N 308.923 1.53595 0.353017 0
M  V30 3150 C 310.17 1.70385 1.09431 0
M  V30 3151 C 310.498 0.462113 1.88931 0
M  V30 3152 O 309.753 -0.556074 1.87633 0
M  V30 3153 C 310.052 2.91313 2.07054 0
M  V30 3154 C 309.718 4.27308 1.43939 0
M  V30 3155 C 308.38 4.64287 1.26454 0
M  V30 3156 C 310.732 5.11829 0.983883 0
M  V30 3157 C 308.06 5.83412 0.620226 0
M  V30 3158 C 310.412 6.31611 0.353516 0
M  V30 3159 C 309.076 6.67293 0.166272 0
M  V30 3160 H 308.346 0.623484 0.400436 0
M  V30 3161 H 310.993 1.87799 0.374655 0
M  V30 3162 H 309.298 2.68463 2.85368 0
M  V30 3163 H 310.995 3.01497 2.64387 0
M  V30 3164 H 307.585 3.98198 1.58543 0
M  V30 3165 H 311.769 4.838 1.10685 0
M  V30 3166 H 307.025 6.09639 0.463681 0
M  V30 3167 H 311.199 6.964 -0.00757555 0
M  V30 3168 H 308.826 7.59461 -0.335047 0
M  V30 3169 N 310.401 -0.613514 1.45168 0
M  V30 3170 C 311.817 -0.933629 1.29443 0
M  V30 3171 C 312.017 -2.00028 0.243101 0
M  V30 3172 O 311.073 -2.49848 -0.364992 0
M  V30 3173 C 312.386 -1.38018 2.67155 0
M  V30 3174 C 313.934 -1.49471 2.75004 0
M  V30 3175 C 314.409 -1.97503 4.13227 0
M  V30 3176 N 315.9 -2.04746 4.15491 0
M  V30 3177 C 316.635 -2.43121 5.19307 0
M  V30 3178 N 316.131 -2.80506 6.33473 0
M  V30 3179 N 317.924 -2.43408 5.06664 0
M  V30 3180 H 310.075 0.0916097 2.12202 0
M  V30 3181 H 312.338 -0.0216655 0.947752 0
M  V30 3182 H 312.044 -0.670625 3.45247 0
M  V30 3183 H 311.918 -2.34784 2.95222 0
M  V30 3184 H 314.305 -2.19519 1.9722 0
M  V30 3185 H 314.386 -0.510342 2.50657 0
M  V30 3186 H 314.03 -1.28045 4.91495 0
M  V30 3187 H 313.96 -2.96843 4.34962 0
M  V30 3188 H 316.451 -1.78468 3.33103 0
M  V30 3189 H 316.764 -3.08652 7.08487 0
M  V30 3190 H 315.109 -2.78216 6.36884 0
M  V30 3191 H 318.3 -2.13604 4.16523 0
M  V30 3192 H 318.473 -2.72989 5.87691 0
M  V30 3193 N 311.879 -1.3236 -0.855495 0
M  V30 3194 C 313.29 -1.2056 -1.42556 0
M  V30 3195 C 313.641 0.182209 -1.95352 0
M  V30 3196 O 312.766 1.08088 -1.87472 0
M  V30 3197 C 313.361 -2.1826 -2.59129 0
M  V30 3198 C 311.92 -2.10351 -3.12137 0
M  V30 3199 C 311.067 -2.06674 -1.84882 0
M  V30 3200 H 314.018 -1.442 -0.662727 0
M  V30 3201 H 314.039 -1.78064 -3.36264 0
M  V30 3202 H 313.551 -3.19257 -2.20673 0
M  V30 3203 H 311.652 -1.12599 -3.55179 0
M  V30 3204 H 311.765 -3.00135 -3.73438 0
M  V30 3205 H 310.129 -1.51901 -2.04446 0
M  V30 3206 H 310.912 -3.09451 -1.48643 0
M  V30 3207 N 313.357 1.07166 -1.15556 0
M  V30 3208 C 314.32 2.12589 -0.856644 0
M  V30 3209 C 315.32 1.6015 0.14444 0
M  V30 3210 O 316.51 1.7399 -0.0854163 0
M  V30 3211 C 313.642 3.39753 -0.279405 0
M  V30 3212 H 314.835 2.40539 -1.79112 0
M  V30 3213 H 312.388 1.23086 -0.963298 0
M  V30 3214 H 313.123 3.17447 0.663174 0
M  V30 3215 H 312.908 3.79117 -1.00063 0
M  V30 3216 H 314.398 4.17507 -0.0879113 0
M  V30 3217 N 314.835 0.952656 1.25548 0
M  V30 3218 C 315.745 0.47782 2.29682 0
M  V30 3219 C 316.761 -0.453859 1.67977 0
M  V30 3220 O 317.937 -0.330587 1.98668 0
M  V30 3221 C 315.002 -0.238655 3.45878 0
M  V30 3222 C 314.063 0.730994 4.23031 0
M  V30 3223 C 313.296 0.0486165 5.33678 0
M  V30 3224 O 313.519 -1.16612 5.58353 0
M  V30 3225 O 312.453 0.733152 5.97418 0
M  V30 3226 H 316.279 1.34312 2.72386 0
M  V30 3227 H 313.864 0.719026 1.30959 0
M  V30 3228 H 315.746 -0.641774 4.16484 0
M  V30 3229 H 314.421 -1.07916 3.05181 0
M  V30 3230 H 313.328 1.18428 3.5486 0
M  V30 3231 H 314.661 1.53946 4.67506 0
M  V30 3232 N 316.313 -1.40141 0.720998 0
M  V30 3233 C 317.243 -2.33339 0.0867621 0
M  V30 3234 C 318.224 -1.53178 -0.739622 0
M  V30 3235 O 319.409 -1.81625 -0.687449 0
M  V30 3236 C 316.539 -3.37194 -0.831728 0
M  V30 3237 C 315.493 -4.27857 -0.110558 0
M  V30 3238 C 314.819 -5.22294 -1.14513 0
M  V30 3239 C 316.119 -5.11872 1.0385 0
M  V30 3240 H 317.813 -2.86626 0.865219 0
M  V30 3241 H 315.359 -1.37814 0.417516 0
M  V30 3242 H 317.312 -4.01335 -1.28485 0
M  V30 3243 H 316.036 -2.82314 -1.64214 0
M  V30 3244 H 314.695 -3.65176 0.322797 0
M  V30 3245 H 314.343 -4.63717 -1.94874 0
M  V30 3246 H 314.043 -5.83797 -0.667446 0
M  V30 3247 H 315.567 -5.89312 -1.59824 0
M  V30 3248 H 316.981 -5.69436 0.664482 0
M  V30 3249 H 315.378 -5.82445 1.4449 0
M  V30 3250 H 316.448 -4.4753 1.86668 0
M  V30 3251 N 317.792 -0.46758 -1.50504 0
M  V30 3252 C 318.74 0.342482 -2.30065 0
M  V30 3253 C 319.734 0.993596 -1.37201 0
M  V30 3254 O 320.94 0.925102 -1.54408 0
M  V30 3255 H 317.315 0.129283 -0.740803 0
M  V30 3256 H 319.286 -0.34899 -2.96352 0
M  V30 3257 C 318.035 1.4139 -3.17654 0
M  V30 3258 H 317.358 0.922264 -3.89017 0
M  V30 3259 H 318.798 1.95335 -3.76325 0
M  V30 3260 C 317.257 2.4139 -2.35016 0
M  V30 3261 O 317.787 3.46586 -2.03079 0
M  V30 3262 N 315.993 2.13021 -1.97662 0
M  V30 3263 H 315.54 1.27499 -2.23834 0
M  V30 3264 H 315.498 2.80164 -1.42673 0
M  V30 3265 N 319.27 1.56325 -0.20005 0
M  V30 3266 C 320.233 2.18084 0.705132 0
M  V30 3267 C 321.233 1.13666 1.1374 0
M  V30 3268 O 322.423 1.39023 1.04968 0
M  V30 3269 C 319.555 2.78689 1.96329 0
M  V30 3270 H 320.748 2.99435 0.167023 0
M  V30 3271 H 318.301 1.56221 0.0495725 0
M  V30 3272 H 319.036 2.0115 2.5438 0
M  V30 3273 H 318.821 3.55133 1.66202 0
M  V30 3274 H 320.311 3.26096 2.60866 0
M  V30 3275 N 320.748 -0.0735177 1.57428 0
M  V30 3276 C 321.681 -1.11932 1.98863 0
M  V30 3277 C 322.659 -1.37666 0.865266 0
M  V30 3278 O 323.843 -1.51068 1.12742 0
M  V30 3279 C 320.97 -2.46403 2.32386 0
M  V30 3280 C 320.016 -2.36815 3.54713 0
M  V30 3281 S 320.849 -1.76392 5.05614 0
M  V30 3282 C 322.005 -3.12444 5.42337 0
M  V30 3283 H 322.238 -0.766212 2.87257 0
M  V30 3284 H 319.771 -0.281987 1.51803 0
M  V30 3285 H 321.729 -3.23755 2.52375 0
M  V30 3286 H 320.39 -2.78876 1.44524 0
M  V30 3287 H 319.583 -3.35977 3.7568 0
M  V30 3288 H 319.185 -1.67598 3.34345 0
M  V30 3289 H 321.477 -4.08753 5.40303 0
M  V30 3290 H 322.42 -2.96258 6.43146 0
M  V30 3291 H 322.828 -3.1297 4.69798 0
M  V30 3292 N 322.226 -1.5378 -0.344866 0
M  V30 3293 C 323.156 -1.84662 -1.42906 0
M  V30 3294 C 324.137 -0.701648 -1.54955 0
M  V30 3295 O 325.322 -0.953438 -1.69184 0
M  V30 3296 C 322.452 -2.05503 -2.79974 0
M  V30 3297 C 321.406 -3.21318 -2.82734 0
M  V30 3298 C 320.732 -3.2749 -4.22675 0
M  V30 3299 C 322.032 -4.59456 -2.48389 0
M  V30 3300 H 323.726 -2.75461 -1.17311 0
M  V30 3301 H 321.272 -1.32542 -0.562896 0
M  V30 3302 H 323.225 -2.25691 -3.55867 0
M  V30 3303 H 321.949 -1.11434 -3.07002 0
M  V30 3304 H 320.608 -3.00984 -2.09294 0
M  V30 3305 H 320.256 -2.31019 -4.4681 0
M  V30 3306 H 319.956 -4.05316 -4.25433 0
M  V30 3307 H 321.48 -3.49887 -5.00412 0
M  V30 3308 H 322.894 -4.79667 -3.13995 0
M  V30 3309 H 321.291 -5.39675 -2.62432 0
M  V30 3310 H 322.361 -4.63155 -1.4358 0
M  V30 3311 N 323.704 0.605807 -1.45491 0
M  V30 3312 C 324.614 1.74466 -1.56839 0
M  V30 3313 C 325.63 1.68006 -0.452772 0
M  V30 3314 O 326.806 1.8833 -0.713708 0
M  V30 3315 C 323.871 3.10931 -1.53371 0
M  V30 3316 C 322.932 3.28832 -2.75986 0
M  V30 3317 C 322.165 4.58787 -2.72673 0
M  V30 3318 O 322.388 5.4122 -1.80102 0
M  V30 3319 O 321.322 4.79438 -3.63899 0
M  V30 3320 H 325.148 1.67843 -2.53106 0
M  V30 3321 H 322.733 0.770108 -1.28022 0
M  V30 3322 H 324.615 3.92233 -1.54051 0
M  V30 3323 H 323.29 3.18042 -0.602572 0
M  V30 3324 H 322.197 2.47112 -2.80867 0
M  V30 3325 H 323.53 3.26599 -3.68231 0
M  V30 3326 N 325.182 1.32811 0.848464 0
M  V30 3327 C 326.112 1.24882 1.97299 0
M  V30 3328 C 327.093 0.131357 1.69592 0
M  V30 3329 O 328.278 0.319553 1.91553 0
M  V30 3330 C 325.408 0.97746 3.33261 0
M  V30 3331 C 324.362 2.05682 3.75338 0
M  V30 3332 C 323.688 1.63777 5.09 0
M  V30 3333 C 324.988 3.47254 3.90144 0
M  V30 3334 H 326.682 2.18966 2.04191 0
M  V30 3335 H 324.228 1.05413 0.981029 0
M  V30 3336 H 326.181 0.908513 4.1149 0
M  V30 3337 H 324.905 0.000980011 3.266 0
M  V30 3338 H 323.564 2.11603 2.99366 0
M  V30 3339 H 323.212 0.648569 4.98801 0
M  V30 3340 H 322.912 2.36 5.38124 0
M  V30 3341 H 324.436 1.5833 5.89715 0
M  V30 3342 H 325.85 3.43888 4.58709 0
M  V30 3343 H 324.247 4.1788 4.30693 0
M  V30 3344 H 325.317 3.86462 2.92874 0
M  V30 3345 N 326.66 -1.06551 1.16123 0
M  V30 3346 C 327.623 -2.12132 0.867906 0
M  V30 3347 C 328.623 -1.60224 -0.135944 0
M  V30 3348 O 329.813 -1.73943 0.0946422 0
M  V30 3349 C 326.945 -3.396 0.297419 0
M  V30 3350 H 328.138 -2.39586 1.80385 0
M  V30 3351 H 325.691 -1.22574 0.969812 0
M  V30 3352 H 326.426 -3.17794 -0.64633 0
M  V30 3353 H 326.211 -3.78581 1.02073 0
M  V30 3354 H 327.701 -4.17455 0.110052 0
M  V30 3355 N 328.138 -0.959301 -1.25041 0
M  V30 3356 C 329.07 -0.440543 -2.24926 0
M  V30 3357 C 330.083 0.446131 -1.56568 0
M  V30 3358 O 331.272 0.253657 -1.76689 0
M  V30 3359 C 328.372 0.38412 -3.36716 0
M  V30 3360 C 327.545 -0.490658 -4.34639 0
M  V30 3361 C 326.604 0.276587 -5.25473 0
M  V30 3362 O 325.63 -0.326614 -5.68262 0
M  V30 3363 N 326.832 1.56844 -5.5891 0
M  V30 3364 H 329.597 -1.29931 -2.70071 0
M  V30 3365 H 327.158 -0.830181 -1.38995 0
M  V30 3366 H 329.15 0.905228 -3.94446 0
M  V30 3367 H 327.72 1.14377 -2.90924 0
M  V30 3368 H 326.94 -1.19282 -3.7572 0
M  V30 3369 H 328.228 -1.08756 -4.97041 0
M  V30 3370 H 327.626 2.08036 -5.26059 0
M  V30 3371 H 326.183 2.03541 -6.19205 0
M  V30 3372 N 329.616 1.39756 -0.72842 0
M  V30 3373 C 330.548 2.29157 -0.0446202 0
M  V30 3374 C 331.561 1.46484 0.710367 0
M  V30 3375 O 332.75 1.69632 0.55562 0
M  V30 3376 C 329.85 3.24987 0.961071 0
M  V30 3377 C 329.023 4.36572 0.268967 0
M  V30 3378 C 328.082 5.12756 1.18184 0
M  V30 3379 O 327.108 5.6534 0.661794 0
M  V30 3380 N 328.31 5.23331 2.51206 0
M  V30 3381 H 331.075 2.88482 -0.812295 0
M  V30 3382 H 328.636 1.51265 -0.577098 0
M  V30 3383 H 330.628 3.72827 1.57423 0
M  V30 3384 H 329.198 2.66739 1.63 0
M  V30 3385 H 328.418 3.90694 -0.524574 0
M  V30 3386 H 329.706 5.08363 -0.210934 0
M  V30 3387 H 329.104 4.82116 2.9594 0
M  V30 3388 H 327.661 5.74634 3.07634 0
M  V30 3389 N 331.094 0.475555 1.50254 0
M  V30 3390 C 332.342 -0.077738 2.0195 0
M  V30 3391 C 332.663 -1.39813 1.35931 0
M  V30 3392 O 331.933 -1.89249 0.506123 0
M  V30 3393 H 330.513 -0.031719 0.746326 0
M  V30 3394 H 333.175 0.626995 1.84539 0
M  V30 3395 H 332.271 -0.225995 3.11281 0
M  V30 3396 N 332.573 -1.56217 0.208337 0
M  V30 3397 C 333.506 -2.15633 -0.746842 0
M  V30 3398 C 334.484 -1.09685 -1.20034 0
M  V30 3399 O 335.668 -1.3787 -1.28547 0
M  V30 3400 C 332.795 -2.72594 -2.01023 0
M  V30 3401 C 331.841 -3.91251 -1.69779 0
M  V30 3402 S 332.674 -5.28962 -0.834209 0
M  V30 3403 C 333.83 -5.89353 -2.10745 0
M  V30 3404 H 334.063 -2.96315 -0.241789 0
M  V30 3405 H 331.596 -1.54398 -0.00682183 0
M  V30 3406 H 333.554 -3.06053 -2.73572 0
M  V30 3407 H 332.215 -1.91929 -2.48641 0
M  V30 3408 H 331.408 -4.29562 -2.63614 0
M  V30 3409 H 331.01 -3.58869 -1.05303 0
M  V30 3410 H 333.302 -6.04522 -3.05875 0
M  V30 3411 H 334.245 -6.85661 -1.76845 0
M  V30 3412 H 334.653 -5.1807 -2.24196 0
M  V30 3413 N 334.051 0.0651679 -1.57465 0
M  V30 3414 C 334.983 1.10359 -2.00882 0
M  V30 3415 C 335.996 1.346 -0.915788 0
M  V30 3416 O 337.185 1.32723 -1.1936 0
M  V30 3417 C 334.285 2.45312 -2.33828 0
M  V30 3418 C 333.458 2.40934 -3.65061 0
M  V30 3419 C 332.517 3.58047 -3.85602 0
M  V30 3420 O 331.543 3.39175 -4.57109 0
M  V30 3421 N 332.745 4.78637 -3.28462 0
M  V30 3422 H 335.51 0.733807 -2.90578 0
M  V30 3423 H 333.071 0.253719 -1.599 0
M  V30 3424 H 335.063 3.22314 -2.44737 0
M  V30 3425 H 333.633 2.74267 -1.49988 0
M  V30 3426 H 332.853 1.49273 -3.64844 0
M  V30 3427 H 334.141 2.35117 -4.51218 0
M  V30 3428 H 333.539 4.96872 -2.70433 0
M  V30 3429 H 332.096 5.53127 -3.44809 0
M  V30 3430 N 335.529 1.53961 0.336706 0
M  V30 3431 C 336.439 1.85432 1.43708 0
M  V30 3432 C 337.455 0.745053 1.57242 0
M  V30 3433 O 338.631 1.03804 1.72588 0
M  V30 3434 C 335.696 2.06349 2.78605 0
M  V30 3435 C 334.757 3.30191 2.74358 0
M  V30 3436 C 333.99 3.50101 4.02822 0
M  V30 3437 O 334.213 2.7371 5.00439 0
M  V30 3438 O 333.147 4.43547 4.06878 0
M  V30 3439 H 336.973 2.78975 1.20028 0
M  V30 3440 H 334.558 1.39701 0.52952 0
M  V30 3441 H 336.44 2.21513 3.58483 0
M  V30 3442 H 335.115 1.15995 3.02203 0
M  V30 3443 H 334.022 3.20425 1.93078 0
M  V30 3444 H 335.355 4.2056 2.55715 0
M  V30 3445 N 337.007 -0.598083 1.45811 0
M  V30 3446 C 337.937 -1.71873 1.58057 0
M  V30 3447 C 338.918 -1.64533 0.431615 0
M  V30 3448 O 340.103 -1.82787 0.65595 0
M  V30 3449 C 337.233 -3.10495 1.55597 0
M  V30 3450 C 336.187 -3.32654 2.69305 0
M  V30 3451 C 335.513 -4.71646 2.51902 0
M  V30 3452 C 336.813 -3.21981 4.11248 0
M  V30 3453 H 338.507 -1.61881 2.51863 0
M  V30 3454 H 336.053 -0.777372 1.21214 0
M  V30 3455 H 338.006 -3.88699 1.6276 0
M  V30 3456 H 336.73 -3.2135 0.583255 0
M  V30 3457 H 335.389 -2.56843 2.61586 0
M  V30 3458 H 335.037 -4.79246 1.52748 0
M  V30 3459 H 334.737 -4.87426 3.2816 0
M  V30 3460 H 336.261 -5.52038 2.60933 0
M  V30 3461 H 337.675 -3.90049 4.20161 0
M  V30 3462 H 336.072 -3.49289 4.87972 0
M  V30 3463 H 337.142 -2.1928 4.32486 0
M  V30 3464 N 338.485 -1.33259 -0.841409 0
M  V30 3465 C 339.732 -1.24572 -1.5965 0
M  V30 3466 C 340.06 0.189137 -1.93578 0
M  V30 3467 O 339.315 1.14566 -1.5866 0
M  V30 3468 C 339.614 -2.06381 -2.9179 0
M  V30 3469 C 339.28 -3.556 -2.77235 0
M  V30 3470 C 337.942 -3.96282 -2.72973 0
M  V30 3471 C 340.294 -4.50433 -2.62221 0
M  V30 3472 C 337.622 -5.30017 -2.51592 0
M  V30 3473 C 339.974 -5.84327 -2.42374 0
M  V30 3474 C 338.638 -6.24194 -2.36512 0
M  V30 3475 H 337.908 -0.455842 -0.5842 0
M  V30 3476 H 340.555 -1.6482 -0.975016 0
M  V30 3477 H 338.86 -1.58903 -3.5813 0
M  V30 3478 H 340.557 -1.97019 -3.49263 0
M  V30 3479 H 337.147 -3.23298 -2.81384 0
M  V30 3480 H 341.331 -4.19914 -2.64549 0
M  V30 3481 H 336.587 -5.59947 -2.45499 0
M  V30 3482 H 340.761 -6.57414 -2.29739 0
M  V30 3483 H 338.388 -7.27759 -2.19706 0
M  V30 3484 N 339.963 1.05934 -1.16686 0
M  V30 3485 C 340.873 2.17014 -0.891183 0
M  V30 3486 C 341.889 1.73453 0.137907 0
M  V30 3487 O 343.065 2.01361 -0.039592 0
M  V30 3488 C 340.13 3.44384 -0.400099 0
M  V30 3489 C 339.191 4.02433 -1.49486 0
M  V30 3490 C 338.424 5.23723 -1.02711 0
M  V30 3491 O 338.647 5.7027 0.121716 0
M  V30 3492 O 337.581 5.7382 -1.81699 0
M  V30 3493 H 341.407 2.43113 -1.82015 0
M  V30 3494 H 338.992 1.15541 -0.947132 0
M  V30 3495 H 340.874 4.21189 -0.133392 0
M  V30 3496 H 339.549 3.19802 0.500817 0
M  V30 3497 H 338.456 3.27102 -1.81535 0
M  V30 3498 H 339.789 4.31317 -2.37121 0
M  V30 3499 N 341.441 0.965919 1.2453 0
M  V30 3500 C 342.371 0.513476 2.27784 0
M  V30 3501 C 343.352 -0.445974 1.6415 0
M  V30 3502 O 344.537 -0.342485 1.91156 0
M  V30 3503 C 341.667 -0.198839 3.4673 0
M  V30 3504 C 340.621 0.676456 4.2262 0
M  V30 3505 C 339.947 -0.167248 5.34438 0
M  V30 3506 C 341.247 1.96017 4.84123 0
M  V30 3507 H 342.941 1.3765 2.65881 0
M  V30 3508 H 340.487 0.663321 1.27813 0
M  V30 3509 H 342.44 -0.526567 4.18097 0
M  V30 3510 H 341.164 -1.0962 3.07654 0
M  V30 3511 H 339.823 0.98743 3.53052 0
M  V30 3512 H 339.471 -1.0647 4.91603 0
M  V30 3513 H 339.171 0.415181 5.86131 0
M  V30 3514 H 340.695 -0.489688 6.08633 0
M  V30 3515 H 342.109 1.69814 5.47573 0
M  V30 3516 H 340.506 2.48918 5.4604 0
M  V30 3517 H 341.576 2.65622 4.05676 0
M  V30 3518 N 342.919 -1.39368 0.735821 0
M  V30 3519 C 343.851 -2.2913 0.0567723 0
M  V30 3520 C 344.864 -1.46859 -0.702589 0
M  V30 3521 O 346.053 -1.69925 -0.546616 0
M  V30 3522 C 343.153 -3.25492 -0.943823 0
M  V30 3523 C 342.326 -4.36709 -0.24581 0
M  V30 3524 C 341.385 -5.13376 -1.15463 0
M  V30 3525 O 340.411 -5.65683 -0.631803 0
M  V30 3526 N 341.613 -5.24656 -2.48427 0
M  V30 3527 H 344.378 -2.88047 0.827582 0
M  V30 3528 H 341.939 -1.50957 0.585112 0
M  V30 3529 H 343.931 -3.73657 -1.55443 0
M  V30 3530 H 342.501 -2.676 -1.61583 0
M  V30 3531 H 341.721 -3.9041 0.545286 0
M  V30 3532 H 343.009 -5.08244 0.237891 0
M  V30 3533 H 342.407 -4.83679 -2.93379 0
M  V30 3534 H 340.964 -5.76258 -3.04582 0
M  V30 3535 N 344.397 -0.483516 -1.5 0
M  V30 3536 C 345.813 -0.138404 -1.58999 0
M  V30 3537 C 346.013 1.35597 -1.4905 0
M  V30 3538 O 345.069 2.13039 -1.35539 0
M  V30 3539 C 346.382 -0.699658 -2.92447 0
M  V30 3540 C 347.93 -0.664195 -3.05872 0
M  V30 3541 C 348.405 -1.20321 -4.41913 0
M  V30 3542 N 349.896 -1.16315 -4.48358 0
M  V30 3543 C 350.631 -1.55058 -5.52037 0
M  V30 3544 N 350.127 -2.01311 -6.62907 0
M  V30 3545 N 351.92 -1.46584 -5.42651 0
M  V30 3546 H 344.071 -1.45529 -1.5471 0
M  V30 3547 H 346.334 -0.60258 -0.731848 0
M  V30 3548 H 346.04 -1.747 -3.05242 0
M  V30 3549 H 345.914 -0.150194 -3.76901 0
M  V30 3550 H 348.301 0.374272 -2.92717 0
M  V30 3551 H 348.382 -1.25061 -2.23144 0
M  V30 3552 H 348.026 -2.24037 -4.55818 0
M  V30 3553 H 347.956 -0.592896 -5.23252 0
M  V30 3554 H 350.447 -0.824058 -3.68806 0
M  V30 3555 H 350.76 -2.2899 -7.38095 0
M  V30 3556 H 349.105 -2.05273 -6.63994 0
M  V30 3557 H 352.296 -1.10281 -4.54924 0
M  V30 3558 H 352.469 -1.77103 -6.23329 0
M  V30 3559 N 345.875 1.56104 -0.216619 0
M  V30 3560 C 346.838 2.18819 0.681962 0
M  V30 3561 C 347.838 1.14866 1.12528 0
M  V30 3562 O 349.028 1.40128 1.03488 0
M  V30 3563 C 346.16 2.80756 1.93362 0
M  V30 3564 H 347.353 2.99595 0.135254 0
M  V30 3565 H 344.906 1.56265 0.0330003 0
M  V30 3566 H 345.641 2.03837 2.52232 0
M  V30 3567 H 345.426 3.56876 1.62426 0
M  V30 3568 H 346.916 3.28844 2.57393 0
M  V30 3569 N 347.353 -0.0568162 1.57498 0
M  V30 3570 C 348.316 -1.05038 2.03715 0
M  V30 3571 C 349.316 -1.30709 0.936577 0
M  V30 3572 O 350.506 -1.26178 1.20103 0
M  V30 3573 C 347.638 -2.39034 2.43055 0
M  V30 3574 H 348.831 -0.651715 2.92733 0
M  V30 3575 H 346.384 -0.302947 1.53336 0
M  V30 3576 H 347.119 -2.83703 1.57108 0
M  V30 3577 H 346.904 -2.21739 3.2338 0
M  V30 3578 H 348.394 -3.10421 2.79336 0
M  V30 3579 N 348.832 -1.54138 -0.328536 0
M  V30 3580 C 349.762 -1.86167 -1.40939 0
M  V30 3581 C 350.743 -0.718044 -1.54202 0
M  V30 3582 O 351.928 -0.971328 -1.68163 0
M  V30 3583 C 349.058 -2.08461 -2.77779 0
M  V30 3584 C 348.012 -3.24299 -2.7931 0
M  V30 3585 C 347.338 -3.31955 -4.19178 0
M  V30 3586 C 348.638 -4.62065 -2.43502 0
M  V30 3587 H 350.332 -2.76689 -1.14383 0
M  V30 3588 H 347.878 -1.33132 -0.548806 0
M  V30 3589 H 349.831 -2.29453 -3.53454 0
M  V30 3590 H 348.555 -1.14684 -3.05802 0
M  V30 3591 H 347.214 -3.03187 -2.0609 0
M  V30 3592 H 346.862 -2.35745 -4.44335 0
M  V30 3593 H 346.562 -4.09805 -4.2111 0
M  V30 3594 H 348.086 -3.55175 -4.96672 0
M  V30 3595 H 349.5 -4.8297 -3.08889 0
M  V30 3596 H 347.897 -5.42429 -2.56693 0
M  V30 3597 H 348.967 -4.64652 -1.38659 0
M  V30 3598 N 350.31 0.590341 -1.46126 0
M  V30 3599 C 351.273 1.68194 -1.55703 0
M  V30 3600 C 352.273 1.54808 -0.434868 0
M  V30 3601 O 353.463 1.59564 -0.698928 0
M  V30 3602 C 350.595 3.07575 -1.47005 0
M  V30 3603 H 351.788 1.61064 -2.52979 0
M  V30 3604 H 349.341 0.807541 -1.33823 0
M  V30 3605 H 350.076 3.20268 -0.509785 0
M  V30 3606 H 349.861 3.187 -2.28414 0
M  V30 3607 H 351.351 3.87055 -1.56776 0
M  V30 3608 N 351.788 1.33704 0.83433 0
M  V30 3609 C 352.698 1.26382 1.97648 0
M  V30 3610 C 353.714 0.173548 1.73132 0
M  V30 3611 O 354.89 0.397962 1.97429 0
M  V30 3612 C 351.955 1.00769 3.31733 0
M  V30 3613 C 351.016 2.1884 3.69334 0
M  V30 3614 C 350.249 1.9444 4.9702 0
M  V30 3615 O 350.472 0.896961 5.63303 0
M  V30 3616 O 349.406 2.81093 5.32231 0
M  V30 3617 H 353.232 2.22444 2.06767 0
M  V30 3618 H 350.817 1.13795 0.968037 0
M  V30 3619 H 352.699 0.882186 4.12062 0
M  V30 3620 H 351.374 0.0773783 3.23608 0
M  V30 3621 H 350.281 2.36946 2.89495 0
M  V30 3622 H 351.614 3.10221 3.82131 0
M  V30 3623 O 353.305 -0.972346 1.28948 0
M  V30 3624 H 353.996 -1.59791 1.09484 0
M  V30 END ATOM
M  V30 BEGIN BOND
M  V30 END BOND
M  V30 END CTAB
M  END
$$$$
