drugbank_target|P50607 Tubby protein homolog (DB02028)
 OpenBabel12092120553D

  0  0  0     0  0            999 V3000
M  V30 BEGIN CTAB
M  V30 COUNTS 7758 7822 0 0 0
M  V30 BEGIN ATOM
M  V30 1 H -0.908 1.98254 -0.117106 0
M  V30 2 N 0 1.576 0 0
M  V30 3 C 0.933 2.03868 1.02534 0
M  V30 4 C 1.911 0.928543 1.3348 0
M  V30 5 O 3.095 1.19667 1.45644 0
M  V30 6 C 0.222 2.43627 2.35294 0
M  V30 7 C -0.732 3.65373 2.2001 0
M  V30 8 S 0.101 5.13292 1.52614 0
M  V30 9 C 1.257 5.56322 2.86805 0
M  V30 10 H 1.49 2.90518 0.631377 0
M  V30 11 H -0.977 1.52953 0.210867 0
M  V30 12 H 0.981 2.67203 3.11629 0
M  V30 13 H -0.358 1.57376 2.7183 0
M  V30 14 H -1.165 3.90944 3.18086 0
M  V30 15 H -1.563 3.418 1.51819 0
M  V30 16 H 0.729 5.58782 3.83104 0
M  V30 17 H 1.672 6.56266 2.65933 0
M  V30 18 H 2.08 4.83886 2.90714 0
M  V30 19 N 1.4781 -0.272755 1.55222 0
M  V30 20 C 2.7061 -1.02255 1.79865 0
M  V30 21 C 3.1211 -1.79924 0.572088 0
M  V30 22 O 2.4781 -1.76638 -0.458842 0
M  V30 23 C 2.5291 -1.98094 3.02392 0
M  V30 24 O 2.2501 -1.23572 4.20311 0
M  V30 25 C 3.7511 -2.84884 3.39641 0
M  V30 26 H 0.9711 -0.302057 0.599168 0
M  V30 27 H 3.5151 -0.303465 2.02236 0
M  V30 28 H 1.6701 -2.65465 2.82147 0
M  V30 29 H 2.0841 -1.88172 4.89583 0
M  V30 30 H 3.5581 -3.47927 4.28545 0
M  V30 31 H 4.0351 -3.54665 2.59055 0
M  V30 32 H 4.6411 -2.23003 3.62146 0
M  V30 33 N 2.9562 -1.48159 -0.537278 0
M  V30 34 C 4.1812 -1.59707 -1.32319 0
M  V30 35 C 4.6062 -0.254859 -1.86365 0
M  V30 36 O 3.9642 0.772378 -1.64024 0
M  V30 37 C 4.0122 -2.6412 -2.45505 0
M  V30 38 O 3.1162 -2.20774 -3.48328 0
M  V30 39 H 2.4572 -0.535791 -0.392204 0
M  V30 40 H 4.9872 -1.94092 -0.647268 0
M  V30 41 H 4.9972 -2.85166 -2.91795 0
M  V30 42 H 3.6722 -3.61567 -2.05528 0
M  V30 43 H 2.2492 -2.09911 -3.08207 0
M  V30 44 N 4.4343 0.785586 -1.36625 0
M  V30 45 C 5.3813 1.89838 -1.31264 0
M  V30 46 C 6.3513 1.65115 -0.180633 0
M  V30 47 O 7.5363 1.87222 -0.36777 0
M  V30 48 C 4.6763 3.26706 -1.11163 0
M  V30 49 C 3.7893 3.63476 -2.33472 0
M  V30 50 C 2.9243 4.89481 -2.06353 0
M  V30 51 C 1.9633 5.18941 -3.24602 0
M  V30 52 N 1.1003 6.36131 -2.97123 0
M  V30 53 H 5.9403 1.93756 -2.26413 0
M  V30 54 H 3.4773 0.947454 -1.12524 0
M  V30 55 H 5.4353 4.05639 -0.975337 0
M  V30 56 H 4.0653 3.222 -0.196674 0
M  V30 57 H 3.1173 2.79636 -2.57891 0
M  V30 58 H 4.4293 3.81193 -3.21704 0
M  V30 59 H 3.5833 5.76288 -1.89675 0
M  V30 60 H 2.3223 4.73841 -1.15437 0
M  V30 61 H 1.3273 4.30615 -3.41834 0
M  V30 62 H 2.5523 5.36498 -4.16349 0
M  V30 63 H 0.4983 6.21875 -2.08823 0
M  V30 64 H 0.4153 6.54198 -3.78894 0
M  V30 65 H 1.6833 7.2591 -2.84033 0
M  V30 66 N 5.9124 1.20967 1.01018 0
M  V30 67 C 7.3234 1.02319 1.56165 0
M  V30 68 C 7.6744 -0.418546 1.91684 0
M  V30 69 O 6.7994 -1.30096 1.72928 0
M  V30 70 C 7.3944 1.85109 2.8376 0
M  V30 71 C 5.9534 1.70809 3.35412 0
M  V30 72 C 5.1004 1.82643 2.08655 0
M  V30 73 H 8.0514 1.35065 0.833255 0
M  V30 74 H 8.0724 1.35827 3.55431 0
M  V30 75 H 7.5844 2.90035 2.57878 0
M  V30 76 H 5.6854 0.685464 3.66241 0
M  V30 77 H 5.7984 2.52467 4.07182 0
M  V30 78 H 4.1624 1.25896 2.21409 0
M  V30 79 H 4.9454 2.89066 1.85191 0
M  V30 80 N 7.3905 -1.2043 1.01659 0
M  V30 81 C 8.3405 -2.21076 0.557623 0
M  V30 82 C 9.3245 -1.56176 -0.387029 0
M  V30 83 O 10.5165 -1.7575 -0.209996 0
M  V30 84 C 7.6455 -3.43146 -0.102707 0
M  V30 85 C 6.7315 -4.15213 0.863652 0
M  V30 86 N 7.1225 -4.63662 2.02117 0
M  V30 87 C 5.4205 -4.40716 0.684472 0
M  V30 88 C 6.1215 -5.18868 2.62966 0
M  V30 89 N 5.0975 -5.0893 1.91027 0
M  V30 90 H 8.8995 -2.56201 1.44008 0
M  V30 91 H 6.4135 -1.36366 0.881931 0
M  V30 92 H 8.4105 -4.14475 -0.449054 0
M  V30 93 H 7.0705 -3.09526 -0.981003 0
M  V30 94 H 8.0815 -4.58877 2.40109 0
M  V30 95 H 4.7585 -4.17245 -0.14577 0
M  V30 96 H 6.1485 -5.6673 3.60924 0
M  V30 97 N 8.8686 -0.792821 -1.36206 0
M  V30 98 C 10.0936 -0.377701 -2.03932 0
M  V30 99 C 10.5186 0.998947 -1.59382 0
M  V30 100 O 9.8766 1.64421 -0.763903 0
M  V30 101 C 9.9246 -0.453635 -3.57735 0
M  V30 102 O 9.0286 0.538151 -4.08874 0
M  V30 103 H 8.3696 -0.159855 -0.644471 0
M  V30 104 H 10.8996 -1.07488 -1.7409 0
M  V30 105 H 10.9096 -0.318464 -4.06755 0
M  V30 106 H 9.5846 -1.45784 -3.89512 0
M  V30 107 H 8.1616 0.364359 -3.71116 0
M  V30 108 N 10.3467 1.47872 -0.545128 0
M  V30 109 C 11.6237 1.9554 0.0485222 0
M  V30 110 C 12.0037 1.4876 1.49779 0
M  V30 111 O 11.3517 0.720925 2.16829 0
M  V30 112 C 11.5617 3.48898 -0.084417 0
M  V30 113 C 12.9097 4.24547 0.0671239 0
M  V30 114 O 13.9337 3.56198 -0.0113649 0
M  V30 115 O 12.7927 5.45999 0.233882 0
M  V30 116 H 9.8867 0.823957 0.0708773 0
M  V30 117 H 12.4327 1.58327 -0.610798 0
M  V30 118 H 11.2047 3.75714 -1.09337 0
M  V30 119 H 10.8277 3.92845 0.613066 0
M  V30 120 N 11.8248 0.280983 1.55075 0
M  V30 121 C 13.0708 -0.327573 2.00745 0
M  V30 122 C 13.4258 -1.53045 1.16598 0
M  V30 123 O 12.7188 -1.90221 0.229451 0
M  V30 124 C 12.9128 -0.754656 3.49342 0
M  V30 125 C 12.7418 0.40529 4.4787 0
M  V30 126 C 11.5118 0.890947 4.97383 0
M  V30 127 C 13.7098 1.24371 4.99035 0
M  V30 128 N 11.6918 2.01975 5.79724 0
M  V30 129 C 13.0628 2.22031 5.7888 0
M  V30 130 C 15.1178 1.27638 4.81262 0
M  V30 131 C 13.8208 3.22709 6.42846 0
M  V30 132 C 15.8468 2.27164 5.46031 0
M  V30 133 C 15.2088 3.23556 6.25692 0
M  V30 134 H 11.3078 -0.0848774 0.77738 0
M  V30 135 H 13.8918 0.406342 1.90413 0
M  V30 136 H 12.0628 -1.45778 3.60005 0
M  V30 137 H 13.7948 -1.34105 3.81835 0
M  V30 138 H 10.5498 0.469262 4.71269 0
M  V30 139 H 10.9738 2.58794 6.25584 0
M  V30 140 H 15.6158 0.544936 4.19274 0
M  V30 141 H 13.3338 3.96784 7.0398 0
M  V30 142 H 16.9198 2.30441 5.34217 0
M  V30 143 H 15.7998 3.99309 6.74924 0
M  V30 144 N 13.3029 -1.57598 0.00835791 0
M  V30 145 C 14.5519 -1.90107 -0.673968 0
M  V30 146 C 14.8649 -0.884275 -1.7447 0
M  V30 147 O 16.0709 -1.09987 -2.48224 0
M  V30 148 C 14.5269 -3.37497 -1.24995 0
M  V30 149 C 14.1349 -4.47491 -0.2136 0
M  V30 150 C 15.8789 -3.79104 -1.90999 0
M  V30 151 C 13.7859 -5.85963 -0.80005 0
M  V30 152 H 12.7159 -0.709393 -0.255495 0
M  V30 153 H 15.3669 -1.83365 0.0702693 0
M  V30 154 H 13.7489 -3.39102 -2.04513 0
M  V30 155 H 14.9229 -4.57414 0.557596 0
M  V30 156 H 13.2379 -4.14956 0.346474 0
M  V30 157 H 15.8349 -4.79901 -2.35795 0
M  V30 158 H 16.1779 -3.1306 -2.74407 0
M  V30 159 H 16.7109 -3.79833 -1.18203 0
M  V30 160 H 13.4499 -6.555 -0.00456708 0
M  V30 161 H 12.9699 -5.79687 -1.54021 0
M  V30 162 H 14.6489 -6.33884 -1.29615 0
M  V30 163 N 14.781 0.264519 -1.55364 0
M  V30 164 C 16.192 0.834936 -1.6699 0
M  V30 165 C 16.543 1.86718 -0.602552 0
M  V30 166 O 15.668 2.14899 0.254425 0
M  V30 167 C 16.263 1.5212 -3.02729 0
M  V30 168 C 14.822 2.03954 -3.16354 0
M  V30 169 C 13.969 0.884498 -2.62815 0
M  V30 170 H 16.92 0.0406869 -1.58648 0
M  V30 171 H 16.941 2.38853 -2.96191 0
M  V30 172 H 16.453 0.769668 -3.80392 0
M  V30 173 H 14.554 2.82041 -2.43482 0
M  V30 174 H 14.667 2.24902 -4.23032 0
M  V30 175 H 13.031 1.2802 -2.20188 0
M  V30 176 H 13.814 0.14634 -3.42988 0
M  V30 177 N 16.2591 1.48442 0.529413 0
M  V30 178 C 17.4891 1.59919 1.30804 0
M  V30 179 C 17.8971 0.258792 1.87422 0
M  V30 180 O 17.2401 -0.762096 1.67146 0
M  V30 181 C 17.3021 2.58693 2.49636 0
M  V30 182 C 16.9661 4.03745 2.14101 0
M  V30 183 C 17.9631 4.9141 1.6974 0
M  V30 184 C 15.6481 4.49285 2.24607 0
M  V30 185 C 17.6421 6.22645 1.36351 0
M  V30 186 C 15.3291 5.8054 1.9083 0
M  V30 187 C 16.3271 6.67043 1.46773 0
M  V30 188 O 16.0151 7.95856 1.1344 0
M  V30 189 H 15.7471 0.541981 0.404021 0
M  V30 190 H 18.3011 1.95 0.645309 0
M  V30 191 H 16.5311 2.18734 3.18892 0
M  V30 192 H 18.2201 2.59999 3.11698 0
M  V30 193 H 18.9861 4.57465 1.61094 0
M  V30 194 H 14.8651 3.82142 2.57854 0
M  V30 195 H 18.4091 6.90119 1.01891 0
M  V30 196 H 14.3061 6.14022 1.99117 0
M  V30 197 H 15.0741 8.08613 1.26832 0
M  V30 198 N 17.7372 -0.778329 1.37039 0
M  V30 199 C 18.9622 -1.57248 1.35233 0
M  V30 200 C 19.3872 -1.87999 -0.0615568 0
M  V30 201 O 18.7452 -1.48734 -1.03672 0
M  V30 202 C 18.7932 -2.86353 2.19167 0
M  V30 203 O 17.8972 -3.80442 1.59178 0
M  V30 204 H 17.2382 -0.476569 0.462362 0
M  V30 205 H 19.7682 -0.963853 1.80474 0
M  V30 206 H 19.7782 -3.35519 2.32145 0
M  V30 207 H 18.4532 -2.63299 3.21942 0
M  V30 208 H 17.0302 -3.39067 1.55203 0
M  V30 209 N 19.2153 -1.21501 -1.00376 0
M  V30 210 C 20.4613 -1.03452 -1.74429 0
M  V30 211 C 20.7943 0.430764 -1.89362 0
M  V30 212 O 20.0693 1.31962 -1.42886 0
M  V30 213 C 20.3523 -1.73375 -3.15615 0
M  V30 214 C 20.2053 -3.27431 -3.08397 0
M  V30 215 C 21.5243 -1.47732 -4.14564 0
M  V30 216 H 18.6433 -0.377226 -0.633143 0
M  V30 217 H 21.2853 -1.49693 -1.17013 0
M  V30 218 H 19.4353 -1.34064 -3.64636 0
M  V30 219 H 21.1073 -3.76119 -2.67081 0
M  V30 220 H 19.3503 -3.5767 -2.45468 0
M  V30 221 H 20.0213 -3.71524 -4.08258 0
M  V30 222 H 22.4973 -1.8186 -3.74254 0
M  V30 223 H 21.3733 -1.99169 -5.11491 0
M  V30 224 H 21.6343 -0.407589 -4.40217 0
M  V30 225 N 20.6934 1.19889 -1.02296 0
M  V30 226 C 21.6234 2.25141 -0.619174 0
M  V30 227 C 22.6044 1.66051 0.368915 0
M  V30 228 O 23.7894 1.92546 0.252941 0
M  V30 229 C 20.9194 3.4728 0.0368783 0
M  V30 230 C 19.8734 4.19005 -0.872865 0
M  V30 231 C 19.1994 5.34637 -0.0822402 0
M  V30 232 C 20.4994 4.74452 -2.18387 0
M  V30 233 H 22.1934 2.59171 -1.49903 0
M  V30 234 H 19.7394 1.24579 -0.722222 0
M  V30 235 H 21.6924 4.20098 0.330958 0
M  V30 236 H 20.4164 3.12433 0.95149 0
M  V30 237 H 19.0754 3.48061 -1.15105 0
M  V30 238 H 18.7234 4.96034 0.83422 0
M  V30 239 H 18.4234 5.83557 -0.688149 0
M  V30 240 H 19.9474 6.10255 0.205238 0
M  V30 241 H 21.3614 5.39055 -1.95172 0
M  V30 242 H 19.7584 5.33834 -2.74119 0
M  V30 243 H 20.8284 3.92844 -2.84257 0
M  V30 244 N 22.1715 0.800033 1.35784 0
M  V30 245 C 23.4485 0.30088 1.93272 0
M  V30 246 C 23.8285 -1.20857 1.73081 0
M  V30 247 O 23.1765 -2.00502 1.09596 0
M  V30 248 C 23.3865 0.70511 3.41803 0
M  V30 249 C 24.7345 0.690871 4.18942 0
M  V30 250 O 25.7585 0.646244 3.50289 0
M  V30 251 O 24.6175 0.74332 5.41421 0
M  V30 252 H 21.7115 0.0771605 0.823393 0
M  V30 253 H 24.2575 0.88329 1.449 0
M  V30 254 H 23.0295 1.74571 3.50201 0
M  V30 255 H 22.6525 0.0971541 3.97481 0
M  V30 256 N 23.6496 -1.47581 0.552962 0
M  V30 257 C 24.9266 -1.95563 -0.0381515 0
M  V30 258 C 25.3066 -1.49552 -1.48988 0
M  V30 259 O 24.6546 -0.732414 -2.16444 0
M  V30 260 C 24.8646 -3.48848 0.102919 0
M  V30 261 C 26.2126 -4.24577 -0.0446082 0
M  V30 262 O 27.2366 -3.56187 0.0302548 0
M  V30 263 O 26.0956 -5.46116 -0.204923 0
M  V30 264 H 23.1896 -0.824321 -0.0665067 0
M  V30 265 H 25.7356 -1.58001 0.619186 0
M  V30 266 H 24.5076 -3.75129 1.11328 0
M  V30 267 H 24.1306 -3.93165 -0.592224 0
M  V30 268 N 25.1277 -0.289203 -1.54924 0
M  V30 269 C 26.0377 0.601863 -2.26748 0
M  V30 270 C 27.0537 1.15834 -1.2984 0
M  V30 271 O 28.2297 1.18564 -1.62802 0
M  V30 272 C 25.2947 1.76299 -2.98529 0
M  V30 273 C 24.3557 1.24178 -4.10948 0
M  V30 274 C 23.5887 2.34757 -4.79296 0
M  V30 275 O 23.8117 3.54411 -4.46933 0
M  V30 276 O 22.7457 2.02115 -5.66951 0
M  V30 277 H 26.5717 0.0195879 -3.03694 0
M  V30 278 H 24.1567 -0.0560868 -1.49295 0
M  V30 279 H 26.0387 2.43973 -3.43592 0
M  V30 280 H 24.7137 2.33209 -2.24488 0
M  V30 281 H 23.6207 0.531104 -3.70311 0
M  V30 282 H 24.9537 0.718252 -4.86931 0
M  V30 283 N 26.6058 1.57591 -0.0167156 0
M  V30 284 C 27.8538 1.90906 0.663285 0
M  V30 285 C 28.1748 0.892509 1.73376 0
M  V30 286 O 27.4448 -0.0677623 1.95783 0
M  V30 287 H 26.0248 0.704637 0.247983 0
M  V30 288 H 28.6868 1.94803 -0.0615909 0
M  V30 289 H 27.7828 2.9116 1.12393 0
M  V30 290 N 28.0839 -0.256276 1.55502 0
M  V30 291 C 29.4999 -0.604325 1.47716 0
M  V30 292 C 29.6999 -1.88763 0.705039 0
M  V30 293 O 28.7559 -2.51445 0.230613 0
M  V30 294 C 30.0689 -0.715756 2.92057 0
M  V30 295 C 31.6169 -0.808706 3.02372 0
M  V30 296 C 32.0919 -0.951777 4.48001 0
M  V30 297 N 33.5829 -1.01688 4.519 0
M  V30 298 C 34.3179 -1.14668 5.61817 0
M  V30 299 N 33.8139 -1.24261 6.81565 0
M  V30 300 N 35.6069 -1.1791 5.49594 0
M  V30 301 H 27.7579 0.586291 2.04148 0
M  V30 302 H 30.0209 0.201015 0.926443 0
M  V30 303 H 29.7269 0.157027 3.51349 0
M  V30 304 H 29.6009 -1.59071 3.42018 0
M  V30 305 H 31.9879 -1.67195 2.43166 0
M  V30 306 H 32.0689 0.0912063 2.55637 0
M  V30 307 H 31.7129 -0.0931291 5.07815 0
M  V30 308 H 31.6429 -1.86659 4.92408 0
M  V30 309 H 34.1339 -0.954468 3.65648 0
M  V30 310 H 34.4469 -1.34046 7.61086 0
M  V30 311 H 32.7919 -1.21236 6.84344 0
M  V30 312 H 35.9829 -1.10057 4.54978 0
M  V30 313 H 36.1559 -1.27681 6.35296 0
M  V30 314 N 29.562 -1.4872 -0.521534 0
M  V30 315 C 30.51 -1.64328 -1.64618 0
M  V30 316 C 31.504 -0.50953 -1.61555 0
M  V30 317 O 32.71 -0.688525 -1.66311 0
M  V30 318 H 29.085 -0.517805 -0.545328 0
M  V30 319 H 31.056 -2.58767 -1.48601 0
M  V30 320 C 29.805 -1.70805 -3.02855 0
M  V30 321 H 29.128 -2.5741 -3.05909 0
M  V30 322 H 30.568 -1.85766 -3.81139 0
M  V30 323 C 29.027 -0.448479 -3.33902 0
M  V30 324 O 29.557 0.434928 -3.99339 0
M  V30 325 N 27.763 -0.317616 -2.88859 0
M  V30 326 H 27.31 -1.03748 -2.35784 0
M  V30 327 H 27.268 0.524113 -3.10001 0
M  V30 328 N 31.0401 0.771051 -1.3745 0
M  V30 329 C 31.9701 1.89827 -1.3597 0
M  V30 330 C 32.9511 1.68562 -0.228216 0
M  V30 331 O 34.1361 1.8941 -0.428675 0
M  V30 332 C 31.2661 3.2712 -1.16662 0
M  V30 333 C 30.2201 3.6295 -2.2683 0
M  V30 334 C 29.5461 4.98791 -1.92644 0
M  V30 335 C 30.8461 3.69627 -3.69017 0
M  V30 336 H 32.5401 1.91323 -2.30295 0
M  V30 337 H 30.0861 0.919082 -1.10855 0
M  V30 338 H 32.0391 4.05615 -1.14256 0
M  V30 339 H 30.7631 3.26059 -0.187926 0
M  V30 340 H 29.4221 2.86763 -2.28392 0
M  V30 341 H 29.0701 4.94271 -0.933021 0
M  V30 342 H 28.7701 5.23733 -2.66416 0
M  V30 343 H 30.2941 5.79685 -1.91826 0
M  V30 344 H 31.7081 4.38273 -3.69581 0
M  V30 345 H 30.1051 4.06067 -4.41848 0
M  V30 346 H 31.1751 2.70273 -4.02592 0
M  V30 347 N 32.5182 1.22032 0.997298 0
M  V30 348 C 33.9342 0.979326 1.26021 0
M  V30 349 C 34.1342 -0.32972 1.98784 0
M  V30 350 O 33.1902 -1.05345 2.29475 0
M  V30 351 C 34.5032 2.17509 2.07631 0
M  V30 352 C 36.0512 2.21817 2.2083 0
M  V30 353 C 36.5262 3.40933 3.05825 0
M  V30 354 N 38.0172 3.41067 3.13412 0
M  V30 355 C 38.7522 4.29885 3.79455 0
M  V30 356 N 38.2482 5.28914 4.47462 0
M  V30 357 N 40.0412 4.17673 3.76173 0
M  V30 358 H 32.1922 2.06202 0.509352 0
M  V30 359 H 34.4552 0.90334 0.287541 0
M  V30 360 H 34.1612 3.12415 1.61524 0
M  V30 361 H 34.0352 2.17206 3.08385 0
M  V30 362 H 36.4222 1.27462 2.66153 0
M  V30 363 H 36.5032 2.2616 1.1952 0
M  V30 364 H 36.1472 4.35586 2.61203 0
M  V30 365 H 36.0772 3.33829 4.07266 0
M  V30 366 H 38.5682 2.69406 2.65007 0
M  V30 367 H 38.8812 5.92973 4.95583 0
M  V30 368 H 37.2262 5.32831 4.46224 0
M  V30 369 H 40.4172 3.39564 3.22202 0
M  V30 370 H 40.5902 4.87098 4.27363 0
M  V30 371 N 33.9963 -1.19345 1.0293 0
M  V30 372 C 34.9283 -2.22036 0.56857 0
M  V30 373 C 35.9413 -1.58865 -0.355779 0
M  V30 374 O 37.1303 -1.77851 -0.152103 0
M  V30 375 C 34.2303 -3.38363 -0.190752 0
M  V30 376 C 33.4033 -4.31118 0.738643 0
M  V30 377 C 32.4623 -5.26194 0.0246497 0
M  V30 378 O 31.4883 -5.65461 0.651354 0
M  V30 379 N 32.6903 -5.66971 -1.24594 0
M  V30 380 H 35.4553 -2.6219 1.45177 0
M  V30 381 H 33.0163 -1.34015 0.908381 0
M  V30 382 H 35.0083 -3.98981 -0.677961 0
M  V30 383 H 33.5783 -2.96994 -0.975366 0
M  V30 384 H 32.7983 -3.68276 1.40593 0
M  V30 385 H 34.0863 -4.90001 1.37029 0
M  V30 386 H 33.4843 -5.37104 -1.77583 0
M  V30 387 H 32.0413 -6.2984 -1.67764 0
M  V30 388 N 35.4744 -0.807222 -1.35358 0
M  V30 389 C 36.4064 -0.175717 -2.28525 0
M  V30 390 C 37.4194 0.625354 -1.5031 0
M  V30 391 O 38.6084 0.457611 -1.72535 0
M  V30 392 C 35.7084 0.773471 -3.29956 0
M  V30 393 C 34.8814 0.0186296 -4.37396 0
M  V30 394 C 33.9404 0.886395 -5.18681 0
M  V30 395 O 32.9664 0.337106 -5.68201 0
M  V30 396 N 34.1684 2.20839 -5.36852 0
M  V30 397 H 36.9334 -0.976091 -2.83359 0
M  V30 398 H 34.4944 -0.662737 -1.47714 0
M  V30 399 H 36.4864 1.35824 -3.81227 0
M  V30 400 H 35.0564 1.47465 -2.75632 0
M  V30 401 H 34.2764 -0.747349 -3.87051 0
M  V30 402 H 35.5644 -0.501577 -5.06322 0
M  V30 403 H 34.9624 2.67858 -4.98265 0
M  V30 404 H 33.5194 2.74237 -5.91301 0
M  V30 405 N 36.9525 1.47285 -0.560781 0
M  V30 406 C 37.8995 2.30058 0.18491 0
M  V30 407 C 38.8695 1.39281 0.904986 0
M  V30 408 O 40.0545 1.68241 0.899979 0
M  V30 409 C 37.1945 3.23317 1.20666 0
M  V30 410 C 36.3075 4.29186 0.492285 0
M  V30 411 C 35.4425 5.09592 1.49964 0
M  V30 412 C 34.4815 6.07232 0.770439 0
M  V30 413 N 33.6185 6.80584 1.72479 0
M  V30 414 H 38.4585 2.93302 -0.527048 0
M  V30 415 H 35.9955 1.44568 -0.271738 0
M  V30 416 H 37.9535 3.75811 1.81168 0
M  V30 417 H 36.5835 2.61929 1.88661 0
M  V30 418 H 35.6355 3.7972 -0.227333 0
M  V30 419 H 36.9475 4.98738 -0.0787929 0
M  V30 420 H 36.1015 5.66254 2.17809 0
M  V30 421 H 34.8405 4.3995 2.10464 0
M  V30 422 H 33.8455 5.49745 0.0780846 0
M  V30 423 H 35.0705 6.78884 0.171134 0
M  V30 424 H 33.0165 6.1367 2.3183 0
M  V30 425 H 32.9335 7.46319 1.20596 0
M  V30 426 H 34.2015 7.41818 2.39428 0
M  V30 427 N 38.4306 0.297415 1.54768 0
M  V30 428 C 39.3606 -0.573494 2.26348 0
M  V30 429 C 40.3416 -1.14085 1.26169 0
M  V30 430 O 41.5266 -1.17086 1.54934 0
M  V30 431 C 38.6566 -1.74716 3.00153 0
M  V30 432 C 37.6106 -1.31032 4.07449 0
M  V30 433 C 36.9366 -2.56887 4.68949 0
M  V30 434 C 38.2366 -0.444183 5.20408 0
M  V30 435 H 39.9306 0.0235131 2.99391 0
M  V30 436 H 37.4766 0.0127488 1.43994 0
M  V30 437 H 39.4296 -2.3625 3.48947 0
M  V30 438 H 38.1536 -2.37035 2.24682 0
M  V30 439 H 36.8126 -0.718066 3.59499 0
M  V30 440 H 36.4606 -3.17512 3.90122 0
M  V30 441 H 36.1606 -2.2836 5.41411 0
M  V30 442 H 37.6846 -3.19229 5.20505 0
M  V30 443 H 39.0986 -0.9651 5.65118 0
M  V30 444 H 37.4956 -0.252846 5.99567 0
M  V30 445 H 38.5656 0.531609 4.81977 0
M  V30 446 N 39.9087 -1.5758 0.0250728 0
M  V30 447 C 41.1857 -1.82917 -0.692873 0
M  V30 448 C 41.5657 -0.908137 -1.90568 0
M  V30 449 O 40.9137 0.0372298 -2.2847 0
M  V30 450 C 41.1237 -3.32034 -1.07492 0
M  V30 451 C 42.4717 -3.98406 -1.46826 0
M  V30 452 O 43.4957 -3.36505 -1.16801 0
M  V30 453 O 42.3547 -5.07497 -2.02754 0
M  V30 454 H 39.4487 -0.754079 -0.33955 0
M  V30 455 H 41.9947 -1.69619 0.0524456 0
M  V30 456 H 40.7667 -3.90728 -0.211552 0
M  V30 457 H 40.3897 -3.50424 -1.87854 0
M  V30 458 N 41.3868 0.248026 -1.55636 0
M  V30 459 C 42.8028 0.596483 -1.48035 0
M  V30 460 C 43.0028 1.88386 -0.715039 0
M  V30 461 O 42.0588 2.51319 -0.243944 0
M  V30 462 C 43.3718 0.700258 -2.92433 0
M  V30 463 C 44.9198 0.792659 -3.02797 0
M  V30 464 C 45.3948 0.928005 -4.485 0
M  V30 465 N 46.8858 0.992903 -4.52433 0
M  V30 466 C 47.6208 1.11687 -5.62418 0
M  V30 467 N 47.1168 1.20645 -6.82214 0
M  V30 468 N 48.9098 1.14994 -5.50212 0
M  V30 469 H 41.0608 -0.597109 -2.03834 0
M  V30 470 H 43.3238 -0.205925 -0.925364 0
M  V30 471 H 43.0298 -0.175658 -3.51261 0
M  V30 472 H 42.9038 1.57255 -3.42857 0
M  V30 473 H 45.2908 1.65903 -2.4405 0
M  V30 474 H 45.3718 -0.104762 -2.55585 0
M  V30 475 H 45.0158 0.0661971 -5.07857 0
M  V30 476 H 44.9458 1.84045 -4.93391 0
M  V30 477 H 47.4368 0.935064 -3.66149 0
M  V30 478 H 47.7498 1.30008 -7.61786 0
M  V30 479 H 46.0948 1.17605 -6.84977 0
M  V30 480 H 49.2858 1.07643 -4.55555 0
M  V30 481 H 49.4588 1.24311 -6.35965 0
M  V30 482 N 42.8649 1.48995 0.513639 0
M  V30 483 C 43.7969 1.60836 1.63293 0
M  V30 484 C 44.8099 0.491701 1.55197 0
M  V30 485 O 45.9989 0.763238 1.6136 0
M  V30 486 C 43.0989 1.53731 3.02027 0
M  V30 487 C 42.2719 2.80715 3.35437 0
M  V30 488 C 41.3309 2.66837 4.53525 0
M  V30 489 O 40.3569 3.40753 4.55934 0
M  V30 490 N 41.5589 1.77539 5.52684 0
M  V30 491 H 44.3239 2.57366 1.53566 0
M  V30 492 H 41.8849 1.45925 0.701259 0
M  V30 493 H 43.8769 1.42118 3.78926 0
M  V30 494 H 42.4469 0.651092 3.05744 0
M  V30 495 H 41.6669 3.06772 2.47557 0
M  V30 496 H 42.9549 3.64927 3.54551 0
M  V30 497 H 42.3529 1.16719 5.53528 0
M  V30 498 H 40.9099 1.71856 6.28736 0
M  V30 499 N 44.343 -0.763751 1.37857 0
M  V30 500 C 45.759 -1.06542 1.18832 0
M  V30 501 C 45.959 -2.01478 0.0299722 0
M  V30 502 O 45.015 -2.4458 -0.627447 0
M  V30 503 C 46.328 -1.65525 2.51042 0
M  V30 504 C 47.876 -1.77745 2.57635 0
M  V30 505 C 48.351 -2.4014 3.89996 0
M  V30 506 N 49.842 -2.47582 3.91481 0
M  V30 507 C 50.577 -2.96732 4.9065 0
M  V30 508 N 50.073 -3.45993 6.00217 0
M  V30 509 N 51.866 -2.95679 4.78048 0
M  V30 510 H 44.017 -0.133556 2.1198 0
M  V30 511 H 46.28 -0.121879 0.940133 0
M  V30 512 H 45.986 -1.03236 3.36207 0
M  V30 513 H 45.86 -2.64719 2.68707 0
M  V30 514 H 48.247 -2.39164 1.72872 0
M  V30 515 H 48.328 -0.772836 2.43846 0
M  V30 516 H 47.972 -1.79358 4.75177 0
M  V30 517 H 47.902 -3.41223 4.01092 0
M  V30 518 H 50.393 -2.1273 3.12337 0
M  V30 519 H 50.706 -3.81922 6.7183 0
M  V30 520 H 49.051 -3.44077 6.03851 0
M  V30 521 H 52.242 -2.56499 3.91568 0
M  V30 522 H 52.415 -3.33672 5.55488 0
M  V30 523 N 45.8211 -1.22559 -0.990812 0
M  V30 524 C 46.7841 -0.998863 -2.0629 0
M  V30 525 C 47.7841 0.0354834 -1.60761 0
M  V30 526 O 48.9741 -0.203231 -1.7301 0
M  V30 527 C 46.1061 -0.509203 -3.37076 0
M  V30 528 H 47.2991 -1.95014 -2.27837 0
M  V30 529 H 44.8521 -1.04456 -1.16269 0
M  V30 530 H 45.5871 0.446335 -3.21214 0
M  V30 531 H 45.3721 -1.25547 -3.71457 0
M  V30 532 H 46.8621 -0.370888 -4.1595 0
M  V30 533 N 47.2992 1.18797 -1.03562 0
M  V30 534 C 48.2292 2.24472 -0.643019 0
M  V30 535 C 49.2102 1.66433 0.351283 0
M  V30 536 O 50.3952 1.92803 0.232505 0
M  V30 537 C 47.5252 3.473 4.24935e-05 0
M  V30 538 C 46.4792 4.18055 -0.917257 0
M  V30 539 C 45.8052 5.34519 -0.138941 0
M  V30 540 C 47.1052 4.72109 -2.23407 0
M  V30 541 H 48.7992 2.57566 -1.52643 0
M  V30 542 H 46.3452 1.23806 -0.735394 0
M  V30 543 H 48.2982 4.20426 0.286383 0
M  V30 544 H 47.0222 3.13424 0.918299 0
M  V30 545 H 45.6812 3.46821 -1.1879 0
M  V30 546 H 45.3292 4.96891 0.781562 0
M  V30 547 H 45.0292 5.82794 -0.750005 0
M  V30 548 H 46.5532 6.10438 0.1405 0
M  V30 549 H 47.9672 5.36955 -2.00879 0
M  V30 550 H 46.3642 5.30897 -2.79765 0
M  V30 551 H 47.4342 3.89807 -2.88407 0
M  V30 552 N 48.7773 0.814389 1.34928 0
M  V30 553 C 49.7073 0.244827 2.32213 0
M  V30 554 C 50.6883 -0.634024 1.57842 0
M  V30 555 O 51.8733 -0.562676 1.8587 0
M  V30 556 C 49.0033 -0.601106 3.42058 0
M  V30 557 C 47.9573 0.179896 4.27622 0
M  V30 558 C 47.2833 -0.788237 5.28858 0
M  V30 559 C 48.5833 1.38329 5.03649 0
M  V30 560 H 50.2773 1.05763 2.80097 0
M  V30 561 H 47.8233 0.510029 1.34665 0
M  V30 562 H 49.7763 -1.00968 4.09125 0
M  V30 563 H 48.5003 -1.44688 2.92802 0
M  V30 564 H 47.1593 0.569739 3.62146 0
M  V30 565 H 46.8073 -1.62973 4.75866 0
M  V30 566 H 46.5073 -0.269942 5.8698 0
M  V30 567 H 48.0313 -1.19485 5.98795 0
M  V30 568 H 49.4453 1.04918 5.63618 0
M  V30 569 H 47.8423 1.83662 5.71304 0
M  V30 570 H 48.9123 2.16592 4.33839 0
M  V30 571 N 50.2554 -1.46986 0.568584 0
M  V30 572 C 51.1654 -2.33942 -0.17555 0
M  V30 573 C 52.1814 -1.48891 -0.90041 0
M  V30 574 O 53.3574 -1.81794 -0.86676 0
M  V30 575 C 50.4224 -3.25811 -1.18524 0
M  V30 576 C 49.4834 -4.26757 -0.466582 0
M  V30 577 C 48.7164 -5.14236 -1.42817 0
M  V30 578 O 48.9394 -5.04379 -2.66379 0
M  V30 579 O 47.8734 -5.94412 -0.946453 0
M  V30 580 H 51.6994 -2.98896 0.538036 0
M  V30 581 H 49.2844 -1.4573 0.329097 0
M  V30 582 H 51.1664 -3.82527 -1.76779 0
M  V30 583 H 49.8414 -2.63471 -1.88055 0
M  V30 584 H 48.7484 -3.73769 0.157451 0
M  V30 585 H 50.0814 -4.91843 0.187485 0
M  V30 586 N 51.7335 -0.305618 -1.54608 0
M  V30 587 C 52.6655 0.602161 -2.21149 0
M  V30 588 C 53.6785 1.09394 -1.20569 0
M  V30 589 O 54.8675 1.0106 -1.47136 0
M  V30 590 C 51.9675 1.83692 -2.84799 0
M  V30 591 C 51.1405 1.48686 -4.11353 0
M  V30 592 C 50.1995 2.57725 -4.58764 0
M  V30 593 O 49.2255 2.22623 -5.23858 0
M  V30 594 N 50.4275 3.88346 -4.31471 0
M  V30 595 H 53.1925 0.0324966 -2.99682 0
M  V30 596 H 50.7535 -0.128021 -1.61393 0
M  V30 597 H 52.7455 2.55994 -3.13448 0
M  V30 598 H 51.3155 2.31486 -2.10078 0
M  V30 599 H 50.5355 0.596269 -3.89664 0
M  V30 600 H 51.8235 1.22842 -4.93748 0
M  V30 601 H 51.2215 4.19671 -3.79331 0
M  V30 602 H 49.7785 4.56932 -4.64818 0
M  V30 603 N 53.2116 1.57565 -0.0334293 0
M  V30 604 C 54.1586 2.10478 0.946981 0
M  V30 605 C 55.1286 1.00787 1.32027 0
M  V30 606 O 56.3136 1.28232 1.41284 0
M  V30 607 C 53.4536 2.63994 2.22263 0
M  V30 608 C 52.5666 3.87709 1.90541 0
M  V30 609 C 51.7016 4.29604 3.12433 0
M  V30 610 C 50.7406 5.46065 2.76549 0
M  V30 611 N 49.8776 5.83096 3.9108 0
M  V30 612 H 54.7176 2.93963 0.488846 0
M  V30 613 H 52.2546 1.45296 0.22969 0
M  V30 614 H 54.2126 2.93114 2.96884 0
M  V30 615 H 52.8426 1.83333 2.65685 0
M  V30 616 H 51.8946 3.65291 1.06144 0
M  V30 617 H 53.2066 4.72403 1.60116 0
M  V30 618 H 52.3606 4.60182 3.9537 0
M  V30 619 H 51.0996 3.43685 3.46023 0
M  V30 620 H 50.1046 5.15176 1.92026 0
M  V30 621 H 51.3296 6.33685 2.44171 0
M  V30 622 H 49.2756 5.00132 4.24504 0
M  V30 623 H 49.1926 6.6244 3.64293 0
M  V30 624 H 50.4606 6.18282 4.74708 0
M  V30 625 N 54.6897 -0.239769 1.55765 0
M  V30 626 C 55.6217 -1.32001 1.87372 0
M  V30 627 C 56.6347 -1.43944 0.760522 0
M  V30 628 O 57.8237 -1.45167 1.0387 0
M  V30 629 C 54.9237 -2.69779 2.05115 0
M  V30 630 C 54.0967 -2.80014 3.36022 0
M  V30 631 C 53.1557 -3.98684 3.4342 0
M  V30 632 O 52.1817 -3.87877 4.16582 0
M  V30 633 N 53.3837 -5.12176 2.73232 0
M  V30 634 H 56.1487 -1.0522 2.80622 0
M  V30 635 H 53.7097 -0.429857 1.56089 0
M  V30 636 H 55.7017 -3.47517 2.07399 0
M  V30 637 H 54.2717 -2.89237 1.18577 0
M  V30 638 H 53.4917 -1.88896 3.45994 0
M  V30 639 H 54.7797 -2.83808 4.22292 0
M  V30 640 H 54.1777 -5.2385 2.13536 0
M  V30 641 H 52.7347 -5.88022 2.81199 0
M  V30 642 N 56.1678 -1.49265 -0.50573 0
M  V30 643 C 57.1148 -1.65585 -1.6078 0
M  V30 644 C 58.0848 -0.497396 -1.58478 0
M  V30 645 O 59.2698 -0.72385 -1.76536 0
M  V30 646 C 56.4098 -1.72408 -2.98948 0
M  V30 647 C 55.5228 -2.99525 -3.11301 0
M  V30 648 C 54.6578 -2.97356 -4.40174 0
M  V30 649 C 53.6968 -4.19074 -4.46143 0
M  V30 650 N 52.8338 -4.14841 -5.66437 0
M  V30 651 H 57.6738 -2.59688 -1.46172 0
M  V30 652 H 55.2108 -1.28761 -0.711261 0
M  V30 653 H 57.1688 -1.74344 -3.79025 0
M  V30 654 H 55.7988 -0.817753 -3.1227 0
M  V30 655 H 54.8508 -3.07222 -2.24318 0
M  V30 656 H 56.1628 -3.89518 -3.11572 0
M  V30 657 H 55.3168 -2.97829 -5.28567 0
M  V30 658 H 54.0558 -2.05133 -4.42461 0
M  V30 659 H 53.0608 -4.1885 -3.56153 0
M  V30 660 H 54.2858 -5.12483 -4.45575 0
M  V30 661 H 52.2318 -3.25453 -5.69575 0
M  V30 662 H 52.1488 -4.98564 -5.68304 0
M  V30 663 H 53.4168 -4.1941 -6.57051 0
M  V30 664 N 57.6459 0.756429 -1.3826 0
M  V30 665 C 58.5929 1.87011 -1.35261 0
M  V30 666 C 59.5629 1.64695 -0.215616 0
M  V30 667 O 60.7479 1.864 -0.407399 0
M  V30 668 C 57.8879 3.24275 -1.18068 0
M  V30 669 C 57.0009 3.58442 -2.41129 0
M  V30 670 C 56.1359 4.84994 -2.16689 0
M  V30 671 C 55.1749 5.11939 -3.35537 0
M  V30 672 N 54.3119 6.29685 -3.10549 0
M  V30 673 H 59.1519 1.8891 -2.30472 0
M  V30 674 H 56.6889 0.923373 -1.14509 0
M  V30 675 H 58.6469 4.03479 -1.06116 0
M  V30 676 H 57.2769 3.21711 -0.264973 0
M  V30 677 H 56.3289 2.74103 -2.63764 0
M  V30 678 H 57.6409 3.74283 -3.29717 0
M  V30 679 H 56.7949 5.72135 -2.01857 0
M  V30 680 H 55.5339 4.71286 -1.25462 0
M  V30 681 H 54.5389 4.23268 -3.50891 0
M  V30 682 H 55.7639 5.27546 -4.27635 0
M  V30 683 H 53.7099 6.17306 -2.21967 0
M  V30 684 H 53.6269 6.46014 -3.92686 0
M  V30 685 H 54.8949 7.19722 -2.99367 0
M  V30 686 N 59.124 1.23083 0.984299 0
M  V30 687 C 60.071 1.00854 2.07598 0
M  V30 688 C 61.041 -0.0726709 1.65941 0
M  V30 689 O 62.226 0.0786535 1.90638 0
M  V30 690 C 59.366 0.601645 3.39815 0
M  V30 691 C 58.479 1.75456 3.94765 0
M  V30 692 C 57.614 1.29482 5.15177 0
M  V30 693 C 56.653 2.41873 5.62284 0
M  V30 694 N 55.79 1.96885 6.73929 0
M  V30 695 H 60.63 1.943 2.25946 0
M  V30 696 H 58.167 0.968001 1.10762 0
M  V30 697 H 60.125 0.346854 4.15756 0
M  V30 698 H 58.755 -0.295803 3.21442 0
M  V30 699 H 57.807 2.12346 3.15616 0
M  V30 700 H 59.119 2.59965 4.25699 0
M  V30 701 H 58.273 0.997923 5.98437 0
M  V30 702 H 57.012 0.420046 4.85888 0
M  V30 703 H 56.017 2.72342 4.77608 0
M  V30 704 H 57.242 3.29881 5.93595 0
M  V30 705 H 55.188 1.11782 6.46406 0
M  V30 706 H 55.105 2.74956 7.04227 0
M  V30 707 H 56.373 1.70289 7.60672 0
M  V30 708 N 60.6021 -1.18246 1.0419 0
M  V30 709 C 62.0181 -1.40269 0.761366 0
M  V30 710 C 62.2181 -1.90777 -0.648578 0
M  V30 711 O 61.2741 -2.0929 -1.41258 0
M  V30 712 C 62.5871 -2.40237 1.8085 0
M  V30 713 C 64.1351 -2.53961 1.82955 0
M  V30 714 C 64.6101 -3.57194 2.86664 0
M  V30 715 N 66.1011 -3.64702 2.85563 0
M  V30 716 C 66.8361 -4.44309 3.6246 0
M  V30 717 N 66.3321 -5.27514 4.49111 0
M  V30 718 N 68.1251 -4.39084 3.50944 0
M  V30 719 H 60.2761 -0.837882 1.95175 0
M  V30 720 H 62.5391 -0.430608 0.84456 0
M  V30 721 H 62.2451 -2.10176 2.81991 0
M  V30 722 H 62.1191 -3.39601 1.64168 0
M  V30 723 H 64.5061 -2.83338 0.824855 0
M  V30 724 H 64.5871 -1.54706 2.03715 0
M  V30 725 H 64.2311 -3.28558 3.87314 0
M  V30 726 H 64.1611 -4.5613 2.6316 0
M  V30 727 H 66.6521 -3.05289 2.22727 0
M  V30 728 H 66.9651 -5.85411 5.04493 0
M  V30 729 H 65.3101 -5.2693 4.53178 0
M  V30 730 H 68.5011 -3.7313 2.82651 0
M  V30 731 H 68.6741 -5.00883 4.11121 0
M  V30 732 N 62.0802 -0.821533 -1.34494 0
M  V30 733 C 63.0122 -0.199946 -2.28326 0
M  V30 734 C 64.0252 0.609377 -1.50965 0
M  V30 735 O 65.2142 0.439285 -1.7301 0
M  V30 736 C 62.3142 0.738431 -3.30757 0
M  V30 737 C 61.4872 -0.0277632 -4.37391 0
M  V30 738 C 60.5462 0.831332 -5.19591 0
M  V30 739 O 59.5722 0.276822 -5.68526 0
M  V30 740 N 60.7742 2.15132 -5.39165 0
M  V30 741 H 63.5392 -1.00609 -2.82308 0
M  V30 742 H 61.1002 -0.678366 -1.47003 0
M  V30 743 H 63.0922 1.31773 -3.82646 0
M  V30 744 H 61.6622 1.44533 -2.7718 0
M  V30 745 H 60.8822 -0.788359 -3.86236 0
M  V30 746 H 62.1702 -0.555251 -5.05761 0
M  V30 747 H 61.5682 2.62559 -5.01078 0
M  V30 748 H 60.1252 2.6795 -5.94177 0
M  V30 749 N 63.5583 1.46682 -0.576371 0
M  V30 750 C 64.4683 2.34032 0.163141 0
M  V30 751 C 65.4843 1.49367 0.892501 0
M  V30 752 O 66.6603 1.82252 0.857106 0
M  V30 753 C 63.7253 3.26435 1.16795 0
M  V30 754 C 62.7863 4.26998 0.443944 0
M  V30 755 C 62.0193 5.14986 1.40088 0
M  V30 756 O 62.2423 5.05785 2.637 0
M  V30 757 O 61.1763 5.94906 0.914917 0
M  V30 758 H 65.0023 2.98607 -0.55388 0
M  V30 759 H 62.5873 1.45554 -0.336821 0
M  V30 760 H 64.4693 3.83459 1.74748 0
M  V30 761 H 63.1443 2.64465 1.86655 0
M  V30 762 H 62.0513 3.7368 -0.177271 0
M  V30 763 H 63.3843 4.91736 -0.213566 0
M  V30 764 N 65.0364 0.313813 1.54444 0
M  V30 765 C 66.4474 -0.176243 1.85866 0
M  V30 766 C 66.7984 -1.52405 1.23561 0
M  V30 767 O 65.9234 -2.09605 0.538016 0
M  V30 768 C 66.5184 -0.32657 3.37222 0
M  V30 769 C 65.0774 -0.760846 3.6863 0
M  V30 770 C 64.2244 0.123247 2.77026 0
M  V30 771 H 67.1754 0.534418 1.49431 0
M  V30 772 H 67.1964 -1.15908 3.62416 0
M  V30 773 H 66.7084 0.654531 3.82541 0
M  V30 774 H 64.8094 -1.75204 3.28838 0
M  V30 775 H 64.9224 -0.571353 4.75681 0
M  V30 776 H 63.2864 -0.399597 2.51546 0
M  V30 777 H 64.0694 1.10094 3.25168 0
M  V30 778 N 66.5145 -1.57545 0.0417849 0
M  V30 779 C 67.4445 -2.14009 -0.933929 0
M  V30 780 C 68.4255 -1.05938 -1.33083 0
M  V30 781 O 69.6105 -1.33833 -1.40721 0
M  V30 782 C 66.7405 -2.67747 -2.21199 0
M  V30 783 C 65.6945 -3.80718 -1.95544 0
M  V30 784 C 65.0205 -4.20935 -3.29724 0
M  V30 785 C 66.3205 -5.06258 -1.28452 0
M  V30 786 H 68.0145 -2.95788 -0.463645 0
M  V30 787 H 65.5605 -1.42285 -0.221573 0
M  V30 788 H 67.5135 -3.05886 -2.89848 0
M  V30 789 H 66.2375 -1.83147 -2.70416 0
M  V30 790 H 64.8965 -3.43037 -1.2931 0
M  V30 791 H 64.5445 -3.33298 -3.76724 0
M  V30 792 H 64.2445 -4.9707 -3.13361 0
M  V30 793 H 65.7685 -4.61666 -3.9962 0
M  V30 794 H 67.1825 -5.41903 -1.8712 0
M  V30 795 H 65.5795 -5.87475 -1.22445 0
M  V30 796 H 66.6495 -4.84207 -0.259219 0
M  V30 797 N 67.9926 0.231505 -1.5589 0
M  V30 798 C 68.9256 1.31369 -1.86595 0
M  V30 799 C 69.9036 1.45671 -0.722397 0
M  V30 800 O 71.0876 1.61642 -0.969743 0
M  V30 801 C 68.2146 2.68529 -2.06421 0
M  V30 802 C 67.2606 2.71295 -3.29092 0
M  V30 803 S 68.0936 2.26358 -4.85306 0
M  V30 804 C 69.2496 3.65414 -5.08157 0
M  V30 805 H 69.4826 1.05128 -2.78092 0
M  V30 806 H 67.0156 0.433259 -1.48197 0
M  V30 807 H 68.9736 3.47499 -2.18528 0
M  V30 808 H 67.6346 2.91999 -1.15738 0
M  V30 809 H 66.8276 3.72063 -3.39978 0
M  V30 810 H 66.4296 2.0038 -3.15791 0
M  V30 811 H 68.7216 4.6103 -4.96445 0
M  V30 812 H 69.6646 3.5945 -6.10083 0
M  V30 813 H 70.0726 3.5864 -4.35933 0
M  V30 814 N 69.4707 1.49531 0.497807 0
M  V30 815 C 70.7167 1.59415 1.25358 0
M  V30 816 C 71.0497 0.281422 1.9215 0
M  V30 817 O 70.3247 -0.715249 1.80871 0
M  V30 818 C 70.6077 2.75566 2.3181 0
M  V30 819 C 70.4607 4.16642 1.69498 0
M  V30 820 C 71.7797 2.87347 3.33346 0
M  V30 821 H 68.8987 0.580244 0.454408 0
M  V30 822 H 71.5407 1.81827 0.551262 0
M  V30 823 H 69.6907 2.56587 2.91711 0
M  V30 824 H 71.3627 4.47145 1.13399 0
M  V30 825 H 69.6057 4.22141 0.998978 0
M  V30 826 H 70.2767 4.93792 2.46725 0
M  V30 827 H 72.7527 3.04634 2.83438 0
M  V30 828 H 71.6287 3.70289 4.05188 0
M  V30 829 H 71.8897 1.96834 3.95865 0
M  V30 830 N 70.9488 -0.749086 1.3866 0
M  V30 831 C 71.8808 -1.87273 1.32142 0
M  V30 832 C 72.8938 -1.61127 0.232787 0
M  V30 833 O 74.0828 -1.71623 0.49069 0
M  V30 834 C 71.1828 -3.23005 1.02571 0
M  V30 835 C 70.3558 -3.7662 2.22433 0
M  V30 836 C 69.4148 -4.90879 1.89537 0
M  V30 837 O 68.4408 -5.05276 2.62078 0
M  V30 838 N 69.6428 -5.74198 0.853031 0
M  V30 839 H 72.4078 -1.93373 2.28969 0
M  V30 840 H 69.9688 -0.929216 1.32579 0
M  V30 841 H 71.9608 -3.96992 0.786085 0
M  V30 842 H 70.5308 -3.12262 0.145249 0
M  V30 843 H 69.7508 -2.94147 2.62434 0
M  V30 844 H 71.0388 -4.09173 3.02415 0
M  V30 845 H 70.4368 -5.6514 0.25155 0
M  V30 846 H 68.9938 -6.48313 0.67329 0
M  V30 847 N 72.4269 -1.23603 -0.977757 0
M  V30 848 C 73.3899 -1.02069 -2.05218 0
M  V30 849 C 74.3899 0.0184305 -1.60789 0
M  V30 850 O 75.5799 -0.221569 -1.72785 0
M  V30 851 C 72.7119 -0.544926 -3.36517 0
M  V30 852 H 73.9049 -1.9742 -2.25755 0
M  V30 853 H 71.4579 -1.05684 -1.15155 0
M  V30 854 H 72.1929 0.412241 -3.21669 0
M  V30 855 H 71.9779 -1.2948 -3.70105 0
M  V30 856 H 73.4679 -0.414985 -4.15533 0
M  V30 857 N 73.905 1.17692 -1.04816 0
M  V30 858 C 74.853 2.23632 -0.63966 0
M  V30 859 C 75.847 1.6601 0.337219 0
M  V30 860 O 77.053 1.78844 0.203693 0
M  V30 861 H 73.428 0.727949 -0.188665 0
M  V30 862 H 75.399 2.55387 -1.54337 0
M  V30 863 C 74.148 3.4769 -0.0264051 0
M  V30 864 H 73.471 3.92331 -0.769164 0
M  V30 865 H 74.911 4.23418 0.222098 0
M  V30 866 C 73.37 3.13807 1.22584 0
M  V30 867 O 73.9 3.28236 2.31569 0
M  V30 868 N 72.106 2.68065 1.12202 0
M  V30 869 H 71.653 2.56525 0.235133 0
M  V30 870 H 71.611 2.45767 1.96076 0
M  V30 871 N 75.3831 0.828654 1.34056 0
M  V30 872 C 76.3461 0.259927 2.27721 0
M  V30 873 C 77.3461 -0.565478 1.50529 0
M  V30 874 O 78.5361 -0.38075 1.69988 0
M  V30 875 C 75.6681 -0.634944 3.34935 0
M  V30 876 H 76.8611 1.0863 2.79534 0
M  V30 877 H 74.4141 0.600951 1.44285 0
M  V30 878 H 75.1491 -1.48416 2.88346 0
M  V30 879 H 74.9341 -0.0444999 3.92075 0
M  V30 880 H 76.4241 -1.02648 4.04788 0
M  V30 881 N 76.8612 -1.46375 0.584142 0
M  V30 882 C 78.1382 -1.956 0.0033388 0
M  V30 883 C 78.5182 -1.52679 -1.45782 0
M  V30 884 O 77.8662 -0.77816 -2.14842 0
M  V30 885 C 78.0762 -3.48551 0.176891 0
M  V30 886 C 79.4242 -4.24576 0.0454609 0
M  V30 887 O 80.4482 -3.56043 0.105801 0
M  V30 888 O 79.3072 -5.46427 -0.0890376 0
M  V30 889 H 76.4012 -0.825547 -0.0490066 0
M  V30 890 H 78.9472 -1.56652 0.65256 0
M  V30 891 H 77.7192 -3.72683 1.1926 0
M  V30 892 H 77.3422 -3.94332 -0.508695 0
M  V30 893 N 78.3393 -0.321999 -1.54275 0
M  V30 894 C 79.5873 0.280489 -2.00144 0
M  V30 895 C 79.9083 1.52777 -1.21178 0
M  V30 896 O 79.1783 1.9338 -0.313187 0
M  V30 897 H 77.7583 0.106632 -0.73935 0
M  V30 898 H 80.4203 -0.438184 -1.8991 0
M  V30 899 H 79.5163 0.537972 -3.07428 0
M  V30 900 N 79.8174 1.5752 -0.0501392 0
M  V30 901 C 81.2334 1.56631 0.306402 0
M  V30 902 C 81.4334 1.0577 1.71508 0
M  V30 903 O 80.4894 0.713837 2.422 0
M  V30 904 C 81.8024 3.00393 0.135811 0
M  V30 905 C 83.3504 3.12315 0.206993 0
M  V30 906 C 83.8254 4.57954 0.064944 0
M  V30 907 N 85.3164 4.63041 0.121254 0
M  V30 908 C 86.0514 5.73389 0.0354381 0
M  V30 909 N 85.5474 6.92724 -0.102666 0
M  V30 910 N 87.3404 5.62026 0.090946 0
M  V30 911 H 79.4914 1.88903 -0.971046 0
M  V30 912 H 81.7544 0.869876 -0.376855 0
M  V30 913 H 81.4604 3.41635 -0.835384 0
M  V30 914 H 81.3344 3.66373 0.897275 0
M  V30 915 H 83.7214 2.70973 1.16866 0
M  V30 916 H 83.8024 2.49016 -0.585208 0
M  V30 917 H 83.4464 4.99981 -0.893394 0
M  V30 918 H 83.3764 5.19258 0.876277 0
M  V30 919 H 85.8674 3.77216 0.227284 0
M  V30 920 H 86.1804 7.72633 -0.160882 0
M  V30 921 H 84.5254 6.94864 -0.137737 0
M  V30 922 H 87.7164 4.67684 0.197388 0
M  V30 923 H 87.8894 6.47997 0.0206089 0
M  V30 924 N 81.2955 -0.223234 1.56011 0
M  V30 925 C 82.7065 -0.790368 1.69145 0
M  V30 926 C 83.0575 -1.85055 0.651845 0
M  V30 927 O 82.1825 -2.15498 -0.197359 0
M  V30 928 C 82.7775 -1.4404 3.06656 0
M  V30 929 C 81.3365 -1.95494 3.2165 0
M  V30 930 C 80.4835 -0.814506 2.65068 0
M  V30 931 H 83.4345 0.00139011 1.587 0
M  V30 932 H 83.4555 -2.30916 3.0242 0
M  V30 933 H 82.9675 -0.668543 3.82298 0
M  V30 934 H 81.0685 -2.75487 2.50874 0
M  V30 935 H 81.1815 -2.13607 4.28846 0
M  V30 936 H 79.5455 -1.22137 2.23505 0
M  V30 937 H 80.3285 -0.0553515 3.43255 0
M  V30 938 N 82.7736 -1.49793 -0.48987 0
M  V30 939 C 84.1896 -1.36803 -0.822022 0
M  V30 940 C 84.3896 -0.409652 -1.97292 0
M  V30 941 O 83.4456 0.154614 -2.52026 0
M  V30 942 C 84.7586 -2.77768 -1.15175 0
M  V30 943 C 86.3066 -2.86549 -1.25931 0
M  V30 944 C 86.7816 -4.28306 -1.62228 0
M  V30 945 N 88.2726 -4.31169 -1.69256 0
M  V30 946 C 89.0076 -5.37832 -1.98807 0
M  V30 947 N 88.5036 -6.54726 -2.26507 0
M  V30 948 N 90.2966 -5.25258 -2.00152 0
M  V30 949 H 82.4476 -2.10691 0.268881 0
M  V30 950 H 84.7106 -0.946241 0.057728 0
M  V30 951 H 84.4166 -3.49648 -0.379335 0
M  V30 952 H 84.2906 -3.13836 -2.09253 0
M  V30 953 H 86.6776 -2.14899 -2.02243 0
M  V30 954 H 86.7586 -2.54049 -0.298776 0
M  V30 955 H 86.4026 -5.00486 -0.864622 0
M  V30 956 H 86.3326 -4.58279 -2.594 0
M  V30 957 H 88.8236 -3.4687 -1.49965 0
M  V30 958 H 89.1366 -7.31833 -2.48276 0
M  V30 959 H 87.4816 -6.57933 -2.23939 0
M  V30 960 H 90.6726 -4.32938 -1.77996 0
M  V30 961 H 90.8456 -6.08476 -2.22848 0
M  V30 962 N 84.2517 0.741722 -1.39055 0
M  V30 963 C 85.4767 1.53607 -1.39354 0
M  V30 964 C 85.9017 1.88096 0.0116905 0
M  V30 965 O 85.2597 1.5143 0.996924 0
M  V30 966 C 85.3077 2.80441 -2.26682 0
M  V30 967 O 84.4117 3.76088 -1.69208 0
M  V30 968 H 83.7527 0.464142 -0.474835 0
M  V30 969 H 86.2827 0.915665 -1.82967 0
M  V30 970 H 86.2927 3.29246 -2.40959 0
M  V30 971 H 84.9677 2.5467 -3.2881 0
M  V30 972 H 83.5447 3.34833 -1.64138 0
M  V30 973 N 85.7298 1.2412 0.971189 0
M  V30 974 C 87.1458 1.00584 1.23916 0
M  V30 975 C 87.3458 -0.287481 1.99439 0
M  V30 976 O 86.4018 -1.00454 2.31658 0
M  V30 977 C 87.7148 2.21864 2.0297 0
M  V30 978 C 89.2628 2.26452 2.16076 0
M  V30 979 C 89.7378 3.47343 2.98524 0
M  V30 980 N 91.2288 3.47639 3.06107 0
M  V30 981 C 91.9638 4.37837 3.70251 0
M  V30 982 N 91.4598 5.38286 4.36142 0
M  V30 983 N 93.2528 4.25558 3.67228 0
M  V30 984 H 85.4038 2.07236 0.465499 0
M  V30 985 H 87.6668 0.909236 0.268315 0
M  V30 986 H 87.3728 3.15771 1.54861 0
M  V30 987 H 87.2468 2.23698 3.03709 0
M  V30 988 H 89.6338 1.33078 2.6339 0
M  V30 989 H 89.7148 2.28645 1.14696 0
M  V30 990 H 89.3588 4.41029 2.51905 0
M  V30 991 H 89.2888 3.42393 4.00093 0
M  V30 992 H 91.7798 2.74966 2.59233 0
M  V30 993 H 92.0928 6.03352 4.82894 0
M  V30 994 H 90.4378 5.42176 4.34822 0
M  V30 995 H 93.6288 3.46322 3.14927 0
M  V30 996 H 93.8018 4.96054 4.16935 0
M  V30 997 N 87.2079 -1.17134 1.05439 0
M  V30 998 C 88.6239 -1.39454 0.776201 0
M  V30 999 C 88.8239 -1.91454 -0.628307 0
M  V30 1000 O 87.8799 -2.10777 -1.39031 0
M  V30 1001 C 89.1929 -2.38305 1.83388 0
M  V30 1002 C 90.7409 -2.52006 1.85639 0
M  V30 1003 C 91.2159 -3.54133 2.90437 0
M  V30 1004 N 92.7069 -3.61653 2.89415 0
M  V30 1005 C 93.4419 -4.4044 3.67152 0
M  V30 1006 N 92.9379 -5.22721 4.54681 0
M  V30 1007 N 94.7309 -4.35337 3.55581 0
M  V30 1008 H 86.8819 -0.817134 1.96053 0
M  V30 1009 H 89.1449 -0.421626 0.849079 0
M  V30 1010 H 88.8509 -2.07173 2.84204 0
M  V30 1011 H 88.7249 -3.37841 1.67761 0
M  V30 1012 H 91.1119 -2.82447 0.85486 0
M  V30 1013 H 91.1929 -1.52537 2.05344 0
M  V30 1014 H 90.8369 -3.24431 3.90777 0
M  V30 1015 H 90.7669 -4.53313 2.67983 0
M  V30 1016 H 93.2579 -3.02909 2.25952 0
M  V30 1017 H 93.5709 -5.80027 5.10674 0
M  V30 1018 H 91.9159 -5.22093 4.58741 0
M  V30 1019 H 95.1069 -3.70112 2.86592 0
M  V30 1020 H 95.2799 -4.96494 4.1641 0
M  V30 1021 N 88.686 -0.835752 -1.33615 0
M  V30 1022 C 89.649 -0.272 -2.2758 0
M  V30 1023 C 90.649 0.557487 -1.50827 0
M  V30 1024 O 91.839 0.37173 -1.70188 0
M  V30 1025 C 88.971 0.617173 -3.35267 0
M  V30 1026 H 90.164 -1.10111 -2.78954 0
M  V30 1027 H 87.717 -0.608594 -1.43965 0
M  V30 1028 H 88.452 1.46884 -2.89129 0
M  V30 1029 H 88.237 0.0237066 -3.92093 0
M  V30 1030 H 89.727 1.005 -4.05326 0
M  V30 1031 N 90.1641 1.46063 -0.591896 0
M  V30 1032 C 91.5801 1.57561 -0.254288 0
M  V30 1033 C 91.7801 1.58565 1.24336 0
M  V30 1034 O 90.8361 1.50753 2.02558 0
M  V30 1035 C 92.1491 2.86549 -0.911611 0
M  V30 1036 C 93.6971 3.00197 -0.886059 0
M  V30 1037 C 94.1721 4.31933 -1.5231 0
M  V30 1038 N 95.6631 4.38654 -1.48786 0
M  V30 1039 C 96.3981 5.39222 -1.95006 0
M  V30 1040 N 95.8941 6.46414 -2.49241 0
M  V30 1041 N 97.6871 5.3048 -1.85868 0
M  V30 1042 H 89.8381 1.43655 -1.56451 0
M  V30 1043 H 92.1011 0.68583 -0.654478 0
M  V30 1044 H 91.8071 2.91651 -1.96551 0
M  V30 1045 H 91.6811 3.74794 -0.425368 0
M  V30 1046 H 94.0681 2.9467 0.159246 0
M  V30 1047 H 94.1491 2.13403 -1.41041 0
M  V30 1048 H 93.7931 4.38217 -2.56765 0
M  V30 1049 H 93.7231 5.17516 -0.973891 0
M  V30 1050 H 96.2141 3.61793 -1.09151 0
M  V30 1051 H 96.5271 7.19376 -2.82344 0
M  V30 1052 H 94.8721 6.47208 -2.53272 0
M  V30 1053 H 98.0631 4.45643 -1.43248 0
M  V30 1054 H 98.2361 6.08711 -2.22204 0
M  V30 1055 N 91.6422 0.330177 1.54103 0
M  V30 1056 C 92.5742 -0.566902 2.22079 0
M  V30 1057 C 93.5872 -1.07462 1.22294 0
M  V30 1058 O 94.7762 -0.987065 1.48726 0
M  V30 1059 C 91.8762 -1.79138 2.87685 0
M  V30 1060 C 91.0492 -1.42123 4.13666 0
M  V30 1061 C 90.1082 -2.50394 4.62806 0
M  V30 1062 O 89.1342 -2.14261 5.27334 0
M  V30 1063 N 90.3362 -3.81433 4.37595 0
M  V30 1064 H 93.1012 0.0151844 2.99696 0
M  V30 1065 H 90.6622 0.153681 1.61169 0
M  V30 1066 H 92.6542 -2.50975 3.1748 0
M  V30 1067 H 91.2242 -2.28115 2.13734 0
M  V30 1068 H 90.4442 -0.534201 3.90564 0
M  V30 1069 H 91.7322 -1.14971 4.9564 0
M  V30 1070 H 91.1302 -4.13584 3.8596 0
M  V30 1071 H 89.6872 -4.4948 4.72029 0
M  V30 1072 N 93.1203 -1.57491 0.0584922 0
M  V30 1073 C 94.3453 -1.97711 -0.62652 0
M  V30 1074 C 94.7703 -0.936132 -1.63151 0
M  V30 1075 O 94.1283 0.099811 -1.81025 0
M  V30 1076 C 94.1763 -3.36989 -1.28338 0
M  V30 1077 O 93.2803 -3.35433 -2.39913 0
M  V30 1078 H 92.6213 -0.643868 -0.162266 0
M  V30 1079 H 95.1513 -2.04193 0.129064 0
M  V30 1080 H 95.1613 -3.73879 -1.63335 0
M  V30 1081 H 93.8363 -4.12289 -0.546889 0
M  V30 1082 H 92.4133 -3.10298 -2.06809 0
M  V30 1083 N 94.5984 0.214957 -1.56127 0
M  V30 1084 C 95.5084 1.28727 -1.96129 0
M  V30 1085 C 96.5244 1.50916 -0.866044 0
M  V30 1086 O 97.7004 1.63918 -1.17016 0
M  V30 1087 C 94.7654 2.61569 -2.27558 0
M  V30 1088 C 93.8264 2.47625 -3.50685 0
M  V30 1089 C 93.0594 3.74132 -3.80606 0
M  V30 1090 O 93.2824 4.77438 -3.12104 0
M  V30 1091 O 92.2164 3.70849 -4.74083 0
M  V30 1092 H 96.0424 0.977855 -2.87527 0
M  V30 1093 H 93.6274 0.418358 -1.43423 0
M  V30 1094 H 95.5094 3.40012 -2.48938 0
M  V30 1095 H 94.1844 2.92178 -1.39332 0
M  V30 1096 H 93.0914 1.67361 -3.34576 0
M  V30 1097 H 94.4244 2.21954 -4.39315 0
M  V30 1098 N 96.0765 1.50051 0.48192 0
M  V30 1099 C 96.9865 1.7089 1.60728 0
M  V30 1100 C 98.0025 0.591788 1.63627 0
M  V30 1101 O 99.1785 0.868817 1.81696 0
M  V30 1102 C 96.2435 1.78855 2.97005 0
M  V30 1103 C 95.3045 3.02537 3.04581 0
M  V30 1104 C 94.5375 3.10112 4.34357 0
M  V30 1105 O 94.7605 2.24765 5.24249 0
M  V30 1106 O 93.6945 4.02747 4.47301 0
M  V30 1107 H 97.5205 2.66264 1.46072 0
M  V30 1108 H 95.1055 1.34018 0.660264 0
M  V30 1109 H 96.9875 1.86336 3.77964 0
M  V30 1110 H 95.6625 0.866628 3.11883 0
M  V30 1111 H 94.5695 3.00563 2.22739 0
M  V30 1112 H 95.9025 3.94272 2.94636 0
M  V30 1113 N 97.5546 -0.734337 1.39446 0
M  V30 1114 C 98.4866 -1.85861 1.34121 0
M  V30 1115 C 99.4996 -1.60871 0.249864 0
M  V30 1116 O 100.689 -1.71093 0.508865 0
M  V30 1117 C 97.7886 -3.21899 1.05991 0
M  V30 1118 C 96.9616 -3.74239 2.26415 0
M  V30 1119 C 96.0206 -4.88841 1.94733 0
M  V30 1120 O 95.0466 -5.02468 2.67422 0
M  V30 1121 N 96.2486 -5.73261 0.913884 0
M  V30 1122 H 99.0136 -1.90934 2.31007 0
M  V30 1123 H 96.5746 -0.915102 1.33557 0
M  V30 1124 H 98.5666 -3.96136 0.828147 0
M  V30 1125 H 97.1366 -3.12091 0.178361 0
M  V30 1126 H 96.3566 -2.91347 2.65539 0
M  V30 1127 H 97.6446 -4.05942 3.06738 0
M  V30 1128 H 97.0426 -5.64842 0.311476 0
M  V30 1129 H 95.5996 -6.47563 0.742015 0
M  V30 1130 N 99.0327 -1.24633 -0.964593 0
M  V30 1131 C 99.9957 -1.0424 -2.04124 0
M  V30 1132 C 100.996 0.00137563 -1.608 0
M  V30 1133 O 102.186 -0.239883 -1.7254 0
M  V30 1134 C 99.3177 -0.580588 -3.3592 0
M  V30 1135 H 100.511 -1.99803 -2.23649 0
M  V30 1136 H 98.0637 -1.06899 -1.14027 0
M  V30 1137 H 98.7987 0.3781 -3.22088 0
M  V30 1138 H 98.5837 -1.33398 -3.6871 0
M  V30 1139 H 100.074 -0.459034 -4.15069 0
M  V30 1140 N 100.511 1.16574 -1.06058 0
M  V30 1141 C 101.922 1.68662 -0.800632 0
M  V30 1142 C 102.273 1.84184 0.67608 0
M  V30 1143 O 101.398 1.53568 1.52466 0
M  V30 1144 C 101.993 3.06356 -1.44676 0
M  V30 1145 C 100.552 3.55575 -1.23465 0
M  V30 1146 C 99.6988 2.31616 -1.52477 0
M  V30 1147 H 102.65 1.00969 -1.22438 0
M  V30 1148 H 102.671 3.70636 -0.860788 0
M  V30 1149 H 102.183 2.95027 -2.52152 0
M  V30 1150 H 100.284 3.72167 -0.179527 0
M  V30 1151 H 100.397 4.37812 -1.94571 0
M  V30 1152 H 98.7608 2.36512 -0.945209 0
M  V30 1153 H 99.5438 2.22887 -2.61106 0
M  V30 1154 N 101.989 0.842826 1.3317 0
M  V30 1155 C 102.919 0.294028 2.31641 0
M  V30 1156 C 103.9 -0.600401 1.59151 0
M  V30 1157 O 105.085 -0.523124 1.87022 0
M  V30 1158 C 102.215 -0.528416 3.43257 0
M  V30 1159 C 101.169 0.27056 4.27144 0
M  V30 1160 C 100.495 -0.675881 5.30411 0
M  V30 1161 C 101.795 1.48981 5.00602 0
M  V30 1162 H 103.489 1.11681 2.77791 0
M  V30 1163 H 101.035 0.538478 1.33553 0
M  V30 1164 H 102.988 -0.922674 4.11175 0
M  V30 1165 H 101.712 -1.38445 2.95805 0
M  V30 1166 H 100.371 0.646427 3.60856 0
M  V30 1167 H 100.019 -1.52842 4.79216 0
M  V30 1168 H 99.7189 -0.145374 5.8742 0
M  V30 1169 H 101.243 -1.06757 6.01195 0
M  V30 1170 H 102.657 1.16849 5.61266 0
M  V30 1171 H 101.054 1.95739 5.6728 0
M  V30 1172 H 102.124 2.25746 4.29147 0
M  V30 1173 N 103.467 -1.45747 0.599634 0
M  V30 1174 C 104.713 -2.02592 0.0918643 0
M  V30 1175 C 105.046 -1.46806 -1.27128 0
M  V30 1176 O 104.321 -0.639658 -1.83681 0
M  V30 1177 C 104.604 -3.60073 0.0443398 0
M  V30 1178 C 104.457 -4.26208 1.43759 0
M  V30 1179 C 105.776 -4.35309 -0.647608 0
M  V30 1180 H 102.895 -0.736175 0.034857 0
M  V30 1181 H 105.537 -1.73694 0.770081 0
M  V30 1182 H 103.687 -3.84823 -0.533224 0
M  V30 1183 H 105.359 -4.12668 2.06162 0
M  V30 1184 H 103.602 -3.84916 2.00056 0
M  V30 1185 H 104.273 -5.35069 1.35665 0
M  V30 1186 H 106.749 -4.15805 -0.156776 0
M  V30 1187 H 105.625 -5.45038 -0.649942 0
M  V30 1188 H 105.886 -4.07598 -1.71219 0
M  V30 1189 N 104.945 -0.338344 -1.53925 0
M  V30 1190 C 105.855 0.529421 -2.28548 0
M  V30 1191 C 106.871 1.11645 -1.3346 0
M  V30 1192 O 108.047 1.13325 -1.66492 0
M  V30 1193 C 105.112 1.66713 -3.03987 0
M  V30 1194 C 104.173 1.11041 -4.14691 0
M  V30 1195 C 103.406 2.19389 -4.86522 0
M  V30 1196 O 103.629 3.40013 -4.57982 0
M  V30 1197 O 102.563 1.83976 -5.73094 0
M  V30 1198 H 106.389 -0.0770399 -3.03602 0
M  V30 1199 H 103.974 -0.103555 -1.49041 0
M  V30 1200 H 105.856 2.32918 -3.5118 0
M  V30 1201 H 104.531 2.25949 -2.31794 0
M  V30 1202 H 103.438 0.413024 -3.71813 0
M  V30 1203 H 104.771 0.562975 -4.8897 0
M  V30 1204 N 106.423 1.57458 -0.0668435 0
M  V30 1205 C 107.648 1.9804 0.616027 0
M  V30 1206 C 108.073 0.944771 1.62652 0
M  V30 1207 O 107.431 -0.0902094 1.81075 0
M  V30 1208 C 107.479 3.37665 1.26549 0
M  V30 1209 O 106.583 3.36701 2.38131 0
M  V30 1210 H 105.924 0.644719 0.158849 0
M  V30 1211 H 108.454 2.04121 -0.139891 0
M  V30 1212 H 108.464 3.7474 1.6135 0
M  V30 1213 H 107.139 4.12573 0.525016 0
M  V30 1214 H 105.716 3.1139 2.0516 0
M  V30 1215 N 107.901 -0.206675 1.56239 0
M  V30 1216 C 109.131 -0.943975 1.83773 0
M  V30 1217 C 109.539 -1.77841 0.645703 0
M  V30 1218 O 108.882 -1.79403 -0.395008 0
M  V30 1219 C 108.944 -1.899 3.05251 0
M  V30 1220 C 108.608 -1.24764 4.39639 0
M  V30 1221 C 109.605 -0.630216 5.16066 0
M  V30 1222 C 107.29 -1.25496 4.8637 0
M  V30 1223 C 109.284 -0.0287946 6.37393 0
M  V30 1224 C 106.971 -0.649698 6.07637 0
M  V30 1225 C 107.969 -0.0376845 6.8299 0
M  V30 1226 O 107.657 0.55812 8.0196 0
M  V30 1227 H 107.389 -0.281508 0.614597 0
M  V30 1228 H 109.943 -0.222458 2.04192 0
M  V30 1229 H 108.173 -2.6599 2.80689 0
M  V30 1230 H 109.862 -2.5031 3.1953 0
M  V30 1231 H 110.628 -0.616785 4.81062 0
M  V30 1232 H 106.507 -1.72072 4.27683 0
M  V30 1233 H 110.051 0.449518 6.9615 0
M  V30 1234 H 105.948 -0.660592 6.42111 0
M  V30 1235 H 106.716 0.453891 8.17241 0
M  V30 1236 N 109.379 -1.50304 -0.473955 0
M  V30 1237 C 110.309 -1.71886 -1.58042 0
M  V30 1238 C 111.29 -0.567799 -1.60344 0
M  V30 1239 O 112.475 -0.806623 -1.76656 0
M  V30 1240 C 109.605 -1.81036 -2.96384 0
M  V30 1241 C 108.559 -2.962 -3.08949 0
M  V30 1242 C 107.885 -2.9049 -4.48909 0
M  V30 1243 C 109.185 -4.36752 -2.86434 0
M  V30 1244 H 110.879 -2.64527 -1.40234 0
M  V30 1245 H 108.425 -1.27295 -0.673201 0
M  V30 1246 H 110.378 -1.94719 -3.73714 0
M  V30 1247 H 109.102 -0.850147 -3.15341 0
M  V30 1248 H 107.761 -2.82164 -2.3405 0
M  V30 1249 H 107.409 -1.92321 -4.64781 0
M  V30 1250 H 107.109 -3.67802 -4.58253 0
M  V30 1251 H 108.633 -3.06218 -5.28264 0
M  V30 1252 H 110.047 -4.5133 -3.53517 0
M  V30 1253 H 108.444 -5.15493 -3.07225 0
M  V30 1254 H 109.514 -4.49321 -1.82316 0
M  V30 1255 N 110.857 0.726932 -1.39834 0
M  V30 1256 C 112.082 1.52121 -1.40976 0
M  V30 1257 C 112.507 1.88098 -0.00826029 0
M  V30 1258 O 111.865 1.52479 0.980807 0
M  V30 1259 C 111.913 2.78021 -2.29644 0
M  V30 1260 O 111.017 3.74272 -1.73188 0
M  V30 1261 H 110.358 0.45908 -0.479731 0
M  V30 1262 H 112.888 0.896207 -1.83927 0
M  V30 1263 H 112.898 3.26671 -2.44438 0
M  V30 1264 H 111.573 2.51169 -3.31492 0
M  V30 1265 H 110.15 3.33073 -1.6768 0
M  V30 1266 N 112.336 1.25143 0.95797 0
M  V30 1267 C 113.561 1.12521 1.74223 0
M  V30 1268 C 113.986 -0.317402 1.85403 0
M  V30 1269 O 113.344 -1.2299 1.33204 0
M  V30 1270 C 113.392 1.78062 3.1357 0
M  V30 1271 O 112.496 1.058 3.98598 0
M  V30 1272 H 111.837 0.39304 0.535178 0
M  V30 1273 H 114.367 1.65641 1.201 0
M  V30 1274 H 114.377 1.84213 3.64046 0
M  V30 1275 H 113.052 2.83021 3.04749 0
M  V30 1276 H 111.629 1.07506 3.57067 0
M  V30 1277 N 113.814 -1.1601 1.06675 0
M  V30 1278 C 115.039 -1.91068 0.806706 0
M  V30 1279 C 115.464 -1.77112 -0.633485 0
M  V30 1280 O 114.822 -1.09908 -1.44187 0
M  V30 1281 C 114.87 -3.39655 1.21106 0
M  V30 1282 O 113.974 -4.10893 0.352189 0
M  V30 1283 H 113.315 -0.595125 0.294486 0
M  V30 1284 H 115.845 -1.46955 1.42356 0
M  V30 1285 H 115.855 -3.90434 1.18428 0
M  V30 1286 H 114.53 -3.49132 2.26008 0
M  V30 1287 H 113.107 -3.70285 0.440868 0
M  V30 1288 N 115.292 -0.849877 -1.32721 0
M  V30 1289 C 116.54 -0.450032 -1.97026 0
M  V30 1290 C 116.861 0.996604 -1.67609 0
M  V30 1291 O 116.131 1.6958 -0.980786 0
M  V30 1292 H 114.711 -0.163426 -0.728904 0
M  V30 1293 H 117.373 -1.08526 -1.6189 0
M  V30 1294 H 116.469 -0.591146 -3.0645 0
M  V30 1295 N 116.77 1.45427 -0.607355 0
M  V30 1296 C 117.995 2.07124 -0.107006 0
M  V30 1297 C 118.42 1.44906 1.19933 0
M  V30 1298 O 117.778 0.541687 1.73019 0
M  V30 1299 C 117.826 3.60595 0.0194119 0
M  V30 1300 O 116.93 3.98285 1.0697 0
M  V30 1301 H 116.271 0.659868 -0.0739597 0
M  V30 1302 H 118.801 1.86683 -0.837297 0
M  V30 1303 H 118.811 4.07419 0.2177 0
M  V30 1304 H 117.486 4.05266 -0.934453 0
M  V30 1305 H 116.063 3.63133 0.847889 0
M  V30 1306 N 118.248 0.346503 1.53744 0
M  V30 1307 C 119.476 -0.25041 2.05379 0
M  V30 1308 C 119.891 -1.43979 1.22129 0
M  V30 1309 O 119.248 -1.80677 0.257321 0
M  V30 1310 C 119.299 -0.662575 3.55376 0
M  V30 1311 O 119.02 0.479515 4.35468 0
M  V30 1312 C 120.521 -1.31989 4.23195 0
M  V30 1313 H 117.741 -0.0478198 0.669294 0
M  V30 1314 H 120.285 0.499346 1.9831 0
M  V30 1315 H 118.44 -1.36227 3.62658 0
M  V30 1316 H 118.854 0.15037 5.24284 0
M  V30 1317 H 120.328 -1.55902 5.29527 0
M  V30 1318 H 120.805 -2.27436 3.75725 0
M  V30 1319 H 121.411 -0.662154 4.20114 0
M  V30 1320 N 119.726 -1.57421 0.075193 0
M  V30 1321 C 120.951 -1.98364 -0.605515 0
M  V30 1322 C 121.376 -0.953383 -1.62149 0
M  V30 1323 O 120.734 0.0806053 -1.81121 0
M  V30 1324 C 120.782 -3.38332 -1.24756 0
M  V30 1325 O 119.886 -3.37959 -2.36342 0
M  V30 1326 H 119.227 -0.645553 -0.155428 0
M  V30 1327 H 121.757 -2.04044 0.150714 0
M  V30 1328 H 121.767 -3.75591 -1.5936 0
M  V30 1329 H 120.442 -4.12846 -0.503129 0
M  V30 1330 H 119.019 -3.12474 -2.03506 0
M  V30 1331 N 121.204 0.198386 -1.56346 0
M  V30 1332 C 122.434 0.934215 -1.84271 0
M  V30 1333 C 122.842 1.77496 -0.655125 0
M  V30 1334 O 122.185 1.7961 0.385488 0
M  V30 1335 C 122.247 1.88278 -3.06254 0
M  V30 1336 C 121.911 1.22431 -4.40295 0
M  V30 1337 C 122.908 0.602839 -5.16393 0
M  V30 1338 C 120.593 1.22915 -4.87029 0
M  V30 1339 C 122.587 -0.0050083 -6.374 0
M  V30 1340 C 120.274 0.617465 -6.07973 0
M  V30 1341 C 121.272 0.00146341 -6.83 0
M  V30 1342 O 120.96 -0.600642 -8.01653 0
M  V30 1343 H 120.692 0.278245 -0.616081 0
M  V30 1344 H 123.246 0.211626 -2.04307 0
M  V30 1345 H 121.476 2.64498 -2.82095 0
M  V30 1346 H 123.165 2.48612 -3.20853 0
M  V30 1347 H 123.931 0.591265 -4.81382 0
M  V30 1348 H 119.81 1.69801 -4.28589 0
M  V30 1349 H 123.354 -0.48643 -6.95902 0
M  V30 1350 H 119.251 0.62653 -6.42452 0
M  V30 1351 H 120.019 -0.497225 -8.16988 0
M  V30 1352 N 122.682 1.50554 0.465978 0
M  V30 1353 C 123.614 1.65949 1.58093 0
M  V30 1354 C 124.627 0.540827 1.53554 0
M  V30 1355 O 125.816 0.814187 1.5885 0
M  V30 1356 C 122.916 1.63261 2.96983 0
M  V30 1357 C 122.089 2.91245 3.26336 0
M  V30 1358 C 121.148 2.8113 4.44806 0
M  V30 1359 O 120.174 3.55086 4.44862 0
M  V30 1360 N 121.376 1.95032 5.46756 0
M  V30 1361 H 124.141 2.62122 1.45301 0
M  V30 1362 H 121.702 1.48082 0.65448 0
M  V30 1363 H 123.694 1.54101 3.74212 0
M  V30 1364 H 122.264 0.748032 3.03518 0
M  V30 1365 H 121.484 3.14493 2.37672 0
M  V30 1366 H 122.772 3.76022 3.42761 0
M  V30 1367 H 122.17 1.3427 5.49534 0
M  V30 1368 H 120.727 1.91772 6.2295 0
M  V30 1369 N 124.16 -0.719506 1.40217 0
M  V30 1370 C 125.406 -1.48152 1.38488 0
M  V30 1371 C 125.739 -1.94195 -0.0141867 0
M  V30 1372 O 125.014 -1.67884 -0.982096 0
M  V30 1373 C 125.297 -2.71035 2.37091 0
M  V30 1374 C 125.15 -2.30912 3.86005 0
M  V30 1375 C 126.469 -3.73182 2.33288 0
M  V30 1376 H 123.588 -0.537395 0.504357 0
M  V30 1377 H 126.23 -0.821472 1.71324 0
M  V30 1378 H 124.38 -3.27352 2.0922 0
M  V30 1379 H 126.052 -1.80107 4.24687 0
M  V30 1380 H 124.295 -1.62958 4.02029 0
M  V30 1381 H 124.966 -3.18978 4.50508 0
M  V30 1382 H 127.442 -3.26485 2.57966 0
M  V30 1383 H 126.318 -4.56806 3.04334 0
M  V30 1384 H 126.579 -4.21202 1.34317 0
M  V30 1385 N 125.638 -1.25649 -0.95132 0
M  V30 1386 C 126.57 -1.02112 -2.05197 0
M  V30 1387 C 127.583 0.0150571 -1.62793 0
M  V30 1388 O 128.772 -0.223874 -1.77091 0
M  V30 1389 C 125.872 -0.522361 -3.3485 0
M  V30 1390 C 125.045 -1.62546 -4.06076 0
M  V30 1391 C 124.104 -1.12649 -5.14001 0
M  V30 1392 O 123.13 -1.82156 -5.39266 0
M  V30 1393 N 124.332 0.03047 -5.80492 0
M  V30 1394 H 127.097 -1.96885 -2.25957 0
M  V30 1395 H 124.658 -1.16899 -1.1201 0
M  V30 1396 H 126.65 -0.172961 -4.0433 0
M  V30 1397 H 125.22 0.33151 -3.10837 0
M  V30 1398 H 124.44 -2.14628 -3.30649 0
M  V30 1399 H 125.728 -2.36644 -4.50419 0
M  V30 1400 H 125.126 0.611169 -5.62389 0
M  V30 1401 H 123.683 0.320875 -6.5101 0
M  V30 1402 N 127.117 1.15442 -1.07289 0
M  V30 1403 C 128.027 2.23786 -0.704057 0
M  V30 1404 C 129.043 1.7166 0.284413 0
M  V30 1405 O 130.219 2.00972 0.131205 0
M  V30 1406 C 127.284 3.46535 -0.106792 0
M  V30 1407 C 126.345 4.13654 -1.14842 0
M  V30 1408 C 125.578 5.30544 -0.57956 0
M  V30 1409 O 125.801 5.67187 0.604585 0
M  V30 1410 O 124.735 5.87154 -1.32414 0
M  V30 1411 H 128.561 2.57664 -1.60757 0
M  V30 1412 H 126.146 1.23152 -0.845803 0
M  V30 1413 H 128.028 4.20804 0.224048 0
M  V30 1414 H 126.703 3.14407 0.770049 0
M  V30 1415 H 125.61 3.4131 -1.5316 0
M  V30 1416 H 126.943 4.49861 -1.99714 0
M  V30 1417 N 128.595 0.856903 1.32268 0
M  V30 1418 C 129.558 0.308171 2.27119 0
M  V30 1419 C 130.558 -0.533421 1.51695 0
M  V30 1420 O 131.748 -0.344607 1.70757 0
M  V30 1421 C 128.88 -0.563757 3.36206 0
M  V30 1422 H 130.073 1.14535 2.77167 0
M  V30 1423 H 127.626 0.631421 1.42978 0
M  V30 1424 H 128.361 -1.42266 2.91429 0
M  V30 1425 H 128.146 0.0386749 3.92081 0
M  V30 1426 H 129.636 -0.940386 4.06874 0
M  V30 1427 N 130.073 -1.45103 0.615059 0
M  V30 1428 C 131.35 -1.95549 0.0448276 0
M  V30 1429 C 131.73 -1.55737 -1.4251 0
M  V30 1430 O 131.078 -0.823556 -2.13143 0
M  V30 1431 C 131.288 -3.48098 0.250785 0
M  V30 1432 C 132.636 -4.24384 0.135509 0
M  V30 1433 O 133.66 -3.55738 0.181299 0
M  V30 1434 O 132.519 -5.46493 0.0268878 0
M  V30 1435 H 129.613 -0.8264 -0.0314845 0
M  V30 1436 H 132.159 -1.55232 0.685642 0
M  V30 1437 H 130.931 -3.7007 1.27139 0
M  V30 1438 H 130.554 -3.95323 -0.424937 0
M  V30 1439 N 131.551 -0.354651 -1.53558 0
M  V30 1440 C 132.776 0.242153 -2.05981 0
M  V30 1441 C 133.201 1.42553 -1.2272 0
M  V30 1442 O 132.559 1.79656 -0.243604 0
M  V30 1443 C 132.607 0.624367 -3.55154 0
M  V30 1444 O 131.711 1.72301 -3.74681 0
M  V30 1445 H 131.052 0.0378432 -0.662921 0
M  V30 1446 H 133.582 -0.512087 -1.98088 0
M  V30 1447 H 133.592 0.898433 -3.97985 0
M  V30 1448 H 132.267 -0.240989 -4.15201 0
M  V30 1449 H 130.844 1.44535 -3.4375 0
M  V30 1450 N 133.029 1.57378 -0.0835403 0
M  V30 1451 C 133.959 2.1641 0.87686 0
M  V30 1452 C 134.94 1.09429 1.30228 0
M  V30 1453 O 136.125 1.37516 1.37124 0
M  V30 1454 C 133.255 2.73517 2.14022 0
M  V30 1455 C 132.209 3.85769 1.85381 0
M  V30 1456 C 131.535 4.29529 3.18448 0
M  V30 1457 C 132.835 5.09486 1.14984 0
M  V30 1458 H 134.529 2.96914 0.385059 0
M  V30 1459 H 132.075 1.42823 0.18377 0
M  V30 1460 H 134.028 3.13463 2.81636 0
M  V30 1461 H 132.752 1.90252 2.65465 0
M  V30 1462 H 131.411 3.46345 1.20169 0
M  V30 1463 H 131.059 3.43169 3.67755 0
M  V30 1464 H 130.759 5.05204 3.00071 0
M  V30 1465 H 132.283 4.72099 3.8724 0
M  V30 1466 H 133.697 5.46674 1.72687 0
M  V30 1467 H 132.094 5.90515 1.06826 0
M  V30 1468 H 133.164 4.84724 0.130749 0
M  V30 1469 N 134.507 -0.190092 1.56449 0
M  V30 1470 C 135.47 -1.21925 1.9408 0
M  V30 1471 C 136.47 -1.38176 0.822431 0
M  V30 1472 O 137.66 -1.35903 1.08977 0
M  V30 1473 C 134.792 -2.58773 2.21922 0
M  V30 1474 H 135.985 -0.897464 2.86157 0
M  V30 1475 H 133.538 -0.43181 1.50217 0
M  V30 1476 H 134.273 -2.95998 1.32499 0
M  V30 1477 H 134.058 -2.48348 3.03424 0
M  V30 1478 H 135.548 -3.32978 2.52022 0
M  V30 1479 N 135.985 -1.50799 -0.457987 0
M  V30 1480 C 137.21 -1.66496 -1.23668 0
M  V30 1481 C 137.635 -0.353288 -1.84752 0
M  V30 1482 O 136.993 0.684346 -1.67888 0
M  V30 1483 C 137.041 -2.76763 -2.3116 0
M  V30 1484 O 136.145 -2.38928 -3.36136 0
M  V30 1485 H 135.486 -0.555828 -0.363252 0
M  V30 1486 H 138.016 -1.9725 -0.543474 0
M  V30 1487 H 138.026 -3.00232 -2.76269 0
M  V30 1488 H 136.701 -3.71954 -1.86073 0
M  V30 1489 H 135.278 -2.25953 -2.96647 0
M  V30 1490 N 137.463 0.71206 -1.40597 0
M  V30 1491 C 138.709 1.47416 -1.39271 0
M  V30 1492 C 139.042 1.942 0.00388791 0
M  V30 1493 O 138.317 1.68403 0.973179 0
M  V30 1494 C 138.6 2.69774 -2.38525 0
M  V30 1495 C 138.453 2.28861 -3.87224 0
M  V30 1496 C 139.772 3.71939 -2.35264 0
M  V30 1497 H 136.891 0.534713 -0.5072 0
M  V30 1498 H 139.533 0.812375 -1.71757 0
M  V30 1499 H 137.683 3.26238 -2.10953 0
M  V30 1500 H 139.355 1.77852 -4.25636 0
M  V30 1501 H 137.598 1.60824 -4.02887 0
M  V30 1502 H 138.269 3.16584 -4.52193 0
M  V30 1503 H 140.745 3.25113 -2.59694 0
M  V30 1504 H 139.621 4.55186 -3.06753 0
M  V30 1505 H 139.882 4.20484 -1.36549 0
M  V30 1506 N 138.941 1.26152 0.944643 0
M  V30 1507 C 139.873 1.03199 2.04652 0
M  V30 1508 C 140.886 -0.00642356 1.62799 0
M  V30 1509 O 142.075 0.233263 1.76969 0
M  V30 1510 C 139.175 0.540111 3.34568 0
M  V30 1511 C 138.348 1.64697 4.05208 0
M  V30 1512 C 137.407 1.15374 5.13396 0
M  V30 1513 O 136.433 1.85013 5.38293 0
M  V30 1514 N 137.635 0.00031529 5.805 0
M  V30 1515 H 140.4 1.9808 2.2491 0
M  V30 1516 H 137.961 1.17491 1.11389 0
M  V30 1517 H 139.953 0.194401 4.04233 0
M  V30 1518 H 138.523 -0.315021 3.11009 0
M  V30 1519 H 137.743 2.16379 3.29506 0
M  V30 1520 H 139.031 2.3903 4.49157 0
M  V30 1521 H 138.429 -0.581336 5.62705 0
M  V30 1522 H 136.986 -0.286346 6.51171 0
M  V30 1523 N 140.419 -1.14872 1.07899 0
M  V30 1524 C 141.349 -2.2193 0.725887 0
M  V30 1525 C 142.33 -1.67622 -0.28927 0
M  V30 1526 O 143.515 -1.93533 -0.160787 0
M  V30 1527 C 140.645 -3.47061 0.128856 0
M  V30 1528 C 139.599 -4.14363 1.07178 0
M  V30 1529 C 138.925 -5.33636 0.337229 0
M  V30 1530 C 140.225 -4.63492 2.40775 0
M  V30 1531 H 141.919 -2.51724 1.62097 0
M  V30 1532 H 139.465 -1.20991 0.780838 0
M  V30 1533 H 141.418 -4.21199 -0.130147 0
M  V30 1534 H 140.142 -3.16617 -0.80134 0
M  V30 1535 H 138.801 -3.42173 1.3158 0
M  V30 1536 H 138.449 -4.99449 -0.596606 0
M  V30 1537 H 138.149 -5.79609 0.965788 0
M  V30 1538 H 139.673 -6.10539 0.0861567 0
M  V30 1539 H 141.087 -5.2913 2.20669 0
M  V30 1540 H 139.484 -5.20148 2.99276 0
M  V30 1541 H 140.554 -3.78834 3.02676 0
M  V30 1542 N 141.898 -0.863906 -1.31812 0
M  V30 1543 C 143.146 -0.470904 -1.96537 0
M  V30 1544 C 143.467 0.978771 -1.68657 0
M  V30 1545 O 142.737 1.6853 -0.998717 0
M  V30 1546 H 141.317 -0.171148 -0.72713 0
M  V30 1547 H 143.979 -1.10236 -1.60729 0
M  V30 1548 H 143.075 -0.623616 -3.05806 0
M  V30 1549 N 143.376 1.44774 -0.622745 0
M  V30 1550 C 144.339 2.29069 0.0774015 0
M  V30 1551 C 145.339 1.4059 0.780461 0
M  V30 1552 O 146.529 1.62551 0.626322 0
M  V30 1553 C 143.661 3.21974 1.12006 0
M  V30 1554 H 144.854 2.92459 -0.663901 0
M  V30 1555 H 142.407 1.51548 -0.382486 0
M  V30 1556 H 143.142 2.63417 1.89162 0
M  V30 1557 H 142.927 3.87168 0.619951 0
M  V30 1558 H 144.417 3.85318 1.60995 0
M  V30 1559 N 144.854 0.36279 1.53368 0
M  V30 1560 C 146.082 -0.228613 2.05633 0
M  V30 1561 C 146.497 -1.42676 1.23649 0
M  V30 1562 O 145.854 -1.80394 0.27647 0
M  V30 1563 C 145.905 -0.624845 3.56059 0
M  V30 1564 O 145.626 0.525675 4.34935 0
M  V30 1565 C 147.127 -1.27493 4.24571 0
M  V30 1566 H 144.347 -0.0407183 0.669763 0
M  V30 1567 H 146.891 0.520352 1.97769 0
M  V30 1568 H 145.046 -1.32373 3.64083 0
M  V30 1569 H 145.46 0.205969 5.24095 0
M  V30 1570 H 146.934 -1.50277 5.31151 0
M  V30 1571 H 147.411 -2.23439 3.78116 0
M  V30 1572 H 148.017 -0.617558 4.20792 0
M  V30 1573 N 146.332 -1.57332 0.0918853 0
M  V30 1574 C 147.748 -1.57389 -0.264766 0
M  V30 1575 C 147.948 -1.10281 -1.68643 0
M  V30 1576 O 147.004 -0.777801 -2.40222 0
M  V30 1577 C 148.317 -3.00648 -0.0561195 0
M  V30 1578 C 149.865 -3.12754 -0.124116 0
M  V30 1579 C 150.34 -4.57965 0.0564972 0
M  V30 1580 N 151.831 -4.632 0.00155611 0
M  V30 1581 C 152.566 -5.73281 0.116598 0
M  V30 1582 N 152.062 -6.92208 0.286294 0
M  V30 1583 N 153.855 -5.6207 0.0580973 0
M  V30 1584 H 146.006 -1.86262 1.02079 0
M  V30 1585 H 148.269 -0.859579 0.399786 0
M  V30 1586 H 147.975 -3.393 0.925669 0
M  V30 1587 H 147.849 -3.68623 -0.799823 0
M  V30 1588 H 150.236 -2.73976 -1.09641 0
M  V30 1589 H 150.317 -2.47377 0.651024 0
M  V30 1590 H 149.961 -4.97436 1.02564 0
M  V30 1591 H 149.891 -5.21399 -0.738297 0
M  V30 1592 H 152.382 -3.77686 -0.127192 0
M  V30 1593 H 152.695 -7.71934 0.365676 0
M  V30 1594 H 151.04 -6.94254 0.32192 0
M  V30 1595 H 154.231 -4.68043 -0.0733204 0
M  V30 1596 H 154.404 -6.47824 0.151203 0
M  V30 1597 N 147.81 0.181792 -1.56548 0
M  V30 1598 C 149.221 0.745244 -1.71181 0
M  V30 1599 C 149.572 1.83262 -0.70068 0
M  V30 1600 O 148.697 2.15946 0.140154 0
M  V30 1601 C 149.292 1.35859 -3.10367 0
M  V30 1602 C 147.851 1.86898 -3.2672 0
M  V30 1603 C 146.998 0.743942 -2.67134 0
M  V30 1604 H 149.949 -0.0434661 -1.5864 0
M  V30 1605 H 149.97 2.22817 -3.08436 0
M  V30 1606 H 149.482 0.566948 -3.83937 0
M  V30 1607 H 147.583 2.68738 -2.5809 0
M  V30 1608 H 147.696 2.02162 -4.34359 0
M  V30 1609 H 146.06 1.16169 -2.26665 0
M  V30 1610 H 146.843 -0.035676 -3.43281 0
M  V30 1611 N 149.288 1.51039 0.449983 0
M  V30 1612 C 150.516 1.66869 1.2232 0
M  V30 1613 C 150.931 0.360727 1.85322 0
M  V30 1614 O 150.288 -0.659531 1.70166 0
M  V30 1615 C 150.339 2.77524 2.31652 0
M  V30 1616 O 150.06 4.03252 1.7123 0
M  V30 1617 C 151.561 3.04512 3.2216 0
M  V30 1618 H 148.781 0.560326 0.369155 0
M  V30 1619 H 151.325 1.97385 0.534719 0
M  V30 1620 H 149.48 2.49642 2.96239 0
M  V30 1621 H 149.894 4.64609 2.43389 0
M  V30 1622 H 151.368 3.85551 3.95038 0
M  V30 1623 H 151.845 2.16415 3.8218 0
M  V30 1624 H 152.451 3.34005 2.63288 0
M  V30 1625 N 150.766 -0.704594 1.40972 0
M  V30 1626 C 151.729 -1.80035 1.41845 0
M  V30 1627 C 152.729 -1.57774 0.310474 0
M  V30 1628 O 153.919 -1.64613 0.56992 0
M  V30 1629 C 151.051 -3.18284 1.22098 0
M  V30 1630 H 152.244 -1.80658 2.3938 0
M  V30 1631 H 149.797 -0.911329 1.26982 0
M  V30 1632 H 150.532 -3.23306 0.253672 0
M  V30 1633 H 150.317 -3.35843 2.02366 0
M  V30 1634 H 151.807 -3.98289 1.25522 0
M  V30 1635 N 152.244 -1.26651 -0.937939 0
M  V30 1636 C 153.655 -1.1125 -1.49934 0
M  V30 1637 C 154.006 0.306077 -1.93798 0
M  V30 1638 O 153.131 1.19792 -1.80219 0
M  V30 1639 C 153.726 -2.01339 -2.72485 0
M  V30 1640 C 152.285 -1.90074 -3.24883 0
M  V30 1641 C 151.432 -1.94498 -1.97651 0
M  V30 1642 H 154.383 -1.39693 -0.753091 0
M  V30 1643 H 154.404 -1.56319 -3.46907 0
M  V30 1644 H 153.916 -3.04577 -2.40529 0
M  V30 1645 H 152.017 -0.897827 -3.61621 0
M  V30 1646 H 152.13 -2.75778 -3.9177 0
M  V30 1647 H 150.494 -1.38591 -2.13693 0
M  V30 1648 H 151.277 -2.99372 -1.68022 0
M  V30 1649 N 153.722 1.14298 -1.08507 0
M  V30 1650 C 154.685 2.17607 -0.719711 0
M  V30 1651 C 155.685 1.58907 0.245997 0
M  V30 1652 O 156.875 1.74181 0.0254081 0
M  V30 1653 C 154.007 3.40842 -0.0627695 0
M  V30 1654 H 155.2 2.51443 -1.63452 0
M  V30 1655 H 152.753 1.28963 -0.88307 0
M  V30 1656 H 153.488 3.12587 0.863716 0
M  V30 1657 H 153.273 3.84713 -0.757504 0
M  V30 1658 H 154.763 4.17221 0.177786 0
M  V30 1659 N 155.201 0.870884 1.31352 0
M  V30 1660 C 156.426 0.495957 2.01383 0
M  V30 1661 C 156.851 -0.904324 1.64935 0
M  V30 1662 O 156.209 -1.59687 0.858466 0
M  V30 1663 C 156.257 0.661433 3.54482 0
M  V30 1664 O 155.361 -0.298851 4.11316 0
M  V30 1665 H 154.702 0.197158 0.634054 0
M  V30 1666 H 157.232 1.17455 1.67527 0
M  V30 1667 H 157.242 0.555072 4.04207 0
M  V30 1668 H 155.917 1.68246 3.8035 0
M  V30 1669 H 154.494 -0.147368 3.72609 0
M  V30 1670 N 156.679 -1.44442 0.630414 0
M  V30 1671 C 157.642 -2.29107 -0.0652523 0
M  V30 1672 C 158.642 -1.41002 -0.772995 0
M  V30 1673 O 159.832 -1.62881 -0.617692 0
M  V30 1674 C 156.964 -3.22564 -1.10296 0
M  V30 1675 H 158.157 -2.92103 0.679401 0
M  V30 1676 H 155.71 -1.51343 0.390517 0
M  V30 1677 H 156.445 -2.64416 -1.87762 0
M  V30 1678 H 156.23 -3.87491 -0.59941 0
M  V30 1679 H 157.72 -3.86167 -1.5895 0
M  V30 1680 N 158.157 -0.370918 -1.53173 0
M  V30 1681 C 159.104 0.473035 -2.259 0
M  V30 1682 C 160.074 1.07311 -1.26781 0
M  V30 1683 O 161.259 1.1046 -1.55574 0
M  V30 1684 C 158.399 1.60405 -3.05556 0
M  V30 1685 C 157.512 1.02863 -4.19575 0
M  V30 1686 C 156.647 2.12918 -4.86661 0
M  V30 1687 C 155.686 1.52869 -5.92704 0
M  V30 1688 N 154.823 2.56779 -6.53459 0
M  V30 1689 H 159.663 -0.153649 -2.97604 0
M  V30 1690 H 157.2 -0.0875946 -1.46839 0
M  V30 1691 H 159.158 2.27034 -3.50016 0
M  V30 1692 H 157.788 2.20131 -2.36097 0
M  V30 1693 H 156.84 0.252465 -3.79561 0
M  V30 1694 H 158.152 0.549642 -4.95762 0
M  V30 1695 H 157.306 2.87356 -5.34333 0
M  V30 1696 H 156.045 2.6417 -4.09958 0
M  V30 1697 H 155.05 0.769479 -5.44389 0
M  V30 1698 H 156.275 1.02435 -6.7133 0
M  V30 1699 H 154.221 3.07235 -5.79606 0
M  V30 1700 H 154.138 2.13583 -7.25202 0
M  V30 1701 H 155.406 3.30903 -7.05779 0
M  V30 1702 N 159.635 1.57281 -0.100228 0
M  V30 1703 C 161.051 1.57527 0.256416 0
M  V30 1704 C 161.251 1.11173 1.68056 0
M  V30 1705 O 160.307 0.79053 2.39806 0
M  V30 1706 C 161.62 3.00673 0.0401747 0
M  V30 1707 C 163.168 3.12815 0.107528 0
M  V30 1708 C 163.643 4.57929 -0.0807834 0
M  V30 1709 N 165.134 4.63193 -0.0261207 0
M  V30 1710 C 165.869 5.73212 -0.146999 0
M  V30 1711 N 165.365 6.92047 -0.322999 0
M  V30 1712 N 167.158 5.62031 -0.0879044 0
M  V30 1713 H 159.309 1.85718 -1.03065 0
M  V30 1714 H 161.572 0.857446 -0.404339 0
M  V30 1715 H 161.278 3.38804 -0.943649 0
M  V30 1716 H 161.152 3.69042 0.780262 0
M  V30 1717 H 163.539 2.74554 1.08186 0
M  V30 1718 H 163.62 2.47028 -0.664134 0
M  V30 1719 H 163.264 4.96886 -1.05201 0
M  V30 1720 H 163.194 5.21783 0.710635 0
M  V30 1721 H 165.685 3.77748 0.107161 0
M  V30 1722 H 165.998 7.7173 -0.406608 0
M  V30 1723 H 164.343 6.94074 -0.358733 0
M  V30 1724 H 167.534 4.68075 0.048498 0
M  V30 1725 H 167.707 6.47734 -0.185557 0
M  V30 1726 N 161.113 -0.173488 1.56642 0
M  V30 1727 C 162.341 -0.906095 1.86004 0
M  V30 1728 C 162.756 -1.75921 0.685355 0
M  V30 1729 O 162.113 -1.79198 -0.345578 0
M  V30 1730 C 162.164 -1.78462 3.14378 0
M  V30 1731 O 161.885 -0.965914 4.27319 0
M  V30 1732 C 163.386 -2.62707 3.57071 0
M  V30 1733 H 160.606 -0.263341 0.617165 0
M  V30 1734 H 163.15 -0.174236 2.03756 0
M  V30 1735 H 161.305 -2.46984 2.98459 0
M  V30 1736 H 161.719 -1.56655 5.00559 0
M  V30 1737 H 163.193 -3.19969 4.49804 0
M  V30 1738 H 163.67 -3.37472 2.81086 0
M  V30 1739 H 164.276 -1.99521 3.75595 0
M  V30 1740 N 162.591 -1.51276 -0.441967 0
M  V30 1741 C 163.538 -1.72256 -1.53612 0
M  V30 1742 C 164.508 -0.564164 -1.56225 0
M  V30 1743 O 165.693 -0.798074 -1.73307 0
M  V30 1744 C 162.833 -1.84932 -2.91366 0
M  V30 1745 C 161.946 -3.12459 -2.98317 0
M  V30 1746 C 161.081 -3.15758 -4.27166 0
M  V30 1747 C 160.12 -4.37619 -4.27967 0
M  V30 1748 N 159.257 -4.38493 -5.48333 0
M  V30 1749 H 164.097 -2.65654 -1.35026 0
M  V30 1750 H 161.634 -1.31662 -0.656009 0
M  V30 1751 H 163.592 -1.90263 -3.7129 0
M  V30 1752 H 162.222 -0.949461 -3.08521 0
M  V30 1753 H 161.274 -3.1646 -2.11086 0
M  V30 1754 H 162.586 -4.02382 -2.94771 0
M  V30 1755 H 161.74 -3.19979 -5.15459 0
M  V30 1756 H 160.479 -2.23715 -4.33362 0
M  V30 1757 H 159.484 -4.33579 -3.38067 0
M  V30 1758 H 160.709 -5.30921 -4.23438 0
M  V30 1759 H 158.655 -3.49318 -5.55259 0
M  V30 1760 H 158.572 -5.22219 -5.46647 0
M  V30 1761 H 159.84 -4.469 -6.38671 0
M  V30 1762 N 164.069 0.697108 -1.41344 0
M  V30 1763 C 165.032 1.79281 -1.42797 0
M  V30 1764 C 166.032 1.57607 -0.318837 0
M  V30 1765 O 167.222 1.64309 -0.578642 0
M  V30 1766 C 164.354 3.17632 -1.23785 0
M  V30 1767 H 165.547 1.79385 -2.40335 0
M  V30 1768 H 163.1 0.904582 -1.27464 0
M  V30 1769 H 163.835 3.23167 -0.270814 0
M  V30 1770 H 163.62 3.34765 -2.04144 0
M  V30 1771 H 165.11 3.97617 -1.27633 0
M  V30 1772 N 165.547 1.27147 0.931209 0
M  V30 1773 C 166.51 1.09615 2.01289 0
M  V30 1774 C 167.51 0.0412581 1.60747 0
M  V30 1775 O 168.7 0.285545 1.71844 0
M  V30 1776 C 165.832 0.669447 3.34262 0
M  V30 1777 H 167.025 2.05662 2.18273 0
M  V30 1778 H 164.578 1.09885 1.11153 0
M  V30 1779 H 165.313 -0.292572 3.22978 0
M  V30 1780 H 165.098 1.43127 3.65044 0
M  V30 1781 H 166.588 0.568921 4.13706 0
M  V30 1782 N 167.025 -1.13721 1.09112 0
M  V30 1783 C 167.988 -2.17222 0.731241 0
M  V30 1784 C 168.988 -1.59035 -0.237566 0
M  V30 1785 O 170.178 -1.74192 -0.0161704 0
M  V30 1786 C 167.31 -3.40804 0.0808443 0
M  V30 1787 H 168.503 -2.50573 1.64783 0
M  V30 1788 H 166.056 -1.28493 0.889897 0
M  V30 1789 H 166.791 -3.1304 -0.847127 0
M  V30 1790 H 166.576 -3.84306 0.777896 0
M  V30 1791 H 168.066 -4.1731 -0.155657 0
M  V30 1792 N 168.503 -0.877838 -1.30888 0
M  V30 1793 C 169.731 -0.507414 -2.00581 0
M  V30 1794 C 170.146 0.902216 -1.65848 0
M  V30 1795 O 169.503 1.59225 -0.891831 0
M  V30 1796 C 169.554 -0.664162 -3.55347 0
M  V30 1797 O 169.275 -2.01829 -3.8884 0
M  V30 1798 C 170.776 -0.295787 -4.42312 0
M  V30 1799 H 167.996 -0.196866 -0.641471 0
M  V30 1800 H 170.54 -1.18117 -1.66939 0
M  V30 1801 H 168.695 -0.0378619 -3.87381 0
M  V30 1802 H 169.109 -2.03174 -4.8355 0
M  V30 1803 H 170.583 -0.456388 -5.5011 0
M  V30 1804 H 171.06 0.765663 -4.32475 0
M  V30 1805 H 171.666 -0.898113 -4.15709 0
M  V30 1806 N 169.982 1.44106 -0.638065 0
M  V30 1807 C 170.945 2.29138 0.0531013 0
M  V30 1808 C 171.945 1.41409 0.765506 0
M  V30 1809 O 173.135 1.63206 0.609046 0
M  V30 1810 C 170.267 3.23144 1.08584 0
M  V30 1811 H 171.46 2.91739 -0.694883 0
M  V30 1812 H 169.013 1.51134 -0.398538 0
M  V30 1813 H 169.748 2.65408 1.86357 0
M  V30 1814 H 169.533 3.87804 0.578852 0
M  V30 1815 H 171.023 3.87004 1.56899 0
M  V30 1816 N 171.46 0.379036 1.52974 0
M  V30 1817 C 172.708 -0.206014 2.01047 0
M  V30 1818 C 173.029 -1.48175 1.26765 0
M  V30 1819 O 172.299 -1.92085 0.384743 0
M  V30 1820 H 170.879 -0.0791184 0.742798 0
M  V30 1821 H 173.541 0.508366 1.88153 0
M  V30 1822 H 172.637 -0.423501 3.09213 0
M  V30 1823 N 172.938 -1.57226 0.108567 0
M  V30 1824 C 174.186 -1.94448 -0.550853 0
M  V30 1825 C 174.507 -0.992074 -1.67878 0
M  V30 1826 O 173.777 -0.0465 -1.95845 0
M  V30 1827 H 172.357 -0.717897 -0.206479 0
M  V30 1828 H 175.019 -1.94112 0.175062 0
M  V30 1829 H 174.115 -2.97218 -0.952259 0
M  V30 1830 N 174.416 0.165178 -1.56732 0
M  V30 1831 C 175.348 1.22911 -1.93457 0
M  V30 1832 C 176.361 1.40152 -0.828333 0
M  V30 1833 O 177.55 1.40046 -1.10677 0
M  V30 1834 C 174.65 2.59686 -2.17753 0
M  V30 1835 C 173.823 2.63663 -3.48999 0
M  V30 1836 C 172.882 3.81845 -3.62051 0
M  V30 1837 O 171.908 3.67559 -4.34613 0
M  V30 1838 N 173.11 4.98557 -2.97357 0
M  V30 1839 H 175.875 0.917118 -2.85323 0
M  V30 1840 H 173.436 0.354895 -1.57962 0
M  V30 1841 H 175.428 3.37225 -2.23743 0
M  V30 1842 H 173.998 2.83251 -1.32242 0
M  V30 1843 H 173.218 1.72173 -3.54612 0
M  V30 1844 H 174.506 2.63336 -4.35352 0
M  V30 1845 H 173.904 5.13065 -2.38287 0
M  V30 1846 H 172.461 5.73936 -3.08934 0
M  V30 1847 N 175.894 1.51508 0.433938 0
M  V30 1848 C 177.142 1.6402 1.18075 0
M  V30 1849 C 177.463 0.360328 1.91642 0
M  V30 1850 O 176.733 -0.623945 1.85698 0
M  V30 1851 H 175.313 0.6045 0.43885 0
M  V30 1852 H 177.975 1.88452 0.497178 0
M  V30 1853 H 177.071 2.46949 1.90847 0
M  V30 1854 N 177.372 -0.689602 1.41712 0
M  V30 1855 C 178.62 -1.4468 1.4111 0
M  V30 1856 C 178.941 -1.94986 0.0232196 0
M  V30 1857 O 178.211 -1.72097 -0.935913 0
M  V30 1858 H 176.791 -0.536847 0.519427 0
M  V30 1859 H 179.453 -0.815825 1.77004 0
M  V30 1860 H 178.549 -2.30706 2.10193 0
M  V30 1861 N 178.85 -1.27639 -0.924453 0
M  V30 1862 C 179.813 -1.10681 -2.00705 0
M  V30 1863 C 180.813 -0.0497823 -1.60723 0
M  V30 1864 O 182.003 -0.294654 -1.7169 0
M  V30 1865 C 179.135 -0.687164 -3.33902 0
M  V30 1866 H 180.328 -2.06817 -2.17179 0
M  V30 1867 H 177.881 -1.10473 -1.10569 0
M  V30 1868 H 178.616 0.275439 -3.23128 0
M  V30 1869 H 178.401 -1.45061 -3.6428 0
M  V30 1870 H 179.891 -0.590853 -4.13399 0
M  V30 1871 N 180.328 1.1314 -1.09713 0
M  V30 1872 C 181.291 2.16831 -0.742751 0
M  V30 1873 C 182.291 1.59159 0.229129 0
M  V30 1874 O 183.481 1.74199 0.00693237 0
M  V30 1875 C 180.613 3.40756 -0.0989168 0
M  V30 1876 H 181.806 2.49695 -1.66109 0
M  V30 1877 H 179.359 1.2802 -0.896699 0
M  V30 1878 H 180.094 3.13485 0.830514 0
M  V30 1879 H 179.879 3.83888 -0.798265 0
M  V30 1880 H 181.369 4.17386 0.133524 0
M  V30 1881 N 181.806 0.884767 1.30421 0
M  V30 1882 C 183.222 0.57874 1.48737 0
M  V30 1883 C 183.422 -0.883567 1.81095 0
M  V30 1884 O 182.478 -1.6648 1.89844 0
M  V30 1885 C 183.791 1.49171 2.61091 0
M  V30 1886 C 185.339 1.49532 2.74971 0
M  V30 1887 C 185.814 2.39421 3.90438 0
M  V30 1888 N 187.305 2.37383 3.97748 0
M  V30 1889 C 188.04 3.03647 4.86401 0
M  V30 1890 N 187.536 3.79136 5.79852 0
M  V30 1891 N 189.329 2.9288 4.79768 0
M  V30 1892 H 181.48 1.83075 1.0769 0
M  V30 1893 H 183.743 0.783637 0.533495 0
M  V30 1894 H 183.449 2.53291 2.44001 0
M  V30 1895 H 183.323 1.20113 3.57565 0
M  V30 1896 H 185.71 0.46163 2.91467 0
M  V30 1897 H 185.791 1.8262 1.79119 0
M  V30 1898 H 185.435 3.42874 3.74699 0
M  V30 1899 H 185.365 2.03649 4.85628 0
M  V30 1900 H 187.856 1.82525 3.30897 0
M  V30 1901 H 188.169 4.26789 6.4426 0
M  V30 1902 H 186.514 3.83243 5.79784 0
M  V30 1903 H 189.705 2.33433 4.05742 0
M  V30 1904 H 189.878 3.448 5.4865 0
M  V30 1905 N 183.284 -1.43765 0.645699 0
M  V30 1906 C 184.231 -2.30745 -0.0504648 0
M  V30 1907 C 185.201 -1.4432 -0.822241 0
M  V30 1908 O 186.386 -1.73202 -0.800358 0
M  V30 1909 C 183.526 -3.29802 -1.0161 0
M  V30 1910 C 182.639 -4.31326 -0.241219 0
M  V30 1911 C 181.774 -5.17469 -1.19998 0
M  V30 1912 C 180.813 -6.10691 -0.415094 0
M  V30 1913 N 179.95 -6.89483 -1.32506 0
M  V30 1914 H 184.79 -2.8973 0.697155 0
M  V30 1915 H 182.327 -1.42738 0.355563 0
M  V30 1916 H 184.285 -3.85734 -1.58949 0
M  V30 1917 H 182.915 -2.72483 -1.73069 0
M  V30 1918 H 181.967 -3.77749 0.448334 0
M  V30 1919 H 183.279 -4.9743 0.369437 0
M  V30 1920 H 182.433 -5.7799 -1.84424 0
M  V30 1921 H 181.172 -4.51473 -1.84455 0
M  V30 1922 H 180.177 -5.49265 0.242565 0
M  V30 1923 H 181.402 -6.78727 0.224966 0
M  V30 1924 H 179.348 -6.26142 -1.95657 0
M  V30 1925 H 179.265 -7.52081 -0.768783 0
M  V30 1926 H 180.533 -7.54516 -1.9577 0
M  V30 1927 N 184.763 -0.387143 -1.52771 0
M  V30 1928 C 185.673 0.456442 -2.30117 0
M  V30 1929 C 186.689 1.07342 -1.36944 0
M  V30 1930 O 187.865 1.07971 -1.70013 0
M  V30 1931 C 184.93 1.56957 -3.09136 0
M  V30 1932 C 183.991 0.977916 -4.18014 0
M  V30 1933 C 183.224 2.038 -4.93256 0
M  V30 1934 O 183.447 3.25271 -4.68567 0
M  V30 1935 O 182.381 1.6565 -5.78657 0
M  V30 1936 H 186.207 -0.17359 -3.03203 0
M  V30 1937 H 183.792 -0.150919 -1.48636 0
M  V30 1938 H 185.674 2.21628 -3.58412 0
M  V30 1939 H 184.349 2.18461 -2.38865 0
M  V30 1940 H 183.256 0.294525 -3.72939 0
M  V30 1941 H 184.589 0.407128 -4.90513 0
M  V30 1942 N 186.241 1.57166 -0.116904 0
M  V30 1943 C 187.188 2.15202 0.83408 0
M  V30 1944 C 188.158 1.07644 1.26499 0
M  V30 1945 O 189.343 1.35541 1.34288 0
M  V30 1946 C 186.483 2.75405 2.07957 0
M  V30 1947 C 185.596 3.97264 1.69721 0
M  V30 1948 C 184.731 4.45561 2.89221 0
M  V30 1949 C 183.77 5.59956 2.47215 0
M  V30 1950 N 182.907 6.03006 3.59622 0
M  V30 1951 H 187.747 2.96141 0.332335 0
M  V30 1952 H 185.284 1.46309 0.152349 0
M  V30 1953 H 187.242 3.08439 2.80929 0
M  V30 1954 H 185.872 1.97159 2.55594 0
M  V30 1955 H 184.924 3.70404 0.866316 0
M  V30 1956 H 186.236 4.80226 1.34849 0
M  V30 1957 H 185.39 4.80493 3.7042 0
M  V30 1958 H 184.129 3.61544 3.27318 0
M  V30 1959 H 183.134 5.2463 1.64448 0
M  V30 1960 H 184.359 6.45738 2.10238 0
M  V30 1961 H 182.305 5.21931 3.97396 0
M  V30 1962 H 182.222 6.80819 3.28667 0
M  V30 1963 H 183.49 6.42576 4.41267 0
M  V30 1964 N 187.719 -0.156864 1.56817 0
M  V30 1965 C 188.666 -1.19394 1.97519 0
M  V30 1966 C 189.636 -1.4322 0.841265 0
M  V30 1967 O 190.821 -1.55719 1.10255 0
M  V30 1968 C 187.961 -2.52483 2.35258 0
M  V30 1969 C 187.074 -2.35914 3.61896 0
M  V30 1970 C 186.209 -3.61969 3.88782 0
M  V30 1971 C 185.248 -3.40395 5.08722 0
M  V30 1972 N 184.385 -4.58556 5.31668 0
M  V30 1973 H 189.225 -0.839845 2.85921 0
M  V30 1974 H 186.762 -0.403264 1.41464 0
M  V30 1975 H 188.72 -3.30071 2.55165 0
M  V30 1976 H 187.35 -2.85859 1.49949 0
M  V30 1977 H 186.402 -1.49429 3.49821 0
M  V30 1978 H 187.714 -2.15926 4.49641 0
M  V30 1979 H 186.868 -4.47989 4.09135 0
M  V30 1980 H 185.607 -3.84951 2.9944 0
M  V30 1981 H 184.612 -2.52763 4.88253 0
M  V30 1982 H 185.837 -3.18822 5.99608 0
M  V30 1983 H 183.783 -4.81729 4.45279 0
M  V30 1984 H 183.7 -4.41535 6.13664 0
M  V30 1985 H 184.968 -5.45817 5.5651 0
M  V30 1986 N 189.197 -1.51736 -0.425897 0
M  V30 1987 C 190.445 -1.64644 -1.17204 0
M  V30 1988 C 190.766 -0.370486 -1.91448 0
M  V30 1989 O 190.036 0.614088 -1.86026 0
M  V30 1990 H 188.616 -0.606819 -0.435638 0
M  V30 1991 H 191.278 -1.88713 -0.487177 0
M  V30 1992 H 190.374 -2.47958 -1.89534 0
M  V30 1993 N 190.675 0.682077 -1.42076 0
M  V30 1994 C 191.622 1.79578 -1.44984 0
M  V30 1995 C 192.592 1.6332 -0.302614 0
M  V30 1996 O 193.777 1.83978 -0.505633 0
M  V30 1997 C 190.917 3.1756 -1.35091 0
M  V30 1998 C 190.03 3.45156 -2.59791 0
M  V30 1999 C 189.165 4.72826 -2.42093 0
M  V30 2000 C 188.204 4.93433 -3.62202 0
M  V30 2001 N 187.341 6.12338 -3.43491 0
M  V30 2002 H 192.181 1.76427 -2.40161 0
M  V30 2003 H 189.718 0.861376 -1.19242 0
M  V30 2004 H 191.676 3.97287 -1.27354 0
M  V30 2005 H 190.306 3.19854 -0.435133 0
M  V30 2006 H 189.358 2.59736 -2.77923 0
M  V30 2007 H 190.67 3.5628 -3.49094 0
M  V30 2008 H 189.824 5.60631 -2.319 0
M  V30 2009 H 188.563 4.63973 -1.50268 0
M  V30 2010 H 187.568 4.04073 -3.72834 0
M  V30 2011 H 188.793 5.04136 -4.54998 0
M  V30 2012 H 186.739 6.04672 -2.54377 0
M  V30 2013 H 186.656 6.2429 -4.26377 0
M  V30 2014 H 187.924 7.02841 -3.37097 0
M  V30 2015 N 192.153 1.28127 0.917671 0
M  V30 2016 C 193.103 1.08361 2.00604 0
M  V30 2017 C 194.087 0.00847518 1.60898 0
M  V30 2018 O 195.279 0.228167 1.75523 0
M  V30 2019 C 192.408 0.743376 3.35155 0
M  V30 2020 C 191.494 1.85716 3.81275 0
M  V30 2021 N 191.885 3.09822 3.99805 0
M  V30 2022 C 190.183 1.74612 4.10398 0
M  V30 2023 C 190.884 3.82368 4.38372 0
M  V30 2024 N 189.86 3.10192 4.4641 0
M  V30 2025 H 193.662 2.02531 2.12975 0
M  V30 2026 H 191.176 1.18989 1.10523 0
M  V30 2027 H 193.173 0.582859 4.12805 0
M  V30 2028 H 191.833 -0.190595 3.2414 0
M  V30 2029 H 192.844 3.45475 3.85833 0
M  V30 2030 H 189.521 0.883657 4.08041 0
M  V30 2031 H 190.911 4.89082 4.60704 0
M  V30 2032 N 193.631 -1.12557 1.10312 0
M  V30 2033 C 194.578 -2.18247 0.750781 0
M  V30 2034 C 195.548 -1.63853 -0.272293 0
M  V30 2035 O 196.733 -1.90195 -0.151862 0
M  V30 2036 C 193.873 -3.44591 0.187379 0
M  V30 2037 C 192.986 -4.13046 1.2656 0
M  V30 2038 C 192.121 -5.27034 0.663978 0
M  V30 2039 C 191.16 -5.87353 1.72287 0
M  V30 2040 N 190.297 -6.92757 1.1416 0
M  V30 2041 H 195.137 -2.47732 1.65628 0
M  V30 2042 H 192.674 -1.21629 0.827337 0
M  V30 2043 H 194.632 -4.16904 -0.157148 0
M  V30 2044 H 193.262 -3.15527 -0.681355 0
M  V30 2045 H 192.314 -3.38924 1.72727 0
M  V30 2046 H 193.626 -4.53947 2.06721 0
M  V30 2047 H 192.78 -6.06104 0.268824 0
M  V30 2048 H 191.519 -4.87407 -0.169082 0
M  V30 2049 H 190.524 -5.06971 2.12746 0
M  V30 2050 H 191.749 -6.29051 2.55875 0
M  V30 2051 H 189.695 -6.5517 0.329984 0
M  V30 2052 H 189.612 -7.3225 1.88007 0
M  V30 2053 H 190.88 -7.75658 0.772956 0
M  V30 2054 N 195.109 -0.891671 -1.2995 0
M  V30 2055 C 196.357 -0.512486 -1.95494 0
M  V30 2056 C 196.678 0.942776 -1.70695 0
M  V30 2057 O 195.948 1.66374 -1.03424 0
M  V30 2058 H 194.528 -0.186533 -0.723336 0
M  V30 2059 H 197.19 -1.13621 -1.58355 0
M  V30 2060 H 196.286 -0.688342 -3.04415 0
M  V30 2061 N 196.587 1.43421 -0.653314 0
M  V30 2062 C 197.815 2.06163 -0.174491 0
M  V30 2063 C 198.23 1.48969 1.1599 0
M  V30 2064 O 197.587 0.621042 1.71608 0
M  V30 2065 C 197.638 3.61417 -0.0774865 0
M  V30 2066 O 197.359 4.16485 -1.35912 0
M  V30 2067 C 198.86 4.41235 0.427402 0
M  V30 2068 H 196.08 0.664946 -0.0899353 0
M  V30 2069 H 198.624 1.83924 -0.893988 0
M  V30 2070 H 196.779 3.82841 0.59257 0
M  V30 2071 H 197.193 5.10153 -1.21839 0
M  V30 2072 H 198.667 5.5021 0.44423 0
M  V30 2073 H 199.144 4.14268 1.45873 0
M  V30 2074 H 199.75 4.2478 -0.210167 0
M  V30 2075 N 198.065 0.39524 1.52563 0
M  V30 2076 C 199.29 -0.187456 2.06551 0
M  V30 2077 C 199.715 -1.39249 1.26457 0
M  V30 2078 O 199.073 -1.78947 0.291151 0
M  V30 2079 C 199.121 -0.529985 3.56684 0
M  V30 2080 O 198.225 -1.62307 3.79118 0
M  V30 2081 H 197.566 -0.0202537 0.663691 0
M  V30 2082 H 200.096 0.564426 1.96661 0
M  V30 2083 H 200.106 -0.792598 4.00227 0
M  V30 2084 H 198.781 0.350987 4.14416 0
M  V30 2085 H 197.358 -1.3537 3.47461 0
M  V30 2086 N 199.544 -1.57102 0.125237 0
M  V30 2087 C 200.792 -1.95021 -0.530198 0
M  V30 2088 C 201.113 -1.00982 -1.66816 0
M  V30 2089 O 200.383 -0.0672693 -1.95784 0
M  V30 2090 H 198.963 -0.720046 -0.198853 0
M  V30 2091 H 201.625 -1.93916 0.19564 0
M  V30 2092 H 200.721 -2.98211 -0.920681 0
M  V30 2093 N 201.022 0.148545 -1.56898 0
M  V30 2094 C 202.433 0.708766 -1.72723 0
M  V30 2095 C 202.784 1.81734 -0.739395 0
M  V30 2096 O 201.909 2.16194 0.0943169 0
M  V30 2097 C 202.504 1.29245 -3.13179 0
M  V30 2098 C 201.063 1.79925 -3.30611 0
M  V30 2099 C 200.21 0.687111 -2.68652 0
M  V30 2100 H 203.161 -0.0771063 -1.58513 0
M  V30 2101 H 203.182 2.16224 -3.13093 0
M  V30 2102 H 202.694 0.485382 -3.85053 0
M  V30 2103 H 200.795 2.63203 -2.63732 0
M  V30 2104 H 200.908 1.92903 -4.38549 0
M  V30 2105 H 199.272 1.11335 -2.29078 0
M  V30 2106 H 200.055 -0.108483 -3.43129 0
M  V30 2107 N 202.5 1.5196 0.417844 0
M  V30 2108 C 203.463 1.74065 1.49111 0
M  V30 2109 C 204.463 0.610537 1.48758 0
M  V30 2110 O 205.653 0.87832 1.50437 0
M  V30 2111 C 202.785 1.81502 2.88565 0
M  V30 2112 H 203.978 2.69869 1.30807 0
M  V30 2113 H 201.531 1.42244 0.647785 0
M  V30 2114 H 202.266 0.875813 3.1225 0
M  V30 2115 H 202.051 2.63651 2.90225 0
M  V30 2116 H 203.541 2.00376 3.66387 0
M  V30 2117 N 203.978 -0.674533 1.42435 0
M  V30 2118 C 204.941 -1.76986 1.45632 0
M  V30 2119 C 205.941 -1.5708 0.343871 0
M  V30 2120 O 207.131 -1.63367 0.604709 0
M  V30 2121 C 204.263 -3.15623 1.28822 0
M  V30 2122 H 205.456 -1.75539 2.43158 0
M  V30 2123 H 203.009 -0.884189 1.28887 0
M  V30 2124 H 203.744 -3.22696 0.322193 0
M  V30 2125 H 203.529 -3.31475 2.09444 0
M  V30 2126 H 205.019 -3.95537 1.33942 0
M  V30 2127 N 205.456 -1.28612 -0.910864 0
M  V30 2128 C 206.386 -1.15326 -2.03032 0
M  V30 2129 C 207.367 -0.0502924 -1.70026 0
M  V30 2130 O 208.552 -0.227797 -1.92859 0
M  V30 2131 C 205.682 -0.817343 -3.37545 0
M  V30 2132 C 204.636 -1.8754 -3.84724 0
M  V30 2133 C 203.962 -1.39305 -5.16235 0
M  V30 2134 C 205.262 -3.28244 -4.06267 0
M  V30 2135 H 206.956 -2.08975 -2.14406 0
M  V30 2136 H 204.502 -1.00612 -1.03021 0
M  V30 2137 H 206.455 -0.711151 -4.15356 0
M  V30 2138 H 205.179 0.154846 -3.26233 0
M  V30 2139 H 203.838 -1.97079 -3.09121 0
M  V30 2140 H 203.486 -0.409846 -5.01328 0
M  V30 2141 H 203.186 -2.10057 -5.48771 0
M  V30 2142 H 204.71 -1.30014 -5.96598 0
M  V30 2143 H 206.124 -3.21611 -4.74594 0
M  V30 2144 H 204.521 -3.96855 -4.5014 0
M  V30 2145 H 205.591 -3.72048 -3.10979 0
M  V30 2146 N 206.934 1.1197 -1.10907 0
M  V30 2147 C 207.897 2.16031 -0.765707 0
M  V30 2148 C 208.897 1.59393 0.212235 0
M  V30 2149 O 210.087 1.74196 -0.0115441 0
M  V30 2150 C 207.219 3.40632 -0.135053 0
M  V30 2151 H 208.412 2.47919 -1.68748 0
M  V30 2152 H 205.965 1.27061 -0.910226 0
M  V30 2153 H 206.7 3.14348 0.797218 0
M  V30 2154 H 206.485 3.8302 -0.838937 0
M  V30 2155 H 207.975 4.17505 0.0892469 0
M  V30 2156 N 208.412 0.89855 1.29475 0
M  V30 2157 C 209.322 0.379974 2.31502 0
M  V30 2158 C 210.338 -0.524695 1.659 0
M  V30 2159 O 211.514 -0.414551 1.97087 0
M  V30 2160 C 208.579 -0.385138 3.44554 0
M  V30 2161 C 207.64 0.550914 4.2575 0
M  V30 2162 C 206.873 -0.177778 5.33404 0
M  V30 2163 O 207.096 -1.40189 5.52904 0
M  V30 2164 O 206.03 0.479106 5.9999 0
M  V30 2165 H 209.856 1.22639 2.77837 0
M  V30 2166 H 207.441 0.662834 1.33891 0
M  V30 2167 H 209.323 -0.817841 4.13388 0
M  V30 2168 H 207.998 -1.20763 3.0033 0
M  V30 2169 H 206.905 1.03271 3.59564 0
M  V30 2170 H 208.238 1.33979 4.73614 0
M  V30 2171 N 209.89 -1.43072 0.660911 0
M  V30 2172 C 211.167 -1.95307 0.107017 0
M  V30 2173 C 211.547 -1.60192 -1.37484 0
M  V30 2174 O 210.895 -0.890949 -2.10415 0
M  V30 2175 C 211.105 -3.47124 0.361402 0
M  V30 2176 C 212.453 -4.23738 0.270455 0
M  V30 2177 O 213.477 -3.54981 0.294382 0
M  V30 2178 O 212.336 -5.46131 0.200737 0
M  V30 2179 H 209.43 -0.826984 -0.00517729 0
M  V30 2180 H 211.976 -1.52972 0.734681 0
M  V30 2181 H 210.748 -3.65837 1.38848 0
M  V30 2182 H 210.371 -3.96475 -0.298953 0
M  V30 2183 N 211.368 -0.403325 -1.52352 0
M  V30 2184 C 212.315 0.425011 -2.26853 0
M  V30 2185 C 213.285 1.04598 -1.29029 0
M  V30 2186 O 214.47 1.07135 -1.57882 0
M  V30 2187 C 211.61 1.53888 -3.08889 0
M  V30 2188 C 210.723 0.939396 -4.21663 0
M  V30 2189 C 209.858 2.02547 -4.91068 0
M  V30 2190 C 208.897 1.40263 -5.95813 0
M  V30 2191 N 208.034 2.4286 -6.58759 0
M  V30 2192 H 212.874 -0.21674 -2.97211 0
M  V30 2193 H 210.411 -0.118722 -1.4662 0
M  V30 2194 H 212.369 2.19558 -3.54753 0
M  V30 2195 H 210.999 2.15074 -2.40714 0
M  V30 2196 H 210.051 0.171898 -3.80011 0
M  V30 2197 H 211.363 0.44436 -4.96817 0
M  V30 2198 H 210.517 2.75958 -5.40308 0
M  V30 2199 H 209.256 2.55415 -4.15469 0
M  V30 2200 H 208.261 0.653833 -5.45898 0
M  V30 2201 H 209.486 0.881719 -6.73352 0
M  V30 2202 H 207.432 2.94871 -5.85992 0
M  V30 2203 H 207.349 1.98152 -7.2957 0
M  V30 2204 H 208.617 3.15858 -7.12639 0
M  V30 2205 N 212.846 1.57033 -0.133567 0
M  V30 2206 C 214.071 2.00475 0.531477 0
M  V30 2207 C 214.496 1.01291 1.58499 0
M  V30 2208 O 213.854 -0.0133279 1.81295 0
M  V30 2209 C 213.902 3.42729 1.12113 0
M  V30 2210 O 213.006 3.46498 2.23636 0
M  V30 2211 H 212.347 0.650876 0.131362 0
M  V30 2212 H 214.877 2.03344 -0.22634 0
M  V30 2213 H 214.887 3.81246 1.4531 0
M  V30 2214 H 213.562 4.14428 0.349557 0
M  V30 2215 H 212.139 3.19811 1.91769 0
M  V30 2216 N 214.325 -0.140222 1.56975 0
M  V30 2217 C 215.235 -1.19223 2.02047 0
M  V30 2218 C 216.251 -1.46612 0.937062 0
M  V30 2219 O 217.427 -1.58148 1.24704 0
M  V30 2220 C 214.492 -2.50414 2.39778 0
M  V30 2221 C 213.553 -2.30612 3.621 0
M  V30 2222 C 212.786 -3.55547 3.98023 0
M  V30 2223 O 213.009 -4.62004 3.34528 0
M  V30 2224 O 211.943 -3.47808 4.91237 0
M  V30 2225 H 215.769 -0.839559 2.91865 0
M  V30 2226 H 213.354 -0.349453 1.45256 0
M  V30 2227 H 215.236 -3.27747 2.64877 0
M  V30 2228 H 213.911 -2.85198 1.53114 0
M  V30 2229 H 212.818 -1.51207 3.4218 0
M  V30 2230 H 214.151 -2.00741 4.49404 0
M  V30 2231 N 215.803 -1.52179 -0.40978 0
M  V30 2232 C 216.766 -1.74853 -1.48186 0
M  V30 2233 C 217.766 -0.618417 -1.48433 0
M  V30 2234 O 218.956 -0.886286 -1.49969 0
M  V30 2235 C 216.088 -1.8303 -2.87598 0
M  V30 2236 H 217.281 -2.70559 -1.29374 0
M  V30 2237 H 214.834 -1.42586 -0.640233 0
M  V30 2238 H 215.569 -0.89236 -3.11781 0
M  V30 2239 H 215.354 -2.65187 -2.88822 0
M  V30 2240 H 216.844 -2.02316 -3.65319 0
M  V30 2241 N 217.281 0.66697 -1.42791 0
M  V30 2242 C 218.213 1.7925 -1.42836 0
M  V30 2243 C 219.226 1.59496 -0.326333 0
M  V30 2244 O 220.415 1.6847 -0.589916 0
M  V30 2245 C 217.515 3.16476 -1.21229 0
M  V30 2246 C 216.688 3.63011 -2.44013 0
M  V30 2247 C 215.747 4.78993 -2.17834 0
M  V30 2248 O 214.773 4.89137 -2.91091 0
M  V30 2249 N 215.975 5.68248 -1.18635 0
M  V30 2250 H 218.74 1.79695 -2.39854 0
M  V30 2251 H 216.301 0.850338 -1.37771 0
M  V30 2252 H 218.293 3.91734 -1.01621 0
M  V30 2253 H 216.863 3.10884 -0.32706 0
M  V30 2254 H 216.083 2.78346 -2.79137 0
M  V30 2255 H 217.371 3.90845 -3.25757 0
M  V30 2256 H 216.769 5.62712 -0.580615 0
M  V30 2257 H 215.326 6.43285 -1.05013 0
M  V30 2258 N 218.759 1.29093 0.90403 0
M  V30 2259 C 220.007 1.16583 1.65085 0
M  V30 2260 C 220.328 -0.283933 1.92922 0
M  V30 2261 O 219.598 -1.19509 1.55224 0
M  V30 2262 H 218.178 0.428467 0.611903 0
M  V30 2263 H 220.84 1.61959 1.08422 0
M  V30 2264 H 219.936 1.71266 2.6091 0
M  V30 2265 N 220.237 -1.11381 1.11499 0
M  V30 2266 C 221.648 -1.6465 0.880191 0
M  V30 2267 C 221.999 -1.87199 -0.587434 0
M  V30 2268 O 221.124 -1.60667 -1.44966 0
M  V30 2269 C 221.719 -2.99105 1.59128 0
M  V30 2270 C 220.278 -3.49279 1.40289 0
M  V30 2271 C 219.425 -2.24077 1.63354 0
M  V30 2272 H 222.376 -0.950123 1.27116 0
M  V30 2273 H 222.397 -3.66107 1.03664 0
M  V30 2274 H 221.909 -2.82661 2.65941 0
M  V30 2275 H 220.01 -3.70887 0.356888 0
M  V30 2276 H 220.123 -4.2803 2.15238 0
M  V30 2277 H 218.487 -2.31733 1.05698 0
M  V30 2278 H 219.27 -2.10175 2.71443 0
M  V30 2279 N 221.715 -0.905404 -1.28997 0
M  V30 2280 C 222.961 -0.535039 -1.95615 0
M  V30 2281 C 223.294 0.917404 -1.71165 0
M  V30 2282 O 222.569 1.65123 -1.02785 0
M  V30 2283 C 222.852 -0.834918 -3.50287 0
M  V30 2284 C 222.705 -2.33948 -3.84172 0
M  V30 2285 C 224.024 -0.325318 -4.38896 0
M  V30 2286 H 221.143 -0.195861 -0.710498 0
M  V30 2287 H 223.785 -1.13313 -1.52513 0
M  V30 2288 H 221.935 -0.325904 -3.87131 0
M  V30 2289 H 223.607 -2.91847 -3.57243 0
M  V30 2290 H 221.85 -2.79789 -3.31513 0
M  V30 2291 H 222.521 -2.49987 -4.92149 0
M  V30 2292 H 224.997 -0.761256 -4.09077 0
M  V30 2293 H 223.873 -0.564295 -5.45992 0
M  V30 2294 H 224.134 0.774144 -4.35269 0
M  V30 2295 N 223.193 1.4272 -0.668489 0
M  V30 2296 C 224.125 2.2914 0.052613 0
M  V30 2297 C 225.138 1.43339 0.771857 0
M  V30 2298 O 226.327 1.67123 0.627067 0
M  V30 2299 C 223.427 3.20618 1.09804 0
M  V30 2300 C 222.6 4.35039 0.45389 0
M  V30 2301 C 221.659 5.07282 1.39825 0
M  V30 2302 O 220.685 5.62024 0.900978 0
M  V30 2303 N 221.887 5.12206 2.73176 0
M  V30 2304 H 224.652 2.91668 -0.689209 0
M  V30 2305 H 222.213 1.53577 -0.512422 0
M  V30 2306 H 224.205 3.65815 1.73094 0
M  V30 2307 H 222.775 2.59585 1.74167 0
M  V30 2308 H 221.995 3.92567 -0.358396 0
M  V30 2309 H 223.283 5.088 0.00486972 0
M  V30 2310 H 222.681 4.6913 3.16122 0
M  V30 2311 H 221.238 5.61069 3.31729 0
M  V30 2312 N 224.671 0.411399 1.52136 0
M  V30 2313 C 225.92 -0.165009 2.01024 0
M  V30 2314 C 226.233 -1.4603 1.30133 0
M  V30 2315 O 227.439 -2.1181 1.69849 0
M  V30 2316 C 225.895 -0.344618 3.58246 0
M  V30 2317 C 225.503 0.938716 4.38055 0
M  V30 2318 C 227.247 -0.876195 4.15359 0
M  V30 2319 C 225.154 0.726172 5.86925 0
M  V30 2320 H 224.084 -0.0654407 0.751155 0
M  V30 2321 H 226.735 0.537192 1.75461 0
M  V30 2322 H 225.117 -1.10921 3.80148 0
M  V30 2323 H 226.291 1.70963 4.27912 0
M  V30 2324 H 224.606 1.39688 3.92271 0
M  V30 2325 H 227.203 -1.05128 5.24263 0
M  V30 2326 H 227.546 -1.85152 3.7286 0
M  V30 2327 H 228.079 -0.170607 3.97434 0
M  V30 2328 H 224.818 1.67312 6.33788 0
M  V30 2329 H 224.338 -0.00540283 5.998 0
M  V30 2330 H 226.017 0.369231 6.45946 0
M  V30 2331 N 226.149 -1.5696 0.141893 0
M  V30 2332 C 227.079 -2.19516 -0.795936 0
M  V30 2333 C 228.06 -1.14187 -1.26077 0
M  V30 2334 O 229.245 -1.42511 -1.31925 0
M  V30 2335 C 226.375 -2.81272 -2.03723 0
M  V30 2336 C 225.329 -3.92384 -1.70936 0
M  V30 2337 C 224.655 -4.41052 -3.02287 0
M  V30 2338 C 225.955 -5.13403 -0.959954 0
M  V30 2339 H 227.649 -2.98138 -0.274596 0
M  V30 2340 H 225.195 -1.43406 -0.130636 0
M  V30 2341 H 227.148 -3.237 -2.69808 0
M  V30 2342 H 225.872 -1.99973 -2.58221 0
M  V30 2343 H 224.531 -3.50566 -1.07232 0
M  V30 2344 H 224.179 -3.56582 -3.54765 0
M  V30 2345 H 223.879 -5.15993 -2.81114 0
M  V30 2346 H 225.403 -4.86146 -3.69451 0
M  V30 2347 H 226.817 -5.52706 -1.52279 0
M  V30 2348 H 225.214 -5.94073 -0.848357 0
M  V30 2349 H 226.284 -4.84875 0.0492434 0
M  V30 2350 N 227.627 0.131896 -1.57047 0
M  V30 2351 C 228.855 0.856461 -1.88341 0
M  V30 2352 C 229.27 1.74042 -0.731757 0
M  V30 2353 O 228.627 1.80051 0.297945 0
M  V30 2354 C 228.678 1.70064 -3.18999 0
M  V30 2355 O 228.399 0.852278 -4.2973 0
M  V30 2356 C 229.9 2.53148 -3.63911 0
M  V30 2357 H 227.12 0.246885 -0.62393 0
M  V30 2358 H 229.664 0.120152 -2.04147 0
M  V30 2359 H 227.819 2.38984 -3.04902 0
M  V30 2360 H 228.233 1.43329 -5.04537 0
M  V30 2361 H 229.707 3.07931 -4.58129 0
M  V30 2362 H 230.184 3.29901 -2.89935 0
M  V30 2363 H 230.79 1.89492 -3.80753 0
M  V30 2364 N 229.106 1.52395 0.401703 0
M  V30 2365 C 230.352 1.67065 1.14966 0
M  V30 2366 C 230.685 0.403052 1.89971 0
M  V30 2367 O 229.96 -0.598774 1.85054 0
M  V30 2368 C 230.243 2.8975 2.13815 0
M  V30 2369 C 230.096 4.26578 1.42658 0
M  V30 2370 C 231.415 3.07965 3.14397 0
M  V30 2371 H 228.534 0.607968 0.416587 0
M  V30 2372 H 231.176 1.84965 0.434511 0
M  V30 2373 H 229.326 2.74619 2.74803 0
M  V30 2374 H 230.998 4.53451 0.847329 0
M  V30 2375 H 229.241 4.27639 0.72849 0
M  V30 2376 H 229.912 5.08483 2.14823 0
M  V30 2377 H 232.388 3.22043 2.63491 0
M  V30 2378 H 231.264 3.95308 3.80819 0
M  V30 2379 H 231.525 2.21611 3.82545 0
M  V30 2380 N 230.584 -0.659388 1.43143 0
M  V30 2381 C 231.832 -1.41654 1.44147 0
M  V30 2382 C 232.153 -1.94893 0.0645739 0
M  V30 2383 O 231.423 -1.74044 -0.899198 0
M  V30 2384 H 230.003 -0.525708 0.530697 0
M  V30 2385 H 232.665 -0.778097 1.78694 0
M  V30 2386 H 231.761 -2.26195 2.1504 0
M  V30 2387 N 232.062 -1.29571 -0.897171 0
M  V30 2388 C 232.994 -1.10724 -2.00681 0
M  V30 2389 C 234.007 -0.0540026 -1.6271 0
M  V30 2390 O 235.196 -0.298783 -1.75982 0
M  V30 2391 C 232.296 -0.663912 -3.32333 0
M  V30 2392 C 231.469 -1.79622 -3.98816 0
M  V30 2393 C 230.528 -1.34349 -5.0876 0
M  V30 2394 O 229.554 -2.04864 -5.31055 0
M  V30 2395 N 230.756 -0.215764 -5.80099 0
M  V30 2396 H 233.521 -2.06291 -2.17403 0
M  V30 2397 H 231.082 -1.21544 -1.06951 0
M  V30 2398 H 233.074 -0.344295 -4.03233 0
M  V30 2399 H 231.644 0.199375 -3.11964 0
M  V30 2400 H 230.864 -2.28459 -3.21248 0
M  V30 2401 H 232.152 -2.55535 -4.39976 0
M  V30 2402 H 231.55 0.372091 -5.64475 0
M  V30 2403 H 230.107 0.0444707 -6.51785 0
M  V30 2404 N 233.54 1.10788 -1.12088 0
M  V30 2405 C 234.765 1.87002 -0.896949 0
M  V30 2406 C 235.19 1.79933 0.548261 0
M  V30 2407 O 234.548 1.16662 1.38779 0
M  V30 2408 C 234.596 3.3349 -1.37174 0
M  V30 2409 O 233.7 4.08745 -0.547831 0
M  V30 2410 H 233.041 0.580397 -0.322545 0
M  V30 2411 H 235.571 1.39996 -1.49206 0
M  V30 2412 H 235.581 3.84339 -1.36922 0
M  V30 2413 H 234.256 3.37951 -2.42408 0
M  V30 2414 H 232.833 3.6776 -0.617034 0
M  V30 2415 N 235.018 0.912232 1.28515 0
M  V30 2416 C 236.295 0.463597 1.90027 0
M  V30 2417 C 236.675 -1.05753 1.82701 0
M  V30 2418 O 236.023 -1.90492 1.26194 0
M  V30 2419 C 236.233 0.992253 3.34597 0
M  V30 2420 C 237.581 1.04344 4.11579 0
M  V30 2421 O 238.605 0.94079 3.43551 0
M  V30 2422 O 237.464 1.1995 5.33174 0
M  V30 2423 H 234.558 0.146666 0.813891 0
M  V30 2424 H 237.104 1.00292 1.36893 0
M  V30 2425 H 235.876 2.03623 3.34146 0
M  V30 2426 H 235.499 0.433672 3.95228 0
M  V30 2427 N 236.496 -1.42363 0.676048 0
M  V30 2428 C 237.446 -2.27987 -0.0242903 0
M  V30 2429 C 238.43 -1.41153 -0.772319 0
M  V30 2430 O 239.622 -1.64592 -0.651025 0
M  V30 2431 C 236.751 -3.29195 -0.973953 0
M  V30 2432 C 235.837 -4.23512 -0.223202 0
M  V30 2433 N 236.228 -4.99865 0.772589 0
M  V30 2434 C 234.526 -4.43606 -0.461469 0
M  V30 2435 C 235.227 -5.68757 1.22027 0
M  V30 2436 N 234.203 -5.40811 0.549975 0
M  V30 2437 H 238.005 -2.84445 0.73949 0
M  V30 2438 H 235.519 -1.54341 0.50522 0
M  V30 2439 H 237.516 -3.89339 -1.49067 0
M  V30 2440 H 236.176 -2.74298 -1.73755 0
M  V30 2441 H 237.187 -5.04921 1.15217 0
M  V30 2442 H 233.864 -3.99749 -1.20446 0
M  V30 2443 H 235.254 -6.40007 2.0455 0
M  V30 2444 N 237.974 -0.419461 -1.51915 0
M  V30 2445 C 238.937 0.389116 -2.25873 0
M  V30 2446 C 239.937 0.964924 -1.28631 0
M  V30 2447 O 241.127 0.842179 -1.52489 0
M  V30 2448 C 238.259 1.54874 -3.03689 0
M  V30 2449 H 239.452 -0.258799 -2.98781 0
M  V30 2450 H 237.005 -0.172209 -1.55348 0
M  V30 2451 H 237.74 2.23323 -2.35154 0
M  V30 2452 H 237.525 1.14223 -3.75094 0
M  V30 2453 H 239.015 2.12046 -3.59759 0
M  V30 2454 N 239.452 1.56882 -0.150215 0
M  V30 2455 C 240.384 2.14057 0.819286 0
M  V30 2456 C 241.397 1.09082 1.20851 0
M  V30 2457 O 242.586 1.36347 1.15203 0
M  V30 2458 C 239.686 2.65102 2.11127 0
M  V30 2459 C 238.859 3.94511 1.88891 0
M  V30 2460 C 237.918 4.30834 3.02107 0
M  V30 2461 O 236.944 4.99099 2.73659 0
M  V30 2462 N 238.146 3.90676 4.29363 0
M  V30 2463 H 240.911 2.97871 0.330618 0
M  V30 2464 H 238.472 1.61866 0.0332538 0
M  V30 2465 H 240.464 2.86411 2.85921 0
M  V30 2466 H 239.034 1.85994 2.51247 0
M  V30 2467 H 238.254 3.81795 0.981152 0
M  V30 2468 H 239.542 4.7907 1.71376 0
M  V30 2469 H 238.94 3.35677 4.55343 0
M  V30 2470 H 237.497 4.1703 5.00928 0
M  V30 2471 N 240.93 -0.123565 1.57115 0
M  V30 2472 C 242.207 -0.862196 1.75572 0
M  V30 2473 C 242.587 -1.98279 0.724475 0
M  V30 2474 O 241.935 -2.27102 -0.252407 0
M  V30 2475 C 242.145 -1.38309 3.20424 0
M  V30 2476 C 243.493 -1.83724 3.82793 0
M  V30 2477 O 244.517 -1.47999 3.23998 0
M  V30 2478 O 243.376 -2.49685 4.86127 0
M  V30 2479 H 240.47 -0.409113 0.718718 0
M  V30 2480 H 243.016 -0.107661 1.69358 0
M  V30 2481 H 241.788 -0.578889 3.86994 0
M  V30 2482 H 241.411 -2.20046 3.31158 0
M  V30 2483 N 242.408 -1.52605 -0.393616 0
M  V30 2484 C 243.371 -1.76415 -1.46323 0
M  V30 2485 C 244.371 -0.634126 -1.47768 0
M  V30 2486 O 245.561 -0.902142 -1.4902 0
M  V30 2487 C 242.693 -1.8607 -2.85641 0
M  V30 2488 H 243.886 -2.71916 -1.26498 0
M  V30 2489 H 241.439 -1.43257 -0.625073 0
M  V30 2490 H 242.174 -0.925378 -3.10817 0
M  V30 2491 H 241.959 -2.68235 -2.85993 0
M  V30 2492 H 243.449 -2.06179 -3.63153 0
M  V30 2493 N 243.887 0.651787 -1.4349 0
M  V30 2494 C 245.135 1.40888 -1.44897 0
M  V30 2495 C 245.456 1.94856 -0.0749086 0
M  V30 2496 O 244.726 1.74518 0.889956 0
M  V30 2497 H 243.306 0.522887 -0.533478 0
M  V30 2498 H 245.968 0.768609 -1.79104 0
M  V30 2499 H 245.064 2.25052 -2.16236 0
M  V30 2500 N 245.365 1.30045 0.890287 0
M  V30 2501 C 246.275 1.17885 2.02831 0
M  V30 2502 C 247.291 0.0999609 1.73713 0
M  V30 2503 O 248.467 0.313867 1.98939 0
M  V30 2504 C 245.532 0.866079 3.35708 0
M  V30 2505 C 244.593 2.02979 3.78283 0
M  V30 2506 C 243.826 1.73184 5.0482 0
M  V30 2507 O 244.049 0.657237 5.66601 0
M  V30 2508 O 242.983 2.58267 5.43674 0
M  V30 2509 H 246.809 2.13474 2.16015 0
M  V30 2510 H 244.394 1.09587 1.01543 0
M  V30 2511 H 246.276 0.706623 4.15433 0
M  V30 2512 H 244.951 -0.0599443 3.23644 0
M  V30 2513 H 243.858 2.24454 2.99285 0
M  V30 2514 H 245.191 2.93734 3.94944 0
M  V30 2515 N 246.843 -1.10192 1.12674 0
M  V30 2516 C 248.071 -1.85983 0.906527 0
M  V30 2517 C 248.486 -1.80783 -0.544333 0
M  V30 2518 O 247.843 -1.19834 -1.37645 0
M  V30 2519 C 247.894 -3.34281 1.37618 0
M  V30 2520 O 247.615 -3.39401 2.77017 0
M  V30 2521 C 249.116 -4.26938 1.19325 0
M  V30 2522 H 246.336 -0.587716 0.323775 0
M  V30 2523 H 248.88 -1.39284 1.49734 0
M  V30 2524 H 247.035 -3.78436 0.828539 0
M  V30 2525 H 247.449 -4.31838 2.97684 0
M  V30 2526 H 248.923 -5.29181 1.57071 0
M  V30 2527 H 249.4 -4.38995 0.134097 0
M  V30 2528 H 250.006 -3.8859 1.72852 0
M  V30 2529 N 248.321 -0.919034 -1.28029 0
M  V30 2530 C 249.284 -0.416182 -2.2539 0
M  V30 2531 C 250.284 0.460438 -1.54067 0
M  V30 2532 O 251.474 0.262744 -1.72207 0
M  V30 2533 C 248.606 0.402707 -3.38513 0
M  V30 2534 H 249.799 -1.27629 -2.71387 0
M  V30 2535 H 247.352 -0.698919 -1.39803 0
M  V30 2536 H 248.087 1.282 -2.97885 0
M  V30 2537 H 247.872 -0.225698 -3.9145 0
M  V30 2538 H 249.362 0.745191 -4.10897 0
M  V30 2539 N 249.799 1.42003 -0.683588 0
M  V30 2540 C 250.762 2.29191 -0.0198243 0
M  V30 2541 C 251.762 1.43773 0.72013 0
M  V30 2542 O 252.952 1.65061 0.556815 0
M  V30 2543 C 250.084 3.26435 0.982487 0
M  V30 2544 H 251.277 2.8938 -0.787345 0
M  V30 2545 H 248.83 1.49789 -0.446418 0
M  V30 2546 H 249.565 2.71203 1.77819 0
M  V30 2547 H 249.35 3.89449 0.455182 0
M  V30 2548 H 250.84 3.918 1.44508 0
M  V30 2549 N 251.277 0.427512 1.51691 0
M  V30 2550 C 252.525 -0.141948 2.01601 0
M  V30 2551 C 252.846 -1.44067 1.31414 0
M  V30 2552 O 252.116 -1.90763 0.445658 0
M  V30 2553 H 250.696 -0.0554468 0.744939 0
M  V30 2554 H 253.358 0.567968 1.86441 0
M  V30 2555 H 252.454 -0.324913 3.10404 0
M  V30 2556 N 252.755 -1.56801 0.158532 0
M  V30 2557 C 254.003 -1.96102 -0.488712 0
M  V30 2558 C 254.324 -1.04498 -1.64636 0
M  V30 2559 O 253.594 -0.108783 -1.95598 0
M  V30 2560 H 252.174 -0.724102 -0.183535 0
M  V30 2561 H 254.836 -1.93457 0.236728 0
M  V30 2562 H 253.932 -3.00097 -0.857219 0
M  V30 2563 N 254.233 0.115231 -1.57178 0
M  V30 2564 C 255.481 0.820727 -1.84685 0
M  V30 2565 C 255.802 1.80237 -0.744279 0
M  V30 2566 O 255.072 1.94529 0.231375 0
M  V30 2567 H 253.652 0.306084 -0.681411 0
M  V30 2568 H 256.314 0.101656 -1.94635 0
M  V30 2569 H 255.41 1.36366 -2.80733 0
M  V30 2570 N 255.711 1.52812 0.385517 0
M  V30 2571 C 256.621 1.80766 1.49535 0
M  V30 2572 C 257.637 0.694651 1.59532 0
M  V30 2573 O 258.813 0.982611 1.75803 0
M  V30 2574 C 255.878 1.97381 2.85029 0
M  V30 2575 C 254.939 3.21295 2.84724 0
M  V30 2576 C 254.172 3.37108 4.13756 0
M  V30 2577 O 254.395 2.5765 5.08893 0
M  V30 2578 O 253.329 4.30378 4.20783 0
M  V30 2579 H 257.155 2.75015 1.28842 0
M  V30 2580 H 254.74 1.37946 0.573697 0
M  V30 2581 H 256.622 2.09996 3.65349 0
M  V30 2582 H 255.297 1.06322 3.05741 0
M  V30 2583 H 254.204 3.1412 2.03174 0
M  V30 2584 H 255.537 4.12212 2.68965 0
M  V30 2585 N 257.189 -0.644168 1.43834 0
M  V30 2586 C 258.605 -0.960875 1.27434 0
M  V30 2587 C 258.805 -2.00499 0.200618 0
M  V30 2588 O 257.861 -2.49018 -0.417906 0
M  V30 2589 C 259.174 -1.43653 2.64167 0
M  V30 2590 C 260.722 -1.55271 2.71772 0
M  V30 2591 C 261.197 -2.06224 4.08944 0
M  V30 2592 N 262.688 -2.13513 4.11055 0
M  V30 2593 C 263.423 -2.54081 5.14033 0
M  V30 2594 N 262.919 -2.9388 6.27381 0
M  V30 2595 N 264.712 -2.54101 5.01387 0
M  V30 2596 H 256.863 0.0465779 2.12349 0
M  V30 2597 H 259.126 -0.0417638 0.94708 0
M  V30 2598 H 258.832 -0.743706 3.43747 0
M  V30 2599 H 258.706 -2.40993 2.90176 0
M  V30 2600 H 261.093 -2.23653 1.92519 0
M  V30 2601 H 261.174 -0.563395 2.49519 0
M  V30 2602 H 260.818 -1.38441 4.88668 0
M  V30 2603 H 260.748 -3.06003 4.28567 0
M  V30 2604 H 263.239 -1.85493 3.29242 0
M  V30 2605 H 263.552 -3.2361 7.01781 0
M  V30 2606 H 261.897 -2.91663 6.30839 0
M  V30 2607 H 265.088 -2.22391 4.11898 0
M  V30 2608 H 265.261 -2.85394 5.81768 0
M  V30 2609 N 258.668 -1.30515 -0.883378 0
M  V30 2610 C 260.079 -1.17509 -1.45081 0
M  V30 2611 C 260.43 0.223605 -1.94922 0
M  V30 2612 O 259.555 1.12041 -1.85137 0
M  V30 2613 C 260.15 -2.12715 -2.63701 0
M  V30 2614 C 258.709 -2.03682 -3.16529 0
M  V30 2615 C 257.856 -2.02706 -1.89224 0
M  V30 2616 H 260.807 -1.42762 -0.693165 0
M  V30 2617 H 260.828 -1.70891 -3.39965 0
M  V30 2618 H 260.34 -3.14505 -2.27395 0
M  V30 2619 H 258.441 -1.05039 -3.57488 0
M  V30 2620 H 258.554 -2.92146 -3.7972 0
M  V30 2621 H 256.918 -1.4753 -2.07622 0
M  V30 2622 H 257.701 -3.06229 -1.55174 0
M  V30 2623 N 260.146 1.09593 -1.13257 0
M  V30 2624 C 261.371 1.8604 -0.916732 0
M  V30 2625 C 261.796 1.80504 0.529146 0
M  V30 2626 O 261.154 1.18127 1.37534 0
M  V30 2627 C 261.202 3.32017 -1.40703 0
M  V30 2628 O 260.306 4.08141 -0.591153 0
M  V30 2629 H 259.647 0.576943 -0.328683 0
M  V30 2630 H 262.177 1.38405 -1.50682 0
M  V30 2631 H 262.187 3.82865 -1.4099 0
M  V30 2632 H 260.862 3.35361 -2.45979 0
M  V30 2633 H 259.439 3.67084 -0.656005 0
M  V30 2634 N 261.624 0.925811 1.2754 0
M  V30 2635 C 262.872 0.564138 1.94067 0
M  V30 2636 C 263.193 -0.897188 1.73134 0
M  V30 2637 O 262.463 -1.63573 1.07799 0
M  V30 2638 H 261.043 0.205645 0.718136 0
M  V30 2639 H 263.705 1.1778 1.55287 0
M  V30 2640 H 262.801 0.76881 3.02483 0
M  V30 2641 N 263.102 -1.41638 0.69111 0
M  V30 2642 C 264.034 -2.29194 -0.0161523 0
M  V30 2643 C 265.047 -1.44549 -0.748955 0
M  V30 2644 O 266.236 -1.681 -0.6004 0
M  V30 2645 C 263.336 -3.22325 -1.0469 0
M  V30 2646 C 262.509 -4.35706 -0.384621 0
M  V30 2647 C 261.568 -5.09443 -1.31737 0
M  V30 2648 O 260.594 -5.63386 -0.811451 0
M  V30 2649 N 261.796 -5.16487 -2.64993 0
M  V30 2650 H 264.561 -2.90534 0.735523 0
M  V30 2651 H 262.122 -1.52742 0.53679 0
M  V30 2652 H 264.114 -3.68522 -1.67252 0
M  V30 2653 H 262.684 -2.62323 -1.70015 0
M  V30 2654 H 261.904 -3.91948 0.420804 0
M  V30 2655 H 263.192 -5.08743 0.0760765 0
M  V30 2656 H 262.59 -4.741 -3.08619 0
M  V30 2657 H 261.147 -5.66276 -3.22761 0
M  V30 2658 N 264.58 -0.43555 -1.51462 0
M  V30 2659 C 265.857 0.191364 -1.94662 0
M  V30 2660 C 266.237 1.60254 -1.37411 0
M  V30 2661 O 265.585 2.2152 -0.560458 0
M  V30 2662 C 265.795 0.17091 -3.48581 0
M  V30 2663 C 267.143 0.377357 -4.2292 0
M  V30 2664 O 268.167 0.249104 -3.55328 0
M  V30 2665 O 267.026 0.63247 -5.42828 0
M  V30 2666 H 264.12 0.130932 -0.816569 0
M  V30 2667 H 266.666 -0.4934 -1.62369 0
M  V30 2668 H 265.438 -0.815738 -3.82703 0
M  V30 2669 H 265.061 0.898659 -3.87311 0
M  V30 2670 N 266.058 1.56714 -0.166846 0
M  V30 2671 C 266.988 2.20754 0.760913 0
M  V30 2672 C 267.969 1.16178 1.24244 0
M  V30 2673 O 269.154 1.44592 1.29641 0
M  V30 2674 C 266.284 2.84478 1.99223 0
M  V30 2675 C 265.238 3.95053 1.64672 0
M  V30 2676 C 264.564 4.45805 2.95232 0
M  V30 2677 C 265.864 5.14865 0.878155 0
M  V30 2678 H 267.558 2.98537 0.22713 0
M  V30 2679 H 265.104 1.43596 0.107805 0
M  V30 2680 H 267.057 3.27951 2.64624 0
M  V30 2681 H 265.781 2.04056 2.55007 0
M  V30 2682 H 264.44 3.52228 1.01641 0
M  V30 2683 H 264.088 3.62181 3.49047 0
M  V30 2684 H 263.788 5.204 2.7287 0
M  V30 2685 H 265.312 4.91962 3.6167 0
M  V30 2686 H 266.726 5.55059 1.43466 0
M  V30 2687 H 265.123 5.95348 0.753738 0
M  V30 2688 H 266.193 4.84735 -0.126377 0
M  V30 2689 N 267.536 -0.106894 1.57237 0
M  V30 2690 C 268.952 -0.46078 1.52804 0
M  V30 2691 C 269.152 -1.81184 0.881746 0
M  V30 2692 O 268.208 -2.48102 0.469224 0
M  V30 2693 C 269.521 -0.434127 2.9755 0
M  V30 2694 C 271.069 -0.516821 3.08704 0
M  V30 2695 C 271.544 -0.520436 4.55033 0
M  V30 2696 N 273.035 -0.58153 4.59535 0
M  V30 2697 C 273.77 -0.605973 5.70189 0
M  V30 2698 N 273.266 -0.587331 6.90306 0
M  V30 2699 N 275.059 -0.649895 5.5833 0
M  V30 2700 H 267.21 0.778203 1.9763 0
M  V30 2701 H 269.473 0.288403 0.903066 0
M  V30 2702 H 269.179 0.491197 3.48253 0
M  V30 2703 H 269.053 -1.25748 3.55622 0
M  V30 2704 H 271.44 -1.43256 2.57995 0
M  V30 2705 H 271.521 0.334449 2.53604 0
M  V30 2706 H 271.165 0.391313 5.0639 0
M  V30 2707 H 271.095 -1.38876 5.07958 0
M  V30 2708 H 273.586 -0.60161 3.73081 0
M  V30 2709 H 273.899 -0.60894 7.70397 0
M  V30 2710 H 272.244 -0.554564 6.92784 0
M  V30 2711 H 275.435 -0.661907 4.63397 0
M  V30 2712 H 275.608 -0.665476 6.44574 0
M  V30 2713 N 269.014 -1.53014 -0.377408 0
M  V30 2714 C 269.977 -1.77957 -1.44444 0
M  V30 2715 C 270.977 -0.649763 -1.47087 0
M  V30 2716 O 272.167 -0.917897 -1.48055 0
M  V30 2717 C 269.299 -1.89089 -2.83651 0
M  V30 2718 H 270.492 -2.73243 -1.23606 0
M  V30 2719 H 268.045 -1.43912 -0.609844 0
M  V30 2720 H 268.78 -0.958293 -3.09818 0
M  V30 2721 H 268.565 -2.71254 -2.83132 0
M  V30 2722 H 270.055 -2.1002 -3.60945 0
M  V30 2723 N 270.492 0.636531 -1.44174 0
M  V30 2724 C 271.72 1.42353 -1.50144 0
M  V30 2725 C 272.135 1.88389 -0.124575 0
M  V30 2726 O 271.492 1.6051 0.868489 0
M  V30 2727 C 271.543 2.64744 -2.46156 0
M  V30 2728 O 271.264 2.20629 -3.7849 0
M  V30 2729 C 272.765 3.57929 -2.61537 0
M  V30 2730 H 269.985 0.436752 -0.5094 0
M  V30 2731 H 272.529 0.778933 -1.89084 0
M  V30 2732 H 270.684 3.25307 -2.10366 0
M  V30 2733 H 271.098 2.99938 -4.30276 0
M  V30 2734 H 272.572 4.40428 -3.32757 0
M  V30 2735 H 273.049 4.06382 -1.66585 0
M  V30 2736 H 273.655 3.03238 -2.98206 0
M  V30 2737 N 271.97 1.30982 0.876444 0
M  V30 2738 C 272.903 1.12414 1.98591 0
M  V30 2739 C 273.881 0.0294078 1.62573 0
M  V30 2740 O 275.065 0.184598 1.87594 0
M  V30 2741 C 272.192 0.716276 3.3104 0
M  V30 2742 C 271.238 1.81311 3.86042 0
M  V30 2743 S 272.071 3.41727 4.1229 0
M  V30 2744 C 273.227 3.02863 5.47745 0
M  V30 2745 H 273.46 2.06338 2.14037 0
M  V30 2746 H 270.993 1.15393 1.02586 0
M  V30 2747 H 272.951 0.487697 4.07593 0
M  V30 2748 H 271.612 -0.203749 3.13438 0
M  V30 2749 H 270.805 1.48021 4.81774 0
M  V30 2750 H 270.407 1.99641 3.16259 0
M  V30 2751 H 272.699 2.51353 6.29148 0
M  V30 2752 H 273.642 3.97533 5.8598 0
M  V30 2753 H 274.05 2.40487 5.10711 0
M  V30 2754 N 273.449 -1.08991 1.13837 0
M  V30 2755 C 274.381 -2.15606 0.777612 0
M  V30 2756 C 275.394 -1.61533 -0.202739 0
M  V30 2757 O 276.583 -1.78491 0.0181055 0
M  V30 2758 C 273.683 -3.3864 0.132623 0
M  V30 2759 C 272.856 -4.22115 1.1462 0
M  V30 2760 C 271.915 -5.23564 0.526074 0
M  V30 2761 O 270.941 -5.56678 1.18735 0
M  V30 2762 N 272.143 -5.76266 -0.699866 0
M  V30 2763 H 274.908 -2.47159 1.69506 0
M  V30 2764 H 272.469 -1.24747 1.03198 0
M  V30 2765 H 274.461 -4.03626 -0.29459 0
M  V30 2766 H 273.031 -3.04938 -0.687849 0
M  V30 2767 H 272.251 -3.53199 1.75055 0
M  V30 2768 H 273.539 -4.74709 1.83109 0
M  V30 2769 H 272.937 -5.51585 -1.25581 0
M  V30 2770 H 271.494 -6.42963 -1.06968 0
M  V30 2771 N 274.927 -0.932562 -1.27047 0
M  V30 2772 C 276.343 -0.633544 -1.46487 0
M  V30 2773 C 276.543 0.815746 -1.84249 0
M  V30 2774 O 275.599 1.59319 -1.95892 0
M  V30 2775 C 276.912 -1.58758 -2.55375 0
M  V30 2776 C 278.46 -1.59634 -2.69232 0
M  V30 2777 C 278.935 -2.53747 -3.81283 0
M  V30 2778 N 280.426 -2.51982 -3.88664 0
M  V30 2779 C 281.161 -3.21491 -4.74796 0
M  V30 2780 N 280.657 -4.00395 -5.65381 0
M  V30 2781 N 282.45 -3.10485 -4.68568 0
M  V30 2782 H 274.601 -1.86946 -1.00821 0
M  V30 2783 H 276.864 -0.802897 -0.504044 0
M  V30 2784 H 276.57 -2.62172 -2.34432 0
M  V30 2785 H 276.444 -1.33301 -3.52861 0
M  V30 2786 H 278.831 -0.569488 -2.89553 0
M  V30 2787 H 278.912 -1.89142 -1.72218 0
M  V30 2788 H 278.556 -3.56545 -3.61715 0
M  V30 2789 H 278.486 -2.21532 -4.77735 0
M  V30 2790 H 280.977 -1.94681 -3.23895 0
M  V30 2791 H 281.29 -4.50406 -6.27976 0
M  V30 2792 H 279.635 -4.04498 -5.65161 0
M  V30 2793 H 282.826 -2.48331 -3.96799 0
M  V30 2794 H 282.999 -3.64925 -5.35475 0
M  V30 2795 N 276.405 1.4127 -0.698611 0
M  V30 2796 C 277.352 2.30773 -0.0352094 0
M  V30 2797 C 278.322 1.47273 0.768111 0
M  V30 2798 O 279.507 1.76053 0.735524 0
M  V30 2799 C 276.647 3.33346 0.893 0
M  V30 2800 C 275.76 4.31924 0.0809695 0
M  V30 2801 C 274.895 5.21566 1.0071 0
M  V30 2802 C 273.934 6.11811 0.188155 0
M  V30 2803 N 273.071 6.93926 1.06825 0
M  V30 2804 H 277.911 2.86943 -0.804207 0
M  V30 2805 H 275.448 1.4132 -0.408294 0
M  V30 2806 H 277.406 3.91368 1.44523 0
M  V30 2807 H 276.036 2.78719 1.62836 0
M  V30 2808 H 275.088 3.75825 -0.588224 0
M  V30 2809 H 276.4 4.95716 -0.553801 0
M  V30 2810 H 275.554 5.84437 1.62845 0
M  V30 2811 H 274.293 4.58008 1.67572 0
M  V30 2812 H 273.298 5.47986 -0.446254 0
M  V30 2813 H 274.523 6.77425 -0.476716 0
M  V30 2814 H 272.469 6.32973 1.72283 0
M  V30 2815 H 272.386 7.54416 0.489123 0
M  V30 2816 H 273.654 7.61262 1.67632 0
M  V30 2817 N 277.883 0.443576 1.51229 0
M  V30 2818 C 279.131 -0.120557 2.0174 0
M  V30 2819 C 279.452 -1.42665 1.32935 0
M  V30 2820 O 278.722 -1.9028 0.465866 0
M  V30 2821 H 277.302 -0.0475426 0.745486 0
M  V30 2822 H 279.964 0.587711 1.85828 0
M  V30 2823 H 279.06 -0.291972 3.10731 0
M  V30 2824 N 279.361 -1.56624 0.175154 0
M  V30 2825 C 280.61 -1.96173 -0.468921 0
M  V30 2826 C 280.923 -1.06401 -1.64128 0
M  V30 2827 O 282.129 -1.35648 -2.35185 0
M  V30 2828 C 280.585 -3.48833 -0.885633 0
M  V30 2829 C 280.193 -4.47237 0.261343 0
M  V30 2830 C 281.937 -3.97194 -1.49791 0
M  V30 2831 C 279.844 -5.9114 -0.175214 0
M  V30 2832 H 278.774 -0.732455 -0.178958 0
M  V30 2833 H 281.425 -1.81591 0.263997 0
M  V30 2834 H 279.807 -3.58848 -1.67464 0
M  V30 2835 H 280.981 -4.4894 1.03871 0
M  V30 2836 H 279.296 -4.08956 0.783827 0
M  V30 2837 H 281.893 -5.02167 -1.83665 0
M  V30 2838 H 282.236 -3.40351 -2.39722 0
M  V30 2839 H 282.769 -3.90212 -0.773267 0
M  V30 2840 H 279.508 -6.51865 0.689414 0
M  V30 2841 H 279.028 -5.92735 -0.91786 0
M  V30 2842 H 280.707 -6.44044 -0.617792 0
M  V30 2843 N 280.839 0.0985539 -1.57292 0
M  V30 2844 C 282.064 0.820196 -1.90493 0
M  V30 2845 C 282.489 1.71658 -0.769094 0
M  V30 2846 O 281.847 1.79133 0.279495 0
M  V30 2847 C 281.895 1.61242 -3.22542 0
M  V30 2848 O 280.999 2.72108 -3.09888 0
M  V30 2849 H 280.34 0.225547 -0.62452 0
M  V30 2850 H 282.87 0.0748159 -2.04463 0
M  V30 2851 H 282.88 1.99737 -3.55766 0
M  V30 2852 H 281.555 0.954535 -4.04798 0
M  V30 2853 H 280.132 2.36667 -2.88172 0
M  V30 2854 N 282.317 1.53212 0.369288 0
M  V30 2855 C 283.542 1.73423 1.1375 0
M  V30 2856 C 283.967 0.460404 1.82378 0
M  V30 2857 O 283.325 -0.585298 1.71592 0
M  V30 2858 C 283.373 2.89769 2.1463 0
M  V30 2859 O 282.477 2.58119 3.21634 0
M  V30 2860 H 281.818 0.576061 0.330227 0
M  V30 2861 H 284.348 2.00083 0.427547 0
M  V30 2862 H 284.358 3.15829 2.58294 0
M  V30 2863 H 283.033 3.8217 1.64071 0
M  V30 2864 H 281.61 2.42864 2.82969 0
M  V30 2865 N 283.795 -0.628877 1.44509 0
M  V30 2866 C 285.02 -1.42048 1.5112 0
M  V30 2867 C 285.445 -1.87594 0.137818 0
M  V30 2868 O 284.803 -1.58873 -0.873437 0
M  V30 2869 C 284.851 -2.61541 2.48251 0
M  V30 2870 O 283.955 -3.61453 1.98559 0
M  V30 2871 H 283.296 -0.424942 0.510216 0
M  V30 2872 H 285.826 -0.767374 1.89664 0
M  V30 2873 H 285.836 -3.09057 2.66361 0
M  V30 2874 H 284.511 -2.27736 3.48007 0
M  V30 2875 H 283.088 -3.20731 1.90227 0
M  V30 2876 N 285.273 -1.31445 -0.869486 0
M  V30 2877 C 286.206 -1.13465 -1.97992 0
M  V30 2878 C 287.184 -0.0380291 -1.62556 0
M  V30 2879 O 288.368 -0.194544 -1.87493 0
M  V30 2880 C 285.495 -0.733822 -3.30655 0
M  V30 2881 C 284.541 -1.83356 -3.85075 0
M  V30 2882 S 285.374 -3.43909 -4.10472 0
M  V30 2883 C 286.53 -3.05763 -5.46132 0
M  V30 2884 H 286.763 -2.07471 -2.1294 0
M  V30 2885 H 284.296 -1.15936 -1.01972 0
M  V30 2886 H 286.254 -0.509306 -4.07328 0
M  V30 2887 H 284.915 0.187123 -3.13542 0
M  V30 2888 H 284.108 -1.50574 -4.80982 0
M  V30 2889 H 283.71 -2.01315 -3.15195 0
M  V30 2890 H 286.002 -2.54686 -6.27807 0
M  V30 2891 H 286.945 -4.00635 -5.83864 0
M  V30 2892 H 287.353 -2.43192 -5.09429 0
M  V30 2893 N 286.751 1.08385 -1.14413 0
M  V30 2894 C 287.976 1.85057 -0.936413 0
M  V30 2895 C 288.401 1.81055 0.509971 0
M  V30 2896 O 287.759 1.1958 1.36273 0
M  V30 2897 C 287.807 3.30505 -1.44217 0
M  V30 2898 O 286.911 4.07491 -0.634409 0
M  V30 2899 H 286.252 0.573425 -0.334784 0
M  V30 2900 H 288.782 1.36799 -1.52142 0
M  V30 2901 H 288.792 3.81348 -1.45043 0
M  V30 2902 H 287.467 3.32734 -2.49522 0
M  V30 2903 H 286.044 3.66368 -0.694902 0
M  V30 2904 N 288.23 0.939286 1.26551 0
M  V30 2905 C 289.477 0.585847 1.9384 0
M  V30 2906 C 289.805 -0.874784 1.73718 0
M  V30 2907 O 289.06 -1.64092 1.06642 0
M  V30 2908 C 289.359 0.872106 3.46596 0
M  V30 2909 C 289.025 2.31632 3.86856 0
M  V30 2910 C 287.687 2.71111 3.97558 0
M  V30 2911 C 290.039 3.25494 4.07066 0
M  V30 2912 C 287.367 4.03553 4.25866 0
M  V30 2913 C 289.719 4.57531 4.36862 0
M  V30 2914 C 288.383 4.96828 4.45778 0
M  V30 2915 H 287.653 0.214377 0.709312 0
M  V30 2916 H 290.3 1.18544 1.50398 0
M  V30 2917 H 288.605 0.18996 3.91339 0
M  V30 2918 H 290.302 0.577442 3.96821 0
M  V30 2919 H 286.892 2.00008 3.79071 0
M  V30 2920 H 291.076 2.9619 3.98227 0
M  V30 2921 H 286.332 4.33665 4.30981 0
M  V30 2922 H 290.506 5.30254 4.51446 0
M  V30 2923 H 288.133 5.99482 4.67468 0
M  V30 2924 N 289.708 -1.40897 0.706093 0
M  V30 2925 C 290.985 -1.94868 0.169099 0
M  V30 2926 C 291.365 -1.64485 -1.32318 0
M  V30 2927 O 290.713 -0.95744 -2.07474 0
M  V30 2928 C 290.923 -3.45798 0.471654 0
M  V30 2929 C 292.271 -4.22663 0.405127 0
M  V30 2930 O 293.295 -3.53865 0.407168 0
M  V30 2931 O 292.154 -5.45216 0.374383 0
M  V30 2932 H 289.248 -0.82673 0.0211352 0
M  V30 2933 H 291.794 -1.50558 0.782976 0
M  V30 2934 H 290.566 -3.61235 1.50416 0
M  V30 2935 H 290.189 -3.97225 -0.172666 0
M  V30 2936 N 291.186 -0.45159 -1.50991 0
M  V30 2937 C 292.096 0.358431 -2.31846 0
M  V30 2938 C 293.112 1.01438 -1.41373 0
M  V30 2939 O 294.288 1.00663 -1.74439 0
M  V30 2940 C 291.353 1.43704 -3.15515 0
M  V30 2941 C 290.414 0.799742 -4.21785 0
M  V30 2942 C 289.647 1.82696 -5.01456 0
M  V30 2943 O 289.87 3.05105 -4.81941 0
M  V30 2944 O 288.804 1.40958 -5.85162 0
M  V30 2945 H 292.63 -0.302032 -3.02194 0
M  V30 2946 H 290.215 -0.213825 -1.47862 0
M  V30 2947 H 292.097 2.06227 -3.67489 0
M  V30 2948 H 290.772 2.08133 -2.47916 0
M  V30 2949 H 289.679 0.136084 -3.73852 0
M  V30 2950 H 291.012 0.198718 -4.91799 0
M  V30 2951 N 292.664 1.56529 -0.183458 0
M  V30 2952 C 293.941 1.88959 0.50536 0
M  V30 2953 C 294.321 1.09523 1.80466 0
M  V30 2954 O 293.669 0.19278 2.27685 0
M  V30 2955 C 293.879 3.41162 0.73547 0
M  V30 2956 C 295.227 4.11155 1.06005 0
M  V30 2957 O 296.251 3.46548 0.823594 0
M  V30 2958 O 295.11 5.25318 1.50675 0
M  V30 2959 H 292.204 0.78441 0.261973 0
M  V30 2960 H 294.75 1.68231 -0.222802 0
M  V30 2961 H 293.522 3.90874 -0.182561 0
M  V30 2962 H 293.145 3.67543 1.51651 0
M  V30 2963 N 294.142 -0.090211 1.57342 0
M  V30 2964 C 295.052 -1.12735 2.05738 0
M  V30 2965 C 296.068 -1.43557 0.983231 0
M  V30 2966 O 297.244 -1.54101 1.29672 0
M  V30 2967 C 294.309 -2.42659 2.47624 0
M  V30 2968 C 293.37 -2.18975 3.69254 0
M  V30 2969 C 292.603 -3.42704 4.09133 0
M  V30 2970 O 292.826 -4.51127 3.49057 0
M  V30 2971 O 291.76 -3.32003 5.02053 0
M  V30 2972 H 295.586 -0.746279 2.94388 0
M  V30 2973 H 293.171 -0.303064 1.46294 0
M  V30 2974 H 295.053 -3.19155 2.7517 0
M  V30 2975 H 293.728 -2.80182 1.62109 0
M  V30 2976 H 292.635 -1.40244 3.46818 0
M  V30 2977 H 293.968 -1.86342 4.55563 0
M  V30 2978 N 295.62 -1.53406 -0.361157 0
M  V30 2979 C 296.53 -1.83122 -1.4664 0
M  V30 2980 C 297.546 -0.719943 -1.58407 0
M  V30 2981 O 298.722 -1.01046 -1.74218 0
M  V30 2982 C 295.787 -2.01891 -2.81853 0
M  V30 2983 C 294.848 -3.25784 -2.79577 0
M  V30 2984 C 294.081 -3.43648 -4.0834 0
M  V30 2985 O 294.304 -2.65714 -5.0473 0
M  V30 2986 O 293.238 -4.37018 -4.13883 0
M  V30 2987 H 297.064 -2.7703 -1.24451 0
M  V30 2988 H 294.649 -1.38841 -0.551678 0
M  V30 2989 H 296.531 -2.15782 -3.61962 0
M  V30 2990 H 295.206 -1.11173 -3.0401 0
M  V30 2991 H 294.113 -3.17312 -1.98151 0
M  V30 2992 H 295.446 -4.16439 -2.62373 0
M  V30 2993 N 297.098 0.621204 -1.44841 0
M  V30 2994 C 298.375 1.38 -1.38619 0
M  V30 2995 C 298.755 2.11041 -0.0498935 0
M  V30 2996 O 298.103 2.06992 0.967816 0
M  V30 2997 C 298.313 2.33817 -2.59096 0
M  V30 2998 C 299.661 2.96844 -3.03593 0
M  V30 2999 O 300.685 2.44141 -2.59371 0
M  V30 3000 O 299.544 3.92476 -3.80296 0
M  V30 3001 H 296.638 0.61811 -0.549426 0
M  V30 3002 H 299.184 0.645429 -1.56947 0
M  V30 3003 H 297.956 1.79012 -3.47952 0
M  V30 3004 H 297.579 3.14676 -2.43032 0
M  V30 3005 N 298.576 1.31904 0.862503 0
M  V30 3006 C 299.486 1.22161 2.00285 0
M  V30 3007 C 300.502 0.136785 1.73462 0
M  V30 3008 O 301.678 0.355994 1.98229 0
M  V30 3009 C 298.743 0.937093 3.33796 0
M  V30 3010 C 297.804 2.10957 3.73893 0
M  V30 3011 C 297.037 1.83853 5.01033 0
M  V30 3012 O 297.26 0.777274 5.65079 0
M  V30 3013 O 296.194 2.69741 5.38074 0
M  V30 3014 H 300.02 2.18008 2.11439 0
M  V30 3015 H 297.605 1.11716 0.991957 0
M  V30 3016 H 299.487 0.794583 4.13841 0
M  V30 3017 H 298.162 0.00871894 3.23699 0
M  V30 3018 H 297.069 2.30752 2.94456 0
M  V30 3019 H 298.402 3.02046 3.88625 0
M  V30 3020 N 300.054 -1.07777 1.14986 0
M  V30 3021 C 300.964 -2.18404 0.856546 0
M  V30 3022 C 301.98 -1.73211 -0.165485 0
M  V30 3023 O 303.156 -2.01399 0.00755219 0
M  V30 3024 C 300.221 -3.44977 0.34526 0
M  V30 3025 C 299.282 -4.0476 1.43065 0
M  V30 3026 C 298.515 -5.25291 0.943663 0
M  V30 3027 O 298.738 -5.70004 -0.212426 0
M  V30 3028 O 297.672 -5.76638 1.72547 0
M  V30 3029 H 301.498 -2.45978 1.78125 0
M  V30 3030 H 299.083 -1.17033 0.928631 0
M  V30 3031 H 300.965 -4.21348 0.0663671 0
M  V30 3032 H 299.64 -3.18965 -0.551631 0
M  V30 3033 H 298.547 -3.29949 1.76309 0
M  V30 3034 H 299.88 -4.35035 2.30229 0
M  V30 3035 N 301.532 -0.945985 -1.26051 0
M  V30 3036 C 302.442 -0.465633 -2.29933 0
M  V30 3037 C 303.458 0.462761 -1.67733 0
M  V30 3038 O 304.634 0.341118 -1.9849 0
M  V30 3039 C 301.699 0.256994 -3.45746 0
M  V30 3040 C 300.76 -0.708549 -4.23412 0
M  V30 3041 C 299.993 -0.0203135 -5.33696 0
M  V30 3042 O 300.216 1.19571 -5.57726 0
M  V30 3043 O 299.15 -0.701459 -5.97799 0
M  V30 3044 H 302.976 -1.32866 -2.73094 0
M  V30 3045 H 300.561 -0.712071 -1.31339 0
M  V30 3046 H 302.443 0.663852 -4.16138 0
M  V30 3047 H 301.118 1.09533 -3.04605 0
M  V30 3048 H 300.025 -1.16545 -3.55483 0
M  V30 3049 H 301.358 -1.51465 -4.68315 0
M  V30 3050 N 303.011 1.40521 -0.713556 0
M  V30 3051 C 303.959 2.32549 -0.0485227 0
M  V30 3052 C 304.953 1.51931 0.74922 0
M  V30 3053 O 306.159 1.67745 0.652816 0
M  V30 3054 H 302.534 0.751994 0.00311138 0
M  V30 3055 H 304.505 2.86291 -0.841443 0
M  V30 3056 C 303.254 3.36879 0.860687 0
M  V30 3057 H 302.577 3.98978 0.256246 0
M  V30 3058 H 304.017 4.03772 1.294 0
M  V30 3059 C 302.476 2.72197 1.9852 0
M  V30 3060 O 303.006 2.5837 3.07584 0
M  V30 3061 N 301.212 2.30612 1.76823 0
M  V30 3062 H 300.759 2.42059 0.881217 0
M  V30 3063 H 300.717 1.87672 2.52243 0
M  V30 3064 N 304.489 0.459591 1.5075 0
M  V30 3065 C 305.714 -0.0996819 2.0716 0
M  V30 3066 C 306.139 -1.33761 1.32249 0
M  V30 3067 O 305.497 -1.77551 0.366786 0
M  V30 3068 C 305.545 -0.378226 3.58611 0
M  V30 3069 O 304.649 -1.46081 3.85661 0
M  V30 3070 H 303.99 0.00791392 0.663953 0
M  V30 3071 H 306.52 0.647329 1.9409 0
M  V30 3072 H 306.53 -0.622135 4.03229 0
M  V30 3073 H 305.205 0.526439 4.12555 0
M  V30 3074 H 303.782 -1.20511 3.5289 0
M  V30 3075 N 305.967 -1.56429 0.191757 0
M  V30 3076 C 307.192 -2.02309 -0.456706 0
M  V30 3077 C 307.617 -1.07103 -1.5463 0
M  V30 3078 O 306.975 -0.0539677 -1.8122 0
M  V30 3079 C 307.023 -3.46654 -0.993159 0
M  V30 3080 O 306.127 -3.54559 -2.10622 0
M  V30 3081 H 305.468 -0.655303 -0.107114 0
M  V30 3082 H 307.998 -2.02364 0.301653 0
M  V30 3083 H 308.008 -3.86377 -1.31061 0
M  V30 3084 H 306.683 -4.1544 -0.195504 0
M  V30 3085 H 305.26 -3.26708 -1.79767 0
M  V30 3086 N 307.445 0.0818655 -1.57387 0
M  V30 3087 C 308.67 0.799946 -1.91352 0
M  V30 3088 C 309.095 1.70833 -0.787258 0
M  V30 3089 O 308.453 1.79419 0.26048 0
M  V30 3090 C 308.501 1.57812 -3.24234 0
M  V30 3091 O 307.605 2.68806 -3.12757 0
M  V30 3092 H 306.946 0.21891 -0.626877 0
M  V30 3093 H 309.476 0.0531256 -2.04531 0
M  V30 3094 H 309.486 1.95952 -3.57864 0
M  V30 3095 H 308.161 0.911548 -4.05788 0
M  V30 3096 H 306.738 2.33597 -2.90666 0
M  V30 3097 N 308.923 1.53595 0.353017 0
M  V30 3098 C 310.148 1.7462 1.11904 0
M  V30 3099 C 310.573 0.479721 1.8188 0
M  V30 3100 O 309.931 -0.567066 1.72204 0
M  V30 3101 C 309.979 2.92029 2.11545 0
M  V30 3102 O 309.083 2.61516 3.18878 0
M  V30 3103 H 308.424 0.579531 0.324099 0
M  V30 3104 H 310.954 2.00525 0.406301 0
M  V30 3105 H 310.964 3.18551 2.5493 0
M  V30 3106 H 309.639 3.83888 1.60008 0
M  V30 3107 H 308.216 2.45852 2.80377 0
M  V30 3108 N 310.401 -0.613514 1.45168 0
M  V30 3109 C 311.626 -1.40437 1.52618 0
M  V30 3110 C 312.051 -1.87438 0.157707 0
M  V30 3111 O 311.409 -1.59791 -0.856537 0
M  V30 3112 C 311.457 -2.58894 2.51011 0
M  V30 3113 O 310.561 -3.59326 2.02382 0
M  V30 3114 H 309.902 -0.419506 0.514695 0
M  V30 3115 H 312.432 -0.747215 1.90467 0
M  V30 3116 H 312.442 -3.06214 2.69624 0
M  V30 3117 H 311.117 -2.24032 3.50403 0
M  V30 3118 H 309.694 -3.18695 1.93618 0
M  V30 3119 N 311.879 -1.3236 -0.855495 0
M  V30 3120 C 312.811 -1.17052 -1.97057 0
M  V30 3121 C 313.824 -0.10574 -1.62456 0
M  V30 3122 O 315.013 -0.354619 -1.74942 0
M  V30 3123 C 312.113 -0.769305 -3.30053 0
M  V30 3124 C 311.286 -1.9222 -3.929 0
M  V30 3125 C 310.345 -1.50466 -5.04228 0
M  V30 3126 O 309.371 -2.21655 -5.24269 0
M  V30 3127 N 310.573 -0.400209 -5.79119 0
M  V30 3128 H 313.338 -2.13103 -2.1073 0
M  V30 3129 H 310.899 -1.24885 -1.0303 0
M  V30 3130 H 312.891 -0.472407 -4.01933 0
M  V30 3131 H 311.461 0.100025 -3.1244 0
M  V30 3132 H 310.681 -2.38563 -3.13817 0
M  V30 3133 H 311.969 -2.69403 -4.31624 0
M  V30 3134 H 311.367 0.192319 -5.65373 0
M  V30 3135 H 309.924 -0.162912 -6.51596 0
M  V30 3136 N 313.357 1.07166 -1.15556 0
M  V30 3137 C 314.287 2.16403 -0.877046 0
M  V30 3138 C 315.268 1.69217 0.173111 0
M  V30 3139 O 316.453 1.94181 0.027084 0
M  V30 3140 C 313.583 3.45349 -0.367632 0
M  V30 3141 C 312.537 4.05995 -1.35468 0
M  V30 3142 C 311.863 5.30045 -0.704038 0
M  V30 3143 C 313.163 4.45804 -2.72132 0
M  V30 3144 H 314.857 2.39959 -1.79053 0
M  V30 3145 H 312.403 1.15325 -0.862331 0
M  V30 3146 H 314.356 4.21095 -0.160317 0
M  V30 3147 H 313.08 3.21385 0.581326 0
M  V30 3148 H 311.739 3.32296 -1.54839 0
M  V30 3149 H 311.387 5.02373 0.251128 0
M  V30 3150 H 311.087 5.71579 -1.36277 0
M  V30 3151 H 312.611 6.08495 -0.50654 0
M  V30 3152 H 314.025 5.12671 -2.56595 0
M  V30 3153 H 312.422 4.98296 -3.34397 0
M  V30 3154 H 313.492 3.57083 -3.28054 0
M  V30 3155 N 314.835 0.952656 1.25548 0
M  V30 3156 C 315.783 0.462354 2.27958 0
M  V30 3157 C 316.777 -0.46634 1.62855 0
M  V30 3158 O 317.983 -0.343287 1.76696 0
M  V30 3159 H 314.358 0.13101 0.7405 0
M  V30 3160 H 316.329 1.33839 2.66702 0
M  V30 3161 C 315.078 -0.24628 3.46827 0
M  V30 3162 H 314.401 0.459192 3.97154 0
M  V30 3163 H 315.841 -0.553393 4.20373 0
M  V30 3164 C 314.3 -1.4681 3.0323 0
M  V30 3165 O 314.83 -2.56591 3.09069 0
M  V30 3166 N 313.036 -1.32874 2.58443 0
M  V30 3167 H 312.583 -0.435536 2.53891 0
M  V30 3168 H 312.541 -2.14742 2.29637 0
M  V30 3169 N 316.313 -1.40141 0.720998 0
M  V30 3170 C 317.538 -2.05618 0.271258 0
M  V30 3171 C 317.963 -1.53978 -1.08039 0
M  V30 3172 O 317.321 -0.677463 -1.68167 0
M  V30 3173 C 317.369 -3.59609 0.267197 0
M  V30 3174 O 316.473 -4.05526 -0.749814 0
M  V30 3175 H 315.814 -0.651904 0.126162 0
M  V30 3176 H 318.344 -1.79439 0.982997 0
M  V30 3177 H 318.354 -4.0786 0.106744 0
M  V30 3178 H 317.029 -3.96559 1.25354 0
M  V30 3179 H 315.606 -3.68722 -0.556644 0
M  V30 3180 N 317.792 -0.46758 -1.50504 0
M  V30 3181 C 318.74 0.342482 -2.30065 0
M  V30 3182 C 319.734 0.993596 -1.37201 0
M  V30 3183 O 320.94 0.925102 -1.54408 0
M  V30 3184 H 317.315 0.129283 -0.740803 0
M  V30 3185 H 319.286 -0.34899 -2.96352 0
M  V30 3186 C 318.035 1.4139 -3.17654 0
M  V30 3187 H 317.358 0.922264 -3.89017 0
M  V30 3188 H 318.798 1.95335 -3.76325 0
M  V30 3189 C 317.257 2.4139 -2.35016 0
M  V30 3190 O 317.787 3.46586 -2.03079 0
M  V30 3191 N 315.993 2.13021 -1.97662 0
M  V30 3192 H 315.54 1.27499 -2.23834 0
M  V30 3193 H 315.498 2.80164 -1.42673 0
M  V30 3194 N 319.27 1.56325 -0.20005 0
M  V30 3195 C 320.498 2.02105 0.442874 0
M  V30 3196 C 320.913 1.08014 1.5485 0
M  V30 3197 O 320.27 0.0858797 1.82298 0
M  V30 3198 C 320.321 3.47549 0.994583 0
M  V30 3199 O 320.042 4.38049 -0.0669322 0
M  V30 3200 C 321.543 4.0887 1.7129 0
M  V30 3201 H 318.763 0.661807 0.110691 0
M  V30 3202 H 321.307 2.02134 -0.310207 0
M  V30 3203 H 319.462 3.48204 1.69803 0
M  V30 3204 H 319.876 5.23368 0.344462 0
M  V30 3205 H 321.35 5.12475 2.05118 0
M  V30 3206 H 321.827 3.52615 2.61838 0
M  V30 3207 H 322.433 4.12002 1.05518 0
M  V30 3208 N 320.748 -0.0735177 1.57428 0
M  V30 3209 C 322.164 -0.428264 1.53747 0
M  V30 3210 C 322.364 -1.79272 0.91998 0
M  V30 3211 O 321.42 -2.47051 0.521745 0
M  V30 3212 C 322.733 -0.370914 2.98404 0
M  V30 3213 C 324.281 -0.451224 3.0973 0
M  V30 3214 C 324.756 -0.4238 4.56035 0
M  V30 3215 N 326.247 -0.483925 4.60665 0
M  V30 3216 C 326.982 -0.484891 5.71346 0
M  V30 3217 N 326.478 -0.440775 6.91396 0
M  V30 3218 N 328.271 -0.531319 5.59583 0
M  V30 3219 H 320.422 0.819949 1.95935 0
M  V30 3220 H 322.685 0.307493 0.896745 0
M  V30 3221 H 322.391 0.564956 3.47133 0
M  V30 3222 H 322.265 -1.18176 3.5821 0
M  V30 3223 H 324.652 -1.37752 2.60976 0
M  V30 3224 H 324.733 0.388167 2.52838 0
M  V30 3225 H 324.377 0.498638 5.05446 0
M  V30 3226 H 324.307 -1.2807 5.10789 0
M  V30 3227 H 326.798 -0.522338 3.74273 0
M  V30 3228 H 327.111 -0.44539 7.71515 0
M  V30 3229 H 325.456 -0.40749 6.93804 0
M  V30 3230 H 328.647 -0.563464 4.64696 0
M  V30 3231 H 328.82 -0.528603 6.4584 0
M  V30 3232 N 322.226 -1.5378 -0.344866 0
M  V30 3233 C 323.637 -1.62428 -0.920552 0
M  V30 3234 C 323.988 -0.504747 -1.89596 0
M  V30 3235 O 323.113 0.365711 -2.13287 0
M  V30 3236 C 323.708 -2.94419 -1.67639 0
M  V30 3237 C 322.267 -3.05333 -2.20111 0
M  V30 3238 C 321.414 -2.57866 -1.01982 0
M  V30 3239 H 324.365 -1.58222 -0.123042 0
M  V30 3240 H 324.386 -2.83384 -2.53917 0
M  V30 3241 H 323.898 -3.7588 -0.966224 0
M  V30 3242 H 321.999 -2.28502 -2.94308 0
M  V30 3243 H 322.112 -4.10778 -2.46573 0
M  V30 3244 H 320.476 -2.13241 -1.39285 0
M  V30 3245 H 321.259 -3.41765 -0.324308 0
M  V30 3246 N 323.704 0.605807 -1.45491 0
M  V30 3247 C 324.929 1.39625 -1.53361 0
M  V30 3248 C 325.354 1.87351 -0.167645 0
M  V30 3249 O 324.712 1.60243 0.848051 0
M  V30 3250 C 324.76 2.57559 -2.5238 0
M  V30 3251 O 323.864 3.58248 -2.04285 0
M  V30 3252 H 323.205 0.416771 -0.516912 0
M  V30 3253 H 325.735 0.737103 -1.90861 0
M  V30 3254 H 325.745 3.0478 -2.71244 0
M  V30 3255 H 324.42 2.22171 -3.51586 0
M  V30 3256 H 322.997 3.17664 -1.95305 0
M  V30 3257 N 325.182 1.32811 0.848464 0
M  V30 3258 C 326.407 1.26882 1.6406 0
M  V30 3259 C 326.832 -0.15913 1.87426 0
M  V30 3260 O 326.19 -1.11258 1.43148 0
M  V30 3261 C 326.238 2.03997 2.97351 0
M  V30 3262 O 325.342 1.39201 3.88197 0
M  V30 3263 H 324.683 0.436982 0.499943 0
M  V30 3264 H 327.213 1.75224 1.0563 0
M  V30 3265 H 327.223 2.14403 3.47124 0
M  V30 3266 H 325.898 3.0783 2.79666 0
M  V30 3267 H 324.475 1.37381 3.46671 0
M  V30 3268 N 326.66 -1.06551 1.16123 0
M  V30 3269 C 327.623 -2.12132 0.867906 0
M  V30 3270 C 328.623 -1.60224 -0.135944 0
M  V30 3271 O 329.813 -1.73943 0.0946422 0
M  V30 3272 C 326.945 -3.396 0.297419 0
M  V30 3273 H 328.138 -2.39586 1.80385 0
M  V30 3274 H 325.691 -1.22574 0.969812 0
M  V30 3275 H 326.426 -3.17794 -0.64633 0
M  V30 3276 H 326.211 -3.78581 1.02073 0
M  V30 3277 H 327.701 -4.17455 0.110052 0
M  V30 3278 N 328.138 -0.959301 -1.25041 0
M  V30 3279 C 329.366 -0.633949 -1.96948 0
M  V30 3280 C 329.781 0.794916 -1.7125 0
M  V30 3281 O 329.138 1.53231 -0.991287 0
M  V30 3282 C 329.189 -0.888805 -3.50403 0
M  V30 3283 O 328.91 -2.26149 -3.75218 0
M  V30 3284 C 330.411 -0.576482 -4.39536 0
M  V30 3285 H 327.631 -0.237263 -0.627652 0
M  V30 3286 H 330.175 -1.28495 -1.59089 0
M  V30 3287 H 328.33 -0.284145 -3.86357 0
M  V30 3288 H 328.744 -2.33514 -4.6965 0
M  V30 3289 H 330.218 -0.805314 -5.46094 0
M  V30 3290 H 330.695 0.489075 -4.36468 0
M  V30 3291 H 331.301 -1.16067 -4.09156 0
M  V30 3292 N 329.616 1.39756 -0.72842 0
M  V30 3293 C 330.841 2.05472 -0.282159 0
M  V30 3294 C 331.266 1.54549 1.07221 0
M  V30 3295 O 330.624 0.686372 1.67805 0
M  V30 3296 C 330.672 3.59462 -0.286264 0
M  V30 3297 O 329.776 4.05918 0.728298 0
M  V30 3298 H 329.117 0.651226 -0.129618 0
M  V30 3299 H 331.647 1.78915 -0.992499 0
M  V30 3300 H 331.657 4.07798 -0.128373 0
M  V30 3301 H 330.332 3.95889 -1.27456 0
M  V30 3302 H 328.909 3.69012 0.537081 0
M  V30 3303 N 331.094 0.475555 1.50254 0
M  V30 3304 C 332.51 0.12997 1.5907 0
M  V30 3305 C 332.71 -1.36385 1.48328 0
M  V30 3306 O 331.766 -2.13754 1.34407 0
M  V30 3307 C 333.079 0.684139 2.92814 0
M  V30 3308 C 334.627 0.647965 3.0622 0
M  V30 3309 C 335.102 1.17975 4.42545 0
M  V30 3310 N 336.593 1.13936 4.48969 0
M  V30 3311 C 337.328 1.52129 5.52851 0
M  V30 3312 N 336.824 1.97793 6.63965 0
M  V30 3313 N 338.617 1.43704 5.4342 0
M  V30 3314 H 330.768 1.44706 1.55479 0
M  V30 3315 H 333.031 0.598691 0.735033 0
M  V30 3316 H 332.737 1.73079 3.06164 0
M  V30 3317 H 332.611 0.130204 3.76975 0
M  V30 3318 H 334.998 -0.38979 2.92514 0
M  V30 3319 H 335.079 1.23876 2.23805 0
M  V30 3320 H 334.723 2.21616 4.57 0
M  V30 3321 H 334.653 0.565138 5.23559 0
M  V30 3322 H 337.144 0.804488 3.69238 0
M  V30 3323 H 337.457 2.25072 7.39299 0
M  V30 3324 H 335.802 2.01749 6.65073 0
M  V30 3325 H 338.993 1.07867 4.55502 0
M  V30 3326 H 339.166 1.73794 6.24259 0
M  V30 3327 N 332.573 -1.56217 0.208337 0
M  V30 3328 C 333.52 -2.19699 -0.707192 0
M  V30 3329 C 334.49 -1.14836 -1.20008 0
M  V30 3330 O 335.675 -1.4314 -1.26157 0
M  V30 3331 C 332.815 -2.87061 -1.91546 0
M  V30 3332 C 331.928 -4.06483 -1.46271 0
M  V30 3333 C 331.063 -4.61665 -2.62752 0
M  V30 3334 C 330.102 -5.73417 -2.14147 0
M  V30 3335 N 329.239 -6.22948 -3.23853 0
M  V30 3336 H 334.079 -2.97575 -0.159111 0
M  V30 3337 H 331.616 -1.46948 -0.0667874 0
M  V30 3338 H 333.574 -3.24294 -2.62468 0
M  V30 3339 H 332.204 -2.11725 -2.43664 0
M  V30 3340 H 331.256 -3.74825 -0.648886 0
M  V30 3341 H 332.568 -4.87271 -1.06622 0
M  V30 3342 H 331.722 -5.01272 -3.41776 0
M  V30 3343 H 330.461 -3.80013 -3.05682 0
M  V30 3344 H 329.466 -5.33326 -1.33581 0
M  V30 3345 H 330.691 -6.56897 -1.72232 0
M  V30 3346 H 328.637 -5.44213 -3.6629 0
M  V30 3347 H 328.554 -6.98823 -2.88414 0
M  V30 3348 H 329.822 -6.6721 -4.03052 0
M  V30 3349 N 334.051 0.0651679 -1.57465 0
M  V30 3350 C 335.276 0.779605 -1.9219 0
M  V30 3351 C 335.701 1.69988 -0.805333 0
M  V30 3352 O 335.059 1.79685 0.241435 0
M  V30 3353 C 335.107 1.54364 -3.2589 0
M  V30 3354 O 334.211 2.65474 -3.1559 0
M  V30 3355 H 333.552 0.212249 -0.629163 0
M  V30 3356 H 336.082 0.0314294 -2.04576 0
M  V30 3357 H 336.092 1.92146 -3.59922 0
M  V30 3358 H 334.767 0.868457 -4.06732 0
M  V30 3359 H 333.344 2.30501 -2.93128 0
M  V30 3360 N 335.529 1.53961 0.336706 0
M  V30 3361 C 336.775 1.7179 1.07777 0
M  V30 3362 C 337.108 0.483263 1.88091 0
M  V30 3363 O 336.383 -0.519747 1.87427 0
M  V30 3364 C 336.666 2.98558 2.01334 0
M  V30 3365 C 336.519 4.32245 1.24437 0
M  V30 3366 C 337.838 3.21023 3.01052 0
M  V30 3367 H 334.957 0.625089 0.390426 0
M  V30 3368 H 337.599 1.86641 0.35567 0
M  V30 3369 H 335.749 2.86028 2.62908 0
M  V30 3370 H 337.421 4.56637 0.654243 0
M  V30 3371 H 335.664 4.30344 0.546458 0
M  V30 3372 H 336.335 5.17137 1.93063 0
M  V30 3373 H 338.811 3.32929 2.49595 0
M  V30 3374 H 337.687 4.11104 3.6371 0
M  V30 3375 H 337.948 2.37637 3.72802 0
M  V30 3376 N 337.007 -0.598083 1.45811 0
M  V30 3377 C 338.423 -0.919847 1.30426 0
M  V30 3378 C 338.623 -1.99759 0.264303 0
M  V30 3379 O 337.679 -2.50221 -0.338472 0
M  V30 3380 C 338.992 -1.35176 2.68603 0
M  V30 3381 C 340.54 -1.46546 2.76574 0
M  V30 3382 C 341.015 -1.9311 4.15298 0
M  V30 3383 N 342.506 -2.00328 4.1764 0
M  V30 3384 C 343.241 -2.37599 5.21856 0
M  V30 3385 N 342.737 -2.73771 6.36413 0
M  V30 3386 N 344.53 -2.38021 5.09218 0
M  V30 3387 H 336.681 0.114111 2.12093 0
M  V30 3388 H 338.944 -0.0116121 0.947929 0
M  V30 3389 H 338.65 -0.633969 3.45939 0
M  V30 3390 H 338.524 -2.3164 2.97696 0
M  V30 3391 H 340.911 -2.17415 1.99537 0
M  V30 3392 H 340.992 -0.483727 2.51185 0
M  V30 3393 H 340.636 -1.22824 4.92825 0
M  V30 3394 H 340.566 -2.92213 4.38086 0
M  V30 3395 H 343.057 -1.74925 3.34977 0
M  V30 3396 H 343.37 -3.0112 7.11721 0
M  V30 3397 H 341.715 -2.71445 6.39799 0
M  V30 3398 H 344.906 -2.09174 4.18765 0
M  V30 3399 H 345.079 -2.66741 5.90554 0
M  V30 3400 N 338.485 -1.33259 -0.841409 0
M  V30 3401 C 339.395 -1.25332 -1.98316 0
M  V30 3402 C 340.411 -0.164364 -1.73222 0
M  V30 3403 O 341.587 -0.387486 -1.97637 0
M  V30 3404 C 338.652 -0.990078 -3.32262 0
M  V30 3405 C 337.713 -2.16879 -3.70489 0
M  V30 3406 C 336.946 -1.91801 -4.98044 0
M  V30 3407 O 337.169 -0.867075 -5.63771 0
M  V30 3408 O 336.103 -2.78267 -5.33714 0
M  V30 3409 H 339.929 -2.21344 -2.07944 0
M  V30 3410 H 337.514 -1.1328 -0.974058 0
M  V30 3411 H 339.396 -0.860321 -4.12524 0
M  V30 3412 H 338.071 -0.0602155 -3.23644 0
M  V30 3413 H 336.978 -2.35407 -2.90748 0
M  V30 3414 H 338.311 -3.0819 -3.8377 0
M  V30 3415 N 339.963 1.05934 -1.16686 0
M  V30 3416 C 340.926 2.11669 -0.879144 0
M  V30 3417 C 341.926 1.60294 0.127445 0
M  V30 3418 O 343.116 1.7389 -0.103865 0
M  V30 3419 C 340.248 3.39438 -0.315425 0
M  V30 3420 H 341.441 2.38626 -1.81653 0
M  V30 3421 H 338.994 1.22058 -0.976299 0
M  V30 3422 H 339.729 3.18132 0.629468 0
M  V30 3423 H 339.514 3.78034 -1.04079 0
M  V30 3424 H 341.004 4.17391 -0.132189 0
M  V30 3425 N 341.441 0.965919 1.2453 0
M  V30 3426 C 342.404 0.499547 2.2369 0
M  V30 3427 C 343.404 -0.40294 1.5567 0
M  V30 3428 O 344.594 -0.19865 1.73064 0
M  V30 3429 C 341.726 -0.276792 3.39774 0
M  V30 3430 H 342.919 1.37613 2.66463 0
M  V30 3431 H 340.472 0.750324 1.37112 0
M  V30 3432 H 341.207 -1.17055 3.02438 0
M  V30 3433 H 340.992 0.370826 3.90343 0
M  V30 3434 H 342.482 -0.592175 4.1338 0
M  V30 3435 N 342.919 -1.39368 0.735821 0
M  V30 3436 C 344.144 -2.05319 0.293052 0
M  V30 3437 C 344.569 -1.55115 -1.064 0
M  V30 3438 O 343.927 -0.695261 -1.67439 0
M  V30 3439 C 343.975 -3.59305 0.305323 0
M  V30 3440 O 343.079 -4.06299 -0.706761 0
M  V30 3441 H 342.42 -0.650529 0.13307 0
M  V30 3442 H 344.95 -1.78386 1.00197 0
M  V30 3443 H 344.96 -4.07724 0.149997 0
M  V30 3444 H 343.635 -3.95207 1.29553 0
M  V30 3445 H 342.212 -3.69292 -0.517504 0
M  V30 3446 N 344.397 -0.483516 -1.5 0
M  V30 3447 C 345.36 0.292965 -2.2732 0
M  V30 3448 C 346.36 0.909499 -1.32608 0
M  V30 3449 O 347.55 0.776745 -1.55924 0
M  V30 3450 C 344.682 1.41854 -3.09984 0
M  V30 3451 H 345.875 -0.385289 -2.97415 0
M  V30 3452 H 343.428 -0.237942 -1.54478 0
M  V30 3453 H 344.163 2.13148 -2.44414 0
M  V30 3454 H 343.948 0.982114 -3.79601 0
M  V30 3455 H 345.438 1.96597 -3.68429 0
M  V30 3456 N 345.875 1.56104 -0.216619 0
M  V30 3457 C 347.286 1.844 0.292128 0
M  V30 3458 C 347.637 1.13788 1.59833 0
M  V30 3459 O 346.762 0.405888 2.12559 0
M  V30 3460 C 347.357 3.3452 0.53681 0
M  V30 3461 C 345.916 3.63151 0.989876 0
M  V30 3462 C 345.063 2.77255 0.0502302 0
M  V30 3463 H 348.014 1.52481 -0.439926 0
M  V30 3464 H 348.035 3.54459 1.38345 0
M  V30 3465 H 347.547 3.85885 -0.414031 0
M  V30 3466 H 345.648 3.17238 1.95425 0
M  V30 3467 H 345.761 4.71177 0.867698 0
M  V30 3468 H 344.125 2.48555 0.556117 0
M  V30 3469 H 344.908 3.31416 -0.89544 0
M  V30 3470 N 347.353 -0.0568162 1.57498 0
M  V30 3471 C 348.578 -0.769402 1.92601 0
M  V30 3472 C 349.003 -1.69559 0.814336 0
M  V30 3473 O 348.361 -1.79811 -0.231903 0
M  V30 3474 C 348.409 -1.52634 3.26704 0
M  V30 3475 O 347.513 -2.63797 3.16994 0
M  V30 3476 H 346.854 -0.208909 0.63028 0
M  V30 3477 H 349.384 -0.0205798 2.0459 0
M  V30 3478 H 349.394 -1.90234 3.60936 0
M  V30 3479 H 348.069 -0.846875 4.07186 0
M  V30 3480 H 346.646 -2.28943 2.94346 0
M  V30 3481 N 348.832 -1.54138 -0.328536 0
M  V30 3482 C 350.243 -1.63395 -0.903272 0
M  V30 3483 C 350.594 -0.524828 -1.8905 0
M  V30 3484 O 349.719 0.343068 -2.13663 0
M  V30 3485 C 350.314 -2.9618 -1.64507 0
M  V30 3486 C 348.873 -3.0765 -2.1686 0
M  V30 3487 C 348.02 -2.58933 -0.992416 0
M  V30 3488 H 350.971 -1.58344 -0.106253 0
M  V30 3489 H 350.992 -2.86061 -2.50897 0
M  V30 3490 H 350.504 -3.76884 -0.926302 0
M  V30 3491 H 348.605 -2.31611 -2.91868 0
M  V30 3492 H 348.718 -4.1337 -2.42202 0
M  V30 3493 H 347.082 -2.14706 -1.37016 0
M  V30 3494 H 347.865 -3.42089 -0.288041 0
M  V30 3495 N 350.31 0.590341 -1.46126 0
M  V30 3496 C 351.538 1.37504 -1.54597 0
M  V30 3497 C 351.953 1.87897 -0.184447 0
M  V30 3498 O 351.31 1.63192 0.816984 0
M  V30 3499 C 351.361 2.56779 -2.54454 0
M  V30 3500 O 351.082 2.08476 -3.85317 0
M  V30 3501 C 352.583 3.49427 -2.72792 0
M  V30 3502 H 349.803 0.420325 -0.523037 0
M  V30 3503 H 352.347 0.718383 -1.91467 0
M  V30 3504 H 350.502 3.1845 -2.20609 0
M  V30 3505 H 350.916 2.86097 -4.396 0
M  V30 3506 H 352.39 4.29619 -3.466 0
M  V30 3507 H 352.867 4.00876 -1.79429 0
M  V30 3508 H 353.473 2.93598 -3.07702 0
M  V30 3509 N 351.788 1.33704 0.83433 0
M  V30 3510 C 352.751 1.24244 1.92603 0
M  V30 3511 C 353.751 0.160383 1.59998 0
M  V30 3512 O 354.941 0.412228 1.69252 0
M  V30 3513 C 352.073 0.91555 3.28376 0
M  V30 3514 H 353.266 2.21287 2.02416 0
M  V30 3515 H 350.819 1.17827 1.02696 0
M  V30 3516 H 351.554 -0.0521886 3.24258 0
M  V30 3517 H 351.339 1.69811 3.53422 0
M  V30 3518 H 352.829 0.874231 4.08347 0
M  V30 3519 N 353.266 -1.05314 1.17247 0
M  V30 3520 C 354.677 -1.59753 0.96623 0
M  V30 3521 C 355.028 -1.9005 -0.487378 0
M  V30 3522 O 354.153 -1.68126 -1.36245 0
M  V30 3523 C 354.748 -2.90249 1.74759 0
M  V30 3524 C 353.307 -3.41352 1.58606 0
M  V30 3525 C 352.454 -2.15103 1.75002 0
M  V30 3526 H 355.405 -0.881406 1.31973 0
M  V30 3527 H 355.426 -3.60097 1.22925 0
M  V30 3528 H 354.938 -2.68166 2.8055 0
M  V30 3529 H 353.039 -3.68474 0.552985 0
M  V30 3530 H 353.152 -4.16019 2.37624 0
M  V30 3531 H 351.516 -2.25804 1.17833 0
M  V30 3532 H 352.299 -1.95491 2.82202 0
M  V30 3533 N 354.744 -0.972509 -1.24016 0
M  V30 3534 C 355.654 -0.5143 -2.28893 0
M  V30 3535 C 356.67 0.427078 -1.68677 0
M  V30 3536 O 357.846 0.298939 -1.99169 0
M  V30 3537 C 354.911 0.183598 -3.46214 0
M  V30 3538 C 353.972 -0.798202 -4.21814 0
M  V30 3539 C 353.205 -0.133514 -5.33533 0
M  V30 3540 O 353.428 1.07714 -5.60137 0
M  V30 3541 O 352.362 -0.828103 -5.96176 0
M  V30 3542 H 356.188 -1.38629 -2.70214 0
M  V30 3543 H 353.773 -0.739769 -1.29799 0
M  V30 3544 H 355.655 0.575433 -4.17453 0
M  V30 3545 H 354.33 1.03048 -3.0686 0
M  V30 3546 H 353.237 -1.24059 -3.52931 0
M  V30 3547 H 354.57 -1.61364 -4.64997 0
M  V30 3548 N 356.222 1.38976 -0.743202 0
M  V30 3549 C 357.154 2.29096 -0.0689228 0
M  V30 3550 C 358.167 1.47229 0.694791 0
M  V30 3551 O 359.356 1.70212 0.537597 0
M  V30 3552 C 356.456 3.25988 0.926548 0
M  V30 3553 C 355.629 4.36833 0.222647 0
M  V30 3554 C 354.688 5.13981 1.12739 0
M  V30 3555 O 353.714 5.6601 0.601795 0
M  V30 3556 N 354.916 5.25966 2.45641 0
M  V30 3557 H 357.681 2.87604 -0.842846 0
M  V30 3558 H 355.242 1.50645 -0.593109 0
M  V30 3559 H 357.234 3.74476 1.5346 0
M  V30 3560 H 355.804 2.68453 1.60162 0
M  V30 3561 H 355.024 3.90116 -0.565983 0
M  V30 3562 H 356.312 5.0811 -0.264841 0
M  V30 3563 H 355.71 4.85228 2.9081 0
M  V30 3564 H 354.267 5.77865 3.01522 0
M  V30 3565 N 357.7 0.491464 1.49741 0
M  V30 3566 C 359.111 0.0413169 1.86654 0
M  V30 3567 C 359.462 -1.36985 1.40462 0
M  V30 3568 O 358.587 -2.01917 0.778354 0
M  V30 3569 C 359.182 0.0682023 3.38731 0
M  V30 3570 C 357.741 -0.32656 3.74981 0
M  V30 3571 C 356.888 0.444888 2.73708 0
M  V30 3572 H 359.839 0.704733 1.42194 0
M  V30 3573 H 359.86 -0.729322 3.73445 0
M  V30 3574 H 359.372 1.09539 3.72321 0
M  V30 3575 H 357.473 -1.35734 3.46997 0
M  V30 3576 H 357.586 -0.013741 4.79098 0
M  V30 3577 H 355.95 -0.104062 2.54487 0
M  V30 3578 H 356.733 1.47197 3.10142 0
M  V30 3579 N 359.178 -1.55987 0.224894 0
M  V30 3580 C 360.424 -1.98684 -0.406502 0
M  V30 3581 C 360.757 -1.11248 -1.59177 0
M  V30 3582 O 360.032 -0.170909 -1.93748 0
M  V30 3583 C 360.315 -3.50218 -0.837808 0
M  V30 3584 C 360.168 -4.48426 0.351332 0
M  V30 3585 C 361.487 -4.06243 -1.69278 0
M  V30 3586 H 358.606 -0.722337 -0.146283 0
M  V30 3587 H 361.248 -1.87255 0.321799 0
M  V30 3588 H 359.398 -3.60089 -1.45837 0
M  V30 3589 H 361.07 -4.50562 0.989526 0
M  V30 3590 H 359.313 -4.22159 0.998207 0
M  V30 3591 H 359.984 -5.52 0.00655905 0
M  V30 3592 H 362.46 -3.99337 -1.16914 0
M  V30 3593 H 361.336 -5.12581 -1.96346 0
M  V30 3594 H 361.597 -3.53332 -2.65723 0
M  V30 3595 N 360.656 0.0484629 -1.57525 0
M  V30 3596 C 361.933 0.777447 -1.79486 0
M  V30 3597 C 362.313 1.94597 -0.818251 0
M  V30 3598 O 361.661 2.28047 0.143767 0
M  V30 3599 C 361.871 1.22864 -3.26658 0
M  V30 3600 C 363.219 1.65251 -3.91123 0
M  V30 3601 O 364.243 1.32372 -3.3069 0
M  V30 3602 O 363.102 2.26207 -4.97486 0
M  V30 3603 H 360.196 0.374357 -0.737419 0
M  V30 3604 H 362.742 0.0267359 -1.69679 0
M  V30 3605 H 361.514 0.393589 -3.89316 0
M  V30 3606 H 361.137 2.03996 -3.41279 0
M  V30 3607 N 362.134 1.5431 0.320358 0
M  V30 3608 C 363.38 1.72924 1.05949 0
M  V30 3609 C 363.713 0.503185 1.87568 0
M  V30 3610 O 362.988 -0.499839 1.87968 0
M  V30 3611 C 363.271 3.00676 1.98156 0
M  V30 3612 C 363.124 4.3354 1.19845 0
M  V30 3613 C 364.443 3.24198 2.9763 0
M  V30 3614 H 361.562 0.629195 0.383774 0
M  V30 3615 H 364.204 1.87008 0.335854 0
M  V30 3616 H 362.354 2.888 2.59859 0
M  V30 3617 H 364.026 4.57305 0.605773 0
M  V30 3618 H 362.269 4.309 0.500784 0
M  V30 3619 H 362.94 5.19156 1.87567 0
M  V30 3620 H 365.416 3.35557 2.4605 0
M  V30 3621 H 364.292 4.14938 3.59329 0
M  V30 3622 H 364.553 2.41577 3.7026 0
M  V30 3623 N 363.613 -0.582584 1.46437 0
M  V30 3624 C 364.523 -1.71949 1.59595 0
M  V30 3625 C 365.539 -1.67264 0.479443 0
M  V30 3626 O 366.715 -1.87171 0.743579 0
M  V30 3627 C 363.78 -3.08452 1.58298 0
M  V30 3628 C 362.841 -3.244 2.81182 0
M  V30 3629 C 362.074 -4.54391 2.79937 0
M  V30 3630 O 362.297 -5.38287 1.8869 0
M  V30 3631 O 361.231 -4.73588 3.71481 0
M  V30 3632 H 365.057 -1.63795 2.55744 0
M  V30 3633 H 362.642 -0.749643 1.29231 0
M  V30 3634 H 364.524 -3.89732 1.60271 0
M  V30 3635 H 363.199 -3.17043 0.653094 0
M  V30 3636 H 362.106 -2.42613 2.84763 0
M  V30 3637 H 363.439 -3.20699 3.7338 0
M  V30 3638 N 365.091 -1.34144 -0.827227 0
M  V30 3639 C 366.337 -1.26446 -1.58554 0
M  V30 3640 C 366.67 0.1664 -1.93486 0
M  V30 3641 O 365.945 1.1107 -1.59667 0
M  V30 3642 C 366.228 -2.15111 -2.8879 0
M  V30 3643 C 366.081 -3.66712 -2.60465 0
M  V30 3644 C 367.4 -2.03311 -3.90324 0
M  V30 3645 H 364.519 -0.46067 -0.575284 0
M  V30 3646 H 367.161 -1.64356 -0.953269 0
M  V30 3647 H 365.311 -1.8291 -3.42748 0
M  V30 3648 H 366.983 -4.09259 -2.1285 0
M  V30 3649 H 365.226 -3.88014 -1.93978 0
M  V30 3650 H 365.897 -4.24112 -3.53317 0
M  V30 3651 H 368.373 -2.31574 -3.45706 0
M  V30 3652 H 367.249 -2.67582 -4.79261 0
M  V30 3653 H 367.51 -1.00879 -4.30437 0
M  V30 3654 N 366.569 1.04691 -1.17803 0
M  V30 3655 C 367.501 2.12571 -0.857097 0
M  V30 3656 C 368.514 1.62174 0.142647 0
M  V30 3657 O 369.703 1.78301 -0.0843387 0
M  V30 3658 C 366.803 3.37915 -0.258216 0
M  V30 3659 C 365.976 4.1757 -1.30207 0
M  V30 3660 C 365.035 5.2125 -0.720029 0
M  V30 3661 O 364.061 5.51888 -1.39314 0
M  V30 3662 N 365.263 5.78466 0.485507 0
M  V30 3663 H 368.028 2.40698 -1.78562 0
M  V30 3664 H 365.589 1.20831 -1.07757 0
M  V30 3665 H 367.581 4.04442 0.144584 0
M  V30 3666 H 366.151 3.07281 0.574199 0
M  V30 3667 H 365.371 3.46458 -1.88043 0
M  V30 3668 H 366.659 4.67586 -2.00601 0
M  V30 3669 H 366.057 5.55866 1.05022 0
M  V30 3670 H 364.614 6.4649 0.830307 0
M  V30 3671 N 368.047 0.979072 1.23499 0
M  V30 3672 C 369.324 0.563674 1.87302 0
M  V30 3673 C 369.704 -0.959199 1.88049 0
M  V30 3674 O 369.052 -1.83535 1.36114 0
M  V30 3675 C 369.262 1.16822 3.28867 0
M  V30 3676 C 370.61 1.26014 4.0547 0
M  V30 3677 O 371.634 1.12158 3.38082 0
M  V30 3678 O 370.493 1.48044 5.26066 0
M  V30 3679 H 367.587 0.189602 0.804972 0
M  V30 3680 H 370.133 1.07407 1.31384 0
M  V30 3681 H 368.905 2.21049 3.22883 0
M  V30 3682 H 368.528 0.642564 3.92373 0
M  V30 3683 N 369.525 -1.3858 0.750561 0
M  V30 3684 C 370.455 -2.33102 0.136237 0
M  V30 3685 C 371.436 -1.54713 -0.706965 0
M  V30 3686 O 372.621 -1.83043 -0.648769 0
M  V30 3687 C 369.751 -3.38882 -0.760017 0
M  V30 3688 C 368.705 -4.27995 -0.0197785 0
M  V30 3689 C 368.031 -5.24605 -1.03408 0
M  V30 3690 C 369.331 -5.09554 1.14684 0
M  V30 3691 H 371.025 -2.84726 0.925822 0
M  V30 3692 H 368.571 -1.36898 0.446654 0
M  V30 3693 H 370.524 -4.0397 -1.19943 0
M  V30 3694 H 369.248 -2.85734 -1.58189 0
M  V30 3695 H 367.907 -3.64409 0.400184 0
M  V30 3696 H 367.555 -4.67746 -1.84994 0
M  V30 3697 H 367.255 -5.85081 -0.543464 0
M  V30 3698 H 368.779 -5.9257 -1.47288 0
M  V30 3699 H 370.193 -5.67899 0.785118 0
M  V30 3700 H 368.59 -5.7925 1.56812 0
M  V30 3701 H 369.66 -4.4347 1.96118 0
M  V30 3702 N 371.003 -0.499398 -1.49478 0
M  V30 3703 C 371.913 0.284489 -2.32869 0
M  V30 3704 C 372.929 0.968885 -1.44529 0
M  V30 3705 O 374.105 0.95062 -1.77553 0
M  V30 3706 C 371.17 1.33594 -3.19928 0
M  V30 3707 C 370.231 0.665149 -4.24116 0
M  V30 3708 C 369.464 1.6665 -5.07014 0
M  V30 3709 O 369.687 2.89618 -4.91404 0
M  V30 3710 O 368.621 1.22271 -5.8935 0
M  V30 3711 H 372.447 -0.39802 -3.01081 0
M  V30 3712 H 370.032 -0.260758 -1.47107 0
M  V30 3713 H 371.914 1.94431 -3.73864 0
M  V30 3714 H 370.589 2.0014 -2.54412 0
M  V30 3715 H 369.496 0.0170769 -3.74096 0
M  V30 3716 H 370.829 0.0421555 -4.92182 0
M  V30 3717 N 372.481 1.55866 -0.233164 0
M  V30 3718 C 373.391 2.24431 0.683217 0
M  V30 3719 C 374.407 1.2558 1.2044 0
M  V30 3720 O 375.583 1.58422 1.24356 0
M  V30 3721 C 372.648 2.91979 1.86947 0
M  V30 3722 C 371.709 4.06204 1.38912 0
M  V30 3723 C 370.942 4.70522 2.51883 0
M  V30 3724 O 371.165 4.33865 3.70293 0
M  V30 3725 O 370.099 5.59296 2.22423 0
M  V30 3726 H 373.925 3.03426 0.129059 0
M  V30 3727 H 371.51 1.494 -0.0022283 0
M  V30 3728 H 373.392 3.34573 2.56201 0
M  V30 3729 H 372.067 2.15935 2.41151 0
M  V30 3730 H 370.974 3.68155 0.664259 0
M  V30 3731 H 372.307 4.84025 0.893328 0
M  V30 3732 N 373.959 -0.0401083 1.57549 0
M  V30 3733 C 375.206 -0.733125 1.88763 0
M  V30 3734 C 375.534 -1.75946 0.829058 0
M  V30 3735 O 374.789 -1.94949 -0.171323 0
M  V30 3736 C 375.088 -1.44902 3.26708 0
M  V30 3737 C 374.754 -0.559707 4.47413 0
M  V30 3738 C 373.416 -0.314731 4.8017 0
M  V30 3739 C 375.768 0.0549743 5.21171 0
M  V30 3740 C 373.096 0.553886 5.8408 0
M  V30 3741 C 375.448 0.911229 6.26003 0
M  V30 3742 C 374.112 1.16577 6.57241 0
M  V30 3743 H 373.382 -0.268269 0.690733 0
M  V30 3744 H 376.029 0.00679408 1.91499 0
M  V30 3745 H 374.334 -2.26197 3.1991 0
M  V30 3746 H 376.031 -1.99058 3.48105 0
M  V30 3747 H 372.621 -0.760793 4.21794 0
M  V30 3748 H 376.805 -0.121344 4.96152 0
M  V30 3749 H 372.061 0.759518 6.06664 0
M  V30 3750 H 376.235 1.3941 6.82303 0
M  V30 3751 H 373.862 1.84058 7.37582 0
M  V30 3752 N 375.437 -1.54477 -0.31217 0
M  V30 3753 C 376.4 -1.83923 -1.36766 0
M  V30 3754 C 377.4 -0.711563 -1.44199 0
M  V30 3755 O 378.59 -0.979866 -1.44029 0
M  V30 3756 C 375.722 -2.0095 -2.75376 0
M  V30 3757 H 376.915 -2.78239 -1.11906 0
M  V30 3758 H 374.468 -1.46369 -0.548257 0
M  V30 3759 H 375.203 -1.08883 -3.05475 0
M  V30 3760 H 374.988 -2.83018 -2.71373 0
M  V30 3761 H 376.478 -2.2514 -3.51713 0
M  V30 3762 N 376.915 0.57481 -1.46744 0
M  V30 3763 C 377.845 1.69337 -1.60771 0
M  V30 3764 C 378.826 1.63825 -0.457736 0
M  V30 3765 O 380.011 1.8172 -0.684947 0
M  V30 3766 C 377.141 3.0798 -1.60517 0
M  V30 3767 C 376.095 3.28327 -2.74564 0
M  V30 3768 C 375.421 4.67578 -2.59373 0
M  V30 3769 C 376.721 3.15398 -4.16319 0
M  V30 3770 H 378.415 1.57853 -2.54407 0
M  V30 3771 H 375.961 0.75799 -1.22436 0
M  V30 3772 H 377.914 3.86061 -1.68923 0
M  V30 3773 H 376.638 3.20381 -0.634305 0
M  V30 3774 H 375.297 2.52649 -2.65639 0
M  V30 3775 H 374.945 4.76755 -1.60353 0
M  V30 3776 H 374.645 4.82144 -3.35873 0
M  V30 3777 H 376.169 5.47817 -2.69682 0
M  V30 3778 H 377.583 3.83315 -4.26313 0
M  V30 3779 H 375.98 3.41482 -4.93468 0
M  V30 3780 H 377.05 2.12372 -4.3592 0
M  V30 3781 N 378.394 1.34581 0.820102 0
M  V30 3782 C 379.81 1.14325 1.11364 0
M  V30 3783 C 380.01 -0.0533648 2.01429 0
M  V30 3784 O 379.066 -0.728044 2.41776 0
M  V30 3785 C 380.379 2.43983 1.75764 0
M  V30 3786 C 381.927 2.50065 1.88246 0
M  V30 3787 C 382.402 3.79732 2.56061 0
M  V30 3788 N 383.893 3.80908 2.63558 0
M  V30 3789 C 384.628 4.77961 3.16766 0
M  V30 3790 N 384.124 5.85397 3.70517 0
M  V30 3791 N 385.917 4.65413 3.15194 0
M  V30 3792 H 378.068 2.11246 0.221096 0
M  V30 3793 H 380.331 0.934289 0.160649 0
M  V30 3794 H 380.037 3.31651 1.1705 0
M  V30 3795 H 379.911 2.57531 2.75604 0
M  V30 3796 H 382.298 1.62834 2.46108 0
M  V30 3797 H 382.379 2.40442 0.873006 0
M  V30 3798 H 382.023 4.67354 1.98853 0
M  V30 3799 H 381.953 3.86639 3.57516 0
M  V30 3800 H 384.444 3.03274 2.25463 0
M  V30 3801 H 384.757 6.55463 4.09376 0
M  V30 3802 H 383.102 5.89107 3.68752 0
M  V30 3803 H 386.293 3.80627 2.72471 0
M  V30 3804 H 386.466 5.41216 3.56356 0
M  V30 3805 N 379.872 -1.04064 1.18357 0
M  V30 3806 C 381.283 -1.58719 0.98312 0
M  V30 3807 C 381.634 -1.90556 -0.467193 0
M  V30 3808 O 380.759 -1.69561 -1.34454 0
M  V30 3809 C 381.354 -2.88379 1.77828 0
M  V30 3810 C 379.913 -3.3965 1.62218 0
M  V30 3811 C 379.06 -2.13235 1.77274 0
M  V30 3812 H 382.011 -0.867359 1.32901 0
M  V30 3813 H 382.032 -3.58773 1.26737 0
M  V30 3814 H 381.544 -2.65176 2.83379 0
M  V30 3815 H 379.645 -3.67866 0.592036 0
M  V30 3816 H 379.758 -4.13475 2.42023 0
M  V30 3817 H 378.122 -2.24542 1.20221 0
M  V30 3818 H 378.905 -1.92487 2.8426 0
M  V30 3819 N 381.35 -0.985608 -1.22978 0
M  V30 3820 C 382.313 -0.535071 -2.22867 0
M  V30 3821 C 383.313 0.378123 -1.56291 0
M  V30 3822 O 384.503 0.171092 -1.73358 0
M  V30 3823 C 381.635 0.222702 -3.40172 0
M  V30 3824 H 382.828 -1.41835 -2.6424 0
M  V30 3825 H 380.381 -0.772042 -1.35901 0
M  V30 3826 H 381.116 1.12229 -3.04262 0
M  V30 3827 H 380.901 -0.43288 -3.89703 0
M  V30 3828 H 382.391 0.526335 -4.1427 0
M  V30 3829 N 382.828 1.3818 -0.7579 0
M  V30 3830 C 384.239 1.82726 -0.383134 0
M  V30 3831 C 384.59 1.63214 1.08884 0
M  V30 3832 O 383.715 1.13566 1.84205 0
M  V30 3833 C 384.31 3.31728 -0.688631 0
M  V30 3834 C 382.869 3.74606 -0.367091 0
M  V30 3835 C 382.016 2.60896 -0.939599 0
M  V30 3836 H 384.967 1.26847 -0.953699 0
M  V30 3837 H 384.988 3.80487 0.0316492 0
M  V30 3838 H 384.5 3.45898 -1.76001 0
M  V30 3839 H 382.601 3.66013 0.697532 0
M  V30 3840 H 382.714 4.71215 -0.865658 0
M  V30 3841 H 381.078 2.52075 -0.3647 0
M  V30 3842 H 381.861 2.77864 -2.0161 0
M  V30 3843 N 384.306 0.507319 1.49211 0
M  V30 3844 C 385.238 -0.304532 2.27168 0
M  V30 3845 C 386.251 -0.924956 1.33972 0
M  V30 3846 O 387.44 -0.807227 1.59205 0
M  V30 3847 C 384.54 -1.44431 3.06583 0
M  V30 3848 C 383.713 -0.930026 4.27398 0
M  V30 3849 C 382.772 -1.94817 4.88807 0
M  V30 3850 O 381.798 -1.51418 5.4869 0
M  V30 3851 N 383 -3.279 4.79022 0
M  V30 3852 H 385.765 0.36395 2.97482 0
M  V30 3853 H 383.326 0.340249 1.58284 0
M  V30 3854 H 385.318 -2.12311 3.44537 0
M  V30 3855 H 383.888 -2.01684 2.38835 0
M  V30 3856 H 383.108 -0.0759244 3.94127 0
M  V30 3857 H 384.396 -0.564932 5.05654 0
M  V30 3858 H 383.794 -3.65843 4.3148 0
M  V30 3859 H 382.351 -3.91476 5.21142 0
M  V30 3860 N 385.784 -1.5574 0.241426 0
M  V30 3861 C 387.032 -1.98417 -0.384075 0
M  V30 3862 C 387.353 -1.13078 -1.58866 0
M  V30 3863 O 386.623 -0.212312 -1.94746 0
M  V30 3864 H 385.203 -0.732813 -0.144894 0
M  V30 3865 H 387.865 -1.9193 0.338943 0
M  V30 3866 H 386.961 -3.04219 -0.696939 0
M  V30 3867 N 387.262 0.0317525 -1.57568 0
M  V30 3868 C 388.511 0.722131 -1.8833 0
M  V30 3869 C 388.824 1.76664 -0.839587 0
M  V30 3870 O 390.03 2.50942 -1.03635 0
M  V30 3871 C 388.486 1.33544 -3.34207 0
M  V30 3872 C 388.094 0.327415 -4.46802 0
M  V30 3873 C 389.838 2.00585 -3.7412 0
M  V30 3874 C 387.745 0.948915 -5.83738 0
M  V30 3875 H 386.675 0.273466 -0.702661 0
M  V30 3876 H 389.326 -0.0235811 -1.83485 0
M  V30 3877 H 387.708 2.13077 -3.33788 0
M  V30 3878 H 388.882 -0.441006 -4.58685 0
M  V30 3879 H 387.197 -0.240758 -4.15703 0
M  V30 3880 H 389.794 2.47932 -4.73744 0
M  V30 3881 H 390.137 2.82285 -3.05975 0
M  V30 3882 H 390.67 1.27831 -3.76702 0
M  V30 3883 H 387.409 0.171387 -6.55276 0
M  V30 3884 H 386.929 1.68724 -5.7558 0
M  V30 3885 H 388.608 1.45705 -6.3038 0
M  V30 3886 N 388.74 1.54641 0.303973 0
M  V30 3887 C 389.968 1.77768 1.05858 0
M  V30 3888 C 390.383 0.535722 1.8104 0
M  V30 3889 O 389.74 -0.494337 1.75677 0
M  V30 3890 C 389.791 2.9834 2.04146 0
M  V30 3891 O 389.512 4.17736 1.32015 0
M  V30 3892 C 391.013 3.33832 2.91669 0
M  V30 3893 H 388.233 0.592961 0.314067 0
M  V30 3894 H 390.777 2.01583 0.344149 0
M  V30 3895 H 388.932 2.76742 2.71096 0
M  V30 3896 H 389.346 4.85693 1.97998 0
M  V30 3897 H 390.82 4.21448 3.56491 0
M  V30 3898 H 391.297 2.51857 3.59812 0
M  V30 3899 H 391.903 3.57579 2.30254 0
M  V30 3900 N 390.218 -0.567019 1.47046 0
M  V30 3901 C 391.467 -1.32091 1.5243 0
M  V30 3902 C 391.78 -1.94704 0.187021 0
M  V30 3903 O 392.986 -2.7124 0.118771 0
M  V30 3904 C 391.442 -2.39479 2.68659 0
M  V30 3905 C 391.05 -1.831 4.08874 0
M  V30 3906 C 392.794 -3.16111 2.83327 0
M  V30 3907 C 390.701 -2.8821 5.16419 0
M  V30 3908 H 389.631 -0.496629 0.56734 0
M  V30 3909 H 392.282 -0.603354 1.73297 0
M  V30 3910 H 390.664 -3.14105 2.41152 0
M  V30 3911 H 391.838 -1.14913 4.46242 0
M  V30 3912 H 390.153 -1.19085 3.99008 0
M  V30 3913 H 392.75 -3.94585 3.60842 0
M  V30 3914 H 393.093 -3.69686 1.91411 0
M  V30 3915 H 393.626 -2.48595 3.10556 0
M  V30 3916 H 390.365 -2.39504 6.10179 0
M  V30 3917 H 389.885 -3.54839 4.8358 0
M  V30 3918 H 391.564 -3.51881 5.42945 0
M  V30 3919 N 391.696 -1.35014 -0.812953 0
M  V30 3920 C 392.643 -1.27412 -1.92444 0
M  V30 3921 C 393.613 -0.14733 -1.65445 0
M  V30 3922 O 394.798 -0.329974 -1.87925 0
M  V30 3923 C 391.938 -1.04558 -3.28879 0
M  V30 3924 C 391.051 -2.26101 -3.68106 0
M  V30 3925 C 390.186 -1.96449 -4.9354 0
M  V30 3926 C 389.225 -3.14081 -5.25376 0
M  V30 3927 N 388.362 -2.84246 -6.41988 0
M  V30 3928 H 393.202 -2.22463 -1.98278 0
M  V30 3929 H 390.739 -1.10593 -0.969933 0
M  V30 3930 H 392.697 -0.893413 -4.07522 0
M  V30 3931 H 391.327 -0.131719 -3.22531 0
M  V30 3932 H 390.379 -2.52204 -2.84775 0
M  V30 3933 H 391.691 -3.13959 -3.87597 0
M  V30 3934 H 390.845 -1.78026 -5.79993 0
M  V30 3935 H 389.584 -1.05867 -4.76071 0
M  V30 3936 H 388.589 -3.33089 -4.37415 0
M  V30 3937 H 389.814 -4.05455 -5.44778 0
M  V30 3938 H 387.76 -1.96252 -6.25956 0
M  V30 3939 H 387.677 -3.65637 -6.61699 0
M  V30 3940 H 388.945 -2.6935 -7.31485 0
M  V30 3941 N 393.175 1.03435 -1.18907 0
M  V30 3942 C 394.415 1.78302 -0.999391 0
M  V30 3943 C 394.779 1.86353 0.462219 0
M  V30 3944 O 395.98 2.57489 0.771543 0
M  V30 3945 C 394.251 3.17362 -1.64365 0
M  V30 3946 S 395.81 4.08488 -1.6026 0
M  V30 3947 H 392.628 0.613861 -0.358742 0
M  V30 3948 H 395.23 1.23979 -1.51161 0
M  V30 3949 H 393.934 3.09116 -2.69955 0
M  V30 3950 H 393.465 3.76762 -1.13199 0
M  V30 3951 H 395.48 4.92274 -0.622932 0
M  V30 3952 N 394.653 0.992116 1.22453 0
M  V30 3953 C 396.069 0.702713 1.43297 0
M  V30 3954 C 396.269 -0.726909 1.87932 0
M  V30 3955 O 395.325 -1.49792 2.0327 0
M  V30 3956 C 396.638 1.70762 2.47509 0
M  V30 3957 C 398.186 1.72298 2.61309 0
M  V30 3958 C 398.661 2.71649 3.68742 0
M  V30 3959 N 400.152 2.70239 3.76199 0
M  V30 3960 C 400.887 3.43778 4.58917 0
M  V30 3961 N 400.383 4.26914 5.45633 0
M  V30 3962 N 402.176 3.32487 4.5322 0
M  V30 3963 H 394.327 1.91543 0.917871 0
M  V30 3964 H 396.59 0.826031 0.465162 0
M  V30 3965 H 396.296 2.73059 2.21657 0
M  V30 3966 H 396.17 1.49985 3.46099 0
M  V30 3967 H 398.557 0.706989 2.86506 0
M  V30 3968 H 398.638 1.97143 1.62997 0
M  V30 3969 H 398.282 3.73397 3.44292 0
M  V30 3970 H 398.212 2.44074 4.66622 0
M  V30 3971 H 400.703 2.09912 3.14237 0
M  V30 3972 H 401.016 4.79855 6.05771 0
M  V30 3973 H 399.361 4.31002 5.45218 0
M  V30 3974 H 402.552 2.6698 3.84499 0
M  V30 3975 H 402.725 3.90058 5.17454 0
M  V30 3976 N 396.131 -1.37776 0.765217 0
M  V30 3977 C 397.38 -1.99092 0.323307 0
M  V30 3978 C 397.693 -1.61434 -1.10446 0
M  V30 3979 O 398.899 -2.15805 -1.64743 0
M  V30 3980 C 397.355 -3.56019 0.527098 0
M  V30 3981 C 396.963 -4.0262 1.96471 0
M  V30 3982 C 398.707 -4.2424 0.148483 0
M  V30 3983 C 396.614 -5.52233 2.11644 0
M  V30 3984 H 395.544 -0.744846 0.117137 0
M  V30 3985 H 398.195 -1.57391 0.943417 0
M  V30 3986 H 396.577 -3.95667 -0.162372 0
M  V30 3987 H 397.751 -3.74234 2.68859 0
M  V30 3988 H 396.066 -3.47161 2.29931 0
M  V30 3989 H 398.663 -5.34159 0.240456 0
M  V30 3990 H 399.006 -4.06446 -0.900422 0
M  V30 3991 H 399.539 -3.89872 0.79025 0
M  V30 3992 H 396.278 -5.74945 3.1483 0
M  V30 3993 H 395.798 -5.82324 1.4373 0
M  V30 3994 H 397.477 -6.18106 1.91193 0
M  V30 3995 N 397.609 -0.515225 -1.4894 0
M  V30 3996 C 398.837 0.0206034 -2.0689 0
M  V30 3997 C 399.252 1.29514 -1.37374 0
M  V30 3998 O 398.609 1.76698 -0.456529 0
M  V30 3999 C 398.66 0.26351 -3.60538 0
M  V30 4000 O 398.381 -0.960517 -4.27441 0
M  V30 4001 C 399.882 0.841383 -4.35242 0
M  V30 4002 H 397.102 -0.0268608 -0.670462 0
M  V30 4003 H 399.646 -0.716651 -1.91532 0
M  V30 4004 H 397.801 0.950777 -3.75552 0
M  V30 4005 H 398.215 -0.73212 -5.19365 0
M  V30 4006 H 399.689 0.96085 -5.43573 0
M  V30 4007 H 400.166 1.8427 -3.98674 0
M  V30 4008 H 400.772 0.191143 -4.2487 0
M  V30 4009 N 399.087 1.5561 -0.249682 0
M  V30 4010 C 400.503 1.59254 0.105103 0
M  V30 4011 C 400.703 1.26685 1.56694 0
M  V30 4012 O 399.759 1.0155 2.31179 0
M  V30 4013 C 401.072 2.99687 -0.246592 0
M  V30 4014 C 402.62 3.12416 -0.191118 0
M  V30 4015 C 403.095 4.55074 -0.516885 0
M  V30 4016 N 404.586 4.60835 -0.467489 0
M  V30 4017 C 405.321 5.69201 -0.69268 0
M  V30 4018 N 404.817 6.85817 -0.981146 0
M  V30 4019 N 406.61 5.58635 -0.623198 0
M  V30 4020 H 398.761 1.75049 -1.20298 0
M  V30 4021 H 401.024 0.815003 -0.484225 0
M  V30 4022 H 400.73 3.28267 -1.26228 0
M  V30 4023 H 400.604 3.74798 0.424962 0
M  V30 4024 H 402.991 2.83615 0.815247 0
M  V30 4025 H 403.072 2.39573 -0.896563 0
M  V30 4026 H 402.716 4.84596 -1.52082 0
M  V30 4027 H 402.646 5.26181 0.210068 0
M  V30 4028 H 405.137 3.7705 -0.253373 0
M  V30 4029 H 405.45 7.64341 -1.14032 0
M  V30 4030 H 403.795 6.87494 -1.01865 0
M  V30 4031 H 406.986 4.66406 -0.397863 0
M  V30 4032 H 407.159 6.43017 -0.802093 0
M  V30 4033 N 400.565 -0.0233959 1.57583 0
M  V30 4034 C 401.842 -0.748794 1.807 0
M  V30 4035 C 402.222 -1.9327 0.849106 0
M  V30 4036 O 401.57 -2.28247 -0.107468 0
M  V30 4037 C 401.78 -1.17651 3.28571 0
M  V30 4038 C 403.128 -1.59008 3.93702 0
M  V30 4039 O 404.152 -1.27094 3.32755 0
M  V30 4040 O 403.011 -2.18264 5.01022 0
M  V30 4041 H 400.105 -0.362578 0.743281 0
M  V30 4042 H 402.651 0.000261958 1.697 0
M  V30 4043 H 401.423 -0.331603 3.89892 0
M  V30 4044 H 401.046 -1.98541 3.44481 0
M  V30 4045 N 402.043 -1.548 -0.295768 0
M  V30 4046 C 402.99 -1.86113 -1.36494 0
M  V30 4047 C 403.96 -0.7105 -1.50137 0
M  V30 4048 O 405.145 -0.959626 -1.64912 0
M  V30 4049 C 402.285 -2.11861 -2.72413 0
M  V30 4050 C 401.398 -3.39471 -2.67177 0
M  V30 4051 C 400.533 -3.55035 -3.95125 0
M  V30 4052 C 399.572 -4.76418 -3.84308 0
M  V30 4053 N 398.709 -4.8876 -5.04042 0
M  V30 4054 H 403.549 -2.77314 -1.09091 0
M  V30 4055 H 401.086 -1.37315 -0.52753 0
M  V30 4056 H 403.044 -2.24786 -3.51464 0
M  V30 4057 H 401.674 -1.2392 -2.98066 0
M  V30 4058 H 400.726 -3.35139 -1.79962 0
M  V30 4059 H 402.038 -4.28646 -2.55076 0
M  V30 4060 H 401.192 -3.67653 -4.82614 0
M  V30 4061 H 399.931 -2.64002 -4.10066 0
M  V30 4062 H 398.936 -4.63827 -2.95202 0
M  V30 4063 H 400.161 -5.68863 -3.70906 0
M  V30 4064 H 398.107 -4.00652 -5.19436 0
M  V30 4065 H 398.024 -5.71945 -4.94384 0
M  V30 4066 H 399.292 -5.0574 -5.93167 0
M  V30 4067 N 403.521 0.559213 -1.47345 0
M  V30 4068 C 404.468 1.66645 -1.59682 0
M  V30 4069 C 405.438 1.60168 -0.43994 0
M  V30 4070 O 406.623 1.79031 -0.659736 0
M  V30 4071 C 403.763 3.04969 -1.61518 0
M  V30 4072 C 402.876 3.21897 -2.88108 0
M  V30 4073 C 402.011 4.50608 -2.81294 0
M  V30 4074 C 401.05 4.60961 -4.02717 0
M  V30 4075 N 400.187 5.81024 -3.94151 0
M  V30 4076 H 405.027 1.55439 -2.54249 0
M  V30 4077 H 402.564 0.757219 -1.26113 0
M  V30 4078 H 404.522 3.85064 -1.60566 0
M  V30 4079 H 403.152 3.15015 -0.704645 0
M  V30 4080 H 402.204 2.35248 -2.98936 0
M  V30 4081 H 403.516 3.25412 -3.78032 0
M  V30 4082 H 402.67 5.3896 -2.7858 0
M  V30 4083 H 401.409 4.49568 -1.89049 0
M  V30 4084 H 400.414 3.71021 -4.05738 0
M  V30 4085 H 401.639 4.63761 -4.96087 0
M  V30 4086 H 399.585 5.80938 -3.04708 0
M  V30 4087 H 399.502 5.85909 -4.77752 0
M  V30 4088 H 400.77 6.71744 -3.9545 0
M  V30 4089 N 404.999 1.35443 0.805782 0
M  V30 4090 C 406.247 1.28507 1.55982 0
M  V30 4091 C 406.568 -0.140046 1.94496 0
M  V30 4092 O 405.838 -1.07666 1.63661 0
M  V30 4093 H 404.418 0.472676 0.578434 0
M  V30 4094 H 407.08 1.69555 0.961098 0
M  V30 4095 H 406.176 1.90148 2.47488 0
M  V30 4096 N 406.477 -1.02803 1.19454 0
M  V30 4097 C 407.41 -2.107 0.876396 0
M  V30 4098 C 408.388 -1.61741 -0.166897 0
M  V30 4099 O 409.572 -1.88451 -0.0430195 0
M  V30 4100 C 406.699 -3.37262 0.311758 0
M  V30 4101 C 405.745 -4.05093 1.33424 0
M  V30 4102 S 406.578 -4.50498 2.89503 0
M  V30 4103 C 407.734 -5.80277 2.34584 0
M  V30 4104 H 407.967 -2.37362 1.79016 0
M  V30 4105 H 405.5 -1.15755 1.02177 0
M  V30 4106 H 407.458 -4.10499 -0.00748752 0
M  V30 4107 H 406.119 -3.08693 -0.58032 0
M  V30 4108 H 405.312 -4.9611 0.888302 0
M  V30 4109 H 404.914 -3.3803 1.60037 0
M  V30 4110 H 407.206 -6.54873 1.73633 0
M  V30 4111 H 408.149 -6.29651 3.23952 0
M  V30 4112 H 408.557 -5.3599 1.77131 0
M  V30 4113 N 407.956 -0.998596 -1.21925 0
M  V30 4114 C 409.233 -0.593401 -1.86382 0
M  V30 4115 C 409.613 0.92916 -1.89552 0
M  V30 4116 O 408.961 1.81347 -1.39017 0
M  V30 4117 C 409.171 -1.22039 -3.26967 0
M  V30 4118 C 410.519 -1.32449 -4.03413 0
M  V30 4119 O 411.543 -1.17522 -3.36254 0
M  V30 4120 O 410.402 -1.56395 -5.23644 0
M  V30 4121 H 407.496 -0.202385 -0.801854 0
M  V30 4122 H 410.042 -1.09484 -1.29659 0
M  V30 4123 H 408.814 -2.26158 -3.19325 0
M  V30 4124 H 408.437 -0.704906 -3.91301 0
M  V30 4125 N 409.434 1.37368 -0.772513 0
M  V30 4126 C 410.85 1.53059 -0.452231 0
M  V30 4127 C 411.05 1.73065 1.03203 0
M  V30 4128 O 410.106 1.75245 1.81784 0
M  V30 4129 C 411.419 2.72659 -1.26797 0
M  V30 4130 C 412.967 2.86521 -1.25995 0
M  V30 4131 C 413.442 4.09105 -2.05905 0
M  V30 4132 N 414.933 4.16219 -2.03263 0
M  V30 4133 C 415.668 5.10107 -2.61875 0
M  V30 4134 N 415.164 6.09547 -3.29278 0
M  V30 4135 N 416.957 5.02596 -2.51701 0
M  V30 4136 H 409.108 1.22634 -1.7342 0
M  V30 4137 H 411.371 0.597206 -0.736239 0
M  V30 4138 H 411.077 2.64343 -2.31982 0
M  V30 4139 H 410.951 3.66363 -0.897672 0
M  V30 4140 H 413.338 2.94308 -0.216081 0
M  V30 4141 H 413.419 1.93774 -1.66989 0
M  V30 4142 H 413.063 4.0208 -3.10313 0
M  V30 4143 H 412.993 5.00968 -1.62292 0
M  V30 4144 H 415.484 3.45012 -1.54192 0
M  V30 4145 H 415.797 6.77718 -3.71374 0
M  V30 4146 H 414.142 6.09824 -3.33377 0
M  V30 4147 H 417.333 4.23855 -1.98657 0
M  V30 4148 H 417.506 5.75582 -2.97673 0
M  V30 4149 N 410.912 0.523116 1.48665 0
M  V30 4150 C 412.16 -0.0134497 2.02096 0
M  V30 4151 C 412.481 -1.35418 1.40311 0
M  V30 4152 O 411.751 -1.87543 0.566074 0
M  V30 4153 H 410.331 -0.00795915 0.746958 0
M  V30 4154 H 412.993 0.685388 1.82451 0
M  V30 4155 H 412.089 -0.126849 3.11842 0
M  V30 4156 N 412.39 -1.55475 0.257931 0
M  V30 4157 C 413.323 -2.179 -0.677862 0
M  V30 4158 C 414.301 -1.13448 -1.16483 0
M  V30 4159 O 415.485 -1.41889 -1.24095 0
M  V30 4160 C 412.612 -2.78851 -1.92249 0
M  V30 4161 C 411.658 -3.96454 -1.57246 0
M  V30 4162 S 412.491 -5.31349 -0.665501 0
M  V30 4163 C 413.647 -5.9576 -1.91889 0
M  V30 4164 H 413.88 -2.96934 -0.147396 0
M  V30 4165 H 411.413 -1.54342 0.0423023 0
M  V30 4166 H 413.371 -3.14602 -2.63697 0
M  V30 4167 H 412.032 -1.99742 -2.42409 0
M  V30 4168 H 411.225 -4.37731 -2.49814 0
M  V30 4169 H 410.827 -3.62038 -0.938325 0
M  V30 4170 H 413.119 -6.13947 -2.86487 0
M  V30 4171 H 414.062 -6.9094 -1.54942 0
M  V30 4172 H 414.47 -5.2494 -2.076 0
M  V30 4173 N 413.868 0.0150385 -1.57593 0
M  V30 4174 C 415.098 0.713359 -1.93894 0
M  V30 4175 C 415.506 1.68663 -0.857289 0
M  V30 4176 O 414.849 1.82876 0.173788 0
M  V30 4177 C 414.911 1.51348 -3.26089 0
M  V30 4178 C 414.575 0.703451 -4.51554 0
M  V30 4179 C 415.572 -0.00237924 -5.199 0
M  V30 4180 C 413.257 0.653854 -4.98026 0
M  V30 4181 C 415.251 -0.746955 -6.33008 0
M  V30 4182 C 412.938 -0.0944578 -6.11027 0
M  V30 4183 C 413.936 -0.793609 -6.78374 0
M  V30 4184 O 413.624 -1.52974 -7.89211 0
M  V30 4185 H 413.356 0.204637 -0.644282 0
M  V30 4186 H 415.91 -0.0276411 -2.05381 0
M  V30 4187 H 414.14 2.29862 -3.10967 0
M  V30 4188 H 415.829 2.09572 -3.47612 0
M  V30 4189 H 416.595 0.0268803 -4.84993 0
M  V30 4190 H 412.474 1.18756 -4.45441 0
M  V30 4191 H 416.018 -1.2932 -6.85509 0
M  V30 4192 H 411.915 -0.125591 -6.45378 0
M  V30 4193 H 412.683 -1.44488 -8.05646 0
M  V30 4194 N 415.346 1.54954 0.287554 0
M  V30 4195 C 416.757 1.65732 0.859634 0
M  V30 4196 C 417.108 0.574767 1.87592 0
M  V30 4197 O 416.233 -0.286299 2.14498 0
M  V30 4198 C 416.828 3.00438 1.56597 0
M  V30 4199 C 415.387 3.13292 2.08627 0
M  V30 4200 C 414.534 2.61473 0.923416 0
M  V30 4201 H 417.485 1.5857 0.0642338 0
M  V30 4202 H 417.506 2.92613 2.43224 0
M  V30 4203 H 417.018 3.79207 0.826053 0
M  V30 4204 H 415.119 2.39268 2.85625 0
M  V30 4205 H 415.232 4.19647 2.31157 0
M  V30 4206 H 413.596 2.18264 1.31275 0
M  V30 4207 H 414.379 3.42733 0.197241 0
M  V30 4208 N 416.824 -0.551391 1.4764 0
M  V30 4209 C 418.052 -1.33357 1.58189 0
M  V30 4210 C 418.467 -1.87342 0.234199 0
M  V30 4211 O 417.824 -1.65301 -0.77343 0
M  V30 4212 C 417.875 -2.49942 2.61173 0
M  V30 4213 O 417.596 -1.98187 3.90709 0
M  V30 4214 C 419.097 -3.42072 2.8196 0
M  V30 4215 H 416.317 -0.40631 0.533998 0
M  V30 4216 H 418.861 -0.667367 1.93304 0
M  V30 4217 H 417.016 -3.12489 2.28975 0
M  V30 4218 H 417.43 -2.74342 4.47031 0
M  V30 4219 H 418.904 -4.20278 3.57869 0
M  V30 4220 H 419.381 -3.95978 1.89995 0
M  V30 4221 H 419.987 -2.85336 3.15378 0
M  V30 4222 N 418.302 -1.35869 -0.798587 0
M  V30 4223 C 419.532 -1.32529 -1.58491 0
M  V30 4224 C 419.94 0.0975405 -1.88948 0
M  V30 4225 O 419.283 1.06224 -1.49874 0
M  V30 4226 C 419.345 -2.07247 -2.9375 0
M  V30 4227 C 419.009 -3.56391 -2.86068 0
M  V30 4228 C 420.006 -4.50824 -2.58947 0
M  V30 4229 C 417.691 -3.9915 -3.04933 0
M  V30 4230 C 419.685 -5.85993 -2.5078 0
M  V30 4231 C 417.372 -5.34413 -2.96389 0
M  V30 4232 C 418.37 -6.27646 -2.69349 0
M  V30 4233 O 418.058 -7.60426 -2.60782 0
M  V30 4234 H 417.79 -0.456529 -0.498556 0
M  V30 4235 H 420.344 -1.79425 -0.999799 0
M  V30 4236 H 418.574 -1.55001 -3.54276 0
M  V30 4237 H 420.263 -1.96883 -3.54954 0
M  V30 4238 H 421.029 -4.19104 -2.44084 0
M  V30 4239 H 416.908 -3.26961 -3.24989 0
M  V30 4240 H 420.452 -6.58735 -2.29595 0
M  V30 4241 H 416.349 -5.65743 -3.10813 0
M  V30 4242 H 417.117 -7.70444 -2.76331 0
M  V30 4243 N 419.78 1.02168 -1.19998 0
M  V30 4244 C 421.027 1.75685 -1.00702 0
M  V30 4245 C 421.355 1.88947 0.461426 0
M  V30 4246 O 420.61 1.40832 1.35885 0
M  V30 4247 C 420.909 3.18081 -1.62969 0
M  V30 4248 C 420.575 3.24809 -3.12746 0
M  V30 4249 C 419.237 3.26352 -3.53621 0
M  V30 4250 C 421.589 3.23379 -4.08749 0
M  V30 4251 C 418.917 3.2413 -4.89036 0
M  V30 4252 C 421.269 3.22698 -5.44104 0
M  V30 4253 C 419.933 3.22542 -5.84399 0
M  V30 4254 H 419.203 0.642877 -0.368496 0
M  V30 4255 H 421.85 1.19865 -1.49348 0
M  V30 4256 H 420.155 3.77027 -1.06573 0
M  V30 4257 H 421.852 3.73648 -1.45561 0
M  V30 4258 H 418.442 3.2434 -2.80181 0
M  V30 4259 H 422.626 3.21361 -3.78207 0
M  V30 4260 H 417.882 3.22338 -5.19527 0
M  V30 4261 H 422.056 3.20543 -6.18244 0
M  V30 4262 H 419.683 3.20575 -6.89301 0
M  V30 4263 N 421.258 1.00505 1.21394 0
M  V30 4264 C 422.188 0.585684 2.26035 0
M  V30 4265 C 423.169 -0.393525 1.65485 0
M  V30 4266 O 424.354 -0.281497 1.92149 0
M  V30 4267 C 421.484 -0.0884283 3.47187 0
M  V30 4268 C 420.438 0.810567 4.20254 0
M  V30 4269 C 419.764 0.00286382 5.347 0
M  V30 4270 C 421.064 2.1132 4.77641 0
M  V30 4271 H 422.758 1.46039 2.61368 0
M  V30 4272 H 420.304 0.703648 1.25638 0
M  V30 4273 H 422.257 -0.393286 4.19561 0
M  V30 4274 H 420.981 -0.997766 3.10986 0
M  V30 4275 H 419.64 1.09925 3.49731 0
M  V30 4276 H 419.288 -0.907765 4.94741 0
M  V30 4277 H 418.988 0.601444 5.84514 0
M  V30 4278 H 420.512 -0.295808 6.09883 0
M  V30 4279 H 421.926 1.87148 5.41893 0
M  V30 4280 H 420.323 2.66164 5.37845 0
M  V30 4281 H 421.393 2.78393 3.9702 0
M  V30 4282 N 422.737 -1.36956 0.779787 0
M  V30 4283 C 423.687 -2.27539 0.144892 0
M  V30 4284 C 424.671 -1.46493 -0.665488 0
M  V30 4285 O 425.863 -1.68968 -0.527141 0
M  V30 4286 C 422.992 -3.35512 -0.727082 0
M  V30 4287 C 422.078 -4.24001 0.0915642 0
M  V30 4288 N 422.469 -4.92757 1.14125 0
M  V30 4289 C 420.767 -4.45807 -0.131141 0
M  V30 4290 C 421.468 -5.58138 1.6388 0
M  V30 4291 N 420.444 -5.35241 0.94962 0
M  V30 4292 H 424.246 -2.78176 0.948446 0
M  V30 4293 H 421.76 -1.50169 0.618315 0
M  V30 4294 H 423.757 -3.99324 -1.19776 0
M  V30 4295 H 422.417 -2.86431 -1.52929 0
M  V30 4296 H 423.428 -4.94984 1.52353 0
M  V30 4297 H 420.105 -4.07582 -0.904621 0
M  V30 4298 H 421.495 -6.23071 2.51461 0
M  V30 4299 N 424.215 -0.530993 -1.48385 0
M  V30 4300 C 425.145 0.219985 -2.32461 0
M  V30 4301 C 426.126 0.934111 -1.42156 0
M  V30 4302 O 427.311 0.919694 -1.71042 0
M  V30 4303 C 424.441 1.26674 -3.23375 0
M  V30 4304 C 423.395 0.67069 -4.22712 0
M  V30 4305 C 422.721 1.82017 -5.02766 0
M  V30 4306 C 424.021 -0.358268 -5.2107 0
M  V30 4307 H 425.715 -0.48187 -2.95497 0
M  V30 4308 H 423.261 -0.233182 -1.42099 0
M  V30 4309 H 425.214 1.80006 -3.81019 0
M  V30 4310 H 423.938 1.99818 -2.58341 0
M  V30 4311 H 422.597 0.158878 -3.66256 0
M  V30 4312 H 422.245 2.54002 -4.34157 0
M  V30 4313 H 421.945 1.42727 -5.70003 0
M  V30 4314 H 423.469 2.35725 -5.63264 0
M  V30 4315 H 424.883 0.0880081 -5.73232 0
M  V30 4316 H 423.28 -0.66861 -5.96364 0
M  V30 4317 H 424.35 -1.26367 -4.68145 0
M  V30 4318 N 425.693 1.55336 -0.266172 0
M  V30 4319 C 426.97 1.91372 0.404486 0
M  V30 4320 C 427.35 1.18935 1.74407 0
M  V30 4321 O 426.698 0.3132 2.26343 0
M  V30 4322 C 426.908 3.44581 0.553593 0
M  V30 4323 C 428.256 4.16196 0.840618 0
M  V30 4324 O 429.28 3.50426 0.638739 0
M  V30 4325 O 428.139 5.32567 1.22618 0
M  V30 4326 H 425.233 0.797194 0.220025 0
M  V30 4327 H 427.779 1.66813 -0.311664 0
M  V30 4328 H 426.551 3.89357 -0.389498 0
M  V30 4329 H 426.174 3.75065 1.31955 0
M  V30 4330 N 427.171 -0.0066808 1.57599 0
M  V30 4331 C 428.587 -0.36267 1.55425 0
M  V30 4332 C 428.787 -1.75209 0.995187 0
M  V30 4333 O 427.843 -2.44616 0.626058 0
M  V30 4334 C 429.156 -0.244017 2.99708 0
M  V30 4335 C 430.704 -0.319451 3.11366 0
M  V30 4336 C 431.179 -0.229998 4.57422 0
M  V30 4337 N 432.67 -0.288105 4.62303 0
M  V30 4338 C 433.405 -0.242127 5.72889 0
M  V30 4339 N 432.901 -0.147133 6.92644 0
M  V30 4340 N 434.694 -0.293502 5.61333 0
M  V30 4341 H 426.845 0.902314 1.92281 0
M  V30 4342 H 429.108 0.34525 0.882896 0
M  V30 4343 H 428.814 0.711678 3.44424 0
M  V30 4344 H 428.688 -1.02877 3.629 0
M  V30 4345 H 431.075 -1.26559 2.66584 0
M  V30 4346 H 431.156 0.495055 2.50964 0
M  V30 4347 H 430.8 0.712566 5.02877 0
M  V30 4348 H 430.73 -1.0629 5.15761 0
M  V30 4349 H 433.221 -0.363126 3.76151 0
M  V30 4350 H 433.534 -0.117763 7.7271 0
M  V30 4351 H 431.879 -0.112857 6.94908 0
M  V30 4352 H 435.07 -0.365864 4.66668 0
M  V30 4353 H 435.243 -0.254204 6.47501 0
M  V30 4354 N 428.649 -1.55105 -0.279332 0
M  V30 4355 C 429.559 -1.90638 -1.36727 0
M  V30 4356 C 430.575 -0.802899 -1.54368 0
M  V30 4357 O 431.751 -1.10138 -1.68616 0
M  V30 4358 C 428.816 -2.16547 -2.70755 0
M  V30 4359 C 427.877 -3.40146 -2.61915 0
M  V30 4360 C 427.11 -3.6481 -3.8955 0
M  V30 4361 O 427.333 -2.92095 -4.89935 0
M  V30 4362 O 426.267 -4.58343 -3.90135 0
M  V30 4363 H 430.093 -2.83237 -1.09591 0
M  V30 4364 H 427.678 -1.4157 -0.477306 0
M  V30 4365 H 429.56 -2.34665 -3.50014 0
M  V30 4366 H 428.235 -1.27131 -2.9769 0
M  V30 4367 H 427.142 -3.2737 -1.81052 0
M  V30 4368 H 428.475 -4.29761 -2.3993 0
M  V30 4369 N 430.127 0.543554 -1.4793 0
M  V30 4370 C 431.404 1.30458 -1.4574 0
M  V30 4371 C 431.784 2.1048 -0.161692 0
M  V30 4372 O 431.132 2.11831 0.856734 0
M  V30 4373 C 431.342 2.19754 -2.71126 0
M  V30 4374 C 432.69 2.80334 -3.18901 0
M  V30 4375 O 433.714 2.30049 -2.71948 0
M  V30 4376 O 432.573 3.71766 -4.00565 0
M  V30 4377 H 429.667 0.588117 -0.581418 0
M  V30 4378 H 432.213 0.561328 -1.60147 0
M  V30 4379 H 430.985 1.60316 -3.56952 0
M  V30 4380 H 430.608 3.01351 -2.59371 0
M  V30 4381 N 431.605 1.3629 0.791371 0
M  V30 4382 C 432.853 1.30154 1.5461 0
M  V30 4383 C 433.174 -0.119409 1.94634 0
M  V30 4384 O 432.444 -1.05924 1.64794 0
M  V30 4385 H 431.024 0.478784 0.573389 0
M  V30 4386 H 433.686 1.70565 0.94306 0
M  V30 4387 H 432.782 1.92762 2.45457 0
M  V30 4388 N 433.083 -1.0153 1.20538 0
M  V30 4389 C 434.03 -2.10098 0.955383 0
M  V30 4390 C 435 -1.65702 -0.114878 0
M  V30 4391 O 436.185 -1.90776 0.0301118 0
M  V30 4392 C 433.325 -3.41236 0.514969 0
M  V30 4393 C 432.438 -3.99102 1.65353 0
M  V30 4394 C 431.573 -5.18306 1.16329 0
M  V30 4395 C 430.612 -5.68258 2.27485 0
M  V30 4396 N 429.749 -6.78722 1.7967 0
M  V30 4397 H 434.589 -2.30818 1.88486 0
M  V30 4398 H 432.126 -1.13189 0.939499 0
M  V30 4399 H 434.084 -4.16504 0.240935 0
M  V30 4400 H 432.714 -3.20585 -0.377512 0
M  V30 4401 H 431.766 -3.20918 2.04245 0
M  V30 4402 H 433.078 -4.32177 2.49047 0
M  V30 4403 H 432.232 -6.00782 0.845302 0
M  V30 4404 H 430.971 -4.86799 0.296254 0
M  V30 4405 H 429.976 -4.84385 2.60099 0
M  V30 4406 H 431.201 -6.01798 3.14667 0
M  V30 4407 H 429.147 -6.49042 0.95295 0
M  V30 4408 H 429.064 -7.10996 2.56944 0
M  V30 4409 H 430.332 -7.64759 1.50875 0
M  V30 4410 N 434.561 -1.01147 -1.20859 0
M  V30 4411 C 435.508 -0.577354 -2.23462 0
M  V30 4412 C 436.478 0.399922 -1.61214 0
M  V30 4413 O 437.663 0.300515 -1.88419 0
M  V30 4414 C 434.803 0.083372 -3.44999 0
M  V30 4415 C 433.916 -0.937856 -4.21697 0
M  V30 4416 C 433.051 -0.248717 -5.30617 0
M  V30 4417 C 432.09 -1.25705 -5.99053 0
M  V30 4418 N 431.227 -0.594939 -6.99575 0
M  V30 4419 H 436.067 -1.45695 -2.59956 0
M  V30 4420 H 433.604 -0.729428 -1.27741 0
M  V30 4421 H 435.562 0.483535 -4.14388 0
M  V30 4422 H 434.192 0.926645 -3.09214 0
M  V30 4423 H 433.244 -1.45622 -3.51423 0
M  V30 4424 H 434.556 -1.70493 -4.68757 0
M  V30 4425 H 433.71 0.207215 -6.06346 0
M  V30 4426 H 432.449 0.55071 -4.84581 0
M  V30 4427 H 431.454 -1.72343 -5.2209 0
M  V30 4428 H 432.679 -2.05767 -6.47176 0
M  V30 4429 H 430.625 0.184713 -6.5574 0
M  V30 4430 H 430.542 -1.30017 -7.44736 0
M  V30 4431 H 431.81 -0.162427 -7.79331 0
M  V30 4432 N 436.039 1.36541 -0.78704 0
M  V30 4433 C 437.285 1.99599 -0.358872 0
M  V30 4434 C 437.618 1.62323 1.06606 0
M  V30 4435 O 436.893 0.876858 1.73613 0
M  V30 4436 C 437.176 3.56327 -0.519944 0
M  V30 4437 C 437.029 4.03464 -1.98839 0
M  V30 4438 C 438.348 4.4005 0.0664737 0
M  V30 4439 H 435.467 0.725107 -0.131869 0
M  V30 4440 H 438.109 1.6199 -0.992936 0
M  V30 4441 H 436.259 3.88495 0.0198321 0
M  V30 4442 H 437.931 3.81793 -2.58905 0
M  V30 4443 H 436.174 3.55092 -2.49183 0
M  V30 4444 H 436.845 5.12439 -2.05207 0
M  V30 4445 H 439.321 4.14228 -0.394267 0
M  V30 4446 H 438.197 5.48847 -0.0762682 0
M  V30 4447 H 438.458 4.26655 1.15835 0
M  V30 4448 N 437.518 0.538854 1.48102 0
M  V30 4449 C 438.765 0.0080018 2.02498 0
M  V30 4450 C 439.093 -1.33437 1.41509 0
M  V30 4451 O 438.348 -1.87709 0.553507 0
M  V30 4452 C 438.647 -0.153808 3.57069 0
M  V30 4453 C 438.313 1.11533 4.36888 0
M  V30 4454 C 436.975 1.46314 4.58417 0
M  V30 4455 C 439.327 1.95718 4.83057 0
M  V30 4456 C 436.655 2.6516 5.23361 0
M  V30 4457 C 439.007 3.13751 5.49312 0
M  V30 4458 C 437.671 3.48866 5.69077 0
M  V30 4459 H 436.941 0.00292807 0.740994 0
M  V30 4460 H 439.588 0.706668 1.77984 0
M  V30 4461 H 437.893 -0.935309 3.80472 0
M  V30 4462 H 439.59 -0.579607 3.96789 0
M  V30 4463 H 436.18 0.834484 4.20398 0
M  V30 4464 H 440.364 1.70158 4.66219 0
M  V30 4465 H 435.62 2.92558 5.36861 0
M  V30 4466 H 439.794 3.79282 5.84053 0
M  V30 4467 H 437.421 4.41054 6.19173 0
M  V30 4468 N 438.996 -1.55193 0.274407 0
M  V30 4469 C 439.926 -2.25471 -0.607032 0
M  V30 4470 C 440.907 -1.24461 -1.15946 0
M  V30 4471 O 442.092 -1.53179 -1.19373 0
M  V30 4472 C 439.222 -2.97526 -1.79153 0
M  V30 4473 C 438.176 -4.05459 -1.37067 0
M  V30 4474 C 437.502 -4.65084 -2.6382 0
M  V30 4475 C 438.802 -5.19691 -0.521389 0
M  V30 4476 H 440.496 -2.99393 -0.0209343 0
M  V30 4477 H 438.042 -1.43997 -0.00862866 0
M  V30 4478 H 439.995 -3.45402 -2.41404 0
M  V30 4479 H 438.719 -2.21138 -2.40344 0
M  V30 4480 H 437.378 -3.58393 -0.771355 0
M  V30 4481 H 437.026 -3.85365 -3.23268 0
M  V30 4482 H 436.726 -5.37961 -2.36372 0
M  V30 4483 H 438.25 -5.15708 -3.26921 0
M  V30 4484 H 439.664 -5.63623 -1.04889 0
M  V30 4485 H 438.061 -5.99126 -0.341825 0
M  V30 4486 H 439.131 -4.82713 0.46 0
M  V30 4487 N 440.474 -0.00167713 -1.576 0
M  V30 4488 C 441.404 0.988091 -2.11563 0
M  V30 4489 C 442.385 1.35736 -1.02517 0
M  V30 4490 O 443.57 1.44082 -1.30208 0
M  V30 4491 C 440.7 2.27941 -2.62031 0
M  V30 4492 C 439.654 2.0517 -3.75619 0
M  V30 4493 C 438.98 3.4033 -4.12407 0
M  V30 4494 C 440.28 1.41294 -5.02825 0
M  V30 4495 H 441.974 0.538771 -2.94513 0
M  V30 4496 H 439.52 0.257712 -1.41675 0
M  V30 4497 H 441.473 2.97539 -2.9841 0
M  V30 4498 H 440.197 2.74989 -1.76205 0
M  V30 4499 H 438.856 1.37998 -3.39635 0
M  V30 4500 H 438.504 3.85085 -3.23603 0
M  V30 4501 H 438.204 3.25909 -4.88935 0
M  V30 4502 H 439.728 4.1124 -4.51347 0
M  V30 4503 H 441.142 2.00851 -5.36965 0
M  V30 4504 H 439.539 1.37356 -5.84169 0
M  V30 4505 H 440.609 0.382362 -4.8339 0
M  V30 4506 N 441.952 1.55251 0.271103 0
M  V30 4507 C 442.915 1.87484 1.31842 0
M  V30 4508 C 443.915 0.749545 1.42262 0
M  V30 4509 O 445.105 1.01771 1.4138 0
M  V30 4510 C 442.237 2.0818 2.69951 0
M  V30 4511 H 443.43 2.81108 1.0449 0
M  V30 4512 H 440.983 1.47771 0.509258 0
M  V30 4513 H 441.718 1.16944 3.02481 0
M  V30 4514 H 441.503 2.90114 2.63774 0
M  V30 4515 H 442.993 2.34385 3.4562 0
M  V30 4516 N 443.43 -0.535701 1.48216 0
M  V30 4517 C 444.678 -1.28928 1.55634 0
M  V30 4518 C 444.999 -1.93645 0.229514 0
M  V30 4519 O 444.269 -1.81038 -0.74846 0
M  V30 4520 H 442.849 -0.47884 0.573342 0
M  V30 4521 H 445.511 -0.623853 1.84646 0
M  V30 4522 H 444.607 -2.07157 2.33436 0
M  V30 4523 N 444.908 -1.36708 -0.784132 0
M  V30 4524 C 446.324 -1.17237 -1.08294 0
M  V30 4525 C 446.524 -5.93947e-05 -2.015 0
M  V30 4526 O 445.58 0.663686 -2.43622 0
M  V30 4527 C 446.893 -2.48557 -1.69233 0
M  V30 4528 C 448.441 -2.54968 -1.8155 0
M  V30 4529 C 448.916 -3.86388 -2.45904 0
M  V30 4530 N 450.407 -3.87762 -2.53367 0
M  V30 4531 C 451.142 -4.86191 -3.03983 0
M  V30 4532 N 450.638 -5.95015 -3.54866 0
M  V30 4533 N 452.431 -4.73606 -3.02743 0
M  V30 4534 H 444.582 -2.11758 -0.16501 0
M  V30 4535 H 446.845 -0.93822 -0.135822 0
M  V30 4536 H 446.551 -3.34638 -1.08215 0
M  V30 4537 H 446.425 -2.64748 -2.68679 0
M  V30 4538 H 448.812 -1.69302 -2.41704 0
M  V30 4539 H 448.893 -2.42672 -0.80895 0
M  V30 4540 H 448.537 -4.72462 -1.86392 0
M  V30 4541 H 448.467 -3.95982 -3.4714 0
M  V30 4542 H 450.958 -3.09145 -2.17343 0
M  V30 4543 H 451.271 -6.66086 -3.91854 0
M  V30 4544 H 449.616 -5.98676 -3.53003 0
M  V30 4545 H 452.807 -3.87717 -2.62284 0
M  V30 4546 H 452.98 -5.50473 -3.41881 0
M  V30 4547 N 446.386 1.0089 -1.21074 0
M  V30 4548 C 447.333 2.09588 -0.966512 0
M  V30 4549 C 448.303 1.65761 0.106089 0
M  V30 4550 O 449.488 1.90758 -0.0402287 0
M  V30 4551 C 446.628 3.40958 -0.533058 0
M  V30 4552 C 445.741 3.9822 -1.67467 0
M  V30 4553 C 444.876 5.17682 -1.19076 0
M  V30 4554 C 443.915 5.67043 -2.30496 0
M  V30 4555 N 443.052 6.77759 -1.83267 0
M  V30 4556 H 447.892 2.29815 -1.89708 0
M  V30 4557 H 445.429 1.12689 -0.945489 0
M  V30 4558 H 447.387 4.1637 -0.263019 0
M  V30 4559 H 446.017 3.20781 0.360505 0
M  V30 4560 H 445.069 3.1983 -2.05944 0
M  V30 4561 H 446.381 4.3085 -2.51336 0
M  V30 4562 H 445.535 6.00326 -0.877151 0
M  V30 4563 H 444.274 4.86635 -0.322066 0
M  V30 4564 H 443.279 4.82999 -2.62664 0
M  V30 4565 H 444.504 6.00121 -3.17855 0
M  V30 4566 H 442.45 6.48527 -0.987356 0
M  V30 4567 H 442.367 7.09624 -2.60711 0
M  V30 4568 H 443.635 7.63949 -1.54928 0
M  V30 4569 N 447.864 1.01787 1.20321 0
M  V30 4570 C 449.28 0.732951 1.41774 0
M  V30 4571 C 449.48 -0.686883 1.89431 0
M  V30 4572 O 448.536 -1.45446 2.06402 0
M  V30 4573 C 449.849 1.75973 2.43832 0
M  V30 4574 C 451.397 1.77802 2.57596 0
M  V30 4575 C 451.872 2.7941 3.62897 0
M  V30 4576 N 453.363 2.78157 3.70382 0
M  V30 4577 C 454.098 3.53434 4.51521 0
M  V30 4578 N 453.594 4.38392 5.36455 0
M  V30 4579 N 455.387 3.42026 4.46066 0
M  V30 4580 H 447.538 1.93447 0.877035 0
M  V30 4581 H 449.801 0.835712 0.447536 0
M  V30 4582 H 449.507 2.77699 2.15815 0
M  V30 4583 H 449.381 1.57292 3.4284 0
M  V30 4584 H 451.768 0.767602 2.84942 0
M  V30 4585 H 451.849 2.00557 1.58779 0
M  V30 4586 H 451.493 3.80616 3.36295 0
M  V30 4587 H 451.423 2.53916 4.61339 0
M  V30 4588 H 453.914 2.16531 3.09714 0
M  V30 4589 H 454.227 4.92596 5.95457 0
M  V30 4590 H 452.572 4.4247 5.35953 0
M  V30 4591 H 455.763 2.75075 3.78749 0
M  V30 4592 H 455.936 4.00946 5.09064 0
M  V30 4593 N 449.342 -1.36122 0.79427 0
M  V30 4594 C 450.289 -2.29982 0.194101 0
M  V30 4595 C 451.259 -1.52214 -0.664833 0
M  V30 4596 O 452.444 -1.80702 -0.612498 0
M  V30 4597 C 449.584 -3.38706 -0.661244 0
M  V30 4598 C 448.697 -4.31456 0.216766 0
M  V30 4599 C 447.832 -5.27265 -0.645411 0
M  V30 4600 C 446.871 -6.11653 0.233756 0
M  V30 4601 N 446.008 -6.99636 -0.587682 0
M  V30 4602 H 450.848 -2.80722 0.999965 0
M  V30 4603 H 448.385 -1.38172 0.504677 0
M  V30 4604 H 450.343 -4.00394 -1.17219 0
M  V30 4605 H 448.973 -2.89274 -1.43249 0
M  V30 4606 H 448.025 -3.7088 0.845724 0
M  V30 4607 H 449.337 -4.90724 0.893973 0
M  V30 4608 H 448.491 -5.94266 -1.22198 0
M  V30 4609 H 447.23 -4.68463 -1.35623 0
M  V30 4610 H 446.235 -5.4361 0.82269 0
M  V30 4611 H 447.46 -6.72531 0.942247 0
M  V30 4612 H 445.406 -6.43337 -1.2827 0
M  V30 4613 H 445.323 -7.55993 0.0317402 0
M  V30 4614 H 446.591 -7.71001 -1.14792 0
M  V30 4615 N 450.82 -0.546701 -1.47814 0
M  V30 4616 C 451.767 0.206854 -2.29871 0
M  V30 4617 C 452.737 0.918235 -1.38411 0
M  V30 4618 O 453.922 0.915991 -1.67375 0
M  V30 4619 C 451.062 1.23746 -3.22151 0
M  V30 4620 C 450.175 0.533216 -4.28697 0
M  V30 4621 C 449.31 1.5482 -5.08138 0
M  V30 4622 C 448.349 0.828347 -6.06469 0
M  V30 4623 N 447.486 1.78966 -6.78908 0
M  V30 4624 H 452.326 -0.499037 -2.93792 0
M  V30 4625 H 449.863 -0.25793 -1.44821 0
M  V30 4626 H 451.821 1.84746 -3.74065 0
M  V30 4627 H 450.451 1.91151 -2.60117 0
M  V30 4628 H 449.503 -0.191089 -3.7992 0
M  V30 4629 H 450.815 -0.0311987 -4.9879 0
M  V30 4630 H 449.969 2.23202 -5.6415 0
M  V30 4631 H 448.708 2.14652 -4.37922 0
M  V30 4632 H 447.713 0.130539 -5.49645 0
M  V30 4633 H 448.938 0.235907 -6.7869 0
M  V30 4634 H 446.884 2.37675 -6.1143 0
M  V30 4635 H 446.801 1.27712 -7.45135 0
M  V30 4636 H 448.069 2.46496 -7.395 0
M  V30 4637 N 452.299 1.55045 -0.282633 0
M  V30 4638 C 453.524 2.04628 0.337977 0
M  V30 4639 C 453.949 1.15937 1.48123 0
M  V30 4640 O 453.307 0.159532 1.80597 0
M  V30 4641 C 453.355 3.51854 0.78936 0
M  V30 4642 O 452.459 3.66236 1.89592 0
M  V30 4643 H 451.8 0.660434 0.0687261 0
M  V30 4644 H 454.33 2.00261 -0.419124 0
M  V30 4645 H 454.34 3.93361 1.08311 0
M  V30 4646 H 453.015 4.15873 -0.0470419 0
M  V30 4647 H 451.592 3.36633 1.60413 0
M  V30 4648 N 453.777 0.010035 1.57597 0
M  V30 4649 C 454.724 -0.978122 2.09049 0
M  V30 4650 C 455.694 -1.33509 0.988159 0
M  V30 4651 O 456.879 -1.43172 1.26121 0
M  V30 4652 C 454.019 -2.26158 2.60666 0
M  V30 4653 C 453.132 -1.96275 3.84838 0
M  V30 4654 C 452.267 -3.18776 4.24918 0
M  V30 4655 C 451.306 -2.84625 5.41899 0
M  V30 4656 N 450.443 -3.99693 5.77226 0
M  V30 4657 H 455.283 -0.532431 2.93205 0
M  V30 4658 H 452.82 -0.251234 1.44939 0
M  V30 4659 H 454.778 -3.01202 2.88675 0
M  V30 4660 H 453.408 -2.68378 1.79369 0
M  V30 4661 H 452.46 -1.11555 3.63675 0
M  V30 4662 H 453.772 -1.67111 4.69974 0
M  V30 4663 H 452.926 -4.02157 4.54262 0
M  V30 4664 H 451.665 -3.51087 3.38511 0
M  V30 4665 H 450.67 -1.99653 5.12268 0
M  V30 4666 H 451.895 -2.53551 6.29991 0
M  V30 4667 H 449.841 -4.31882 4.93776 0
M  V30 4668 H 449.758 -3.74087 6.56959 0
M  V30 4669 H 451.026 -4.83834 6.11167 0
M  V30 4670 N 455.255 -1.55392 -0.262866 0
M  V30 4671 C 456.483 -1.80513 -1.01108 0
M  V30 4672 C 456.898 -0.583533 -1.79556 0
M  V30 4673 O 456.255 0.447585 -1.76926 0
M  V30 4674 C 456.306 -3.03648 -1.96164 0
M  V30 4675 O 456.027 -4.2109 -1.20893 0
M  V30 4676 C 457.528 -3.41448 -2.82715 0
M  V30 4677 H 454.748 -0.601079 -0.298236 0
M  V30 4678 H 457.292 -2.02425 -0.290582 0
M  V30 4679 H 455.447 -2.83832 -2.63663 0
M  V30 4680 H 455.861 -4.90771 -1.85051 0
M  V30 4681 H 457.335 -4.30751 -3.45192 0
M  V30 4682 H 457.812 -2.61308 -3.53008 0
M  V30 4683 H 458.418 -3.63559 -2.20693 0
M  V30 4684 N 456.733 0.527833 -1.48498 0
M  V30 4685 C 457.958 1.313 -1.60546 0
M  V30 4686 C 458.383 1.86199 -0.26672 0
M  V30 4687 O 457.741 1.64513 0.761918 0
M  V30 4688 C 457.789 2.43818 -2.65678 0
M  V30 4689 O 456.893 3.46916 -2.22987 0
M  V30 4690 H 456.234 0.388784 -0.538277 0
M  V30 4691 H 458.764 0.634896 -1.945 0
M  V30 4692 H 458.774 2.89973 -2.87018 0
M  V30 4693 H 457.449 2.03222 -3.62869 0
M  V30 4694 H 456.026 3.06864 -2.11869 0
M  V30 4695 N 458.211 1.37122 0.776871 0
M  V30 4696 C 459.159 1.32549 1.91138 0
M  V30 4697 C 460.153 0.215119 1.68029 0
M  V30 4698 O 461.359 0.382852 1.75881 0
M  V30 4699 H 457.734 0.412952 0.62847 0
M  V30 4700 H 459.705 2.28332 1.92112 0
M  V30 4701 C 458.454 1.14422 3.28333 0
M  V30 4702 H 457.777 1.99115 3.46689 0
M  V30 4703 H 459.217 1.15272 4.0803 0
M  V30 4704 C 457.676 -0.150434 3.36564 0
M  V30 4705 O 458.206 -1.13584 3.85307 0
M  V30 4706 N 456.412 -0.19939 2.89915 0
M  V30 4707 H 455.959 0.603142 2.5044 0
M  V30 4708 H 455.917 -1.06526 2.95803 0
M  V30 4709 N 459.689 -1.00246 1.21608 0
M  V30 4710 C 460.919 -1.77373 1.05935 0
M  V30 4711 C 461.327 -1.85059 -0.393686 0
M  V30 4712 O 460.67 -1.31289 -1.28487 0
M  V30 4713 C 460.732 -3.22705 1.58435 0
M  V30 4714 C 460.396 -3.38591 3.06929 0
M  V30 4715 C 461.393 -3.2667 4.04454 0
M  V30 4716 C 459.078 -3.6395 3.46187 0
M  V30 4717 C 461.072 -3.39877 5.39224 0
M  V30 4718 C 458.759 -3.768 4.81108 0
M  V30 4719 C 459.757 -3.6477 5.77436 0
M  V30 4720 O 459.445 -3.77206 7.09909 0
M  V30 4721 H 459.177 -0.56419 0.372378 0
M  V30 4722 H 461.731 -1.26971 1.61454 0
M  V30 4723 H 459.961 -3.74255 0.973147 0
M  V30 4724 H 461.65 -3.81515 1.38568 0
M  V30 4725 H 462.416 -3.06999 3.75468 0
M  V30 4726 H 458.295 -3.72395 2.71741 0
M  V30 4727 H 461.839 -3.30404 6.14393 0
M  V30 4728 H 457.736 -3.95975 5.09779 0
M  V30 4729 H 458.504 -3.94138 7.17355 0
M  V30 4730 N 461.167 -1.02423 -1.1978 0
M  V30 4731 C 462.097 -0.62157 -2.25075 0
M  V30 4732 C 463.078 0.367148 -1.6609 0
M  V30 4733 O 464.263 0.250892 -1.92573 0
M  V30 4734 C 461.393 0.0331826 -3.47284 0
M  V30 4735 C 460.347 -0.877323 -4.18912 0
M  V30 4736 C 459.673 -0.0879296 -5.34628 0
M  V30 4737 C 460.973 -2.18892 -4.74219 0
M  V30 4738 H 462.667 -1.50179 -2.59011 0
M  V30 4739 H 460.213 -0.723547 -1.24502 0
M  V30 4740 H 462.166 0.326488 -4.20133 0
M  V30 4741 H 460.89 0.948164 -3.12534 0
M  V30 4742 H 459.549 -1.15475 -3.47938 0
M  V30 4743 H 459.197 0.828941 -4.96123 0
M  V30 4744 H 458.897 -0.694359 -5.83483 0
M  V30 4745 H 460.421 0.198743 -6.10276 0
M  V30 4746 H 461.835 -1.95746 -5.38847 0
M  V30 4747 H 460.232 -2.74686 -5.33542 0
M  V30 4748 H 461.302 -2.84674 -3.92541 0
M  V30 4749 N 462.645 1.35699 -0.801477 0
M  V30 4750 C 463.894 1.98165 -0.375979 0
M  V30 4751 C 464.207 1.64306 1.06127 0
M  V30 4752 O 465.413 2.20097 1.58964 0
M  V30 4753 C 463.869 3.54497 -0.621305 0
M  V30 4754 C 463.477 3.9727 -2.07076 0
M  V30 4755 C 465.221 4.23697 -0.26091 0
M  V30 4756 C 463.128 5.46427 -2.26211 0
M  V30 4757 H 462.058 0.741478 -0.136844 0
M  V30 4758 H 464.709 1.54834 -0.984814 0
M  V30 4759 H 463.091 3.95958 0.0574112 0
M  V30 4760 H 464.265 3.66974 -2.78687 0
M  V30 4761 H 462.58 3.40943 -2.39054 0
M  V30 4762 H 465.177 5.33334 -0.381994 0
M  V30 4763 H 465.52 4.0869 0.792344 0
M  V30 4764 H 466.053 3.87639 -0.893339 0
M  V30 4765 H 462.792 5.66396 -3.29963 0
M  V30 4766 H 462.312 5.78309 -1.59119 0
M  V30 4767 H 463.991 6.12819 -2.07513 0
M  V30 4768 N 464.123 0.554532 1.47522 0
M  V30 4769 C 465.348 0.0322661 2.07375 0
M  V30 4770 C 465.773 -1.25079 1.40488 0
M  V30 4771 O 465.131 -1.74859 0.47896 0
M  V30 4772 C 465.179 -0.149397 3.6029 0
M  V30 4773 O 464.283 -1.21259 3.9417 0
M  V30 4774 H 463.624 0.0501228 0.662106 0
M  V30 4775 H 466.154 0.769452 1.8958 0
M  V30 4776 H 466.164 -0.364437 4.06369 0
M  V30 4777 H 464.839 0.787743 4.08372 0
M  V30 4778 H 463.416 -0.97825 3.5984 0
M  V30 4779 N 465.601 -1.54893 0.290851 0
M  V30 4780 C 466.847 -2.0023 -0.321867 0
M  V30 4781 C 467.18 -1.179 -1.54316 0
M  V30 4782 O 466.455 -0.25293 -1.92848 0
M  V30 4783 C 466.738 -3.53456 -0.688515 0
M  V30 4784 C 466.591 -4.46532 0.541209 0
M  V30 4785 C 467.91 -4.13057 -1.51895 0
M  V30 4786 H 465.029 -0.727891 -0.115515 0
M  V30 4787 H 467.671 -1.85722 0.400931 0
M  V30 4788 H 465.821 -3.6595 -1.30433 0
M  V30 4789 H 467.493 -4.4596 1.17973 0
M  V30 4790 H 465.736 -4.17545 1.17636 0
M  V30 4791 H 466.407 -5.51475 0.240675 0
M  V30 4792 H 468.883 -4.03937 -0.99872 0
M  V30 4793 H 467.759 -5.20448 -1.74429 0
M  V30 4794 H 468.02 -3.64284 -2.50498 0
M  V30 4795 N 467.08 -0.0183926 -1.57589 0
M  V30 4796 C 468.357 0.700621 -1.82622 0
M  V30 4797 C 468.737 1.90951 -0.90005 0
M  V30 4798 O 468.085 2.28452 0.0469145 0
M  V30 4799 C 468.295 1.08899 -3.31575 0
M  V30 4800 C 469.643 1.48514 -3.9778 0
M  V30 4801 O 470.667 1.18227 -3.36007 0
M  V30 4802 O 469.526 2.04903 -5.06633 0
M  V30 4803 H 466.62 0.342743 -0.752633 0
M  V30 4804 H 469.166 -0.0452548 -1.6964 0
M  V30 4805 H 467.938 0.228113 -3.90635 0
M  V30 4806 H 467.561 1.89338 -3.49624 0
M  V30 4807 N 468.558 1.5553 0.254621 0
M  V30 4808 C 469.969 1.67518 0.824286 0
M  V30 4809 C 470.32 0.614429 1.86331 0
M  V30 4810 O 469.445 -0.240736 2.15057 0
M  V30 4811 C 470.04 3.03692 1.50189 0
M  V30 4812 C 468.599 3.17646 2.01935 0
M  V30 4813 C 467.746 2.63373 0.867746 0
M  V30 4814 H 470.697 1.58671 0.0305843 0
M  V30 4815 H 470.718 2.97706 2.36962 0
M  V30 4816 H 470.23 3.80874 0.745431 0
M  V30 4817 H 468.331 2.45273 2.80485 0
M  V30 4818 H 468.444 4.24455 2.22204 0
M  V30 4819 H 466.808 2.20999 1.26616 0
M  V30 4820 H 467.591 3.43074 0.124498 0
M  V30 4821 N 470.036 -0.519951 1.48776 0
M  V30 4822 C 471.264 -1.29971 1.60982 0
M  V30 4823 C 471.679 -1.86803 0.273885 0
M  V30 4824 O 471.036 -1.66904 -0.738193 0
M  V30 4825 C 471.087 -2.44346 2.66415 0
M  V30 4826 O 470.808 -1.89855 3.94825 0
M  V30 4827 C 472.309 -3.36014 2.89153 0
M  V30 4828 H 469.529 -0.394891 0.542496 0
M  V30 4829 H 472.073 -0.626214 1.94676 0
M  V30 4830 H 470.228 -3.07562 2.35552 0
M  V30 4831 H 470.642 -2.64798 4.5275 0
M  V30 4832 H 472.116 -4.12593 3.66703 0
M  V30 4833 H 472.593 -3.91859 1.98351 0
M  V30 4834 H 473.199 -2.78582 3.21359 0
M  V30 4835 N 471.514 -1.37532 -0.769588 0
M  V30 4836 C 472.791 -1.23392 -1.51768 0
M  V30 4837 C 473.171 0.17157 -2.10402 0
M  V30 4838 O 472.519 1.17943 -1.95708 0
M  V30 4839 C 472.729 -2.33163 -2.59685 0
M  V30 4840 C 474.077 -2.70809 -3.27028 0
M  V30 4841 O 475.101 -2.32355 -2.69981 0
M  V30 4842 O 473.96 -3.37066 -4.30173 0
M  V30 4843 H 471.054 -0.481617 -0.67229 0
M  V30 4844 H 473.6 -1.49318 -0.806368 0
M  V30 4845 H 472.372 -3.27273 -2.14494 0
M  V30 4846 H 471.995 -2.08713 -3.38415 0
M  V30 4847 N 472.992 0.995999 -1.22138 0
M  V30 4848 C 473.922 2.10387 -1.01289 0
M  V30 4849 C 474.903 1.69975 0.0651454 0
M  V30 4850 O 476.088 1.9396 -0.0964628 0
M  V30 4851 C 473.218 3.42312 -0.586517 0
M  V30 4852 C 472.172 3.96558 -1.61014 0
M  V30 4853 C 471.498 5.24494 -1.0397 0
M  V30 4854 C 472.798 4.27595 -2.99933 0
M  V30 4855 H 474.492 2.28086 -1.93951 0
M  V30 4856 H 472.038 1.09607 -0.933928 0
M  V30 4857 H 473.991 4.19223 -0.427793 0
M  V30 4858 H 472.715 3.24431 0.375761 0
M  V30 4859 H 471.374 3.21776 -1.75658 0
M  V30 4860 H 471.022 5.02953 -0.0688703 0
M  V30 4861 H 470.722 5.61755 -1.72352 0
M  V30 4862 H 472.246 6.04042 -0.892494 0
M  V30 4863 H 473.66 4.95315 -2.8868 0
M  V30 4864 H 472.057 4.76021 -3.6541 0
M  V30 4865 H 473.127 3.35498 -3.50099 0
M  V30 4866 N 474.47 1.03057 1.19235 0
M  V30 4867 C 475.695 0.74757 1.93458 0
M  V30 4868 C 476.12 -0.687648 1.7508 0
M  V30 4869 O 475.478 -1.47499 1.05422 0
M  V30 4870 C 475.526 1.10604 3.43219 0
M  V30 4871 O 474.63 0.225671 4.11782 0
M  V30 4872 H 473.971 0.276047 0.603899 0
M  V30 4873 H 476.501 1.3777 1.51263 0
M  V30 4874 H 476.511 1.06366 3.93891 0
M  V30 4875 H 475.186 2.15165 3.55917 0
M  V30 4876 H 473.763 0.326795 3.71465 0
M  V30 4877 N 475.948 -1.35272 0.808662 0
M  V30 4878 C 477.364 -1.51806 0.492653 0
M  V30 4879 C 477.564 -1.7574 -0.985778 0
M  V30 4880 O 476.62 -1.80003 -1.77074 0
M  V30 4881 C 477.933 -2.69202 1.33981 0
M  V30 4882 C 479.481 -2.8308 1.33547 0
M  V30 4883 C 479.956 -4.03502 2.16679 0
M  V30 4884 N 481.447 -4.10684 2.14227 0
M  V30 4885 C 482.182 -5.02984 2.75308 0
M  V30 4886 N 481.678 -6.00603 3.45323 0
M  V30 4887 N 483.471 -4.95746 2.64938 0
M  V30 4888 H 475.622 -1.17993 1.76611 0
M  V30 4889 H 477.885 -0.577476 0.751814 0
M  V30 4890 H 477.591 -2.581 2.38909 0
M  V30 4891 H 477.465 -3.63854 0.994491 0
M  V30 4892 H 479.852 -2.93631 0.294036 0
M  V30 4893 H 479.933 -1.89278 1.72068 0
M  V30 4894 H 479.577 -3.93711 3.20864 0
M  V30 4895 H 479.507 -4.96489 1.75517 0
M  V30 4896 H 481.998 -3.40802 1.63285 0
M  V30 4897 H 482.311 -6.67633 3.89212 0
M  V30 4898 H 480.656 -6.0077 3.49428 0
M  V30 4899 H 483.847 -4.18439 2.09825 0
M  V30 4900 H 484.02 -5.67487 3.12829 0
M  V30 4901 N 477.426 -0.562348 -1.47226 0
M  V30 4902 C 478.674 -0.0401371 -2.0206 0
M  V30 4903 C 478.995 1.3165 -1.43852 0
M  V30 4904 O 478.265 1.85976 -0.615599 0
M  V30 4905 H 476.845 -0.0118479 -0.746906 0
M  V30 4906 H 479.507 -0.73352 -1.8057 0
M  V30 4907 H 478.603 0.0441254 -3.12069 0
M  V30 4908 N 478.904 1.54736 -0.299062 0
M  V30 4909 C 480.152 1.99706 0.31017 0
M  V30 4910 C 480.473 1.18896 1.54559 0
M  V30 4911 O 479.743 0.284445 1.93824 0
M  V30 4912 H 478.323 0.737686 0.117596 0
M  V30 4913 H 480.985 1.9054 -0.409943 0
M  V30 4914 H 480.081 3.06596 0.58355 0
M  V30 4915 N 480.382 0.0267497 1.57577 0
M  V30 4916 C 481.659 -0.690926 1.82991 0
M  V30 4917 C 482.039 -1.90471 0.910164 0
M  V30 4918 O 481.387 -2.28474 -0.0347985 0
M  V30 4919 C 481.597 -1.07139 3.32148 0
M  V30 4920 C 482.945 -1.46402 3.98562 0
M  V30 4921 O 483.969 -1.16443 3.36629 0
M  V30 4922 O 482.828 -2.02214 5.07712 0
M  V30 4923 H 479.922 -0.338747 0.75444 0
M  V30 4924 H 482.468 0.0542506 1.69613 0
M  V30 4925 H 481.24 -0.207394 3.9075 0
M  V30 4926 H 480.863 -1.87481 3.50623 0
M  V30 4927 N 481.861 -1.55662 -0.24637 0
M  V30 4928 C 483.086 -1.81914 -0.996093 0
M  V30 4929 C 483.511 -0.603875 -1.78143 0
M  V30 4930 O 482.869 0.447091 -1.75701 0
M  V30 4931 C 482.917 -3.05908 -1.90925 0
M  V30 4932 O 482.021 -2.82861 -3.00105 0
M  V30 4933 H 481.362 -0.600481 -0.283406 0
M  V30 4934 H 483.892 -2.02848 -0.267199 0
M  V30 4935 H 483.902 -3.35356 -2.3238 0
M  V30 4936 H 482.577 -3.93999 -1.33183 0
M  V30 4937 H 481.154 -2.64583 -2.62775 0
M  V30 4938 N 483.339 0.512053 -1.4905 0
M  V30 4939 C 484.569 1.28928 -1.61434 0
M  V30 4940 C 484.977 1.87107 -0.280647 0
M  V30 4941 O 484.32 1.68024 0.742537 0
M  V30 4942 C 484.382 2.466 -2.61588 0
M  V30 4943 C 484.046 2.09375 -4.06216 0
M  V30 4944 C 485.043 1.63994 -4.93358 0
M  V30 4945 C 482.728 2.19348 -4.51876 0
M  V30 4946 C 484.722 1.29076 -6.24194 0
M  V30 4947 C 482.409 1.84041 -5.82728 0
M  V30 4948 C 483.407 1.38978 -6.68711 0
M  V30 4949 O 483.095 1.04144 -7.97126 0
M  V30 4950 H 482.827 0.397668 -0.546659 0
M  V30 4951 H 485.381 0.622507 -1.9574 0
M  V30 4952 H 483.611 3.16318 -2.22441 0
M  V30 4953 H 485.3 3.08642 -2.63619 0
M  V30 4954 H 486.066 1.55744 -4.59313 0
M  V30 4955 H 481.945 2.53376 -3.85125 0
M  V30 4956 H 485.489 0.938303 -6.91261 0
M  V30 4957 H 481.386 1.91938 -6.16304 0
M  V30 4958 H 482.154 1.17387 -8.10039 0
M  V30 4959 N 484.817 1.37938 0.762283 0
M  V30 4960 C 486.066 1.32989 1.51647 0
M  V30 4961 C 486.379 -0.0802922 1.95435 0
M  V30 4962 O 487.585 -0.252295 2.70325 0
M  V30 4963 C 486.041 2.33485 2.73885 0
M  V30 4964 C 485.649 3.80079 2.37157 0
M  V30 4965 C 487.393 2.37563 3.51801 0
M  V30 4966 C 485.3 4.72283 3.55954 0
M  V30 4967 H 484.23 0.494301 0.56937 0
M  V30 4968 H 486.881 1.63448 0.834083 0
M  V30 4969 H 485.263 1.96056 3.44061 0
M  V30 4970 H 486.437 4.26398 1.74704 0
M  V30 4971 H 484.752 3.79037 1.72395 0
M  V30 4972 H 487.349 3.0365 4.40114 0
M  V30 4973 H 487.692 1.39199 3.92338 0
M  V30 4974 H 488.225 2.73747 2.8863 0
M  V30 4975 H 484.964 5.7181 3.2049 0
M  V30 4976 H 484.484 4.30663 4.1748 0
M  V30 4977 H 486.163 4.89876 4.22647 0
M  V30 4978 N 486.295 -0.989507 1.22664 0
M  V30 4979 C 487.543 -1.72612 1.05117 0
M  V30 4980 C 487.864 -1.90552 -0.414131 0
M  V30 4981 O 487.134 -1.4676 -1.29762 0
M  V30 4982 H 485.714 -0.639555 0.385977 0
M  V30 4983 H 488.376 -1.19158 1.54232 0
M  V30 4984 H 487.472 -2.71926 1.53175 0
M  V30 4985 N 487.773 -1.03688 -1.18687 0
M  V30 4986 C 488.72 -0.624624 -2.22187 0
M  V30 4987 C 489.69 0.365636 -1.62026 0
M  V30 4988 O 490.875 0.260481 -1.89014 0
M  V30 4989 C 488.015 0.0101738 -3.45099 0
M  V30 4990 C 487.128 -1.02709 -4.19613 0
M  V30 4991 C 486.263 -0.361213 -5.2997 0
M  V30 4992 C 485.302 -1.38384 -5.96252 0
M  V30 4993 N 484.439 -0.743196 -6.98155 0
M  V30 4994 H 489.279 -1.51176 -2.56807 0
M  V30 4995 H 486.816 -0.75636 -1.26165 0
M  V30 4996 H 488.774 0.395528 -4.15321 0
M  V30 4997 H 487.404 0.860848 -3.1111 0
M  V30 4998 H 486.456 -1.53043 -3.48256 0
M  V30 4999 H 487.768 -1.80398 -4.65036 0
M  V30 5000 H 486.922 0.0785537 -6.06649 0
M  V30 5001 H 485.661 0.447799 -4.8564 0
M  V30 5002 H 484.666 -1.83378 -5.18317 0
M  V30 5003 H 485.891 -2.19448 -6.42666 0
M  V30 5004 H 483.837 0.0455789 -6.55984 0
M  V30 5005 H 483.754 -1.45784 -7.41811 0
M  V30 5006 H 485.022 -0.327698 -7.78811 0
M  V30 5007 N 489.251 1.34841 -0.815825 0
M  V30 5008 C 490.181 2.32187 -0.247298 0
M  V30 5009 C 491.162 1.5791 0.632344 0
M  V30 5010 O 492.347 1.8593 0.560698 0
M  V30 5011 C 489.477 3.42122 0.597466 0
M  V30 5012 C 488.431 4.27602 -0.184446 0
M  V30 5013 C 487.757 5.28942 0.782609 0
M  V30 5014 C 489.057 5.03502 -1.38865 0
M  V30 5015 H 490.751 2.79985 -1.06061 0
M  V30 5016 H 488.297 1.34611 -0.511461 0
M  V30 5017 H 490.25 4.09232 1.00533 0
M  V30 5018 H 488.974 2.92956 1.44376 0
M  V30 5019 H 487.633 3.62085 -0.573592 0
M  V30 5020 H 487.281 4.7604 1.62466 0
M  V30 5021 H 486.981 5.87008 0.263695 0
M  V30 5022 H 488.505 5.98922 1.18848 0
M  V30 5023 H 489.919 5.63506 -1.05518 0
M  V30 5024 H 488.316 5.71108 -1.8427 0
M  V30 5025 H 489.386 4.33608 -2.17054 0
M  V30 5026 N 490.729 0.570148 1.46925 0
M  V30 5027 C 492.145 0.23087 1.57921 0
M  V30 5028 C 492.345 -1.26676 1.56702 0
M  V30 5029 O 491.401 -2.04774 1.47729 0
M  V30 5030 C 492.714 0.868973 2.8787 0
M  V30 5031 C 494.262 0.841397 3.01479 0
M  V30 5032 C 494.737 1.45881 4.34146 0
M  V30 5033 N 496.228 1.42258 4.40814 0
M  V30 5034 C 496.963 1.8698 5.42057 0
M  V30 5035 N 496.459 2.39618 6.50042 0
M  V30 5036 N 498.252 1.77972 5.33181 0
M  V30 5037 H 490.403 1.54301 1.45962 0
M  V30 5038 H 492.666 0.644224 0.69547 0
M  V30 5039 H 492.372 1.922 2.94537 0
M  V30 5040 H 492.246 0.369682 3.75384 0
M  V30 5041 H 494.633 -0.202973 2.94401 0
M  V30 5042 H 494.714 1.37858 2.15474 0
M  V30 5043 H 494.358 2.50231 4.4198 0
M  V30 5044 H 494.288 0.896958 5.18905 0
M  V30 5045 H 496.779 1.03768 3.63374 0
M  V30 5046 H 497.092 2.71633 7.23488 0
M  V30 5047 H 495.437 2.43636 6.50897 0
M  V30 5048 H 498.628 1.36617 4.4772 0
M  V30 5049 H 498.801 2.13143 6.11943 0
M  V30 5050 N 492.207 -1.54576 0.307264 0
M  V30 5051 C 493.432 -2.05139 -0.305379 0
M  V30 5052 C 493.857 -1.18278 -1.46259 0
M  V30 5053 O 493.215 -0.188243 -1.8032 0
M  V30 5054 C 493.263 -3.53066 -0.733283 0
M  V30 5055 O 492.367 -3.69206 -1.83741 0
M  V30 5056 H 491.708 -0.661444 -0.0582105 0
M  V30 5057 H 494.238 -1.99569 0.450931 0
M  V30 5058 H 494.248 -3.95034 -1.02039 0
M  V30 5059 H 492.923 -4.15746 0.113198 0
M  V30 5060 H 491.5 -3.39143 -1.55037 0
M  V30 5061 N 493.685 -0.035106 -1.57561 0
M  V30 5062 C 494.633 0.962707 -2.11742 0
M  V30 5063 C 495.627 1.33296 -1.0454 0
M  V30 5064 O 496.833 1.31449 -1.22968 0
M  V30 5065 H 493.208 0.32826 -0.676572 0
M  V30 5066 H 495.179 0.48048 -2.94506 0
M  V30 5067 C 493.928 2.23388 -2.66445 0
M  V30 5068 H 493.251 1.95774 -3.48587 0
M  V30 5069 H 494.691 2.91402 -3.07995 0
M  V30 5070 C 493.15 2.96769 -1.59467 0
M  V30 5071 O 493.68 3.89105 -0.998 0
M  V30 5072 N 491.886 2.59212 -1.31369 0
M  V30 5073 H 491.433 1.84202 -1.80076 0
M  V30 5074 H 491.391 3.08618 -0.600173 0
M  V30 5075 N 495.163 1.55791 0.238111 0
M  V30 5076 C 496.093 1.94068 1.29846 0
M  V30 5077 C 497.074 0.806726 1.49753 0
M  V30 5078 O 498.259 1.06772 1.62214 0
M  V30 5079 C 495.389 2.24302 2.65153 0
M  V30 5080 C 494.343 3.40032 2.59927 0
M  V30 5081 C 493.669 3.55829 3.99111 0
M  V30 5082 C 494.969 4.75476 2.16148 0
M  V30 5083 H 496.663 2.82887 0.980563 0
M  V30 5084 H 494.209 1.36105 0.470253 0
M  V30 5085 H 496.162 2.4967 3.39475 0
M  V30 5086 H 494.886 1.32318 2.98596 0
M  V30 5087 H 493.545 3.14687 1.88063 0
M  V30 5088 H 493.193 2.6125 4.29834 0
M  V30 5089 H 492.893 4.3366 3.96501 0
M  V30 5090 H 494.417 3.83528 4.7512 0
M  V30 5091 H 495.831 5.00158 2.80205 0
M  V30 5092 H 494.228 5.56472 2.24631 0
M  V30 5093 H 495.298 4.71946 1.11333 0
M  V30 5094 N 496.642 -0.504142 1.49319 0
M  V30 5095 C 497.575 -1.62361 1.60356 0
M  V30 5096 C 498.553 -1.56169 0.45277 0
M  V30 5097 O 499.737 -1.76271 0.667892 0
M  V30 5098 C 496.864 -3.00864 1.55559 0
M  V30 5099 C 495.91 -3.25328 2.75797 0
M  V30 5100 S 496.743 -3.08791 4.37503 0
M  V30 5101 C 497.899 -4.49695 4.35345 0
M  V30 5102 H 498.132 -1.52753 2.55056 0
M  V30 5103 H 495.665 -0.689065 1.38171 0
M  V30 5104 H 497.623 -3.8073 1.53477 0
M  V30 5105 H 496.284 -3.0789 0.621515 0
M  V30 5106 H 495.477 -4.2643 2.68651 0
M  V30 5107 H 495.079 -2.53179 2.75275 0
M  V30 5108 H 497.371 -5.41721 4.06871 0
M  V30 5109 H 498.314 -4.61891 5.36714 0
M  V30 5110 H 498.722 -4.30227 3.65465 0
M  V30 5111 N 498.12 -1.38341 -0.754957 0
M  V30 5112 C 499.368 -1.34208 -1.51105 0
M  V30 5113 C 499.689 0.0677634 -1.94882 0
M  V30 5114 O 498.959 1.01517 -1.67544 0
M  V30 5115 H 497.539 -0.493819 -0.560493 0
M  V30 5116 H 500.201 -1.73005 -0.897507 0
M  V30 5117 H 499.297 -1.99203 -2.4026 0
M  V30 5118 N 499.598 0.982988 -1.23187 0
M  V30 5119 C 500.826 1.75921 -1.08901 0
M  V30 5120 C 501.241 1.85341 0.359719 0
M  V30 5121 O 500.598 1.33072 1.24892 0
M  V30 5122 C 500.649 3.18742 -1.70545 0
M  V30 5123 O 500.37 3.09814 -3.09753 0
M  V30 5124 C 501.871 4.1277 -1.61667 0
M  V30 5125 H 499.091 0.552166 -0.381252 0
M  V30 5126 H 501.635 1.23516 -1.62985 0
M  V30 5127 H 499.79 3.68182 -1.20501 0
M  V30 5128 H 500.204 3.99703 -3.39614 0
M  V30 5129 H 501.678 5.10697 -2.09506 0
M  V30 5130 H 502.155 4.3542 -0.575009 0
M  V30 5131 H 502.761 3.69232 -2.11064 0
M  V30 5132 N 501.076 1.04316 1.18135 0
M  V30 5133 C 502.023 0.636398 2.21853 0
M  V30 5134 C 502.993 -0.357039 1.62217 0
M  V30 5135 O 504.178 -0.250453 1.89149 0
M  V30 5136 C 501.318 0.00812779 3.45099 0
M  V30 5137 C 500.431 1.04933 4.19062 0
M  V30 5138 C 499.566 0.389313 5.29771 0
M  V30 5139 C 498.605 1.41544 5.9551 0
M  V30 5140 N 497.742 0.78021 6.97751 0
M  V30 5141 H 502.582 1.52536 2.56002 0
M  V30 5142 H 500.119 0.76304 1.25762 0
M  V30 5143 H 502.077 -0.373497 4.15525 0
M  V30 5144 H 500.707 -0.844336 3.11562 0
M  V30 5145 H 499.759 1.54888 3.47439 0
M  V30 5146 H 501.071 1.82862 4.64072 0
M  V30 5147 H 500.225 -0.0463805 6.06682 0
M  V30 5148 H 498.964 -0.422038 4.8587 0
M  V30 5149 H 497.969 1.86124 5.17337 0
M  V30 5150 H 499.194 2.22854 6.41493 0
M  V30 5151 H 497.14 -0.0107899 6.55999 0
M  V30 5152 H 497.057 1.49716 7.41027 0
M  V30 5153 H 498.325 0.368996 7.78626 0
M  V30 5154 N 502.554 -1.34406 0.822964 0
M  V30 5155 C 503.801 -1.98284 0.411057 0
M  V30 5156 C 504.129 -1.65245 -1.02588 0
M  V30 5157 O 503.384 -0.91619 -1.72929 0
M  V30 5158 C 503.683 -3.52981 0.560268 0
M  V30 5159 C 503.349 -4.05931 1.96293 0
M  V30 5160 C 502.011 -4.20103 2.34664 0
M  V30 5161 C 504.363 -4.34412 2.87985 0
M  V30 5162 C 501.691 -4.60082 3.64062 0
M  V30 5163 C 504.043 -4.75838 4.16847 0
M  V30 5164 C 502.707 -4.88215 4.55195 0
M  V30 5165 H 501.977 -0.725573 0.150416 0
M  V30 5166 H 504.624 -1.60349 1.04692 0
M  V30 5167 H 502.929 -3.91477 -0.158982 0
M  V30 5168 H 504.626 -4.00385 0.222087 0
M  V30 5169 H 501.216 -3.95363 1.65487 0
M  V30 5170 H 505.4 -4.23001 2.59584 0
M  V30 5171 H 500.656 -4.67856 3.93599 0
M  V30 5172 H 504.83 -4.96834 4.87984 0
M  V30 5173 H 502.457 -5.18952 5.55512 0
M  V30 5174 N 504.032 -0.577932 -1.46621 0
M  V30 5175 C 505.26 -0.0671642 -2.06791 0
M  V30 5176 C 505.675 1.23571 -1.42743 0
M  V30 5177 O 505.032 1.74602 -0.531062 0
M  V30 5178 C 505.083 0.110357 -3.61332 0
M  V30 5179 O 504.804 -1.14095 -4.22982 0
M  V30 5180 C 506.305 0.656025 -4.38419 0
M  V30 5181 H 503.525 -0.0552732 -0.66872 0
M  V30 5182 H 506.069 -0.797242 -1.8832 0
M  V30 5183 H 504.224 0.790637 -3.79246 0
M  V30 5184 H 504.638 -0.951742 -5.15793 0
M  V30 5185 H 506.112 0.729438 -5.47159 0
M  V30 5186 H 506.589 1.67195 -4.06131 0
M  V30 5187 H 507.195 0.0107692 -4.25299 0
M  V30 5188 N 505.51 1.54411 -0.315457 0
M  V30 5189 C 506.756 2.00716 0.289972 0
M  V30 5190 C 507.089 1.2034 1.5242 0
M  V30 5191 O 506.364 0.283579 1.92422 0
M  V30 5192 C 506.647 3.54507 0.632196 0
M  V30 5193 C 506.5 4.45615 -0.61218 0
M  V30 5194 C 507.819 4.15421 1.45305 0
M  V30 5195 H 504.938 0.729637 0.10392 0
M  V30 5196 H 507.58 1.8506 -0.430427 0
M  V30 5197 H 505.73 3.67979 1.24595 0
M  V30 5198 H 507.402 4.44026 -1.25053 0
M  V30 5199 H 505.645 4.15621 -1.24264 0
M  V30 5200 H 506.316 5.51022 -0.328379 0
M  V30 5201 H 508.792 4.05474 0.934331 0
M  V30 5202 H 507.668 5.23157 1.66127 0
M  V30 5203 H 507.929 3.68223 2.44671 0
M  V30 5204 N 506.988 0.0434614 1.5754 0
M  V30 5205 C 508.218 -0.640905 1.96408 0
M  V30 5206 C 508.626 -1.65365 0.919297 0
M  V30 5207 O 507.969 -1.83395 -0.105795 0
M  V30 5208 C 508.031 -1.39141 3.31482 0
M  V30 5209 C 507.695 -0.535375 4.53853 0
M  V30 5210 C 508.692 0.195335 5.19533 0
M  V30 5211 C 506.377 -0.468564 5.0011 0
M  V30 5212 C 508.371 0.981377 6.298 0
M  V30 5213 C 506.058 0.321171 6.10255 0
M  V30 5214 C 507.056 1.04484 6.74961 0
M  V30 5215 O 506.744 1.8216 7.8299 0
M  V30 5216 H 506.476 -0.180584 0.651433 0
M  V30 5217 H 509.03 0.103848 2.05137 0
M  V30 5218 H 507.26 -2.18162 3.19284 0
M  V30 5219 H 508.949 -1.96526 3.55151 0
M  V30 5220 H 509.715 0.15314 4.84758 0
M  V30 5221 H 505.594 -1.02142 4.49542 0
M  V30 5222 H 509.138 1.54674 6.80237 0
M  V30 5223 H 505.035 0.365032 6.44467 0
M  V30 5224 H 505.803 1.74289 7.99728 0
M  V30 5225 N 508.466 -1.55915 -0.229846 0
M  V30 5226 C 509.743 -1.6932 -0.979295 0
M  V30 5227 C 510.123 -0.588321 -2.02736 0
M  V30 5228 O 509.471 0.40586 -2.24867 0
M  V30 5229 C 509.681 -3.10305 -1.59724 0
M  V30 5230 C 511.029 -3.6945 -2.09264 0
M  V30 5231 O 512.053 -3.13214 -1.69633 0
M  V30 5232 O 510.912 -4.68072 -2.82082 0
M  V30 5233 H 508.006 -0.689314 -0.456919 0
M  V30 5234 H 510.552 -1.68238 -0.222283 0
M  V30 5235 H 509.324 -3.82177 -0.840039 0
M  V30 5236 H 508.947 -3.1547 -2.42001 0
M  V30 5237 N 509.944 0.496216 -1.49584 0
M  V30 5238 C 510.892 1.61805 -1.67098 0
M  V30 5239 C 511.886 1.60667 -0.536877 0
M  V30 5240 O 513.092 1.65118 -0.716654 0
M  V30 5241 H 509.467 0.53646 -0.526986 0
M  V30 5242 H 511.438 1.44187 -2.61252 0
M  V30 5243 C 510.187 2.99912 -1.75921 0
M  V30 5244 H 509.51 3.01496 -2.62565 0
M  V30 5245 H 510.95 3.77931 -1.92209 0
M  V30 5246 C 509.409 3.33092 -0.505088 0
M  V30 5247 O 509.939 4.00019 0.367085 0
M  V30 5248 N 508.145 2.88278 -0.366599 0
M  V30 5249 H 507.692 2.33989 -1.07735 0
M  V30 5250 H 507.65 3.10846 0.47142 0
M  V30 5251 N 511.423 1.38739 0.74761 0
M  V30 5252 C 512.671 1.35007 1.50391 0
M  V30 5253 C 512.992 -0.0574274 1.94915 0
M  V30 5254 O 512.262 -1.00628 1.6808 0
M  V30 5255 H 510.842 0.496784 0.557866 0
M  V30 5256 H 513.504 1.73479 0.888319 0
M  V30 5257 H 512.6 2.00474 2.392 0
M  V30 5258 N 512.901 -0.976442 1.23707 0
M  V30 5259 C 514.147 -1.72081 1.07312 0
M  V30 5260 C 514.48 -1.90275 -0.388476 0
M  V30 5261 O 513.755 -1.4579 -1.28746 0
M  V30 5262 C 514.038 -3.11675 1.80363 0
M  V30 5263 C 513.891 -3.01027 3.3422 0
M  V30 5264 C 515.21 -4.1117 1.5693 0
M  V30 5265 H 512.329 -0.624583 0.391236 0
M  V30 5266 H 514.971 -1.13649 1.52263 0
M  V30 5267 H 513.121 -3.61559 1.42153 0
M  V30 5268 H 514.793 -2.58637 3.81975 0
M  V30 5269 H 513.036 -2.3744 3.63049 0
M  V30 5270 H 513.707 -3.9988 3.80525 0
M  V30 5271 H 516.183 -3.7011 1.90151 0
M  V30 5272 H 515.059 -5.06928 2.10513 0
M  V30 5273 H 515.32 -4.392 0.505548 0
M  V30 5274 N 514.379 -1.04941 -1.1758 0
M  V30 5275 C 515.327 -0.64204 -2.23563 0
M  V30 5276 C 516.321 0.335453 -1.66045 0
M  V30 5277 O 517.527 0.20179 -1.78865 0
M  V30 5278 H 513.902 -0.18944 -0.727748 0
M  V30 5279 H 515.873 -1.54609 -2.55223 0
M  V30 5280 C 514.622 -0.0301051 -3.47687 0
M  V30 5281 H 513.945 -0.773339 -3.92249 0
M  V30 5282 H 515.385 0.217592 -4.23441 0
M  V30 5283 C 513.844 1.2225 -3.13937 0
M  V30 5284 O 514.374 2.3122 -3.28482 0
M  V30 5285 N 512.58 1.11917 -2.68185 0
M  V30 5286 H 512.127 0.232403 -2.5655 0
M  V30 5287 H 512.085 1.95814 -2.45976 0
M  V30 5288 N 515.857 1.33968 -0.830081 0
M  V30 5289 C 517.268 1.80439 -0.479455 0
M  V30 5290 C 517.619 1.68756 1.00079 0
M  V30 5291 O 516.744 1.23171 1.77927 0
M  V30 5292 C 517.339 3.27611 -0.863505 0
M  V30 5293 C 515.898 3.72133 -0.565145 0
M  V30 5294 C 515.045 2.55549 -1.07657 0
M  V30 5295 H 517.996 1.21614 -1.0196 0
M  V30 5296 H 518.017 3.8012 -0.170083 0
M  V30 5297 H 517.529 3.36082 -1.94089 0
M  V30 5298 H 515.63 3.69196 0.502536 0
M  V30 5299 H 515.743 4.65963 -1.11422 0
M  V30 5300 H 514.107 2.49788 -0.497807 0
M  V30 5301 H 514.89 2.66786 -2.16055 0
M  V30 5302 N 517.335 0.585699 1.46312 0
M  V30 5303 C 518.267 -0.183687 2.28463 0
M  V30 5304 C 519.28 -0.85264 1.38686 0
M  V30 5305 O 520.469 -0.721701 1.6326 0
M  V30 5306 C 517.569 -1.27977 3.13808 0
M  V30 5307 C 516.742 -0.702164 4.31727 0
M  V30 5308 C 515.801 -1.68633 4.98447 0
M  V30 5309 O 514.827 -1.22121 5.55945 0
M  V30 5310 N 516.029 -3.02047 4.95729 0
M  V30 5311 H 518.794 0.521127 2.95134 0
M  V30 5312 H 516.355 0.423673 1.56258 0
M  V30 5313 H 518.347 -1.9375 3.55307 0
M  V30 5314 H 516.917 -1.8874 2.4919 0
M  V30 5315 H 516.137 0.1331 3.93975 0
M  V30 5316 H 517.425 -0.296101 5.07938 0
M  V30 5317 H 516.823 -3.42457 4.50266 0
M  V30 5318 H 515.38 -3.63301 5.41161 0
M  V30 5319 N 518.813 -1.54241 0.323641 0
M  V30 5320 C 519.76 -2.24339 -0.542277 0
M  V30 5321 C 520.73 -1.23421 -1.11159 0
M  V30 5322 O 521.915 -1.52104 -1.15192 0
M  V30 5323 C 519.055 -3.00479 -1.69725 0
M  V30 5324 C 518.168 -4.16214 -1.15716 0
M  V30 5325 C 517.303 -4.79884 -2.27783 0
M  V30 5326 C 516.342 -5.87722 -1.71023 0
M  V30 5327 N 515.479 -6.45254 -2.76752 0
M  V30 5328 H 520.319 -2.97935 0.0620613 0
M  V30 5329 H 517.856 -1.47039 0.0423993 0
M  V30 5330 H 519.814 -3.42869 -2.3769 0
M  V30 5331 H 518.444 -2.29217 -2.27288 0
M  V30 5332 H 517.496 -3.78605 -0.369063 0
M  V30 5333 H 518.808 -4.93838 -0.701832 0
M  V30 5334 H 517.962 -5.25243 -3.03651 0
M  V30 5335 H 516.701 -4.01641 -2.76652 0
M  V30 5336 H 515.706 -5.41765 -0.936518 0
M  V30 5337 H 516.931 -6.67863 -1.2303 0
M  V30 5338 H 514.877 -5.69884 -3.24912 0
M  V30 5339 H 514.794 -7.18292 -2.35782 0
M  V30 5340 H 516.062 -6.95269 -3.5245 0
M  V30 5341 N 520.291 -0.0518155 -1.57515 0
M  V30 5342 C 521.254 0.907547 -2.10467 0
M  V30 5343 C 522.254 1.23947 -1.02439 0
M  V30 5344 O 523.444 1.17604 -1.2851 0
M  V30 5345 C 520.576 2.21723 -2.58944 0
M  V30 5346 H 521.769 0.44851 -2.96527 0
M  V30 5347 H 519.322 0.196598 -1.55059 0
M  V30 5348 H 520.057 2.72206 -1.76279 0
M  V30 5349 H 519.842 1.98935 -3.37886 0
M  V30 5350 H 521.332 2.90441 -3.00056 0
M  V30 5351 N 521.769 1.56035 0.221574 0
M  V30 5352 C 522.994 1.83476 0.967026 0
M  V30 5353 C 523.419 0.632139 1.7716 0
M  V30 5354 O 522.777 -0.419082 1.7639 0
M  V30 5355 C 522.825 3.08907 1.86034 0
M  V30 5356 O 521.929 2.876 2.95567 0
M  V30 5357 H 521.27 0.604913 0.273817 0
M  V30 5358 H 523.8 2.03247 0.234893 0
M  V30 5359 H 523.81 3.3901 2.27016 0
M  V30 5360 H 522.485 3.96068 1.26898 0
M  V30 5361 H 521.062 2.6873 2.58532 0
M  V30 5362 N 523.247 -0.488276 1.49845 0
M  V30 5363 C 524.472 -1.26997 1.63971 0
M  V30 5364 C 524.897 -1.85427 0.315994 0
M  V30 5365 O 524.255 -1.66475 -0.718032 0
M  V30 5366 C 524.303 -2.36689 2.72049 0
M  V30 5367 O 523.407 -3.40882 2.32107 0
M  V30 5368 H 522.748 -0.374376 0.548396 0
M  V30 5369 H 525.278 -0.583104 1.96115 0
M  V30 5370 H 525.288 -2.82262 2.94605 0
M  V30 5371 H 523.963 -1.93529 3.68129 0
M  V30 5372 H 522.54 -3.01139 2.19931 0
M  V30 5373 N 524.725 -1.39134 -0.740242 0
M  V30 5374 C 525.95 -1.39518 -1.53459 0
M  V30 5375 C 526.375 0.00968883 -1.88098 0
M  V30 5376 O 525.733 0.995312 -1.51536 0
M  V30 5377 C 525.781 -2.26981 -2.802 0
M  V30 5378 O 524.885 -1.69609 -3.75908 0
M  V30 5379 H 524.226 -0.475328 -0.463637 0
M  V30 5380 H 526.756 -1.83064 -0.913717 0
M  V30 5381 H 526.766 -2.41309 -3.28989 0
M  V30 5382 H 525.441 -3.29081 -2.5432 0
M  V30 5383 H 524.018 -1.64495 -3.34658 0
M  V30 5384 N 526.204 0.969867 -1.24223 0
M  V30 5385 C 527.432 1.74756 -1.10761 0
M  V30 5386 C 527.847 1.85713 0.340041 0
M  V30 5387 O 527.204 1.34389 1.23474 0
M  V30 5388 C 527.255 3.16915 -1.73917 0
M  V30 5389 O 526.976 3.06511 -3.13021 0
M  V30 5390 C 528.477 4.11032 -1.66036 0
M  V30 5391 H 525.697 0.548092 -0.387087 0
M  V30 5392 H 528.241 1.2178 -1.64286 0
M  V30 5393 H 526.396 3.66884 -1.244 0
M  V30 5394 H 526.81 3.96079 -3.43834 0
M  V30 5395 H 528.284 5.08446 -2.14911 0
M  V30 5396 H 528.761 4.34785 -0.621159 0
M  V30 5397 H 529.367 3.66972 -2.14969 0
M  V30 5398 N 527.682 1.05563 1.17022 0
M  V30 5399 C 528.612 0.681026 2.23348 0
M  V30 5400 C 529.593 -0.322983 1.67005 0
M  V30 5401 O 530.778 -0.199746 1.9317 0
M  V30 5402 C 527.908 0.0589053 3.4725 0
M  V30 5403 C 526.862 0.988082 4.16438 0
M  V30 5404 C 526.188 0.229646 5.34207 0
M  V30 5405 C 527.488 2.31388 4.68249 0
M  V30 5406 H 529.182 1.56993 2.54938 0
M  V30 5407 H 526.728 0.756302 1.2254 0
M  V30 5408 H 528.681 -0.214982 4.20851 0
M  V30 5409 H 527.405 -0.864968 3.14938 0
M  V30 5410 H 526.064 1.24659 3.44754 0
M  V30 5411 H 525.712 -0.697111 4.98146 0
M  V30 5412 H 525.412 0.848815 5.81437 0
M  V30 5413 H 526.936 -0.0368694 6.10589 0
M  V30 5414 H 528.35 2.09964 5.33468 0
M  V30 5415 H 526.747 2.88736 5.26072 0
M  V30 5416 H 527.817 2.94982 3.84855 0
M  V30 5417 N 529.16 -1.33526 0.837174 0
M  V30 5418 C 530.07 -2.33023 0.271568 0
M  V30 5419 C 531.086 -1.63272 -0.601514 0
M  V30 5420 O 532.262 -1.94939 -0.506038 0
M  V30 5421 C 529.327 -3.42382 -0.545448 0
M  V30 5422 C 528.388 -4.27857 0.351709 0
M  V30 5423 C 527.621 -5.31994 -0.426409 0
M  V30 5424 O 527.844 -5.45763 -1.65828 0
M  V30 5425 O 526.778 -6.01572 0.1987 0
M  V30 5426 H 530.604 -2.83256 1.09545 0
M  V30 5427 H 528.189 -1.36837 0.599655 0
M  V30 5428 H 530.071 -4.09122 -1.00979 0
M  V30 5429 H 528.746 -2.94369 -1.34641 0
M  V30 5430 H 527.653 -3.6399 0.863853 0
M  V30 5431 H 528.986 -4.79349 1.1174 0
M  V30 5432 N 530.638 -0.59345 -1.46 0
M  V30 5433 C 531.863 -0.0872365 -2.07216 0
M  V30 5434 C 532.288 1.2131 -1.43755 0
M  V30 5435 O 531.646 1.73528 -0.525152 0
M  V30 5436 C 531.694 0.0538197 -3.6056 0
M  V30 5437 O 530.798 1.10765 -3.97247 0
M  V30 5438 H 530.139 -0.0676598 -0.660544 0
M  V30 5439 H 532.669 -0.819445 -1.87473 0
M  V30 5440 H 532.679 0.256567 -4.07193 0
M  V30 5441 H 531.354 -0.895739 -4.0614 0
M  V30 5442 H 529.931 0.882501 -3.62307 0
M  V30 5443 N 532.116 1.54067 -0.331816 0
M  V30 5444 C 533.364 2.00319 0.267739 0
M  V30 5445 C 533.685 1.22148 1.52003 0
M  V30 5446 O 532.955 0.325494 1.93177 0
M  V30 5447 H 531.535 0.740014 0.101922 0
M  V30 5448 H 534.197 1.89628 -0.450267 0
M  V30 5449 H 533.293 3.07765 0.518385 0
M  V30 5450 N 533.594 0.0601682 1.57485 0
M  V30 5451 C 534.822 -0.620937 1.97363 0
M  V30 5452 C 535.237 -1.63846 0.938082 0
M  V30 5453 O 534.594 -1.82339 -0.0766578 0
M  V30 5454 C 534.645 -1.29987 3.37321 0
M  V30 5455 O 534.366 -0.323081 4.36907 0
M  V30 5456 C 535.867 -2.06989 3.92008 0
M  V30 5457 H 533.087 -0.169135 0.649334 0
M  V30 5458 H 535.631 0.129132 2.04092 0
M  V30 5459 H 533.786 -2.0011 3.31715 0
M  V30 5460 H 534.2 -0.808754 5.18227 0
M  V30 5461 H 535.674 -2.49901 4.92192 0
M  V30 5462 H 536.151 -2.92173 3.2792 0
M  V30 5463 H 536.757 -1.41757 4.0098 0
M  V30 5464 N 535.072 -1.5615 -0.213296 0
M  V30 5465 C 536.002 -1.96109 -1.26742 0
M  V30 5466 C 536.983 -0.830448 -1.48451 0
M  V30 5467 O 538.168 -1.09339 -1.60495 0
M  V30 5468 C 535.298 -2.28492 -2.61551 0
M  V30 5469 C 534.252 -3.44124 -2.54485 0
M  V30 5470 C 533.578 -3.62134 -3.93399 0
M  V30 5471 C 534.878 -4.78855 -2.08556 0
M  V30 5472 H 536.572 -2.84412 -0.935434 0
M  V30 5473 H 534.118 -1.36836 -0.44854 0
M  V30 5474 H 536.071 -2.55039 -3.3546 0
M  V30 5475 H 534.795 -1.37052 -2.96453 0
M  V30 5476 H 533.454 -3.17639 -1.83033 0
M  V30 5477 H 533.102 -2.68055 -4.25623 0
M  V30 5478 H 532.802 -4.39913 -3.89551 0
M  V30 5479 H 534.326 -3.91038 -4.68958 0
M  V30 5480 H 535.74 -5.04552 -2.72213 0
M  V30 5481 H 534.137 -5.59975 -2.1575 0
M  V30 5482 H 535.207 -4.73657 -1.03811 0
M  V30 5483 N 536.55 0.480323 -1.50102 0
M  V30 5484 C 537.966 0.813295 -1.37323 0
M  V30 5485 C 538.166 1.97027 -0.422206 0
M  V30 5486 O 537.222 2.5212 0.138563 0
M  V30 5487 C 538.535 1.13404 -2.78496 0
M  V30 5488 C 540.083 1.24104 -2.87345 0
M  V30 5489 C 540.558 1.59497 -4.29331 0
M  V30 5490 N 542.049 1.66507 -4.32238 0
M  V30 5491 C 542.784 1.95378 -5.39087 0
M  V30 5492 N 542.28 2.22333 -6.56155 0
M  V30 5493 N 544.073 1.96803 -5.26522 0
M  V30 5494 H 536.224 -0.282291 -2.10516 0
M  V30 5495 H 538.487 -0.063752 -0.945854 0
M  V30 5496 H 538.193 0.357064 -3.49883 0
M  V30 5497 H 538.067 2.07251 -3.15162 0
M  V30 5498 H 540.454 2.00871 -2.16183 0
M  V30 5499 H 540.535 0.282593 -2.54234 0
M  V30 5500 H 540.179 0.832736 -5.01027 0
M  V30 5501 H 540.109 2.56477 -4.59921 0
M  V30 5502 H 542.6 1.47753 -3.47818 0
M  V30 5503 H 542.913 2.43611 -7.33399 0
M  V30 5504 H 541.258 2.19745 -6.59346 0
M  V30 5505 H 544.449 1.75235 -4.34062 0
M  V30 5506 H 544.622 2.18969 -6.09883 0
M  V30 5507 N 538.028 1.39524 0.732853 0
M  V30 5508 C 538.96 1.34318 1.85718 0
M  V30 5509 C 539.973 0.251576 1.60844 0
M  V30 5510 O 541.162 0.510685 1.71039 0
M  V30 5511 C 538.262 1.06334 3.21786 0
M  V30 5512 C 537.435 2.26813 3.73998 0
M  V30 5513 C 536.494 1.95253 4.88634 0
M  V30 5514 O 535.52 2.67957 5.02183 0
M  V30 5515 N 536.722 0.919984 5.73164 0
M  V30 5516 H 539.487 2.3121 1.90688 0
M  V30 5517 H 537.048 1.33654 0.91368 0
M  V30 5518 H 539.04 0.832363 3.96048 0
M  V30 5519 H 537.61 0.181682 3.12072 0
M  V30 5520 H 536.83 2.65849 2.91064 0
M  V30 5521 H 538.118 3.0717 4.05616 0
M  V30 5522 H 537.516 0.317487 5.64808 0
M  V30 5523 H 536.073 0.748905 6.47483 0
M  V30 5524 N 539.506 -0.963266 1.24736 0
M  V30 5525 C 540.416 -2.09246 1.06082 0
M  V30 5526 C 541.432 -1.74 0.000363101 0
M  V30 5527 O 542.608 -2.0041 0.199479 0
M  V30 5528 C 539.673 -3.40115 0.672498 0
M  V30 5529 C 538.734 -3.89282 1.80993 0
M  V30 5530 C 537.967 -5.13905 1.44004 0
M  V30 5531 O 538.19 -5.69434 0.331835 0
M  V30 5532 O 537.124 -5.57566 2.26723 0
M  V30 5533 H 540.95 -2.27881 2.00759 0
M  V30 5534 H 538.535 -1.07649 1.03595 0
M  V30 5535 H 540.417 -4.18797 0.467668 0
M  V30 5536 H 539.092 -3.22771 -0.245102 0
M  V30 5537 H 537.999 -3.11642 2.06955 0
M  V30 5538 H 539.332 -4.1111 2.70646 0
M  V30 5539 N 540.985 -1.06182 -1.16461 0
M  V30 5540 C 541.915 -0.692861 -2.22984 0
M  V30 5541 C 542.896 0.314122 -1.67174 0
M  V30 5542 O 544.081 0.189499 -1.93273 0
M  V30 5543 C 541.211 -0.07732 -3.47214 0
M  V30 5544 C 540.165 -1.01015 -4.15909 0
M  V30 5545 C 539.491 -0.257973 -5.34077 0
M  V30 5546 C 540.791 -2.33868 -4.67015 0
M  V30 5547 H 542.485 -1.58343 -2.54102 0
M  V30 5548 H 540.031 -0.76279 -1.22137 0
M  V30 5549 H 541.984 0.19266 -4.20959 0
M  V30 5550 H 540.708 0.848254 -3.15392 0
M  V30 5551 H 539.367 -1.26486 -3.44088 0
M  V30 5552 H 539.015 0.670684 -4.98509 0
M  V30 5553 H 538.715 -0.879638 -5.80979 0
M  V30 5554 H 540.239 0.00448788 -6.106 0
M  V30 5555 H 541.653 -2.1279 -5.32347 0
M  V30 5556 H 540.05 -2.91522 -5.24533 0
M  V30 5557 H 541.12 -2.97019 -3.83286 0
M  V30 5558 N 542.463 1.3308 -0.844243 0
M  V30 5559 C 543.426 2.27403 -0.286485 0
M  V30 5560 C 544.426 1.51179 0.547872 0
M  V30 5561 O 545.616 1.70421 0.360886 0
M  V30 5562 C 542.748 3.35653 0.595813 0
M  V30 5563 H 543.941 2.78248 -1.11885 0
M  V30 5564 H 541.494 1.43574 -0.617749 0
M  V30 5565 H 542.229 2.90058 1.4504 0
M  V30 5566 H 542.014 3.921 -0.00125994 0
M  V30 5567 H 543.504 4.05958 0.979168 0
M  V30 5568 N 543.941 0.601185 1.45683 0
M  V30 5569 C 544.904 -0.111398 2.28929 0
M  V30 5570 C 545.904 -0.801246 1.39416 0
M  V30 5571 O 547.094 -0.650383 1.61603 0
M  V30 5572 C 544.226 -1.16773 3.20276 0
M  V30 5573 H 545.419 0.620412 2.93413 0
M  V30 5574 H 542.972 0.359946 1.52099 0
M  V30 5575 H 543.707 -1.93051 2.60579 0
M  V30 5576 H 543.492 -0.677358 3.86205 0
M  V30 5577 H 544.982 -1.66698 3.82886 0
M  V30 5578 N 545.419 -1.53889 0.339982 0
M  V30 5579 C 546.665 -2.01152 -0.258003 0
M  V30 5580 C 546.998 -1.22749 -1.50487 0
M  V30 5581 O 546.273 -0.314156 -1.91946 0
M  V30 5582 C 546.556 -3.55468 -0.575717 0
M  V30 5583 C 546.409 -4.44584 0.682996 0
M  V30 5584 C 547.728 -4.1768 -1.38677 0
M  V30 5585 H 544.847 -0.731198 -0.0922992 0
M  V30 5586 H 547.489 -1.84352 0.459814 0
M  V30 5587 H 545.639 -3.69914 -1.18725 0
M  V30 5588 H 547.311 -4.41981 1.32102 0
M  V30 5589 H 545.554 -4.13592 1.3086 0
M  V30 5590 H 546.225 -5.5043 0.416001 0
M  V30 5591 H 548.701 -4.0691 -0.869705 0
M  V30 5592 H 547.577 -5.25734 -1.57783 0
M  V30 5593 H 547.838 -3.72069 -2.38782 0
M  V30 5594 N 546.897 -0.0685191 -1.57451 0
M  V30 5595 C 548.137 0.605038 -1.9524 0
M  V30 5596 C 548.501 1.66974 -0.947816 0
M  V30 5597 O 549.702 2.39862 -1.21325 0
M  V30 5598 C 547.973 1.16999 -3.37707 0
M  V30 5599 S 549.532 1.85913 -3.97469 0
M  V30 5600 H 546.35 0.198203 -0.682815 0
M  V30 5601 H 548.952 -0.141594 -1.94987 0
M  V30 5602 H 547.656 0.383205 -4.08607 0
M  V30 5603 H 547.187 1.95305 -3.41496 0
M  V30 5604 H 549.202 3.14128 -3.84107 0
M  V30 5605 N 548.375 1.56261 0.205012 0
M  V30 5606 C 549.605 1.83874 0.942018 0
M  V30 5607 C 550.013 0.647595 1.77772 0
M  V30 5608 O 549.356 -0.393098 1.79445 0
M  V30 5609 C 549.418 3.05453 1.89575 0
M  V30 5610 C 549.082 4.39772 1.24296 0
M  V30 5611 C 550.079 5.16133 0.624724 0
M  V30 5612 C 547.764 4.86504 1.24978 0
M  V30 5613 C 549.758 6.37396 0.0220117 0
M  V30 5614 C 547.445 6.07705 0.643232 0
M  V30 5615 C 548.443 6.82993 0.0304164 0
M  V30 5616 O 548.131 8.019 -0.566654 0
M  V30 5617 H 547.863 0.614896 0.280854 0
M  V30 5618 H 550.417 2.04215 0.220285 0
M  V30 5619 H 548.647 2.80972 2.65691 0
M  V30 5620 H 550.336 3.19797 2.4997 0
M  V30 5621 H 551.102 4.81127 0.611666 0
M  V30 5622 H 546.981 4.27865 1.71616 0
M  V30 5623 H 550.525 6.96102 -0.456926 0
M  V30 5624 H 546.422 6.42181 0.653759 0
M  V30 5625 H 547.19 8.17192 -0.462588 0
M  V30 5626 N 549.853 -0.472356 1.50355 0
M  V30 5627 C 550.763 -1.59637 1.7191 0
M  V30 5628 C 551.779 -1.63247 0.602195 0
M  V30 5629 O 552.955 -1.81139 0.880369 0
M  V30 5630 C 550.02 -2.9586 1.80742 0
M  V30 5631 C 549.081 -3.02649 3.04471 0
M  V30 5632 C 548.314 -4.32374 3.12872 0
M  V30 5633 O 548.537 -5.22807 2.28099 0
M  V30 5634 O 547.471 -4.44728 4.05587 0
M  V30 5635 H 551.297 -1.44373 2.67189 0
M  V30 5636 H 548.882 -0.651717 1.34436 0
M  V30 5637 H 550.764 -3.7677 1.88739 0
M  V30 5638 H 549.439 -3.11325 0.88647 0
M  V30 5639 H 548.346 -2.20821 3.01975 0
M  V30 5640 H 549.679 -2.92119 3.9614 0
M  V30 5641 N 551.331 -1.39911 -0.725443 0
M  V30 5642 C 552.559 -1.40949 -1.51463 0
M  V30 5643 C 552.974 -0.0065242 -1.88799 0
M  V30 5644 O 552.331 0.967163 -1.54765 0
M  V30 5645 C 552.382 -2.29119 -2.79619 0
M  V30 5646 O 552.103 -3.63952 -2.43866 0
M  V30 5647 C 553.604 -2.38642 -3.73584 0
M  V30 5648 H 550.824 -0.481091 -0.467752 0
M  V30 5649 H 553.368 -1.83843 -0.895651 0
M  V30 5650 H 551.523 -1.89612 -3.37826 0
M  V30 5651 H 551.937 -4.10677 -3.26258 0
M  V30 5652 H 553.411 -3.04563 -4.60375 0
M  V30 5653 H 553.888 -1.40846 -4.16004 0
M  V30 5654 H 554.494 -2.78659 -3.21293 0
M  V30 5655 N 552.809 0.956637 -1.25245 0
M  V30 5656 C 553.757 2.0743 -1.0524 0
M  V30 5657 C 554.751 1.69392 0.0160725 0
M  V30 5658 O 555.957 1.7946 -0.139382 0
M  V30 5659 H 552.332 0.678921 -0.323373 0
M  V30 5660 H 554.303 2.2146 -1.99995 0
M  V30 5661 C 553.052 3.40872 -0.685702 0
M  V30 5662 H 552.375 3.70607 -1.49968 0
M  V30 5663 H 553.815 4.19939 -0.585415 0
M  V30 5664 C 552.274 3.31367 0.608082 0
M  V30 5665 O 552.804 3.66214 1.65076 0
M  V30 5666 N 551.01 2.84486 0.592955 0
M  V30 5667 H 550.557 2.56326 -0.25592 0
M  V30 5668 H 550.515 2.78509 1.45877 0
M  V30 5669 N 554.287 1.06798 1.15896 0
M  V30 5670 C 555.533 0.788934 1.86825 0
M  V30 5671 C 555.866 -0.683084 1.8179 0
M  V30 5672 O 555.141 -1.50086 1.23711 0
M  V30 5673 C 555.424 1.29065 3.36176 0
M  V30 5674 C 555.277 2.8268 3.49874 0
M  V30 5675 C 556.596 0.902655 4.30744 0
M  V30 5676 H 553.715 0.288066 0.678371 0
M  V30 5677 H 556.357 1.32479 1.36195 0
M  V30 5678 H 554.507 0.834806 3.79425 0
M  V30 5679 H 556.179 3.36511 3.15528 0
M  V30 5680 H 554.422 3.21157 2.91617 0
M  V30 5681 H 555.093 3.12852 4.54783 0
M  V30 5682 H 557.569 1.29535 3.95424 0
M  V30 5683 H 556.445 1.28111 5.3374 0
M  V30 5684 H 556.706 -0.191951 4.41683 0
M  V30 5685 N 555.766 -1.3263 0.851289 0
M  V30 5686 C 556.696 -2.31449 0.308771 0
M  V30 5687 C 557.677 -1.59531 -0.590255 0
M  V30 5688 O 558.862 -1.87351 -0.511205 0
M  V30 5689 C 555.992 -3.43586 -0.506548 0
M  V30 5690 C 554.946 -4.26963 0.297753 0
M  V30 5691 C 554.272 -5.30831 -0.642094 0
M  V30 5692 C 555.572 -4.99643 1.52166 0
M  V30 5693 H 557.266 -2.77074 1.13447 0
M  V30 5694 H 554.812 -1.33207 0.546971 0
M  V30 5695 H 556.765 -4.11754 -0.896474 0
M  V30 5696 H 555.489 -2.96681 -1.36558 0
M  V30 5697 H 554.148 -3.60437 0.669391 0
M  V30 5698 H 553.796 -4.8018 -1.49788 0
M  V30 5699 H 553.496 -5.87501 -0.107968 0
M  V30 5700 H 555.02 -6.01862 -1.02927 0
M  V30 5701 H 556.434 -5.6051 1.20421 0
M  V30 5702 H 554.831 -5.66022 1.99347 0
M  V30 5703 H 555.901 -4.27701 2.28474 0
M  V30 5704 N 557.244 -0.608902 -1.45362 0
M  V30 5705 C 558.492 -0.104401 -2.0183 0
M  V30 5706 C 558.813 1.27007 -1.47967 0
M  V30 5707 O 558.083 1.83924 -0.674455 0
M  V30 5708 H 556.663 -0.0356042 -0.746151 0
M  V30 5709 H 559.325 -0.790596 -1.78145 0
M  V30 5710 H 558.421 -0.0551793 -3.12051 0
M  V30 5711 N 558.722 1.53707 -0.348139 0
M  V30 5712 C 559.969 2.00988 0.246966 0
M  V30 5713 C 560.297 1.23586 1.50189 0
M  V30 5714 O 559.552 0.312817 1.93184 0
M  V30 5715 C 559.851 3.52292 0.602061 0
M  V30 5716 C 559.517 4.47453 -0.556509 0
M  V30 5717 C 558.179 4.73188 -0.874446 0
M  V30 5718 C 560.531 5.03851 -1.33354 0
M  V30 5719 C 557.859 5.52577 -1.9717 0
M  V30 5720 C 560.211 5.84437 -2.42108 0
M  V30 5721 C 558.875 6.08465 -2.74456 0
M  V30 5722 H 558.145 0.735469 0.0903712 0
M  V30 5723 H 560.792 1.85464 -0.477001 0
M  V30 5724 H 559.097 3.65672 1.40681 0
M  V30 5725 H 560.794 3.86337 1.07447 0
M  V30 5726 H 557.384 4.27558 -0.298652 0
M  V30 5727 H 561.568 4.8393 -1.10117 0
M  V30 5728 H 556.824 5.69418 -2.22651 0
M  V30 5729 H 560.998 6.27151 -3.02745 0
M  V30 5730 H 558.625 6.69768 -3.59604 0
M  V30 5731 N 560.2 0.0768682 1.57412 0
M  V30 5732 C 561.147 -0.888577 2.13009 0
M  V30 5733 C 562.117 -1.29198 1.0439 0
M  V30 5734 O 563.302 -1.37694 1.3208 0
M  V30 5735 C 560.442 -2.14899 2.70023 0
M  V30 5736 C 559.555 -1.79777 3.92816 0
M  V30 5737 C 558.69 -3.00467 4.38056 0
M  V30 5738 C 557.729 -2.61385 5.53484 0
M  V30 5739 N 556.866 -3.74851 5.93659 0
M  V30 5740 H 561.706 -0.407593 2.95199 0
M  V30 5741 H 559.243 -0.189534 1.45874 0
M  V30 5742 H 561.201 -2.88688 3.0119 0
M  V30 5743 H 559.831 -2.60529 1.9059 0
M  V30 5744 H 558.883 -0.960301 3.68079 0
M  V30 5745 H 560.195 -1.47027 4.76639 0
M  V30 5746 H 559.349 -3.82529 4.7091 0
M  V30 5747 H 558.088 -3.36413 3.53097 0
M  V30 5748 H 557.093 -1.77746 5.20275 0
M  V30 5749 H 558.318 -2.26603 6.40178 0
M  V30 5750 H 556.264 -4.1055 5.11649 0
M  V30 5751 H 556.181 -3.45887 6.72234 0
M  V30 5752 H 557.449 -4.57477 6.31138 0
M  V30 5753 N 561.678 -1.56367 -0.196722 0
M  V30 5754 C 562.926 -1.80172 -0.915554 0
M  V30 5755 C 563.247 -0.649649 -1.8386 0
M  V30 5756 O 562.517 0.332111 -1.93064 0
M  V30 5757 H 561.097 -0.664592 -0.341067 0
M  V30 5758 H 563.759 -1.93844 -0.202622 0
M  V30 5759 H 562.855 -2.7327 -1.50764 0
M  V30 5760 N 563.156 0.464375 -1.50603 0
M  V30 5761 C 564.567 1.04507 -1.5471 0
M  V30 5762 C 564.918 1.9297 -0.354542 0
M  V30 5763 O 564.043 2.09763 0.531812 0
M  V30 5764 C 564.638 1.90207 -2.80369 0
M  V30 5765 C 563.197 2.43373 -2.87135 0
M  V30 5766 C 562.344 1.21886 -2.49076 0
M  V30 5767 H 565.295 0.246716 -1.56771 0
M  V30 5768 H 565.316 2.75353 -2.62604 0
M  V30 5769 H 564.828 1.25796 -3.67147 0
M  V30 5770 H 562.929 3.11318 -2.04724 0
M  V30 5771 H 563.042 2.7802 -3.90181 0
M  V30 5772 H 561.406 1.55575 -2.01664 0
M  V30 5773 H 562.189 0.591268 -3.3817 0
M  V30 5774 N 564.634 1.40294 0.718013 0
M  V30 5775 C 566.05 1.2227 1.02577 0
M  V30 5776 C 566.25 0.0961976 2.0127 0
M  V30 5777 O 565.306 -0.546695 2.46511 0
M  V30 5778 C 566.619 2.56348 1.57182 0
M  V30 5779 C 568.167 2.6334 1.69178 0
M  V30 5780 C 568.642 3.9768 2.27188 0
M  V30 5781 N 570.133 3.99409 2.34578 0
M  V30 5782 C 570.868 5.00141 2.8044 0
M  V30 5783 N 570.364 6.11268 3.26073 0
M  V30 5784 N 572.157 4.87511 2.79802 0
M  V30 5785 H 564.308 2.12304 0.0637899 0
M  V30 5786 H 566.571 0.943632 0.0909036 0
M  V30 5787 H 566.277 3.3942 0.921262 0
M  V30 5788 H 566.151 2.77266 2.55741 0
M  V30 5789 H 568.538 1.80641 2.33351 0
M  V30 5790 H 568.619 2.46255 0.692247 0
M  V30 5791 H 568.263 4.80817 1.63638 0
M  V30 5792 H 568.193 4.12093 3.27852 0
M  V30 5793 H 570.684 3.19162 2.02346 0
M  V30 5794 H 570.997 6.84023 3.59628 0
M  V30 5795 H 569.342 6.14837 3.24038 0
M  V30 5796 H 572.533 3.9979 2.43487 0
M  V30 5797 H 572.706 5.66158 3.15228 0
M  V30 5798 N 566.112 -0.949982 1.2575 0
M  V30 5799 C 567.059 -2.04738 1.06541 0
M  V30 5800 C 568.029 -1.66078 -0.0268818 0
M  V30 5801 O 569.214 -1.90348 0.131196 0
M  V30 5802 C 566.354 -3.38027 0.695127 0
M  V30 5803 C 565.467 -3.89776 1.86276 0
M  V30 5804 C 564.602 -5.11411 1.4364 0
M  V30 5805 C 563.641 -5.554 2.57287 0
M  V30 5806 N 562.778 -6.68244 2.15395 0
M  V30 5807 H 567.618 -2.20502 2.00457 0
M  V30 5808 H 565.155 -1.0805 0.998178 0
M  V30 5809 H 567.113 -4.14641 0.461375 0
M  V30 5810 H 565.743 -3.22135 -0.207046 0
M  V30 5811 H 564.795 -3.0964 2.20969 0
M  V30 5812 H 566.107 -4.18368 2.71606 0
M  V30 5813 H 565.261 -5.95457 1.16257 0
M  V30 5814 H 564 -4.84545 0.553879 0
M  V30 5815 H 563.005 -4.69916 2.85409 0
M  V30 5816 H 564.23 -5.84272 3.46125 0
M  V30 5817 H 562.176 -6.43078 1.29565 0
M  V30 5818 H 562.093 -6.96377 2.94272 0
M  V30 5819 H 563.361 -7.55687 1.91201 0
M  V30 5820 N 567.59 -1.07411 -1.15328 0
M  V30 5821 C 568.523 -0.63913 -2.19067 0
M  V30 5822 C 569.501 0.343929 -1.58921 0
M  V30 5823 O 570.685 0.250207 -1.86832 0
M  V30 5824 C 567.812 0.0613977 -3.38644 0
M  V30 5825 C 566.858 -0.880201 -4.17318 0
M  V30 5826 S 567.691 -2.38152 -4.79629 0
M  V30 5827 C 568.847 -1.69281 -6.02573 0
M  V30 5828 H 569.08 -1.51799 -2.55626 0
M  V30 5829 H 566.613 -0.888138 -1.26299 0
M  V30 5830 H 568.571 0.459323 -4.07922 0
M  V30 5831 H 567.232 0.916605 -3.00428 0
M  V30 5832 H 566.425 -0.336781 -5.02874 0
M  V30 5833 H 566.027 -1.21854 -3.53592 0
M  V30 5834 H 568.319 -1.00488 -6.70006 0
M  V30 5835 H 569.262 -2.52671 -6.61485 0
M  V30 5836 H 569.67 -1.17053 -5.52231 0
M  V30 5837 N 569.068 1.32177 -0.85831 0
M  V30 5838 C 570.293 2.01847 -0.476718 0
M  V30 5839 C 570.718 1.64065 0.920021 0
M  V30 5840 O 570.076 0.843189 1.60499 0
M  V30 5841 C 570.124 3.55097 -0.627578 0
M  V30 5842 O 569.228 4.11012 0.338086 0
M  V30 5843 H 568.569 0.635907 -0.191099 0
M  V30 5844 H 571.099 1.68641 -1.15851 0
M  V30 5845 H 571.109 4.04718 -0.516476 0
M  V30 5846 H 569.784 3.81938 -1.64609 0
M  V30 5847 H 568.361 3.72451 0.182917 0
M  V30 5848 N 570.547 0.616602 1.45037 0
M  V30 5849 C 571.793 0.115501 2.02471 0
M  V30 5850 C 572.126 -1.25406 1.4828 0
M  V30 5851 O 571.401 -1.82922 0.661051 0
M  V30 5852 C 571.684 0.0863588 3.59996 0
M  V30 5853 C 571.537 1.48723 4.24501 0
M  V30 5854 C 572.856 -0.596762 4.36035 0
M  V30 5855 H 569.975 0.0434461 0.735718 0
M  V30 5856 H 572.617 0.7903 1.72784 0
M  V30 5857 H 570.767 -0.488277 3.85419 0
M  V30 5858 H 572.439 2.10964 4.10234 0
M  V30 5859 H 570.682 2.04534 3.82555 0
M  V30 5860 H 571.353 1.419 5.3345 0
M  V30 5861 H 573.829 -0.10824 4.15959 0
M  V30 5862 H 572.705 -0.586289 5.4576 0
M  V30 5863 H 572.966 -1.66451 4.09569 0
M  V30 5864 N 572.025 -1.5352 0.356285 0
M  V30 5865 C 573.274 -2.00298 -0.237373 0
M  V30 5866 C 573.587 -1.24784 -1.50627 0
M  V30 5867 O 574.793 -1.62103 -2.17795 0
M  V30 5868 C 573.249 -3.56771 -0.473545 0
M  V30 5869 C 572.857 -4.41154 0.780183 0
M  V30 5870 C 574.601 -4.1193 -1.02537 0
M  V30 5871 C 572.508 -5.89161 0.514108 0
M  V30 5872 H 571.438 -0.748307 -0.092478 0
M  V30 5873 H 574.089 -1.77283 0.473588 0
M  V30 5874 H 572.471 -3.75902 -1.24553 0
M  V30 5875 H 573.645 -4.33797 1.55425 0
M  V30 5876 H 571.96 -3.97052 1.25455 0
M  V30 5877 H 574.557 -5.20133 -1.2396 0
M  V30 5878 H 574.9 -3.65943 -1.98473 0
M  V30 5879 H 575.433 -3.96561 -0.313775 0
M  V30 5880 H 572.172 -6.39408 1.44355 0
M  V30 5881 H 571.692 -5.9939 -0.221632 0
M  V30 5882 H 573.371 -6.46857 0.136122 0
M  V30 5883 N 573.503 -0.0852151 -1.57369 0
M  V30 5884 C 574.749 0.581666 -1.94279 0
M  V30 5885 C 575.082 1.68444 -0.966446 0
M  V30 5886 O 574.357 1.945 0.00215277 0
M  V30 5887 C 574.64 1.14609 -3.41375 0
M  V30 5888 C 574.493 0.0490414 -4.49773 0
M  V30 5889 C 575.812 2.04751 -3.8957 0
M  V30 5890 H 572.931 0.209972 -0.706456 0
M  V30 5891 H 575.573 -0.153915 -1.89376 0
M  V30 5892 H 573.723 1.77297 -3.45685 0
M  V30 5893 H 575.395 -0.584721 -4.57579 0
M  V30 5894 H 573.638 -0.618638 -4.29366 0
M  V30 5895 H 574.309 0.484601 -5.49869 0
M  V30 5896 H 576.785 1.51981 -3.87351 0
M  V30 5897 H 575.661 2.41173 -4.93079 0
M  V30 5898 H 575.922 2.96107 -3.28288 0
M  V30 5899 N 574.981 1.5647 0.188427 0
M  V30 5900 C 576.392 1.70864 0.752494 0
M  V30 5901 C 576.743 0.692905 1.83557 0
M  V30 5902 O 575.868 -0.149307 2.15884 0
M  V30 5903 C 576.463 3.09789 1.37173 0
M  V30 5904 C 575.022 3.25925 1.88281 0
M  V30 5905 C 574.169 2.66817 0.755259 0
M  V30 5906 H 577.12 1.58657 -0.0367408 0
M  V30 5907 H 577.141 3.07489 2.24122 0
M  V30 5908 H 576.653 3.83693 0.583219 0
M  V30 5909 H 574.754 2.56948 2.6983 0
M  V30 5910 H 574.867 4.33498 2.04001 0
M  V30 5911 H 573.231 2.2617 1.17128 0
M  V30 5912 H 574.014 3.43294 -0.0211237 0
M  V30 5913 N 576.459 -0.456382 1.50847 0
M  V30 5914 C 577.707 -1.20497 1.62249 0
M  V30 5915 C 578.028 -1.92156 0.331839 0
M  V30 5916 O 577.298 -1.84751 -0.651443 0
M  V30 5917 H 575.878 -0.447775 0.597918 0
M  V30 5918 H 578.54 -0.525099 1.87693 0
M  V30 5919 H 577.636 -1.94492 2.44089 0
M  V30 5920 N 577.937 -1.40673 -0.710563 0
M  V30 5921 C 578.87 -1.35742 -1.83438 0
M  V30 5922 C 579.848 -0.226997 -1.61008 0
M  V30 5923 O 581.032 -0.411477 -1.83954 0
M  V30 5924 C 578.159 -1.11374 -3.19865 0
M  V30 5925 C 577.205 -2.26935 -3.61113 0
M  V30 5926 S 578.038 -3.89352 -3.67648 0
M  V30 5927 C 579.194 -3.67258 -5.06826 0
M  V30 5928 H 579.427 -2.30848 -1.87341 0
M  V30 5929 H 576.96 -1.27018 -0.877831 0
M  V30 5930 H 578.918 -0.980004 -3.9863 0
M  V30 5931 H 577.579 -0.179135 -3.13589 0
M  V30 5932 H 576.772 -2.0554 -4.60184 0
M  V30 5933 H 576.374 -2.36638 -2.89618 0
M  V30 5934 H 578.666 -3.26036 -5.93891 0
M  V30 5935 H 579.609 -4.65878 -5.33257 0
M  V30 5936 H 580.017 -3.0084 -4.77656 0
M  V30 5937 N 579.415 0.9433 -1.26252 0
M  V30 5938 C 580.363 2.06302 -1.07434 0
M  V30 5939 C 581.357 1.694 -0.00189471 0
M  V30 5940 O 582.563 1.79302 -0.158408 0
M  V30 5941 H 578.938 0.675453 -0.330556 0
M  V30 5942 H 580.909 2.19326 -2.02333 0
M  V30 5943 C 579.658 3.40125 -0.721817 0
M  V30 5944 H 578.981 3.68996 -1.5389 0
M  V30 5945 H 580.421 4.19295 -0.629922 0
M  V30 5946 C 578.88 3.31993 0.572902 0
M  V30 5947 O 579.41 3.67945 1.61182 0
M  V30 5948 N 577.616 2.85099 0.562748 0
M  V30 5949 H 577.163 2.5604 -0.283092 0
M  V30 5950 H 577.121 2.80041 1.42915 0
M  V30 5951 N 580.893 1.08022 1.14757 0
M  V30 5952 C 581.826 0.650738 2.18725 0
M  V30 5953 C 582.804 -0.335496 1.59101 0
M  V30 5954 O 583.988 -0.240295 1.86962 0
M  V30 5955 C 581.115 -0.0434377 3.38672 0
M  V30 5956 C 580.161 0.90232 4.16846 0
M  V30 5957 S 580.994 2.40693 4.78359 0
M  V30 5958 C 582.15 1.72475 6.01667 0
M  V30 5959 H 582.383 1.53152 2.54817 0
M  V30 5960 H 579.916 0.894823 1.25826 0
M  V30 5961 H 581.874 -0.437684 4.0816 0
M  V30 5962 H 580.535 -0.900659 3.0091 0
M  V30 5963 H 579.728 0.363445 5.02688 0
M  V30 5964 H 579.33 1.23728 3.52941 0
M  V30 5965 H 581.622 1.0404 6.69464 0
M  V30 5966 H 582.565 2.56175 6.60136 0
M  V30 5967 H 582.973 1.19979 5.51602 0
M  V30 5968 N 582.371 -1.3172 0.865308 0
M  V30 5969 C 583.617 -1.97168 0.474633 0
M  V30 5970 C 583.95 -1.68263 -0.969604 0
M  V30 5971 O 583.225 -0.976588 -1.68205 0
M  V30 5972 C 583.508 -3.52689 0.726808 0
M  V30 5973 C 583.361 -3.91185 2.22024 0
M  V30 5974 C 584.68 -4.39689 0.190201 0
M  V30 5975 H 581.799 -0.716185 0.17392 0
M  V30 5976 H 584.441 -1.55925 1.08569 0
M  V30 5977 H 582.591 -3.8795 0.206705 0
M  V30 5978 H 584.263 -3.66049 2.80724 0
M  V30 5979 H 582.506 -3.3996 2.69462 0
M  V30 5980 H 583.177 -4.99604 2.34735 0
M  V30 5981 H 585.653 -4.11225 0.635103 0
M  V30 5982 H 584.529 -5.47469 0.396132 0
M  V30 5983 H 584.79 -4.32683 -0.907625 0
M  V30 5984 N 583.85 -0.624285 -1.44708 0
M  V30 5985 C 584.8 0.106466 -2.27751 0
M  V30 5986 C 585.784 0.822703 -1.38277 0
M  V30 5987 O 586.976 0.709939 -1.62138 0
M  V30 5988 C 584.105 1.092 -3.25469 0
M  V30 5989 C 583.191 0.375737 -4.22432 0
M  V30 5990 N 583.582 -0.591881 -5.02325 0
M  V30 5991 C 581.88 0.621093 -4.41654 0
M  V30 5992 C 582.581 -1.01443 -5.72786 0
M  V30 5993 N 581.557 -0.354651 -5.42442 0
M  V30 5994 H 585.359 -0.636464 -2.86926 0
M  V30 5995 H 582.873 -0.44925 -1.56062 0
M  V30 5996 H 584.87 1.63006 -3.83712 0
M  V30 5997 H 583.529 1.8353 -2.67856 0
M  V30 5998 H 584.541 -0.969389 -5.08747 0
M  V30 5999 H 581.218 1.34779 -3.95147 0
M  V30 6000 H 582.608 -1.81345 -6.46965 0
M  V30 6001 N 585.328 1.53329 -0.364422 0
M  V30 6002 C 586.238 2.29414 0.490552 0
M  V30 6003 C 587.254 1.35335 1.09363 0
M  V30 6004 O 588.43 1.68391 1.10483 0
M  V30 6005 C 585.495 3.06772 1.61529 0
M  V30 6006 C 584.556 4.16516 1.03986 0
M  V30 6007 C 583.789 4.90176 2.111 0
M  V30 6008 O 584.012 4.63687 3.32191 0
M  V30 6009 O 582.946 5.76134 1.74222 0
M  V30 6010 H 586.772 3.03428 -0.12856 0
M  V30 6011 H 584.357 1.48843 -0.128837 0
M  V30 6012 H 586.239 3.55082 2.26924 0
M  V30 6013 H 584.914 2.35596 2.21983 0
M  V30 6014 H 583.821 3.7246 0.349856 0
M  V30 6015 H 585.154 4.89855 0.4799 0
M  V30 6016 N 586.806 0.0935595 1.57322 0
M  V30 6017 C 588.222 -0.263091 1.57417 0
M  V30 6018 C 588.422 -1.68526 1.1046 0
M  V30 6019 O 587.478 -2.40139 0.780357 0
M  V30 6020 C 588.791 -0.0529201 3.00653 0
M  V30 6021 C 590.339 -0.120788 3.12767 0
M  V30 6022 C 590.814 0.0613707 4.57959 0
M  V30 6023 N 592.305 0.00648534 4.632 0
M  V30 6024 C 593.04 0.122699 5.73269 0
M  V30 6025 N 592.536 0.29366 6.92177 0
M  V30 6026 N 594.329 0.0640787 5.62063 0
M  V30 6027 H 586.48 1.02277 1.86154 0
M  V30 6028 H 588.743 0.4007 0.859153 0
M  V30 6029 H 588.449 0.929279 3.39201 0
M  V30 6030 H 588.323 -0.795899 3.68708 0
M  V30 6031 H 590.71 -1.09349 2.74093 0
M  V30 6032 H 590.791 0.653656 2.47307 0
M  V30 6033 H 590.435 1.03093 4.97327 0
M  V30 6034 H 590.365 -0.732748 5.21477 0
M  V30 6035 H 592.856 -0.123173 3.77699 0
M  V30 6036 H 593.169 0.37389 7.71895 0
M  V30 6037 H 591.514 0.329307 6.94219 0
M  V30 6038 H 594.705 -0.0683396 4.6805 0
M  V30 6039 H 594.878 0.158097 6.47807 0
M  V30 6040 N 588.284 -1.56567 -0.180126 0
M  V30 6041 C 589.53 -1.81761 -0.899497 0
M  V30 6042 C 589.863 -0.670015 -1.82276 0
M  V30 6043 O 589.138 0.328575 -1.91705 0
M  V30 6044 C 589.421 -3.17296 -1.7028 0
M  V30 6045 C 589.274 -4.4257 -0.803255 0
M  V30 6046 C 590.593 -3.49678 -2.67233 0
M  V30 6047 H 587.712 -0.661192 -0.325567 0
M  V30 6048 H 590.354 -1.89272 -0.16612 0
M  V30 6049 H 588.504 -3.11023 -2.32802 0
M  V30 6050 H 590.176 -4.60902 -0.191585 0
M  V30 6051 H 588.419 -4.33658 -0.110796 0
M  V30 6052 H 589.09 -5.33935 -1.40064 0
M  V30 6053 H 591.566 -3.56347 -2.14839 0
M  V30 6054 H 590.442 -4.45605 -3.20511 0
M  V30 6055 H 590.703 -2.73932 -3.47007 0
M  V30 6056 N 589.762 0.448376 -1.51087 0
M  V30 6057 C 590.987 1.22605 -1.6728 0
M  V30 6058 C 591.412 1.84524 -0.365045 0
M  V30 6059 O 590.77 1.6832 0.673642 0
M  V30 6060 C 590.818 2.29393 -2.78229 0
M  V30 6061 O 589.922 3.34608 -2.41063 0
M  V30 6062 H 589.263 0.359705 -0.558129 0
M  V30 6063 H 591.793 0.530903 -1.97592 0
M  V30 6064 H 591.803 2.74352 -3.01986 0
M  V30 6065 H 590.478 1.83701 -3.73131 0
M  V30 6066 H 589.055 2.95202 -2.27838 0
M  V30 6067 N 591.24 1.41047 0.703093 0
M  V30 6068 C 592.489 1.39301 1.4587 0
M  V30 6069 C 592.802 0.00267077 1.956 0
M  V30 6070 O 594.008 -0.137414 2.71152 0
M  V30 6071 C 592.464 2.44891 2.63735 0
M  V30 6072 C 592.072 3.89796 2.20824 0
M  V30 6073 C 593.816 2.5227 3.41409 0
M  V30 6074 C 591.723 4.86955 3.35602 0
M  V30 6075 H 590.653 0.518005 0.547893 0
M  V30 6076 H 593.304 1.66839 0.764009 0
M  V30 6077 H 591.686 2.10472 3.35436 0
M  V30 6078 H 592.86 4.33424 1.56461 0
M  V30 6079 H 591.175 3.86008 1.56163 0
M  V30 6080 H 593.772 3.22044 4.26839 0
M  V30 6081 H 594.115 1.55714 3.86081 0
M  V30 6082 H 594.648 2.85742 2.7676 0
M  V30 6083 H 591.387 5.84888 2.9595 0
M  V30 6084 H 590.907 4.47982 3.98839 0
M  V30 6085 H 592.586 5.07361 4.01489 0
M  V30 6086 N 592.718 -0.936591 1.26751 0
M  V30 6087 C 594.134 -1.21095 1.03963 0
M  V30 6088 C 594.334 -2.00156 -0.232372 0
M  V30 6089 O 593.39 -2.3434 -0.940274 0
M  V30 6090 C 594.703 -1.96775 2.27377 0
M  V30 6091 C 596.251 -2.09749 2.32324 0
M  V30 6092 C 596.726 -2.88832 3.55443 0
M  V30 6093 N 598.217 -2.96404 3.55948 0
M  V30 6094 C 598.952 -3.58036 4.47881 0
M  V30 6095 N 598.448 -4.21132 5.50109 0
M  V30 6096 N 600.241 -3.55353 4.35523 0
M  V30 6097 H 592.392 -0.408173 2.08441 0
M  V30 6098 H 594.655 -0.243139 0.91629 0
M  V30 6099 H 594.361 -1.46094 3.19921 0
M  V30 6100 H 594.235 -2.97424 2.31989 0
M  V30 6101 H 596.622 -2.5962 1.40291 0
M  V30 6102 H 596.703 -1.08347 2.31721 0
M  V30 6103 H 596.347 -2.39647 4.47808 0
M  V30 6104 H 596.277 -3.90499 3.53296 0
M  V30 6105 H 598.768 -2.51552 2.82011 0
M  V30 6106 H 599.081 -4.66071 6.16439 0
M  V30 6107 H 597.426 -4.19705 5.53961 0
M  V30 6108 H 600.617 -3.05256 3.54875 0
M  V30 6109 H 600.79 -4.03097 5.07363 0
M  V30 6110 N 594.196 -1.08629 -1.14182 0
M  V30 6111 C 595.607 -0.838003 -1.66836 0
M  V30 6112 C 595.958 0.634885 -1.85644 0
M  V30 6113 O 595.083 1.49008 -1.56926 0
M  V30 6114 C 595.678 -1.51465 -3.03058 0
M  V30 6115 C 594.237 -1.31355 -3.52736 0
M  V30 6116 C 593.384 -1.57599 -2.28162 0
M  V30 6117 H 596.335 -1.24656 -0.982165 0
M  V30 6118 H 596.356 -0.943134 -3.68626 0
M  V30 6119 H 595.868 -2.58661 -2.89337 0
M  V30 6120 H 593.969 -0.262384 -3.71675 0
M  V30 6121 H 594.082 -2.04275 -4.33369 0
M  V30 6122 H 592.446 -0.997659 -2.34348 0
M  V30 6123 H 593.229 -2.66006 -2.17015 0
M  V30 6124 N 595.674 1.31259 -0.872281 0
M  V30 6125 C 597.09 1.49283 -0.564521 0
M  V30 6126 C 597.29 1.80243 0.900807 0
M  V30 6127 O 596.346 1.88246 1.68284 0
M  V30 6128 C 597.659 2.62503 -1.46673 0
M  V30 6129 C 599.207 2.76386 -1.46901 0
M  V30 6130 C 599.682 3.92705 -2.35684 0
M  V30 6131 N 601.173 3.99995 -2.33577 0
M  V30 6132 C 601.908 4.89276 -2.98992 0
M  V30 6133 N 601.404 5.83443 -3.73585 0
M  V30 6134 N 603.197 4.82541 -2.88289 0
M  V30 6135 H 595.348 1.09432 -1.82039 0
M  V30 6136 H 597.611 0.540949 -0.77851 0
M  V30 6137 H 597.317 2.46407 -2.50951 0
M  V30 6138 H 597.191 3.58695 -1.16696 0
M  V30 6139 H 599.578 2.91894 -0.433796 0
M  V30 6140 H 599.659 1.80853 -1.80903 0
M  V30 6141 H 599.303 3.77954 -3.39283 0
M  V30 6142 H 599.233 4.87549 -1.99006 0
M  V30 6143 H 601.724 3.32624 -1.7936 0
M  V30 6144 H 602.037 6.48303 -4.20622 0
M  V30 6145 H 600.382 5.83415 -3.77694 0
M  V30 6146 H 603.573 4.07951 -2.2955 0
M  V30 6147 H 603.746 5.51916 -3.39549 0
M  V30 6148 N 597.152 0.631951 1.44375 0
M  V30 6149 C 598.1 -0.0846693 2.32446 0
M  V30 6150 C 599.094 -0.834957 1.47393 0
M  V30 6151 O 600.3 -0.747764 1.63733 0
M  V30 6152 H 596.675 -0.0461508 0.750583 0
M  V30 6153 H 598.646 0.67619 2.90638 0
M  V30 6154 C 597.395 -1.05211 3.314 0
M  V30 6155 H 596.718 -0.484203 3.96857 0
M  V30 6156 H 598.158 -1.523 3.95703 0
M  V30 6157 C 596.617 -2.13776 2.60387 0
M  V30 6158 O 597.147 -3.21869 2.4034 0
M  V30 6159 N 595.353 -1.89733 2.20113 0
M  V30 6160 H 594.9 -1.01833 2.36618 0
M  V30 6161 H 594.858 -2.62572 1.72926 0
M  V30 6162 N 598.631 -1.53133 0.372548 0
M  V30 6163 C 599.541 -2.29671 -0.478379 0
M  V30 6164 C 600.557 -1.35913 -1.08644 0
M  V30 6165 O 601.733 -1.68975 -1.09588 0
M  V30 6166 C 598.798 -3.07625 -1.599 0
M  V30 6167 C 597.859 -4.17061 -1.01776 0
M  V30 6168 C 597.092 -4.91289 -2.08497 0
M  V30 6169 O 597.315 -4.65442 -3.29727 0
M  V30 6170 O 596.249 -5.7705 -1.71164 0
M  V30 6171 H 600.075 -3.03355 0.144649 0
M  V30 6172 H 597.66 -1.48773 0.136729 0
M  V30 6173 H 599.542 -3.56281 -2.25038 0
M  V30 6174 H 598.217 -2.3677 -2.2073 0
M  V30 6175 H 597.124 -3.72641 -0.330098 0
M  V30 6176 H 598.457 -4.90102 -0.453915 0
M  V30 6177 N 600.109 -0.101901 -1.5727 0
M  V30 6178 C 601.059 0.865346 -2.1094 0
M  V30 6179 C 602.043 1.2394 -1.02605 0
M  V30 6180 O 603.235 1.21334 -1.28868 0
M  V30 6181 C 600.364 2.12187 -2.69874 0
M  V30 6182 C 599.45 1.77295 -3.85263 0
M  V30 6183 N 599.841 1.12993 -4.93017 0
M  V30 6184 C 598.139 2.06862 -3.95126 0
M  V30 6185 C 598.84 0.968631 -5.73579 0
M  V30 6186 N 597.816 1.48814 -5.22834 0
M  V30 6187 H 601.618 0.364368 -2.91633 0
M  V30 6188 H 599.132 0.101104 -1.62085 0
M  V30 6189 H 601.129 2.82431 -3.06657 0
M  V30 6190 H 599.789 2.62844 -1.90639 0
M  V30 6191 H 600.8 0.795935 -5.11747 0
M  V30 6192 H 597.477 2.59686 -3.26909 0
M  V30 6193 H 598.867 0.465231 -6.70287 0
M  V30 6194 N 601.587 1.56661 0.17182 0
M  V30 6195 C 602.497 1.99604 1.2327 0
M  V30 6196 C 603.513 0.907333 1.4847 0
M  V30 6197 O 604.689 1.21492 1.60629 0
M  V30 6198 C 601.754 2.34685 2.55194 0
M  V30 6199 C 600.815 3.57381 2.3786 0
M  V30 6200 C 600.048 3.90779 3.63494 0
M  V30 6201 O 600.271 3.25152 4.6865 0
M  V30 6202 O 599.205 4.84129 3.57634 0
M  V30 6203 H 603.031 2.90114 0.898192 0
M  V30 6204 H 600.616 1.44522 0.378647 0
M  V30 6205 H 602.498 2.5822 3.33017 0
M  V30 6206 H 601.173 1.47336 2.88225 0
M  V30 6207 H 600.08 3.39064 1.5807 0
M  V30 6208 H 601.413 4.45268 2.09754 0
M  V30 6209 N 603.065 -0.440357 1.51323 0
M  V30 6210 C 604.293 -1.21255 1.67645 0
M  V30 6211 C 604.708 -1.85088 0.37252 0
M  V30 6212 O 604.065 -1.70582 -0.648683 0
M  V30 6213 C 604.116 -2.29881 2.78993 0
M  V30 6214 O 603.837 -1.68659 4.04334 0
M  V30 6215 C 605.338 -3.20214 3.06558 0
M  V30 6216 H 602.558 -0.36558 0.562666 0
M  V30 6217 H 605.102 -0.52214 1.97722 0
M  V30 6218 H 603.257 -2.94643 2.51524 0
M  V30 6219 H 603.671 -2.40426 4.6615 0
M  V30 6220 H 605.145 -3.92575 3.88058 0
M  V30 6221 H 605.622 -3.80794 2.18844 0
M  V30 6222 H 606.228 -2.61156 3.35675 0
M  V30 6223 N 604.543 -1.41418 -0.695603 0
M  V30 6224 C 605.473 -1.46035 -1.82197 0
M  V30 6225 C 606.454 -0.319025 -1.67082 0
M  V30 6226 O 607.639 -0.530462 -1.86815 0
M  V30 6227 C 604.769 -1.34179 -3.20333 0
M  V30 6228 C 603.723 -2.46123 -3.50154 0
M  V30 6229 C 603.049 -2.19332 -4.87645 0
M  V30 6230 C 604.349 -3.88463 -3.49133 0
M  V30 6231 H 606.043 -2.40303 -1.78591 0
M  V30 6232 H 603.589 -1.15663 -0.857797 0
M  V30 6233 H 605.542 -1.36021 -3.98844 0
M  V30 6234 H 604.266 -0.363952 -3.24566 0
M  V30 6235 H 602.925 -2.43563 -2.73994 0
M  V30 6236 H 602.573 -1.19891 -4.88503 0
M  V30 6237 H 602.273 -2.94344 -5.08562 0
M  V30 6238 H 603.797 -2.22889 -5.68465 0
M  V30 6239 H 605.211 -3.92738 -4.17648 0
M  V30 6240 H 603.608 -4.63158 -3.81582 0
M  V30 6241 H 604.678 -4.16617 -2.48109 0
M  V30 6242 N 606.021 0.929856 -1.27246 0
M  V30 6243 C 606.951 2.04722 -1.12299 0
M  V30 6244 C 607.932 1.70082 -0.0250464 0
M  V30 6245 O 609.117 1.93176 -0.199141 0
M  V30 6246 C 606.247 3.38721 -0.767145 0
M  V30 6247 C 605.201 3.87466 -1.81808 0
M  V30 6248 C 604.527 5.18246 -1.31626 0
M  V30 6249 C 605.827 4.11095 -3.22177 0
M  V30 6250 H 607.521 2.17485 -2.05769 0
M  V30 6251 H 605.067 1.04503 -0.990715 0
M  V30 6252 H 607.02 4.16366 -0.649413 0
M  V30 6253 H 605.744 3.25967 0.203259 0
M  V30 6254 H 604.403 3.12012 -1.92468 0
M  V30 6255 H 604.051 5.01881 -0.335378 0
M  V30 6256 H 603.751 5.51829 -2.01887 0
M  V30 6257 H 605.275 5.98462 -1.21143 0
M  V30 6258 H 606.689 4.79316 -3.1453 0
M  V30 6259 H 605.086 4.55982 -3.90129 0
M  V30 6260 H 606.156 3.16468 -3.67391 0
M  V30 6261 N 607.499 1.09233 1.13605 0
M  V30 6262 C 608.462 0.733553 2.17144 0
M  V30 6263 C 609.462 -0.235873 1.59061 0
M  V30 6264 O 610.652 -0.0143167 1.74194 0
M  V30 6265 C 607.784 0.084471 3.40795 0
M  V30 6266 H 608.977 1.65049 2.50397 0
M  V30 6267 H 606.53 0.891264 1.28399 0
M  V30 6268 H 607.265 -0.843795 3.1313 0
M  V30 6269 H 607.05 0.781985 3.84223 0
M  V30 6270 H 608.54 -0.151216 4.17326 0
M  V30 6271 N 608.977 -1.30795 0.87923 0
M  V30 6272 C 610.393 -1.48981 0.57243 0
M  V30 6273 C 610.593 -1.80719 -0.891236 0
M  V30 6274 O 609.649 -1.89136 -1.67283 0
M  V30 6275 C 610.962 -2.61721 1.48063 0
M  V30 6276 C 612.51 -2.75603 1.48365 0
M  V30 6277 C 612.985 -3.91449 2.37763 0
M  V30 6278 N 614.476 -3.98751 2.35695 0
M  V30 6279 C 615.211 -4.87684 3.01583 0
M  V30 6280 N 614.707 -5.81454 3.76674 0
M  V30 6281 N 616.5 -4.81005 2.90844 0
M  V30 6282 H 608.651 -1.08465 1.82617 0
M  V30 6283 H 610.914 -0.536813 0.781368 0
M  V30 6284 H 610.62 -2.45073 2.52254 0
M  V30 6285 H 610.494 -3.58071 1.18596 0
M  V30 6286 H 612.881 -2.9166 0.44927 0
M  V30 6287 H 612.962 -1.79891 1.81859 0
M  V30 6288 H 612.606 -3.76149 3.41283 0
M  V30 6289 H 612.536 -4.86487 2.01589 0
M  V30 6290 H 615.027 -3.31668 1.81121 0
M  V30 6291 H 615.34 -6.46063 4.24054 0
M  V30 6292 H 613.685 -5.81403 3.80782 0
M  V30 6293 H 616.876 -4.06728 2.31711 0
M  V30 6294 H 617.049 -5.50107 3.42471 0
M  V30 6295 N 610.455 -0.639598 -1.44038 0
M  V30 6296 C 611.701 -0.156248 -2.02799 0
M  V30 6297 C 612.056 1.21145 -1.49471 0
M  V30 6298 O 611.349 1.79406 -0.672608 0
M  V30 6299 C 611.543 -0.0925348 -3.5728 0
M  V30 6300 C 611.372 -1.45252 -4.25596 0
M  V30 6301 C 610.142 -2.04145 -4.62226 0
M  V30 6302 C 612.34 -2.38812 -4.55492 0
M  V30 6303 N 610.322 -3.3329 -5.15549 0
M  V30 6304 C 611.693 -3.52578 -5.09989 0
M  V30 6305 C 613.748 -2.37785 -4.3745 0
M  V30 6306 C 612.451 -4.65525 -5.48342 0
M  V30 6307 C 614.477 -3.49802 -4.76857 0
M  V30 6308 C 613.839 -4.62292 -5.31475 0
M  V30 6309 H 609.938 -0.101292 -0.775412 0
M  V30 6310 H 612.522 -0.844938 -1.75411 0
M  V30 6311 H 610.693 0.565459 -3.84262 0
M  V30 6312 H 612.425 0.400426 -4.02714 0
M  V30 6313 H 609.18 -1.56999 -4.4682 0
M  V30 6314 H 609.604 -3.9934 -5.46678 0
M  V30 6315 H 614.246 -1.52061 -3.94509 0
M  V30 6316 H 611.964 -5.51951 -5.90233 0
M  V30 6317 H 615.55 -3.50193 -4.64603 0
M  V30 6318 H 614.43 -5.47536 -5.61403 0
M  V30 6319 N 611.933 1.52934 -0.380664 0
M  V30 6320 C 612.865 2.23822 0.493581 0
M  V30 6321 C 613.878 1.25761 1.03383 0
M  V30 6322 O 615.067 1.5189 0.937633 0
M  V30 6323 C 612.167 2.9342 1.69582 0
M  V30 6324 C 611.34 4.18115 1.28445 0
M  V30 6325 C 610.399 4.70788 2.35042 0
M  V30 6326 O 609.425 5.34093 1.96807 0
M  V30 6327 N 610.627 4.49899 3.66839 0
M  V30 6328 H 613.392 2.99484 -0.11371 0
M  V30 6329 H 610.953 1.60577 -0.206587 0
M  V30 6330 H 612.945 3.2556 2.40401 0
M  V30 6331 H 611.515 2.21119 2.20965 0
M  V30 6332 H 610.735 3.92109 0.405503 0
M  V30 6333 H 612.023 4.99152 0.986132 0
M  V30 6334 H 611.421 3.99349 4.0067 0
M  V30 6335 H 609.978 4.86551 4.33718 0
M  V30 6336 N 613.412 0.11024 1.57214 0
M  V30 6337 C 614.36 -0.860586 2.16094 0
M  V30 6338 C 615.354 -1.28156 1.1078 0
M  V30 6339 O 616.56 -1.25433 1.29099 0
M  V30 6340 H 612.935 -0.295606 0.691463 0
M  V30 6341 H 614.906 -0.33942 2.96463 0
M  V30 6342 C 613.655 -2.10421 2.768 0
M  V30 6343 H 612.978 -1.7892 3.5753 0
M  V30 6344 H 614.418 -2.76375 3.21547 0
M  V30 6345 C 612.877 -2.88823 1.73444 0
M  V30 6346 O 613.407 -3.839 1.18251 0
M  V30 6347 N 611.613 -2.52649 1.43586 0
M  V30 6348 H 611.16 -1.754 1.8866 0
M  V30 6349 H 611.118 -3.05403 0.746735 0
M  V30 6350 N 614.89 -1.56749 -0.16351 0
M  V30 6351 C 615.837 -1.97011 -1.2023 0
M  V30 6352 C 616.807 -0.835186 -1.43575 0
M  V30 6353 O 617.992 -1.09594 -1.56185 0
M  V30 6354 C 615.132 -2.34186 -2.53478 0
M  V30 6355 C 614.245 -3.60893 -2.37446 0
M  V30 6356 C 613.38 -3.87245 -3.63614 0
M  V30 6357 C 612.419 -5.07274 -3.42548 0
M  V30 6358 N 611.556 -5.29719 -4.60806 0
M  V30 6359 H 616.396 -2.85562 -0.851958 0
M  V30 6360 H 613.933 -1.41292 -0.409257 0
M  V30 6361 H 615.891 -2.53764 -3.31149 0
M  V30 6362 H 614.521 -1.48736 -2.86492 0
M  V30 6363 H 613.573 -3.49185 -1.50911 0
M  V30 6364 H 614.885 -4.48722 -2.1783 0
M  V30 6365 H 614.039 -4.07232 -4.49719 0
M  V30 6366 H 612.778 -2.97806 -3.86216 0
M  V30 6367 H 611.783 -4.87177 -2.5483 0
M  V30 6368 H 613.008 -5.98251 -3.2136 0
M  V30 6369 H 610.954 -4.43233 -4.83612 0
M  V30 6370 H 610.871 -6.11786 -4.44132 0
M  V30 6371 H 612.139 -5.54192 -5.48171 0
M  V30 6372 N 616.368 0.432326 -1.51554 0
M  V30 6373 C 617.316 1.54572 -1.73811 0
M  V30 6374 C 618.31 1.58246 -0.604539 0
M  V30 6375 O 619.516 1.6193 -0.786041 0
M  V30 6376 H 615.891 0.513626 -0.549265 0
M  V30 6377 H 617.862 1.32977 -2.67132 0
M  V30 6378 C 616.611 2.92181 -1.88483 0
M  V30 6379 H 615.934 2.90088 -2.75116 0
M  V30 6380 H 617.374 3.69439 -2.08065 0
M  V30 6381 C 615.833 3.3065 -0.645909 0
M  V30 6382 O 616.363 4.01216 0.197093 0
M  V30 6383 N 614.569 2.86464 -0.488538 0
M  V30 6384 H 614.116 2.29209 -1.17562 0
M  V30 6385 H 614.074 3.12565 0.339156 0
M  V30 6386 N 617.846 1.41785 0.688094 0
M  V30 6387 C 619.074 1.44915 1.47673 0
M  V30 6388 C 619.489 0.0565786 1.88715 0
M  V30 6389 O 618.846 -0.92579 1.57275 0
M  V30 6390 C 618.897 2.36452 2.73446 0
M  V30 6391 O 618.618 3.7029 2.34131 0
M  V30 6392 C 620.119 2.48463 3.67125 0
M  V30 6393 H 617.339 0.493324 0.454832 0
M  V30 6394 H 619.883 1.86153 0.846594 0
M  V30 6395 H 618.038 1.98502 3.3268 0
M  V30 6396 H 618.452 4.19183 3.15255 0
M  V30 6397 H 619.926 3.16662 4.52138 0
M  V30 6398 H 620.403 1.51826 4.12123 0
M  V30 6399 H 621.009 2.8708 3.13792 0
M  V30 6400 N 619.324 -0.923095 1.27737 0
M  V30 6401 C 620.234 -2.05765 1.12685 0
M  V30 6402 C 621.25 -1.73911 0.0557197 0
M  V30 6403 O 622.426 -1.99674 0.263137 0
M  V30 6404 C 619.491 -3.37804 0.780363 0
M  V30 6405 C 618.552 -3.83326 1.93286 0
M  V30 6406 C 617.785 -5.09064 1.60281 0
M  V30 6407 O 618.008 -5.6809 0.512828 0
M  V30 6408 O 616.942 -5.50071 2.44347 0
M  V30 6409 H 620.768 -2.21378 2.07907 0
M  V30 6410 H 618.353 -1.04299 1.06968 0
M  V30 6411 H 620.235 -4.17097 0.600668 0
M  V30 6412 H 618.91 -3.23387 -0.142291 0
M  V30 6413 H 617.817 -3.049 2.16764 0
M  V30 6414 H 619.15 -4.02292 2.83588 0
M  V30 6415 N 620.802 -1.09834 -1.13024 0
M  V30 6416 C 622.027 -0.85909 -1.88771 0
M  V30 6417 C 622.452 0.584402 -1.78791 0
M  V30 6418 O 621.81 1.41101 -1.13842 0
M  V30 6419 C 621.858 -1.30427 -3.36186 0
M  V30 6420 O 620.962 -0.465368 -4.09766 0
M  V30 6421 H 620.303 -0.310786 -0.586778 0
M  V30 6422 H 622.833 -1.46355 -1.42973 0
M  V30 6423 H 622.843 -1.2915 -3.8702 0
M  V30 6424 H 621.518 -2.3555 -3.42767 0
M  V30 6425 H 620.095 -0.542814 -3.68928 0
M  V30 6426 N 622.28 1.30327 -0.886154 0
M  V30 6427 C 623.529 1.95373 -0.501243 0
M  V30 6428 C 623.842 1.70722 0.954634 0
M  V30 6429 O 625.048 2.29761 1.44644 0
M  V30 6430 C 623.504 3.49828 -0.845493 0
M  V30 6431 C 623.112 3.83296 -2.31922 0
M  V30 6432 C 624.856 4.2118 -0.529838 0
M  V30 6433 C 622.763 5.30935 -2.60504 0
M  V30 6434 H 621.693 0.731274 -0.183722 0
M  V30 6435 H 624.344 1.48258 -1.08129 0
M  V30 6436 H 622.726 3.95522 -0.19452 0
M  V30 6437 H 623.9 3.48508 -3.01461 0
M  V30 6438 H 622.215 3.2505 -2.60253 0
M  V30 6439 H 624.812 5.29825 -0.720401 0
M  V30 6440 H 625.155 4.12902 0.530828 0
M  V30 6441 H 625.688 3.81173 -1.13806 0
M  V30 6442 H 622.427 5.44265 -3.65316 0
M  V30 6443 H 621.947 5.67019 -1.95575 0
M  V30 6444 H 623.626 5.98381 -2.46066 0
M  V30 6445 N 623.758 0.647228 1.43697 0
M  V30 6446 C 625.007 0.155552 2.01099 0
M  V30 6447 C 625.32 -1.23569 1.51624 0
M  V30 6448 O 626.526 -1.82226 2.01261 0
M  V30 6449 C 624.982 0.227296 3.59182 0
M  V30 6450 C 624.59 1.62086 4.17651 0
M  V30 6451 C 626.334 -0.207085 4.23995 0
M  V30 6452 C 624.241 1.64685 5.68008 0
M  V30 6453 H 623.171 0.0543895 0.752036 0
M  V30 6454 H 625.822 0.808386 1.64734 0
M  V30 6455 H 624.204 -0.492937 3.9292 0
M  V30 6456 H 625.378 2.36597 3.95422 0
M  V30 6457 H 623.693 2.0007 3.65186 0
M  V30 6458 H 626.29 -0.207426 5.34298 0
M  V30 6459 H 626.633 -1.23742 3.97484 0
M  V30 6460 H 627.166 0.461193 3.95118 0
M  V30 6461 H 623.905 2.65608 5.99277 0
M  V30 6462 H 623.425 0.944914 5.9231 0
M  V30 6463 H 625.104 1.38792 6.31938 0
M  V30 6464 N 625.236 -1.5273 0.388769 0
M  V30 6465 C 626.146 -2.30165 -0.453993 0
M  V30 6466 C 627.162 -1.37058 -1.07197 0
M  V30 6467 O 628.338 -1.70127 -1.0779 0
M  V30 6468 C 625.403 -3.09303 -1.56628 0
M  V30 6469 C 624.464 -4.18117 -0.973467 0
M  V30 6470 C 623.697 -4.93472 -2.03275 0
M  V30 6471 O 623.92 -4.68913 -3.24772 0
M  V30 6472 O 622.854 -5.78833 -1.65034 0
M  V30 6473 H 626.68 -3.03185 0.176816 0
M  V30 6474 H 624.265 -1.4862 0.152501 0
M  V30 6475 H 626.147 -3.58648 -2.21246 0
M  V30 6476 H 624.822 -2.39098 -2.18206 0
M  V30 6477 H 623.729 -3.7297 -0.290556 0
M  V30 6478 H 625.062 -4.90556 -0.401908 0
M  V30 6479 N 626.714 -0.118576 -1.57153 0
M  V30 6480 C 627.644 0.828436 -2.1831 0
M  V30 6481 C 628.625 1.27758 -1.12303 0
M  V30 6482 O 629.81 1.34026 -1.40537 0
M  V30 6483 C 626.94 2.07876 -2.78217 0
M  V30 6484 C 625.894 1.76742 -3.89803 0
M  V30 6485 C 625.22 3.08801 -4.36516 0
M  V30 6486 C 626.52 1.03606 -5.11921 0
M  V30 6487 H 628.214 0.318824 -2.97698 0
M  V30 6488 H 625.76 0.151911 -1.43196 0
M  V30 6489 H 627.713 2.74584 -3.19659 0
M  V30 6490 H 626.437 2.61161 -1.96118 0
M  V30 6491 H 625.096 1.12424 -3.48936 0
M  V30 6492 H 624.744 3.6002 -3.51276 0
M  V30 6493 H 624.444 2.88743 -5.11763 0
M  V30 6494 H 625.968 3.76627 -4.80608 0
M  V30 6495 H 627.382 1.60467 -5.50385 0
M  V30 6496 H 625.779 0.936454 -5.92748 0
M  V30 6497 H 626.849 0.0227421 -4.84895 0
M  V30 6498 N 628.193 1.56834 0.155195 0
M  V30 6499 C 629.125 1.94235 1.21677 0
M  V30 6500 C 630.138 0.83724 1.39621 0
M  V30 6501 O 631.327 1.11567 1.39338 0
M  V30 6502 C 628.427 2.19402 2.58294 0
M  V30 6503 C 627.6 3.50671 2.61436 0
M  V30 6504 C 626.659 3.64475 3.79532 0
M  V30 6505 O 625.685 4.36945 3.64784 0
M  V30 6506 N 626.887 3.00526 4.96653 0
M  V30 6507 H 629.652 2.85901 0.898932 0
M  V30 6508 H 627.213 1.58185 0.34483 0
M  V30 6509 H 629.205 2.25886 3.35794 0
M  V30 6510 H 627.775 1.34042 2.82403 0
M  V30 6511 H 626.995 3.55702 1.69912 0
M  V30 6512 H 628.283 4.3702 2.60559 0
M  V30 6513 H 627.681 2.41549 5.11538 0
M  V30 6514 H 626.238 3.12583 5.71958 0
M  V30 6515 N 629.671 -0.424282 1.51781 0
M  V30 6516 C 630.619 -1.53649 1.74628 0
M  V30 6517 C 631.613 -1.57923 0.612922 0
M  V30 6518 O 632.819 -1.61511 0.794618 0
M  V30 6519 H 629.194 -0.510706 0.551981 0
M  V30 6520 H 631.165 -1.31558 2.67834 0
M  V30 6521 C 629.914 -2.91177 1.9003 0
M  V30 6522 H 629.237 -2.88625 2.76651 0
M  V30 6523 H 630.677 -3.6833 2.10021 0
M  V30 6524 C 629.136 -3.30303 0.663435 0
M  V30 6525 O 629.666 -4.01315 -0.175812 0
M  V30 6526 N 627.872 -2.86201 0.503723 0
M  V30 6527 H 627.419 -2.28583 1.18776 0
M  V30 6528 H 627.377 -3.12741 -0.322575 0
M  V30 6529 N 631.149 -1.42148 -0.680565 0
M  V30 6530 C 632.096 -1.45175 -1.79424 0
M  V30 6531 C 633.066 -0.304352 -1.63288 0
M  V30 6532 O 634.251 -0.507591 -1.83924 0
M  V30 6533 C 631.391 -1.35429 -3.17416 0
M  V30 6534 C 630.504 -2.60158 -3.4488 0
M  V30 6535 C 629.639 -2.42596 -4.72568 0
M  V30 6536 C 628.678 -3.62727 -4.93047 0
M  V30 6537 N 627.815 -3.44143 -6.11973 0
M  V30 6538 H 632.655 -2.40349 -1.76172 0
M  V30 6539 H 630.192 -1.19334 -0.860107 0
M  V30 6540 H 632.15 -1.27777 -3.97151 0
M  V30 6541 H 630.78 -0.438536 -3.19807 0
M  V30 6542 H 629.832 -2.78199 -2.5944 0
M  V30 6543 H 631.144 -3.49473 -3.55908 0
M  V30 6544 H 630.298 -2.32497 -5.60384 0
M  V30 6545 H 629.037 -1.50761 -4.63813 0
M  V30 6546 H 628.042 -3.73264 -4.03676 0
M  V30 6547 H 629.267 -4.55534 -5.03652 0
M  V30 6548 H 627.213 -2.5502 -6.04401 0
M  V30 6549 H 627.13 -4.27041 -6.23836 0
M  V30 6550 H 628.398 -3.37845 -7.02482 0
M  V30 6551 N 632.627 0.916307 -1.28225 0
M  V30 6552 C 633.855 1.69901 -1.18073 0
M  V30 6553 C 634.27 1.86988 0.260968 0
M  V30 6554 O 633.627 1.39505 1.17663 0
M  V30 6555 C 633.678 3.09254 -1.87201 0
M  V30 6556 O 633.399 2.92959 -3.2574 0
M  V30 6557 C 634.9 4.0362 -1.83319 0
M  V30 6558 H 632.12 0.531181 -0.409985 0
M  V30 6559 H 634.664 1.14703 -1.69303 0
M  V30 6560 H 632.819 3.61277 -1.39848 0
M  V30 6561 H 633.233 3.81139 -3.60324 0
M  V30 6562 H 634.707 4.98873 -2.36282 0
M  V30 6563 H 635.184 4.3176 -0.805007 0
M  V30 6564 H 635.79 3.57524 -2.3034 0
M  V30 6565 N 634.105 1.10431 1.1244 0
M  V30 6566 C 635.516 0.864439 1.65482 0
M  V30 6567 C 635.867 -0.60527 1.8663 0
M  V30 6568 O 634.992 -1.46492 1.59276 0
M  V30 6569 C 635.587 1.56267 3.0061 0
M  V30 6570 C 634.146 1.3695 3.50602 0
M  V30 6571 C 633.293 1.61209 2.25626 0
M  V30 6572 H 636.244 1.26203 0.962209 0
M  V30 6573 H 636.265 1.00166 3.67079 0
M  V30 6574 H 635.777 2.63231 2.85186 0
M  V30 6575 H 633.878 0.321481 3.71211 0
M  V30 6576 H 633.991 2.11143 4.30064 0
M  V30 6577 H 632.355 1.03482 2.32731 0
M  V30 6578 H 633.138 2.69425 2.12756 0
M  V30 6579 N 635.583 -1.29855 0.893053 0
M  V30 6580 C 636.829 -1.96116 0.516349 0
M  V30 6581 C 637.162 -1.70281 -0.933695 0
M  V30 6582 O 636.437 -1.01205 -1.66096 0
M  V30 6583 C 636.72 -3.51068 0.801455 0
M  V30 6584 C 636.573 -3.86387 2.30272 0
M  V30 6585 C 637.892 -4.39186 0.283423 0
M  V30 6586 H 635.011 -0.712335 0.189072 0
M  V30 6587 H 637.653 -1.53587 1.11852 0
M  V30 6588 H 635.803 -3.87424 0.288949 0
M  V30 6589 H 637.475 -3.60012 2.88425 0
M  V30 6590 H 635.718 -3.34167 2.76613 0
M  V30 6591 H 636.389 -4.94512 2.45279 0
M  V30 6592 H 638.865 -4.09785 0.722187 0
M  V30 6593 H 637.741 -5.46505 0.512169 0
M  V30 6594 H 638.002 -4.34511 -0.815643 0
M  V30 6595 N 637.061 -0.65484 -1.43351 0
M  V30 6596 C 638.307 -0.177749 -2.02622 0
M  V30 6597 C 638.662 1.19553 -1.50748 0
M  V30 6598 O 637.955 1.78683 -0.691599 0
M  V30 6599 C 638.149 -0.130424 -3.57162 0
M  V30 6600 C 637.978 -1.49757 -4.24032 0
M  V30 6601 C 636.748 -2.09036 -4.60035 0
M  V30 6602 C 638.946 -2.4363 -4.52934 0
M  V30 6603 N 636.928 -3.3874 -5.11985 0
M  V30 6604 C 638.299 -3.57968 -5.0622 0
M  V30 6605 C 640.354 -2.42412 -4.34903 0
M  V30 6606 C 639.057 -4.71314 -5.43374 0
M  V30 6607 C 641.083 -3.5484 -4.7312 0
M  V30 6608 C 640.445 -4.67903 -5.26541 0
M  V30 6609 H 636.544 -0.10951 -0.774294 0
M  V30 6610 H 639.128 -0.863495 -1.74505 0
M  V30 6611 H 637.299 0.524671 -3.8484 0
M  V30 6612 H 639.031 0.35769 -4.03116 0
M  V30 6613 H 635.786 -1.61729 -4.4513 0
M  V30 6614 H 636.21 -4.05116 -5.42412 0
M  V30 6615 H 640.852 -1.56236 -3.92874 0
M  V30 6616 H 638.57 -5.5818 -5.84346 0
M  V30 6617 H 642.156 -3.55101 -4.60863 0
M  V30 6618 H 641.036 -5.5346 -5.55564 0
M  V30 6619 N 638.539 1.52521 -0.396863 0
M  V30 6620 C 639.487 2.28217 0.44943 0
M  V30 6621 C 640.481 1.32416 1.05652 0
M  V30 6622 O 641.687 1.49925 0.996124 0
M  V30 6623 H 638.062 0.733966 0.1637 0
M  V30 6624 H 640.033 2.97658 -0.210367 0
M  V30 6625 C 638.782 3.10713 1.56054 0
M  V30 6626 H 638.105 3.84291 1.10273 0
M  V30 6627 H 639.545 3.66803 2.12677 0
M  V30 6628 C 638.004 2.23499 2.52091 0
M  V30 6629 O 638.534 1.8669 3.55682 0
M  V30 6630 N 636.74 1.8751 2.2201 0
M  V30 6631 H 636.287 2.17643 1.37802 0
M  V30 6632 H 636.245 1.29448 2.86514 0
M  V30 6633 N 640.017 0.126909 1.57088 0
M  V30 6634 C 641.294 -0.573152 1.87014 0
M  V30 6635 C 641.674 -1.84297 1.02945 0
M  V30 6636 O 641.022 -2.28232 0.110573 0
M  V30 6637 C 641.232 -0.857984 3.38289 0
M  V30 6638 C 642.58 -1.20759 4.07066 0
M  V30 6639 O 643.604 -0.947992 3.43353 0
M  V30 6640 O 642.463 -1.69516 5.19545 0
M  V30 6641 H 639.557 -0.290082 0.774456 0
M  V30 6642 H 642.103 0.162008 1.68925 0
M  V30 6643 H 640.875 0.0415286 3.91278 0
M  V30 6644 H 640.498 -1.64803 3.61837 0
M  V30 6645 N 641.495 -1.56914 -0.146875 0
M  V30 6646 C 642.772 -1.74273 -0.888165 0
M  V30 6647 C 643.152 -0.69496 -1.99333 0
M  V30 6648 O 642.5 0.286093 -2.26702 0
M  V30 6649 C 642.71 -3.18336 -1.43051 0
M  V30 6650 C 644.058 -3.80024 -1.89387 0
M  V30 6651 O 645.082 -3.21765 -1.52792 0
M  V30 6652 O 643.941 -4.82367 -2.56874 0
M  V30 6653 H 641.035 -0.712565 -0.419738 0
M  V30 6654 H 643.581 -1.6918 -0.132791 0
M  V30 6655 H 642.353 -3.86092 -0.636274 0
M  V30 6656 H 641.976 -3.27854 -2.24938 0
M  V30 6657 N 642.974 0.416227 -1.52004 0
M  V30 6658 C 644.202 1.18573 -1.69553 0
M  V30 6659 C 644.617 1.84472 -0.401919 0
M  V30 6660 O 643.974 1.71593 0.621463 0
M  V30 6661 C 644.025 2.25413 -2.82615 0
M  V30 6662 O 643.746 1.62205 -4.06966 0
M  V30 6663 C 645.247 3.15297 -3.11613 0
M  V30 6664 H 642.467 0.356582 -0.56841 0
M  V30 6665 H 645.011 0.490618 -1.98528 0
M  V30 6666 H 643.166 2.90604 -2.56179 0
M  V30 6667 H 643.58 2.3298 -4.69916 0
M  V30 6668 H 645.054 3.86351 -3.94255 0
M  V30 6669 H 645.531 3.77264 -2.24874 0
M  V30 6670 H 646.137 2.55783 -3.39787 0
M  V30 6671 N 644.452 1.42507 0.673017 0
M  V30 6672 C 645.384 1.42074 1.79854 0
M  V30 6673 C 646.397 0.319569 1.59633 0
M  V30 6674 O 647.586 0.582769 1.68719 0
M  V30 6675 C 644.686 1.19886 3.16987 0
M  V30 6676 C 643.859 2.42471 3.64042 0
M  V30 6677 C 642.918 2.15802 4.79913 0
M  V30 6678 O 641.944 2.89015 4.90366 0
M  V30 6679 N 643.146 1.16225 5.68746 0
M  V30 6680 H 645.911 2.3909 1.8071 0
M  V30 6681 H 643.472 1.37409 0.856171 0
M  V30 6682 H 645.464 0.999591 3.92161 0
M  V30 6683 H 644.034 0.313879 3.1102 0
M  V30 6684 H 643.254 2.77954 2.79526 0
M  V30 6685 H 644.542 3.24097 3.92223 0
M  V30 6686 H 643.94 0.556756 5.62954 0
M  V30 6687 H 642.497 1.02285 6.43724 0
M  V30 6688 N 645.93 -0.909495 1.28709 0
M  V30 6689 C 647.155 -1.69801 1.1909 0
M  V30 6690 C 647.58 -1.86479 -0.246388 0
M  V30 6691 O 646.938 -1.37802 -1.17815 0
M  V30 6692 C 646.986 -3.06543 1.89904 0
M  V30 6693 O 646.09 -3.94268 1.2094 0
M  V30 6694 H 645.431 -0.519783 0.413185 0
M  V30 6695 H 647.961 -1.13689 1.70106 0
M  V30 6696 H 647.971 -3.56748 1.97977 0
M  V30 6697 H 646.646 -2.93722 2.94449 0
M  V30 6698 H 645.223 -3.52702 1.2106 0
M  V30 6699 N 647.408 -1.11026 -1.11852 0
M  V30 6700 C 648.638 -0.877544 -1.87037 0
M  V30 6701 C 649.046 0.575925 -1.80221 0
M  V30 6702 O 648.389 1.40916 -1.17849 0
M  V30 6703 C 648.451 -1.25529 -3.36872 0
M  V30 6704 C 648.115 -2.71704 -3.67459 0
M  V30 6705 C 649.112 -3.69931 -3.65304 0
M  V30 6706 C 646.797 -3.08243 -3.966 0
M  V30 6707 C 648.791 -5.02717 -3.9186 0
M  V30 6708 C 646.478 -4.41215 -4.22815 0
M  V30 6709 C 647.476 -5.38262 -4.20432 0
M  V30 6710 O 647.164 -6.68839 -4.45992 0
M  V30 6711 H 646.896 -0.314374 -0.598452 0
M  V30 6712 H 649.45 -1.48015 -1.42411 0
M  V30 6713 H 647.68 -0.595808 -3.82082 0
M  V30 6714 H 649.369 -0.999064 -3.93413 0
M  V30 6715 H 650.135 -3.43047 -3.42846 0
M  V30 6716 H 646.014 -2.33326 -3.97593 0
M  V30 6717 H 649.558 -5.78456 -3.89916 0
M  V30 6718 H 645.455 -4.67835 -4.44748 0
M  V30 6719 H 646.223 -6.74563 -4.63581 0
M  V30 6720 N 648.886 1.2938 -0.899927 0
M  V30 6721 C 650.132 1.9584 -0.526742 0
M  V30 6722 C 650.465 1.70774 0.924651 0
M  V30 6723 O 649.74 1.02084 1.65557 0
M  V30 6724 C 650.023 3.50638 -0.820062 0
M  V30 6725 C 649.876 3.85161 -2.32317 0
M  V30 6726 C 651.195 4.3903 -0.30671 0
M  V30 6727 H 648.314 0.711322 -0.192848 0
M  V30 6728 H 650.956 1.52992 -1.12665 0
M  V30 6729 H 649.106 3.87265 -0.309491 0
M  V30 6730 H 650.778 3.58477 -2.9033 0
M  V30 6731 H 649.021 3.32696 -2.78381 0
M  V30 6732 H 649.692 4.93204 -2.47898 0
M  V30 6733 H 652.168 4.09396 -0.743908 0
M  V30 6734 H 651.044 5.46226 -0.541144 0
M  V30 6735 H 651.305 4.34937 0.792588 0
M  V30 6736 N 650.364 0.662433 1.43002 0
M  V30 6737 C 651.294 -0.00979809 2.33498 0
M  V30 6738 C 652.275 -0.802329 1.49989 0
M  V30 6739 O 653.46 -0.761964 1.78627 0
M  V30 6740 C 650.59 -0.970446 3.33466 0
M  V30 6741 C 649.544 -0.287383 4.27034 0
M  V30 6742 C 648.87 -1.36012 5.17112 0
M  V30 6743 C 650.17 0.82595 5.15728 0
M  V30 6744 H 651.864 0.745959 2.89958 0
M  V30 6745 H 649.41 0.360172 1.39423 0
M  V30 6746 H 651.363 -1.44971 3.95679 0
M  V30 6747 H 650.087 -1.75748 2.75282 0
M  V30 6748 H 648.746 0.17152 3.66199 0
M  V30 6749 H 648.394 -2.13882 4.55262 0
M  V30 6750 H 648.094 -0.908276 5.80538 0
M  V30 6751 H 649.618 -1.84056 5.82199 0
M  V30 6752 H 651.032 0.42845 5.71697 0
M  V30 6753 H 649.429 1.20282 5.87922 0
M  V30 6754 H 650.499 1.68003 4.54866 0
M  V30 6755 N 651.842 -1.52309 0.404946 0
M  V30 6756 C 652.79 -2.28452 -0.437321 0
M  V30 6757 C 653.784 -1.32975 -1.04948 0
M  V30 6758 O 654.99 -1.50451 -0.988159 0
M  V30 6759 H 651.365 -0.734824 -0.159805 0
M  V30 6760 H 653.336 -2.97542 0.22615 0
M  V30 6761 C 652.085 -3.11536 -1.54404 0
M  V30 6762 H 651.408 -3.84871 -1.08233 0
M  V30 6763 H 652.848 -3.67926 -2.10729 0
M  V30 6764 C 651.307 -2.24833 -2.50902 0
M  V30 6765 O 651.837 -1.88574 -3.54687 0
M  V30 6766 N 650.043 -1.88685 -2.21012 0
M  V30 6767 H 649.59 -2.18371 -1.36646 0
M  V30 6768 H 649.548 -1.30966 -2.85824 0
M  V30 6769 N 653.32 -0.135238 -1.57019 0
M  V30 6770 C 654.567 0.518794 -1.95742 0
M  V30 6771 C 654.895 1.65642 -1.01947 0
M  V30 6772 O 654.15 1.95645 -0.0464016 0
M  V30 6773 C 654.449 1.07694 -3.40788 0
M  V30 6774 C 654.115 0.058992 -4.50861 0
M  V30 6775 C 652.777 -0.220872 -4.80693 0
M  V30 6776 C 655.129 -0.633856 -5.17331 0
M  V30 6777 C 652.457 -1.19959 -5.74305 0
M  V30 6778 C 654.809 -1.60131 -6.11997 0
M  V30 6779 C 653.473 -1.889 -6.40213 0
M  V30 6780 H 652.743 0.18984 -0.716269 0
M  V30 6781 H 655.39 -0.219581 -1.90237 0
M  V30 6782 H 653.695 1.89241 -3.43067 0
M  V30 6783 H 655.392 1.59137 -3.68071 0
M  V30 6784 H 651.982 0.287304 -4.27636 0
M  V30 6785 H 656.166 -0.430823 -4.94427 0
M  V30 6786 H 651.422 -1.42905 -5.94465 0
M  V30 6787 H 655.596 -2.14376 -6.62583 0
M  V30 6788 H 653.223 -2.64891 -7.12556 0
M  V30 6789 N 654.798 1.5699 0.138552 0
M  V30 6790 C 655.748 1.9532 1.17619 0
M  V30 6791 C 656.732 0.825545 1.38107 0
M  V30 6792 O 657.924 1.08908 1.39528 0
M  V30 6793 C 655.053 2.34451 2.50774 0
M  V30 6794 C 654.139 3.53805 2.33844 0
M  V30 6795 N 654.53 4.70088 1.86685 0
M  V30 6796 C 652.828 3.59055 2.64567 0
M  V30 6797 C 653.529 5.52165 1.82998 0
M  V30 6798 N 652.505 4.94108 2.26624 0
M  V30 6799 H 656.307 2.82694 0.803809 0
M  V30 6800 H 653.821 1.5866 0.346519 0
M  V30 6801 H 655.818 2.60119 3.25797 0
M  V30 6802 H 654.478 1.48431 2.88788 0
M  V30 6803 H 655.489 4.93681 1.56523 0
M  V30 6804 H 652.166 2.83596 3.06398 0
M  V30 6805 H 653.556 6.55407 1.47957 0
M  V30 6806 N 656.276 -0.40816 1.52223 0
M  V30 6807 C 657.524 -1.15274 1.66001 0
M  V30 6808 C 657.845 -1.91003 0.392803 0
M  V30 6809 O 657.115 -1.8673 -0.592336 0
M  V30 6810 H 655.695 -0.428526 0.611861 0
M  V30 6811 H 658.357 -0.46512 1.89269 0
M  V30 6812 H 657.453 -1.86628 2.50153 0
M  V30 6813 N 657.755 -1.42862 -0.66545 0
M  V30 6814 C 659.171 -1.25993 -0.979687 0
M  V30 6815 C 659.371 -0.170831 -2.00775 0
M  V30 6816 O 658.427 0.454827 -2.4837 0
M  V30 6817 C 659.74 -2.62005 -1.47559 0
M  V30 6818 C 661.288 -2.69437 -1.59288 0
M  V30 6819 C 661.763 -4.05838 -2.12272 0
M  V30 6820 N 663.254 -4.0784 -2.19592 0
M  V30 6821 C 663.989 -5.10205 -2.61684 0
M  V30 6822 N 663.485 -6.22949 -3.03161 0
M  V30 6823 N 665.278 -4.9756 -2.61516 0
M  V30 6824 H 657.429 -2.12395 0.0150493 0
M  V30 6825 H 659.692 -0.946355 -0.0558187 0
M  V30 6826 H 659.398 -3.42605 -0.794654 0
M  V30 6827 H 659.272 -2.86566 -2.45275 0
M  V30 6828 H 661.659 -1.89178 -2.26486 0
M  V30 6829 H 661.74 -2.48655 -0.600374 0
M  V30 6830 H 661.384 -4.86559 -1.4568 0
M  V30 6831 H 661.314 -4.23977 -3.12331 0
M  V30 6832 H 663.805 -3.26452 -1.90361 0
M  V30 6833 H 664.118 -6.96899 -3.33993 0
M  V30 6834 H 662.463 -6.2644 -3.00995 0
M  V30 6835 H 665.654 -4.08551 -2.28481 0
M  V30 6836 H 665.827 -5.77468 -2.93999 0
M  V30 6837 N 659.233 0.902656 -1.29189 0
M  V30 6838 C 660.479 1.65532 -1.17163 0
M  V30 6839 C 660.812 1.92216 0.276879 0
M  V30 6840 O 660.087 1.53048 1.20027 0
M  V30 6841 C 660.37 3.00629 -1.98228 0
M  V30 6842 C 660.223 2.81029 -3.51202 0
M  V30 6843 C 661.542 4.01321 -1.80635 0
M  V30 6844 H 658.661 0.60071 -0.426985 0
M  V30 6845 H 661.303 1.04578 -1.5863 0
M  V30 6846 H 659.453 3.52656 -1.62991 0
M  V30 6847 H 661.125 2.35927 -3.96404 0
M  V30 6848 H 659.368 2.1587 -3.76275 0
M  V30 6849 H 660.039 3.77014 -4.03192 0
M  V30 6850 H 662.515 3.58394 -2.11406 0
M  V30 6851 H 661.391 4.93792 -2.3971 0
M  V30 6852 H 661.652 4.35505 -0.760754 0
M  V30 6853 N 660.711 1.11618 1.11262 0
M  V30 6854 C 661.939 0.888739 1.8684 0
M  V30 6855 C 662.354 -0.561558 1.80255 0
M  V30 6856 O 661.711 -1.38782 1.18515 0
M  V30 6857 C 661.762 1.34422 3.35579 0
M  V30 6858 O 661.483 2.73766 3.42029 0
M  V30 6859 C 662.984 1.15246 4.28058 0
M  V30 6860 H 660.204 0.318152 0.590779 0
M  V30 6861 H 662.748 1.48398 1.40707 0
M  V30 6862 H 660.903 0.79239 3.7921 0
M  V30 6863 H 661.317 2.9355 4.34659 0
M  V30 6864 H 662.791 1.52015 5.30656 0
M  V30 6865 H 663.268 0.0922007 4.39103 0
M  V30 6866 H 663.874 1.69136 3.90222 0
M  V30 6867 N 662.189 -1.289 0.906776 0
M  V30 6868 C 663.121 -2.26556 0.347159 0
M  V30 6869 C 664.134 -1.54589 -0.51049 0
M  V30 6870 O 665.323 -1.75489 -0.326501 0
M  V30 6871 C 662.423 -3.3484 -0.523024 0
M  V30 6872 C 661.596 -4.36296 0.310515 0
M  V30 6873 C 660.655 -5.23879 -0.493634 0
M  V30 6874 O 659.681 -5.69127 0.0913569 0
M  V30 6875 N 660.883 -5.51946 -1.7982 0
M  V30 6876 H 663.648 -2.75212 1.18652 0
M  V30 6877 H 661.209 -1.42309 0.771996 0
M  V30 6878 H 663.201 -3.90366 -1.06756 0
M  V30 6879 H 661.771 -2.85946 -1.26309 0
M  V30 6880 H 660.991 -3.80331 1.03644 0
M  V30 6881 H 662.279 -5.01113 0.881106 0
M  V30 6882 H 661.677 -5.17006 -2.2961 0
M  V30 6883 H 660.234 -6.10258 -2.28971 0
M  V30 6884 N 663.667 -0.670007 -1.42649 0
M  V30 6885 C 664.63 0.00204659 -2.292 0
M  V30 6886 C 665.63 0.733817 -1.4308 0
M  V30 6887 O 666.82 0.57254 -1.64522 0
M  V30 6888 C 663.952 1.01359 -3.25483 0
M  V30 6889 H 665.145 -0.759696 -2.90118 0
M  V30 6890 H 662.698 -0.432105 -1.50208 0
M  V30 6891 H 663.433 1.80399 -2.69493 0
M  V30 6892 H 663.218 0.492323 -3.88997 0
M  V30 6893 H 664.708 1.4824 -3.90403 0
M  V30 6894 N 665.145 1.52092 -0.413018 0
M  V30 6895 C 666.37 2.06756 0.163338 0
M  V30 6896 C 666.795 1.28073 1.37764 0
M  V30 6897 O 666.153 0.312015 1.78595 0
M  V30 6898 C 666.201 3.57278 0.488322 0
M  V30 6899 O 665.305 3.80986 1.57871 0
M  V30 6900 H 664.646 0.663882 0.0125068 0
M  V30 6901 H 667.176 1.95988 -0.587339 0
M  V30 6902 H 667.186 4.01125 0.745836 0
M  V30 6903 H 665.861 4.13978 -0.399327 0
M  V30 6904 H 664.438 3.49017 1.31306 0
M  V30 6905 N 666.623 0.143563 1.56945 0
M  V30 6906 C 667.869 -0.50916 1.96304 0
M  V30 6907 C 668.202 -1.64741 1.0283 0
M  V30 6908 O 667.477 -1.94374 0.0700361 0
M  V30 6909 C 667.76 -1.0186 3.45393 0
M  V30 6910 C 667.613 0.117923 4.49645 0
M  V30 6911 C 668.932 -1.90151 3.96901 0
M  V30 6912 H 666.051 -0.183608 0.713763 0
M  V30 6913 H 668.693 0.224095 1.88674 0
M  V30 6914 H 666.843 -1.64345 3.52027 0
M  V30 6915 H 668.515 0.754145 4.55094 0
M  V30 6916 H 666.758 0.777568 4.26774 0
M  V30 6917 H 667.429 -0.280187 5.51288 0
M  V30 6918 H 669.905 -1.375 3.92725 0
M  V30 6919 H 668.781 -2.22707 5.0169 0
M  V30 6920 H 669.042 -2.83718 3.39052 0
M  V30 6921 N 668.101 -1.57061 -0.130224 0
M  V30 6922 C 669.048 -1.99517 -1.16024 0
M  V30 6923 C 670.018 -0.865452 -1.41771 0
M  V30 6924 O 671.203 -1.12882 -1.53826 0
M  V30 6925 C 668.343 -2.3951 -2.48453 0
M  V30 6926 C 667.456 -3.65848 -2.29737 0
M  V30 6927 C 666.591 -3.9487 -3.55318 0
M  V30 6928 C 665.63 -5.14426 -3.31711 0
M  V30 6929 N 664.767 -5.39375 -4.49466 0
M  V30 6930 H 669.607 -2.87305 -0.791194 0
M  V30 6931 H 667.144 -1.42129 -0.379195 0
M  V30 6932 H 669.102 -2.60731 -3.25692 0
M  V30 6933 H 667.732 -1.54779 -2.83272 0
M  V30 6934 H 666.784 -3.52307 -1.4347 0
M  V30 6935 H 668.096 -4.53241 -2.08263 0
M  V30 6936 H 667.25 -4.16679 -4.4098 0
M  V30 6937 H 665.989 -3.05931 -3.79813 0
M  V30 6938 H 664.994 -4.92473 -2.44439 0
M  V30 6939 H 666.219 -6.04933 -3.08598 0
M  V30 6940 H 664.165 -4.53391 -4.74102 0
M  V30 6941 H 664.082 -6.21069 -4.31055 0
M  V30 6942 H 665.35 -5.65694 -5.36293 0
M  V30 6943 N 669.579 0.400081 -1.52437 0
M  V30 6944 C 670.527 1.50851 -1.7705 0
M  V30 6945 C 671.521 1.56928 -0.637969 0
M  V30 6946 O 672.727 1.60226 -0.820212 0
M  V30 6947 H 669.102 0.50186 -0.560036 0
M  V30 6948 H 671.073 1.27281 -2.69893 0
M  V30 6949 C 669.822 2.88117 -1.94638 0
M  V30 6950 H 669.145 2.84187 -2.81208 0
M  V30 6951 H 670.585 3.64942 -2.15855 0
M  V30 6952 C 669.044 3.29206 -0.715899 0
M  V30 6953 O 669.574 4.01544 0.111944 0
M  V30 6954 N 667.78 2.85363 -0.549191 0
M  V30 6955 H 667.327 2.26664 -1.22397 0
M  V30 6956 H 667.285 3.13214 0.27278 0
M  V30 6957 N 671.057 1.43213 0.657864 0
M  V30 6958 C 672.304 1.44584 1.41781 0
M  V30 6959 C 672.632 0.0684208 1.9438 0
M  V30 6960 O 671.887 -0.925872 1.72413 0
M  V30 6961 C 672.186 2.43143 2.61947 0
M  V30 6962 C 671.852 3.89128 2.27794 0
M  V30 6963 C 670.514 4.28889 2.18191 0
M  V30 6964 C 672.866 4.81144 2.00375 0
M  V30 6965 C 670.194 5.58625 1.79319 0
M  V30 6966 C 672.546 6.11239 1.63003 0
M  V30 6967 C 671.21 6.49981 1.51922 0
M  V30 6968 H 670.48 0.529069 0.518813 0
M  V30 6969 H 673.127 1.76263 0.748577 0
M  V30 6970 H 671.432 2.04851 3.33981 0
M  V30 6971 H 673.129 2.4146 3.20153 0
M  V30 6972 H 669.719 3.57657 2.36176 0
M  V30 6973 H 673.903 4.512 2.06718 0
M  V30 6974 H 669.159 5.87486 1.69323 0
M  V30 6975 H 673.333 6.82014 1.40817 0
M  V30 6976 H 670.96 7.50416 1.21572 0
M  V30 6977 N 672.536 -0.895792 1.29666 0
M  V30 6978 C 673.468 -2.00563 1.10937 0
M  V30 6979 C 674.481 -1.62705 0.055734 0
M  V30 6980 O 675.67 -1.7595 0.300656 0
M  V30 6981 C 672.77 -3.32262 0.667448 0
M  V30 6982 C 671.943 -3.98625 1.80047 0
M  V30 6983 C 671.002 -5.08617 1.3489 0
M  V30 6984 O 670.028 -5.30837 2.05429 0
M  V30 6985 N 671.23 -5.80076 0.221937 0
M  V30 6986 H 673.995 -2.17184 2.06522 0
M  V30 6987 H 671.556 -1.06822 1.21658 0
M  V30 6988 H 673.548 -4.03196 0.348586 0
M  V30 6989 H 672.118 -3.11985 -0.196055 0
M  V30 6990 H 671.338 -3.21005 2.28801 0
M  V30 6991 H 672.626 -4.39704 2.56003 0
M  V30 6992 H 672.024 -5.64514 -0.366084 0
M  V30 6993 H 670.581 -6.51789 -0.0375346 0
M  V30 6994 N 674.014 -1.12206 -1.10668 0
M  V30 6995 C 675.263 -0.870595 -1.81944 0
M  V30 6996 C 675.576 0.605447 -1.85994 0
M  V30 6997 O 676.782 0.973433 -2.53449 0
M  V30 6998 C 675.238 -1.50783 -3.26791 0
M  V30 6999 C 674.846 -3.01849 -3.31046 0
M  V30 7000 C 676.59 -1.33653 -4.02911 0
M  V30 7001 C 674.497 -3.58518 -4.70339 0
M  V30 7002 H 673.427 -0.322043 -0.681765 0
M  V30 7003 H 676.078 -1.34827 -1.24475 0
M  V30 7004 H 674.46 -0.957825 -3.84242 0
M  V30 7005 H 675.634 -3.63321 -2.83433 0
M  V30 7006 H 673.949 -3.18346 -2.68411 0
M  V30 7007 H 676.546 -1.73416 -5.05797 0
M  V30 7008 H 676.889 -0.279949 -4.15358 0
M  V30 7009 H 677.422 -1.85562 -3.51868 0
M  V30 7010 H 674.161 -4.63925 -4.63091 0
M  V30 7011 H 673.681 -3.01819 -5.18329 0
M  V30 7012 H 675.36 -3.57434 -5.39305 0
M  V30 7013 N 675.492 1.28418 -0.913599 0
M  V30 7014 C 676.741 1.94265 -0.542572 0
M  V30 7015 C 677.054 1.72709 0.918207 0
M  V30 7016 O 678.26 2.32778 1.39738 0
M  V30 7017 C 676.716 3.47956 -0.919507 0
M  V30 7018 C 676.324 3.78291 -2.4 0
M  V30 7019 C 678.068 4.19962 -0.619057 0
M  V30 7020 C 675.975 5.2529 -2.71707 0
M  V30 7021 H 674.905 0.727213 -0.199192 0
M  V30 7022 H 677.556 1.45931 -1.11249 0
M  V30 7023 H 675.938 3.9502 -0.278372 0
M  V30 7024 H 677.112 3.42035 -3.08786 0
M  V30 7025 H 675.427 3.19456 -2.67089 0
M  V30 7026 H 678.024 5.28178 -0.832623 0
M  V30 7027 H 678.367 4.13935 0.443126 0
M  V30 7028 H 678.9 3.78674 -1.21865 0
M  V30 7029 H 675.639 5.36394 -3.76778 0
M  V30 7030 H 675.159 5.62743 -2.07559 0
M  V30 7031 H 676.838 5.93027 -2.58703 0
M  V30 7032 N 676.97 0.677563 1.42291 0
M  V30 7033 C 677.92 -0.0218641 2.2799 0
M  V30 7034 C 678.904 -0.770816 1.41235 0
M  V30 7035 O 680.096 -0.649273 1.64662 0
M  V30 7036 C 677.225 -0.970449 3.29298 0
M  V30 7037 C 676.311 -0.218695 4.23536 0
M  V30 7038 N 676.702 0.777908 4.99782 0
M  V30 7039 C 675 -0.456748 4.43655 0
M  V30 7040 C 675.701 1.22632 5.68627 0
M  V30 7041 N 674.677 0.55573 5.40752 0
M  V30 7042 H 678.479 0.742516 2.84366 0
M  V30 7043 H 675.993 0.506862 1.54288 0
M  V30 7044 H 677.99 -1.48652 3.89497 0
M  V30 7045 H 676.65 -1.73463 2.74483 0
M  V30 7046 H 677.661 1.15754 5.04798 0
M  V30 7047 H 674.338 -1.20021 3.99877 0
M  V30 7048 H 675.728 2.05231 6.39789 0
M  V30 7049 N 678.448 -1.51871 0.421078 0
M  V30 7050 C 679.696 -2.01539 -0.150492 0
M  V30 7051 C 680.017 -1.30803 -1.44623 0
M  V30 7052 O 679.287 -0.437568 -1.90951 0
M  V30 7053 H 677.867 -0.744698 -0.0586041 0
M  V30 7054 H 680.529 -1.8668 0.560059 0
M  V30 7055 H 679.625 -3.10264 -0.338068 0
M  V30 7056 N 679.926 -0.151884 -1.56866 0
M  V30 7057 C 680.874 0.80299 -2.183 0
M  V30 7058 C 681.868 1.25174 -1.14139 0
M  V30 7059 O 683.074 1.21966 -1.3238 0
M  V30 7060 H 679.449 0.277169 -0.699057 0
M  V30 7061 H 681.42 0.260699 -2.97259 0
M  V30 7062 C 680.169 2.03009 -2.82281 0
M  V30 7063 H 679.492 1.69377 -3.62148 0
M  V30 7064 H 680.932 2.67753 -3.28762 0
M  V30 7065 C 679.391 2.84123 -1.81041 0
M  V30 7066 O 679.921 3.8063 -1.28388 0
M  V30 7067 N 678.127 2.48753 -1.50234 0
M  V30 7068 H 677.674 1.70337 -1.93244 0
M  V30 7069 H 677.632 3.03316 -0.827445 0
M  V30 7070 N 681.404 1.57128 0.121893 0
M  V30 7071 C 682.681 1.75664 0.860327 0
M  V30 7072 C 683.061 0.726585 1.98202 0
M  V30 7073 O 682.409 -0.24999 2.27128 0
M  V30 7074 C 682.619 3.20571 1.37968 0
M  V30 7075 C 683.967 3.82988 1.83317 0
M  V30 7076 O 684.991 3.24156 1.47654 0
M  V30 7077 O 683.85 4.86393 2.49168 0
M  V30 7078 H 680.944 0.719153 0.408348 0
M  V30 7079 H 683.49 1.6937 0.105859 0
M  V30 7080 H 682.262 3.87056 0.57477 0
M  V30 7081 H 681.885 3.31392 2.19694 0
M  V30 7082 N 682.882 -0.391992 1.52647 0
M  V30 7083 C 684.293 -0.970064 1.5952 0
M  V30 7084 C 684.644 -1.91059 0.446207 0
M  V30 7085 O 683.769 -2.12062 -0.431125 0
M  V30 7086 C 684.364 -1.76614 2.89125 0
M  V30 7087 C 682.923 -2.29396 2.9842 0
M  V30 7088 C 682.07 -1.09864 2.54608 0
M  V30 7089 H 685.021 -0.171638 1.57769 0
M  V30 7090 H 685.042 -2.62511 2.75442 0
M  V30 7091 H 684.554 -1.08135 3.72731 0
M  V30 7092 H 682.655 -3.01196 2.19344 0
M  V30 7093 H 682.768 -2.59088 4.03002 0
M  V30 7094 H 681.132 -1.45777 2.08857 0
M  V30 7095 H 681.915 -0.429249 3.40606 0
M  V30 7096 N 684.36 -1.4356 -0.65026 0
M  V30 7097 C 685.637 -1.35811 -1.40765 0
M  V30 7098 C 686.017 -0.00736379 -2.11099 0
M  V30 7099 O 685.365 1.00932 -2.05 0
M  V30 7100 C 685.575 -2.54332 -2.3899 0
M  V30 7101 C 686.923 -2.97551 -3.02901 0
M  V30 7102 O 687.947 -2.544 -2.49317 0
M  V30 7103 O 686.806 -3.72311 -4.00059 0
M  V30 7104 H 683.9 -0.536861 -0.629054 0
M  V30 7105 H 686.446 -1.55615 -0.676919 0
M  V30 7106 H 685.218 -3.44274 -1.85986 0
M  V30 7107 H 684.841 -2.36643 -3.19509 0
M  V30 7108 N 685.838 0.888903 -1.30139 0
M  V30 7109 C 687.068 1.67115 -1.21474 0
M  V30 7110 C 687.476 1.87852 0.225472 0
M  V30 7111 O 686.819 1.42324 1.16145 0
M  V30 7112 C 686.881 3.0713 -1.86846 0
M  V30 7113 C 686.545 3.09582 -3.36167 0
M  V30 7114 C 687.542 2.88929 -4.32222 0
M  V30 7115 C 685.227 3.31304 -3.77549 0
M  V30 7116 C 687.221 2.89949 -5.67634 0
M  V30 7117 C 684.908 3.31954 -5.13079 0
M  V30 7118 C 685.906 3.113 -6.07932 0
M  V30 7119 O 685.594 3.11758 -7.40987 0
M  V30 7120 H 685.326 0.528372 -0.421662 0
M  V30 7121 H 687.88 1.11919 -1.7223 0
M  V30 7122 H 686.11 3.63973 -1.30615 0
M  V30 7123 H 687.799 3.6749 -1.72354 0
M  V30 7124 H 688.565 2.71948 -4.01584 0
M  V30 7125 H 684.444 3.46417 -3.04165 0
M  V30 7126 H 687.988 2.73746 -6.41645 0
M  V30 7127 H 683.885 3.48469 -5.43359 0
M  V30 7128 H 684.653 3.27951 -7.49927 0
M  V30 7129 N 687.317 1.12792 1.10072 0
M  V30 7130 C 688.566 0.880232 1.81479 0
M  V30 7131 C 688.879 -0.595575 1.86312 0
M  V30 7132 O 690.085 -0.959979 2.53962 0
M  V30 7133 C 688.541 1.52514 3.25987 0
M  V30 7134 C 688.149 3.036 3.29441 0
M  V30 7135 C 689.893 1.35788 4.02196 0
M  V30 7136 C 687.8 3.61007 4.68431 0
M  V30 7137 H 686.73 0.325654 0.680048 0
M  V30 7138 H 689.381 1.35485 1.23758 0
M  V30 7139 H 687.763 0.978188 3.83728 0
M  V30 7140 H 688.937 3.64819 2.81502 0
M  V30 7141 H 687.252 3.19765 2.66719 0
M  V30 7142 H 689.849 1.76096 5.0487 0
M  V30 7143 H 690.192 0.301972 4.15203 0
M  V30 7144 H 690.725 1.87426 3.50879 0
M  V30 7145 H 687.464 4.66375 4.60625 0
M  V30 7146 H 686.984 3.04564 5.16721 0
M  V30 7147 H 688.663 3.60289 5.37402 0
M  V30 7148 N 688.795 -1.27931 0.920396 0
M  V30 7149 C 690.041 -1.94977 0.557832 0
M  V30 7150 C 690.374 -1.72224 -0.897365 0
M  V30 7151 O 689.649 -1.04705 -1.63912 0
M  V30 7152 C 689.932 -3.49289 0.875741 0
M  V30 7153 C 689.785 -3.81416 2.38416 0
M  V30 7154 C 691.104 -4.38486 0.376517 0
M  V30 7155 H 688.223 -0.708164 0.20414 0
M  V30 7156 H 690.865 -1.5118 1.15085 0
M  V30 7157 H 689.015 -3.86724 0.371062 0
M  V30 7158 H 690.687 -3.53813 2.95997 0
M  V30 7159 H 688.93 -3.28225 2.83639 0
M  V30 7160 H 689.601 -4.89198 2.55713 0
M  V30 7161 H 692.077 -4.08161 0.808945 0
M  V30 7162 H 690.953 -5.45296 0.627976 0
M  V30 7163 H 691.214 -4.36143 -0.723293 0
M  V30 7164 N 690.273 -0.685099 -1.4193 0
M  V30 7165 C 691.206 0.0371639 -2.2817 0
M  V30 7166 C 692.184 0.798436 -1.41647 0
M  V30 7167 O 693.368 0.791428 -1.71081 0
M  V30 7168 C 690.495 1.05993 -3.21688 0
M  V30 7169 C 689.541 0.393043 -4.24685 0
M  V30 7170 S 690.374 -0.856921 -5.28599 0
M  V30 7171 C 691.53 0.164508 -6.25684 0
M  V30 7172 H 691.763 -0.694305 -2.89079 0
M  V30 7173 H 689.296 -0.474999 -1.46912 0
M  V30 7174 H 691.254 1.64489 -3.76103 0
M  V30 7175 H 689.915 1.7639 -2.59895 0
M  V30 7176 H 689.108 1.16513 -4.90348 0
M  V30 7177 H 688.71 -0.118589 -3.73812 0
M  V30 7178 H 691.002 1.02106 -6.69762 0
M  V30 7179 H 691.945 -0.457917 -7.06618 0
M  V30 7180 H 692.353 0.514596 -5.6215 0
M  V30 7181 N 691.751 1.51645 -0.429126 0
M  V30 7182 C 692.683 2.25279 0.422124 0
M  V30 7183 C 693.696 1.28986 0.993299 0
M  V30 7184 O 694.885 1.54797 0.888836 0
M  V30 7185 C 691.985 2.98666 1.60162 0
M  V30 7186 C 691.158 4.2199 1.15078 0
M  V30 7187 C 690.217 4.78028 2.19946 0
M  V30 7188 O 689.243 5.40084 1.79716 0
M  V30 7189 N 690.445 4.61342 3.5234 0
M  V30 7190 H 693.21 2.98971 -0.208931 0
M  V30 7191 H 690.771 1.59838 -0.257568 0
M  V30 7192 H 692.763 3.33044 2.29922 0
M  V30 7193 H 691.333 2.28036 2.13818 0
M  V30 7194 H 690.553 3.932 0.280552 0
M  V30 7195 H 691.841 5.02037 0.826831 0
M  V30 7196 H 691.239 4.11894 3.87763 0
M  V30 7197 H 689.796 5.00104 4.18019 0
M  V30 7198 N 693.229 0.160201 1.56784 0
M  V30 7199 C 694.476 -0.487588 1.96542 0
M  V30 7200 C 694.804 -1.63999 1.04569 0
M  V30 7201 O 694.059 -1.95546 0.0775211 0
M  V30 7202 C 694.358 -1.02259 3.42459 0
M  V30 7203 C 694.024 0.0127436 4.50898 0
M  V30 7204 C 692.686 0.297318 4.80281 0
M  V30 7205 C 695.038 0.716078 5.16257 0
M  V30 7206 C 692.366 1.29081 5.72324 0
M  V30 7207 C 694.718 1.69847 6.09372 0
M  V30 7208 C 693.382 1.99061 6.37127 0
M  V30 7209 H 692.652 -0.178421 0.719199 0
M  V30 7210 H 695.299 0.249818 1.89864 0
M  V30 7211 H 693.604 -1.8376 3.46034 0
M  V30 7212 H 695.301 -1.53261 3.70556 0
M  V30 7213 H 691.891 -0.219235 4.28039 0
M  V30 7214 H 696.075 0.509428 4.93679 0
M  V30 7215 H 691.331 1.52344 5.92116 0
M  V30 7216 H 695.505 2.2489 6.59088 0
M  V30 7217 H 693.132 2.76194 7.08252 0
M  V30 7218 N 694.707 -1.5719 -0.113559 0
M  V30 7219 C 695.955 -1.84772 -0.818761 0
M  V30 7220 C 696.276 -0.746196 -1.80158 0
M  V30 7221 O 695.546 0.229305 -1.94553 0
M  V30 7222 H 694.126 -0.681737 -0.305359 0
M  V30 7223 H 696.788 -1.94645 -0.0995845 0
M  V30 7224 H 695.884 -2.80878 -1.36067 0
M  V30 7225 N 696.185 0.383891 -1.52853 0
M  V30 7226 C 697.601 0.724316 -1.42218 0
M  V30 7227 C 697.801 1.93943 -0.546654 0
M  V30 7228 O 696.857 2.5249 -0.0220562 0
M  V30 7229 C 698.17 0.954635 -2.85144 0
M  V30 7230 C 699.718 1.05579 -2.94656 0
M  V30 7231 C 700.193 1.3187 -4.38605 0
M  V30 7232 N 701.684 1.38681 -4.41952 0
M  V30 7233 C 702.419 1.60699 -5.50421 0
M  V30 7234 N 701.915 1.80154 -6.68967 0
M  V30 7235 N 703.708 1.6292 -5.37972 0
M  V30 7236 H 695.859 -0.4156 -2.08294 0
M  V30 7237 H 698.122 -0.123776 -0.939885 0
M  V30 7238 H 697.828 0.133829 -3.51445 0
M  V30 7239 H 697.702 1.86788 -3.27704 0
M  V30 7240 H 700.089 1.86716 -2.2852 0
M  V30 7241 H 700.17 0.120338 -2.55517 0
M  V30 7242 H 699.814 0.512416 -5.05309 0
M  V30 7243 H 699.744 2.26708 -4.75301 0
M  V30 7244 H 702.235 1.25334 -3.56511 0
M  V30 7245 H 702.548 1.96476 -7.47407 0
M  V30 7246 H 700.893 1.77368 -6.71986 0
M  V30 7247 H 704.084 1.47276 -4.44328 0
M  V30 7248 H 704.257 1.79739 -6.22574 0
M  V30 7249 N 697.663 1.43903 0.642637 0
M  V30 7250 C 698.909 1.46296 1.40447 0
M  V30 7251 C 699.242 0.0908361 1.93987 0
M  V30 7252 O 698.517 -0.889884 1.72949 0
M  V30 7253 C 698.8 2.51399 2.57819 0
M  V30 7254 C 698.653 3.97926 2.09702 0
M  V30 7255 C 699.972 2.53125 3.60022 0
M  V30 7256 H 697.091 0.532676 0.509338 0
M  V30 7257 H 699.733 1.75515 0.727635 0
M  V30 7258 H 697.883 2.26614 3.1556 0
M  V30 7259 H 699.555 4.33804 1.5688 0
M  V30 7260 H 697.798 4.10252 1.40982 0
M  V30 7261 H 698.469 4.67096 2.94152 0
M  V30 7262 H 700.945 2.75242 3.12059 0
M  V30 7263 H 699.821 3.28589 4.39682 0
M  V30 7264 H 700.082 1.56895 4.13324 0
M  V30 7265 N 699.141 -0.881989 1.30609 0
M  V30 7266 C 700.104 -1.96957 1.1722 0
M  V30 7267 C 701.104 -1.60472 0.102598 0
M  V30 7268 O 702.294 -1.70628 0.350943 0
M  V30 7269 C 699.426 -3.31463 0.796572 0
M  V30 7270 H 700.619 -2.10262 2.13846 0
M  V30 7271 H 698.172 -1.06877 1.14048 0
M  V30 7272 H 698.907 -3.23859 -0.169053 0
M  V30 7273 H 698.692 -3.59314 1.56959 0
M  V30 7274 H 700.182 -4.11233 0.72645 0
M  V30 7275 N 700.619 -1.13374 -1.09472 0
M  V30 7276 C 701.529 -0.824029 -2.19652 0
M  V30 7277 C 702.545 0.19118 -1.72947 0
M  V30 7278 O 703.721 0.0223464 -2.01388 0
M  V30 7279 C 700.786 -0.294009 -3.45451 0
M  V30 7280 C 699.847 -1.3704 -4.0684 0
M  V30 7281 C 699.08 -0.86558 -5.26634 0
M  V30 7282 O 699.303 0.29702 -5.69626 0
M  V30 7283 O 698.237 -1.63968 -5.79136 0
M  V30 7284 H 702.063 -1.74454 -2.48595 0
M  V30 7285 H 699.648 -0.911155 -1.18399 0
M  V30 7286 H 701.53 -0.00381039 -4.214 0
M  V30 7287 H 700.205 0.598921 -3.18111 0
M  V30 7288 H 699.112 -1.71391 -3.3253 0
M  V30 7289 H 700.445 -2.23746 -4.38405 0
M  V30 7290 N 702.098 1.27442 -0.927168 0
M  V30 7291 C 703.375 1.89473 -0.485742 0
M  V30 7292 C 703.755 1.83922 1.03614 0
M  V30 7293 O 703.103 1.28409 1.89007 0
M  V30 7294 C 703.313 3.33417 -1.03123 0
M  V30 7295 C 704.661 4.10333 -1.0914 0
M  V30 7296 O 705.685 3.4243 -0.98082 0
M  V30 7297 O 704.544 5.31737 -1.26165 0
M  V30 7298 H 701.638 0.812124 -0.156154 0
M  V30 7299 H 704.184 1.35713 -1.01882 0
M  V30 7300 H 702.956 3.31747 -2.07508 0
M  V30 7301 H 702.579 3.94695 -0.479767 0
M  V30 7302 N 703.576 0.692616 1.41565 0
M  V30 7303 C 704.822 0.222664 2.01574 0
M  V30 7304 C 705.155 -1.1737 1.54719 0
M  V30 7305 O 704.43 -1.79161 0.757084 0
M  V30 7306 C 704.713 0.277064 3.59033 0
M  V30 7307 C 704.566 1.71016 4.16021 0
M  V30 7308 C 705.885 -0.36479 4.38586 0
M  V30 7309 H 703.004 0.0823839 0.732381 0
M  V30 7310 H 705.646 0.880778 1.68352 0
M  V30 7311 H 703.796 -0.283288 3.87466 0
M  V30 7312 H 705.468 2.32413 3.98475 0
M  V30 7313 H 703.711 2.24525 3.71175 0
M  V30 7314 H 704.382 1.69978 5.25178 0
M  V30 7315 H 706.858 0.112404 4.15948 0
M  V30 7316 H 705.734 -0.296169 5.481 0
M  V30 7317 H 705.995 -1.44506 4.17816 0
M  V30 7318 N 705.054 -1.51416 0.437162 0
M  V30 7319 C 706.301 -2.02086 -0.129364 0
M  V30 7320 C 706.629 -1.32133 -1.42728 0
M  V30 7321 O 705.884 -0.424916 -1.91031 0
M  V30 7322 C 706.183 -3.55203 -0.39564 0
M  V30 7323 C 705.849 -4.43447 0.81644 0
M  V30 7324 C 704.511 -4.67285 1.14884 0
M  V30 7325 C 706.863 -4.95219 1.62503 0
M  V30 7326 C 704.191 -5.40141 2.29052 0
M  V30 7327 C 706.543 -5.69327 2.7577 0
M  V30 7328 C 705.207 -5.91429 3.09464 0
M  V30 7329 H 704.477 -0.739486 -0.0473375 0
M  V30 7330 H 707.124 -1.82368 0.584321 0
M  V30 7331 H 705.429 -3.73252 -1.19121 0
M  V30 7332 H 707.126 -3.91944 -0.847399 0
M  V30 7333 H 703.716 -4.2509 0.547422 0
M  V30 7334 H 707.9 -4.76686 1.38144 0
M  V30 7335 H 703.156 -5.55468 2.55471 0
M  V30 7336 H 707.33 -6.08433 3.38795 0
M  V30 7337 H 704.957 -6.47662 3.98042 0
M  V30 7338 N 706.532 -0.168513 -1.56696 0
M  V30 7339 C 707.76 0.483503 -2.01171 0
M  V30 7340 C 708.175 1.56994 -1.04872 0
M  V30 7341 O 707.532 1.82434 -0.0491337 0
M  V30 7342 C 707.583 1.0644 -3.45475 0
M  V30 7343 O 707.304 0.0213375 -4.38095 0
M  V30 7344 C 708.805 1.79493 -4.05336 0
M  V30 7345 H 706.025 0.124002 -0.659443 0
M  V30 7346 H 708.569 -0.269419 -2.02717 0
M  V30 7347 H 706.724 1.76784 -3.44712 0
M  V30 7348 H 707.138 0.449837 -5.22567 0
M  V30 7349 H 708.612 2.15401 -5.08238 0
M  V30 7350 H 709.089 2.68889 -3.47269 0
M  V30 7351 H 709.695 1.13798 -4.09793 0
M  V30 7352 N 708.01 1.57248 0.105221 0
M  V30 7353 C 708.943 1.96567 1.15916 0
M  V30 7354 C 709.921 0.837355 1.39381 0
M  V30 7355 O 711.105 1.09676 1.53308 0
M  V30 7356 C 708.232 2.27375 2.51035 0
M  V30 7357 C 707.278 3.49869 2.43913 0
M  V30 7358 S 708.111 5.01958 1.86543 0
M  V30 7359 C 709.267 5.35932 3.23307 0
M  V30 7360 H 709.5 2.85655 0.823931 0
M  V30 7361 H 707.033 1.51204 0.312515 0
M  V30 7362 H 708.991 2.45801 3.28774 0
M  V30 7363 H 707.652 1.38876 2.81731 0
M  V30 7364 H 706.845 3.68835 3.43477 0
M  V30 7365 H 706.447 3.30901 1.743 0
M  V30 7366 H 708.739 5.31958 4.19556 0
M  V30 7367 H 709.682 6.37047 3.09155 0
M  V30 7368 H 710.09 4.63397 3.22372 0
M  V30 7369 N 709.488 -0.375779 1.53054 0
M  V30 7370 C 710.765 -1.13453 1.59336 0
M  V30 7371 C 711.145 -2.07379 0.394614 0
M  V30 7372 O 710.493 -2.2004 -0.616 0
M  V30 7373 C 710.703 -1.8826 2.93869 0
M  V30 7374 C 712.051 -2.43155 3.48081 0
M  V30 7375 O 713.075 -1.984 2.95831 0
M  V30 7376 O 711.934 -3.24944 4.39401 0
M  V30 7377 H 709.028 -0.519856 0.643179 0
M  V30 7378 H 711.574 -0.379865 1.65394 0
M  V30 7379 H 710.346 -1.19652 3.72558 0
M  V30 7380 H 709.969 -2.70658 2.91256 0
M  V30 7381 N 710.966 -1.44241 -0.634997 0
M  V30 7382 C 712.196 -1.50078 -1.41987 0
M  V30 7383 C 712.604 -0.123072 -1.88799 0
M  V30 7384 O 711.947 0.880552 -1.6122 0
M  V30 7385 C 712.009 -2.40033 -2.67628 0
M  V30 7386 C 711.673 -3.87268 -2.42637 0
M  V30 7387 C 712.67 -4.77902 -2.04708 0
M  V30 7388 C 710.355 -4.31933 -2.56396 0
M  V30 7389 C 712.349 -6.11202 -1.80862 0
M  V30 7390 C 710.036 -5.65281 -2.32164 0
M  V30 7391 C 711.034 -6.54734 -1.94455 0
M  V30 7392 O 710.722 -7.85613 -1.7049 0
M  V30 7393 H 710.454 -0.51146 -0.442023 0
M  V30 7394 H 713.008 -1.89843 -0.784138 0
M  V30 7395 H 711.238 -1.95188 -3.33824 0
M  V30 7396 H 712.927 -2.36863 -3.29622 0
M  V30 7397 H 713.693 -4.44668 -1.93638 0
M  V30 7398 H 709.572 -3.62569 -2.84719 0
M  V30 7399 H 713.116 -6.80983 -1.51353 0
M  V30 7400 H 709.013 -5.98078 -2.42843 0
M  V30 7401 H 709.781 -7.97373 -1.84767 0
M  V30 7402 N 712.444 0.87505 -1.31075 0
M  V30 7403 C 713.392 2.00317 -1.18219 0
M  V30 7404 C 714.386 1.69152 -0.0916872 0
M  V30 7405 O 715.592 1.7821 -0.253229 0
M  V30 7406 H 711.967 0.656981 -0.365895 0
M  V30 7407 H 713.938 2.08293 -2.13674 0
M  V30 7408 C 712.687 3.35821 -0.901095 0
M  V30 7409 H 712.01 3.6032 -1.73233 0
M  V30 7410 H 713.45 4.15366 -0.851295 0
M  V30 7411 C 711.909 3.34563 0.396114 0
M  V30 7412 O 712.439 3.75971 1.41452 0
M  V30 7413 N 710.645 2.87681 0.410832 0
M  V30 7414 H 710.192 2.54179 -0.418415 0
M  V30 7415 H 710.15 2.87223 1.27869 0
M  V30 7416 N 713.922 1.13953 1.08869 0
M  V30 7417 C 715.152 0.926825 1.84644 0
M  V30 7418 C 715.56 -0.527941 1.81685 0
M  V30 7419 O 714.903 -1.37742 1.21543 0
M  V30 7420 C 714.965 1.34416 3.33426 0
M  V30 7421 C 714.629 2.81351 3.60126 0
M  V30 7422 C 715.626 3.79486 3.55368 0
M  V30 7423 C 713.311 3.1865 3.88288 0
M  V30 7424 C 715.305 5.1293 3.78393 0
M  V30 7425 C 712.992 4.5227 4.10968 0
M  V30 7426 C 713.99 5.4922 4.06013 0
M  V30 7427 O 713.678 6.80429 4.28102 0
M  V30 7428 H 713.41 0.33013 0.589907 0
M  V30 7429 H 715.964 1.51738 1.38436 0
M  V30 7430 H 714.194 0.696901 3.80368 0
M  V30 7431 H 715.883 1.10302 3.90626 0
M  V30 7432 H 716.649 3.52017 3.3363 0
M  V30 7433 H 712.528 2.43785 3.91267 0
M  V30 7434 H 716.072 5.88591 3.74442 0
M  V30 7435 H 711.969 4.79462 4.32188 0
M  V30 7436 H 712.737 6.86617 4.45533 0
M  V30 7437 N 715.4 -1.26948 0.933913 0
M  V30 7438 C 716.811 -1.76058 0.621324 0
M  V30 7439 C 717.162 -1.76175 -0.863522 0
M  V30 7440 O 716.287 -1.36921 -1.67576 0
M  V30 7441 C 716.882 -3.19713 1.12111 0
M  V30 7442 C 715.441 -3.66465 0.859074 0
M  V30 7443 C 714.588 -2.46186 1.27624 0
M  V30 7444 H 717.539 -1.13127 1.11301 0
M  V30 7445 H 717.56 -3.77566 0.471608 0
M  V30 7446 H 717.072 -3.19596 2.20182 0
M  V30 7447 H 715.173 -3.72021 -0.207566 0
M  V30 7448 H 715.286 -4.55636 1.48098 0
M  V30 7449 H 713.65 -2.45042 0.694727 0
M  V30 7450 H 714.433 -2.48774 2.36572 0
M  V30 7451 N 716.879 -0.700114 -1.41195 0
M  V30 7452 C 717.809 -0.0521132 -2.33442 0
M  V30 7453 C 718.79 0.76228 -1.52063 0
M  V30 7454 O 719.975 0.714336 -1.80585 0
M  V30 7455 C 717.105 0.881693 -3.35922 0
M  V30 7456 C 716.059 0.174062 -4.27646 0
M  V30 7457 C 715.385 1.22254 -5.20536 0
M  V30 7458 C 716.685 -0.962396 -5.13357 0
M  V30 7459 H 718.379 -0.822574 -2.87879 0
M  V30 7460 H 715.925 -0.397011 -1.38419 0
M  V30 7461 H 717.878 1.34429 -3.99383 0
M  V30 7462 H 716.602 1.68387 -2.79845 0
M  V30 7463 H 715.261 -0.268551 -3.65615 0
M  V30 7464 H 714.909 2.01736 -4.60773 0
M  V30 7465 H 714.609 0.754038 -5.82742 0
M  V30 7466 H 716.133 1.68555 -5.86874 0
M  V30 7467 H 717.547 -0.579875 -5.7036 0
M  V30 7468 H 715.944 -1.35828 -5.84526 0
M  V30 7469 H 717.014 -1.80003 -4.50252 0
M  V30 7470 N 718.357 1.51182 -0.445186 0
M  V30 7471 C 719.597 2.04061 0.117717 0
M  V30 7472 C 719.961 1.32158 1.39278 0
M  V30 7473 O 721.162 1.75452 2.03642 0
M  V30 7474 C 719.433 3.55933 0.323445 0
M  V30 7475 S 720.992 4.30516 0.848627 0
M  V30 7476 H 717.81 0.710442 0.028165 0
M  V30 7477 H 720.412 1.85858 -0.606391 0
M  V30 7478 H 719.116 4.0583 -0.610764 0
M  V30 7479 H 718.647 3.78444 1.07441 0
M  V30 7480 H 720.662 4.48382 2.12528 0
M  V30 7481 N 719.835 0.176821 1.56605 0
M  V30 7482 C 720.798 -0.737429 2.17013 0
M  V30 7483 C 721.798 -1.15414 1.11965 0
M  V30 7484 O 722.988 -1.0702 1.37449 0
M  V30 7485 C 720.12 -2.00445 2.75744 0
M  V30 7486 H 721.313 -0.211455 2.99154 0
M  V30 7487 H 718.866 -0.0727582 1.56131 0
M  V30 7488 H 719.601 -2.57338 1.97352 0
M  V30 7489 H 719.386 -1.71456 3.52626 0
M  V30 7490 H 720.876 -2.65679 3.22187 0
M  V30 7491 N 721.313 -1.57302 -0.09688 0
M  V30 7492 C 722.243 -2.0497 -1.11846 0
M  V30 7493 C 723.224 -0.938278 -1.41882 0
M  V30 7494 O 724.409 -1.20943 -1.51942 0
M  V30 7495 C 721.539 -2.47264 -2.43881 0
M  V30 7496 C 720.493 -3.62053 -2.28257 0
M  V30 7497 C 719.819 -3.90318 -3.65453 0
M  V30 7498 C 721.119 -4.93005 -1.72461 0
M  V30 7499 H 722.813 -2.90567 -0.721888 0
M  V30 7500 H 720.359 -1.39786 -0.345803 0
M  V30 7501 H 722.312 -2.7922 -3.15617 0
M  V30 7502 H 721.036 -1.58664 -2.8547 0
M  V30 7503 H 719.695 -3.30341 -1.58967 0
M  V30 7504 H 719.343 -2.98889 -4.04567 0
M  V30 7505 H 719.043 -4.67597 -3.55846 0
M  V30 7506 H 720.567 -4.24747 -4.3866 0
M  V30 7507 H 721.981 -5.23354 -2.34036 0
M  V30 7508 H 720.378 -5.74436 -1.73618 0
M  V30 7509 H 721.448 -4.80053 -0.683898 0
M  V30 7510 N 722.791 0.367657 -1.53252 0
M  V30 7511 C 723.723 1.47032 -1.75824 0
M  V30 7512 C 724.736 1.49736 -0.63898 0
M  V30 7513 O 725.925 1.53253 -0.915193 0
M  V30 7514 C 723.025 2.85805 -1.82122 0
M  V30 7515 C 722.198 3.06822 -3.11736 0
M  V30 7516 C 721.257 4.25698 -3.09302 0
M  V30 7517 O 720.283 4.20972 -3.83107 0
M  V30 7518 N 721.485 5.33002 -2.29977 0
M  V30 7519 H 724.25 1.28048 -2.70968 0
M  V30 7520 H 721.811 0.557363 -1.52004 0
M  V30 7521 H 723.803 3.63465 -1.77975 0
M  V30 7522 H 722.373 2.98046 -0.942716 0
M  V30 7523 H 721.593 2.1684 -3.29202 0
M  V30 7524 H 722.881 3.17731 -3.97397 0
M  V30 7525 H 722.279 5.39703 -1.69521 0
M  V30 7526 H 720.836 6.09247 -2.3165 0
M  V30 7527 N 724.269 1.44576 0.627338 0
M  V30 7528 C 725.232 1.51372 1.72102 0
M  V30 7529 C 726.232 0.395329 1.55865 0
M  V30 7530 O 727.422 0.658094 1.61291 0
M  V30 7531 C 724.554 1.39129 3.11217 0
M  V30 7532 H 725.747 2.48798 1.6745 0
M  V30 7533 H 723.3 1.31724 0.841336 0
M  V30 7534 H 724.035 0.428114 3.21462 0
M  V30 7535 H 723.82 2.20229 3.24409 0
M  V30 7536 H 725.31 1.46874 3.90919 0
M  V30 7537 N 725.747 -0.868086 1.31537 0
M  V30 7538 C 726.994 -1.62127 1.2133 0
M  V30 7539 C 727.322 -1.93158 -0.2281 0
M  V30 7540 O 726.577 -1.5632 -1.1774 0
M  V30 7541 C 726.876 -2.95889 2.0046 0
M  V30 7542 C 726.542 -2.84343 3.49943 0
M  V30 7543 C 725.204 -2.80901 3.90702 0
M  V30 7544 C 727.556 -2.71243 4.45058 0
M  V30 7545 C 724.884 -2.6222 5.24841 0
M  V30 7546 C 727.236 -2.54098 5.79325 0
M  V30 7547 C 725.9 -2.4904 6.19302 0
M  V30 7548 H 725.17 -0.593265 0.443979 0
M  V30 7549 H 727.817 -1.00803 1.62822 0
M  V30 7550 H 726.122 -3.61259 1.51655 0
M  V30 7551 H 727.819 -3.53161 1.89942 0
M  V30 7552 H 724.409 -2.8784 3.17563 0
M  V30 7553 H 728.593 -2.72956 4.14498 0
M  V30 7554 H 723.849 -2.56731 5.54887 0
M  V30 7555 H 728.023 -2.42938 6.52652 0
M  V30 7556 H 725.65 -2.34324 7.23185 0
M  V30 7557 N 727.225 -1.14528 -1.08264 0
M  V30 7558 C 728.188 -0.83632 -2.13397 0
M  V30 7559 C 729.188 0.159715 -1.60005 0
M  V30 7560 O 730.378 -0.0688098 -1.74064 0
M  V30 7561 C 727.51 -0.246973 -3.40004 0
M  V30 7562 H 728.703 -1.76808 -2.42237 0
M  V30 7563 H 726.256 -0.951509 -1.24 0
M  V30 7564 H 726.991 0.693436 -3.168 0
M  V30 7565 H 726.776 -0.964412 -3.80055 0
M  V30 7566 H 728.266 -0.0480679 -4.17572 0
M  V30 7567 N 728.703 1.26451 -0.940633 0
M  V30 7568 C 729.952 1.93071 -0.583656 0
M  V30 7569 C 730.265 1.74618 0.881366 0
M  V30 7570 O 731.471 2.35689 1.34769 0
M  V30 7571 C 729.927 3.45927 -0.993106 0
M  V30 7572 C 729.535 3.73115 -2.4797 0
M  V30 7573 C 731.279 4.18554 -0.707998 0
M  V30 7574 C 729.186 5.19408 -2.82788 0
M  V30 7575 H 728.116 0.722824 -0.214572 0
M  V30 7576 H 730.767 1.43538 -1.1432 0
M  V30 7577 H 729.149 3.94341 -0.362099 0
M  V30 7578 H 730.323 3.35408 -3.15971 0
M  V30 7579 H 728.638 3.13719 -2.73805 0
M  V30 7580 H 731.235 5.26293 -0.94447 0
M  V30 7581 H 731.578 4.14782 0.355225 0
M  V30 7582 H 732.111 3.76003 -1.2987 0
M  V30 7583 H 728.85 5.28281 -3.88071 0
M  V30 7584 H 728.37 5.58214 -2.19449 0
M  V30 7585 H 730.049 5.87407 -2.71224 0
M  V30 7586 N 730.181 0.707592 1.40822 0
M  V30 7587 C 731.144 0.0587224 2.29125 0
M  V30 7588 C 732.144 -0.695624 1.44975 0
M  V30 7589 O 733.334 -0.528718 1.65983 0
M  V30 7590 C 730.466 -0.926939 3.28056 0
M  V30 7591 H 731.659 0.836349 2.88002 0
M  V30 7592 H 729.212 0.471778 1.4901 0
M  V30 7593 H 729.947 -1.7319 2.74182 0
M  V30 7594 H 729.732 -0.389015 3.90165 0
M  V30 7595 H 731.222 -1.37837 3.94196 0
M  V30 7596 N 731.66 -1.50943 0.453197 0
M  V30 7597 C 732.59 -2.31005 -0.34044 0
M  V30 7598 C 733.571 -1.37112 -1.00669 0
M  V30 7599 O 734.756 -1.66033 -1.0073 0
M  V30 7600 C 731.886 -3.16358 -1.433 0
M  V30 7601 C 730.84 -4.18658 -0.889363 0
M  V30 7602 C 730.166 -4.92633 -2.07887 0
M  V30 7603 C 731.466 -5.22227 0.0871142 0
M  V30 7604 H 733.16 -2.97601 0.327723 0
M  V30 7605 H 730.706 -1.43119 0.159054 0
M  V30 7606 H 732.659 -3.71155 -1.99555 0
M  V30 7607 H 731.383 -2.47613 -2.12968 0
M  V30 7608 H 730.042 -3.64936 -0.348915 0
M  V30 7609 H 729.69 -4.20376 -2.76211 0
M  V30 7610 H 729.39 -5.61819 -1.72143 0
M  V30 7611 H 730.914 -5.50258 -2.64666 0
M  V30 7612 H 732.328 -5.72001 -0.385656 0
M  V30 7613 H 730.725 -5.99032 0.357926 0
M  V30 7614 H 731.795 -4.74077 1.01879 0
M  V30 7615 N 733.138 -0.185124 -1.56509 0
M  V30 7616 C 734.363 0.465278 -2.02114 0
M  V30 7617 C 734.788 1.55083 -1.06447 0
M  V30 7618 O 734.146 1.81241 -0.0462852 0
M  V30 7619 C 734.194 1.00784 -3.46229 0
M  V30 7620 O 733.298 2.12123 -3.53663 0
M  V30 7621 H 732.639 0.109891 -0.654843 0
M  V30 7622 H 735.169 -0.293072 -2.0249 0
M  V30 7623 H 735.179 1.32697 -3.85818 0
M  V30 7624 H 733.854 0.213113 -4.15354 0
M  V30 7625 H 732.431 1.8115 -3.25943 0
M  V30 7626 N 734.616 1.57351 0.0885366 0
M  V30 7627 C 735.841 1.91011 0.80805 0
M  V30 7628 C 736.266 0.780009 1.71165 0
M  V30 7629 O 735.624 -0.268083 1.79307 0
M  V30 7630 C 735.672 3.23562 1.59185 0
M  V30 7631 O 734.776 3.11615 2.7013 0
M  V30 7632 H 734.117 0.625943 0.221565 0
M  V30 7633 H 736.647 2.04507 0.0617954 0
M  V30 7634 H 736.657 3.5703 1.97468 0
M  V30 7635 H 735.332 4.05398 0.928741 0
M  V30 7636 H 733.909 2.89673 2.34827 0
M  V30 7637 N 736.094 -0.359525 1.53444 0
M  V30 7638 C 737.341 -1.10152 1.6992 0
M  V30 7639 C 737.669 -1.89125 0.4541 0
M  V30 7640 O 736.924 -1.87396 -0.564023 0
M  V30 7641 C 737.223 -2.08287 2.90433 0
M  V30 7642 C 736.889 -1.45749 4.26694 0
M  V30 7643 C 735.551 -1.28421 4.63747 0
M  V30 7644 C 737.903 -1.00557 5.11408 0
M  V30 7645 C 735.231 -0.644951 5.83144 0
M  V30 7646 C 737.583 -0.380288 6.31456 0
M  V30 7647 C 736.247 -0.194557 6.67216 0
M  V30 7648 H 735.517 -0.403076 0.621781 0
M  V30 7649 H 738.164 -0.382612 1.87639 0
M  V30 7650 H 736.469 -2.86503 2.67251 0
M  V30 7651 H 738.166 -2.65662 3.00374 0
M  V30 7652 H 734.756 -1.6023 3.97523 0
M  V30 7653 H 738.94 -1.12735 4.83326 0
M  V30 7654 H 734.196 -0.48952 6.09437 0
M  V30 7655 H 738.37 -0.0219455 6.96397 0
M  V30 7656 H 735.997 0.30285 7.59597 0
M  V30 7657 N 737.572 -1.44907 -0.619662 0
M  V30 7658 C 738.849 -1.38766 -1.37852 0
M  V30 7659 C 739.229 -0.0521393 -2.11036 0
M  V30 7660 O 738.577 0.965613 -2.07095 0
M  V30 7661 C 738.787 -2.59344 -2.33541 0
M  V30 7662 C 740.135 -3.03909 -2.96521 0
M  V30 7663 O 741.159 -2.59631 -2.43865 0
M  V30 7664 O 740.018 -3.80713 -3.92071 0
M  V30 7665 H 737.112 -0.550083 -0.617525 0
M  V30 7666 H 739.658 -1.57015 -0.643759 0
M  V30 7667 H 738.43 -3.48142 -1.78642 0
M  V30 7668 H 738.053 -2.43367 -3.14417 0
M  V30 7669 N 739.05 0.861098 -1.31996 0
M  V30 7670 C 740.275 1.65264 -1.2531 0
M  V30 7671 C 740.7 1.87265 0.177007 0
M  V30 7672 O 740.058 1.4208 1.12619 0
M  V30 7673 C 740.106 2.99284 -2.0115 0
M  V30 7674 O 739.21 3.89508 -1.3549 0
M  V30 7675 H 738.551 0.50409 -0.432192 0
M  V30 7676 H 741.081 1.07297 -1.74208 0
M  V30 7677 H 741.091 3.49154 -2.11081 0
M  V30 7678 H 739.766 2.82591 -3.05148 0
M  V30 7679 H 738.343 3.47966 -1.34066 0
M  V30 7680 N 740.528 1.15101 1.07655 0
M  V30 7681 C 741.475 0.844958 2.14777 0
M  V30 7682 C 742.445 -0.200798 1.64882 0
M  V30 7683 O 743.63 -0.0690278 1.90675 0
M  V30 7684 C 740.77 0.337018 3.4345 0
M  V30 7685 C 739.883 1.44398 4.07153 0
M  V30 7686 C 739.018 0.892487 5.23649 0
M  V30 7687 C 738.057 1.9766 5.79307 0
M  V30 7688 N 737.194 1.44171 6.87138 0
M  V30 7689 H 742.034 1.76242 2.40297 0
M  V30 7690 H 739.571 0.879435 1.17917 0
M  V30 7691 H 741.529 0.024256 4.17193 0
M  V30 7692 H 740.159 -0.543531 3.18191 0
M  V30 7693 H 739.211 1.87299 3.31094 0
M  V30 7694 H 740.523 2.26262 4.4453 0
M  V30 7695 H 739.677 0.532083 6.04362 0
M  V30 7696 H 738.416 0.0429854 4.87681 0
M  V30 7697 H 737.421 2.34586 4.97242 0
M  V30 7698 H 738.646 2.82982 6.17331 0
M  V30 7699 H 736.592 0.614518 6.53115 0
M  V30 7700 H 736.509 2.19665 7.23383 0
M  V30 7701 H 737.777 1.10945 7.71564 0
M  V30 7702 N 742.006 -1.2595 0.947325 0
M  V30 7703 C 742.936 -2.28521 0.479604 0
M  V30 7704 C 743.917 -1.63469 -0.470293 0
M  V30 7705 O 745.102 -1.90627 -0.370824 0
M  V30 7706 C 742.232 -3.46397 -0.250289 0
M  V30 7707 C 741.186 -4.23578 0.613643 0
M  V30 7708 C 740.512 -5.34131 -0.246568 0
M  V30 7709 C 741.812 -4.86979 1.88809 0
M  V30 7710 H 743.506 -2.67895 1.33688 0
M  V30 7711 H 741.052 -1.28783 0.644274 0
M  V30 7712 H 743.005 -4.17269 -0.588576 0
M  V30 7713 H 741.729 -3.05993 -1.14175 0
M  V30 7714 H 740.388 -3.54478 0.93491 0
M  V30 7715 H 740.036 -4.89968 -1.13756 0
M  V30 7716 H 739.736 -5.86683 0.328123 0
M  V30 7717 H 741.26 -6.07839 -0.579986 0
M  V30 7718 H 742.674 -5.50034 1.61666 0
M  V30 7719 H 741.071 -5.49675 2.40784 0
M  V30 7720 H 742.141 -4.09575 2.5957 0
M  V30 7721 N 743.484 -0.715051 -1.40445 0
M  V30 7722 C 744.447 -0.0708726 -2.2909 0
M  V30 7723 C 745.447 0.687926 -1.45342 0
M  V30 7724 O 746.637 0.519908 -1.66261 0
M  V30 7725 C 743.769 0.909528 -3.28543 0
M  V30 7726 H 744.962 -0.851611 -2.87555 0
M  V30 7727 H 742.515 -0.479674 -1.48758 0
M  V30 7728 H 743.25 1.71734 -2.75096 0
M  V30 7729 H 743.035 0.368318 -3.90366 0
M  V30 7730 H 744.525 1.35744 -3.94922 0
M  V30 7731 N 744.962 1.50701 -0.461195 0
M  V30 7732 C 746.202 2.04174 0.0960673 0
M  V30 7733 C 746.566 1.33628 1.37868 0
M  V30 7734 O 747.767 1.77602 2.0177 0
M  V30 7735 C 746.038 3.56256 0.285676 0
M  V30 7736 S 747.597 4.31392 0.802917 0
M  V30 7737 H 744.415 0.710701 0.0206282 0
M  V30 7738 H 747.017 1.85204 -0.62607 0
M  V30 7739 H 745.721 4.05159 -0.653773 0
M  V30 7740 H 745.252 3.79562 1.03421 0
M  V30 7741 H 747.267 4.50611 2.07761 0
M  V30 7742 N 746.441 0.193421 1.56409 0
M  V30 7743 C 747.351 -0.740112 2.2262 0
M  V30 7744 C 748.367 -1.23597 1.22474 0
M  V30 7745 O 749.543 -1.28348 1.55206 0
M  V30 7746 C 746.608 -1.94317 2.87127 0
M  V30 7747 C 745.669 -1.49205 4.02538 0
M  V30 7748 C 744.902 -2.63776 4.63959 0
M  V30 7749 O 745.125 -3.81215 4.24301 0
M  V30 7750 O 744.059 -2.36585 5.53454 0
M  V30 7751 H 747.885 -0.206238 3.02999 0
M  V30 7752 H 745.47 -0.0357938 1.49357 0
M  V30 7753 H 747.352 -2.64633 3.27944 0
M  V30 7754 H 746.027 -2.46568 2.09728 0
M  V30 7755 H 744.934 -0.757738 3.66346 0
M  V30 7756 H 746.267 -1.01622 4.81595 0
M  V30 7757 O 747.958 -1.61402 0.0562482 0
M  V30 7758 H 748.649 -1.85658 -0.552338 0
M  V30 END ATOM
M  V30 BEGIN BOND
M  V30 END BOND
M  V30 END CTAB
M  END
$$$$
