drugbank_target|P50740 Isopentenyl-diphosphate delta-isomerase (DB03247)
 OpenBabel12092120273D

  0  0  0     0  0            999 V3000
M  V30 BEGIN CTAB
M  V30 COUNTS 5275 5309 0 0 0
M  V30 BEGIN ATOM
M  V30 1 H -0.908 1.98254 -0.117106 0
M  V30 2 N 0 1.576 0 0
M  V30 3 C 0.933 2.03868 1.02534 0
M  V30 4 C 1.911 0.928543 1.3348 0
M  V30 5 O 3.095 1.19667 1.45644 0
M  V30 6 C 0.222 2.43627 2.35294 0
M  V30 7 C -0.732 3.65373 2.2001 0
M  V30 8 S 0.101 5.13292 1.52614 0
M  V30 9 C 1.257 5.56322 2.86805 0
M  V30 10 H 1.49 2.90518 0.631377 0
M  V30 11 H -0.977 1.52953 0.210867 0
M  V30 12 H 0.981 2.67203 3.11629 0
M  V30 13 H -0.358 1.57376 2.7183 0
M  V30 14 H -1.165 3.90944 3.18086 0
M  V30 15 H -1.563 3.418 1.51819 0
M  V30 16 H 0.729 5.58782 3.83104 0
M  V30 17 H 1.672 6.56266 2.65933 0
M  V30 18 H 2.08 4.83886 2.90714 0
M  V30 19 N 1.4781 -0.272755 1.55222 0
M  V30 20 C 2.7061 -1.02255 1.79865 0
M  V30 21 C 3.1211 -1.79924 0.572088 0
M  V30 22 O 2.4781 -1.76638 -0.458842 0
M  V30 23 C 2.5291 -1.98094 3.02392 0
M  V30 24 O 2.2501 -1.23572 4.20311 0
M  V30 25 C 3.7511 -2.84884 3.39641 0
M  V30 26 H 0.9711 -0.302057 0.599168 0
M  V30 27 H 3.5151 -0.303465 2.02236 0
M  V30 28 H 1.6701 -2.65465 2.82147 0
M  V30 29 H 2.0841 -1.88172 4.89583 0
M  V30 30 H 3.5581 -3.47927 4.28545 0
M  V30 31 H 4.0351 -3.54665 2.59055 0
M  V30 32 H 4.6411 -2.23003 3.62146 0
M  V30 33 N 2.9562 -1.48159 -0.537278 0
M  V30 34 C 4.3722 -1.34118 -0.865129 0
M  V30 35 C 4.5722 -0.346678 -1.98495 0
M  V30 36 O 3.6282 0.234715 -2.51407 0
M  V30 37 C 4.9412 -2.73963 -1.23954 0
M  V30 38 C 6.4892 -2.82397 -1.34984 0
M  V30 39 C 6.9642 -4.22928 -1.75772 0
M  V30 40 N 8.4552 -4.25566 -1.82887 0
M  V30 41 C 9.1902 -5.31235 -2.15817 0
M  V30 42 N 8.6862 -6.47189 -2.47222 0
M  V30 43 N 10.4792 -5.18624 -2.16761 0
M  V30 44 H 2.6302 -2.1144 0.201715 0
M  V30 45 H 4.8932 -0.947598 0.0275949 0
M  V30 46 H 4.5992 -3.48264 -0.490381 0
M  V30 47 H 4.4732 -3.0702 -2.19132 0
M  V30 48 H 6.8602 -2.08356 -2.08978 0
M  V30 49 H 6.9412 -2.5297 -0.379448 0
M  V30 50 H 6.5852 -4.97482 -1.02341 0
M  V30 51 H 6.5152 -4.49794 -2.73848 0
M  V30 52 H 9.0062 -3.41924 -1.60924 0
M  V30 53 H 9.3192 -7.23564 -2.71433 0
M  V30 54 H 7.6642 -6.50476 -2.44757 0
M  V30 55 H 10.8552 -4.27056 -1.91679 0
M  V30 56 H 11.0282 -6.01078 -2.42093 0
M  V30 57 N 4.4343 0.785586 -1.36625 0
M  V30 58 C 5.3973 1.87999 -1.31107 0
M  V30 59 C 6.3973 1.59316 -0.217959 0
M  V30 60 O 7.5873 1.67656 -0.472977 0
M  V30 61 C 4.7193 3.24861 -1.03334 0
M  V30 62 H 5.9123 1.94307 -2.2844 0
M  V30 63 H 3.4653 0.983813 -1.21453 0
M  V30 64 H 4.2003 3.24235 -0.0647432 0
M  V30 65 H 3.9853 3.4707 -1.82441 0
M  V30 66 H 5.4753 4.04929 -1.02088 0
M  V30 67 N 5.9124 1.20967 1.01018 0
M  V30 68 C 6.8224 0.980157 2.13143 0
M  V30 69 C 7.8384 -0.0660665 1.73875 0
M  V30 70 O 9.0144 0.122821 2.01025 0
M  V30 71 C 6.0794 0.54216 3.42435 0
M  V30 72 C 5.1404 1.65999 3.95908 0
M  V30 73 C 4.3734 1.2428 5.19028 0
M  V30 74 O 4.5964 0.114196 5.70286 0
M  V30 75 O 3.5304 2.05271 5.65816 0
M  V30 76 H 7.3564 1.91913 2.35379 0
M  V30 77 H 4.9414 0.994099 1.11526 0
M  V30 78 H 6.8234 0.30744 4.20277 0
M  V30 79 H 5.4984 -0.36815 3.216 0
M  V30 80 H 4.4054 1.94906 3.19316 0
M  V30 81 H 5.7384 2.54753 4.21143 0
M  V30 82 N 7.3905 -1.2043 1.01659 0
M  V30 83 C 8.8065 -1.41852 0.731442 0
M  V30 84 C 9.0065 -1.89358 -0.688898 0
M  V30 85 O 8.0625 -2.06247 -1.45666 0
M  V30 86 C 9.3755 -2.44019 1.75714 0
M  V30 87 C 10.9235 -2.57785 1.77527 0
M  V30 88 C 11.3985 -3.63194 2.79023 0
M  V30 89 N 12.8895 -3.70678 2.77763 0
M  V30 90 C 13.6245 -4.51897 3.52954 0
M  V30 91 N 13.1205 -5.36921 4.37821 0
M  V30 92 N 14.9135 -4.4643 3.41551 0
M  V30 93 H 7.0645 -0.879093 1.93354 0
M  V30 94 H 9.3275 -0.448425 0.835236 0
M  V30 95 H 9.0335 -2.1611 2.77469 0
M  V30 96 H 8.9075 -3.43007 1.56927 0
M  V30 97 H 11.2945 -2.85023 0.764569 0
M  V30 98 H 11.3755 -1.58992 2.00387 0
M  V30 99 H 11.0195 -3.36699 3.80258 0
M  V30 100 H 10.9495 -4.61609 2.53425 0
M  V30 101 H 13.4405 -3.09944 2.16201 0
M  V30 102 H 13.7535 -5.95981 4.91962 0
M  V30 103 H 12.0985 -5.36424 4.41899 0
M  V30 104 H 15.2895 -3.79042 2.74672 0
M  V30 105 H 15.4625 -5.09491 4.00404 0
M  V30 106 N 8.8686 -0.792821 -1.36206 0
M  V30 107 C 9.8156 -0.191653 -2.30003 0
M  V30 108 C 10.7856 0.666453 -1.52143 0
M  V30 109 O 11.9706 0.61442 -1.80636 0
M  V30 110 C 9.1106 0.664848 -3.38635 0
M  V30 111 C 8.2236 -0.212175 -4.31479 0
M  V30 112 C 7.3586 0.651022 -5.27196 0
M  V30 113 C 6.3976 -0.227247 -6.11678 0
M  V30 114 N 5.5346 0.595127 -6.99573 0
M  V30 115 H 10.3746 -0.996978 -2.80828 0
M  V30 116 H 7.9116 -0.503206 -1.38225 0
M  V30 117 H 9.8696 1.17645 -4.00269 0
M  V30 118 H 8.4996 1.43557 -2.89122 0
M  V30 119 H 7.5516 -0.841777 -3.70969 0
M  V30 120 H 8.8636 -0.888751 -4.90818 0
M  V30 121 H 8.0176 1.2283 -5.94136 0
M  V30 122 H 6.7566 1.36121 -4.68319 0
M  V30 123 H 5.7616 -0.816904 -5.43697 0
M  V30 124 H 6.9866 -0.93509 -6.72631 0
M  V30 125 H 4.9326 1.28955 -6.432 0
M  V30 126 H 4.8496 -0.0236952 -7.55996 0
M  V30 127 H 6.1176 1.15613 -7.70879 0
M  V30 128 N 10.3467 1.47872 -0.545128 0
M  V30 129 C 11.7627 1.5829 -0.204032 0
M  V30 130 C 11.9627 1.54529 1.29317 0
M  V30 131 O 11.0187 1.44232 2.07252 0
M  V30 132 C 12.3317 2.89304 -0.819987 0
M  V30 133 C 13.8797 3.02864 -0.790105 0
M  V30 134 C 14.3547 4.3656 -1.38491 0
M  V30 135 N 15.8457 4.43165 -1.34755 0
M  V30 136 C 16.5807 5.45153 -1.77753 0
M  V30 137 N 16.0767 6.54016 -2.2855 0
M  V30 138 N 17.8697 5.36125 -1.68897 0
M  V30 139 H 10.0207 1.4856 -1.51802 0
M  V30 140 H 12.2837 0.706305 -0.632327 0
M  V30 141 H 11.9897 2.97757 -1.87173 0
M  V30 142 H 11.8637 3.75957 -0.305915 0
M  V30 143 H 14.2507 2.94014 0.252913 0
M  V30 144 H 14.3317 2.17782 -1.34181 0
M  V30 145 H 13.9757 4.46164 -2.42693 0
M  V30 146 H 13.9057 5.20353 -0.808754 0
M  V30 147 H 16.3967 3.65083 -0.975855 0
M  V30 148 H 16.7097 7.27994 -2.59314 0
M  V30 149 H 15.0547 6.54938 -2.32553 0
M  V30 150 H 18.2457 4.49975 -1.28998 0
M  V30 151 H 18.4187 6.15472 -2.02726 0
M  V30 152 N 11.8248 0.280983 1.55075 0
M  V30 153 C 12.7568 -0.637268 2.20163 0
M  V30 154 C 13.7698 -1.11298 1.18813 0
M  V30 155 O 14.9588 -1.03388 1.4551 0
M  V30 156 C 12.0588 -1.88199 2.81841 0
M  V30 157 C 11.2318 -1.55211 4.08936 0
M  V30 158 C 10.2908 -2.64991 4.54606 0
M  V30 159 O 9.3168 -2.30929 5.2025 0
M  V30 160 N 10.5188 -3.95161 4.25238 0
M  V30 161 H 13.2838 -0.0801694 2.99593 0
M  V30 162 H 10.8448 0.102329 1.61576 0
M  V30 163 H 12.8368 -2.60948 3.09335 0
M  V30 164 H 11.4068 -2.34799 2.06369 0
M  V30 165 H 10.6268 -0.658185 3.88666 0
M  V30 166 H 11.9148 -1.30681 4.91732 0
M  V30 167 H 11.3128 -4.25653 3.72607 0
M  V30 168 H 9.8698 -4.6427 4.5749 0
M  V30 169 N 13.3029 -1.57598 0.00835791 0
M  V30 170 C 14.2529 -2.05431 -0.989045 0
M  V30 171 C 15.2369 -0.950662 -1.29812 0
M  V30 172 O 16.4289 -1.21438 -1.28771 0
M  V30 173 C 13.5579 -2.56801 -2.27833 0
M  V30 174 C 12.6439 -3.74058 -1.99853 0
M  V30 175 N 13.0349 -4.8544 -1.42062 0
M  V30 176 C 11.3329 -3.82148 -2.29953 0
M  V30 177 C 12.0339 -5.66817 -1.30743 0
M  V30 178 N 11.0099 -5.13077 -1.7959 0
M  V30 179 H 14.8119 -2.88955 -0.536853 0
M  V30 180 H 12.3259 -1.61199 -0.197148 0
M  V30 181 H 14.3229 -2.89349 -3.00137 0
M  V30 182 H 12.9829 -1.74699 -2.73698 0
M  V30 183 H 13.9939 -5.0612 -1.09833 0
M  V30 184 H 10.6709 -3.10916 -2.78635 0
M  V30 185 H 12.0609 -6.66343 -0.862328 0
M  V30 186 N 14.781 0.264519 -1.55364 0
M  V30 187 C 16.03 0.992812 -1.75574 0
M  V30 188 C 16.343 1.87142 -0.568979 0
M  V30 189 O 17.549 2.63513 -0.653682 0
M  V30 190 C 16.005 1.81519 -3.10771 0
M  V30 191 C 15.613 0.984839 -4.37041 0
M  V30 192 C 17.357 2.53727 -3.40327 0
M  V30 193 C 15.264 1.80209 -5.63275 0
M  V30 194 H 14.194 0.374412 -0.65447 0
M  V30 195 H 16.845 0.248138 -1.81815 0
M  V30 196 H 15.227 2.60115 -2.98591 0
M  V30 197 H 16.401 0.242455 -4.60162 0
M  V30 198 H 14.716 0.37691 -4.14691 0
M  V30 199 H 17.313 3.15292 -4.3185 0
M  V30 200 H 17.656 3.24447 -2.60845 0
M  V30 201 H 18.189 1.82156 -3.53644 0
M  V30 202 H 14.928 1.13896 -6.45529 0
M  V30 203 H 14.448 2.52022 -5.44284 0
M  V30 204 H 16.127 2.37364 -6.01887 0
M  V30 205 N 16.2591 1.48442 0.529413 0
M  V30 206 C 17.2071 1.63452 1.65487 0
M  V30 207 C 18.2011 0.500955 1.61823 0
M  V30 208 O 19.4071 0.679695 1.66674 0
M  V30 209 H 15.7821 0.514905 0.548066 0
M  V30 210 H 17.7531 2.57975 1.49971 0
M  V30 211 C 16.5021 1.69196 3.03756 0
M  V30 212 H 15.8251 2.55784 3.07269 0
M  V30 213 H 17.2651 1.83743 3.82119 0
M  V30 214 C 15.7241 0.430765 3.34135 0
M  V30 215 O 16.2541 -0.4561 3.99102 0
M  V30 216 N 14.4601 0.302293 2.89023 0
M  V30 217 H 14.0071 1.02496 2.36331 0
M  V30 218 H 13.9651 -0.540546 3.09718 0
M  V30 219 N 17.7372 -0.778329 1.37039 0
M  V30 220 C 18.6872 -1.88142 1.28789 0
M  V30 221 C 19.6712 -1.59923 0.177063 0
M  V30 222 O 20.8632 -1.72165 0.410873 0
M  V30 223 C 17.9922 -3.25518 1.09055 0
M  V30 224 C 17.0782 -3.5971 2.24654 0
M  V30 225 N 17.4692 -3.65131 3.50018 0
M  V30 226 C 15.7672 -3.89837 2.16663 0
M  V30 227 C 16.4682 -3.95882 4.26207 0
M  V30 228 N 15.4442 -4.11441 3.55271 0
M  V30 229 H 19.2462 -1.90575 2.23737 0
M  V30 230 H 16.7602 -0.974435 1.29917 0
M  V30 231 H 18.7572 -4.04423 1.0123 0
M  V30 232 H 17.4172 -3.24353 0.15018 0
M  V30 233 H 18.4282 -3.475 3.84011 0
M  V30 234 H 15.1052 -3.96533 1.30645 0
M  V30 235 H 16.4952 -4.06907 5.34674 0
M  V30 236 N 19.2153 -1.21501 -1.00376 0
M  V30 237 C 20.1783 -0.976927 -2.07337 0
M  V30 238 C 21.1783 0.0525322 -1.60714 0
M  V30 239 O 22.3683 -0.184869 -1.73216 0
M  V30 240 C 19.5003 -0.473423 -3.37597 0
M  V30 241 H 20.6933 -1.92587 -2.29892 0
M  V30 242 H 18.2463 -1.03217 -1.17371 0
M  V30 243 H 18.9813 0.480379 -3.20722 0
M  V30 244 H 18.7663 -1.216 -3.72768 0
M  V30 245 H 20.2563 -0.32675 -4.1632 0
M  V30 246 N 20.6934 1.19889 -1.02296 0
M  V30 247 C 21.6234 2.25141 -0.619174 0
M  V30 248 C 22.6044 1.66051 0.368915 0
M  V30 249 O 23.7894 1.92546 0.252941 0
M  V30 250 C 20.9194 3.4728 0.0368783 0
M  V30 251 C 19.8734 4.19005 -0.872865 0
M  V30 252 C 19.1994 5.34637 -0.0822402 0
M  V30 253 C 20.4994 4.74452 -2.18387 0
M  V30 254 H 22.1934 2.59171 -1.49903 0
M  V30 255 H 19.7394 1.24579 -0.722222 0
M  V30 256 H 21.6924 4.20098 0.330958 0
M  V30 257 H 20.4164 3.12433 0.95149 0
M  V30 258 H 19.0754 3.48061 -1.15105 0
M  V30 259 H 18.7234 4.96034 0.83422 0
M  V30 260 H 18.4234 5.83557 -0.688149 0
M  V30 261 H 19.9474 6.10255 0.205238 0
M  V30 262 H 21.3614 5.39055 -1.95172 0
M  V30 263 H 19.7584 5.33834 -2.74119 0
M  V30 264 H 20.8284 3.92844 -2.84257 0
M  V30 265 N 22.1715 0.800033 1.35784 0
M  V30 266 C 23.3965 0.388511 2.03729 0
M  V30 267 C 23.8215 -0.990481 1.5991 0
M  V30 268 O 23.1795 -1.64013 0.772612 0
M  V30 269 C 23.2275 0.4726 3.5749 0
M  V30 270 O 22.3315 -0.51646 4.09153 0
M  V30 271 H 21.6725 0.163271 0.643614 0
M  V30 272 H 24.2025 1.0841 1.73518 0
M  V30 273 H 24.2125 0.34003 4.06581 0
M  V30 274 H 22.8875 1.47848 3.88734 0
M  V30 275 H 21.4645 -0.344673 3.71304 0
M  V30 276 N 23.6496 -1.47581 0.552962 0
M  V30 277 C 24.8986 -2.01684 0.0251995 0
M  V30 278 C 25.2116 -1.43317 -1.33115 0
M  V30 279 O 26.4176 -1.89057 -1.94858 0
M  V30 280 C 24.8736 -3.599 -0.00542052 0
M  V30 281 C 24.4816 -4.27257 1.34742 0
M  V30 282 C 26.2256 -4.21768 -0.4808 0
M  V30 283 C 24.1326 -5.77467 1.27614 0
M  V30 284 H 23.0626 -0.753979 0.00565033 0
M  V30 285 H 25.7136 -1.69616 0.70018 0
M  V30 286 H 24.0956 -3.88911 -0.745961 0
M  V30 287 H 25.2696 -4.09893 2.10534 0
M  V30 288 H 23.5846 -3.77358 1.76039 0
M  V30 289 H 26.1816 -5.31838 -0.55246 0
M  V30 290 H 26.5246 -3.88651 -1.49184 0
M  V30 291 H 27.0576 -3.97273 0.204752 0
M  V30 292 H 23.7966 -6.15196 2.26304 0
M  V30 293 H 23.3166 -5.9718 0.55996 0
M  V30 294 H 24.9956 -6.3959 0.976421 0
M  V30 295 N 25.1277 -0.289203 -1.54924 0
M  V30 296 C 26.3757 0.322879 -1.99504 0
M  V30 297 C 26.6967 1.55313 -1.1791 0
M  V30 298 O 25.9667 1.94001 -0.272097 0
M  V30 299 H 24.5467 0.122291 -0.736922 0
M  V30 300 H 27.2087 -0.397802 -1.90797 0
M  V30 301 H 26.3047 0.603061 -3.06218 0
M  V30 302 N 26.6058 1.57591 -0.0167156 0
M  V30 303 C 27.5378 2.06343 0.997753 0
M  V30 304 C 28.5508 0.984469 1.29661 0
M  V30 305 O 29.7398 1.26093 1.26344 0
M  V30 306 C 26.8398 2.46255 2.32834 0
M  V30 307 C 26.0128 3.77083 2.21646 0
M  V30 308 C 25.0718 4.0368 3.37534 0
M  V30 309 O 24.0978 4.7411 3.14973 0
M  V30 310 N 25.2998 3.52881 4.60929 0
M  V30 311 H 28.0648 2.93997 0.581875 0
M  V30 312 H 25.6258 1.61002 0.170316 0
M  V30 313 H 27.6178 2.61149 3.09166 0
M  V30 314 H 26.1878 1.64032 2.66106 0
M  V30 315 H 25.4078 3.72106 1.30119 0
M  V30 316 H 26.6958 4.62822 2.11361 0
M  V30 317 H 26.0938 2.95878 4.82154 0
M  V30 318 H 24.6508 3.73076 5.34469 0
M  V30 319 N 28.0839 -0.256276 1.55502 0
M  V30 320 C 29.0309 -1.31714 1.89526 0
M  V30 321 C 30.0009 -1.4828 0.748479 0
M  V30 322 O 31.1859 -1.62416 1.00128 0
M  V30 323 C 28.3259 -2.66933 2.18725 0
M  V30 324 C 27.4389 -2.58452 3.4616 0
M  V30 325 C 26.5739 -3.85961 3.64976 0
M  V30 326 C 25.6129 -3.72059 4.86044 0
M  V30 327 N 24.7499 -4.9144 5.01429 0
M  V30 328 H 29.5899 -1.01998 2.80001 0
M  V30 329 H 27.1269 -0.492413 1.38613 0
M  V30 330 H 29.0849 -3.4563 2.33657 0
M  V30 331 H 27.7149 -2.94816 1.31466 0
M  V30 332 H 26.7669 -1.71374 3.3961 0
M  V30 333 H 28.0789 -2.44085 4.34999 0
M  V30 334 H 27.2329 -4.73101 3.79816 0
M  V30 335 H 25.9719 -4.03215 2.74353 0
M  V30 336 H 24.9769 -2.83302 4.7119 0
M  V30 337 H 26.2019 -3.56309 5.78118 0
M  V30 338 H 24.1479 -5.09072 4.13741 0
M  V30 339 H 24.0649 -4.79668 5.84341 0
M  V30 340 H 25.3329 -5.80104 5.20672 0
M  V30 341 N 29.562 -1.4872 -0.521534 0
M  V30 342 C 30.978 -1.35028 -0.850855 0
M  V30 343 C 31.178 -0.367712 -1.98116 0
M  V30 344 O 30.234 0.208037 -2.51642 0
M  V30 345 C 31.547 -2.75263 -1.21041 0
M  V30 346 C 33.095 -2.83813 -1.31981 0
M  V30 347 C 33.57 -4.24769 -1.71276 0
M  V30 348 N 35.061 -4.27482 -1.78363 0
M  V30 349 C 35.796 -5.33494 -2.1017 0
M  V30 350 N 35.292 -6.49775 -2.40343 0
M  V30 351 N 37.085 -5.20894 -2.11248 0
M  V30 352 H 29.236 -2.11214 0.22413 0
M  V30 353 H 31.499 -0.947252 0.0376439 0
M  V30 354 H 31.205 -3.48765 -0.453415 0
M  V30 355 H 31.079 -3.09327 -2.15863 0
M  V30 356 H 33.466 -2.10561 -2.06756 0
M  V30 357 H 33.547 -2.53358 -0.352596 0
M  V30 358 H 33.191 -4.9854 -0.970588 0
M  V30 359 H 33.121 -4.52673 -2.69062 0
M  V30 360 H 35.612 -3.43611 -1.57288 0
M  V30 361 H 35.925 -7.26402 -2.63743 0
M  V30 362 H 34.27 -6.53035 -2.37844 0
M  V30 363 H 37.461 -4.29065 -1.87139 0
M  V30 364 H 37.634 -6.03612 -2.35704 0
M  V30 365 N 31.0401 0.771051 -1.3745 0
M  V30 366 C 31.9501 1.91538 -1.35464 0
M  V30 367 C 32.9661 1.72134 -0.254123 0
M  V30 368 O 34.1421 1.95358 -0.489626 0
M  V30 369 C 31.2071 3.26671 -1.16134 0
M  V30 370 C 30.2681 3.58723 -2.35831 0
M  V30 371 C 29.5011 4.87409 -2.17413 0
M  V30 372 O 29.7241 5.58506 -1.15876 0
M  V30 373 O 28.6581 5.18539 -3.05615 0
M  V30 374 H 32.4841 1.96165 -2.31847 0
M  V30 375 H 30.0691 0.9139 -1.18187 0
M  V30 376 H 31.9511 4.07499 -1.07345 0
M  V30 377 H 30.6261 3.22894 -0.228251 0
M  V30 378 H 29.5331 2.78127 -2.50192 0
M  V30 379 H 30.8661 3.67243 -3.27709 0
M  V30 380 N 32.5182 1.22032 0.997298 0
M  V30 381 C 33.7462 1.06841 1.7718 0
M  V30 382 C 34.1612 -0.381325 1.84909 0
M  V30 383 O 33.5182 -1.26437 1.31605 0
M  V30 384 C 33.5692 1.66814 3.20711 0
M  V30 385 O 33.2902 3.06116 3.13408 0
M  V30 386 C 34.7912 1.56838 4.14628 0
M  V30 387 H 32.0112 0.374782 0.556578 0
M  V30 388 H 34.5552 1.61532 1.2541 0
M  V30 389 H 32.7102 1.16196 3.69564 0
M  V30 390 H 33.1242 3.34926 4.0364 0
M  V30 391 H 34.5982 2.03532 5.13107 0
M  V30 392 H 35.0752 0.524155 4.36061 0
M  V30 393 H 35.6812 2.06741 3.7167 0
M  V30 394 N 33.9963 -1.19345 1.0293 0
M  V30 395 C 35.2443 -1.88665 0.724574 0
M  V30 396 C 35.5653 -1.80036 -0.749144 0
M  V30 397 O 34.8353 -1.2111 -1.53978 0
M  V30 398 H 33.4153 -0.698406 0.265025 0
M  V30 399 H 36.0773 -1.44885 1.30362 0
M  V30 400 H 35.1733 -2.94987 1.01926 0
M  V30 401 N 35.4744 -0.807222 -1.35358 0
M  V30 402 C 36.4044 -0.232509 -2.3234 0
M  V30 403 C 37.3854 0.642386 -1.57504 0
M  V30 404 O 38.5704 0.572526 -1.85569 0
M  V30 405 C 35.7004 0.619238 -3.41735 0
M  V30 406 C 34.6544 -0.157215 -4.27711 0
M  V30 407 C 33.9804 0.816273 -5.28433 0
M  V30 408 C 35.2804 -1.35656 -5.04376 0
M  V30 409 H 36.9744 -1.04276 -2.80654 0
M  V30 410 H 34.5204 -0.50288 -1.34934 0
M  V30 411 H 36.4734 1.03137 -4.08584 0
M  V30 412 H 35.1974 1.46239 -2.92031 0
M  V30 413 H 33.8564 -0.550525 -3.62443 0
M  V30 414 H 33.5044 1.65494 -4.74996 0
M  V30 415 H 33.2044 0.301067 -5.86828 0
M  V30 416 H 34.7284 1.22659 -5.98153 0
M  V30 417 H 36.1424 -1.01927 -5.64166 0
M  V30 418 H 34.5394 -1.8063 -5.7227 0
M  V30 419 H 35.6094 -2.14288 -4.34981 0
M  V30 420 N 36.9525 1.47285 -0.560781 0
M  V30 421 C 38.2295 1.9558 0.0277798 0
M  V30 422 C 38.6095 1.5034 1.48192 0
M  V30 423 O 37.9575 0.743882 2.16052 0
M  V30 424 C 38.1675 3.48789 -0.121418 0
M  V30 425 C 39.5155 4.24594 0.0220912 0
M  V30 426 O 40.5395 3.56166 -0.0491439 0
M  V30 427 O 39.3985 5.46217 0.175958 0
M  V30 428 H 36.4925 0.824663 0.0621342 0
M  V30 429 H 39.0385 1.5767 -0.627556 0
M  V30 430 H 37.8105 3.74533 -1.13316 0
M  V30 431 H 37.4335 3.93473 0.571366 0
M  V30 432 N 38.4306 0.297415 1.54768 0
M  V30 433 C 39.7076 -0.365847 1.92148 0
M  V30 434 C 40.0876 -1.71975 1.22424 0
M  V30 435 O 39.4356 -2.25666 0.358739 0
M  V30 436 C 39.6456 -0.484056 3.45627 0
M  V30 437 C 40.9936 -0.756594 4.17805 0
M  V30 438 O 42.0176 -0.568007 3.51642 0
M  V30 439 O 40.8766 -1.11863 5.34929 0
M  V30 440 H 37.9706 -0.203919 0.801465 0
M  V30 441 H 40.5166 0.34521 1.66152 0
M  V30 442 H 39.2886 0.467865 3.88493 0
M  V30 443 H 38.9116 -1.24372 3.77647 0
M  V30 444 N 39.9087 -1.5758 0.0250728 0
M  V30 445 C 41.1577 -1.90811 -0.653767 0
M  V30 446 C 41.4707 -0.90273 -1.73523 0
M  V30 447 O 42.6767 -1.12614 -2.47043 0
M  V30 448 C 41.1327 -3.38804 -1.21409 0
M  V30 449 C 40.7407 -4.47692 -0.166126 0
M  V30 450 C 42.4847 -3.81108 -1.86967 0
M  V30 451 C 40.3917 -5.86779 -0.737856 0
M  V30 452 H 39.3217 -0.712063 -0.247956 0
M  V30 453 H 41.9727 -1.83281 0.0897137 0
M  V30 454 H 40.3547 -3.41252 -2.00905 0
M  V30 455 H 41.5287 -4.56797 0.606079 0
M  V30 456 H 39.8437 -4.14565 0.390466 0
M  V30 457 H 42.4407 -4.82375 -2.30692 0
M  V30 458 H 42.7837 -3.15953 -2.71071 0
M  V30 459 H 43.3167 -3.81065 -1.14167 0
M  V30 460 H 40.0557 -6.55468 0.0649577 0
M  V30 461 H 39.5757 -5.81288 -1.47864 0
M  V30 462 H 41.2547 -6.35223 -1.22884 0
M  V30 463 N 41.3868 0.248026 -1.55636 0
M  V30 464 C 42.6148 0.993808 -1.81469 0
M  V30 465 C 43.0298 1.78991 -0.60064 0
M  V30 466 O 42.3868 1.77345 0.430682 0
M  V30 467 C 42.4378 1.93258 -3.05506 0
M  V30 468 O 42.1588 1.16869 -4.22224 0
M  V30 469 C 43.6598 2.79444 -3.4413 0
M  V30 470 H 40.8798 0.292486 -0.603898 0
M  V30 471 H 43.4238 0.271253 -2.02693 0
M  V30 472 H 41.5788 2.60943 -2.86335 0
M  V30 473 H 41.9928 1.80359 -4.92515 0
M  V30 474 H 43.4668 3.41066 -4.34026 0
M  V30 475 H 43.9438 3.50499 -2.64665 0
M  V30 476 H 44.5498 2.17214 -3.65648 0
M  V30 477 N 42.8649 1.48995 0.513639 0
M  V30 478 C 44.1119 1.57843 1.26854 0
M  V30 479 C 44.4399 0.259501 1.92761 0
M  V30 480 O 43.6949 -0.75159 1.80692 0
M  V30 481 C 43.9939 2.67756 2.36731 0
M  V30 482 C 43.6599 4.09669 1.88368 0
M  V30 483 C 42.3219 4.48291 1.74896 0
M  V30 484 C 44.6739 4.98537 1.52021 0
M  V30 485 C 42.0019 5.73568 1.23438 0
M  V30 486 C 44.3539 6.24319 1.0202 0
M  V30 487 C 43.0179 6.61783 0.871778 0
M  V30 488 H 42.2879 0.577587 0.464192 0
M  V30 489 H 44.9349 1.82778 0.571366 0
M  V30 490 H 43.2399 2.36743 3.12185 0
M  V30 491 H 44.9369 2.71813 2.9482 0
M  V30 492 H 41.5269 3.79176 1.99808 0
M  V30 493 H 45.7109 4.69363 1.61281 0
M  V30 494 H 40.9669 6.01304 1.10648 0
M  V30 495 H 45.1409 6.92566 0.729722 0
M  V30 496 H 42.7679 7.5874 0.470852 0
M  V30 497 N 44.343 -0.763751 1.37857 0
M  V30 498 C 45.589 -1.52483 1.33704 0
M  V30 499 C 45.922 -1.94051 -0.0759612 0
M  V30 500 O 45.197 -1.64675 -1.03501 0
M  V30 501 C 45.48 -2.78441 2.28348 0
M  V30 502 C 45.333 -2.43075 3.78463 0
M  V30 503 C 46.652 -3.80415 2.21298 0
M  V30 504 H 43.771 -0.553169 0.487005 0
M  V30 505 H 46.413 -0.875562 1.68624 0
M  V30 506 H 44.563 -3.33842 1.987 0
M  V30 507 H 46.235 -1.93527 4.18742 0
M  V30 508 H 44.478 -1.75666 3.96641 0
M  V30 509 H 45.149 -3.33149 4.40132 0
M  V30 510 H 47.625 -3.34527 2.47449 0
M  V30 511 H 46.501 -4.66257 2.89647 0
M  V30 512 H 46.762 -4.25262 1.20849 0
M  V30 513 N 45.8211 -1.22559 -0.990812 0
M  V30 514 C 46.7711 -0.964807 -2.0658 0
M  V30 515 C 47.7551 0.0853472 -1.60673 0
M  V30 516 O 48.9471 -0.125443 -1.76555 0
M  V30 517 C 46.0761 -0.546707 -3.38919 0
M  V30 518 C 45.1621 -1.6317 -3.91454 0
M  V30 519 N 45.5531 -2.85985 -4.17189 0
M  V30 520 C 43.8511 -1.50387 -4.19881 0
M  V30 521 C 44.5521 -3.56159 -4.59919 0
M  V30 522 N 43.5281 -2.83637 -4.63736 0
M  V30 523 H 47.3301 -1.89769 -2.24421 0
M  V30 524 H 44.8441 -1.12343 -1.17273 0
M  V30 525 H 46.8411 -0.34119 -4.15502 0
M  V30 526 H 45.5011 0.379254 -3.22478 0
M  V30 527 H 46.5121 -3.22392 -4.05319 0
M  V30 528 H 43.1891 -0.644254 -4.12499 0
M  V30 529 H 44.5791 -4.6139 -4.88435 0
M  V30 530 N 47.2992 1.18797 -1.03562 0
M  V30 531 C 48.5452 1.8893 -0.737113 0
M  V30 532 C 48.8782 1.79837 0.732956 0
M  V30 533 O 48.1532 1.19525 1.5344 0
M  V30 534 C 48.4362 3.39607 -1.19745 0
M  V30 535 C 48.2892 3.57537 -2.72924 0
M  V30 536 C 49.6082 4.33069 -0.783526 0
M  V30 537 H 46.7272 0.686057 -0.269249 0
M  V30 538 H 49.3692 1.39797 -1.28673 0
M  V30 539 H 47.5192 3.81583 -0.729855 0
M  V30 540 H 49.1912 3.24688 -3.27682 0
M  V30 541 H 47.4342 3.00363 -3.12993 0
M  V30 542 H 48.1052 4.63238 -3.00191 0
M  V30 543 H 50.5812 3.98846 -1.18581 0
M  V30 544 H 49.4572 5.3707 -1.13343 0
M  V30 545 H 49.7182 4.40986 0.313681 0
M  V30 546 N 48.7773 0.814389 1.34928 0
M  V30 547 C 50.0023 0.410097 2.03305 0
M  V30 548 C 50.4273 -0.973464 1.60951 0
M  V30 549 O 49.7853 -1.63185 0.789964 0
M  V30 550 C 49.8333 0.51049 3.56968 0
M  V30 551 O 48.9373 -0.473035 4.09678 0
M  V30 552 H 48.2783 0.170088 0.641846 0
M  V30 553 H 50.8083 1.10244 1.72358 0
M  V30 554 H 50.8183 0.383135 4.06197 0
M  V30 555 H 49.4933 1.51963 3.87144 0
M  V30 556 H 48.0703 -0.305272 3.71648 0
M  V30 557 N 50.2554 -1.46986 0.568584 0
M  V30 558 C 51.1854 -2.32946 -0.160753 0
M  V30 559 C 52.1664 -1.44487 -0.897631 0
M  V30 560 O 53.3514 -1.73327 -0.875867 0
M  V30 561 C 50.4814 -3.26494 -1.18403 0
M  V30 562 C 49.4354 -4.24282 -0.562895 0
M  V30 563 C 48.7614 -5.07236 -1.69163 0
M  V30 564 C 50.0614 -5.19989 0.490761 0
M  V30 565 H 51.7554 -2.94175 0.556916 0
M  V30 566 H 49.3014 -1.4146 0.26927 0
M  V30 567 H 51.2544 -3.85477 -1.70251 0
M  V30 568 H 49.9784 -2.63343 -1.93179 0
M  V30 569 H 48.6374 -3.66541 -0.0656164 0
M  V30 570 H 48.2854 -4.4048 -2.42871 0
M  V30 571 H 47.9854 -5.7345 -1.28174 0
M  V30 572 H 49.5094 -5.6908 -2.21314 0
M  V30 573 H 50.9234 -5.73271 0.0579047 0
M  V30 574 H 49.3204 -5.94469 0.820165 0
M  V30 575 H 50.3904 -4.64777 1.3824 0
M  V30 576 N 51.7335 -0.305618 -1.54608 0
M  V30 577 C 53.1445 0.186098 -1.8577 0
M  V30 578 C 53.4955 1.53058 -1.22751 0
M  V30 579 O 52.6205 2.09888 -0.526893 0
M  V30 580 C 53.2155 0.344449 -3.37044 0
M  V30 581 C 51.7745 0.780384 -3.68221 0
M  V30 582 C 50.9215 -0.108554 -2.77087 0
M  V30 583 H 53.8725 -0.526485 -1.49712 0
M  V30 584 H 53.8935 1.17828 -3.61796 0
M  V30 585 H 53.4055 -0.634235 -3.82883 0
M  V30 586 H 51.5065 1.76945 -3.27904 0
M  V30 587 H 51.6195 0.596572 -4.75371 0
M  V30 588 H 49.9835 0.412931 -2.5133 0
M  V30 589 H 50.7665 -1.08368 -3.25747 0
M  V30 590 N 53.2116 1.57565 -0.0334293 0
M  V30 591 C 54.4886 1.83282 0.683163 0
M  V30 592 C 54.8686 0.91823 1.90084 0
M  V30 593 O 54.2166 -0.025113 2.28486 0
M  V30 594 C 54.4266 3.32599 1.0573 0
M  V30 595 C 55.7746 3.99179 1.44711 0
M  V30 596 O 56.7986 3.3712 1.15015 0
M  V30 597 O 55.6576 5.08565 2.0006 0
M  V30 598 H 52.7516 0.755869 0.335546 0
M  V30 599 H 55.2976 1.69589 -0.0614402 0
M  V30 600 H 54.0696 3.90834 0.190828 0
M  V30 601 H 53.6926 3.51415 1.85993 0
M  V30 602 N 54.6897 -0.239769 1.55765 0
M  V30 603 C 55.6197 -1.30052 1.9393 0
M  V30 604 C 56.6007 -1.49839 0.805132 0
M  V30 605 O 57.7857 -1.62328 1.06599 0
M  V30 606 C 54.9157 -2.65391 2.2402 0
M  V30 607 C 53.8697 -2.60289 3.39755 0
M  V30 608 C 53.1957 -3.99489 3.55405 0
M  V30 609 C 54.4957 -2.16654 4.75246 0
M  V30 610 H 56.1897 -0.983573 2.82783 0
M  V30 611 H 53.7357 -0.471701 1.36055 0
M  V30 612 H 55.6887 -3.3974 2.49308 0
M  V30 613 H 54.4127 -2.98736 1.32 0
M  V30 614 H 53.0717 -1.88398 3.14487 0
M  V30 615 H 52.7197 -4.30112 2.60793 0
M  V30 616 H 52.4197 -3.96962 4.33238 0
M  V30 617 H 53.9437 -4.75528 3.83022 0
M  V30 618 H 55.3577 -2.80737 4.99859 0
M  V30 619 H 53.7547 -2.25223 5.56232 0
M  V30 620 H 54.8247 -1.11835 4.71827 0
M  V30 621 N 56.1678 -1.49265 -0.50573 0
M  V30 622 C 57.1308 -1.65075 -1.59006 0
M  V30 623 C 58.1308 -0.522768 -1.52065 0
M  V30 624 O 59.3208 -0.789117 -1.55302 0
M  V30 625 C 56.4528 -1.64369 -2.98656 0
M  V30 626 H 57.6458 -2.61784 -1.46319 0
M  V30 627 H 55.1988 -1.38226 -0.729616 0
M  V30 628 H 55.9338 -0.692272 -3.16825 0
M  V30 629 H 55.7188 -2.46282 -3.05103 0
M  V30 630 H 57.2088 -1.78674 -3.77446 0
M  V30 631 N 57.6459 0.756429 -1.3826 0
M  V30 632 C 58.5759 1.88374 -1.37976 0
M  V30 633 C 59.5569 1.68311 -0.246082 0
M  V30 634 O 60.7419 1.88944 -0.44874 0
M  V30 635 C 57.8719 3.25864 -1.20125 0
M  V30 636 C 56.8259 3.60523 -2.30666 0
M  V30 637 C 56.1519 4.9672 -1.97923 0
M  V30 638 C 57.4519 3.65692 -3.72916 0
M  V30 639 H 59.1459 1.88869 -2.32312 0
M  V30 640 H 56.6919 0.907272 -1.11824 0
M  V30 641 H 58.6449 4.0438 -1.18552 0
M  V30 642 H 57.3689 3.25841 -0.222498 0
M  V30 643 H 56.0279 2.84324 -2.3142 0
M  V30 644 H 55.6759 4.93253 -0.985393 0
M  V30 645 H 55.3759 5.20878 -2.71955 0
M  V30 646 H 56.8999 5.77618 -1.97964 0
M  V30 647 H 58.3139 4.34328 -3.74208 0
M  V30 648 H 56.7109 4.01358 -4.4613 0
M  V30 649 H 57.7809 2.65987 -4.05436 0
M  V30 650 N 59.124 1.23083 0.984299 0
M  V30 651 C 60.034 1.02515 2.11016 0
M  V30 652 C 61.05 -0.0291702 1.73976 0
M  V30 653 O 62.226 0.165434 2.00719 0
M  V30 654 C 59.291 0.614673 3.41208 0
M  V30 655 C 58.352 1.74359 3.92297 0
M  V30 656 C 57.585 1.35261 5.16275 0
M  V30 657 O 57.808 0.235136 5.69915 0
M  V30 658 O 56.742 2.17227 5.61334 0
M  V30 659 H 60.568 1.96862 2.31255 0
M  V30 660 H 58.153 1.01753 1.09392 0
M  V30 661 H 60.035 0.396518 4.1953 0
M  V30 662 H 58.71 -0.299851 3.22308 0
M  V30 663 H 57.617 2.01635 3.1511 0
M  V30 664 H 58.95 2.63629 4.15645 0
M  V30 665 N 60.6021 -1.18246 1.0419 0
M  V30 666 C 61.5341 -2.2142 0.592088 0
M  V30 667 C 62.5471 -1.59233 -0.338909 0
M  V30 668 O 63.7361 -1.78002 -0.133231 0
M  V30 669 C 60.8361 -3.38546 -0.154854 0
M  V30 670 C 60.0091 -4.3031 0.784328 0
M  V30 671 C 59.0681 -5.26138 0.0804583 0
M  V30 672 O 58.0941 -5.64738 0.711292 0
M  V30 673 N 59.2961 -5.68261 -1.18574 0
M  V30 674 H 62.0611 -2.60636 1.47949 0
M  V30 675 H 59.6221 -1.33044 0.922544 0
M  V30 676 H 61.6141 -3.99678 -0.635606 0
M  V30 677 H 60.1841 -2.98012 -0.943811 0
M  V30 678 H 59.4041 -3.66764 1.44491 0
M  V30 679 H 60.6921 -4.8852 1.42218 0
M  V30 680 H 60.0901 -5.38957 -1.71876 0
M  V30 681 H 58.6471 -6.31584 -1.61074 0
M  V30 682 N 62.0802 -0.821533 -1.34494 0
M  V30 683 C 63.3262 -0.409552 -1.98622 0
M  V30 684 C 63.6592 1.0244 -1.64984 0
M  V30 685 O 62.9342 1.71325 -0.920758 0
M  V30 686 C 63.2172 -0.610458 -3.54888 0
M  V30 687 C 63.0702 -2.09043 -3.98273 0
M  V30 688 C 64.3892 -0.0455379 -4.40076 0
M  V30 689 H 61.5082 -0.15028 -0.721516 0
M  V30 690 H 64.1502 -1.03384 -1.59411 0
M  V30 691 H 62.3002 -0.079044 -3.8842 0
M  V30 692 H 63.9722 -2.68537 -3.75081 0
M  V30 693 H 62.2152 -2.58139 -3.48635 0
M  V30 694 H 62.8862 -2.18182 -5.07051 0
M  V30 695 H 65.3622 -0.499557 -4.1309 0
M  V30 696 H 64.2382 -0.215922 -5.48475 0
M  V30 697 H 64.4992 1.04939 -4.29465 0
M  V30 698 N 63.5583 1.46682 -0.576371 0
M  V30 699 C 64.8353 1.95599 0.00703437 0
M  V30 700 C 65.2153 1.51904 1.46589 0
M  V30 701 O 64.5633 0.766755 2.15251 0
M  V30 702 C 64.7733 3.4864 -0.158404 0
M  V30 703 C 66.1213 4.24594 -0.0229439 0
M  V30 704 O 67.1453 3.56094 -0.0869173 0
M  V30 705 O 66.0043 5.46373 0.118015 0
M  V30 706 H 63.0983 0.825275 0.053384 0
M  V30 707 H 65.6443 1.56996 -0.644244 0
M  V30 708 H 64.4163 3.7331 -1.17282 0
M  V30 709 H 64.0393 3.94057 0.5296 0
M  V30 710 N 65.0364 0.313813 1.54444 0
M  V30 711 C 66.2854 -0.292519 1.99568 0
M  V30 712 C 66.5984 -1.54011 1.20582 0
M  V30 713 O 67.8044 -2.22183 1.56035 0
M  V30 714 C 66.2604 -0.571752 3.55329 0
M  V30 715 C 65.8684 0.658229 4.43138 0
M  V30 716 C 67.6124 -1.13857 4.08946 0
M  V30 717 C 65.5194 0.351439 5.90355 0
M  V30 718 H 64.4494 -0.113079 0.745472 0
M  V30 719 H 67.1004 0.424518 1.78522 0
M  V30 720 H 65.4824 -1.34872 3.72325 0
M  V30 721 H 66.6564 1.43403 4.37918 0
M  V30 722 H 64.9714 1.14458 4.0036 0
M  V30 723 H 67.5684 -1.38257 5.16516 0
M  V30 724 H 67.9114 -2.08489 3.6033 0
M  V30 725 H 68.4444 -0.423015 3.95544 0
M  V30 726 H 65.1834 1.26667 6.43145 0
M  V30 727 H 64.7034 -0.386842 5.98551 0
M  V30 728 H 66.3824 -0.0423134 6.46986 0
M  V30 729 N 66.5145 -1.57545 0.0417849 0
M  V30 730 C 67.7395 -1.97035 -0.647455 0
M  V30 731 C 68.1645 -0.918775 -1.64135 0
M  V30 732 O 67.5225 0.119006 -1.80909 0
M  V30 733 C 67.5705 -3.35609 -1.31905 0
M  V30 734 O 66.6745 -3.3287 -2.43457 0
M  V30 735 H 66.0155 -0.64211 -0.169086 0
M  V30 736 H 68.5455 -2.04318 0.107399 0
M  V30 737 H 68.5555 -3.72126 -1.67291 0
M  V30 738 H 67.2305 -4.11685 -0.590586 0
M  V30 739 H 65.8075 -3.08087 -2.10088 0
M  V30 740 N 67.9926 0.231505 -1.5589 0
M  V30 741 C 69.2206 0.974505 -1.82513 0
M  V30 742 C 69.6356 1.78344 -0.619591 0
M  V30 743 O 68.9926 1.77792 0.411848 0
M  V30 744 C 69.0436 1.90007 -3.07538 0
M  V30 745 O 68.7646 1.12385 -4.2344 0
M  V30 746 C 70.2656 2.75779 -3.47075 0
M  V30 747 H 67.4856 0.286065 -0.606966 0
M  V30 748 H 70.0296 0.249739 -2.02969 0
M  V30 749 H 68.1846 2.57891 -2.89086 0
M  V30 750 H 68.5986 1.75125 -4.944 0
M  V30 751 H 70.0726 3.36443 -4.37619 0
M  V30 752 H 70.5496 3.47672 -2.68367 0
M  V30 753 H 71.1556 2.13323 -3.67931 0
M  V30 754 N 69.4707 1.49531 0.497807 0
M  V30 755 C 70.4177 1.66436 1.59899 0
M  V30 756 C 71.3877 0.505793 1.58212 0
M  V30 757 O 72.5727 0.733202 1.7615 0
M  V30 758 C 69.7127 1.7399 2.98029 0
M  V30 759 C 68.8257 3.01172 3.09708 0
M  V30 760 C 67.9607 2.99686 4.38591 0
M  V30 761 C 66.9997 4.21434 4.43914 0
M  V30 762 N 66.1367 4.1784 5.64229 0
M  V30 763 H 70.9767 2.60459 1.44793 0
M  V30 764 H 68.5137 1.29137 0.704423 0
M  V30 765 H 70.4717 1.76352 3.78095 0
M  V30 766 H 69.1017 0.834301 3.11832 0
M  V30 767 H 68.1537 3.08408 2.22685 0
M  V30 768 H 69.4657 3.91165 3.09502 0
M  V30 769 H 68.6197 3.00628 5.2698 0
M  V30 770 H 67.3587 2.07477 4.41367 0
M  V30 771 H 66.3637 4.20733 3.53926 0
M  V30 772 H 67.5887 5.14839 4.42851 0
M  V30 773 H 65.5347 3.28469 5.67841 0
M  V30 774 H 65.4517 5.01571 5.65652 0
M  V30 775 H 66.7197 4.22889 6.54817 0
M  V30 776 N 70.9488 -0.749086 1.3866 0
M  V30 777 C 72.1978 -1.50371 1.3443 0
M  V30 778 C 72.5108 -1.95503 -0.0616397 0
M  V30 779 O 73.7168 -2.70554 -0.226489 0
M  V30 780 C 72.1728 -2.71644 2.36088 0
M  V30 781 C 71.7808 -2.3352 3.82325 0
M  V30 782 C 73.5248 -3.49518 2.40909 0
M  V30 783 C 71.4318 -3.51431 4.75658 0
M  V30 784 H 70.3618 -0.564628 0.499712 0
M  V30 785 H 73.0128 -0.818449 1.64237 0
M  V30 786 H 71.3948 -3.42175 1.9933 0
M  V30 787 H 72.5688 -1.70627 4.28046 0
M  V30 788 H 70.8838 -1.6877 3.80665 0
M  V30 789 H 73.4808 -4.37197 3.07836 0
M  V30 790 H 73.8238 -3.90992 1.42937 0
M  V30 791 H 74.3568 -2.86005 2.76489 0
M  V30 792 H 71.0958 -3.15019 5.74842 0
M  V30 793 H 70.6158 -4.13352 4.34627 0
M  V30 794 H 72.2948 -4.17953 4.93887 0
M  V30 795 N 72.4269 -1.23603 -0.977757 0
M  V30 796 C 73.6749 -1.06759 -1.71601 0
M  V30 797 C 73.9959 0.395929 -1.90938 0
M  V30 798 O 73.2659 1.28356 -1.47992 0
M  V30 799 H 71.8459 -0.392062 -0.635843 0
M  V30 800 H 74.5079 -1.55362 -1.1768 0
M  V30 801 H 73.6039 -1.55763 -2.70452 0
M  V30 802 N 73.905 1.17692 -1.04816 0
M  V30 803 C 74.815 2.25229 -0.65643 0
M  V30 804 C 75.831 1.71018 0.320761 0
M  V30 805 O 77.007 2.00649 0.173805 0
M  V30 806 C 74.072 3.46684 -0.0332629 0
M  V30 807 C 73.133 4.15997 -1.06042 0
M  V30 808 C 72.366 5.31654 -0.466893 0
M  V30 809 O 72.589 5.65777 0.724758 0
M  V30 810 O 71.523 5.89831 -1.1993 0
M  V30 811 H 75.349 2.61016 -1.55255 0
M  V30 812 H 72.934 1.24919 -0.81949 0
M  V30 813 H 74.816 4.20234 0.313256 0
M  V30 814 H 73.491 3.12703 0.836566 0
M  V30 815 H 72.398 3.44482 -1.45886 0
M  V30 816 H 73.731 4.53996 -1.90127 0
M  V30 817 N 75.3831 0.828654 1.34056 0
M  V30 818 C 76.3131 0.269443 2.3194 0
M  V30 819 C 77.2941 -0.617247 1.58506 0
M  V30 820 O 78.4791 -0.542931 1.86456 0
M  V30 821 C 75.6091 -0.564793 3.42677 0
M  V30 822 C 74.5631 0.225241 4.27407 0
M  V30 823 C 73.8891 -0.7321 5.29664 0
M  V30 824 C 75.1891 1.43663 5.02154 0
M  V30 825 H 76.8831 1.08728 2.7896 0
M  V30 826 H 74.4291 0.524283 1.34117 0
M  V30 827 H 76.3821 -0.966233 4.10173 0
M  V30 828 H 75.1061 -1.41574 2.9432 0
M  V30 829 H 73.7651 0.608117 3.61521 0
M  V30 830 H 73.4131 -1.57916 4.77568 0
M  V30 831 H 73.1131 -0.20767 5.87233 0
M  V30 832 H 74.6371 -1.13128 6.00029 0
M  V30 833 H 76.0511 1.1089 5.62473 0
M  V30 834 H 74.4481 1.89711 5.69324 0
M  V30 835 H 75.5181 2.21181 4.31517 0
M  V30 836 N 76.8612 -1.46375 0.584142 0
M  V30 837 C 78.0862 -2.07268 0.0740405 0
M  V30 838 C 78.5112 -1.42979 -1.22223 0
M  V30 839 O 77.8692 -0.514092 -1.73859 0
M  V30 840 C 77.9172 -3.60518 -0.0767769 0
M  V30 841 O 77.0212 -3.96533 -1.13292 0
M  V30 842 H 76.3622 -0.660961 0.0634524 0
M  V30 843 H 78.8922 -1.87991 0.807492 0
M  V30 844 H 78.9022 -4.07021 -0.282489 0
M  V30 845 H 77.5772 -4.06702 0.86986 0
M  V30 846 H 76.1542 -3.61738 -0.905553 0
M  V30 847 N 78.3393 -0.321999 -1.54275 0
M  V30 848 C 79.5643 0.285791 -2.05422 0
M  V30 849 C 79.9893 1.45124 -1.19669 0
M  V30 850 O 79.3473 1.80132 -0.205441 0
M  V30 851 C 79.3953 0.69956 -3.53749 0
M  V30 852 O 78.4993 1.8021 -3.70942 0
M  V30 853 H 77.8403 0.0518962 -0.661969 0
M  V30 854 H 80.3703 -0.469954 -1.9913 0
M  V30 855 H 80.3803 0.982649 -3.9599 0
M  V30 856 H 79.0553 -0.152864 -4.15619 0
M  V30 857 H 77.6323 1.51794 -3.40607 0
M  V30 858 N 79.8174 1.5752 -0.0501392 0
M  V30 859 C 81.0424 1.97376 0.636997 0
M  V30 860 C 81.4674 0.927466 1.63645 0
M  V30 861 O 80.8254 -0.10941 1.8097 0
M  V30 862 C 80.8734 3.36304 1.30123 0
M  V30 863 O 79.9774 3.34156 2.41689 0
M  V30 864 H 79.3184 0.642998 0.165679 0
M  V30 865 H 81.8484 2.04258 -0.118233 0
M  V30 866 H 81.8584 3.73008 1.65315 0
M  V30 867 H 80.5334 4.11993 0.568746 0
M  V30 868 H 79.1104 3.09196 2.08451 0
M  V30 869 N 81.2955 -0.223234 1.56011 0
M  V30 870 C 82.5205 -0.968978 1.83373 0
M  V30 871 C 82.9455 -1.77227 0.630254 0
M  V30 872 O 82.3035 -1.76345 -0.420959 0
M  V30 873 C 82.3515 -1.86363 3.08709 0
M  V30 874 O 81.4555 -2.95873 2.87285 0
M  V30 875 H 80.7965 -0.274461 0.604622 0
M  V30 876 H 83.3265 -0.237056 2.03222 0
M  V30 877 H 83.3365 -2.27376 3.38768 0
M  V30 878 H 82.0115 -1.27319 3.95933 0
M  V30 879 H 80.5885 -2.58818 2.68454 0
M  V30 880 N 82.7736 -1.49793 -0.48987 0
M  V30 881 C 84.1846 -1.52914 -1.07118 0
M  V30 882 C 84.5356 -0.321738 -1.93544 0
M  V30 883 O 83.6606 0.567338 -2.08831 0
M  V30 884 C 84.2556 -2.771 -1.94938 0
M  V30 885 C 82.8146 -2.82963 -2.48212 0
M  V30 886 C 81.9616 -2.46972 -1.26096 0
M  V30 887 H 84.9126 -1.56329 -0.273289 0
M  V30 888 H 84.9336 -2.57892 -2.79771 0
M  V30 889 H 84.4456 -3.64959 -1.32009 0
M  V30 890 H 82.5466 -1.99411 -3.14748 0
M  V30 891 H 82.6596 -3.85406 -2.84603 0
M  V30 892 H 81.0236 -1.98994 -1.58976 0
M  V30 893 H 81.8066 -3.37118 -0.648581 0
M  V30 894 N 84.2517 0.741722 -1.39055 0
M  V30 895 C 85.5007 1.49656 -1.35225 0
M  V30 896 C 85.8137 1.95533 0.0512708 0
M  V30 897 O 87.0197 2.7067 0.212138 0
M  V30 898 C 85.4757 2.70389 -2.37525 0
M  V30 899 C 85.0837 2.31489 -3.83558 0
M  V30 900 C 86.8277 3.48236 -2.42759 0
M  V30 901 C 84.7347 3.48903 -4.77515 0
M  V30 902 H 83.6647 0.56197 -0.502699 0
M  V30 903 H 86.3157 0.809727 -1.64668 0
M  V30 904 H 84.6977 3.41113 -2.01142 0
M  V30 905 H 85.8717 1.68354 -4.28945 0
M  V30 906 H 84.1867 1.66749 -3.81554 0
M  V30 907 H 86.7837 4.35558 -3.1015 0
M  V30 908 H 87.1267 3.90229 -1.45008 0
M  V30 909 H 87.6597 2.84535 -2.78002 0
M  V30 910 H 84.3987 3.11966 -5.76504 0
M  V30 911 H 83.9187 4.11041 -4.36813 0
M  V30 912 H 85.5977 4.15328 -4.96096 0
M  V30 913 N 85.7298 1.2412 0.971189 0
M  V30 914 C 86.9768 1.07881 1.71371 0
M  V30 915 C 87.3048 -0.382901 1.90694 0
M  V30 916 O 86.5598 -1.29945 1.46331 0
M  V30 917 C 86.8588 1.75983 3.11071 0
M  V30 918 C 86.5248 3.25909 3.11599 0
M  V30 919 C 85.1868 3.66813 3.11451 0
M  V30 920 C 87.5388 4.21771 3.062 0
M  V30 921 C 84.8668 5.02021 3.03631 0
M  V30 922 C 87.2188 5.56982 2.99923 0
M  V30 923 C 85.8828 5.97237 2.98102 0
M  V30 924 H 85.1528 0.394764 0.62709 0
M  V30 925 H 87.7998 1.54176 1.13587 0
M  V30 926 H 86.1048 1.22072 3.72298 0
M  V30 927 H 87.8018 1.60887 3.6731 0
M  V30 928 H 84.3918 2.93353 3.12477 0
M  V30 929 H 88.5758 3.91172 3.05447 0
M  V30 930 H 83.8318 5.32411 3.0058 0
M  V30 931 H 88.0058 6.30969 2.94704 0
M  V30 932 H 85.6328 7.01967 2.91798 0
M  V30 933 N 87.2079 -1.17134 1.05439 0
M  V30 934 C 88.4569 -1.86791 0.761049 0
M  V30 935 C 88.7699 -1.82072 -0.714795 0
M  V30 936 O 89.9759 -2.47223 -1.12218 0
M  V30 937 C 88.4319 -3.35166 1.31117 0
M  V30 938 C 88.0399 -3.48381 2.81664 0
M  V30 939 C 89.7839 -4.10134 1.09499 0
M  V30 940 C 87.6909 -4.90793 3.29964 0
M  V30 941 H 86.6209 -0.699681 0.281002 0
M  V30 942 H 89.2719 -1.3226 1.27199 0
M  V30 943 H 87.6539 -3.8925 0.72803 0
M  V30 944 H 88.8279 -3.04502 3.45855 0
M  V30 945 H 87.1429 -2.86836 3.01851 0
M  V30 946 H 89.7399 -5.152 1.43084 0
M  V30 947 H 90.0829 -4.16287 0.0328772 0
M  V30 948 H 90.6159 -3.62264 1.64346 0
M  V30 949 H 87.3549 -4.89816 4.35616 0
M  V30 950 H 86.8749 -5.35333 2.70516 0
M  V30 951 H 88.5539 -5.59573 3.24787 0
M  V30 952 N 88.686 -0.835752 -1.33615 0
M  V30 953 C 89.634 -0.255238 -2.31195 0
M  V30 954 C 90.628 0.61107 -1.57995 0
M  V30 955 O 91.834 0.500979 -1.72888 0
M  V30 956 H 88.209 -0.0638085 -0.749288 0
M  V30 957 H 90.18 -1.09283 -2.77669 0
M  V30 958 C 88.929 0.55754 -3.43201 0
M  V30 959 H 88.252 -0.0997553 -3.99676 0
M  V30 960 H 89.692 0.929622 -4.13683 0
M  V30 961 C 88.151 1.73515 -2.88781 0
M  V30 962 O 88.681 2.83376 -2.84712 0
M  V30 963 N 86.887 1.55603 -2.4543 0
M  V30 964 H 86.434 0.662354 -2.48939 0
M  V30 965 H 86.392 2.34545 -2.09371 0
M  V30 966 N 90.1641 1.46063 -0.591896 0
M  V30 967 C 91.1271 2.28854 0.125973 0
M  V30 968 C 92.1271 1.38903 0.810107 0
M  V30 969 O 93.3171 1.61186 0.66066 0
M  V30 970 C 90.4491 3.19526 1.1881 0
M  V30 971 H 91.6421 2.93802 -0.601717 0
M  V30 972 H 89.1951 1.52325 -0.350254 0
M  V30 973 H 89.9301 2.59345 1.94707 0
M  V30 974 H 89.7151 3.85766 0.701936 0
M  V30 975 H 91.2051 3.81817 1.69132 0
M  V30 976 N 91.6422 0.330177 1.54103 0
M  V30 977 C 92.5752 -0.575477 2.20825 0
M  V30 978 C 93.5532 -1.11064 1.18758 0
M  V30 979 O 94.7372 -1.17341 1.47524 0
M  V30 980 C 91.8642 -1.79032 2.87516 0
M  V30 981 C 90.9102 -1.38581 4.03358 0
M  V30 982 S 91.7432 -0.416911 5.33875 0
M  V30 983 C 92.8992 -1.63889 6.04062 0
M  V30 984 H 93.1322 -0.00872114 2.97299 0
M  V30 985 H 90.6652 0.114254 1.53977 0
M  V30 986 H 92.6232 -2.48734 3.2656 0
M  V30 987 H 91.2842 -2.32827 2.10832 0
M  V30 988 H 90.4772 -2.29123 4.48908 0
M  V30 989 H 90.0792 -0.768419 3.66021 0
M  V30 990 H 92.3712 -2.57536 6.26643 0
M  V30 991 H 93.3142 -1.22542 6.97416 0
M  V30 992 H 93.7222 -1.82887 5.34053 0
M  V30 993 N 93.1203 -1.57491 0.0584922 0
M  V30 994 C 94.3483 -1.97296 -0.623037 0
M  V30 995 C 94.7633 -0.936338 -1.63946 0
M  V30 996 O 94.1203 0.0785981 -1.82331 0
M  V30 997 C 94.1713 -3.37183 -1.30345 0
M  V30 998 O 93.8923 -4.36872 -0.32773 0
M  V30 999 C 95.3933 -3.91788 -2.07406 0
M  V30 1000 H 92.6133 -0.649153 -0.169826 0
M  V30 1001 H 95.1573 -2.04106 0.12696 0
M  V30 1002 H 93.3123 -3.31502 -2.00463 0
M  V30 1003 H 93.7263 -5.18141 -0.814269 0
M  V30 1004 H 95.2003 -4.91926 -2.50425 0
M  V30 1005 H 95.6773 -3.27609 -2.92521 0
M  V30 1006 H 96.2833 -4.00829 -1.42184 0
M  V30 1007 N 94.5984 0.214957 -1.56127 0
M  V30 1008 C 95.8464 0.936518 -1.79091 0
M  V30 1009 C 96.1674 1.84606 -0.628148 0
M  V30 1010 O 95.4374 1.92664 0.35462 0
M  V30 1011 H 94.0174 0.3488 -0.660566 0
M  V30 1012 H 96.6794 0.22523 -1.93594 0
M  V30 1013 H 95.7754 1.53943 -2.71492 0
M  V30 1014 N 96.0765 1.50051 0.48192 0
M  V30 1015 C 97.3245 1.60181 1.23234 0
M  V30 1016 C 97.6455 0.299176 1.92691 0
M  V30 1017 O 96.9155 -0.682708 1.83619 0
M  V30 1018 H 95.4955 0.590232 0.457859 0
M  V30 1019 H 98.1575 1.86775 0.556881 0
M  V30 1020 H 97.2535 2.40753 1.98607 0
M  V30 1021 N 97.5546 -0.734337 1.39446 0
M  V30 1022 C 98.8026 -1.49096 1.36436 0
M  V30 1023 C 99.1236 -1.94961 -0.0388255 0
M  V30 1024 O 98.3936 -1.69033 -0.990191 0
M  V30 1025 H 96.9736 -0.5531 0.502085 0
M  V30 1026 H 99.6356 -0.871725 1.74319 0
M  V30 1027 H 98.7316 -2.37276 2.02747 0
M  V30 1028 N 99.0327 -1.24633 -0.964593 0
M  V30 1029 C 100.281 -1.08573 -1.70459 0
M  V30 1030 C 100.602 0.375655 -1.91347 0
M  V30 1031 O 99.8717 1.26779 -1.49345 0
M  V30 1032 H 98.4517 -0.398784 -0.631649 0
M  V30 1033 H 101.114 -1.56601 -1.16026 0
M  V30 1034 H 100.21 -1.58623 -2.68785 0
M  V30 1035 N 100.511 1.16574 -1.06058 0
M  V30 1036 C 101.458 2.20883 -0.669263 0
M  V30 1037 C 102.428 1.62729 0.332918 0
M  V30 1038 O 103.613 1.895 0.222346 0
M  V30 1039 C 100.753 3.45049 -0.0593572 0
M  V30 1040 C 99.8658 4.17458 -1.11143 0
M  V30 1041 C 99.0008 5.29135 -0.467916 0
M  V30 1042 C 98.0398 5.93343 -1.50369 0
M  V30 1043 N 97.1768 6.96516 -0.883706 0
M  V30 1044 H 102.017 2.53709 -1.5632 0
M  V30 1045 H 99.5538 1.24616 -0.781625 0
M  V30 1046 H 101.512 4.16033 0.311771 0
M  V30 1047 H 100.142 3.12781 0.797992 0
M  V30 1048 H 99.1938 3.45101 -1.60029 0
M  V30 1049 H 100.506 4.61307 -1.89731 0
M  V30 1050 H 99.6598 6.06684 -0.0436871 0
M  V30 1051 H 98.3988 4.86443 0.349864 0
M  V30 1052 H 97.4038 5.14517 -1.93784 0
M  V30 1053 H 98.6288 6.38114 -2.32352 0
M  V30 1054 H 96.5748 6.55943 -0.086595 0
M  V30 1055 H 96.4918 7.38723 -1.607 0
M  V30 1056 H 97.7598 7.77993 -0.484543 0
M  V30 1057 N 101.989 0.842826 1.3317 0
M  V30 1058 C 102.919 0.294028 2.31641 0
M  V30 1059 C 103.9 -0.600401 1.59151 0
M  V30 1060 O 105.085 -0.523124 1.87022 0
M  V30 1061 C 102.215 -0.528416 3.43257 0
M  V30 1062 C 101.169 0.27056 4.27144 0
M  V30 1063 C 100.495 -0.675881 5.30411 0
M  V30 1064 C 101.795 1.48981 5.00602 0
M  V30 1065 H 103.489 1.11681 2.77791 0
M  V30 1066 H 101.035 0.538478 1.33553 0
M  V30 1067 H 102.988 -0.922674 4.11175 0
M  V30 1068 H 101.712 -1.38445 2.95805 0
M  V30 1069 H 100.371 0.646427 3.60856 0
M  V30 1070 H 100.019 -1.52842 4.79216 0
M  V30 1071 H 99.7189 -0.145374 5.8742 0
M  V30 1072 H 101.243 -1.06757 6.01195 0
M  V30 1073 H 102.657 1.16849 5.61266 0
M  V30 1074 H 101.054 1.95739 5.6728 0
M  V30 1075 H 102.124 2.25746 4.29147 0
M  V30 1076 N 103.467 -1.45747 0.599634 0
M  V30 1077 C 104.695 -2.06668 0.0978551 0
M  V30 1078 C 105.11 -1.44562 -1.21439 0
M  V30 1079 O 104.467 -0.556923 -1.73795 0
M  V30 1080 C 104.518 -3.61456 -0.0567044 0
M  V30 1081 O 104.239 -4.21242 1.20361 0
M  V30 1082 C 105.74 -4.39345 -0.590869 0
M  V30 1083 H 102.96 -0.667825 0.0651943 0
M  V30 1084 H 105.504 -1.87115 0.82511 0
M  V30 1085 H 103.659 -3.80378 -0.734251 0
M  V30 1086 H 104.073 -5.14323 1.02821 0
M  V30 1087 H 105.547 -5.48182 -0.648131 0
M  V30 1088 H 106.024 -4.08568 -1.61147 0
M  V30 1089 H 106.63 -4.25268 0.0523679 0
M  V30 1090 N 104.945 -0.338344 -1.53925 0
M  V30 1091 C 106.175 0.260919 -2.04946 0
M  V30 1092 C 106.583 1.45174 -1.2133 0
M  V30 1093 O 105.926 1.82122 -0.240262 0
M  V30 1094 C 105.988 0.744596 -3.51704 0
M  V30 1095 C 105.652 -0.325883 -4.55837 0
M  V30 1096 C 106.649 -1.16687 -5.06636 0
M  V30 1097 C 104.334 -0.478317 -5.00017 0
M  V30 1098 C 106.328 -2.14588 -6.00192 0
M  V30 1099 C 104.015 -1.46073 -5.93385 0
M  V30 1100 C 105.013 -2.29297 -6.4336 0
M  V30 1101 O 104.701 -3.25867 -7.34892 0
M  V30 1102 H 104.433 0.0551207 -0.673749 0
M  V30 1103 H 106.987 -0.486984 -1.99544 0
M  V30 1104 H 105.217 1.54366 -3.54553 0
M  V30 1105 H 106.906 1.26383 -3.85723 0
M  V30 1106 H 107.672 -1.06016 -4.73271 0
M  V30 1107 H 103.551 0.159613 -4.60724 0
M  V30 1108 H 107.095 -2.79585 -6.39123 0
M  V30 1109 H 102.992 -1.56802 -6.26166 0
M  V30 1110 H 103.76 -3.21278 -7.5281 0
M  V30 1111 N 106.423 1.57458 -0.0668435 0
M  V30 1112 C 107.333 2.15937 0.916975 0
M  V30 1113 C 108.349 1.12123 1.33058 0
M  V30 1114 O 109.525 1.44366 1.40429 0
M  V30 1115 C 106.59 2.70547 2.16807 0
M  V30 1116 C 105.651 3.89215 1.81135 0
M  V30 1117 C 104.884 4.41211 3.0028 0
M  V30 1118 O 105.107 3.92225 4.14144 0
M  V30 1119 O 104.041 5.32605 2.80384 0
M  V30 1120 H 107.867 3.00354 0.449561 0
M  V30 1121 H 105.452 1.48584 0.155949 0
M  V30 1122 H 107.334 3.0557 2.90181 0
M  V30 1123 H 106.009 1.89192 2.62656 0
M  V30 1124 H 104.916 3.59054 1.05028 0
M  V30 1125 H 106.249 4.71848 1.40073 0
M  V30 1126 N 107.901 -0.206675 1.56239 0
M  V30 1127 C 109.15 -0.926964 1.79138 0
M  V30 1128 C 109.463 -1.84901 0.638043 0
M  V30 1129 O 110.669 -2.60906 0.751033 0
M  V30 1130 C 109.125 -1.6986 3.17294 0
M  V30 1131 C 108.733 -0.821956 4.40395 0
M  V30 1132 C 110.477 -2.40922 3.4951 0
M  V30 1133 C 108.384 -1.59179 5.69575 0
M  V30 1134 H 107.314 -0.349864 0.667915 0
M  V30 1135 H 109.965 -0.180487 1.8261 0
M  V30 1136 H 108.347 -2.48853 3.08039 0
M  V30 1137 H 109.521 -0.0715019 4.60745 0
M  V30 1138 H 107.836 -0.222741 4.15804 0
M  V30 1139 H 110.433 -2.99047 4.43255 0
M  V30 1140 H 110.776 -3.14542 2.72707 0
M  V30 1141 H 111.309 -1.68905 3.60161 0
M  V30 1142 H 108.048 -0.898589 6.49312 0
M  V30 1143 H 107.568 -2.31648 5.53262 0
M  V30 1144 H 109.247 -2.14862 6.10281 0
M  V30 1145 N 109.379 -1.50304 -0.473955 0
M  V30 1146 C 110.327 -1.69482 -1.59307 0
M  V30 1147 C 111.321 -0.560669 -1.59853 0
M  V30 1148 O 112.527 -0.741087 -1.64036 0
M  V30 1149 H 108.902 -0.534892 -0.528578 0
M  V30 1150 H 110.873 -2.63364 -1.40293 0
M  V30 1151 C 109.622 -1.80354 -2.97267 0
M  V30 1152 H 108.945 -2.67012 -2.97564 0
M  V30 1153 H 110.385 -1.97798 -3.75036 0
M  V30 1154 C 108.844 -0.55448 -3.32306 0
M  V30 1155 O 109.374 0.307661 -4.0052 0
M  V30 1156 N 107.58 -0.409354 -2.87702 0
M  V30 1157 H 107.127 -1.11196 -2.32364 0
M  V30 1158 H 107.085 0.425223 -3.11511 0
M  V30 1159 N 110.857 0.726932 -1.39834 0
M  V30 1160 C 111.804 1.841 -1.39197 0
M  V30 1161 C 112.774 1.642 -0.250502 0
M  V30 1162 O 113.959 1.85494 -0.446846 0
M  V30 1163 C 111.099 3.21697 -1.24919 0
M  V30 1164 C 110.212 3.53247 -2.48678 0
M  V30 1165 C 109.347 4.80289 -2.26928 0
M  V30 1166 C 108.386 5.04707 -3.4632 0
M  V30 1167 N 107.523 6.22956 -3.23836 0
M  V30 1168 H 112.363 1.83979 -2.34427 0
M  V30 1169 H 109.9 0.898876 -1.16442 0
M  V30 1170 H 111.858 4.01137 -1.1465 0
M  V30 1171 H 110.488 3.21076 -0.333153 0
M  V30 1172 H 109.54 2.68447 -2.69519 0
M  V30 1173 H 110.852 3.67205 -3.37582 0
M  V30 1174 H 110.006 5.67725 -2.13947 0
M  V30 1175 H 108.745 4.68519 -1.35431 0
M  V30 1176 H 107.75 4.1573 -3.5979 0
M  V30 1177 H 108.975 5.18357 -4.38729 0
M  V30 1178 H 106.921 6.12459 -2.35011 0
M  V30 1179 H 106.838 6.37539 -4.063 0
M  V30 1180 H 108.106 7.1321 -3.14566 0
M  V30 1181 N 112.336 1.25143 0.95797 0
M  V30 1182 C 113.561 1.12521 1.74223 0
M  V30 1183 C 113.986 -0.317402 1.85403 0
M  V30 1184 O 113.344 -1.2299 1.33204 0
M  V30 1185 C 113.392 1.78062 3.1357 0
M  V30 1186 O 112.496 1.058 3.98598 0
M  V30 1187 H 111.837 0.39304 0.535178 0
M  V30 1188 H 114.367 1.65641 1.201 0
M  V30 1189 H 114.377 1.84213 3.64046 0
M  V30 1190 H 113.052 2.83021 3.04749 0
M  V30 1191 H 111.629 1.07506 3.57067 0
M  V30 1192 N 113.814 -1.1601 1.06675 0
M  V30 1193 C 114.744 -2.22688 0.702307 0
M  V30 1194 C 115.725 -1.67306 -0.307032 0
M  V30 1195 O 116.91 -1.93352 -0.181305 0
M  V30 1196 C 114.04 -3.47178 0.092038 0
M  V30 1197 C 112.994 -4.15477 1.02777 0
M  V30 1198 C 112.32 -5.33963 0.28061 0
M  V30 1199 C 113.62 -4.66019 2.35846 0
M  V30 1200 H 115.314 -2.53429 1.59419 0
M  V30 1201 H 112.86 -1.21813 0.767961 0
M  V30 1202 H 114.813 -4.21037 -0.174814 0
M  V30 1203 H 113.537 -3.15749 -0.834877 0
M  V30 1204 H 112.196 -3.43549 1.27944 0
M  V30 1205 H 111.844 -4.98788 -0.649545 0
M  V30 1206 H 111.544 -5.806 0.904258 0
M  V30 1207 H 113.068 -6.10596 0.021396 0
M  V30 1208 H 114.482 -5.3144 2.15045 0
M  V30 1209 H 112.879 -5.23293 2.93743 0
M  V30 1210 H 113.949 -3.82023 2.98641 0
M  V30 1211 N 115.292 -0.849877 -1.32721 0
M  V30 1212 C 116.255 -0.296122 -2.27279 0
M  V30 1213 C 117.255 0.541458 -1.5141 0
M  V30 1214 O 118.445 0.353658 -1.70572 0
M  V30 1215 C 115.577 0.581579 -3.35902 0
M  V30 1216 H 116.77 -1.13064 -2.77771 0
M  V30 1217 H 114.323 -0.62383 -1.43311 0
M  V30 1218 H 115.058 1.43809 -2.9067 0
M  V30 1219 H 114.843 -0.0178814 -3.92096 0
M  V30 1220 H 116.333 0.961951 -4.0637 0
M  V30 1221 N 116.77 1.45427 -0.607355 0
M  V30 1222 C 118.186 1.57283 -0.270985 0
M  V30 1223 C 118.386 1.59875 1.22647 0
M  V30 1224 O 117.442 1.52893 2.00948 0
M  V30 1225 C 118.755 2.85566 -0.941952 0
M  V30 1226 C 120.303 2.9924 -0.917849 0
M  V30 1227 C 120.778 4.30293 -1.56882 0
M  V30 1228 N 122.269 4.37051 -1.5343 0
M  V30 1229 C 123.004 5.37123 -2.00715 0
M  V30 1230 N 122.5 6.43734 -2.56084 0
M  V30 1231 N 124.293 5.28479 -1.91484 0
M  V30 1232 H 116.444 1.41988 -1.57966 0
M  V30 1233 H 118.707 0.67885 -0.661715 0
M  V30 1234 H 118.413 2.8955 -1.99633 0
M  V30 1235 H 118.287 3.74322 -0.465096 0
M  V30 1236 H 120.674 2.94822 0.127984 0
M  V30 1237 H 120.755 2.11895 -1.43297 0
M  V30 1238 H 120.399 4.35469 -2.61398 0
M  V30 1239 H 120.329 5.16454 -1.02873 0
M  V30 1240 H 122.82 3.60615 -1.12982 0
M  V30 1241 H 123.133 7.16341 -2.89958 0
M  V30 1242 H 121.478 6.44485 -2.60122 0
M  V30 1243 H 124.669 4.44098 -1.47967 0
M  V30 1244 H 124.842 6.0632 -2.28648 0
M  V30 1245 N 118.248 0.346503 1.53744 0
M  V30 1246 C 119.211 -0.496439 2.23759 0
M  V30 1247 C 120.211 -1.0252 1.2388 0
M  V30 1248 O 121.401 -0.913974 1.48297 0
M  V30 1249 C 118.533 -1.69187 2.95954 0
M  V30 1250 H 119.726 0.115952 2.99676 0
M  V30 1251 H 117.279 0.0978939 1.55993 0
M  V30 1252 H 118.014 -2.34288 2.24231 0
M  V30 1253 H 117.799 -1.31989 3.69217 0
M  V30 1254 H 119.289 -2.28969 3.49232 0
M  V30 1255 N 119.726 -1.57421 0.075193 0
M  V30 1256 C 120.689 -2.11791 -0.876203 0
M  V30 1257 C 121.689 -1.04268 -1.22412 0
M  V30 1258 O 122.879 -1.30242 -1.15684 0
M  V30 1259 C 120.011 -2.62207 -2.17854 0
M  V30 1260 H 121.204 -2.9716 -0.40444 0
M  V30 1261 H 118.757 -1.55333 -0.173557 0
M  V30 1262 H 119.492 -1.803 -2.6956 0
M  V30 1263 H 119.277 -3.40802 -1.93897 0
M  V30 1264 H 120.767 -3.04335 -2.85955 0
M  V30 1265 N 121.204 0.198386 -1.56346 0
M  V30 1266 C 122.429 0.939682 -1.84891 0
M  V30 1267 C 122.854 1.76202 -0.658369 0
M  V30 1268 O 122.212 1.76993 0.392851 0
M  V30 1269 C 122.26 1.81428 -3.11635 0
M  V30 1270 O 121.364 2.91265 -2.91956 0
M  V30 1271 H 120.705 0.264807 -0.608912 0
M  V30 1272 H 123.235 0.204695 -2.03573 0
M  V30 1273 H 123.245 2.21958 -3.42343 0
M  V30 1274 H 121.92 1.21004 -3.97908 0
M  V30 1275 H 120.497 2.54514 -2.72538 0
M  V30 1276 N 122.682 1.50554 0.465978 0
M  V30 1277 C 123.614 1.65949 1.58093 0
M  V30 1278 C 124.627 0.540827 1.53554 0
M  V30 1279 O 125.816 0.814187 1.5885 0
M  V30 1280 C 122.916 1.63261 2.96983 0
M  V30 1281 C 122.089 2.91245 3.26336 0
M  V30 1282 C 121.148 2.8113 4.44806 0
M  V30 1283 O 120.174 3.55086 4.44862 0
M  V30 1284 N 121.376 1.95032 5.46756 0
M  V30 1285 H 124.141 2.62122 1.45301 0
M  V30 1286 H 121.702 1.48082 0.65448 0
M  V30 1287 H 123.694 1.54101 3.74212 0
M  V30 1288 H 122.264 0.748032 3.03518 0
M  V30 1289 H 121.484 3.14493 2.37672 0
M  V30 1290 H 122.772 3.76022 3.42761 0
M  V30 1291 H 122.17 1.3427 5.49534 0
M  V30 1292 H 120.727 1.91772 6.2295 0
M  V30 1293 N 124.16 -0.719506 1.40217 0
M  V30 1294 C 125.123 -1.8153 1.39927 0
M  V30 1295 C 126.123 -1.58095 0.293723 0
M  V30 1296 O 127.313 -1.65209 0.552429 0
M  V30 1297 C 124.445 -3.19561 1.18716 0
M  V30 1298 H 125.638 -1.83186 2.37451 0
M  V30 1299 H 123.191 -0.924746 1.26008 0
M  V30 1300 H 123.926 -3.23557 0.219366 0
M  V30 1301 H 123.711 -3.3797 1.98793 0
M  V30 1302 H 125.201 -3.99598 1.21291 0
M  V30 1303 N 125.638 -1.25649 -0.95132 0
M  V30 1304 C 126.886 -1.10375 -1.69298 0
M  V30 1305 C 127.207 0.355339 -1.91735 0
M  V30 1306 O 126.477 1.25188 -1.50681 0
M  V30 1307 H 125.057 -0.405461 -0.627384 0
M  V30 1308 H 127.719 -1.57823 -1.14358 0
M  V30 1309 H 126.815 -1.61465 -2.67087 0
M  V30 1310 N 127.117 1.15442 -1.07289 0
M  V30 1311 C 128.366 1.85557 -0.790669 0
M  V30 1312 C 128.679 1.83186 0.685739 0
M  V30 1313 O 129.885 2.48977 1.0827 0
M  V30 1314 C 128.341 3.33038 -1.36433 0
M  V30 1315 C 127.949 3.43856 -2.8717 0
M  V30 1316 C 129.693 4.0834 -1.1601 0
M  V30 1317 C 127.6 4.85482 -3.3773 0
M  V30 1318 H 126.53 0.695122 -0.292098 0
M  V30 1319 H 129.181 1.30219 -1.29287 0
M  V30 1320 H 127.563 3.88043 -0.789864 0
M  V30 1321 H 128.737 2.98961 -3.50655 0
M  V30 1322 H 127.052 2.81998 -3.06376 0
M  V30 1323 H 129.649 5.12859 -1.51262 0
M  V30 1324 H 129.992 4.16182 -0.0991007 0
M  V30 1325 H 130.525 3.59603 -1.70089 0
M  V30 1326 H 127.264 4.82823 -4.43353 0
M  V30 1327 H 126.784 5.30961 -2.78999 0
M  V30 1328 H 128.463 5.54335 -3.33648 0
M  V30 1329 N 128.595 0.856903 1.32268 0
M  V30 1330 C 130.006 0.515711 1.79436 0
M  V30 1331 C 130.357 -0.966586 1.70738 0
M  V30 1332 O 129.482 -1.75409 1.26731 0
M  V30 1333 C 130.077 0.929335 3.25805 0
M  V30 1334 C 128.636 0.640006 3.70919 0
M  V30 1335 C 127.783 1.12784 2.53328 0
M  V30 1336 H 130.734 1.04389 1.19535 0
M  V30 1337 H 130.755 0.246633 3.797 0
M  V30 1338 H 130.267 2.00821 3.32103 0
M  V30 1339 H 128.368 -0.428051 3.70133 0
M  V30 1340 H 128.481 1.20788 4.63624 0
M  V30 1341 H 126.845 0.548033 2.48734 0
M  V30 1342 H 127.628 2.21387 2.62379 0
M  V30 1343 N 130.073 -1.45103 0.615059 0
M  V30 1344 C 131.003 -2.33339 -0.0865619 0
M  V30 1345 C 131.984 -1.4727 -0.851209 0
M  V30 1346 O 133.169 -1.76026 -0.820281 0
M  V30 1347 C 130.299 -3.30095 -1.07956 0
M  V30 1348 C 129.253 -4.25858 -0.427628 0
M  V30 1349 C 128.579 -5.12361 -1.5294 0
M  V30 1350 C 129.879 -5.18165 0.655944 0
M  V30 1351 H 131.573 -2.92254 0.650224 0
M  V30 1352 H 129.119 -1.40532 0.314138 0
M  V30 1353 H 131.072 -3.90698 -1.57901 0
M  V30 1354 H 129.796 -2.69355 -1.84703 0
M  V30 1355 H 128.455 -3.66564 0.0510292 0
M  V30 1356 H 128.103 -4.47984 -2.28734 0
M  V30 1357 H 127.803 -5.77238 -1.09865 0
M  V30 1358 H 129.327 -5.75833 -2.03098 0
M  V30 1359 H 130.741 -5.72796 0.240257 0
M  V30 1360 H 129.138 -5.91559 1.00888 0
M  V30 1361 H 130.208 -4.60144 1.52957 0
M  V30 1362 N 131.551 -0.354651 -1.53558 0
M  V30 1363 C 132.514 0.484566 -2.24019 0
M  V30 1364 C 133.514 1.01861 -1.24422 0
M  V30 1365 O 134.704 0.906097 -1.4878 0
M  V30 1366 C 131.836 1.67615 -2.96847 0
M  V30 1367 H 133.029 -0.131843 -2.9961 0
M  V30 1368 H 130.582 -0.106165 -1.55939 0
M  V30 1369 H 131.317 2.33095 -2.25471 0
M  V30 1370 H 131.102 1.30029 -3.69912 0
M  V30 1371 H 132.592 2.27114 -3.50441 0
M  V30 1372 N 133.029 1.57378 -0.0835403 0
M  V30 1373 C 134.275 1.94217 0.583733 0
M  V30 1374 C 134.608 0.964653 1.68547 0
M  V30 1375 O 133.883 -0.00422258 1.945 0
M  V30 1376 C 134.166 3.41253 1.14972 0
M  V30 1377 C 134.019 4.49768 0.0538277 0
M  V30 1378 C 135.338 3.89352 2.05166 0
M  V30 1379 H 132.457 0.706233 0.210724 0
M  V30 1380 H 135.099 1.89392 -0.1519 0
M  V30 1381 H 133.249 3.45496 1.77665 0
M  V30 1382 H 134.921 4.57641 -0.579851 0
M  V30 1383 H 133.164 4.29432 -0.614068 0
M  V30 1384 H 133.835 5.49817 0.490452 0
M  V30 1385 H 136.311 3.87189 1.52393 0
M  V30 1386 H 135.187 4.92822 2.41698 0
M  V30 1387 H 135.448 3.27973 2.96456 0
M  V30 1388 N 134.507 -0.190092 1.56449 0
M  V30 1389 C 135.755 -0.907908 1.80559 0
M  V30 1390 C 136.076 -1.83583 0.657438 0
M  V30 1391 O 135.346 -1.93203 -0.323924 0
M  V30 1392 H 133.926 -0.338247 0.666032 0
M  V30 1393 H 136.588 -0.194403 1.93928 0
M  V30 1394 H 135.684 -1.49604 2.73907 0
M  V30 1395 N 135.985 -1.50799 -0.457987 0
M  V30 1396 C 137.21 -1.66496 -1.23668 0
M  V30 1397 C 137.635 -0.353288 -1.84752 0
M  V30 1398 O 136.993 0.684346 -1.67888 0
M  V30 1399 C 137.041 -2.76763 -2.3116 0
M  V30 1400 O 136.145 -2.38928 -3.36136 0
M  V30 1401 H 135.486 -0.555828 -0.363252 0
M  V30 1402 H 138.016 -1.9725 -0.543474 0
M  V30 1403 H 138.026 -3.00232 -2.76269 0
M  V30 1404 H 136.701 -3.71954 -1.86073 0
M  V30 1405 H 135.278 -2.25953 -2.96647 0
M  V30 1406 N 137.463 0.71206 -1.40597 0
M  V30 1407 C 138.395 1.83704 -1.37061 0
M  V30 1408 C 139.408 1.60453 -0.275426 0
M  V30 1409 O 140.597 1.70262 -0.53602 0
M  V30 1410 C 137.697 3.20172 -1.11099 0
M  V30 1411 C 136.87 3.7059 -2.3234 0
M  V30 1412 C 135.929 4.85681 -2.02485 0
M  V30 1413 O 134.955 4.9815 -2.75382 0
M  V30 1414 N 136.157 5.71735 -1.00497 0
M  V30 1415 H 138.922 1.87235 -2.34016 0
M  V30 1416 H 136.483 0.893739 -1.34996 0
M  V30 1417 H 138.475 3.94768 -0.891064 0
M  V30 1418 H 137.045 3.11767 -0.227989 0
M  V30 1419 H 136.265 2.87085 -2.7014 0
M  V30 1420 H 137.553 4.01011 -3.13157 0
M  V30 1421 H 136.951 5.64275 -0.401298 0
M  V30 1422 H 135.508 6.463 -0.844942 0
M  V30 1423 N 138.941 1.26152 0.944643 0
M  V30 1424 C 139.874 1.01729 2.04271 0
M  V30 1425 C 140.852 -0.0568101 1.62501 0
M  V30 1426 O 142.036 0.0848987 1.88309 0
M  V30 1427 C 139.163 0.539792 3.34371 0
M  V30 1428 C 138.209 1.60593 3.9511 0
M  V30 1429 S 139.042 3.19392 4.29825 0
M  V30 1430 C 140.198 2.73402 5.63029 0
M  V30 1431 H 140.431 1.94703 2.24673 0
M  V30 1432 H 137.964 1.09793 1.08558 0
M  V30 1433 H 139.922 0.270956 4.09605 0
M  V30 1434 H 138.583 -0.369609 3.11918 0
M  V30 1435 H 137.776 1.22275 4.88943 0
M  V30 1436 H 137.378 1.82596 3.26397 0
M  V30 1437 H 139.67 2.1765 6.41588 0
M  V30 1438 H 140.613 3.65913 6.06229 0
M  V30 1439 H 141.021 2.13077 5.22741 0
M  V30 1440 N 140.419 -1.14872 1.07899 0
M  V30 1441 C 141.644 -1.90202 0.826926 0
M  V30 1442 C 142.069 -1.77774 -0.614664 0
M  V30 1443 O 141.427 -1.11431 -1.43013 0
M  V30 1444 C 141.475 -3.38352 1.24702 0
M  V30 1445 O 140.579 -4.10497 0.39575 0
M  V30 1446 H 139.92 -0.591968 0.300782 0
M  V30 1447 H 142.45 -1.45437 1.43907 0
M  V30 1448 H 142.46 -3.89156 1.22563 0
M  V30 1449 H 141.135 -3.46715 2.29698 0
M  V30 1450 H 139.712 -3.69796 0.480117 0
M  V30 1451 N 141.898 -0.863906 -1.31812 0
M  V30 1452 C 142.861 -0.320212 -2.26952 0
M  V30 1453 C 143.861 0.525369 -1.51975 0
M  V30 1454 O 145.051 0.335547 -1.70938 0
M  V30 1455 C 142.183 0.545919 -3.365 0
M  V30 1456 H 143.376 -1.16004 -2.76556 0
M  V30 1457 H 140.929 -0.638995 -1.42641 0
M  V30 1458 H 141.664 1.40718 -2.92179 0
M  V30 1459 H 141.449 -0.0594674 -3.92055 0
M  V30 1460 H 142.939 0.918796 -4.07367 0
M  V30 1461 N 143.376 1.44774 -0.622745 0
M  V30 1462 C 144.306 2.33382 0.0741861 0
M  V30 1463 C 145.287 1.47719 0.843387 0
M  V30 1464 O 146.472 1.76458 0.810934 0
M  V30 1465 C 143.602 3.30663 1.06204 0
M  V30 1466 C 142.556 4.26079 0.405037 0
M  V30 1467 C 141.882 5.13165 1.5022 0
M  V30 1468 C 143.182 5.1781 -0.683414 0
M  V30 1469 H 144.876 2.91905 -0.665713 0
M  V30 1470 H 142.422 1.40363 -0.321587 0
M  V30 1471 H 144.375 3.9153 1.55827 0
M  V30 1472 H 143.099 2.70331 1.83272 0
M  V30 1473 H 141.758 3.66532 -0.0704683 0
M  V30 1474 H 141.406 4.49191 2.26355 0
M  V30 1475 H 141.106 5.77812 1.06803 0
M  V30 1476 H 142.63 5.76902 2.00041 0
M  V30 1477 H 144.044 5.72661 -0.270631 0
M  V30 1478 H 142.441 5.91015 -1.04023 0
M  V30 1479 H 143.511 4.59326 -1.55395 0
M  V30 1480 N 144.854 0.36279 1.53368 0
M  V30 1481 C 145.801 -0.485008 2.25646 0
M  V30 1482 C 146.771 -1.07982 1.2621 0
M  V30 1483 O 147.956 -1.11284 1.54986 0
M  V30 1484 C 145.096 -1.62023 3.04701 0
M  V30 1485 C 144.209 -1.05086 4.19024 0
M  V30 1486 C 143.344 -2.15496 4.85525 0
M  V30 1487 C 142.383 -1.5601 5.91884 0
M  V30 1488 N 141.52 -2.60241 6.52088 0
M  V30 1489 H 146.36 0.137864 2.97681 0
M  V30 1490 H 143.897 0.0798061 1.46883 0
M  V30 1491 H 145.855 -2.28887 3.48807 0
M  V30 1492 H 144.485 -2.2138 2.34927 0
M  V30 1493 H 143.537 -0.27259 3.79422 0
M  V30 1494 H 144.849 -0.575926 4.95464 0
M  V30 1495 H 144.003 -2.90186 5.32801 0
M  V30 1496 H 142.742 -2.66341 4.08551 0
M  V30 1497 H 141.747 -0.798338 5.43973 0
M  V30 1498 H 142.972 -1.05994 6.70777 0
M  V30 1499 H 140.918 -3.10304 5.77968 0
M  V30 1500 H 140.835 -2.17426 7.24059 0
M  V30 1501 H 142.103 -3.34641 7.04014 0
M  V30 1502 N 146.332 -1.57332 0.0918853 0
M  V30 1503 C 147.609 -1.85691 -0.614668 0
M  V30 1504 C 147.989 -0.988146 -1.86545 0
M  V30 1505 O 147.337 -0.0597055 -2.28422 0
M  V30 1506 C 147.547 -3.36294 -0.933126 0
M  V30 1507 C 148.895 -4.04275 -1.29796 0
M  V30 1508 O 149.919 -3.41157 -1.02424 0
M  V30 1509 O 148.778 -5.1564 -1.81047 0
M  V30 1510 H 145.872 -0.767802 -0.307261 0
M  V30 1511 H 148.418 -1.69244 0.12434 0
M  V30 1512 H 147.19 -3.91273 -0.0456404 0
M  V30 1513 H 146.813 -3.58076 -1.72822 0
M  V30 1514 N 147.81 0.181792 -1.56548 0
M  V30 1515 C 149.221 0.745244 -1.71181 0
M  V30 1516 C 149.572 1.83262 -0.70068 0
M  V30 1517 O 148.697 2.15946 0.140154 0
M  V30 1518 C 149.292 1.35859 -3.10367 0
M  V30 1519 C 147.851 1.86898 -3.2672 0
M  V30 1520 C 146.998 0.743942 -2.67134 0
M  V30 1521 H 149.949 -0.0434661 -1.5864 0
M  V30 1522 H 149.97 2.22817 -3.08436 0
M  V30 1523 H 149.482 0.566948 -3.83937 0
M  V30 1524 H 147.583 2.68738 -2.5809 0
M  V30 1525 H 147.696 2.02162 -4.34359 0
M  V30 1526 H 146.06 1.16169 -2.26665 0
M  V30 1527 H 146.843 -0.035676 -3.43281 0
M  V30 1528 N 149.288 1.51039 0.449983 0
M  V30 1529 C 150.513 1.6715 1.22783 0
M  V30 1530 C 150.938 0.363081 1.84563 0
M  V30 1531 O 150.296 -0.675433 1.68249 0
M  V30 1532 C 150.344 2.77985 2.29689 0
M  V30 1533 O 149.448 2.40707 3.34864 0
M  V30 1534 H 148.789 0.557746 0.360299 0
M  V30 1535 H 151.319 1.97535 0.533005 0
M  V30 1536 H 151.329 3.01693 2.74673 0
M  V30 1537 H 150.004 3.72935 1.84098 0
M  V30 1538 H 148.581 2.27523 2.95445 0
M  V30 1539 N 150.766 -0.704594 1.40972 0
M  V30 1540 C 151.676 -1.84856 1.44448 0
M  V30 1541 C 152.692 -1.70726 0.335961 0
M  V30 1542 O 153.868 -1.92799 0.582276 0
M  V30 1543 C 150.933 -3.20758 1.31587 0
M  V30 1544 C 149.994 -3.47063 2.52677 0
M  V30 1545 C 149.227 -4.76481 2.4042 0
M  V30 1546 O 149.45 -5.52341 1.42391 0
M  V30 1547 O 148.384 -5.03367 3.30007 0
M  V30 1548 H 152.21 -1.8488 2.40942 0
M  V30 1549 H 149.795 -0.85647 1.22413 0
M  V30 1550 H 151.677 -4.01913 1.26665 0
M  V30 1551 H 150.352 -3.21438 0.382049 0
M  V30 1552 H 149.259 -2.65873 2.63177 0
M  V30 1553 H 150.592 -3.5119 3.44858 0
M  V30 1554 N 152.244 -1.26651 -0.937939 0
M  V30 1555 C 153.66 -1.03834 -1.21205 0
M  V30 1556 C 153.86 0.234502 -2.00131 0
M  V30 1557 O 152.916 0.942767 -2.3424 0
M  V30 1558 C 154.229 -2.27167 -1.97017 0
M  V30 1559 C 155.777 -2.32101 -2.09996 0
M  V30 1560 C 156.252 -3.55136 -2.8921 0
M  V30 1561 N 157.743 -3.55632 -2.96783 0
M  V30 1562 C 158.478 -4.475 -3.58512 0
M  V30 1563 N 157.974 -5.4966 -4.21717 0
M  V30 1564 N 159.767 -4.35145 -3.55816 0
M  V30 1565 H 151.918 -2.08398 -0.410391 0
M  V30 1566 H 154.181 -0.916031 -0.244114 0
M  V30 1567 H 153.887 -3.19765 -1.46434 0
M  V30 1568 H 153.761 -2.31672 -2.97671 0
M  V30 1569 H 156.148 -1.40015 -2.59769 0
M  V30 1570 H 156.229 -2.31605 -1.08594 0
M  V30 1571 H 155.873 -4.47553 -2.40123 0
M  V30 1572 H 155.803 -3.5288 -3.90875 0
M  V30 1573 H 158.294 -2.81743 -2.51852 0
M  V30 1574 H 158.607 -6.15943 -4.66727 0
M  V30 1575 H 156.952 -5.53514 -4.20294 0
M  V30 1576 H 160.143 -3.5455 -3.05634 0
M  V30 1577 H 160.316 -5.06934 -4.03636 0
M  V30 1578 N 153.722 1.14298 -1.08507 0
M  V30 1579 C 154.652 2.21542 -0.737646 0
M  V30 1580 C 155.633 1.67773 0.280377 0
M  V30 1581 O 156.818 1.93616 0.150521 0
M  V30 1582 C 153.948 3.46988 -0.147259 0
M  V30 1583 C 152.902 4.13789 -1.09374 0
M  V30 1584 C 152.228 5.33449 -0.365524 0
M  V30 1585 C 153.528 4.62208 -2.4323 0
M  V30 1586 H 155.222 2.5086 -1.6343 0
M  V30 1587 H 152.768 1.20576 -0.787243 0
M  V30 1588 H 154.721 4.21262 0.107808 0
M  V30 1589 H 153.445 3.17037 0.784538 0
M  V30 1590 H 152.104 3.4147 -1.33393 0
M  V30 1591 H 151.752 4.99759 0.57011 0
M  V30 1592 H 151.452 5.79088 -0.996512 0
M  V30 1593 H 152.976 6.10485 -0.118534 0
M  V30 1594 H 154.39 5.27952 -2.23472 0
M  V30 1595 H 152.787 5.18553 -3.02031 0
M  V30 1596 H 153.857 3.77224 -3.04681 0
M  V30 1597 N 155.201 0.870884 1.31352 0
M  V30 1598 C 156.426 0.495957 2.01383 0
M  V30 1599 C 156.851 -0.904324 1.64935 0
M  V30 1600 O 156.209 -1.59687 0.858466 0
M  V30 1601 C 156.257 0.661433 3.54482 0
M  V30 1602 O 155.361 -0.298851 4.11316 0
M  V30 1603 H 154.702 0.197158 0.634054 0
M  V30 1604 H 157.232 1.17455 1.67527 0
M  V30 1605 H 157.242 0.555072 4.04207 0
M  V30 1606 H 155.917 1.68246 3.8035 0
M  V30 1607 H 154.494 -0.147368 3.72609 0
M  V30 1608 N 156.679 -1.44442 0.630414 0
M  V30 1609 C 157.909 -2.06115 0.141465 0
M  V30 1610 C 158.317 -1.47179 -1.1889 0
M  V30 1611 O 157.66 -0.588873 -1.74006 0
M  V30 1612 C 157.722 -3.59467 -0.0484355 0
M  V30 1613 C 157.386 -4.40864 1.20366 0
M  V30 1614 C 158.383 -4.74391 2.12719 0
M  V30 1615 C 156.068 -4.8125 1.43887 0
M  V30 1616 C 158.062 -5.47186 3.26904 0
M  V30 1617 C 155.749 -5.53795 2.5837 0
M  V30 1618 C 156.747 -5.86682 3.49705 0
M  V30 1619 O 156.435 -6.57749 4.62191 0
M  V30 1620 H 156.167 -0.671648 0.0765792 0
M  V30 1621 H 158.721 -1.86312 0.864695 0
M  V30 1622 H 156.951 -3.77758 -0.826803 0
M  V30 1623 H 158.64 -4.02909 -0.491849 0
M  V30 1624 H 159.406 -4.43728 1.95781 0
M  V30 1625 H 155.285 -4.55073 0.736853 0
M  V30 1626 H 158.829 -5.72773 3.98217 0
M  V30 1627 H 154.726 -5.83872 2.75251 0
M  V30 1628 H 155.494 -6.76217 4.61164 0
M  V30 1629 N 158.157 -0.370918 -1.53173 0
M  V30 1630 C 159.067 0.480823 -2.2962 0
M  V30 1631 C 160.083 1.08789 -1.35798 0
M  V30 1632 O 161.259 1.09768 -1.68858 0
M  V30 1633 C 158.324 1.60227 -3.07454 0
M  V30 1634 C 157.385 1.0222 -4.16953 0
M  V30 1635 C 156.618 2.0902 -4.91066 0
M  V30 1636 O 156.841 3.30222 -4.65091 0
M  V30 1637 O 155.775 1.71778 -5.76867 0
M  V30 1638 H 159.601 -0.141421 -3.03371 0
M  V30 1639 H 157.186 -0.135146 -1.48787 0
M  V30 1640 H 159.068 2.25417 -3.56041 0
M  V30 1641 H 157.743 2.20982 -2.36535 0
M  V30 1642 H 156.65 0.334064 -3.72605 0
M  V30 1643 H 157.983 0.459131 -4.90054 0
M  V30 1644 N 159.635 1.57281 -0.100228 0
M  V30 1645 C 160.884 1.93713 0.561984 0
M  V30 1646 C 161.197 0.984492 1.69018 0
M  V30 1647 O 162.403 1.24273 2.41389 0
M  V30 1648 C 160.859 3.4421 1.05106 0
M  V30 1649 C 160.467 4.47975 -0.0476628 0
M  V30 1650 C 162.211 3.89595 1.68571 0
M  V30 1651 C 160.118 5.89631 0.457055 0
M  V30 1652 H 159.048 0.723082 0.2137 0
M  V30 1653 H 161.699 1.82644 -0.177057 0
M  V30 1654 H 160.081 3.50449 1.84395 0
M  V30 1655 H 161.255 4.53385 -0.823333 0
M  V30 1656 H 159.57 4.1223 -0.587816 0
M  V30 1657 H 162.167 4.92832 2.07414 0
M  V30 1658 H 162.51 3.28526 2.55688 0
M  V30 1659 H 163.043 3.86078 0.958562 0
M  V30 1660 H 159.782 6.54411 -0.377616 0
M  V30 1661 H 159.302 5.87681 1.19962 0
M  V30 1662 H 160.981 6.40363 0.92437 0
M  V30 1663 N 161.113 -0.173488 1.56642 0
M  V30 1664 C 162.359 -0.891784 1.8214 0
M  V30 1665 C 162.692 -1.8199 0.677736 0
M  V30 1666 O 161.967 -1.91842 -0.320446 0
M  V30 1667 C 162.25 -1.68933 3.18015 0
M  V30 1668 C 162.103 -0.784487 4.42906 0
M  V30 1669 C 163.422 -2.65748 3.50808 0
M  V30 1670 H 160.541 -0.322761 0.662567 0
M  V30 1671 H 163.183 -0.158095 1.89341 0
M  V30 1672 H 161.333 -2.31482 3.12007 0
M  V30 1673 H 163.005 -0.172046 4.60979 0
M  V30 1674 H 161.248 -0.0924117 4.33702 0
M  V30 1675 H 161.919 -1.37799 5.34524 0
M  V30 1676 H 164.395 -2.13327 3.57255 0
M  V30 1677 H 163.271 -3.18619 4.4696 0
M  V30 1678 H 163.532 -3.45842 2.75401 0
M  V30 1679 N 162.591 -1.51276 -0.441967 0
M  V30 1680 C 164.007 -1.39349 -0.778083 0
M  V30 1681 C 164.207 -0.472212 -1.95889 0
M  V30 1682 O 163.263 0.0743551 -2.5239 0
M  V30 1683 C 164.576 -2.81292 -1.0628 0
M  V30 1684 C 166.124 -2.9041 -1.16751 0
M  V30 1685 C 166.599 -4.33251 -1.48519 0
M  V30 1686 N 168.09 -4.36336 -1.55453 0
M  V30 1687 C 168.825 -5.43885 -1.81596 0
M  V30 1688 N 168.321 -6.61601 -2.05562 0
M  V30 1689 N 170.114 -5.3136 -1.8334 0
M  V30 1690 H 162.265 -2.09729 0.335774 0
M  V30 1691 H 164.528 -0.943925 0.0878028 0
M  V30 1692 H 164.234 -3.50678 -0.267905 0
M  V30 1693 H 164.108 -3.20334 -1.99163 0
M  V30 1694 H 166.495 -2.21225 -1.95304 0
M  V30 1695 H 166.576 -2.54871 -0.217801 0
M  V30 1696 H 166.22 -5.02984 -0.704958 0
M  V30 1697 H 166.15 -4.66299 -2.44689 0
M  V30 1698 H 168.641 -3.51466 -1.38853 0
M  V30 1699 H 168.954 -7.39361 -2.24867 0
M  V30 1700 H 167.299 -6.64725 -2.02894 0
M  V30 1701 H 170.49 -4.38382 -1.64132 0
M  V30 1702 H 170.663 -6.15258 -2.03377 0
M  V30 1703 N 164.069 0.697108 -1.41344 0
M  V30 1704 C 165.016 1.81106 -1.43071 0
M  V30 1705 C 165.986 1.63632 -0.285275 0
M  V30 1706 O 167.171 1.84504 -0.486091 0
M  V30 1707 C 164.311 3.18975 -1.31715 0
M  V30 1708 C 163.424 3.47892 -2.56115 0
M  V30 1709 C 162.559 4.75367 -2.37064 0
M  V30 1710 C 161.598 4.97247 -3.56948 0
M  V30 1711 N 160.735 6.15947 -3.36977 0
M  V30 1712 H 165.575 1.78965 -2.38276 0
M  V30 1713 H 163.112 0.873975 -1.18322 0
M  V30 1714 H 165.07 3.98615 -1.23133 0
M  V30 1715 H 163.7 3.20297 -0.401183 0
M  V30 1716 H 162.752 2.62669 -2.75153 0
M  V30 1717 H 164.064 3.59962 -3.45295 0
M  V30 1718 H 163.218 5.63059 -2.25941 0
M  V30 1719 H 161.957 4.65541 -1.45338 0
M  V30 1720 H 160.962 4.08004 -3.68527 0
M  V30 1721 H 162.187 5.08934 -4.49626 0
M  V30 1722 H 160.133 6.07336 -2.47949 0
M  V30 1723 H 160.05 6.28777 -4.19732 0
M  V30 1724 H 161.318 7.06377 -3.29623 0
M  V30 1725 N 165.547 1.27147 0.931209 0
M  V30 1726 C 166.457 1.11372 2.06478 0
M  V30 1727 C 167.473 0.044645 1.73943 0
M  V30 1728 O 168.649 0.250417 1.99837 0
M  V30 1729 C 165.714 0.758838 3.38294 0
M  V30 1730 C 164.775 1.90841 3.84549 0
M  V30 1731 C 164.008 1.57036 5.10074 0
M  V30 1732 O 164.231 0.476645 5.68405 0
M  V30 1733 O 163.165 2.40839 5.51616 0
M  V30 1734 H 166.991 2.06493 2.22698 0
M  V30 1735 H 164.576 1.06301 1.04978 0
M  V30 1736 H 166.458 0.574098 4.17471 0
M  V30 1737 H 165.133 -0.162879 3.2329 0
M  V30 1738 H 164.04 2.14819 3.06274 0
M  V30 1739 H 165.373 2.81021 4.04089 0
M  V30 1740 N 167.025 -1.13721 1.09112 0
M  V30 1741 C 167.973 -2.21103 0.722219 0
M  V30 1742 C 168.967 -1.67147 -0.275374 0
M  V30 1743 O 170.173 -1.79477 -0.137176 0
M  V30 1744 H 166.548 -0.720445 0.215553 0
M  V30 1745 H 168.519 -2.49483 1.63709 0
M  V30 1746 C 167.268 -3.47352 0.15543 0
M  V30 1747 H 166.591 -3.89206 0.914246 0
M  V30 1748 H 168.031 -4.2395 -0.0647967 0
M  V30 1749 C 166.49 -3.1814 -1.10852 0
M  V30 1750 O 167.02 -3.36604 -2.19227 0
M  V30 1751 N 165.226 -2.72045 -1.02176 0
M  V30 1752 H 164.773 -2.57221 -0.139764 0
M  V30 1753 H 164.731 -2.52875 -1.8682 0
M  V30 1754 N 168.503 -0.877838 -1.30888 0
M  V30 1755 C 169.914 -0.544193 -1.78593 0
M  V30 1756 C 170.265 0.939301 -1.72254 0
M  V30 1757 O 169.39 1.7337 -1.29505 0
M  V30 1758 C 169.985 -0.98105 -3.24285 0
M  V30 1759 C 168.544 -0.698935 -3.69854 0
M  V30 1760 C 167.691 -1.168 -2.51502 0
M  V30 1761 H 170.642 -1.06278 -1.17859 0
M  V30 1762 H 170.663 -0.307009 -3.79259 0
M  V30 1763 H 170.175 -2.06079 -3.28866 0
M  V30 1764 H 168.276 0.369112 -3.70767 0
M  V30 1765 H 168.389 -1.28148 -4.61644 0
M  V30 1766 H 166.753 -0.587535 -2.47831 0
M  V30 1767 H 167.536 -2.25533 -2.58824 0
M  V30 1768 N 169.982 1.44106 -0.638065 0
M  V30 1769 C 170.93 2.3248 0.0748149 0
M  V30 1770 C 171.924 1.47746 0.828702 0
M  V30 1771 O 173.13 1.64049 0.740816 0
M  V30 1772 H 169.505 0.750771 0.0429686 0
M  V30 1773 H 171.476 2.90348 -0.688504 0
M  V30 1774 C 170.225 3.31843 1.03805 0
M  V30 1775 H 169.548 3.97059 0.467375 0
M  V30 1776 H 170.988 3.96345 1.50622 0
M  V30 1777 C 169.447 2.61291 2.1267 0
M  V30 1778 O 169.977 2.41702 3.20847 0
M  V30 1779 N 168.183 2.20915 1.88798 0
M  V30 1780 H 167.73 2.37047 1.00829 0
M  V30 1781 H 167.688 1.74038 2.61836 0
M  V30 1782 N 171.46 0.379036 1.52974 0
M  V30 1783 C 172.708 -0.206014 2.01047 0
M  V30 1784 C 173.029 -1.48175 1.26765 0
M  V30 1785 O 172.299 -1.92085 0.384743 0
M  V30 1786 H 170.879 -0.0791184 0.742798 0
M  V30 1787 H 173.541 0.508366 1.88153 0
M  V30 1788 H 172.637 -0.423501 3.09213 0
M  V30 1789 N 172.938 -1.57226 0.108567 0
M  V30 1790 C 173.868 -2.17778 -0.84232 0
M  V30 1791 C 174.849 -1.11487 -1.2847 0
M  V30 1792 O 176.034 -1.39681 -1.34918 0
M  V30 1793 C 173.164 -2.76888 -2.09644 0
M  V30 1794 C 172.118 -3.88669 -1.79221 0
M  V30 1795 C 171.444 -4.34541 -3.11574 0
M  V30 1796 C 172.744 -5.11251 -1.06864 0
M  V30 1797 H 174.438 -2.97489 -0.337774 0
M  V30 1798 H 171.984 -1.43097 -0.161025 0
M  V30 1799 H 173.937 -3.17904 -2.76614 0
M  V30 1800 H 172.661 -1.94451 -2.62405 0
M  V30 1801 H 171.32 -3.48213 -1.14644 0
M  V30 1802 H 170.968 -3.48977 -3.62249 0
M  V30 1803 H 170.668 -5.09914 -2.91996 0
M  V30 1804 H 172.192 -4.782 -3.7968 0
M  V30 1805 H 173.606 -5.49352 -1.63968 0
M  V30 1806 H 172.003 -5.9214 -0.974178 0
M  V30 1807 H 173.073 -4.8487 -0.0536168 0
M  V30 1808 N 174.416 0.165178 -1.56732 0
M  V30 1809 C 175.665 0.879143 -1.81532 0
M  V30 1810 C 175.978 1.83144 -0.686842 0
M  V30 1811 O 177.184 2.58823 -0.819944 0
M  V30 1812 C 175.64 1.61388 -3.21686 0
M  V30 1813 C 175.248 0.704904 -4.4242 0
M  V30 1814 C 176.992 2.3157 -3.55774 0
M  V30 1815 C 174.899 1.44022 -5.73595 0
M  V30 1816 H 173.829 0.332033 -0.676957 0
M  V30 1817 H 176.48 0.132008 -1.83025 0
M  V30 1818 H 174.862 2.40599 -3.14529 0
M  V30 1819 H 176.036 -0.0506815 -4.60772 0
M  V30 1820 H 174.351 0.112419 -4.16248 0
M  V30 1821 H 176.948 2.8719 -4.51028 0
M  V30 1822 H 177.291 3.07201 -2.8095 0
M  V30 1823 H 177.824 1.59297 -3.64513 0
M  V30 1824 H 174.563 0.72612 -6.51466 0
M  V30 1825 H 174.083 2.16898 -5.5921 0
M  V30 1826 H 175.762 1.98606 -6.15764 0
M  V30 1827 N 175.894 1.51508 0.433938 0
M  V30 1828 C 177.141 1.64345 1.18309 0
M  V30 1829 C 177.469 0.361315 1.91115 0
M  V30 1830 O 176.724 -0.654753 1.84422 0
M  V30 1831 C 177.023 2.79928 2.22205 0
M  V30 1832 C 176.689 4.19078 1.66387 0
M  V30 1833 C 175.351 4.56932 1.50887 0
M  V30 1834 C 177.703 5.05894 1.25381 0
M  V30 1835 C 175.031 5.79305 0.928608 0
M  V30 1836 C 177.383 6.2885 0.687823 0
M  V30 1837 C 176.047 6.65473 0.519755 0
M  V30 1838 H 175.317 0.601381 0.432923 0
M  V30 1839 H 177.964 1.85549 0.473676 0
M  V30 1840 H 176.269 2.52959 2.99197 0
M  V30 1841 H 177.966 2.87059 2.79997 0
M  V30 1842 H 174.556 3.89234 1.79428 0
M  V30 1843 H 178.74 4.77253 1.36175 0
M  V30 1844 H 173.996 6.06324 0.786186 0
M  V30 1845 H 178.17 6.95461 0.361581 0
M  V30 1846 H 175.797 7.6017 0.0679979 0
M  V30 1847 N 177.372 -0.689602 1.41712 0
M  V30 1848 C 178.335 -1.78521 1.43746 0
M  V30 1849 C 179.335 -1.57436 0.327191 0
M  V30 1850 O 180.525 -1.64 0.587348 0
M  V30 1851 C 177.657 -3.16971 1.25467 0
M  V30 1852 H 178.85 -1.78108 2.41283 0
M  V30 1853 H 176.403 -0.89781 1.27942 0
M  V30 1854 H 177.138 -3.23019 0.287948 0
M  V30 1855 H 176.923 -3.33678 2.05917 0
M  V30 1856 H 178.413 -3.96935 1.2974 0
M  V30 1857 N 178.85 -1.27639 -0.924453 0
M  V30 1858 C 179.798 -1.10485 -2.04685 0
M  V30 1859 C 180.792 -0.0270421 -1.69378 0
M  V30 1860 O 181.998 -0.185008 -1.79047 0
M  V30 1861 H 178.373 -0.340546 -0.670472 0
M  V30 1862 H 180.344 -2.05566 -2.16298 0
M  V30 1863 C 179.093 -0.772229 -3.39016 0
M  V30 1864 H 178.416 -1.59351 -3.66671 0
M  V30 1865 H 179.856 -0.692097 -4.18313 0
M  V30 1866 C 178.315 0.523554 -3.32807 0
M  V30 1867 O 178.845 1.55702 -3.70297 0
M  V30 1868 N 177.051 0.520363 -2.85903 0
M  V30 1869 H 176.598 -0.32107 -2.55591 0
M  V30 1870 H 176.556 1.38742 -2.82131 0
M  V30 1871 N 180.328 1.1314 -1.09713 0
M  V30 1872 C 181.258 2.20748 -0.761102 0
M  V30 1873 C 182.239 1.68061 0.262566 0
M  V30 1874 O 183.424 1.93765 0.129977 0
M  V30 1875 C 180.554 3.46812 -0.184054 0
M  V30 1876 C 179.508 4.12606 -1.13757 0
M  V30 1877 C 178.834 5.33031 -0.422083 0
M  V30 1878 C 180.134 4.59603 -2.48118 0
M  V30 1879 H 181.828 2.49113 -1.66082 0
M  V30 1880 H 179.374 1.19734 -0.799987 0
M  V30 1881 H 181.327 4.21353 0.0631215 0
M  V30 1882 H 180.051 3.17851 0.750868 0
M  V30 1883 H 178.71 3.40036 -1.37007 0
M  V30 1884 H 178.358 5.00335 0.517072 0
M  V30 1885 H 178.058 5.77999 -1.05788 0
M  V30 1886 H 179.582 6.10325 -0.183277 0
M  V30 1887 H 180.996 5.25552 -2.29059 0
M  V30 1888 H 179.393 5.15321 -3.07514 0
M  V30 1889 H 180.463 3.73971 -3.08665 0
M  V30 1890 N 181.806 0.884767 1.30421 0
M  V30 1891 C 183.054 0.502112 1.95763 0
M  V30 1892 C 183.375 -0.951815 1.70192 0
M  V30 1893 O 182.645 -1.6692 1.0254 0
M  V30 1894 H 181.225 0.182694 0.724315 0
M  V30 1895 H 183.887 1.1278 1.58955 0
M  V30 1896 H 182.983 0.672188 3.04775 0
M  V30 1897 N 183.284 -1.43765 0.645699 0
M  V30 1898 C 184.509 -2.06767 0.161883 0
M  V30 1899 C 184.934 -1.48034 -1.16049 0
M  V30 1900 O 184.292 -0.587369 -1.71522 0
M  V30 1901 C 184.34 -3.60519 0.0762003 0
M  V30 1902 O 183.444 -4.00982 -0.963721 0
M  V30 1903 H 182.785 -0.657675 0.091429 0
M  V30 1904 H 185.315 -1.84397 0.886499 0
M  V30 1905 H 185.325 -4.07853 -0.109604 0
M  V30 1906 H 184 -4.02646 1.04157 0
M  V30 1907 H 182.577 -3.65253 -0.751312 0
M  V30 1908 N 184.763 -0.387143 -1.52771 0
M  V30 1909 C 185.673 0.456442 -2.30117 0
M  V30 1910 C 186.689 1.07342 -1.36944 0
M  V30 1911 O 187.865 1.07971 -1.70013 0
M  V30 1912 C 184.93 1.56957 -3.09136 0
M  V30 1913 C 183.991 0.977916 -4.18014 0
M  V30 1914 C 183.224 2.038 -4.93256 0
M  V30 1915 O 183.447 3.25271 -4.68567 0
M  V30 1916 O 182.381 1.6565 -5.78657 0
M  V30 1917 H 186.207 -0.17359 -3.03203 0
M  V30 1918 H 183.792 -0.150919 -1.48636 0
M  V30 1919 H 185.674 2.21628 -3.58412 0
M  V30 1920 H 184.349 2.18461 -2.38865 0
M  V30 1921 H 183.256 0.294525 -3.72939 0
M  V30 1922 H 184.589 0.407128 -4.90513 0
M  V30 1923 N 186.241 1.57166 -0.116904 0
M  V30 1924 C 187.204 2.14039 0.819742 0
M  V30 1925 C 188.204 1.07477 1.19605 0
M  V30 1926 O 189.394 1.33263 1.1219 0
M  V30 1927 C 186.526 2.67891 2.10826 0
M  V30 1928 H 187.719 2.98128 0.325511 0
M  V30 1929 H 185.272 1.55739 0.132312 0
M  V30 1930 H 186.007 1.87384 2.64685 0
M  V30 1931 H 185.792 3.45823 1.84793 0
M  V30 1932 H 187.282 3.11809 2.77785 0
M  V30 1933 N 187.719 -0.156864 1.56817 0
M  V30 1934 C 188.947 -0.886316 1.86955 0
M  V30 1935 C 189.362 -1.75185 0.703975 0
M  V30 1936 O 188.719 -1.79555 -0.326552 0
M  V30 1937 C 188.77 -1.75117 3.16253 0
M  V30 1938 O 188.491 -0.920537 4.2832 0
M  V30 1939 C 189.992 -2.58905 3.59837 0
M  V30 1940 H 187.212 -0.25678 0.619923 0
M  V30 1941 H 189.756 -0.152615 2.0393 0
M  V30 1942 H 187.911 -2.43805 3.01062 0
M  V30 1943 H 188.325 -1.51337 5.02192 0
M  V30 1944 H 189.799 -3.1518 4.53172 0
M  V30 1945 H 190.276 -3.34472 2.84649 0
M  V30 1946 H 190.882 -1.95526 3.7769 0
M  V30 1947 N 189.197 -1.51736 -0.425897 0
M  V30 1948 C 190.16 -1.73271 -1.50032 0
M  V30 1949 C 191.16 -0.602639 -1.4908 0
M  V30 1950 O 192.35 -0.87033 -1.509 0
M  V30 1951 C 189.482 -1.79969 -2.89523 0
M  V30 1952 H 190.675 -2.69172 -1.32237 0
M  V30 1953 H 188.228 -1.41899 -0.65532 0
M  V30 1954 H 188.963 -0.859241 -3.1271 0
M  V30 1955 H 188.748 -2.62109 -2.91619 0
M  V30 1956 H 190.238 -1.9843 -3.67444 0
M  V30 1957 N 190.675 0.682077 -1.42076 0
M  V30 1958 C 191.638 1.77756 -1.44691 0
M  V30 1959 C 192.638 1.5726 -0.335535 0
M  V30 1960 O 193.828 1.63686 -0.596037 0
M  V30 1961 C 190.96 3.16301 -1.27146 0
M  V30 1962 H 192.153 1.76826 -2.42224 0
M  V30 1963 H 189.706 0.891012 -1.28416 0
M  V30 1964 H 190.441 3.22862 -0.305075 0
M  V30 1965 H 190.226 3.32581 -2.07683 0
M  V30 1966 H 191.716 3.96241 -1.31843 0
M  V30 1967 N 192.153 1.28127 0.917671 0
M  V30 1968 C 193.085 1.07517 2.02417 0
M  V30 1969 C 194.098 0.0281099 1.62776 0
M  V30 1970 O 195.287 0.270748 1.76435 0
M  V30 1971 C 192.387 0.610957 3.33347 0
M  V30 1972 C 191.56 1.73255 4.01624 0
M  V30 1973 C 190.619 1.26238 5.10833 0
M  V30 1974 O 189.645 1.96389 5.34247 0
M  V30 1975 N 190.847 0.123448 5.80369 0
M  V30 1976 H 193.612 2.02806 2.20658 0
M  V30 1977 H 191.173 1.19827 1.08871 0
M  V30 1978 H 193.165 0.280101 4.0373 0
M  V30 1979 H 191.735 -0.24898 3.11607 0
M  V30 1980 H 190.955 2.23319 3.24842 0
M  V30 1981 H 192.243 2.48503 4.43986 0
M  V30 1982 H 191.641 -0.461847 5.63812 0
M  V30 1983 H 190.198 -0.148158 6.51632 0
M  V30 1984 N 193.631 -1.12557 1.10312 0
M  V30 1985 C 194.594 -2.16434 0.75424 0
M  V30 1986 C 195.594 -1.59278 -0.220685 0
M  V30 1987 O 196.784 -1.742 0.00230591 0
M  V30 1988 C 193.916 -3.40699 0.116987 0
M  V30 1989 H 195.109 -2.48811 1.67431 0
M  V30 1990 H 192.662 -1.27542 0.903475 0
M  V30 1991 H 193.397 -3.13921 -0.813877 0
M  V30 1992 H 193.182 -3.83459 0.818613 0
M  V30 1993 H 194.672 -4.17451 -0.111387 0
M  V30 1994 N 195.109 -0.891671 -1.2995 0
M  V30 1995 C 196.056 -0.361736 -2.27948 0
M  V30 1996 C 197.026 0.551761 -1.56668 0
M  V30 1997 O 198.211 0.478736 -1.84696 0
M  V30 1998 C 195.351 0.411825 -3.42634 0
M  V30 1999 C 194.464 -0.531651 -4.28716 0
M  V30 2000 C 193.599 0.258167 -5.30572 0
M  V30 2001 C 192.638 -0.680349 -6.08307 0
M  V30 2002 N 191.775 0.0745613 -7.0206 0
M  V30 2003 H 196.615 -1.20254 -2.72659 0
M  V30 2004 H 194.152 -0.604352 -1.34112 0
M  V30 2005 H 196.11 0.876304 -4.07893 0
M  V30 2006 H 194.74 1.21715 -2.98974 0
M  V30 2007 H 193.792 -1.11463 -3.63703 0
M  V30 2008 H 195.104 -1.25038 -4.82874 0
M  V30 2009 H 194.258 0.784204 -6.0161 0
M  V30 2010 H 192.997 1.01008 -4.77126 0
M  V30 2011 H 192.002 -1.21796 -5.3614 0
M  V30 2012 H 193.227 -1.43145 -6.63842 0
M  V30 2013 H 191.173 0.808883 -6.50994 0
M  V30 2014 H 191.09 -0.584409 -7.53738 0
M  V30 2015 H 192.358 0.581123 -7.77331 0
M  V30 2016 N 196.587 1.43421 -0.653314 0
M  V30 2017 C 197.497 2.34568 0.0388565 0
M  V30 2018 C 198.513 1.53888 0.81207 0
M  V30 2019 O 199.689 1.86539 0.759294 0
M  V30 2020 C 196.754 3.32167 0.993269 0
M  V30 2021 C 195.815 4.28751 0.216977 0
M  V30 2022 C 195.048 5.21688 1.12593 0
M  V30 2023 O 195.271 5.19052 2.36519 0
M  V30 2024 O 194.205 5.98919 0.598284 0
M  V30 2025 H 198.031 2.95251 -0.711386 0
M  V30 2026 H 195.616 1.43564 -0.413502 0
M  V30 2027 H 197.498 3.92183 1.54176 0
M  V30 2028 H 196.173 2.73987 1.72374 0
M  V30 2029 H 195.08 3.72215 -0.375101 0
M  V30 2030 H 196.413 4.89913 -0.473924 0
M  V30 2031 N 198.065 0.39524 1.52563 0
M  V30 2032 C 199.028 -0.425001 2.25225 0
M  V30 2033 C 200.028 -0.985266 1.27079 0
M  V30 2034 O 201.218 -0.866332 1.5113 0
M  V30 2035 C 198.35 -1.59686 3.01186 0
M  V30 2036 H 199.543 0.211233 2.99155 0
M  V30 2037 H 197.096 0.147472 1.55603 0
M  V30 2038 H 197.831 -2.27035 2.31572 0
M  V30 2039 H 197.616 -1.20176 3.73229 0
M  V30 2040 H 199.106 -2.17743 3.5634 0
M  V30 2041 N 199.544 -1.57102 0.125237 0
M  V30 2042 C 200.79 -1.95697 -0.532035 0
M  V30 2043 C 201.123 -1.009 -1.6593 0
M  V30 2044 O 200.398 -0.047347 -1.94442 0
M  V30 2045 C 200.681 -3.44181 -1.05884 0
M  V30 2046 C 200.534 -4.49752 0.0654392 0
M  V30 2047 C 201.853 -3.94655 -1.9477 0
M  V30 2048 H 198.972 -0.711571 -0.191925 0
M  V30 2049 H 201.614 -1.88923 0.20206 0
M  V30 2050 H 199.764 -3.50085 -1.68442 0
M  V30 2051 H 201.436 -4.55943 0.700982 0
M  V30 2052 H 199.679 -4.27653 0.727709 0
M  V30 2053 H 200.35 -5.50924 -0.344505 0
M  V30 2054 H 202.826 -3.91094 -1.42074 0
M  V30 2055 H 201.702 -4.99057 -2.28546 0
M  V30 2056 H 201.963 -3.35718 -2.87656 0
M  V30 2057 N 201.022 0.148545 -1.56898 0
M  V30 2058 C 201.932 1.20293 -2.01412 0
M  V30 2059 C 202.948 1.47107 -0.929273 0
M  V30 2060 O 204.124 1.58807 -1.23863 0
M  V30 2061 C 201.189 2.51682 -2.38447 0
M  V30 2062 C 200.25 2.32529 -3.60872 0
M  V30 2063 C 199.483 3.57653 -3.96132 0
M  V30 2064 O 199.706 4.63771 -3.32073 0
M  V30 2065 O 198.64 3.50408 -4.89385 0
M  V30 2066 H 202.466 0.855025 -2.91416 0
M  V30 2067 H 200.051 0.357151 -1.45068 0
M  V30 2068 H 201.933 3.29147 -2.63135 0
M  V30 2069 H 200.608 2.86006 -1.51599 0
M  V30 2070 H 199.515 1.53019 -3.41373 0
M  V30 2071 H 200.848 2.03121 -4.48333 0
M  V30 2072 N 202.5 1.5196 0.417844 0
M  V30 2073 C 203.433 1.69387 1.52916 0
M  V30 2074 C 204.411 0.541419 1.53321 0
M  V30 2075 O 205.595 0.767695 1.72159 0
M  V30 2076 C 202.722 1.72525 2.91467 0
M  V30 2077 C 201.768 2.93967 3.09008 0
M  V30 2078 S 202.601 4.54461 2.83242 0
M  V30 2079 C 203.757 4.60372 4.24038 0
M  V30 2080 H 203.99 2.63382 1.37903 0
M  V30 2081 H 201.523 1.41889 0.608845 0
M  V30 2082 H 203.481 1.75018 3.7132 0
M  V30 2083 H 202.142 0.796733 3.03827 0
M  V30 2084 H 201.335 2.92619 4.10353 0
M  V30 2085 H 200.937 2.89316 2.37007 0
M  V30 2086 H 203.229 4.37213 5.17544 0
M  V30 2087 H 204.172 5.62273 4.30412 0
M  V30 2088 H 204.58 3.89492 4.08602 0
M  V30 2089 N 203.978 -0.674533 1.42435 0
M  V30 2090 C 205.227 -1.43034 1.42212 0
M  V30 2091 C 205.54 -1.95555 0.0420788 0
M  V30 2092 O 206.746 -2.71374 -0.0827558 0
M  V30 2093 C 205.202 -2.58748 2.50155 0
M  V30 2094 C 204.81 -2.12925 3.94166 0
M  V30 2095 C 206.554 -3.36257 2.59098 0
M  V30 2096 C 204.461 -3.25723 4.93618 0
M  V30 2097 H 203.391 -0.537345 0.528939 0
M  V30 2098 H 206.042 -0.73024 1.68344 0
M  V30 2099 H 204.424 -3.31128 2.17188 0
M  V30 2100 H 205.598 -1.47697 4.36488 0
M  V30 2101 H 203.913 -1.48354 3.89076 0
M  V30 2102 H 206.51 -4.20264 3.30578 0
M  V30 2103 H 206.853 -3.82866 1.63461 0
M  V30 2104 H 207.386 -2.70947 2.9126 0
M  V30 2105 H 204.125 -2.84105 5.90732 0
M  V30 2106 H 203.645 -3.89732 4.55926 0
M  V30 2107 H 205.324 -3.91186 5.15347 0
M  V30 2108 N 205.456 -1.28612 -0.910864 0
M  V30 2109 C 206.704 -1.15705 -1.65701 0
M  V30 2110 C 207.025 0.29416 -1.92769 0
M  V30 2111 O 206.295 1.20331 -1.54588 0
M  V30 2112 H 204.875 -0.425216 -0.614167 0
M  V30 2113 H 207.537 -1.61381 -1.0928 0
M  V30 2114 H 206.633 -1.6988 -2.61815 0
M  V30 2115 N 206.934 1.1197 -1.10907 0
M  V30 2116 C 207.897 2.16031 -0.765707 0
M  V30 2117 C 208.897 1.59393 0.212235 0
M  V30 2118 O 210.087 1.74196 -0.0115441 0
M  V30 2119 C 207.219 3.40632 -0.135053 0
M  V30 2120 H 208.412 2.47919 -1.68748 0
M  V30 2121 H 205.965 1.27061 -0.910226 0
M  V30 2122 H 206.7 3.14348 0.797218 0
M  V30 2123 H 206.485 3.8302 -0.838937 0
M  V30 2124 H 207.975 4.17505 0.0892469 0
M  V30 2125 N 208.412 0.89855 1.29475 0
M  V30 2126 C 209.36 0.365253 2.29714 0
M  V30 2127 C 210.354 -0.534993 1.6073 0
M  V30 2128 O 211.56 -0.417921 1.75081 0
M  V30 2129 H 207.935 0.0994853 0.74539 0
M  V30 2130 H 209.906 1.22406 2.72138 0
M  V30 2131 C 208.655 -0.393159 3.4547 0
M  V30 2132 H 207.978 0.290332 3.98744 0
M  V30 2133 H 209.418 -0.731189 4.17648 0
M  V30 2134 C 207.877 -1.59539 2.9673 0
M  V30 2135 O 208.407 -2.69469 2.97908 0
M  V30 2136 N 206.613 -1.43716 2.52575 0
M  V30 2137 H 206.16 -0.542828 2.51816 0
M  V30 2138 H 206.118 -2.24288 2.20323 0
M  V30 2139 N 209.89 -1.43072 0.660911 0
M  V30 2140 C 210.853 -2.29194 -0.0166406 0
M  V30 2141 C 211.853 -1.42609 -0.742912 0
M  V30 2142 O 213.043 -1.64155 -0.583004 0
M  V30 2143 C 210.175 -3.24831 -1.0343 0
M  V30 2144 H 211.368 -2.90596 0.741208 0
M  V30 2145 H 208.921 -1.5048 0.422532 0
M  V30 2146 H 209.656 -2.68339 -1.82111 0
M  V30 2147 H 209.441 -3.88676 -0.517082 0
M  V30 2148 H 210.931 -3.89451 -1.50723 0
M  V30 2149 N 211.368 -0.403325 -1.52352 0
M  V30 2150 C 212.298 0.416205 -2.29761 0
M  V30 2151 C 213.279 1.05123 -1.33728 0
M  V30 2152 O 214.464 1.06134 -1.62632 0
M  V30 2153 C 211.594 1.53624 -3.11475 0
M  V30 2154 C 210.548 1.02653 -4.15507 0
M  V30 2155 C 209.874 2.23971 -4.85532 0
M  V30 2156 C 211.174 0.08463 -5.22231 0
M  V30 2157 H 212.868 -0.229701 -2.98518 0
M  V30 2158 H 210.414 -0.111913 -1.43564 0
M  V30 2159 H 212.367 2.1165 -3.64393 0
M  V30 2160 H 211.091 2.20994 -2.40477 0
M  V30 2161 H 209.75 0.46871 -3.63591 0
M  V30 2162 H 209.398 2.89883 -4.11068 0
M  V30 2163 H 209.098 1.90521 -5.55856 0
M  V30 2164 H 210.622 2.82614 -5.41259 0
M  V30 2165 H 212.036 0.573509 -5.70424 0
M  V30 2166 H 210.433 -0.160783 -5.99885 0
M  V30 2167 H 211.503 -0.86237 -4.7717 0
M  V30 2168 N 212.846 1.57033 -0.133567 0
M  V30 2169 C 213.778 2.13176 0.841944 0
M  V30 2170 C 214.791 1.07794 1.22001 0
M  V30 2171 O 215.98 1.35117 1.16643 0
M  V30 2172 C 213.08 2.62847 2.13926 0
M  V30 2173 C 212.253 3.92486 1.93064 0
M  V30 2174 C 211.312 4.27605 3.0666 0
M  V30 2175 O 210.338 4.96168 2.78937 0
M  V30 2176 N 211.54 3.861 4.33483 0
M  V30 2177 H 214.305 2.97503 0.362192 0
M  V30 2178 H 211.866 1.61821 0.05042 0
M  V30 2179 H 213.858 2.83363 2.88942 0
M  V30 2180 H 212.428 1.83319 2.53205 0
M  V30 2181 H 211.648 3.80732 1.02159 0
M  V30 2182 H 212.936 4.77225 1.76447 0
M  V30 2183 H 212.334 3.30828 4.58878 0
M  V30 2184 H 210.891 4.11694 5.05323 0
M  V30 2185 N 214.325 -0.140222 1.56975 0
M  V30 2186 C 215.574 -0.850152 1.82908 0
M  V30 2187 C 215.887 -1.82028 0.715892 0
M  V30 2188 O 217.093 -2.57485 0.861016 0
M  V30 2189 C 215.549 -1.5625 3.24213 0
M  V30 2190 C 215.157 -0.63443 4.43485 0
M  V30 2191 C 216.901 -2.25881 3.59413 0
M  V30 2192 C 214.808 -1.34879 5.75814 0
M  V30 2193 H 213.738 -0.321221 0.682153 0
M  V30 2194 H 216.389 -0.102874 1.83211 0
M  V30 2195 H 214.771 -2.35565 3.18316 0
M  V30 2196 H 215.945 0.12398 4.60633 0
M  V30 2197 H 214.26 -0.0461836 4.16374 0
M  V30 2198 H 216.857 -2.79978 4.5554 0
M  V30 2199 H 217.2 -3.02693 2.85802 0
M  V30 2200 H 217.733 -1.53477 3.67001 0
M  V30 2201 H 214.472 -0.622385 6.52539 0
M  V30 2202 H 213.992 -2.07974 5.6259 0
M  V30 2203 H 215.671 -1.88784 6.18845 0
M  V30 2204 N 215.803 -1.52179 -0.40978 0
M  V30 2205 C 216.753 -1.71857 -1.49831 0
M  V30 2206 C 217.737 -0.572469 -1.50372 0
M  V30 2207 O 218.929 -0.829509 -1.56359 0
M  V30 2208 C 216.058 -1.87206 -2.87765 0
M  V30 2209 C 215.144 -3.07685 -2.91875 0
M  V30 2210 N 215.535 -4.30403 -2.65683 0
M  V30 2211 C 213.833 -3.07505 -3.23043 0
M  V30 2212 C 214.534 -5.11868 -2.76344 0
M  V30 2213 N 213.51 -4.47101 -3.09195 0
M  V30 2214 H 217.312 -2.64381 -1.28375 0
M  V30 2215 H 214.826 -1.50203 -0.617479 0
M  V30 2216 H 216.823 -1.99419 -3.66111 0
M  V30 2217 H 215.483 -0.958814 -3.10221 0
M  V30 2218 H 216.494 -4.58887 -2.4009 0
M  V30 2219 H 213.171 -2.25915 -3.51096 0
M  V30 2220 H 214.561 -6.19634 -2.59814 0
M  V30 2221 N 217.281 0.66697 -1.42791 0
M  V30 2222 C 218.211 1.79218 -1.49677 0
M  V30 2223 C 219.192 1.66405 -0.352623 0
M  V30 2224 O 220.377 1.85708 -0.567993 0
M  V30 2225 C 217.507 3.17565 -1.40605 0
M  V30 2226 C 216.461 3.45124 -2.53127 0
M  V30 2227 C 215.787 4.83127 -2.29112 0
M  V30 2228 C 217.087 3.41236 -3.95418 0
M  V30 2229 H 218.781 1.73713 -2.43853 0
M  V30 2230 H 216.327 0.83432 -1.17367 0
M  V30 2231 H 218.28 3.96022 -1.44029 0
M  V30 2232 H 217.004 3.23767 -0.429271 0
M  V30 2233 H 215.663 2.69031 -2.49034 0
M  V30 2234 H 215.311 4.85988 -1.29709 0
M  V30 2235 H 215.011 5.02528 -3.04531 0
M  V30 2236 H 216.535 5.63859 -2.34297 0
M  V30 2237 H 217.949 4.09651 -4.01073 0
M  V30 2238 H 216.346 3.72173 -4.70752 0
M  V30 2239 H 217.416 2.39665 -4.21532 0
M  V30 2240 N 218.759 1.29093 0.90403 0
M  V30 2241 C 219.707 1.13727 2.02901 0
M  V30 2242 C 220.701 0.0539853 1.69314 0
M  V30 2243 O 221.907 0.213469 1.7873 0
M  V30 2244 H 218.282 0.35117 0.664969 0
M  V30 2245 H 220.253 2.08982 2.13001 0
M  V30 2246 C 219.002 0.826066 3.37745 0
M  V30 2247 H 218.325 1.65164 3.64089 0
M  V30 2248 H 219.765 0.758559 4.17159 0
M  V30 2249 C 218.224 -0.470541 3.33598 0
M  V30 2250 O 218.754 -1.49792 3.72727 0
M  V30 2251 N 216.96 -0.474812 2.86695 0
M  V30 2252 H 216.507 0.361692 2.55048 0
M  V30 2253 H 216.465 -1.34236 2.84303 0
M  V30 2254 N 220.237 -1.11381 1.11499 0
M  V30 2255 C 221.483 -1.83403 0.865512 0
M  V30 2256 C 221.816 -1.84459 -0.607329 0
M  V30 2257 O 221.091 -1.29811 -1.44842 0
M  V30 2258 C 221.374 -3.30552 1.42855 0
M  V30 2259 C 221.227 -3.37886 2.96906 0
M  V30 2260 C 222.546 -4.26643 1.08 0
M  V30 2261 H 219.665 -0.665879 0.31587 0
M  V30 2262 H 222.307 -1.30601 1.37998 0
M  V30 2263 H 220.457 -3.75648 0.990985 0
M  V30 2264 H 222.129 -3.01343 3.49271 0
M  V30 2265 H 220.372 -2.78088 3.32941 0
M  V30 2266 H 221.043 -4.41458 3.31389 0
M  V30 2267 H 223.519 -3.89729 1.45775 0
M  V30 2268 H 222.395 -5.27986 1.50072 0
M  V30 2269 H 222.656 -4.42099 -0.00915037 0
M  V30 2270 N 221.715 -0.905404 -1.28997 0
M  V30 2271 C 222.964 -0.530191 -1.94607 0
M  V30 2272 C 223.277 0.929185 -1.72121 0
M  V30 2273 O 224.483 1.41218 -2.31883 0
M  V30 2274 C 222.939 -0.897333 -3.48534 0
M  V30 2275 C 222.547 -2.37587 -3.79811 0
M  V30 2276 C 224.291 -0.592304 -4.20347 0
M  V30 2277 C 222.198 -2.68357 -5.27009 0
M  V30 2278 H 221.128 -0.194558 -0.728466 0
M  V30 2279 H 223.779 -1.10318 -1.46636 0
M  V30 2280 H 222.161 -0.253214 -3.9519 0
M  V30 2281 H 223.335 -3.06602 -3.43994 0
M  V30 2282 H 221.65 -2.6505 -3.2115 0
M  V30 2283 H 224.247 -0.798975 -5.28697 0
M  V30 2284 H 224.59 0.469474 -4.13644 0
M  V30 2285 H 225.123 -1.19452 -3.79442 0
M  V30 2286 H 221.862 -3.73355 -5.38782 0
M  V30 2287 H 221.382 -2.03971 -5.64053 0
M  V30 2288 H 223.061 -2.54922 -5.94663 0
M  V30 2289 N 223.193 1.4272 -0.668489 0
M  V30 2290 C 224.125 2.2914 0.052613 0
M  V30 2291 C 225.138 1.43339 0.771857 0
M  V30 2292 O 226.327 1.67123 0.627067 0
M  V30 2293 C 223.427 3.20618 1.09804 0
M  V30 2294 C 222.6 4.35039 0.45389 0
M  V30 2295 C 221.659 5.07282 1.39825 0
M  V30 2296 O 220.685 5.62024 0.900978 0
M  V30 2297 N 221.887 5.12206 2.73176 0
M  V30 2298 H 224.652 2.91668 -0.689209 0
M  V30 2299 H 222.213 1.53577 -0.512422 0
M  V30 2300 H 224.205 3.65815 1.73094 0
M  V30 2301 H 222.775 2.59585 1.74167 0
M  V30 2302 H 221.995 3.92567 -0.358396 0
M  V30 2303 H 223.283 5.088 0.00486972 0
M  V30 2304 H 222.681 4.6913 3.16122 0
M  V30 2305 H 221.238 5.61069 3.31729 0
M  V30 2306 N 224.671 0.411399 1.52136 0
M  V30 2307 C 225.581 -0.419774 2.30814 0
M  V30 2308 C 226.597 -1.0515 1.38634 0
M  V30 2309 O 227.773 -1.05252 1.71709 0
M  V30 2310 C 224.838 -1.52019 3.11594 0
M  V30 2311 C 223.899 -0.91129 4.19516 0
M  V30 2312 C 223.132 -1.95927 4.96436 0
M  V30 2313 O 223.355 -3.17775 4.73683 0
M  V30 2314 O 222.289 -1.56423 5.81219 0
M  V30 2315 H 226.115 0.221805 3.02889 0
M  V30 2316 H 223.7 0.174547 1.48377 0
M  V30 2317 H 225.582 -2.15898 3.61892 0
M  V30 2318 H 224.257 -2.14633 2.42311 0
M  V30 2319 H 223.164 -0.235157 3.7336 0
M  V30 2320 H 224.497 -0.32904 4.91099 0
M  V30 2321 N 226.149 -1.5696 0.141893 0
M  V30 2322 C 227.398 -1.95135 -0.510427 0
M  V30 2323 C 227.711 -1.02896 -1.66348 0
M  V30 2324 O 228.917 -1.30629 -2.38009 0
M  V30 2325 C 227.373 -3.46876 -0.959427 0
M  V30 2326 C 226.981 -4.47691 0.166419 0
M  V30 2327 C 228.725 -3.93927 -1.58183 0
M  V30 2328 C 226.632 -5.90636 -0.300565 0
M  V30 2329 H 225.562 -0.728494 -0.194454 0
M  V30 2330 H 228.213 -1.8211 0.22542 0
M  V30 2331 H 226.595 -3.55215 -1.75038 0
M  V30 2332 H 227.769 -4.51043 0.94325 0
M  V30 2333 H 226.084 -4.10527 0.696905 0
M  V30 2334 H 228.681 -4.98158 -1.94275 0
M  V30 2335 H 229.024 -3.3519 -2.46888 0
M  V30 2336 H 229.557 -3.88484 -0.855863 0
M  V30 2337 H 226.296 -6.5318 0.550989 0
M  V30 2338 H 225.816 -5.90655 -1.04338 0
M  V30 2339 H 227.495 -6.42588 -0.754265 0
M  V30 2340 N 227.627 0.131896 -1.57047 0
M  V30 2341 C 228.873 0.843179 -1.84441 0
M  V30 2342 C 229.206 1.80129 -0.725749 0
M  V30 2343 O 228.481 1.92624 0.269469 0
M  V30 2344 C 228.764 1.60442 -3.22382 0
M  V30 2345 C 228.617 0.666782 -4.4483 0
M  V30 2346 C 229.936 2.56354 -3.5773 0
M  V30 2347 H 227.055 0.305081 -0.670891 0
M  V30 2348 H 229.697 0.107839 -1.89694 0
M  V30 2349 H 227.847 2.23128 -3.18035 0
M  V30 2350 H 229.519 0.0497646 -4.61273 0
M  V30 2351 H 227.762 -0.022609 -4.33794 0
M  V30 2352 H 228.433 1.23579 -5.37989 0
M  V30 2353 H 230.909 2.0378 -3.62785 0
M  V30 2354 H 229.785 3.06657 -4.5525 0
M  V30 2355 H 230.046 3.38419 -2.84473 0
M  V30 2356 N 229.106 1.52395 0.401703 0
M  V30 2357 C 230.039 1.70999 1.51111 0
M  V30 2358 C 231.017 0.55765 1.52738 0
M  V30 2359 O 232.201 0.785912 1.71335 0
M  V30 2360 C 229.328 1.75607 2.8962 0
M  V30 2361 C 228.374 2.97227 3.05873 0
M  V30 2362 S 229.207 4.57439 2.78405 0
M  V30 2363 C 230.363 4.64844 4.19131 0
M  V30 2364 H 230.596 2.6483 1.35102 0
M  V30 2365 H 228.129 1.42527 0.593762 0
M  V30 2366 H 230.087 1.78947 3.69443 0
M  V30 2367 H 228.748 0.828914 3.02965 0
M  V30 2368 H 227.941 2.96955 4.07227 0
M  V30 2369 H 227.543 2.91813 2.33925 0
M  V30 2370 H 229.835 4.42677 5.12877 0
M  V30 2371 H 230.778 5.66807 4.24424 0
M  V30 2372 H 231.186 3.93804 4.04448 0
M  V30 2373 N 230.584 -0.659388 1.43143 0
M  V30 2374 C 231.995 -1.24041 1.39537 0
M  V30 2375 C 232.346 -1.95963 0.0963364 0
M  V30 2376 O 231.471 -2.00892 -0.804438 0
M  V30 2377 C 232.066 -2.25601 2.52764 0
M  V30 2378 C 230.625 -2.79195 2.52443 0
M  V30 2379 C 229.772 -1.53743 2.30778 0
M  V30 2380 H 232.723 -0.451792 1.52133 0
M  V30 2381 H 232.744 -3.07651 2.23899 0
M  V30 2382 H 232.256 -1.73226 3.47296 0
M  V30 2383 H 230.357 -3.35649 1.61773 0
M  V30 2384 H 230.47 -3.2716 3.50004 0
M  V30 2385 H 228.834 -1.80869 1.79328 0
M  V30 2386 H 229.617 -1.03312 3.27386 0
M  V30 2387 N 232.062 -1.29571 -0.897171 0
M  V30 2388 C 232.972 -1.16808 -2.03453 0
M  V30 2389 C 233.988 -0.0907471 -1.73763 0
M  V30 2390 O 235.164 -0.303312 -1.99103 0
M  V30 2391 C 232.229 -0.848264 -3.36163 0
M  V30 2392 C 231.29 -2.0097 -3.79354 0
M  V30 2393 C 230.523 -1.70505 -5.05731 0
M  V30 2394 O 230.746 -0.62718 -5.66941 0
M  V30 2395 O 229.68 -2.5538 -5.45036 0
M  V30 2396 H 233.506 -2.12325 -2.17144 0
M  V30 2397 H 231.091 -1.09047 -1.02123 0
M  V30 2398 H 232.973 -0.684581 -4.15802 0
M  V30 2399 H 231.648 0.0771071 -3.23608 0
M  V30 2400 H 230.555 -2.22863 -3.00471 0
M  V30 2401 H 231.888 -2.91636 -3.96496 0
M  V30 2402 N 233.54 1.10788 -1.12088 0
M  V30 2403 C 234.788 1.8231 -0.872205 0
M  V30 2404 C 235.109 1.85419 0.603709 0
M  V30 2405 O 234.379 1.32963 1.43867 0
M  V30 2406 H 232.959 0.675137 -0.319686 0
M  V30 2407 H 235.621 1.34068 -1.41463 0
M  V30 2408 H 234.717 2.85955 -1.25045 0
M  V30 2409 N 235.018 0.912232 1.28515 0
M  V30 2410 C 236.295 0.463597 1.90027 0
M  V30 2411 C 236.675 -1.05753 1.82701 0
M  V30 2412 O 236.023 -1.90492 1.26194 0
M  V30 2413 C 236.233 0.992253 3.34597 0
M  V30 2414 C 237.581 1.04344 4.11579 0
M  V30 2415 O 238.605 0.94079 3.43551 0
M  V30 2416 O 237.464 1.1995 5.33174 0
M  V30 2417 H 234.558 0.146666 0.813891 0
M  V30 2418 H 237.104 1.00292 1.36893 0
M  V30 2419 H 235.876 2.03623 3.34146 0
M  V30 2420 H 235.499 0.433672 3.95228 0
M  V30 2421 N 236.496 -1.42363 0.676048 0
M  V30 2422 C 237.912 -1.55811 0.345718 0
M  V30 2423 C 238.112 -1.65544 -1.14879 0
M  V30 2424 O 237.168 -1.62306 -1.93424 0
M  V30 2425 C 238.481 -2.80746 1.07713 0
M  V30 2426 C 240.029 -2.9452 1.05958 0
M  V30 2427 C 240.504 -4.22318 1.77233 0
M  V30 2428 N 241.995 -4.29233 1.74108 0
M  V30 2429 C 242.73 -5.26935 2.26113 0
M  V30 2430 N 242.226 -6.30783 2.86505 0
M  V30 2431 N 244.019 -5.18741 2.1648 0
M  V30 2432 H 236.17 -1.34289 1.6456 0
M  V30 2433 H 238.433 -0.646506 0.69335 0
M  V30 2434 H 238.139 -2.79696 2.13221 0
M  V30 2435 H 238.013 -3.71676 0.64316 0
M  V30 2436 H 240.4 -2.95097 0.0128255 0
M  V30 2437 H 240.481 -2.04817 1.53244 0
M  V30 2438 H 240.125 -4.22502 2.81877 0
M  V30 2439 H 240.055 -5.10958 1.27396 0
M  V30 2440 H 242.546 -3.54814 1.30059 0
M  V30 2441 H 242.859 -7.01691 3.23805 0
M  V30 2442 H 241.204 -6.31341 2.90575 0
M  V30 2443 H 244.395 -4.36533 1.68987 0
M  V30 2444 H 244.568 -5.94721 2.57316 0
M  V30 2445 N 237.974 -0.419461 -1.51915 0
M  V30 2446 C 239.199 0.154572 -2.06823 0
M  V30 2447 C 239.624 1.3722 -1.28656 0
M  V30 2448 O 238.982 1.78461 -0.319583 0
M  V30 2449 C 239.03 0.473172 -3.57482 0
M  V30 2450 O 238.134 1.56255 -3.81652 0
M  V30 2451 H 237.475 0.0096924 -0.663929 0
M  V30 2452 H 240.005 -0.595642 -1.95738 0
M  V30 2453 H 240.015 0.728825 -4.01438 0
M  V30 2454 H 238.69 -0.416873 -4.13805 0
M  V30 2455 H 237.267 1.29825 -3.49571 0
M  V30 2456 N 239.452 1.56882 -0.150215 0
M  V30 2457 C 240.699 1.96228 0.500093 0
M  V30 2458 C 241.027 1.03522 1.64661 0
M  V30 2459 O 240.282 0.0650683 1.95592 0
M  V30 2460 C 240.581 3.41801 1.04437 0
M  V30 2461 C 240.247 4.50897 0.0159671 0
M  V30 2462 C 238.909 4.8046 -0.266731 0
M  V30 2463 C 241.261 5.16703 -0.683192 0
M  V30 2464 C 238.589 5.73135 -1.25434 0
M  V30 2465 C 240.941 6.10441 -1.65964 0
M  V30 2466 C 239.605 6.38382 -1.95 0
M  V30 2467 H 238.875 0.718048 0.182997 0
M  V30 2468 H 241.522 1.90019 -0.237724 0
M  V30 2469 H 239.827 3.44857 1.85959 0
M  V30 2470 H 241.524 3.69573 1.55618 0
M  V30 2471 H 238.114 4.27891 0.246485 0
M  V30 2472 H 242.298 4.93993 -0.477983 0
M  V30 2473 H 237.554 5.93074 -1.48571 0
M  V30 2474 H 241.728 6.60507 -2.20689 0
M  V30 2475 H 239.355 7.09996 -2.71679 0
M  V30 2476 N 240.93 -0.123565 1.57115 0
M  V30 2477 C 242.155 -0.850398 1.89164 0
M  V30 2478 C 242.58 -1.7286 0.741688 0
M  V30 2479 O 241.938 -1.78665 -0.307958 0
M  V30 2480 C 241.986 -1.66353 3.19936 0
M  V30 2481 O 241.09 -2.77004 3.0552 0
M  V30 2482 H 240.431 -0.235454 0.620852 0
M  V30 2483 H 242.961 -0.107335 2.04318 0
M  V30 2484 H 242.971 -2.05372 3.52543 0
M  V30 2485 H 241.646 -1.01881 4.03228 0
M  V30 2486 H 240.223 -2.41221 2.84371 0
M  V30 2487 N 242.408 -1.52605 -0.393616 0
M  V30 2488 C 243.656 -1.67093 -1.13685 0
M  V30 2489 C 243.977 -0.411011 -1.90619 0
M  V30 2490 O 243.247 0.574491 -1.87287 0
M  V30 2491 H 241.827 -0.615923 -0.422668 0
M  V30 2492 H 244.489 -1.89704 -0.447039 0
M  V30 2493 H 243.585 -2.51922 -1.84232 0
M  V30 2494 N 243.887 0.651787 -1.4349 0
M  V30 2495 C 244.85 1.74647 -1.48429 0
M  V30 2496 C 245.85 1.56513 -0.368817 0
M  V30 2497 O 247.04 1.62385 -0.630623 0
M  V30 2498 C 244.172 3.13533 -1.33827 0
M  V30 2499 H 245.365 1.71649 -2.4592 0
M  V30 2500 H 242.918 0.863573 -1.30277 0
M  V30 2501 H 243.653 3.22142 -0.37349 0
M  V30 2502 H 243.438 3.28101 -2.14691 0
M  V30 2503 H 244.928 3.93356 -1.40218 0
M  V30 2504 N 245.365 1.30045 0.890287 0
M  V30 2505 C 246.295 1.18541 2.01172 0
M  V30 2506 C 247.276 0.0773356 1.69924 0
M  V30 2507 O 248.461 0.25845 1.92473 0
M  V30 2508 C 245.591 0.870941 3.36202 0
M  V30 2509 C 244.545 1.93637 3.81692 0
M  V30 2510 C 243.871 1.475 5.13953 0
M  V30 2511 C 245.171 3.34666 4.00994 0
M  V30 2512 H 246.865 2.12359 2.11054 0
M  V30 2513 H 244.411 1.02238 1.01407 0
M  V30 2514 H 246.364 0.777141 4.14172 0
M  V30 2515 H 245.088 -0.102926 3.26438 0
M  V30 2516 H 243.747 2.01972 3.05946 0
M  V30 2517 H 243.395 0.489551 5.00612 0
M  V30 2518 H 243.095 2.1876 5.4536 0
M  V30 2519 H 244.619 1.39489 5.94454 0
M  V30 2520 H 246.033 3.2912 4.69417 0
M  V30 2521 H 244.43 4.03966 4.43769 0
M  V30 2522 H 245.5 3.76949 3.05021 0
M  V30 2523 N 246.843 -1.10192 1.12674 0
M  V30 2524 C 247.79 -2.16606 0.796906 0
M  V30 2525 C 248.76 -1.64394 -0.237476 0
M  V30 2526 O 249.945 -1.90474 -0.111484 0
M  V30 2527 C 247.085 -3.44116 0.26043 0
M  V30 2528 C 246.198 -4.10268 1.35293 0
M  V30 2529 C 245.333 -5.25507 0.775621 0
M  V30 2530 C 244.372 -5.83567 1.84706 0
M  V30 2531 N 243.509 -6.90179 1.28829 0
M  V30 2532 H 248.349 -2.44163 1.70846 0
M  V30 2533 H 245.886 -1.19846 0.85295 0
M  V30 2534 H 247.844 -4.17143 -0.0686814 0
M  V30 2535 H 246.474 -3.16901 -0.614274 0
M  V30 2536 H 245.526 -3.35184 1.79877 0
M  V30 2537 H 246.838 -4.4946 2.16303 0
M  V30 2538 H 245.992 -6.05398 0.397327 0
M  V30 2539 H 244.731 -4.87656 -0.0656581 0
M  V30 2540 H 243.736 -5.02344 2.23452 0
M  V30 2541 H 244.961 -6.23482 2.69161 0
M  V30 2542 H 242.907 -6.54322 0.468881 0
M  V30 2543 H 242.824 -7.28097 2.03497 0
M  V30 2544 H 244.092 -7.73844 0.937311 0
M  V30 2545 N 248.321 -0.919034 -1.28029 0
M  V30 2546 C 249.737 -0.617972 -1.4715 0
M  V30 2547 C 249.937 0.835242 -1.83374 0
M  V30 2548 O 248.993 1.61388 -1.94191 0
M  V30 2549 C 250.306 -1.56041 -2.57044 0
M  V30 2550 C 251.854 -1.56769 -2.7091 0
M  V30 2551 C 252.329 -2.49688 -3.83953 0
M  V30 2552 N 253.82 -2.47845 -3.91314 0
M  V30 2553 C 254.555 -3.16437 -4.78179 0
M  V30 2554 N 254.051 -3.94376 -5.69596 0
M  V30 2555 N 255.844 -3.05498 -4.71834 0
M  V30 2556 H 247.995 -1.85866 -1.02798 0
M  V30 2557 H 250.258 -0.797506 -0.512531 0
M  V30 2558 H 249.964 -2.59671 -2.372 0
M  V30 2559 H 249.838 -1.29551 -3.54255 0
M  V30 2560 H 252.225 -0.538745 -2.90141 0
M  V30 2561 H 252.306 -1.87305 -1.74214 0
M  V30 2562 H 251.95 -3.52688 -3.65477 0
M  V30 2563 H 251.88 -2.16453 -4.80058 0
M  V30 2564 H 254.371 -1.91234 -3.25941 0
M  V30 2565 H 254.684 -4.43721 -6.32718 0
M  V30 2566 H 253.029 -3.98481 -5.69419 0
M  V30 2567 H 256.22 -2.44108 -3.99411 0
M  V30 2568 H 256.393 -3.59225 -5.39316 0
M  V30 2569 N 249.799 1.42003 -0.683588 0
M  V30 2570 C 251.048 2.00638 -0.206681 0
M  V30 2571 C 251.361 1.5472 1.19671 0
M  V30 2572 O 252.567 2.05833 1.77045 0
M  V30 2573 C 251.023 3.58487 -0.318632 0
M  V30 2574 C 250.631 4.1339 -1.72663 0
M  V30 2575 C 252.375 4.24384 0.0991141 0
M  V30 2576 C 250.282 5.63633 -1.79087 0
M  V30 2577 H 249.212 0.750408 -0.0735107 0
M  V30 2578 H 251.863 1.62624 -0.850048 0
M  V30 2579 H 250.245 3.94047 0.392781 0
M  V30 2580 H 251.419 3.89273 -2.46583 0
M  V30 2581 H 249.734 3.59976 -2.09299 0
M  V30 2582 H 252.331 5.34652 0.0713833 0
M  V30 2583 H 252.674 4.00505 1.13586 0
M  V30 2584 H 253.207 3.93816 -0.561599 0
M  V30 2585 H 249.946 5.92323 -2.80774 0
M  V30 2586 H 249.466 5.89714 -1.09535 0
M  V30 2587 H 251.145 6.28201 -1.5483 0
M  V30 2588 N 251.277 0.427512 1.51691 0
M  V30 2589 C 252.187 -0.39527 2.31246 0
M  V30 2590 C 253.203 -1.03674 1.39742 0
M  V30 2591 O 254.379 -1.03425 1.72816 0
M  V30 2592 C 251.444 -1.48706 3.13189 0
M  V30 2593 C 250.505 -0.866743 4.20459 0
M  V30 2594 C 249.738 -1.90651 4.98486 0
M  V30 2595 O 249.961 -3.12733 4.77026 0
M  V30 2596 O 248.895 -1.5025 5.82845 0
M  V30 2597 H 252.721 0.253918 3.02637 0
M  V30 2598 H 250.306 0.190274 1.48183 0
M  V30 2599 H 252.188 -2.12047 3.64162 0
M  V30 2600 H 250.863 -2.12051 2.44573 0
M  V30 2601 H 249.77 -0.195544 3.73589 0
M  V30 2602 H 251.103 -0.276934 4.9142 0
M  V30 2603 N 252.755 -1.56801 0.158532 0
M  V30 2604 C 253.687 -2.14488 -0.807923 0
M  V30 2605 C 254.7 -1.09721 -1.20271 0
M  V30 2606 O 255.889 -1.36956 -1.14478 0
M  V30 2607 C 252.989 -2.66217 -2.09718 0
M  V30 2608 C 252.162 -3.95507 -1.86796 0
M  V30 2609 C 251.221 -4.3243 -2.99818 0
M  V30 2610 O 250.247 -5.00543 -2.71008 0
M  V30 2611 N 251.449 -3.92947 -4.27285 0
M  V30 2612 H 254.214 -2.98042 -0.314816 0
M  V30 2613 H 251.775 -1.61881 -0.0246692 0
M  V30 2614 H 253.767 -2.87924 -2.84398 0
M  V30 2615 H 252.337 -1.87324 -2.50257 0
M  V30 2616 H 251.557 -3.82309 -0.96089 0
M  V30 2617 H 252.845 -4.79972 -1.68833 0
M  V30 2618 H 252.243 -3.38087 -4.53557 0
M  V30 2619 H 250.8 -4.19681 -4.9871 0
M  V30 2620 N 254.233 0.115231 -1.57178 0
M  V30 2621 C 255.482 0.820945 -1.84237 0
M  V30 2622 C 255.795 1.80866 -0.744761 0
M  V30 2623 O 257.001 2.56083 -0.901871 0
M  V30 2624 C 255.457 1.51072 -3.26658 0
M  V30 2625 C 255.065 0.563795 -4.44438 0
M  V30 2626 C 256.809 2.20134 -3.62962 0
M  V30 2627 C 254.716 1.25701 -5.77887 0
M  V30 2628 H 253.646 0.310328 -0.687177 0
M  V30 2629 H 256.297 0.0737134 -1.83352 0
M  V30 2630 H 254.679 2.30471 -3.22024 0
M  V30 2631 H 255.853 -0.197247 -4.60378 0
M  V30 2632 H 254.168 -0.0200638 -4.16395 0
M  V30 2633 H 256.765 2.72696 -4.59936 0
M  V30 2634 H 257.108 2.98107 -2.90582 0
M  V30 2635 H 257.641 1.47619 -3.69396 0
M  V30 2636 H 254.38 0.518493 -6.53446 0
M  V30 2637 H 253.9 1.98997 -5.65827 0
M  V30 2638 H 255.579 1.78915 -6.2177 0
M  V30 2639 N 255.711 1.52812 0.385517 0
M  V30 2640 C 256.951 1.69716 1.13911 0
M  V30 2641 C 257.315 0.42962 1.87132 0
M  V30 2642 O 258.516 0.475071 2.64569 0
M  V30 2643 C 256.787 2.90021 2.0886 0
M  V30 2644 S 258.346 3.27531 2.92009 0
M  V30 2645 H 255.164 0.59739 0.385547 0
M  V30 2646 H 257.766 1.90868 0.423061 0
M  V30 2647 H 256.47 3.80493 1.53797 0
M  V30 2648 H 256.001 2.71213 2.84969 0
M  V30 2649 H 258.016 2.77989 4.11019 0
M  V30 2650 N 257.189 -0.644168 1.43834 0
M  V30 2651 C 258.414 -1.43642 1.49605 0
M  V30 2652 C 258.839 -1.8773 0.117913 0
M  V30 2653 O 258.197 -1.57938 -0.890239 0
M  V30 2654 C 258.245 -2.6416 2.45463 0
M  V30 2655 O 257.349 -3.63538 1.94714 0
M  V30 2656 H 256.69 -0.430329 0.50568 0
M  V30 2657 H 259.22 -0.787448 1.8884 0
M  V30 2658 H 259.23 -3.11864 2.63068 0
M  V30 2659 H 257.905 -2.31414 3.45572 0
M  V30 2660 H 256.482 -3.2273 1.86814 0
M  V30 2661 N 258.668 -1.30515 -0.883378 0
M  V30 2662 C 260.084 -1.08881 -1.16692 0
M  V30 2663 C 260.284 0.149409 -2.00945 0
M  V30 2664 O 259.34 0.84257 -2.38027 0
M  V30 2665 C 260.653 -2.35319 -1.87204 0
M  V30 2666 C 262.201 -2.40799 -1.99962 0
M  V30 2667 C 262.676 -3.67083 -2.73887 0
M  V30 2668 N 264.167 -3.679 -2.81432 0
M  V30 2669 C 264.902 -4.62303 -3.3921 0
M  V30 2670 N 264.398 -5.67052 -3.98025 0
M  V30 2671 N 266.191 -4.49845 -3.3704 0
M  V30 2672 H 258.342 -2.09951 -0.321633 0
M  V30 2673 H 260.605 -0.92556 -0.205043 0
M  V30 2674 H 260.311 -3.25689 -1.3274 0
M  V30 2675 H 260.185 -2.44089 -2.87577 0
M  V30 2676 H 262.572 -1.50907 -2.53597 0
M  V30 2677 H 262.653 -2.36003 -0.98673 0
M  V30 2678 H 262.297 -4.57334 -2.20925 0
M  V30 2679 H 262.227 -3.69141 -3.75556 0
M  V30 2680 H 264.718 -2.92171 -2.39676 0
M  V30 2681 H 265.031 -6.35184 -4.40183 0
M  V30 2682 H 263.376 -5.70842 -3.96439 0
M  V30 2683 H 266.567 -3.67194 -2.90321 0
M  V30 2684 H 266.74 -5.23597 -3.81772 0
M  V30 2685 N 260.146 1.09593 -1.13257 0
M  V30 2686 C 261.392 1.82003 -0.89458 0
M  V30 2687 C 261.725 1.85402 0.577906 0
M  V30 2688 O 261 1.32099 1.42759 0
M  V30 2689 C 261.283 3.28237 -1.48096 0
M  V30 2690 C 261.136 3.3312 -3.02244 0
M  V30 2691 C 262.455 4.24871 -1.14774 0
M  V30 2692 H 259.574 0.66077 -0.326424 0
M  V30 2693 H 262.216 1.28389 -1.40058 0
M  V30 2694 H 260.366 3.74024 -1.05062 0
M  V30 2695 H 262.038 2.95748 -3.54021 0
M  V30 2696 H 260.281 2.72756 -3.37323 0
M  V30 2697 H 260.952 4.3613 -3.38371 0
M  V30 2698 H 263.428 3.87361 -1.51957 0
M  V30 2699 H 262.304 5.25532 -1.58452 0
M  V30 2700 H 262.565 4.42058 -0.0611849 0
M  V30 2701 N 261.624 0.925811 1.2754 0
M  V30 2702 C 262.849 0.580924 1.99098 0
M  V30 2703 C 263.274 -0.833555 1.68622 0
M  V30 2704 O 262.632 -1.55903 0.925422 0
M  V30 2705 C 262.68 0.811186 3.51358 0
M  V30 2706 O 261.784 -0.124129 4.12213 0
M  V30 2707 H 261.125 0.223873 0.625122 0
M  V30 2708 H 263.655 1.24455 1.62395 0
M  V30 2709 H 263.665 0.72601 4.01489 0
M  V30 2710 H 262.34 1.84227 3.72872 0
M  V30 2711 H 260.917 0.0108006 3.72898 0
M  V30 2712 N 263.102 -1.41638 0.69111 0
M  V30 2713 C 264.348 -2.01598 0.220519 0
M  V30 2714 C 264.681 -1.54594 -1.17535 0
M  V30 2715 O 263.956 -0.755177 -1.79241 0
M  V30 2716 C 264.239 -3.59062 0.273243 0
M  V30 2717 C 264.092 -4.16203 1.70573 0
M  V30 2718 C 265.411 -4.38546 -0.369457 0
M  V30 2719 H 262.53 -0.732468 0.0816045 0
M  V30 2720 H 265.172 -1.68445 0.878986 0
M  V30 2721 H 263.322 -3.87435 -0.287411 0
M  V30 2722 H 264.994 -3.98722 2.31989 0
M  V30 2723 H 263.237 -3.71414 2.2413 0
M  V30 2724 H 263.908 -5.25358 1.69419 0
M  V30 2725 H 266.384 -4.1596 0.107977 0
M  V30 2726 H 265.26 -5.48069 -0.302002 0
M  V30 2727 H 265.521 -4.17662 -1.44951 0
M  V30 2728 N 264.58 -0.43555 -1.51462 0
M  V30 2729 C 265.991 0.0279871 -1.86679 0
M  V30 2730 C 266.342 1.42104 -1.35281 0
M  V30 2731 O 265.467 2.04667 -0.702878 0
M  V30 2732 C 266.062 0.0575626 -3.38751 0
M  V30 2733 C 264.621 0.465507 -3.7351 0
M  V30 2734 C 263.768 -0.342996 -2.75171 0
M  V30 2735 H 266.719 -0.651473 -1.44712 0
M  V30 2736 H 266.74 0.867421 -3.70481 0
M  V30 2737 H 266.252 -0.956448 -3.7613 0
M  V30 2738 H 264.353 1.48519 -3.41721 0
M  V30 2739 H 264.466 0.191546 -4.78717 0
M  V30 2740 H 262.83 0.198442 -2.53926 0
M  V30 2741 H 263.613 -1.35585 -3.15391 0
M  V30 2742 N 266.058 1.56714 -0.166846 0
M  V30 2743 C 267.304 1.97039 0.479962 0
M  V30 2744 C 267.637 1.05264 1.63197 0
M  V30 2745 O 266.912 0.0988833 1.94248 0
M  V30 2746 C 267.195 3.46867 0.967212 0
M  V30 2747 C 267.048 4.49421 -0.18466 0
M  V30 2748 C 268.367 3.9968 1.84238 0
M  V30 2749 H 265.486 0.71641 0.172992 0
M  V30 2750 H 268.128 1.8832 -0.252079 0
M  V30 2751 H 266.278 3.54428 1.59101 0
M  V30 2752 H 267.95 4.53924 -0.821621 0
M  V30 2753 H 266.193 4.25573 -0.840837 0
M  V30 2754 H 266.864 5.51644 0.198317 0
M  V30 2755 H 269.34 3.94723 1.31655 0
M  V30 2756 H 268.216 5.04941 2.15234 0
M  V30 2757 H 268.477 3.43226 2.78654 0
M  V30 2758 N 267.536 -0.106894 1.57237 0
M  V30 2759 C 268.785 -0.811163 1.8467 0
M  V30 2760 C 269.098 -1.80469 0.754342 0
M  V30 2761 O 270.304 -2.55601 0.915439 0
M  V30 2762 C 268.76 -1.49337 3.27454 0
M  V30 2763 C 268.368 -0.540217 4.44731 0
M  V30 2764 C 270.112 -2.18206 3.64124 0
M  V30 2765 C 268.019 -1.22634 5.78545 0
M  V30 2766 H 266.949 -0.306679 0.688813 0
M  V30 2767 H 269.6 -0.0639887 1.83388 0
M  V30 2768 H 267.982 -2.2876 3.23241 0
M  V30 2769 H 269.156 0.221659 4.60267 0
M  V30 2770 H 267.471 0.042146 4.16379 0
M  V30 2771 H 270.068 -2.70253 4.61376 0
M  V30 2772 H 270.411 -2.96562 2.92158 0
M  V30 2773 H 270.944 -1.45658 3.70174 0
M  V30 2774 H 267.683 -0.483832 6.53712 0
M  V30 2775 H 267.203 -1.95993 5.66874 0
M  V30 2776 H 268.882 -1.75615 6.2271 0
M  V30 2777 N 269.014 -1.53014 -0.377408 0
M  V30 2778 C 270.26 -1.68872 -1.12294 0
M  V30 2779 C 270.593 -0.433224 -1.89306 0
M  V30 2780 O 269.868 0.569258 -1.85983 0
M  V30 2781 C 270.151 -2.93115 -2.09179 0
M  V30 2782 C 270.004 -4.28794 -1.35853 0
M  V30 2783 C 271.323 -3.12928 -3.09458 0
M  V30 2784 H 268.442 -0.614518 -0.406862 0
M  V30 2785 H 271.084 -1.85633 -0.40503 0
M  V30 2786 H 269.234 -2.78956 -2.70399 0
M  V30 2787 H 270.906 -4.54742 -0.775082 0
M  V30 2788 H 269.149 -4.28744 -0.660364 0
M  V30 2789 H 269.82 -5.11837 -2.06706 0
M  V30 2790 H 272.296 -3.26194 -2.58334 0
M  V30 2791 H 271.172 -4.01316 -3.74482 0
M  V30 2792 H 271.433 -2.27669 -3.78971 0
M  V30 2793 N 270.492 0.636531 -1.44174 0
M  V30 2794 C 271.439 1.74875 -1.50624 0
M  V30 2795 C 272.409 1.62275 -0.35442 0
M  V30 2796 O 273.594 1.82276 -0.563908 0
M  V30 2797 C 270.734 3.13102 -1.45125 0
M  V30 2798 C 269.847 3.36717 -2.7064 0
M  V30 2799 C 268.982 4.64885 -2.57013 0
M  V30 2800 C 268.021 4.8166 -3.77717 0
M  V30 2801 N 267.158 6.01101 -3.62798 0
M  V30 2802 H 271.998 1.68697 -2.45653 0
M  V30 2803 H 269.535 0.823004 -1.21922 0
M  V30 2804 H 271.493 3.93034 -1.39929 0
M  V30 2805 H 270.123 3.18308 -0.536671 0
M  V30 2806 H 269.175 2.50763 -2.86046 0
M  V30 2807 H 270.487 3.44993 -3.60252 0
M  V30 2808 H 269.641 5.52969 -2.49619 0
M  V30 2809 H 268.38 4.58957 -1.64953 0
M  V30 2810 H 267.385 3.92007 -3.85501 0
M  V30 2811 H 268.61 4.89406 -4.70807 0
M  V30 2812 H 266.556 5.96273 -2.73486 0
M  V30 2813 H 266.473 6.10409 -4.46023 0
M  V30 2814 H 267.741 6.91761 -3.59286 0
M  V30 2815 N 271.97 1.30982 0.876444 0
M  V30 2816 C 272.88 1.2003 2.01569 0
M  V30 2817 C 273.896 0.11838 1.73597 0
M  V30 2818 O 275.072 0.33495 1.98595 0
M  V30 2819 C 272.137 0.901637 3.34771 0
M  V30 2820 C 271.198 2.06979 3.76109 0
M  V30 2821 C 270.431 1.78529 5.02954 0
M  V30 2822 O 270.654 0.717296 5.65872 0
M  V30 2823 O 269.588 2.64019 5.40905 0
M  V30 2824 H 273.414 2.15753 2.13739 0
M  V30 2825 H 270.999 1.10658 1.00375 0
M  V30 2826 H 272.881 0.750645 4.1466 0
M  V30 2827 H 271.556 -0.0256141 3.2369 0
M  V30 2828 H 270.463 2.27616 2.96887 0
M  V30 2829 H 271.796 2.97907 3.91807 0
M  V30 2830 N 273.449 -1.08991 1.13837 0
M  V30 2831 C 274.695 -1.81526 0.90422 0
M  V30 2832 C 275.028 -1.85706 -0.568066 0
M  V30 2833 O 274.303 -1.32855 -1.42056 0
M  V30 2834 C 274.586 -3.27447 1.49835 0
M  V30 2835 C 274.439 -3.31512 3.04006 0
M  V30 2836 C 275.758 -4.24256 1.17025 0
M  V30 2837 H 272.877 -0.659029 0.329923 0
M  V30 2838 H 275.519 -1.27644 1.40737 0
M  V30 2839 H 273.669 -3.73462 1.07044 0
M  V30 2840 H 275.341 -2.93867 3.55584 0
M  V30 2841 H 273.584 -2.70963 3.38765 0
M  V30 2842 H 274.255 -4.34329 3.40679 0
M  V30 2843 H 276.731 -3.86549 1.54009 0
M  V30 2844 H 275.607 -5.24684 1.61237 0
M  V30 2845 H 275.868 -4.42019 0.0846274 0
M  V30 2846 N 274.927 -0.932562 -1.27047 0
M  V30 2847 C 276.175 -0.574422 -1.93765 0
M  V30 2848 C 276.496 0.887993 -1.73608 0
M  V30 2849 O 275.766 1.62999 -1.08665 0
M  V30 2850 H 274.346 -0.209451 -0.717035 0
M  V30 2851 H 277.008 -1.18601 -1.5466 0
M  V30 2852 H 276.104 -0.784841 -3.02071 0
M  V30 2853 N 276.405 1.4127 -0.698611 0
M  V30 2854 C 277.652 2.0118 -0.230865 0
M  V30 2855 C 277.98 1.55338 1.17049 0
M  V30 2856 O 277.235 0.756775 1.80475 0
M  V30 2857 C 277.534 3.56592 -0.240192 0
M  V30 2858 C 277.2 4.21955 -1.58948 0
M  V30 2859 C 275.862 4.39524 -1.95887 0
M  V30 2860 C 278.214 4.58576 -2.47704 0
M  V30 2861 C 275.542 4.90992 -3.2116 0
M  V30 2862 C 277.894 5.11435 -3.72313 0
M  V30 2863 C 276.558 5.27215 -4.0939 0
M  V30 2864 H 275.828 0.736169 -0.0844796 0
M  V30 2865 H 278.475 1.69124 -0.8983 0
M  V30 2866 H 276.78 3.88456 0.510797 0
M  V30 2867 H 278.477 4.00758 0.139296 0
M  V30 2868 H 275.067 4.08657 -1.29219 0
M  V30 2869 H 279.251 4.44654 -2.20445 0
M  V30 2870 H 274.507 5.01393 -3.49878 0
M  V30 2871 H 278.681 5.38752 -4.4127 0
M  V30 2872 H 276.308 5.66859 -5.06533 0
M  V30 2873 N 277.883 0.443576 1.51229 0
M  V30 2874 C 279.131 -0.120557 2.0174 0
M  V30 2875 C 279.452 -1.42665 1.32935 0
M  V30 2876 O 278.722 -1.9028 0.465866 0
M  V30 2877 H 277.302 -0.0475426 0.745486 0
M  V30 2878 H 279.964 0.587711 1.85828 0
M  V30 2879 H 279.06 -0.291972 3.10731 0
M  V30 2880 N 279.361 -1.56624 0.175154 0
M  V30 2881 C 280.294 -2.14 -0.792412 0
M  V30 2882 C 281.272 -1.07114 -1.22333 0
M  V30 2883 O 282.456 -1.35112 -1.31442 0
M  V30 2884 C 279.583 -2.68268 -2.0676 0
M  V30 2885 C 278.629 -3.87562 -1.7804 0
M  V30 2886 S 279.462 -5.27074 -0.946222 0
M  V30 2887 C 280.618 -5.8475 -2.23199 0
M  V30 2888 H 280.851 -2.95736 -0.304588 0
M  V30 2889 H 278.384 -1.54349 -0.0395705 0
M  V30 2890 H 280.342 -3.00182 -2.80002 0
M  V30 2891 H 279.003 -1.86612 -2.52656 0
M  V30 2892 H 278.196 -4.23874 -2.72666 0
M  V30 2893 H 277.798 -3.56555 -1.12891 0
M  V30 2894 H 280.09 -5.97898 -3.18629 0
M  V30 2895 H 281.033 -6.81756 -1.91349 0
M  V30 2896 H 281.441 -5.13198 -2.35134 0
M  V30 2897 N 280.839 0.0985539 -1.57292 0
M  V30 2898 C 282.064 0.820196 -1.90493 0
M  V30 2899 C 282.489 1.71658 -0.769094 0
M  V30 2900 O 281.847 1.79133 0.279495 0
M  V30 2901 C 281.895 1.61242 -3.22542 0
M  V30 2902 O 280.999 2.72108 -3.09888 0
M  V30 2903 H 280.34 0.225547 -0.62452 0
M  V30 2904 H 282.87 0.0748159 -2.04463 0
M  V30 2905 H 282.88 1.99737 -3.55766 0
M  V30 2906 H 281.555 0.954535 -4.04798 0
M  V30 2907 H 280.132 2.36667 -2.88172 0
M  V30 2908 N 282.317 1.53212 0.369288 0
M  V30 2909 C 283.264 1.79388 1.45219 0
M  V30 2910 C 284.234 0.638059 1.53356 0
M  V30 2911 O 285.419 0.879852 1.69302 0
M  V30 2912 C 282.559 1.98623 2.82211 0
M  V30 2913 C 281.672 3.26337 2.8307 0
M  V30 2914 C 280.807 3.35779 4.11614 0
M  V30 2915 C 279.846 4.5754 4.06601 0
M  V30 2916 N 278.983 4.64155 5.26787 0
M  V30 2917 H 283.823 2.71794 1.22198 0
M  V30 2918 H 281.36 1.34642 0.592444 0
M  V30 2919 H 283.318 2.07761 3.61789 0
M  V30 2920 H 281.948 1.09558 3.03639 0
M  V30 2921 H 281 3.26171 1.95747 0
M  V30 2922 H 282.312 4.15988 2.75237 0
M  V30 2923 H 281.466 3.44208 4.99606 0
M  V30 2924 H 280.205 2.44137 4.22195 0
M  V30 2925 H 279.21 4.49215 3.16996 0
M  V30 2926 H 280.435 5.50519 3.97625 0
M  V30 2927 H 278.381 3.75413 5.3796 0
M  V30 2928 H 278.298 5.47706 5.21109 0
M  V30 2929 H 279.566 4.76863 6.16621 0
M  V30 2930 N 283.795 -0.628877 1.44509 0
M  V30 2931 C 284.758 -1.72263 1.51188 0
M  V30 2932 C 285.758 -1.55907 0.39367 0
M  V30 2933 O 286.948 -1.61361 0.656377 0
M  V30 2934 C 284.08 -3.11365 1.38798 0
M  V30 2935 H 285.273 -1.67714 2.4862 0
M  V30 2936 H 282.826 -0.842737 1.31634 0
M  V30 2937 H 283.561 -3.21507 0.424693 0
M  V30 2938 H 283.346 -3.24644 2.19884 0
M  V30 2939 H 284.836 -3.91075 1.46458 0
M  V30 2940 N 285.273 -1.31445 -0.869486 0
M  V30 2941 C 286.498 -1.24256 -1.66058 0
M  V30 2942 C 286.923 0.188928 -1.87149 0
M  V30 2943 O 286.281 1.13522 -1.4136 0
M  V30 2944 C 286.329 -1.9924 -3.00559 0
M  V30 2945 O 285.433 -1.33007 -3.90362 0
M  V30 2946 H 284.774 -0.428973 -0.506831 0
M  V30 2947 H 287.304 -1.73521 -1.08404 0
M  V30 2948 H 287.314 -2.08854 -3.50491 0
M  V30 2949 H 285.989 -3.03342 -2.84528 0
M  V30 2950 H 284.566 -1.31848 -3.48813 0
M  V30 2951 N 286.751 1.08385 -1.14413 0
M  V30 2952 C 287.714 2.13486 -0.834048 0
M  V30 2953 C 288.714 1.59988 0.161418 0
M  V30 2954 O 289.904 1.74071 -0.0669575 0
M  V30 2955 C 287.036 3.4003 -0.243354 0
M  V30 2956 H 288.229 2.42425 -1.7655 0
M  V30 2957 H 285.782 1.24101 -0.950189 0
M  V30 2958 H 286.517 3.16726 0.696807 0
M  V30 2959 H 286.302 3.80157 -0.960367 0
M  V30 2960 H 287.792 4.17577 -0.0436242 0
M  V30 2961 N 288.23 0.939286 1.26551 0
M  V30 2962 C 289.478 0.58469 1.93457 0
M  V30 2963 C 289.799 -0.878774 1.74076 0
M  V30 2964 O 289.069 -1.62421 1.09528 0
M  V30 2965 H 287.649 0.21325 0.715914 0
M  V30 2966 H 290.311 1.1942 1.54029 0
M  V30 2967 H 289.407 0.800849 3.0165 0
M  V30 2968 N 289.708 -1.40897 0.706093 0
M  V30 2969 C 290.655 -2.30751 0.0474474 0
M  V30 2970 C 291.625 -1.47678 -0.76029 0
M  V30 2971 O 292.81 -1.76441 -0.726177 0
M  V30 2972 C 289.95 -3.33815 -0.875309 0
M  V30 2973 C 289.063 -4.31961 -0.0580623 0
M  V30 2974 C 288.198 -5.22093 -0.979425 0
M  V30 2975 C 287.237 -6.11902 -0.155706 0
M  V30 2976 N 286.374 -6.94482 -1.03144 0
M  V30 2977 H 291.214 -2.86513 0.819413 0
M  V30 2978 H 288.751 -1.41102 0.415783 0
M  V30 2979 H 290.709 -3.92129 -1.42446 0
M  V30 2980 H 289.339 -2.79579 -1.61356 0
M  V30 2981 H 288.391 -3.75507 0.608147 0
M  V30 2982 H 289.703 -4.95415 0.580082 0
M  V30 2983 H 288.857 -5.85292 -1.59744 0
M  V30 2984 H 287.596 -4.5889 -1.65141 0
M  V30 2985 H 286.601 -5.47742 0.475309 0
M  V30 2986 H 287.826 -6.77162 0.512635 0
M  V30 2987 H 285.772 -6.33877 -1.68924 0
M  V30 2988 H 285.689 -7.54665 -0.449108 0
M  V30 2989 H 286.957 -7.6214 -1.63593 0
M  V30 2990 N 291.186 -0.45159 -1.50991 0
M  V30 2991 C 292.116 0.342898 -2.30969 0
M  V30 2992 C 293.097 1.00815 -1.37005 0
M  V30 2993 O 294.282 1.00907 -1.65926 0
M  V30 2994 C 291.412 1.43637 -3.16205 0
M  V30 2995 C 290.366 0.893818 -4.18563 0
M  V30 2996 C 289.692 2.08411 -4.92411 0
M  V30 2997 C 290.992 -0.0815568 -5.22236 0
M  V30 2998 H 292.686 -0.324556 -2.97636 0
M  V30 2999 H 290.232 -0.157531 -1.43136 0
M  V30 3000 H 292.185 1.9995 -3.70942 0
M  V30 3001 H 290.909 2.13232 -2.47386 0
M  V30 3002 H 289.568 0.352798 -3.64898 0
M  V30 3003 H 289.216 2.76658 -4.20082 0
M  V30 3004 H 288.916 1.72741 -5.61636 0
M  V30 3005 H 290.44 2.65251 -5.49976 0
M  V30 3006 H 291.854 0.391742 -5.7196 0
M  V30 3007 H 290.251 -0.351551 -5.99069 0
M  V30 3008 H 291.321 -1.01374 -4.74185 0
M  V30 3009 N 292.664 1.56529 -0.183458 0
M  V30 3010 C 293.894 2.01331 0.463612 0
M  V30 3011 C 294.302 1.06278 1.5653 0
M  V30 3012 O 293.645 0.0577976 1.83609 0
M  V30 3013 C 293.707 3.42547 1.09096 0
M  V30 3014 C 293.371 4.56817 0.129442 0
M  V30 3015 C 294.368 5.15734 -0.656807 0
M  V30 3016 C 292.053 5.02295 0.02174 0
M  V30 3017 C 294.047 6.1857 -1.53784 0
M  V30 3018 C 291.734 6.04978 -0.862864 0
M  V30 3019 C 292.732 6.62988 -1.64123 0
M  V30 3020 O 292.42 7.63677 -2.51103 0
M  V30 3021 H 292.152 0.664917 0.121907 0
M  V30 3022 H 294.706 2.034 -0.285954 0
M  V30 3023 H 292.936 3.37428 1.88889 0
M  V30 3024 H 294.625 3.71228 1.64148 0
M  V30 3025 H 295.391 4.81473 -0.583839 0
M  V30 3026 H 291.27 4.56847 0.617392 0
M  V30 3027 H 294.814 6.63777 -2.14583 0
M  V30 3028 H 290.711 6.38663 -0.93699 0
M  V30 3029 H 291.479 7.81049 -2.44753 0
M  V30 3030 N 294.142 -0.090211 1.57342 0
M  V30 3031 C 295.052 -1.12735 2.05738 0
M  V30 3032 C 296.068 -1.43557 0.983231 0
M  V30 3033 O 297.244 -1.54101 1.29672 0
M  V30 3034 C 294.309 -2.42659 2.47624 0
M  V30 3035 C 293.37 -2.18975 3.69254 0
M  V30 3036 C 292.603 -3.42704 4.09133 0
M  V30 3037 O 292.826 -4.51127 3.49057 0
M  V30 3038 O 291.76 -3.32003 5.02053 0
M  V30 3039 H 295.586 -0.746279 2.94388 0
M  V30 3040 H 293.171 -0.303064 1.46294 0
M  V30 3041 H 295.053 -3.19155 2.7517 0
M  V30 3042 H 293.728 -2.80182 1.62109 0
M  V30 3043 H 292.635 -1.40244 3.46818 0
M  V30 3044 H 293.968 -1.86342 4.55563 0
M  V30 3045 N 295.62 -1.53406 -0.361157 0
M  V30 3046 C 296.583 -1.79479 -1.42548 0
M  V30 3047 C 297.583 -0.665327 -1.4639 0
M  V30 3048 O 298.773 -0.933549 -1.47073 0
M  V30 3049 C 295.905 -1.92087 -2.8163 0
M  V30 3050 H 297.098 -2.74538 -1.20701 0
M  V30 3051 H 294.651 -1.4455 -0.594546 0
M  V30 3052 H 295.386 -0.991099 -3.08784 0
M  V30 3053 H 295.171 -2.74241 -2.80239 0
M  V30 3054 H 296.661 -2.13836 -3.58697 0
M  V30 3055 N 297.098 0.621204 -1.44841 0
M  V30 3056 C 298.346 1.37783 -1.47852 0
M  V30 3057 C 298.667 1.94653 -0.116224 0
M  V30 3058 O 297.937 1.76367 0.852737 0
M  V30 3059 H 296.517 0.511453 -0.544449 0
M  V30 3060 H 299.179 0.730446 -1.80694 0
M  V30 3061 H 298.275 2.20414 -2.20961 0
M  V30 3062 N 298.576 1.31904 0.862503 0
M  V30 3063 C 299.539 1.20131 1.95195 0
M  V30 3064 C 300.539 0.126409 1.60302 0
M  V30 3065 O 301.729 0.376234 1.70089 0
M  V30 3066 C 298.861 0.845691 3.30244 0
M  V30 3067 H 300.054 2.16943 2.07064 0
M  V30 3068 H 297.607 1.15622 1.05172 0
M  V30 3069 H 298.342 -0.120957 3.24074 0
M  V30 3070 H 298.127 1.62276 3.56944 0
M  V30 3071 H 299.617 0.787418 4.10109 0
M  V30 3072 N 300.054 -1.07777 1.14986 0
M  V30 3073 C 301.017 -2.13041 0.845358 0
M  V30 3074 C 302.017 -1.60071 -0.152931 0
M  V30 3075 O 303.207 -1.74033 0.0761879 0
M  V30 3076 C 300.339 -3.39896 0.261383 0
M  V30 3077 H 301.532 -2.41485 1.77834 0
M  V30 3078 H 299.085 -1.23595 0.956757 0
M  V30 3079 H 299.82 -3.17091 -0.68 0
M  V30 3080 H 299.605 -3.79642 0.980514 0
M  V30 3081 H 301.095 -4.17548 0.0657687 0
M  V30 3082 N 301.532 -0.945985 -1.26051 0
M  V30 3083 C 302.495 -0.463897 -2.24456 0
M  V30 3084 C 303.495 0.427655 -1.55009 0
M  V30 3085 O 304.685 0.226157 -1.72726 0
M  V30 3086 C 301.817 0.330812 -3.39291 0
M  V30 3087 H 303.01 -1.33357 -2.68619 0
M  V30 3088 H 300.563 -0.728416 -1.38289 0
M  V30 3089 H 301.298 1.21852 -3.00537 0
M  V30 3090 H 301.083 -0.308679 -3.90883 0
M  V30 3091 H 302.573 0.657865 -4.12386 0
M  V30 3092 N 303.011 1.40521 -0.713556 0
M  V30 3093 C 304.257 2.01221 -0.252564 0
M  V30 3094 C 304.59 1.56444 1.1506 0
M  V30 3095 O 303.865 0.783597 1.78017 0
M  V30 3096 C 304.148 3.58582 -0.330332 0
M  V30 3097 C 304.001 4.13437 -1.77173 0
M  V30 3098 C 305.32 4.39079 0.299641 0
M  V30 3099 H 302.439 0.731077 -0.0932471 0
M  V30 3100 H 305.081 1.67026 -0.905673 0
M  V30 3101 H 303.231 3.87844 0.225737 0
M  V30 3102 H 304.903 3.9498 -2.38303 0
M  V30 3103 H 303.146 3.67801 -2.3001 0
M  V30 3104 H 303.817 5.22597 -1.77755 0
M  V30 3105 H 306.293 4.15735 -0.174139 0
M  V30 3106 H 305.169 5.4848 0.214771 0
M  V30 3107 H 305.43 4.19915 1.38288 0
M  V30 3108 N 304.489 0.459591 1.5075 0
M  V30 3109 C 305.766 -0.160371 1.94941 0
M  V30 3110 C 306.146 -1.58048 1.39943 0
M  V30 3111 O 305.494 -2.206 0.595629 0
M  V30 3112 C 305.704 -0.115432 3.48809 0
M  V30 3113 C 307.052 -0.310026 4.23467 0
M  V30 3114 O 308.076 -0.192543 3.55679 0
M  V30 3115 O 306.935 -0.546031 5.43765 0
M  V30 3116 H 304.029 -0.117925 0.818549 0
M  V30 3117 H 306.575 0.519169 1.61563 0
M  V30 3118 H 305.347 0.87652 3.81357 0
M  V30 3119 H 304.97 -0.836928 3.88692 0
M  V30 3120 N 305.967 -1.56429 0.191757 0
M  V30 3121 C 307.216 -1.9666 -0.448088 0
M  V30 3122 C 307.529 -1.08136 -1.62991 0
M  V30 3123 O 308.735 -1.38135 -2.33733 0
M  V30 3124 C 307.191 -3.49753 -0.848585 0
M  V30 3125 C 306.799 -4.46935 0.308764 0
M  V30 3126 C 308.543 -3.9876 -1.4557 0
M  V30 3127 C 306.45 -5.91293 -0.112506 0
M  V30 3128 H 305.38 -0.734312 -0.171179 0
M  V30 3129 H 308.031 -1.81301 0.283242 0
M  V30 3130 H 306.413 -3.60604 -1.63649 0
M  V30 3131 H 307.587 -4.47813 1.08627 0
M  V30 3132 H 305.902 -4.08102 0.827158 0
M  V30 3133 H 308.499 -5.04086 -1.78328 0
M  V30 3134 H 308.842 -3.42875 -2.36099 0
M  V30 3135 H 309.375 -3.9101 -0.731836 0
M  V30 3136 H 306.114 -6.51097 0.758514 0
M  V30 3137 H 305.634 -5.93676 -0.854941 0
M  V30 3138 H 307.313 -6.44663 -0.549448 0
M  V30 3139 N 307.445 0.0818655 -1.57387 0
M  V30 3140 C 308.693 0.781368 -1.86384 0
M  V30 3141 C 309.014 1.78618 -0.782342 0
M  V30 3142 O 308.284 1.94976 0.190061 0
M  V30 3143 H 306.864 0.291562 -0.687751 0
M  V30 3144 H 309.526 0.060348 -1.94807 0
M  V30 3145 H 308.622 1.3038 -2.83562 0
M  V30 3146 N 308.923 1.53595 0.353017 0
M  V30 3147 C 310.171 1.70049 1.09215 0
M  V30 3148 C 310.492 0.461406 1.89463 0
M  V30 3149 O 309.762 -0.524633 1.88744 0
M  V30 3150 H 308.342 0.626912 0.40619 0
M  V30 3151 H 311.004 1.90822 0.396585 0
M  V30 3152 H 310.1 2.56718 1.77488 0
M  V30 3153 N 310.401 -0.613514 1.45168 0
M  V30 3154 C 311.631 -1.39743 1.52169 0
M  V30 3155 C 312.039 -1.88596 0.151086 0
M  V30 3156 O 311.382 -1.6251 -0.856521 0
M  V30 3157 C 311.444 -2.64035 2.43979 0
M  V30 3158 C 311.108 -2.36861 3.90827 0
M  V30 3159 C 312.105 -1.97591 4.80889 0
M  V30 3160 C 309.79 -2.49956 4.35692 0
M  V30 3161 C 311.784 -1.71768 6.1382 0
M  V30 3162 C 309.471 -2.23747 5.68665 0
M  V30 3163 C 310.469 -1.84714 6.57548 0
M  V30 3164 O 310.157 -1.58809 7.88058 0
M  V30 3165 H 309.889 -0.434382 0.517966 0
M  V30 3166 H 312.443 -0.75587 1.90986 0
M  V30 3167 H 310.673 -3.3089 2.00122 0
M  V30 3168 H 312.362 -3.26069 2.41731 0
M  V30 3169 H 313.128 -1.87015 4.47493 0
M  V30 3170 H 309.007 -2.79305 3.66756 0
M  V30 3171 H 312.551 -1.41227 6.83155 0
M  V30 3172 H 308.448 -2.33938 6.01617 0
M  V30 3173 H 309.216 -1.7291 8.00028 0
M  V30 3174 N 311.879 -1.3236 -0.855495 0
M  V30 3175 C 313.127 -1.22629 -1.60644 0
M  V30 3176 C 313.448 0.212136 -1.93843 0
M  V30 3177 O 312.718 1.13666 -1.59552 0
M  V30 3178 H 311.298 -0.450882 -0.595579 0
M  V30 3179 H 313.96 -1.65871 -1.02337 0
M  V30 3180 H 313.056 -1.80832 -2.54374 0
M  V30 3181 N 313.357 1.07166 -1.15556 0
M  V30 3182 C 314.605 1.79443 -0.929764 0
M  V30 3183 C 314.926 1.87246 0.544414 0
M  V30 3184 O 314.196 1.37473 1.39564 0
M  V30 3185 H 312.776 0.664625 -0.341003 0
M  V30 3186 H 315.438 1.29499 -1.45657 0
M  V30 3187 H 314.534 2.81832 -1.34079 0
M  V30 3188 N 314.835 0.952656 1.25548 0
M  V30 3189 C 316.063 0.623496 1.97282 0
M  V30 3190 C 316.478 -0.803987 1.70826 0
M  V30 3191 O 315.835 -1.53755 0.983147 0
M  V30 3192 C 315.886 0.870209 3.5087 0
M  V30 3193 O 315.607 2.24156 3.76412 0
M  V30 3194 C 317.108 0.553164 4.39835 0
M  V30 3195 H 314.328 0.233931 0.628902 0
M  V30 3196 H 316.872 1.27649 1.59768 0
M  V30 3197 H 315.027 0.263652 3.86502 0
M  V30 3198 H 315.441 2.31021 4.70882 0
M  V30 3199 H 316.915 0.776342 5.46513 0
M  V30 3200 H 317.392 -0.512215 4.36203 0
M  V30 3201 H 317.998 1.13896 4.09766 0
M  V30 3202 N 316.313 -1.40141 0.720998 0
M  V30 3203 C 317.261 -2.3252 0.0608547 0
M  V30 3204 C 318.255 -1.52326 -0.741152 0
M  V30 3205 O 319.461 -1.68089 -0.643911 0
M  V30 3206 H 315.836 -0.751999 0.000876664 0
M  V30 3207 H 317.807 -2.8584 0.856614 0
M  V30 3208 C 316.556 -3.37331 -0.842809 0
M  V30 3209 H 315.879 -3.99108 -0.235084 0
M  V30 3210 H 317.319 -4.04452 -1.27257 0
M  V30 3211 C 315.778 -2.73246 -1.97074 0
M  V30 3212 O 316.308 -2.59998 -3.06209 0
M  V30 3213 N 314.514 -2.31547 -1.75597 0
M  V30 3214 H 314.061 -2.42522 -0.868368 0
M  V30 3215 H 314.019 -1.89007 -2.51244 0
M  V30 3216 N 317.792 -0.46758 -1.50504 0
M  V30 3217 C 319.039 0.0886219 -2.02306 0
M  V30 3218 C 319.367 1.40037 -1.34981 0
M  V30 3219 O 318.622 1.90136 -0.463318 0
M  V30 3220 C 318.921 0.323995 -3.55928 0
M  V30 3221 C 318.587 -0.905618 -4.41712 0
M  V30 3222 C 317.249 -1.24275 -4.64875 0
M  V30 3223 C 319.601 -1.72448 -4.91845 0
M  V30 3224 C 316.929 -2.39888 -5.35417 0
M  V30 3225 C 319.281 -2.87185 -5.63656 0
M  V30 3226 C 317.945 -3.21317 -5.85074 0
M  V30 3227 H 317.215 0.0324291 -0.74029 0
M  V30 3228 H 319.862 -0.620945 -1.81153 0
M  V30 3229 H 318.167 1.11577 -3.75577 0
M  V30 3230 H 319.864 0.76826 -3.93572 0
M  V30 3231 H 316.454 -0.632956 -4.239 0
M  V30 3232 H 320.638 -1.4772 -4.73806 0
M  V30 3233 H 315.894 -2.66611 -5.50208 0
M  V30 3234 H 320.068 -3.50985 -6.01484 0
M  V30 3235 H 317.695 -4.1101 -6.39511 0
M  V30 3236 N 319.27 1.56325 -0.20005 0
M  V30 3237 C 320.495 2.02548 0.44597 0
M  V30 3238 C 320.92 1.07922 1.5406 0
M  V30 3239 O 320.278 0.0635775 1.81188 0
M  V30 3240 C 320.326 3.47175 0.974761 0
M  V30 3241 O 319.43 3.55671 2.08739 0
M  V30 3242 H 318.771 0.655862 0.103638 0
M  V30 3243 H 321.301 2.02201 -0.312381 0
M  V30 3244 H 321.311 3.87067 1.2901 0
M  V30 3245 H 319.986 4.15538 0.17347 0
M  V30 3246 H 318.563 3.27657 1.78032 0
M  V30 3247 N 320.748 -0.0735177 1.57428 0
M  V30 3248 C 321.695 -1.08756 2.0357 0
M  V30 3249 C 322.665 -1.38559 0.916 0
M  V30 3250 O 323.85 -1.49656 1.18354 0
M  V30 3251 C 320.99 -2.39657 2.48311 0
M  V30 3252 C 320.103 -2.16399 3.73892 0
M  V30 3253 C 319.238 -3.40852 4.07423 0
M  V30 3254 C 318.277 -3.1295 5.2605 0
M  V30 3255 N 317.414 -4.29729 5.55228 0
M  V30 3256 H 322.254 -0.687104 2.8997 0
M  V30 3257 H 319.791 -0.327709 1.43403 0
M  V30 3258 H 321.749 -3.16081 2.72303 0
M  V30 3259 H 320.379 -2.77508 1.64891 0
M  V30 3260 H 319.431 -1.30676 3.57251 0
M  V30 3261 H 320.743 -1.91788 4.60455 0
M  V30 3262 H 319.897 -4.25671 4.32306 0
M  V30 3263 H 318.636 -3.68537 3.19425 0
M  V30 3264 H 317.641 -2.26526 5.00965 0
M  V30 3265 H 318.866 -2.86589 6.15665 0
M  V30 3266 H 316.812 -4.57448 4.70188 0
M  V30 3267 H 316.729 -4.08385 6.36206 0
M  V30 3268 H 317.997 -5.1555 5.84661 0
M  V30 3269 N 322.226 -1.5378 -0.344866 0
M  V30 3270 C 323.475 -1.7018 -1.08267 0
M  V30 3271 C 323.788 -0.471 -1.89845 0
M  V30 3272 O 324.994 -0.515917 -2.66553 0
M  V30 3273 C 323.45 -3.00923 -1.97417 0
M  V30 3274 C 323.058 -4.31335 -1.21053 0
M  V30 3275 C 324.802 -3.26688 -2.71063 0
M  V30 3276 C 322.709 -5.53153 -2.09225 0
M  V30 3277 H 321.639 -0.634138 -0.407903 0
M  V30 3278 H 324.29 -1.8028 -0.342246 0
M  V30 3279 H 322.672 -2.84676 -2.75274 0
M  V30 3280 H 323.846 -4.58281 -0.481159 0
M  V30 3281 H 322.161 -4.12173 -0.591813 0
M  V30 3282 H 324.758 -4.1489 -3.37299 0
M  V30 3283 H 325.101 -2.43639 -3.37558 0
M  V30 3284 H 325.634 -3.43705 -2.0028 0
M  V30 3285 H 322.373 -6.38741 -1.47274 0
M  V30 3286 H 321.893 -5.30458 -2.79955 0
M  V30 3287 H 323.572 -5.88744 -2.68308 0
M  V30 3288 N 323.704 0.605807 -1.45491 0
M  V30 3289 C 324.614 1.74466 -1.56839 0
M  V30 3290 C 325.63 1.68006 -0.452772 0
M  V30 3291 O 326.806 1.8833 -0.713708 0
M  V30 3292 C 323.871 3.10931 -1.53371 0
M  V30 3293 C 322.932 3.28832 -2.75986 0
M  V30 3294 C 322.165 4.58787 -2.72673 0
M  V30 3295 O 322.388 5.4122 -1.80102 0
M  V30 3296 O 321.322 4.79438 -3.63899 0
M  V30 3297 H 325.148 1.67843 -2.53106 0
M  V30 3298 H 322.733 0.770108 -1.28022 0
M  V30 3299 H 324.615 3.92233 -1.54051 0
M  V30 3300 H 323.29 3.18042 -0.602572 0
M  V30 3301 H 322.197 2.47112 -2.80867 0
M  V30 3302 H 323.53 3.26599 -3.68231 0
M  V30 3303 N 325.182 1.32811 0.848464 0
M  V30 3304 C 326.13 1.22231 1.97895 0
M  V30 3305 C 327.124 0.125749 1.68933 0
M  V30 3306 O 328.33 0.289083 1.77663 0
M  V30 3307 H 324.705 0.379058 0.649476 0
M  V30 3308 H 326.676 2.17828 2.03945 0
M  V30 3309 C 325.425 0.968572 3.33937 0
M  V30 3310 H 324.748 1.80458 3.56756 0
M  V30 3311 H 326.188 0.934808 4.13567 0
M  V30 3312 C 324.647 -0.328628 3.35293 0
M  V30 3313 O 325.177 -1.33848 3.78745 0
M  V30 3314 N 323.383 -0.352788 2.88451 0
M  V30 3315 H 322.93 0.469541 2.53285 0
M  V30 3316 H 322.888 -1.22057 2.89741 0
M  V30 3317 N 326.66 -1.06551 1.16123 0
M  V30 3318 C 327.59 -2.15935 0.88851 0
M  V30 3319 C 328.571 -1.69306 -0.164135 0
M  V30 3320 O 329.756 -1.94193 -0.0167857 0
M  V30 3321 C 326.886 -3.45149 0.385942 0
M  V30 3322 C 325.84 -4.05271 1.3762 0
M  V30 3323 C 325.166 -5.29664 0.732137 0
M  V30 3324 C 326.466 -4.44355 2.74493 0
M  V30 3325 H 328.16 -2.39006 1.80323 0
M  V30 3326 H 325.706 -1.14866 0.868435 0
M  V30 3327 H 327.659 -4.21004 0.182647 0
M  V30 3328 H 326.383 -3.21689 -0.564274 0
M  V30 3329 H 325.042 -3.3147 1.56599 0
M  V30 3330 H 324.69 -5.02499 -0.224483 0
M  V30 3331 H 324.39 -5.70848 1.39307 0
M  V30 3332 H 325.914 -6.08218 0.538802 0
M  V30 3333 H 327.328 -5.11303 2.59311 0
M  V30 3334 H 325.725 -4.96515 3.37035 0
M  V30 3335 H 326.795 -3.55339 3.29943 0
M  V30 3336 N 328.138 -0.959301 -1.25041 0
M  V30 3337 C 329.554 -0.664474 -1.4511 0
M  V30 3338 C 329.754 0.776481 -1.85938 0
M  V30 3339 O 328.81 1.55128 -1.99227 0
M  V30 3340 C 330.123 -1.64139 -2.5195 0
M  V30 3341 C 331.671 -1.65309 -2.65786 0
M  V30 3342 C 332.146 -2.61777 -3.75815 0
M  V30 3343 N 333.637 -2.60169 -3.83231 0
M  V30 3344 C 334.372 -3.31489 -4.6787 0
M  V30 3345 N 333.868 -4.12298 -5.56761 0
M  V30 3346 N 335.661 -3.20354 -4.61876 0
M  V30 3347 H 327.812 -1.89043 -0.968332 0
M  V30 3348 H 330.075 -0.813408 -0.4869 0
M  V30 3349 H 329.781 -2.67086 -2.28819 0
M  V30 3350 H 329.655 -1.40756 -3.49954 0
M  V30 3351 H 332.042 -0.630778 -2.8828 0
M  V30 3352 H 332.123 -1.92753 -1.68167 0
M  V30 3353 H 331.767 -3.64137 -3.54071 0
M  V30 3354 H 331.697 -2.31616 -4.72929 0
M  V30 3355 H 334.188 -2.01507 -3.19692 0
M  V30 3356 H 334.501 -4.63625 -6.18281 0
M  V30 3357 H 332.846 -4.16395 -5.56454 0
M  V30 3358 H 336.037 -2.56692 -3.91442 0
M  V30 3359 H 336.21 -3.76201 -5.27614 0
M  V30 3360 N 329.616 1.39756 -0.72842 0
M  V30 3361 C 331.032 1.5442 -0.403308 0
M  V30 3362 C 331.232 1.69694 1.08656 0
M  V30 3363 O 330.288 1.69373 1.87267 0
M  V30 3364 C 331.601 2.76555 -1.18058 0
M  V30 3365 C 333.149 2.90384 -1.16815 0
M  V30 3366 C 333.624 4.15449 -1.92785 0
M  V30 3367 N 335.115 4.22475 -1.89918 0
M  V30 3368 C 335.85 5.1818 -2.45514 0
M  V30 3369 N 335.346 6.19714 -3.09719 0
M  V30 3370 N 337.139 5.1035 -2.35584 0
M  V30 3371 H 329.29 1.28089 -1.69431 0
M  V30 3372 H 331.553 0.620327 -0.716867 0
M  V30 3373 H 331.259 2.7159 -2.23455 0
M  V30 3374 H 331.133 3.69033 -0.780662 0
M  V30 3375 H 333.52 2.94846 -0.12234 0
M  V30 3376 H 333.601 1.98988 -1.6074 0
M  V30 3377 H 333.245 4.11749 -2.97364 0
M  V30 3378 H 333.175 5.05877 -1.46272 0
M  V30 3379 H 335.666 3.49743 -1.43138 0
M  V30 3380 H 335.979 6.8919 -3.49625 0
M  V30 3381 H 334.324 6.20121 -3.13807 0
M  V30 3382 H 337.515 4.2996 -1.85072 0
M  V30 3383 H 337.688 5.84761 -2.79211 0
M  V30 3384 N 331.094 0.475555 1.50254 0
M  V30 3385 C 332.026 -0.352649 2.26471 0
M  V30 3386 C 333.039 -0.953165 1.3198 0
M  V30 3387 O 334.228 -0.840815 1.57457 0
M  V30 3388 C 331.328 -1.50902 3.0345 0
M  V30 3389 C 330.501 -1.02047 4.25329 0
M  V30 3390 C 329.56 -2.05142 4.84565 0
M  V30 3391 O 328.586 -1.63023 5.45355 0
M  V30 3392 N 329.788 -3.37987 4.71959 0
M  V30 3393 H 332.553 0.300767 2.98187 0
M  V30 3394 H 330.114 0.306598 1.5897 0
M  V30 3395 H 332.106 -2.19572 3.39956 0
M  V30 3396 H 330.676 -2.06705 2.34504 0
M  V30 3397 H 329.896 -0.159507 3.93877 0
M  V30 3398 H 331.184 -0.672061 5.04342 0
M  V30 3399 H 330.582 -3.74913 4.23623 0
M  V30 3400 H 329.139 -4.02443 5.12721 0
M  V30 3401 N 332.573 -1.56217 0.208337 0
M  V30 3402 C 333.989 -1.58919 -0.14729 0
M  V30 3403 C 334.189 -1.22486 -1.59998 0
M  V30 3404 O 333.245 -0.953849 -2.3379 0
M  V30 3405 C 334.558 -3.00236 0.167048 0
M  V30 3406 C 336.106 -3.12813 0.108219 0
M  V30 3407 C 336.581 -4.56284 0.396049 0
M  V30 3408 N 338.072 -4.61912 0.345142 0
M  V30 3409 C 338.807 -5.70837 0.541523 0
M  V30 3410 N 338.303 -6.88178 0.798968 0
M  V30 3411 N 340.096 -5.60091 0.474867 0
M  V30 3412 H 332.247 -1.78177 1.15614 0
M  V30 3413 H 334.51 -0.827555 0.462446 0
M  V30 3414 H 334.216 -3.31499 1.1748 0
M  V30 3415 H 334.09 -3.7354 -0.524184 0
M  V30 3416 H 336.477 -2.81354 -0.890157 0
M  V30 3417 H 336.558 -2.41866 0.832729 0
M  V30 3418 H 336.202 -4.88458 1.3918 0
M  V30 3419 H 336.132 -5.25439 -0.349502 0
M  V30 3420 H 338.623 -3.77589 0.153316 0
M  V30 3421 H 338.936 -7.67095 0.93727 0
M  V30 3422 H 337.281 -6.89953 0.836013 0
M  V30 3423 H 340.472 -4.67297 0.274064 0
M  V30 3424 H 340.645 -6.44917 0.631326 0
M  V30 3425 N 334.051 0.0651679 -1.57465 0
M  V30 3426 C 334.983 1.10359 -2.00882 0
M  V30 3427 C 335.996 1.346 -0.915788 0
M  V30 3428 O 337.185 1.32723 -1.1936 0
M  V30 3429 C 334.285 2.45312 -2.33828 0
M  V30 3430 C 333.458 2.40934 -3.65061 0
M  V30 3431 C 332.517 3.58047 -3.85602 0
M  V30 3432 O 331.543 3.39175 -4.57109 0
M  V30 3433 N 332.745 4.78637 -3.28462 0
M  V30 3434 H 335.51 0.733807 -2.90578 0
M  V30 3435 H 333.071 0.253719 -1.599 0
M  V30 3436 H 335.063 3.22314 -2.44737 0
M  V30 3437 H 333.633 2.74267 -1.49988 0
M  V30 3438 H 332.853 1.49273 -3.64844 0
M  V30 3439 H 334.141 2.35117 -4.51218 0
M  V30 3440 H 333.539 4.96872 -2.70433 0
M  V30 3441 H 332.096 5.53127 -3.44809 0
M  V30 3442 N 335.529 1.53961 0.336706 0
M  V30 3443 C 336.778 1.70751 1.07363 0
M  V30 3444 C 337.091 0.481061 1.89592 0
M  V30 3445 O 338.297 0.530046 2.66276 0
M  V30 3446 C 336.753 3.01965 1.95818 0
M  V30 3447 C 336.361 4.31971 1.18764 0
M  V30 3448 C 338.105 3.28121 2.69327 0
M  V30 3449 C 336.012 5.54255 2.06289 0
M  V30 3450 H 334.942 0.636292 0.404535 0
M  V30 3451 H 337.593 1.80459 0.332681 0
M  V30 3452 H 335.975 2.86132 2.7376 0
M  V30 3453 H 337.149 4.5853 0.456849 0
M  V30 3454 H 335.464 4.12481 0.569946 0
M  V30 3455 H 338.061 4.16673 3.35094 0
M  V30 3456 H 338.404 2.45426 3.36261 0
M  V30 3457 H 338.937 3.44762 1.98454 0
M  V30 3458 H 335.676 6.39513 1.43885 0
M  V30 3459 H 335.196 5.31935 2.77138 0
M  V30 3460 H 336.875 5.90159 2.65182 0
M  V30 3461 N 337.007 -0.598083 1.45811 0
M  V30 3462 C 338.232 -1.3881 1.54099 0
M  V30 3463 C 338.657 -1.8726 0.177578 0
M  V30 3464 O 338.015 -1.6069 -0.839541 0
M  V30 3465 C 338.063 -2.56217 2.53743 0
M  V30 3466 O 337.167 -3.5716 2.06182 0
M  V30 3467 H 336.508 -0.414024 0.519115 0
M  V30 3468 H 339.038 -0.726971 1.91249 0
M  V30 3469 H 339.048 -3.03337 2.72856 0
M  V30 3470 H 337.723 -2.20303 3.5276 0
M  V30 3471 H 336.3 -3.16624 1.96987 0
M  V30 3472 N 338.485 -1.33259 -0.841409 0
M  V30 3473 C 339.732 -1.24572 -1.5965 0
M  V30 3474 C 340.06 0.189137 -1.93578 0
M  V30 3475 O 339.315 1.14566 -1.5866 0
M  V30 3476 C 339.614 -2.06381 -2.9179 0
M  V30 3477 C 339.28 -3.556 -2.77235 0
M  V30 3478 C 337.942 -3.96282 -2.72973 0
M  V30 3479 C 340.294 -4.50433 -2.62221 0
M  V30 3480 C 337.622 -5.30017 -2.51592 0
M  V30 3481 C 339.974 -5.84327 -2.42374 0
M  V30 3482 C 338.638 -6.24194 -2.36512 0
M  V30 3483 H 337.908 -0.455842 -0.5842 0
M  V30 3484 H 340.555 -1.6482 -0.975016 0
M  V30 3485 H 338.86 -1.58903 -3.5813 0
M  V30 3486 H 340.557 -1.97019 -3.49263 0
M  V30 3487 H 337.147 -3.23298 -2.81384 0
M  V30 3488 H 341.331 -4.19914 -2.64549 0
M  V30 3489 H 336.587 -5.59947 -2.45499 0
M  V30 3490 H 340.761 -6.57414 -2.29739 0
M  V30 3491 H 338.388 -7.27759 -2.19706 0
M  V30 3492 N 339.963 1.05934 -1.16686 0
M  V30 3493 C 341.21 1.788 -0.950622 0
M  V30 3494 C 341.538 1.87384 0.521305 0
M  V30 3495 O 340.793 1.36438 1.40297 0
M  V30 3496 C 341.092 3.23105 -1.52767 0
M  V30 3497 C 340.758 3.34594 -3.02254 0
M  V30 3498 C 339.42 3.37437 -3.43059 0
M  V30 3499 C 341.772 3.36219 -3.98254 0
M  V30 3500 C 339.1 3.39525 -4.78477 0
M  V30 3501 C 341.452 3.39845 -5.33562 0
M  V30 3502 C 340.116 3.40971 -5.73842 0
M  V30 3503 H 339.386 0.654275 -0.347857 0
M  V30 3504 H 342.033 1.24555 -1.45459 0
M  V30 3505 H 340.338 3.80227 -0.94524 0
M  V30 3506 H 342.035 3.7809 -1.336 0
M  V30 3507 H 338.625 3.3309 -2.6972 0
M  V30 3508 H 342.809 3.33231 -3.67792 0
M  V30 3509 H 338.065 3.38703 -5.09009 0
M  V30 3510 H 342.239 3.4005 -6.07733 0
M  V30 3511 H 339.866 3.42342 -6.78753 0
M  V30 3512 N 341.441 0.965919 1.2453 0
M  V30 3513 C 342.389 0.486506 2.27455 0
M  V30 3514 C 343.383 -0.449041 1.6334 0
M  V30 3515 O 344.589 -0.324527 1.7705 0
M  V30 3516 H 340.964 0.138857 0.739069 0
M  V30 3517 H 342.935 1.3666 2.65267 0
M  V30 3518 C 341.684 -0.209481 3.47068 0
M  V30 3519 H 341.007 0.50129 3.96645 0
M  V30 3520 H 342.447 -0.508775 4.20936 0
M  V30 3521 C 340.906 -1.43586 3.0477 0
M  V30 3522 O 341.436 -2.53299 3.11773 0
M  V30 3523 N 339.642 -1.30126 2.59838 0
M  V30 3524 H 339.189 -0.408583 2.54339 0
M  V30 3525 H 339.147 -2.12294 2.31902 0
M  V30 3526 N 342.919 -1.39368 0.735821 0
M  V30 3527 C 344.144 -2.05319 0.293052 0
M  V30 3528 C 344.569 -1.55115 -1.064 0
M  V30 3529 O 343.927 -0.695261 -1.67439 0
M  V30 3530 C 343.975 -3.59305 0.305323 0
M  V30 3531 O 343.079 -4.06299 -0.706761 0
M  V30 3532 H 342.42 -0.650529 0.13307 0
M  V30 3533 H 344.95 -1.78386 1.00197 0
M  V30 3534 H 344.96 -4.07724 0.149997 0
M  V30 3535 H 343.635 -3.95207 1.29553 0
M  V30 3536 H 342.212 -3.69292 -0.517504 0
M  V30 3537 N 344.397 -0.483516 -1.5 0
M  V30 3538 C 345.643 0.0593261 -2.03313 0
M  V30 3539 C 345.998 1.36288 -1.35806 0
M  V30 3540 O 345.291 1.85519 -0.478897 0
M  V30 3541 C 345.485 0.286226 -3.56252 0
M  V30 3542 C 345.314 -0.993788 -4.38582 0
M  V30 3543 C 344.084 -1.54064 -4.81241 0
M  V30 3544 C 346.282 -1.89249 -4.78215 0
M  V30 3545 N 344.264 -2.76838 -5.47936 0
M  V30 3546 C 345.635 -2.96606 -5.44449 0
M  V30 3547 C 347.69 -1.90138 -4.60165 0
M  V30 3548 C 346.393 -4.04857 -5.94544 0
M  V30 3549 C 348.419 -2.97353 -5.1121 0
M  V30 3550 C 347.781 -4.03429 -5.77429 0
M  V30 3551 H 343.88 -0.0186322 -0.781778 0
M  V30 3552 H 346.464 -0.654489 -1.8337 0
M  V30 3553 H 344.635 0.969086 -3.76116 0
M  V30 3554 H 346.367 0.824515 -3.96212 0
M  V30 3555 H 343.122 -1.08813 -4.6093 0
M  V30 3556 H 343.546 -3.39221 -5.85882 0
M  V30 3557 H 348.188 -1.09441 -4.0839 0
M  V30 3558 H 345.906 -4.86363 -6.4535 0
M  V30 3559 H 349.492 -2.99039 -4.99066 0
M  V30 3560 H 348.372 -4.85025 -6.16214 0
M  V30 3561 N 345.875 1.56104 -0.216619 0
M  V30 3562 C 347.123 1.97781 0.415593 0
M  V30 3563 C 347.444 1.10536 1.60645 0
M  V30 3564 O 346.714 0.181303 1.95059 0
M  V30 3565 H 345.294 0.730415 0.156534 0
M  V30 3566 H 347.956 1.92445 -0.308366 0
M  V30 3567 H 347.052 3.03072 0.74525 0
M  V30 3568 N 347.353 -0.0568162 1.57498 0
M  V30 3569 C 348.602 -0.752001 1.87157 0
M  V30 3570 C 348.915 -1.77978 0.811375 0
M  V30 3571 O 350.121 -2.52559 0.996293 0
M  V30 3572 C 348.577 -1.38844 3.3204 0
M  V30 3573 C 348.185 -0.398456 4.46225 0
M  V30 3574 C 349.929 -2.06512 3.70882 0
M  V30 3575 C 347.836 -1.04166 5.82154 0
M  V30 3576 H 346.766 -0.28461 0.698222 0
M  V30 3577 H 349.417 -0.00561272 1.83499 0
M  V30 3578 H 347.799 -2.1836 3.30356 0
M  V30 3579 H 348.973 0.367977 4.59328 0
M  V30 3580 H 347.288 0.174592 4.16034 0
M  V30 3581 H 349.885 -2.55437 4.6974 0
M  V30 3582 H 350.228 -2.87117 3.01445 0
M  V30 3583 H 350.761 -1.33808 3.7462 0
M  V30 3584 H 347.5 -0.275614 6.5492 0
M  V30 3585 H 347.02 -1.7786 5.72823 0
M  V30 3586 H 348.699 -1.55715 6.27982 0
M  V30 3587 N 348.832 -1.54138 -0.328536 0
M  V30 3588 C 350.057 -1.76378 -1.09112 0
M  V30 3589 C 350.482 -0.508596 -1.81094 0
M  V30 3590 O 349.84 0.539598 -1.73084 0
M  V30 3591 C 349.888 -2.95358 -2.06872 0
M  V30 3592 O 348.992 -2.66556 -3.14677 0
M  V30 3593 H 348.333 -0.584614 -0.314838 0
M  V30 3594 H 350.863 -2.01146 -0.374348 0
M  V30 3595 H 350.873 -3.22566 -2.4983 0
M  V30 3596 H 349.548 -3.86385 -1.5388 0
M  V30 3597 H 348.125 -2.50282 -2.7643 0
M  V30 3598 N 350.31 0.590341 -1.46126 0
M  V30 3599 C 351.538 1.37504 -1.54597 0
M  V30 3600 C 351.953 1.87897 -0.184447 0
M  V30 3601 O 351.31 1.63192 0.816984 0
M  V30 3602 C 351.361 2.56779 -2.54454 0
M  V30 3603 O 351.082 2.08476 -3.85317 0
M  V30 3604 C 352.583 3.49427 -2.72792 0
M  V30 3605 H 349.803 0.420325 -0.523037 0
M  V30 3606 H 352.347 0.718383 -1.91467 0
M  V30 3607 H 350.502 3.1845 -2.20609 0
M  V30 3608 H 350.916 2.86097 -4.396 0
M  V30 3609 H 352.39 4.29619 -3.466 0
M  V30 3610 H 352.867 4.00876 -1.79429 0
M  V30 3611 H 353.473 2.93598 -3.07702 0
M  V30 3612 N 351.788 1.33704 0.83433 0
M  V30 3613 C 352.751 1.24244 1.92603 0
M  V30 3614 C 353.751 0.160383 1.59998 0
M  V30 3615 O 354.941 0.412228 1.69252 0
M  V30 3616 C 352.073 0.91555 3.28376 0
M  V30 3617 H 353.266 2.21287 2.02416 0
M  V30 3618 H 350.819 1.17827 1.02696 0
M  V30 3619 H 351.554 -0.0521886 3.24258 0
M  V30 3620 H 351.339 1.69811 3.53422 0
M  V30 3621 H 352.829 0.874231 4.08347 0
M  V30 3622 N 353.266 -1.05314 1.17247 0
M  V30 3623 C 354.229 -2.112 0.890357 0
M  V30 3624 C 355.229 -1.60359 -0.118943 0
M  V30 3625 O 356.419 -1.73833 0.113086 0
M  V30 3626 C 353.551 -3.39266 0.333422 0
M  V30 3627 H 354.744 -2.37659 1.82916 0
M  V30 3628 H 352.297 -1.21538 0.982758 0
M  V30 3629 H 353.032 -3.18462 -0.612587 0
M  V30 3630 H 352.817 -3.77477 1.06082 0
M  V30 3631 H 354.307 -4.17315 0.154322 0
M  V30 3632 N 354.744 -0.972509 -1.24016 0
M  V30 3633 C 355.969 -0.654417 -1.96805 0
M  V30 3634 C 356.394 0.770398 -1.716 0
M  V30 3635 O 355.752 1.52361 -0.982647 0
M  V30 3636 C 355.8 -0.941031 -3.48105 0
M  V30 3637 O 354.904 -0.0289472 -4.1239 0
M  V30 3638 H 354.245 -0.24692 -0.616382 0
M  V30 3639 H 356.775 -1.30396 -1.57664 0
M  V30 3640 H 356.785 -0.87452 -3.98517 0
M  V30 3641 H 355.46 -1.97939 -3.65777 0
M  V30 3642 H 354.037 -0.149192 -3.72601 0
M  V30 3643 N 356.222 1.38976 -0.743202 0
M  V30 3644 C 357.152 2.33171 -0.123873 0
M  V30 3645 C 358.133 1.54336 0.71516 0
M  V30 3646 O 359.318 1.82696 0.658467 0
M  V30 3647 C 356.448 3.38474 0.777978 0
M  V30 3648 C 355.402 4.27979 0.0424758 0
M  V30 3649 C 354.728 5.2405 1.06189 0
M  V30 3650 C 356.028 5.10155 -1.1198 0
M  V30 3651 H 357.722 2.85213 -0.910709 0
M  V30 3652 H 355.268 1.37133 -0.439388 0
M  V30 3653 H 357.221 4.03328 1.22084 0
M  V30 3654 H 355.945 2.84891 1.59702 0
M  V30 3655 H 354.604 3.64616 -0.380853 0
M  V30 3656 H 354.252 4.66758 1.87472 0
M  V30 3657 H 353.952 5.84785 0.574485 0
M  V30 3658 H 355.476 5.9178 1.50428 0
M  V30 3659 H 356.89 5.68307 -0.75499 0
M  V30 3660 H 355.287 5.80073 -1.53738 0
M  V30 3661 H 356.357 4.44504 -1.93764 0
M  V30 3662 N 357.7 0.491464 1.49741 0
M  V30 3663 C 358.663 -0.280906 2.27472 0
M  V30 3664 C 359.663 -0.902454 1.33088 0
M  V30 3665 O 360.853 -0.768465 1.56334 0
M  V30 3666 C 357.985 -1.40209 3.10732 0
M  V30 3667 H 359.178 0.401056 2.97206 0
M  V30 3668 H 356.731 0.246131 1.5435 0
M  V30 3669 H 357.466 -2.11849 2.45541 0
M  V30 3670 H 357.251 -0.961969 3.80117 0
M  V30 3671 H 358.741 -1.9464 3.69466 0
M  V30 3672 N 359.178 -1.55987 0.224894 0
M  V30 3673 C 360.088 -2.24066 -0.69511 0
M  V30 3674 C 361.104 -1.24939 -1.21104 0
M  V30 3675 O 362.28 -1.5776 -1.25195 0
M  V30 3676 C 359.345 -2.90983 -1.88493 0
M  V30 3677 C 358.406 -4.05462 -1.41064 0
M  V30 3678 C 357.639 -4.69179 -2.54375 0
M  V30 3679 O 357.862 -4.31895 -3.72589 0
M  V30 3680 O 356.796 -5.58108 -2.25386 0
M  V30 3681 H 360.622 -3.03353 -0.145149 0
M  V30 3682 H 358.207 -1.49399 -0.00569476 0
M  V30 3683 H 360.089 -3.33209 -2.57972 0
M  V30 3684 H 358.764 -2.14653 -2.42293 0
M  V30 3685 H 357.671 -3.67798 -0.683774 0
M  V30 3686 H 359.004 -4.83545 -0.918985 0
M  V30 3687 N 360.656 0.0484629 -1.57525 0
M  V30 3688 C 361.905 0.742065 -1.87553 0
M  V30 3689 C 362.218 1.77545 -0.820802 0
M  V30 3690 O 363.424 2.52027 -1.00967 0
M  V30 3691 C 361.88 1.37081 -3.32771 0
M  V30 3692 C 361.488 0.374786 -4.4643 0
M  V30 3693 C 363.232 2.04542 -3.71972 0
M  V30 3694 C 361.139 1.01077 -5.82698 0
M  V30 3695 H 360.069 0.280903 -0.699721 0
M  V30 3696 H 362.72 -0.00411877 -1.835 0
M  V30 3697 H 361.102 2.16605 -3.31509 0
M  V30 3698 H 362.276 -0.392331 -4.59127 0
M  V30 3699 H 360.591 -0.196653 -4.15935 0
M  V30 3700 H 363.188 2.52943 -4.71088 0
M  V30 3701 H 363.531 2.85515 -3.02964 0
M  V30 3702 H 364.064 1.31819 -3.75325 0
M  V30 3703 H 360.803 0.240878 -6.55057 0
M  V30 3704 H 360.323 1.74819 -5.73758 0
M  V30 3705 H 362.002 1.52383 -6.28799 0
M  V30 3706 N 362.134 1.5431 0.320358 0
M  V30 3707 C 363.55 1.45091 0.664889 0
M  V30 3708 C 363.75 0.626382 1.91517 0
M  V30 3709 O 362.806 0.126443 2.52183 0
M  V30 3710 C 364.119 2.88848 0.83591 0
M  V30 3711 C 365.667 2.9877 0.933046 0
M  V30 3712 C 366.142 4.43683 1.13621 0
M  V30 3713 N 367.633 4.47309 1.20287 0
M  V30 3714 C 368.368 5.56595 1.37801 0
M  V30 3715 N 367.864 6.75844 1.52338 0
M  V30 3716 N 369.657 5.44248 1.40535 0
M  V30 3717 H 361.808 2.06398 -0.501374 0
M  V30 3718 H 364.071 0.933963 -0.162534 0
M  V30 3719 H 363.777 3.51698 -0.0116092 0
M  V30 3720 H 363.651 3.35148 1.73078 0
M  V30 3721 H 366.038 2.36045 1.77107 0
M  V30 3722 H 366.119 2.55796 0.0145782 0
M  V30 3723 H 365.763 5.06995 0.303032 0
M  V30 3724 H 365.693 4.84269 2.0686 0
M  V30 3725 H 368.184 3.61388 1.10485 0
M  V30 3726 H 368.497 7.54892 1.65403 0
M  V30 3727 H 366.842 6.78746 1.4943 0
M  V30 3728 H 370.033 4.50038 1.28777 0
M  V30 3729 H 370.206 6.29473 1.53842 0
M  V30 3730 N 363.613 -0.582584 1.46437 0
M  V30 3731 C 364.838 -1.37168 1.55563 0
M  V30 3732 C 365.263 -1.87061 0.19743 0
M  V30 3733 O 364.621 -1.61572 -0.822451 0
M  V30 3734 C 364.669 -2.53511 2.56446 0
M  V30 3735 O 363.773 -3.54953 2.09958 0
M  V30 3736 H 363.114 -0.408494 0.523477 0
M  V30 3737 H 365.644 -0.706646 1.9201 0
M  V30 3738 H 365.654 -3.00426 2.76058 0
M  V30 3739 H 364.329 -2.16549 3.55076 0
M  V30 3740 H 362.906 -3.14516 2.00334 0
M  V30 3741 N 365.091 -1.34144 -0.827227 0
M  V30 3742 C 366.001 -1.27428 -1.96975 0
M  V30 3743 C 367.017 -0.182728 -1.73038 0
M  V30 3744 O 368.193 -0.408426 -1.97215 0
M  V30 3745 C 365.258 -1.02526 -3.31194 0
M  V30 3746 C 364.319 -2.20796 -3.68168 0
M  V30 3747 C 363.552 -1.97073 -4.95982 0
M  V30 3748 O 363.775 -0.926822 -5.6282 0
M  V30 3749 O 362.709 -2.83912 -5.30733 0
M  V30 3750 H 366.535 -2.23537 -2.05584 0
M  V30 3751 H 364.12 -1.14307 -0.961989 0
M  V30 3752 H 366.002 -0.904026 -4.11589 0
M  V30 3753 H 364.677 -0.0945389 -3.23562 0
M  V30 3754 H 363.584 -2.38477 -2.88235 0
M  V30 3755 H 364.917 -3.12243 -3.8048 0
M  V30 3756 N 366.569 1.04691 -1.17803 0
M  V30 3757 C 367.816 1.77782 -0.969532 0
M  V30 3758 C 368.144 1.87926 0.501401 0
M  V30 3759 O 367.399 1.37918 1.38842 0
M  V30 3760 C 367.698 3.21467 -1.56186 0
M  V30 3761 C 367.364 3.3137 -3.05786 0
M  V30 3762 C 366.026 3.3378 -3.46619 0
M  V30 3763 C 368.378 3.31976 -4.01797 0
M  V30 3764 C 365.706 3.34431 -4.82051 0
M  V30 3765 C 368.058 3.34167 -5.37136 0
M  V30 3766 C 366.722 3.34866 -5.77426 0
M  V30 3767 H 365.992 0.650549 -0.354777 0
M  V30 3768 H 368.639 1.23006 -1.46772 0
M  V30 3769 H 366.944 3.79203 -0.985515 0
M  V30 3770 H 368.641 3.76652 -1.37602 0
M  V30 3771 H 365.231 3.3021 -2.73238 0
M  V30 3772 H 369.415 3.29311 -3.71306 0
M  V30 3773 H 364.671 3.33285 -5.12573 0
M  V30 3774 H 368.845 3.33585 -6.11305 0
M  V30 3775 H 366.472 3.35124 -6.82346 0
M  V30 3776 N 368.047 0.979072 1.23499 0
M  V30 3777 C 369.458 0.684391 1.73704 0
M  V30 3778 C 369.809 -0.799448 1.79174 0
M  V30 3779 O 368.934 -1.62531 1.42873 0
M  V30 3780 C 369.529 1.23564 3.15464 0
M  V30 3781 C 368.088 0.99063 3.6313 0
M  V30 3782 C 367.235 1.36416 2.41425 0
M  V30 3783 H 370.186 1.15307 1.09041 0
M  V30 3784 H 370.207 0.607417 3.7562 0
M  V30 3785 H 369.719 2.31561 3.1145 0
M  V30 3786 H 367.82 -0.0733136 3.72528 0
M  V30 3787 H 367.933 1.64427 4.5 0
M  V30 3788 H 366.297 0.782616 2.42378 0
M  V30 3789 H 367.08 2.45387 2.40083 0
M  V30 3790 N 369.525 -1.3858 0.750561 0
M  V30 3791 C 370.488 -2.28836 0.129152 0
M  V30 3792 C 371.488 -1.47045 -0.650714 0
M  V30 3793 O 372.678 -1.6753 -0.477428 0
M  V30 3794 C 369.81 -3.30751 -0.825622 0
M  V30 3795 H 371.003 -2.85294 0.924516 0
M  V30 3796 H 368.556 -1.47489 0.517376 0
M  V30 3797 H 369.291 -2.79378 -1.64677 0
M  V30 3798 H 369.076 -3.91177 -0.268852 0
M  V30 3799 H 370.566 -3.98249 -1.2565 0
M  V30 3800 N 371.003 -0.499398 -1.49478 0
M  V30 3801 C 372.228 0.044722 -2.07352 0
M  V30 3802 C 372.653 1.30207 -1.35749 0
M  V30 3803 O 372.011 1.76516 -0.413732 0
M  V30 3804 C 372.059 0.283013 -3.59488 0
M  V30 3805 O 371.163 1.35804 -3.89398 0
M  V30 3806 H 370.504 -0.0255147 -0.66351 0
M  V30 3807 H 373.034 -0.698561 -1.92305 0
M  V30 3808 H 373.044 0.515007 -4.04737 0
M  V30 3809 H 371.719 -0.635636 -4.11014 0
M  V30 3810 H 370.296 1.11113 -3.55961 0
M  V30 3811 N 372.481 1.55866 -0.233164 0
M  V30 3812 C 373.709 2.02998 0.399905 0
M  V30 3813 C 374.124 1.11274 1.52524 0
M  V30 3814 O 373.481 0.124528 1.82075 0
M  V30 3815 C 373.532 3.4958 0.920639 0
M  V30 3816 O 373.253 4.37808 -0.159834 0
M  V30 3817 C 374.754 4.12411 1.62578 0
M  V30 3818 H 371.974 0.664006 0.0966281 0
M  V30 3819 H 374.518 2.0143 -0.353013 0
M  V30 3820 H 372.673 3.51727 1.62379 0
M  V30 3821 H 373.087 5.23981 0.23337 0
M  V30 3822 H 374.561 5.16711 1.94201 0
M  V30 3823 H 375.038 3.5809 2.54299 0
M  V30 3824 H 375.644 4.14148 0.967553 0
M  V30 3825 N 373.959 -0.0401083 1.57549 0
M  V30 3826 C 374.892 -1.07689 2.01192 0
M  V30 3827 C 375.87 -1.358 0.894273 0
M  V30 3828 O 377.054 -1.48642 1.15921 0
M  V30 3829 C 374.181 -2.41418 2.3756 0
M  V30 3830 C 373.227 -2.29237 3.59656 0
M  V30 3831 S 374.06 -1.65628 5.09242 0
M  V30 3832 C 375.216 -3.0087 5.48843 0
M  V30 3833 H 375.449 -0.705108 2.88817 0
M  V30 3834 H 372.982 -0.249724 1.52367 0
M  V30 3835 H 374.94 -3.18329 2.59186 0
M  V30 3836 H 373.601 -2.75747 1.50407 0
M  V30 3837 H 372.794 -3.27932 3.82722 0
M  V30 3838 H 372.396 -1.60469 3.37825 0
M  V30 3839 H 374.688 -3.97201 5.48851 0
M  V30 3840 H 375.631 -2.82549 6.49286 0
M  V30 3841 H 376.039 -3.02934 4.76331 0
M  V30 3842 N 375.437 -1.54477 -0.31217 0
M  V30 3843 C 376.686 -1.72438 -1.04633 0
M  V30 3844 C 376.999 -0.511163 -1.88803 0
M  V30 3845 O 378.205 -0.572341 -2.65399 0
M  V30 3846 C 376.661 -3.05043 -1.9099 0
M  V30 3847 C 376.269 -4.33806 -1.11877 0
M  V30 3848 C 378.013 -3.32364 -2.64073 0
M  V30 3849 C 375.92 -5.57467 -1.97445 0
M  V30 3850 H 374.85 -0.642647 -0.394361 0
M  V30 3851 H 377.501 -1.80966 -0.303929 0
M  V30 3852 H 375.883 -2.90451 -2.69173 0
M  V30 3853 H 377.057 -4.59199 -0.383843 0
M  V30 3854 H 375.372 -4.13336 -0.504252 0
M  V30 3855 H 377.969 -4.21951 -3.28423 0
M  V30 3856 H 378.312 -2.50745 -3.32314 0
M  V30 3857 H 378.845 -3.47875 -1.92944 0
M  V30 3858 H 375.584 -6.41722 -1.33692 0
M  V30 3859 H 375.104 -5.36277 -2.6864 0
M  V30 3860 H 376.783 -5.94303 -2.5576 0
M  V30 3861 N 376.915 0.57481 -1.46744 0
M  V30 3862 C 377.878 1.66533 -1.57478 0
M  V30 3863 C 378.878 1.54338 -0.451263 0
M  V30 3864 O 380.068 1.58814 -0.715813 0
M  V30 3865 C 377.2 3.05999 -1.50259 0
M  V30 3866 H 378.393 1.58372 -2.54673 0
M  V30 3867 H 375.946 0.793301 -1.34672 0
M  V30 3868 H 376.681 3.19709 -0.543725 0
M  V30 3869 H 376.466 3.16259 -2.31781 0
M  V30 3870 H 377.956 3.8537 -1.60872 0
M  V30 3871 N 378.394 1.34581 0.820102 0
M  V30 3872 C 379.619 1.30333 1.61332 0
M  V30 3873 C 380.044 -0.119339 1.87721 0
M  V30 3874 O 379.402 -1.08197 1.45475 0
M  V30 3875 C 379.45 2.10258 2.92957 0
M  V30 3876 O 378.554 1.47404 3.85157 0
M  V30 3877 H 377.895 0.447488 0.490561 0
M  V30 3878 H 380.425 1.77425 1.01889 0
M  V30 3879 H 380.435 2.21718 3.42498 0
M  V30 3880 H 379.11 3.13693 2.73074 0
M  V30 3881 H 377.687 1.44703 3.43679 0
M  V30 3882 N 379.872 -1.04064 1.18357 0
M  V30 3883 C 381.12 -1.76915 0.977013 0
M  V30 3884 C 381.441 -1.88624 -0.494577 0
M  V30 3885 O 380.711 -1.41125 -1.3587 0
M  V30 3886 H 379.291 -0.65535 0.358504 0
M  V30 3887 H 381.953 -1.25592 1.49039 0
M  V30 3888 H 381.049 -2.78178 1.41504 0
M  V30 3889 N 381.35 -0.985608 -1.22978 0
M  V30 3890 C 382.598 -0.656087 -1.91154 0
M  V30 3891 C 382.919 0.813561 -1.77218 0
M  V30 3892 O 382.189 1.58244 -1.1548 0
M  V30 3893 H 380.769 -0.239674 -0.707506 0
M  V30 3894 H 383.431 -1.25054 -1.49491 0
M  V30 3895 H 382.527 -0.912253 -2.9847 0
M  V30 3896 N 382.828 1.3818 -0.7579 0
M  V30 3897 C 383.758 2.33027 -0.148597 0
M  V30 3898 C 384.739 1.55085 0.69875 0
M  V30 3899 O 385.924 1.83384 0.639053 0
M  V30 3900 C 383.054 3.3928 0.742034 0
M  V30 3901 C 382.008 4.28 -0.00291946 0
M  V30 3902 C 381.334 5.25146 1.00625 0
M  V30 3903 C 382.634 5.08938 -1.17385 0
M  V30 3904 H 384.328 2.84231 -0.940909 0
M  V30 3905 H 381.874 1.36659 -0.453908 0
M  V30 3906 H 383.827 4.046 1.17799 0
M  V30 3907 H 382.551 2.86569 1.56671 0
M  V30 3908 H 381.21 3.64192 -0.419504 0
M  V30 3909 H 380.858 4.68721 1.8251 0
M  V30 3910 H 380.558 5.85361 0.512428 0
M  V30 3911 H 382.082 5.93342 1.44143 0
M  V30 3912 H 383.496 5.67474 -0.815224 0
M  V30 3913 H 381.893 5.7841 -1.59882 0
M  V30 3914 H 382.963 4.42424 -1.98468 0
M  V30 3915 N 384.306 0.507319 1.49211 0
M  V30 3916 C 385.238 -0.304532 2.27168 0
M  V30 3917 C 386.251 -0.924956 1.33972 0
M  V30 3918 O 387.44 -0.807227 1.59205 0
M  V30 3919 C 384.54 -1.44431 3.06583 0
M  V30 3920 C 383.713 -0.930026 4.27398 0
M  V30 3921 C 382.772 -1.94817 4.88807 0
M  V30 3922 O 381.798 -1.51418 5.4869 0
M  V30 3923 N 383 -3.279 4.79022 0
M  V30 3924 H 385.765 0.36395 2.97482 0
M  V30 3925 H 383.326 0.340249 1.58284 0
M  V30 3926 H 385.318 -2.12311 3.44537 0
M  V30 3927 H 383.888 -2.01684 2.38835 0
M  V30 3928 H 383.108 -0.0759244 3.94127 0
M  V30 3929 H 384.396 -0.564932 5.05654 0
M  V30 3930 H 383.794 -3.65843 4.3148 0
M  V30 3931 H 382.351 -3.91476 5.21142 0
M  V30 3932 N 385.784 -1.5574 0.241426 0
M  V30 3933 C 387.061 -1.90704 -0.434881 0
M  V30 3934 C 387.441 -1.16145 -1.76277 0
M  V30 3935 O 386.789 -0.277152 -2.26813 0
M  V30 3936 C 386.999 -3.43657 -0.608343 0
M  V30 3937 C 388.347 -4.14806 -0.906725 0
M  V30 3938 O 389.371 -3.49366 -0.694408 0
M  V30 3939 O 388.23 -5.30548 -1.31075 0
M  V30 3940 H 385.324 -0.793592 -0.23268 0
M  V30 3941 H 387.87 -1.67288 0.285086 0
M  V30 3942 H 386.642 -3.89927 0.327505 0
M  V30 3943 H 386.265 -3.72918 -1.37906 0
M  V30 3944 N 387.262 0.0317525 -1.57568 0
M  V30 3945 C 388.225 1.01783 -2.0536 0
M  V30 3946 C 389.225 1.29203 -0.957253 0
M  V30 3947 O 390.415 1.24251 -1.22095 0
M  V30 3948 C 387.547 2.35137 -2.46827 0
M  V30 3949 H 388.74 0.605062 -2.93733 0
M  V30 3950 H 386.293 0.278514 -1.53799 0
M  V30 3951 H 387.028 2.81168 -1.61602 0
M  V30 3952 H 386.813 2.16566 -3.26866 0
M  V30 3953 H 388.303 3.05938 -2.84239 0
M  V30 3954 N 388.74 1.54641 0.303973 0
M  V30 3955 C 389.67 1.88386 1.3796 0
M  V30 3956 C 390.651 0.742485 1.5304 0
M  V30 3957 O 391.836 0.997959 1.66597 0
M  V30 3958 C 388.966 2.12854 2.74427 0
M  V30 3959 C 387.92 3.28702 2.74115 0
M  V30 3960 C 387.246 3.38582 4.13844 0
M  V30 3961 C 388.546 4.65881 2.3612 0
M  V30 3962 H 390.24 2.78474 1.09966 0
M  V30 3963 H 387.786 1.33988 0.527556 0
M  V30 3964 H 389.739 2.35047 3.49758 0
M  V30 3965 H 388.463 1.19535 3.03939 0
M  V30 3966 H 387.122 3.06428 2.0124 0
M  V30 3967 H 386.77 2.42784 4.40528 0
M  V30 3968 H 386.47 4.16453 4.14537 0
M  V30 3969 H 387.994 3.63031 4.90959 0
M  V30 3970 H 389.408 4.87823 3.01167 0
M  V30 3971 H 387.805 5.46444 2.48031 0
M  V30 3972 H 388.875 4.66799 1.3125 0
M  V30 3973 N 390.218 -0.567019 1.47046 0
M  V30 3974 C 391.495 -1.3276 1.43646 0
M  V30 3975 C 391.875 -2.1071 0.128186 0
M  V30 3976 O 391.223 -2.10441 -0.890326 0
M  V30 3977 C 391.433 -2.2404 2.67595 0
M  V30 3978 C 392.781 -2.85372 3.14401 0
M  V30 3979 O 393.805 -2.34346 2.68254 0
M  V30 3980 O 392.664 -3.78091 3.946 0
M  V30 3981 H 389.758 -0.597293 0.571988 0
M  V30 3982 H 392.304 -0.586735 1.59234 0
M  V30 3983 H 391.076 -1.65975 3.54356 0
M  V30 3984 H 390.699 -3.05439 2.54544 0
M  V30 3985 N 391.696 -1.35014 -0.812953 0
M  V30 3986 C 392.942 -1.2812 -1.57204 0
M  V30 3987 C 393.275 0.145869 -1.93651 0
M  V30 3988 O 392.55 1.0937 -1.60836 0
M  V30 3989 C 392.833 -2.18162 -2.86492 0
M  V30 3990 C 392.686 -3.69454 -2.56561 0
M  V30 3991 C 394.005 -2.07439 -3.88145 0
M  V30 3992 H 391.124 -0.466746 -0.570366 0
M  V30 3993 H 393.766 -1.65357 -0.935783 0
M  V30 3994 H 391.916 -1.86535 -3.40789 0
M  V30 3995 H 393.588 -4.11493 -2.08497 0
M  V30 3996 H 391.831 -3.9005 -1.89851 0
M  V30 3997 H 392.502 -4.27835 -3.48799 0
M  V30 3998 H 394.978 -2.35228 -3.4323 0
M  V30 3999 H 393.854 -2.7265 -4.76396 0
M  V30 4000 H 394.115 -1.05439 -4.29343 0
M  V30 4001 N 393.175 1.03435 -1.18907 0
M  V30 4002 C 394.138 2.09756 -0.923844 0
M  V30 4003 C 395.138 1.60528 0.093416 0
M  V30 4004 O 396.328 1.73631 -0.140727 0
M  V30 4005 C 393.46 3.38692 -0.387354 0
M  V30 4006 H 394.653 2.34719 -1.86674 0
M  V30 4007 H 392.206 1.19959 -1.00197 0
M  V30 4008 H 392.941 3.19396 0.561845 0
M  V30 4009 H 392.726 3.75742 -1.12074 0
M  V30 4010 H 394.216 4.17016 -0.220694 0
M  V30 4011 N 394.653 0.992116 1.22453 0
M  V30 4012 C 395.6 0.541731 2.24352 0
M  V30 4013 C 396.57 -0.425519 1.60557 0
M  V30 4014 O 397.755 -0.330453 1.87917 0
M  V30 4015 C 394.895 -0.138248 3.44823 0
M  V30 4016 C 394.008 0.870649 4.23136 0
M  V30 4017 C 393.143 0.164269 5.30946 0
M  V30 4018 C 392.182 1.16159 6.00977 0
M  V30 4019 N 391.319 0.483568 7.00433 0
M  V30 4020 H 396.159 1.41541 2.62241 0
M  V30 4021 H 393.696 0.709013 1.28885 0
M  V30 4022 H 395.654 -0.5494 4.13567 0
M  V30 4023 H 394.284 -0.975721 3.077 0
M  V30 4024 H 393.336 1.40013 3.53696 0
M  V30 4025 H 394.648 1.63014 4.7141 0
M  V30 4026 H 393.802 -0.303653 6.0594 0
M  V30 4027 H 392.541 -0.627733 4.83643 0
M  V30 4028 H 391.546 1.64015 5.24766 0
M  V30 4029 H 392.771 1.95445 6.50368 0
M  V30 4030 H 390.717 -0.289012 6.55363 0
M  V30 4031 H 390.634 1.18152 7.4671 0
M  V30 4032 H 391.902 0.0384219 7.79491 0
M  V30 4033 N 396.131 -1.37776 0.765217 0
M  V30 4034 C 397.094 -2.28686 0.153416 0
M  V30 4035 C 398.094 -1.47727 -0.635081 0
M  V30 4036 O 399.284 -1.68027 -0.459632 0
M  V30 4037 C 396.416 -3.31608 -0.790495 0
M  V30 4038 H 397.609 -2.84297 0.954723 0
M  V30 4039 H 395.162 -1.46932 0.53299 0
M  V30 4040 H 395.897 -2.81109 -1.61705 0
M  V30 4041 H 395.682 -3.9144 -0.227348 0
M  V30 4042 H 397.172 -3.99559 -1.21419 0
M  V30 4043 N 397.609 -0.515225 -1.4894 0
M  V30 4044 C 398.858 0.0261361 -2.01683 0
M  V30 4045 C 399.171 1.36719 -1.39883 0
M  V30 4046 O 400.377 1.99606 -1.84037 0
M  V30 4047 C 398.833 0.0970111 -3.59769 0
M  V30 4048 C 398.441 -1.23825 -4.30548 0
M  V30 4049 C 400.185 0.587981 -4.20408 0
M  V30 4050 C 398.092 -1.12877 -5.80528 0
M  V30 4051 H 397.022 0.0135398 -0.753878 0
M  V30 4052 H 399.673 -0.656787 -1.71343 0
M  V30 4053 H 398.055 0.844694 -3.86886 0
M  V30 4054 H 399.229 -2.00034 -4.15118 0
M  V30 4055 H 397.544 -1.66379 -3.81716 0
M  V30 4056 H 400.141 0.68763 -5.3026 0
M  V30 4057 H 400.484 1.59026 -3.84729 0
M  V30 4058 H 401.017 -0.103582 -3.97665 0
M  V30 4059 H 397.756 -2.10575 -6.20756 0
M  V30 4060 H 397.276 -0.407799 -5.98412 0
M  V30 4061 H 398.955 -0.813332 -6.41868 0
M  V30 4062 N 399.087 1.5561 -0.249682 0
M  V30 4063 C 400.05 2.20217 0.635394 0
M  V30 4064 C 401.05 1.17227 1.10066 0
M  V30 4065 O 402.24 1.42292 1.00492 0
M  V30 4066 C 399.372 2.84794 1.87363 0
M  V30 4067 H 400.565 2.99814 0.0716752 0
M  V30 4068 H 398.118 1.563 -0.000153234 0
M  V30 4069 H 398.853 2.09142 2.47851 0
M  V30 4070 H 398.638 3.60241 1.5482 0
M  V30 4071 H 400.128 3.3423 2.5036 0
M  V30 4072 N 400.565 -0.0233959 1.57583 0
M  V30 4073 C 401.495 -1.02162 2.09965 0
M  V30 4074 C 402.476 -1.3735 1.00344 0
M  V30 4075 O 403.661 -1.46135 1.27899 0
M  V30 4076 C 400.791 -2.32081 2.58371 0
M  V30 4077 C 399.745 -2.1112 3.72307 0
M  V30 4078 C 399.071 -3.46848 4.06941 0
M  V30 4079 C 400.371 -1.49276 5.00514 0
M  V30 4080 H 402.065 -0.585557 2.93618 0
M  V30 4081 H 399.611 -0.280218 1.41247 0
M  V30 4082 H 401.564 -3.02249 2.93639 0
M  V30 4083 H 400.288 -2.77758 1.71808 0
M  V30 4084 H 398.947 -1.43384 3.37397 0
M  V30 4085 H 398.595 -3.90184 3.17436 0
M  V30 4086 H 398.295 -3.33646 4.83688 0
M  V30 4087 H 399.819 -4.18369 4.44747 0
M  V30 4088 H 401.233 -2.09368 5.33702 0
M  V30 4089 H 399.63 -1.46632 5.8191 0
M  V30 4090 H 400.7 -0.459217 4.82721 0
M  V30 4091 N 402.043 -1.548 -0.295768 0
M  V30 4092 C 403.291 -1.73985 -1.02828 0
M  V30 4093 C 403.612 -0.531406 -1.87619 0
M  V30 4094 O 402.882 0.454221 -1.90561 0
M  V30 4095 H 401.462 -0.641556 -0.382642 0
M  V30 4096 H 404.124 -1.92163 -0.325489 0
M  V30 4097 H 403.22 -2.63129 -1.67838 0
M  V30 4098 N 403.521 0.559213 -1.47345 0
M  V30 4099 C 404.484 1.64854 -1.59235 0
M  V30 4100 C 405.484 1.53851 -0.467607 0
M  V30 4101 O 406.674 1.58045 -0.732617 0
M  V30 4102 C 403.806 3.04388 -1.53496 0
M  V30 4103 H 404.999 1.55662 -2.56339 0
M  V30 4104 H 402.552 0.778973 -1.35505 0
M  V30 4105 H 403.287 3.19115 -0.577604 0
M  V30 4106 H 403.072 3.13783 -2.35123 0
M  V30 4107 H 404.562 3.83642 -1.6495 0
M  V30 4108 N 404.999 1.35443 0.805782 0
M  V30 4109 C 406.224 1.32037 1.59941 0
M  V30 4110 C 406.649 -0.0994215 1.87837 0
M  V30 4111 O 406.007 -1.06648 1.46615 0
M  V30 4112 C 406.055 2.13354 2.90711 0
M  V30 4113 O 405.159 1.5148 3.83572 0
M  V30 4114 H 404.5 0.452666 0.485787 0
M  V30 4115 H 407.03 1.78496 1.00002 0
M  V30 4116 H 407.04 2.25338 3.40128 0
M  V30 4117 H 405.715 3.16572 2.69732 0
M  V30 4118 H 404.292 1.4834 3.42125 0
M  V30 4119 N 406.477 -1.02803 1.19454 0
M  V30 4120 C 407.717 -1.77769 1.00883 0
M  V30 4121 C 408.081 -1.86596 -0.45233 0
M  V30 4122 O 409.282 -2.57895 -0.757877 0
M  V30 4123 C 407.553 -3.16486 1.66046 0
M  V30 4124 S 409.112 -4.07632 1.62424 0
M  V30 4125 H 405.93 -0.611949 0.361993 0
M  V30 4126 H 408.532 -1.23175 1.51816 0
M  V30 4127 H 407.236 -3.0768 2.7159 0
M  V30 4128 H 406.767 -3.76156 1.15196 0
M  V30 4129 H 408.782 -4.91937 0.64903 0
M  V30 4130 N 407.956 -0.998596 -1.21925 0
M  V30 4131 C 409.184 -0.696286 -1.94832 0
M  V30 4132 C 409.599 0.740032 -1.73692 0
M  V30 4133 O 408.956 1.5 -1.03953 0
M  V30 4134 C 409.007 -0.999833 -3.47398 0
M  V30 4135 O 408.728 -2.37972 -3.67833 0
M  V30 4136 C 410.229 -0.716025 -4.37479 0
M  V30 4137 H 407.449 -0.257111 -0.619786 0
M  V30 4138 H 409.993 -1.33491 -1.54921 0
M  V30 4139 H 408.148 -0.406918 -3.85257 0
M  V30 4140 H 408.562 -2.48338 -4.61983 0
M  V30 4141 H 410.036 -0.978642 -5.43256 0
M  V30 4142 H 410.513 0.349968 -4.37803 0
M  V30 4143 H 411.119 -1.29025 -4.05256 0
M  V30 4144 N 409.434 1.37368 -0.772513 0
M  V30 4145 C 410.682 1.99279 -0.336516 0
M  V30 4146 C 411.003 1.6163 1.09091 0
M  V30 4147 O 410.273 0.882109 1.74916 0
M  V30 4148 H 408.853 0.737063 -0.121435 0
M  V30 4149 H 411.515 1.67836 -0.990809 0
M  V30 4150 H 410.611 3.09332 -0.414763 0
M  V30 4151 N 410.912 0.523116 1.48665 0
M  V30 4152 C 411.845 -0.290518 2.26343 0
M  V30 4153 C 412.823 -0.950913 1.31895 0
M  V30 4154 O 414.007 -0.976662 1.61225 0
M  V30 4155 C 411.134 -1.41088 3.07915 0
M  V30 4156 C 410.18 -0.862597 4.17686 0
M  V30 4157 S 411.013 0.264135 5.34848 0
M  V30 4158 C 412.169 -0.858864 6.19979 0
M  V30 4159 H 412.402 0.368726 2.95005 0
M  V30 4160 H 409.935 0.30878 1.51281 0
M  V30 4161 H 411.893 -2.0527 3.55492 0
M  V30 4162 H 410.554 -2.04182 2.38681 0
M  V30 4163 H 409.747 -1.70287 4.74361 0
M  V30 4164 H 409.349 -0.297595 3.72814 0
M  V30 4165 H 411.641 -1.7591 6.54264 0
M  V30 4166 H 412.584 -0.330244 7.07329 0
M  V30 4167 H 412.992 -1.13617 5.52948 0
M  V30 4168 N 412.39 -1.55475 0.257931 0
M  V30 4169 C 413.353 -2.20551 -0.623706 0
M  V30 4170 C 414.353 -1.17809 -1.09443 0
M  V30 4171 O 415.543 -1.42823 -0.997362 0
M  V30 4172 C 412.675 -2.85784 -1.8585 0
M  V30 4173 H 413.868 -2.99848 -0.0557743 0
M  V30 4174 H 411.421 -1.56298 0.0084422 0
M  V30 4175 H 412.156 -2.10453 -2.46739 0
M  V30 4176 H 411.941 -3.61057 -1.52907 0
M  V30 4177 H 413.431 -3.35553 -2.48584 0
M  V30 4178 N 413.868 0.0150385 -1.57593 0
M  V30 4179 C 415.116 0.701613 -1.8953 0
M  V30 4180 C 415.437 1.75139 -0.857396 0
M  V30 4181 O 414.707 1.95607 0.107194 0
M  V30 4182 H 413.287 0.26213 -0.699498 0
M  V30 4183 H 415.949 -0.0223304 -1.94887 0
M  V30 4184 H 415.045 1.18236 -2.88837 0
M  V30 4185 N 415.346 1.54954 0.287554 0
M  V30 4186 C 416.296 1.8322 1.357 0
M  V30 4187 C 417.28 0.690152 1.45347 0
M  V30 4188 O 418.472 0.951137 1.49273 0
M  V30 4189 C 415.601 2.09481 2.71979 0
M  V30 4190 C 414.687 3.29906 2.66502 0
M  V30 4191 N 415.078 4.50154 2.30641 0
M  V30 4192 C 413.376 3.32203 2.97585 0
M  V30 4193 C 414.077 5.32209 2.34794 0
M  V30 4194 N 413.053 4.70258 2.72688 0
M  V30 4195 H 416.855 2.73746 1.0696 0
M  V30 4196 H 414.369 1.54635 0.496167 0
M  V30 4197 H 416.366 2.27882 3.49107 0
M  V30 4198 H 415.026 1.2023 3.0162 0
M  V30 4199 H 416.037 4.76515 2.02865 0
M  V30 4200 H 412.714 2.53101 3.32034 0
M  V30 4201 H 414.104 6.38321 2.09753 0
M  V30 4202 N 416.824 -0.551391 1.4764 0
M  V30 4203 C 418.071 -1.3083 1.54563 0
M  V30 4204 C 418.399 -1.93359 0.210361 0
M  V30 4205 O 417.654 -1.78721 -0.797332 0
M  V30 4206 C 417.953 -2.43469 2.61644 0
M  V30 4207 C 417.619 -1.98732 4.04742 0
M  V30 4208 C 416.281 -1.86248 4.43695 0
M  V30 4209 C 418.633 -1.64659 4.94507 0
M  V30 4210 C 415.961 -1.37995 5.70241 0
M  V30 4211 C 418.313 -1.17875 6.21521 0
M  V30 4212 C 416.977 -1.03992 6.5935 0
M  V30 4213 H 416.247 -0.478741 0.565587 0
M  V30 4214 H 418.894 -0.617697 1.81264 0
M  V30 4215 H 417.199 -3.18109 2.28722 0
M  V30 4216 H 418.896 -3.01642 2.64222 0
M  V30 4217 H 415.486 -2.09393 3.73968 0
M  V30 4218 H 419.67 -1.73174 4.65107 0
M  V30 4219 H 414.926 -1.25915 5.98294 0
M  V30 4220 H 419.1 -0.905739 6.90485 0
M  V30 4221 H 416.727 -0.663794 7.57296 0
M  V30 4222 N 418.302 -1.35869 -0.798587 0
M  V30 4223 C 419.232 -1.32118 -1.92528 0
M  V30 4224 C 420.213 -0.194209 -1.68988 0
M  V30 4225 O 421.398 -0.390426 -1.90235 0
M  V30 4226 C 418.528 -1.10047 -3.29404 0
M  V30 4227 C 417.482 -2.19471 -3.67446 0
M  V30 4228 C 416.808 -1.82555 -5.02571 0
M  V30 4229 C 418.108 -3.61495 -3.76987 0
M  V30 4230 H 419.802 -2.26394 -1.95924 0
M  V30 4231 H 417.348 -1.08981 -0.94123 0
M  V30 4232 H 419.301 -1.06061 -4.07835 0
M  V30 4233 H 418.025 -0.122195 -3.26371 0
M  V30 4234 H 416.684 -2.22568 -2.91306 0
M  V30 4235 H 416.332 -0.833249 -4.9605 0
M  V30 4236 H 416.032 -2.5581 -5.28995 0
M  V30 4237 H 417.556 -1.80108 -5.83432 0
M  V30 4238 H 418.97 -3.60676 -4.4563 0
M  V30 4239 H 417.367 -4.33577 -4.14887 0
M  V30 4240 H 418.437 -3.97065 -2.78329 0
M  V30 4241 N 419.78 1.02168 -1.19998 0
M  V30 4242 C 420.727 2.10601 -0.944228 0
M  V30 4243 C 421.697 1.65639 0.123664 0
M  V30 4244 O 422.882 1.9079 -0.0199941 0
M  V30 4245 C 420.022 3.41504 -0.496865 0
M  V30 4246 C 419.135 3.99973 -1.63234 0
M  V30 4247 C 418.27 5.18915 -1.13579 0
M  V30 4248 C 417.309 5.69456 -2.24468 0
M  V30 4249 N 416.446 6.79665 -1.76068 0
M  V30 4250 H 421.286 2.31814 -1.8726 0
M  V30 4251 H 418.823 1.13686 -0.933483 0
M  V30 4252 H 420.781 4.16626 -0.218843 0
M  V30 4253 H 419.411 3.2038 0.394508 0
M  V30 4254 H 418.463 3.21997 -2.0254 0
M  V30 4255 H 419.775 4.33492 -2.46752 0
M  V30 4256 H 418.929 6.01222 -0.813429 0
M  V30 4257 H 417.668 4.8695 -0.270434 0
M  V30 4258 H 416.673 4.85757 -2.57526 0
M  V30 4259 H 417.898 6.03459 -3.11472 0
M  V30 4260 H 415.844 6.49538 -0.918516 0
M  V30 4261 H 415.761 7.12349 -2.5317 0
M  V30 4262 H 417.029 7.65549 -1.46817 0
M  V30 4263 N 421.258 1.00505 1.21394 0
M  V30 4264 C 422.221 0.570459 2.21987 0
M  V30 4265 C 423.221 -0.353211 1.56873 0
M  V30 4266 O 424.411 -0.14349 1.73608 0
M  V30 4267 C 421.543 -0.168555 3.40483 0
M  V30 4268 H 422.736 1.46021 2.6195 0
M  V30 4269 H 420.289 0.793565 1.34656 0
M  V30 4270 H 421.024 -1.07374 3.06009 0
M  V30 4271 H 420.809 0.494823 3.88965 0
M  V30 4272 H 422.299 -0.460362 4.15055 0
M  V30 4273 N 422.737 -1.36956 0.779787 0
M  V30 4274 C 423.667 -2.32761 0.185651 0
M  V30 4275 C 424.648 -1.56177 -0.673989 0
M  V30 4276 O 425.833 -1.84378 -0.609797 0
M  V30 4277 C 422.963 -3.40418 -0.687964 0
M  V30 4278 C 421.917 -4.27941 0.0710102 0
M  V30 4279 C 421.243 -5.26681 -0.922573 0
M  V30 4280 C 422.543 -5.07006 1.25467 0
M  V30 4281 H 424.237 -2.82698 0.986008 0
M  V30 4282 H 421.783 -1.3592 0.475592 0
M  V30 4283 H 423.736 -4.06423 -1.11348 0
M  V30 4284 H 422.46 -2.89025 -1.52093 0
M  V30 4285 H 421.119 -3.63478 0.47739 0
M  V30 4286 H 420.767 -4.71565 -1.7503 0
M  V30 4287 H 420.467 -5.86103 -0.419237 0
M  V30 4288 H 421.991 -5.9556 -1.34686 0
M  V30 4289 H 423.405 -5.66105 0.905401 0
M  V30 4290 H 421.802 -5.75793 1.69063 0
M  V30 4291 H 422.872 -4.3921 2.05481 0
M  V30 4292 N 424.215 -0.530993 -1.48385 0
M  V30 4293 C 425.443 -0.00134122 -2.069 0
M  V30 4294 C 425.858 1.2805 -1.3874 0
M  V30 4295 O 425.215 1.76204 -0.475244 0
M  V30 4296 C 425.266 0.225256 -3.60798 0
M  V30 4297 O 424.987 -1.0058 -4.26398 0
M  V30 4298 C 426.488 0.795172 -4.3611 0
M  V30 4299 H 423.708 -0.0339704 -0.67014 0
M  V30 4300 H 426.252 -0.736926 -1.90761 0
M  V30 4301 H 424.407 0.910891 -3.76539 0
M  V30 4302 H 424.821 -0.787165 -5.1856 0
M  V30 4303 H 426.295 0.903143 -5.44562 0
M  V30 4304 H 426.772 1.80031 -4.00606 0
M  V30 4305 H 427.378 0.146069 -4.25049 0
M  V30 4306 N 425.693 1.55336 -0.266172 0
M  V30 4307 C 426.97 1.91372 0.404486 0
M  V30 4308 C 427.35 1.18935 1.74407 0
M  V30 4309 O 426.698 0.3132 2.26343 0
M  V30 4310 C 426.908 3.44581 0.553593 0
M  V30 4311 C 428.256 4.16196 0.840618 0
M  V30 4312 O 429.28 3.50426 0.638739 0
M  V30 4313 O 428.139 5.32567 1.22618 0
M  V30 4314 H 425.233 0.797194 0.220025 0
M  V30 4315 H 427.779 1.66813 -0.311664 0
M  V30 4316 H 426.551 3.89357 -0.389498 0
M  V30 4317 H 426.174 3.75065 1.31955 0
M  V30 4318 N 427.171 -0.0066808 1.57599 0
M  V30 4319 C 428.396 -0.707738 1.94951 0
M  V30 4320 C 428.821 -1.66882 0.867868 0
M  V30 4321 O 428.179 -1.80457 -0.17458 0
M  V30 4322 C 428.227 -1.42162 3.31394 0
M  V30 4323 O 427.331 -2.53578 3.25226 0
M  V30 4324 H 426.672 -0.188752 0.636607 0
M  V30 4325 H 429.202 0.0445193 2.04552 0
M  V30 4326 H 429.212 -1.78655 3.66806 0
M  V30 4327 H 427.887 -0.716903 4.09675 0
M  V30 4328 H 426.464 -2.19463 3.01481 0
M  V30 4329 N 428.649 -1.55105 -0.279332 0
M  V30 4330 C 429.897 -1.75066 -1.00977 0
M  V30 4331 C 430.218 -0.551276 -1.87045 0
M  V30 4332 O 429.488 0.433984 -1.91032 0
M  V30 4333 H 428.068 -0.645578 -0.375816 0
M  V30 4334 H 430.73 -1.92497 -0.305089 0
M  V30 4335 H 429.826 -2.64894 -1.65038 0
M  V30 4336 N 430.127 0.543554 -1.4793 0
M  V30 4337 C 431.037 1.67657 -1.64098 0
M  V30 4338 C 432.053 1.65934 -0.523622 0
M  V30 4339 O 433.229 1.85133 -0.792943 0
M  V30 4340 C 430.294 3.04146 -1.66421 0
M  V30 4341 C 429.355 3.16831 -2.89684 0
M  V30 4342 C 428.588 4.46809 -2.91886 0
M  V30 4343 O 428.811 5.33095 -2.02895 0
M  V30 4344 O 427.745 4.63573 -3.83906 0
M  V30 4345 H 431.571 1.56957 -2.59997 0
M  V30 4346 H 429.156 0.715116 -1.31173 0
M  V30 4347 H 431.038 3.85346 -1.70548 0
M  V30 4348 H 429.713 3.152 -0.736923 0
M  V30 4349 H 428.62 2.34977 -2.91095 0
M  V30 4350 H 429.953 3.10687 -3.81752 0
M  V30 4351 N 431.605 1.3629 0.791371 0
M  V30 4352 C 432.515 1.32606 1.93527 0
M  V30 4353 C 433.531 0.228541 1.72493 0
M  V30 4354 O 434.707 0.460571 1.96063 0
M  V30 4355 C 431.772 1.11271 3.28359 0
M  V30 4356 C 430.833 2.3048 3.62185 0
M  V30 4357 C 430.066 2.10154 4.90583 0
M  V30 4358 O 430.289 1.07572 5.60165 0
M  V30 4359 O 429.223 2.97884 5.23019 0
M  V30 4360 H 433.049 2.28909 1.99585 0
M  V30 4361 H 430.634 1.16818 0.931344 0
M  V30 4362 H 432.516 1.01283 4.09047 0
M  V30 4363 H 431.191 0.180292 3.23198 0
M  V30 4364 H 430.098 2.46036 2.81811 0
M  V30 4365 H 431.431 3.22221 3.72068 0
M  V30 4366 N 433.083 -1.0153 1.20538 0
M  V30 4367 C 434.331 -1.74803 1.01432 0
M  V30 4368 C 434.652 -1.8963 -0.454456 0
M  V30 4369 O 433.922 -1.43975 -1.32846 0
M  V30 4370 H 432.502 -0.647598 0.372324 0
M  V30 4371 H 435.164 -1.22402 1.5167 0
M  V30 4372 H 434.26 -2.75114 1.47373 0
M  V30 4373 N 434.561 -1.01147 -1.20859 0
M  V30 4374 C 435.491 -0.597663 -2.25722 0
M  V30 4375 C 436.472 0.384744 -1.65692 0
M  V30 4376 O 437.657 0.271303 -1.92296 0
M  V30 4377 C 434.787 0.0700149 -3.47229 0
M  V30 4378 C 433.741 -0.832843 -4.19819 0
M  V30 4379 C 433.067 -0.0312202 -5.34691 0
M  V30 4380 C 434.367 -2.1385 -4.76514 0
M  V30 4381 H 436.061 -1.47423 -2.60589 0
M  V30 4382 H 433.607 -0.710301 -1.25263 0
M  V30 4383 H 435.56 0.37103 -4.19763 0
M  V30 4384 H 434.284 0.981259 -3.11511 0
M  V30 4385 H 432.943 -1.11778 -3.49144 0
M  V30 4386 H 432.591 0.881515 -4.95215 0
M  V30 4387 H 432.291 -0.632434 -5.84187 0
M  V30 4388 H 433.815 0.26346 -6.10031 0
M  V30 4389 H 435.229 -1.9002 -5.40893 0
M  V30 4390 H 433.626 -2.69012 -5.36426 0
M  V30 4391 H 434.696 -2.80495 -3.95538 0
M  V30 4392 N 436.039 1.36541 -0.78704 0
M  V30 4393 C 436.969 2.32659 -0.197992 0
M  V30 4394 C 437.95 1.56533 0.665697 0
M  V30 4395 O 439.135 1.84698 0.60001 0
M  V30 4396 C 436.265 3.40778 0.669901 0
M  V30 4397 C 435.219 4.27897 -0.0937039 0
M  V30 4398 C 434.545 5.27163 0.894629 0
M  V30 4399 C 435.845 5.06334 -1.28154 0
M  V30 4400 H 437.539 2.82171 -1.00099 0
M  V30 4401 H 435.085 1.35665 -0.482793 0
M  V30 4402 H 437.038 4.07008 1.09191 0
M  V30 4403 H 435.762 2.89827 1.50558 0
M  V30 4404 H 434.421 3.6322 -0.49666 0
M  V30 4405 H 434.069 4.72486 1.72527 0
M  V30 4406 H 433.769 5.86317 0.388149 0
M  V30 4407 H 435.293 5.96266 1.31525 0
M  V30 4408 H 436.707 5.65617 -0.93541 0
M  V30 4409 H 435.104 5.74888 -1.72115 0
M  V30 4410 H 436.174 4.38114 -2.07807 0
M  V30 4411 N 437.518 0.538854 1.48102 0
M  V30 4412 C 438.428 -0.222648 2.33541 0
M  V30 4413 C 439.444 -0.930225 1.47047 0
M  V30 4414 O 440.62 -0.903211 1.80011 0
M  V30 4415 C 437.685 -1.25064 3.23357 0
M  V30 4416 C 436.746 -0.552469 4.2573 0
M  V30 4417 C 435.979 -1.53149 5.11254 0
M  V30 4418 O 436.202 -2.76487 4.9891 0
M  V30 4419 O 435.136 -1.06602 5.92385 0
M  V30 4420 H 438.962 0.477707 2.99919 0
M  V30 4421 H 436.547 0.299669 1.46364 0
M  V30 4422 H 438.429 -1.8445 3.78888 0
M  V30 4423 H 437.104 -1.93325 2.59629 0
M  V30 4424 H 436.011 0.082114 3.7401 0
M  V30 4425 H 437.344 0.0883526 4.92121 0
M  V30 4426 N 438.996 -1.55193 0.274407 0
M  V30 4427 C 439.906 -2.26164 -0.623473 0
M  V30 4428 C 440.922 -1.28729 -1.17068 0
M  V30 4429 O 442.098 -1.61663 -1.20112 0
M  V30 4430 C 439.163 -2.96833 -1.7914 0
M  V30 4431 C 438.224 -4.09745 -1.28093 0
M  V30 4432 C 437.457 -4.77034 -2.3932 0
M  V30 4433 O 437.68 -4.4353 -3.5866 0
M  V30 4434 O 436.614 -5.64996 -2.07516 0
M  V30 4435 H 440.44 -3.03661 -0.0485661 0
M  V30 4436 H 438.025 -1.49341 0.0418382 0
M  V30 4437 H 439.907 -3.41248 -2.4724 0
M  V30 4438 H 438.582 -2.22253 -2.35341 0
M  V30 4439 H 437.489 -3.69787 -0.566416 0
M  V30 4440 H 438.822 -4.86224 -0.764683 0
M  V30 4441 N 440.474 -0.00167713 -1.576 0
M  V30 4442 C 441.723 0.682021 -1.89819 0
M  V30 4443 C 442.036 1.74844 -0.876871 0
M  V30 4444 O 443.242 2.48688 -1.08934 0
M  V30 4445 C 441.698 1.26425 -3.36964 0
M  V30 4446 C 441.306 0.232568 -4.47396 0
M  V30 4447 C 443.05 1.92604 -3.78291 0
M  V30 4448 C 440.957 0.824882 -5.85619 0
M  V30 4449 H 439.887 0.258499 -0.708304 0
M  V30 4450 H 442.538 -0.0624957 -1.83394 0
M  V30 4451 H 440.92 2.05949 -3.38232 0
M  V30 4452 H 442.094 -0.5382 -4.57646 0
M  V30 4453 H 440.409 -0.32888 -4.15099 0
M  V30 4454 H 443.006 2.37827 -4.78897 0
M  V30 4455 H 443.349 2.75732 -3.11894 0
M  V30 4456 H 443.882 1.19812 -3.79328 0
M  V30 4457 H 440.621 0.0323542 -6.55492 0
M  V30 4458 H 440.141 1.56477 -5.79029 0
M  V30 4459 H 441.82 1.32301 -6.33329 0
M  V30 4460 N 441.952 1.55251 0.271103 0
M  V30 4461 C 442.884 1.84675 1.35749 0
M  V30 4462 C 443.897 0.731366 1.45447 0
M  V30 4463 O 445.086 1.00924 1.4723 0
M  V30 4464 C 442.186 1.99638 2.73857 0
M  V30 4465 C 441.359 3.30312 2.86727 0
M  V30 4466 C 440.418 3.35318 4.05522 0
M  V30 4467 O 439.444 4.08682 3.96191 0
M  V30 4468 N 440.646 2.62857 5.17577 0
M  V30 4469 H 443.411 2.78445 1.10853 0
M  V30 4470 H 440.972 1.55191 0.461218 0
M  V30 4471 H 442.964 2.00355 3.51625 0
M  V30 4472 H 441.534 1.12725 2.91568 0
M  V30 4473 H 440.754 3.42118 1.95829 0
M  V30 4474 H 442.042 4.16488 2.92258 0
M  V30 4475 H 441.44 2.02939 5.28046 0
M  V30 4476 H 439.997 2.69295 5.93568 0
M  V30 4477 N 443.43 -0.535701 1.48216 0
M  V30 4478 C 444.36 -1.65014 1.65204 0
M  V30 4479 C 445.341 -1.62554 0.501011 0
M  V30 4480 O 446.526 -1.7984 0.732886 0
M  V30 4481 C 443.656 -3.03616 1.68626 0
M  V30 4482 C 442.61 -3.20932 2.83172 0
M  V30 4483 C 441.936 -4.60537 2.71679 0
M  V30 4484 C 443.236 -3.04249 4.24535 0
M  V30 4485 H 444.93 -1.51053 2.58502 0
M  V30 4486 H 442.476 -0.725262 1.24402 0
M  V30 4487 H 444.429 -3.81446 1.79099 0
M  V30 4488 H 443.153 -3.18587 0.719026 0
M  V30 4489 H 441.812 -2.45517 2.72244 0
M  V30 4490 H 441.46 -4.72336 1.72937 0
M  V30 4491 H 441.16 -4.73069 3.48538 0
M  V30 4492 H 442.684 -5.40475 2.84112 0
M  V30 4493 H 444.098 -3.71877 4.36326 0
M  V30 4494 H 442.495 -3.28278 5.02348 0
M  V30 4495 H 443.565 -2.00739 4.41397 0
M  V30 4496 N 444.908 -1.36708 -0.784132 0
M  V30 4497 C 446.157 -1.30559 -1.53744 0
M  V30 4498 C 446.47 0.111374 -1.95283 0
M  V30 4499 O 447.676 0.29527 -2.6989 0
M  V30 4500 C 446.132 -2.29098 -2.77565 0
M  V30 4501 C 445.74 -3.76258 -2.43174 0
M  V30 4502 C 447.484 -2.31936 -3.55536 0
M  V30 4503 C 445.391 -4.6656 -3.63422 0
M  V30 4504 H 444.321 -0.48518 -0.577162 0
M  V30 4505 H 446.972 -1.62101 -0.859981 0
M  V30 4506 H 445.354 -1.90557 -3.47137 0
M  V30 4507 H 446.528 -4.23565 -1.81465 0
M  V30 4508 H 444.843 -3.76246 -1.78403 0
M  V30 4509 H 447.44 -2.9661 -4.44889 0
M  V30 4510 H 447.783 -1.3294 -3.94503 0
M  V30 4511 H 448.316 -2.6912 -2.92949 0
M  V30 4512 H 445.055 -5.66638 -3.29547 0
M  V30 4513 H 444.575 -4.23966 -4.24279 0
M  V30 4514 H 446.254 -4.8309 -4.30387 0
M  V30 4515 N 446.386 1.0089 -1.21074 0
M  V30 4516 C 447.316 2.1145 -0.990523 0
M  V30 4517 C 448.297 1.69897 0.0831699 0
M  V30 4518 O 449.482 1.94052 -0.0758853 0
M  V30 4519 C 446.612 3.42914 -0.550177 0
M  V30 4520 C 445.566 3.98244 -1.56799 0
M  V30 4521 C 444.892 5.25568 -0.984013 0
M  V30 4522 C 446.192 4.30752 -2.95381 0
M  V30 4523 H 447.886 2.3013 -1.91521 0
M  V30 4524 H 445.432 1.10592 -0.92225 0
M  V30 4525 H 447.385 4.19653 -0.383305 0
M  V30 4526 H 446.109 3.24014 0.41015 0
M  V30 4527 H 444.768 3.23621 -1.72236 0
M  V30 4528 H 444.416 5.02998 -0.0155216 0
M  V30 4529 H 444.116 5.63551 -1.66384 0
M  V30 4530 H 445.64 6.04955 -0.828378 0
M  V30 4531 H 447.054 4.98349 -2.8341 0
M  V30 4532 H 445.451 4.79869 -3.60341 0
M  V30 4533 H 446.521 3.39192 -3.46521 0
M  V30 4534 N 447.864 1.01787 1.20321 0
M  V30 4535 C 448.774 0.598898 2.26827 0
M  V30 4536 C 449.79 -0.36418 1.70146 0
M  V30 4537 O 450.966 -0.224812 2.00141 0
M  V30 4538 C 448.031 -0.0549769 3.46656 0
M  V30 4539 C 447.092 0.954205 4.18561 0
M  V30 4540 C 446.325 0.331439 5.3267 0
M  V30 4541 O 446.548 -0.86851 5.63749 0
M  V30 4542 O 445.482 1.0488 5.92692 0
M  V30 4543 H 449.308 1.48562 2.64883 0
M  V30 4544 H 446.893 0.787434 1.26964 0
M  V30 4545 H 448.775 -0.420102 4.19301 0
M  V30 4546 H 447.45 -0.915876 3.10473 0
M  V30 4547 H 446.357 1.37072 3.48083 0
M  V30 4548 H 447.69 1.78511 4.58688 0
M  V30 4549 N 449.342 -1.36122 0.79427 0
M  V30 4550 C 450.252 -2.33769 0.197296 0
M  V30 4551 C 451.268 -1.61276 -0.653153 0
M  V30 4552 O 452.444 -1.9323 -0.5678 0
M  V30 4553 C 449.509 -3.40474 -0.654098 0
M  V30 4554 C 448.57 -4.28759 0.215411 0
M  V30 4555 C 447.803 -5.30368 -0.595443 0
M  V30 4556 O 448.026 -5.40211 -1.83107 0
M  V30 4557 O 446.96 -6.019 0.00721351 0
M  V30 4558 H 450.786 -2.86597 1.00478 0
M  V30 4559 H 448.371 -1.38676 0.555818 0
M  V30 4560 H 450.253 -4.05703 -1.13944 0
M  V30 4561 H 448.928 -2.89937 -1.43938 0
M  V30 4562 H 447.835 -3.66554 0.747615 0
M  V30 4563 H 449.168 -4.82661 0.964332 0
M  V30 4564 N 450.82 -0.546701 -1.47814 0
M  V30 4565 C 451.75 0.195317 -2.32682 0
M  V30 4566 C 452.731 0.918981 -1.43139 0
M  V30 4567 O 453.916 0.901501 -1.72008 0
M  V30 4568 C 451.046 1.23237 -3.247 0
M  V30 4569 C 450 0.625818 -4.234 0
M  V30 4570 C 449.326 1.76674 -5.04669 0
M  V30 4571 C 450.626 -0.413515 -5.2066 0
M  V30 4572 H 452.32 -0.513184 -2.94969 0
M  V30 4573 H 449.866 -0.248241 -1.41844 0
M  V30 4574 H 451.819 1.75955 -3.82907 0
M  V30 4575 H 450.543 1.97067 -2.60446 0
M  V30 4576 H 449.202 0.120023 -3.66403 0
M  V30 4577 H 448.85 2.49383 -4.36826 0
M  V30 4578 H 448.55 1.36673 -5.71484 0
M  V30 4579 H 450.074 2.29738 -5.65732 0
M  V30 4580 H 451.488 0.0272042 -5.73294 0
M  V30 4581 H 449.885 -0.731825 -5.95621 0
M  V30 4582 H 450.955 -1.31325 -4.66778 0
M  V30 4583 N 452.299 1.55045 -0.282633 0
M  V30 4584 C 453.246 2.22822 0.601566 0
M  V30 4585 C 454.216 1.20431 1.14392 0
M  V30 4586 O 455.401 1.48996 1.19184 0
M  V30 4587 C 452.541 2.95873 1.77632 0
M  V30 4588 C 451.654 4.12999 1.26711 0
M  V30 4589 C 450.789 4.73676 2.40426 0
M  V30 4590 C 449.828 5.82981 1.86545 0
M  V30 4591 N 448.965 6.3769 2.93762 0
M  V30 4592 H 453.805 2.97995 0.0169528 0
M  V30 4593 H 451.342 1.471 -0.00339964 0
M  V30 4594 H 453.3 3.36447 2.46697 0
M  V30 4595 H 451.93 2.2311 2.33285 0
M  V30 4596 H 450.982 3.77494 0.469314 0
M  V30 4597 H 452.294 4.91803 0.832518 0
M  V30 4598 H 451.448 5.17008 3.17471 0
M  V30 4599 H 450.187 3.94164 2.87203 0
M  V30 4600 H 449.192 5.39092 1.07983 0
M  V30 4601 H 450.417 6.64366 1.40694 0
M  V30 4602 H 448.363 5.61069 3.39908 0
M  V30 4603 H 448.28 7.11788 2.54744 0
M  V30 4604 H 449.548 6.8568 3.7076 0
M  V30 4605 N 453.777 0.010035 1.57597 0
M  V30 4606 C 454.707 -0.976857 2.12084 0
M  V30 4607 C 455.688 -1.35191 1.03235 0
M  V30 4608 O 456.873 -1.43389 1.3097 0
M  V30 4609 C 454.003 -2.26548 2.63236 0
M  V30 4610 C 452.957 -2.03175 3.76701 0
M  V30 4611 C 452.283 -3.38138 4.14206 0
M  V30 4612 C 453.583 -1.38625 5.03568 0
M  V30 4613 H 455.277 -0.523145 2.94794 0
M  V30 4614 H 452.823 -0.250195 1.4181 0
M  V30 4615 H 454.776 -2.95952 2.99984 0
M  V30 4616 H 453.5 -2.74051 1.77661 0
M  V30 4617 H 452.159 -1.36195 3.40362 0
M  V30 4618 H 451.807 -3.83363 3.25641 0
M  V30 4619 H 451.507 -3.23312 4.90656 0
M  V30 4620 H 453.031 -4.08841 4.53521 0
M  V30 4621 H 454.445 -1.98 5.38023 0
M  V30 4622 H 452.842 -1.34256 5.84889 0
M  V30 4623 H 453.912 -0.356722 4.83586 0
M  V30 4624 N 455.255 -1.55392 -0.262866 0
M  V30 4625 C 456.504 -1.75679 -0.990943 0
M  V30 4626 C 456.817 -0.57097 -1.87081 0
M  V30 4627 O 458.023 -0.656486 -2.63444 0
M  V30 4628 C 456.479 -3.10964 -1.81188 0
M  V30 4629 C 456.087 -4.37146 -0.980188 0
M  V30 4630 C 457.831 -3.40597 -2.53365 0
M  V30 4631 C 455.738 -5.63466 -1.7961 0
M  V30 4632 H 454.668 -0.654868 -0.373716 0
M  V30 4633 H 457.319 -1.81841 -0.246203 0
M  V30 4634 H 455.701 -2.98867 -2.59797 0
M  V30 4635 H 456.875 -4.60187 -0.237558 0
M  V30 4636 H 455.19 -4.14731 -0.372497 0
M  V30 4637 H 457.787 -4.32186 -3.14833 0
M  V30 4638 H 458.13 -2.6119 -3.24169 0
M  V30 4639 H 458.663 -3.53838 -1.81779 0
M  V30 4640 H 455.402 -6.4565 -1.13209 0
M  V30 4641 H 454.922 -5.44552 -2.51443 0
M  V30 4642 H 456.601 -6.02139 -2.36723 0
M  V30 4643 N 456.733 0.527833 -1.48498 0
M  V30 4644 C 457.666 1.64892 -1.57753 0
M  V30 4645 C 458.644 1.5687 -0.427867 0
M  V30 4646 O 459.828 1.77311 -0.639764 0
M  V30 4647 C 456.955 3.03301 -1.50752 0
M  V30 4648 C 456.001 3.29675 -2.70586 0
M  V30 4649 S 456.834 3.15712 -4.32535 0
M  V30 4650 C 457.99 4.56564 -4.28136 0
M  V30 4651 H 458.223 1.56792 -2.52594 0
M  V30 4652 H 455.756 0.710959 -1.37057 0
M  V30 4653 H 457.714 3.83123 -1.474 0
M  V30 4654 H 456.375 3.08839 -0.572454 0
M  V30 4655 H 455.568 4.3065 -2.61833 0
M  V30 4656 H 455.17 2.57526 -2.71212 0
M  V30 4657 H 457.462 5.48126 -3.98201 0
M  V30 4658 H 458.405 4.70371 -5.29298 0
M  V30 4659 H 458.813 4.35987 -3.58574 0
M  V30 4660 N 458.211 1.37122 0.776871 0
M  V30 4661 C 459.439 1.3523 1.5659 0
M  V30 4662 C 459.854 -0.0635518 1.88693 0
M  V30 4663 O 459.211 -1.02394 1.51069 0
M  V30 4664 C 459.262 2.18583 2.8793 0
M  V30 4665 O 458.983 3.5465 2.57206 0
M  V30 4666 C 460.484 2.24612 3.82183 0
M  V30 4667 H 457.704 0.4634 0.485285 0
M  V30 4668 H 460.248 1.80392 0.963266 0
M  V30 4669 H 458.403 1.76943 3.4463 0
M  V30 4670 H 458.817 3.98286 3.41275 0
M  V30 4671 H 460.291 2.87267 4.71361 0
M  V30 4672 H 460.768 1.25309 4.20944 0
M  V30 4673 H 461.374 2.66543 3.31414 0
M  V30 4674 N 459.689 -1.00246 1.21608 0
M  V30 4675 C 460.935 -1.74319 1.03638 0
M  V30 4676 C 461.268 -1.89408 -0.428749 0
M  V30 4677 O 460.543 -1.43026 -1.3181 0
M  V30 4678 C 460.826 -3.15431 1.73711 0
M  V30 4679 C 460.679 -3.08049 3.27759 0
M  V30 4680 C 461.998 -4.14407 1.48173 0
M  V30 4681 H 459.117 -0.632741 0.377899 0
M  V30 4682 H 461.759 -1.16853 1.49818 0
M  V30 4683 H 459.909 -3.64493 1.34452 0
M  V30 4684 H 461.581 -2.66681 3.76403 0
M  V30 4685 H 459.824 -2.45088 3.57931 0
M  V30 4686 H 460.495 -4.07862 3.71958 0
M  V30 4687 H 462.971 -3.74061 1.82258 0
M  V30 4688 H 461.847 -5.11279 1.99713 0
M  V30 4689 H 462.108 -4.40174 0.412273 0
M  V30 4690 N 461.167 -1.02423 -1.1978 0
M  V30 4691 C 462.097 -0.62157 -2.25075 0
M  V30 4692 C 463.078 0.367148 -1.6609 0
M  V30 4693 O 464.263 0.250892 -1.92573 0
M  V30 4694 C 461.393 0.0331826 -3.47284 0
M  V30 4695 C 460.347 -0.877323 -4.18912 0
M  V30 4696 C 459.673 -0.0879296 -5.34628 0
M  V30 4697 C 460.973 -2.18892 -4.74219 0
M  V30 4698 H 462.667 -1.50179 -2.59011 0
M  V30 4699 H 460.213 -0.723547 -1.24502 0
M  V30 4700 H 462.166 0.326488 -4.20133 0
M  V30 4701 H 460.89 0.948164 -3.12534 0
M  V30 4702 H 459.549 -1.15475 -3.47938 0
M  V30 4703 H 459.197 0.828941 -4.96123 0
M  V30 4704 H 458.897 -0.694359 -5.83483 0
M  V30 4705 H 460.421 0.198743 -6.10276 0
M  V30 4706 H 461.835 -1.95746 -5.38847 0
M  V30 4707 H 460.232 -2.74686 -5.33542 0
M  V30 4708 H 461.302 -2.84674 -3.92541 0
M  V30 4709 N 462.645 1.35699 -0.801477 0
M  V30 4710 C 463.893 1.9852 -0.37871 0
M  V30 4711 C 464.214 1.63907 1.05638 0
M  V30 4712 O 463.484 0.919013 1.73006 0
M  V30 4713 H 462.064 0.734322 -0.137042 0
M  V30 4714 H 464.726 1.65697 -1.02619 0
M  V30 4715 H 463.822 3.08382 -0.480284 0
M  V30 4716 N 464.123 0.554532 1.47522 0
M  V30 4717 C 465.086 -0.184174 2.28459 0
M  V30 4718 C 466.086 -0.845195 1.36796 0
M  V30 4719 O 467.276 -0.701467 1.59452 0
M  V30 4720 C 464.408 -1.26903 3.16399 0
M  V30 4721 H 465.601 0.526751 2.95238 0
M  V30 4722 H 463.154 0.311375 1.53167 0
M  V30 4723 H 463.889 -2.01244 2.54306 0
M  V30 4724 H 463.674 -0.799883 3.83854 0
M  V30 4725 H 465.164 -1.78794 3.77389 0
M  V30 4726 N 465.601 -1.54893 0.290851 0
M  V30 4727 C 467.017 -1.59476 -0.0628432 0
M  V30 4728 C 467.217 -1.30795 -1.5328 0
M  V30 4729 O 466.273 -1.07644 -2.28406 0
M  V30 4730 C 467.586 -2.98928 0.325962 0
M  V30 4731 C 469.134 -3.11799 0.273882 0
M  V30 4732 C 469.609 -4.53544 0.637359 0
M  V30 4733 N 471.1 -4.59433 0.589507 0
M  V30 4734 C 471.835 -5.67164 0.84335 0
M  V30 4735 N 471.331 -6.82975 1.16263 0
M  V30 4736 N 473.124 -5.56786 0.771091 0
M  V30 4737 H 465.275 -1.71798 1.24896 0
M  V30 4738 H 467.538 -0.801879 0.505663 0
M  V30 4739 H 467.244 -3.24805 1.34887 0
M  V30 4740 H 467.118 -3.75793 -0.325441 0
M  V30 4741 H 469.505 -2.85677 -0.739765 0
M  V30 4742 H 469.586 -2.37112 0.959766 0
M  V30 4743 H 469.23 -4.80394 1.64877 0
M  V30 4744 H 469.16 -5.26553 -0.0704866 0
M  V30 4745 H 471.651 -3.76245 0.353252 0
M  V30 4746 H 471.964 -7.61048 1.34257 0
M  V30 4747 H 470.309 -6.84552 1.20057 0
M  V30 4748 H 473.5 -4.65187 0.521383 0
M  V30 4749 H 473.673 -6.40664 0.972295 0
M  V30 4750 N 467.08 -0.0183926 -1.57589 0
M  V30 4751 C 468.308 0.673046 -1.95647 0
M  V30 4752 C 468.723 1.66275 -0.894312 0
M  V30 4753 O 468.08 1.82072 0.124975 0
M  V30 4754 C 468.131 1.38884 -3.33756 0
M  V30 4755 O 467.852 0.438806 -4.35897 0
M  V30 4756 C 469.353 2.1731 -3.86383 0
M  V30 4757 H 466.573 0.186292 -0.644621 0
M  V30 4758 H 469.117 -0.0749748 -2.04363 0
M  V30 4759 H 467.272 2.08835 -3.26293 0
M  V30 4760 H 467.686 0.945869 -5.15901 0
M  V30 4761 H 469.16 2.62863 -4.85394 0
M  V30 4762 H 469.637 3.00764 -3.20059 0
M  V30 4763 H 470.243 1.52339 -3.97081 0
M  V30 4764 N 468.558 1.5553 0.254621 0
M  V30 4765 C 469.807 1.76202 0.981612 0
M  V30 4766 C 470.12 0.580883 1.86776 0
M  V30 4767 O 471.326 0.670448 2.63092 0
M  V30 4768 C 469.782 3.11921 1.79537 0
M  V30 4769 C 469.39 4.37659 0.956991 0
M  V30 4770 C 471.134 3.41936 2.51555 0
M  V30 4771 C 469.041 5.64411 1.76619 0
M  V30 4772 H 467.971 0.656841 0.370237 0
M  V30 4773 H 470.622 1.81969 0.236556 0
M  V30 4774 H 469.004 3.00241 2.58208 0
M  V30 4775 H 470.178 4.60307 0.21315 0
M  V30 4776 H 468.493 4.14922 0.350497 0
M  V30 4777 H 471.09 4.33849 3.12536 0
M  V30 4778 H 471.433 2.62905 3.22779 0
M  V30 4779 H 471.966 3.54797 1.799 0
M  V30 4780 H 468.705 6.46241 1.09783 0
M  V30 4781 H 468.225 5.45877 2.48551 0
M  V30 4782 H 469.904 6.03386 2.33527 0
M  V30 4783 N 470.036 -0.519951 1.48776 0
M  V30 4784 C 470.999 -1.60574 1.6355 0
M  V30 4785 C 471.999 -1.52557 0.508234 0
M  V30 4786 O 473.189 -1.56047 0.774262 0
M  V30 4787 C 470.321 -3.00211 1.61512 0
M  V30 4788 H 471.514 -1.4881 2.60376 0
M  V30 4789 H 469.067 -0.742772 1.37523 0
M  V30 4790 H 469.802 -3.17471 0.662009 0
M  V30 4791 H 469.587 -3.07439 2.43359 0
M  V30 4792 H 471.077 -3.79134 1.75064 0
M  V30 4793 N 471.514 -1.37532 -0.769588 0
M  V30 4794 C 472.791 -1.23392 -1.51768 0
M  V30 4795 C 473.171 0.17157 -2.10402 0
M  V30 4796 O 472.519 1.17943 -1.95708 0
M  V30 4797 C 472.729 -2.33163 -2.59685 0
M  V30 4798 C 474.077 -2.70809 -3.27028 0
M  V30 4799 O 475.101 -2.32355 -2.69981 0
M  V30 4800 O 473.96 -3.37066 -4.30173 0
M  V30 4801 H 471.054 -0.481617 -0.67229 0
M  V30 4802 H 473.6 -1.49318 -0.806368 0
M  V30 4803 H 472.372 -3.27273 -2.14494 0
M  V30 4804 H 471.995 -2.08713 -3.38415 0
M  V30 4805 N 472.992 0.995999 -1.22138 0
M  V30 4806 C 473.922 2.10387 -1.01289 0
M  V30 4807 C 474.903 1.69975 0.0651454 0
M  V30 4808 O 476.088 1.9396 -0.0964628 0
M  V30 4809 C 473.218 3.42312 -0.586517 0
M  V30 4810 C 472.172 3.96558 -1.61014 0
M  V30 4811 C 471.498 5.24494 -1.0397 0
M  V30 4812 C 472.798 4.27595 -2.99933 0
M  V30 4813 H 474.492 2.28086 -1.93951 0
M  V30 4814 H 472.038 1.09607 -0.933928 0
M  V30 4815 H 473.991 4.19223 -0.427793 0
M  V30 4816 H 472.715 3.24431 0.375761 0
M  V30 4817 H 471.374 3.21776 -1.75658 0
M  V30 4818 H 471.022 5.02953 -0.0688703 0
M  V30 4819 H 470.722 5.61755 -1.72352 0
M  V30 4820 H 472.246 6.04042 -0.892494 0
M  V30 4821 H 473.66 4.95315 -2.8868 0
M  V30 4822 H 472.057 4.76021 -3.6541 0
M  V30 4823 H 473.127 3.35498 -3.50099 0
M  V30 4824 N 474.47 1.03057 1.19235 0
M  V30 4825 C 475.402 0.570932 2.21975 0
M  V30 4826 C 476.415 -0.354088 1.58903 0
M  V30 4827 O 477.604 -0.150211 1.77867 0
M  V30 4828 C 474.704 -0.187152 3.38383 0
M  V30 4829 C 473.877 0.743231 4.31039 0
M  V30 4830 C 472.936 0.0302493 5.26191 0
M  V30 4831 O 471.962 0.657371 5.65391 0
M  V30 4832 N 473.164 -1.23991 5.67104 0
M  V30 4833 H 475.929 1.45456 2.62036 0
M  V30 4834 H 473.49 0.909807 1.33918 0
M  V30 4835 H 475.482 -0.673715 3.99053 0
M  V30 4836 H 474.052 -0.972205 2.97098 0
M  V30 4837 H 473.272 1.40985 3.68126 0
M  V30 4838 H 474.56 1.3755 4.89854 0
M  V30 4839 H 473.958 -1.77011 5.37293 0
M  V30 4840 H 472.515 -1.67093 6.30018 0
M  V30 4841 N 475.948 -1.35272 0.808662 0
M  V30 4842 C 476.895 -2.29764 0.218482 0
M  V30 4843 C 477.865 -1.52911 -0.648652 0
M  V30 4844 O 479.05 -1.81341 -0.593297 0
M  V30 4845 C 476.19 -3.39388 -0.625282 0
M  V30 4846 C 475.303 -4.31202 0.262516 0
M  V30 4847 C 474.438 -5.27919 -0.589451 0
M  V30 4848 C 473.477 -6.11371 0.298617 0
M  V30 4849 N 472.614 -7.0022 -0.513443 0
M  V30 4850 H 477.454 -2.79645 1.02968 0
M  V30 4851 H 474.991 -1.37629 0.519303 0
M  V30 4852 H 476.949 -4.01615 -1.12966 0
M  V30 4853 H 475.579 -2.90777 -1.40173 0
M  V30 4854 H 474.631 -3.69962 0.885013 0
M  V30 4855 H 475.943 -4.89748 0.945971 0
M  V30 4856 H 475.097 -5.95529 -1.15888 0
M  V30 4857 H 473.836 -4.69875 -1.30647 0
M  V30 4858 H 472.841 -5.42707 0.880301 0
M  V30 4859 H 474.066 -6.71494 1.01352 0
M  V30 4860 H 472.012 -6.44662 -1.21439 0
M  V30 4861 H 471.929 -7.55917 0.111922 0
M  V30 4862 H 473.197 -7.72175 -1.06608 0
M  V30 4863 N 477.426 -0.562348 -1.47226 0
M  V30 4864 C 478.389 0.172056 -2.28553 0
M  V30 4865 C 479.389 0.837928 -1.37242 0
M  V30 4866 O 480.579 0.693001 -1.59822 0
M  V30 4867 C 477.711 1.25223 -3.17068 0
M  V30 4868 H 478.904 -0.542401 -2.94954 0
M  V30 4869 H 476.457 -0.319493 -1.53 0
M  V30 4870 H 477.192 1.99892 -2.55369 0
M  V30 4871 H 476.977 0.779515 -3.84273 0
M  V30 4872 H 478.467 1.76791 -3.78332 0
M  V30 4873 N 478.904 1.54736 -0.299062 0
M  V30 4874 C 480.315 1.8569 0.193971 0
M  V30 4875 C 480.666 1.22101 1.53577 0
M  V30 4876 O 479.791 0.51799 2.10109 0
M  V30 4877 C 480.386 3.36895 0.358733 0
M  V30 4878 C 478.945 3.67887 0.795986 0
M  V30 4879 C 478.092 2.77131 -0.096807 0
M  V30 4880 H 481.043 1.49934 -0.520134 0
M  V30 4881 H 481.064 3.61294 1.19361 0
M  V30 4882 H 480.576 3.83148 -0.617998 0
M  V30 4883 H 478.677 3.27151 1.78334 0
M  V30 4884 H 478.79 4.75114 0.616718 0
M  V30 4885 H 477.154 2.51153 0.423581 0
M  V30 4886 H 477.937 3.26204 -1.06986 0
M  V30 4887 N 480.382 0.0267497 1.57577 0
M  V30 4888 C 481.312 -0.954308 2.13108 0
M  V30 4889 C 482.293 -1.34088 1.04663 0
M  V30 4890 O 483.478 -1.41992 1.32484 0
M  V30 4891 C 480.608 -2.23744 2.65624 0
M  V30 4892 C 479.562 -1.99168 3.78835 0
M  V30 4893 C 478.888 -3.33726 4.17769 0
M  V30 4894 C 480.188 -1.33277 5.0501 0
M  V30 4895 H 481.882 -0.491848 2.95332 0
M  V30 4896 H 479.428 -0.23514 1.42067 0
M  V30 4897 H 481.381 -2.92754 3.03106 0
M  V30 4898 H 480.105 -2.72151 1.80558 0
M  V30 4899 H 478.764 -1.32577 3.41788 0
M  V30 4900 H 478.412 -3.79888 3.29688 0
M  V30 4901 H 478.112 -3.18089 4.94058 0
M  V30 4902 H 479.636 -4.04008 4.57832 0
M  V30 4903 H 481.05 -1.92283 5.40093 0
M  V30 4904 H 479.447 -1.28045 5.8628 0
M  V30 4905 H 480.517 -0.305411 4.83937 0
M  V30 4906 N 481.861 -1.55662 -0.24637 0
M  V30 4907 C 483.107 -1.77782 -0.975779 0
M  V30 4908 C 483.44 -0.592103 -1.84953 0
M  V30 4909 O 482.715 0.409588 -1.90138 0
M  V30 4910 C 482.998 -3.09788 -1.83584 0
M  V30 4911 C 482.851 -4.38764 -0.990241 0
M  V30 4912 C 484.17 -3.38029 -2.81823 0
M  V30 4913 H 481.289 -0.646789 -0.353317 0
M  V30 4914 H 483.931 -1.88398 -0.246248 0
M  V30 4915 H 482.081 -3.00869 -2.45784 0
M  V30 4916 H 483.753 -4.59675 -0.386897 0
M  V30 4917 H 481.996 -4.32798 -0.294626 0
M  V30 4918 H 482.667 -5.27514 -1.62584 0
M  V30 4919 H 485.143 -3.46915 -2.2976 0
M  V30 4920 H 484.019 -4.3161 -3.39122 0
M  V30 4921 H 484.28 -2.58968 -3.58313 0
M  V30 4922 N 483.339 0.512053 -1.4905 0
M  V30 4923 C 484.588 1.26343 -1.57227 0
M  V30 4924 C 484.901 1.93876 -0.259155 0
M  V30 4925 O 486.107 2.70612 -0.219358 0
M  V30 4926 C 484.563 2.29343 -2.77362 0
M  V30 4927 C 484.171 1.67799 -4.15388 0
M  V30 4928 C 485.915 3.05378 -2.94864 0
M  V30 4929 C 483.822 2.68845 -5.2676 0
M  V30 4930 H 482.752 0.475231 -0.585382 0
M  V30 4931 H 485.403 0.53862 -1.75417 0
M  V30 4932 H 483.785 3.04938 -2.52643 0
M  V30 4933 H 484.959 0.982715 -4.50199 0
M  V30 4934 H 483.274 1.04194 -4.03153 0
M  V30 4935 H 485.871 3.80921 -3.75238 0
M  V30 4936 H 486.214 3.62327 -2.05 0
M  V30 4937 H 486.747 2.36898 -3.19569 0
M  V30 4938 H 483.486 2.16692 -6.18647 0
M  V30 4939 H 483.006 3.36647 -4.96416 0
M  V30 4940 H 484.685 3.31487 -5.5563 0
M  V30 4941 N 484.817 1.37938 0.762283 0
M  V30 4942 C 485.764 1.34467 1.87583 0
M  V30 4943 C 486.734 0.208633 1.64785 0
M  V30 4944 O 487.919 0.399494 1.86571 0
M  V30 4945 C 485.059 1.16692 3.24772 0
M  V30 4946 C 484.172 2.39608 3.59461 0
M  V30 4947 C 483.307 2.14631 4.85908 0
M  V30 4948 C 482.346 3.33364 5.13357 0
M  V30 4949 N 481.483 3.07877 6.30996 0
M  V30 4950 H 486.323 2.29669 1.89885 0
M  V30 4951 H 483.86 1.14116 0.928219 0
M  V30 4952 H 485.818 1.04405 4.03925 0
M  V30 4953 H 484.448 0.251333 3.2182 0
M  V30 4954 H 483.5 2.626 2.75219 0
M  V30 4955 H 484.812 3.28128 3.75678 0
M  V30 4956 H 483.966 1.99429 5.72986 0
M  V30 4957 H 482.705 1.23463 4.71814 0
M  V30 4958 H 481.71 3.49094 4.24751 0
M  V30 4959 H 482.935 4.25395 5.29354 0
M  V30 4960 H 480.881 2.19348 6.18241 0
M  V30 4961 H 480.798 3.89944 6.47673 0
M  V30 4962 H 482.066 2.96313 7.20985 0
M  V30 4963 N 486.295 -0.989507 1.22664 0
M  V30 4964 C 487.543 -1.72612 1.05117 0
M  V30 4965 C 487.864 -1.90552 -0.414131 0
M  V30 4966 O 487.134 -1.4676 -1.29762 0
M  V30 4967 H 485.714 -0.639555 0.385977 0
M  V30 4968 H 488.376 -1.19158 1.54232 0
M  V30 4969 H 487.472 -2.71926 1.53175 0
M  V30 4970 N 487.773 -1.03688 -1.18687 0
M  V30 4971 C 488.683 -0.634908 -2.25845 0
M  V30 4972 C 489.699 0.337065 -1.70704 0
M  V30 4973 O 490.875 0.192943 -2.00474 0
M  V30 4974 C 487.94 -0.000180054 -3.467 0
M  V30 4975 C 487.001 -1.02067 -4.1699 0
M  V30 4976 C 486.234 -0.41614 -5.32075 0
M  V30 4977 O 486.457 0.778712 -5.65059 0
M  V30 4978 O 485.391 -1.14296 -5.90948 0
M  V30 4979 H 489.217 -1.52757 -2.62486 0
M  V30 4980 H 486.802 -0.807533 -1.25695 0
M  V30 4981 H 488.684 0.353342 -4.19916 0
M  V30 4982 H 487.359 0.866367 -3.11891 0
M  V30 4983 H 486.266 -1.42592 -3.45859 0
M  V30 4984 H 487.599 -1.85786 -4.5579 0
M  V30 4985 N 489.251 1.34841 -0.815825 0
M  V30 4986 C 490.479 2.0273 -0.413294 0
M  V30 4987 C 490.894 1.61459 0.978599 0
M  V30 4988 O 490.251 0.816584 1.63212 0
M  V30 4989 C 490.302 3.58058 -0.497676 0
M  V30 4990 O 490.023 3.97832 -1.8347 0
M  V30 4991 C 491.524 4.4321 -0.0891339 0
M  V30 4992 H 488.744 0.649956 -0.166728 0
M  V30 4993 H 491.288 1.72267 -1.10201 0
M  V30 4994 H 489.443 3.87136 0.142886 0
M  V30 4995 H 489.857 4.92501 -1.80396 0
M  V30 4996 H 491.331 5.5164 -0.199274 0
M  V30 4997 H 491.808 4.28432 0.966571 0
M  V30 4998 H 492.414 4.19446 -0.703214 0
M  V30 4999 N 490.729 0.570148 1.46925 0
M  V30 5000 C 491.679 -0.190921 2.27199 0
M  V30 5001 C 492.663 -0.873457 1.35128 0
M  V30 5002 O 493.855 -0.769627 1.59392 0
M  V30 5003 C 490.984 -1.21204 3.21192 0
M  V30 5004 C 490.07 -0.532261 4.20747 0
M  V30 5005 N 490.461 0.405038 5.04176 0
M  V30 5006 C 488.759 -0.784582 4.39045 0
M  V30 5007 C 489.46 0.801149 5.76157 0
M  V30 5008 N 488.436 0.153082 5.43384 0
M  V30 5009 H 492.238 0.529535 2.8909 0
M  V30 5010 H 489.752 0.391019 1.57622 0
M  V30 5011 H 491.749 -1.77135 3.77398 0
M  V30 5012 H 490.409 -1.93345 2.6086 0
M  V30 5013 H 491.42 0.779903 5.11994 0
M  V30 5014 H 488.097 -1.49352 3.89872 0
M  V30 5015 H 489.487 1.57208 6.5325 0
M  V30 5016 N 492.207 -1.54576 0.307264 0
M  V30 5017 C 493.157 -2.20467 -0.581249 0
M  V30 5018 C 494.141 -1.17972 -1.09414 0
M  V30 5019 O 495.333 -1.43667 -1.03387 0
M  V30 5020 C 492.462 -2.95369 -1.74963 0
M  V30 5021 C 491.548 -4.05186 -1.25241 0
M  V30 5022 N 491.939 -5.03577 -0.47364 0
M  V30 5023 C 490.237 -4.18841 -1.53259 0
M  V30 5024 C 490.938 -5.81328 -0.208083 0
M  V30 5025 N 489.914 -5.37834 -0.789651 0
M  V30 5026 H 493.716 -2.93892 0.0212221 0
M  V30 5027 H 491.23 -1.62011 0.112325 0
M  V30 5028 H 493.227 -3.41046 -2.39777 0
M  V30 5029 H 491.887 -2.23461 -2.35574 0
M  V30 5030 H 492.898 -5.17766 -0.117963 0
M  V30 5031 H 489.575 -3.58141 -2.14573 0
M  V30 5032 H 490.965 -6.706 0.417793 0
M  V30 5033 N 493.685 -0.035106 -1.57561 0
M  V30 5034 C 494.931 0.637362 -1.93156 0
M  V30 5035 C 495.286 1.69391 -0.912392 0
M  V30 5036 O 494.579 1.91469 0.070735 0
M  V30 5037 C 494.773 1.29149 -3.3325 0
M  V30 5038 C 494.602 0.29983 -4.48699 0
M  V30 5039 C 493.372 -0.102454 -5.05196 0
M  V30 5040 C 495.57 -0.448297 -5.12342 0
M  V30 5041 N 493.552 -1.08866 -6.0417 0
M  V30 5042 C 494.923 -1.28807 -6.06472 0
M  V30 5043 C 496.978 -0.508351 -4.95298 0
M  V30 5044 C 495.681 -2.18248 -6.85391 0
M  V30 5045 C 497.707 -1.39013 -5.7483 0
M  V30 5046 C 497.069 -2.21766 -6.6858 0
M  V30 5047 H 493.168 0.205358 -0.754554 0
M  V30 5048 H 495.752 -0.103682 -1.94424 0
M  V30 5049 H 493.923 2.00264 -3.3279 0
M  V30 5050 H 495.655 1.92147 -3.56177 0
M  V30 5051 H 492.41 0.273223 -4.72811 0
M  V30 5052 H 492.834 -1.57817 -6.58348 0
M  V30 5053 H 497.476 0.117197 -4.22638 0
M  V30 5054 H 495.194 -2.81855 -7.57353 0
M  V30 5055 H 498.78 -1.44096 -5.63673 0
M  V30 5056 H 497.66 -2.88892 -7.29048 0
M  V30 5057 N 495.163 1.55791 0.238111 0
M  V30 5058 C 496.093 1.94068 1.29846 0
M  V30 5059 C 497.074 0.806726 1.49753 0
M  V30 5060 O 498.259 1.06772 1.62214 0
M  V30 5061 C 495.389 2.24302 2.65153 0
M  V30 5062 C 494.343 3.40032 2.59927 0
M  V30 5063 C 493.669 3.55829 3.99111 0
M  V30 5064 C 494.969 4.75476 2.16148 0
M  V30 5065 H 496.663 2.82887 0.980563 0
M  V30 5066 H 494.209 1.36105 0.470253 0
M  V30 5067 H 496.162 2.4967 3.39475 0
M  V30 5068 H 494.886 1.32318 2.98596 0
M  V30 5069 H 493.545 3.14687 1.88063 0
M  V30 5070 H 493.193 2.6125 4.29834 0
M  V30 5071 H 492.893 4.3366 3.96501 0
M  V30 5072 H 494.417 3.83528 4.7512 0
M  V30 5073 H 495.831 5.00158 2.80205 0
M  V30 5074 H 494.228 5.56472 2.24631 0
M  V30 5075 H 495.298 4.71946 1.11333 0
M  V30 5076 N 496.642 -0.504142 1.49319 0
M  V30 5077 C 497.87 -1.28256 1.62351 0
M  V30 5078 C 498.285 -1.86502 0.293682 0
M  V30 5079 O 497.642 -1.67678 -0.720449 0
M  V30 5080 C 497.693 -2.41507 2.68992 0
M  V30 5081 O 497.414 -1.85656 3.96817 0
M  V30 5082 C 498.915 -3.32929 2.927 0
M  V30 5083 H 496.135 -0.389115 0.546654 0
M  V30 5084 H 498.679 -0.605531 1.95329 0
M  V30 5085 H 496.834 -3.05046 2.38801 0
M  V30 5086 H 497.248 -2.59981 4.55533 0
M  V30 5087 H 498.722 -4.0868 3.71058 0
M  V30 5088 H 499.199 -3.89733 2.02496 0
M  V30 5089 H 499.805 -2.75158 3.24296 0
M  V30 5090 N 498.12 -1.38341 -0.754957 0
M  V30 5091 C 499.03 -1.3769 -1.89944 0
M  V30 5092 C 500.046 -0.274194 -1.71826 0
M  V30 5093 O 501.222 -0.512391 -1.94773 0
M  V30 5094 C 498.287 -1.19938 -3.25293 0
M  V30 5095 C 497.348 -2.40001 -3.55946 0
M  V30 5096 C 496.581 -2.23087 -4.84838 0
M  V30 5097 O 496.804 -1.22386 -5.57116 0
M  V30 5098 O 495.738 -3.11646 -5.14937 0
M  V30 5099 H 499.564 -2.3412 -1.93446 0
M  V30 5100 H 497.149 -1.19246 -0.900044 0
M  V30 5101 H 499.031 -1.12093 -4.06218 0
M  V30 5102 H 497.706 -0.265919 -3.22606 0
M  V30 5103 H 496.613 -2.53421 -2.75188 0
M  V30 5104 H 497.946 -3.31973 -3.63394 0
M  V30 5105 N 499.598 0.982988 -1.23187 0
M  V30 5106 C 501.014 1.2487 -0.993967 0
M  V30 5107 C 501.214 1.99155 0.306498 0
M  V30 5108 O 500.27 2.30688 1.0266 0
M  V30 5109 C 501.583 2.05078 -2.19917 0
M  V30 5110 C 503.131 2.18227 -2.2438 0
M  V30 5111 C 503.606 3.01825 -3.44479 0
M  V30 5112 N 505.097 3.09411 -3.44702 0
M  V30 5113 C 505.832 3.74412 -4.34285 0
M  V30 5114 N 505.328 4.41259 -5.341 0
M  V30 5115 N 507.121 3.71273 -4.22035 0
M  V30 5116 H 499.272 0.485253 -2.06783 0
M  V30 5117 H 501.535 0.276979 -0.906635 0
M  V30 5118 H 501.241 1.57867 -3.14279 0
M  V30 5119 H 501.115 3.05829 -2.2079 0
M  V30 5120 H 503.502 2.64648 -1.30559 0
M  V30 5121 H 503.583 1.16873 -2.2754 0
M  V30 5122 H 503.227 2.56102 -4.38605 0
M  V30 5123 H 503.157 4.03342 -3.38559 0
M  V30 5124 H 505.648 2.61845 -2.7248 0
M  V30 5125 H 505.961 4.88629 -5.98717 0
M  V30 5126 H 504.306 4.39975 -5.38002 0
M  V30 5127 H 507.497 3.18217 -3.43301 0
M  V30 5128 H 507.67 4.21649 -4.92053 0
M  V30 5129 N 501.076 1.04316 1.18135 0
M  V30 5130 C 502.324 0.746542 1.87806 0
M  V30 5131 C 502.645 -0.728082 1.80898 0
M  V30 5132 O 501.915 -1.52554 1.22899 0
M  V30 5133 H 500.495 0.273157 0.695265 0
M  V30 5134 H 503.157 1.32044 1.43354 0
M  V30 5135 H 502.253 1.05362 2.93778 0
M  V30 5136 N 502.554 -1.34406 0.822964 0
M  V30 5137 C 503.8 -1.98578 0.411666 0
M  V30 5138 C 504.133 -1.65093 -1.02264 0
M  V30 5139 O 503.408 -0.92258 -1.71227 0
M  V30 5140 C 503.691 -3.54823 0.614235 0
M  V30 5141 C 503.544 -3.9805 2.09466 0
M  V30 5142 C 504.863 -4.40071 0.050221 0
M  V30 5143 H 501.982 -0.721355 0.151047 0
M  V30 5144 H 504.624 -1.59301 1.03554 0
M  V30 5145 H 502.774 -3.88411 0.0831774 0
M  V30 5146 H 504.446 -3.74795 2.68936 0
M  V30 5147 H 502.689 -3.4836 2.5851 0
M  V30 5148 H 503.36 -5.06819 2.18721 0
M  V30 5149 H 505.836 -4.13037 0.503953 0
M  V30 5150 H 504.712 -5.48452 0.221759 0
M  V30 5151 H 504.973 -4.29576 -1.04482 0
M  V30 5152 N 504.032 -0.577932 -1.46621 0
M  V30 5153 C 504.98 0.170882 -2.31971 0
M  V30 5154 C 505.974 0.889086 -1.44193 0
M  V30 5155 O 507.18 0.808017 -1.60845 0
M  V30 5156 H 503.555 0.0739763 -0.748353 0
M  V30 5157 H 505.526 -0.567856 -2.92947 0
M  V30 5158 C 504.275 1.17438 -3.27267 0
M  V30 5159 H 503.598 0.63116 -3.94787 0
M  V30 5160 H 505.038 1.66882 -3.89778 0
M  V30 5161 C 503.497 2.23292 -2.52274 0
M  V30 5162 O 504.027 3.30567 -2.28229 0
M  V30 5163 N 502.233 1.97772 -2.12919 0
M  V30 5164 H 501.78 1.10545 -2.32675 0
M  V30 5165 H 501.738 2.68809 -1.63062 0
M  V30 5166 N 505.51 1.54411 -0.315457 0
M  V30 5167 C 506.738 2.04833 0.291738 0
M  V30 5168 C 507.153 1.19203 1.46411 0
M  V30 5169 O 506.51 0.220867 1.81159 0
M  V30 5170 C 506.561 3.53969 0.73404 0
M  V30 5171 O 506.282 4.36346 -0.391682 0
M  V30 5172 C 507.783 4.2045 1.40489 0
M  V30 5173 H 505.003 0.668195 0.0612947 0
M  V30 5174 H 507.547 1.99276 -0.45929 0
M  V30 5175 H 505.702 3.5984 1.43506 0
M  V30 5176 H 506.116 5.24481 -0.0447088 0
M  V30 5177 H 507.59 5.26278 1.66539 0
M  V30 5178 H 508.067 3.71067 2.3496 0
M  V30 5179 H 508.673 4.18694 0.746662 0
M  V30 5180 N 506.988 0.0434614 1.5754 0
M  V30 5181 C 508.213 -0.645358 1.97104 0
M  V30 5182 C 508.638 -1.64037 0.920521 0
M  V30 5183 O 507.996 -1.80922 -0.11708 0
M  V30 5184 C 508.044 -1.31547 3.35749 0
M  V30 5185 O 507.148 -2.43103 3.33129 0
M  V30 5186 H 506.489 -0.168403 0.64229 0
M  V30 5187 H 509.019 0.109573 2.04306 0
M  V30 5188 H 509.029 -1.66895 3.72304 0
M  V30 5189 H 507.704 -0.586205 4.11748 0
M  V30 5190 H 506.281 -2.0976 3.0831 0
M  V30 5191 N 508.466 -1.55915 -0.229846 0
M  V30 5192 C 509.691 -1.8296 -0.976743 0
M  V30 5193 C 510.116 -0.622735 -1.77493 0
M  V30 5194 O 509.474 0.428431 -1.76165 0
M  V30 5195 C 509.522 -3.07916 -1.8767 0
M  V30 5196 O 508.626 -2.86028 -2.97088 0
M  V30 5197 H 507.967 -0.603453 -0.277021 0
M  V30 5198 H 510.497 -2.0312 -0.245669 0
M  V30 5199 H 510.507 -3.37802 -2.2881 0
M  V30 5200 H 509.182 -3.95389 -1.28996 0
M  V30 5201 H 507.759 -2.67355 -2.59954 0
M  V30 5202 N 509.944 0.496216 -1.49584 0
M  V30 5203 C 511.174 1.27209 -1.62793 0
M  V30 5204 C 511.582 1.86799 -0.300476 0
M  V30 5205 O 510.925 1.68802 0.724674 0
M  V30 5206 C 510.987 2.43812 -2.64189 0
M  V30 5207 C 510.651 2.05055 -4.08414 0
M  V30 5208 C 511.648 1.58752 -4.9507 0
M  V30 5209 C 509.333 2.14543 -4.54177 0
M  V30 5210 C 511.327 1.22448 -6.25528 0
M  V30 5211 C 509.014 1.77851 -5.84647 0
M  V30 5212 C 510.012 1.31878 -6.70147 0
M  V30 5213 O 509.7 0.956834 -7.98185 0
M  V30 5214 H 509.432 0.391848 -0.550846 0
M  V30 5215 H 511.986 0.601712 -1.96389 0
M  V30 5216 H 510.216 3.13941 -2.25783 0
M  V30 5217 H 511.905 3.05829 -2.66877 0
M  V30 5218 H 512.671 1.50863 -4.60939 0
M  V30 5219 H 508.55 2.49277 -3.87791 0
M  V30 5220 H 512.094 0.864933 -6.92217 0
M  V30 5221 H 507.991 1.8539 -6.18305 0
M  V30 5222 H 508.759 1.08789 -8.11238 0
M  V30 5223 N 511.423 1.38739 0.74761 0
M  V30 5224 C 512.648 1.38702 1.54197 0
M  V30 5225 C 513.073 -0.019664 1.8809 0
M  V30 5226 O 512.431 -1.00333 1.51006 0
M  V30 5227 C 512.479 2.25492 2.814 0
M  V30 5228 O 511.583 1.67613 3.76802 0
M  V30 5229 H 510.924 0.472863 0.466151 0
M  V30 5230 H 513.454 1.82577 0.923413 0
M  V30 5231 H 513.464 2.39561 3.30264 0
M  V30 5232 H 512.139 3.27727 2.56062 0
M  V30 5233 H 510.716 1.62718 3.35526 0
M  V30 5234 N 512.901 -0.976442 1.23707 0
M  V30 5235 C 514.147 -1.72081 1.07312 0
M  V30 5236 C 514.48 -1.90275 -0.388476 0
M  V30 5237 O 513.755 -1.4579 -1.28746 0
M  V30 5238 C 514.038 -3.11675 1.80363 0
M  V30 5239 C 513.891 -3.01027 3.3422 0
M  V30 5240 C 515.21 -4.1117 1.5693 0
M  V30 5241 H 512.329 -0.624583 0.391236 0
M  V30 5242 H 514.971 -1.13649 1.52263 0
M  V30 5243 H 513.121 -3.61559 1.42153 0
M  V30 5244 H 514.793 -2.58637 3.81975 0
M  V30 5245 H 513.036 -2.3744 3.63049 0
M  V30 5246 H 513.707 -3.9988 3.80525 0
M  V30 5247 H 516.183 -3.7011 1.90151 0
M  V30 5248 H 515.059 -5.06928 2.10513 0
M  V30 5249 H 515.32 -4.392 0.505548 0
M  V30 5250 N 514.379 -1.04941 -1.1758 0
M  V30 5251 C 515.795 -0.770282 -1.39781 0
M  V30 5252 C 515.995 0.636417 -1.91186 0
M  V30 5253 O 515.051 1.39923 -2.10185 0
M  V30 5254 C 516.364 -1.82376 -2.3908 0
M  V30 5255 C 517.912 -1.84569 -2.52791 0
M  V30 5256 C 518.387 -2.88933 -3.55361 0
M  V30 5257 N 519.878 -2.8788 -3.62877 0
M  V30 5258 C 520.613 -3.65282 -4.41992 0
M  V30 5259 N 520.109 -4.52461 -5.24643 0
M  V30 5260 N 521.902 -3.53732 -4.36841 0
M  V30 5261 H 514.053 -1.95705 -0.825438 0
M  V30 5262 H 516.316 -0.847284 -0.425222 0
M  V30 5263 H 516.022 -2.83323 -2.08376 0
M  V30 5264 H 515.896 -1.66327 -3.38549 0
M  V30 5265 H 518.283 -0.842879 -2.82807 0
M  V30 5266 H 518.364 -2.04696 -1.53406 0
M  V30 5267 H 518.008 -3.89398 -3.26085 0
M  V30 5268 H 517.938 -2.66059 -4.54445 0
M  V30 5269 H 520.429 -2.24666 -3.03864 0
M  V30 5270 H 520.742 -5.08211 -5.82187 0
M  V30 5271 H 519.087 -4.56524 -5.24033 0
M  V30 5272 H 522.278 -2.85021 -3.71323 0
M  V30 5273 H 522.451 -4.14302 -4.98255 0
M  V30 5274 O 515.896 1.29495 -0.96506 0
M  V30 5275 H 516.587 1.84082 -0.602793 0
M  V30 END ATOM
M  V30 BEGIN BOND
M  V30 END BOND
M  V30 END CTAB
M  END
$$$$
