drugbank_target|P50859 Lanosterol 14-alpha demethylase (DB01026; DB01167; DB09040; DB11633)
 OpenBabel12092119373D

  0  0  0     0  0            999 V3000
M  V30 BEGIN CTAB
M  V30 COUNTS 8597 8714 0 0 0
M  V30 BEGIN ATOM
M  V30 1 H -0.908 1.98254 -0.117106 0
M  V30 2 N 0 1.576 0 0
M  V30 3 C 0.933 2.03868 1.02534 0
M  V30 4 C 1.911 0.928543 1.3348 0
M  V30 5 O 3.095 1.19667 1.45644 0
M  V30 6 C 0.222 2.43627 2.35294 0
M  V30 7 C -0.732 3.65373 2.2001 0
M  V30 8 S 0.101 5.13292 1.52614 0
M  V30 9 C 1.257 5.56322 2.86805 0
M  V30 10 H 1.49 2.90518 0.631377 0
M  V30 11 H -0.977 1.52953 0.210867 0
M  V30 12 H 0.981 2.67203 3.11629 0
M  V30 13 H -0.358 1.57376 2.7183 0
M  V30 14 H -1.165 3.90944 3.18086 0
M  V30 15 H -1.563 3.418 1.51819 0
M  V30 16 H 0.729 5.58782 3.83104 0
M  V30 17 H 1.672 6.56266 2.65933 0
M  V30 18 H 2.08 4.83886 2.90714 0
M  V30 19 N 1.4781 -0.272755 1.55222 0
M  V30 20 C 2.7031 -1.02683 1.80197 0
M  V30 21 C 3.1281 -1.79142 0.573551 0
M  V30 22 O 2.4861 -1.74917 -0.476849 0
M  V30 23 C 2.5341 -1.9609 3.02624 0
M  V30 24 O 1.6381 -3.04863 2.77727 0
M  V30 25 H 0.9791 -0.293557 0.595584 0
M  V30 26 H 3.5091 -0.30159 2.02365 0
M  V30 27 H 3.5191 -2.38039 3.31363 0
M  V30 28 H 2.1941 -1.39851 3.91682 0
M  V30 29 H 0.7711 -2.67228 2.60084 0
M  V30 30 N 2.9562 -1.48159 -0.537278 0
M  V30 31 C 4.1842 -1.59454 -1.31841 0
M  V30 32 C 4.5992 -0.252065 -1.8711 0
M  V30 33 O 3.9562 0.757621 -1.66031 0
M  V30 34 C 4.0072 -2.63546 -2.47439 0
M  V30 35 O 3.7282 -3.92583 -1.94449 0
M  V30 36 C 5.2292 -2.85212 -3.39366 0
M  V30 37 H 2.4492 -0.53785 -0.401196 0
M  V30 38 H 4.9932 -1.93932 -0.648891 0
M  V30 39 H 3.1482 -2.31946 -3.1029 0
M  V30 40 H 3.5622 -4.49629 -2.70063 0
M  V30 41 H 5.0362 -3.61863 -4.16844 0
M  V30 42 H 5.5132 -1.93765 -3.94147 0
M  V30 43 H 6.1192 -3.18086 -2.82314 0
M  V30 44 N 4.4343 0.785586 -1.36625 0
M  V30 45 C 5.3443 1.92964 -1.33425 0
M  V30 46 C 6.3603 1.72394 -0.235851 0
M  V30 47 O 7.5363 1.95866 -0.468878 0
M  V30 48 C 4.6013 3.27884 -1.12662 0
M  V30 49 C 3.6623 3.61204 -2.32013 0
M  V30 50 C 2.8953 4.89687 -2.12231 0
M  V30 51 O 3.1183 5.59704 -1.09945 0
M  V30 52 O 2.0523 5.21752 -3.00098 0
M  V30 53 H 5.8783 1.98613 -2.29753 0
M  V30 54 H 3.4633 0.926384 -1.17211 0
M  V30 55 H 5.3453 4.08614 -1.03016 0
M  V30 56 H 4.0203 3.23118 -0.193991 0
M  V30 57 H 2.9273 2.80765 -2.47228 0
M  V30 58 H 4.2603 3.70698 -3.23796 0
M  V30 59 N 5.9124 1.20967 1.01018 0
M  V30 60 C 6.8604 0.961223 2.1181 0
M  V30 61 C 7.8544 -0.0897034 1.69162 0
M  V30 62 O 9.0604 0.0612271 1.79896 0
M  V30 63 H 5.4354 0.29355 0.692338 0
M  V30 64 H 7.4064 1.90178 2.29946 0
M  V30 65 C 6.1554 0.536854 3.4353 0
M  V30 66 H 5.4784 1.33713 3.76777 0
M  V30 67 H 6.9184 0.402286 4.22087 0
M  V30 68 C 5.3774 -0.751574 3.2841 0
M  V30 69 O 5.9074 -1.80841 3.58691 0
M  V30 70 N 4.1134 -0.716079 2.81639 0
M  V30 71 H 3.6604 0.144236 2.57196 0
M  V30 72 H 3.6184 -1.57847 2.71904 0
M  V30 73 N 7.3905 -1.2043 1.01659 0
M  V30 74 C 8.6185 -1.93777 0.725132 0
M  V30 75 C 9.0335 -1.74772 -0.714166 0
M  V30 76 O 8.3905 -1.06169 -1.4844 0
M  V30 77 C 8.4415 -3.45876 1.05129 0
M  V30 78 O 8.1625 -3.6426 2.43406 0
M  V30 79 C 9.6635 -4.36368 0.780891 0
M  V30 80 H 6.8835 -0.615901 0.266284 0
M  V30 81 H 9.4275 -1.52922 1.35776 0
M  V30 82 H 7.5825 -3.8461 0.464065 0
M  V30 83 H 7.9965 -4.58246 2.55169 0
M  V30 84 H 9.4705 -5.41743 1.05918 0
M  V30 85 H 9.9475 -4.38275 -0.284937 0
M  V30 86 H 10.5535 -4.03296 1.35027 0
M  V30 87 N 8.8686 -0.792821 -1.36206 0
M  V30 88 C 10.0936 -0.377701 -2.03932 0
M  V30 89 C 10.5186 0.998947 -1.59382 0
M  V30 90 O 9.8766 1.64421 -0.763903 0
M  V30 91 C 9.9246 -0.453635 -3.57735 0
M  V30 92 O 9.0286 0.538151 -4.08874 0
M  V30 93 H 8.3696 -0.159855 -0.644471 0
M  V30 94 H 10.8996 -1.07488 -1.7409 0
M  V30 95 H 10.9096 -0.318464 -4.06755 0
M  V30 96 H 9.5846 -1.45784 -3.89512 0
M  V30 97 H 8.1616 0.364359 -3.71116 0
M  V30 98 N 10.3467 1.47872 -0.545128 0
M  V30 99 C 11.2767 2.32661 0.197793 0
M  V30 100 C 12.2577 1.43041 0.920504 0
M  V30 101 O 13.4427 1.71912 0.90333 0
M  V30 102 C 10.5727 3.24569 1.23582 0
M  V30 103 C 9.5267 4.23333 0.630323 0
M  V30 104 C 8.8527 5.0448 1.77211 0
M  V30 105 C 10.1527 5.20704 -0.407974 0
M  V30 106 H 11.8467 2.95024 -0.510045 0
M  V30 107 H 9.3927 1.4187 -0.246731 0
M  V30 108 H 11.3457 3.8272 1.76362 0
M  V30 109 H 10.0697 2.60236 1.97344 0
M  V30 110 H 8.7287 3.6639 0.123922 0
M  V30 111 H 8.3767 4.36561 2.49847 0
M  V30 112 H 8.0767 5.71339 1.37281 0
M  V30 113 H 9.6007 5.65487 2.3034 0
M  V30 114 H 11.0147 5.7329 0.033305 0
M  V30 115 H 9.4117 5.95699 -0.725486 0
M  V30 116 H 10.4817 4.66917 -1.30828 0
M  V30 117 N 11.8248 0.280983 1.55075 0
M  V30 118 C 13.0708 -0.33461 2.00021 0
M  V30 119 C 13.4038 -1.55063 1.16915 0
M  V30 120 O 12.6788 -1.93006 0.240646 0
M  V30 121 C 12.9618 -0.711007 3.53011 0
M  V30 122 C 12.8148 0.512766 4.46868 0
M  V30 123 C 14.1338 -1.54522 4.12081 0
M  V30 124 H 11.2528 -0.120147 0.727141 0
M  V30 125 H 13.8948 0.389097 1.85973 0
M  V30 126 H 12.0448 -1.32761 3.65112 0
M  V30 127 H 13.7168 1.15131 4.46702 0
M  V30 128 H 11.9598 1.14975 4.18286 0
M  V30 129 H 12.6308 0.205556 5.51617 0
M  V30 130 H 15.1068 -1.02442 4.03293 0
M  V30 131 H 13.9828 -1.77739 5.19327 0
M  V30 132 H 14.2438 -2.52813 3.62682 0
M  V30 133 N 13.3029 -1.57598 0.00835791 0
M  V30 134 C 14.5489 -1.91211 -0.675732 0
M  V30 135 C 14.8819 -0.883139 -1.72958 0
M  V30 136 O 14.1569 0.097016 -1.94258 0
M  V30 137 C 14.4399 -3.35379 -1.31123 0
M  V30 138 C 14.2929 -4.48999 -0.268356 0
M  V30 139 C 15.6119 -3.7912 -2.23508 0
M  V30 140 H 12.7309 -0.695374 -0.244179 0
M  V30 141 H 15.3729 -1.89901 0.0613655 0
M  V30 142 H 13.5229 -3.36626 -1.93946 0
M  V30 143 H 15.1949 -4.59887 0.360844 0
M  V30 144 H 13.4379 -4.31873 0.408482 0
M  V30 145 H 14.1089 -5.46851 -0.752218 0
M  V30 146 H 16.5849 -3.79477 -1.70693 0
M  V30 147 H 15.4609 -4.80729 -2.64936 0
M  V30 148 H 15.7219 -3.13455 -3.11766 0
M  V30 149 N 14.781 0.264519 -1.55364 0
M  V30 150 C 15.691 1.34902 -1.91934 0
M  V30 151 C 16.707 1.53595 -0.817593 0
M  V30 152 O 17.883 1.67558 -1.11742 0
M  V30 153 C 14.948 2.68676 -2.19121 0
M  V30 154 C 14.009 2.58657 -3.4263 0
M  V30 155 C 13.242 3.86051 -3.68511 0
M  V30 156 O 13.465 4.87126 -2.96757 0
M  V30 157 O 12.399 3.85744 -4.62045 0
M  V30 158 H 16.225 1.06883 -2.8427 0
M  V30 159 H 13.81 0.463775 -1.42019 0
M  V30 160 H 15.692 3.47759 -2.37995 0
M  V30 161 H 14.367 2.96463 -1.29966 0
M  V30 162 H 13.274 1.7792 -3.29082 0
M  V30 163 H 14.607 2.35818 -4.32031 0
M  V30 164 N 16.2591 1.48442 0.529413 0
M  V30 165 C 17.1891 1.65902 1.64313 0
M  V30 166 C 18.1701 0.507897 1.6234 0
M  V30 167 O 19.3551 0.740503 1.79528 0
M  V30 168 C 16.4851 1.69911 3.02898 0
M  V30 169 C 15.4391 2.8453 3.19729 0
M  V30 170 C 14.7651 2.73629 4.59381 0
M  V30 171 C 16.0651 4.25821 3.02447 0
M  V30 172 H 17.7591 2.5914 1.49955 0
M  V30 173 H 15.3051 1.24709 0.719982 0
M  V30 174 H 17.2581 1.80715 3.80684 0
M  V30 175 H 15.9821 0.732524 3.18279 0
M  V30 176 H 14.6411 2.73283 2.44361 0
M  V30 177 H 14.2891 1.74938 4.71599 0
M  V30 178 H 13.9891 3.50541 4.71588 0
M  V30 179 H 15.5131 2.86401 5.39265 0
M  V30 180 H 16.9271 4.37898 3.70024 0
M  V30 181 H 15.3241 5.03735 3.26146 0
M  V30 182 H 16.3941 4.42244 1.98867 0
M  V30 183 N 17.7372 -0.778329 1.37039 0
M  V30 184 C 18.6672 -1.90546 1.34962 0
M  V30 185 C 19.6482 -1.68681 0.219274 0
M  V30 186 O 20.8332 -1.89634 0.418624 0
M  V30 187 C 17.9632 -3.27734 1.14925 0
M  V30 188 C 16.9172 -3.64147 2.24902 0
M  V30 189 C 16.2432 -4.99806 1.89996 0
M  V30 190 C 17.5432 -3.71579 3.67051 0
M  V30 191 H 19.2372 -1.92541 2.29277 0
M  V30 192 H 16.7832 -0.924948 1.10366 0
M  V30 193 H 18.7362 -4.06215 1.12104 0
M  V30 194 H 17.4602 -3.26154 0.170631 0
M  V30 195 H 16.1192 -2.8797 2.26868 0
M  V30 196 H 15.7672 -4.94759 0.906796 0
M  V30 197 H 15.4672 -5.25139 2.63634 0
M  V30 198 H 16.9912 -5.80694 1.88749 0
M  V30 199 H 18.4052 -4.40227 3.67251 0
M  V30 200 H 16.8022 -4.08405 4.39688 0
M  V30 201 H 17.8722 -2.72404 4.01154 0
M  V30 202 N 19.2153 -1.21501 -1.00376 0
M  V30 203 C 20.1253 -0.991447 -2.12621 0
M  V30 204 C 21.1413 0.0568446 -1.73907 0
M  V30 205 O 22.3173 -0.13348 -2.00957 0
M  V30 206 C 19.3823 -0.560312 -3.42142 0
M  V30 207 C 18.4433 -1.68096 -3.95022 0
M  V30 208 C 17.6763 -1.2703 -5.18362 0
M  V30 209 O 17.8993 -0.144438 -5.70217 0
M  V30 210 O 16.8333 -2.08269 -5.64719 0
M  V30 211 H 20.6593 -1.93158 -2.34358 0
M  V30 212 H 18.2443 -0.999999 -1.10997 0
M  V30 213 H 20.1263 -0.329724 -4.20108 0
M  V30 214 H 18.8013 0.351089 -3.2179 0
M  V30 215 H 17.7083 -1.96597 -3.18278 0
M  V30 216 H 19.0413 -2.56983 -4.19786 0
M  V30 217 N 20.6934 1.19889 -1.02296 0
M  V30 218 C 21.9234 1.93109 -0.734332 0
M  V30 219 C 22.3314 1.75377 0.709889 0
M  V30 220 O 21.6744 1.06912 1.49384 0
M  V30 221 C 21.7364 3.45362 -0.99827 0
M  V30 222 C 21.4004 3.8686 -2.43287 0
M  V30 223 C 22.3974 3.92102 -3.41397 0
M  V30 224 C 20.0824 4.18668 -2.77529 0
M  V30 225 C 22.0764 4.28573 -4.71809 0
M  V30 226 C 19.7634 4.54813 -4.08153 0
M  V30 227 C 20.7614 4.59739 -5.05103 0
M  V30 228 O 20.4494 4.95051 -6.33388 0
M  V30 229 H 20.1814 0.620409 -0.268456 0
M  V30 230 H 22.7354 1.53144 -1.3688 0
M  V30 231 H 20.9654 3.85482 -0.306645 0
M  V30 232 H 22.6544 3.99814 -0.700234 0
M  V30 233 H 23.4204 3.67685 -3.1628 0
M  V30 234 H 19.2994 4.14021 -2.0275 0
M  V30 235 H 22.8434 4.32333 -5.4748 0
M  V30 236 H 18.7404 4.78687 -4.33047 0
M  V30 237 H 19.5084 5.1302 -6.37772 0
M  V30 238 N 22.1715 0.800033 1.35784 0
M  V30 239 C 23.4175 0.377901 1.99248 0
M  V30 240 C 23.7505 -1.05052 1.63333 0
M  V30 241 O 23.0255 -1.72768 0.893385 0
M  V30 242 C 23.3085 0.553922 3.55814 0
M  V30 243 C 23.1615 2.0268 4.01548 0
M  V30 244 C 24.4805 -0.0244802 4.40093 0
M  V30 245 H 21.5995 0.138782 0.723815 0
M  V30 246 H 24.2415 1.00835 1.61035 0
M  V30 247 H 22.3915 0.0172398 3.88496 0
M  V30 248 H 24.0635 2.62536 3.79305 0
M  V30 249 H 22.3065 2.5256 3.52698 0
M  V30 250 H 22.9775 2.10087 5.10458 0
M  V30 251 H 25.4535 0.433775 4.13833 0
M  V30 252 H 24.3295 0.128637 5.48749 0
M  V30 253 H 24.5905 -1.11758 4.27741 0
M  V30 254 N 23.6496 -1.47581 0.552962 0
M  V30 255 C 24.5966 -2.29957 -0.197108 0
M  V30 256 C 25.5666 -1.38799 -0.912359 0
M  V30 257 O 26.7516 -1.67761 -0.908888 0
M  V30 258 C 23.8916 -3.22672 -1.22379 0
M  V30 259 C 23.0046 -4.28919 -0.515038 0
M  V30 260 C 22.1396 -5.0879 -1.52664 0
M  V30 261 C 21.1786 -6.06815 -0.802631 0
M  V30 262 N 20.3156 -6.7966 -1.76086 0
M  V30 263 H 25.1556 -2.93578 0.511486 0
M  V30 264 H 22.6926 -1.4471 0.264067 0
M  V30 265 H 24.6506 -3.74845 -1.83159 0
M  V30 266 H 23.2806 -2.60925 -1.90047 0
M  V30 267 H 22.3326 -3.79835 0.207192 0
M  V30 268 H 23.6446 -4.98773 0.0523425 0
M  V30 269 H 22.7986 -5.65091 -2.20809 0
M  V30 270 H 21.5376 -4.38828 -2.12794 0
M  V30 271 H 20.5426 -5.49695 -0.107238 0
M  V30 272 H 21.7676 -6.78784 -0.207135 0
M  V30 273 H 19.7136 -6.12432 -2.35081 0
M  V30 274 H 19.6306 -7.45669 -1.24552 0
M  V30 275 H 20.8986 -7.40538 -2.43359 0
M  V30 276 N 25.1277 -0.289203 -1.54924 0
M  V30 277 C 26.0577 0.58549 -2.2604 0
M  V30 278 C 27.0387 1.14753 -1.25562 0
M  V30 279 O 28.2237 1.17906 -1.54311 0
M  V30 280 C 25.3537 1.76305 -2.99222 0
M  V30 281 C 24.3077 1.33191 -4.06748 0
M  V30 282 C 23.6337 2.5937 -4.6758 0
M  V30 283 C 24.9337 0.471775 -5.20165 0
M  V30 284 H 26.6277 -0.00763532 -2.99399 0
M  V30 285 H 24.1737 -0.00511229 -1.43999 0
M  V30 286 H 26.1267 2.38097 -3.47689 0
M  V30 287 H 24.8507 2.38223 -2.23422 0
M  V30 288 H 23.5097 0.737121 -3.59113 0
M  V30 289 H 23.1577 3.19576 -3.88433 0
M  V30 290 H 22.8577 2.31228 -5.40192 0
M  V30 291 H 24.3817 3.21985 -5.18804 0
M  V30 292 H 25.7957 0.995056 -5.64599 0
M  V30 293 H 24.1927 0.284639 -5.99425 0
M  V30 294 H 25.2627 -0.506041 -4.82252 0
M  V30 295 N 26.6058 1.57591 -0.0167156 0
M  V30 296 C 27.8538 1.90906 0.663285 0
M  V30 297 C 28.1748 0.892509 1.73376 0
M  V30 298 O 27.4448 -0.0677623 1.95783 0
M  V30 299 H 26.0248 0.704637 0.247983 0
M  V30 300 H 28.6868 1.94803 -0.0615909 0
M  V30 301 H 27.7828 2.9116 1.12393 0
M  V30 302 N 28.0839 -0.256276 1.55502 0
M  V30 303 C 29.0139 -1.32102 1.92539 0
M  V30 304 C 29.9949 -1.50684 0.789194 0
M  V30 305 O 31.1799 -1.63449 1.04872 0
M  V30 306 C 28.3099 -2.67752 2.21192 0
M  V30 307 C 27.2639 -2.63878 3.36975 0
M  V30 308 C 26.5899 -4.03236 3.51147 0
M  V30 309 C 27.8899 -2.21682 4.72921 0
M  V30 310 H 29.5839 -1.01351 2.81724 0
M  V30 311 H 27.1299 -0.486105 1.35547 0
M  V30 312 H 29.0829 -3.42365 2.45691 0
M  V30 313 H 27.8069 -3.0012 1.28824 0
M  V30 314 H 26.4659 -1.91722 3.12471 0
M  V30 315 H 26.1139 -4.32854 2.56216 0
M  V30 316 H 25.8139 -4.01535 4.29003 0
M  V30 317 H 27.3379 -4.79563 3.77957 0
M  V30 318 H 28.7519 -2.86023 4.96854 0
M  V30 319 H 27.1489 -2.3111 5.53812 0
M  V30 320 H 28.2189 -1.16833 4.70615 0
M  V30 321 N 29.562 -1.4872 -0.521534 0
M  V30 322 C 30.787 -1.61101 -1.30618 0
M  V30 323 C 31.212 -0.274611 -1.86085 0
M  V30 324 O 30.57 0.754937 -1.64834 0
M  V30 325 C 30.618 -2.66709 -2.4269 0
M  V30 326 O 29.722 -2.24456 -3.45967 0
M  V30 327 H 29.063 -0.539921 -0.386499 0
M  V30 328 H 31.593 -1.94767 -0.626645 0
M  V30 329 H 31.603 -2.88245 -2.88754 0
M  V30 330 H 30.278 -3.63727 -2.01682 0
M  V30 331 H 28.855 -2.13168 -3.05964 0
M  V30 332 N 31.0401 0.771051 -1.3745 0
M  V30 333 C 32.2701 1.55789 -1.35696 0
M  V30 334 C 32.6781 1.89107 0.0594523 0
M  V30 335 O 32.0211 1.51984 1.03183 0
M  V30 336 C 32.0831 2.89515 -2.13123 0
M  V30 337 C 31.7471 2.78829 -3.62082 0
M  V30 338 C 32.7441 2.49812 -4.5595 0
M  V30 339 C 30.4291 2.9683 -4.05213 0
M  V30 340 C 32.4231 2.38923 -5.90927 0
M  V30 341 C 30.1101 2.85562 -5.40276 0
M  V30 342 C 31.1081 2.56649 -6.32946 0
M  V30 343 O 30.7961 2.45408 -7.65526 0
M  V30 344 H 30.5281 0.489257 -0.466481 0
M  V30 345 H 33.0821 0.963446 -1.81403 0
M  V30 346 H 31.3121 3.51081 -1.62107 0
M  V30 347 H 33.0011 3.50915 -2.03994 0
M  V30 348 H 33.7671 2.3559 -4.23937 0
M  V30 349 H 29.6461 3.18335 -3.33442 0
M  V30 350 H 33.1901 2.16277 -6.63227 0
M  V30 351 H 29.0871 2.99351 -5.71891 0
M  V30 352 H 29.8551 2.60753 -7.75855 0
M  V30 353 N 32.5182 1.22032 0.997298 0
M  V30 354 C 33.7652 1.04222 1.73621 0
M  V30 355 C 34.0932 -0.423264 1.89839 0
M  V30 356 O 33.3482 -1.3302 1.43542 0
M  V30 357 C 33.6472 1.69345 3.14733 0
M  V30 358 C 33.3132 3.19226 3.18442 0
M  V30 359 C 31.9752 3.60124 3.19161 0
M  V30 360 C 34.3272 4.15181 3.15078 0
M  V30 361 C 31.6552 4.95467 3.14212 0
M  V30 362 C 34.0072 5.50495 3.1167 0
M  V30 363 C 32.6712 5.90779 3.10703 0
M  V30 364 H 31.9412 0.381374 0.635323 0
M  V30 365 H 34.5882 1.51732 1.16831 0
M  V30 366 H 32.8932 1.14147 3.74803 0
M  V30 367 H 34.5902 1.53059 3.7064 0
M  V30 368 H 31.1802 2.86659 3.18629 0
M  V30 369 H 35.3642 3.84605 3.13676 0
M  V30 370 H 30.6202 5.25916 3.11805 0
M  V30 371 H 34.7942 6.24576 3.08022 0
M  V30 372 H 32.4212 6.9562 3.06622 0
M  V30 373 N 33.9963 -1.19345 1.0293 0
M  V30 374 C 34.9283 -2.22036 0.56857 0
M  V30 375 C 35.9413 -1.58865 -0.355779 0
M  V30 376 O 37.1303 -1.77851 -0.152103 0
M  V30 377 C 34.2303 -3.38363 -0.190752 0
M  V30 378 C 33.4033 -4.31118 0.738643 0
M  V30 379 C 32.4623 -5.26194 0.0246497 0
M  V30 380 O 31.4883 -5.65461 0.651354 0
M  V30 381 N 32.6903 -5.66971 -1.24594 0
M  V30 382 H 35.4553 -2.6219 1.45177 0
M  V30 383 H 33.0163 -1.34015 0.908381 0
M  V30 384 H 35.0083 -3.98981 -0.677961 0
M  V30 385 H 33.5783 -2.96994 -0.975366 0
M  V30 386 H 32.7983 -3.68276 1.40593 0
M  V30 387 H 34.0863 -4.90001 1.37029 0
M  V30 388 H 33.4843 -5.37104 -1.77583 0
M  V30 389 H 32.0413 -6.2984 -1.67764 0
M  V30 390 N 35.4744 -0.807222 -1.35358 0
M  V30 391 C 36.4374 -0.223665 -2.28106 0
M  V30 392 C 37.4374 0.589354 -1.4961 0
M  V30 393 O 38.6274 0.407745 -1.69361 0
M  V30 394 C 35.7594 0.688149 -3.33882 0
M  V30 395 H 36.9524 -1.04169 -2.81227 0
M  V30 396 H 34.5054 -0.577921 -1.45223 0
M  V30 397 H 35.2404 1.52984 -2.85948 0
M  V30 398 H 35.0254 0.10687 -3.91954 0
M  V30 399 H 36.5154 1.09075 -4.03104 0
M  V30 400 N 36.9525 1.47285 -0.560781 0
M  V30 401 C 37.8825 2.32857 0.173105 0
M  V30 402 C 38.8635 1.44009 0.905281 0
M  V30 403 O 40.0485 1.7286 0.885046 0
M  V30 404 C 37.1785 3.25861 1.20133 0
M  V30 405 C 36.1325 4.23978 0.585388 0
M  V30 406 C 35.4585 5.06332 1.7185 0
M  V30 407 C 36.7585 5.20242 -0.463178 0
M  V30 408 H 38.4525 2.94466 -0.541307 0
M  V30 409 H 35.9985 1.41601 -0.261764 0
M  V30 410 H 37.9515 3.84569 1.72293 0
M  V30 411 H 36.6755 2.62315 1.94573 0
M  V30 412 H 35.3345 3.66501 0.085054 0
M  V30 413 H 34.9825 4.39186 2.45203 0
M  V30 414 H 34.6825 5.72762 1.31213 0
M  V30 415 H 36.2065 5.67899 2.24329 0
M  V30 416 H 37.6205 5.73293 -0.027502 0
M  V30 417 H 36.0175 5.94896 -0.788627 0
M  V30 418 H 37.0875 4.65504 -1.35773 0
M  V30 419 N 38.4306 0.297415 1.54768 0
M  V30 420 C 39.8416 -0.195947 1.85669 0
M  V30 421 C 40.1926 -1.53707 1.21937 0
M  V30 422 O 39.3176 -2.10164 0.515754 0
M  V30 423 C 39.9126 -0.362318 3.36857 0
M  V30 424 C 38.4716 -0.799901 3.67802 0
M  V30 425 C 37.6186 0.0938578 2.77141 0
M  V30 426 H 40.5696 0.518538 1.4999 0
M  V30 427 H 40.5906 -1.19745 3.61167 0
M  V30 428 H 40.1026 0.613921 3.83214 0
M  V30 429 H 38.2036 -1.78682 3.26961 0
M  V30 430 H 38.3166 -0.621773 4.75048 0
M  V30 431 H 36.6806 -0.426254 2.51108 0
M  V30 432 H 37.4636 1.06639 3.26318 0
M  V30 433 N 39.9087 -1.5758 0.0250728 0
M  V30 434 C 40.8387 -2.13007 -0.956575 0
M  V30 435 C 41.8197 -1.0452 -1.342 0
M  V30 436 O 43.0047 -1.32332 -1.42133 0
M  V30 437 C 40.1347 -2.65386 -2.24026 0
M  V30 438 C 39.0887 -3.78623 -1.99571 0
M  V30 439 C 38.4147 -4.17414 -3.3417 0
M  V30 440 C 39.7147 -5.04867 -1.33814 0
M  V30 441 H 41.4087 -2.9528 -0.494991 0
M  V30 442 H 38.9547 -1.42042 -0.236651 0
M  V30 443 H 40.9077 -3.02794 -2.93076 0
M  V30 444 H 39.6317 -1.80268 -2.72343 0
M  V30 445 H 38.2907 -3.41646 -1.32941 0
M  V30 446 H 37.9387 -3.29284 -3.80238 0
M  V30 447 H 37.6387 -4.93719 -3.18615 0
M  V30 448 H 39.1627 -4.57402 -4.04495 0
M  V30 449 H 40.5767 -5.39888 -1.92857 0
M  V30 450 H 38.9737 -5.86144 -1.28669 0
M  V30 451 H 40.0437 -4.83904 -0.310561 0
M  V30 452 N 41.3868 0.248026 -1.55636 0
M  V30 453 C 42.3498 1.29044 -1.89421 0
M  V30 454 C 43.3498 1.41134 -0.770581 0
M  V30 455 O 44.5398 1.39854 -1.03858 0
M  V30 456 C 41.6718 2.66831 -2.12165 0
M  V30 457 H 42.8648 1.00305 -2.82629 0
M  V30 458 H 40.4178 0.487265 -1.48511 0
M  V30 459 H 41.1528 3.00711 -1.21422 0
M  V30 460 H 40.9378 2.59438 -2.93997 0
M  V30 461 H 42.4278 3.42103 -2.3949 0
M  V30 462 N 42.8649 1.48995 0.513639 0
M  V30 463 C 43.7969 1.60836 1.63293 0
M  V30 464 C 44.8099 0.491701 1.55197 0
M  V30 465 O 45.9989 0.763238 1.6136 0
M  V30 466 C 43.0989 1.53731 3.02027 0
M  V30 467 C 42.2719 2.80715 3.35437 0
M  V30 468 C 41.3309 2.66837 4.53525 0
M  V30 469 O 40.3569 3.40753 4.55934 0
M  V30 470 N 41.5589 1.77539 5.52684 0
M  V30 471 H 44.3239 2.57366 1.53566 0
M  V30 472 H 41.8849 1.45925 0.701259 0
M  V30 473 H 43.8769 1.42118 3.78926 0
M  V30 474 H 42.4469 0.651092 3.05744 0
M  V30 475 H 41.6669 3.06772 2.47557 0
M  V30 476 H 42.9549 3.64927 3.54551 0
M  V30 477 H 42.3529 1.16719 5.53528 0
M  V30 478 H 40.9099 1.71856 6.28736 0
M  V30 479 N 44.343 -0.763751 1.37857 0
M  V30 480 C 45.759 -1.06542 1.18832 0
M  V30 481 C 45.959 -2.01478 0.0299722 0
M  V30 482 O 45.015 -2.4458 -0.627447 0
M  V30 483 C 46.328 -1.65525 2.51042 0
M  V30 484 C 47.876 -1.77745 2.57635 0
M  V30 485 C 48.351 -2.4014 3.89996 0
M  V30 486 N 49.842 -2.47582 3.91481 0
M  V30 487 C 50.577 -2.96732 4.9065 0
M  V30 488 N 50.073 -3.45993 6.00217 0
M  V30 489 N 51.866 -2.95679 4.78048 0
M  V30 490 H 44.017 -0.133556 2.1198 0
M  V30 491 H 46.28 -0.121879 0.940133 0
M  V30 492 H 45.986 -1.03236 3.36207 0
M  V30 493 H 45.86 -2.64719 2.68707 0
M  V30 494 H 48.247 -2.39164 1.72872 0
M  V30 495 H 48.328 -0.772836 2.43846 0
M  V30 496 H 47.972 -1.79358 4.75177 0
M  V30 497 H 47.902 -3.41223 4.01092 0
M  V30 498 H 50.393 -2.1273 3.12337 0
M  V30 499 H 50.706 -3.81922 6.7183 0
M  V30 500 H 49.051 -3.44077 6.03851 0
M  V30 501 H 52.242 -2.56499 3.91568 0
M  V30 502 H 52.415 -3.33672 5.55488 0
M  V30 503 N 45.8211 -1.22559 -0.990812 0
M  V30 504 C 47.0671 -1.05297 -1.73322 0
M  V30 505 C 47.4001 0.410655 -1.89808 0
M  V30 506 O 46.6751 1.30439 -1.44277 0
M  V30 507 C 46.9581 -1.76713 -3.13759 0
M  V30 508 C 46.8111 -3.30684 -3.04907 0
M  V30 509 C 48.1301 -1.52121 -4.12974 0
M  V30 510 H 45.2491 -0.38392 -0.629106 0
M  V30 511 H 47.8911 -1.50926 -1.15418 0
M  V30 512 H 46.0411 -1.37924 -3.63193 0
M  V30 513 H 47.7131 -3.7893 -2.63077 0
M  V30 514 H 45.9561 -3.60253 -2.41661 0
M  V30 515 H 46.6271 -3.75833 -4.04294 0
M  V30 516 H 49.1031 -1.85819 -3.72304 0
M  V30 517 H 47.9791 -2.04582 -5.0935 0
M  V30 518 H 48.2401 -0.454257 -4.3976 0
M  V30 519 N 47.2992 1.18797 -1.03562 0
M  V30 520 C 48.5242 1.9314 -0.755764 0
M  V30 521 C 48.9492 1.7537 0.68022 0
M  V30 522 O 48.3072 1.06046 1.47051 0
M  V30 523 C 48.3552 3.42747 -1.12058 0
M  V30 524 O 47.4592 4.11683 -0.243124 0
M  V30 525 H 46.8002 0.602724 -0.278604 0
M  V30 526 H 49.3302 1.50678 -1.3841 0
M  V30 527 H 49.3402 3.93437 -1.08035 0
M  V30 528 H 48.0152 3.55002 -2.16672 0
M  V30 529 H 46.5922 3.71323 -0.342539 0
M  V30 530 N 48.7773 0.814389 1.34928 0
M  V30 531 C 50.0263 0.394871 1.97797 0
M  V30 532 C 50.3393 -1.04555 1.65311 0
M  V30 533 O 51.5453 -1.56856 2.21604 0
M  V30 534 C 50.0013 0.655103 3.53888 0
M  V30 535 C 49.6093 2.10858 3.95276 0
M  V30 536 C 51.3533 0.301329 4.23429 0
M  V30 537 C 49.2603 2.31415 5.44244 0
M  V30 538 H 48.1903 0.143913 0.740139 0
M  V30 539 H 50.8413 0.999544 1.53888 0
M  V30 540 H 49.2233 -0.0196253 3.95995 0
M  V30 541 H 50.3973 2.82176 3.64298 0
M  V30 542 H 48.7123 2.42297 3.38646 0
M  V30 543 H 51.3093 0.432869 5.32945 0
M  V30 544 H 51.6523 -0.75331 4.09428 0
M  V30 545 H 52.1853 0.930288 3.86769 0
M  V30 546 H 48.9243 3.35353 5.63222 0
M  V30 547 H 48.4443 1.6463 5.76764 0
M  V30 548 H 50.1233 2.13352 6.10811 0
M  V30 549 N 50.2554 -1.46986 0.568584 0
M  V30 550 C 51.1884 -2.27129 -0.220779 0
M  V30 551 C 52.1664 -1.34757 -0.909905 0
M  V30 552 O 53.3504 -1.64152 -0.926622 0
M  V30 553 C 50.4774 -3.12108 -1.31553 0
M  V30 554 C 49.5234 -4.20141 -0.733748 0
M  V30 555 S 50.3564 -5.33783 0.428479 0
M  V30 556 C 51.5124 -6.22327 -0.667811 0
M  V30 557 H 51.7454 -2.93731 0.459267 0
M  V30 558 H 49.2784 -1.5026 0.355154 0
M  V30 559 H 51.2364 -3.61636 -1.94241 0
M  V30 560 H 49.8974 -2.44847 -1.96746 0
M  V30 561 H 49.0904 -4.79373 -1.5562 0
M  V30 562 H 48.6924 -3.73553 -0.182812 0
M  V30 563 H 50.9844 -6.59364 -1.55708 0
M  V30 564 H 51.9274 -7.0801 -0.11258 0
M  V30 565 H 52.3354 -5.5618 -0.965601 0
M  V30 566 N 51.7335 -0.305618 -1.54608 0
M  V30 567 C 52.9795 0.302746 -2.00528 0
M  V30 568 C 53.3125 1.53184 -1.19367 0
M  V30 569 O 52.5875 1.92598 -0.271321 0
M  V30 570 C 52.8705 0.654756 -3.54097 0
M  V30 571 C 52.7235 -0.583793 -4.45995 0
M  V30 572 C 54.0425 1.47947 -4.14487 0
M  V30 573 H 51.1615 0.108564 -0.72896 0
M  V30 574 H 53.8035 -0.418634 -1.85331 0
M  V30 575 H 51.9535 1.26935 -3.67178 0
M  V30 576 H 53.6255 -1.22224 -4.44814 0
M  V30 577 H 51.8685 -1.21615 -4.16404 0
M  V30 578 H 52.5395 -0.293287 -5.5122 0
M  V30 579 H 55.0155 0.96013 -4.04871 0
M  V30 580 H 53.8915 1.69454 -5.22088 0
M  V30 581 H 54.1525 2.47011 -3.66658 0
M  V30 582 N 53.2116 1.57565 -0.0334293 0
M  V30 583 C 54.1746 2.09393 0.932048 0
M  V30 584 C 55.1746 1.00986 1.25134 0
M  V30 585 O 56.3646 1.27129 1.19096 0
M  V30 586 C 53.4966 2.56338 2.2473 0
M  V30 587 H 54.6896 2.95984 0.483085 0
M  V30 588 H 52.2426 1.54819 0.21468 0
M  V30 589 H 52.9776 1.7309 2.74245 0
M  V30 590 H 52.7626 3.35542 2.02865 0
M  V30 591 H 54.2526 2.96646 2.93923 0
M  V30 592 N 54.6897 -0.239769 1.55765 0
M  V30 593 C 55.6197 -1.30052 1.9393 0
M  V30 594 C 56.6007 -1.49839 0.805132 0
M  V30 595 O 57.7857 -1.62328 1.06599 0
M  V30 596 C 54.9157 -2.65391 2.2402 0
M  V30 597 C 53.8697 -2.60289 3.39755 0
M  V30 598 C 53.1957 -3.99489 3.55405 0
M  V30 599 C 54.4957 -2.16654 4.75246 0
M  V30 600 H 56.1897 -0.983573 2.82783 0
M  V30 601 H 53.7357 -0.471701 1.36055 0
M  V30 602 H 55.6887 -3.3974 2.49308 0
M  V30 603 H 54.4127 -2.98736 1.32 0
M  V30 604 H 53.0717 -1.88398 3.14487 0
M  V30 605 H 52.7197 -4.30112 2.60793 0
M  V30 606 H 52.4197 -3.96962 4.33238 0
M  V30 607 H 53.9437 -4.75528 3.83022 0
M  V30 608 H 55.3577 -2.80737 4.99859 0
M  V30 609 H 53.7547 -2.25223 5.56232 0
M  V30 610 H 54.8247 -1.11835 4.71827 0
M  V30 611 N 56.1678 -1.49265 -0.50573 0
M  V30 612 C 57.5788 -1.51769 -1.08734 0
M  V30 613 C 57.9298 -0.301192 -1.93874 0
M  V30 614 O 57.0548 0.589456 -2.08217 0
M  V30 615 C 57.6498 -2.75017 -1.97867 0
M  V30 616 C 56.2088 -2.80314 -2.51199 0
M  V30 617 C 55.3558 -2.4562 -1.28709 0
M  V30 618 H 58.3068 -1.56031 -0.289855 0
M  V30 619 H 58.3278 -2.5491 -2.82491 0
M  V30 620 H 57.8398 -3.63539 -1.35873 0
M  V30 621 H 55.9408 -1.96061 -3.16845 0
M  V30 622 H 56.0538 -3.82366 -2.88675 0
M  V30 623 H 54.4178 -1.97297 -1.61078 0
M  V30 624 H 55.2008 -3.36411 -0.6843 0
M  V30 625 N 57.6459 0.756429 -1.3826 0
M  V30 626 C 58.8929 1.51547 -1.34312 0
M  V30 627 C 59.2209 1.94382 0.0677144 0
M  V30 628 O 58.4759 1.65514 1.04421 0
M  V30 629 C 58.7749 2.78313 -2.24224 0
M  V30 630 C 58.4409 2.54455 -3.72241 0
M  V30 631 C 57.1029 2.47657 -4.12576 0
M  V30 632 C 59.4549 2.3354 -4.65949 0
M  V30 633 C 56.7829 2.17956 -5.44713 0
M  V30 634 C 59.1349 2.05359 -5.9834 0
M  V30 635 C 57.7989 1.97016 -6.37762 0
M  V30 636 H 57.0689 0.55455 -0.491482 0
M  V30 637 H 59.7159 0.870039 -1.70595 0
M  V30 638 H 58.0209 3.47492 -1.80987 0
M  V30 639 H 59.7179 3.36259 -2.18474 0
M  V30 640 H 56.3079 2.60616 -3.40261 0
M  V30 641 H 60.4919 2.37772 -4.35635 0
M  V30 642 H 55.7479 2.10003 -5.74203 0
M  V30 643 H 59.9219 1.88179 -6.70494 0
M  V30 644 H 57.5489 1.73766 -7.40074 0
M  V30 645 N 59.124 1.23083 0.984299 0
M  V30 646 C 60.37 1.06214 1.72761 0
M  V30 647 C 60.703 -0.400584 1.90024 0
M  V30 648 O 59.978 -1.29672 1.44967 0
M  V30 649 C 60.261 1.78375 3.12817 0
M  V30 650 C 60.114 3.32296 3.03149 0
M  V30 651 C 61.433 1.54309 4.12161 0
M  V30 652 H 58.552 0.387251 0.627061 0
M  V30 653 H 61.194 1.51536 1.14616 0
M  V30 654 H 59.344 1.39848 3.62457 0
M  V30 655 H 61.016 3.8032 2.61064 0
M  V30 656 H 59.259 3.6153 2.39747 0
M  V30 657 H 59.93 3.77972 4.02295 0
M  V30 658 H 62.406 1.87791 3.71314 0
M  V30 659 H 61.282 2.07281 5.08258 0
M  V30 660 H 61.543 0.477572 4.39513 0
M  V30 661 N 60.6021 -1.18246 1.0419 0
M  V30 662 C 61.8321 -1.91916 0.764961 0
M  V30 663 C 62.2401 -1.76485 -0.681898 0
M  V30 664 O 61.5831 -1.09275 -1.47664 0
M  V30 665 C 61.6451 -3.4373 1.05309 0
M  V30 666 C 61.3091 -3.8294 2.4941 0
M  V30 667 C 62.3061 -3.86621 3.47592 0
M  V30 668 C 59.9911 -4.142 2.84155 0
M  V30 669 C 61.9851 -4.21013 4.78568 0
M  V30 670 C 59.6721 -4.48262 4.15337 0
M  V30 671 C 60.6701 -4.51645 5.12353 0
M  V30 672 O 60.3581 -4.84911 6.41183 0
M  V30 673 H 60.0901 -0.61606 0.278292 0
M  V30 674 H 62.6441 -1.50947 1.39299 0
M  V30 675 H 60.8741 -3.84946 0.367933 0
M  V30 676 H 62.5631 -3.9865 0.763752 0
M  V30 677 H 63.3291 -3.62607 3.22089 0
M  V30 678 H 59.2081 -4.10743 2.09311 0
M  V30 679 H 62.7521 -4.23568 5.54289 0
M  V30 680 H 58.6491 -4.71737 4.40607 0
M  V30 681 H 59.4171 -5.02809 6.45852 0
M  V30 682 N 62.0802 -0.821533 -1.34494 0
M  V30 683 C 63.3082 -0.421884 -2.02553 0
M  V30 684 C 63.7232 0.971745 -1.61872 0
M  V30 685 O 63.0802 1.62864 -0.823496 0
M  V30 686 C 63.1312 -0.51285 -3.57844 0
M  V30 687 O 62.8522 -1.85155 -3.97051 0
M  V30 688 C 64.3532 -0.107921 -4.43169 0
M  V30 689 H 61.5732 -0.169482 -0.649243 0
M  V30 690 H 64.1172 -1.1093 -1.71798 0
M  V30 691 H 62.2722 0.126474 -3.87193 0
M  V30 692 H 62.6862 -1.82482 -4.91732 0
M  V30 693 H 64.1602 -0.222657 -5.51551 0
M  V30 694 H 64.6372 0.948401 -4.28838 0
M  V30 695 H 65.2432 -0.720989 -4.19144 0
M  V30 696 N 63.5583 1.46682 -0.576371 0
M  V30 697 C 64.8073 2.01619 -0.0572825 0
M  V30 698 C 65.1203 1.45417 1.30818 0
M  V30 699 O 66.3263 1.92133 1.91825 0
M  V30 700 C 64.7823 3.59863 -0.0518371 0
M  V30 701 C 64.3903 4.25059 -1.41523 0
M  V30 702 C 66.1343 4.2248 0.413639 0
M  V30 703 C 64.0413 5.75364 -1.36785 0
M  V30 704 H 62.9713 0.753794 -0.0176448 0
M  V30 705 H 65.6223 1.68481 -0.727076 0
M  V30 706 H 64.0043 3.90048 0.683994 0
M  V30 707 H 65.1783 4.06491 -2.17029 0
M  V30 708 H 63.4933 3.7451 -1.8202 0
M  V30 709 H 66.0903 5.3265 0.467779 0
M  V30 710 H 66.4333 3.90976 1.42982 0
M  V30 711 H 66.9663 3.96897 -0.267929 0
M  V30 712 H 63.7053 6.11518 -2.36063 0
M  V30 713 H 63.2253 5.96214 -0.654895 0
M  V30 714 H 64.9043 6.37955 -1.07805 0
M  V30 715 N 65.0364 0.313813 1.54444 0
M  V30 716 C 66.2644 -0.293918 2.04802 0
M  V30 717 C 66.6794 -1.46537 1.19047 0
M  V30 718 O 66.0364 -1.81182 0.218939 0
M  V30 719 C 66.0874 -0.737806 3.53891 0
M  V30 720 O 65.8084 0.387038 4.36387 0
M  V30 721 C 67.3094 -1.40936 4.203 0
M  V30 722 H 64.5294 -0.0620057 0.668129 0
M  V30 723 H 67.0734 0.457169 1.99324 0
M  V30 724 H 65.2284 -1.43889 3.59687 0
M  V30 725 H 65.6424 0.0391274 5.24485 0
M  V30 726 H 67.1164 -1.67099 5.26101 0
M  V30 727 H 67.5934 -2.35355 3.70816 0
M  V30 728 H 68.1994 -0.751117 4.18615 0
M  V30 729 N 66.5145 -1.57545 0.0417849 0
M  V30 730 C 67.7605 -1.93424 -0.629168 0
M  V30 731 C 68.1155 -0.919564 -1.69002 0
M  V30 732 O 67.4085 0.0626178 -1.91498 0
M  V30 733 C 67.6025 -3.33794 -1.27735 0
M  V30 734 C 67.4315 -4.48822 -0.280806 0
M  V30 735 C 66.2015 -5.05148 0.123869 0
M  V30 736 C 68.3995 -5.12148 0.470012 0
M  V30 737 N 66.3815 -6.03703 1.11426 0
M  V30 738 C 67.7525 -6.05921 1.31377 0
M  V30 739 C 69.8075 -4.95078 0.529343 0
M  V30 740 C 68.5105 -6.84459 2.21152 0
M  V30 741 C 70.5365 -5.74235 1.41448 0
M  V30 742 C 69.8985 -6.67634 2.24598 0
M  V30 743 H 65.9975 -0.755418 -0.202158 0
M  V30 744 H 68.5815 -1.94378 0.111923 0
M  V30 745 H 66.7525 -3.33635 -1.98852 0
M  V30 746 H 68.4845 -3.56988 -1.90635 0
M  V30 747 H 65.2395 -4.72923 -0.253178 0
M  V30 748 H 65.6635 -6.57674 1.60607 0
M  V30 749 H 70.3055 -4.22683 -0.0992798 0
M  V30 750 H 68.0235 -7.56151 2.85063 0
M  V30 751 H 71.6095 -5.63057 1.46484 0
M  V30 752 H 70.4895 -7.27817 2.9198 0
M  V30 753 N 67.9926 0.231505 -1.5589 0
M  V30 754 C 68.9246 1.31006 -1.8807 0
M  V30 755 C 69.9376 1.43539 -0.768145 0
M  V30 756 O 71.1266 1.44614 -1.04638 0
M  V30 757 C 68.2266 2.68688 -2.06543 0
M  V30 758 C 67.3996 2.78228 -3.37502 0
M  V30 759 C 66.4586 3.96857 -3.4553 0
M  V30 760 O 65.4846 3.85662 -4.18633 0
M  V30 761 N 66.6866 5.1072 -2.75944 0
M  V30 762 H 69.4516 1.03731 -2.81176 0
M  V30 763 H 67.0126 0.421573 -1.56315 0
M  V30 764 H 69.0046 3.46412 -2.09239 0
M  V30 765 H 67.5746 2.88605 -1.20109 0
M  V30 766 H 66.7946 1.87059 -3.46991 0
M  V30 767 H 68.0826 2.81564 -4.23791 0
M  V30 768 H 67.4806 5.2271 -2.16311 0
M  V30 769 H 66.0376 5.86523 -2.84314 0
M  V30 770 N 69.4707 1.49531 0.497807 0
M  V30 771 C 70.4007 1.6935 1.60757 0
M  V30 772 C 71.3817 0.542218 1.61227 0
M  V30 773 O 72.5667 0.778417 1.77917 0
M  V30 774 C 69.6967 1.76298 2.99226 0
M  V30 775 C 68.6507 2.91248 3.13622 0
M  V30 776 C 67.9767 2.83312 4.53474 0
M  V30 777 C 69.2767 4.3214 2.93346 0
M  V30 778 H 70.9707 2.62263 1.44425 0
M  V30 779 H 68.5167 1.26208 0.693367 0
M  V30 780 H 70.4697 1.88749 3.76765 0
M  V30 781 H 69.1937 0.799871 3.16654 0
M  V30 782 H 67.8527 2.78404 2.38509 0
M  V30 783 H 67.5007 1.84902 4.67782 0
M  V30 784 H 67.2007 3.60465 4.64046 0
M  V30 785 H 68.7247 2.97775 5.33069 0
M  V30 786 H 70.1387 4.45649 3.60652 0
M  V30 787 H 68.5357 5.1054 3.15387 0
M  V30 788 H 69.6057 4.46363 1.89441 0
M  V30 789 N 70.9488 -0.749086 1.3866 0
M  V30 790 C 71.8788 -1.8764 1.38973 0
M  V30 791 C 72.8598 -1.68178 0.255004 0
M  V30 792 O 74.0448 -1.88704 0.458754 0
M  V30 793 C 71.1748 -3.25222 1.21851 0
M  V30 794 C 70.1288 -3.59295 2.32575 0
M  V30 795 C 69.4548 -4.95663 2.00555 0
M  V30 796 C 70.7548 -3.63709 3.7485 0
M  V30 797 H 72.4488 -1.87635 2.3331 0
M  V30 798 H 69.9948 -0.901329 1.12303 0
M  V30 799 H 71.9478 -4.03746 1.20695 0
M  V30 800 H 70.6718 -3.25719 0.239775 0
M  V30 801 H 69.3308 -2.83093 2.32925 0
M  V30 802 H 68.9788 -4.92724 1.01154 0
M  V30 803 H 68.6788 -5.19429 2.74714 0
M  V30 804 H 70.2028 -5.7656 2.01024 0
M  V30 805 H 71.6168 -4.32338 3.76506 0
M  V30 806 H 70.0138 -3.98986 4.48252 0
M  V30 807 H 71.0838 -2.63834 4.06841 0
M  V30 808 N 72.4269 -1.23603 -0.977757 0
M  V30 809 C 73.6569 -1.09487 -1.75203 0
M  V30 810 C 74.0649 0.356321 -1.85814 0
M  V30 811 O 73.4079 1.25816 -1.33851 0
M  V30 812 C 73.4699 -1.64905 -3.19447 0
M  V30 813 C 73.1339 -3.13688 -3.32338 0
M  V30 814 C 74.1309 -4.10953 -3.18455 0
M  V30 815 C 71.8159 -3.53449 -3.56902 0
M  V30 816 C 73.8099 -5.45962 -3.28944 0
M  V30 817 C 71.4969 -4.88602 -3.6703 0
M  V30 818 C 72.4949 -5.84668 -3.53062 0
M  V30 819 O 72.1829 -7.17365 -3.62826 0
M  V30 820 H 71.9149 -0.38367 -0.556573 0
M  V30 821 H 74.4689 -1.6398 -1.23693 0
M  V30 822 H 72.6989 -1.04835 -3.72218 0
M  V30 823 H 74.3879 -1.46226 -3.78646 0
M  V30 824 H 75.1539 -3.81577 -2.99372 0
M  V30 825 H 71.0329 -2.79188 -3.66844 0
M  V30 826 H 74.5769 -6.20925 -3.17958 0
M  V30 827 H 70.4739 -5.17653 -3.85623 0
M  V30 828 H 71.2419 -7.2515 -3.79605 0
M  V30 829 N 73.905 1.17692 -1.04816 0
M  V30 830 C 75.13 1.92327 -0.776207 0
M  V30 831 C 75.555 1.76082 0.661581 0
M  V30 832 O 74.913 1.076 1.45917 0
M  V30 833 C 74.961 3.41539 -1.15687 0
M  V30 834 O 74.065 4.11402 -0.286775 0
M  V30 835 H 73.406 0.599735 -0.284981 0
M  V30 836 H 75.936 1.49201 -1.4 0
M  V30 837 H 75.946 3.92269 -1.12202 0
M  V30 838 H 74.621 3.52684 -2.20425 0
M  V30 839 H 73.198 3.70939 -0.381903 0
M  V30 840 N 75.3831 0.828654 1.34056 0
M  V30 841 C 76.3131 0.269443 2.3194 0
M  V30 842 C 77.2941 -0.617247 1.58506 0
M  V30 843 O 78.4791 -0.542931 1.86456 0
M  V30 844 C 75.6091 -0.564793 3.42677 0
M  V30 845 C 74.5631 0.225241 4.27407 0
M  V30 846 C 73.8891 -0.7321 5.29664 0
M  V30 847 C 75.1891 1.43663 5.02154 0
M  V30 848 H 76.8831 1.08728 2.7896 0
M  V30 849 H 74.4291 0.524283 1.34117 0
M  V30 850 H 76.3821 -0.966233 4.10173 0
M  V30 851 H 75.1061 -1.41574 2.9432 0
M  V30 852 H 73.7651 0.608117 3.61521 0
M  V30 853 H 73.4131 -1.57916 4.77568 0
M  V30 854 H 73.1131 -0.20767 5.87233 0
M  V30 855 H 74.6371 -1.13128 6.00029 0
M  V30 856 H 76.0511 1.1089 5.62473 0
M  V30 857 H 74.4481 1.89711 5.69324 0
M  V30 858 H 75.5181 2.21181 4.31517 0
M  V30 859 N 76.8612 -1.46375 0.584142 0
M  V30 860 C 78.2772 -1.57694 0.245929 0
M  V30 861 C 78.4772 -1.57903 -1.25175 0
M  V30 862 O 77.5332 -1.49676 -2.03355 0
M  V30 863 C 78.8462 -2.87028 0.896402 0
M  V30 864 C 80.3942 -3.00662 0.870127 0
M  V30 865 C 80.8692 -4.32734 1.50017 0
M  V30 866 N 82.3602 -4.39436 1.46458 0
M  V30 867 C 83.0952 -5.40248 1.92144 0
M  V30 868 N 82.5912 -6.47726 2.4581 0
M  V30 869 N 84.3842 -5.31459 1.83052 0
M  V30 870 H 76.5352 -1.44483 1.55687 0
M  V30 871 H 78.7982 -0.689291 0.650831 0
M  V30 872 H 78.5042 -2.9269 1.95002 0
M  V30 873 H 78.3782 -3.75014 0.405486 0
M  V30 874 H 80.7652 -2.94581 -0.174871 0
M  V30 875 H 80.8462 -2.14148 1.39908 0
M  V30 876 H 80.4902 -4.39573 2.54437 0
M  V30 877 H 80.4202 -5.18025 0.946432 0
M  V30 878 H 82.9112 -3.62367 1.07231 0
M  V30 879 H 83.2242 -7.20863 2.78525 0
M  V30 880 H 81.5692 -6.48542 2.49836 0
M  V30 881 H 84.7602 -4.46396 1.40883 0
M  V30 882 H 84.9332 -6.09881 2.18973 0
M  V30 883 N 78.3393 -0.321999 -1.54275 0
M  V30 884 C 79.2863 0.544664 -2.24281 0
M  V30 885 C 80.2563 1.1129 -1.23303 0
M  V30 886 O 81.4413 1.15354 -1.51981 0
M  V30 887 C 78.5813 1.70045 -3.00298 0
M  V30 888 C 77.6943 1.16159 -4.1609 0
M  V30 889 C 76.8293 2.28293 -4.79641 0
M  V30 890 C 75.8683 1.71648 -5.8754 0
M  V30 891 N 75.0053 2.77438 -6.44959 0
M  V30 892 H 79.8453 -0.0588907 -2.97942 0
M  V30 893 H 77.3823 -0.0408345 -1.47043 0
M  V30 894 H 79.3403 2.38054 -3.42616 0
M  V30 895 H 77.9703 2.27531 -2.28975 0
M  V30 896 H 77.0223 0.373092 -3.78566 0
M  V30 897 H 78.3343 0.707087 -4.93763 0
M  V30 898 H 77.4883 3.0421 -5.2492 0
M  V30 899 H 76.2273 2.77079 -4.01346 0
M  V30 900 H 75.2323 0.942282 -5.41665 0
M  V30 901 H 76.4573 1.23741 -6.67731 0
M  V30 902 H 74.4033 3.25519 -5.69538 0
M  V30 903 H 74.3203 2.36547 -7.1804 0
M  V30 904 H 75.5883 3.53189 -6.94894 0
M  V30 905 N 79.8174 1.5752 -0.0501392 0
M  V30 906 C 81.0944 1.83996 0.663685 0
M  V30 907 C 81.4744 0.938339 1.89099 0
M  V30 908 O 80.8224 -0.00087759 2.285 0
M  V30 909 C 81.0324 3.33702 1.02196 0
M  V30 910 C 82.3804 4.00691 1.40469 0
M  V30 911 O 83.4044 3.38321 1.11433 0
M  V30 912 O 82.2634 5.10658 1.94654 0
M  V30 913 H 79.3574 0.759385 0.32751 0
M  V30 914 H 81.9034 1.69514 -0.0794238 0
M  V30 915 H 80.6754 3.91015 0.149364 0
M  V30 916 H 80.2984 3.53368 1.82255 0
M  V30 917 N 81.2955 -0.223234 1.56011 0
M  V30 918 C 82.7115 -0.572856 1.48965 0
M  V30 919 C 82.9115 -1.87225 0.74492 0
M  V30 920 O 81.9675 -2.50899 0.283896 0
M  V30 921 C 83.2805 -0.653646 2.9351 0
M  V30 922 C 84.8285 -0.744386 3.0402 0
M  V30 923 C 85.3035 -0.856535 4.49919 0
M  V30 924 N 86.7945 -0.9208 4.53955 0
M  V30 925 C 87.5295 -1.02726 5.64123 0
M  V30 926 N 87.0255 -1.09777 6.84047 0
M  V30 927 N 88.8185 -1.06226 5.51971 0
M  V30 928 H 80.9695 0.629462 2.02858 0
M  V30 929 H 83.2325 0.220621 0.921971 0
M  V30 930 H 82.9385 0.231518 3.50937 0
M  V30 931 H 82.8125 -1.51781 3.45315 0
M  V30 932 H 85.1995 -1.61999 2.46658 0
M  V30 933 H 85.2805 0.14541 2.55386 0
M  V30 934 H 84.9245 0.0146069 5.07898 0
M  V30 935 H 84.8545 -1.76172 4.96257 0
M  V30 936 H 87.3455 -0.876694 3.6759 0
M  V30 937 H 87.6585 -1.17872 7.63758 0
M  V30 938 H 86.0035 -1.06693 6.86762 0
M  V30 939 H 89.1945 -1.00382 4.5721 0
M  V30 940 H 89.3675 -1.14177 6.37862 0
M  V30 941 N 82.7736 -1.49793 -0.48987 0
M  V30 942 C 84.1846 -1.52914 -1.07118 0
M  V30 943 C 84.5356 -0.321738 -1.93544 0
M  V30 944 O 83.6606 0.567338 -2.08831 0
M  V30 945 C 84.2556 -2.771 -1.94938 0
M  V30 946 C 82.8146 -2.82963 -2.48212 0
M  V30 947 C 81.9616 -2.46972 -1.26096 0
M  V30 948 H 84.9126 -1.56329 -0.273289 0
M  V30 949 H 84.9336 -2.57892 -2.79771 0
M  V30 950 H 84.4456 -3.64959 -1.32009 0
M  V30 951 H 82.5466 -1.99411 -3.14748 0
M  V30 952 H 82.6596 -3.85406 -2.84603 0
M  V30 953 H 81.0236 -1.98994 -1.58976 0
M  V30 954 H 81.8066 -3.37118 -0.648581 0
M  V30 955 N 84.2517 0.741722 -1.39055 0
M  V30 956 C 85.6627 1.31966 -1.32068 0
M  V30 957 C 86.0137 1.96192 0.0180797 0
M  V30 958 O 85.1387 1.95861 0.920196 0
M  V30 959 C 85.7337 2.39954 -2.39181 0
M  V30 960 C 84.2927 2.93438 -2.35735 0
M  V30 961 C 83.4397 1.66936 -2.21422 0
M  V30 962 H 86.3907 0.539721 -1.4924 0
M  V30 963 H 86.4117 3.20182 -2.05581 0
M  V30 964 H 85.9237 1.9318 -3.36605 0
M  V30 965 H 84.0247 3.4451 -1.41929 0
M  V30 966 H 84.1377 3.4701 -3.30335 0
M  V30 967 H 82.5017 1.91016 -1.68478 0
M  V30 968 H 83.2847 1.22224 -3.20806 0
M  V30 969 N 85.7298 1.2412 0.971189 0
M  V30 970 C 86.6598 1.05508 2.08304 0
M  V30 971 C 87.6408 -0.0308864 1.70072 0
M  V30 972 O 88.8258 0.135521 1.93727 0
M  V30 973 C 85.9558 0.655365 3.4106 0
M  V30 974 C 84.9098 1.68971 3.93234 0
M  V30 975 C 84.2358 1.14516 5.22293 0
M  V30 976 C 85.5358 3.08487 4.21465 0
M  V30 977 H 87.2298 1.98507 2.24132 0
M  V30 978 H 84.7758 0.955821 1.07704 0
M  V30 979 H 86.7288 0.51217 4.18276 0
M  V30 980 H 85.4528 -0.31032 3.25122 0
M  V30 981 H 84.1118 1.82106 3.18171 0
M  V30 982 H 83.7598 0.170189 5.02712 0
M  V30 983 H 83.4598 1.83635 5.58168 0
M  V30 984 H 84.9838 1.01401 6.02121 0
M  V30 985 H 86.3978 2.98601 4.89398 0
M  V30 986 H 84.7948 3.74926 4.68562 0
M  V30 987 H 85.8648 3.56787 3.28376 0
M  V30 988 N 87.2079 -1.17134 1.05439 0
M  V30 989 C 88.4539 -1.87733 0.767077 0
M  V30 990 C 88.7869 -1.8098 -0.704253 0
M  V30 991 O 88.0619 -1.21951 -1.5152 0
M  V30 992 C 88.3449 -3.37659 1.25133 0
M  V30 993 C 88.1979 -3.53149 2.78578 0
M  V30 994 C 89.5169 -4.31768 0.852324 0
M  V30 995 H 86.6359 -0.681687 0.280129 0
M  V30 996 H 89.2779 -1.37732 1.30881 0
M  V30 997 H 87.4279 -3.80373 0.790469 0
M  V30 998 H 89.0999 -3.19434 3.32806 0
M  V30 999 H 87.3429 -2.95345 3.17732 0
M  V30 1000 H 88.0139 -4.58403 3.07523 0
M  V30 1001 H 90.4899 -3.96909 1.24911 0
M  V30 1002 H 89.3659 -5.35199 1.21873 0
M  V30 1003 H 89.6269 -4.41429 -0.243485 0
M  V30 1004 N 88.686 -0.835752 -1.33615 0
M  V30 1005 C 89.933 -0.429959 -1.97883 0
M  V30 1006 C 90.261 1.01006 -1.66217 0
M  V30 1007 O 89.516 1.72047 -0.93265 0
M  V30 1008 C 89.815 -0.593925 -3.52431 0
M  V30 1009 C 89.481 -2.00158 -4.04039 0
M  V30 1010 C 88.143 -2.38662 -4.17844 0
M  V30 1011 C 90.495 -2.92117 -4.31644 0
M  V30 1012 C 87.823 -3.68435 -4.56588 0
M  V30 1013 C 90.175 -4.21368 -4.71838 0
M  V30 1014 C 88.839 -4.59833 -4.83849 0
M  V30 1015 H 88.109 -0.157333 -0.724104 0
M  V30 1016 H 90.756 -1.06217 -1.59343 0
M  V30 1017 H 89.061 0.121619 -3.91611 0
M  V30 1018 H 90.758 -0.260282 -4.00154 0
M  V30 1019 H 87.348 -1.69252 -3.93766 0
M  V30 1020 H 91.532 -2.63608 -4.20505 0
M  V30 1021 H 86.788 -3.98046 -4.64079 0
M  V30 1022 H 90.962 -4.92703 -4.92155 0
M  V30 1023 H 88.589 -5.60438 -5.13627 0
M  V30 1024 N 90.1641 1.46063 -0.591896 0
M  V30 1025 C 91.3941 2.06418 -0.0867676 0
M  V30 1026 C 91.8021 1.43975 1.22751 0
M  V30 1027 O 91.1451 0.542531 1.75506 0
M  V30 1028 C 91.2071 3.59213 0.143725 0
M  V30 1029 C 90.8711 4.439 -1.08635 0
M  V30 1030 C 91.8681 4.79864 -2.00067 0
M  V30 1031 C 89.5531 4.84896 -1.31077 0
M  V30 1032 C 91.5471 5.55661 -3.12282 0
M  V30 1033 C 89.2341 5.6045 -2.43596 0
M  V30 1034 C 90.2321 5.95747 -3.34027 0
M  V30 1035 O 89.9201 6.69772 -4.4459 0
M  V30 1036 H 89.6521 0.673443 -0.0587447 0
M  V30 1037 H 92.2061 1.88539 -0.814994 0
M  V30 1038 H 90.4361 3.75433 0.926668 0
M  V30 1039 H 92.1251 4.01463 0.5985 0
M  V30 1040 H 92.8911 4.48763 -1.83947 0
M  V30 1041 H 88.7701 4.56867 -0.61594 0
M  V30 1042 H 92.3141 5.8313 -3.82891 0
M  V30 1043 H 88.2111 5.90965 -2.59674 0
M  V30 1044 H 88.9791 6.88207 -4.43073 0
M  V30 1045 N 91.6422 0.330177 1.54103 0
M  V30 1046 C 92.8882 -0.263542 2.01685 0
M  V30 1047 C 93.2432 -1.49258 1.21408 0
M  V30 1048 O 92.5362 -1.89395 0.289852 0
M  V30 1049 C 92.7302 -0.643134 3.51566 0
M  V30 1050 C 92.5592 0.547571 4.46354 0
M  V30 1051 C 91.3292 1.04873 4.94297 0
M  V30 1052 C 93.5272 1.40184 4.94826 0
M  V30 1053 N 91.5092 2.20316 5.73005 0
M  V30 1054 C 92.8802 2.40335 5.71524 0
M  V30 1055 C 94.9352 1.42884 4.76958 0
M  V30 1056 C 93.6382 3.42998 6.32254 0
M  V30 1057 C 95.6642 2.44421 5.38528 0
M  V30 1058 C 95.0262 3.43298 6.15082 0
M  V30 1059 H 91.1252 -0.0601026 0.779687 0
M  V30 1060 H 93.7092 0.466714 1.89023 0
M  V30 1061 H 91.8802 -1.34251 3.6446 0
M  V30 1062 H 93.6122 -1.21889 3.85908 0
M  V30 1063 H 90.3672 0.618956 4.69538 0
M  V30 1064 H 90.7912 2.78565 6.17034 0
M  V30 1065 H 95.4332 0.678049 4.17328 0
M  V30 1066 H 93.1512 4.1898 6.91 0
M  V30 1067 H 96.7372 2.4732 5.26616 0
M  V30 1068 H 95.6172 4.20579 6.61878 0
M  V30 1069 N 93.1203 -1.57491 0.0584922 0
M  V30 1070 C 94.3693 -1.92155 -0.613146 0
M  V30 1071 C 94.6823 -0.939334 -1.71569 0
M  V30 1072 O 95.8883 -1.17829 -2.44599 0
M  V30 1073 C 94.3443 -3.41303 -1.14195 0
M  V30 1074 C 93.9523 -4.47944 -0.0711265 0
M  V30 1075 C 95.6963 -3.84988 -1.78841 0
M  V30 1076 C 93.6033 -5.88212 -0.613225 0
M  V30 1077 H 92.5333 -0.717162 -0.232796 0
M  V30 1078 H 95.1843 -1.83049 0.12857 0
M  V30 1079 H 93.5663 -3.45437 -1.93621 0
M  V30 1080 H 94.7403 -4.55408 0.702836 0
M  V30 1081 H 93.0553 -4.13644 0.478313 0
M  V30 1082 H 95.6523 -4.87159 -2.20408 0
M  V30 1083 H 95.9953 -3.21632 -2.64308 0
M  V30 1084 H 96.5283 -3.83401 -1.06059 0
M  V30 1085 H 93.2673 -6.55183 0.203978 0
M  V30 1086 H 92.7873 -5.84294 -1.35501 0
M  V30 1087 H 94.4663 -6.37687 -1.09383 0
M  V30 1088 N 94.5984 0.214957 -1.56127 0
M  V30 1089 C 96.0094 0.781386 -1.69562 0
M  V30 1090 C 96.3604 1.84707 -0.66165 0
M  V30 1091 O 95.4854 2.156 0.185927 0
M  V30 1092 C 96.0804 1.42411 -3.07416 0
M  V30 1093 C 94.6394 1.93786 -3.22683 0
M  V30 1094 C 93.7864 0.800438 -2.65496 0
M  V30 1095 H 96.7374 -0.00980633 -1.58697 0
M  V30 1096 H 96.7584 2.29309 -3.0364 0
M  V30 1097 H 96.2704 0.64826 -3.82648 0
M  V30 1098 H 94.3714 2.74152 -2.52332 0
M  V30 1099 H 94.4844 2.1133 -4.29973 0
M  V30 1100 H 92.8484 1.2095 -2.2415 0
M  V30 1101 H 93.6314 0.0371471 -3.4328 0
M  V30 1102 N 96.0765 1.50051 0.48192 0
M  V30 1103 C 97.3225 1.61706 1.2338 0
M  V30 1104 C 97.6775 0.308488 1.89911 0
M  V30 1105 O 96.9705 -0.692798 1.78636 0
M  V30 1106 C 97.1645 2.72717 2.30998 0
M  V30 1107 C 96.9935 4.14242 1.75024 0
M  V30 1108 C 95.7635 4.80786 1.55476 0
M  V30 1109 C 97.9615 4.98846 1.25128 0
M  V30 1110 N 95.9435 6.06563 0.946311 0
M  V30 1111 C 97.3145 6.15258 0.765382 0
M  V30 1112 C 99.3695 4.84702 1.13881 0
M  V30 1113 C 98.0725 7.19079 0.178113 0
M  V30 1114 C 100.098 5.8869 0.565486 0
M  V30 1115 C 99.4605 7.04343 0.0899105 0
M  V30 1116 H 95.5595 0.645958 0.440753 0
M  V30 1117 H 98.1435 1.8713 0.537624 0
M  V30 1118 H 96.3145 2.49033 2.98055 0
M  V30 1119 H 98.0465 2.73789 2.9803 0
M  V30 1120 H 94.8015 4.37899 1.80392 0
M  V30 1121 H 95.2255 6.73767 0.660812 0
M  V30 1122 H 99.8675 3.95583 1.49244 0
M  V30 1123 H 97.5855 8.07882 -0.187749 0
M  V30 1124 H 101.171 5.79808 0.480974 0
M  V30 1125 H 100.051 7.83433 -0.346782 0
M  V30 1126 N 97.5546 -0.734337 1.39446 0
M  V30 1127 C 98.8006 -1.49613 1.36908 0
M  V30 1128 C 99.1336 -1.94169 -0.0347829 0
M  V30 1129 O 98.4086 -1.66833 -0.999847 0
M  V30 1130 C 98.6916 -2.73534 2.34203 0
M  V30 1131 C 98.5446 -2.34993 3.83534 0
M  V30 1132 C 99.8636 -3.75635 2.29317 0
M  V30 1133 H 96.9826 -0.542714 0.498629 0
M  V30 1134 H 99.6246 -0.839597 1.70443 0
M  V30 1135 H 97.7746 -3.29553 2.05736 0
M  V30 1136 H 99.4466 -1.84601 4.22753 0
M  V30 1137 H 97.6896 -1.67213 4.00278 0
M  V30 1138 H 98.3606 -3.23738 4.47099 0
M  V30 1139 H 100.837 -3.29203 2.54489 0
M  V30 1140 H 99.7126 -4.60008 2.99472 0
M  V30 1141 H 99.9736 -4.22603 1.29842 0
M  V30 1142 N 99.0327 -1.24633 -0.964593 0
M  V30 1143 C 100.281 -1.08573 -1.70459 0
M  V30 1144 C 100.602 0.375655 -1.91347 0
M  V30 1145 O 99.8717 1.26779 -1.49345 0
M  V30 1146 H 98.4517 -0.398784 -0.631649 0
M  V30 1147 H 101.114 -1.56601 -1.16026 0
M  V30 1148 H 100.21 -1.58623 -2.68785 0
M  V30 1149 N 100.511 1.16574 -1.06058 0
M  V30 1150 C 101.736 1.91493 -0.796562 0
M  V30 1151 C 102.161 1.76773 0.642868 0
M  V30 1152 O 101.519 1.09142 1.44768 0
M  V30 1153 C 101.567 3.40293 -1.19303 0
M  V30 1154 O 100.671 4.11074 -0.330394 0
M  V30 1155 H 100.012 0.596678 -0.291326 0
M  V30 1156 H 102.542 1.47708 -1.41575 0
M  V30 1157 H 102.552 3.91057 -1.16356 0
M  V30 1158 H 101.227 3.50326 -2.24153 0
M  V30 1159 H 99.8038 3.70513 -0.421225 0
M  V30 1160 N 101.989 0.842826 1.3317 0
M  V30 1161 C 102.952 0.284065 2.27433 0
M  V30 1162 C 103.952 -0.54948 1.5112 0
M  V30 1163 O 105.142 -0.362699 1.70382 0
M  V30 1164 C 102.274 -0.599384 3.35589 0
M  V30 1165 H 103.467 1.11589 2.78366 0
M  V30 1166 H 101.02 0.616221 1.4364 0
M  V30 1167 H 101.755 -1.45349 2.89904 0
M  V30 1168 H 101.54 -0.00291266 3.921 0
M  V30 1169 H 103.03 -0.983488 4.05854 0
M  V30 1170 N 103.467 -1.45747 0.599634 0
M  V30 1171 C 104.716 -2.01502 0.0893511 0
M  V30 1172 C 105.029 -1.4748 -1.28488 0
M  V30 1173 O 106.235 -1.95161 -1.88745 0
M  V30 1174 C 104.691 -3.59735 0.109082 0
M  V30 1175 C 104.299 -4.22754 1.48267 0
M  V30 1176 C 106.043 -4.23085 -0.346374 0
M  V30 1177 C 103.95 -5.73115 1.45921 0
M  V30 1178 H 102.88 -0.753417 0.0296347 0
M  V30 1179 H 105.531 -1.67303 0.753788 0
M  V30 1180 H 103.913 -3.91087 -0.621854 0
M  V30 1181 H 105.087 -4.02987 2.23468 0
M  V30 1182 H 103.402 -3.71567 1.87955 0
M  V30 1183 H 105.999 -5.33327 -0.38298 0
M  V30 1184 H 106.342 -3.93201 -1.36743 0
M  V30 1185 H 106.875 -3.9642 0.331038 0
M  V30 1186 H 103.614 -6.07685 2.45762 0
M  V30 1187 H 103.134 -5.95097 0.749665 0
M  V30 1188 H 104.813 -6.3616 1.17941 0
M  V30 1189 N 104.945 -0.338344 -1.53925 0
M  V30 1190 C 106.356 0.146651 -1.86123 0
M  V30 1191 C 106.707 1.5042 -1.2597 0
M  V30 1192 O 105.832 2.08723 -0.571294 0
M  V30 1193 C 106.427 0.272879 -3.37699 0
M  V30 1194 C 104.986 0.702103 -3.69794 0
M  V30 1195 C 104.133 -0.167304 -2.76795 0
M  V30 1196 H 107.084 -0.558123 -1.48562 0
M  V30 1197 H 107.105 1.10128 -3.64214 0
M  V30 1198 H 106.617 -0.715307 -3.81451 0
M  V30 1199 H 104.718 1.6995 -3.31584 0
M  V30 1200 H 104.831 0.495604 -4.7653 0
M  V30 1201 H 103.195 0.359527 -2.5215 0
M  V30 1202 H 103.978 -1.15253 -3.23375 0
M  V30 1203 N 106.423 1.57458 -0.0668435 0
M  V30 1204 C 107.653 1.97337 0.611677 0
M  V30 1205 C 108.061 0.943744 1.63982 0
M  V30 1206 O 107.404 -0.0785584 1.83532 0
M  V30 1207 C 107.466 3.33511 1.34205 0
M  V30 1208 C 107.13 4.54598 0.467941 0
M  V30 1209 C 108.127 5.19186 -0.272439 0
M  V30 1210 C 105.812 5.0075 0.39427 0
M  V30 1211 C 107.806 6.28274 -1.07476 0
M  V30 1212 C 105.493 6.09711 -0.411729 0
M  V30 1213 C 106.491 6.73335 -1.14492 0
M  V30 1214 O 106.179 7.80199 -1.93763 0
M  V30 1215 H 105.911 0.654042 0.170893 0
M  V30 1216 H 108.465 2.04961 -0.134289 0
M  V30 1217 H 106.695 3.22487 2.13398 0
M  V30 1218 H 108.384 3.58029 1.91233 0
M  V30 1219 H 109.15 4.84477 -0.225086 0
M  V30 1220 H 105.029 4.51009 0.954569 0
M  V30 1221 H 108.573 6.77866 -1.64755 0
M  V30 1222 H 104.47 6.43854 -0.460664 0
M  V30 1223 H 105.238 7.97053 -1.86142 0
M  V30 1224 N 107.901 -0.206675 1.56239 0
M  V30 1225 C 109.149 -0.927007 1.79586 0
M  V30 1226 C 109.47 -1.8427 0.637929 0
M  V30 1227 O 108.74 -1.92849 -0.344398 0
M  V30 1228 H 107.32 -0.345292 0.662407 0
M  V30 1229 H 109.982 -0.21496 1.93711 0
M  V30 1230 H 109.078 -1.52501 2.72305 0
M  V30 1231 N 109.379 -1.50304 -0.473955 0
M  V30 1232 C 110.607 -1.64902 -1.24959 0
M  V30 1233 C 111.022 -0.331198 -1.85872 0
M  V30 1234 O 110.379 0.68652 -1.69095 0
M  V30 1235 C 110.43 -2.73803 -2.36038 0
M  V30 1236 O 110.151 -4.00477 -1.77624 0
M  V30 1237 C 111.652 -2.99349 -3.26964 0
M  V30 1238 H 108.872 -0.554383 -0.378022 0
M  V30 1239 H 111.416 -1.9651 -0.566054 0
M  V30 1240 H 109.571 -2.44898 -3.00173 0
M  V30 1241 H 109.985 -4.60678 -2.5075 0
M  V30 1242 H 111.459 -3.79217 -4.01121 0
M  V30 1243 H 111.936 -2.10307 -3.85574 0
M  V30 1244 H 112.542 -3.29774 -2.68569 0
M  V30 1245 N 110.857 0.726932 -1.39834 0
M  V30 1246 C 111.804 1.841 -1.39197 0
M  V30 1247 C 112.774 1.642 -0.250502 0
M  V30 1248 O 113.959 1.85494 -0.446846 0
M  V30 1249 C 111.099 3.21697 -1.24919 0
M  V30 1250 C 110.212 3.53247 -2.48678 0
M  V30 1251 C 109.347 4.80289 -2.26928 0
M  V30 1252 C 108.386 5.04707 -3.4632 0
M  V30 1253 N 107.523 6.22956 -3.23836 0
M  V30 1254 H 112.363 1.83979 -2.34427 0
M  V30 1255 H 109.9 0.898876 -1.16442 0
M  V30 1256 H 111.858 4.01137 -1.1465 0
M  V30 1257 H 110.488 3.21076 -0.333153 0
M  V30 1258 H 109.54 2.68447 -2.69519 0
M  V30 1259 H 110.852 3.67205 -3.37582 0
M  V30 1260 H 110.006 5.67725 -2.13947 0
M  V30 1261 H 108.745 4.68519 -1.35431 0
M  V30 1262 H 107.75 4.1573 -3.5979 0
M  V30 1263 H 108.975 5.18357 -4.38729 0
M  V30 1264 H 106.921 6.12459 -2.35011 0
M  V30 1265 H 106.838 6.37539 -4.063 0
M  V30 1266 H 108.106 7.1321 -3.14566 0
M  V30 1267 N 112.336 1.25143 0.95797 0
M  V30 1268 C 113.747 1.08851 1.51685 0
M  V30 1269 C 114.098 -0.33687 1.93286 0
M  V30 1270 O 113.223 -1.22644 1.7829 0
M  V30 1271 C 113.818 1.96978 2.75654 0
M  V30 1272 C 112.377 1.84881 3.27866 0
M  V30 1273 C 111.524 1.91329 2.0072 0
M  V30 1274 H 114.475 1.38478 0.77522 0
M  V30 1275 H 114.496 1.5078 3.4935 0
M  V30 1276 H 114.008 3.00712 2.45345 0
M  V30 1277 H 112.109 0.840182 3.63004 0
M  V30 1278 H 112.222 2.6951 3.96107 0
M  V30 1279 H 110.586 1.35174 2.15871 0
M  V30 1280 H 111.369 2.96661 1.72764 0
M  V30 1281 N 113.814 -1.1601 1.06675 0
M  V30 1282 C 115.044 -1.90251 0.805497 0
M  V30 1283 C 115.452 -1.77891 -0.64431 0
M  V30 1284 O 114.795 -1.12383 -1.45313 0
M  V30 1285 C 114.857 -3.41419 1.12576 0
M  V30 1286 C 114.521 -3.77564 2.57477 0
M  V30 1287 C 115.518 -3.79161 3.55715 0
M  V30 1288 C 113.203 -4.08079 2.92877 0
M  V30 1289 C 115.197 -4.10767 4.8739 0
M  V30 1290 C 112.884 -4.39351 4.24751 0
M  V30 1291 C 113.882 -4.40675 5.21818 0
M  V30 1292 O 113.57 -4.71202 6.51325 0
M  V30 1293 H 113.302 -0.610018 0.291297 0
M  V30 1294 H 115.856 -1.47958 1.4247 0
M  V30 1295 H 114.086 -3.84079 0.449503 0
M  V30 1296 H 115.775 -3.9694 0.84814 0
M  V30 1297 H 116.541 -3.55693 3.29708 0
M  V30 1298 H 112.42 -4.06211 2.17976 0
M  V30 1299 H 115.964 -4.11715 5.63148 0
M  V30 1300 H 111.861 -4.62285 4.50514 0
M  V30 1301 H 112.629 -4.88996 6.56373 0
M  V30 1302 N 115.292 -0.849877 -1.32721 0
M  V30 1303 C 116.202 -0.293791 -2.32753 0
M  V30 1304 C 117.218 0.585906 -1.63839 0
M  V30 1305 O 118.394 0.487413 -1.95413 0
M  V30 1306 C 115.459 0.512752 -3.42887 0
M  V30 1307 C 114.52 -0.39252 -4.27502 0
M  V30 1308 C 113.753 0.375625 -5.32377 0
M  V30 1309 O 113.976 1.60613 -5.4732 0
M  V30 1310 O 112.91 -0.256094 -6.01355 0
M  V30 1311 H 116.736 -1.12242 -2.82197 0
M  V30 1312 H 114.321 -0.612685 -1.36259 0
M  V30 1313 H 116.203 0.970704 -4.10067 0
M  V30 1314 H 114.878 1.31826 -2.95641 0
M  V30 1315 H 113.785 -0.898547 -3.63149 0
M  V30 1316 H 115.118 -1.16309 -4.7826 0
M  V30 1317 N 116.77 1.45427 -0.607355 0
M  V30 1318 C 118.017 2.02241 -0.102455 0
M  V30 1319 C 118.345 1.4758 1.26691 0
M  V30 1320 O 117.6 0.640468 1.84923 0
M  V30 1321 C 117.899 3.57398 -0.0129263 0
M  V30 1322 C 117.565 4.3121 -1.31792 0
M  V30 1323 C 116.227 4.51092 -1.67539 0
M  V30 1324 C 118.579 4.73401 -2.18039 0
M  V30 1325 C 115.907 5.10422 -2.89285 0
M  V30 1326 C 118.259 5.34078 -3.39034 0
M  V30 1327 C 116.923 5.52184 -3.75033 0
M  V30 1328 H 116.193 0.740051 -0.037491 0
M  V30 1329 H 118.84 1.74494 -0.788926 0
M  V30 1330 H 117.145 3.84421 0.756806 0
M  V30 1331 H 118.842 3.99061 0.393881 0
M  V30 1332 H 115.432 4.16047 -1.02968 0
M  V30 1333 H 119.616 4.57774 -1.91721 0
M  V30 1334 H 114.872 5.22629 -3.17283 0
M  V30 1335 H 119.046 5.65724 -4.06115 0
M  V30 1336 H 116.673 5.97925 -4.69457 0
M  V30 1337 N 118.248 0.346503 1.53744 0
M  V30 1338 C 119.495 -0.249104 2.00962 0
M  V30 1339 C 119.823 -1.5032 1.23426 0
M  V30 1340 O 119.078 -1.93217 0.310761 0
M  V30 1341 C 119.377 -0.605809 3.52228 0
M  V30 1342 C 119.043 0.551747 4.47512 0
M  V30 1343 C 117.705 0.86941 4.73281 0
M  V30 1344 C 120.057 1.32818 5.03993 0
M  V30 1345 C 117.385 1.96582 5.52786 0
M  V30 1346 C 119.737 2.41486 5.84694 0
M  V30 1347 C 118.401 2.73808 6.08757 0
M  V30 1348 H 117.671 -0.0911538 0.735372 0
M  V30 1349 H 120.318 0.475027 1.85515 0
M  V30 1350 H 118.623 -1.4107 3.65522 0
M  V30 1351 H 120.32 -1.07858 3.86222 0
M  V30 1352 H 116.91 0.294102 4.2759 0
M  V30 1353 H 121.094 1.09602 4.84047 0
M  V30 1354 H 116.35 2.22045 5.69654 0
M  V30 1355 H 120.524 3.02078 6.27473 0
M  V30 1356 H 118.151 3.58892 6.7015 0
M  V30 1357 N 119.726 -1.57421 0.075193 0
M  V30 1358 C 120.636 -2.1642 -0.905511 0
M  V30 1359 C 121.652 -1.12828 -1.32461 0
M  V30 1360 O 122.828 -1.45109 -1.39661 0
M  V30 1361 C 119.893 -2.71693 -2.15369 0
M  V30 1362 C 118.954 -3.90171 -1.79068 0
M  V30 1363 C 118.187 -4.42798 -2.97936 0
M  V30 1364 O 118.41 -3.94416 -4.12058 0
M  V30 1365 O 117.344 -5.34085 -2.77555 0
M  V30 1366 H 121.17 -3.00588 -0.433626 0
M  V30 1367 H 118.755 -1.48664 -0.148067 0
M  V30 1368 H 120.637 -3.07104 -2.88557 0
M  V30 1369 H 119.312 -1.90582 -2.61649 0
M  V30 1370 H 118.219 -3.59606 -1.03122 0
M  V30 1371 H 119.552 -4.72584 -1.37569 0
M  V30 1372 N 121.204 0.198386 -1.56346 0
M  V30 1373 C 122.481 0.944982 -1.71258 0
M  V30 1374 C 122.861 2.0151 -0.629048 0
M  V30 1375 O 122.209 2.25639 0.360473 0
M  V30 1376 C 122.419 1.5344 -3.1346 0
M  V30 1377 C 123.767 2.01778 -3.73591 0
M  V30 1378 O 124.791 1.63288 -3.16568 0
M  V30 1379 O 123.65 2.72594 -4.73661 0
M  V30 1380 H 120.744 0.442939 -0.69838 0
M  V30 1381 H 123.29 0.188342 -1.68652 0
M  V30 1382 H 122.062 0.762869 -3.83792 0
M  V30 1383 H 121.685 2.35596 -3.20282 0
M  V30 1384 N 122.682 1.50554 0.465978 0
M  V30 1385 C 123.922 1.63439 1.22747 0
M  V30 1386 C 124.286 0.329822 1.89146 0
M  V30 1387 O 125.487 0.334161 2.66715 0
M  V30 1388 C 123.758 2.78542 2.2394 0
M  V30 1389 S 125.317 3.11591 3.0896 0
M  V30 1390 H 122.135 0.576113 0.416672 0
M  V30 1391 H 124.737 1.88357 0.523641 0
M  V30 1392 H 123.441 3.71805 1.7375 0
M  V30 1393 H 122.972 2.55726 2.98944 0
M  V30 1394 H 124.987 2.55811 4.25176 0
M  V30 1395 N 124.16 -0.719506 1.40217 0
M  V30 1396 C 125.092 -1.84428 1.36084 0
M  V30 1397 C 126.105 -1.60597 0.266913 0
M  V30 1398 O 127.294 -1.70544 0.526983 0
M  V30 1399 C 124.394 -3.20757 1.094 0
M  V30 1400 C 123.567 -3.71817 2.30372 0
M  V30 1401 C 122.626 -4.86748 1.99907 0
M  V30 1402 O 121.652 -4.99603 2.72737 0
M  V30 1403 N 122.854 -5.7226 0.974635 0
M  V30 1404 H 125.619 -1.88473 2.33019 0
M  V30 1405 H 123.18 -0.900885 1.3452 0
M  V30 1406 H 125.172 -3.95235 0.870116 0
M  V30 1407 H 123.742 -3.11884 0.211452 0
M  V30 1408 H 122.962 -2.88514 2.68614 0
M  V30 1409 H 124.25 -4.02666 3.11026 0
M  V30 1410 H 123.648 -5.6448 0.371368 0
M  V30 1411 H 122.205 -6.46739 0.810656 0
M  V30 1412 N 125.638 -1.25649 -0.95132 0
M  V30 1413 C 126.585 -1.06323 -2.04851 0
M  V30 1414 C 127.555 0.0286491 -1.66075 0
M  V30 1415 O 128.74 -0.12917 -1.90362 0
M  V30 1416 C 125.88 -0.691529 -3.381 0
M  V30 1417 C 124.993 -1.85861 -3.89974 0
M  V30 1418 C 124.128 -1.43096 -5.11563 0
M  V30 1419 C 123.167 -2.56696 -5.55674 0
M  V30 1420 N 122.304 -2.14684 -6.68472 0
M  V30 1421 H 127.144 -2.00222 -2.20715 0
M  V30 1422 H 124.681 -0.997027 -1.08156 0
M  V30 1423 H 126.639 -0.456963 -4.1469 0
M  V30 1424 H 125.269 0.210474 -3.22113 0
M  V30 1425 H 124.321 -2.20639 -3.09875 0
M  V30 1426 H 125.633 -2.71161 -4.18657 0
M  V30 1427 H 124.787 -1.15624 -5.9558 0
M  V30 1428 H 123.526 -0.548722 -4.84603 0
M  V30 1429 H 122.531 -2.84909 -4.7022 0
M  V30 1430 H 123.756 -3.45503 -5.8464 0
M  V30 1431 H 121.702 -1.28881 -6.43215 0
M  V30 1432 H 121.619 -2.9353 -6.96689 0
M  V30 1433 H 122.887 -1.90397 -7.5589 0
M  V30 1434 N 127.117 1.15442 -1.07289 0
M  V30 1435 C 128.064 2.20161 -0.692653 0
M  V30 1436 C 129.034 1.63073 0.31564 0
M  V30 1437 O 130.219 1.89725 0.202235 0
M  V30 1438 C 127.359 3.44967 -0.0959509 0
M  V30 1439 C 126.472 4.16256 -1.15564 0
M  V30 1440 C 125.607 5.28609 -0.524011 0
M  V30 1441 C 124.646 5.91715 -1.56653 0
M  V30 1442 N 123.783 6.9554 -0.957531 0
M  V30 1443 H 128.623 2.52037 -1.59002 0
M  V30 1444 H 126.16 1.2378 -0.794798 0
M  V30 1445 H 128.118 4.16341 0.267628 0
M  V30 1446 H 126.748 3.1361 0.764772 0
M  V30 1447 H 125.8 3.43385 -1.6368 0
M  V30 1448 H 127.112 4.59268 -1.94613 0
M  V30 1449 H 126.266 6.06604 -0.108032 0
M  V30 1450 H 125.005 4.86787 0.29825 0
M  V30 1451 H 124.01 5.12433 -1.9923 0
M  V30 1452 H 125.235 6.35614 -2.39107 0
M  V30 1453 H 123.181 6.55814 -0.156162 0
M  V30 1454 H 123.098 7.36977 -1.68526 0
M  V30 1455 H 124.366 7.77435 -0.567032 0
M  V30 1456 N 128.595 0.856903 1.32268 0
M  V30 1457 C 129.825 0.47475 2.01071 0
M  V30 1458 C 130.233 -0.933746 1.64553 0
M  V30 1459 O 129.576 -1.62114 0.863989 0
M  V30 1460 C 129.638 0.536746 3.55471 0
M  V30 1461 C 129.302 1.90453 4.15423 0
M  V30 1462 C 130.299 2.87029 4.33486 0
M  V30 1463 C 127.984 2.20229 4.51447 0
M  V30 1464 C 129.978 4.11532 4.86744 0
M  V30 1465 C 127.665 3.44984 5.0441 0
M  V30 1466 C 128.663 4.40452 5.22007 0
M  V30 1467 O 128.351 5.62998 5.73837 0
M  V30 1468 H 128.083 0.184778 0.650256 0
M  V30 1469 H 130.637 1.15615 1.69771 0
M  V30 1470 H 128.867 -0.20152 3.86175 0
M  V30 1471 H 130.556 0.169875 4.05544 0
M  V30 1472 H 131.322 2.6533 4.05986 0
M  V30 1473 H 127.201 1.46705 4.37034 0
M  V30 1474 H 130.745 4.86056 5.00395 0
M  V30 1475 H 126.642 3.66532 5.31342 0
M  V30 1476 H 127.41 5.64987 5.92226 0
M  V30 1477 N 130.073 -1.45103 0.615059 0
M  V30 1478 C 131.321 -2.01784 0.112955 0
M  V30 1479 C 131.642 -1.48504 -1.26378 0
M  V30 1480 O 130.912 -0.682245 -1.83636 0
M  V30 1481 H 129.492 -0.745993 0.0387668 0
M  V30 1482 H 132.154 -1.77808 0.798141 0
M  V30 1483 H 131.25 -3.12025 0.0684069 0
M  V30 1484 N 131.551 -0.354651 -1.53558 0
M  V30 1485 C 132.828 0.294281 -1.93374 0
M  V30 1486 C 133.208 1.67313 -1.28723 0
M  V30 1487 O 132.556 2.24179 -0.442247 0
M  V30 1488 C 132.766 0.355445 -3.47185 0
M  V30 1489 C 134.114 0.601007 -4.20325 0
M  V30 1490 O 135.138 0.437106 -3.53508 0
M  V30 1491 O 133.997 0.919322 -5.38712 0
M  V30 1492 H 131.091 0.174033 -0.808481 0
M  V30 1493 H 133.637 -0.406638 -1.64756 0
M  V30 1494 H 132.409 -0.611729 -3.86489 0
M  V30 1495 H 132.032 1.1027 -3.82003 0
M  V30 1496 N 133.029 1.57378 -0.0835403 0
M  V30 1497 C 134.278 1.93106 0.582498 0
M  V30 1498 C 134.591 0.96651 1.70053 0
M  V30 1499 O 135.797 1.21705 2.42693 0
M  V30 1500 C 134.253 3.43076 1.08751 0
M  V30 1501 C 133.861 4.48 -0.000146404 0
M  V30 1502 C 135.605 3.87785 1.72694 0
M  V30 1503 C 133.512 5.89113 0.519568 0
M  V30 1504 H 132.442 0.720775 0.221358 0
M  V30 1505 H 135.093 1.82821 -0.157675 0
M  V30 1506 H 133.475 3.48474 1.88101 0
M  V30 1507 H 134.649 4.54233 -0.775199 0
M  V30 1508 H 132.964 4.1283 -0.54406 0
M  V30 1509 H 135.561 4.90604 2.1263 0
M  V30 1510 H 135.904 3.25796 2.59158 0
M  V30 1511 H 136.437 3.8504 0.999457 0
M  V30 1512 H 133.176 6.54775 -0.308186 0
M  V30 1513 H 132.696 5.86376 1.26188 0
M  V30 1514 H 134.375 6.39346 0.992237 0
M  V30 1515 N 134.507 -0.190092 1.56449 0
M  V30 1516 C 135.754 -0.909705 1.80916 0
M  V30 1517 C 136.082 -1.83047 0.657583 0
M  V30 1518 O 135.337 -1.92428 -0.356356 0
M  V30 1519 C 135.636 -1.75382 3.1141 0
M  V30 1520 C 135.302 -0.983606 4.40041 0
M  V30 1521 C 133.964 -0.770967 4.74984 0
M  V30 1522 C 136.316 -0.442024 5.19322 0
M  V30 1523 C 133.644 -0.0053448 5.867 0
M  V30 1524 C 135.996 0.310412 6.31838 0
M  V30 1525 C 134.66 0.534023 6.6536 0
M  V30 1526 H 133.93 -0.332885 0.662019 0
M  V30 1527 H 136.577 -0.175762 1.90692 0
M  V30 1528 H 134.882 -2.55659 2.96893 0
M  V30 1529 H 136.579 -2.31331 3.27547 0
M  V30 1530 H 133.169 -1.15936 4.12622 0
M  V30 1531 H 137.353 -0.593693 4.92736 0
M  V30 1532 H 132.609 0.177825 6.11141 0
M  V30 1533 H 136.783 0.737419 6.92485 0
M  V30 1534 H 134.41 1.12918 7.51767 0
M  V30 1535 N 135.985 -1.50799 -0.457987 0
M  V30 1536 C 137.21 -1.66496 -1.23668 0
M  V30 1537 C 137.635 -0.353288 -1.84752 0
M  V30 1538 O 136.993 0.684346 -1.67888 0
M  V30 1539 C 137.041 -2.76763 -2.3116 0
M  V30 1540 O 136.145 -2.38928 -3.36136 0
M  V30 1541 H 135.486 -0.555828 -0.363252 0
M  V30 1542 H 138.016 -1.9725 -0.543474 0
M  V30 1543 H 138.026 -3.00232 -2.76269 0
M  V30 1544 H 136.701 -3.71954 -1.86073 0
M  V30 1545 H 135.278 -2.25953 -2.96647 0
M  V30 1546 N 137.463 0.71206 -1.40597 0
M  V30 1547 C 138.71 1.47197 -1.39065 0
M  V30 1548 C 139.038 1.94499 0.00583891 0
M  V30 1549 O 138.293 1.68752 0.99102 0
M  V30 1550 C 138.592 2.71039 -2.32965 0
M  V30 1551 C 138.258 2.42484 -3.80148 0
M  V30 1552 C 136.92 2.34406 -4.20247 0
M  V30 1553 C 139.272 2.18598 -4.73143 0
M  V30 1554 C 136.6 2.00516 -5.51371 0
M  V30 1555 C 138.952 1.8622 -6.0457 0
M  V30 1556 C 137.616 1.76626 -6.43708 0
M  V30 1557 H 136.886 0.538634 -0.508876 0
M  V30 1558 H 139.533 0.815325 -1.73276 0
M  V30 1559 H 137.838 3.41558 -1.91951 0
M  V30 1560 H 139.535 3.29138 -2.29061 0
M  V30 1561 H 136.125 2.49659 -3.4838 0
M  V30 1562 H 140.309 2.23793 -4.42979 0
M  V30 1563 H 135.565 1.91628 -5.80593 0
M  V30 1564 H 139.739 1.66752 -6.76141 0
M  V30 1565 H 137.366 1.50133 -7.45228 0
M  V30 1566 N 138.941 1.26152 0.944643 0
M  V30 1567 C 139.874 1.01729 2.04271 0
M  V30 1568 C 140.852 -0.0568101 1.62501 0
M  V30 1569 O 142.036 0.0848987 1.88309 0
M  V30 1570 C 139.163 0.539792 3.34371 0
M  V30 1571 C 138.209 1.60593 3.9511 0
M  V30 1572 S 139.042 3.19392 4.29825 0
M  V30 1573 C 140.198 2.73402 5.63029 0
M  V30 1574 H 140.431 1.94703 2.24673 0
M  V30 1575 H 137.964 1.09793 1.08558 0
M  V30 1576 H 139.922 0.270956 4.09605 0
M  V30 1577 H 138.583 -0.369609 3.11918 0
M  V30 1578 H 137.776 1.22275 4.88943 0
M  V30 1579 H 137.378 1.82596 3.26397 0
M  V30 1580 H 139.67 2.1765 6.41588 0
M  V30 1581 H 140.613 3.65913 6.06229 0
M  V30 1582 H 141.021 2.13077 5.22741 0
M  V30 1583 N 140.419 -1.14872 1.07899 0
M  V30 1584 C 141.349 -2.2193 0.725887 0
M  V30 1585 C 142.33 -1.67622 -0.28927 0
M  V30 1586 O 143.515 -1.93533 -0.160787 0
M  V30 1587 C 140.645 -3.47061 0.128856 0
M  V30 1588 C 139.599 -4.14363 1.07178 0
M  V30 1589 C 138.925 -5.33636 0.337229 0
M  V30 1590 C 140.225 -4.63492 2.40775 0
M  V30 1591 H 141.919 -2.51724 1.62097 0
M  V30 1592 H 139.465 -1.20991 0.780838 0
M  V30 1593 H 141.418 -4.21199 -0.130147 0
M  V30 1594 H 140.142 -3.16617 -0.80134 0
M  V30 1595 H 138.801 -3.42173 1.3158 0
M  V30 1596 H 138.449 -4.99449 -0.596606 0
M  V30 1597 H 138.149 -5.79609 0.965788 0
M  V30 1598 H 139.673 -6.10539 0.0861567 0
M  V30 1599 H 141.087 -5.2913 2.20669 0
M  V30 1600 H 139.484 -5.20148 2.99276 0
M  V30 1601 H 140.554 -3.78834 3.02676 0
M  V30 1602 N 141.898 -0.863906 -1.31812 0
M  V30 1603 C 142.828 -0.330843 -2.31144 0
M  V30 1604 C 143.809 0.575005 -1.60087 0
M  V30 1605 O 144.994 0.493304 -1.8783 0
M  V30 1606 C 142.124 0.47374 -3.44054 0
M  V30 1607 C 141.078 -0.338481 -4.26659 0
M  V30 1608 C 140.404 0.591412 -5.31419 0
M  V30 1609 C 141.704 -1.56926 -4.98168 0
M  V30 1610 H 143.398 -1.16086 -2.75979 0
M  V30 1611 H 140.944 -0.559657 -1.32679 0
M  V30 1612 H 142.897 0.857143 -4.12591 0
M  V30 1613 H 141.621 1.33721 -2.9797 0
M  V30 1614 H 140.28 -0.703754 -3.59782 0
M  V30 1615 H 139.928 1.45199 -4.81587 0
M  V30 1616 H 139.628 0.0519022 -5.87577 0
M  V30 1617 H 141.152 0.97179 -6.02817 0
M  V30 1618 H 142.566 -1.25764 -5.59336 0
M  V30 1619 H 140.963 -2.04739 -5.64094 0
M  V30 1620 H 142.033 -2.32544 -4.25501 0
M  V30 1621 N 143.376 1.44774 -0.622745 0
M  V30 1622 C 144.624 2.01721 -0.123655 0
M  V30 1623 C 144.945 1.49172 1.25589 0
M  V30 1624 O 144.215 0.691974 1.83272 0
M  V30 1625 H 142.795 0.745777 -0.0427225 0
M  V30 1626 H 145.457 1.77382 -0.807559 0
M  V30 1627 H 144.553 3.11984 -0.0849534 0
M  V30 1628 N 144.854 0.36279 1.53368 0
M  V30 1629 C 146.27 0.0116182 1.59596 0
M  V30 1630 C 146.47 -1.47012 1.37803 0
M  V30 1631 O 145.526 -2.23136 1.18181 0
M  V30 1632 C 146.839 0.465052 2.97082 0
M  V30 1633 C 148.387 0.419033 3.10182 0
M  V30 1634 C 148.862 0.848235 4.50077 0
M  V30 1635 N 150.353 0.803183 4.56183 0
M  V30 1636 C 151.088 1.107 5.62613 0
M  V30 1637 N 150.584 1.47996 6.76808 0
M  V30 1638 N 152.377 1.02998 5.52583 0
M  V30 1639 H 144.528 1.32775 1.65785 0
M  V30 1640 H 146.791 0.542518 0.777417 0
M  V30 1641 H 146.497 1.49892 3.18159 0
M  V30 1642 H 146.371 -0.149786 3.76902 0
M  V30 1643 H 148.758 -0.605696 2.88817 0
M  V30 1644 H 148.839 1.06933 2.32377 0
M  V30 1645 H 148.483 1.87107 4.7218 0
M  V30 1646 H 148.413 0.175218 5.26308 0
M  V30 1647 H 150.904 0.52838 3.74188 0
M  V30 1648 H 151.217 1.69613 7.53957 0
M  V30 1649 H 149.562 1.51859 6.78206 0
M  V30 1650 H 152.753 0.737817 4.62249 0
M  V30 1651 H 152.926 1.2701 6.35431 0
M  V30 1652 N 146.332 -1.57332 0.0918853 0
M  V30 1653 C 147.581 -1.93412 -0.572249 0
M  V30 1654 C 147.894 -0.975515 -1.69538 0
M  V30 1655 O 149.1 -1.22991 -2.42045 0
M  V30 1656 C 147.556 -3.43648 -1.0693 0
M  V30 1657 C 147.164 -4.47994 0.0239049 0
M  V30 1658 C 148.908 -3.88695 -1.70635 0
M  V30 1659 C 146.815 -5.89381 -0.488319 0
M  V30 1660 H 145.745 -0.721939 -0.217532 0
M  V30 1661 H 148.396 -1.82735 0.167369 0
M  V30 1662 H 146.778 -3.49466 -1.8625 0
M  V30 1663 H 147.952 -4.53815 0.799277 0
M  V30 1664 H 146.267 -4.12536 0.565946 0
M  V30 1665 H 148.864 -4.91725 -2.10025 0
M  V30 1666 H 149.207 -3.27166 -2.57426 0
M  V30 1667 H 149.74 -3.85564 -0.979023 0
M  V30 1668 H 146.479 -6.54602 0.342906 0
M  V30 1669 H 145.999 -5.87037 -1.23077 0
M  V30 1670 H 147.678 -6.39863 -0.958317 0
M  V30 1671 N 147.81 0.181792 -1.56548 0
M  V30 1672 C 148.743 1.25366 -1.90679 0
M  V30 1673 C 149.721 1.43299 -0.768376 0
M  V30 1674 O 150.905 1.58475 -1.02068 0
M  V30 1675 C 148.032 2.61826 -2.1486 0
M  V30 1676 C 147.078 2.60688 -3.37556 0
M  V30 1677 S 147.911 2.10804 -4.92262 0
M  V30 1678 C 149.067 3.49062 -5.19525 0
M  V30 1679 H 149.3 0.962277 -2.81296 0
M  V30 1680 H 146.833 0.385892 -1.495 0
M  V30 1681 H 148.791 3.40371 -2.29473 0
M  V30 1682 H 147.452 2.88169 -1.24969 0
M  V30 1683 H 146.645 3.61058 -3.51643 0
M  V30 1684 H 146.247 1.90232 -3.22006 0
M  V30 1685 H 148.539 4.45003 -5.10861 0
M  V30 1686 H 149.482 3.39859 -6.2121 0
M  V30 1687 H 149.89 3.4459 -4.47122 0
M  V30 1688 N 149.288 1.51039 0.449983 0
M  V30 1689 C 150.516 1.66869 1.2232 0
M  V30 1690 C 150.931 0.360727 1.85322 0
M  V30 1691 O 150.288 -0.659531 1.70166 0
M  V30 1692 C 150.339 2.77524 2.31652 0
M  V30 1693 O 150.06 4.03252 1.7123 0
M  V30 1694 C 151.561 3.04512 3.2216 0
M  V30 1695 H 148.781 0.560326 0.369155 0
M  V30 1696 H 151.325 1.97385 0.534719 0
M  V30 1697 H 149.48 2.49642 2.96239 0
M  V30 1698 H 149.894 4.64609 2.43389 0
M  V30 1699 H 151.368 3.85551 3.95038 0
M  V30 1700 H 151.845 2.16415 3.8218 0
M  V30 1701 H 152.451 3.34005 2.63288 0
M  V30 1702 N 150.766 -0.704594 1.40972 0
M  V30 1703 C 152.012 -1.46675 1.40051 0
M  V30 1704 C 152.345 -1.94199 0.00641102 0
M  V30 1705 O 151.62 -1.68916 -0.964235 0
M  V30 1706 C 151.903 -2.68505 2.39952 0
M  V30 1707 C 151.756 -2.26805 3.88432 0
M  V30 1708 C 153.075 -3.70686 2.37233 0
M  V30 1709 H 150.194 -0.532015 0.510028 0
M  V30 1710 H 152.836 -0.803255 1.72185 0
M  V30 1711 H 150.986 -3.25114 2.1268 0
M  V30 1712 H 152.658 -1.75592 4.26574 0
M  V30 1713 H 150.901 -1.58685 4.03734 0
M  V30 1714 H 151.572 -3.14181 4.53866 0
M  V30 1715 H 154.048 -3.23731 2.61415 0
M  V30 1716 H 152.924 -4.53553 3.09162 0
M  V30 1717 H 153.185 -4.19754 1.38777 0
M  V30 1718 N 152.244 -1.26651 -0.937939 0
M  V30 1719 C 153.474 -1.15006 -1.71631 0
M  V30 1720 C 153.882 0.297026 -1.86854 0
M  V30 1721 O 153.225 1.21493 -1.37786 0
M  V30 1722 C 153.287 -1.74984 -3.14039 0
M  V30 1723 C 152.951 -3.24103 -3.2219 0
M  V30 1724 C 153.948 -4.20877 -3.05219 0
M  V30 1725 C 151.633 -3.64625 -3.45476 0
M  V30 1726 C 153.627 -5.56151 -3.11408 0
M  V30 1727 C 151.314 -5.00032 -3.513 0
M  V30 1728 C 152.312 -5.95604 -3.34282 0
M  V30 1729 O 152 -7.28545 -3.3982 0
M  V30 1730 H 151.732 -0.401183 -0.544085 0
M  V30 1731 H 154.286 -1.67832 -1.18413 0
M  V30 1732 H 152.516 -1.16624 -3.68695 0
M  V30 1733 H 154.205 -1.58199 -3.73802 0
M  V30 1734 H 154.971 -3.90908 -2.87081 0
M  V30 1735 H 150.85 -2.90718 -3.57777 0
M  V30 1736 H 154.394 -6.30727 -2.98043 0
M  V30 1737 H 150.291 -5.29659 -3.68959 0
M  V30 1738 H 151.059 -7.3686 -3.56343 0
M  V30 1739 N 153.722 1.14298 -1.08507 0
M  V30 1740 C 154.652 2.21542 -0.737646 0
M  V30 1741 C 155.633 1.67773 0.280377 0
M  V30 1742 O 156.818 1.93616 0.150521 0
M  V30 1743 C 153.948 3.46988 -0.147259 0
M  V30 1744 C 152.902 4.13789 -1.09374 0
M  V30 1745 C 152.228 5.33449 -0.365524 0
M  V30 1746 C 153.528 4.62208 -2.4323 0
M  V30 1747 H 155.222 2.5086 -1.6343 0
M  V30 1748 H 152.768 1.20576 -0.787243 0
M  V30 1749 H 154.721 4.21262 0.107808 0
M  V30 1750 H 153.445 3.17037 0.784538 0
M  V30 1751 H 152.104 3.4147 -1.33393 0
M  V30 1752 H 151.752 4.99759 0.57011 0
M  V30 1753 H 151.452 5.79088 -0.996512 0
M  V30 1754 H 152.976 6.10485 -0.118534 0
M  V30 1755 H 154.39 5.27952 -2.23472 0
M  V30 1756 H 152.787 5.18553 -3.02031 0
M  V30 1757 H 153.857 3.77224 -3.04681 0
M  V30 1758 N 155.201 0.870884 1.31352 0
M  V30 1759 C 156.449 0.48132 1.96285 0
M  V30 1760 C 156.77 -0.969813 1.69173 0
M  V30 1761 O 156.04 -1.67998 1.00764 0
M  V30 1762 H 154.62 0.175002 0.726212 0
M  V30 1763 H 157.282 1.11087 1.60143 0
M  V30 1764 H 156.378 0.639825 3.05471 0
M  V30 1765 N 156.679 -1.44442 0.630414 0
M  V30 1766 C 158.09 -1.85434 0.217063 0
M  V30 1767 C 158.441 -1.52748 -1.23136 0
M  V30 1768 O 157.566 -0.965205 -1.93682 0
M  V30 1769 C 158.161 -3.36581 0.387168 0
M  V30 1770 C 156.72 -3.76389 0.0283297 0
M  V30 1771 C 155.867 -2.68296 0.700889 0
M  V30 1772 H 158.818 -1.34919 0.83562 0
M  V30 1773 H 158.839 -3.78657 -0.374086 0
M  V30 1774 H 158.351 -3.60339 1.44144 0
M  V30 1775 H 156.452 -3.58246 -1.02423 0
M  V30 1776 H 156.565 -4.77095 0.437892 0
M  V30 1777 H 154.929 -2.54335 0.136267 0
M  V30 1778 H 155.712 -2.94887 1.75774 0
M  V30 1779 N 158.157 -0.370918 -1.53173 0
M  V30 1780 C 159.104 0.473035 -2.259 0
M  V30 1781 C 160.074 1.07311 -1.26781 0
M  V30 1782 O 161.259 1.1046 -1.55574 0
M  V30 1783 C 158.399 1.60405 -3.05556 0
M  V30 1784 C 157.512 1.02863 -4.19575 0
M  V30 1785 C 156.647 2.12918 -4.86661 0
M  V30 1786 C 155.686 1.52869 -5.92704 0
M  V30 1787 N 154.823 2.56779 -6.53459 0
M  V30 1788 H 159.663 -0.153649 -2.97604 0
M  V30 1789 H 157.2 -0.0875946 -1.46839 0
M  V30 1790 H 159.158 2.27034 -3.50016 0
M  V30 1791 H 157.788 2.20131 -2.36097 0
M  V30 1792 H 156.84 0.252465 -3.79561 0
M  V30 1793 H 158.152 0.549642 -4.95762 0
M  V30 1794 H 157.306 2.87356 -5.34333 0
M  V30 1795 H 156.045 2.6417 -4.09958 0
M  V30 1796 H 155.05 0.769479 -5.44389 0
M  V30 1797 H 156.275 1.02435 -6.7133 0
M  V30 1798 H 154.221 3.07235 -5.79606 0
M  V30 1799 H 154.138 2.13583 -7.25202 0
M  V30 1800 H 155.406 3.30903 -7.05779 0
M  V30 1801 N 159.635 1.57281 -0.100228 0
M  V30 1802 C 160.883 1.94153 0.561157 0
M  V30 1803 C 161.204 0.983157 1.68401 0
M  V30 1804 O 160.474 0.0361132 1.95867 0
M  V30 1805 H 159.054 0.716791 0.210283 0
M  V30 1806 H 161.716 1.94202 -0.164765 0
M  V30 1807 H 160.812 2.96709 0.968008 0
M  V30 1808 N 161.113 -0.173488 1.56642 0
M  V30 1809 C 162.063 -1.21941 1.92651 0
M  V30 1810 C 163.047 -1.39912 0.794577 0
M  V30 1811 O 164.239 -1.41919 1.05773 0
M  V30 1812 C 161.368 -2.55935 2.28806 0
M  V30 1813 C 160.454 -2.41667 3.48508 0
M  V30 1814 N 160.845 -1.9711 4.65813 0
M  V30 1815 C 159.143 -2.72499 3.53072 0
M  V30 1816 C 159.844 -1.95253 5.47952 0
M  V30 1817 N 158.82 -2.37575 4.88937 0
M  V30 1818 H 162.622 -0.866581 2.80834 0
M  V30 1819 H 160.136 -0.381776 1.57849 0
M  V30 1820 H 162.133 -3.31511 2.52797 0
M  V30 1821 H 160.793 -2.92022 1.41961 0
M  V30 1822 H 161.804 -1.67481 4.90072 0
M  V30 1823 H 158.481 -3.12639 2.767 0
M  V30 1824 H 159.871 -1.6252 6.51948 0
M  V30 1825 N 162.591 -1.51276 -0.441967 0
M  V30 1826 C 163.501 -1.75092 -1.56141 0
M  V30 1827 C 164.517 -0.634963 -1.62001 0
M  V30 1828 O 165.693 -0.916686 -1.79329 0
M  V30 1829 C 162.758 -1.86666 -2.92158 0
M  V30 1830 C 161.819 -3.10506 -2.96453 0
M  V30 1831 C 161.052 -3.21519 -4.25982 0
M  V30 1832 O 161.275 -2.38586 -5.18105 0
M  V30 1833 O 160.209 -4.14465 -4.36466 0
M  V30 1834 H 164.035 -2.70044 -1.38961 0
M  V30 1835 H 161.62 -1.35722 -0.624499 0
M  V30 1836 H 163.502 -1.96292 -3.72891 0
M  V30 1837 H 162.177 -0.949014 -3.09476 0
M  V30 1838 H 161.084 -3.06363 -2.14692 0
M  V30 1839 H 162.417 -4.01945 -2.84079 0
M  V30 1840 N 164.069 0.697108 -1.41344 0
M  V30 1841 C 165.316 1.45714 -1.40619 0
M  V30 1842 C 165.644 1.94494 -0.0147907 0
M  V30 1843 O 164.899 1.69794 0.973066 0
M  V30 1844 C 165.198 2.68553 -2.35826 0
M  V30 1845 C 164.864 2.38438 -3.82698 0
M  V30 1846 C 163.526 2.29936 -4.22709 0
M  V30 1847 C 165.878 2.13567 -4.75435 0
M  V30 1848 C 163.206 1.94656 -5.53467 0
M  V30 1849 C 165.558 1.79797 -6.06511 0
M  V30 1850 C 164.222 1.69789 -6.45545 0
M  V30 1851 H 163.492 0.533206 -0.51456 0
M  V30 1852 H 166.139 0.796901 -1.74131 0
M  V30 1853 H 164.444 3.39503 -1.95563 0
M  V30 1854 H 166.141 3.2669 -2.32539 0
M  V30 1855 H 162.731 2.4595 -3.51008 0
M  V30 1856 H 166.915 2.19082 -4.45328 0
M  V30 1857 H 162.171 1.8546 -5.82593 0
M  V30 1858 H 166.345 1.59572 -6.77872 0
M  V30 1859 H 163.972 1.4222 -7.46778 0
M  V30 1860 N 165.547 1.27147 0.931209 0
M  V30 1861 C 166.796 1.12664 1.67302 0
M  V30 1862 C 167.109 -0.327718 1.92835 0
M  V30 1863 O 168.315 -0.593392 2.64936 0
M  V30 1864 C 166.771 1.9683 3.01307 0
M  V30 1865 C 166.379 3.46901 2.83485 0
M  V30 1866 C 168.123 1.90985 3.79111 0
M  V30 1867 C 166.03 4.23279 4.13024 0
M  V30 1868 H 164.96 0.41803 0.627509 0
M  V30 1869 H 167.611 1.51539 1.03481 0
M  V30 1870 H 165.993 1.50797 3.66164 0
M  V30 1871 H 167.167 4.00773 2.27415 0
M  V30 1872 H 165.482 3.54088 2.19113 0
M  V30 1873 H 168.079 2.45328 4.75098 0
M  V30 1874 H 168.422 0.882718 4.06834 0
M  V30 1875 H 168.955 2.34895 3.21044 0
M  V30 1876 H 165.694 5.26503 3.90481 0
M  V30 1877 H 165.214 3.74186 4.6877 0
M  V30 1878 H 166.893 4.32265 4.81411 0
M  V30 1879 N 167.025 -1.13721 1.09112 0
M  V30 1880 C 168.272 -1.84924 0.825192 0
M  V30 1881 C 168.6 -1.83347 -0.649151 0
M  V30 1882 O 167.855 -1.26449 -1.49362 0
M  V30 1883 C 168.154 -3.32861 1.30146 0
M  V30 1884 C 167.82 -3.54621 2.78486 0
M  V30 1885 C 166.482 -3.60268 3.18999 0
M  V30 1886 C 168.834 -3.62855 3.74146 0
M  V30 1887 C 166.162 -3.71679 4.53951 0
M  V30 1888 C 168.514 -3.75793 5.08883 0
M  V30 1889 C 167.178 -3.79692 5.4899 0
M  V30 1890 H 166.448 -0.676684 0.301959 0
M  V30 1891 H 169.095 -1.3428 1.36533 0
M  V30 1892 H 167.4 -3.85835 0.681064 0
M  V30 1893 H 169.097 -3.86395 1.07236 0
M  V30 1894 H 165.687 -3.50879 2.46134 0
M  V30 1895 H 169.871 -3.57775 3.43963 0
M  V30 1896 H 165.127 -3.72963 4.84467 0
M  V30 1897 H 169.301 -3.81107 5.82864 0
M  V30 1898 H 166.928 -3.88287 6.53558 0
M  V30 1899 N 168.503 -0.877838 -1.30888 0
M  V30 1900 C 169.451 -0.328662 -2.30266 0
M  V30 1901 C 170.445 0.560496 -1.59859 0
M  V30 1902 O 171.651 0.445722 -1.74394 0
M  V30 1903 H 168.026 -0.0876142 -0.746879 0
M  V30 1904 H 169.997 -1.18061 -2.74051 0
M  V30 1905 C 168.746 0.448071 -3.44801 0
M  V30 1906 H 168.069 -0.226859 -3.99156 0
M  V30 1907 H 169.509 0.797541 -4.16432 0
M  V30 1908 C 167.968 1.64239 -2.94155 0
M  V30 1909 O 168.498 2.74175 -2.93583 0
M  V30 1910 N 166.704 1.47716 -2.50256 0
M  V30 1911 H 166.251 0.582821 -2.5092 0
M  V30 1912 H 166.209 2.27765 -2.16727 0
M  V30 1913 N 169.982 1.44106 -0.638065 0
M  V30 1914 C 170.945 2.29138 0.0531013 0
M  V30 1915 C 171.945 1.41409 0.765506 0
M  V30 1916 O 173.135 1.63206 0.609046 0
M  V30 1917 C 170.267 3.23144 1.08584 0
M  V30 1918 H 171.46 2.91739 -0.694883 0
M  V30 1919 H 169.013 1.51134 -0.398538 0
M  V30 1920 H 169.748 2.65408 1.86357 0
M  V30 1921 H 169.533 3.87804 0.578852 0
M  V30 1922 H 171.023 3.87004 1.56899 0
M  V30 1923 N 171.46 0.379036 1.52974 0
M  V30 1924 C 172.407 -0.461048 2.26148 0
M  V30 1925 C 173.377 -1.06637 1.27349 0
M  V30 1926 O 174.562 -1.09633 1.56157 0
M  V30 1927 C 171.702 -1.58782 3.06402 0
M  V30 1928 C 170.815 -1.00636 4.20115 0
M  V30 1929 C 169.95 -2.10334 4.87784 0
M  V30 1930 C 168.989 -1.49724 5.93506 0
M  V30 1931 N 168.126 -2.5331 6.54812 0
M  V30 1932 H 172.966 0.169429 2.97518 0
M  V30 1933 H 170.503 0.0953806 1.4679 0
M  V30 1934 H 172.461 -2.25174 3.51215 0
M  V30 1935 H 171.091 -2.18876 2.37261 0
M  V30 1936 H 170.143 -0.232332 3.7969 0
M  V30 1937 H 171.455 -0.523343 4.96047 0
M  V30 1938 H 170.609 -2.84519 5.35849 0
M  V30 1939 H 169.348 -2.61992 4.11353 0
M  V30 1940 H 168.353 -0.740598 5.44789 0
M  V30 1941 H 169.578 -0.988732 6.71864 0
M  V30 1942 H 167.524 -3.04156 5.81227 0
M  V30 1943 H 167.441 -2.09734 7.26325 0
M  V30 1944 H 168.709 -3.27155 7.07524 0
M  V30 1945 N 172.938 -1.57226 0.108567 0
M  V30 1946 C 173.868 -2.17778 -0.84232 0
M  V30 1947 C 174.849 -1.11487 -1.2847 0
M  V30 1948 O 176.034 -1.39681 -1.34918 0
M  V30 1949 C 173.164 -2.76888 -2.09644 0
M  V30 1950 C 172.118 -3.88669 -1.79221 0
M  V30 1951 C 171.444 -4.34541 -3.11574 0
M  V30 1952 C 172.744 -5.11251 -1.06864 0
M  V30 1953 H 174.438 -2.97489 -0.337774 0
M  V30 1954 H 171.984 -1.43097 -0.161025 0
M  V30 1955 H 173.937 -3.17904 -2.76614 0
M  V30 1956 H 172.661 -1.94451 -2.62405 0
M  V30 1957 H 171.32 -3.48213 -1.14644 0
M  V30 1958 H 170.968 -3.48977 -3.62249 0
M  V30 1959 H 170.668 -5.09914 -2.91996 0
M  V30 1960 H 172.192 -4.782 -3.7968 0
M  V30 1961 H 173.606 -5.49352 -1.63968 0
M  V30 1962 H 172.003 -5.9214 -0.974178 0
M  V30 1963 H 173.073 -4.8487 -0.0536168 0
M  V30 1964 N 174.416 0.165178 -1.56732 0
M  V30 1965 C 175.379 1.18822 -1.95995 0
M  V30 1966 C 176.379 1.3685 -0.84431 0
M  V30 1967 O 177.569 1.34152 -1.11126 0
M  V30 1968 C 174.701 2.5521 -2.26011 0
M  V30 1969 H 175.894 0.851825 -2.87548 0
M  V30 1970 H 173.447 0.407857 -1.50885 0
M  V30 1971 H 174.182 2.93852 -1.37191 0
M  V30 1972 H 173.967 2.43489 -3.07336 0
M  V30 1973 H 175.457 3.28927 -2.57288 0
M  V30 1974 N 175.894 1.51508 0.433938 0
M  V30 1975 C 177.171 1.54888 1.19453 0
M  V30 1976 C 177.551 0.315154 2.08734 0
M  V30 1977 O 176.899 -0.699558 2.17528 0
M  V30 1978 C 177.109 2.86467 1.99342 0
M  V30 1979 C 178.457 3.38545 2.56267 0
M  V30 1980 O 179.481 2.88041 2.0955 0
M  V30 1981 O 178.34 4.26675 3.41483 0
M  V30 1982 H 175.434 0.622863 0.544032 0
M  V30 1983 H 177.98 1.63823 0.442732 0
M  V30 1984 H 176.752 3.67718 1.33788 0
M  V30 1985 H 176.375 2.8071 2.8158 0
M  V30 1986 N 177.372 -0.689602 1.41712 0
M  V30 1987 C 178.618 -1.45181 1.41599 0
M  V30 1988 C 178.951 -1.94181 0.0270081 0
M  V30 1989 O 178.226 -1.6993 -0.946265 0
M  V30 1990 C 178.509 -2.65945 2.42787 0
M  V30 1991 C 178.362 -2.22672 3.90816 0
M  V30 1992 C 179.681 -3.68149 2.41151 0
M  V30 1993 H 176.8 -0.526576 0.515642 0
M  V30 1994 H 179.442 -0.784947 1.73028 0
M  V30 1995 H 177.592 -3.2284 2.16116 0
M  V30 1996 H 179.264 -1.71058 4.28412 0
M  V30 1997 H 177.507 -1.54394 4.05395 0
M  V30 1998 H 178.178 -3.0935 4.57172 0
M  V30 1999 H 180.654 -3.2094 2.64834 0
M  V30 2000 H 179.53 -4.50248 3.13955 0
M  V30 2001 H 179.791 -4.18259 1.43221 0
M  V30 2002 N 178.85 -1.27639 -0.924453 0
M  V30 2003 C 180.075 -1.17101 -1.71179 0
M  V30 2004 C 180.5 0.268134 -1.86179 0
M  V30 2005 O 179.858 1.19415 -1.36418 0
M  V30 2006 C 179.906 -1.86313 -3.08739 0
M  V30 2007 O 179.01 -1.16331 -3.95652 0
M  V30 2008 H 178.351 -0.407091 -0.524569 0
M  V30 2009 H 180.881 -1.68767 -1.15666 0
M  V30 2010 H 180.891 -1.938 -3.59034 0
M  V30 2011 H 179.566 -2.91001 -2.97138 0
M  V30 2012 H 178.143 -1.16935 -3.54091 0
M  V30 2013 N 180.328 1.1314 -1.09713 0
M  V30 2014 C 181.291 2.16831 -0.742751 0
M  V30 2015 C 182.291 1.59159 0.229129 0
M  V30 2016 O 183.481 1.74199 0.00693237 0
M  V30 2017 C 180.613 3.40756 -0.0989168 0
M  V30 2018 H 181.806 2.49695 -1.66109 0
M  V30 2019 H 179.359 1.2802 -0.896699 0
M  V30 2020 H 180.094 3.13485 0.830514 0
M  V30 2021 H 179.879 3.83888 -0.798265 0
M  V30 2022 H 181.369 4.17386 0.133524 0
M  V30 2023 N 181.806 0.884767 1.30421 0
M  V30 2024 C 182.716 0.355398 2.31892 0
M  V30 2025 C 183.732 -0.542261 1.65335 0
M  V30 2026 O 184.908 -0.435432 1.96637 0
M  V30 2027 C 181.973 -0.421661 3.44126 0
M  V30 2028 C 181.034 0.505727 4.26311 0
M  V30 2029 C 180.267 -0.234343 5.33185 0
M  V30 2030 O 180.49 -1.46045 5.51386 0
M  V30 2031 O 179.424 0.415443 6.00465 0
M  V30 2032 H 183.25 1.19685 2.79122 0
M  V30 2033 H 180.835 0.648596 1.34587 0
M  V30 2034 H 182.717 -0.861641 4.12497 0
M  V30 2035 H 181.392 -1.23942 2.99032 0
M  V30 2036 H 180.299 0.994513 3.60639 0
M  V30 2037 H 181.632 1.28948 4.75009 0
M  V30 2038 N 183.284 -1.43765 0.645699 0
M  V30 2039 C 184.247 -2.29163 -0.0409488 0
M  V30 2040 C 185.247 -1.41813 -0.757996 0
M  V30 2041 O 186.437 -1.63527 -0.600382 0
M  V30 2042 C 183.569 -3.23716 -1.06869 0
M  V30 2043 H 184.762 -2.91366 0.710345 0
M  V30 2044 H 182.315 -1.5092 0.406547 0
M  V30 2045 H 183.05 -2.66393 -1.84947 0
M  V30 2046 H 182.835 -3.88105 -0.558277 0
M  V30 2047 H 184.325 -3.87831 -1.54845 0
M  V30 2048 N 184.763 -0.387143 -1.52771 0
M  V30 2049 C 185.726 0.436939 -2.24997 0
M  V30 2050 C 186.726 0.991991 -1.26555 0
M  V30 2051 O 187.916 0.874335 -1.50669 0
M  V30 2052 C 185.048 1.61281 -3.00335 0
M  V30 2053 H 186.241 -0.195365 -2.99263 0
M  V30 2054 H 183.794 -0.139218 -1.55679 0
M  V30 2055 H 184.529 2.2826 -2.30364 0
M  V30 2056 H 184.314 1.22154 -3.72587 0
M  V30 2057 H 185.804 2.19629 -3.5518 0
M  V30 2058 N 186.241 1.57166 -0.116904 0
M  V30 2059 C 187.471 1.99184 0.548586 0
M  V30 2060 C 187.879 0.995436 1.60897 0
M  V30 2061 O 187.222 -0.0201293 1.83689 0
M  V30 2062 C 187.284 3.37611 1.23526 0
M  V30 2063 C 186.948 4.55857 0.323077 0
M  V30 2064 C 187.945 5.18056 -0.437476 0
M  V30 2065 C 185.63 5.01751 0.234761 0
M  V30 2066 C 187.624 6.24536 -1.2741 0
M  V30 2067 C 185.311 6.08093 -0.605496 0
M  V30 2068 C 186.309 6.69352 -1.35856 0
M  V30 2069 O 185.997 7.7364 -2.18487 0
M  V30 2070 H 185.729 0.659148 0.149999 0
M  V30 2071 H 188.283 2.0443 -0.199428 0
M  V30 2072 H 186.513 3.29113 2.0303 0
M  V30 2073 H 188.202 3.63932 1.79745 0
M  V30 2074 H 188.968 4.83516 -0.379105 0
M  V30 2075 H 184.847 4.53817 0.810601 0
M  V30 2076 H 188.391 6.72281 -1.86237 0
M  V30 2077 H 184.288 6.42063 -0.665268 0
M  V30 2078 H 185.056 7.90727 -2.11406 0
M  V30 2079 N 187.719 -0.156864 1.56817 0
M  V30 2080 C 188.944 -0.890331 1.87318 0
M  V30 2081 C 189.369 -1.74394 0.704855 0
M  V30 2082 O 188.727 -1.77972 -0.345786 0
M  V30 2083 C 188.775 -1.73102 3.16336 0
M  V30 2084 O 187.879 -2.83422 2.99576 0
M  V30 2085 H 187.22 -0.24857 0.615718 0
M  V30 2086 H 189.75 -0.150649 2.04045 0
M  V30 2087 H 189.76 -2.12803 3.48107 0
M  V30 2088 H 188.435 -1.10412 4.00976 0
M  V30 2089 H 187.012 -2.47199 2.7919 0
M  V30 2090 N 189.197 -1.51736 -0.425897 0
M  V30 2091 C 190.147 -1.70258 -1.51645 0
M  V30 2092 C 191.131 -0.556488 -1.5097 0
M  V30 2093 O 192.323 -0.812879 -1.5723 0
M  V30 2094 C 189.452 -1.84143 -2.89735 0
M  V30 2095 C 188.538 -3.04572 -2.95122 0
M  V30 2096 N 188.929 -4.2756 -2.70233 0
M  V30 2097 C 187.227 -3.04061 -3.26286 0
M  V30 2098 C 187.928 -5.08908 -2.81757 0
M  V30 2099 N 186.904 -4.43797 -3.13919 0
M  V30 2100 H 190.706 -2.63004 -1.31172 0
M  V30 2101 H 188.22 -1.4954 -0.633375 0
M  V30 2102 H 190.217 -1.95525 -3.68206 0
M  V30 2103 H 188.877 -0.925857 -3.1122 0
M  V30 2104 H 189.888 -4.56315 -2.44943 0
M  V30 2105 H 186.565 -2.22179 -3.53473 0
M  V30 2106 H 187.955 -6.16843 -2.66372 0
M  V30 2107 N 190.675 0.682077 -1.42076 0
M  V30 2108 C 191.605 1.80796 -1.47767 0
M  V30 2109 C 192.586 1.6677 -0.334954 0
M  V30 2110 O 193.771 1.863 -0.548264 0
M  V30 2111 C 190.901 3.19038 -1.37229 0
M  V30 2112 C 189.855 3.47789 -2.49453 0
M  V30 2113 C 189.181 4.8553 -2.23975 0
M  V30 2114 C 190.481 3.45411 -3.91776 0
M  V30 2115 H 192.175 1.7629 -2.41997 0
M  V30 2116 H 189.721 0.846721 -1.16476 0
M  V30 2117 H 191.674 3.97528 -1.39821 0
M  V30 2118 H 190.398 3.24204 -0.394907 0
M  V30 2119 H 189.057 2.71657 -2.46166 0
M  V30 2120 H 188.705 4.87337 -1.24547 0
M  V30 2121 H 188.405 5.0573 -2.99184 0
M  V30 2122 H 189.929 5.66312 -2.28304 0
M  V30 2123 H 191.343 4.13882 -3.96705 0
M  V30 2124 H 189.74 3.77145 -4.66778 0
M  V30 2125 H 190.81 2.44122 -4.18966 0
M  V30 2126 N 192.153 1.28127 0.917671 0
M  V30 2127 C 193.381 1.17892 1.70026 0
M  V30 2128 C 193.796 -0.262958 1.8696 0
M  V30 2129 O 193.153 -1.17811 1.3938 0
M  V30 2130 C 193.204 1.86872 3.09453 0
M  V30 2131 O 192.925 3.25428 2.93306 0
M  V30 2132 C 194.426 1.8289 4.03815 0
M  V30 2133 H 191.646 0.40942 0.531617 0
M  V30 2134 H 194.19 1.69181 1.14883 0
M  V30 2135 H 192.345 1.39464 3.61426 0
M  V30 2136 H 192.759 3.59918 3.81523 0
M  V30 2137 H 194.233 2.35751 4.99125 0
M  V30 2138 H 194.71 0.800412 4.31845 0
M  V30 2139 H 195.316 2.29959 3.57769 0
M  V30 2140 N 193.631 -1.12557 1.10312 0
M  V30 2141 C 194.859 -1.87864 0.866873 0
M  V30 2142 C 195.274 -1.79588 -0.582557 0
M  V30 2143 O 194.631 -1.16887 -1.40156 0
M  V30 2144 C 194.682 -3.37125 1.30496 0
M  V30 2145 O 194.403 -3.45201 2.69755 0
M  V30 2146 C 195.904 -4.29373 1.10243 0
M  V30 2147 H 193.124 -0.594452 0.311236 0
M  V30 2148 H 195.668 -1.42429 1.46745 0
M  V30 2149 H 193.823 -3.80109 0.748081 0
M  V30 2150 H 194.237 -4.38056 2.88457 0
M  V30 2151 H 195.711 -5.32394 1.45811 0
M  V30 2152 H 196.188 -4.39181 0.0409492 0
M  V30 2153 H 196.794 -3.92169 1.64571 0
M  V30 2154 N 195.109 -0.891671 -1.2995 0
M  V30 2155 C 196.52 -0.563104 -1.78006 0
M  V30 2156 C 196.871 0.920978 -1.73241 0
M  V30 2157 O 195.996 1.71987 -1.31337 0
M  V30 2158 C 196.591 -1.01539 -3.23226 0
M  V30 2159 C 195.15 -0.738124 -3.69092 0
M  V30 2160 C 194.297 -1.19461 -2.50249 0
M  V30 2161 H 197.248 -1.07522 -1.16725 0
M  V30 2162 H 197.269 -0.347217 -3.78912 0
M  V30 2163 H 196.781 -2.09555 -3.26662 0
M  V30 2164 H 194.882 0.329766 -3.71138 0
M  V30 2165 H 194.995 -1.33037 -4.60259 0
M  V30 2166 H 193.359 -0.613787 -2.47194 0
M  V30 2167 H 194.142 -2.28265 -2.56417 0
M  V30 2168 N 196.587 1.43421 -0.653314 0
M  V30 2169 C 197.833 2.02111 -0.166992 0
M  V30 2170 C 198.166 1.51423 1.21592 0
M  V30 2171 O 197.441 0.707389 1.8118 0
M  V30 2172 C 197.724 3.5966 -0.177948 0
M  V30 2173 C 197.577 4.20579 -1.59478 0
M  V30 2174 C 198.896 4.37413 0.4856 0
M  V30 2175 H 196.015 0.734374 -0.0621557 0
M  V30 2176 H 198.657 1.70717 -0.834016 0
M  V30 2177 H 196.807 3.86537 0.390032 0
M  V30 2178 H 198.479 4.04732 -2.21336 0
M  V30 2179 H 196.722 3.77226 -2.14204 0
M  V30 2180 H 197.393 5.29665 -1.5543 0
M  V30 2181 H 199.869 4.161 0.00234528 0
M  V30 2182 H 198.745 5.47075 0.447207 0
M  V30 2183 H 199.006 4.13672 1.55974 0
M  V30 2184 N 198.065 0.39524 1.52563 0
M  V30 2185 C 199.312 -0.185044 2.01653 0
M  V30 2186 C 199.64 -1.46317 1.28146 0
M  V30 2187 O 198.895 -1.9213 0.372074 0
M  V30 2188 C 199.194 -0.493444 3.53977 0
M  V30 2189 C 198.86 0.69384 4.4553 0
M  V30 2190 C 197.522 1.01954 4.70275 0
M  V30 2191 C 199.874 1.48785 4.99512 0
M  V30 2192 C 197.202 2.14069 5.46252 0
M  V30 2193 C 199.554 2.59965 5.76716 0
M  V30 2194 C 198.218 2.93037 5.99738 0
M  V30 2195 H 197.488 -0.0677123 0.7379 0
M  V30 2196 H 200.135 0.533807 1.8391 0
M  V30 2197 H 198.44 -1.29369 3.69825 0
M  V30 2198 H 200.137 -0.955163 3.89458 0
M  V30 2199 H 196.727 0.429987 4.26438 0
M  V30 2200 H 200.911 1.24946 4.80315 0
M  V30 2201 H 196.167 2.40056 5.62302 0
M  V30 2202 H 200.341 3.21887 6.17545 0
M  V30 2203 H 197.968 3.8003 6.58393 0
M  V30 2204 N 199.544 -1.57102 0.125237 0
M  V30 2205 C 200.792 -1.95021 -0.530198 0
M  V30 2206 C 201.113 -1.00982 -1.66816 0
M  V30 2207 O 200.383 -0.0672693 -1.95784 0
M  V30 2208 H 198.963 -0.720046 -0.198853 0
M  V30 2209 H 201.625 -1.93916 0.19564 0
M  V30 2210 H 200.721 -2.98211 -0.920681 0
M  V30 2211 N 201.022 0.148545 -1.56898 0
M  V30 2212 C 201.969 1.18345 -1.98149 0
M  V30 2213 C 202.939 1.42772 -0.848848 0
M  V30 2214 O 204.124 1.55132 -1.11079 0
M  V30 2215 C 201.264 2.51231 -2.36594 0
M  V30 2216 C 200.377 2.33991 -3.63142 0
M  V30 2217 C 199.512 3.59902 -3.90697 0
M  V30 2218 C 198.551 3.37692 -5.1052 0
M  V30 2219 N 197.688 4.5573 -5.34092 0
M  V30 2220 H 202.528 0.82467 -2.86362 0
M  V30 2221 H 200.065 0.395756 -1.41676 0
M  V30 2222 H 202.023 3.28713 -2.56912 0
M  V30 2223 H 200.653 2.85059 -1.51463 0
M  V30 2224 H 199.705 1.47572 -3.50609 0
M  V30 2225 H 201.017 2.13539 -4.5078 0
M  V30 2226 H 200.171 4.45813 -4.11505 0
M  V30 2227 H 198.91 3.83357 -3.01477 0
M  V30 2228 H 197.915 2.5017 -4.89587 0
M  V30 2229 H 199.14 3.15637 -6.0129 0
M  V30 2230 H 197.086 4.79361 -4.47827 0
M  V30 2231 H 197.003 4.38274 -6.15996 0
M  V30 2232 H 198.271 5.42858 -5.59397 0
M  V30 2233 N 202.5 1.5196 0.417844 0
M  V30 2234 C 203.748 1.65263 1.16329 0
M  V30 2235 C 204.069 0.380634 1.91249 0
M  V30 2236 O 203.339 -0.604214 1.86349 0
M  V30 2237 H 201.919 0.60912 0.432414 0
M  V30 2238 H 204.581 1.88969 0.477162 0
M  V30 2239 H 203.677 2.4896 1.88217 0
M  V30 2240 N 203.978 -0.674533 1.42435 0
M  V30 2241 C 205.224 -1.43671 1.43131 0
M  V30 2242 C 205.557 -1.94142 0.0476021 0
M  V30 2243 O 204.832 -1.70924 -0.928188 0
M  V30 2244 C 205.115 -2.63355 2.45594 0
M  V30 2245 C 204.968 -2.18514 3.93156 0
M  V30 2246 C 206.287 -3.65571 2.45043 0
M  V30 2247 H 203.406 -0.521077 0.521198 0
M  V30 2248 H 206.048 -0.766551 1.7385 0
M  V30 2249 H 204.198 -3.2053 2.19528 0
M  V30 2250 H 205.87 -1.66504 4.30202 0
M  V30 2251 H 204.113 -1.50086 4.07009 0
M  V30 2252 H 204.784 -3.04484 4.60428 0
M  V30 2253 H 207.26 -3.18113 2.68223 0
M  V30 2254 H 206.136 -4.46893 3.18713 0
M  V30 2255 H 206.397 -4.16716 1.47649 0
M  V30 2256 N 205.456 -1.28612 -0.910864 0
M  V30 2257 C 206.705 -1.15311 -1.65488 0
M  V30 2258 C 207.018 0.296999 -1.93332 0
M  V30 2259 O 208.224 0.551168 -2.65847 0
M  V30 2260 C 206.68 -2.01599 -2.98137 0
M  V30 2261 C 206.288 -3.51367 -2.7793 0
M  V30 2262 C 208.032 -1.96993 -3.76024 0
M  V30 2263 C 205.939 -4.29797 -4.06237 0
M  V30 2264 H 204.869 -0.42796 -0.620779 0
M  V30 2265 H 207.52 -1.53166 -1.01057 0
M  V30 2266 H 205.902 -1.56603 -3.63719 0
M  V30 2267 H 207.076 -4.0434 -2.21011 0
M  V30 2268 H 205.391 -3.57529 -2.13452 0
M  V30 2269 H 207.988 -2.52856 -4.71135 0
M  V30 2270 H 208.331 -0.94733 -4.05378 0
M  V30 2271 H 208.864 -2.39973 -3.17266 0
M  V30 2272 H 205.603 -5.32648 -3.82055 0
M  V30 2273 H 205.123 -3.81596 -4.62757 0
M  V30 2274 H 206.802 -4.39869 -4.74473 0
M  V30 2275 N 206.934 1.1197 -1.10907 0
M  V30 2276 C 208.164 1.8713 -0.875553 0
M  V30 2277 C 208.572 1.8016 0.577843 0
M  V30 2278 O 207.915 1.17699 1.41042 0
M  V30 2279 C 207.977 3.37005 -1.2517 0
M  V30 2280 C 207.641 3.67748 -2.71313 0
M  V30 2281 C 208.638 3.65698 -3.69542 0
M  V30 2282 C 206.323 3.96928 -3.07821 0
M  V30 2283 C 208.317 3.92395 -5.023 0
M  V30 2284 C 206.004 4.23284 -4.40765 0
M  V30 2285 C 207.002 4.21005 -5.37814 0
M  V30 2286 O 206.69 4.46704 -6.68364 0
M  V30 2287 H 206.422 0.598786 -0.313737 0
M  V30 2288 H 208.976 1.42568 -1.47863 0
M  V30 2289 H 207.206 3.82146 -0.591741 0
M  V30 2290 H 208.895 3.93519 -0.994877 0
M  V30 2291 H 209.661 3.43211 -3.42682 0
M  V30 2292 H 205.54 3.97841 -2.32902 0
M  V30 2293 H 209.084 3.90531 -5.78041 0
M  V30 2294 H 204.981 4.45246 -4.67361 0
M  V30 2295 H 205.749 4.64299 -6.74069 0
M  V30 2296 N 208.412 0.89855 1.29475 0
M  V30 2297 C 209.689 0.443416 1.90508 0
M  V30 2298 C 210.069 -1.07685 1.81569 0
M  V30 2299 O 209.417 -1.9182 1.24166 0
M  V30 2300 C 209.627 0.956708 3.35631 0
M  V30 2301 C 210.975 0.999728 4.12663 0
M  V30 2302 O 211.999 0.904299 3.4453 0
M  V30 2303 O 210.858 1.14289 5.34416 0
M  V30 2304 H 207.952 0.138025 0.815401 0
M  V30 2305 H 210.498 0.98834 1.37949 0
M  V30 2306 H 209.27 2.00067 3.36287 0
M  V30 2307 H 208.893 0.391728 3.95666 0
M  V30 2308 N 209.89 -1.43072 0.660911 0
M  V30 2309 C 211.13 -2.03596 0.181146 0
M  V30 2310 C 211.494 -1.51057 -1.18515 0
M  V30 2311 O 212.695 -2.03275 -1.75877 0
M  V30 2312 C 210.966 -3.56845 0.19911 0
M  V30 2313 S 212.525 -4.38289 -0.211684 0
M  V30 2314 H 209.343 -0.706954 0.0757479 0
M  V30 2315 H 211.945 -1.75027 0.870965 0
M  V30 2316 H 210.649 -3.92583 1.1961 0
M  V30 2317 H 210.18 -3.90067 -0.510996 0
M  V30 2318 H 212.195 -4.74583 -1.44863 0
M  V30 2319 N 211.368 -0.403325 -1.52352 0
M  V30 2320 C 212.779 0.0675782 -1.86578 0
M  V30 2321 C 213.13 1.44941 -1.32236 0
M  V30 2322 O 212.255 2.06112 -0.659307 0
M  V30 2323 C 212.85 0.129404 -3.38553 0
M  V30 2324 C 211.409 0.544629 -3.72439 0
M  V30 2325 C 210.556 -0.284551 -2.75836 0
M  V30 2326 H 213.507 -0.620631 -1.46061 0
M  V30 2327 H 213.528 0.94581 -3.68558 0
M  V30 2328 H 213.04 -0.87645 -3.78074 0
M  V30 2329 H 211.141 1.55734 -3.38493 0
M  V30 2330 H 211.254 0.293046 -4.78203 0
M  V30 2331 H 209.618 0.252258 -2.53448 0
M  V30 2332 H 210.401 -1.28865 -3.18196 0
M  V30 2333 N 212.846 1.57033 -0.133567 0
M  V30 2334 C 213.794 2.17348 0.828412 0
M  V30 2335 C 214.788 1.12671 1.26498 0
M  V30 2336 O 215.994 1.30947 1.23502 0
M  V30 2337 H 212.369 0.695775 0.285309 0
M  V30 2338 H 214.34 2.96935 0.295372 0
M  V30 2339 C 213.089 2.79893 2.06289 0
M  V30 2340 H 212.412 3.60147 1.73592 0
M  V30 2341 H 213.852 3.25615 2.71572 0
M  V30 2342 C 212.311 1.77713 2.86216 0
M  V30 2343 O 212.841 1.23937 3.82103 0
M  V30 2344 N 211.047 1.47321 2.50489 0
M  V30 2345 H 210.594 1.91243 1.7258 0
M  V30 2346 H 210.552 0.79199 3.04261 0
M  V30 2347 N 214.325 -0.140222 1.56975 0
M  V30 2348 C 215.275 -1.17827 1.95194 0
M  V30 2349 C 216.259 -1.38195 0.824075 0
M  V30 2350 O 217.451 -1.39643 1.0876 0
M  V30 2351 C 214.58 -2.51024 2.34184 0
M  V30 2352 C 213.666 -2.3422 3.53556 0
M  V30 2353 N 214.057 -1.87185 4.69889 0
M  V30 2354 C 212.355 -2.64949 3.58773 0
M  V30 2355 C 213.056 -1.83586 5.5197 0
M  V30 2356 N 212.032 -2.2715 4.93866 0
M  V30 2357 H 215.834 -0.806817 2.82609 0
M  V30 2358 H 213.348 -0.348208 1.58623 0
M  V30 2359 H 215.345 -3.26074 2.59772 0
M  V30 2360 H 214.005 -2.88945 1.48124 0
M  V30 2361 H 215.016 -1.57048 4.93514 0
M  V30 2362 H 211.693 -3.067 2.8327 0
M  V30 2363 H 213.083 -1.48655 6.55249 0
M  V30 2364 N 215.803 -1.52179 -0.40978 0
M  V30 2365 C 217.219 -1.40968 -0.74835 0
M  V30 2366 C 217.419 -0.513657 -1.94843 0
M  V30 2367 O 216.475 0.0208026 -2.52491 0
M  V30 2368 C 217.788 -2.83483 -1.0029 0
M  V30 2369 C 219.336 -2.92821 -1.10565 0
M  V30 2370 C 219.811 -4.36303 -1.39296 0
M  V30 2371 N 221.302 -4.39535 -1.46162 0
M  V30 2372 C 222.037 -5.47614 -1.70018 0
M  V30 2373 N 221.533 -6.65812 -1.91483 0
M  V30 2374 N 223.326 -5.35129 -1.72027 0
M  V30 2375 H 215.477 -2.0897 0.380186 0
M  V30 2376 H 217.74 -0.94185 0.107805 0
M  V30 2377 H 217.446 -3.51168 -0.193461 0
M  V30 2378 H 217.32 -3.24487 -1.92323 0
M  V30 2379 H 219.707 -2.25318 -1.90568 0
M  V30 2380 H 219.788 -2.55276 -0.16369 0
M  V30 2381 H 219.432 -5.04366 -0.598109 0
M  V30 2382 H 219.362 -4.71385 -2.34743 0
M  V30 2383 H 221.853 -3.54332 -1.31367 0
M  V30 2384 H 222.166 -7.43964 -2.09134 0
M  V30 2385 H 220.511 -6.68879 -1.88749 0
M  V30 2386 H 223.702 -4.41764 -1.54796 0
M  V30 2387 H 223.875 -6.19433 -1.9028 0
M  V30 2388 N 217.281 0.66697 -1.42791 0
M  V30 2389 C 218.211 1.79218 -1.49677 0
M  V30 2390 C 219.192 1.66405 -0.352623 0
M  V30 2391 O 220.377 1.85708 -0.567993 0
M  V30 2392 C 217.507 3.17565 -1.40605 0
M  V30 2393 C 216.461 3.45124 -2.53127 0
M  V30 2394 C 215.787 4.83127 -2.29112 0
M  V30 2395 C 217.087 3.41236 -3.95418 0
M  V30 2396 H 218.781 1.73713 -2.43853 0
M  V30 2397 H 216.327 0.83432 -1.17367 0
M  V30 2398 H 218.28 3.96022 -1.44029 0
M  V30 2399 H 217.004 3.23767 -0.429271 0
M  V30 2400 H 215.663 2.69031 -2.49034 0
M  V30 2401 H 215.311 4.85988 -1.29709 0
M  V30 2402 H 215.011 5.02528 -3.04531 0
M  V30 2403 H 216.535 5.63859 -2.34297 0
M  V30 2404 H 217.949 4.09651 -4.01073 0
M  V30 2405 H 216.346 3.72173 -4.70752 0
M  V30 2406 H 217.416 2.39665 -4.21532 0
M  V30 2407 N 218.759 1.29093 0.90403 0
M  V30 2408 C 219.692 1.08176 2.00931 0
M  V30 2409 C 220.67 -0.005083 1.62599 0
M  V30 2410 O 221.854 0.144765 1.87943 0
M  V30 2411 C 218.981 0.645897 3.32484 0
M  V30 2412 C 218.027 1.73081 3.89801 0
M  V30 2413 S 218.86 3.32905 4.19446 0
M  V30 2414 C 220.016 2.91176 5.54046 0
M  V30 2415 H 220.249 2.01752 2.18365 0
M  V30 2416 H 217.782 1.13191 1.0501 0
M  V30 2417 H 219.74 0.401131 4.08535 0
M  V30 2418 H 218.401 -0.270188 3.12936 0
M  V30 2419 H 217.594 1.37768 4.84805 0
M  V30 2420 H 217.196 1.92888 3.20422 0
M  V30 2421 H 219.488 2.37952 6.34338 0
M  V30 2422 H 220.431 3.85014 5.94281 0
M  V30 2423 H 220.839 2.296 5.15698 0
M  V30 2424 N 220.237 -1.11381 1.11499 0
M  V30 2425 C 221.147 -2.21019 0.786628 0
M  V30 2426 C 222.163 -1.72597 -0.220507 0
M  V30 2427 O 223.339 -2.01321 -0.0565251 0
M  V30 2428 C 220.404 -3.459 0.235333 0
M  V30 2429 C 219.465 -4.09107 1.30115 0
M  V30 2430 C 218.698 -5.28027 0.776068 0
M  V30 2431 O 218.921 -5.6904 -0.393661 0
M  V30 2432 O 217.855 -5.81835 1.54114 0
M  V30 2433 H 221.681 -2.51521 1.70209 0
M  V30 2434 H 219.266 -1.19928 0.890928 0
M  V30 2435 H 221.148 -4.21346 -0.067715 0
M  V30 2436 H 219.823 -3.17049 -0.652828 0
M  V30 2437 H 218.73 -3.35391 1.65722 0
M  V30 2438 H 220.063 -4.42139 2.16273 0
M  V30 2439 N 221.715 -0.905404 -1.28997 0
M  V30 2440 C 222.647 -0.344748 -2.26592 0
M  V30 2441 C 223.66 0.512135 -1.54535 0
M  V30 2442 O 224.849 0.328368 -1.75454 0
M  V30 2443 C 221.949 0.526587 -3.34784 0
M  V30 2444 C 221.122 -0.305871 -4.36329 0
M  V30 2445 C 220.181 0.499209 -5.23827 0
M  V30 2446 O 219.207 -0.0853004 -5.69136 0
M  V30 2447 N 220.409 1.80408 -5.51755 0
M  V30 2448 H 223.174 -1.18359 -2.75338 0
M  V30 2449 H 220.735 -0.770481 -1.42391 0
M  V30 2450 H 222.727 1.07171 -3.90252 0
M  V30 2451 H 221.297 1.26613 -2.85811 0
M  V30 2452 H 220.517 -1.0324 -3.80441 0
M  V30 2453 H 221.805 -0.875773 -5.01206 0
M  V30 2454 H 221.203 2.3016 -5.16762 0
M  V30 2455 H 219.76 2.29621 -6.10014 0
M  V30 2456 N 223.193 1.4272 -0.668489 0
M  V30 2457 C 224.14 2.30796 0.0137489 0
M  V30 2458 C 225.11 1.4561 0.799177 0
M  V30 2459 O 226.295 1.74453 0.772702 0
M  V30 2460 C 223.435 3.31377 0.963507 0
M  V30 2461 C 222.548 4.31655 0.172569 0
M  V30 2462 C 221.683 5.19312 1.1175 0
M  V30 2463 C 220.722 6.11274 0.317886 0
M  V30 2464 N 219.859 6.91504 1.2152 0
M  V30 2465 H 224.699 2.88585 -0.743161 0
M  V30 2466 H 222.236 1.42154 -0.378226 0
M  V30 2467 H 224.194 3.88214 1.52792 0
M  V30 2468 H 222.824 2.75202 1.68712 0
M  V30 2469 H 221.876 3.76988 -0.508374 0
M  V30 2470 H 223.188 4.96779 -0.448527 0
M  V30 2471 H 222.342 5.80851 1.75206 0
M  V30 2472 H 221.081 4.5435 1.77249 0
M  V30 2473 H 220.086 5.48809 -0.329918 0
M  V30 2474 H 221.311 6.78283 -0.332917 0
M  V30 2475 H 219.257 6.29176 1.85671 0
M  V30 2476 H 219.174 7.53209 0.649036 0
M  V30 2477 H 220.442 7.57535 1.83742 0
M  V30 2478 N 224.671 0.411399 1.52136 0
M  V30 2479 C 225.618 -0.412975 2.27075 0
M  V30 2480 C 226.588 -1.03912 1.29582 0
M  V30 2481 O 227.773 -1.06296 1.58448 0
M  V30 2482 C 224.913 -1.52247 3.09701 0
M  V30 2483 C 224.026 -0.917021 4.22155 0
M  V30 2484 C 223.161 -1.9994 4.92135 0
M  V30 2485 C 222.2 -1.37101 5.96548 0
M  V30 2486 N 221.337 -2.39364 6.60038 0
M  V30 2487 H 226.177 0.232499 2.97092 0
M  V30 2488 H 223.714 0.126496 1.46555 0
M  V30 2489 H 225.672 -2.17674 3.55913 0
M  V30 2490 H 224.302 -2.13794 2.41851 0
M  V30 2491 H 223.354 -0.151742 3.80097 0
M  V30 2492 H 224.666 -0.418006 4.97045 0
M  V30 2493 H 223.82 -2.73088 5.41763 0
M  V30 2494 H 222.559 -2.53208 4.16818 0
M  V30 2495 H 221.564 -0.624873 5.46237 0
M  V30 2496 H 222.789 -0.845998 6.7381 0
M  V30 2497 H 220.735 -2.91759 5.87548 0
M  V30 2498 H 220.652 -1.9428 7.3061 0
M  V30 2499 H 221.92 -3.12074 7.14304 0
M  V30 2500 N 226.149 -1.5696 0.141893 0
M  V30 2501 C 227.396 -1.9596 -0.510492 0
M  V30 2502 C 227.724 -1.02648 -1.65208 0
M  V30 2503 O 226.979 -0.0546947 -1.95624 0
M  V30 2504 C 227.278 -3.41242 -1.06249 0
M  V30 2505 C 226.944 -4.50882 -0.0398791 0
M  V30 2506 C 225.606 -4.80595 0.241247 0
M  V30 2507 C 227.958 -5.17058 0.65578 0
M  V30 2508 C 225.286 -5.73792 1.22393 0
M  V30 2509 C 227.638 -6.11313 1.62724 0
M  V30 2510 C 226.302 -6.39407 1.91612 0
M  V30 2511 H 225.572 -0.717068 -0.186802 0
M  V30 2512 H 228.219 -1.90142 0.227643 0
M  V30 2513 H 226.524 -3.43866 -1.87785 0
M  V30 2514 H 228.221 -3.68742 -1.57576 0
M  V30 2515 H 224.811 -4.27754 -0.269174 0
M  V30 2516 H 228.995 -4.94239 0.451779 0
M  V30 2517 H 224.251 -5.93853 1.45424 0
M  V30 2518 H 228.425 -6.61668 2.17183 0
M  V30 2519 H 226.052 -7.11427 2.6791 0
M  V30 2520 N 227.627 0.131896 -1.57047 0
M  V30 2521 C 228.873 0.843179 -1.84441 0
M  V30 2522 C 229.206 1.80129 -0.725749 0
M  V30 2523 O 228.481 1.92624 0.269469 0
M  V30 2524 C 228.764 1.60442 -3.22382 0
M  V30 2525 C 228.617 0.666782 -4.4483 0
M  V30 2526 C 229.936 2.56354 -3.5773 0
M  V30 2527 H 227.055 0.305081 -0.670891 0
M  V30 2528 H 229.697 0.107839 -1.89694 0
M  V30 2529 H 227.847 2.23128 -3.18035 0
M  V30 2530 H 229.519 0.0497646 -4.61273 0
M  V30 2531 H 227.762 -0.022609 -4.33794 0
M  V30 2532 H 228.433 1.23579 -5.37989 0
M  V30 2533 H 230.909 2.0378 -3.62785 0
M  V30 2534 H 229.785 3.06657 -4.5525 0
M  V30 2535 H 230.046 3.38419 -2.84473 0
M  V30 2536 N 229.106 1.52395 0.401703 0
M  V30 2537 C 230.053 1.76268 1.48991 0
M  V30 2538 C 231.023 0.605386 1.54675 0
M  V30 2539 O 232.208 0.843742 1.7113 0
M  V30 2540 C 229.348 1.92592 2.86361 0
M  V30 2541 C 228.461 3.20259 2.89928 0
M  V30 2542 C 227.596 3.26972 4.18644 0
M  V30 2543 C 226.635 4.48812 4.16214 0
M  V30 2544 N 225.772 4.52877 5.36514 0
M  V30 2545 H 230.612 2.6914 1.27935 0
M  V30 2546 H 228.149 1.33355 0.620871 0
M  V30 2547 H 230.107 2.0004 3.66115 0
M  V30 2548 H 228.737 1.03093 3.05895 0
M  V30 2549 H 227.789 3.21945 2.02621 0
M  V30 2550 H 229.101 4.10056 2.83999 0
M  V30 2551 H 228.255 3.33533 5.06794 0
M  V30 2552 H 226.994 2.35126 4.27278 0
M  V30 2553 H 225.999 4.4239 3.26453 0
M  V30 2554 H 227.224 5.41961 4.09213 0
M  V30 2555 H 225.17 3.63917 5.45802 0
M  V30 2556 H 225.087 5.36529 5.32609 0
M  V30 2557 H 226.355 4.63676 6.26597 0
M  V30 2558 N 230.584 -0.659388 1.43143 0
M  V30 2559 C 231.832 -1.41654 1.44147 0
M  V30 2560 C 232.153 -1.94893 0.0645739 0
M  V30 2561 O 231.423 -1.74044 -0.899198 0
M  V30 2562 H 230.003 -0.525708 0.530697 0
M  V30 2563 H 232.665 -0.778097 1.78694 0
M  V30 2564 H 231.761 -2.26195 2.1504 0
M  V30 2565 N 232.062 -1.29571 -0.897171 0
M  V30 2566 C 233.025 -1.14913 -1.98312 0
M  V30 2567 C 234.025 -0.0838629 -1.60581 0
M  V30 2568 O 235.215 -0.331006 -1.71026 0
M  V30 2569 C 232.347 -0.757835 -3.3237 0
M  V30 2570 H 233.54 -2.11377 -2.12743 0
M  V30 2571 H 231.093 -1.12793 -1.08201 0
M  V30 2572 H 231.828 0.206837 -3.2364 0
M  V30 2573 H 231.613 -1.52755 -3.61121 0
M  V30 2574 H 233.103 -0.678408 -4.12053 0
M  V30 2575 N 233.54 1.10788 -1.12088 0
M  V30 2576 C 234.47 2.19083 -0.807755 0
M  V30 2577 C 235.451 1.6858 0.226859 0
M  V30 2578 O 236.636 1.93997 0.0888475 0
M  V30 2579 C 233.766 3.46344 -0.257576 0
M  V30 2580 C 232.72 4.101 -1.22483 0
M  V30 2581 C 232.046 5.32016 -0.535052 0
M  V30 2582 C 233.346 4.54236 -2.57811 0
M  V30 2583 H 235.04 2.45534 -1.71328 0
M  V30 2584 H 232.586 1.1801 -0.825205 0
M  V30 2585 H 234.539 4.21392 -0.0262679 0
M  V30 2586 H 233.263 3.19373 0.683278 0
M  V30 2587 H 231.922 3.37054 -1.44189 0
M  V30 2588 H 231.57 5.01319 0.410827 0
M  V30 2589 H 231.27 5.75625 -1.18024 0
M  V30 2590 H 232.794 6.09799 -0.312695 0
M  V30 2591 H 234.208 5.20575 -2.40155 0
M  V30 2592 H 232.605 5.08682 -3.18375 0
M  V30 2593 H 233.675 3.6734 -3.16528 0
M  V30 2594 N 235.018 0.912232 1.28515 0
M  V30 2595 C 236.246 0.560416 1.99166 0
M  V30 2596 C 236.661 -0.857927 1.68182 0
M  V30 2597 O 236.018 -1.56805 0.933733 0
M  V30 2598 C 236.069 0.758142 3.53461 0
M  V30 2599 O 235.79 2.12067 3.83352 0
M  V30 2600 C 237.291 0.412954 4.41372 0
M  V30 2601 H 234.511 0.213805 0.636026 0
M  V30 2602 H 237.055 1.22502 1.63749 0
M  V30 2603 H 235.21 0.140556 3.87145 0
M  V30 2604 H 235.624 2.15923 4.77993 0
M  V30 2605 H 237.098 0.60208 5.48707 0
M  V30 2606 H 237.575 -0.65073 4.34353 0
M  V30 2607 H 238.181 1.00802 4.13182 0
M  V30 2608 N 236.496 -1.42363 0.676048 0
M  V30 2609 C 237.443 -2.308 -0.00150904 0
M  V30 2610 C 238.413 -1.46032 -0.791444 0
M  V30 2611 O 239.598 -1.74861 -0.76344 0
M  V30 2612 C 236.738 -3.31883 -0.945919 0
M  V30 2613 C 235.851 -4.31741 -0.149675 0
M  V30 2614 C 234.986 -5.19898 -1.08995 0
M  V30 2615 C 234.025 -6.11434 -0.285465 0
M  V30 2616 N 233.162 -6.92138 -1.17851 0
M  V30 2617 H 238.002 -2.88187 0.758455 0
M  V30 2618 H 235.539 -1.41952 0.38576 0
M  V30 2619 H 237.497 -3.89019 -1.50731 0
M  V30 2620 H 236.127 -2.76093 -1.6725 0
M  V30 2621 H 235.179 -3.76713 0.528359 0
M  V30 2622 H 236.491 -4.96534 0.474866 0
M  V30 2623 H 235.645 -5.81772 -1.72123 0
M  V30 2624 H 234.384 -4.55284 -1.74837 0
M  V30 2625 H 233.389 -5.48627 0.359018 0
M  V30 2626 H 234.614 -6.78097 0.368883 0
M  V30 2627 H 232.56 -6.30152 -1.82332 0
M  V30 2628 H 232.477 -7.53542 -0.609082 0
M  V30 2629 H 233.745 -7.58499 -1.79722 0
M  V30 2630 N 237.974 -0.419461 -1.51915 0
M  V30 2631 C 238.884 0.407528 -2.31033 0
M  V30 2632 C 239.9 1.04413 -1.3919 0
M  V30 2633 O 241.076 1.0434 -1.72265 0
M  V30 2634 C 238.141 1.50365 -3.12396 0
M  V30 2635 C 237.202 0.889029 -4.19994 0
M  V30 2636 C 236.435 1.93291 -4.97468 0
M  V30 2637 O 236.658 3.15259 -4.75361 0
M  V30 2638 O 235.592 1.53339 -5.8204 0
M  V30 2639 H 239.418 -0.237865 -3.02767 0
M  V30 2640 H 237.003 -0.182413 -1.48282 0
M  V30 2641 H 238.885 2.13975 -3.63032 0
M  V30 2642 H 237.56 2.13345 -2.43445 0
M  V30 2643 H 236.467 0.215353 -3.7348 0
M  V30 2644 H 237.8 0.302991 -4.91267 0
M  V30 2645 N 239.452 1.56882 -0.150215 0
M  V30 2646 C 240.415 2.1573 0.774157 0
M  V30 2647 C 241.415 1.0999 1.17298 0
M  V30 2648 O 242.605 1.35613 1.09338 0
M  V30 2649 C 239.737 2.72302 2.05096 0
M  V30 2650 H 240.93 2.98752 0.262201 0
M  V30 2651 H 238.483 1.55985 0.099248 0
M  V30 2652 H 239.218 1.92956 2.6065 0
M  V30 2653 H 239.003 3.49665 1.77416 0
M  V30 2654 H 240.493 3.17632 2.71109 0
M  V30 2655 N 240.93 -0.123565 1.57115 0
M  V30 2656 C 242.177 -0.832153 1.84612 0
M  V30 2657 C 242.505 -1.80093 0.734627 0
M  V30 2658 O 241.76 -1.93766 -0.27442 0
M  V30 2659 C 242.059 -1.62016 3.18568 0
M  V30 2660 C 241.725 -0.796084 4.43817 0
M  V30 2661 C 240.387 -0.568816 4.77826 0
M  V30 2662 C 242.739 -0.221364 5.2073 0
M  V30 2663 C 240.067 0.243499 5.86194 0
M  V30 2664 C 242.419 0.578117 6.29953 0
M  V30 2665 C 241.083 0.815744 6.62497 0
M  V30 2666 H 240.353 -0.304507 0.675542 0
M  V30 2667 H 243 -0.0947248 1.91266 0
M  V30 2668 H 241.305 -2.42837 3.0747 0
M  V30 2669 H 243.002 -2.17231 3.37064 0
M  V30 2670 H 239.592 -0.983307 4.17168 0
M  V30 2671 H 243.776 -0.384173 4.94811 0
M  V30 2672 H 239.032 0.436871 6.09837 0
M  V30 2673 H 243.206 1.03046 6.88734 0
M  V30 2674 H 240.833 1.44701 7.46301 0
M  V30 2675 N 242.408 -1.52605 -0.393616 0
M  V30 2676 C 243.654 -1.67672 -1.14079 0
M  V30 2677 C 243.987 -0.413121 -1.89755 0
M  V30 2678 O 243.262 0.588952 -1.85369 0
M  V30 2679 C 243.545 -2.9088 -2.12276 0
M  V30 2680 C 243.398 -4.27329 -1.40394 0
M  V30 2681 C 244.717 -3.09628 -3.12759 0
M  V30 2682 H 241.836 -0.610168 -0.413356 0
M  V30 2683 H 244.478 -1.85193 -0.424696 0
M  V30 2684 H 242.628 -2.76073 -2.73342 0
M  V30 2685 H 244.3 -4.53894 -0.82327 0
M  V30 2686 H 242.543 -4.2802 -0.705801 0
M  V30 2687 H 243.214 -5.09615 -2.12123 0
M  V30 2688 H 245.69 -3.23436 -2.61779 0
M  V30 2689 H 244.566 -3.97322 -3.78717 0
M  V30 2690 H 244.827 -2.23637 -3.81365 0
M  V30 2691 N 243.887 0.651787 -1.4349 0
M  V30 2692 C 245.303 0.96762 -1.26922 0
M  V30 2693 C 245.503 2.00602 -0.189982 0
M  V30 2694 O 244.559 2.48793 0.431107 0
M  V30 2695 C 245.872 1.45052 -2.63401 0
M  V30 2696 C 247.42 1.5671 -2.70945 0
M  V30 2697 C 247.895 2.0839 -4.07845 0
M  V30 2698 N 249.386 2.1569 -4.09917 0
M  V30 2699 C 250.121 2.56804 -5.12679 0
M  V30 2700 N 249.617 2.97203 -6.25813 0
M  V30 2701 N 251.41 2.56756 -5.00033 0
M  V30 2702 H 243.561 -0.0353158 -2.12371 0
M  V30 2703 H 245.824 0.0467858 -0.946845 0
M  V30 2704 H 245.53 0.761926 -3.43348 0
M  V30 2705 H 245.404 2.42529 -2.88894 0
M  V30 2706 H 247.791 2.2467 -1.9133 0
M  V30 2707 H 247.872 0.57662 -2.49216 0
M  V30 2708 H 247.516 1.41031 -4.87927 0
M  V30 2709 H 247.446 3.08271 -4.26938 0
M  V30 2710 H 249.937 1.87237 -3.28254 0
M  V30 2711 H 250.25 3.27328 -7.00055 0
M  V30 2712 H 248.595 2.95004 -6.29283 0
M  V30 2713 H 251.786 2.24572 -4.10713 0
M  V30 2714 H 251.959 2.88475 -5.80247 0
M  V30 2715 N 245.365 1.30045 0.890287 0
M  V30 2716 C 246.595 1.21296 1.67245 0
M  V30 2717 C 247.003 -0.227471 1.87828 0
M  V30 2718 O 246.346 -1.16296 1.422 0
M  V30 2719 C 246.408 1.86519 3.07329 0
M  V30 2720 C 246.072 3.35837 3.09939 0
M  V30 2721 C 247.069 4.31915 2.89389 0
M  V30 2722 C 244.754 3.77196 3.31706 0
M  V30 2723 C 246.748 5.67325 2.90552 0
M  V30 2724 C 244.435 5.12725 3.32499 0
M  V30 2725 C 245.433 6.076 3.11947 0
M  V30 2726 O 245.121 7.40655 3.12547 0
M  V30 2727 H 244.853 0.4211 0.528821 0
M  V30 2728 H 247.407 1.72111 1.12103 0
M  V30 2729 H 245.637 1.30228 3.64112 0
M  V30 2730 H 247.326 1.71963 3.67673 0
M  V30 2731 H 248.092 4.01294 2.72375 0
M  V30 2732 H 243.971 3.03796 3.4674 0
M  V30 2733 H 247.515 6.41354 2.74429 0
M  V30 2734 H 243.412 5.42988 3.49047 0
M  V30 2735 H 244.18 7.49577 3.28749 0
M  V30 2736 N 246.843 -1.10192 1.12674 0
M  V30 2737 C 248.089 -1.82475 0.884915 0
M  V30 2738 C 248.422 -1.85093 -0.58773 0
M  V30 2739 O 247.697 -1.3134 -1.43457 0
M  V30 2740 C 247.98 -3.29018 1.46353 0
M  V30 2741 C 247.833 -3.34718 3.00473 0
M  V30 2742 C 249.152 -4.25473 1.12519 0
M  V30 2743 H 246.271 -0.662492 0.322915 0
M  V30 2744 H 248.913 -1.2913 1.39375 0
M  V30 2745 H 247.063 -3.74576 1.03077 0
M  V30 2746 H 248.735 -2.97622 3.52447 0
M  V30 2747 H 246.978 -2.74541 3.35872 0
M  V30 2748 H 247.649 -4.37918 3.36053 0
M  V30 2749 H 250.125 -3.88161 1.499 0
M  V30 2750 H 249.001 -5.26365 1.55663 0
M  V30 2751 H 249.262 -4.42084 0.0377407 0
M  V30 2752 N 248.321 -0.919034 -1.28029 0
M  V30 2753 C 249.732 -0.600735 -1.76771 0
M  V30 2754 C 250.083 0.884024 -1.75156 0
M  V30 2755 O 249.208 1.69163 -1.34956 0
M  V30 2756 C 249.803 -1.08372 -3.21 0
M  V30 2757 C 248.362 -0.816248 -3.67443 0
M  V30 2758 C 247.509 -1.24742 -2.47658 0
M  V30 2759 H 250.46 -1.09974 -1.14418 0
M  V30 2760 H 250.481 -0.427512 -3.78091 0
M  V30 2761 H 249.993 -2.16437 -3.22144 0
M  V30 2762 H 248.094 0.250968 -3.71754 0
M  V30 2763 H 248.207 -1.4277 -4.57333 0
M  V30 2764 H 246.571 -0.666083 -2.45836 0
M  V30 2765 H 247.354 -2.33653 -2.51518 0
M  V30 2766 N 249.799 1.42003 -0.683588 0
M  V30 2767 C 250.729 2.33487 -0.024866 0
M  V30 2768 C 251.71 1.51163 0.779975 0
M  V30 2769 O 252.895 1.79739 0.735362 0
M  V30 2770 C 250.025 3.3487 0.920836 0
M  V30 2771 C 248.979 4.27414 0.223958 0
M  V30 2772 C 248.305 5.19074 1.2832 0
M  V30 2773 C 249.605 5.14445 -0.90242 0
M  V30 2774 H 251.299 2.88819 -0.788921 0
M  V30 2775 H 248.845 1.38873 -0.38083 0
M  V30 2776 H 250.798 3.97787 1.39081 0
M  V30 2777 H 249.522 2.77861 1.71642 0
M  V30 2778 H 248.181 3.65904 -0.225864 0
M  V30 2779 H 247.829 4.58387 2.071 0
M  V30 2780 H 247.529 5.81822 0.821995 0
M  V30 2781 H 249.053 5.84867 1.75392 0
M  V30 2782 H 250.467 5.70998 -0.513272 0
M  V30 2783 H 248.864 5.86072 -1.28997 0
M  V30 2784 H 249.934 4.52322 -1.74737 0
M  V30 2785 N 251.277 0.427512 1.51691 0
M  V30 2786 C 252.526 -0.143679 2.01188 0
M  V30 2787 C 252.839 -1.44642 1.31674 0
M  V30 2788 O 254.045 -2.09997 1.72086 0
M  V30 2789 C 252.501 -0.306602 3.58592 0
M  V30 2790 C 252.109 0.985125 4.37035 0
M  V30 2791 C 253.853 -0.832091 4.16265 0
M  V30 2792 C 251.76 0.788382 5.86122 0
M  V30 2793 H 250.69 -0.0574701 0.751807 0
M  V30 2794 H 253.341 0.555772 1.74881 0
M  V30 2795 H 251.723 -1.06882 3.81303 0
M  V30 2796 H 252.897 1.75492 4.26074 0
M  V30 2797 H 251.212 1.4384 3.90767 0
M  V30 2798 H 253.809 -0.995617 5.25349 0
M  V30 2799 H 254.152 -1.81186 3.74803 0
M  V30 2800 H 254.685 -0.128444 3.97593 0
M  V30 2801 H 251.424 1.74025 6.31978 0
M  V30 2802 H 250.944 0.0582143 5.99772 0
M  V30 2803 H 252.623 0.437722 6.45518 0
M  V30 2804 N 252.755 -1.56801 0.158532 0
M  V30 2805 C 253.718 -2.16138 -0.762705 0
M  V30 2806 C 254.718 -1.1061 -1.16713 0
M  V30 2807 O 255.908 -1.36191 -1.08617 0
M  V30 2808 C 253.04 -2.73386 -2.03649 0
M  V30 2809 H 254.233 -2.98886 -0.246354 0
M  V30 2810 H 251.786 -1.56035 -0.0909744 0
M  V30 2811 H 252.521 -1.94335 -2.59623 0
M  V30 2812 H 252.306 -3.50601 -1.75559 0
M  V30 2813 H 253.796 -3.19065 -2.6942 0
M  V30 2814 N 254.233 0.115231 -1.57178 0
M  V30 2815 C 255.143 1.15994 -2.03918 0
M  V30 2816 C 256.159 1.45103 -0.960268 0
M  V30 2817 O 257.335 1.56144 -1.27204 0
M  V30 2818 C 254.4 2.46568 -2.43732 0
M  V30 2819 C 253.461 2.24822 -3.65723 0
M  V30 2820 C 252.694 3.4917 -4.03629 0
M  V30 2821 O 252.917 4.56623 -3.41835 0
M  V30 2822 O 251.851 3.39949 -4.96708 0
M  V30 2823 H 255.677 0.793019 -2.93164 0
M  V30 2824 H 253.262 0.3263 -1.45793 0
M  V30 2825 H 255.144 3.23492 -2.70057 0
M  V30 2826 H 253.819 2.82726 -1.57631 0
M  V30 2827 H 252.726 1.45744 -3.44542 0
M  V30 2828 H 254.059 1.93566 -4.52541 0
M  V30 2829 N 255.711 1.52812 0.385517 0
M  V30 2830 C 256.621 1.80766 1.49535 0
M  V30 2831 C 257.637 0.694651 1.59532 0
M  V30 2832 O 258.813 0.982611 1.75803 0
M  V30 2833 C 255.878 1.97381 2.85029 0
M  V30 2834 C 254.939 3.21295 2.84724 0
M  V30 2835 C 254.172 3.37108 4.13756 0
M  V30 2836 O 254.395 2.5765 5.08893 0
M  V30 2837 O 253.329 4.30378 4.20783 0
M  V30 2838 H 257.155 2.75015 1.28842 0
M  V30 2839 H 254.74 1.37946 0.573697 0
M  V30 2840 H 256.622 2.09996 3.65349 0
M  V30 2841 H 255.297 1.06322 3.05741 0
M  V30 2842 H 254.204 3.1412 2.03174 0
M  V30 2843 H 255.537 4.12212 2.68965 0
M  V30 2844 N 257.189 -0.644168 1.43834 0
M  V30 2845 C 258.438 -1.39985 1.45214 0
M  V30 2846 C 258.751 -1.95421 0.0835494 0
M  V30 2847 O 259.957 -2.71488 -0.0251748 0
M  V30 2848 C 258.413 -2.53384 2.55587 0
M  V30 2849 C 258.021 -2.04517 3.98594 0
M  V30 2850 C 259.765 -3.30685 2.66172 0
M  V30 2851 C 257.672 -3.1518 5.00416 0
M  V30 2852 H 256.602 -0.526005 0.540218 0
M  V30 2853 H 259.253 -0.694367 1.69855 0
M  V30 2854 H 257.635 -3.26446 2.24163 0
M  V30 2855 H 258.809 -1.38405 4.39523 0
M  V30 2856 H 257.124 -1.40068 3.92135 0
M  V30 2857 H 259.721 -4.13158 3.39418 0
M  V30 2858 H 260.064 -3.79312 1.71546 0
M  V30 2859 H 260.597 -2.64708 2.96942 0
M  V30 2860 H 257.336 -2.71511 5.96625 0
M  V30 2861 H 256.856 -3.79974 4.64091 0
M  V30 2862 H 258.535 -3.80166 5.23529 0
M  V30 2863 N 258.668 -1.30515 -0.883378 0
M  V30 2864 C 259.898 -1.22182 -1.66599 0
M  V30 2865 C 260.306 0.217507 -1.87946 0
M  V30 2866 O 259.649 1.1554 -1.42815 0
M  V30 2867 C 259.711 -1.88146 -3.06335 0
M  V30 2868 C 259.375 -3.37476 -3.08154 0
M  V30 2869 C 260.372 -4.33443 -2.87094 0
M  V30 2870 C 258.057 -3.7895 -3.29701 0
M  V30 2871 C 260.051 -5.68858 -2.8754 0
M  V30 2872 C 257.738 -5.14482 -3.29776 0
M  V30 2873 C 258.736 -6.09246 -3.0872 0
M  V30 2874 O 258.424 -7.42302 -3.08615 0
M  V30 2875 H 258.156 -0.423898 -0.52658 0
M  V30 2876 H 260.71 -1.72703 -1.11188 0
M  V30 2877 H 258.94 -1.32157 -3.63416 0
M  V30 2878 H 260.629 -1.7391 -3.66756 0
M  V30 2879 H 261.395 -4.02733 -2.70243 0
M  V30 2880 H 257.274 -3.05631 -3.45124 0
M  V30 2881 H 260.818 -6.428 -2.71024 0
M  V30 2882 H 256.715 -5.44832 -3.46163 0
M  V30 2883 H 257.483 -7.5131 -3.24769 0
M  V30 2884 N 260.146 1.09593 -1.13257 0
M  V30 2885 C 261.093 2.1618 -0.808381 0
M  V30 2886 C 262.063 1.64517 0.228754 0
M  V30 2887 O 263.248 1.9053 0.101381 0
M  V30 2888 C 260.388 3.43973 -0.278675 0
M  V30 2889 C 259.501 4.09545 -1.37466 0
M  V30 2890 C 258.636 5.25088 -0.803479 0
M  V30 2891 C 257.675 5.82579 -1.87799 0
M  V30 2892 N 256.812 6.89486 -1.32488 0
M  V30 2893 H 261.652 2.43254 -1.72138 0
M  V30 2894 H 259.189 1.19392 -0.859294 0
M  V30 2895 H 261.147 4.17174 0.0465583 0
M  V30 2896 H 259.777 3.17223 0.597459 0
M  V30 2897 H 258.829 3.34226 -1.81652 0
M  V30 2898 H 260.141 4.48307 -2.18684 0
M  V30 2899 H 259.295 6.05178 -0.429427 0
M  V30 2900 H 258.034 4.87684 0.0397956 0
M  V30 2901 H 257.039 5.01152 -2.26113 0
M  V30 2902 H 258.264 6.22045 -2.72463 0
M  V30 2903 H 256.21 6.54064 -0.503575 0
M  V30 2904 H 256.127 7.27007 -2.07355 0
M  V30 2905 H 257.395 7.73336 -0.978336 0
M  V30 2906 N 261.624 0.925811 1.2754 0
M  V30 2907 C 262.854 0.580666 1.98272 0
M  V30 2908 C 263.262 -0.845207 1.69272 0
M  V30 2909 O 262.605 -1.57306 0.948707 0
M  V30 2910 C 262.667 0.724418 3.52126 0
M  V30 2911 C 262.331 2.12206 4.04744 0
M  V30 2912 C 263.328 3.09604 4.17662 0
M  V30 2913 C 261.013 2.4385 4.39138 0
M  V30 2914 C 263.007 4.36755 4.64246 0
M  V30 2915 C 260.694 3.71237 4.85414 0
M  V30 2916 C 261.692 4.67503 4.97926 0
M  V30 2917 O 261.38 5.92624 5.43187 0
M  V30 2918 H 261.112 0.218987 0.639547 0
M  V30 2919 H 263.666 1.24452 1.63404 0
M  V30 2920 H 261.896 0.0034663 3.867 0
M  V30 2921 H 263.585 0.384607 4.04074 0
M  V30 2922 H 264.351 2.86478 3.91351 0
M  V30 2923 H 260.23 1.69665 4.28643 0
M  V30 2924 H 263.774 5.11898 4.73927 0
M  V30 2925 H 259.671 3.94182 5.11166 0
M  V30 2926 H 260.439 5.95585 5.61445 0
M  V30 2927 N 263.102 -1.41638 0.69111 0
M  V30 2928 C 264.349 -2.01299 0.220193 0
M  V30 2929 C 264.677 -1.54715 -1.17871 0
M  V30 2930 O 263.932 -0.747193 -1.80874 0
M  V30 2931 C 264.231 -3.56714 0.221277 0
M  V30 2932 C 263.897 -4.22792 1.56709 0
M  V30 2933 C 262.559 -4.40557 1.93554 0
M  V30 2934 C 264.911 -4.59883 2.45268 0
M  V30 2935 C 262.239 -4.92688 3.18552 0
M  V30 2936 C 264.591 -5.13403 3.69595 0
M  V30 2937 C 263.255 -5.29379 4.06589 0
M  V30 2938 H 262.525 -0.736606 0.0805743 0
M  V30 2939 H 265.172 -1.69598 0.889319 0
M  V30 2940 H 263.477 -3.8818 -0.531391 0
M  V30 2941 H 265.174 -4.00678 -0.160547 0
M  V30 2942 H 261.764 -4.09336 1.2705 0
M  V30 2943 H 265.948 -4.45817 2.18084 0
M  V30 2944 H 261.204 -5.03242 3.47214 0
M  V30 2945 H 265.378 -5.41084 4.38407 0
M  V30 2946 H 263.005 -5.69537 5.03519 0
M  V30 2947 N 264.58 -0.43555 -1.51462 0
M  V30 2948 C 265.996 -0.0877501 -1.59359 0
M  V30 2949 C 266.196 1.4027 -1.4466 0
M  V30 2950 O 265.252 2.17243 -1.28693 0
M  V30 2951 C 266.565 -0.606264 -2.94525 0
M  V30 2952 C 268.113 -0.566548 -3.0783 0
M  V30 2953 C 268.588 -1.06201 -4.45517 0
M  V30 2954 N 270.079 -1.01992 -4.51832 0
M  V30 2955 C 270.814 -1.37417 -5.5669 0
M  V30 2956 N 270.31 -1.80119 -6.68976 0
M  V30 2957 N 272.103 -1.29245 -5.47039 0
M  V30 2958 H 264.254 -1.40533 -1.59261 0
M  V30 2959 H 266.517 -0.578992 -0.750648 0
M  V30 2960 H 266.223 -1.64901 -3.10645 0
M  V30 2961 H 266.097 -0.0302097 -3.77188 0
M  V30 2962 H 268.484 0.467208 -2.91378 0
M  V30 2963 H 268.565 -1.17898 -2.2701 0
M  V30 2964 H 268.209 -2.09422 -4.62715 0
M  V30 2965 H 268.139 -0.426127 -5.24873 0
M  V30 2966 H 270.63 -0.706308 -3.71241 0
M  V30 2967 H 270.943 -2.05392 -7.45006 0
M  V30 2968 H 269.288 -1.84044 -6.70189 0
M  V30 2969 H 272.479 -0.957522 -4.58202 0
M  V30 2970 H 272.652 -1.57182 -6.28648 0
M  V30 2971 N 266.058 1.56714 -0.166846 0
M  V30 2972 C 267.006 2.19056 0.782123 0
M  V30 2973 C 268 1.15328 1.24079 0
M  V30 2974 O 269.206 1.33537 1.20697 0
M  V30 2975 H 265.581 0.70167 0.270486 0
M  V30 2976 H 267.552 2.97494 0.232322 0
M  V30 2977 C 266.301 2.84206 2.00306 0
M  V30 2978 H 265.624 3.63748 1.65914 0
M  V30 2979 H 267.064 3.31302 2.64604 0
M  V30 2980 C 265.523 1.83744 2.82382 0
M  V30 2981 O 266.053 1.32014 3.79388 0
M  V30 2982 N 264.259 1.52601 2.47308 0
M  V30 2983 H 263.806 1.9486 1.68485 0
M  V30 2984 H 263.764 0.856351 3.02513 0
M  V30 2985 N 267.536 -0.106894 1.57237 0
M  V30 2986 C 268.761 -0.830287 1.90055 0
M  V30 2987 C 269.186 -1.72064 0.75998 0
M  V30 2988 O 268.544 -1.78982 -0.288991 0
M  V30 2989 C 268.592 -1.6295 3.21683 0
M  V30 2990 O 267.696 -2.73748 3.08441 0
M  V30 2991 H 267.037 -0.228855 0.623315 0
M  V30 2992 H 269.567 -0.085658 2.04421 0
M  V30 2993 H 269.577 -2.01621 3.54701 0
M  V30 2994 H 268.252 -0.975989 4.04286 0
M  V30 2995 H 266.829 -2.38192 2.86913 0
M  V30 2996 N 269.014 -1.53014 -0.377408 0
M  V30 2997 C 269.961 -1.78616 -1.46168 0
M  V30 2998 C 270.931 -0.629917 -1.53692 0
M  V30 2999 O 272.116 -0.870861 -1.69766 0
M  V30 3000 C 269.256 -1.97123 -2.8326 0
M  V30 3001 C 268.369 -3.24831 -2.84796 0
M  V30 3002 C 267.504 -3.33591 -4.13389 0
M  V30 3003 C 266.543 -4.55377 -4.09021 0
M  V30 3004 N 265.68 -4.61355 -5.29241 0
M  V30 3005 H 270.52 -2.71142 -1.23637 0
M  V30 3006 H 268.057 -1.34326 -0.599577 0
M  V30 3007 H 270.015 -2.05839 -3.62886 0
M  V30 3008 H 268.645 -1.07946 -3.04216 0
M  V30 3009 H 267.697 -3.25128 -1.97474 0
M  V30 3010 H 269.009 -4.14523 -2.77439 0
M  V30 3011 H 268.163 -3.41554 -5.01424 0
M  V30 3012 H 266.902 -2.41894 -4.23484 0
M  V30 3013 H 265.907 -4.47527 -3.19373 0
M  V30 3014 H 267.132 -5.48402 -4.00539 0
M  V30 3015 H 265.078 -3.72554 -5.39944 0
M  V30 3016 H 264.995 -5.44935 -5.24006 0
M  V30 3017 H 266.263 -4.73586 -6.19141 0
M  V30 3018 N 270.492 0.636531 -1.44174 0
M  V30 3019 C 271.44 1.76995 -1.50915 0
M  V30 3020 C 272.434 1.65053 -0.381295 0
M  V30 3021 O 273.64 1.71197 -0.55601 0
M  V30 3022 H 270.015 0.584247 -0.473455 0
M  V30 3023 H 271.986 1.68432 -2.4632 0
M  V30 3024 C 270.735 3.15314 -1.46534 0
M  V30 3025 H 270.058 3.25149 -2.32633 0
M  V30 3026 H 271.498 3.9453 -1.55312 0
M  V30 3027 C 269.957 3.3639 -0.185305 0
M  V30 3028 O 270.487 3.94699 0.746688 0
M  V30 3029 N 268.693 2.9046 -0.0901606 0
M  V30 3030 H 268.24 2.43193 -0.849416 0
M  V30 3031 H 268.198 3.04937 0.765553 0
M  V30 3032 N 271.97 1.30982 0.876444 0
M  V30 3033 C 273.217 1.20296 1.62896 0
M  V30 3034 C 273.545 -0.240395 1.93009 0
M  V30 3035 O 272.8 -1.18733 1.55567 0
M  V30 3036 C 273.099 1.98572 2.9716 0
M  V30 3037 C 272.765 3.48125 2.86566 0
M  V30 3038 C 271.427 3.88905 2.83383 0
M  V30 3039 C 273.779 4.43322 2.74071 0
M  V30 3040 C 271.107 5.2316 2.65556 0
M  V30 3041 C 273.459 5.77695 2.57781 0
M  V30 3042 C 272.123 6.17704 2.52979 0
M  V30 3043 H 271.393 0.440193 0.59608 0
M  V30 3044 H 274.04 1.62177 1.01837 0
M  V30 3045 H 272.345 1.49352 3.62217 0
M  V30 3046 H 274.042 1.8769 3.54364 0
M  V30 3047 H 270.632 3.15723 2.89856 0
M  V30 3048 H 274.816 4.12752 2.75589 0
M  V30 3049 H 270.072 5.53241 2.60259 0
M  V30 3050 H 274.246 6.51091 2.47089 0
M  V30 3051 H 271.873 7.21678 2.38924 0
M  V30 3052 N 273.449 -1.08991 1.13837 0
M  V30 3053 C 274.396 -2.15748 0.819835 0
M  V30 3054 C 275.366 -1.64636 -0.220026 0
M  V30 3055 O 276.551 -1.90582 -0.0912757 0
M  V30 3056 C 273.691 -3.4382 0.296913 0
M  V30 3057 C 272.804 -4.0881 1.39636 0
M  V30 3058 C 271.939 -5.24655 0.831314 0
M  V30 3059 C 270.978 -5.81575 1.90886 0
M  V30 3060 N 270.115 -6.88774 1.36142 0
M  V30 3061 H 274.955 -2.42338 1.73426 0
M  V30 3062 H 272.492 -1.18935 0.865613 0
M  V30 3063 H 274.45 -4.17193 -0.0244339 0
M  V30 3064 H 273.08 -3.17535 -0.580628 0
M  V30 3065 H 272.132 -3.33258 1.83422 0
M  V30 3066 H 273.444 -4.47141 2.21058 0
M  V30 3067 H 272.598 -6.04942 0.461515 0
M  V30 3068 H 271.337 -4.87698 -0.013932 0
M  V30 3069 H 270.342 -4.99946 2.28767 0
M  V30 3070 H 271.567 -6.20592 2.75758 0
M  V30 3071 H 269.513 -6.53788 0.538254 0
M  V30 3072 H 269.43 -7.25898 2.11208 0
M  V30 3073 H 270.698 -7.72806 1.01933 0
M  V30 3074 N 274.927 -0.932562 -1.27047 0
M  V30 3075 C 276.176 -0.571351 -1.93439 0
M  V30 3076 C 276.489 0.892467 -1.74053 0
M  V30 3077 O 277.695 1.36267 -2.34826 0
M  V30 3078 C 276.151 -0.97106 -3.46552 0
M  V30 3079 C 275.759 -2.4559 -3.74686 0
M  V30 3080 C 277.503 -0.681333 -4.18997 0
M  V30 3081 C 275.41 -2.79475 -5.21198 0
M  V30 3082 H 274.34 -0.209966 -0.724176 0
M  V30 3083 H 276.991 -1.13403 -1.44263 0
M  V30 3084 H 275.373 -0.336983 -3.94564 0
M  V30 3085 H 276.547 -3.13829 -3.37414 0
M  V30 3086 H 274.862 -2.71802 -3.15456 0
M  V30 3087 H 277.459 -0.910939 -5.26883 0
M  V30 3088 H 277.802 0.381628 -4.14547 0
M  V30 3089 H 278.335 -1.27473 -3.76823 0
M  V30 3090 H 275.074 -3.847 -5.30741 0
M  V30 3091 H 274.594 -2.1589 -5.596 0
M  V30 3092 H 276.273 -2.67478 -5.89122 0
M  V30 3093 N 276.405 1.4127 -0.698611 0
M  V30 3094 C 277.353 2.32588 -0.023855 0
M  V30 3095 C 278.347 1.51128 0.765292 0
M  V30 3096 O 279.553 1.67043 0.670571 0
M  V30 3097 H 275.928 0.751918 0.0110871 0
M  V30 3098 H 277.899 2.87167 -0.811031 0
M  V30 3099 C 276.648 3.35947 0.896369 0
M  V30 3100 H 275.971 3.98684 0.298548 0
M  V30 3101 H 277.411 4.02376 1.33676 0
M  V30 3102 C 275.87 2.70076 2.01396 0
M  V30 3103 O 276.4 2.55093 3.10307 0
M  V30 3104 N 274.606 2.28724 1.79259 0
M  V30 3105 H 274.153 2.4111 0.906841 0
M  V30 3106 H 274.111 1.84986 2.54219 0
M  V30 3107 N 277.883 0.443576 1.51229 0
M  V30 3108 C 278.793 -0.370721 2.31652 0
M  V30 3109 C 279.809 -1.02186 1.40833 0
M  V30 3110 O 280.985 -1.01586 1.73903 0
M  V30 3111 C 278.05 -1.45376 3.14749 0
M  V30 3112 C 277.111 -0.822099 4.21355 0
M  V30 3113 C 276.344 -1.85353 5.0048 0
M  V30 3114 O 276.567 -3.07656 4.80316 0
M  V30 3115 O 275.501 -1.4406 5.84406 0
M  V30 3116 H 279.327 0.286002 3.0235 0
M  V30 3117 H 276.912 0.20598 1.47973 0
M  V30 3118 H 278.794 -2.08173 3.66391 0
M  V30 3119 H 277.469 -2.09445 2.46809 0
M  V30 3120 H 276.376 -0.155909 3.73775 0
M  V30 3121 H 277.709 -0.224797 4.91686 0
M  V30 3122 N 279.361 -1.56624 0.175154 0
M  V30 3123 C 280.309 -2.19468 -0.770495 0
M  V30 3124 C 281.303 -1.15985 -1.23466 0
M  V30 3125 O 282.509 -1.34176 -1.19987 0
M  V30 3126 H 278.884 -0.703095 -0.266761 0
M  V30 3127 H 280.855 -2.97613 -0.216542 0
M  V30 3128 C 279.604 -2.85264 -1.98796 0
M  V30 3129 H 278.927 -3.64623 -1.63983 0
M  V30 3130 H 280.367 -3.327 -2.62843 0
M  V30 3131 C 278.826 -1.85239 -2.81404 0
M  V30 3132 O 279.356 -1.34024 -3.78682 0
M  V30 3133 N 277.562 -1.53911 -2.46495 0
M  V30 3134 H 277.109 -1.95751 -1.67449 0
M  V30 3135 H 277.067 -0.872382 -3.02054 0
M  V30 3136 N 280.839 0.0985539 -1.57292 0
M  V30 3137 C 281.787 1.1387 -2.02821 0
M  V30 3138 C 282.781 1.41676 -0.928666 0
M  V30 3139 O 283.987 1.41398 -1.11385 0
M  V30 3140 H 280.362 0.384419 -0.646317 0
M  V30 3141 H 282.333 0.728347 -2.89375 0
M  V30 3142 C 281.082 2.45166 -2.46554 0
M  V30 3143 H 280.405 2.24613 -3.3074 0
M  V30 3144 H 281.845 3.16456 -2.8219 0
M  V30 3145 C 280.304 3.09216 -1.33742 0
M  V30 3146 O 280.834 3.96163 -0.66464 0
M  V30 3147 N 279.04 2.69413 -1.08928 0
M  V30 3148 H 278.587 1.98801 -1.63817 0
M  V30 3149 H 278.545 3.12594 -0.336458 0
M  V30 3150 N 282.317 1.53212 0.369288 0
M  V30 3151 C 283.542 1.73423 1.1375 0
M  V30 3152 C 283.967 0.460404 1.82378 0
M  V30 3153 O 283.325 -0.585298 1.71592 0
M  V30 3154 C 283.373 2.89769 2.1463 0
M  V30 3155 O 282.477 2.58119 3.21634 0
M  V30 3156 H 281.818 0.576061 0.330227 0
M  V30 3157 H 284.348 2.00083 0.427547 0
M  V30 3158 H 284.358 3.15829 2.58294 0
M  V30 3159 H 283.033 3.8217 1.64071 0
M  V30 3160 H 281.61 2.42864 2.82969 0
M  V30 3161 N 283.795 -0.628877 1.44509 0
M  V30 3162 C 285.043 -1.38565 1.4712 0
M  V30 3163 C 285.364 -1.94712 0.105899 0
M  V30 3164 O 284.634 -1.75912 -0.862079 0
M  V30 3165 H 283.214 -0.514333 0.541729 0
M  V30 3166 H 285.876 -0.740018 1.80305 0
M  V30 3167 H 284.972 -2.21583 2.19789 0
M  V30 3168 N 285.273 -1.31445 -0.869486 0
M  V30 3169 C 286.522 -1.20517 -1.61736 0
M  V30 3170 C 286.835 0.235341 -1.94179 0
M  V30 3171 O 288.041 0.466312 -2.67465 0
M  V30 3172 C 286.497 -2.10982 -2.91573 0
M  V30 3173 C 286.105 -3.60032 -2.66611 0
M  V30 3174 C 287.849 -2.08856 -3.69567 0
M  V30 3175 C 285.756 -4.42503 -3.92358 0
M  V30 3176 H 284.686 -0.447493 -0.606849 0
M  V30 3177 H 287.337 -1.56303 -0.96133 0
M  V30 3178 H 285.719 -1.68095 -3.58553 0
M  V30 3179 H 286.893 -4.11167 -2.08035 0
M  V30 3180 H 285.208 -3.64139 -2.0197 0
M  V30 3181 H 287.805 -2.67716 -4.62852 0
M  V30 3182 H 288.148 -1.07582 -4.02159 0
M  V30 3183 H 288.681 -2.49945 -3.09471 0
M  V30 3184 H 285.42 -5.44533 -3.64916 0
M  V30 3185 H 284.94 -3.96125 -4.50383 0
M  V30 3186 H 286.619 -4.54741 -4.60238 0
M  V30 3187 N 286.751 1.08385 -1.14413 0
M  V30 3188 C 287.997 1.81044 -0.913834 0
M  V30 3189 C 288.33 1.86004 0.558209 0
M  V30 3190 O 287.605 1.33606 1.4135 0
M  V30 3191 C 287.888 3.26648 -1.51569 0
M  V30 3192 C 287.741 3.29895 -3.0576 0
M  V30 3193 C 289.06 4.23629 -1.19273 0
M  V30 3194 H 286.179 0.65727 -0.333414 0
M  V30 3195 H 288.821 1.26896 -1.41412 0
M  V30 3196 H 286.971 3.72889 -1.09023 0
M  V30 3197 H 288.643 2.91977 -3.57137 0
M  V30 3198 H 286.886 2.69163 -3.40197 0
M  V30 3199 H 287.557 4.32516 -3.42977 0
M  V30 3200 H 290.033 3.85727 -1.56057 0
M  V30 3201 H 288.909 5.23822 -1.64017 0
M  V30 3202 H 289.17 4.41968 -0.108068 0
M  V30 3203 N 288.23 0.939286 1.26551 0
M  V30 3204 C 289.507 0.5038 1.89001 0
M  V30 3205 C 289.887 -1.01854 1.84903 0
M  V30 3206 O 289.235 -1.87773 1.30206 0
M  V30 3207 C 289.445 1.063 3.32417 0
M  V30 3208 C 290.793 1.13051 4.09273 0
M  V30 3209 O 291.817 1.01345 3.41479 0
M  V30 3210 O 290.676 1.31233 5.30509 0
M  V30 3211 H 287.77 0.163897 0.810597 0
M  V30 3212 H 290.316 1.03173 1.34735 0
M  V30 3213 H 289.088 2.10665 3.29752 0
M  V30 3214 H 288.711 0.517408 3.94219 0
M  V30 3215 N 289.708 -1.40897 0.706093 0
M  V30 3216 C 290.954 -2.01352 0.241889 0
M  V30 3217 C 291.287 -1.55832 -1.15888 0
M  V30 3218 O 290.562 -0.774145 -1.7843 0
M  V30 3219 C 290.845 -3.58752 0.311311 0
M  V30 3220 C 290.698 -4.1437 1.74978 0
M  V30 3221 C 292.017 -4.38914 -0.322922 0
M  V30 3222 H 289.136 -0.731562 0.0893687 0
M  V30 3223 H 291.778 -1.67504 0.896802 0
M  V30 3224 H 289.928 -3.87718 -0.246302 0
M  V30 3225 H 291.6 -3.96239 2.36205 0
M  V30 3226 H 289.843 -3.69016 2.28057 0
M  V30 3227 H 290.514 -5.23532 1.74981 0
M  V30 3228 H 292.99 -4.15822 0.152089 0
M  V30 3229 H 291.866 -5.48358 -0.243855 0
M  V30 3230 H 292.127 -4.19176 -1.40513 0
M  V30 3231 N 291.186 -0.45159 -1.50991 0
M  V30 3232 C 292.119 0.398179 -2.24699 0
M  V30 3233 C 293.097 1.01276 -1.27208 0
M  V30 3234 O 294.281 1.05247 -1.56382 0
M  V30 3235 C 291.408 1.55618 -3.00833 0
M  V30 3236 C 290.454 1.0609 -4.13095 0
M  V30 3237 S 291.287 -0.00865136 -5.35499 0
M  V30 3238 C 292.443 1.15369 -6.15175 0
M  V30 3239 H 292.676 -0.227555 -2.96428 0
M  V30 3240 H 290.209 -0.236251 -1.52582 0
M  V30 3241 H 292.167 2.21997 -3.45293 0
M  V30 3242 H 290.828 2.15337 -2.28667 0
M  V30 3243 H 290.021 1.92726 -4.65696 0
M  V30 3244 H 289.623 0.47513 -3.7097 0
M  V30 3245 H 291.915 2.06925 -6.45126 0
M  V30 3246 H 292.858 0.667344 -7.04948 0
M  V30 3247 H 293.266 1.3987 -5.46897 0
M  V30 3248 N 292.664 1.56529 -0.183458 0
M  V30 3249 C 293.91 1.97537 0.459036 0
M  V30 3250 C 294.243 1.06989 1.62071 0
M  V30 3251 O 293.518 0.11948 1.94133 0
M  V30 3252 C 293.801 3.47874 0.930368 0
M  V30 3253 C 293.654 4.492 -0.232317 0
M  V30 3254 C 294.973 4.01612 1.79989 0
M  V30 3255 H 292.092 0.718204 0.165383 0
M  V30 3256 H 294.734 1.88042 -0.272038 0
M  V30 3257 H 292.884 3.56095 1.55333 0
M  V30 3258 H 294.556 4.53027 -0.86972 0
M  V30 3259 H 292.799 4.24657 -0.885928 0
M  V30 3260 H 293.47 5.51823 0.139796 0
M  V30 3261 H 295.946 3.96097 1.27461 0
M  V30 3262 H 294.822 5.07195 2.09867 0
M  V30 3263 H 295.083 3.46163 2.74998 0
M  V30 3264 N 294.142 -0.090211 1.57342 0
M  V30 3265 C 295.367 -0.810082 1.90925 0
M  V30 3266 C 295.792 -1.71248 0.778187 0
M  V30 3267 O 295.15 -1.79278 -0.269991 0
M  V30 3268 C 295.198 -1.59529 3.23393 0
M  V30 3269 O 294.302 -2.70461 3.11327 0
M  V30 3270 H 293.643 -0.222231 0.625707 0
M  V30 3271 H 296.173 -0.0639716 2.045 0
M  V30 3272 H 296.183 -1.97847 3.5682 0
M  V30 3273 H 294.858 -0.933055 4.05299 0
M  V30 3274 H 293.435 -2.35135 2.89423 0
M  V30 3275 N 295.62 -1.53406 -0.361157 0
M  V30 3276 C 296.552 -1.76446 -1.46286 0
M  V30 3277 C 297.565 -0.645322 -1.49464 0
M  V30 3278 O 298.754 -0.921681 -1.52864 0
M  V30 3279 C 295.854 -1.83332 -2.85031 0
M  V30 3280 C 295.027 -3.13033 -3.05498 0
M  V30 3281 C 294.086 -3.11104 -4.24383 0
M  V30 3282 O 293.112 -3.84888 -4.19344 0
M  V30 3283 N 294.314 -2.32234 -5.32022 0
M  V30 3284 H 297.079 -2.71508 -1.26899 0
M  V30 3285 H 294.64 -1.52238 -0.550915 0
M  V30 3286 H 296.632 -1.79514 -3.62708 0
M  V30 3287 H 295.202 -0.955342 -2.97644 0
M  V30 3288 H 294.422 -3.30119 -2.15442 0
M  V30 3289 H 295.71 -3.9874 -3.16044 0
M  V30 3290 H 295.108 -1.71807 -5.38979 0
M  V30 3291 H 293.665 -2.3423 -6.08259 0
M  V30 3292 N 297.098 0.621204 -1.44841 0
M  V30 3293 C 298.509 1.20298 -1.42777 0
M  V30 3294 C 298.86 1.95639 -0.148259 0
M  V30 3295 O 297.985 2.02955 0.750892 0
M  V30 3296 C 298.58 2.1882 -2.58657 0
M  V30 3297 C 297.139 2.72403 -2.59756 0
M  V30 3298 C 296.286 1.4757 -2.34773 0
M  V30 3299 H 299.237 0.411297 -1.53278 0
M  V30 3300 H 299.258 3.01607 -2.31977 0
M  V30 3301 H 298.77 1.63957 -3.51766 0
M  V30 3302 H 296.871 3.31242 -1.70615 0
M  V30 3303 H 296.984 3.17765 -3.58556 0
M  V30 3304 H 295.348 1.76051 -1.8406 0
M  V30 3305 H 296.131 0.945954 -3.3001 0
M  V30 3306 N 298.576 1.31904 0.862503 0
M  V30 3307 C 299.486 1.22161 2.00285 0
M  V30 3308 C 300.502 0.136785 1.73462 0
M  V30 3309 O 301.678 0.355994 1.98229 0
M  V30 3310 C 298.743 0.937093 3.33796 0
M  V30 3311 C 297.804 2.10957 3.73893 0
M  V30 3312 C 297.037 1.83853 5.01033 0
M  V30 3313 O 297.26 0.777274 5.65079 0
M  V30 3314 O 296.194 2.69741 5.38074 0
M  V30 3315 H 300.02 2.18008 2.11439 0
M  V30 3316 H 297.605 1.11716 0.991957 0
M  V30 3317 H 299.487 0.794583 4.13841 0
M  V30 3318 H 298.162 0.00871894 3.23699 0
M  V30 3319 H 297.069 2.30752 2.94456 0
M  V30 3320 H 298.402 3.02046 3.88625 0
M  V30 3321 N 300.054 -1.07777 1.14986 0
M  V30 3322 C 300.987 -2.14228 0.786243 0
M  V30 3323 C 301.965 -1.60888 -0.235347 0
M  V30 3324 O 303.149 -1.88099 -0.122909 0
M  V30 3325 C 300.276 -3.38281 0.168433 0
M  V30 3326 C 299.322 -4.10387 1.16123 0
M  V30 3327 S 300.155 -4.62371 2.70135 0
M  V30 3328 C 301.311 -5.89704 2.09762 0
M  V30 3329 H 301.544 -2.44741 1.68787 0
M  V30 3330 H 299.077 -1.19984 0.971756 0
M  V30 3331 H 301.035 -4.10098 -0.181588 0
M  V30 3332 H 299.696 -3.05953 -0.710725 0
M  V30 3333 H 298.889 -4.99431 0.677086 0
M  V30 3334 H 298.491 -3.44513 1.45556 0
M  V30 3335 H 300.783 -6.61648 1.45701 0
M  V30 3336 H 301.726 -6.42824 2.96955 0
M  V30 3337 H 302.134 -5.4302 1.54239 0
M  V30 3338 N 301.532 -0.945985 -1.26051 0
M  V30 3339 C 302.76 -0.613025 -1.9761 0
M  V30 3340 C 303.175 0.813035 -1.70397 0
M  V30 3341 O 302.532 1.54274 -0.974979 0
M  V30 3342 C 302.583 -0.85159 -3.51326 0
M  V30 3343 O 302.304 -2.22157 -3.77595 0
M  V30 3344 C 303.805 -0.529831 -4.40122 0
M  V30 3345 H 301.025 -0.230593 -0.630133 0
M  V30 3346 H 303.569 -1.268 -1.60443 0
M  V30 3347 H 301.724 -0.243151 -3.86636 0
M  V30 3348 H 302.138 -2.2852 -4.721 0
M  V30 3349 H 303.612 -0.747348 -5.46917 0
M  V30 3350 H 304.089 0.535341 -4.35925 0
M  V30 3351 H 304.695 -1.11721 -4.10364 0
M  V30 3352 N 303.011 1.40521 -0.713556 0
M  V30 3353 C 304.26 2.00155 -0.249192 0
M  V30 3354 C 304.573 1.57224 1.16362 0
M  V30 3355 O 305.779 2.09542 1.72639 0
M  V30 3356 C 304.235 3.5773 -0.3946 0
M  V30 3357 C 303.843 4.09635 -1.81392 0
M  V30 3358 C 305.587 4.24499 0.00907364 0
M  V30 3359 C 303.494 5.59707 -1.91003 0
M  V30 3360 H 302.424 0.74868 -0.0894114 0
M  V30 3361 H 305.075 1.60784 -0.884352 0
M  V30 3362 H 303.457 3.94792 0.30911 0
M  V30 3363 H 304.631 3.83955 -2.54785 0
M  V30 3364 H 302.946 3.55456 -2.16888 0
M  V30 3365 H 305.543 5.34683 -0.0420404 0
M  V30 3366 H 305.886 4.02824 1.05065 0
M  V30 3367 H 306.419 3.92536 -0.645007 0
M  V30 3368 H 303.158 5.86234 -2.93275 0
M  V30 3369 H 302.678 5.87258 -1.22019 0
M  V30 3370 H 304.357 6.24776 -1.6812 0
M  V30 3371 N 304.489 0.459591 1.5075 0
M  V30 3372 C 305.736 -0.0993495 2.02256 0
M  V30 3373 C 306.064 -1.40751 1.34237 0
M  V30 3374 O 305.319 -1.90379 0.453228 0
M  V30 3375 C 305.618 -0.342866 3.55752 0
M  V30 3376 C 305.284 0.88218 4.42186 0
M  V30 3377 C 303.946 1.21808 4.65528 0
M  V30 3378 C 306.298 1.69837 4.92752 0
M  V30 3379 C 303.626 2.37045 5.36681 0
M  V30 3380 C 305.978 2.84192 5.65171 0
M  V30 3381 C 304.642 3.1821 5.8677 0
M  V30 3382 H 303.912 -0.0363545 0.740108 0
M  V30 3383 H 306.559 0.611329 1.8148 0
M  V30 3384 H 304.864 -1.13567 3.7498 0
M  V30 3385 H 306.561 -0.789121 3.93159 0
M  V30 3386 H 303.151 0.610467 4.2423 0
M  V30 3387 H 307.335 1.45205 4.74583 0
M  V30 3388 H 302.591 2.63689 5.51614 0
M  V30 3389 H 306.765 3.4779 6.03337 0
M  V30 3390 H 304.392 4.07613 6.41682 0
M  V30 3391 N 305.967 -1.56429 0.191757 0
M  V30 3392 C 307.195 -2.01867 -0.453586 0
M  V30 3393 C 307.61 -1.07191 -1.5542 0
M  V30 3394 O 306.967 -0.0762108 -1.82341 0
M  V30 3395 C 307.018 -3.47017 -1.013 0
M  V30 3396 O 306.739 -4.38078 0.0437005 0
M  V30 3397 C 308.24 -4.07956 -1.73456 0
M  V30 3398 H 305.46 -0.661211 -0.114199 0
M  V30 3399 H 308.004 -2.02295 0.299483 0
M  V30 3400 H 306.159 -3.47298 -1.71647 0
M  V30 3401 H 306.573 -5.23178 -0.372212 0
M  V30 3402 H 308.047 -5.1138 -2.07833 0
M  V30 3403 H 308.524 -3.51222 -2.63704 0
M  V30 3404 H 309.13 -4.11437 -1.07702 0
M  V30 3405 N 307.445 0.0818655 -1.57387 0
M  V30 3406 C 308.408 1.08265 -2.02018 0
M  V30 3407 C 309.408 1.32183 -0.915664 0
M  V30 3408 O 310.598 1.28073 -1.18081 0
M  V30 3409 C 307.73 2.42871 -2.39221 0
M  V30 3410 H 308.923 0.698204 -2.91659 0
M  V30 3411 H 306.476 0.327303 -1.52835 0
M  V30 3412 H 307.211 2.86167 -1.52575 0
M  V30 3413 H 306.996 2.26855 -3.19811 0
M  V30 3414 H 308.486 3.14826 -2.74362 0
M  V30 3415 N 308.923 1.53595 0.353017 0
M  V30 3416 C 310.148 1.7462 1.11904 0
M  V30 3417 C 310.573 0.479721 1.8188 0
M  V30 3418 O 309.931 -0.567066 1.72204 0
M  V30 3419 C 309.979 2.92029 2.11545 0
M  V30 3420 O 309.083 2.61516 3.18878 0
M  V30 3421 H 308.424 0.579531 0.324099 0
M  V30 3422 H 310.954 2.00525 0.406301 0
M  V30 3423 H 310.964 3.18551 2.5493 0
M  V30 3424 H 309.639 3.83888 1.60008 0
M  V30 3425 H 308.216 2.45852 2.80377 0
M  V30 3426 N 310.401 -0.613514 1.45168 0
M  V30 3427 C 311.817 -0.933629 1.29443 0
M  V30 3428 C 312.017 -2.00028 0.243101 0
M  V30 3429 O 311.073 -2.49848 -0.364992 0
M  V30 3430 C 312.386 -1.38018 2.67155 0
M  V30 3431 C 313.934 -1.49471 2.75004 0
M  V30 3432 C 314.409 -1.97503 4.13227 0
M  V30 3433 N 315.9 -2.04746 4.15491 0
M  V30 3434 C 316.635 -2.43121 5.19307 0
M  V30 3435 N 316.131 -2.80506 6.33473 0
M  V30 3436 N 317.924 -2.43408 5.06664 0
M  V30 3437 H 310.075 0.0916097 2.12202 0
M  V30 3438 H 312.338 -0.0216655 0.947752 0
M  V30 3439 H 312.044 -0.670625 3.45247 0
M  V30 3440 H 311.918 -2.34784 2.95222 0
M  V30 3441 H 314.305 -2.19519 1.9722 0
M  V30 3442 H 314.386 -0.510342 2.50657 0
M  V30 3443 H 314.03 -1.28045 4.91495 0
M  V30 3444 H 313.96 -2.96843 4.34962 0
M  V30 3445 H 316.451 -1.78468 3.33103 0
M  V30 3446 H 316.764 -3.08652 7.08487 0
M  V30 3447 H 315.109 -2.78216 6.36884 0
M  V30 3448 H 318.3 -2.13604 4.16523 0
M  V30 3449 H 318.473 -2.72989 5.87691 0
M  V30 3450 N 311.879 -1.3236 -0.855495 0
M  V30 3451 C 313.104 -1.2601 -1.64731 0
M  V30 3452 C 313.529 0.169068 -1.87339 0
M  V30 3453 O 312.887 1.12016 -1.42556 0
M  V30 3454 C 312.935 -2.02417 -2.98429 0
M  V30 3455 O 312.039 -1.3714 -3.8893 0
M  V30 3456 H 311.38 -0.434325 -0.502253 0
M  V30 3457 H 313.91 -1.74661 -1.06558 0
M  V30 3458 H 313.92 -2.12559 -3.48257 0
M  V30 3459 H 312.595 -3.06343 -2.81295 0
M  V30 3460 H 311.172 -1.3554 -3.47395 0
M  V30 3461 N 313.357 1.07166 -1.15556 0
M  V30 3462 C 314.287 2.16403 -0.877046 0
M  V30 3463 C 315.268 1.69217 0.173111 0
M  V30 3464 O 316.453 1.94181 0.027084 0
M  V30 3465 C 313.583 3.45349 -0.367632 0
M  V30 3466 C 312.537 4.05995 -1.35468 0
M  V30 3467 C 311.863 5.30045 -0.704038 0
M  V30 3468 C 313.163 4.45804 -2.72132 0
M  V30 3469 H 314.857 2.39959 -1.79053 0
M  V30 3470 H 312.403 1.15325 -0.862331 0
M  V30 3471 H 314.356 4.21095 -0.160317 0
M  V30 3472 H 313.08 3.21385 0.581326 0
M  V30 3473 H 311.739 3.32296 -1.54839 0
M  V30 3474 H 311.387 5.02373 0.251128 0
M  V30 3475 H 311.087 5.71579 -1.36277 0
M  V30 3476 H 312.611 6.08495 -0.50654 0
M  V30 3477 H 314.025 5.12671 -2.56595 0
M  V30 3478 H 312.422 4.98296 -3.34397 0
M  V30 3479 H 313.492 3.57083 -3.28054 0
M  V30 3480 N 314.835 0.952656 1.25548 0
M  V30 3481 C 315.765 0.489287 2.28316 0
M  V30 3482 C 316.746 -0.463359 1.63667 0
M  V30 3483 O 317.931 -0.36274 1.90782 0
M  V30 3484 C 315.061 -0.235603 3.465 0
M  V30 3485 C 314.015 0.631593 4.23314 0
M  V30 3486 C 313.341 -0.223923 5.34231 0
M  V30 3487 C 314.641 1.90871 4.86174 0
M  V30 3488 H 316.335 1.34822 2.67326 0
M  V30 3489 H 313.881 0.649728 1.28509 0
M  V30 3490 H 315.834 -0.570882 4.17515 0
M  V30 3491 H 314.558 -1.12877 3.06474 0
M  V30 3492 H 313.217 0.949929 3.54079 0
M  V30 3493 H 312.865 -1.11678 4.90446 0
M  V30 3494 H 312.565 0.35299 5.86539 0
M  V30 3495 H 314.089 -0.554214 6.0808 0
M  V30 3496 H 315.503 1.63997 5.49343 0
M  V30 3497 H 313.9 2.43112 5.4865 0
M  V30 3498 H 314.97 2.61304 4.08471 0
M  V30 3499 N 316.313 -1.40141 0.720998 0
M  V30 3500 C 317.561 -2.0039 0.262323 0
M  V30 3501 C 317.882 -1.57469 -1.15015 0
M  V30 3502 O 317.152 -0.816582 -1.78069 0
M  V30 3503 H 315.732 -0.741063 0.093996 0
M  V30 3504 H 318.394 -1.71398 0.927835 0
M  V30 3505 H 317.49 -3.10658 0.299671 0
M  V30 3506 N 317.792 -0.46758 -1.50504 0
M  V30 3507 C 318.739 0.328413 -2.28452 0
M  V30 3508 C 319.709 0.990313 -1.33349 0
M  V30 3509 O 320.894 1.00343 -1.62284 0
M  V30 3510 C 318.034 1.40648 -3.15138 0
M  V30 3511 C 317.147 0.759709 -4.25267 0
M  V30 3512 C 316.282 1.81537 -4.99217 0
M  V30 3513 C 315.321 1.14866 -6.01226 0
M  V30 3514 N 314.458 2.14702 -6.68467 0
M  V30 3515 H 319.298 -0.342603 -2.96024 0
M  V30 3516 H 316.835 -0.180801 -1.45985 0
M  V30 3517 H 318.793 2.04315 -3.63746 0
M  V30 3518 H 317.423 2.04671 -2.49619 0
M  V30 3519 H 316.475 0.0105671 -3.80399 0
M  V30 3520 H 317.787 0.233243 -4.98254 0
M  V30 3521 H 316.941 2.52793 -5.51526 0
M  V30 3522 H 315.68 2.37564 -4.25928 0
M  V30 3523 H 314.685 0.42171 -5.4818 0
M  V30 3524 H 315.91 0.595334 -6.76485 0
M  V30 3525 H 313.856 2.69752 -5.97972 0
M  V30 3526 H 313.773 1.6703 -7.37317 0
M  V30 3527 H 315.041 2.85348 -7.25394 0
M  V30 3528 N 319.27 1.56325 -0.20005 0
M  V30 3529 C 320.18 2.22931 0.730668 0
M  V30 3530 C 321.196 1.22997 1.23076 0
M  V30 3531 O 322.372 1.55748 1.27689 0
M  V30 3532 C 319.437 2.87948 1.93098 0
M  V30 3533 C 318.498 4.03166 1.47497 0
M  V30 3534 C 317.731 4.65073 2.61807 0
M  V30 3535 O 317.954 4.25913 3.79413 0
M  V30 3536 O 316.888 5.54452 2.34237 0
M  V30 3537 H 320.714 3.03084 0.193391 0
M  V30 3538 H 318.299 1.49371 0.0294621 0
M  V30 3539 H 320.181 3.29063 2.6324 0
M  V30 3540 H 318.856 2.10771 2.45677 0
M  V30 3541 H 317.763 3.66664 0.742201 0
M  V30 3542 H 319.096 4.82022 0.995796 0
M  V30 3543 N 320.748 -0.0735177 1.57428 0
M  V30 3544 C 321.681 -1.11932 1.98863 0
M  V30 3545 C 322.659 -1.37666 0.865266 0
M  V30 3546 O 323.843 -1.51068 1.12742 0
M  V30 3547 C 320.97 -2.46403 2.32386 0
M  V30 3548 C 320.016 -2.36815 3.54713 0
M  V30 3549 S 320.849 -1.76392 5.05614 0
M  V30 3550 C 322.005 -3.12444 5.42337 0
M  V30 3551 H 322.238 -0.766212 2.87257 0
M  V30 3552 H 319.771 -0.281987 1.51803 0
M  V30 3553 H 321.729 -3.23755 2.52375 0
M  V30 3554 H 320.39 -2.78876 1.44524 0
M  V30 3555 H 319.583 -3.35977 3.7568 0
M  V30 3556 H 319.185 -1.67598 3.34345 0
M  V30 3557 H 321.477 -4.08753 5.40303 0
M  V30 3558 H 322.42 -2.96258 6.43146 0
M  V30 3559 H 322.828 -3.1297 4.69798 0
M  V30 3560 N 322.226 -1.5378 -0.344866 0
M  V30 3561 C 323.642 -1.44015 -0.687888 0
M  V30 3562 C 323.842 -0.595834 -1.92489 0
M  V30 3563 O 322.898 -0.0863064 -2.52352 0
M  V30 3564 C 324.211 -2.87481 -0.881758 0
M  V30 3565 C 325.759 -2.97247 -0.980459 0
M  V30 3566 C 326.234 -4.41819 -1.20665 0
M  V30 3567 N 327.725 -4.45339 -1.27389 0
M  V30 3568 C 328.46 -5.54333 -1.46639 0
M  V30 3569 N 327.956 -6.73335 -1.63071 0
M  V30 3570 N 329.749 -5.41944 -1.49176 0
M  V30 3571 H 321.9 -2.07169 0.468475 0
M  V30 3572 H 324.163 -0.93643 0.147655 0
M  V30 3573 H 323.869 -3.51672 -0.0443444 0
M  V30 3574 H 323.743 -3.32352 -1.78388 0
M  V30 3575 H 326.13 -2.33197 -1.8084 0
M  V30 3576 H 326.211 -2.5574 -0.0552713 0
M  V30 3577 H 325.855 -5.06449 -0.383652 0
M  V30 3578 H 325.785 -4.80917 -2.14539 0
M  V30 3579 H 328.276 -3.59585 -1.1622 0
M  V30 3580 H 328.589 -7.52165 -1.77391 0
M  V30 3581 H 326.934 -6.76282 -1.60209 0
M  V30 3582 H 330.125 -4.47932 -1.3592 0
M  V30 3583 H 330.298 -6.26946 -1.63837 0
M  V30 3584 N 323.704 0.605807 -1.45491 0
M  V30 3585 C 324.981 1.36522 -1.40075 0
M  V30 3586 C 325.361 2.10976 -0.0722744 0
M  V30 3587 O 324.709 2.08007 0.945808 0
M  V30 3588 C 324.919 2.31056 -2.61561 0
M  V30 3589 C 326.267 2.93608 -3.06724 0
M  V30 3590 O 327.291 2.41376 -2.61946 0
M  V30 3591 O 326.15 3.88421 -3.84437 0
M  V30 3592 H 323.244 0.612248 -0.555951 0
M  V30 3593 H 325.79 0.628747 -1.57623 0
M  V30 3594 H 324.562 1.75311 -3.49831 0
M  V30 3595 H 324.185 3.12081 -2.46356 0
M  V30 3596 N 325.182 1.32811 0.848464 0
M  V30 3597 C 326.129 1.22265 1.95755 0
M  V30 3598 C 327.099 0.103413 1.65778 0
M  V30 3599 O 328.284 0.280033 1.88734 0
M  V30 3600 C 325.424 0.958014 3.31536 0
M  V30 3601 C 324.537 2.16262 3.73971 0
M  V30 3602 C 323.672 1.83295 4.98575 0
M  V30 3603 C 322.711 3.00041 5.33518 0
M  V30 3604 N 321.848 2.67125 6.49299 0
M  V30 3605 H 326.688 2.17128 2.04107 0
M  V30 3606 H 324.225 1.07982 0.998913 0
M  V30 3607 H 326.183 0.785052 4.09747 0
M  V30 3608 H 324.813 0.046159 3.22767 0
M  V30 3609 H 323.865 2.44565 2.91362 0
M  V30 3610 H 325.177 3.03572 3.95785 0
M  V30 3611 H 324.331 1.62586 5.84509 0
M  V30 3612 H 323.07 0.932078 4.7871 0
M  V30 3613 H 322.075 3.21374 4.46093 0
M  V30 3614 H 323.3 3.90869 5.55336 0
M  V30 3615 H 321.246 1.79586 6.3094 0
M  V30 3616 H 321.163 3.47965 6.71161 0
M  V30 3617 H 322.431 2.49861 7.3837 0
M  V30 3618 N 326.66 -1.06551 1.16123 0
M  V30 3619 C 327.59 -2.15935 0.88851 0
M  V30 3620 C 328.571 -1.69306 -0.164135 0
M  V30 3621 O 329.756 -1.94193 -0.0167857 0
M  V30 3622 C 326.886 -3.45149 0.385942 0
M  V30 3623 C 325.84 -4.05271 1.3762 0
M  V30 3624 C 325.166 -5.29664 0.732137 0
M  V30 3625 C 326.466 -4.44355 2.74493 0
M  V30 3626 H 328.16 -2.39006 1.80323 0
M  V30 3627 H 325.706 -1.14866 0.868435 0
M  V30 3628 H 327.659 -4.21004 0.182647 0
M  V30 3629 H 326.383 -3.21689 -0.564274 0
M  V30 3630 H 325.042 -3.3147 1.56599 0
M  V30 3631 H 324.69 -5.02499 -0.224483 0
M  V30 3632 H 324.39 -5.70848 1.39307 0
M  V30 3633 H 325.914 -6.08218 0.538802 0
M  V30 3634 H 327.328 -5.11303 2.59311 0
M  V30 3635 H 325.725 -4.96515 3.37035 0
M  V30 3636 H 326.795 -3.55339 3.29943 0
M  V30 3637 N 328.138 -0.959301 -1.25041 0
M  V30 3638 C 329.415 -0.533805 -1.88175 0
M  V30 3639 C 329.795 0.988994 -1.865 0
M  V30 3640 O 329.143 1.85677 -1.33177 0
M  V30 3641 C 329.353 -1.11575 -3.30684 0
M  V30 3642 C 330.701 -1.19548 -4.07423 0
M  V30 3643 O 331.725 -1.06765 -3.39823 0
M  V30 3644 O 330.584 -1.39656 -5.28354 0
M  V30 3645 H 327.678 -0.176772 -0.807887 0
M  V30 3646 H 330.224 -1.05303 -1.33076 0
M  V30 3647 H 328.996 -2.15884 -3.26358 0
M  V30 3648 H 328.619 -0.580059 -3.93346 0
M  V30 3649 N 329.616 1.39756 -0.72842 0
M  V30 3650 C 330.844 2.04948 -0.283528 0
M  V30 3651 C 331.259 1.54908 1.0793 0
M  V30 3652 O 330.616 0.711135 1.68075 0
M  V30 3653 C 330.667 3.60498 -0.268957 0
M  V30 3654 O 330.388 4.08695 -1.57798 0
M  V30 3655 C 331.889 4.4288 0.192912 0
M  V30 3656 H 329.109 0.659243 -0.125056 0
M  V30 3657 H 331.653 1.78927 -0.990226 0
M  V30 3658 H 329.808 3.85444 0.388801 0
M  V30 3659 H 330.222 5.02977 -1.48709 0
M  V30 3660 H 331.696 5.51791 0.151952 0
M  V30 3661 H 332.173 4.21418 1.23708 0
M  V30 3662 H 332.779 4.23069 -0.435039 0
M  V30 3663 N 331.094 0.475555 1.50254 0
M  V30 3664 C 332.371 -0.139685 1.95101 0
M  V30 3665 C 332.751 -1.56555 1.41611 0
M  V30 3666 O 332.099 -2.19956 0.618993 0
M  V30 3667 C 332.309 -0.0784298 3.48912 0
M  V30 3668 C 333.657 -0.265095 4.23772 0
M  V30 3669 O 334.681 -0.154808 3.55863 0
M  V30 3670 O 333.54 -0.488327 5.44314 0
M  V30 3671 H 330.634 -0.109236 0.819754 0
M  V30 3672 H 333.18 0.536276 1.61004 0
M  V30 3673 H 331.952 0.916918 3.80405 0
M  V30 3674 H 331.575 -0.795655 3.89558 0
M  V30 3675 N 332.573 -1.56217 0.208337 0
M  V30 3676 C 333.82 -1.97949 -0.42692 0
M  V30 3677 C 334.148 -1.09562 -1.60706 0
M  V30 3678 O 333.403 -0.137616 -1.95216 0
M  V30 3679 C 333.702 -3.45441 -0.916797 0
M  V30 3680 C 333.368 -4.50646 0.151391 0
M  V30 3681 C 332.03 -4.79139 0.444867 0
M  V30 3682 C 334.382 -5.13811 0.874492 0
M  V30 3683 C 331.71 -5.68084 1.46619 0
M  V30 3684 C 334.062 -6.03861 1.88506 0
M  V30 3685 C 332.726 -6.30704 2.18559 0
M  V30 3686 H 331.996 -0.724345 -0.156221 0
M  V30 3687 H 334.643 -1.89006 0.308084 0
M  V30 3688 H 332.948 -3.51521 -1.73032 0
M  V30 3689 H 334.645 -3.75094 -1.41794 0
M  V30 3690 H 331.235 -4.28511 -0.0875068 0
M  V30 3691 H 335.419 -4.91879 0.660996 0
M  V30 3692 H 330.675 -5.87151 1.7048 0
M  V30 3693 H 334.849 -6.51861 2.45051 0
M  V30 3694 H 332.476 -6.99424 2.97843 0
M  V30 3695 N 334.051 0.0651679 -1.57465 0
M  V30 3696 C 335.014 1.06117 -2.03155 0
M  V30 3697 C 336.014 1.31204 -0.929632 0
M  V30 3698 O 337.204 1.26813 -1.19432 0
M  V30 3699 C 334.336 2.4032 -2.41783 0
M  V30 3700 H 335.529 0.667231 -2.92383 0
M  V30 3701 H 333.082 0.311075 -1.53173 0
M  V30 3702 H 333.817 2.84532 -1.55601 0
M  V30 3703 H 333.602 2.23451 -3.22199 0
M  V30 3704 H 335.092 3.11898 -2.77685 0
M  V30 3705 N 335.529 1.53961 0.336706 0
M  V30 3706 C 336.759 1.75229 1.09446 0
M  V30 3707 C 337.167 0.494602 1.82621 0
M  V30 3708 O 336.51 -0.543764 1.75468 0
M  V30 3709 C 336.572 2.88288 2.1478 0
M  V30 3710 C 336.236 4.27656 1.6112 0
M  V30 3711 C 337.233 5.08981 1.0599 0
M  V30 3712 C 334.918 4.74161 1.6576 0
M  V30 3713 C 336.912 6.34916 0.562129 0
M  V30 3714 C 334.599 6.00067 1.15595 0
M  V30 3715 C 335.597 6.80278 0.609147 0
M  V30 3716 O 335.285 8.03818 0.114999 0
M  V30 3717 H 335.017 0.588881 0.331956 0
M  V30 3718 H 337.571 2.01614 0.392566 0
M  V30 3719 H 335.801 2.57443 2.88548 0
M  V30 3720 H 337.49 2.97461 2.76174 0
M  V30 3721 H 338.256 4.74213 1.01722 0
M  V30 3722 H 334.135 4.11781 2.07261 0
M  V30 3723 H 337.679 6.9747 0.134668 0
M  V30 3724 H 333.576 6.3433 1.19566 0
M  V30 3725 H 334.344 8.18172 0.231651 0
M  V30 3726 N 337.007 -0.598083 1.45811 0
M  V30 3727 C 337.937 -1.71873 1.58057 0
M  V30 3728 C 338.918 -1.64533 0.431615 0
M  V30 3729 O 340.103 -1.82787 0.65595 0
M  V30 3730 C 337.233 -3.10495 1.55597 0
M  V30 3731 C 336.187 -3.32654 2.69305 0
M  V30 3732 C 335.513 -4.71646 2.51902 0
M  V30 3733 C 336.813 -3.21981 4.11248 0
M  V30 3734 H 338.507 -1.61881 2.51863 0
M  V30 3735 H 336.053 -0.777372 1.21214 0
M  V30 3736 H 338.006 -3.88699 1.6276 0
M  V30 3737 H 336.73 -3.2135 0.583255 0
M  V30 3738 H 335.389 -2.56843 2.61586 0
M  V30 3739 H 335.037 -4.79246 1.52748 0
M  V30 3740 H 334.737 -4.87426 3.2816 0
M  V30 3741 H 336.261 -5.52038 2.60933 0
M  V30 3742 H 337.675 -3.90049 4.20161 0
M  V30 3743 H 336.072 -3.49289 4.87972 0
M  V30 3744 H 337.142 -2.1928 4.32486 0
M  V30 3745 N 338.485 -1.33259 -0.841409 0
M  V30 3746 C 339.715 -1.2742 -1.62628 0
M  V30 3747 C 340.123 0.157604 -1.88542 0
M  V30 3748 O 339.466 1.10938 -1.46419 0
M  V30 3749 C 339.528 -1.97797 -3.00194 0
M  V30 3750 C 339.192 -3.47109 -2.97261 0
M  V30 3751 C 340.189 -4.42358 -2.73159 0
M  V30 3752 C 337.874 -3.89247 -3.17478 0
M  V30 3753 C 339.868 -5.77718 -2.69296 0
M  V30 3754 C 337.555 -5.24713 -3.13241 0
M  V30 3755 C 338.553 -6.1876 -2.89181 0
M  V30 3756 O 338.241 -7.51745 -2.84843 0
M  V30 3757 H 337.973 -0.440436 -0.512827 0
M  V30 3758 H 340.527 -1.76153 -1.05638 0
M  V30 3759 H 338.757 -1.43652 -3.59028 0
M  V30 3760 H 340.446 -1.8549 -3.61038 0
M  V30 3761 H 341.212 -4.11127 -2.57294 0
M  V30 3762 H 337.091 -3.16456 -3.35226 0
M  V30 3763 H 340.635 -6.51097 -2.50436 0
M  V30 3764 H 336.532 -5.55569 -3.28654 0
M  V30 3765 H 337.3 -7.61262 -3.00702 0
M  V30 3766 N 339.963 1.05934 -1.16686 0
M  V30 3767 C 341.188 1.83029 -0.975455 0
M  V30 3768 C 341.613 1.82096 0.471452 0
M  V30 3769 O 340.971 1.22443 1.33706 0
M  V30 3770 C 341.019 3.27372 -1.51195 0
M  V30 3771 O 340.123 4.06054 -0.720701 0
M  V30 3772 H 339.464 0.566194 -0.346872 0
M  V30 3773 H 341.994 1.33541 -1.55009 0
M  V30 3774 H 342.004 3.78186 -1.53099 0
M  V30 3775 H 340.679 3.27366 -2.56523 0
M  V30 3776 H 339.256 3.64812 -0.772458 0
M  V30 3777 N 341.441 0.965919 1.2453 0
M  V30 3778 C 342.718 0.543777 1.87889 0
M  V30 3779 C 343.098 -0.97909 1.87021 0
M  V30 3780 O 342.446 -1.84969 1.3416 0
M  V30 3781 C 342.656 1.13327 3.30088 0
M  V30 3782 C 344.004 1.21707 4.06783 0
M  V30 3783 O 345.028 1.08566 3.39252 0
M  V30 3784 O 343.887 1.42456 5.27606 0
M  V30 3785 H 340.981 0.181054 0.806938 0
M  V30 3786 H 343.527 1.06007 1.32516 0
M  V30 3787 H 342.299 2.17612 3.25209 0
M  V30 3788 H 341.922 0.600911 3.93033 0
M  V30 3789 N 342.919 -1.39368 0.735821 0
M  V30 3790 C 343.849 -2.33234 0.111506 0
M  V30 3791 C 344.83 -1.53954 -0.723334 0
M  V30 3792 O 346.015 -1.82344 -0.668147 0
M  V30 3793 C 343.145 -3.38057 -0.795917 0
M  V30 3794 C 342.099 -4.2795 -0.065172 0
M  V30 3795 C 341.425 -5.23479 -1.08967 0
M  V30 3796 C 342.725 -5.10741 1.09273 0
M  V30 3797 H 344.419 -2.85692 0.895571 0
M  V30 3798 H 341.965 -1.37364 0.432109 0
M  V30 3799 H 343.918 -4.02675 -1.24221 0
M  V30 3800 H 342.642 -2.8404 -1.61211 0
M  V30 3801 H 341.301 -3.64813 0.361511 0
M  V30 3802 H 340.949 -4.65758 -1.89944 0
M  V30 3803 H 340.649 -5.84472 -0.605489 0
M  V30 3804 H 342.173 -5.90974 -1.53565 0
M  V30 3805 H 343.587 -5.68699 0.724841 0
M  V30 3806 H 341.984 -5.8088 1.50659 0
M  V30 3807 H 343.054 -4.45525 1.91404 0
M  V30 3808 N 344.397 -0.483516 -1.5 0
M  V30 3809 C 345.674 0.129337 -1.95172 0
M  V30 3810 C 346.054 1.55802 -1.4244 0
M  V30 3811 O 345.402 2.19625 -0.630649 0
M  V30 3812 C 345.612 0.0599251 -3.48949 0
M  V30 3813 C 346.96 0.242617 -4.23906 0
M  V30 3814 O 347.984 0.135933 -3.55941 0
M  V30 3815 O 346.843 0.459454 -5.44565 0
M  V30 3816 H 343.937 0.104887 -0.820322 0
M  V30 3817 H 346.483 -0.544807 -1.60717 0
M  V30 3818 H 345.255 -0.937079 -3.79914 0
M  V30 3819 H 344.878 0.774984 -3.89974 0
M  V30 3820 N 345.875 1.56104 -0.216619 0
M  V30 3821 C 346.822 2.2007 0.695531 0
M  V30 3822 C 347.792 1.15471 1.19397 0
M  V30 3823 O 348.977 1.43807 1.25396 0
M  V30 3824 C 346.117 2.88073 1.90021 0
M  V30 3825 C 345.23 4.07253 1.44113 0
M  V30 3826 C 344.365 4.63052 2.603 0
M  V30 3827 C 343.404 5.74545 2.11103 0
M  V30 3828 N 342.541 6.24656 3.20545 0
M  V30 3829 H 347.381 2.97655 0.143327 0
M  V30 3830 H 344.918 1.46982 0.0589934 0
M  V30 3831 H 346.876 3.25681 2.60745 0
M  V30 3832 H 345.506 2.13015 2.42538 0
M  V30 3833 H 344.558 3.75164 0.628999 0
M  V30 3834 H 345.87 4.8783 1.04036 0
M  V30 3835 H 345.024 5.03078 3.39113 0
M  V30 3836 H 343.763 3.81628 3.03663 0
M  V30 3837 H 342.768 5.34027 1.3075 0
M  V30 3838 H 343.993 6.57801 1.68746 0
M  V30 3839 H 341.939 5.46148 3.63399 0
M  V30 3840 H 341.856 7.00343 2.84704 0
M  V30 3841 H 343.124 6.69338 3.99508 0
M  V30 3842 N 347.353 -0.0568162 1.57498 0
M  V30 3843 C 348.601 -0.751617 1.87604 0
M  V30 3844 C 348.922 -1.77351 0.81066 0
M  V30 3845 O 348.192 -1.95254 -0.159018 0
M  V30 3846 H 346.772 -0.280583 0.692302 0
M  V30 3847 H 349.434 -0.0293483 1.94878 0
M  V30 3848 H 348.53 -1.25852 2.856 0
M  V30 3849 N 348.832 -1.54138 -0.328536 0
M  V30 3850 C 350.079 -1.72105 -1.06706 0
M  V30 3851 C 350.407 -0.492111 -1.88171 0
M  V30 3852 O 349.662 0.526153 -1.88494 0
M  V30 3853 C 349.961 -2.9457 -2.02393 0
M  V30 3854 C 349.627 -4.29544 -1.37122 0
M  V30 3855 C 348.289 -4.6624 -1.19052 0
M  V30 3856 C 350.641 -5.1333 -0.902331 0
M  V30 3857 C 347.969 -5.84325 -0.527331 0
M  V30 3858 C 350.321 -6.32094 -0.252988 0
M  V30 3859 C 348.985 -6.67473 -0.0600901 0
M  V30 3860 H 348.255 -0.629775 -0.390466 0
M  V30 3861 H 350.902 -1.88372 -0.34473 0
M  V30 3862 H 349.207 -2.72969 -2.81061 0
M  V30 3863 H 350.904 -3.05665 -2.59557 0
M  V30 3864 H 347.494 -4.0067 -1.52188 0
M  V30 3865 H 351.678 -4.855 -1.02974 0
M  V30 3866 H 346.934 -6.103 -0.366634 0
M  V30 3867 H 351.108 -6.96299 0.118366 0
M  V30 3868 H 348.735 -7.58832 0.455828 0
M  V30 3869 N 350.31 0.590341 -1.46126 0
M  V30 3870 C 351.538 1.37504 -1.54597 0
M  V30 3871 C 351.953 1.87897 -0.184447 0
M  V30 3872 O 351.31 1.63192 0.816984 0
M  V30 3873 C 351.361 2.56779 -2.54454 0
M  V30 3874 O 351.082 2.08476 -3.85317 0
M  V30 3875 C 352.583 3.49427 -2.72792 0
M  V30 3876 H 349.803 0.420325 -0.523037 0
M  V30 3877 H 352.347 0.718383 -1.91467 0
M  V30 3878 H 350.502 3.1845 -2.20609 0
M  V30 3879 H 350.916 2.86097 -4.396 0
M  V30 3880 H 352.39 4.29619 -3.466 0
M  V30 3881 H 352.867 4.00876 -1.79429 0
M  V30 3882 H 353.473 2.93598 -3.07702 0
M  V30 3883 N 351.788 1.33704 0.83433 0
M  V30 3884 C 353.199 1.22813 1.4062 0
M  V30 3885 C 353.55 -0.151107 1.95617 0
M  V30 3886 O 352.675 -1.05092 1.89168 0
M  V30 3887 C 353.27 2.22355 2.55624 0
M  V30 3888 C 351.829 2.1529 3.08751 0
M  V30 3889 C 350.976 2.09589 1.8157 0
M  V30 3890 H 353.927 1.45236 0.639702 0
M  V30 3891 H 353.948 1.83391 3.33389 0
M  V30 3892 H 353.46 3.22728 2.15566 0
M  V30 3893 H 351.561 1.18235 3.53343 0
M  V30 3894 H 351.674 3.06038 3.68616 0
M  V30 3895 H 350.038 1.55134 2.02004 0
M  V30 3896 H 350.821 3.11777 1.43701 0
M  V30 3897 N 353.266 -1.05314 1.17247 0
M  V30 3898 C 354.515 -1.77685 0.954521 0
M  V30 3899 C 354.828 -1.88616 -0.518025 0
M  V30 3900 O 356.034 -2.57714 -0.854144 0
M  V30 3901 C 354.49 -3.19402 1.65863 0
M  V30 3902 C 354.098 -3.16605 3.16963 0
M  V30 3903 C 355.842 -3.96237 1.52303 0
M  V30 3904 C 353.749 -4.53103 3.80068 0
M  V30 3905 H 352.679 -0.666 0.353496 0
M  V30 3906 H 355.33 -1.1805 1.40486 0
M  V30 3907 H 353.712 -3.79355 1.13602 0
M  V30 3908 H 354.886 -2.66176 3.76148 0
M  V30 3909 H 353.201 -2.53268 3.30521 0
M  V30 3910 H 355.798 -4.97157 1.96822 0
M  V30 3911 H 356.141 -4.136 0.473401 0
M  V30 3912 H 356.674 -3.42829 2.01775 0
M  V30 3913 H 353.413 -4.40946 4.85023 0
M  V30 3914 H 352.933 -5.03686 3.2567 0
M  V30 3915 H 354.612 -5.22045 3.82202 0
M  V30 3916 N 354.744 -0.972509 -1.24016 0
M  V30 3917 C 355.692 -0.498562 -2.27194 0
M  V30 3918 C 356.686 0.440372 -1.63576 0
M  V30 3919 O 357.892 0.315133 -1.7722 0
M  V30 3920 H 354.267 -0.142775 -0.738322 0
M  V30 3921 H 356.238 -1.38065 -2.64539 0
M  V30 3922 C 354.987 0.191072 -3.47175 0
M  V30 3923 H 354.31 -0.522318 -3.96373 0
M  V30 3924 H 355.75 0.486445 -4.212 0
M  V30 3925 C 354.209 1.41967 -3.05527 0
M  V30 3926 O 354.739 2.51642 -3.13112 0
M  V30 3927 N 352.945 1.28746 -2.60524 0
M  V30 3928 H 352.492 0.395089 -2.54552 0
M  V30 3929 H 352.45 2.11061 -2.33025 0
M  V30 3930 N 356.222 1.38976 -0.743202 0
M  V30 3931 C 357.469 2.00343 -0.294752 0
M  V30 3932 C 357.797 1.58983 1.12047 0
M  V30 3933 O 357.052 0.813809 1.77977 0
M  V30 3934 C 357.351 3.55647 -0.353517 0
M  V30 3935 C 357.017 4.16685 -1.72292 0
M  V30 3936 C 355.679 4.3307 -2.09771 0
M  V30 3937 C 358.031 4.50464 -2.62168 0
M  V30 3938 C 355.359 4.80526 -3.36618 0
M  V30 3939 C 357.711 4.99332 -3.88395 0
M  V30 3940 C 356.375 5.13924 -4.25956 0
M  V30 3941 H 355.645 0.733108 -0.107857 0
M  V30 3942 H 358.292 1.6618 -0.951651 0
M  V30 3943 H 356.597 3.89884 0.386954 0
M  V30 3944 H 358.294 4.00998 0.0117269 0
M  V30 3945 H 354.884 4.04339 -1.42155 0
M  V30 3946 H 359.068 4.37416 -2.3448 0
M  V30 3947 H 354.324 4.90008 -3.65653 0
M  V30 3948 H 358.498 5.2444 -4.58187 0
M  V30 3949 H 356.125 5.50457 -5.2431 0
M  V30 3950 N 357.7 0.491464 1.49741 0
M  V30 3951 C 358.946 -0.0565092 2.02721 0
M  V30 3952 C 359.279 -1.37522 1.37118 0
M  V30 3953 O 358.554 -1.87866 0.503645 0
M  V30 3954 C 358.837 -0.219051 3.59433 0
M  V30 3955 C 358.69 1.12211 4.35579 0
M  V30 3956 C 360.009 -0.964157 4.29409 0
M  V30 3957 H 357.128 -0.0190627 0.736753 0
M  V30 3958 H 359.77 0.641021 1.7886 0
M  V30 3959 H 357.92 -0.813165 3.79895 0
M  V30 3960 H 359.592 1.75437 4.26637 0
M  V30 3961 H 357.835 1.71377 3.98513 0
M  V30 3962 H 358.506 0.961794 5.43556 0
M  V30 3963 H 360.982 -0.460378 4.13545 0
M  V30 3964 H 359.858 -1.04671 5.38828 0
M  V30 3965 H 360.119 -2.00563 3.93988 0
M  V30 3966 N 359.178 -1.55987 0.224894 0
M  V30 3967 C 360.425 -1.9839 -0.4059 0
M  V30 3968 C 360.753 -1.11261 -1.59535 0
M  V30 3969 O 360.008 -0.158314 -1.95059 0
M  V30 3970 C 360.307 -3.46394 -0.880106 0
M  V30 3971 C 359.973 -4.5046 0.19918 0
M  V30 3972 C 358.635 -4.7864 0.495661 0
M  V30 3973 C 360.987 -5.12855 0.928939 0
M  V30 3974 C 358.315 -5.66497 1.52636 0
M  V30 3975 C 360.667 -6.01828 1.949 0
M  V30 3976 C 359.331 -6.28351 2.25236 0
M  V30 3977 H 358.601 -0.725961 -0.148529 0
M  V30 3978 H 361.248 -1.88668 0.328113 0
M  V30 3979 H 359.553 -3.53337 -1.69294 0
M  V30 3980 H 361.25 -3.76577 -1.37808 0
M  V30 3981 H 357.84 -4.28579 -0.0420526 0
M  V30 3982 H 362.024 -4.9115 0.713129 0
M  V30 3983 H 357.28 -5.8531 1.76698 0
M  V30 3984 H 361.454 -6.49225 2.51951 0
M  V30 3985 H 359.081 -6.96226 3.05244 0
M  V30 3986 N 360.656 0.0484629 -1.57525 0
M  V30 3987 C 362.067 0.597486 -1.76881 0
M  V30 3988 C 362.418 1.76664 -0.853475 0
M  V30 3989 O 361.543 2.16357 -0.0433656 0
M  V30 3990 C 362.138 1.09066 -3.20765 0
M  V30 3991 C 360.697 1.58535 -3.41385 0
M  V30 3992 C 359.844 0.514868 -2.72478 0
M  V30 3993 H 362.795 -0.177758 -1.57701 0
M  V30 3994 H 362.816 1.95875 -3.2621 0
M  V30 3995 H 362.328 0.239521 -3.8736 0
M  V30 3996 H 360.429 2.45898 -2.79937 0
M  V30 3997 H 360.542 1.64622 -4.49929 0
M  V30 3998 H 358.906 0.965407 -2.35695 0
M  V30 3999 H 359.689 -0.32648 -3.41744 0
M  V30 4000 N 362.134 1.5431 0.320358 0
M  V30 4001 C 363.082 1.84647 1.4145 0
M  V30 4002 C 364.076 0.718624 1.53402 0
M  V30 4003 O 365.282 0.902335 1.5575 0
M  V30 4004 H 361.657 0.585349 0.472091 0
M  V30 4005 H 363.628 2.7614 1.13089 0
M  V30 4006 C 362.377 2.09341 2.77617 0
M  V30 4007 H 361.7 2.9559 2.69196 0
M  V30 4008 H 363.14 2.3452 3.53237 0
M  V30 4009 C 361.599 0.885939 3.25043 0
M  V30 4010 O 362.129 0.0967891 4.01583 0
M  V30 4011 N 360.335 0.696682 2.82125 0
M  V30 4012 H 359.882 1.34006 2.2 0
M  V30 4013 H 359.84 -0.109712 3.14209 0
M  V30 4014 N 363.613 -0.582584 1.46437 0
M  V30 4015 C 364.543 -1.70187 1.59871 0
M  V30 4016 C 365.524 -1.64066 0.449042 0
M  V30 4017 O 366.709 -1.82081 0.6753 0
M  V30 4018 C 363.839 -3.08827 1.58881 0
M  V30 4019 C 362.793 -3.29779 2.72819 0
M  V30 4020 C 362.119 -4.68947 2.5689 0
M  V30 4021 C 363.419 -3.17601 4.1464 0
M  V30 4022 H 365.113 -1.592 2.53566 0
M  V30 4023 H 362.659 -0.764472 1.22032 0
M  V30 4024 H 364.612 -3.86951 1.66873 0
M  V30 4025 H 363.336 -3.20713 0.617306 0
M  V30 4026 H 361.995 -2.54054 2.64296 0
M  V30 4027 H 361.643 -4.77599 1.57823 0
M  V30 4028 H 361.343 -4.83919 3.33312 0
M  V30 4029 H 362.867 -5.4924 2.66773 0
M  V30 4030 H 364.281 -3.8557 4.24274 0
M  V30 4031 H 362.678 -3.44094 4.9165 0
M  V30 4032 H 363.748 -2.14681 4.34788 0
M  V30 4033 N 365.091 -1.34144 -0.827227 0
M  V30 4034 C 366.502 -1.23557 -1.39966 0
M  V30 4035 C 366.853 0.140731 -1.95695 0
M  V30 4036 O 365.978 1.04087 -1.89723 0
M  V30 4037 C 366.573 -2.23708 -2.54441 0
M  V30 4038 C 365.132 -2.16924 -3.07605 0
M  V30 4039 C 364.279 -2.10549 -1.80456 0
M  V30 4040 H 367.23 -1.45573 -0.631991 0
M  V30 4041 H 367.251 -1.85157 -3.32411 0
M  V30 4042 H 366.763 -3.23866 -2.13851 0
M  V30 4043 H 364.864 -1.20107 -3.52711 0
M  V30 4044 H 364.977 -3.07988 -3.66988 0
M  V30 4045 H 363.341 -1.56203 -2.01178 0
M  V30 4046 H 364.124 -3.12535 -1.42046 0
M  V30 4047 N 366.569 1.04691 -1.17803 0
M  V30 4048 C 367.499 2.14494 -0.92275 0
M  V30 4049 C 368.48 1.69546 0.137179 0
M  V30 4050 O 369.665 1.94195 -0.0141108 0
M  V30 4051 C 366.795 3.44491 -0.440803 0
M  V30 4052 C 365.749 4.03031 -1.4405 0
M  V30 4053 C 365.075 5.28432 -0.81631 0
M  V30 4054 C 366.375 4.39932 -2.81527 0
M  V30 4055 H 368.069 2.36107 -1.84103 0
M  V30 4056 H 365.615 1.1347 -0.886599 0
M  V30 4057 H 367.568 4.2066 -0.249602 0
M  V30 4058 H 366.292 3.22546 0.513025 0
M  V30 4059 H 364.951 3.28937 -1.61853 0
M  V30 4060 H 364.599 5.02792 0.144511 0
M  V30 4061 H 364.299 5.68559 -1.48371 0
M  V30 4062 H 365.823 6.07284 -0.635496 0
M  V30 4063 H 367.237 5.07113 -2.67412 0
M  V30 4064 H 365.634 4.9109 -3.44892 0
M  V30 4065 H 366.704 3.50045 -3.35554 0
M  V30 4066 N 368.047 0.979072 1.23499 0
M  V30 4067 C 368.957 0.526431 2.28617 0
M  V30 4068 C 369.973 -0.418126 1.68901 0
M  V30 4069 O 371.149 -0.288372 1.99325 0
M  V30 4070 C 368.214 -0.165235 3.46306 0
M  V30 4071 C 367.275 0.82056 4.21385 0
M  V30 4072 C 366.508 0.161807 5.33455 0
M  V30 4073 O 366.731 -1.04742 5.60701 0
M  V30 4074 O 365.665 0.859708 5.95729 0
M  V30 4075 H 369.491 1.4006 2.69475 0
M  V30 4076 H 367.076 0.746643 1.29405 0
M  V30 4077 H 368.958 -0.553287 4.17752 0
M  V30 4078 H 367.633 -1.01419 3.07402 0
M  V30 4079 H 366.54 1.25929 3.52268 0
M  V30 4080 H 367.873 1.63828 4.64135 0
M  V30 4081 N 369.525 -1.3858 0.750561 0
M  V30 4082 C 370.475 -2.27795 0.0965949 0
M  V30 4083 C 371.459 -1.45048 -0.696411 0
M  V30 4084 O 372.651 -1.67812 -0.562863 0
M  V30 4085 C 369.78 -3.33894 -0.798085 0
M  V30 4086 C 368.866 -4.241 0.0016067 0
M  V30 4087 N 369.257 -4.95067 1.03647 0
M  V30 4088 C 367.555 -4.45429 -0.225674 0
M  V30 4089 C 368.256 -5.61489 1.52004 0
M  V30 4090 N 367.232 -5.37135 0.835874 0
M  V30 4091 H 371.034 -2.80125 0.889228 0
M  V30 4092 H 368.548 -1.51446 0.586323 0
M  V30 4093 H 370.545 -3.96693 -1.28219 0
M  V30 4094 H 369.205 -2.83123 -1.5897 0
M  V30 4095 H 370.216 -4.98104 1.41819 0
M  V30 4096 H 366.893 -4.05571 -0.990872 0
M  V30 4097 H 368.283 -6.28264 2.38188 0
M  V30 4098 N 371.003 -0.499398 -1.49478 0
M  V30 4099 C 372.233 0.0424839 -2.06556 0
M  V30 4100 C 372.641 1.31514 -1.36018 0
M  V30 4101 O 371.984 1.78555 -0.431718 0
M  V30 4102 C 372.046 0.368074 -3.57611 0
M  V30 4103 C 371.71 -0.806631 -4.49825 0
M  V30 4104 C 372.707 -1.69667 -4.91436 0
M  V30 4105 C 370.392 -1.00498 -4.92144 0
M  V30 4106 C 372.386 -2.76923 -5.74101 0
M  V30 4107 C 370.073 -2.08072 -5.74586 0
M  V30 4108 C 371.071 -2.96119 -6.15469 0
M  V30 4109 O 370.759 -4.01836 -6.96264 0
M  V30 4110 H 370.491 -0.0165165 -0.675798 0
M  V30 4111 H 373.045 -0.695497 -1.93267 0
M  V30 4112 H 371.275 1.15963 -3.68903 0
M  V30 4113 H 372.964 0.848381 -3.96935 0
M  V30 4114 H 373.73 -1.55524 -4.59388 0
M  V30 4115 H 369.609 -0.329036 -4.59824 0
M  V30 4116 H 373.153 -3.45676 -6.05932 0
M  V30 4117 H 369.05 -2.22211 -6.06047 0
M  V30 4118 H 369.818 -3.9917 -7.14567 0
M  V30 4119 N 372.481 1.55866 -0.233164 0
M  V30 4120 C 373.897 1.59133 0.121988 0
M  V30 4121 C 374.097 1.25016 1.58029 0
M  V30 4122 O 373.153 0.990922 2.32243 0
M  V30 4123 C 374.466 2.99932 -0.214792 0
M  V30 4124 C 376.014 3.12601 -0.157971 0
M  V30 4125 C 376.489 4.55597 -0.46859 0
M  V30 4126 N 377.98 4.61305 -0.418585 0
M  V30 4127 C 378.715 5.69903 -0.63227 0
M  V30 4128 N 378.211 6.86819 -0.90835 0
M  V30 4129 N 380.004 5.59264 -0.563913 0
M  V30 4130 H 372.155 1.76315 -1.18434 0
M  V30 4131 H 374.418 0.820093 -0.475553 0
M  V30 4132 H 374.124 3.29588 -1.22739 0
M  V30 4133 H 373.998 3.74327 0.464691 0
M  V30 4134 H 376.385 2.82735 0.845283 0
M  V30 4135 H 376.466 2.40511 -0.871102 0
M  V30 4136 H 376.11 4.86182 -1.46934 0
M  V30 4137 H 376.04 5.25928 0.265865 0
M  V30 4138 H 378.531 3.77297 -0.213368 0
M  V30 4139 H 378.844 7.65507 -1.05919 0
M  V30 4140 H 377.189 6.88536 -0.945673 0
M  V30 4141 H 380.38 4.66802 -0.348372 0
M  V30 4142 H 380.553 6.43831 -0.733847 0
M  V30 4143 N 373.959 -0.0401083 1.57549 0
M  V30 4144 C 374.906 -1.04413 2.05831 0
M  V30 4145 C 375.876 -1.36585 0.945184 0
M  V30 4146 O 377.061 -1.47112 1.21502 0
M  V30 4147 C 374.201 -2.34336 2.53339 0
M  V30 4148 C 373.314 -2.08419 3.78398 0
M  V30 4149 C 372.449 -3.32133 4.14561 0
M  V30 4150 C 371.488 -3.01721 5.3257 0
M  V30 4151 N 370.625 -4.17855 5.64218 0
M  V30 4152 H 375.465 -0.625442 2.91363 0
M  V30 4153 H 373.002 -0.297218 1.44066 0
M  V30 4154 H 374.96 -3.10234 2.78946 0
M  V30 4155 H 373.59 -2.73948 1.7074 0
M  V30 4156 H 372.642 -1.23069 3.59942 0
M  V30 4157 H 373.954 -1.81978 4.64419 0
M  V30 4158 H 373.108 -4.16406 4.41238 0
M  V30 4159 H 371.847 -3.61678 3.2717 0
M  V30 4160 H 370.852 -2.15849 5.05657 0
M  V30 4161 H 372.077 -2.73466 6.21605 0
M  V30 4162 H 370.023 -4.47372 4.79786 0
M  V30 4163 H 369.94 -3.94798 6.44725 0
M  V30 4164 H 371.208 -5.03033 5.95465 0
M  V30 4165 N 375.437 -1.54477 -0.31217 0
M  V30 4166 C 376.853 -1.45442 -0.657185 0
M  V30 4167 C 377.053 -0.63653 -1.91182 0
M  V30 4168 O 376.109 -0.139815 -2.52113 0
M  V30 4169 C 377.422 -2.89287 -0.82058 0
M  V30 4170 C 378.97 -2.9926 -0.917188 0
M  V30 4171 C 379.445 -4.44279 -1.11267 0
M  V30 4172 N 380.936 -4.4794 -1.17914 0
M  V30 4173 C 381.671 -5.57318 -1.34848 0
M  V30 4174 N 381.167 -6.76642 -1.48752 0
M  V30 4175 N 382.96 -5.44986 -1.37647 0
M  V30 4176 H 375.111 -2.06129 0.512313 0
M  V30 4177 H 377.374 -0.933088 0.167485 0
M  V30 4178 H 377.08 -3.51687 0.0302604 0
M  V30 4179 H 376.954 -3.36061 -1.71298 0
M  V30 4180 H 379.341 -2.36981 -1.75852 0
M  V30 4181 H 379.422 -2.558 -0.00101257 0
M  V30 4182 H 379.066 -5.07149 -0.27614 0
M  V30 4183 H 378.996 -4.85359 -2.04289 0
M  V30 4184 H 381.487 -3.61969 -1.08567 0
M  V30 4185 H 381.8 -7.55758 -1.61397 0
M  V30 4186 H 380.145 -6.79529 -1.45828 0
M  V30 4187 H 383.336 -4.50715 -1.26388 0
M  V30 4188 H 383.509 -6.3028 -1.50501 0
M  V30 4189 N 376.915 0.57481 -1.46744 0
M  V30 4190 C 378.192 1.3352 -1.4294 0
M  V30 4191 C 378.572 2.10775 -0.117009 0
M  V30 4192 O 377.92 2.09966 0.901474 0
M  V30 4193 C 378.13 2.25456 -2.66403 0
M  V30 4194 C 379.478 2.87035 -3.12883 0
M  V30 4195 O 380.502 2.35766 -2.67007 0
M  V30 4196 O 379.361 3.80179 -3.92589 0
M  V30 4197 H 376.455 0.600318 -0.568812 0
M  V30 4198 H 379.001 0.595171 -1.58921 0
M  V30 4199 H 377.773 1.67851 -3.53471 0
M  V30 4200 H 377.396 3.06785 -2.52921 0
M  V30 4201 N 378.394 1.34581 0.820102 0
M  V30 4202 C 379.344 1.22943 1.92013 0
M  V30 4203 C 380.328 0.127802 1.60392 0
M  V30 4204 O 381.52 0.357737 1.73347 0
M  V30 4205 C 378.649 0.989938 3.28717 0
M  V30 4206 C 377.735 2.13486 3.66449 0
M  V30 4207 N 378.126 3.38625 3.75722 0
M  V30 4208 C 376.424 2.04573 3.96315 0
M  V30 4209 C 377.125 4.13832 4.08801 0
M  V30 4210 N 376.101 3.42451 4.22171 0
M  V30 4211 H 379.903 2.17771 1.97365 0
M  V30 4212 H 377.417 1.2686 1.01392 0
M  V30 4213 H 379.414 0.887462 4.07345 0
M  V30 4214 H 378.074 0.0503691 3.24661 0
M  V30 4215 H 379.085 3.73143 3.59144 0
M  V30 4216 H 375.762 1.1839 4.00362 0
M  V30 4217 H 377.152 5.21909 4.23156 0
M  V30 4218 N 379.872 -1.04064 1.18357 0
M  V30 4219 C 380.835 -2.10243 0.912707 0
M  V30 4220 C 381.835 -1.60477 -0.101928 0
M  V30 4221 O 383.025 -1.73703 0.131517 0
M  V30 4222 C 380.157 -3.38893 0.369387 0
M  V30 4223 H 381.35 -2.35706 1.85426 0
M  V30 4224 H 378.903 -1.20489 0.995594 0
M  V30 4225 H 379.638 -3.19094 -0.578776 0
M  V30 4226 H 379.423 -3.76331 1.1008 0
M  V30 4227 H 380.913 -4.17128 0.198575 0
M  V30 4228 N 381.35 -0.985608 -1.22978 0
M  V30 4229 C 382.282 -0.488154 -2.23941 0
M  V30 4230 C 383.295 0.41282 -1.57479 0
M  V30 4231 O 384.484 0.216121 -1.77187 0
M  V30 4232 C 381.584 0.312611 -3.37455 0
M  V30 4233 C 380.757 -0.582741 -4.33501 0
M  V30 4234 C 379.816 0.165064 -5.25941 0
M  V30 4235 O 378.842 -0.447077 -5.67442 0
M  V30 4236 N 380.044 1.44953 -5.62111 0
M  V30 4237 H 382.809 -1.3563 -2.67254 0
M  V30 4238 H 380.37 -0.859477 -1.37203 0
M  V30 4239 H 382.362 0.821357 -3.96277 0
M  V30 4240 H 380.932 1.0818 -2.93285 0
M  V30 4241 H 380.152 -1.27225 -3.73105 0
M  V30 4242 H 381.44 -1.19275 -4.94622 0
M  V30 4243 H 380.838 1.9683 -5.30353 0
M  V30 4244 H 379.395 1.90361 -6.23383 0
M  V30 4245 N 382.828 1.3818 -0.7579 0
M  V30 4246 C 383.76 2.2901 -0.0932177 0
M  V30 4247 C 384.773 1.47958 0.679136 0
M  V30 4248 O 385.962 1.70773 0.519514 0
M  V30 4249 C 383.062 3.26953 0.89192 0
M  V30 4250 C 382.235 4.37045 0.176303 0
M  V30 4251 C 381.294 5.15148 1.07281 0
M  V30 4252 O 380.32 5.66616 0.541728 0
M  V30 4253 N 381.522 5.28542 2.40049 0
M  V30 4254 H 384.287 2.86694 -0.873303 0
M  V30 4255 H 381.848 1.50007 -0.609054 0
M  V30 4256 H 383.84 3.76083 1.49479 0
M  V30 4257 H 382.41 2.70136 1.57306 0
M  V30 4258 H 381.63 3.89493 -0.607328 0
M  V30 4259 H 382.918 5.07801 -0.318718 0
M  V30 4260 H 382.316 4.88285 2.85647 0
M  V30 4261 H 380.873 5.8103 2.95376 0
M  V30 4262 N 384.306 0.507319 1.49211 0
M  V30 4263 C 385.269 -0.256763 2.27757 0
M  V30 4264 C 386.269 -0.888287 1.34038 0
M  V30 4265 O 387.459 -0.751841 1.5714 0
M  V30 4266 C 384.591 -1.36905 3.12202 0
M  V30 4267 H 385.784 0.432557 2.96764 0
M  V30 4268 H 383.337 0.262488 1.5408 0
M  V30 4269 H 384.072 -2.09233 2.47775 0
M  V30 4270 H 383.857 -0.921599 3.81115 0
M  V30 4271 H 385.347 -1.9071 3.7151 0
M  V30 4272 N 385.784 -1.5574 0.241426 0
M  V30 4273 C 387.033 -1.97986 -0.385295 0
M  V30 4274 C 387.346 -1.13267 -1.59468 0
M  V30 4275 O 388.552 -1.45501 -2.2922 0
M  V30 4276 C 387.008 -3.52275 -0.736884 0
M  V30 4277 C 386.616 -4.45726 0.450796 0
M  V30 4278 C 388.36 -4.03189 -1.3281 0
M  V30 4279 C 386.267 -5.91352 0.0756662 0
M  V30 4280 H 385.197 -0.739386 -0.147731 0
M  V30 4281 H 387.848 -1.80308 0.340779 0
M  V30 4282 H 386.23 -3.65628 -1.52094 0
M  V30 4283 H 387.404 -4.44131 1.22819 0
M  V30 4284 H 385.719 -4.05264 0.956573 0
M  V30 4285 H 388.316 -5.09505 -1.62201 0
M  V30 4286 H 388.659 -3.50212 -2.25071 0
M  V30 4287 H 389.192 -3.93141 -0.607069 0
M  V30 4288 H 385.931 -6.48354 0.965272 0
M  V30 4289 H 385.451 -5.96095 -0.665635 0
M  V30 4290 H 387.13 -6.46084 -0.344075 0
M  V30 4291 N 387.262 0.0317525 -1.57568 0
M  V30 4292 C 388.487 0.738664 -1.938 0
M  V30 4293 C 388.912 1.68242 -0.841208 0
M  V30 4294 O 388.27 1.80157 0.203267 0
M  V30 4295 C 388.318 1.47417 -3.29091 0
M  V30 4296 O 387.422 2.5872 -3.2115 0
M  V30 4297 H 386.763 0.198856 -0.633524 0
M  V30 4298 H 389.293 -0.0119713 -2.04596 0
M  V30 4299 H 389.303 1.84468 -3.63917 0
M  V30 4300 H 387.978 0.781988 -4.08482 0
M  V30 4301 H 386.555 2.24231 -2.97951 0
M  V30 4302 N 388.74 1.54641 0.303973 0
M  V30 4303 C 389.988 1.73437 1.0375 0
M  V30 4304 C 390.309 0.521449 1.87899 0
M  V30 4305 O 389.579 -0.46432 1.90318 0
M  V30 4306 H 388.159 0.639518 0.386039 0
M  V30 4307 H 390.821 1.91988 0.335675 0
M  V30 4308 H 389.917 2.62235 1.69231 0
M  V30 4309 N 390.218 -0.567019 1.47046 0
M  V30 4310 C 391.446 -1.35027 1.56765 0
M  V30 4311 C 391.861 -1.8758 0.214316 0
M  V30 4312 O 391.218 -1.64471 -0.790919 0
M  V30 4313 C 391.269 -2.52698 2.58507 0
M  V30 4314 O 390.99 -2.0232 3.88585 0
M  V30 4315 C 392.491 -3.45043 2.78316 0
M  V30 4316 H 389.711 -0.41195 0.529658 0
M  V30 4317 H 392.255 -0.687832 1.92585 0
M  V30 4318 H 390.41 -3.149 2.25648 0
M  V30 4319 H 390.824 -2.79068 4.44096 0
M  V30 4320 H 392.298 -4.2405 3.53391 0
M  V30 4321 H 392.775 -3.97971 1.85784 0
M  V30 4322 H 393.381 -2.88665 3.12334 0
M  V30 4323 N 391.696 -1.35014 -0.812953 0
M  V30 4324 C 392.926 -1.30841 -1.59888 0
M  V30 4325 C 393.334 0.117576 -1.88834 0
M  V30 4326 O 392.677 1.07807 -1.48739 0
M  V30 4327 C 392.739 -2.0412 -2.95931 0
M  V30 4328 C 392.403 -3.53336 -2.89832 0
M  V30 4329 C 393.4 -4.48052 -2.63714 0
M  V30 4330 C 391.085 -3.95894 -3.0915 0
M  V30 4331 C 393.079 -5.833 -2.56982 0
M  V30 4332 C 390.766 -5.31239 -3.0204 0
M  V30 4333 C 391.764 -6.24754 -2.75991 0
M  V30 4334 O 391.452 -7.57617 -2.68833 0
M  V30 4335 H 391.184 -0.451215 -0.50337 0
M  V30 4336 H 393.738 -1.78354 -1.01877 0
M  V30 4337 H 391.968 -1.51235 -3.559 0
M  V30 4338 H 393.657 -1.93107 -3.57022 0
M  V30 4339 H 394.423 -4.16492 -2.48515 0
M  V30 4340 H 390.302 -3.23495 -3.28438 0
M  V30 4341 H 393.846 -6.56263 -2.36569 0
M  V30 4342 H 389.743 -5.62415 -3.16796 0
M  V30 4343 H 390.511 -7.67469 -2.84487 0
M  V30 4344 N 393.175 1.03435 -1.18907 0
M  V30 4345 C 394.108 2.11162 -0.86521 0
M  V30 4346 C 395.086 1.6165 0.175473 0
M  V30 4347 O 396.27 1.88425 0.0530129 0
M  V30 4348 C 393.397 3.37423 -0.293868 0
M  V30 4349 C 392.443 4.05795 -1.31274 0
M  V30 4350 S 393.276 4.52027 -2.8711 0
M  V30 4351 C 394.432 5.81513 -2.31504 0
M  V30 4352 H 394.665 2.38308 -1.77754 0
M  V30 4353 H 392.198 1.16295 -1.01562 0
M  V30 4354 H 394.156 4.1049 0.0292572 0
M  V30 4355 H 392.817 3.0838 0.596682 0
M  V30 4356 H 392.01 4.96574 -0.86198 0
M  V30 4357 H 391.612 3.38874 -1.58242 0
M  V30 4358 H 393.904 6.55784 -1.70157 0
M  V30 4359 H 394.847 6.3136 -3.20608 0
M  V30 4360 H 395.255 5.36921 -1.74286 0
M  V30 4361 N 394.653 0.992116 1.22453 0
M  V30 4362 C 395.878 0.685644 1.95739 0
M  V30 4363 C 396.303 -0.743 1.72804 0
M  V30 4364 O 395.661 -1.50778 1.00676 0
M  V30 4365 C 395.709 0.996293 3.46564 0
M  V30 4366 O 394.813 0.0945512 4.12292 0
M  V30 4367 H 394.154 0.256694 0.612376 0
M  V30 4368 H 396.684 1.32888 1.5557 0
M  V30 4369 H 396.694 0.93781 3.97076 0
M  V30 4370 H 395.369 2.03733 3.62582 0
M  V30 4371 H 393.946 0.208451 3.72317 0
M  V30 4372 N 396.131 -1.37776 0.765217 0
M  V30 4373 C 397.061 -2.32945 0.160953 0
M  V30 4374 C 398.042 -1.55454 -0.690516 0
M  V30 4375 O 399.227 -1.83721 -0.629318 0
M  V30 4376 C 396.357 -3.39669 -0.724031 0
M  V30 4377 C 395.311 -4.27992 0.0256173 0
M  V30 4378 C 394.637 -5.25673 -0.978383 0
M  V30 4379 C 395.937 -5.08309 1.20082 0
M  V30 4380 H 397.631 -2.83728 0.955969 0
M  V30 4381 H 395.177 -1.36416 0.461149 0
M  V30 4382 H 397.13 -4.05219 -1.15652 0
M  V30 4383 H 395.854 -2.87396 -1.5515 0
M  V30 4384 H 394.513 -3.63964 0.438812 0
M  V30 4385 H 394.161 -4.69682 -1.80022 0
M  V30 4386 H 393.861 -5.85625 -0.481378 0
M  V30 4387 H 395.385 -5.94098 -1.40995 0
M  V30 4388 H 396.799 -5.67034 0.845307 0
M  V30 4389 H 395.196 -5.77554 1.62947 0
M  V30 4390 H 396.266 -4.41365 2.00811 0
M  V30 4391 N 397.609 -0.515225 -1.4894 0
M  V30 4392 C 398.858 0.0261361 -2.01683 0
M  V30 4393 C 399.171 1.36719 -1.39883 0
M  V30 4394 O 400.377 1.99606 -1.84037 0
M  V30 4395 C 398.833 0.0970111 -3.59769 0
M  V30 4396 C 398.441 -1.23825 -4.30548 0
M  V30 4397 C 400.185 0.587981 -4.20408 0
M  V30 4398 C 398.092 -1.12877 -5.80528 0
M  V30 4399 H 397.022 0.0135398 -0.753878 0
M  V30 4400 H 399.673 -0.656787 -1.71343 0
M  V30 4401 H 398.055 0.844694 -3.86886 0
M  V30 4402 H 399.229 -2.00034 -4.15118 0
M  V30 4403 H 397.544 -1.66379 -3.81716 0
M  V30 4404 H 400.141 0.68763 -5.3026 0
M  V30 4405 H 400.484 1.59026 -3.84729 0
M  V30 4406 H 401.017 -0.103582 -3.97665 0
M  V30 4407 H 397.756 -2.10575 -6.20756 0
M  V30 4408 H 397.276 -0.407799 -5.98412 0
M  V30 4409 H 398.955 -0.813332 -6.41868 0
M  V30 4410 N 399.087 1.5561 -0.249682 0
M  V30 4411 C 400.034 2.21496 0.648694 0
M  V30 4412 C 401.004 1.17977 1.16921 0
M  V30 4413 O 402.189 1.46434 1.22318 0
M  V30 4414 C 399.329 2.92039 1.83868 0
M  V30 4415 C 398.442 4.10219 1.35442 0
M  V30 4416 C 397.577 4.6847 2.50419 0
M  V30 4417 C 396.616 5.78893 1.98869 0
M  V30 4418 N 395.753 6.31315 3.07223 0
M  V30 4419 H 400.593 2.97892 0.0801582 0
M  V30 4420 H 398.13 1.47074 0.0278031 0
M  V30 4421 H 400.088 3.31138 2.53778 0
M  V30 4422 H 398.718 2.18111 2.37965 0
M  V30 4423 H 397.77 3.76413 0.54928 0
M  V30 4424 H 399.082 4.89927 0.936649 0
M  V30 4425 H 398.236 5.10158 3.28366 0
M  V30 4426 H 396.975 3.87984 2.95499 0
M  V30 4427 H 395.98 5.3668 1.19393 0
M  V30 4428 H 397.205 6.61232 1.54755 0
M  V30 4429 H 395.151 5.53733 3.51732 0
M  V30 4430 H 395.068 7.06224 2.69784 0
M  V30 4431 H 396.336 6.77662 3.8522 0
M  V30 4432 N 400.565 -0.0233959 1.57583 0
M  V30 4433 C 401.475 -1.03907 2.10334 0
M  V30 4434 C 402.491 -1.39257 1.04323 0
M  V30 4435 O 403.667 -1.48462 1.36091 0
M  V30 4436 C 400.732 -2.31938 2.57693 0
M  V30 4437 C 399.793 -2.03117 3.78209 0
M  V30 4438 C 399.026 -3.25043 4.233 0
M  V30 4439 O 399.249 -4.35916 3.67876 0
M  V30 4440 O 398.183 -3.10411 5.15683 0
M  V30 4441 H 402.009 -0.620748 2.97288 0
M  V30 4442 H 399.594 -0.240743 1.47448 0
M  V30 4443 H 401.476 -3.07196 2.88458 0
M  V30 4444 H 400.151 -2.73055 1.73847 0
M  V30 4445 H 399.058 -1.25408 3.52454 0
M  V30 4446 H 400.391 -1.66852 4.63056 0
M  V30 4447 N 402.043 -1.548 -0.295768 0
M  V30 4448 C 403.459 -1.4613 -0.641722 0
M  V30 4449 C 403.659 -0.656771 -1.90496 0
M  V30 4450 O 402.715 -0.166547 -2.5195 0
M  V30 4451 C 404.028 -2.90141 -0.789852 0
M  V30 4452 C 405.576 -3.00216 -0.885396 0
M  V30 4453 C 406.051 -4.45434 -1.06548 0
M  V30 4454 N 407.542 -4.49166 -1.13156 0
M  V30 4455 C 408.277 -5.58717 -1.28929 0
M  V30 4456 N 407.773 -6.78182 -1.41567 0
M  V30 4457 N 409.566 -5.46415 -1.31859 0
M  V30 4458 H 401.717 -2.05574 0.534147 0
M  V30 4459 H 403.98 -0.931259 0.177372 0
M  V30 4460 H 403.686 -3.51635 0.0675598 0
M  V30 4461 H 403.56 -3.37859 -1.67724 0
M  V30 4462 H 405.947 -2.38833 -1.73329 0
M  V30 4463 H 406.028 -2.55787 0.0261185 0
M  V30 4464 H 405.672 -5.07413 -0.222335 0
M  V30 4465 H 405.602 -4.87499 -1.9913 0
M  V30 4466 H 408.093 -3.631 -1.04721 0
M  V30 4467 H 408.406 -7.57428 -1.53372 0
M  V30 4468 H 406.751 -6.81037 -1.38613 0
M  V30 4469 H 409.942 -4.5203 -1.21601 0
M  V30 4470 H 410.115 -6.31841 -1.43808 0
M  V30 4471 N 403.521 0.559213 -1.47345 0
M  V30 4472 C 404.937 0.884943 -1.32819 0
M  V30 4473 C 405.137 1.98988 -0.317173 0
M  V30 4474 O 404.193 2.51031 0.272011 0
M  V30 4475 C 405.506 1.28007 -2.72093 0
M  V30 4476 C 407.054 1.39161 -2.80363 0
M  V30 4477 C 407.529 1.82031 -4.20272 0
M  V30 4478 N 409.02 1.89185 -4.22804 0
M  V30 4479 C 409.755 2.2368 -5.27973 0
M  V30 4480 N 409.251 2.56802 -6.43447 0
M  V30 4481 N 411.044 2.24436 -5.15349 0
M  V30 4482 H 403.195 -0.170304 -2.11716 0
M  V30 4483 H 405.458 -0.0135247 -0.947904 0
M  V30 4484 H 405.164 0.542027 -3.47498 0
M  V30 4485 H 405.038 2.23665 -3.03733 0
M  V30 4486 H 407.425 2.12048 -2.05231 0
M  V30 4487 H 407.506 0.41696 -2.52379 0
M  V30 4488 H 407.15 1.09715 -4.95908 0
M  V30 4489 H 407.08 2.80495 -4.45679 0
M  V30 4490 H 409.571 1.65982 -3.39497 0
M  V30 4491 H 409.884 2.82144 -7.19454 0
M  V30 4492 H 408.229 2.54387 -6.46771 0
M  V30 4493 H 411.42 1.97998 -4.24163 0
M  V30 4494 H 411.593 2.50989 -5.97418 0
M  V30 4495 N 404.999 1.35443 0.805782 0
M  V30 4496 C 405.909 1.30546 1.94923 0
M  V30 4497 C 406.925 0.210233 1.72725 0
M  V30 4498 O 408.101 0.43975 1.9654 0
M  V30 4499 C 405.166 1.07782 3.29521 0
M  V30 4500 C 404.227 2.26625 3.64609 0
M  V30 4501 C 403.46 2.04938 4.92784 0
M  V30 4502 O 403.683 1.01624 5.61274 0
M  V30 4503 O 402.617 2.9232 5.26149 0
M  V30 4504 H 406.443 2.26779 2.02002 0
M  V30 4505 H 404.028 1.15823 0.943682 0
M  V30 4506 H 405.91 0.969392 4.10098 0
M  V30 4507 H 404.585 0.146003 3.23371 0
M  V30 4508 H 403.492 2.43033 2.84404 0
M  V30 4509 H 404.825 3.18257 3.75464 0
M  V30 4510 N 406.477 -1.02803 1.19454 0
M  V30 4511 C 407.424 -2.11099 0.933046 0
M  V30 4512 C 408.394 -1.65571 -0.132447 0
M  V30 4513 O 409.579 -1.90797 0.00987576 0
M  V30 4514 C 406.719 -3.41763 0.478747 0
M  V30 4515 C 405.832 -4.00833 1.6111 0
M  V30 4516 C 404.967 -5.19511 1.10825 0
M  V30 4517 C 404.006 -5.70639 2.21445 0
M  V30 4518 N 403.143 -6.80589 1.72461 0
M  V30 4519 H 407.983 -2.32804 1.86028 0
M  V30 4520 H 405.52 -1.14179 0.927441 0
M  V30 4521 H 407.478 -4.16736 0.196745 0
M  V30 4522 H 406.108 -3.20166 -0.411493 0
M  V30 4523 H 405.16 -3.23066 2.00829 0
M  V30 4524 H 406.472 -4.34794 2.4445 0
M  V30 4525 H 405.626 -6.01645 0.781533 0
M  V30 4526 H 404.365 -4.87086 0.244606 0
M  V30 4527 H 403.37 -4.87116 2.54947 0
M  V30 4528 H 404.595 -6.05102 3.08267 0
M  V30 4529 H 402.541 -6.50016 0.884056 0
M  V30 4530 H 402.458 -7.13681 2.49389 0
M  V30 4531 H 403.726 -7.66317 1.42755 0
M  V30 4532 N 407.956 -0.998596 -1.21925 0
M  V30 4533 C 408.904 -0.546641 -2.26085 0
M  V30 4534 C 409.898 0.405576 -1.64473 0
M  V30 4535 O 411.104 0.277471 -1.77849 0
M  V30 4536 H 407.479 -0.158403 -0.735127 0
M  V30 4537 H 409.45 -1.43645 -2.61551 0
M  V30 4538 C 408.199 0.117388 -3.47502 0
M  V30 4539 H 407.522 -0.606277 -3.95176 0
M  V30 4540 H 408.962 0.396993 -4.22137 0
M  V30 4541 C 407.421 1.35455 -3.0847 0
M  V30 4542 O 407.951 2.44944 -3.18379 0
M  V30 4543 N 406.157 1.23191 -2.63196 0
M  V30 4544 H 405.704 0.341006 -2.55333 0
M  V30 4545 H 405.662 2.06071 -2.37449 0
M  V30 4546 N 409.434 1.37368 -0.772513 0
M  V30 4547 C 410.711 1.93839 -0.26188 0
M  V30 4548 C 411.091 1.7061 1.24319 0
M  V30 4549 O 410.439 1.05534 2.02669 0
M  V30 4550 C 410.649 3.43154 -0.636102 0
M  V30 4551 C 411.997 4.20249 -0.606324 0
M  V30 4552 O 413.021 3.5152 -0.575538 0
M  V30 4553 O 411.88 5.42809 -0.634086 0
M  V30 4554 H 408.974 0.82478 -0.0605555 0
M  V30 4555 H 411.52 1.4665 -0.853917 0
M  V30 4556 H 410.292 3.53647 -1.6748 0
M  V30 4557 H 409.915 3.97596 -0.0170516 0
M  V30 4558 N 410.912 0.523116 1.48665 0
M  V30 4559 C 412.161 -0.01544 2.01694 0
M  V30 4560 C 412.474 -1.35975 1.40606 0
M  V30 4561 O 413.68 -1.98627 1.85093 0
M  V30 4562 C 412.136 -0.0779303 3.59816 0
M  V30 4563 C 411.744 1.26107 4.29885 0
M  V30 4564 C 413.488 -0.565678 4.20714 0
M  V30 4565 C 411.395 1.15954 5.79921 0
M  V30 4566 H 410.325 -0.00954163 0.75394 0
M  V30 4567 H 412.976 0.665865 1.70993 0
M  V30 4568 H 411.358 -0.824165 3.87329 0
M  V30 4569 H 412.532 2.02233 4.14051 0
M  V30 4570 H 410.847 1.68401 3.80828 0
M  V30 4571 H 413.444 -0.6595 5.30617 0
M  V30 4572 H 413.787 -1.56984 3.85567 0
M  V30 4573 H 414.32 0.12467 3.97605 0
M  V30 4574 H 411.059 2.13864 6.19631 0
M  V30 4575 H 410.579 0.439529 5.98187 0
M  V30 4576 H 412.258 0.847361 6.41427 0
M  V30 4577 N 412.39 -1.55475 0.257931 0
M  V30 4578 C 413.322 -2.19192 -0.669881 0
M  V30 4579 C 414.335 -1.17148 -1.1305 0
M  V30 4580 O 415.524 -1.43959 -1.05537 0
M  V30 4581 C 412.624 -2.79016 -1.92363 0
M  V30 4582 C 411.797 -4.06586 -1.61265 0
M  V30 4583 C 410.856 -4.50622 -2.7171 0
M  V30 4584 O 409.882 -5.16765 -2.38627 0
M  V30 4585 N 411.084 -4.19325 -4.01431 0
M  V30 4586 H 413.849 -2.99441 -0.124635 0
M  V30 4587 H 411.41 -1.6171 0.0783311 0
M  V30 4588 H 413.402 -3.05427 -2.65511 0
M  V30 4589 H 411.972 -2.0286 -2.37837 0
M  V30 4590 H 411.192 -3.87646 -0.715811 0
M  V30 4591 H 412.48 -4.89737 -1.37967 0
M  V30 4592 H 411.878 -3.66247 -4.31138 0
M  V30 4593 H 410.435 -4.50547 -4.7101 0
M  V30 4594 N 413.868 0.0150385 -1.57593 0
M  V30 4595 C 414.816 1.02958 -2.08572 0
M  V30 4596 C 415.81 1.36554 -1.00246 0
M  V30 4597 O 417.016 1.35295 -1.18724 0
M  V30 4598 H 413.391 0.349619 -0.665786 0
M  V30 4599 H 415.362 0.573932 -2.92829 0
M  V30 4600 C 414.111 2.31752 -2.59203 0
M  V30 4601 H 413.434 2.06765 -3.42182 0
M  V30 4602 H 414.874 3.01053 -2.98568 0
M  V30 4603 C 413.333 3.01692 -1.49945 0
M  V30 4604 O 413.863 3.92083 -0.873704 0
M  V30 4605 N 412.069 2.6326 -1.23056 0
M  V30 4606 H 411.616 1.89838 -1.74125 0
M  V30 4607 H 411.574 3.10372 -0.501685 0
M  V30 4608 N 415.346 1.54954 0.287554 0
M  V30 4609 C 416.762 1.46469 0.633964 0
M  V30 4610 C 416.962 0.666865 1.90145 0
M  V30 4611 O 416.018 0.179906 2.51858 0
M  V30 4612 C 417.331 2.90556 0.774454 0
M  V30 4613 C 418.879 3.00681 0.869462 0
M  V30 4614 C 419.354 4.45993 1.04184 0
M  V30 4615 N 420.845 4.4976 1.10772 0
M  V30 4616 C 421.58 5.59393 1.25964 0
M  V30 4617 N 421.076 6.78923 1.37968 0
M  V30 4618 N 422.869 5.47107 1.28959 0
M  V30 4619 H 415.02 2.05288 -0.545041 0
M  V30 4620 H 417.283 0.930305 -0.182308 0
M  V30 4621 H 416.989 3.51594 -0.086207 0
M  V30 4622 H 416.863 3.38743 1.6593 0
M  V30 4623 H 419.25 2.39749 1.7206 0
M  V30 4624 H 419.331 2.55769 -0.0396831 0
M  V30 4625 H 418.975 5.07524 0.195422 0
M  V30 4626 H 418.905 4.88548 1.96542 0
M  V30 4627 H 421.396 3.63651 1.02794 0
M  V30 4628 H 421.709 7.58231 1.49353 0
M  V30 4629 H 420.054 6.81763 1.34999 0
M  V30 4630 H 423.245 4.52668 1.19202 0
M  V30 4631 H 423.418 6.32595 1.40455 0
M  V30 4632 N 416.824 -0.551391 1.4764 0
M  V30 4633 C 418.101 -1.31229 1.45046 0
M  V30 4634 C 418.481 -2.10563 0.150527 0
M  V30 4635 O 417.829 -2.11374 -0.867956 0
M  V30 4636 C 418.039 -2.21189 2.69956 0
M  V30 4637 C 419.387 -2.82021 3.1741 0
M  V30 4638 O 420.411 -2.31488 2.70724 0
M  V30 4639 O 419.27 -3.73885 3.98588 0
M  V30 4640 H 416.364 -0.591193 0.578291 0
M  V30 4641 H 418.91 -0.569813 1.59847 0
M  V30 4642 H 417.682 -1.62207 3.56096 0
M  V30 4643 H 417.305 -3.02722 2.57769 0
M  V30 4644 N 418.302 -1.35869 -0.798587 0
M  V30 4645 C 419.232 -1.32118 -1.92528 0
M  V30 4646 C 420.213 -0.194209 -1.68988 0
M  V30 4647 O 421.398 -0.390426 -1.90235 0
M  V30 4648 C 418.528 -1.10047 -3.29404 0
M  V30 4649 C 417.482 -2.19471 -3.67446 0
M  V30 4650 C 416.808 -1.82555 -5.02571 0
M  V30 4651 C 418.108 -3.61495 -3.76987 0
M  V30 4652 H 419.802 -2.26394 -1.95924 0
M  V30 4653 H 417.348 -1.08981 -0.94123 0
M  V30 4654 H 419.301 -1.06061 -4.07835 0
M  V30 4655 H 418.025 -0.122195 -3.26371 0
M  V30 4656 H 416.684 -2.22568 -2.91306 0
M  V30 4657 H 416.332 -0.833249 -4.9605 0
M  V30 4658 H 416.032 -2.5581 -5.28995 0
M  V30 4659 H 417.556 -1.80108 -5.83432 0
M  V30 4660 H 418.97 -3.60676 -4.4563 0
M  V30 4661 H 417.367 -4.33577 -4.14887 0
M  V30 4662 H 418.437 -3.97065 -2.78329 0
M  V30 4663 N 419.78 1.02168 -1.19998 0
M  V30 4664 C 421.029 1.75091 -1.0013 0
M  V30 4665 C 421.342 1.89923 0.467835 0
M  V30 4666 O 422.548 2.59888 0.785515 0
M  V30 4667 C 421.004 3.14892 -1.74273 0
M  V30 4668 C 420.612 3.0809 -3.25245 0
M  V30 4669 C 422.356 3.9206 -1.62755 0
M  V30 4670 C 420.263 4.42867 -3.91948 0
M  V30 4671 H 419.193 0.656394 -0.37103 0
M  V30 4672 H 421.844 1.14284 -1.43567 0
M  V30 4673 H 420.226 3.7621 -1.2362 0
M  V30 4674 H 421.4 2.5611 -3.83072 0
M  V30 4675 H 419.715 2.44416 -3.3712 0
M  V30 4676 H 422.312 4.91764 -2.09934 0
M  V30 4677 H 422.655 4.12199 -0.582894 0
M  V30 4678 H 423.188 3.37359 -2.10793 0
M  V30 4679 H 419.927 4.27931 -4.96543 0
M  V30 4680 H 419.447 4.94874 -3.3891 0
M  V30 4681 H 421.126 5.11728 -3.95909 0
M  V30 4682 N 421.258 1.00505 1.21394 0
M  V30 4683 C 422.535 0.603277 1.86064 0
M  V30 4684 C 422.915 -0.919095 1.90042 0
M  V30 4685 O 422.263 -1.80607 1.39977 0
M  V30 4686 C 422.473 1.23772 3.26315 0
M  V30 4687 C 423.821 1.34586 4.02705 0
M  V30 4688 O 424.845 1.19304 3.35626 0
M  V30 4689 O 423.704 1.59169 5.22807 0
M  V30 4690 H 420.798 0.206634 0.800769 0
M  V30 4691 H 423.344 1.1017 1.29076 0
M  V30 4692 H 422.116 2.27848 3.18121 0
M  V30 4693 H 421.739 0.725648 3.90922 0
M  V30 4694 N 422.737 -1.36956 0.779787 0
M  V30 4695 C 423.647 -2.33965 0.172491 0
M  V30 4696 C 424.663 -1.60574 -0.670222 0
M  V30 4697 O 425.839 -1.92617 -0.588263 0
M  V30 4698 C 422.904 -3.39761 -0.690173 0
M  V30 4699 C 421.965 -4.28964 0.169924 0
M  V30 4700 C 421.198 -5.29707 -0.651662 0
M  V30 4701 O 421.421 -5.38238 -1.88827 0
M  V30 4702 O 420.355 -6.01873 -0.0566264 0
M  V30 4703 H 424.181 -2.87647 0.974321 0
M  V30 4704 H 421.766 -1.39258 0.541078 0
M  V30 4705 H 423.648 -4.04471 -1.1824 0
M  V30 4706 H 422.323 -2.88394 -1.47006 0
M  V30 4707 H 421.23 -3.67326 0.708696 0
M  V30 4708 H 422.563 -4.83656 0.913085 0
M  V30 4709 N 424.215 -0.530993 -1.48385 0
M  V30 4710 C 425.145 0.219985 -2.32461 0
M  V30 4711 C 426.126 0.934111 -1.42156 0
M  V30 4712 O 427.311 0.919694 -1.71042 0
M  V30 4713 C 424.441 1.26674 -3.23375 0
M  V30 4714 C 423.395 0.67069 -4.22712 0
M  V30 4715 C 422.721 1.82017 -5.02766 0
M  V30 4716 C 424.021 -0.358268 -5.2107 0
M  V30 4717 H 425.715 -0.48187 -2.95497 0
M  V30 4718 H 423.261 -0.233182 -1.42099 0
M  V30 4719 H 425.214 1.80006 -3.81019 0
M  V30 4720 H 423.938 1.99818 -2.58341 0
M  V30 4721 H 422.597 0.158878 -3.66256 0
M  V30 4722 H 422.245 2.54002 -4.34157 0
M  V30 4723 H 421.945 1.42727 -5.70003 0
M  V30 4724 H 423.469 2.35725 -5.63264 0
M  V30 4725 H 424.883 0.0880081 -5.73232 0
M  V30 4726 H 423.28 -0.66861 -5.96364 0
M  V30 4727 H 424.35 -1.26367 -4.68145 0
M  V30 4728 N 425.693 1.55336 -0.266172 0
M  V30 4729 C 426.626 2.18256 0.666296 0
M  V30 4730 C 427.604 1.14064 1.1588 0
M  V30 4731 O 428.788 1.42546 1.23341 0
M  V30 4732 C 425.915 2.79867 1.90768 0
M  V30 4733 C 424.961 3.97283 1.55141 0
M  V30 4734 S 425.794 5.31694 0.637313 0
M  V30 4735 C 426.95 5.96769 1.88727 0
M  V30 4736 H 427.183 2.97008 0.131647 0
M  V30 4737 H 424.716 1.54317 -0.0504869 0
M  V30 4738 H 426.674 3.15996 2.62025 0
M  V30 4739 H 425.335 2.01025 2.41346 0
M  V30 4740 H 424.528 4.3905 2.4749 0
M  V30 4741 H 424.13 3.6253 0.919113 0
M  V30 4742 H 426.422 6.15458 2.83227 0
M  V30 4743 H 427.365 6.91752 1.51276 0
M  V30 4744 H 427.773 5.26034 2.04814 0
M  V30 4745 N 427.171 -0.0066808 1.57599 0
M  V30 4746 C 428.118 -1.00024 2.08 0
M  V30 4747 C 429.088 -1.34549 0.973943 0
M  V30 4748 O 430.273 -1.44502 1.24595 0
M  V30 4749 C 427.413 -2.2891 2.58252 0
M  V30 4750 C 426.526 -2.00346 3.82734 0
M  V30 4751 C 425.661 -3.23265 4.21513 0
M  V30 4752 C 424.7 -2.90357 5.3885 0
M  V30 4753 N 423.837 -4.05793 5.72954 0
M  V30 4754 H 428.677 -0.563499 2.92624 0
M  V30 4755 H 426.214 -0.266592 1.44664 0
M  V30 4756 H 428.172 -3.04247 2.85464 0
M  V30 4757 H 426.802 -2.70265 1.76512 0
M  V30 4758 H 425.854 -1.15406 3.62471 0
M  V30 4759 H 427.166 -1.72086 4.68175 0
M  V30 4760 H 426.32 -4.06953 4.49971 0
M  V30 4761 H 425.059 -3.54657 3.34768 0
M  V30 4762 H 424.064 -2.05075 5.10122 0
M  V30 4763 H 425.289 -2.60219 6.27266 0
M  V30 4764 H 423.235 -4.37094 4.89167 0
M  V30 4765 H 423.152 -3.81034 6.52954 0
M  V30 4766 H 424.42 -4.90289 6.06001 0
M  V30 4767 N 428.649 -1.55105 -0.279332 0
M  V30 4768 C 429.597 -1.88333 -1.36505 0
M  V30 4769 C 430.591 -0.759043 -1.51443 0
M  V30 4770 O 431.797 -0.943312 -1.53302 0
M  V30 4771 H 428.172 -0.59766 -0.456406 0
M  V30 4772 H 430.143 -2.79041 -1.05728 0
M  V30 4773 C 428.892 -2.16628 -2.7197 0
M  V30 4774 H 428.215 -3.02624 -2.61264 0
M  V30 4775 H 429.655 -2.43803 -3.46895 0
M  V30 4776 C 428.114 -0.971807 -3.22579 0
M  V30 4777 O 428.644 -0.203228 -4.01186 0
M  V30 4778 N 426.85 -0.771238 -2.80179 0
M  V30 4779 H 426.397 -1.39792 -2.1637 0
M  V30 4780 H 426.355 0.0263667 -3.14389 0
M  V30 4781 N 430.127 0.543554 -1.4793 0
M  V30 4782 C 431.352 1.32995 -1.59145 0
M  V30 4783 C 431.777 1.86472 -0.246956 0
M  V30 4784 O 431.135 1.63696 0.779324 0
M  V30 4785 C 431.183 2.46623 -2.63077 0
M  V30 4786 O 430.287 3.49261 -2.19295 0
M  V30 4787 H 429.628 0.394472 -0.534124 0
M  V30 4788 H 432.158 0.655489 -1.93816 0
M  V30 4789 H 432.168 2.93001 -2.83926 0
M  V30 4790 H 430.843 2.07059 -3.60693 0
M  V30 4791 H 429.42 3.09094 -2.08603 0
M  V30 4792 N 431.605 1.3629 0.791371 0
M  V30 4793 C 432.833 1.33562 1.58016 0
M  V30 4794 C 433.248 -0.0835616 1.88615 0
M  V30 4795 O 432.605 -1.0399 1.49974 0
M  V30 4796 C 432.656 2.15517 2.90232 0
M  V30 4797 O 432.377 3.51902 2.60953 0
M  V30 4798 C 433.878 2.20546 3.84544 0
M  V30 4799 H 431.098 0.458226 0.490173 0
M  V30 4800 H 433.642 1.79361 0.982345 0
M  V30 4801 H 431.797 1.73278 3.46487 0
M  V30 4802 H 432.211 3.94644 3.4548 0
M  V30 4803 H 433.685 2.82252 4.74382 0
M  V30 4804 H 434.162 1.20838 4.2225 0
M  V30 4805 H 434.768 2.63013 3.34222 0
M  V30 4806 N 433.083 -1.0153 1.20538 0
M  V30 4807 C 434.313 -1.78487 1.04048 0
M  V30 4808 C 434.721 -1.84631 -0.413292 0
M  V30 4809 O 434.064 -1.29919 -1.29872 0
M  V30 4810 C 434.126 -3.24367 1.55003 0
M  V30 4811 C 433.79 -3.41827 3.0332 0
M  V30 4812 C 434.787 -3.30941 4.00966 0
M  V30 4813 C 432.472 -3.67602 3.42307 0
M  V30 4814 C 434.466 -3.45577 5.35589 0
M  V30 4815 C 432.153 -3.81881 4.77085 0
M  V30 4816 C 433.151 -3.70874 5.73534 0
M  V30 4817 O 432.839 -3.84714 7.05868 0
M  V30 4818 H 432.571 -0.568108 0.366373 0
M  V30 4819 H 435.125 -1.28677 1.60098 0
M  V30 4820 H 433.355 -3.75266 0.933397 0
M  V30 4821 H 435.044 -3.82963 1.34514 0
M  V30 4822 H 435.81 -3.10964 3.72191 0
M  V30 4823 H 431.689 -3.75256 2.67776 0
M  V30 4824 H 435.233 -3.36902 6.10854 0
M  V30 4825 H 431.13 -4.01359 5.0555 0
M  V30 4826 H 431.898 -4.01724 7.13134 0
M  V30 4827 N 434.561 -1.01147 -1.20859 0
M  V30 4828 C 435.508 -0.577354 -2.23462 0
M  V30 4829 C 436.478 0.399922 -1.61214 0
M  V30 4830 O 437.663 0.300515 -1.88419 0
M  V30 4831 C 434.803 0.083372 -3.44999 0
M  V30 4832 C 433.916 -0.937856 -4.21697 0
M  V30 4833 C 433.051 -0.248717 -5.30617 0
M  V30 4834 C 432.09 -1.25705 -5.99053 0
M  V30 4835 N 431.227 -0.594939 -6.99575 0
M  V30 4836 H 436.067 -1.45695 -2.59956 0
M  V30 4837 H 433.604 -0.729428 -1.27741 0
M  V30 4838 H 435.562 0.483535 -4.14388 0
M  V30 4839 H 434.192 0.926645 -3.09214 0
M  V30 4840 H 433.244 -1.45622 -3.51423 0
M  V30 4841 H 434.556 -1.70493 -4.68757 0
M  V30 4842 H 433.71 0.207215 -6.06346 0
M  V30 4843 H 432.449 0.55071 -4.84581 0
M  V30 4844 H 431.454 -1.72343 -5.2209 0
M  V30 4845 H 432.679 -2.05767 -6.47176 0
M  V30 4846 H 430.625 0.184713 -6.5574 0
M  V30 4847 H 430.542 -1.30017 -7.44736 0
M  V30 4848 H 431.81 -0.162427 -7.79331 0
M  V30 4849 N 436.039 1.36541 -0.78704 0
M  V30 4850 C 437.316 1.9355 -0.282424 0
M  V30 4851 C 437.696 1.71919 1.22503 0
M  V30 4852 O 437.044 1.07677 2.01539 0
M  V30 4853 C 437.254 3.4246 -0.672462 0
M  V30 4854 C 438.602 4.19582 -0.650863 0
M  V30 4855 O 439.626 3.50889 -0.612789 0
M  V30 4856 O 438.485 5.42106 -0.691623 0
M  V30 4857 H 435.579 0.824091 -0.0693 0
M  V30 4858 H 438.125 1.45736 -0.869423 0
M  V30 4859 H 436.897 3.51851 -1.71221 0
M  V30 4860 H 436.52 3.97556 -0.0592211 0
M  V30 4861 N 437.518 0.538854 1.48102 0
M  V30 4862 C 438.766 0.00798599 2.02098 0
M  V30 4863 C 439.087 -1.33922 1.41739 0
M  V30 4864 O 438.357 -1.86932 0.585934 0
M  V30 4865 H 436.937 -3.62179e-05 0.747 0
M  V30 4866 H 439.599 0.7047 1.81714 0
M  V30 4867 H 438.695 -0.0937672 3.11959 0
M  V30 4868 N 438.996 -1.55193 0.274407 0
M  V30 4869 C 440.224 -2.03987 -0.345943 0
M  V30 4870 C 440.639 -1.15279 -1.4952 0
M  V30 4871 O 439.996 -0.172759 -1.8168 0
M  V30 4872 C 440.047 -3.51898 -0.827631 0
M  V30 4873 O 439.768 -4.37231 0.275855 0
M  V30 4874 C 441.269 -4.16577 -1.51587 0
M  V30 4875 H 438.489 -0.666335 -0.0789892 0
M  V30 4876 H 441.033 -2.00423 0.406294 0
M  V30 4877 H 439.188 -3.55909 -1.52996 0
M  V30 4878 H 439.602 -5.24415 -0.0943638 0
M  V30 4879 H 441.076 -5.21678 -1.80433 0
M  V30 4880 H 441.553 -3.64707 -2.44716 0
M  V30 4881 H 442.159 -4.16568 -0.857409 0
M  V30 4882 N 440.474 -0.00167713 -1.576 0
M  V30 4883 C 441.421 0.989195 -2.08527 0
M  V30 4884 C 442.391 1.34031 -0.981065 0
M  V30 4885 O 443.576 1.43839 -1.2536 0
M  V30 4886 C 440.716 2.27537 -2.59463 0
M  V30 4887 C 439.829 1.98314 -3.83791 0
M  V30 4888 C 438.964 3.21025 -4.23222 0
M  V30 4889 C 438.003 2.87495 -5.40382 0
M  V30 4890 N 437.14 4.02749 -5.75098 0
M  V30 4891 H 441.98 0.547973 -2.92919 0
M  V30 4892 H 439.517 0.258917 -1.44803 0
M  V30 4893 H 441.475 3.02729 -2.87073 0
M  V30 4894 H 440.105 2.69325 -1.77943 0
M  V30 4895 H 439.157 1.13482 -3.63078 0
M  V30 4896 H 440.469 1.69601 -4.69081 0
M  V30 4897 H 439.623 4.04561 -4.52123 0
M  V30 4898 H 438.362 3.52877 -3.36644 0
M  V30 4899 H 437.367 2.02367 -5.11202 0
M  V30 4900 H 438.592 2.56889 -6.28637 0
M  V30 4901 H 436.538 4.34494 -4.91478 0
M  V30 4902 H 436.455 3.77566 -6.54966 0
M  V30 4903 H 437.723 4.87068 -6.08592 0
M  V30 4904 N 441.952 1.55251 0.271103 0
M  V30 4905 C 442.885 1.83191 1.36075 0
M  V30 4906 C 443.863 0.685091 1.47463 0
M  V30 4907 O 445.047 0.928292 1.64058 0
M  V30 4908 C 442.174 1.99521 2.73696 0
M  V30 4909 C 441.22 3.22081 2.79582 0
M  V30 4910 S 442.053 4.79388 2.38636 0
M  V30 4911 C 443.209 4.98693 3.78228 0
M  V30 4912 H 443.442 2.75327 1.12171 0
M  V30 4913 H 440.975 1.47046 0.470833 0
M  V30 4914 H 442.933 2.09613 3.52948 0
M  V30 4915 H 441.594 1.0827 2.9485 0
M  V30 4916 H 440.787 3.304 3.80594 0
M  V30 4917 H 440.389 3.10589 2.08352 0
M  V30 4918 H 442.681 4.84551 4.73515 0
M  V30 4919 H 443.624 6.00738 3.7486 0
M  V30 4920 H 444.032 4.26665 3.69618 0
M  V30 4921 N 443.43 -0.535701 1.48216 0
M  V30 4922 C 444.658 -1.31671 1.59594 0
M  V30 4923 C 445.073 -1.87083 0.254056 0
M  V30 4924 O 444.43 -1.66112 -0.755854 0
M  V30 4925 C 444.481 -2.47158 2.63809 0
M  V30 4926 O 444.202 -1.94032 3.92789 0
M  V30 4927 C 445.703 -3.39062 2.85573 0
M  V30 4928 H 442.923 -0.400623 0.538277 0
M  V30 4929 H 445.467 -0.646827 1.94001 0
M  V30 4930 H 443.622 -3.10043 2.32276 0
M  V30 4931 H 444.036 -2.69585 4.49916 0
M  V30 4932 H 445.51 -4.16459 3.62306 0
M  V30 4933 H 445.987 -3.93941 1.94184 0
M  V30 4934 H 446.593 -2.81975 3.18387 0
M  V30 4935 N 444.908 -1.36708 -0.784132 0
M  V30 4936 C 446.185 -1.21776 -1.53069 0
M  V30 4937 C 446.565 0.193876 -2.10208 0
M  V30 4938 O 445.913 1.20012 -1.94446 0
M  V30 4939 C 446.123 -2.30395 -2.62143 0
M  V30 4940 C 447.471 -2.67325 -3.29882 0
M  V30 4941 O 448.495 -2.29478 -2.7243 0
M  V30 4942 O 447.354 -3.32485 -4.33724 0
M  V30 4943 H 444.448 -0.474459 -0.677361 0
M  V30 4944 H 446.994 -1.48454 -0.82216 0
M  V30 4945 H 445.766 -3.2498 -2.17953 0
M  V30 4946 H 445.389 -2.05112 -3.40609 0
M  V30 4947 N 446.386 1.0089 -1.21074 0
M  V30 4948 C 447.318 2.09737 -0.924291 0
M  V30 4949 C 448.331 1.62546 0.0909809 0
M  V30 4950 O 449.52 1.77942 -0.141021 0
M  V30 4951 C 446.62 3.36922 -0.36559 0
M  V30 4952 C 445.793 4.13216 -1.43426 0
M  V30 4953 C 444.852 5.18696 -0.885496 0
M  V30 4954 O 443.878 5.47176 -1.56801 0
M  V30 4955 N 445.08 5.79718 0.301227 0
M  V30 4956 H 447.845 2.34895 -1.8613 0
M  V30 4957 H 445.406 1.17341 -1.11546 0
M  V30 4958 H 447.398 4.04697 0.0158407 0
M  V30 4959 H 445.968 3.08952 0.476149 0
M  V30 4960 H 445.188 3.40301 -1.9897 0
M  V30 4961 H 446.476 4.60967 -2.15376 0
M  V30 4962 H 445.874 5.58926 0.872849 0
M  V30 4963 H 444.431 6.48804 0.624211 0
M  V30 4964 N 447.864 1.01787 1.20321 0
M  V30 4965 C 448.774 0.598898 2.26827 0
M  V30 4966 C 449.79 -0.36418 1.70146 0
M  V30 4967 O 450.966 -0.224812 2.00141 0
M  V30 4968 C 448.031 -0.0549769 3.46656 0
M  V30 4969 C 447.092 0.954205 4.18561 0
M  V30 4970 C 446.325 0.331439 5.3267 0
M  V30 4971 O 446.548 -0.86851 5.63749 0
M  V30 4972 O 445.482 1.0488 5.92692 0
M  V30 4973 H 449.308 1.48562 2.64883 0
M  V30 4974 H 446.893 0.787434 1.26964 0
M  V30 4975 H 448.775 -0.420102 4.19301 0
M  V30 4976 H 447.45 -0.915876 3.10473 0
M  V30 4977 H 446.357 1.37072 3.48083 0
M  V30 4978 H 447.69 1.78511 4.58688 0
M  V30 4979 N 449.342 -1.36122 0.79427 0
M  V30 4980 C 450.591 -1.98361 0.365464 0
M  V30 4981 C 450.904 -1.6374 -1.06997 0
M  V30 4982 O 452.11 -2.19251 -1.60129 0
M  V30 4983 C 450.566 -3.54821 0.602496 0
M  V30 4984 C 450.174 -3.98362 2.04967 0
M  V30 4985 C 451.918 -4.2383 0.238437 0
M  V30 4986 C 449.825 -5.47619 2.2331 0
M  V30 4987 H 448.755 -0.742193 0.13291 0
M  V30 4988 H 451.406 -1.55354 0.976589 0
M  V30 4989 H 449.788 -3.95922 -0.078409 0
M  V30 4990 H 450.962 -3.68447 2.76737 0
M  V30 4991 H 449.277 -3.42206 2.37243 0
M  V30 4992 H 451.874 -5.33529 0.353705 0
M  V30 4993 H 452.217 -4.08264 -0.814006 0
M  V30 4994 H 452.75 -3.88108 0.872769 0
M  V30 4995 H 449.489 -5.68138 3.26955 0
M  V30 4996 H 449.009 -5.79145 1.5605 0
M  V30 4997 H 450.688 -6.13911 2.0426 0
M  V30 4998 N 450.82 -0.546701 -1.47814 0
M  V30 4999 C 451.783 0.196287 -2.28358 0
M  V30 5000 C 452.783 0.852437 -1.36346 0
M  V30 5001 O 453.973 0.709913 -1.59078 0
M  V30 5002 C 451.105 1.28579 -3.15722 0
M  V30 5003 H 452.298 -0.511086 -2.95513 0
M  V30 5004 H 449.851 -0.303248 -1.5333 0
M  V30 5005 H 450.586 2.0259 -2.53235 0
M  V30 5006 H 450.371 0.820229 -3.83425 0
M  V30 5007 H 451.861 1.80793 -3.76435 0
M  V30 5008 N 452.299 1.55045 -0.282633 0
M  V30 5009 C 453.247 2.24254 0.617478 0
M  V30 5010 C 454.241 1.24215 1.15183 0
M  V30 5011 O 455.447 1.42123 1.10459 0
M  V30 5012 H 451.822 0.719801 0.217693 0
M  V30 5013 H 453.793 2.98398 0.0110076 0
M  V30 5014 C 452.542 2.98281 1.78672 0
M  V30 5015 H 451.865 3.75053 1.38475 0
M  V30 5016 H 453.305 3.50017 2.393 0
M  V30 5017 C 451.764 2.04184 2.67975 0
M  V30 5018 O 452.294 1.59792 3.6855 0
M  V30 5019 N 450.5 1.70526 2.35307 0
M  V30 5020 H 450.047 2.06821 1.53567 0
M  V30 5021 H 450.005 1.07839 2.95327 0
M  V30 5022 N 453.777 0.010035 1.57597 0
M  V30 5023 C 454.707 -0.976857 2.12084 0
M  V30 5024 C 455.688 -1.35191 1.03235 0
M  V30 5025 O 456.873 -1.43389 1.3097 0
M  V30 5026 C 454.003 -2.26548 2.63236 0
M  V30 5027 C 452.957 -2.03175 3.76701 0
M  V30 5028 C 452.283 -3.38138 4.14206 0
M  V30 5029 C 453.583 -1.38625 5.03568 0
M  V30 5030 H 455.277 -0.523145 2.94794 0
M  V30 5031 H 452.823 -0.250195 1.4181 0
M  V30 5032 H 454.776 -2.95952 2.99984 0
M  V30 5033 H 453.5 -2.74051 1.77661 0
M  V30 5034 H 452.159 -1.36195 3.40362 0
M  V30 5035 H 451.807 -3.83363 3.25641 0
M  V30 5036 H 451.507 -3.23312 4.90656 0
M  V30 5037 H 453.031 -4.08841 4.53521 0
M  V30 5038 H 454.445 -1.98 5.38023 0
M  V30 5039 H 452.842 -1.34256 5.84889 0
M  V30 5040 H 453.912 -0.356722 4.83586 0
M  V30 5041 N 455.255 -1.55392 -0.262866 0
M  V30 5042 C 456.185 -1.91978 -1.32917 0
M  V30 5043 C 457.166 -0.7828 -1.51017 0
M  V30 5044 O 458.351 -1.04178 -1.63892 0
M  V30 5045 C 455.481 -2.20055 -2.68687 0
M  V30 5046 C 454.435 -3.35854 -2.65304 0
M  V30 5047 C 453.761 -3.49435 -4.04721 0
M  V30 5048 C 455.061 -4.71977 -2.23685 0
M  V30 5049 H 456.755 -2.81292 -1.02544 0
M  V30 5050 H 454.301 -1.3534 -0.491846 0
M  V30 5051 H 456.254 -2.44237 -3.43404 0
M  V30 5052 H 454.978 -1.27551 -3.00663 0
M  V30 5053 H 453.637 -3.11655 -1.93045 0
M  V30 5054 H 453.285 -2.54379 -4.33936 0
M  V30 5055 H 452.985 -4.27297 -4.0335 0
M  V30 5056 H 454.509 -3.7592 -4.81161 0
M  V30 5057 H 455.923 -4.95637 -2.88127 0
M  V30 5058 H 454.32 -5.52828 -2.33456 0
M  V30 5059 H 455.39 -4.70115 -1.18827 0
M  V30 5060 N 456.733 0.527833 -1.48498 0
M  V30 5061 C 457.982 1.28003 -1.55878 0
M  V30 5062 C 458.295 1.9414 -0.238577 0
M  V30 5063 O 459.501 2.7083 -0.190643 0
M  V30 5064 C 457.957 2.32272 -2.74914 0
M  V30 5065 C 457.565 1.72196 -4.13585 0
M  V30 5066 C 459.309 3.08488 -2.91608 0
M  V30 5067 C 457.216 2.74417 -5.23879 0
M  V30 5068 H 456.146 0.481413 -0.580308 0
M  V30 5069 H 458.797 0.557195 -1.74836 0
M  V30 5070 H 457.179 3.07601 -2.49395 0
M  V30 5071 H 458.353 1.03041 -4.49132 0
M  V30 5072 H 456.668 1.08464 -4.02025 0
M  V30 5073 H 459.265 3.84879 -3.71177 0
M  V30 5074 H 459.608 3.64481 -2.01145 0
M  V30 5075 H 460.141 2.40274 -3.17038 0
M  V30 5076 H 456.88 2.23242 -6.16314 0
M  V30 5077 H 456.4 3.41893 -4.92818 0
M  V30 5078 H 458.079 3.37362 -5.52083 0
M  V30 5079 N 458.211 1.37122 0.776871 0
M  V30 5080 C 459.459 1.31787 1.53221 0
M  V30 5081 C 459.78 -0.0987589 1.9475 0
M  V30 5082 O 459.05 -1.0417 1.65908 0
M  V30 5083 H 457.63 0.484839 0.568278 0
M  V30 5084 H 460.292 1.71556 0.924917 0
M  V30 5085 H 459.388 1.95355 2.43398 0
M  V30 5086 N 459.689 -1.00246 1.21608 0
M  V30 5087 C 460.935 -1.74319 1.03638 0
M  V30 5088 C 461.268 -1.89408 -0.428749 0
M  V30 5089 O 460.543 -1.43026 -1.3181 0
M  V30 5090 C 460.826 -3.15431 1.73711 0
M  V30 5091 C 460.679 -3.08049 3.27759 0
M  V30 5092 C 461.998 -4.14407 1.48173 0
M  V30 5093 H 459.117 -0.632741 0.377899 0
M  V30 5094 H 461.759 -1.16853 1.49818 0
M  V30 5095 H 459.909 -3.64493 1.34452 0
M  V30 5096 H 461.581 -2.66681 3.76403 0
M  V30 5097 H 459.824 -2.45088 3.57931 0
M  V30 5098 H 460.495 -4.07862 3.71958 0
M  V30 5099 H 462.971 -3.74061 1.82258 0
M  V30 5100 H 461.847 -5.11279 1.99713 0
M  V30 5101 H 462.108 -4.40174 0.412273 0
M  V30 5102 N 461.167 -1.02423 -1.1978 0
M  V30 5103 C 462.097 -0.62157 -2.25075 0
M  V30 5104 C 463.078 0.367148 -1.6609 0
M  V30 5105 O 464.263 0.250892 -1.92573 0
M  V30 5106 C 461.393 0.0331826 -3.47284 0
M  V30 5107 C 460.347 -0.877323 -4.18912 0
M  V30 5108 C 459.673 -0.0879296 -5.34628 0
M  V30 5109 C 460.973 -2.18892 -4.74219 0
M  V30 5110 H 462.667 -1.50179 -2.59011 0
M  V30 5111 H 460.213 -0.723547 -1.24502 0
M  V30 5112 H 462.166 0.326488 -4.20133 0
M  V30 5113 H 460.89 0.948164 -3.12534 0
M  V30 5114 H 459.549 -1.15475 -3.47938 0
M  V30 5115 H 459.197 0.828941 -4.96123 0
M  V30 5116 H 458.897 -0.694359 -5.83483 0
M  V30 5117 H 460.421 0.198743 -6.10276 0
M  V30 5118 H 461.835 -1.95746 -5.38847 0
M  V30 5119 H 460.232 -2.74686 -5.33542 0
M  V30 5120 H 461.302 -2.84674 -3.92541 0
M  V30 5121 N 462.645 1.35699 -0.801477 0
M  V30 5122 C 463.578 2.2768 -0.153922 0
M  V30 5123 C 464.556 1.47832 0.67709 0
M  V30 5124 O 465.74 1.77104 0.645474 0
M  V30 5125 C 462.867 3.2943 0.786986 0
M  V30 5126 C 461.913 4.26485 0.0362447 0
M  V30 5127 S 462.746 5.19573 -1.2963 0
M  V30 5128 C 463.902 6.24866 -0.359705 0
M  V30 5129 H 464.135 2.82254 -0.9338 0
M  V30 5130 H 461.668 1.42421 -0.596283 0
M  V30 5131 H 463.626 3.8855 1.32436 0
M  V30 5132 H 462.287 2.73745 1.54021 0
M  V30 5133 H 461.48 4.98378 0.750668 0
M  V30 5134 H 461.082 3.71508 -0.431017 0
M  V30 5135 H 463.374 6.75957 0.456954 0
M  V30 5136 H 464.317 7.00307 -1.04768 0
M  V30 5137 H 464.725 5.64484 0.0423274 0
M  V30 5138 N 464.123 0.554532 1.47522 0
M  V30 5139 C 465.371 0.0294208 2.02079 0
M  V30 5140 C 465.692 -1.32411 1.43151 0
M  V30 5141 O 464.962 -1.863 0.605728 0
M  V30 5142 H 463.542 0.00788672 0.746958 0
M  V30 5143 H 466.204 0.723934 1.80956 0
M  V30 5144 H 465.3 -0.0606745 3.12041 0
M  V30 5145 N 465.601 -1.54893 0.290851 0
M  V30 5146 C 466.849 -1.99538 -0.320756 0
M  V30 5147 C 467.17 -1.18075 -1.55188 0
M  V30 5148 O 466.44 -0.274162 -1.93972 0
M  V30 5149 H 465.02 -0.737052 -0.121507 0
M  V30 5150 H 467.682 -1.90755 0.399832 0
M  V30 5151 H 466.778 -3.06282 -0.599802 0
M  V30 5152 N 467.08 -0.0183926 -1.57589 0
M  V30 5153 C 468.012 0.995557 -2.06449 0
M  V30 5154 C 469.025 1.29556 -0.985849 0
M  V30 5155 O 470.214 1.2621 -1.26227 0
M  V30 5156 C 467.314 2.32572 -2.46502 0
M  V30 5157 C 466.487 2.21245 -3.77319 0
M  V30 5158 C 465.546 3.37104 -4.04039 0
M  V30 5159 O 464.572 3.14468 -4.74445 0
M  V30 5160 N 465.774 4.60553 -3.53372 0
M  V30 5161 H 468.539 0.578746 -2.94059 0
M  V30 5162 H 466.1 0.168603 -1.6102 0
M  V30 5163 H 468.092 3.08887 -2.61478 0
M  V30 5164 H 466.662 2.65931 -1.64315 0
M  V30 5165 H 465.882 1.29723 -3.72244 0
M  V30 5166 H 467.17 2.10868 -4.63047 0
M  V30 5167 H 466.568 4.81839 -2.96391 0
M  V30 5168 H 465.125 5.34072 -3.73644 0
M  V30 5169 N 468.558 1.5553 0.254621 0
M  V30 5170 C 469.508 1.86057 1.31783 0
M  V30 5171 C 470.492 0.720827 1.4385 0
M  V30 5172 O 471.684 0.982586 1.47222 0
M  V30 5173 C 468.813 2.15203 2.67475 0
M  V30 5174 C 467.899 3.35484 2.59444 0
M  V30 5175 N 468.29 4.54945 2.2104 0
M  V30 5176 C 466.588 3.38441 2.90472 0
M  V30 5177 C 467.289 5.3707 2.23453 0
M  V30 5178 N 466.265 4.75936 2.62652 0
M  V30 5179 H 470.067 2.75953 1.01129 0
M  V30 5180 H 467.581 1.55653 0.463255 0
M  V30 5181 H 469.578 2.35235 3.44195 0
M  V30 5182 H 468.238 1.26601 2.99002 0
M  V30 5183 H 469.249 4.8071 1.92712 0
M  V30 5184 H 465.926 2.60087 3.2659 0
M  V30 5185 H 467.316 6.42626 1.96166 0
M  V30 5186 N 470.036 -0.519951 1.48776 0
M  V30 5187 C 471.264 -1.29971 1.60982 0
M  V30 5188 C 471.679 -1.86803 0.273885 0
M  V30 5189 O 471.036 -1.66904 -0.738193 0
M  V30 5190 C 471.087 -2.44346 2.66415 0
M  V30 5191 O 470.808 -1.89855 3.94825 0
M  V30 5192 C 472.309 -3.36014 2.89153 0
M  V30 5193 H 469.529 -0.394891 0.542496 0
M  V30 5194 H 472.073 -0.626214 1.94676 0
M  V30 5195 H 470.228 -3.07562 2.35552 0
M  V30 5196 H 470.642 -2.64798 4.5275 0
M  V30 5197 H 472.116 -4.12593 3.66703 0
M  V30 5198 H 472.593 -3.91859 1.98351 0
M  V30 5199 H 473.199 -2.78582 3.21359 0
M  V30 5200 N 471.514 -1.37532 -0.769588 0
M  V30 5201 C 472.739 -1.36231 -1.56384 0
M  V30 5202 C 473.164 0.0495849 -1.88035 0
M  V30 5203 O 472.522 1.02723 -1.49391 0
M  V30 5204 C 472.57 -2.20986 -2.84952 0
M  V30 5205 O 471.674 -1.61597 -3.79421 0
M  V30 5206 H 471.015 -0.465387 -0.473615 0
M  V30 5207 H 473.545 -1.81085 -0.952342 0
M  V30 5208 H 473.555 -2.34277 -3.34034 0
M  V30 5209 H 472.23 -3.23612 -2.61243 0
M  V30 5210 H 470.807 -1.57359 -3.38072 0
M  V30 5211 N 472.992 0.995999 -1.22138 0
M  V30 5212 C 473.955 2.06711 -0.990109 0
M  V30 5213 C 474.955 1.60744 0.0422978 0
M  V30 5214 O 476.145 1.73095 -0.195895 0
M  V30 5215 C 473.277 3.37288 -0.49491 0
M  V30 5216 H 474.47 2.28661 -1.94047 0
M  V30 5217 H 472.023 1.16711 -1.03963 0
M  V30 5218 H 472.758 3.21022 0.459948 0
M  V30 5219 H 472.543 3.71986 -1.23971 0
M  V30 5220 H 474.033 4.16103 -0.353253 0
M  V30 5221 N 474.47 1.03057 1.19235 0
M  V30 5222 C 475.433 0.617418 2.20727 0
M  V30 5223 C 476.433 -0.319856 1.57587 0
M  V30 5224 O 477.623 -0.106633 1.73873 0
M  V30 5225 C 474.755 -0.096296 3.40764 0
M  V30 5226 H 475.948 1.51544 2.58794 0
M  V30 5227 H 473.501 0.821949 1.32942 0
M  V30 5228 H 474.236 -1.00859 3.08217 0
M  V30 5229 H 474.021 0.577217 3.87828 0
M  V30 5230 H 475.511 -0.372219 4.15938 0
M  V30 5231 N 475.948 -1.35272 0.808662 0
M  V30 5232 C 477.176 -2.02946 0.402537 0
M  V30 5233 C 477.591 -1.60937 -0.987147 0
M  V30 5234 O 476.948 -0.807917 -1.63643 0
M  V30 5235 C 476.999 -3.58317 0.47868 0
M  V30 5236 O 476.72 -3.98799 1.81358 0
M  V30 5237 C 478.221 -4.43251 0.0656281 0
M  V30 5238 H 475.441 -0.650831 0.163279 0
M  V30 5239 H 477.985 -1.72849 1.09286 0
M  V30 5240 H 476.14 -3.87055 -0.163415 0
M  V30 5241 H 476.554 -4.93451 1.77781 0
M  V30 5242 H 478.028 -5.51738 0.170017 0
M  V30 5243 H 478.505 -4.27913 -0.989278 0
M  V30 5244 H 479.111 -4.19813 0.68096 0
M  V30 5245 N 477.426 -0.562348 -1.47226 0
M  V30 5246 C 478.651 -0.0432632 -2.07355 0
M  V30 5247 C 479.076 1.24332 -1.41149 0
M  V30 5248 O 478.434 1.74603 -0.488226 0
M  V30 5249 C 478.482 0.130288 -3.60365 0
M  V30 5250 O 477.586 1.19166 -3.94808 0
M  V30 5251 H 476.927 -0.0536334 -0.66183 0
M  V30 5252 H 479.457 -0.779495 -1.89169 0
M  V30 5253 H 479.467 0.342881 -4.06557 0
M  V30 5254 H 478.142 -0.809389 -4.07948 0
M  V30 5255 H 476.719 0.959153 -3.60354 0
M  V30 5256 N 478.904 1.54736 -0.299062 0
M  V30 5257 C 479.867 2.22127 0.565012 0
M  V30 5258 C 480.867 1.20669 1.06281 0
M  V30 5259 O 482.057 1.45417 0.959145 0
M  V30 5260 C 479.189 2.90611 1.78208 0
M  V30 5261 H 480.382 2.99891 -0.0237448 0
M  V30 5262 H 477.935 1.5622 -0.0498788 0
M  V30 5263 H 478.67 2.16921 2.41072 0
M  V30 5264 H 478.455 3.64984 1.43281 0
M  V30 5265 H 479.945 3.42026 2.396 0
M  V30 5266 N 480.382 0.0267497 1.57577 0
M  V30 5267 C 481.628 -0.647596 1.92815 0
M  V30 5268 C 481.983 -1.69872 0.903396 0
M  V30 5269 O 481.276 -1.91429 -0.0808881 0
M  V30 5270 C 481.47 -1.30914 3.3256 0
M  V30 5271 C 481.299 -0.323621 4.48534 0
M  V30 5272 C 480.069 0.0756607 5.05243 0
M  V30 5273 C 482.267 0.42112 5.12573 0
M  V30 5274 N 480.249 1.0566 6.04739 0
M  V30 5275 C 481.62 1.25589 6.07147 0
M  V30 5276 C 483.675 0.482077 4.95561 0
M  V30 5277 C 482.378 2.1461 6.86538 0
M  V30 5278 C 484.404 1.35962 5.75559 0
M  V30 5279 C 483.766 2.18217 6.69747 0
M  V30 5280 H 479.865 -0.209357 0.753454 0
M  V30 5281 H 482.449 0.0933695 1.94476 0
M  V30 5282 H 480.62 -2.02026 3.31723 0
M  V30 5283 H 482.352 -1.94033 3.55153 0
M  V30 5284 H 479.107 -0.298294 4.7266 0
M  V30 5285 H 479.531 1.54324 6.59176 0
M  V30 5286 H 484.173 -0.139609 4.22569 0
M  V30 5287 H 481.891 2.77835 7.58837 0
M  V30 5288 H 485.477 1.41105 5.6443 0
M  V30 5289 H 484.357 2.85022 7.3057 0
M  V30 5290 N 481.861 -1.55662 -0.24637 0
M  V30 5291 C 483.101 -1.79283 -0.981685 0
M  V30 5292 C 483.465 -0.596356 -1.82504 0
M  V30 5293 O 484.666 -0.711342 -2.59217 0
M  V30 5294 C 482.937 -3.07648 -1.819 0
M  V30 5295 S 484.496 -3.52491 -2.61334 0
M  V30 5296 H 481.314 -0.629676 -0.330196 0
M  V30 5297 H 483.916 -1.93901 -0.249498 0
M  V30 5298 H 482.62 -3.92794 -1.18915 0
M  V30 5299 H 482.151 -2.95768 -2.59393 0
M  V30 5300 H 484.166 -3.13866 -3.84321 0
M  V30 5301 N 483.339 0.512053 -1.4905 0
M  V30 5302 C 484.269 1.62365 -1.67809 0
M  V30 5303 C 485.25 1.61737 -0.526809 0
M  V30 5304 O 486.435 1.78651 -0.761404 0
M  V30 5305 C 483.565 3.00895 -1.73435 0
M  V30 5306 C 482.519 3.16387 -2.88242 0
M  V30 5307 C 481.845 4.56157 -2.78971 0
M  V30 5308 C 483.145 2.97457 -4.29321 0
M  V30 5309 H 484.839 1.46921 -2.60873 0
M  V30 5310 H 482.385 0.705379 -1.2554 0
M  V30 5311 H 484.338 3.78549 -1.85145 0
M  V30 5312 H 483.062 3.17403 -0.769619 0
M  V30 5313 H 481.721 2.41155 -2.76116 0
M  V30 5314 H 481.369 4.69525 -1.8043 0
M  V30 5315 H 481.069 4.67465 -3.5602 0
M  V30 5316 H 482.593 5.35886 -2.92675 0
M  V30 5317 H 484.007 3.64888 -4.42187 0
M  V30 5318 H 482.404 3.20245 -5.07507 0
M  V30 5319 H 483.474 1.93692 -4.44535 0
M  V30 5320 N 484.817 1.37938 0.762283 0
M  V30 5321 C 485.747 1.37176 1.88958 0
M  V30 5322 C 486.728 0.238945 1.68413 0
M  V30 5323 O 487.913 0.440726 1.89133 0
M  V30 5324 C 485.043 1.18742 3.2637 0
M  V30 5325 C 483.997 2.29136 3.61498 0
M  V30 5326 C 483.323 1.95816 4.97554 0
M  V30 5327 C 484.623 3.71363 3.6727 0
M  V30 5328 H 486.317 2.31509 1.89853 0
M  V30 5329 H 483.863 1.11438 0.912005 0
M  V30 5330 H 485.816 1.16837 4.04879 0
M  V30 5331 H 484.54 0.208683 3.25933 0
M  V30 5332 H 483.199 2.30213 2.85303 0
M  V30 5333 H 482.847 0.964475 4.93667 0
M  V30 5334 H 482.547 2.69745 5.22026 0
M  V30 5335 H 484.071 1.95513 5.78452 0
M  V30 5336 H 485.485 3.72364 4.35911 0
M  V30 5337 H 483.882 4.44425 4.03245 0
M  V30 5338 H 484.952 4.04305 2.67704 0
M  V30 5339 N 486.295 -0.989507 1.22664 0
M  V30 5340 C 487.245 -2.06478 0.967005 0
M  V30 5341 C 488.229 -1.60682 -0.0836374 0
M  V30 5342 O 489.421 -1.76541 0.127322 0
M  V30 5343 C 486.55 -3.38861 0.550313 0
M  V30 5344 C 485.636 -3.9128 1.63587 0
M  V30 5345 N 486.027 -4.16884 2.86429 0
M  V30 5346 C 484.325 -4.1972 1.50834 0
M  V30 5347 C 485.026 -4.5954 3.56648 0
M  V30 5348 N 484.002 -4.63434 2.84131 0
M  V30 5349 H 487.804 -2.24219 1.90008 0
M  V30 5350 H 485.318 -1.17153 1.12467 0
M  V30 5351 H 487.315 -4.15465 0.345612 0
M  V30 5352 H 485.975 -3.22518 -0.375822 0
M  V30 5353 H 486.986 -4.04976 3.22823 0
M  V30 5354 H 483.663 -4.1243 0.648643 0
M  V30 5355 H 485.053 -4.87944 4.61909 0
M  V30 5356 N 487.773 -1.03688 -1.18687 0
M  V30 5357 C 488.703 -0.645407 -2.24403 0
M  V30 5358 C 489.684 0.349511 -1.66471 0
M  V30 5359 O 490.869 0.230453 -1.92828 0
M  V30 5360 C 487.999 -0.00365337 -3.473 0
M  V30 5361 C 486.953 -0.921705 -4.17958 0
M  V30 5362 C 486.279 -0.144629 -5.34504 0
M  V30 5363 C 487.579 -2.23909 -4.71871 0
M  V30 5364 H 489.273 -1.52917 -2.57404 0
M  V30 5365 H 486.819 -0.736711 -1.23728 0
M  V30 5366 H 488.772 0.281908 -4.20456 0
M  V30 5367 H 487.496 0.914963 -3.13522 0
M  V30 5368 H 486.155 -1.19159 -3.46694 0
M  V30 5369 H 485.803 0.776274 -4.96974 0
M  V30 5370 H 485.503 -0.756206 -5.82714 0
M  V30 5371 H 487.027 0.134004 -6.10453 0
M  V30 5372 H 488.441 -2.0145 -5.36741 0
M  V30 5373 H 486.838 -2.8033 -5.30599 0
M  V30 5374 H 487.908 -2.88822 -3.895 0
M  V30 5375 N 489.251 1.34841 -0.815825 0
M  V30 5376 C 490.214 2.27959 -0.238185 0
M  V30 5377 C 491.214 1.49983 0.579816 0
M  V30 5378 O 492.404 1.69617 0.396953 0
M  V30 5379 C 489.536 3.34314 0.666876 0
M  V30 5380 H 490.729 2.80558 -1.05958 0
M  V30 5381 H 488.282 1.44852 -0.587156 0
M  V30 5382 H 489.017 2.86916 1.5116 0
M  V30 5383 H 488.802 3.92014 0.0819106 0
M  V30 5384 H 490.292 4.0379 1.06506 0
M  V30 5385 N 490.729 0.570148 1.46925 0
M  V30 5386 C 491.639 -0.173061 2.33961 0
M  V30 5387 C 492.655 -0.898825 1.48987 0
M  V30 5388 O 493.831 -0.864825 1.81887 0
M  V30 5389 C 490.896 -1.18177 3.25937 0
M  V30 5390 C 489.957 -0.462041 4.26806 0
M  V30 5391 C 489.19 -1.4227 5.14388 0
M  V30 5392 O 489.413 -2.65842 5.04662 0
M  V30 5393 O 488.347 -0.940127 5.94513 0
M  V30 5394 H 492.173 0.541216 2.98839 0
M  V30 5395 H 489.758 0.330647 1.45695 0
M  V30 5396 H 491.64 -1.76372 3.82715 0
M  V30 5397 H 490.315 -1.87774 2.63671 0
M  V30 5398 H 489.222 0.161429 3.73752 0
M  V30 5399 H 490.555 0.192719 4.91823 0
M  V30 5400 N 492.207 -1.54576 0.307264 0
M  V30 5401 C 493.623 -1.59534 -0.0459251 0
M  V30 5402 C 493.823 -1.32414 -1.51884 0
M  V30 5403 O 492.879 -1.1006 -2.27251 0
M  V30 5404 C 494.192 -2.98566 0.357649 0
M  V30 5405 C 495.74 -3.11491 0.306937 0
M  V30 5406 C 496.215 -4.52842 0.685427 0
M  V30 5407 N 497.706 -4.58782 0.638203 0
M  V30 5408 C 498.441 -5.66238 0.903458 0
M  V30 5409 N 497.937 -6.81703 1.23501 0
M  V30 5410 N 499.73 -5.55937 0.830102 0
M  V30 5411 H 491.881 -1.70464 1.26712 0
M  V30 5412 H 494.144 -0.79647 0.514139 0
M  V30 5413 H 493.85 -3.23356 1.38325 0
M  V30 5414 H 493.724 -3.76117 -0.285565 0
M  V30 5415 H 496.111 -2.86446 -0.709424 0
M  V30 5416 H 496.192 -2.36081 0.984861 0
M  V30 5417 H 495.836 -4.78618 1.69963 0
M  V30 5418 H 495.766 -5.26598 -0.0146346 0
M  V30 5419 H 498.257 -3.75849 0.393138 0
M  V30 5420 H 498.57 -7.59582 1.42322 0
M  V30 5421 H 496.915 -6.8324 1.27311 0
M  V30 5422 H 500.106 -4.64608 0.570693 0
M  V30 5423 H 500.279 -6.39597 1.04019 0
M  V30 5424 N 493.685 -0.035106 -1.57561 0
M  V30 5425 C 495.096 0.502885 -1.798 0
M  V30 5426 C 495.447 1.71892 -0.945921 0
M  V30 5427 O 494.572 2.15822 -0.157991 0
M  V30 5428 C 495.167 0.919097 -3.26095 0
M  V30 5429 C 493.726 1.40216 -3.49308 0
M  V30 5430 C 492.873 0.369709 -2.74824 0
M  V30 5431 H 495.824 -0.261102 -1.56537 0
M  V30 5432 H 495.845 1.78308 -3.36135 0
M  V30 5433 H 495.357 0.0338526 -3.88085 0
M  V30 5434 H 493.458 2.30714 -2.92578 0
M  V30 5435 H 493.571 1.40541 -4.58023 0
M  V30 5436 H 491.935 0.839113 -2.40481 0
M  V30 5437 H 492.718 -0.507173 -3.39533 0
M  V30 5438 N 495.163 1.55791 0.238111 0
M  V30 5439 C 496.44 1.68798 0.98826 0
M  V30 5440 C 496.82 0.577562 2.03045 0
M  V30 5441 O 496.168 -0.41778 2.24648 0
M  V30 5442 C 496.378 3.09454 1.61367 0
M  V30 5443 C 497.726 3.68335 2.11221 0
M  V30 5444 O 498.75 3.1231 1.71292 0
M  V30 5445 O 497.609 4.6657 2.84561 0
M  V30 5446 H 494.703 0.686881 0.460568 0
M  V30 5447 H 497.249 1.68118 0.231202 0
M  V30 5448 H 496.021 3.81726 0.860295 0
M  V30 5449 H 495.644 3.14182 2.4367 0
M  V30 5450 N 496.642 -0.504142 1.49319 0
M  V30 5451 C 497.888 -1.26033 1.58882 0
M  V30 5452 C 498.221 -1.92268 0.273274 0
M  V30 5453 O 497.496 -1.80567 -0.72291 0
M  V30 5454 C 497.779 -2.32976 2.7458 0
M  V30 5455 C 497.632 -1.71263 4.1592 0
M  V30 5456 C 498.951 -3.34561 2.85932 0
M  V30 5457 H 496.07 -0.456863 0.578312 0
M  V30 5458 H 498.712 -0.558965 1.81592 0
M  V30 5459 H 496.862 -2.92796 2.55348 0
M  V30 5460 H 498.534 -1.15294 4.4666 0
M  V30 5461 H 496.777 -1.01686 4.21714 0
M  V30 5462 H 497.448 -2.48816 4.92742 0
M  V30 5463 H 499.924 -2.84727 3.0343 0
M  V30 5464 H 498.8 -4.06754 3.68568 0
M  V30 5465 H 499.061 -3.96695 1.95154 0
M  V30 5466 N 498.12 -1.38341 -0.754957 0
M  V30 5467 C 499.052 -1.31347 -1.87831 0
M  V30 5468 C 500.065 -0.225955 -1.61224 0
M  V30 5469 O 501.254 -0.48341 -1.7183 0
M  V30 5470 C 498.354 -1.01201 -3.23437 0
M  V30 5471 C 497.527 -2.20834 -3.77559 0
M  V30 5472 C 496.586 -1.87454 -4.91678 0
M  V30 5473 O 495.612 -2.59934 -5.06382 0
M  V30 5474 N 496.814 -0.828682 -5.74555 0
M  V30 5475 H 499.579 -2.28147 -1.94342 0
M  V30 5476 H 497.14 -1.32184 -0.934828 0
M  V30 5477 H 499.132 -0.769249 -3.97322 0
M  V30 5478 H 497.702 -0.132011 -3.12321 0
M  V30 5479 H 496.922 -2.61184 -2.95256 0
M  V30 5480 H 498.21 -3.00678 -4.10451 0
M  V30 5481 H 497.608 -0.227591 -5.65242 0
M  V30 5482 H 496.165 -0.645802 -6.48593 0
M  V30 5483 N 499.598 0.982988 -1.23187 0
M  V30 5484 C 500.508 2.10907 -1.02739 0
M  V30 5485 C 501.524 1.73979 0.0273188 0
M  V30 5486 O 502.7 2.00702 -0.16757 0
M  V30 5487 C 499.765 3.41142 -0.618304 0
M  V30 5488 C 498.826 3.92112 -1.74777 0
M  V30 5489 C 498.059 5.16131 -1.3581 0
M  V30 5490 O 498.282 5.6989 -0.241201 0
M  V30 5491 O 497.216 5.61103 -2.17824 0
M  V30 5492 H 501.042 2.31046 -1.97108 0
M  V30 5493 H 498.627 1.09284 -1.01869 0
M  V30 5494 H 500.509 4.19488 -0.400982 0
M  V30 5495 H 499.184 3.2234 0.296421 0
M  V30 5496 H 498.091 3.14895 -2.0197 0
M  V30 5497 H 499.424 4.15364 -2.64071 0
M  V30 5498 N 501.076 1.04316 1.18135 0
M  V30 5499 C 501.986 0.646876 2.25505 0
M  V30 5500 C 503.002 -0.328008 1.7088 0
M  V30 5501 O 504.178 -0.182309 2.00573 0
M  V30 5502 C 501.243 0.0185664 3.46695 0
M  V30 5503 C 500.304 1.04277 4.16443 0
M  V30 5504 C 499.537 0.444352 5.31847 0
M  V30 5505 O 499.76 -0.748735 5.65465 0
M  V30 5506 O 498.694 1.17428 5.90334 0
M  V30 5507 H 502.52 1.54147 2.61672 0
M  V30 5508 H 500.105 0.814188 1.25265 0
M  V30 5509 H 501.987 -0.331068 4.20097 0
M  V30 5510 H 500.662 -0.849814 3.12346 0
M  V30 5511 H 499.569 1.44425 3.45098 0
M  V30 5512 H 500.902 1.882 4.54798 0
M  V30 5513 N 502.554 -1.34406 0.822964 0
M  V30 5514 C 503.484 -2.32052 0.259608 0
M  V30 5515 C 504.465 -1.58243 -0.623961 0
M  V30 5516 O 505.65 -1.86224 -0.55083 0
M  V30 5517 C 502.78 -3.42434 -0.579314 0
M  V30 5518 C 501.734 -4.27499 0.20712 0
M  V30 5519 C 501.06 -5.29349 -0.754547 0
M  V30 5520 C 502.36 -5.02758 1.41533 0
M  V30 5521 H 504.054 -2.79418 1.07545 0
M  V30 5522 H 501.6 -1.34338 0.518593 0
M  V30 5523 H 503.553 -4.0976 -0.983612 0
M  V30 5524 H 502.277 -2.93717 -1.4282 0
M  V30 5525 H 500.936 -3.61776 0.592787 0
M  V30 5526 H 500.584 -4.76895 -1.59939 0
M  V30 5527 H 500.284 -5.8714 -0.232561 0
M  V30 5528 H 501.808 -5.99544 -1.1567 0
M  V30 5529 H 503.222 -5.62938 1.08504 0
M  V30 5530 H 501.619 -5.70123 1.87296 0
M  V30 5531 H 502.689 -4.32451 2.1935 0
M  V30 5532 N 504.032 -0.577932 -1.46621 0
M  V30 5533 C 505.262 -0.0670668 -2.06491 0
M  V30 5534 C 505.67 1.24119 -1.42798 0
M  V30 5535 O 505.013 1.76016 -0.525759 0
M  V30 5536 C 505.075 0.177995 -3.59059 0
M  V30 5537 C 504.739 -1.04394 -4.44917 0
M  V30 5538 C 505.736 -1.95479 -4.81751 0
M  V30 5539 C 503.421 -1.26444 -4.86125 0
M  V30 5540 C 505.415 -3.06965 -5.58615 0
M  V30 5541 C 503.102 -2.38237 -5.62749 0
M  V30 5542 C 504.1 -3.28327 -5.98908 0
M  V30 5543 O 503.788 -4.38179 -6.73984 0
M  V30 5544 H 503.52 -0.0523159 -0.673973 0
M  V30 5545 H 506.074 -0.796966 -1.89308 0
M  V30 5546 H 504.304 0.962451 -3.74531 0
M  V30 5547 H 505.993 0.636782 -4.00874 0
M  V30 5548 H 506.759 -1.79657 -4.50498 0
M  V30 5549 H 502.638 -0.572316 -4.57434 0
M  V30 5550 H 506.182 -3.77309 -5.86757 0
M  V30 5551 H 502.079 -2.54023 -5.93416 0
M  V30 5552 H 502.847 -4.36486 -6.92403 0
M  V30 5553 N 505.51 1.54411 -0.315457 0
M  V30 5554 C 506.442 2.21527 0.588067 0
M  V30 5555 C 507.455 1.21263 1.08624 0
M  V30 5556 O 508.644 1.47777 1.00121 0
M  V30 5557 C 505.744 2.85963 1.81875 0
M  V30 5558 C 504.917 4.12291 1.46063 0
M  V30 5559 C 503.976 4.60396 2.54799 0
M  V30 5560 O 503.002 5.25265 2.19283 0
M  V30 5561 N 504.204 4.33935 3.85591 0
M  V30 5562 H 506.969 2.99697 0.013414 0
M  V30 5563 H 504.53 1.61308 -0.138295 0
M  V30 5564 H 506.522 3.15071 2.53993 0
M  V30 5565 H 505.092 2.11548 2.30144 0
M  V30 5566 H 504.312 3.90036 0.571445 0
M  V30 5567 H 505.6 4.9452 1.19695 0
M  V30 5568 H 504.998 3.81996 4.17248 0
M  V30 5569 H 503.555 4.67718 4.53964 0
M  V30 5570 N 506.988 0.0434614 1.5754 0
M  V30 5571 C 507.898 -0.94893 2.14552 0
M  V30 5572 C 508.914 -1.34707 1.10136 0
M  V30 5573 O 510.09 -1.42557 1.42266 0
M  V30 5574 C 507.155 -2.208 2.67298 0
M  V30 5575 C 506.216 -1.86893 3.86484 0
M  V30 5576 C 505.449 -3.06797 4.36705 0
M  V30 5577 O 505.672 -4.19921 3.86034 0
M  V30 5578 O 504.606 -2.8826 5.28384 0
M  V30 5579 H 508.432 -0.494099 2.99654 0
M  V30 5580 H 506.017 -0.177989 1.48336 0
M  V30 5581 H 507.899 -2.94686 3.01228 0
M  V30 5582 H 506.574 -2.65436 1.85272 0
M  V30 5583 H 505.481 -1.10347 3.57455 0
M  V30 5584 H 506.814 -1.47062 4.69716 0
M  V30 5585 N 508.466 -1.55915 -0.229846 0
M  V30 5586 C 509.398 -1.88209 -1.30805 0
M  V30 5587 C 510.411 -0.769672 -1.43457 0
M  V30 5588 O 511.6 -1.04792 -1.44502 0
M  V30 5589 C 508.7 -2.06829 -2.68468 0
M  V30 5590 C 507.873 -3.37798 -2.77869 0
M  V30 5591 C 506.932 -3.45952 -3.96489 0
M  V30 5592 O 505.958 -4.19043 -3.85216 0
M  V30 5593 N 507.16 -2.76488 -5.10426 0
M  V30 5594 H 509.925 -2.81286 -1.03431 0
M  V30 5595 H 507.486 -1.5636 -0.41991 0
M  V30 5596 H 509.478 -2.09608 -3.46189 0
M  V30 5597 H 508.048 -1.20416 -2.88477 0
M  V30 5598 H 507.268 -3.4719 -1.86689 0
M  V30 5599 H 508.556 -4.24091 -2.81113 0
M  V30 5600 H 507.954 -2.16868 -5.2248 0
M  V30 5601 H 506.511 -2.84938 -5.8622 0
M  V30 5602 N 509.944 0.496216 -1.49584 0
M  V30 5603 C 510.877 1.61508 -1.61215 0
M  V30 5604 C 511.855 1.55927 -0.461045 0
M  V30 5605 O 513.039 1.75914 -0.677231 0
M  V30 5606 C 510.166 3.00035 -1.57152 0
M  V30 5607 C 509.212 3.23861 -2.77518 0
M  V30 5608 S 510.045 3.06466 -4.39134 0
M  V30 5609 C 511.201 4.4738 -4.37724 0
M  V30 5610 H 511.434 1.51398 -2.55863 0
M  V30 5611 H 508.967 0.681727 -1.38535 0
M  V30 5612 H 510.925 3.7991 -1.55494 0
M  V30 5613 H 509.586 3.07556 -0.637834 0
M  V30 5614 H 508.779 4.25 -2.70908 0
M  V30 5615 H 508.381 2.51716 -2.76614 0
M  V30 5616 H 510.673 5.39556 -4.09738 0
M  V30 5617 H 511.616 4.59038 -5.39156 0
M  V30 5618 H 512.024 4.28283 -3.67742 0
M  V30 5619 N 511.423 1.38739 0.74761 0
M  V30 5620 C 512.839 1.20067 1.05148 0
M  V30 5621 C 513.039 0.0534835 2.01429 0
M  V30 5622 O 512.095 -0.59886 2.45296 0
M  V30 5623 C 513.408 2.52957 1.62584 0
M  V30 5624 C 514.956 2.59692 1.74726 0
M  V30 5625 C 515.431 3.92772 2.35573 0
M  V30 5626 N 516.922 3.94343 2.42997 0
M  V30 5627 C 517.657 4.9408 2.90985 0
M  V30 5628 N 517.153 6.04214 3.38965 0
M  V30 5629 N 518.946 4.81466 2.9008 0
M  V30 5630 H 511.097 2.12121 0.108808 0
M  V30 5631 H 513.36 0.941491 0.110899 0
M  V30 5632 H 513.066 3.37389 0.993051 0
M  V30 5633 H 512.94 2.71779 2.61565 0
M  V30 5634 H 515.327 1.75651 2.3713 0
M  V30 5635 H 515.408 2.44731 0.744326 0
M  V30 5636 H 515.052 4.77238 1.738 0
M  V30 5637 H 514.982 4.05046 3.36519 0
M  V30 5638 H 517.473 3.14799 2.0907 0
M  V30 5639 H 517.786 6.76241 3.74056 0
M  V30 5640 H 516.131 6.07825 3.37007 0
M  V30 5641 H 519.322 3.94535 2.51912 0
M  V30 5642 H 519.495 5.59344 3.27166 0
M  V30 5643 N 512.901 -0.976442 1.23707 0
M  V30 5644 C 514.147 -1.72081 1.07312 0
M  V30 5645 C 514.48 -1.90275 -0.388476 0
M  V30 5646 O 513.755 -1.4579 -1.28746 0
M  V30 5647 C 514.038 -3.11675 1.80363 0
M  V30 5648 C 513.891 -3.01027 3.3422 0
M  V30 5649 C 515.21 -4.1117 1.5693 0
M  V30 5650 H 512.329 -0.624583 0.391236 0
M  V30 5651 H 514.971 -1.13649 1.52263 0
M  V30 5652 H 513.121 -3.61559 1.42153 0
M  V30 5653 H 514.793 -2.58637 3.81975 0
M  V30 5654 H 513.036 -2.3744 3.63049 0
M  V30 5655 H 513.707 -3.9988 3.80525 0
M  V30 5656 H 516.183 -3.7011 1.90151 0
M  V30 5657 H 515.059 -5.06928 2.10513 0
M  V30 5658 H 515.32 -4.392 0.505548 0
M  V30 5659 N 514.379 -1.04941 -1.1758 0
M  V30 5660 C 515.309 -0.669172 -2.23706 0
M  V30 5661 C 516.29 0.331835 -1.66832 0
M  V30 5662 O 517.475 0.209988 -1.93061 0
M  V30 5663 C 514.605 -0.0404889 -3.47276 0
M  V30 5664 C 513.559 -0.965983 -4.16957 0
M  V30 5665 C 512.885 -0.201312 -5.34321 0
M  V30 5666 C 514.185 -2.28902 -4.69469 0
M  V30 5667 H 515.879 -1.55639 -2.55767 0
M  V30 5668 H 513.425 -0.749793 -1.22939 0
M  V30 5669 H 515.378 0.237298 -4.20731 0
M  V30 5670 H 514.102 0.881658 -3.14475 0
M  V30 5671 H 512.761 -1.22829 -3.45411 0
M  V30 5672 H 512.409 0.723519 -4.97769 0
M  V30 5673 H 512.109 -0.817968 -5.81879 0
M  V30 5674 H 513.633 0.0692499 -6.10561 0
M  V30 5675 H 515.047 -2.07132 -5.34574 0
M  V30 5676 H 513.444 -2.85942 -5.27596 0
M  V30 5677 H 514.514 -2.92937 -3.86414 0
M  V30 5678 N 515.857 1.33968 -0.830081 0
M  V30 5679 C 516.805 2.31301 -0.245435 0
M  V30 5680 C 517.799 1.57734 0.617762 0
M  V30 5681 O 519.005 1.72674 0.508303 0
M  V30 5682 H 515.38 0.749552 -0.0606316 0
M  V30 5683 H 517.351 2.78129 -1.08105 0
M  V30 5684 C 516.1 3.42961 0.572084 0
M  V30 5685 H 515.423 3.99714 -0.0828118 0
M  V30 5686 H 516.863 4.13286 0.94715 0
M  V30 5687 C 515.322 2.88043 1.74737 0
M  V30 5688 O 515.852 2.83508 2.8458 0
M  V30 5689 N 514.058 2.44768 1.56642 0
M  V30 5690 H 513.605 2.48656 0.672901 0
M  V30 5691 H 513.563 2.08375 2.3543 0
M  V30 5692 N 517.335 0.585699 1.46312 0
M  V30 5693 C 518.283 -0.158577 2.32059 0
M  V30 5694 C 519.277 -0.881427 1.44662 0
M  V30 5695 O 520.483 -0.799476 1.61271 0
M  V30 5696 H 516.858 -0.0700066 0.748734 0
M  V30 5697 H 518.829 0.583383 2.92642 0
M  V30 5698 C 517.578 -1.15701 3.27885 0
M  V30 5699 H 516.901 -0.610215 3.95116 0
M  V30 5700 H 518.341 -1.64812 3.90657 0
M  V30 5701 C 516.8 -2.21951 2.53455 0
M  V30 5702 O 517.33 -3.29352 2.29978 0
M  V30 5703 N 515.536 -1.9664 2.13965 0
M  V30 5704 H 515.083 -1.09309 2.33258 0
M  V30 5705 H 515.041 -2.6794 1.64485 0
M  V30 5706 N 518.813 -1.54241 0.323641 0
M  V30 5707 C 520.09 -1.92741 -0.333181 0
M  V30 5708 C 520.47 -1.25326 -1.69872 0
M  V30 5709 O 519.818 -0.396991 -2.25025 0
M  V30 5710 C 520.028 -3.46399 -0.425322 0
M  V30 5711 C 521.376 -4.19029 -0.68557 0
M  V30 5712 O 522.4 -3.52555 -0.50824 0
M  V30 5713 O 521.259 -5.36751 -1.02767 0
M  V30 5714 H 518.353 -0.804811 -0.190286 0
M  V30 5715 H 520.899 -1.65542 0.373361 0
M  V30 5716 H 519.671 -3.87643 0.533737 0
M  V30 5717 H 519.294 -3.79704 -1.17944 0
M  V30 5718 N 520.291 -0.0518155 -1.57515 0
M  V30 5719 C 521.519 0.631395 -1.9703 0
M  V30 5720 C 521.934 1.64341 -0.92938 0
M  V30 5721 O 521.291 1.82296 0.0863266 0
M  V30 5722 C 521.342 1.31774 -3.36627 0
M  V30 5723 O 521.063 0.346247 -4.3673 0
M  V30 5724 C 522.564 2.09065 -3.90905 0
M  V30 5725 H 519.784 0.172576 -0.648428 0
M  V30 5726 H 522.328 -0.118306 -2.04158 0
M  V30 5727 H 520.483 2.01867 -3.30649 0
M  V30 5728 H 520.897 0.836226 -5.17791 0
M  V30 5729 H 522.371 2.52508 -4.9086 0
M  V30 5730 H 522.848 2.93908 -3.26366 0
M  V30 5731 H 523.454 1.43882 -4.00223 0
M  V30 5732 N 521.769 1.56035 0.221574 0
M  V30 5733 C 522.716 1.92413 1.27459 0
M  V30 5734 C 523.686 0.781323 1.46576 0
M  V30 5735 O 524.871 1.03721 1.60145 0
M  V30 5736 C 522.011 2.24617 2.61995 0
M  V30 5737 C 521.124 3.51831 2.50677 0
M  V30 5738 C 520.259 3.73482 3.77736 0
M  V30 5739 C 519.298 4.94211 3.6114 0
M  V30 5740 N 518.435 5.12252 4.80148 0
M  V30 5741 H 523.275 2.82203 0.957355 0
M  V30 5742 H 520.812 1.39676 0.461415 0
M  V30 5743 H 522.77 2.41298 3.40339 0
M  V30 5744 H 521.4 1.38 2.91815 0
M  V30 5745 H 520.452 3.43343 1.63767 0
M  V30 5746 H 521.764 4.40328 2.34334 0
M  V30 5747 H 520.918 3.9026 4.64523 0
M  V30 5748 H 519.657 2.83266 3.97003 0
M  V30 5749 H 518.662 4.77384 2.72736 0
M  V30 5750 H 519.887 5.85912 3.43343 0
M  V30 5751 H 517.833 4.24978 4.99729 0
M  V30 5752 H 517.75 5.94881 4.66532 0
M  V30 5753 H 519.018 5.33465 5.68362 0
M  V30 5754 N 523.247 -0.488276 1.49845 0
M  V30 5755 C 524.157 -1.61451 1.70207 0
M  V30 5756 C 525.173 -1.63877 0.584846 0
M  V30 5757 O 526.349 -1.82063 0.861107 0
M  V30 5758 C 523.414 -2.9776 1.77594 0
M  V30 5759 C 522.475 -3.05861 3.01243 0
M  V30 5760 C 521.708 -4.35668 3.08268 0
M  V30 5761 O 521.931 -5.25197 2.22541 0
M  V30 5762 O 520.865 -4.49005 4.00847 0
M  V30 5763 H 524.691 -1.47199 2.65643 0
M  V30 5764 H 522.276 -0.665939 1.33737 0
M  V30 5765 H 524.158 -3.7875 1.84732 0
M  V30 5766 H 522.833 -3.12248 0.8534 0
M  V30 5767 H 521.74 -2.24012 2.99616 0
M  V30 5768 H 523.073 -2.96304 3.9302 0
M  V30 5769 N 524.725 -1.39134 -0.740242 0
M  V30 5770 C 525.655 -1.40165 -1.86751 0
M  V30 5771 C 526.636 -0.265708 -1.68012 0
M  V30 5772 O 527.821 -0.47076 -1.88408 0
M  V30 5773 C 524.951 -1.2392 -3.2444 0
M  V30 5774 C 523.905 -2.34858 -3.57807 0
M  V30 5775 C 523.231 -2.03707 -4.94376 0
M  V30 5776 C 524.531 -3.77159 -3.61315 0
M  V30 5777 H 526.225 -2.345 -1.86145 0
M  V30 5778 H 523.771 -1.12875 -0.89416 0
M  V30 5779 H 525.724 -1.23263 -4.02969 0
M  V30 5780 H 524.448 -0.26051 -3.25559 0
M  V30 5781 H 523.107 -2.34723 -2.81604 0
M  V30 5782 H 522.755 -1.04289 -4.9207 0
M  V30 5783 H 522.455 -2.78016 -5.17669 0
M  V30 5784 H 523.979 -2.04691 -5.75268 0
M  V30 5785 H 525.393 -3.79252 -4.29931 0
M  V30 5786 H 523.79 -4.50784 -3.96124 0
M  V30 5787 H 524.86 -4.08513 -2.61238 0
M  V30 5788 N 526.204 0.969867 -1.24223 0
M  V30 5789 C 527.432 1.74756 -1.10761 0
M  V30 5790 C 527.847 1.85713 0.340041 0
M  V30 5791 O 527.204 1.34389 1.23474 0
M  V30 5792 C 527.255 3.16915 -1.73917 0
M  V30 5793 O 526.976 3.06511 -3.13021 0
M  V30 5794 C 528.477 4.11032 -1.66036 0
M  V30 5795 H 525.697 0.548092 -0.387087 0
M  V30 5796 H 528.241 1.2178 -1.64286 0
M  V30 5797 H 526.396 3.66884 -1.244 0
M  V30 5798 H 526.81 3.96079 -3.43834 0
M  V30 5799 H 528.284 5.08446 -2.14911 0
M  V30 5800 H 528.761 4.34785 -0.621159 0
M  V30 5801 H 529.367 3.66972 -2.14969 0
M  V30 5802 N 527.682 1.05563 1.17022 0
M  V30 5803 C 528.912 0.787307 1.91011 0
M  V30 5804 C 529.32 -0.661256 1.77268 0
M  V30 5805 O 528.663 -1.46379 1.10991 0
M  V30 5806 C 528.725 1.09313 3.42478 0
M  V30 5807 C 528.389 2.53863 3.80004 0
M  V30 5808 C 529.386 3.52081 3.82538 0
M  V30 5809 C 527.071 2.88969 4.10855 0
M  V30 5810 C 529.065 4.83449 4.15399 0
M  V30 5811 C 526.752 4.2054 4.43384 0
M  V30 5812 C 527.75 5.17589 4.45635 0
M  V30 5813 O 527.438 6.46799 4.77395 0
M  V30 5814 H 527.17 0.285463 0.61277 0
M  V30 5815 H 529.724 1.41051 1.49311 0
M  V30 5816 H 527.954 0.412833 3.8449 0
M  V30 5817 H 529.643 0.810224 3.97731 0
M  V30 5818 H 530.409 3.26299 3.58823 0
M  V30 5819 H 526.288 2.1409 4.08272 0
M  V30 5820 H 529.832 5.59194 4.1707 0
M  V30 5821 H 525.729 4.46083 4.66563 0
M  V30 5822 H 526.497 6.51677 4.95237 0
M  V30 5823 N 529.16 -1.33526 0.837174 0
M  V30 5824 C 530.437 -1.92369 0.354065 0
M  V30 5825 C 530.817 -1.76348 -1.16038 0
M  V30 5826 O 530.165 -1.15083 -1.97403 0
M  V30 5827 C 530.375 -3.39728 0.799101 0
M  V30 5828 C 531.723 -4.16877 0.806139 0
M  V30 5829 O 532.747 -3.48373 0.742597 0
M  V30 5830 O 531.606 -5.39166 0.892345 0
M  V30 5831 H 528.7 -0.820952 0.0998378 0
M  V30 5832 H 531.246 -1.42409 0.922913 0
M  V30 5833 H 530.018 -3.45254 1.84162 0
M  V30 5834 H 529.641 -3.97062 0.206731 0
M  V30 5835 N 530.638 -0.59345 -1.46 0
M  V30 5836 C 531.915 -0.0157933 -1.95594 0
M  V30 5837 C 532.295 1.44807 -1.53604 0
M  V30 5838 O 531.643 2.14342 -0.791824 0
M  V30 5839 C 531.853 -0.199081 -3.48432 0
M  V30 5840 C 533.201 -0.0724943 -4.24538 0
M  V30 5841 O 534.225 -0.128469 -3.55968 0
M  V30 5842 O 533.084 0.0542426 -5.46473 0
M  V30 5843 H 530.178 0.043749 -0.825842 0
M  V30 5844 H 532.724 -0.662522 -1.56233 0
M  V30 5845 H 531.496 -1.21631 -3.71916 0
M  V30 5846 H 531.119 0.483576 -3.94648 0
M  V30 5847 N 532.116 1.54067 -0.331816 0
M  V30 5848 C 533.046 2.27569 0.522932 0
M  V30 5849 C 534.027 1.28679 1.11247 0
M  V30 5850 O 535.212 1.57504 1.13605 0
M  V30 5851 C 532.342 3.0397 1.67987 0
M  V30 5852 C 531.296 4.10267 1.21924 0
M  V30 5853 C 530.622 4.74555 2.46377 0
M  V30 5854 C 531.922 5.21268 0.32815 0
M  V30 5855 H 533.616 2.99264 -0.0901977 0
M  V30 5856 H 531.162 1.4393 -0.044821 0
M  V30 5857 H 533.115 3.54123 2.28418 0
M  V30 5858 H 531.839 2.29906 2.31971 0
M  V30 5859 H 530.498 3.61009 0.637809 0
M  V30 5860 H 530.146 3.97098 3.08743 0
M  V30 5861 H 529.846 5.46363 2.16243 0
M  V30 5862 H 531.37 5.27487 3.07555 0
M  V30 5863 H 532.784 5.67128 0.838978 0
M  V30 5864 H 531.181 5.99982 0.119228 0
M  V30 5865 H 532.251 4.80673 -0.638839 0
M  V30 5866 N 533.594 0.0601682 1.57485 0
M  V30 5867 C 534.526 -0.94047 2.09016 0
M  V30 5868 C 535.539 -1.26897 1.01985 0
M  V30 5869 O 536.728 -1.22819 1.29529 0
M  V30 5870 C 533.828 -2.25955 2.52582 0
M  V30 5871 C 533.001 -2.11163 3.83052 0
M  V30 5872 C 532.06 -3.26273 4.12835 0
M  V30 5873 O 531.086 -3.01779 4.82616 0
M  V30 5874 N 532.288 -4.51022 3.65458 0
M  V30 5875 H 535.053 -0.500578 2.9549 0
M  V30 5876 H 532.614 -0.125852 1.6141 0
M  V30 5877 H 534.606 -3.01846 2.69575 0
M  V30 5878 H 533.176 -2.61481 1.71308 0
M  V30 5879 H 532.396 -1.19808 3.75552 0
M  V30 5880 H 533.684 -1.98517 4.68475 0
M  V30 5881 H 533.082 -4.73811 3.09062 0
M  V30 5882 H 531.639 -5.23978 3.87673 0
M  V30 5883 N 535.072 -1.5615 -0.213296 0
M  V30 5884 C 536.02 -1.93953 -1.28394 0
M  V30 5885 C 537.014 -0.822592 -1.48087 0
M  V30 5886 O 538.22 -1.00748 -1.49164 0
M  V30 5887 H 534.595 -0.61648 -0.430646 0
M  V30 5888 H 536.566 -2.83275 -0.937977 0
M  V30 5889 C 535.315 -2.27969 -2.62537 0
M  V30 5890 H 534.638 -3.13432 -2.48194 0
M  V30 5891 H 536.078 -2.58297 -3.36242 0
M  V30 5892 C 534.537 -1.10775 -3.18167 0
M  V30 5893 O 535.067 -0.373201 -3.99963 0
M  V30 5894 N 533.273 -0.889377 -2.76656 0
M  V30 5895 H 532.82 -1.48843 -2.10246 0
M  V30 5896 H 532.778 -0.107 -3.14218 0
M  V30 5897 N 536.55 0.480323 -1.50102 0
M  V30 5898 C 537.483 1.59789 -1.62919 0
M  V30 5899 C 538.461 1.55429 -0.477557 0
M  V30 5900 O 539.645 1.75186 -0.695851 0
M  V30 5901 C 536.772 2.98351 -1.60325 0
M  V30 5902 C 535.818 3.20899 -2.80938 0
M  V30 5903 S 536.651 3.01791 -4.4236 0
M  V30 5904 C 537.807 4.42712 -4.42444 0
M  V30 5905 H 538.04 1.48676 -2.57454 0
M  V30 5906 H 535.573 0.666996 -1.3925 0
M  V30 5907 H 537.531 3.7824 -1.59514 0
M  V30 5908 H 536.192 3.06862 -0.670419 0
M  V30 5909 H 535.385 4.22102 -2.75401 0
M  V30 5910 H 534.987 2.48768 -2.79268 0
M  V30 5911 H 537.279 5.3518 -4.15438 0
M  V30 5912 H 538.222 4.53294 -5.43995 0
M  V30 5913 H 538.63 4.24359 -3.72263 0
M  V30 5914 N 538.028 1.39524 0.732853 0
M  V30 5915 C 539.439 1.32905 1.31122 0
M  V30 5916 C 539.79 -0.00558708 1.96199 0
M  V30 5917 O 538.915 -0.907706 1.96443 0
M  V30 5918 C 539.51 2.40704 2.38426 0
M  V30 5919 C 538.069 2.37599 2.91931 0
M  V30 5920 C 537.216 2.2248 1.65523 0
M  V30 5921 H 540.167 1.49581 0.530207 0
M  V30 5922 H 540.188 2.07616 3.18867 0
M  V30 5923 H 539.7 3.37829 1.91033 0
M  V30 5924 H 537.801 1.44119 3.43599 0
M  V30 5925 H 537.914 3.32538 3.44899 0
M  V30 5926 H 536.278 1.69691 1.8994 0
M  V30 5927 H 537.061 3.21577 1.20178 0
M  V30 5928 N 539.506 -0.963266 1.24736 0
M  V30 5929 C 540.436 -2.07628 1.06832 0
M  V30 5930 C 541.417 -1.70088 -0.0200566 0
M  V30 5931 O 542.602 -1.93636 0.147854 0
M  V30 5932 C 539.732 -3.40636 0.677069 0
M  V30 5933 C 538.686 -3.9215 1.71471 0
M  V30 5934 C 538.012 -5.21553 1.1784 0
M  V30 5935 C 539.312 -4.19493 3.11164 0
M  V30 5936 H 541.006 -2.22864 1.9993 0
M  V30 5937 H 538.552 -1.07093 0.96266 0
M  V30 5938 H 540.505 -4.17941 0.538792 0
M  V30 5939 H 539.229 -3.25313 -0.289612 0
M  V30 5940 H 537.888 -3.17005 1.84128 0
M  V30 5941 H 537.536 -5.02593 0.202195 0
M  V30 5942 H 537.236 -5.56988 1.87185 0
M  V30 5943 H 538.76 -6.01463 1.05233 0
M  V30 5944 H 540.174 -4.87487 3.01711 0
M  V30 5945 H 538.571 -4.66165 3.77902 0
M  V30 5946 H 539.641 -3.26097 3.58871 0
M  V30 5947 N 540.985 -1.06182 -1.16461 0
M  V30 5948 C 541.915 -0.692861 -2.22984 0
M  V30 5949 C 542.896 0.314122 -1.67174 0
M  V30 5950 O 544.081 0.189499 -1.93273 0
M  V30 5951 C 541.211 -0.07732 -3.47214 0
M  V30 5952 C 540.165 -1.01015 -4.15909 0
M  V30 5953 C 539.491 -0.257973 -5.34077 0
M  V30 5954 C 540.791 -2.33868 -4.67015 0
M  V30 5955 H 542.485 -1.58343 -2.54102 0
M  V30 5956 H 540.031 -0.76279 -1.22137 0
M  V30 5957 H 541.984 0.19266 -4.20959 0
M  V30 5958 H 540.708 0.848254 -3.15392 0
M  V30 5959 H 539.367 -1.26486 -3.44088 0
M  V30 5960 H 539.015 0.670684 -4.98509 0
M  V30 5961 H 538.715 -0.879638 -5.80979 0
M  V30 5962 H 540.239 0.00448788 -6.106 0
M  V30 5963 H 541.653 -2.1279 -5.32347 0
M  V30 5964 H 540.05 -2.91522 -5.24533 0
M  V30 5965 H 541.12 -2.97019 -3.83286 0
M  V30 5966 N 542.463 1.3308 -0.844243 0
M  V30 5967 C 543.411 2.31028 -0.269954 0
M  V30 5968 C 544.405 1.58381 0.600997 0
M  V30 5969 O 545.611 1.73203 0.48996 0
M  V30 5970 H 541.986 0.748866 -0.0685782 0
M  V30 5971 H 543.957 2.76967 -1.11049 0
M  V30 5972 C 542.706 3.43549 0.535676 0
M  V30 5973 H 542.029 3.99604 -0.125202 0
M  V30 5974 H 543.469 4.14267 0.903262 0
M  V30 5975 C 541.928 2.8988 1.71672 0
M  V30 5976 O 542.458 2.86511 2.81557 0
M  V30 5977 N 540.664 2.46416 1.54037 0
M  V30 5978 H 540.211 2.49356 0.64649 0
M  V30 5979 H 540.169 2.1086 2.33207 0
M  V30 5980 N 543.941 0.601185 1.45683 0
M  V30 5981 C 544.873 -0.159446 2.28645 0
M  V30 5982 C 545.886 -0.837882 1.39583 0
M  V30 5983 O 547.075 -0.704344 1.64016 0
M  V30 5984 C 544.175 -1.24641 3.15147 0
M  V30 5985 C 543.348 -0.656334 4.32448 0
M  V30 5986 C 542.407 -1.63337 5.00208 0
M  V30 5987 O 541.433 -1.16217 5.57209 0
M  V30 5988 N 542.635 -2.96773 4.98905 0
M  V30 5989 H 545.4 0.5524 2.94565 0
M  V30 5990 H 542.961 0.440223 1.558 0
M  V30 5991 H 544.953 -1.8997 3.57342 0
M  V30 5992 H 543.523 -1.86087 2.51178 0
M  V30 5993 H 542.743 0.174879 3.93812 0
M  V30 5994 H 544.031 -0.242211 5.08223 0
M  V30 5995 H 543.429 -3.37662 4.53873 0
M  V30 5996 H 541.986 -3.57541 5.44984 0
M  V30 5997 N 545.419 -1.53889 0.339982 0
M  V30 5998 C 546.352 -2.21187 -0.561405 0
M  V30 5999 C 547.33 -1.19463 -1.10306 0
M  V30 6000 O 548.514 -1.48268 -1.164 0
M  V30 6001 C 545.641 -2.8865 -1.77198 0
M  V30 6002 C 544.687 -4.04232 -1.3601 0
M  V30 6003 S 545.52 -5.34129 -0.382909 0
M  V30 6004 C 546.676 -6.05094 -1.60039 0
M  V30 6005 H 546.909 -2.97298 0.0102092 0
M  V30 6006 H 544.442 -1.53901 0.124056 0
M  V30 6007 H 546.4 -3.28138 -2.4665 0
M  V30 6008 H 545.061 -2.12311 -2.3148 0
M  V30 6009 H 544.254 -4.50358 -2.2626 0
M  V30 6010 H 543.856 -3.66503 -0.745098 0
M  V30 6011 H 546.148 -6.2827 -2.53541 0
M  V30 6012 H 547.091 -6.98182 -1.18099 0
M  V30 6013 H 547.499 -5.35207 -1.79483 0
M  V30 6014 N 546.897 -0.0685191 -1.57451 0
M  V30 6015 C 548.146 0.600898 -1.92541 0
M  V30 6016 C 548.459 1.70967 -0.950239 0
M  V30 6017 O 549.665 2.43844 -1.19384 0
M  V30 6018 C 548.121 1.12019 -3.42023 0
M  V30 6019 C 547.729 0.0426028 -4.4798 0
M  V30 6020 C 549.473 1.76386 -3.86119 0
M  V30 6021 C 547.38 0.575759 -5.88591 0
M  V30 6022 H 546.31 0.228225 -0.71863 0
M  V30 6023 H 548.961 -0.140223 -1.82963 0
M  V30 6024 H 547.343 1.91418 -3.46663 0
M  V30 6025 H 548.517 -0.73182 -4.54952 0
M  V30 6026 H 546.832 -0.504642 -4.13331 0
M  V30 6027 H 549.429 2.17302 -4.88553 0
M  V30 6028 H 549.772 2.62255 -3.23308 0
M  V30 6029 H 550.305 1.03615 -3.84069 0
M  V30 6030 H 547.044 -0.245691 -6.55039 0
M  V30 6031 H 546.564 1.31778 -5.85145 0
M  V30 6032 H 548.243 1.0532 -6.3837 0
M  V30 6033 N 548.375 1.56261 0.205012 0
M  V30 6034 C 549.322 1.93754 1.25411 0
M  V30 6035 C 550.292 0.796826 1.45739 0
M  V30 6036 O 551.477 1.05414 1.59036 0
M  V30 6037 C 548.617 2.27383 2.59598 0
M  V30 6038 C 547.73 3.5447 2.46931 0
M  V30 6039 C 546.865 3.77468 3.73753 0
M  V30 6040 C 545.904 4.98014 3.55877 0
M  V30 6041 N 545.041 5.17316 4.74688 0
M  V30 6042 H 549.881 2.83203 0.92737 0
M  V30 6043 H 547.418 1.40158 0.446574 0
M  V30 6044 H 549.376 2.44895 3.37761 0
M  V30 6045 H 548.006 1.41088 2.90335 0
M  V30 6046 H 547.058 3.45061 1.60116 0
M  V30 6047 H 548.37 4.42789 2.29651 0
M  V30 6048 H 547.524 3.95165 4.60358 0
M  V30 6049 H 546.263 2.87461 3.93976 0
M  V30 6050 H 545.268 4.80249 2.67657 0
M  V30 6051 H 546.493 5.8952 3.37109 0
M  V30 6052 H 544.439 4.30255 4.95194 0
M  V30 6053 H 544.356 5.99796 4.60197 0
M  V30 6054 H 545.624 5.39463 5.62672 0
M  V30 6055 N 549.853 -0.472356 1.50355 0
M  V30 6056 C 550.763 -1.59637 1.7191 0
M  V30 6057 C 551.779 -1.63247 0.602195 0
M  V30 6058 O 552.955 -1.81139 0.880369 0
M  V30 6059 C 550.02 -2.9586 1.80742 0
M  V30 6060 C 549.081 -3.02649 3.04471 0
M  V30 6061 C 548.314 -4.32374 3.12872 0
M  V30 6062 O 548.537 -5.22807 2.28099 0
M  V30 6063 O 547.471 -4.44728 4.05587 0
M  V30 6064 H 551.297 -1.44373 2.67189 0
M  V30 6065 H 548.882 -0.651717 1.34436 0
M  V30 6066 H 550.764 -3.7677 1.88739 0
M  V30 6067 H 549.439 -3.11325 0.88647 0
M  V30 6068 H 548.346 -2.20821 3.01975 0
M  V30 6069 H 549.679 -2.92119 3.9614 0
M  V30 6070 N 551.331 -1.39911 -0.725443 0
M  V30 6071 C 552.559 -1.40949 -1.51463 0
M  V30 6072 C 552.974 -0.0065242 -1.88799 0
M  V30 6073 O 552.331 0.967163 -1.54765 0
M  V30 6074 C 552.382 -2.29119 -2.79619 0
M  V30 6075 O 552.103 -3.63952 -2.43866 0
M  V30 6076 C 553.604 -2.38642 -3.73584 0
M  V30 6077 H 550.824 -0.481091 -0.467752 0
M  V30 6078 H 553.368 -1.83843 -0.895651 0
M  V30 6079 H 551.523 -1.89612 -3.37826 0
M  V30 6080 H 551.937 -4.10677 -3.26258 0
M  V30 6081 H 553.411 -3.04563 -4.60375 0
M  V30 6082 H 553.888 -1.40846 -4.16004 0
M  V30 6083 H 554.494 -2.78659 -3.21293 0
M  V30 6084 N 552.809 0.956637 -1.25245 0
M  V30 6085 C 553.739 2.07058 -1.07931 0
M  V30 6086 C 554.72 1.70096 0.0110361 0
M  V30 6087 O 555.905 1.93555 -0.158121 0
M  V30 6088 C 553.035 3.40272 -0.695124 0
M  V30 6089 C 551.989 3.91235 -1.73549 0
M  V30 6090 C 551.315 5.20921 -1.20604 0
M  V30 6091 C 552.615 4.17837 -3.13385 0
M  V30 6092 H 554.309 2.218 -2.01109 0
M  V30 6093 H 551.855 1.06581 -0.968326 0
M  V30 6094 H 553.808 4.1765 -0.560949 0
M  V30 6095 H 552.532 3.25462 0.272355 0
M  V30 6096 H 551.191 3.16025 -1.85807 0
M  V30 6097 H 550.839 5.02479 -0.228846 0
M  V30 6098 H 550.539 5.55987 -1.90136 0
M  V30 6099 H 552.063 6.00897 -1.08421 0
M  V30 6100 H 553.477 4.8588 -3.04292 0
M  V30 6101 H 551.874 4.64154 -3.80369 0
M  V30 6102 H 552.944 3.2419 -3.60595 0
M  V30 6103 N 554.287 1.06798 1.15896 0
M  V30 6104 C 555.703 0.792423 1.38538 0
M  V30 6105 C 555.903 -0.60592 1.92174 0
M  V30 6106 O 554.959 -1.36561 2.12385 0
M  V30 6107 C 556.272 1.86157 2.36149 0
M  V30 6108 C 557.82 1.88567 2.49823 0
M  V30 6109 C 558.295 2.9455 3.5072 0
M  V30 6110 N 559.786 2.93616 3.58251 0
M  V30 6111 C 560.521 3.72267 4.36125 0
M  V30 6112 N 560.017 4.60751 5.17379 0
M  V30 6113 N 561.81 3.60637 4.31158 0
M  V30 6114 H 553.961 1.96993 0.794198 0
M  V30 6115 H 556.224 0.853942 0.411688 0
M  V30 6116 H 555.93 2.86603 2.03843 0
M  V30 6117 H 555.804 1.71692 3.3586 0
M  V30 6118 H 558.191 0.887765 2.8143 0
M  V30 6119 H 558.272 2.0711 1.5013 0
M  V30 6120 H 557.916 3.94537 3.19849 0
M  V30 6121 H 557.846 2.73255 4.50155 0
M  V30 6122 H 560.337 2.29472 3.00252 0
M  V30 6123 H 560.65 5.17408 5.74028 0
M  V30 6124 H 558.995 4.64803 5.16704 0
M  V30 6125 H 562.186 2.90892 3.66742 0
M  V30 6126 H 562.359 4.22176 4.91601 0
M  V30 6127 N 555.766 -1.3263 0.851289 0
M  V30 6128 C 556.696 -2.31449 0.308771 0
M  V30 6129 C 557.677 -1.59531 -0.590255 0
M  V30 6130 O 558.862 -1.87351 -0.511205 0
M  V30 6131 C 555.992 -3.43586 -0.506548 0
M  V30 6132 C 554.946 -4.26963 0.297753 0
M  V30 6133 C 554.272 -5.30831 -0.642094 0
M  V30 6134 C 555.572 -4.99643 1.52166 0
M  V30 6135 H 557.266 -2.77074 1.13447 0
M  V30 6136 H 554.812 -1.33207 0.546971 0
M  V30 6137 H 556.765 -4.11754 -0.896474 0
M  V30 6138 H 555.489 -2.96681 -1.36558 0
M  V30 6139 H 554.148 -3.60437 0.669391 0
M  V30 6140 H 553.796 -4.8018 -1.49788 0
M  V30 6141 H 553.496 -5.87501 -0.107968 0
M  V30 6142 H 555.02 -6.01862 -1.02927 0
M  V30 6143 H 556.434 -5.6051 1.20421 0
M  V30 6144 H 554.831 -5.66022 1.99347 0
M  V30 6145 H 555.901 -4.27701 2.28474 0
M  V30 6146 N 557.244 -0.608902 -1.45362 0
M  V30 6147 C 558.194 0.130616 -2.27626 0
M  V30 6148 C 559.178 0.837323 -1.37396 0
M  V30 6149 O 560.37 0.727096 -1.61376 0
M  V30 6150 C 557.499 1.12646 -3.24293 0
M  V30 6151 C 556.585 0.42052 -4.2201 0
M  V30 6152 N 556.976 -0.538569 -5.02925 0
M  V30 6153 C 555.274 0.667901 -4.40971 0
M  V30 6154 C 555.975 -0.953625 -5.7383 0
M  V30 6155 N 554.951 -0.297097 -5.42788 0
M  V30 6156 H 558.753 -0.605996 -2.87585 0
M  V30 6157 H 556.267 -0.432672 -1.5653 0
M  V30 6158 H 558.264 1.67066 -3.81961 0
M  V30 6159 H 556.924 1.86361 -2.65894 0
M  V30 6160 H 557.935 -0.915375 -5.09746 0
M  V30 6161 H 554.612 1.38963 -3.93695 0
M  V30 6162 H 556.002 -1.74473 -6.48852 0
M  V30 6163 N 558.722 1.53707 -0.348139 0
M  V30 6164 C 559.672 2.2193 0.522592 0
M  V30 6165 C 560.656 1.20831 1.06248 0
M  V30 6166 O 561.848 1.46357 0.995415 0
M  V30 6167 C 558.977 2.99904 1.6707 0
M  V30 6168 C 558.063 4.08364 1.14454 0
M  V30 6169 N 558.454 5.04656 0.339958 0
M  V30 6170 C 556.752 4.22757 1.421 0
M  V30 6171 C 557.453 5.81675 0.0538806 0
M  V30 6172 N 556.429 5.39739 0.646776 0
M  V30 6173 H 560.231 2.93733 -0.099135 0
M  V30 6174 H 557.745 1.61656 -0.15524 0
M  V30 6175 H 559.742 3.47284 2.30651 0
M  V30 6176 H 558.402 2.29629 2.29566 0
M  V30 6177 H 559.413 5.17896 -0.0193552 0
M  V30 6178 H 556.09 3.63704 2.05002 0
M  V30 6179 H 557.48 6.69256 -0.595443 0
M  V30 6180 N 560.2 0.0768682 1.57412 0
M  V30 6181 C 561.611 -0.455037 1.8107 0
M  V30 6182 C 561.962 -1.69323 0.991162 0
M  V30 6183 O 561.087 -2.15328 0.215156 0
M  V30 6184 C 561.682 -0.832316 3.28417 0
M  V30 6185 C 560.241 -1.30906 3.52903 0
M  V30 6186 C 559.388 -0.296714 2.75708 0
M  V30 6187 H 562.339 0.302514 1.5579 0
M  V30 6188 H 562.36 -1.69333 3.40744 0
M  V30 6189 H 561.872 0.0690532 3.88039 0
M  V30 6190 H 559.973 -2.22875 2.98592 0
M  V30 6191 H 560.086 -1.28348 4.61588 0
M  V30 6192 H 558.45 -0.775059 2.42621 0
M  V30 6193 H 559.233 0.597015 3.38069 0
M  V30 6194 N 561.678 -1.56367 -0.196722 0
M  V30 6195 C 562.608 -1.97442 -1.24655 0
M  V30 6196 C 563.589 -0.846147 -1.47561 0
M  V30 6197 O 564.774 -1.11035 -1.59326 0
M  V30 6198 C 561.904 -2.31253 -2.59112 0
M  V30 6199 C 560.858 -3.46804 -2.50821 0
M  V30 6200 C 560.184 -3.66286 -3.89536 0
M  V30 6201 C 561.484 -4.8104 -2.03465 0
M  V30 6202 H 563.178 -2.85388 -0.905216 0
M  V30 6203 H 560.724 -1.37304 -0.434002 0
M  V30 6204 H 562.677 -2.58583 -3.32736 0
M  V30 6205 H 561.401 -1.40188 -2.94983 0
M  V30 6206 H 560.06 -3.19563 -1.79653 0
M  V30 6207 H 559.708 -2.72555 -4.22756 0
M  V30 6208 H 559.408 -4.4402 -3.84864 0
M  V30 6209 H 560.932 -3.9599 -4.64784 0
M  V30 6210 H 562.346 -5.07411 -2.66846 0
M  V30 6211 H 560.743 -5.62232 -2.09798 0
M  V30 6212 H 561.813 -4.74732 -0.98781 0
M  V30 6213 N 563.156 0.464375 -1.50603 0
M  V30 6214 C 564.106 1.55929 -1.66343 0
M  V30 6215 C 565.09 1.52338 -0.517887 0
M  V30 6216 O 566.282 1.59248 -0.772601 0
M  V30 6217 C 563.411 2.94327 -1.7671 0
M  V30 6218 C 562.497 3.02777 -2.96962 0
M  V30 6219 N 562.888 2.81026 -4.20545 0
M  V30 6220 C 561.186 3.33919 -2.95659 0
M  V30 6221 C 561.887 2.94618 -5.01573 0
M  V30 6222 N 560.863 3.25112 -4.35664 0
M  V30 6223 H 564.665 1.37822 -2.59581 0
M  V30 6224 H 562.179 0.671227 -1.47879 0
M  V30 6225 H 564.176 3.73063 -1.86091 0
M  V30 6226 H 562.836 3.13476 -0.846353 0
M  V30 6227 H 563.847 2.56477 -4.49933 0
M  V30 6228 H 560.524 3.59013 -2.13111 0
M  V30 6229 H 561.914 2.81984 -6.09865 0
M  V30 6230 N 564.634 1.40294 0.718013 0
M  V30 6231 C 565.859 1.41941 1.5122 0
M  V30 6232 C 566.284 0.0202371 1.88089 0
M  V30 6233 O 565.642 -0.971078 1.53101 0
M  V30 6234 C 565.69 2.3141 2.76554 0
M  V30 6235 O 564.794 1.75567 3.73162 0
M  V30 6236 H 564.135 0.482644 0.456016 0
M  V30 6237 H 566.665 1.84494 0.884478 0
M  V30 6238 H 566.675 2.46513 3.25108 0
M  V30 6239 H 565.35 3.33085 2.49053 0
M  V30 6240 H 563.927 1.69798 3.31999 0
M  V30 6241 N 566.112 -0.949982 1.2575 0
M  V30 6242 C 567.042 -2.06483 1.09028 0
M  V30 6243 C 568.023 -1.701 -0.00201532 0
M  V30 6244 O 569.208 -1.93469 0.168383 0
M  V30 6245 C 566.338 -3.39899 0.71316 0
M  V30 6246 C 565.292 -3.90309 1.75621 0
M  V30 6247 C 564.618 -5.20274 1.23365 0
M  V30 6248 C 565.918 -4.16169 3.15596 0
M  V30 6249 H 567.612 -2.20731 2.02283 0
M  V30 6250 H 565.158 -1.06066 0.973964 0
M  V30 6251 H 567.111 -4.17346 0.58309 0
M  V30 6252 H 565.835 -3.25602 -0.255091 0
M  V30 6253 H 564.494 -3.15035 1.8748 0
M  V30 6254 H 564.142 -5.02351 0.255491 0
M  V30 6255 H 563.842 -5.54971 1.93082 0
M  V30 6256 H 565.366 -6.00314 1.11607 0
M  V30 6257 H 566.78 -4.84259 3.06864 0
M  V30 6258 H 565.177 -4.62131 3.82825 0
M  V30 6259 H 566.247 -3.22273 3.6231 0
M  V30 6260 N 567.59 -1.07411 -1.15328 0
M  V30 6261 C 568.837 -0.797649 -1.86128 0
M  V30 6262 C 569.165 0.676298 -1.82364 0
M  V30 6263 O 568.42 1.51223 -1.24218 0
M  V30 6264 C 568.719 -1.25191 -3.34757 0
M  V30 6265 C 568.385 -2.73191 -3.58716 0
M  V30 6266 C 567.047 -3.13616 -3.64964 0
M  V30 6267 C 569.399 -3.68718 -3.6837 0
M  V30 6268 C 566.727 -4.48383 -3.78377 0
M  V30 6269 C 569.079 -5.03248 -3.83306 0
M  V30 6270 C 567.743 -5.43293 -3.878 0
M  V30 6271 H 567.013 -0.29188 -0.681092 0
M  V30 6272 H 569.66 -1.34524 -1.36292 0
M  V30 6273 H 567.965 -0.623712 -3.86804 0
M  V30 6274 H 569.662 -1.01489 -3.87945 0
M  V30 6275 H 566.252 -2.40898 -3.54494 0
M  V30 6276 H 570.436 -3.38614 -3.62842 0
M  V30 6277 H 565.692 -4.78877 -3.80114 0
M  V30 6278 H 569.866 -5.77142 -3.89718 0
M  V30 6279 H 567.493 -6.47721 -3.97946 0
M  V30 6280 N 569.068 1.32177 -0.85831 0
M  V30 6281 C 570.484 1.49873 -0.548656 0
M  V30 6282 C 570.684 1.79278 0.919874 0
M  V30 6283 O 569.74 1.86451 1.70271 0
M  V30 6284 C 571.053 2.64043 -1.4388 0
M  V30 6285 C 572.601 2.77928 -1.43961 0
M  V30 6286 C 573.076 3.95182 -2.31506 0
M  V30 6287 N 574.567 4.0245 -2.29321 0
M  V30 6288 C 575.302 4.9242 -2.93786 0
M  V30 6289 N 574.798 5.87373 -3.67376 0
M  V30 6290 N 576.591 4.85572 -2.83155 0
M  V30 6291 H 568.742 1.11357 -1.80868 0
M  V30 6292 H 571.005 0.549175 -0.772729 0
M  V30 6293 H 570.711 2.49055 -2.48324 0
M  V30 6294 H 570.585 3.59912 -1.12885 0
M  V30 6295 H 572.972 2.92338 -0.402813 0
M  V30 6296 H 573.053 1.82762 -1.78974 0
M  V30 6297 H 572.697 3.81531 -3.35256 0
M  V30 6298 H 572.627 4.89633 -1.93823 0
M  V30 6299 H 575.118 3.34507 -1.75822 0
M  V30 6300 H 575.431 6.52728 -4.13722 0
M  V30 6301 H 573.776 5.87388 -3.71484 0
M  V30 6302 H 576.967 4.10363 -2.25211 0
M  V30 6303 H 577.14 5.55486 -3.33676 0
M  V30 6304 N 570.547 0.616602 1.45037 0
M  V30 6305 C 571.494 -0.0969439 2.30596 0
M  V30 6306 C 572.464 -0.851151 1.42635 0
M  V30 6307 O 573.649 -0.835092 1.71554 0
M  V30 6308 C 570.789 -1.08234 3.27688 0
M  V30 6309 C 569.902 -0.328072 4.30752 0
M  V30 6310 C 569.037 -1.30399 5.14946 0
M  V30 6311 C 568.076 -0.538049 6.09731 0
M  V30 6312 N 567.213 -1.46371 6.86673 0
M  V30 6313 H 572.053 0.63864 2.91076 0
M  V30 6314 H 569.59 0.326733 1.43425 0
M  V30 6315 H 571.548 -1.66688 3.82454 0
M  V30 6316 H 570.178 -1.78523 2.68941 0
M  V30 6317 H 569.23 0.372136 3.78575 0
M  V30 6318 H 570.542 0.269142 4.98073 0
M  V30 6319 H 569.696 -1.96032 5.74157 0
M  V30 6320 H 568.435 -1.93514 4.47665 0
M  V30 6321 H 567.44 0.131852 5.49642 0
M  V30 6322 H 568.665 0.0881732 6.79043 0
M  V30 6323 H 566.611 -2.08233 6.22073 0
M  V30 6324 H 566.528 -0.920152 7.50379 0
M  V30 6325 H 567.796 -2.10932 7.50418 0
M  V30 6326 N 572.025 -1.5352 0.356285 0
M  V30 6327 C 573.271 -2.01414 -0.236653 0
M  V30 6328 C 573.604 -1.24339 -1.49176 0
M  V30 6329 O 572.879 -0.334496 -1.91602 0
M  V30 6330 C 573.162 -3.56059 -0.537982 0
M  V30 6331 C 573.015 -4.43835 0.730112 0
M  V30 6332 C 574.334 -4.19127 -1.34239 0
M  V30 6333 H 571.453 -0.732135 -0.0845386 0
M  V30 6334 H 574.095 -1.83854 0.479341 0
M  V30 6335 H 572.245 -3.71153 -1.14795 0
M  V30 6336 H 573.917 -4.40555 1.36782 0
M  V30 6337 H 572.16 -4.1218 1.3524 0
M  V30 6338 H 572.831 -5.49958 0.474358 0
M  V30 6339 H 575.307 -4.07809 -0.826498 0
M  V30 6340 H 574.183 -5.27378 -1.52198 0
M  V30 6341 H 574.444 -3.74581 -2.34822 0
M  V30 6342 N 573.503 -0.0852151 -1.57369 0
M  V30 6343 C 574.436 0.913608 -2.09113 0
M  V30 6344 C 575.414 1.28264 -0.999358 0
M  V30 6345 O 576.598 1.3896 -1.27367 0
M  V30 6346 C 573.725 2.21777 -2.55993 0
M  V30 6347 C 572.771 1.99932 -3.76735 0
M  V30 6348 S 573.604 1.24637 -5.20794 0
M  V30 6349 C 574.76 2.56304 -5.71016 0
M  V30 6350 H 574.993 0.473369 -2.93507 0
M  V30 6351 H 572.526 0.127856 -1.5387 0
M  V30 6352 H 574.484 2.96726 -2.83662 0
M  V30 6353 H 573.145 2.62923 -1.71843 0
M  V30 6354 H 572.338 2.96482 -4.07571 0
M  V30 6355 H 571.94 1.33116 -3.49509 0
M  V30 6356 H 574.232 3.5233 -5.78679 0
M  V30 6357 H 575.175 2.3006 -6.69685 0
M  V30 6358 H 575.583 2.64125 -4.98897 0
M  V30 6359 N 574.981 1.5647 0.188427 0
M  V30 6360 C 576.397 1.50204 0.539532 0
M  V30 6361 C 576.597 0.78644 1.85519 0
M  V30 6362 O 575.653 0.339714 2.50204 0
M  V30 6363 C 576.966 2.94893 0.588103 0
M  V30 6364 C 578.514 3.05602 0.67648 0
M  V30 6365 C 578.989 4.51716 0.756101 0
M  V30 6366 N 580.48 4.55894 0.819451 0
M  V30 6367 C 581.215 5.66272 0.90134 0
M  V30 6368 N 580.711 6.86323 0.945118 0
M  V30 6369 N 582.504 5.54201 0.939043 0
M  V30 6370 H 574.655 2.01406 -0.674493 0
M  V30 6371 H 576.918 0.916828 -0.241103 0
M  V30 6372 H 576.624 3.50334 -0.309633 0
M  V30 6373 H 576.498 3.4861 1.44051 0
M  V30 6374 H 578.885 2.50206 1.56465 0
M  V30 6375 H 578.966 2.54999 -0.202262 0
M  V30 6376 H 578.61 5.07739 -0.12774 0
M  V30 6377 H 578.54 5.00058 1.65074 0
M  V30 6378 H 581.031 3.69452 0.794594 0
M  V30 6379 H 581.344 7.66194 1.0083 0
M  V30 6380 H 579.689 6.88968 0.913683 0
M  V30 6381 H 582.88 4.59333 0.901725 0
M  V30 6382 H 583.053 6.40247 0.999402 0
M  V30 6383 N 576.459 -0.456382 1.50847 0
M  V30 6384 C 577.736 -1.21739 1.53098 0
M  V30 6385 C 578.116 -2.09179 0.284132 0
M  V30 6386 O 577.464 -2.16466 -0.731773 0
M  V30 6387 C 577.674 -2.03573 2.83477 0
M  V30 6388 C 579.022 -2.61264 3.34703 0
M  V30 6389 O 580.046 -2.13802 2.84898 0
M  V30 6390 O 578.905 -3.47779 4.21559 0
M  V30 6391 H 575.999 -0.553219 0.614718 0
M  V30 6392 H 578.545 -0.467003 1.63148 0
M  V30 6393 H 577.317 -1.39232 3.65691 0
M  V30 6394 H 576.94 -2.85716 2.76499 0
M  V30 6395 N 577.937 -1.40673 -0.710563 0
M  V30 6396 C 579.183 -1.39428 -1.47267 0
M  V30 6397 C 579.516 0.00182129 -1.942 0
M  V30 6398 O 578.791 0.971387 -1.68506 0
M  V30 6399 C 579.074 -2.38812 -2.6952 0
M  V30 6400 C 578.927 -3.87467 -2.28449 0
M  V30 6401 C 580.246 -2.3566 -3.71689 0
M  V30 6402 H 577.365 -0.507768 -0.534173 0
M  V30 6403 H 580.007 -1.71843 -0.810547 0
M  V30 6404 H 578.157 -2.113 -3.26013 0
M  V30 6405 H 579.829 -4.25825 -1.77399 0
M  V30 6406 H 578.072 -4.03058 -1.60395 0
M  V30 6407 H 578.743 -4.5253 -3.16103 0
M  V30 6408 H 581.219 -2.6004 -3.24836 0
M  V30 6409 H 580.095 -3.07237 -4.54859 0
M  V30 6410 H 580.356 -1.36996 -4.20339 0
M  V30 6411 N 579.415 0.9433 -1.26252 0
M  V30 6412 C 580.378 2.02326 -1.07689 0
M  V30 6413 C 581.378 1.60779 -0.0259174 0
M  V30 6414 O 582.568 1.72108 -0.269134 0
M  V30 6415 C 579.7 3.34886 -0.63752 0
M  V30 6416 H 580.893 2.20225 -2.0357 0
M  V30 6417 H 578.446 1.12197 -1.08819 0
M  V30 6418 H 579.181 3.22684 0.323377 0
M  V30 6419 H 578.966 3.66393 -1.39637 0
M  V30 6420 H 580.456 4.14231 -0.529418 0
M  V30 6421 N 580.893 1.08022 1.14757 0
M  V30 6422 C 582.142 0.802468 1.8505 0
M  V30 6423 C 582.455 -0.674061 1.83619 0
M  V30 6424 O 583.661 -1.06683 2.49662 0
M  V30 6425 C 582.117 1.38551 3.32162 0
M  V30 6426 C 581.725 2.89354 3.42021 0
M  V30 6427 C 583.469 1.18608 4.07594 0
M  V30 6428 C 581.376 3.40815 4.83321 0
M  V30 6429 H 580.306 0.296518 0.693248 0
M  V30 6430 H 582.957 1.30114 1.29393 0
M  V30 6431 H 581.339 0.814556 3.87532 0
M  V30 6432 H 582.513 3.52552 2.96722 0
M  V30 6433 H 580.828 3.08165 2.80041 0
M  V30 6434 H 583.425 1.54525 5.11885 0
M  V30 6435 H 583.768 0.125599 4.1611 0
M  V30 6436 H 584.301 1.72375 3.58513 0
M  V30 6437 H 581.04 4.46418 4.79991 0
M  V30 6438 H 580.56 2.82374 5.29174 0
M  V30 6439 H 582.239 3.37171 5.522 0
M  V30 6440 N 582.371 -1.3172 0.865308 0
M  V30 6441 C 583.782 -1.79104 0.527126 0
M  V30 6442 C 584.133 -1.7135 -0.955695 0
M  V30 6443 O 583.258 -1.27845 -1.74598 0
M  V30 6444 C 583.853 -3.25207 0.950061 0
M  V30 6445 C 582.412 -3.70504 0.663611 0
M  V30 6446 C 581.559 -2.52605 1.14395 0
M  V30 6447 H 584.51 -1.18868 1.05148 0
M  V30 6448 H 584.531 -3.79535 0.270805 0
M  V30 6449 H 584.043 -3.30818 2.02931 0
M  V30 6450 H 582.144 -3.70398 -0.404474 0
M  V30 6451 H 582.257 -4.62845 1.23737 0
M  V30 6452 H 580.621 -2.4838 0.563859 0
M  V30 6453 H 581.404 -2.60964 2.23053 0
M  V30 6454 N 583.85 -0.624285 -1.44708 0
M  V30 6455 C 584.798 0.0969952 -2.32398 0
M  V30 6456 C 585.792 0.842762 -1.46949 0
M  V30 6457 O 586.998 0.756436 -1.63334 0
M  V30 6458 H 583.373 0.0501306 -0.750327 0
M  V30 6459 H 585.344 -0.660767 -2.90992 0
M  V30 6460 C 584.093 1.06967 -3.30837 0
M  V30 6461 H 583.416 0.505242 -3.96595 0
M  V30 6462 H 584.856 1.54397 -3.94889 0
M  V30 6463 C 583.315 2.15153 -2.5925 0
M  V30 6464 O 583.845 3.23139 -2.3863 0
M  V30 6465 N 582.051 1.90898 -2.19103 0
M  V30 6466 H 581.598 1.03086 -2.36074 0
M  V30 6467 H 581.556 2.63485 -1.71531 0
M  V30 6468 N 585.328 1.53329 -0.364422 0
M  V30 6469 C 586.556 2.05657 0.226424 0
M  V30 6470 C 586.971 1.23801 1.42544 0
M  V30 6471 O 586.328 0.27839 1.80364 0
M  V30 6472 C 586.379 3.56125 0.621056 0
M  V30 6473 O 586.1 4.34879 -0.530304 0
M  V30 6474 C 587.601 4.24706 1.27041 0
M  V30 6475 H 584.821 0.669806 0.0400056 0
M  V30 6476 H 587.365 1.97714 -0.522456 0
M  V30 6477 H 585.52 3.64223 1.31985 0
M  V30 6478 H 585.934 5.24073 -0.211546 0
M  V30 6479 H 587.408 5.3131 1.49711 0
M  V30 6480 H 587.885 3.78354 2.23036 0
M  V30 6481 H 588.491 4.20858 0.613079 0
M  V30 6482 N 586.806 0.0935595 1.57322 0
M  V30 6483 C 588.031 -0.582324 1.99057 0
M  V30 6484 C 588.456 -1.61025 0.972242 0
M  V30 6485 O 587.814 -1.81202 -0.0594622 0
M  V30 6486 C 587.862 -1.20799 3.39765 0
M  V30 6487 O 586.966 -2.32382 3.40694 0
M  V30 6488 H 586.307 -0.147884 0.647323 0
M  V30 6489 H 588.837 0.174516 2.03854 0
M  V30 6490 H 588.847 -1.54966 3.77425 0
M  V30 6491 H 587.522 -0.454914 4.13405 0
M  V30 6492 H 586.099 -1.99845 3.14827 0
M  V30 6493 N 588.284 -1.56567 -0.180126 0
M  V30 6494 C 589.514 -1.85349 -0.912647 0
M  V30 6495 C 589.922 -0.675795 -1.76719 0
M  V30 6496 O 589.265 0.3645 -1.80047 0
M  V30 6497 C 589.327 -3.08431 -1.84691 0
M  V30 6498 C 588.991 -4.41694 -1.17284 0
M  V30 6499 C 589.988 -5.17062 -0.542532 0
M  V30 6500 C 587.673 -4.8843 -1.17223 0
M  V30 6501 C 589.667 -6.37351 0.0793953 0
M  V30 6502 C 587.354 -6.08652 -0.54647 0
M  V30 6503 C 588.352 -6.82955 0.0782458 0
M  V30 6504 O 588.04 -8.00897 0.694158 0
M  V30 6505 H 587.772 -0.619286 -0.271036 0
M  V30 6506 H 590.326 -2.0454 -0.187768 0
M  V30 6507 H 588.556 -2.85163 -2.61188 0
M  V30 6508 H 590.245 -3.23733 -2.44851 0
M  V30 6509 H 591.011 -4.8204 -0.535045 0
M  V30 6510 H 586.89 -4.30542 -1.64788 0
M  V30 6511 H 590.434 -6.95287 0.567612 0
M  V30 6512 H 586.331 -6.4314 -0.55151 0
M  V30 6513 H 587.099 -8.16352 0.592537 0
M  V30 6514 N 589.762 0.448376 -1.51087 0
M  V30 6515 C 591.008 1.20049 -1.6345 0
M  V30 6516 C 591.341 1.91121 -0.344444 0
M  V30 6517 O 590.616 1.83125 0.655396 0
M  V30 6518 C 590.899 2.22624 -2.83038 0
M  V30 6519 C 590.752 1.55708 -4.21989 0
M  V30 6520 C 592.071 3.23718 -2.98152 0
M  V30 6521 H 589.19 0.435085 -0.59487 0
M  V30 6522 H 591.832 0.491183 -1.83541 0
M  V30 6523 H 589.982 2.83117 -2.66039 0
M  V30 6524 H 591.654 0.986367 -4.50631 0
M  V30 6525 H 589.897 0.859647 -4.25197 0
M  V30 6526 H 590.568 2.30357 -5.01637 0
M  V30 6527 H 593.044 2.73269 -3.13788 0
M  V30 6528 H 591.92 3.92795 -3.83411 0
M  V30 6529 H 592.181 3.89179 -2.09743 0
M  V30 6530 N 591.24 1.41047 0.703093 0
M  V30 6531 C 592.486 1.40207 1.46526 0
M  V30 6532 C 592.819 0.00847763 1.94198 0
M  V30 6533 O 592.094 -0.962437 1.69019 0
M  V30 6534 C 592.377 2.40238 2.6825 0
M  V30 6535 C 592.23 3.88674 2.26391 0
M  V30 6536 C 593.549 2.37627 3.70434 0
M  V30 6537 H 590.668 0.510594 0.531472 0
M  V30 6538 H 593.31 1.72271 0.801422 0
M  V30 6539 H 591.46 2.13026 3.24888 0
M  V30 6540 H 593.132 4.2676 1.75138 0
M  V30 6541 H 591.375 4.03903 1.58255 0
M  V30 6542 H 592.046 4.542 3.13698 0
M  V30 6543 H 594.522 2.61759 3.23452 0
M  V30 6544 H 593.398 3.09645 4.53223 0
M  V30 6545 H 593.659 1.39223 4.19606 0
M  V30 6546 N 592.718 -0.936591 1.26751 0
M  V30 6547 C 594.129 -1.49816 1.1141 0
M  V30 6548 C 594.48 -1.9383 -0.304015 0
M  V30 6549 O 593.605 -1.80346 -1.196 0
M  V30 6550 C 594.2 -2.72271 2.01629 0
M  V30 6551 C 592.759 -3.2468 1.9042 0
M  V30 6552 C 591.906 -1.97444 1.94708 0
M  V30 6553 H 594.857 -0.751604 1.39773 0
M  V30 6554 H 594.878 -3.46741 1.56688 0
M  V30 6555 H 594.39 -2.40205 3.04833 0
M  V30 6556 H 592.491 -3.61525 0.901674 0
M  V30 6557 H 592.604 -3.91476 2.76195 0
M  V30 6558 H 590.968 -2.13545 1.38818 0
M  V30 6559 H 591.751 -1.67703 2.9955 0
M  V30 6560 N 594.196 -1.08629 -1.14182 0
M  V30 6561 C 595.612 -0.814363 -1.3726 0
M  V30 6562 C 595.812 0.575271 -1.93114 0
M  V30 6563 O 594.868 1.33165 -2.1453 0
M  V30 6564 C 596.181 -1.8989 -2.33157 0
M  V30 6565 C 597.729 -1.92518 -2.46791 0
M  V30 6566 C 598.204 -3.00092 -3.45989 0
M  V30 6567 N 599.695 -2.99279 -3.53534 0
M  V30 6568 C 600.43 -3.79158 -4.30147 0
M  V30 6569 N 599.926 -4.68923 -5.09983 0
M  V30 6570 N 601.719 -3.67451 -4.25366 0
M  V30 6571 H 593.87 -1.98232 -0.762758 0
M  V30 6572 H 596.133 -0.860383 -0.398051 0
M  V30 6573 H 595.839 -2.89809 -1.99257 0
M  V30 6574 H 595.713 -1.77013 -3.33086 0
M  V30 6575 H 598.1 -0.932425 -2.79982 0
M  V30 6576 H 598.181 -2.09473 -1.46816 0
M  V30 6577 H 597.825 -3.99575 -3.13532 0
M  V30 6578 H 597.755 -2.80382 -4.45751 0
M  V30 6579 H 600.246 -2.3422 -2.96563 0
M  V30 6580 H 600.559 -5.26475 -5.65724 0
M  V30 6581 H 598.904 -4.72964 -5.09244 0
M  V30 6582 H 602.095 -2.9669 -3.62067 0
M  V30 6583 H 602.268 -4.29944 -4.84822 0
M  V30 6584 N 595.674 1.31259 -0.872281 0
M  V30 6585 C 596.951 1.91362 -0.404943 0
M  V30 6586 C 597.331 1.79362 1.11321 0
M  V30 6587 O 596.679 1.20277 1.94283 0
M  V30 6588 C 596.889 3.3749 -0.888893 0
M  V30 6589 C 598.237 4.14593 -0.916384 0
M  V30 6590 O 599.261 3.46282 -0.834701 0
M  V30 6591 O 598.12 5.3661 -1.03498 0
M  V30 6592 H 595.214 0.818016 -0.121569 0
M  V30 6593 H 597.76 1.39912 -0.960346 0
M  V30 6594 H 596.532 3.40249 -1.93251 0
M  V30 6595 H 596.155 3.96375 -0.311932 0
M  V30 6596 N 597.152 0.631951 1.44375 0
M  V30 6597 C 598.382 0.143658 2.061 0
M  V30 6598 C 598.79 -1.18733 1.47306 0
M  V30 6599 O 598.133 -1.73943 0.590724 0
M  V30 6600 C 598.195 -0.0446102 3.59472 0
M  V30 6601 C 597.859 1.20835 4.40736 0
M  V30 6602 C 598.856 2.13224 4.74164 0
M  V30 6603 C 596.541 1.44399 4.81097 0
M  V30 6604 C 598.535 3.27487 5.46838 0
M  V30 6605 C 596.222 2.58959 5.53519 0
M  V30 6606 C 597.22 3.50329 5.86309 0
M  V30 6607 O 596.908 4.62891 6.57257 0
M  V30 6608 H 596.64 0.0772939 0.671567 0
M  V30 6609 H 599.194 0.866677 1.8622 0
M  V30 6610 H 597.424 -0.822783 3.77845 0
M  V30 6611 H 599.113 -0.487561 4.02961 0
M  V30 6612 H 599.879 1.96253 4.4352 0
M  V30 6613 H 595.758 0.741696 4.54994 0
M  V30 6614 H 599.302 3.98826 5.72349 0
M  V30 6615 H 595.199 2.75873 5.83579 0
M  V30 6616 H 595.967 4.61883 6.75726 0
M  V30 6617 N 598.631 -1.53133 0.372548 0
M  V30 6618 C 599.581 -2.22733 -0.487218 0
M  V30 6619 C 600.565 -1.22506 -1.04312 0
M  V30 6620 O 601.757 -1.47923 -0.972005 0
M  V30 6621 C 598.886 -3.02524 -1.62278 0
M  V30 6622 C 597.972 -4.10133 -1.07943 0
M  V30 6623 N 598.363 -5.05133 -0.259629 0
M  V30 6624 C 596.661 -4.24964 -1.35356 0
M  V30 6625 C 597.362 -5.81687 0.0386656 0
M  V30 6626 N 596.338 -5.40699 -0.560827 0
M  V30 6627 H 600.14 -2.93538 0.145853 0
M  V30 6628 H 597.654 -1.61389 0.180938 0
M  V30 6629 H 599.651 -3.50909 -2.25096 0
M  V30 6630 H 598.311 -2.33252 -2.25884 0
M  V30 6631 H 599.322 -5.178 0.101746 0
M  V30 6632 H 595.999 -3.66919 -1.9919 0
M  V30 6633 H 597.389 -6.68224 0.701841 0
M  V30 6634 N 600.109 -0.101901 -1.5727 0
M  V30 6635 C 601.355 0.561027 -1.94885 0
M  V30 6636 C 601.688 1.6741 -0.984258 0
M  V30 6637 O 600.963 1.94491 -0.0184767 0
M  V30 6638 C 601.246 1.10982 -3.42571 0
M  V30 6639 C 601.099 0.00133418 -4.498 0
M  V30 6640 C 602.418 2.00608 -3.9172 0
M  V30 6641 H 599.537 0.202467 -0.708644 0
M  V30 6642 H 602.179 -0.173992 -1.89202 0
M  V30 6643 H 600.329 1.73621 -3.47546 0
M  V30 6644 H 602.001 -0.63322 -4.56933 0
M  V30 6645 H 600.244 -0.664143 -4.28686 0
M  V30 6646 H 600.915 0.426253 -5.50352 0
M  V30 6647 H 603.391 1.47864 -3.88941 0
M  V30 6648 H 602.267 2.3593 -4.95609 0
M  V30 6649 H 602.528 2.92608 -3.3141 0
M  V30 6650 N 601.587 1.56661 0.17182 0
M  V30 6651 C 602.517 1.99401 1.21498 0
M  V30 6652 C 603.498 0.869516 1.46197 0
M  V30 6653 O 604.683 1.13556 1.57539 0
M  V30 6654 C 601.813 2.35346 2.55401 0
M  V30 6655 C 600.767 3.5075 2.45272 0
M  V30 6656 C 600.093 3.72437 3.8366 0
M  V30 6657 C 601.393 4.84216 1.95787 0
M  V30 6658 H 603.087 2.86792 0.859699 0
M  V30 6659 H 600.633 1.37977 0.412103 0
M  V30 6660 H 602.586 2.63843 3.2858 0
M  V30 6661 H 601.31 1.44864 2.92715 0
M  V30 6662 H 599.969 3.2238 1.74547 0
M  V30 6663 H 599.617 2.79246 4.18367 0
M  V30 6664 H 599.317 4.50087 3.77751 0
M  V30 6665 H 600.841 4.03334 4.58426 0
M  V30 6666 H 602.255 5.11592 2.5874 0
M  V30 6667 H 600.652 5.65498 2.00827 0
M  V30 6668 H 601.722 4.76243 0.912159 0
M  V30 6669 N 603.065 -0.440357 1.51323 0
M  V30 6670 C 604.311 -1.19181 1.64085 0
M  V30 6671 C 604.644 -1.90936 0.354575 0
M  V30 6672 O 603.919 -1.8347 -0.645675 0
M  V30 6673 C 604.202 -2.2112 2.84215 0
M  V30 6674 C 604.055 -1.53468 4.22809 0
M  V30 6675 C 605.374 -3.22133 2.99864 0
M  V30 6676 H 602.493 -0.431924 0.597169 0
M  V30 6677 H 605.135 -0.481443 1.83799 0
M  V30 6678 H 603.285 -2.81703 2.67537 0
M  V30 6679 H 604.957 -0.962455 4.51148 0
M  V30 6680 H 603.2 -0.837086 4.25647 0
M  V30 6681 H 603.871 -2.27694 5.02852 0
M  V30 6682 H 606.347 -2.71601 3.15233 0
M  V30 6683 H 605.223 -3.90756 3.85488 0
M  V30 6684 H 605.484 -3.88061 2.11804 0
M  V30 6685 N 604.543 -1.41418 -0.695603 0
M  V30 6686 C 605.768 -1.44329 -1.48942 0
M  V30 6687 C 606.193 -0.0501579 -1.88033 0
M  V30 6688 O 605.551 0.946598 -1.54626 0
M  V30 6689 C 605.599 -2.3578 -2.72837 0
M  V30 6690 O 604.703 -1.81482 -3.70322 0
M  V30 6691 H 604.044 -0.489838 -0.44828 0
M  V30 6692 H 606.574 -1.85878 -0.855014 0
M  V30 6693 H 606.584 -2.51654 -3.21145 0
M  V30 6694 H 605.259 -3.37005 -2.43722 0
M  V30 6695 H 603.836 -1.75058 -3.29255 0
M  V30 6696 N 606.021 0.929856 -1.27246 0
M  V30 6697 C 607.432 1.49223 -1.12203 0
M  V30 6698 C 607.783 1.93989 0.293731 0
M  V30 6699 O 606.908 1.80978 1.18642 0
M  V30 6700 C 607.503 2.71198 -2.0307 0
M  V30 6701 C 606.062 3.23666 -1.92139 0
M  V30 6702 C 605.209 1.96409 -1.95752 0
M  V30 6703 H 608.16 0.744181 -1.4017 0
M  V30 6704 H 608.181 3.45905 -1.58524 0
M  V30 6705 H 607.693 2.38585 -3.06102 0
M  V30 6706 H 605.794 3.61042 -0.920834 0
M  V30 6707 H 605.907 3.90006 -2.78267 0
M  V30 6708 H 604.271 2.12806 -1.39949 0
M  V30 6709 H 605.054 1.66113 -3.00436 0
M  V30 6710 N 607.499 1.09233 1.13605 0
M  V30 6711 C 608.747 0.825525 1.84471 0
M  V30 6712 C 609.068 -0.650702 1.83823 0
M  V30 6713 O 608.338 -1.47204 1.29259 0
M  V30 6714 H 606.918 0.3024 0.683054 0
M  V30 6715 H 609.58 1.38006 1.37624 0
M  V30 6716 H 608.676 1.17727 2.89045 0
M  V30 6717 N 608.977 -1.30795 0.87923 0
M  V30 6718 C 610.207 -2.00237 0.50881 0
M  V30 6719 C 610.615 -1.66115 -0.905682 0
M  V30 6720 O 609.958 -0.89138 -1.60624 0
M  V30 6721 C 610.02 -3.54508 0.597003 0
M  V30 6722 C 609.684 -4.12131 1.97477 0
M  V30 6723 C 610.681 -4.28552 2.94346 0
M  V30 6724 C 608.366 -4.47644 2.2786 0
M  V30 6725 C 610.36 -4.79689 4.19735 0
M  V30 6726 C 608.047 -4.98481 3.53496 0
M  V30 6727 C 609.045 -5.14456 4.49248 0
M  V30 6728 O 608.733 -5.64199 5.72656 0
M  V30 6729 H 608.465 -0.647026 0.195788 0
M  V30 6730 H 611.019 -1.67785 1.1848 0
M  V30 6731 H 609.249 -3.86461 -0.135945 0
M  V30 6732 H 610.938 -4.05198 0.238684 0
M  V30 6733 H 611.704 -4.01424 2.72183 0
M  V30 6734 H 607.583 -4.34481 1.54102 0
M  V30 6735 H 611.127 -4.92073 4.9448 0
M  V30 6736 H 607.024 -5.25044 3.75498 0
M  V30 6737 H 607.792 -5.82551 5.74957 0
M  V30 6738 N 610.455 -0.639598 -1.44038 0
M  V30 6739 C 611.683 -0.154811 -2.0632 0
M  V30 6740 C 612.098 1.17406 -1.47856 0
M  V30 6741 O 611.455 1.72193 -0.604638 0
M  V30 6742 C 611.506 -0.0429958 -3.61474 0
M  V30 6743 O 611.227 -1.31932 -4.17763 0
M  V30 6744 C 612.728 0.469486 -4.40807 0
M  V30 6745 H 609.948 -0.0835862 -0.665773 0
M  V30 6746 H 612.492 -0.876397 -1.84769 0
M  V30 6747 H 610.647 0.629075 -3.82258 0
M  V30 6748 H 611.061 -1.16965 -5.11292 0
M  V30 6749 H 612.535 0.496712 -5.49761 0
M  V30 6750 H 613.012 1.49819 -4.12857 0
M  V30 6751 H 613.618 -0.169624 -4.24962 0
M  V30 6752 N 611.933 1.52934 -0.380664 0
M  V30 6753 C 612.883 2.22989 0.475399 0
M  V30 6754 C 613.867 1.23058 1.03661 0
M  V30 6755 O 615.059 1.48436 0.964146 0
M  V30 6756 C 612.188 3.0338 1.60671 0
M  V30 6757 C 611.274 4.107 1.05766 0
M  V30 6758 N 611.665 5.05264 0.232837 0
M  V30 6759 C 609.963 4.25676 1.33101 0
M  V30 6760 C 610.664 5.81658 -0.0695134 0
M  V30 6761 N 609.64 5.40989 0.532144 0
M  V30 6762 H 613.442 2.93456 -0.161418 0
M  V30 6763 H 610.956 1.61291 -0.189495 0
M  V30 6764 H 612.953 3.52098 2.23232 0
M  V30 6765 H 611.613 2.34446 2.24644 0
M  V30 6766 H 612.624 5.17739 -0.129204 0
M  V30 6767 H 609.301 3.6797 1.97241 0
M  V30 6768 H 610.691 6.67843 -0.737269 0
M  V30 6769 N 613.412 0.11024 1.57214 0
M  V30 6770 C 614.342 -0.840002 2.17867 0
M  V30 6771 C 615.323 -1.28352 1.11624 0
M  V30 6772 O 616.508 -1.3477 1.39824 0
M  V30 6773 C 613.638 -2.09349 2.77111 0
M  V30 6774 C 612.592 -1.78807 3.8886 0
M  V30 6775 C 611.918 -3.11112 4.34872 0
M  V30 6776 C 613.218 -1.0632 5.11364 0
M  V30 6777 H 614.912 -0.334608 2.97524 0
M  V30 6778 H 612.458 -0.159502 1.43114 0
M  V30 6779 H 614.411 -2.76275 3.18198 0
M  V30 6780 H 613.135 -2.62198 1.9473 0
M  V30 6781 H 611.794 -1.14273 3.48335 0
M  V30 6782 H 611.442 -3.61877 3.49362 0
M  V30 6783 H 611.142 -2.91453 5.10224 0
M  V30 6784 H 612.666 -3.79171 4.78604 0
M  V30 6785 H 614.08 -1.63383 5.49526 0
M  V30 6786 H 612.477 -0.967876 5.92243 0
M  V30 6787 H 613.547 -0.0484569 4.84876 0
M  V30 6788 N 614.89 -1.56749 -0.16351 0
M  V30 6789 C 615.822 -1.93587 -1.22705 0
M  V30 6790 C 616.835 -0.829824 -1.40063 0
M  V30 6791 O 618.024 -1.10826 -1.39928 0
M  V30 6792 C 615.124 -2.1803 -2.59454 0
M  V30 6793 C 614.297 -3.4928 -2.63292 0
M  V30 6794 C 613.356 -3.62457 -3.8146 0
M  V30 6795 O 612.382 -4.35004 -3.67096 0
M  V30 6796 N 613.584 -2.97888 -4.9824 0
M  V30 6797 H 616.349 -2.8542 -0.914081 0
M  V30 6798 H 613.91 -1.58 -0.353214 0
M  V30 6799 H 615.902 -2.24102 -3.36987 0
M  V30 6800 H 614.472 -1.32543 -2.8311 0
M  V30 6801 H 613.692 -3.54795 -1.71796 0
M  V30 6802 H 614.98 -4.35632 -2.62873 0
M  V30 6803 H 614.378 -2.38833 -5.12811 0
M  V30 6804 H 612.935 -3.09545 -5.73607 0
M  V30 6805 N 616.368 0.432326 -1.51554 0
M  V30 6806 C 617.278 1.55023 -1.76082 0
M  V30 6807 C 618.294 1.61593 -0.645265 0
M  V30 6808 O 619.47 1.78742 -0.928086 0
M  V30 6809 C 616.535 2.90964 -1.88523 0
M  V30 6810 C 615.596 2.9447 -3.12388 0
M  V30 6811 C 614.829 4.23926 -3.24225 0
M  V30 6812 O 615.052 5.16576 -2.4188 0
M  V30 6813 O 613.986 4.33818 -4.17235 0
M  V30 6814 H 617.812 1.37238 -2.70923 0
M  V30 6815 H 615.397 0.615845 -1.36117 0
M  V30 6816 H 617.279 3.71633 -1.98662 0
M  V30 6817 H 615.954 3.08865 -0.9687 0
M  V30 6818 H 614.861 2.12737 -3.07723 0
M  V30 6819 H 616.194 2.81514 -4.03746 0
M  V30 6820 N 617.846 1.41785 0.688094 0
M  V30 6821 C 618.756 1.46596 1.83158 0
M  V30 6822 C 619.772 0.355862 1.70322 0
M  V30 6823 O 620.948 0.604737 1.92106 0
M  V30 6824 C 618.013 1.35322 3.192 0
M  V30 6825 C 617.074 2.56711 3.4409 0
M  V30 6826 C 616.307 2.45965 4.73642 0
M  V30 6827 O 616.53 1.48827 5.50642 0
M  V30 6828 O 615.464 3.35859 4.99482 0
M  V30 6829 H 619.29 2.43083 1.82056 0
M  V30 6830 H 616.875 1.23404 0.842126 0
M  V30 6831 H 618.757 1.31347 4.00407 0
M  V30 6832 H 617.432 0.419536 3.2097 0
M  V30 6833 H 616.339 2.66262 2.62784 0
M  V30 6834 H 617.672 3.48933 3.47141 0
M  V30 6835 N 619.324 -0.923095 1.27737 0
M  V30 6836 C 620.571 -1.67127 1.14345 0
M  V30 6837 C 620.899 -1.92017 -0.30982 0
M  V30 6838 O 620.154 -1.51185 -1.24264 0
M  V30 6839 C 620.453 -3.04125 1.8773 0
M  V30 6840 C 620.119 -2.98929 3.37568 0
M  V30 6841 C 618.781 -2.9722 3.78436 0
M  V30 6842 C 621.133 -2.89875 4.33154 0
M  V30 6843 C 618.461 -2.84244 5.13247 0
M  V30 6844 C 620.813 -2.7844 5.68026 0
M  V30 6845 C 619.477 -2.75083 6.08182 0
M  V30 6846 H 618.747 -0.611562 0.418417 0
M  V30 6847 H 621.394 -1.07618 1.584 0
M  V30 6848 H 619.699 -3.67366 1.36196 0
M  V30 6849 H 621.396 -3.609 1.74792 0
M  V30 6850 H 617.986 -3.0105 3.05069 0
M  V30 6851 H 622.17 -2.9029 4.02548 0
M  V30 6852 H 617.426 -2.80034 5.43499 0
M  V30 6853 H 621.6 -2.70401 6.4176 0
M  V30 6854 H 619.227 -2.64786 7.12596 0
M  V30 6855 N 620.802 -1.09834 -1.13024 0
M  V30 6856 C 622.049 -0.83695 -1.84395 0
M  V30 6857 C 622.377 0.637463 -1.83757 0
M  V30 6858 O 621.632 1.48554 -1.27398 0
M  V30 6859 C 621.931 -1.32263 -3.32026 0
M  V30 6860 C 621.597 -2.80739 -3.52841 0
M  V30 6861 C 620.259 -3.21286 -3.5823 0
M  V30 6862 C 622.611 -3.76449 -3.60466 0
M  V30 6863 C 619.939 -4.56308 -3.68781 0
M  V30 6864 C 622.291 -5.11266 -3.72546 0
M  V30 6865 C 620.955 -5.51397 -3.76189 0
M  V30 6866 H 620.225 -0.306262 -0.674748 0
M  V30 6867 H 622.872 -1.37385 -1.33408 0
M  V30 6868 H 621.177 -0.705618 -3.85394 0
M  V30 6869 H 622.874 -1.09695 -3.85705 0
M  V30 6870 H 619.464 -2.48363 -3.49305 0
M  V30 6871 H 623.648 -3.46234 -3.55578 0
M  V30 6872 H 618.904 -4.86832 -3.69871 0
M  V30 6873 H 623.078 -5.85279 -3.77388 0
M  V30 6874 H 620.705 -6.56017 -3.84117 0
M  V30 6875 N 622.28 1.30327 -0.886154 0
M  V30 6876 C 623.691 1.78243 -0.555554 0
M  V30 6877 C 624.042 1.72849 0.928314 0
M  V30 6878 O 623.167 1.30607 1.72542 0
M  V30 6879 C 623.762 3.23654 -1.00168 0
M  V30 6880 C 622.321 3.69401 -0.722471 0
M  V30 6881 C 621.468 2.50753 -1.18399 0
M  V30 6882 H 624.419 1.1718 -1.07026 0
M  V30 6883 H 624.44 3.79056 -0.331152 0
M  V30 6884 H 623.952 3.27548 -2.08169 0
M  V30 6885 H 622.053 3.70995 0.345496 0
M  V30 6886 H 622.166 4.60818 -1.31085 0
M  V30 6887 H 620.53 2.47452 -0.603303 0
M  V30 6888 H 621.313 2.57383 -2.27176 0
M  V30 6889 N 623.758 0.647228 1.43697 0
M  V30 6890 C 624.705 -0.0480092 2.3075 0
M  V30 6891 C 625.675 -0.820705 1.44408 0
M  V30 6892 O 626.86 -0.798515 1.73287 0
M  V30 6893 C 624 -1.01259 3.2991 0
M  V30 6894 C 623.113 -0.236629 4.31351 0
M  V30 6895 C 622.248 -1.19447 5.17596 0
M  V30 6896 C 621.287 -0.408595 6.10735 0
M  V30 6897 N 620.424 -1.31772 6.89623 0
M  V30 6898 H 625.264 0.700238 2.89656 0
M  V30 6899 H 622.801 0.357082 1.427 0
M  V30 6900 H 624.759 -1.58538 3.85903 0
M  V30 6901 H 623.389 -1.72778 2.72667 0
M  V30 6902 H 622.441 0.452353 3.77701 0
M  V30 6903 H 623.753 0.374731 4.9739 0
M  V30 6904 H 622.907 -1.83809 5.78186 0
M  V30 6905 H 621.646 -1.83975 4.51669 0
M  V30 6906 H 620.651 0.24841 5.49239 0
M  V30 6907 H 621.876 0.232188 6.78703 0
M  V30 6908 H 619.822 -1.94991 6.2635 0
M  V30 6909 H 619.739 -0.760779 7.52162 0
M  V30 6910 H 621.007 -1.94967 7.54724 0
M  V30 6911 N 625.236 -1.5273 0.388769 0
M  V30 6912 C 626.647 -1.86505 -0.0853788 0
M  V30 6913 C 626.998 -1.30847 -1.46197 0
M  V30 6914 O 626.123 -0.639609 -2.06732 0
M  V30 6915 C 626.718 -3.38414 -0.161703 0
M  V30 6916 C 625.277 -3.71902 -0.580144 0
M  V30 6917 C 624.424 -2.76095 0.258218 0
M  V30 6918 H 627.375 -1.46647 0.606665 0
M  V30 6919 H 627.396 -3.67638 -0.980936 0
M  V30 6920 H 626.908 -3.78893 0.840333 0
M  V30 6921 H 625.009 -3.36992 -1.58957 0
M  V30 6922 H 625.122 -4.77902 -0.338663 0
M  V30 6923 H 623.486 -2.53195 -0.276432 0
M  V30 6924 H 624.269 -3.19411 1.25822 0
M  V30 6925 N 626.714 -0.118576 -1.57153 0
M  V30 6926 C 627.662 0.849114 -2.16547 0
M  V30 6927 C 628.656 1.27567 -1.11458 0
M  V30 6928 O 629.862 1.24746 -1.29763 0
M  V30 6929 H 626.237 0.291935 -0.693021 0
M  V30 6930 H 628.208 0.323693 -2.96639 0
M  V30 6931 C 626.957 2.08951 -2.77912 0
M  V30 6932 H 626.28 1.77021 -3.58474 0
M  V30 6933 H 627.72 2.74666 -3.23008 0
M  V30 6934 C 626.179 2.87899 -1.74974 0
M  V30 6935 O 626.709 3.83268 -1.20285 0
M  V30 6936 N 624.915 2.51884 -1.44924 0
M  V30 6937 H 624.462 1.74397 -1.89587 0
M  V30 6938 H 624.42 3.05003 -0.762921 0
M  V30 6939 N 628.193 1.56834 0.155195 0
M  V30 6940 C 629.103 2.009 1.21146 0
M  V30 6941 C 630.119 0.923029 1.475 0
M  V30 6942 O 631.295 1.23189 1.59331 0
M  V30 6943 C 628.36 2.37378 2.52691 0
M  V30 6944 C 627.421 3.59883 2.34057 0
M  V30 6945 C 626.654 3.94612 3.59329 0
M  V30 6946 O 626.877 3.30104 4.65175 0
M  V30 6947 O 625.811 4.87895 3.52479 0
M  V30 6948 H 629.637 2.9105 0.867371 0
M  V30 6949 H 627.222 1.44916 0.363298 0
M  V30 6950 H 629.104 2.61737 3.3026 0
M  V30 6951 H 627.779 1.50385 2.86646 0
M  V30 6952 H 626.686 3.40722 1.54465 0
M  V30 6953 H 628.019 4.47468 2.0502 0
M  V30 6954 N 629.671 -0.424282 1.51781 0
M  V30 6955 C 630.918 -1.1726 1.65095 0
M  V30 6956 C 631.246 -1.90881 0.373477 0
M  V30 6957 O 630.501 -1.84835 -0.642997 0
M  V30 6958 C 630.8 -2.20418 2.81337 0
M  V30 6959 C 630.466 -1.63715 4.20129 0
M  V30 6960 C 629.128 -1.47975 4.57883 0
M  V30 6961 C 631.48 -1.22157 5.06682 0
M  V30 6962 C 628.808 -0.891703 5.79884 0
M  V30 6963 C 631.16 -0.647767 6.29275 0
M  V30 6964 C 629.824 -0.477371 6.65791 0
M  V30 6965 H 629.094 -0.429085 0.604125 0
M  V30 6966 H 631.741 -0.461852 1.85847 0
M  V30 6967 H 630.046 -2.97581 2.54859 0
M  V30 6968 H 631.743 -2.78163 2.88836 0
M  V30 6969 H 628.333 -1.76946 3.90369 0
M  V30 6970 H 632.517 -1.33133 4.7811 0
M  V30 6971 H 627.773 -0.747563 6.06813 0
M  V30 6972 H 631.947 -0.317291 6.95677 0
M  V30 6973 H 629.574 -0.0195936 7.60197 0
M  V30 6974 N 631.149 -1.42148 -0.680565 0
M  V30 6975 C 632.097 -1.45401 -1.81552 0
M  V30 6976 C 633.091 -0.33036 -1.66147 0
M  V30 6977 O 634.297 -0.503103 -1.72826 0
M  V30 6978 H 630.672 -0.455265 -0.59853 0
M  V30 6979 H 632.643 -2.41024 -1.75926 0
M  V30 6980 C 631.392 -1.36769 -3.19671 0
M  V30 6981 H 630.715 -2.22525 -3.32149 0
M  V30 6982 H 632.155 -1.43106 -3.9912 0
M  V30 6983 C 630.614 -0.0817752 -3.36801 0
M  V30 6984 O 631.144 0.867707 -3.92216 0
M  V30 6985 N 629.35 -0.000799811 -2.906 0
M  V30 6986 H 628.897 -0.774231 -2.4569 0
M  V30 6987 H 628.855 0.858961 -3.02439 0
M  V30 6988 N 632.627 0.916307 -1.28225 0
M  V30 6989 C 633.876 1.65975 -1.14608 0
M  V30 6990 C 634.189 1.93204 0.305191 0
M  V30 6991 O 635.395 2.65611 0.562432 0
M  V30 6992 C 633.851 2.98989 -2.00333 0
M  V30 6993 C 633.459 2.79417 -3.50186 0
M  V30 6994 C 635.203 3.76856 -1.95397 0
M  V30 6995 C 633.11 4.08056 -4.28071 0
M  V30 6996 H 632.04 0.622587 -0.425324 0
M  V30 6997 H 634.691 1.01705 -1.52736 0
M  V30 6998 H 633.073 3.6438 -1.5506 0
M  V30 6999 H 634.247 2.22723 -4.034 0
M  V30 7000 H 632.562 2.14966 -3.56621 0
M  V30 7001 H 635.159 4.72203 -2.50856 0
M  V30 7002 H 635.502 4.05776 -0.930137 0
M  V30 7003 H 636.035 3.1828 -2.38626 0
M  V30 7004 H 632.774 3.8431 -5.31024 0
M  V30 7005 H 632.294 4.64371 -3.79631 0
M  V30 7006 H 633.973 4.76333 -4.37854 0
M  V30 7007 N 634.105 1.10431 1.1244 0
M  V30 7008 C 635.055 0.722378 2.16254 0
M  V30 7009 C 636.039 -0.268427 1.58645 0
M  V30 7010 O 637.231 -0.077169 1.76832 0
M  V30 7011 C 634.36 0.155763 3.42946 0
M  V30 7012 C 633.446 1.17361 4.07538 0
M  V30 7013 N 633.837 2.36429 4.47141 0
M  V30 7014 C 632.135 1.01412 4.34317 0
M  V30 7015 C 632.836 3.01259 4.97612 0
M  V30 7016 N 631.812 2.28777 4.93115 0
M  V30 7017 H 635.614 1.62876 2.4464 0
M  V30 7018 H 633.128 0.982031 1.29344 0
M  V30 7019 H 635.125 -0.135936 4.16678 0
M  V30 7020 H 633.785 -0.745339 3.1603 0
M  V30 7021 H 634.796 2.73954 4.39511 0
M  V30 7022 H 631.473 0.168574 4.1716 0
M  V30 7023 H 632.863 4.02541 5.37968 0
M  V30 7024 N 635.583 -1.29855 0.893053 0
M  V30 7025 C 636.999 -1.48366 0.588199 0
M  V30 7026 C 637.199 -1.81654 -0.872018 0
M  V30 7027 O 636.255 -1.909 -1.65268 0
M  V30 7028 C 637.568 -2.60136 1.5083 0
M  V30 7029 C 639.116 -2.74014 1.51279 0
M  V30 7030 C 639.591 -3.88905 2.41902 0
M  V30 7031 N 641.082 -3.96228 2.39911 0
M  V30 7032 C 641.817 -4.84458 3.06738 0
M  V30 7033 N 641.313 -5.77426 3.8282 0
M  V30 7034 N 643.106 -4.77894 2.95929 0
M  V30 7035 H 635.257 -1.06522 1.83757 0
M  V30 7036 H 637.52 -0.528495 0.787018 0
M  V30 7037 H 637.226 -2.42383 2.54839 0
M  V30 7038 H 637.1 -3.56793 1.22388 0
M  V30 7039 H 639.487 -2.91167 0.480179 0
M  V30 7040 H 639.568 -1.77952 1.83757 0
M  V30 7041 H 639.212 -3.72508 3.45253 0
M  V30 7042 H 639.142 -4.84322 2.06737 0
M  V30 7043 H 641.633 -3.29728 1.84629 0
M  V30 7044 H 641.946 -6.41529 4.30883 0
M  V30 7045 H 640.291 -5.77332 3.86927 0
M  V30 7046 H 643.482 -4.04248 2.36012 0
M  V30 7047 H 643.655 -5.46444 3.48286 0
M  V30 7048 N 637.061 -0.65484 -1.43351 0
M  V30 7049 C 638.307 -0.177749 -2.02622 0
M  V30 7050 C 638.662 1.19553 -1.50748 0
M  V30 7051 O 637.955 1.78683 -0.691599 0
M  V30 7052 C 638.149 -0.130424 -3.57162 0
M  V30 7053 C 637.978 -1.49757 -4.24032 0
M  V30 7054 C 636.748 -2.09036 -4.60035 0
M  V30 7055 C 638.946 -2.4363 -4.52934 0
M  V30 7056 N 636.928 -3.3874 -5.11985 0
M  V30 7057 C 638.299 -3.57968 -5.0622 0
M  V30 7058 C 640.354 -2.42412 -4.34903 0
M  V30 7059 C 639.057 -4.71314 -5.43374 0
M  V30 7060 C 641.083 -3.5484 -4.7312 0
M  V30 7061 C 640.445 -4.67903 -5.26541 0
M  V30 7062 H 636.544 -0.10951 -0.774294 0
M  V30 7063 H 639.128 -0.863495 -1.74505 0
M  V30 7064 H 637.299 0.524671 -3.8484 0
M  V30 7065 H 639.031 0.35769 -4.03116 0
M  V30 7066 H 635.786 -1.61729 -4.4513 0
M  V30 7067 H 636.21 -4.05116 -5.42412 0
M  V30 7068 H 640.852 -1.56236 -3.92874 0
M  V30 7069 H 638.57 -5.5818 -5.84346 0
M  V30 7070 H 642.156 -3.55101 -4.60863 0
M  V30 7071 H 641.036 -5.5346 -5.55564 0
M  V30 7072 N 638.539 1.52521 -0.396863 0
M  V30 7073 C 639.816 1.94112 0.240842 0
M  V30 7074 C 640.196 1.33288 1.637 0
M  V30 7075 O 639.544 0.503901 2.22875 0
M  V30 7076 C 639.754 3.48033 0.259567 0
M  V30 7077 C 641.102 4.21822 0.484866 0
M  V30 7078 O 642.126 3.54579 0.339453 0
M  V30 7079 O 640.985 5.41042 0.770412 0
M  V30 7080 H 638.079 0.812973 0.151671 0
M  V30 7081 H 640.625 1.63572 -0.451918 0
M  V30 7082 H 639.397 3.84655 -0.718078 0
M  V30 7083 H 639.02 3.84899 0.996937 0
M  V30 7084 N 640.017 0.126909 1.57088 0
M  V30 7085 C 641.265 -0.528123 1.95078 0
M  V30 7086 C 641.586 -1.66708 1.0116 0
M  V30 7087 O 640.856 -1.95777 0.0693527 0
M  V30 7088 H 639.436 -0.198087 0.720257 0
M  V30 7089 H 642.098 0.197703 1.93895 0
M  V30 7090 H 641.194 -0.917507 2.98309 0
M  V30 7091 N 641.495 -1.56914 -0.146875 0
M  V30 7092 C 642.772 -1.74273 -0.888165 0
M  V30 7093 C 643.152 -0.69496 -1.99333 0
M  V30 7094 O 642.5 0.286093 -2.26702 0
M  V30 7095 C 642.71 -3.18336 -1.43051 0
M  V30 7096 C 644.058 -3.80024 -1.89387 0
M  V30 7097 O 645.082 -3.21765 -1.52792 0
M  V30 7098 O 643.941 -4.82367 -2.56874 0
M  V30 7099 H 641.035 -0.712565 -0.419738 0
M  V30 7100 H 643.581 -1.6918 -0.132791 0
M  V30 7101 H 642.353 -3.86092 -0.636274 0
M  V30 7102 H 641.976 -3.27854 -2.24938 0
M  V30 7103 N 642.974 0.416227 -1.52004 0
M  V30 7104 C 643.937 1.48926 -1.74223 0
M  V30 7105 C 644.937 1.48693 -0.612119 0
M  V30 7106 O 646.127 1.50343 -0.879921 0
M  V30 7107 C 643.259 2.88372 -1.81809 0
M  V30 7108 H 644.452 1.3052 -2.70008 0
M  V30 7109 H 642.005 0.646271 -1.42313 0
M  V30 7110 H 642.74 3.12157 -0.879135 0
M  V30 7111 H 642.525 2.89944 -2.6396 0
M  V30 7112 H 644.015 3.66173 -2.00766 0
M  V30 7113 N 644.452 1.42507 0.673017 0
M  V30 7114 C 645.415 1.4582 1.76831 0
M  V30 7115 C 646.415 0.345542 1.57043 0
M  V30 7116 O 647.605 0.606447 1.63303 0
M  V30 7117 C 644.737 1.29158 3.15485 0
M  V30 7118 H 645.93 2.43345 1.7528 0
M  V30 7119 H 643.483 1.28981 0.882817 0
M  V30 7120 H 644.218 0.325626 3.22661 0
M  V30 7121 H 644.003 2.09797 3.31252 0
M  V30 7122 H 645.493 1.34363 3.95394 0
M  V30 7123 N 645.93 -0.909495 1.28709 0
M  V30 7124 C 647.155 -1.69801 1.1909 0
M  V30 7125 C 647.58 -1.86479 -0.246388 0
M  V30 7126 O 646.938 -1.37802 -1.17815 0
M  V30 7127 C 646.986 -3.06543 1.89904 0
M  V30 7128 O 646.09 -3.94268 1.2094 0
M  V30 7129 H 645.431 -0.519783 0.413185 0
M  V30 7130 H 647.961 -1.13689 1.70106 0
M  V30 7131 H 647.971 -3.56748 1.97977 0
M  V30 7132 H 646.646 -2.93722 2.94449 0
M  V30 7133 H 645.223 -3.52702 1.2106 0
M  V30 7134 N 647.408 -1.11026 -1.11852 0
M  V30 7135 C 648.633 -0.879064 -1.87849 0
M  V30 7136 C 649.058 0.565406 -1.79401 0
M  V30 7137 O 648.416 1.39886 -1.15333 0
M  V30 7138 C 648.464 -1.33985 -3.34784 0
M  V30 7139 O 647.568 -0.508803 -4.09249 0
M  V30 7140 H 646.909 -0.316992 -0.583448 0
M  V30 7141 H 649.439 -1.47863 -1.41413 0
M  V30 7142 H 649.449 -1.33248 -3.85628 0
M  V30 7143 H 648.124 -2.39172 -3.40249 0
M  V30 7144 H 646.701 -0.581913 -3.68332 0
M  V30 7145 N 648.886 1.2938 -0.899927 0
M  V30 7146 C 650.111 2.00228 -0.540692 0
M  V30 7147 C 650.536 1.66909 0.867359 0
M  V30 7148 O 649.894 0.893824 1.57735 0
M  V30 7149 C 649.942 3.52921 -0.740232 0
M  V30 7150 O 649.046 4.11879 0.207154 0
M  V30 7151 H 648.387 0.629505 -0.211233 0
M  V30 7152 H 650.917 1.6487 -1.21158 0
M  V30 7153 H 650.927 4.0287 -0.644973 0
M  V30 7154 H 649.602 3.76508 -1.76677 0
M  V30 7155 H 648.179 3.72845 0.0643315 0
M  V30 7156 N 650.364 0.662433 1.43002 0
M  V30 7157 C 651.327 -0.0142016 2.29196 0
M  V30 7158 C 652.327 -0.741394 1.42688 0
M  V30 7159 O 653.517 -0.581257 1.64216 0
M  V30 7160 C 650.649 -1.03084 3.24941 0
M  V30 7161 H 651.842 0.7443 2.90517 0
M  V30 7162 H 649.395 0.424133 1.50435 0
M  V30 7163 H 650.13 -1.81826 2.68533 0
M  V30 7164 H 649.915 -0.512946 3.8873 0
M  V30 7165 H 651.405 -1.50308 3.89612 0
M  V30 7166 N 651.842 -1.52309 0.404946 0
M  V30 7167 C 652.805 -2.25491 -0.410651 0
M  V30 7168 C 653.805 -1.27704 -0.977154 0
M  V30 7169 O 654.995 -1.51679 -0.856691 0
M  V30 7170 C 652.127 -3.02197 -1.57765 0
M  V30 7171 H 653.32 -2.99015 0.230277 0
M  V30 7172 H 650.873 -1.55506 0.157377 0
M  V30 7173 H 651.608 -2.33013 -2.25556 0
M  V30 7174 H 651.393 -3.73987 -1.17797 0
M  V30 7175 H 652.883 -3.57719 -2.15469 0
M  V30 7176 N 653.32 -0.135238 -1.57019 0
M  V30 7177 C 654.568 0.51777 -1.95355 0
M  V30 7178 C 654.889 1.6617 -1.02042 0
M  V30 7179 O 654.159 1.95738 -0.0797343 0
M  V30 7180 H 652.739 0.194264 -0.721298 0
M  V30 7181 H 655.401 -0.207983 -1.93787 0
M  V30 7182 H 654.497 0.901675 -2.98791 0
M  V30 7183 N 654.798 1.5699 0.138552 0
M  V30 7184 C 656.046 1.83446 0.848053 0
M  V30 7185 C 656.367 0.71744 1.81322 0
M  V30 7186 O 655.637 -0.260228 1.94164 0
M  V30 7187 H 654.217 0.676792 0.316166 0
M  V30 7188 H 656.879 1.94462 0.130538 0
M  V30 7189 H 655.975 2.78677 1.40518 0
M  V30 7190 N 656.276 -0.40816 1.52223 0
M  V30 7191 C 657.553 -1.16807 1.56893 0
M  V30 7192 C 657.933 -2.08169 0.350537 0
M  V30 7193 O 657.281 -2.18684 -0.662536 0
M  V30 7194 C 657.491 -1.94451 2.8981 0
M  V30 7195 C 658.839 -2.50484 3.42845 0
M  V30 7196 O 659.863 -2.0463 2.91556 0
M  V30 7197 O 658.722 -3.34192 4.3241 0
M  V30 7198 H 655.816 -0.533382 0.632007 0
M  V30 7199 H 658.362 -0.414862 1.64551 0
M  V30 7200 H 657.134 -1.27527 3.69936 0
M  V30 7201 H 656.757 -2.76775 2.85449 0
M  V30 7202 N 657.755 -1.42862 -0.66545 0
M  V30 7203 C 658.665 -1.49491 -1.80803 0
M  V30 7204 C 659.681 -0.382914 -1.69734 0
M  V30 7205 O 660.857 -0.635223 -1.9112 0
M  V30 7206 C 657.922 -1.40383 -3.17007 0
M  V30 7207 C 656.983 -2.62152 -3.39963 0
M  V30 7208 C 656.216 -2.53469 -4.69669 0
M  V30 7209 O 656.439 -1.57568 -5.48205 0
M  V30 7210 O 655.373 -3.43763 -4.94075 0
M  V30 7211 H 659.199 -2.45949 -1.78165 0
M  V30 7212 H 656.784 -1.24728 -0.822387 0
M  V30 7213 H 658.666 -1.377 -3.98267 0
M  V30 7214 H 657.341 -0.470546 -3.20262 0
M  V30 7215 H 656.248 -2.70409 -2.58515 0
M  V30 7216 H 657.581 -3.54411 -3.41546 0
M  V30 7217 N 659.233 0.902656 -1.29189 0
M  V30 7218 C 660.479 1.65532 -1.17163 0
M  V30 7219 C 660.812 1.92216 0.276879 0
M  V30 7220 O 660.087 1.53048 1.20027 0
M  V30 7221 C 660.37 3.00629 -1.98228 0
M  V30 7222 C 660.223 2.81029 -3.51202 0
M  V30 7223 C 661.542 4.01321 -1.80635 0
M  V30 7224 H 658.661 0.60071 -0.426985 0
M  V30 7225 H 661.303 1.04578 -1.5863 0
M  V30 7226 H 659.453 3.52656 -1.62991 0
M  V30 7227 H 661.125 2.35927 -3.96404 0
M  V30 7228 H 659.368 2.1587 -3.76275 0
M  V30 7229 H 660.039 3.77014 -4.03192 0
M  V30 7230 H 662.515 3.58394 -2.11406 0
M  V30 7231 H 661.391 4.93792 -2.3971 0
M  V30 7232 H 661.652 4.35505 -0.760754 0
M  V30 7233 N 660.711 1.11618 1.11262 0
M  V30 7234 C 661.988 0.777876 1.79467 0
M  V30 7235 C 662.368 -0.733774 1.97937 0
M  V30 7236 O 661.716 -1.66443 1.56554 0
M  V30 7237 C 661.926 1.5431 3.13032 0
M  V30 7238 C 663.274 1.72357 3.88044 0
M  V30 7239 O 664.298 1.5075 3.22727 0
M  V30 7240 O 663.157 2.08276 5.05256 0
M  V30 7241 H 660.251 0.282018 0.777428 0
M  V30 7242 H 662.797 1.21971 1.17988 0
M  V30 7243 H 661.569 2.57132 2.94956 0
M  V30 7244 H 661.192 1.09495 3.82226 0
M  V30 7245 N 662.189 -1.289 0.906776 0
M  V30 7246 C 663.419 -1.99112 0.551168 0
M  V30 7247 C 663.827 -1.67998 -0.870243 0
M  V30 7248 O 663.17 -0.92525 -1.58697 0
M  V30 7249 C 663.232 -3.53162 0.672065 0
M  V30 7250 C 662.896 -4.07849 2.06174 0
M  V30 7251 C 663.893 -4.22212 3.0337 0
M  V30 7252 C 661.578 -4.4271 2.37304 0
M  V30 7253 C 663.572 -4.70678 4.29815 0
M  V30 7254 C 661.259 -4.90871 3.6399 0
M  V30 7255 C 662.257 -5.04811 4.6006 0
M  V30 7256 O 661.945 -5.51925 5.84495 0
M  V30 7257 H 661.677 -0.642728 0.209469 0
M  V30 7258 H 664.231 -1.65234 1.22012 0
M  V30 7259 H 662.461 -3.86662 -0.05394 0
M  V30 7260 H 664.15 -4.046 0.324579 0
M  V30 7261 H 664.916 -3.9556 2.80637 0
M  V30 7262 H 660.795 -4.31114 1.63283 0
M  V30 7263 H 664.339 -4.81474 5.04806 0
M  V30 7264 H 660.236 -5.16961 3.86551 0
M  V30 7265 H 661.004 -5.70225 5.87185 0
M  V30 7266 N 663.667 -0.670007 -1.42649 0
M  V30 7267 C 664.915 -0.18991 -2.01206 0
M  V30 7268 C 665.236 1.20617 -1.53221 0
M  V30 7269 O 664.506 1.80898 -0.751856 0
M  V30 7270 H 663.086 -0.0672189 -0.743969 0
M  V30 7271 H 665.748 -0.865442 -1.74631 0
M  V30 7272 H 664.844 -0.187481 -3.11536 0
M  V30 7273 N 665.145 1.52092 -0.413018 0
M  V30 7274 C 666.392 2.01855 0.161497 0
M  V30 7275 C 666.72 1.29845 1.44812 0
M  V30 7276 O 665.975 0.394471 1.91683 0
M  V30 7277 C 666.274 3.54529 0.4521 0
M  V30 7278 C 665.94 4.4469 -0.745788 0
M  V30 7279 C 664.602 4.69053 -1.07435 0
M  V30 7280 C 666.954 4.97742 -1.54604 0
M  V30 7281 C 664.282 5.43717 -2.20429 0
M  V30 7282 C 666.634 5.73642 -2.66678 0
M  V30 7283 C 665.298 5.96277 -3.00016 0
M  V30 7284 H 664.568 0.73864 0.0590961 0
M  V30 7285 H 667.215 1.83274 -0.555234 0
M  V30 7286 H 665.52 3.7131 1.25045 0
M  V30 7287 H 667.217 3.90546 0.909647 0
M  V30 7288 H 663.807 4.25907 -0.479725 0
M  V30 7289 H 667.991 4.78824 -1.30543 0
M  V30 7290 H 663.247 5.59462 -2.46602 0
M  V30 7291 H 667.421 6.13746 -3.29072 0
M  V30 7292 H 665.048 6.53913 -3.87688 0
M  V30 7293 N 666.623 0.143563 1.56945 0
M  V30 7294 C 667.871 -0.507402 1.95627 0
M  V30 7295 C 668.192 -1.65626 1.02922 0
M  V30 7296 O 667.462 -1.95693 0.0901136 0
M  V30 7297 H 666.042 -0.190436 0.722318 0
M  V30 7298 H 668.704 0.218257 1.93674 0
M  V30 7299 H 667.8 -0.885816 2.99265 0
M  V30 7300 N 668.101 -1.57061 -0.130224 0
M  V30 7301 C 669.064 -1.98593 -1.14426 0
M  V30 7302 C 670.064 -0.874584 -1.34936 0
M  V30 7303 O 671.254 -1.14086 -1.31643 0
M  V30 7304 C 668.386 -2.31639 -2.50112 0
M  V30 7305 H 669.579 -2.89374 -0.787561 0
M  V30 7306 H 667.132 -1.51756 -0.374146 0
M  V30 7307 H 667.867 -1.43703 -2.90723 0
M  V30 7308 H 667.652 -3.12684 -2.36583 0
M  V30 7309 H 669.142 -2.64551 -3.23114 0
M  V30 7310 N 669.579 0.400081 -1.52437 0
M  V30 7311 C 670.828 1.14332 -1.66166 0
M  V30 7312 C 671.141 1.91419 -0.402253 0
M  V30 7313 O 672.347 2.6824 -0.419487 0
M  V30 7314 C 670.803 2.08137 -2.9361 0
M  V30 7315 C 670.411 1.36524 -4.26691 0
M  V30 7316 C 672.155 2.82664 -3.16703 0
M  V30 7317 C 670.062 2.29031 -5.45251 0
M  V30 7318 H 668.992 0.430499 -0.61902 0
M  V30 7319 H 671.643 0.407017 -1.78929 0
M  V30 7320 H 670.025 2.85358 -2.74567 0
M  V30 7321 H 671.199 0.646061 -4.56249 0
M  V30 7322 H 669.514 0.74002 -4.09771 0
M  V30 7323 H 672.111 3.52037 -4.0246 0
M  V30 7324 H 672.454 3.46122 -2.31312 0
M  V30 7325 H 672.987 2.12541 -3.36261 0
M  V30 7326 H 669.726 1.70206 -6.33017 0
M  V30 7327 H 669.246 2.98896 -5.2002 0
M  V30 7328 H 670.925 2.89359 -5.78689 0
M  V30 7329 N 671.057 1.43213 0.657864 0
M  V30 7330 C 672.282 1.48227 1.45064 0
M  V30 7331 C 672.707 0.0999939 1.87834 0
M  V30 7332 O 672.065 -0.905269 1.57081 0
M  V30 7333 C 672.113 2.42931 2.6649 0
M  V30 7334 O 671.217 1.91237 3.6538 0
M  V30 7335 H 670.558 0.501551 0.435135 0
M  V30 7336 H 673.088 1.8808 0.805431 0
M  V30 7337 H 673.098 2.6008 3.1436 0
M  V30 7338 H 671.773 3.43348 2.34701 0
M  V30 7339 H 670.35 1.83726 3.24498 0
M  V30 7340 N 672.536 -0.895792 1.29666 0
M  V30 7341 C 673.483 -2.00035 1.15129 0
M  V30 7342 C 674.453 -1.66043 0.0435819 0
M  V30 7343 O 675.638 -1.89621 0.211811 0
M  V30 7344 C 672.778 -3.34774 0.83787 0
M  V30 7345 C 671.891 -3.81525 2.0264 0
M  V30 7346 C 671.026 -5.04858 1.65201 0
M  V30 7347 C 670.065 -5.43988 2.80612 0
M  V30 7348 N 669.202 -6.58507 2.43544 0
M  V30 7349 H 674.042 -2.11802 2.09628 0
M  V30 7350 H 671.579 -1.03719 1.04311 0
M  V30 7351 H 673.537 -4.12311 0.636824 0
M  V30 7352 H 672.167 -3.22724 -0.0702314 0
M  V30 7353 H 671.219 -2.9999 2.33903 0
M  V30 7354 H 672.531 -4.06472 2.89106 0
M  V30 7355 H 671.685 -5.8999 1.41408 0
M  V30 7356 H 670.424 -4.81759 0.758893 0
M  V30 7357 H 669.429 -4.57388 3.05083 0
M  V30 7358 H 670.654 -5.69066 3.70595 0
M  V30 7359 H 668.6 -6.37004 1.56724 0
M  V30 7360 H 668.517 -6.83269 3.23542 0
M  V30 7361 H 669.785 -7.46897 2.2308 0
M  V30 7362 N 674.014 -1.12206 -1.10668 0
M  V30 7363 C 675.262 -0.874144 -1.82217 0
M  V30 7364 C 675.583 0.601736 -1.85484 0
M  V30 7365 O 674.853 1.43725 -1.33116 0
M  V30 7366 H 673.433 -0.320404 -0.674797 0
M  V30 7367 H 676.095 -1.41606 -1.33917 0
M  V30 7368 H 675.191 -1.25349 -2.85822 0
M  V30 7369 N 675.492 1.28418 -0.913599 0
M  V30 7370 C 676.738 1.9527 -0.547484 0
M  V30 7371 C 677.071 1.71745 0.906486 0
M  V30 7372 O 676.346 1.03834 1.64465 0
M  V30 7373 C 676.629 3.49748 -0.857205 0
M  V30 7374 C 676.482 3.82675 -2.3639 0
M  V30 7375 C 677.801 4.3868 -0.353258 0
M  V30 7376 H 674.92 0.709236 -0.200381 0
M  V30 7377 H 677.562 1.51789 -1.14281 0
M  V30 7378 H 675.712 3.86915 -0.350548 0
M  V30 7379 H 677.384 3.55378 -2.94116 0
M  V30 7380 H 675.627 3.29724 -2.81894 0
M  V30 7381 H 676.298 4.90547 -2.53115 0
M  V30 7382 H 678.774 4.08584 -0.787288 0
M  V30 7383 H 677.65 5.45621 -0.599049 0
M  V30 7384 H 677.911 4.35753 0.746413 0
M  V30 7385 N 676.97 0.677563 1.42291 0
M  V30 7386 C 678.195 0.207901 2.06355 0
M  V30 7387 C 678.62 -1.12723 1.50583 0
M  V30 7388 O 677.978 -1.70171 0.62543 0
M  V30 7389 C 678.026 0.156489 3.6026 0
M  V30 7390 O 677.13 -0.874162 4.03029 0
M  V30 7391 H 676.471 0.106056 0.655475 0
M  V30 7392 H 679.001 0.927354 1.82377 0
M  V30 7393 H 679.011 -0.0187258 4.07996 0
M  V30 7394 H 677.686 1.13101 4.00226 0
M  V30 7395 H 676.263 -0.669764 3.66836 0
M  V30 7396 N 678.448 -1.51871 0.421078 0
M  V30 7397 C 679.673 -2.0684 -0.152371 0
M  V30 7398 C 680.098 -1.28802 -1.37083 0
M  V30 7399 O 679.456 -0.321482 -1.78427 0
M  V30 7400 C 679.504 -3.57532 -0.469368 0
M  V30 7401 O 678.608 -3.81818 -1.55848 0
M  V30 7402 H 677.949 -0.663939 -0.00898586 0
M  V30 7403 H 680.479 -1.95674 0.597724 0
M  V30 7404 H 680.489 -4.01515 -0.724553 0
M  V30 7405 H 679.164 -4.13761 0.421276 0
M  V30 7406 H 677.741 -3.49709 -1.29453 0
M  V30 7407 N 679.926 -0.151884 -1.56866 0
M  V30 7408 C 681.337 0.368128 -1.83035 0
M  V30 7409 C 681.688 1.64402 -1.07082 0
M  V30 7410 O 680.813 2.14056 -0.317647 0
M  V30 7411 C 681.408 0.674676 -3.32014 0
M  V30 7412 C 679.967 1.13919 -3.58747 0
M  V30 7413 C 679.114 0.164833 -2.7681 0
M  V30 7414 H 682.065 -0.376499 -1.54169 0
M  V30 7415 H 682.086 1.52883 -3.48435 0
M  V30 7416 H 681.598 -0.254113 -3.87267 0
M  V30 7417 H 679.699 2.08375 -3.08886 0
M  V30 7418 H 679.812 1.06179 -4.67186 0
M  V30 7419 H 678.176 0.658419 -2.46043 0
M  V30 7420 H 678.959 -0.757633 -3.34836 0
M  V30 7421 N 681.404 1.57128 0.121893 0
M  V30 7422 C 682.634 1.88609 0.843227 0
M  V30 7423 C 683.042 0.740917 1.74089 0
M  V30 7424 O 682.385 -0.297426 1.81276 0
M  V30 7425 C 682.447 3.15073 1.73117 0
M  V30 7426 C 682.111 4.45742 1.0081 0
M  V30 7427 C 683.108 5.18719 0.350255 0
M  V30 7428 C 680.793 4.92444 0.99014 0
M  V30 7429 C 682.787 6.36617 -0.315889 0
M  V30 7430 C 680.474 6.10261 0.320196 0
M  V30 7431 C 681.472 6.82194 -0.331666 0
M  V30 7432 O 681.16 7.97769 -0.990927 0
M  V30 7433 H 680.892 0.628919 0.247865 0
M  V30 7434 H 683.446 2.05096 0.111725 0
M  V30 7435 H 681.676 2.9466 2.50424 0
M  V30 7436 H 683.365 3.32597 2.32667 0
M  V30 7437 H 684.131 4.83693 0.35577 0
M  V30 7438 H 680.01 4.36361 1.48695 0
M  V30 7439 H 683.554 6.92701 -0.825272 0
M  V30 7440 H 679.451 6.44743 0.312433 0
M  V30 7441 H 680.219 8.13591 -0.895113 0
M  V30 7442 N 682.882 -0.391992 1.52647 0
M  V30 7443 C 683.812 -1.48517 1.8018 0
M  V30 7444 C 684.793 -1.57039 0.653667 0
M  V30 7445 O 685.978 -1.72036 0.900962 0
M  V30 7446 C 683.108 -2.86161 1.96797 0
M  V30 7447 C 682.062 -2.92481 3.12472 0
M  V30 7448 C 681.388 -4.32546 3.14338 0
M  V30 7449 C 682.688 -2.624 4.51601 0
M  V30 7450 H 684.382 -1.25726 2.71723 0
M  V30 7451 H 681.928 -0.603387 1.30749 0
M  V30 7452 H 683.881 -3.62639 2.14641 0
M  V30 7453 H 682.605 -3.10283 1.01941 0
M  V30 7454 H 681.264 -2.18451 2.94406 0
M  V30 7455 H 680.912 -4.53703 2.1717 0
M  V30 7456 H 680.612 -4.37695 3.92042 0
M  V30 7457 H 682.136 -5.10934 3.34333 0
M  V30 7458 H 683.55 -3.28596 4.69785 0
M  V30 7459 H 681.947 -2.78903 5.3135 0
M  V30 7460 H 683.017 -1.57754 4.58521 0
M  V30 7461 N 684.36 -1.4356 -0.65026 0
M  V30 7462 C 685.771 -1.40324 -1.2315 0
M  V30 7463 C 686.122 -0.108812 -1.95898 0
M  V30 7464 O 685.247 0.79163 -2.01401 0
M  V30 7465 C 685.842 -2.54195 -2.23987 0
M  V30 7466 C 684.401 -2.54215 -2.77582 0
M  V30 7467 C 683.548 -2.31752 -1.5227 0
M  V30 7468 H 686.499 -1.52418 -0.442095 0
M  V30 7469 H 686.52 -2.25854 -3.0622 0
M  V30 7470 H 686.032 -3.48392 -1.71011 0
M  V30 7471 H 684.133 -1.63907 -3.34612 0
M  V30 7472 H 684.246 -3.52081 -3.24925 0
M  V30 7473 H 682.61 -1.80476 -1.79723 0
M  V30 7474 H 683.393 -3.28037 -1.01225 0
M  V30 7475 N 685.838 0.888903 -1.30139 0
M  V30 7476 C 687.085 1.64037 -1.18736 0
M  V30 7477 C 687.413 1.92771 0.258801 0
M  V30 7478 O 686.668 1.54427 1.20212 0
M  V30 7479 C 686.967 2.99041 -1.95728 0
M  V30 7480 C 686.633 2.89874 -3.45375 0
M  V30 7481 C 685.295 2.87082 -3.86183 0
M  V30 7482 C 687.647 2.78289 -4.40687 0
M  V30 7483 C 684.975 2.70536 -5.20603 0
M  V30 7484 C 687.327 2.63282 -5.75209 0
M  V30 7485 C 685.991 2.58861 -6.15262 0
M  V30 7486 H 685.261 0.600253 -0.434485 0
M  V30 7487 H 687.908 1.0338 -1.61198 0
M  V30 7488 H 686.213 3.63626 -1.45888 0
M  V30 7489 H 687.91 3.56139 -1.843 0
M  V30 7490 H 684.5 2.92856 -3.12943 0
M  V30 7491 H 688.684 2.79516 -4.10103 0
M  V30 7492 H 683.94 2.65526 -5.50732 0
M  V30 7493 H 688.114 2.5329 -6.48704 0
M  V30 7494 H 685.741 2.45799 -7.19366 0
M  V30 7495 N 687.317 1.12792 1.10072 0
M  V30 7496 C 688.565 0.883796 1.81751 0
M  V30 7497 C 688.886 -0.591891 1.858 0
M  V30 7498 O 688.156 -1.43017 1.33876 0
M  V30 7499 H 686.736 0.323978 0.673088 0
M  V30 7500 H 689.398 1.42314 1.33164 0
M  V30 7501 H 688.494 1.26863 2.85153 0
M  V30 7502 N 688.795 -1.27931 0.920396 0
M  V30 7503 C 690.043 -1.94304 0.555906 0
M  V30 7504 C 690.364 -1.72753 -0.904519 0
M  V30 7505 O 689.634 -1.07104 -1.64029 0
M  V30 7506 H 688.214 -0.719001 0.202599 0
M  V30 7507 H 690.876 -1.55785 1.1712 0
M  V30 7508 H 689.972 -3.02806 0.755981 0
M  V30 7509 N 690.273 -0.685099 -1.4193 0
M  V30 7510 C 691.521 -0.21124 -2.00993 0
M  V30 7511 C 691.842 1.18985 -1.54491 0
M  V30 7512 O 691.112 1.8009 -0.771 0
M  V30 7513 H 689.692 -0.0751059 -0.743215 0
M  V30 7514 H 692.354 -0.883915 -1.73704 0
M  V30 7515 H 691.45 -0.220513 -3.1132 0
M  V30 7516 N 691.751 1.51645 -0.429126 0
M  V30 7517 C 693.167 1.59394 -0.080994 0
M  V30 7518 C 693.367 1.44064 1.40882 0
M  V30 7519 O 692.423 1.27771 2.17786 0
M  V30 7520 C 693.736 2.94779 -0.593773 0
M  V30 7521 C 695.284 3.08067 -0.553494 0
M  V30 7522 C 695.759 4.45963 -1.04311 0
M  V30 7523 N 697.25 4.5226 -1.00076 0
M  V30 7524 C 697.985 5.57268 -1.35056 0
M  V30 7525 N 697.481 6.69734 -1.77282 0
M  V30 7526 N 699.274 5.47582 -1.26925 0
M  V30 7527 H 691.425 1.59856 -1.39857 0
M  V30 7528 H 693.688 0.753095 -0.575805 0
M  V30 7529 H 693.394 3.11342 -1.63583 0
M  V30 7530 H 693.268 3.77197 -0.0142202 0
M  V30 7531 H 695.655 2.91177 0.479556 0
M  V30 7532 H 695.736 2.27508 -1.16935 0
M  V30 7533 H 695.38 4.63598 -2.07459 0
M  V30 7534 H 695.31 5.25049 -0.403873 0
M  V30 7535 H 697.801 3.71537 -0.690564 0
M  V30 7536 H 698.114 7.4587 -2.02232 0
M  V30 7537 H 696.459 6.70963 -1.81202 0
M  V30 7538 H 699.65 4.58604 -0.93809 0
M  V30 7539 H 699.823 6.29308 -1.54516 0
M  V30 7540 N 693.229 0.160201 1.56784 0
M  V30 7541 C 694.179 -0.786461 2.14007 0
M  V30 7542 C 695.163 -1.20046 1.07134 0
M  V30 7543 O 696.355 -1.16468 1.33283 0
M  V30 7544 C 693.484 -2.02024 2.77563 0
M  V30 7545 C 692.57 -1.62874 3.91578 0
M  V30 7546 N 692.961 -0.946176 4.96871 0
M  V30 7547 C 691.259 -1.92054 4.02531 0
M  V30 7548 C 691.96 -0.755084 5.76778 0
M  V30 7549 N 690.936 -1.29307 5.27997 0
M  V30 7550 H 694.738 -0.255879 2.92784 0
M  V30 7551 H 692.252 -0.0408778 1.62349 0
M  V30 7552 H 694.249 -2.70855 3.16928 0
M  V30 7553 H 692.909 -2.55587 2.00263 0
M  V30 7554 H 693.92 -0.605455 5.14349 0
M  V30 7555 H 690.597 -2.47374 3.36322 0
M  V30 7556 H 691.987 -0.216138 6.71552 0
M  V30 7557 N 694.707 -1.5719 -0.113559 0
M  V30 7558 C 696.123 -1.52607 -0.467253 0
M  V30 7559 C 696.323 -0.874058 -1.81556 0
M  V30 7560 O 695.379 -0.458703 -2.48299 0
M  V30 7561 C 696.692 -2.97363 -0.446736 0
M  V30 7562 C 698.24 -3.08482 -0.529903 0
M  V30 7563 C 698.715 -4.54809 -0.539721 0
M  V30 7564 N 700.206 -4.59284 -0.601005 0
M  V30 7565 C 700.941 -5.69927 -0.630138 0
M  V30 7566 N 700.437 -6.90051 -0.616589 0
M  V30 7567 N 702.23 -5.5805 -0.673558 0
M  V30 7568 H 694.381 -1.97958 0.769819 0
M  V30 7569 H 696.644 -0.90428 0.284572 0
M  V30 7570 H 696.35 -3.48458 0.47643 0
M  V30 7571 H 696.224 -3.55086 -1.27254 0
M  V30 7572 H 698.611 -2.57386 -1.44349 0
M  V30 7573 H 698.692 -2.53744 0.323695 0
M  V30 7574 H 698.336 -5.06552 0.369843 0
M  V30 7575 H 698.266 -5.07364 -1.41028 0
M  V30 7576 H 700.757 -3.72822 -0.617419 0
M  V30 7577 H 701.07 -7.70132 -0.641592 0
M  V30 7578 H 699.415 -6.92543 -0.583927 0
M  V30 7579 H 702.606 -4.63112 -0.681544 0
M  V30 7580 H 702.779 -6.44286 -0.692794 0
M  V30 7581 N 696.185 0.383891 -1.52853 0
M  V30 7582 C 697.425 1.13731 -1.69837 0
M  V30 7583 C 697.789 1.87086 -0.431611 0
M  V30 7584 O 698.99 2.64518 -0.477886 0
M  V30 7585 C 697.261 2.08551 -2.90243 0
M  V30 7586 S 698.82 2.9166 -3.27841 0
M  V30 7587 H 695.638 0.384911 -0.5978 0
M  V30 7588 H 698.24 0.42103 -1.90913 0
M  V30 7589 H 696.944 1.53392 -3.80656 0
M  V30 7590 H 696.475 2.8468 -2.71516 0
M  V30 7591 H 698.49 4.10723 -2.78426 0
M  V30 7592 N 697.663 1.43903 0.642637 0
M  V30 7593 C 698.912 1.45362 1.39831 0
M  V30 7594 C 699.225 0.0856289 1.95412 0
M  V30 7595 O 700.431 -0.0222856 2.71491 0
M  V30 7596 C 698.887 2.55857 2.53111 0
M  V30 7597 C 698.495 3.98811 2.04092 0
M  V30 7598 C 700.239 2.66524 3.30402 0
M  V30 7599 C 698.146 5.00751 3.14647 0
M  V30 7600 H 697.076 0.540777 0.52543 0
M  V30 7601 H 699.727 1.69929 0.692559 0
M  V30 7602 H 698.109 2.2451 3.26207 0
M  V30 7603 H 699.283 4.3967 1.37938 0
M  V30 7604 H 697.598 3.92284 1.39651 0
M  V30 7605 H 700.195 3.39858 4.12796 0
M  V30 7606 H 700.538 1.71949 3.79129 0
M  V30 7607 H 701.071 2.97224 2.64392 0
M  V30 7608 H 697.81 5.96914 2.70876 0
M  V30 7609 H 697.33 4.64495 3.79479 0
M  V30 7610 H 699.009 5.23933 3.79609 0
M  V30 7611 N 699.141 -0.881989 1.30609 0
M  V30 7612 C 700.389 -1.63082 1.19368 0
M  V30 7613 C 700.71 -1.93376 -0.251147 0
M  V30 7614 O 699.98 -1.5723 -1.16857 0
M  V30 7615 H 698.56 -0.604542 0.438791 0
M  V30 7616 H 701.222 -1.05658 1.63776 0
M  V30 7617 H 700.318 -2.57966 1.7567 0
M  V30 7618 N 700.619 -1.13374 -1.09472 0
M  V30 7619 C 701.529 -0.824029 -2.19652 0
M  V30 7620 C 702.545 0.19118 -1.72947 0
M  V30 7621 O 703.721 0.0223464 -2.01388 0
M  V30 7622 C 700.786 -0.294009 -3.45451 0
M  V30 7623 C 699.847 -1.3704 -4.0684 0
M  V30 7624 C 699.08 -0.86558 -5.26634 0
M  V30 7625 O 699.303 0.29702 -5.69626 0
M  V30 7626 O 698.237 -1.63968 -5.79136 0
M  V30 7627 H 702.063 -1.74454 -2.48595 0
M  V30 7628 H 699.648 -0.911155 -1.18399 0
M  V30 7629 H 701.53 -0.00381039 -4.214 0
M  V30 7630 H 700.205 0.598921 -3.18111 0
M  V30 7631 H 699.112 -1.71391 -3.3253 0
M  V30 7632 H 700.445 -2.23746 -4.38405 0
M  V30 7633 N 702.098 1.27442 -0.927168 0
M  V30 7634 C 703.028 2.29256 -0.443188 0
M  V30 7635 C 704.009 1.62701 0.49624 0
M  V30 7636 O 705.194 1.90013 0.401105 0
M  V30 7637 C 702.324 3.45955 0.305366 0
M  V30 7638 C 701.278 4.24501 -0.546178 0
M  V30 7639 C 700.604 5.33671 0.331512 0
M  V30 7640 C 701.904 4.89921 -1.81037 0
M  V30 7641 H 703.598 2.69988 -1.29409 0
M  V30 7642 H 701.144 1.29792 -0.623705 0
M  V30 7643 H 703.097 4.1628 0.654885 0
M  V30 7644 H 701.821 3.04138 1.19029 0
M  V30 7645 H 700.48 3.55921 -0.878398 0
M  V30 7646 H 700.128 4.88096 1.21537 0
M  V30 7647 H 699.828 5.87131 -0.234746 0
M  V30 7648 H 701.352 6.0684 0.676614 0
M  V30 7649 H 702.766 5.52536 -1.52895 0
M  V30 7650 H 701.163 5.53436 -2.32009 0
M  V30 7651 H 702.233 4.13652 -2.53021 0
M  V30 7652 N 703.576 0.692616 1.41565 0
M  V30 7653 C 704.823 0.222335 2.01276 0
M  V30 7654 C 705.151 -1.17706 1.5484 0
M  V30 7655 O 704.406 -1.80795 0.749118 0
M  V30 7656 C 704.705 0.225073 3.56691 0
M  V30 7657 C 704.371 1.57158 4.22625 0
M  V30 7658 C 703.033 1.94022 4.40351 0
M  V30 7659 C 705.385 2.45758 4.59622 0
M  V30 7660 C 702.713 3.19076 4.92349 0
M  V30 7661 C 705.065 3.70141 5.13009 0
M  V30 7662 C 703.729 4.07152 5.28946 0
M  V30 7663 H 702.999 0.0813581 0.73652 0
M  V30 7664 H 705.646 0.891123 1.69503 0
M  V30 7665 H 703.951 -0.527259 3.88236 0
M  V30 7666 H 705.648 -0.156283 4.00695 0
M  V30 7667 H 702.238 1.27486 4.09201 0
M  V30 7668 H 706.422 2.18558 4.45585 0
M  V30 7669 H 701.678 3.4775 5.02872 0
M  V30 7670 H 705.852 4.38983 5.40617 0
M  V30 7671 H 703.479 5.04125 5.69001 0
M  V30 7672 N 705.054 -1.51416 0.437162 0
M  V30 7673 C 706.017 -2.26312 -0.362729 0
M  V30 7674 C 707.017 -1.29748 -0.949847 0
M  V30 7675 O 708.207 -1.53462 -0.824325 0
M  V30 7676 C 705.339 -3.05475 -1.5132 0
M  V30 7677 H 706.532 -2.98459 0.29365 0
M  V30 7678 H 704.085 -1.55137 0.190327 0
M  V30 7679 H 704.82 -2.37744 -2.20563 0
M  V30 7680 H 704.605 -3.76401 -1.09838 0
M  V30 7681 H 706.095 -3.62209 -2.07833 0
M  V30 7682 N 706.532 -0.168513 -1.56696 0
M  V30 7683 C 707.762 0.482802 -2.0088 0
M  V30 7684 C 708.17 1.57537 -1.0478 0
M  V30 7685 O 707.513 1.83656 -0.0402746 0
M  V30 7686 C 707.575 1.1236 -3.4149 0
M  V30 7687 C 707.239 0.173027 -4.56672 0
M  V30 7688 C 708.236 -0.607565 -5.16338 0
M  V30 7689 C 705.921 0.0696691 -5.02252 0
M  V30 7690 C 707.915 -1.47874 -6.2001 0
M  V30 7691 C 705.602 -0.805096 -6.05773 0
M  V30 7692 C 706.6 -1.57789 -6.64524 0
M  V30 7693 O 706.288 -2.43804 -7.66038 0
M  V30 7694 H 706.02 0.128246 -0.663723 0
M  V30 7695 H 708.574 -0.266532 -2.03663 0
M  V30 7696 H 706.804 1.921 -3.35611 0
M  V30 7697 H 708.493 1.67683 -3.69645 0
M  V30 7698 H 709.259 -0.53787 -4.82008 0
M  V30 7699 H 705.138 0.660957 -4.56237 0
M  V30 7700 H 708.682 -2.0824 -6.65794 0
M  V30 7701 H 704.579 -0.876005 -6.39528 0
M  V30 7702 H 705.347 -2.37289 -7.83349 0
M  V30 7703 N 708.01 1.57248 0.105221 0
M  V30 7704 C 709.25 1.87393 0.816283 0
M  V30 7705 C 709.614 0.758249 1.76393 0
M  V30 7706 O 710.815 0.941835 2.5176 0
M  V30 7707 C 709.086 3.22775 1.53463 0
M  V30 7708 S 710.645 3.74588 2.28537 0
M  V30 7709 H 707.463 0.656847 0.272164 0
M  V30 7710 H 710.065 1.9536 0.073909 0
M  V30 7711 H 708.769 4.01905 0.830674 0
M  V30 7712 H 708.3 3.17921 2.3171 0
M  V30 7713 H 710.315 3.47193 3.54502 0
M  V30 7714 N 709.488 -0.375779 1.53054 0
M  V30 7715 C 710.42 -1.47963 1.75042 0
M  V30 7716 C 711.433 -1.50073 0.631031 0
M  V30 7717 O 712.622 -1.53736 0.907052 0
M  V30 7718 C 709.722 -2.86767 1.80604 0
M  V30 7719 C 708.895 -3.08471 3.10104 0
M  V30 7720 C 707.954 -4.27332 3.07041 0
M  V30 7721 O 706.98 -4.22998 3.80869 0
M  V30 7722 N 708.182 -5.34214 2.27147 0
M  V30 7723 H 710.947 -1.29484 2.70285 0
M  V30 7724 H 708.508 -0.565416 1.51706 0
M  V30 7725 H 710.5 -3.64404 1.76045 0
M  V30 7726 H 709.07 -2.98542 0.926897 0
M  V30 7727 H 708.29 -2.18583 3.28048 0
M  V30 7728 H 709.578 -3.19834 3.95706 0
M  V30 7729 H 708.976 -5.40594 1.66656 0
M  V30 7730 H 707.533 -6.10467 2.28415 0
M  V30 7731 N 710.966 -1.44241 -0.634997 0
M  V30 7732 C 711.896 -1.53632 -1.7584 0
M  V30 7733 C 712.877 -0.389603 -1.65578 0
M  V30 7734 O 714.062 -0.609219 -1.84397 0
M  V30 7735 C 711.192 -1.47644 -3.14354 0
M  V30 7736 C 710.146 -2.60752 -3.394 0
M  V30 7737 C 709.472 -2.39817 -4.77904 0
M  V30 7738 C 710.772 -4.02921 -3.32343 0
M  V30 7739 H 712.466 -2.47662 -1.68238 0
M  V30 7740 H 710.012 -1.19197 -0.807969 0
M  V30 7741 H 711.965 -1.52815 -3.92716 0
M  V30 7742 H 710.689 -0.501284 -3.2273 0
M  V30 7743 H 709.348 -2.54965 -2.63417 0
M  V30 7744 H 708.996 -1.40502 -4.82978 0
M  V30 7745 H 708.696 -3.15649 -4.9562 0
M  V30 7746 H 710.22 -2.46799 -5.585 0
M  V30 7747 H 711.634 -4.10098 -4.00615 0
M  V30 7748 H 710.031 -4.78925 -3.61595 0
M  V30 7749 H 711.101 -4.26766 -2.30215 0
M  V30 7750 N 712.444 0.87505 -1.31075 0
M  V30 7751 C 713.692 1.62447 -1.20231 0
M  V30 7752 C 714.013 1.93506 0.240888 0
M  V30 7753 O 713.283 1.57847 1.16022 0
M  V30 7754 H 711.863 0.602207 -0.441991 0
M  V30 7755 H 714.525 1.04788 -1.64334 0
M  V30 7756 H 713.621 2.57031 -1.77036 0
M  V30 7757 N 713.922 1.13953 1.08869 0
M  V30 7758 C 715.168 0.906151 1.8143 0
M  V30 7759 C 715.501 -0.566089 1.85766 0
M  V30 7760 O 714.776 -1.41915 1.33006 0
M  V30 7761 C 715.059 1.50183 3.27287 0
M  V30 7762 C 714.912 3.04359 3.31189 0
M  V30 7763 C 716.231 1.17477 4.24131 0
M  V30 7764 H 713.35 0.330624 0.658678 0
M  V30 7765 H 715.992 1.40873 1.27495 0
M  V30 7766 H 714.142 1.07442 3.73348 0
M  V30 7767 H 715.814 3.55896 2.93488 0
M  V30 7768 H 714.057 3.39053 2.70602 0
M  V30 7769 H 714.728 3.41141 4.33966 0
M  V30 7770 H 717.204 1.5442 3.86385 0
M  V30 7771 H 716.08 1.61795 5.24513 0
M  V30 7772 H 716.341 0.0893312 4.4201 0
M  V30 7773 N 715.4 -1.26948 0.933913 0
M  V30 7774 C 716.33 -2.29017 0.45534 0
M  V30 7775 C 717.311 -1.62961 -0.487605 0
M  V30 7776 O 718.496 -1.90223 -0.391022 0
M  V30 7777 C 715.626 -3.46112 -0.287015 0
M  V30 7778 C 714.58 -4.24205 0.568682 0
M  V30 7779 C 713.906 -5.3384 -0.303206 0
M  V30 7780 C 715.206 -4.88954 1.83633 0
M  V30 7781 H 716.9 -2.69298 1.30839 0
M  V30 7782 H 714.446 -1.29459 0.630579 0
M  V30 7783 H 716.399 -4.16622 -0.6328 0
M  V30 7784 H 715.123 -3.04765 -1.17414 0
M  V30 7785 H 713.782 -3.5545 0.897261 0
M  V30 7786 H 713.43 -4.88734 -1.18947 0
M  V30 7787 H 713.13 -5.86998 0.265879 0
M  V30 7788 H 714.654 -6.0719 -0.644423 0
M  V30 7789 H 716.068 -5.51717 1.55823 0
M  V30 7790 H 714.465 -5.52198 2.34941 0
M  V30 7791 H 715.535 -4.12305 2.55211 0
M  V30 7792 N 716.879 -0.700114 -1.41195 0
M  V30 7793 C 717.812 0.0129614 -2.28196 0
M  V30 7794 C 718.79 0.783367 -1.42486 0
M  V30 7795 O 719.974 0.773238 -1.71911 0
M  V30 7796 C 717.101 1.02575 -3.22794 0
M  V30 7797 C 716.147 0.347977 -4.25078 0
M  V30 7798 S 716.98 -0.912938 -5.27661 0
M  V30 7799 C 718.136 0.0981362 -6.25823 0
M  V30 7800 H 718.369 -0.724927 -2.88326 0
M  V30 7801 H 715.902 -0.490554 -1.464 0
M  V30 7802 H 717.86 1.60491 -3.77826 0
M  V30 7803 H 716.521 1.73624 -2.61751 0
M  V30 7804 H 715.714 1.11305 -4.91556 0
M  V30 7805 H 715.316 -0.15823 -3.73665 0
M  V30 7806 H 717.608 0.949965 -6.70807 0
M  V30 7807 H 718.551 -0.532838 -7.06092 0
M  V30 7808 H 718.959 0.454944 -5.62664 0
M  V30 7809 N 718.357 1.51182 -0.445186 0
M  V30 7810 C 719.582 2.07056 0.119445 0
M  V30 7811 C 720.007 1.30966 1.35016 0
M  V30 7812 O 719.365 0.349827 1.77893 0
M  V30 7813 C 719.413 3.58234 0.412428 0
M  V30 7814 O 718.517 3.84249 1.49754 0
M  V30 7815 H 717.858 0.663998 -0.00157797 0
M  V30 7816 H 720.388 1.94699 -0.628779 0
M  V30 7817 H 720.398 4.02617 0.660583 0
M  V30 7818 H 719.073 4.13038 -0.487049 0
M  V30 7819 H 717.65 3.51724 1.23873 0
M  V30 7820 N 719.835 0.176821 1.56605 0
M  V30 7821 C 721.084 -0.466833 1.96223 0
M  V30 7822 C 721.397 -1.64015 1.06576 0
M  V30 7823 O 722.603 -2.3504 1.35898 0
M  V30 7824 C 721.059 -0.881921 3.48927 0
M  V30 7825 C 720.667 0.266102 4.47209 0
M  V30 7826 C 722.411 -1.49368 3.97353 0
M  V30 7827 C 720.318 -0.168923 5.91159 0
M  V30 7828 H 719.248 -0.178178 0.732645 0
M  V30 7829 H 721.899 0.265929 1.81563 0
M  V30 7830 H 720.281 -1.67082 3.59026 0
M  V30 7831 H 721.455 1.04349 4.4883 0
M  V30 7832 H 719.77 0.788178 4.08872 0
M  V30 7833 H 722.367 -1.8313 5.02362 0
M  V30 7834 H 722.71 -2.3936 3.40606 0
M  V30 7835 H 723.243 -0.769114 3.90294 0
M  V30 7836 H 719.982 0.696351 6.51791 0
M  V30 7837 H 719.502 -0.911552 5.92833 0
M  V30 7838 H 721.181 -0.610938 6.44109 0
M  V30 7839 N 721.313 -1.57302 -0.09688 0
M  V30 7840 C 722.56 -1.85997 -0.800699 0
M  V30 7841 C 722.888 -0.765089 -1.7882 0
M  V30 7842 O 722.143 0.241492 -1.94204 0
M  V30 7843 C 722.442 -3.21272 -1.56586 0
M  V30 7844 C 722.108 -4.45104 -0.72064 0
M  V30 7845 C 720.77 -4.78723 -0.487632 0
M  V30 7846 C 723.122 -5.2103 -0.132948 0
M  V30 7847 C 720.45 -5.85697 0.34296 0
M  V30 7848 C 722.802 -6.28881 0.684957 0
M  V30 7849 C 721.466 -6.61017 0.928073 0
M  V30 7850 H 720.736 -0.680613 -0.292997 0
M  V30 7851 H 723.383 -1.91399 -0.0622474 0
M  V30 7852 H 721.688 -3.11547 -2.37583 0
M  V30 7853 H 723.385 -3.40702 -2.11478 0
M  V30 7854 H 719.975 -4.18777 -0.912359 0
M  V30 7855 H 724.159 -4.95392 -0.300132 0
M  V30 7856 H 719.415 -6.09008 0.540317 0
M  V30 7857 H 723.589 -6.86886 1.14721 0
M  V30 7858 H 721.216 -7.43738 1.57348 0
M  V30 7859 N 722.791 0.367657 -1.53252 0
M  V30 7860 C 724.04 1.10782 -1.68554 0
M  V30 7861 C 724.353 1.90523 -0.442765 0
M  V30 7862 O 725.559 2.6729 -0.47629 0
M  V30 7863 C 724.015 2.01863 -2.97959 0
M  V30 7864 C 723.623 1.27443 -4.29491 0
M  V30 7865 C 725.367 2.75883 -3.22628 0
M  V30 7866 C 723.274 2.17414 -5.49987 0
M  V30 7867 H 722.204 0.417272 -0.628013 0
M  V30 7868 H 724.855 0.368971 -1.79752 0
M  V30 7869 H 723.237 2.7947 -2.80558 0
M  V30 7870 H 724.411 0.549138 -4.57516 0
M  V30 7871 H 722.726 0.652935 -4.11249 0
M  V30 7872 H 725.323 3.43421 -4.09837 0
M  V30 7873 H 725.666 3.41138 -2.38601 0
M  V30 7874 H 726.199 2.0536 -3.40693 0
M  V30 7875 H 722.938 1.5674 -6.36485 0
M  V30 7876 H 722.458 2.87799 -5.26243 0
M  V30 7877 H 724.137 2.77019 -5.84696 0
M  V30 7878 N 724.269 1.44576 0.627338 0
M  V30 7879 C 725.685 1.28546 0.945938 0
M  V30 7880 C 725.885 0.224003 2.00251 0
M  V30 7881 O 724.941 -0.388817 2.49488 0
M  V30 7882 C 726.254 2.65825 1.40561 0
M  V30 7883 C 727.802 2.73566 1.52088 0
M  V30 7884 C 728.277 4.11323 2.01438 0
M  V30 7885 N 729.768 4.13519 2.08702 0
M  V30 7886 C 730.503 5.16964 2.48065 0
M  V30 7887 N 729.999 6.30768 2.86538 0
M  V30 7888 N 731.792 5.04319 2.48232 0
M  V30 7889 H 723.943 2.1228 -0.0713567 0
M  V30 7890 H 726.206 0.947503 0.0307081 0
M  V30 7891 H 725.912 3.44591 0.703539 0
M  V30 7892 H 725.786 2.92969 2.37591 0
M  V30 7893 H 728.173 1.95116 2.21391 0
M  V30 7894 H 728.254 2.50159 0.534237 0
M  V30 7895 H 727.898 4.9025 1.32729 0
M  V30 7896 H 727.828 4.32109 3.0098 0
M  V30 7897 H 730.319 3.31385 1.81638 0
M  V30 7898 H 730.632 7.0551 3.15398 0
M  V30 7899 H 728.977 6.342 2.84281 0
M  V30 7900 H 732.168 4.14465 2.17569 0
M  V30 7901 H 732.341 5.85059 2.78585 0
M  V30 7902 N 725.747 -0.868086 1.31537 0
M  V30 7903 C 726.975 -1.65402 1.24298 0
M  V30 7904 C 727.39 -1.87827 -0.191389 0
M  V30 7905 O 726.747 -1.43776 -1.12404 0
M  V30 7906 C 726.798 -3.02093 1.9855 0
M  V30 7907 O 726.519 -2.80668 3.36388 0
M  V30 7908 C 728.02 -3.96538 1.98173 0
M  V30 7909 H 725.24 -0.515598 0.429417 0
M  V30 7910 H 727.784 -1.0834 1.73444 0
M  V30 7911 H 725.939 -3.55838 1.53161 0
M  V30 7912 H 726.353 -3.67504 3.74221 0
M  V30 7913 H 727.827 -4.8976 2.54635 0
M  V30 7914 H 728.304 -4.28474 0.964697 0
M  V30 7915 H 728.91 -3.48729 2.4345 0
M  V30 7916 N 727.225 -1.14528 -1.08264 0
M  V30 7917 C 728.158 -0.777154 -2.14559 0
M  V30 7918 C 729.136 0.242165 -1.60787 0
M  V30 7919 O 730.32 0.130882 -1.88045 0
M  V30 7920 C 727.447 -0.154092 -3.38349 0
M  V30 7921 C 726.493 -1.14382 -4.10876 0
M  V30 7922 S 727.326 -2.68173 -4.63512 0
M  V30 7923 C 728.482 -2.0726 -5.90588 0
M  V30 7924 H 728.715 -1.67748 -2.45454 0
M  V30 7925 H 726.248 -0.966661 -1.20395 0
M  V30 7926 H 728.206 0.19897 -4.10018 0
M  V30 7927 H 726.867 0.723688 -3.05649 0
M  V30 7928 H 726.06 -0.655908 -4.99714 0
M  V30 7929 H 725.662 -1.44095 -3.45127 0
M  V30 7930 H 727.954 -1.42895 -6.62259 0
M  V30 7931 H 728.897 -2.94227 -6.44078 0
M  V30 7932 H 729.305 -1.51935 -5.43669 0
M  V30 7933 N 728.703 1.26451 -0.940633 0
M  V30 7934 C 729.65 2.264 -0.448497 0
M  V30 7935 C 730.62 1.5866 0.491546 0
M  V30 7936 O 731.805 1.86389 0.407874 0
M  V30 7937 C 728.945 3.43956 0.280715 0
M  V30 7938 C 728.058 4.26374 -0.694937 0
M  V30 7939 C 727.193 5.31171 0.0554186 0
M  V30 7940 C 726.232 6.05266 -0.912091 0
M  V30 7941 N 725.369 7.01833 -0.193524 0
M  V30 7942 H 730.209 2.67869 -1.30576 0
M  V30 7943 H 727.746 1.31707 -0.655112 0
M  V30 7944 H 729.704 4.10941 0.71994 0
M  V30 7945 H 728.334 3.03403 1.10212 0
M  V30 7946 H 727.386 3.59183 -1.25267 0
M  V30 7947 H 728.698 4.77748 -1.43382 0
M  V30 7948 H 727.852 6.04166 0.553951 0
M  V30 7949 H 726.591 4.80634 0.827183 0
M  V30 7950 H 725.596 5.31099 -1.42175 0
M  V30 7951 H 726.821 6.57893 -1.68385 0
M  V30 7952 H 724.767 6.53607 0.559758 0
M  V30 7953 H 724.684 7.50957 -0.871744 0
M  V30 7954 H 725.952 7.78983 0.283932 0
M  V30 7955 N 730.181 0.707592 1.40822 0
M  V30 7956 C 731.427 0.252828 2.01823 0
M  V30 7957 C 731.782 -1.13876 1.55081 0
M  V30 7958 O 731.075 -1.75993 0.757439 0
M  V30 7959 C 731.269 0.262892 3.56432 0
M  V30 7960 C 731.098 1.65392 4.18181 0
M  V30 7961 C 729.868 2.25966 4.5196 0
M  V30 7962 C 732.066 2.60272 4.4358 0
M  V30 7963 N 730.048 3.57508 4.9906 0
M  V30 7964 C 731.419 3.76509 4.92586 0
M  V30 7965 C 733.474 2.58386 4.25607 0
M  V30 7966 C 732.177 4.91157 5.25507 0
M  V30 7967 C 734.203 3.72155 4.59625 0
M  V30 7968 C 733.565 4.87123 5.08813 0
M  V30 7969 H 729.664 0.138172 0.769696 0
M  V30 7970 H 732.248 0.927667 1.7118 0
M  V30 7971 H 730.419 -0.381479 3.86522 0
M  V30 7972 H 732.151 -0.20783 4.04166 0
M  V30 7973 H 728.906 1.78138 4.38821 0
M  V30 7974 H 729.33 4.24968 5.27002 0
M  V30 7975 H 733.972 1.7071 3.86805 0
M  V30 7976 H 731.69 5.79483 5.63227 0
M  V30 7977 H 735.276 3.71961 4.47366 0
M  V30 7978 H 734.156 5.73698 5.3464 0
M  V30 7979 N 731.66 -1.50943 0.453197 0
M  V30 7980 C 733.076 -1.59245 0.106342 0
M  V30 7981 C 733.276 -1.46287 -1.38572 0
M  V30 7982 O 732.332 -1.31219 -2.15726 0
M  V30 7983 C 733.645 -2.93797 0.640595 0
M  V30 7984 C 735.193 -3.07148 0.602435 0
M  V30 7985 C 735.668 -4.44247 1.11393 0
M  V30 7986 N 737.159 -4.50611 1.07258 0
M  V30 7987 C 737.894 -5.55049 1.43905 0
M  V30 7988 N 737.39 -6.66828 1.87914 0
M  V30 7989 N 739.183 -5.45494 1.35621 0
M  V30 7990 H 731.334 -1.5761 1.42382 0
M  V30 7991 H 733.597 -0.74384 0.587713 0
M  V30 7992 H 733.303 -3.087 1.68515 0
M  V30 7993 H 733.177 -3.77127 0.0742272 0
M  V30 7994 H 735.564 -2.91903 -0.433171 0
M  V30 7995 H 735.645 -2.25619 1.20539 0
M  V30 7996 H 735.289 -4.60239 2.14808 0
M  V30 7997 H 735.219 -5.2434 0.487353 0
M  V30 7998 H 737.71 -3.70391 0.749585 0
M  V30 7999 H 738.023 -7.42558 2.14072 0
M  V30 8000 H 736.368 -6.67995 1.91853 0
M  V30 8001 H 739.559 -4.57053 1.01093 0
M  V30 8002 H 739.732 -6.2677 1.64508 0
M  V30 8003 N 733.138 -0.185124 -1.56509 0
M  V30 8004 C 734.368 0.461469 -2.0138 0
M  V30 8005 C 734.776 1.56417 -1.06445 0
M  V30 8006 O 734.119 1.83603 -0.0597515 0
M  V30 8007 C 734.181 1.08731 -3.42663 0
M  V30 8008 C 733.845 0.124581 -4.5683 0
M  V30 8009 C 734.842 -0.662295 -5.15664 0
M  V30 8010 C 732.527 0.0163947 -5.02297 0
M  V30 8011 C 734.521 -1.54442 -6.18406 0
M  V30 8012 C 732.208 -0.869301 -6.04885 0
M  V30 8013 C 733.206 -1.64828 -6.62813 0
M  V30 8014 O 732.894 -2.51915 -7.63409 0
M  V30 8015 H 732.626 0.1212 -0.665046 0
M  V30 8016 H 735.18 -0.288119 -2.03369 0
M  V30 8017 H 733.41 1.8853 -3.37629 0
M  V30 8018 H 735.099 1.63753 -3.71403 0
M  V30 8019 H 735.865 -0.588963 -4.81411 0
M  V30 8020 H 731.744 0.61253 -4.56913 0
M  V30 8021 H 735.288 -2.15289 -6.63548 0
M  V30 8022 H 731.185 -0.943786 -6.38563 0
M  V30 8023 H 731.953 -2.45584 -7.80789 0
M  V30 8024 N 734.616 1.57351 0.0885366 0
M  V30 8025 C 736.027 1.75303 0.642308 0
M  V30 8026 C 736.378 0.808238 1.78779 0
M  V30 8027 O 735.503 -0.01171 2.16397 0
M  V30 8028 C 736.098 3.17885 1.17194 0
M  V30 8029 C 734.657 3.37239 1.67172 0
M  V30 8030 C 733.804 2.7108 0.584045 0
M  V30 8031 H 736.755 1.58103 -0.137567 0
M  V30 8032 H 736.776 3.2112 2.04114 0
M  V30 8033 H 736.288 3.86625 0.338024 0
M  V30 8034 H 734.389 2.73588 2.52943 0
M  V30 8035 H 734.502 4.45594 1.76019 0
M  V30 8036 H 732.866 2.33161 1.02508 0
M  V30 8037 H 733.649 3.42464 -0.239403 0
M  V30 8038 N 736.094 -0.359525 1.53444 0
M  V30 8039 C 737.322 -1.12198 1.73837 0
M  V30 8040 C 737.737 -1.82854 0.470107 0
M  V30 8041 O 737.094 -1.73781 -0.557349 0
M  V30 8042 C 737.145 -2.14769 2.90786 0
M  V30 8043 O 736.866 -1.46989 4.12706 0
M  V30 8044 C 738.367 -3.03514 3.231 0
M  V30 8045 H 735.587 -0.33524 0.581253 0
M  V30 8046 H 738.131 -0.416598 2.00212 0
M  V30 8047 H 736.286 -2.80896 2.66788 0
M  V30 8048 H 736.7 -2.15378 4.78239 0
M  V30 8049 H 738.174 -3.71453 4.08322 0
M  V30 8050 H 738.651 -3.68658 2.38721 0
M  V30 8051 H 739.257 -2.42996 3.49046 0
M  V30 8052 N 737.572 -1.44907 -0.619662 0
M  V30 8053 C 738.482 -1.55168 -1.75955 0
M  V30 8054 C 739.498 -0.43672 -1.6843 0
M  V30 8055 O 740.674 -0.695704 -1.89002 0
M  V30 8056 C 737.739 -1.50397 -3.12381 0
M  V30 8057 C 736.8 -2.72835 -3.31451 0
M  V30 8058 C 736.033 -2.68283 -4.61368 0
M  V30 8059 O 736.256 -1.74929 -5.42914 0
M  V30 8060 O 735.19 -3.59308 -4.82889 0
M  V30 8061 H 739.016 -2.51493 -1.7025 0
M  V30 8062 H 736.601 -1.27282 -0.782289 0
M  V30 8063 H 738.483 -1.50301 -3.93685 0
M  V30 8064 H 737.158 -0.572197 -3.18603 0
M  V30 8065 H 736.065 -2.78496 -2.49781 0
M  V30 8066 H 737.398 -3.65098 -3.30098 0
M  V30 8067 N 739.05 0.861098 -1.31996 0
M  V30 8068 C 740.298 1.61162 -1.21947 0
M  V30 8069 C 740.619 1.93751 0.220351 0
M  V30 8070 O 739.889 1.59069 1.14341 0
M  V30 8071 H 738.469 0.597485 -0.448353 0
M  V30 8072 H 741.131 1.03039 -1.65436 0
M  V30 8073 H 740.227 2.55138 -1.79752 0
M  V30 8074 N 740.528 1.15101 1.07655 0
M  V30 8075 C 741.438 0.858869 2.18313 0
M  V30 8076 C 742.454 -0.163641 1.73229 0
M  V30 8077 O 743.63 0.00969541 2.01398 0
M  V30 8078 C 740.695 0.34893 3.4494 0
M  V30 8079 C 739.756 1.43495 4.04608 0
M  V30 8080 C 738.989 0.949253 5.2519 0
M  V30 8081 O 739.212 -0.20636 5.70027 0
M  V30 8082 O 738.146 1.73161 5.76454 0
M  V30 8083 H 741.972 1.78386 2.45788 0
M  V30 8084 H 739.557 0.929876 1.16934 0
M  V30 8085 H 741.439 0.070851 4.2134 0
M  V30 8086 H 740.114 -0.548237 3.19024 0
M  V30 8087 H 739.021 1.7666 3.29761 0
M  V30 8088 H 740.354 2.30692 4.3479 0
M  V30 8089 N 742.006 -1.2595 0.947325 0
M  V30 8090 C 743.234 -1.97544 0.615127 0
M  V30 8091 C 743.649 -1.70484 -0.811221 0
M  V30 8092 O 743.006 -0.97662 -1.5417 0
M  V30 8093 C 743.057 -3.51236 0.855328 0
M  V30 8094 O 742.778 -3.77359 2.22558 0
M  V30 8095 C 744.279 -4.40066 0.534515 0
M  V30 8096 H 741.499 -0.629888 0.231263 0
M  V30 8097 H 744.043 -1.60308 1.26971 0
M  V30 8098 H 742.198 -3.8661 0.247266 0
M  V30 8099 H 742.612 -4.71857 2.29022 0
M  V30 8100 H 744.086 -5.46838 0.753168 0
M  V30 8101 H 744.563 -4.35982 -0.530701 0
M  V30 8102 H 745.169 -4.10245 1.12158 0
M  V30 8103 N 743.484 -0.715051 -1.40445 0
M  V30 8104 C 744.73 -0.254705 -2.01194 0
M  V30 8105 C 745.063 1.14894 -1.56567 0
M  V30 8106 O 744.338 1.77933 -0.785491 0
M  V30 8107 C 744.621 -0.334148 -3.58546 0
M  V30 8108 C 744.474 -1.77613 -4.13248 0
M  V30 8109 C 745.793 0.294968 -4.3911 0
M  V30 8110 H 742.912 -0.094025 -0.730978 0
M  V30 8111 H 745.554 -0.907449 -1.66929 0
M  V30 8112 H 743.704 0.221609 -3.87867 0
M  V30 8113 H 745.376 -2.38723 -3.94727 0
M  V30 8114 H 743.619 -2.30402 -3.67556 0
M  V30 8115 H 744.29 -1.78311 -5.22407 0
M  V30 8116 H 746.766 -0.178563 -4.15717 0
M  V30 8117 H 745.642 0.208934 -5.48502 0
M  V30 8118 H 745.903 1.37841 -4.20062 0
M  V30 8119 N 744.962 1.50701 -0.461195 0
M  V30 8120 C 746.373 1.867 -0.00370227 0
M  V30 8121 C 746.724 1.37673 1.39787 0
M  V30 8122 O 745.849 0.737515 2.03445 0
M  V30 8123 C 746.444 3.388 5.75786e-05 0
M  V30 8124 C 745.003 3.74247 0.402044 0
M  V30 8125 C 744.15 2.74549 -0.389652 0
M  V30 8126 H 747.101 1.43585 -0.675942 0
M  V30 8127 H 747.122 3.719 0.804414 0
M  V30 8128 H 746.634 3.74452 -1.02015 0
M  V30 8129 H 744.735 3.44192 1.42697 0
M  V30 8130 H 744.848 4.78973 0.110265 0
M  V30 8131 H 743.212 2.54226 0.155314 0
M  V30 8132 H 743.995 3.13044 -1.40919 0
M  V30 8133 N 746.441 0.193421 1.56409 0
M  V30 8134 C 747.852 -0.319471 1.83946 0
M  V30 8135 C 748.203 -1.61505 1.11403 0
M  V30 8136 O 747.328 -2.13139 0.374289 0
M  V30 8137 C 747.923 -0.586411 3.33686 0
M  V30 8138 C 746.482 -1.04368 3.61641 0
M  V30 8139 C 745.629 -0.0913834 2.77149 0
M  V30 8140 H 748.58 0.417242 1.53117 0
M  V30 8141 H 748.601 -1.43591 3.52366 0
M  V30 8142 H 748.113 0.356701 3.86457 0
M  V30 8143 H 746.214 -2.00113 3.14302 0
M  V30 8144 H 746.327 -0.937549 4.69837 0
M  V30 8145 H 744.691 -0.592954 2.47702 0
M  V30 8146 H 745.474 0.846142 3.32709 0
M  V30 8147 N 747.919 -1.57396 -0.0801906 0
M  V30 8148 C 749.144 -1.91437 -0.797909 0
M  V30 8149 C 749.569 -0.789075 -1.70749 0
M  V30 8150 O 748.927 0.25857 -1.79447 0
M  V30 8151 C 748.975 -3.24402 -1.57467 0
M  V30 8152 O 748.079 -3.13043 -2.68473 0
M  V30 8153 H 747.42 -0.627109 -0.218243 0
M  V30 8154 H 749.95 -2.04537 -0.050949 0
M  V30 8155 H 749.96 -3.58072 -1.95571 0
M  V30 8156 H 748.635 -4.05884 -0.907229 0
M  V30 8157 H 747.212 -2.90915 -2.33287 0
M  V30 8158 N 749.397 0.351382 -1.53633 0
M  V30 8159 C 750.674 1.10903 -1.6112 0
M  V30 8160 C 751.054 2.06725 -0.427556 0
M  V30 8161 O 750.402 2.20992 0.580916 0
M  V30 8162 C 750.612 1.83561 -2.96827 0
M  V30 8163 C 751.96 2.37587 -3.51906 0
M  V30 8164 O 752.984 1.93669 -2.9895 0
M  V30 8165 O 751.843 3.17913 -4.44515 0
M  V30 8166 H 748.937 0.509558 -0.651368 0
M  V30 8167 H 751.483 0.353504 -1.65977 0
M  V30 8168 H 750.255 1.1371 -3.74414 0
M  V30 8169 H 749.878 2.6599 -2.95525 0
M  V30 8170 N 750.875 1.45233 0.611969 0
M  V30 8171 C 752.122 1.49021 1.37109 0
M  V30 8172 C 752.45 0.130227 1.94064 0
M  V30 8173 O 751.705 -0.870551 1.75271 0
M  V30 8174 C 752.004 2.51353 2.54079 0
M  V30 8175 C 751.67 3.96178 2.15299 0
M  V30 8176 C 750.332 4.35614 2.04436 0
M  V30 8177 C 752.684 4.87275 1.84966 0
M  V30 8178 C 750.012 5.64047 1.61456 0
M  V30 8179 C 752.364 6.16115 1.43474 0
M  V30 8180 C 751.028 6.54486 1.31167 0
M  V30 8181 H 750.298 0.545307 0.501719 0
M  V30 8182 H 752.945 1.78555 0.692122 0
M  V30 8183 H 751.25 2.15372 3.27295 0
M  V30 8184 H 752.947 2.51523 3.12309 0
M  V30 8185 H 749.537 3.6499 2.24678 0
M  V30 8186 H 753.721 4.57548 1.92258 0
M  V30 8187 H 748.977 5.92575 1.50547 0
M  V30 8188 H 753.151 6.86149 1.19048 0
M  V30 8189 H 750.778 7.53904 0.97637 0
M  V30 8190 N 752.353 -0.854086 1.3245 0
M  V30 8191 C 753.581 -1.64074 1.26045 0
M  V30 8192 C 753.996 -1.8802 -0.171456 0
M  V30 8193 O 753.353 -1.4496 -1.10873 0
M  V30 8194 C 753.404 -2.9997 2.01743 0
M  V30 8195 O 753.125 -2.77084 3.39346 0
M  V30 8196 C 754.626 -3.94414 2.02368 0
M  V30 8197 H 751.846 -0.511015 0.434862 0
M  V30 8198 H 754.39 -1.06494 1.74583 0
M  V30 8199 H 752.545 -3.54193 1.56926 0
M  V30 8200 H 752.959 -3.63514 3.78098 0
M  V30 8201 H 754.433 -4.87032 2.59815 0
M  V30 8202 H 754.91 -4.27427 1.01009 0
M  V30 8203 H 755.516 -3.46127 2.47135 0
M  V30 8204 N 753.831 -1.1567 -1.07043 0
M  V30 8205 C 755.056 -0.957946 -1.83952 0
M  V30 8206 C 755.481 0.488807 -1.81638 0
M  V30 8207 O 754.839 1.34869 -1.21162 0
M  V30 8208 C 754.887 -1.48064 -3.288 0
M  V30 8209 O 753.991 -0.681921 -4.06723 0
M  V30 8210 H 753.332 -0.341453 -0.569479 0
M  V30 8211 H 755.862 -1.53728 -1.35015 0
M  V30 8212 H 755.872 -1.49484 -3.7963 0
M  V30 8213 H 754.547 -2.53388 -3.29799 0
M  V30 8214 H 753.124 -0.737612 -3.65532 0
M  V30 8215 N 755.309 1.25446 -0.953992 0
M  V30 8216 C 756.242 2.24341 -0.417912 0
M  V30 8217 C 757.22 1.54709 0.5004 0
M  V30 8218 O 758.404 1.83414 0.434923 0
M  V30 8219 C 755.531 3.36352 0.398155 0
M  V30 8220 C 754.577 4.24007 -0.460461 0
M  V30 8221 S 755.41 5.00951 -1.89231 0
M  V30 8222 C 756.566 6.1643 -1.08465 0
M  V30 8223 H 756.799 2.69465 -1.25602 0
M  V30 8224 H 754.332 1.34512 -0.758018 0
M  V30 8225 H 756.29 4.01325 0.863059 0
M  V30 8226 H 754.951 2.89813 1.21108 0
M  V30 8227 H 754.144 5.03728 0.165415 0
M  V30 8228 H 753.746 3.63965 -0.860549 0
M  V30 8229 H 756.038 6.76681 -0.333017 0
M  V30 8230 H 756.981 6.8335 -1.85577 0
M  V30 8231 H 757.389 5.61139 -0.615062 0
M  V30 8232 N 756.787 0.722489 1.40064 0
M  V30 8233 C 758.033 0.265371 2.01056 0
M  V30 8234 C 758.366 -1.14062 1.57174 0
M  V30 8235 O 757.641 -1.77514 0.794916 0
M  V30 8236 C 757.924 0.353157 3.58364 0
M  V30 8237 C 757.777 1.79802 4.123 0
M  V30 8238 C 759.096 -0.271677 4.39261 0
M  V30 8239 H 756.215 0.0979002 0.730469 0
M  V30 8240 H 758.857 0.916289 1.66446 0
M  V30 8241 H 757.007 -0.201037 3.87979 0
M  V30 8242 H 758.679 2.40813 3.93455 0
M  V30 8243 H 756.922 2.32348 3.66329 0
M  V30 8244 H 757.593 1.81079 5.21454 0
M  V30 8245 H 760.069 0.200607 4.15616 0
M  V30 8246 H 758.945 -0.179843 5.48605 0
M  V30 8247 H 759.206 -1.35611 4.20787 0
M  V30 8248 N 758.265 -1.50454 0.469181 0
M  V30 8249 C 759.493 -2.06729 -0.0842134 0
M  V30 8250 C 759.908 -1.33326 -1.33677 0
M  V30 8251 O 759.265 -0.401977 -1.78018 0
M  V30 8252 C 759.316 -3.59557 -0.374253 0
M  V30 8253 O 759.037 -4.30192 0.828622 0
M  V30 8254 C 760.538 -4.32449 -0.974824 0
M  V30 8255 H 757.758 -0.670971 0.006231 0
M  V30 8256 H 760.302 -1.93645 0.657415 0
M  V30 8257 H 758.457 -3.7245 -1.06581 0
M  V30 8258 H 758.871 -5.21371 0.572066 0
M  V30 8259 H 760.345 -5.40361 -1.12755 0
M  V30 8260 H 760.822 -3.92819 -1.96442 0
M  V30 8261 H 761.428 -4.24082 -0.321703 0
M  V30 8262 N 759.743 -0.201713 -1.56304 0
M  V30 8263 C 760.673 0.71155 -2.22394 0
M  V30 8264 C 761.654 1.21625 -1.18917 0
M  V30 8265 O 762.839 1.26388 -1.47444 0
M  V30 8266 C 759.969 1.92837 -2.88845 0
M  V30 8267 C 758.923 1.55831 -3.98623 0
M  V30 8268 C 758.249 2.85228 -4.52271 0
M  V30 8269 C 759.549 0.763249 -5.16693 0
M  V30 8270 H 761.243 0.160573 -2.98969 0
M  V30 8271 H 758.789 0.0757916 -1.438 0
M  V30 8272 H 760.742 2.57253 -3.33764 0
M  V30 8273 H 759.466 2.50398 -2.09686 0
M  V30 8274 H 758.125 0.9377 -3.54405 0
M  V30 8275 H 757.773 3.40893 -3.69866 0
M  V30 8276 H 757.473 2.6121 -5.26349 0
M  V30 8277 H 758.997 3.50622 -4.99897 0
M  V30 8278 H 760.411 1.31066 -5.58117 0
M  V30 8279 H 758.808 0.620935 -5.96879 0
M  V30 8280 H 759.878 -0.234322 -4.84334 0
M  V30 8281 N 761.222 1.57436 0.0718424 0
M  V30 8282 C 762.633 1.75975 0.623678 0
M  V30 8283 C 762.984 0.827155 1.77912 0
M  V30 8284 O 762.109 0.0112425 2.16397 0
M  V30 8285 C 762.704 3.1911 1.13816 0
M  V30 8286 C 761.263 3.38994 1.63586 0
M  V30 8287 C 760.41 2.71684 0.555261 0
M  V30 8288 H 763.361 1.57948 -0.154328 0
M  V30 8289 H 763.382 3.23267 2.00696 0
M  V30 8290 H 762.894 3.86962 0.296998 0
M  V30 8291 H 760.995 2.76256 2.50027 0
M  V30 8292 H 761.108 4.47436 1.71283 0
M  V30 8293 H 759.472 2.34236 1.00029 0
M  V30 8294 H 760.255 3.42191 -0.275712 0
M  V30 8295 N 762.7 -0.34323 1.53817 0
M  V30 8296 C 763.928 -1.10348 1.75017 0
M  V30 8297 C 764.343 -1.82345 0.489475 0
M  V30 8298 O 763.7 -1.74362 -0.538886 0
M  V30 8299 C 763.751 -2.11672 2.93048 0
M  V30 8300 O 763.472 -1.42603 4.14241 0
M  V30 8301 C 764.973 -3.0007 3.26301 0
M  V30 8302 H 762.193 -0.329056 0.584776 0
M  V30 8303 H 764.737 -0.395339 2.00642 0
M  V30 8304 H 762.892 -2.78051 2.69753 0
M  V30 8305 H 763.306 -2.10294 4.80496 0
M  V30 8306 H 764.78 -3.67101 4.12239 0
M  V30 8307 H 765.257 -3.66105 2.42618 0
M  V30 8308 H 765.863 -2.3928 3.51604 0
M  V30 8309 N 764.178 -1.45556 -0.604258 0
M  V30 8310 C 765.141 -1.54091 -1.69672 0
M  V30 8311 C 766.141 -0.420076 -1.55216 0
M  V30 8312 O 767.331 -0.683671 -1.60224 0
M  V30 8313 C 764.463 -1.44063 -3.08964 0
M  V30 8314 H 765.656 -2.51431 -1.6347 0
M  V30 8315 H 763.209 -1.33046 -0.820273 0
M  V30 8316 H 763.944 -0.479201 -3.2074 0
M  V30 8317 H 763.729 -2.25362 -3.20865 0
M  V30 8318 H 765.219 -1.53075 -3.88533 0
M  V30 8319 N 765.656 0.84705 -1.32902 0
M  V30 8320 C 767.067 1.41785 -1.21466 0
M  V30 8321 C 767.418 1.95464 0.169767 0
M  V30 8322 O 766.543 1.88157 1.06892 0
M  V30 8323 C 767.138 2.57734 -2.19906 0
M  V30 8324 C 765.697 3.10791 -2.12334 0
M  V30 8325 C 764.844 1.83562 -2.07847 0
M  V30 8326 H 767.795 0.653532 -1.44619 0
M  V30 8327 H 767.816 3.35123 -1.80202 0
M  V30 8328 H 767.328 2.18635 -3.20656 0
M  V30 8329 H 765.429 3.54455 -1.14858 0
M  V30 8330 H 765.542 3.71519 -3.02506 0
M  V30 8331 H 763.906 2.03475 -1.53199 0
M  V30 8332 H 764.689 1.4667 -3.10392 0
M  V30 8333 N 767.134 1.16236 1.06428 0
M  V30 8334 C 768.097 0.870163 2.1204 0
M  V30 8335 C 769.097 -0.134239 1.60239 0
M  V30 8336 O 770.287 0.0964932 1.73933 0
M  V30 8337 C 767.419 0.301033 3.39568 0
M  V30 8338 H 768.612 1.8064 2.39394 0
M  V30 8339 H 766.165 0.971116 1.2247 0
M  V30 8340 H 766.9 -0.642948 3.17863 0
M  V30 8341 H 766.685 1.02475 3.78472 0
M  V30 8342 H 768.175 0.114494 4.17443 0
M  V30 8343 N 768.612 -1.24939 0.960631 0
M  V30 8344 C 769.559 -2.25658 0.484459 0
M  V30 8345 C 770.529 -1.59422 -0.466242 0
M  V30 8346 O 771.714 -1.87015 -0.378169 0
M  V30 8347 C 768.854 -3.44359 -0.225958 0
M  V30 8348 C 767.967 -4.25214 0.762682 0
M  V30 8349 C 767.102 -5.31192 0.0290931 0
M  V30 8350 C 766.141 -6.03739 1.00827 0
M  V30 8351 N 765.278 -7.01437 0.305155 0
M  V30 8352 H 770.118 -2.65758 1.34821 0
M  V30 8353 H 767.655 -1.30648 0.675983 0
M  V30 8354 H 769.613 -4.12035 -0.654472 0
M  V30 8355 H 768.243 -3.05118 -1.05371 0
M  V30 8356 H 767.295 -3.57144 1.30966 0
M  V30 8357 H 768.607 -4.75406 1.50964 0
M  V30 8358 H 767.761 -6.04971 -0.457763 0
M  V30 8359 H 766.5 -4.81889 -0.750614 0
M  V30 8360 H 765.505 -5.2877 1.50607 0
M  V30 8361 H 766.73 -6.55131 1.7883 0
M  V30 8362 H 764.676 -6.54415 -0.455704 0
M  V30 8363 H 764.593 -7.49475 0.991104 0
M  V30 8364 H 765.861 -7.79336 -0.159966 0
M  V30 8365 N 770.09 -0.729906 -1.39679 0
M  V30 8366 C 771.339 -0.272534 -1.9985 0
M  V30 8367 C 771.652 1.14519 -1.58571 0
M  V30 8368 O 772.858 1.70182 -2.11543 0
M  V30 8369 C 771.314 -0.436322 -3.57245 0
M  V30 8370 C 770.922 -1.86161 -4.0749 0
M  V30 8371 C 772.666 -0.0404679 -4.24481 0
M  V30 8372 C 770.573 -1.97522 -5.5744 0
M  V30 8373 H 769.503 -0.0981428 -0.747585 0
M  V30 8374 H 772.154 -0.903056 -1.59741 0
M  V30 8375 H 770.536 0.263015 -3.95126 0
M  V30 8376 H 771.71 -2.59248 -3.80955 0
M  V30 8377 H 770.025 -2.21021 -3.529 0
M  V30 8378 H 772.622 -0.104437 -5.34598 0
M  V30 8379 H 772.965 1.00357 -4.04023 0
M  V30 8380 H 773.498 -0.690774 -3.91757 0
M  V30 8381 H 770.237 -3.00096 -5.82771 0
M  V30 8382 H 769.757 -1.28864 -5.85794 0
M  V30 8383 H 771.436 -1.754 -6.22771 0
M  V30 8384 N 771.568 1.50203 -0.477153 0
M  V30 8385 C 772.798 2.0647 0.0731427 0
M  V30 8386 C 773.206 1.3405 1.33518 0
M  V30 8387 O 772.549 0.405164 1.79176 0
M  V30 8388 C 772.611 3.57025 0.421121 0
M  V30 8389 C 772.275 4.50973 -0.739765 0
M  V30 8390 C 773.272 4.939 -1.62353 0
M  V30 8391 C 770.957 4.93581 -0.93181 0
M  V30 8392 C 772.951 5.78149 -2.6837 0
M  V30 8393 C 770.638 5.77612 -1.99519 0
M  V30 8394 C 771.636 6.19798 -2.86949 0
M  V30 8395 O 771.324 7.02152 -3.91456 0
M  V30 8396 H 771.056 0.675969 -0.00648243 0
M  V30 8397 H 773.61 1.94278 -0.66673 0
M  V30 8398 H 771.84 3.67141 1.21426 0
M  V30 8399 H 773.529 3.95632 0.907213 0
M  V30 8400 H 774.295 4.61646 -1.48687 0
M  V30 8401 H 770.174 4.60262 -0.260739 0
M  V30 8402 H 773.718 6.10997 -3.36643 0
M  V30 8403 H 769.615 6.09279 -2.13189 0
M  V30 8404 H 770.383 7.20414 -3.88518 0
M  V30 8405 N 773.046 0.209999 1.56195 0
M  V30 8406 C 774.292 -0.418742 1.99043 0
M  V30 8407 C 774.647 -1.58201 1.095 0
M  V30 8408 O 773.94 -1.91069 0.1425 0
M  V30 8409 C 774.134 -0.91312 3.45539 0
M  V30 8410 C 773.963 0.200706 4.49252 0
M  V30 8411 C 772.733 0.663287 5.00928 0
M  V30 8412 C 774.931 1.01493 5.04186 0
M  V30 8413 N 772.913 1.75338 5.88328 0
M  V30 8414 C 774.284 1.95411 5.884 0
M  V30 8415 C 776.339 1.05567 4.8658 0
M  V30 8416 C 775.042 2.93069 6.56889 0
M  V30 8417 C 777.068 2.02037 5.55819 0
M  V30 8418 C 776.43 2.94697 6.39791 0
M  V30 8419 H 772.529 -0.120226 0.772703 0
M  V30 8420 H 775.113 0.319119 1.92067 0
M  V30 8421 H 773.284 -1.62038 3.52985 0
M  V30 8422 H 775.016 -1.51371 3.75325 0
M  V30 8423 H 771.771 0.253945 4.72919 0
M  V30 8424 H 772.195 2.30007 6.3673 0
M  V30 8425 H 776.837 0.353242 4.21322 0
M  V30 8426 H 774.555 3.6428 7.21336 0
M  V30 8427 H 778.141 2.05849 5.44167 0
M  V30 8428 H 777.021 3.68128 6.92425 0
M  V30 8429 N 774.524 -1.57472 -0.0634922 0
M  V30 8430 C 775.434 -2.07621 -1.09227 0
M  V30 8431 C 776.45 -1.00746 -1.41867 0
M  V30 8432 O 777.626 -1.32269 -1.51878 0
M  V30 8433 C 774.691 -2.51707 -2.38421 0
M  V30 8434 C 773.752 -3.72917 -2.12676 0
M  V30 8435 C 772.985 -4.14891 -3.3571 0
M  V30 8436 O 773.208 -3.56663 -4.45137 0
M  V30 8437 O 772.142 -5.07616 -3.23434 0
M  V30 8438 H 775.968 -2.95612 -0.696205 0
M  V30 8439 H 773.553 -1.46787 -0.27819 0
M  V30 8440 H 775.435 -2.80547 -3.14438 0
M  V30 8441 H 774.11 -1.66842 -2.77391 0
M  V30 8442 H 773.017 -3.49148 -1.34337 0
M  V30 8443 H 774.35 -4.5866 -1.78583 0
M  V30 8444 N 776.003 0.335068 -1.53997 0
M  V30 8445 C 776.95 1.41187 -1.82579 0
M  V30 8446 C 777.92 1.51897 -0.672061 0
M  V30 8447 O 779.105 1.673 -0.917346 0
M  V30 8448 C 776.245 2.77717 -2.0486 0
M  V30 8449 C 775.358 2.7573 -3.32561 0
M  V30 8450 C 774.493 4.04032 -3.44864 0
M  V30 8451 C 773.532 3.96308 -4.66483 0
M  V30 8452 N 772.669 5.16317 -4.75774 0
M  V30 8453 H 777.509 1.16113 -2.74448 0
M  V30 8454 H 775.046 0.562305 -1.35928 0
M  V30 8455 H 777.004 3.57071 -2.15768 0
M  V30 8456 H 775.634 3.01124 -1.16294 0
M  V30 8457 H 774.686 1.88432 -3.3045 0
M  V30 8458 H 775.998 2.65902 -4.22016 0
M  V30 8459 H 775.152 4.91814 -3.55251 0
M  V30 8460 H 773.891 4.16652 -2.53481 0
M  V30 8461 H 772.896 3.06911 -4.56164 0
M  V30 8462 H 774.121 3.85263 -5.5924 0
M  V30 8463 H 772.067 5.29464 -3.87303 0
M  V30 8464 H 771.984 5.08779 -5.59178 0
M  V30 8465 H 773.252 6.05846 -4.9048 0
M  V30 8466 N 777.481 1.45874 0.596531 0
M  V30 8467 C 778.897 1.30524 0.918459 0
M  V30 8468 C 779.097 0.266429 1.99731 0
M  V30 8469 O 778.153 -0.335809 2.50257 0
M  V30 8470 C 779.466 2.68747 1.3489 0
M  V30 8471 C 781.014 2.7673 1.46251 0
M  V30 8472 C 781.489 4.15504 1.92667 0
M  V30 8473 N 782.98 4.17853 1.99883 0
M  V30 8474 C 783.715 5.22109 2.37044 0
M  V30 8475 N 783.211 6.36704 2.73094 0
M  V30 8476 N 785.004 5.09471 2.37479 0
M  V30 8477 H 777.155 2.12081 -0.116368 0
M  V30 8478 H 779.418 0.947941 0.0106033 0
M  V30 8479 H 779.124 3.46006 0.630288 0
M  V30 8480 H 778.998 2.97942 2.31323 0
M  V30 8481 H 781.385 1.99768 2.17202 0
M  V30 8482 H 781.466 2.51236 0.481054 0
M  V30 8483 H 781.11 4.92956 1.223 0
M  V30 8484 H 781.04 4.38396 2.91747 0
M  V30 8485 H 783.531 3.35163 1.74568 0
M  V30 8486 H 783.844 7.12041 3.00362 0
M  V30 8487 H 782.189 6.40087 2.70764 0
M  V30 8488 H 785.38 4.18987 2.08728 0
M  V30 8489 H 785.553 5.90837 2.66112 0
M  V30 8490 N 778.959 -0.83999 1.33349 0
M  V30 8491 C 779.909 -1.93817 1.20079 0
M  V30 8492 C 780.893 -1.60564 0.103978 0
M  V30 8493 O 782.085 -1.73859 0.331964 0
M  V30 8494 C 779.214 -3.30151 0.941031 0
M  V30 8495 C 778.3 -3.69577 2.08023 0
M  V30 8496 N 778.691 -3.80707 3.3301 0
M  V30 8497 C 776.989 -3.99309 1.98667 0
M  V30 8498 C 777.69 -4.14899 4.07717 0
M  V30 8499 N 776.666 -4.27208 3.36146 0
M  V30 8500 H 780.468 -2.00576 2.14817 0
M  V30 8501 H 777.982 -1.03264 1.2534 0
M  V30 8502 H 779.979 -4.08617 0.826894 0
M  V30 8503 H 778.639 -3.247 0.00216738 0
M  V30 8504 H 779.65 -3.64644 3.67771 0
M  V30 8505 H 776.327 -4.02076 1.12433 0
M  V30 8506 H 777.717 -4.30857 5.15569 0
M  V30 8507 N 780.437 -1.16799 -1.0581 0
M  V30 8508 C 781.848 -0.95945 -1.60161 0
M  V30 8509 C 782.199 0.49543 -1.89842 0
M  V30 8510 O 781.324 1.36957 -1.67546 0
M  V30 8511 C 781.919 -1.73527 -2.90987 0
M  V30 8512 C 780.478 -1.57158 -3.42021 0
M  V30 8513 C 779.625 -1.74089 -2.15843 0
M  V30 8514 H 782.576 -1.31598 -0.886992 0
M  V30 8515 H 782.597 -1.21397 -3.60615 0
M  V30 8516 H 782.109 -2.79411 -2.69353 0
M  V30 8517 H 780.21 -0.537361 -3.68705 0
M  V30 8518 H 780.323 -2.35858 -4.17022 0
M  V30 8519 H 778.687 -1.16874 -2.26302 0
M  V30 8520 H 779.47 -2.81371 -1.96686 0
M  V30 8521 N 781.915 1.24427 -0.967243 0
M  V30 8522 C 782.825 2.29109 -0.504592 0
M  V30 8523 C 783.841 1.68495 0.434224 0
M  V30 8524 O 785.017 1.99041 0.307379 0
M  V30 8525 C 782.082 3.46133 0.198273 0
M  V30 8526 C 781.143 4.22149 -0.780313 0
M  V30 8527 C 780.376 5.33585 -0.110896 0
M  V30 8528 O 780.599 5.59676 1.10088 0
M  V30 8529 O 779.533 5.96522 -0.802823 0
M  V30 8530 H 783.359 2.708 -1.37482 0
M  V30 8531 H 780.944 1.30111 -0.73426 0
M  V30 8532 H 782.826 4.17205 0.593124 0
M  V30 8533 H 781.501 3.0642 1.04347 0
M  V30 8534 H 780.408 3.53454 -1.22561 0
M  V30 8535 H 781.741 4.65677 -1.59392 0
M  V30 8536 N 783.393 0.737304 1.3929 0
M  V30 8537 C 784.325 0.0592106 2.29124 0
M  V30 8538 C 785.338 -0.701026 1.46934 0
M  V30 8539 O 786.527 -0.544808 1.69983 0
M  V30 8540 C 783.627 -0.940358 3.25592 0
M  V30 8541 C 782.8 -0.241163 4.36735 0
M  V30 8542 C 781.859 -1.14916 5.13498 0
M  V30 8543 O 780.885 -0.625783 5.6575 0
M  V30 8544 N 782.087 -2.47869 5.2492 0
M  V30 8545 H 784.852 0.830647 2.87959 0
M  V30 8546 H 782.413 0.586718 1.50895 0
M  V30 8547 H 784.405 -1.55046 3.73822 0
M  V30 8548 H 782.975 -1.61299 2.67771 0
M  V30 8549 H 782.195 0.549441 3.90352 0
M  V30 8550 H 783.483 0.243299 5.08218 0
M  V30 8551 H 782.881 -2.92864 4.83991 0
M  V30 8552 H 781.438 -3.03969 5.76581 0
M  V30 8553 N 784.871 -1.49948 0.485112 0
M  V30 8554 C 785.818 -2.28819 -0.301729 0
M  V30 8555 C 786.788 -1.34496 -0.974683 0
M  V30 8556 O 787.973 -1.63444 -0.984418 0
M  V30 8557 C 785.113 -3.16758 -1.36961 0
M  V30 8558 C 784.226 -4.26125 -0.710027 0
M  V30 8559 C 783.361 -5.01302 -1.75699 0
M  V30 8560 C 782.4 -6.02525 -1.07841 0
M  V30 8561 N 781.537 -6.70927 -2.06886 0
M  V30 8562 H 786.377 -2.95604 0.377127 0
M  V30 8563 H 783.914 -1.45764 0.197826 0
M  V30 8564 H 785.872 -3.66106 -2.00056 0
M  V30 8565 H 784.502 -2.51991 -2.01744 0
M  V30 8566 H 783.554 -3.80385 0.0338278 0
M  V30 8567 H 784.866 -4.98493 -0.175079 0
M  V30 8568 H 784.02 -5.54438 -2.46339 0
M  V30 8569 H 782.759 -4.28672 -2.32577 0
M  V30 8570 H 781.764 -5.48635 -0.357706 0
M  V30 8571 H 782.989 -6.77134 -0.516345 0
M  V30 8572 H 780.935 -6.01079 -2.62755 0
M  V30 8573 H 780.852 -7.39216 -1.58414 0
M  V30 8574 H 782.12 -7.28675 -2.76863 0
M  V30 8575 N 786.349 -0.21828 -1.56081 0
M  V30 8576 C 787.579 0.41865 -2.02314 0
M  V30 8577 C 787.987 1.54124 -1.09739 0
M  V30 8578 O 787.33 1.83435 -0.0986829 0
M  V30 8579 C 787.392 1.01439 -3.44892 0
M  V30 8580 C 787.056 0.0276523 -4.56992 0
M  V30 8581 C 788.053 -0.771526 -5.14143 0
M  V30 8582 C 785.738 -0.0901537 -5.02219 0
M  V30 8583 C 787.732 -1.67525 -6.14991 0
M  V30 8584 C 785.419 -0.997411 -6.02905 0
M  V30 8585 C 786.417 -1.78851 -6.59167 0
M  V30 8586 O 786.105 -2.68052 -7.57894 0
M  V30 8587 H 785.837 0.107066 -0.667468 0
M  V30 8588 H 788.391 -0.331191 -2.02712 0
M  V30 8589 H 786.621 1.81326 -3.41552 0
M  V30 8590 H 788.31 1.55838 -3.74792 0
M  V30 8591 H 789.076 -0.690945 -4.80053 0
M  V30 8592 H 784.955 0.515474 -4.58109 0
M  V30 8593 H 788.499 -2.29316 -6.58832 0
M  V30 8594 H 784.396 -1.07902 -6.36418 0
M  V30 8595 H 785.164 -2.6209 -7.75404 0
M  V30 8596 O 787.866 1.61292 -0.0819188 0
M  V30 8597 H 788.557 1.86513 0.522732 0
M  V30 END ATOM
M  V30 BEGIN BOND
M  V30 END BOND
M  V30 END CTAB
M  END
$$$$
