drugbank_target|P50870 Streptogramin A acetyltransferase (DB01669; DB01764; DB01992)
 OpenBabel12092119503D

  0  0  0     0  0            999 V3000
M  V30 BEGIN CTAB
M  V30 COUNTS 3341 3382 0 0 0
M  V30 BEGIN ATOM
M  V30 1 H -0.908 1.98254 -0.117106 0
M  V30 2 N 0 1.576 0 0
M  V30 3 C 0.933 2.03868 1.02534 0
M  V30 4 C 1.911 0.928543 1.3348 0
M  V30 5 O 3.095 1.19667 1.45644 0
M  V30 6 C 0.222 2.43627 2.35294 0
M  V30 7 C -0.732 3.65373 2.2001 0
M  V30 8 S 0.101 5.13292 1.52614 0
M  V30 9 C 1.257 5.56322 2.86805 0
M  V30 10 H 1.49 2.90518 0.631377 0
M  V30 11 H -0.977 1.52953 0.210867 0
M  V30 12 H 0.981 2.67203 3.11629 0
M  V30 13 H -0.358 1.57376 2.7183 0
M  V30 14 H -1.165 3.90944 3.18086 0
M  V30 15 H -1.563 3.418 1.51819 0
M  V30 16 H 0.729 5.58782 3.83104 0
M  V30 17 H 1.672 6.56266 2.65933 0
M  V30 18 H 2.08 4.83886 2.90714 0
M  V30 19 N 1.4781 -0.272755 1.55222 0
M  V30 20 C 2.7261 -1.00234 1.75492 0
M  V30 21 C 3.0471 -1.8681 0.5592 0
M  V30 22 O 2.3171 -1.91215 -0.425882 0
M  V30 23 H 0.8971 -0.373076 0.647166 0
M  V30 24 H 3.5591 -0.296926 1.92625 0
M  V30 25 H 2.6551 -1.63913 2.65592 0
M  V30 26 N 2.9562 -1.48159 -0.537278 0
M  V30 27 C 4.3672 -1.49429 -1.11928 0
M  V30 28 C 4.7182 -0.26 -1.9447 0
M  V30 29 O 3.8432 0.633489 -2.0692 0
M  V30 30 C 4.4382 -2.70758 -2.03656 0
M  V30 31 C 2.9972 -2.74923 -2.57088 0
M  V30 32 C 2.1442 -2.42835 -1.3389 0
M  V30 33 H 5.0952 -1.55381 -0.322886 0
M  V30 34 H 5.1162 -2.48861 -2.87834 0
M  V30 35 H 4.6282 -3.60575 -1.43553 0
M  V30 36 H 2.7292 -1.89296 -3.20933 0
M  V30 37 H 2.8422 -3.76157 -2.9672 0
M  V30 38 H 1.2062 -1.93836 -1.65226 0
M  V30 39 H 1.9892 -3.34884 -0.755504 0
M  V30 40 N 4.4343 0.785586 -1.36625 0
M  V30 41 C 5.3823 1.91978 -1.31329 0
M  V30 42 C 6.3763 1.68162 -0.204416 0
M  V30 43 O 7.5823 1.76122 -0.371645 0
M  V30 44 H 3.9573 0.631087 -0.408942 0
M  V30 45 H 5.9283 1.93562 -2.27104 0
M  V30 46 C 4.6773 3.29055 -1.12329 0
M  V30 47 H 4.0003 3.4795 -1.96903 0
M  V30 48 H 5.4403 4.08756 -1.12671 0
M  V30 49 C 3.8993 3.36461 0.171861 0
M  V30 50 O 4.4293 3.84576 1.16035 0
M  V30 51 N 2.6353 2.89782 0.217846 0
M  V30 52 H 2.1823 2.50819 -0.587183 0
M  V30 53 H 2.1403 2.95119 1.08408 0
M  V30 54 N 5.9124 1.20967 1.01018 0
M  V30 55 C 7.3234 1.02319 1.56165 0
M  V30 56 C 7.6744 -0.418546 1.91684 0
M  V30 57 O 6.7994 -1.30096 1.72928 0
M  V30 58 C 7.3944 1.85109 2.8376 0
M  V30 59 C 5.9534 1.70809 3.35412 0
M  V30 60 C 5.1004 1.82643 2.08655 0
M  V30 61 H 8.0514 1.35065 0.833255 0
M  V30 62 H 8.0724 1.35827 3.55431 0
M  V30 63 H 7.5844 2.90035 2.57878 0
M  V30 64 H 5.6854 0.685464 3.66241 0
M  V30 65 H 5.7984 2.52467 4.07182 0
M  V30 66 H 4.1624 1.25896 2.21409 0
M  V30 67 H 4.9454 2.89066 1.85191 0
M  V30 68 N 7.3905 -1.2043 1.01659 0
M  V30 69 C 8.3235 -2.21924 0.531521 0
M  V30 70 C 9.3015 -1.57054 -0.421032 0
M  V30 71 O 10.4855 -1.85389 -0.341035 0
M  V30 72 C 7.6125 -3.37942 -0.226496 0
M  V30 73 C 6.6585 -4.21115 0.67561 0
M  V30 74 S 7.4915 -4.90674 2.14475 0
M  V30 75 C 8.6475 -6.10113 1.3969 0
M  V30 76 H 8.8805 -2.62725 1.3915 0
M  V30 77 H 6.4135 -1.30481 0.825479 0
M  V30 78 H 8.3715 -4.05196 -0.657738 0
M  V30 79 H 7.0325 -2.956 -1.06205 0
M  V30 80 H 6.2255 -5.03918 0.091108 0
M  V30 81 H 5.8275 -3.59115 1.04463 0
M  V30 82 H 8.1195 -6.7411 0.676897 0
M  V30 83 H 9.0625 -6.73022 2.20107 0
M  V30 84 H 9.4705 -5.57283 0.899786 0
M  V30 85 N 8.8686 -0.792821 -1.36206 0
M  V30 86 C 9.8156 -0.191653 -2.30003 0
M  V30 87 C 10.7856 0.666453 -1.52143 0
M  V30 88 O 11.9706 0.61442 -1.80636 0
M  V30 89 C 9.1106 0.664848 -3.38635 0
M  V30 90 C 8.2236 -0.212175 -4.31479 0
M  V30 91 C 7.3586 0.651022 -5.27196 0
M  V30 92 C 6.3976 -0.227247 -6.11678 0
M  V30 93 N 5.5346 0.595127 -6.99573 0
M  V30 94 H 10.3746 -0.996978 -2.80828 0
M  V30 95 H 7.9116 -0.503206 -1.38225 0
M  V30 96 H 9.8696 1.17645 -4.00269 0
M  V30 97 H 8.4996 1.43557 -2.89122 0
M  V30 98 H 7.5516 -0.841777 -3.70969 0
M  V30 99 H 8.8636 -0.888751 -4.90818 0
M  V30 100 H 8.0176 1.2283 -5.94136 0
M  V30 101 H 6.7566 1.36121 -4.68319 0
M  V30 102 H 5.7616 -0.816904 -5.43697 0
M  V30 103 H 6.9866 -0.93509 -6.72631 0
M  V30 104 H 4.9326 1.28955 -6.432 0
M  V30 105 H 4.8496 -0.0236952 -7.55996 0
M  V30 106 H 6.1176 1.15613 -7.70879 0
M  V30 107 N 10.3467 1.47872 -0.545128 0
M  V30 108 C 11.2797 2.2675 0.256885 0
M  V30 109 C 12.2577 1.33293 0.931228 0
M  V30 110 O 13.4417 1.62657 0.95262 0
M  V30 111 C 10.5687 3.09976 1.36501 0
M  V30 112 C 9.6147 4.1892 0.800496 0
M  V30 113 S 10.4477 5.34397 -0.343505 0
M  V30 114 C 11.6037 6.21186 0.766733 0
M  V30 115 H 11.8367 2.94425 -0.412479 0
M  V30 116 H 9.3697 1.50806 -0.331204 0
M  V30 117 H 11.3277 3.585 1.9997 0
M  V30 118 H 9.9887 2.41686 2.00616 0
M  V30 119 H 9.1817 4.76836 1.63227 0
M  V30 120 H 8.7837 3.73215 0.242217 0
M  V30 121 H 11.0757 6.56804 1.66178 0
M  V30 122 H 12.0187 7.07742 0.225204 0
M  V30 123 H 12.4267 5.54574 1.05396 0
M  V30 124 N 11.8248 0.280983 1.55075 0
M  V30 125 C 13.0548 -0.336804 2.03836 0
M  V30 126 C 13.4628 -1.49577 1.15859 0
M  V30 127 O 12.8058 -1.82888 0.172503 0
M  V30 128 C 12.8678 -0.874616 3.48699 0
M  V30 129 C 12.5318 0.156478 4.56732 0
M  V30 130 C 13.5288 0.978032 5.10618 0
M  V30 131 C 11.2138 0.292409 5.01448 0
M  V30 132 C 13.2078 1.92165 6.07743 0
M  V30 133 C 10.8948 1.23949 5.98398 0
M  V30 134 C 11.8928 2.05261 6.51427 0
M  V30 135 O 11.5808 2.98367 7.4648 0
M  V30 136 H 11.3128 -0.0800885 0.671239 0
M  V30 137 H 13.8668 0.412589 2.01213 0
M  V30 138 H 12.0968 -1.67418 3.4858 0
M  V30 139 H 13.7858 -1.40612 3.80766 0
M  V30 140 H 14.5518 0.883782 4.7688 0
M  V30 141 H 10.4308 -0.330498 4.59814 0
M  V30 142 H 13.9748 2.55672 6.49059 0
M  V30 143 H 9.8718 1.33454 6.31554 0
M  V30 144 H 10.6398 2.93116 7.64215 0
M  V30 145 N 13.3029 -1.57598 0.00835791 0
M  V30 146 C 14.7139 -1.7892 -0.53333 0
M  V30 147 C 15.0649 -0.916609 -1.73473 0
M  V30 148 O 14.1899 -0.121336 -2.1606 0
M  V30 149 C 14.7849 -3.24488 -0.974313 0
M  V30 150 C 13.3439 -3.46878 -1.46125 0
M  V30 151 C 12.4909 -2.74157 -0.416302 0
M  V30 152 H 15.4419 -1.56958 0.234495 0
M  V30 153 H 15.4629 -3.3306 -1.83988 0
M  V30 154 H 14.9749 -3.87972 -0.099718 0
M  V30 155 H 13.0759 -2.8862 -2.35646 0
M  V30 156 H 13.1889 -4.55572 -1.48295 0
M  V30 157 H 11.5529 -2.39022 -0.87981 0
M  V30 158 H 12.3359 -3.40345 0.44947 0
M  V30 159 N 14.781 0.264519 -1.55364 0
M  V30 160 C 16.03 0.992812 -1.75574 0
M  V30 161 C 16.343 1.87142 -0.568979 0
M  V30 162 O 17.549 2.63513 -0.653682 0
M  V30 163 C 16.005 1.81519 -3.10771 0
M  V30 164 C 15.613 0.984839 -4.37041 0
M  V30 165 C 17.357 2.53727 -3.40327 0
M  V30 166 C 15.264 1.80209 -5.63275 0
M  V30 167 H 14.194 0.374412 -0.65447 0
M  V30 168 H 16.845 0.248138 -1.81815 0
M  V30 169 H 15.227 2.60115 -2.98591 0
M  V30 170 H 16.401 0.242455 -4.60162 0
M  V30 171 H 14.716 0.37691 -4.14691 0
M  V30 172 H 17.313 3.15292 -4.3185 0
M  V30 173 H 17.656 3.24447 -2.60845 0
M  V30 174 H 18.189 1.82156 -3.53644 0
M  V30 175 H 14.928 1.13896 -6.45529 0
M  V30 176 H 14.448 2.52022 -5.44284 0
M  V30 177 H 16.127 2.37364 -6.01887 0
M  V30 178 N 16.2591 1.48442 0.529413 0
M  V30 179 C 17.1691 1.6569 1.66084 0
M  V30 180 C 18.1851 0.539432 1.65427 0
M  V30 181 O 19.3611 0.810572 1.84368 0
M  V30 182 C 16.4261 1.69315 3.02545 0
M  V30 183 C 15.4871 2.92694 3.14052 0
M  V30 184 C 14.7201 2.96137 4.44003 0
M  V30 185 O 14.9431 2.07973 5.31134 0
M  V30 186 O 13.8771 3.88312 4.59888 0
M  V30 187 H 17.7031 2.61483 1.54469 0
M  V30 188 H 15.2881 1.3185 0.702567 0
M  V30 189 H 17.1701 1.74217 3.83701 0
M  V30 190 H 15.8451 0.766966 3.14483 0
M  V30 191 H 14.7521 2.93324 2.32189 0
M  V30 192 H 16.0851 3.84699 3.0703 0
M  V30 193 N 17.7372 -0.778329 1.37039 0
M  V30 194 C 18.9852 -1.53361 1.31623 0
M  V30 195 C 19.3062 -1.94739 -0.100831 0
M  V30 196 O 18.5762 -1.65797 -1.04347 0
M  V30 197 H 17.1562 -0.568794 0.484234 0
M  V30 198 H 19.8182 -0.926742 1.71457 0
M  V30 199 H 18.9142 -2.43606 1.95096 0
M  V30 200 N 19.2153 -1.21501 -1.00376 0
M  V30 201 C 20.1633 -0.972442 -2.11297 0
M  V30 202 C 21.1573 0.080731 -1.69208 0
M  V30 203 O 22.3633 -0.0707666 -1.79861 0
M  V30 204 H 18.7383 -0.297218 -0.690772 0
M  V30 205 H 20.7093 -1.91394 -2.28934 0
M  V30 206 C 19.4583 -0.555065 -3.43241 0
M  V30 207 H 18.7813 -1.35709 -3.76062 0
M  V30 208 H 20.2213 -0.424664 -4.21868 0
M  V30 209 C 18.6803 0.734147 -3.28804 0
M  V30 210 O 19.2103 1.78937 -3.59645 0
M  V30 211 N 17.4163 0.701133 -2.82015 0
M  V30 212 H 16.9633 -0.157874 -2.57116 0
M  V30 213 H 16.9213 1.56403 -2.72737 0
M  V30 214 N 20.6934 1.19889 -1.02296 0
M  V30 215 C 21.6404 2.22901 -0.598651 0
M  V30 216 C 22.6104 1.61588 0.384521 0
M  V30 217 O 23.7954 1.88697 0.282522 0
M  V30 218 C 20.9354 3.45063 0.0504476 0
M  V30 219 C 20.0484 4.20783 -0.978053 0
M  V30 220 C 19.1834 5.30356 -0.299338 0
M  V30 221 C 18.2224 5.97826 -1.31416 0
M  V30 222 N 17.3594 6.98975 -0.661667 0
M  V30 223 H 22.1994 2.58554 -1.48169 0
M  V30 224 H 19.7364 1.27039 -0.741584 0
M  V30 225 H 21.6944 4.14831 0.443971 0
M  V30 226 H 20.3244 3.10084 0.897097 0
M  V30 227 H 19.3764 3.50018 -1.48969 0
M  V30 228 H 20.6884 4.67109 -1.74958 0
M  V30 229 H 19.8424 6.06516 0.149347 0
M  V30 230 H 18.5814 4.85084 0.504445 0
M  V30 231 H 17.5864 5.20422 -1.77317 0
M  V30 232 H 18.8114 6.45183 -2.11933 0
M  V30 233 H 16.7574 6.55886 0.122132 0
M  V30 234 H 16.6744 7.43461 -1.37117 0
M  V30 235 H 17.9424 7.7914 -0.236785 0
M  V30 236 N 22.1715 0.800033 1.35784 0
M  V30 237 C 23.3965 0.388511 2.03729 0
M  V30 238 C 23.8215 -0.990481 1.5991 0
M  V30 239 O 23.1795 -1.64013 0.772612 0
M  V30 240 C 23.2275 0.4726 3.5749 0
M  V30 241 O 22.3315 -0.51646 4.09153 0
M  V30 242 H 21.6725 0.163271 0.643614 0
M  V30 243 H 24.2025 1.0841 1.73518 0
M  V30 244 H 24.2125 0.34003 4.06581 0
M  V30 245 H 22.8875 1.47848 3.88734 0
M  V30 246 H 21.4645 -0.344673 3.71304 0
M  V30 247 N 23.6496 -1.47581 0.552962 0
M  V30 248 C 24.8956 -2.02782 0.0273648 0
M  V30 249 C 25.2286 -1.42687 -1.31734 0
M  V30 250 O 24.5036 -0.580897 -1.85623 0
M  V30 251 C 24.7866 -3.60031 -0.0702371 0
M  V30 252 C 24.6396 -4.30566 1.30126 0
M  V30 253 C 25.9586 -4.33028 -0.785771 0
M  V30 254 H 23.0776 -0.736912 0.0114185 0
M  V30 255 H 25.7196 -1.76056 0.714432 0
M  V30 256 H 23.8696 -3.82932 -0.655382 0
M  V30 257 H 25.5416 -4.19018 1.92929 0
M  V30 258 H 23.7846 -3.91086 1.87709 0
M  V30 259 H 24.4556 -5.39114 1.18573 0
M  V30 260 H 26.9316 -4.15095 -0.288982 0
M  V30 261 H 25.8076 -5.42695 -0.823013 0
M  V30 262 H 26.0686 -4.01945 -1.841 0
M  V30 263 N 25.1277 -0.289203 -1.54924 0
M  V30 264 C 26.0597 0.625583 -2.20497 0
M  V30 265 C 27.0727 1.10667 -1.19402 0
M  V30 266 O 28.2617 1.02615 -1.46056 0
M  V30 267 C 25.3617 1.86702 -2.82835 0
M  V30 268 C 24.5347 1.5304 -4.09753 0
M  V30 269 C 23.5937 2.62576 -4.56005 0
M  V30 270 O 22.6197 2.28167 -5.21468 0
M  V30 271 N 23.8217 3.92901 -4.27328 0
M  V30 272 H 26.5867 0.0642801 -2.99631 0
M  V30 273 H 24.1477 -0.110896 -1.6152 0
M  V30 274 H 26.1397 2.59304 -3.10715 0
M  V30 275 H 24.7097 2.33702 -2.07611 0
M  V30 276 H 23.9297 0.637564 -3.8901 0
M  V30 277 H 25.2177 1.28072 -4.92418 0
M  V30 278 H 24.6157 4.23671 -3.74859 0
M  V30 279 H 23.1727 4.61837 -4.59946 0
M  V30 280 N 26.6058 1.57591 -0.0167156 0
M  V30 281 C 27.8528 1.91283 0.664597 0
M  V30 282 C 28.1808 0.891949 1.72842 0
M  V30 283 O 27.4358 -0.100931 1.9544 0
M  V30 284 C 27.7348 3.3172 1.33029 0
M  V30 285 C 27.4008 4.4914 0.398047 0
M  V30 286 C 26.0628 4.80992 0.141421 0
M  V30 287 C 28.4148 5.20634 -0.242825 0
M  V30 288 C 25.7428 5.81703 -0.764092 0
M  V30 289 C 28.0948 6.22311 -1.13632 0
M  V30 290 C 26.7588 6.52611 -1.40196 0
M  V30 291 H 26.0288 0.699956 0.243193 0
M  V30 292 H 28.6758 1.9135 -0.0758267 0
M  V30 293 H 26.9808 3.27856 2.14517 0
M  V30 294 H 28.6778 3.55055 1.86379 0
M  V30 295 H 25.2678 4.24262 0.608238 0
M  V30 296 H 29.4518 4.96267 -0.0576019 0
M  V30 297 H 24.7078 6.03532 -0.977732 0
M  V30 298 H 28.8818 6.76834 -1.63917 0
M  V30 299 H 26.5088 7.30467 -2.10529 0
M  V30 300 N 28.0839 -0.256276 1.55502 0
M  V30 301 C 29.3329 -0.983486 1.76098 0
M  V30 302 C 29.6459 -1.86837 0.578896 0
M  V30 303 O 30.8519 -2.63163 0.667648 0
M  V30 304 C 29.3079 -1.79868 3.1173 0
M  V30 305 C 28.9159 -0.961648 4.37557 0
M  V30 306 C 30.6599 -2.51919 3.41668 0
M  V30 307 C 28.5669 -1.77219 5.64223 0
M  V30 308 H 27.4969 -0.370936 0.656447 0
M  V30 309 H 30.1479 -0.238492 1.81944 0
M  V30 310 H 28.5299 -2.58527 2.99966 0
M  V30 311 H 29.7039 -0.218048 4.60284 0
M  V30 312 H 28.0189 -0.354913 4.14885 0
M  V30 313 H 30.6159 -3.12998 4.33516 0
M  V30 314 H 30.9589 -3.23059 2.62562 0
M  V30 315 H 31.4919 -1.80278 3.54605 0
M  V30 316 H 28.2309 -1.10471 6.46124 0
M  V30 317 H 27.7509 -2.49132 5.45613 0
M  V30 318 H 29.4299 -2.34169 6.03137 0
M  V30 319 N 29.562 -1.4872 -0.521534 0
M  V30 320 C 30.509 -1.63871 -1.62527 0
M  V30 321 C 31.479 -0.480559 -1.58996 0
M  V30 322 O 32.664 -0.705085 -1.77294 0
M  V30 323 C 29.804 -1.69227 -3.00759 0
M  V30 324 C 28.917 -2.96207 -3.14461 0
M  V30 325 C 28.052 -2.92671 -4.43303 0
M  V30 326 C 27.091 -4.14318 -4.50563 0
M  V30 327 N 26.228 -4.0881 -5.70805 0
M  V30 328 H 31.068 -2.58123 -1.48918 0
M  V30 329 H 28.605 -1.28 -0.724878 0
M  V30 330 H 30.563 -1.70314 -3.80853 0
M  V30 331 H 29.193 -0.784586 -3.1312 0
M  V30 332 H 28.245 -3.04826 -2.27564 0
M  V30 333 H 29.557 -3.86192 -3.15686 0
M  V30 334 H 28.711 -2.92206 -5.31696 0
M  V30 335 H 27.45 -2.00429 -4.44612 0
M  V30 336 H 26.455 -4.15049 -3.60575 0
M  V30 337 H 27.68 -5.07729 -4.50986 0
M  V30 338 H 25.626 -3.19394 -5.72995 0
M  V30 339 H 25.543 -4.92509 -5.7356 0
M  V30 340 H 26.811 -4.12418 -6.61462 0
M  V30 341 N 31.0401 0.771051 -1.3745 0
M  V30 342 C 32.4511 1.34737 -1.29239 0
M  V30 343 C 32.8021 1.96109 0.0596908 0
M  V30 344 O 31.9271 1.93865 0.961534 0
M  V30 345 C 32.5221 2.44973 -2.34037 0
M  V30 346 C 31.0811 2.98372 -2.29458 0
M  V30 347 C 30.2281 1.71595 -2.17831 0
M  V30 348 H 33.1791 0.571256 -1.48062 0
M  V30 349 H 33.2001 3.24471 -1.98744 0
M  V30 350 H 32.7121 2.00276 -3.32432 0
M  V30 351 H 30.8131 3.47443 -1.34589 0
M  V30 352 H 30.9261 3.53939 -3.229 0
M  V30 353 H 29.2901 1.94547 -1.64388 0
M  V30 354 H 30.0731 1.29001 -3.18141 0
M  V30 355 N 32.5182 1.22032 0.997298 0
M  V30 356 C 33.7672 1.03637 1.73038 0
M  V30 357 C 34.0802 -0.429475 1.90827 0
M  V30 358 O 35.2862 -0.732995 2.61418 0
M  V30 359 C 33.7422 1.80582 3.11317 0
M  V30 360 C 33.3502 3.31387 3.01474 0
M  V30 361 C 35.0942 1.70621 3.88701 0
M  V30 362 C 33.0012 4.00791 4.3488 0
M  V30 363 H 31.9312 0.384179 0.648785 0
M  V30 364 H 34.5822 1.4584 1.11368 0
M  V30 365 H 32.9642 1.31175 3.73643 0
M  V30 366 H 34.1382 3.88155 2.4834 0
M  V30 367 H 32.4532 3.41976 2.37575 0
M  V30 368 H 35.0502 2.19799 4.87434 0
M  V30 369 H 35.3932 0.665823 4.10941 0
M  V30 370 H 35.9262 2.17547 3.33044 0
M  V30 371 H 32.6652 5.05064 4.1784 0
M  V30 372 H 32.1852 3.48811 4.87945 0
M  V30 373 H 33.8642 4.06139 5.03647 0
M  V30 374 N 33.9963 -1.19345 1.0293 0
M  V30 375 C 34.9263 -2.2481 0.631105 0
M  V30 376 C 35.9073 -1.66245 -0.360104 0
M  V30 377 O 37.0923 -1.92677 -0.242726 0
M  V30 378 C 34.2223 -3.47295 -0.0184607 0
M  V30 379 C 33.1763 -4.18536 0.895073 0
M  V30 380 C 32.5023 -5.34586 0.110592 0
M  V30 381 C 33.8023 -4.73287 2.209 0
M  V30 382 H 35.4963 -2.58372 1.51275 0
M  V30 383 H 33.0423 -1.24194 0.728818 0
M  V30 384 H 34.9953 -4.20268 -0.308675 0
M  V30 385 H 33.7193 -3.12933 -0.934907 0
M  V30 386 H 32.3783 -3.47446 1.16949 0
M  V30 387 H 32.0263 -4.96469 -0.807902 0
M  V30 388 H 31.7263 -5.83183 0.719087 0
M  V30 389 H 33.2503 -6.10355 -0.172871 0
M  V30 390 H 34.6643 -5.38013 1.98028 0
M  V30 391 H 33.0613 -5.32373 2.76946 0
M  V30 392 H 34.1313 -3.91331 2.86336 0
M  V30 393 N 35.4744 -0.807222 -1.35358 0
M  V30 394 C 36.3844 -0.219594 -2.3357 0
M  V30 395 C 37.4004 0.637734 -1.61892 0
M  V30 396 O 38.5764 0.549336 -1.93763 0
M  V30 397 C 35.6414 0.62158 -3.41083 0
M  V30 398 C 34.7024 -0.256315 -4.28534 0
M  V30 399 C 33.9354 0.544807 -5.30912 0
M  V30 400 O 34.1584 1.77944 -5.41934 0
M  V30 401 O 33.0924 -0.0646478 -6.01865 0
M  V30 402 H 36.9184 -1.03208 -2.85625 0
M  V30 403 H 34.5034 -0.569025 -1.38139 0
M  V30 404 H 36.3854 1.10067 -4.06772 0
M  V30 405 H 35.0604 1.41165 -2.91297 0
M  V30 406 H 33.9674 -0.782559 -3.65823 0
M  V30 407 H 35.3004 -1.01034 -4.81719 0
M  V30 408 N 36.9525 1.47285 -0.560781 0
M  V30 409 C 37.8995 2.30058 0.18491 0
M  V30 410 C 38.8695 1.39281 0.904986 0
M  V30 411 O 40.0545 1.68241 0.899979 0
M  V30 412 C 37.1945 3.23317 1.20666 0
M  V30 413 C 36.3075 4.29186 0.492285 0
M  V30 414 C 35.4425 5.09592 1.49964 0
M  V30 415 C 34.4815 6.07232 0.770439 0
M  V30 416 N 33.6185 6.80584 1.72479 0
M  V30 417 H 38.4585 2.93302 -0.527048 0
M  V30 418 H 35.9955 1.44568 -0.271738 0
M  V30 419 H 37.9535 3.75811 1.81168 0
M  V30 420 H 36.5835 2.61929 1.88661 0
M  V30 421 H 35.6355 3.7972 -0.227333 0
M  V30 422 H 36.9475 4.98738 -0.0787929 0
M  V30 423 H 36.1015 5.66254 2.17809 0
M  V30 424 H 34.8405 4.3995 2.10464 0
M  V30 425 H 33.8455 5.49745 0.0780846 0
M  V30 426 H 35.0705 6.78884 0.171134 0
M  V30 427 H 33.0165 6.1367 2.3183 0
M  V30 428 H 32.9335 7.46319 1.20596 0
M  V30 429 H 34.2015 7.41818 2.39428 0
M  V30 430 N 38.4306 0.297415 1.54768 0
M  V30 431 C 39.3606 -0.573494 2.26348 0
M  V30 432 C 40.3416 -1.14085 1.26169 0
M  V30 433 O 41.5266 -1.17086 1.54934 0
M  V30 434 C 38.6566 -1.74716 3.00153 0
M  V30 435 C 37.6106 -1.31032 4.07449 0
M  V30 436 C 36.9366 -2.56887 4.68949 0
M  V30 437 C 38.2366 -0.444183 5.20408 0
M  V30 438 H 39.9306 0.0235131 2.99391 0
M  V30 439 H 37.4766 0.0127488 1.43994 0
M  V30 440 H 39.4296 -2.3625 3.48947 0
M  V30 441 H 38.1536 -2.37035 2.24682 0
M  V30 442 H 36.8126 -0.718066 3.59499 0
M  V30 443 H 36.4606 -3.17512 3.90122 0
M  V30 444 H 36.1606 -2.2836 5.41411 0
M  V30 445 H 37.6846 -3.19229 5.20505 0
M  V30 446 H 39.0986 -0.9651 5.65118 0
M  V30 447 H 37.4956 -0.252846 5.99567 0
M  V30 448 H 38.5656 0.531609 4.81977 0
M  V30 449 N 39.9087 -1.5758 0.0250728 0
M  V30 450 C 40.8187 -2.1343 -0.973905 0
M  V30 451 C 41.8347 -1.08556 -1.35984 0
M  V30 452 O 43.0107 -1.40592 -1.44207 0
M  V30 453 C 40.0757 -2.64703 -2.23904 0
M  V30 454 C 39.1367 -3.84276 -1.91391 0
M  V30 455 C 38.3697 -4.33095 -3.11873 0
M  V30 456 O 38.5927 -3.81107 -4.24398 0
M  V30 457 O 37.5267 -5.24984 -2.94406 0
M  V30 458 H 41.3527 -2.99057 -0.529036 0
M  V30 459 H 38.9377 -1.48118 -0.195288 0
M  V30 460 H 40.8197 -2.97769 -2.98181 0
M  V30 461 H 39.4947 -1.82161 -2.6758 0
M  V30 462 H 38.4017 -3.56143 -1.14511 0
M  V30 463 H 39.7347 -4.67968 -1.52534 0
M  V30 464 N 41.3868 0.248026 -1.55636 0
M  V30 465 C 42.3348 1.32683 -1.91045 0
M  V30 466 C 43.3288 1.49883 -0.789401 0
M  V30 467 O 44.5348 1.51371 -0.974007 0
M  V30 468 H 40.9098 0.444272 -0.606734 0
M  V30 469 H 42.8808 1.00085 -2.81115 0
M  V30 470 C 41.6298 2.6755 -2.22064 0
M  V30 471 H 40.9528 2.55114 -3.07826 0
M  V30 472 H 42.3928 3.41912 -2.50743 0
M  V30 473 C 40.8518 3.20556 -1.0366 0
M  V30 474 O 41.3818 4.00695 -0.284016 0
M  V30 475 N 39.5878 2.78568 -0.82753 0
M  V30 476 H 39.1348 2.1351 -1.44123 0
M  V30 477 H 39.0928 3.14378 -0.0369803 0
M  V30 478 N 42.8649 1.48995 0.513639 0
M  V30 479 C 44.1109 1.58076 1.27042 0
M  V30 480 C 44.4439 0.261026 1.92438 0
M  V30 481 O 43.7189 -0.734393 1.80103 0
M  V30 482 C 44.0019 2.73091 2.34719 0
M  V30 483 C 43.8549 4.14821 1.73907 0
M  V30 484 C 45.1739 2.83796 3.36375 0
M  V30 485 H 42.2929 0.575391 0.460536 0
M  V30 486 H 44.9349 1.81232 0.570516 0
M  V30 487 H 43.0849 2.53479 2.94416 0
M  V30 488 H 44.7569 4.45917 1.18135 0
M  V30 489 H 42.9999 4.21058 1.0437 0
M  V30 490 H 43.6709 4.91147 2.51949 0
M  V30 491 H 46.1469 3.01611 2.86653 0
M  V30 492 H 45.0229 3.65971 4.09093 0
M  V30 493 H 45.2839 1.92624 3.9793 0
M  V30 494 N 44.343 -0.763751 1.37857 0
M  V30 495 C 45.253 -1.90817 1.36478 0
M  V30 496 C 46.269 -1.71997 0.263248 0
M  V30 497 O 47.445 -1.95095 0.499979 0
M  V30 498 C 44.51 -3.2605 1.17864 0
M  V30 499 C 43.571 -3.57467 2.3773 0
M  V30 500 C 42.804 -4.86249 2.19995 0
M  V30 501 O 43.027 -5.57884 1.18836 0
M  V30 502 O 41.961 -5.16911 3.08361 0
M  V30 503 H 45.787 -1.94933 2.32884 0
M  V30 504 H 43.372 -0.907619 1.1867 0
M  V30 505 H 45.254 -4.06924 1.09504 0
M  V30 506 H 43.929 -3.22769 0.245372 0
M  V30 507 H 42.836 -2.76796 2.51664 0
M  V30 508 H 44.169 -3.655 3.29652 0
M  V30 509 N 45.8211 -1.22559 -0.990812 0
M  V30 510 C 47.0671 -1.05297 -1.73322 0
M  V30 511 C 47.4001 0.410655 -1.89808 0
M  V30 512 O 46.6751 1.30439 -1.44277 0
M  V30 513 C 46.9581 -1.76713 -3.13759 0
M  V30 514 C 46.8111 -3.30684 -3.04907 0
M  V30 515 C 48.1301 -1.52121 -4.12974 0
M  V30 516 H 45.2491 -0.38392 -0.629106 0
M  V30 517 H 47.8911 -1.50926 -1.15418 0
M  V30 518 H 46.0411 -1.37924 -3.63193 0
M  V30 519 H 47.7131 -3.7893 -2.63077 0
M  V30 520 H 45.9561 -3.60253 -2.41661 0
M  V30 521 H 46.6271 -3.75833 -4.04294 0
M  V30 522 H 49.1031 -1.85819 -3.72304 0
M  V30 523 H 47.9791 -2.04582 -5.0935 0
M  V30 524 H 48.2401 -0.454257 -4.3976 0
M  V30 525 N 47.2992 1.18797 -1.03562 0
M  V30 526 C 48.5472 1.88278 -0.734569 0
M  V30 527 C 48.8682 1.8043 0.739586 0
M  V30 528 O 48.1382 1.21925 1.53333 0
M  V30 529 H 46.7182 0.696991 -0.268725 0
M  V30 530 H 49.3802 1.44192 -1.31129 0
M  V30 531 H 48.4762 2.94443 -1.03489 0
M  V30 532 N 48.7773 0.814389 1.34928 0
M  V30 533 C 49.6873 0.231978 2.3345 0
M  V30 534 C 50.7033 -0.629139 1.62228 0
M  V30 535 O 51.8793 -0.539052 1.94052 0
M  V30 536 C 48.9443 -0.603482 3.41407 0
M  V30 537 C 48.0053 0.279037 4.28392 0
M  V30 538 C 47.2383 -0.516643 5.31193 0
M  V30 539 O 47.4613 -1.75068 5.4287 0
M  V30 540 O 46.3953 0.0965652 6.01823 0
M  V30 541 H 50.2213 1.04721 2.85074 0
M  V30 542 H 47.8063 0.576343 1.37836 0
M  V30 543 H 49.6883 -1.07908 4.0735 0
M  V30 544 H 48.3633 -1.39618 2.92042 0
M  V30 545 H 47.2703 0.801948 3.65403 0
M  V30 546 H 48.6033 1.03588 4.81176 0
M  V30 547 N 50.2554 -1.46986 0.568584 0
M  V30 548 C 51.4854 -2.0653 0.0539173 0
M  V30 549 C 51.8934 -1.42004 -1.25026 0
M  V30 550 O 51.2364 -0.514541 -1.76347 0
M  V30 551 C 51.2984 -3.58938 -0.200854 0
M  V30 552 C 50.9624 -4.45572 1.01559 0
M  V30 553 C 51.9594 -4.82986 1.92407 0
M  V30 554 C 49.6444 -4.8692 1.23346 0
M  V30 555 C 51.6384 -5.60559 3.03402 0
M  V30 556 C 49.3254 -5.64255 2.34649 0
M  V30 557 C 50.3234 -6.00986 3.24507 0
M  V30 558 O 50.0114 -6.76761 4.33878 0
M  V30 559 H 49.7434 -0.674292 0.0480234 0
M  V30 560 H 52.2974 -1.89812 0.784896 0
M  V30 561 H 50.5274 -3.73911 -0.986279 0
M  V30 562 H 52.2164 -4.0046 -0.662294 0
M  V30 563 H 52.9824 -4.51633 1.76785 0
M  V30 564 H 48.8614 -4.57789 0.543178 0
M  V30 565 H 52.4054 -5.89147 3.73565 0
M  V30 566 H 48.3024 -5.95021 2.5024 0
M  V30 567 H 49.0704 -6.95168 4.32068 0
M  V30 568 N 51.7335 -0.305618 -1.54608 0
M  V30 569 C 52.9585 0.307562 -2.05107 0
M  V30 570 C 53.3835 1.46385 -1.18123 0
M  V30 571 O 52.7415 1.8034 -0.186324 0
M  V30 572 C 52.7895 0.73704 -3.52987 0
M  V30 573 O 51.8935 1.84134 -3.6901 0
M  V30 574 H 51.2345 0.0589143 -0.661381 0
M  V30 575 H 53.7645 -0.448807 -1.99617 0
M  V30 576 H 53.7745 1.02459 -3.94925 0
M  V30 577 H 52.4495 -0.108773 -4.15758 0
M  V30 578 H 51.0265 1.55398 -3.38978 0
M  V30 579 N 53.2116 1.57565 -0.0334293 0
M  V30 580 C 54.4416 1.95996 0.653398 0
M  V30 581 C 54.8496 0.908749 1.65947 0
M  V30 582 O 54.1926 -0.117471 1.83324 0
M  V30 583 C 54.2546 3.30589 1.41249 0
M  V30 584 C 53.9186 4.53503 0.564263 0
M  V30 585 C 54.9156 5.19647 -0.16225 0
M  V30 586 C 52.6006 4.99801 0.500398 0
M  V30 587 C 54.5946 6.30412 -0.941255 0
M  V30 588 C 52.2816 6.10448 -0.282308 0
M  V30 589 C 53.2796 6.75612 -1.00184 0
M  V30 590 O 52.9676 7.84134 -1.77171 0
M  V30 591 H 52.6996 0.65027 0.184728 0
M  V30 592 H 55.2536 2.05199 -0.0907841 0
M  V30 593 H 53.4836 3.17888 2.20191 0
M  V30 594 H 55.1726 3.53892 1.98784 0
M  V30 595 H 55.9386 4.84846 -0.12227 0
M  V30 596 H 51.8176 4.48883 1.05002 0
M  V30 597 H 55.3616 6.81208 -1.50339 0
M  V30 598 H 51.2586 6.44686 -0.323989 0
M  V30 599 H 52.0266 8.00822 -1.69194 0
M  V30 600 N 54.6897 -0.239769 1.55765 0
M  V30 601 C 55.9197 -0.982743 1.8173 0
M  V30 602 C 56.3277 -1.7917 0.607835 0
M  V30 603 O 55.6707 -1.78525 -0.432973 0
M  V30 604 C 55.7327 -1.96332 3.01155 0
M  V30 605 C 55.3967 -1.34062 4.36894 0
M  V30 606 C 56.3937 -0.739539 5.14613 0
M  V30 607 C 54.0787 -1.35784 4.83599 0
M  V30 608 C 56.0727 -0.163989 6.37189 0
M  V30 609 C 53.7597 -0.778441 6.06122 0
M  V30 610 C 54.7577 -0.182548 6.82756 0
M  V30 611 O 54.4457 0.387887 8.02964 0
M  V30 612 H 54.1777 -0.294481 0.608487 0
M  V30 613 H 56.7317 -0.26572 2.03674 0
M  V30 614 H 54.9617 -2.71884 2.74984 0
M  V30 615 H 56.6507 -2.57032 3.14149 0
M  V30 616 H 57.4167 -0.718687 4.79646 0
M  V30 617 H 53.2957 -1.81105 4.23936 0
M  V30 618 H 56.8397 0.301753 6.96947 0
M  V30 619 H 52.7367 -0.796645 6.40565 0
M  V30 620 H 53.5047 0.28044 8.18019 0
M  V30 621 N 56.1678 -1.49265 -0.50573 0
M  V30 622 C 57.4448 -1.49012 -1.26707 0
M  V30 623 C 57.8248 -0.215205 -2.1 0
M  V30 624 O 57.1728 0.802547 -2.13943 0
M  V30 625 C 57.3828 -2.7663 -2.12783 0
M  V30 626 C 58.7308 -3.25932 -2.72127 0
M  V30 627 O 59.7548 -2.77715 -2.23054 0
M  V30 628 O 58.6138 -4.09897 -3.61451 0
M  V30 629 H 55.7078 -0.596197 -0.57313 0
M  V30 630 H 58.2538 -1.61524 -0.52039 0
M  V30 631 H 57.0258 -3.60916 -1.5118 0
M  V30 632 H 56.6488 -2.66956 -2.94653 0
M  V30 633 N 57.6459 0.756429 -1.3826 0
M  V30 634 C 58.8709 1.55077 -1.37717 0
M  V30 635 C 59.2959 1.88073 0.03164 0
M  V30 636 O 58.6539 1.50364 1.01293 0
M  V30 637 C 58.7019 2.8283 -2.23695 0
M  V30 638 O 57.8059 3.77862 -1.6521 0
M  V30 639 H 57.1469 0.469152 -0.469885 0
M  V30 640 H 59.6769 0.935019 -1.81985 0
M  V30 641 H 59.6869 3.31783 -2.37453 0
M  V30 642 H 58.3619 2.58144 -3.2609 0
M  V30 643 H 56.9389 3.36555 -1.60578 0
M  V30 644 N 59.124 1.23083 0.984299 0
M  V30 645 C 60.071 1.00854 2.07598 0
M  V30 646 C 61.041 -0.0726709 1.65941 0
M  V30 647 O 62.226 0.0786535 1.90638 0
M  V30 648 C 59.366 0.601645 3.39815 0
M  V30 649 C 58.479 1.75456 3.94765 0
M  V30 650 C 57.614 1.29482 5.15177 0
M  V30 651 C 56.653 2.41873 5.62284 0
M  V30 652 N 55.79 1.96885 6.73929 0
M  V30 653 H 60.63 1.943 2.25946 0
M  V30 654 H 58.167 0.968001 1.10762 0
M  V30 655 H 60.125 0.346854 4.15756 0
M  V30 656 H 58.755 -0.295803 3.21442 0
M  V30 657 H 57.807 2.12346 3.15616 0
M  V30 658 H 59.119 2.59965 4.25699 0
M  V30 659 H 58.273 0.997923 5.98437 0
M  V30 660 H 57.012 0.420046 4.85888 0
M  V30 661 H 56.017 2.72342 4.77608 0
M  V30 662 H 57.242 3.29881 5.93595 0
M  V30 663 H 55.188 1.11782 6.46406 0
M  V30 664 H 55.105 2.74956 7.04227 0
M  V30 665 H 56.373 1.70289 7.60672 0
M  V30 666 N 60.6021 -1.18246 1.0419 0
M  V30 667 C 61.5501 -2.23968 0.627792 0
M  V30 668 C 62.5441 -1.65828 -0.346019 0
M  V30 669 O 63.7501 -1.78733 -0.213175 0
M  V30 670 H 60.1251 -0.728939 0.184802 0
M  V30 671 H 62.0961 -2.56202 1.52981 0
M  V30 672 C 60.8451 -3.47699 0.00796591 0
M  V30 673 H 60.1681 -3.92734 0.748347 0
M  V30 674 H 61.6081 -4.23294 -0.24455 0
M  V30 675 C 60.0671 -3.13153 -1.24246 0
M  V30 676 O 60.5971 -3.27003 -2.33307 0
M  V30 677 N 58.8031 -2.67467 -1.13622 0
M  V30 678 H 58.3501 -2.56396 -0.248734 0
M  V30 679 H 58.3081 -2.44724 -1.97377 0
M  V30 680 N 62.0802 -0.821533 -1.34494 0
M  V30 681 C 63.3282 -0.408139 -1.97936 0
M  V30 682 C 63.6492 1.03193 -1.65457 0
M  V30 683 O 62.9192 1.71622 -0.944595 0
M  V30 684 H 61.4992 -0.147928 -0.732206 0
M  V30 685 H 64.1612 -1.05067 -1.64155 0
M  V30 686 H 63.2572 -0.52601 -3.07635 0
M  V30 687 N 63.5583 1.46682 -0.576371 0
M  V30 688 C 64.4683 2.34032 0.163141 0
M  V30 689 C 65.4843 1.49367 0.892501 0
M  V30 690 O 66.6603 1.82252 0.857106 0
M  V30 691 C 63.7253 3.26435 1.16795 0
M  V30 692 C 62.7863 4.26998 0.443944 0
M  V30 693 C 62.0193 5.14986 1.40088 0
M  V30 694 O 62.2423 5.05785 2.637 0
M  V30 695 O 61.1763 5.94906 0.914917 0
M  V30 696 H 65.0023 2.98607 -0.55388 0
M  V30 697 H 62.5873 1.45554 -0.336821 0
M  V30 698 H 64.4693 3.83459 1.74748 0
M  V30 699 H 63.1443 2.64465 1.86655 0
M  V30 700 H 62.0513 3.7368 -0.177271 0
M  V30 701 H 63.3843 4.91736 -0.213566 0
M  V30 702 N 65.0364 0.313813 1.54444 0
M  V30 703 C 66.2644 -0.293918 2.04802 0
M  V30 704 C 66.6794 -1.46537 1.19047 0
M  V30 705 O 66.0364 -1.81182 0.218939 0
M  V30 706 C 66.0874 -0.737806 3.53891 0
M  V30 707 O 65.8084 0.387038 4.36387 0
M  V30 708 C 67.3094 -1.40936 4.203 0
M  V30 709 H 64.5294 -0.0620057 0.668129 0
M  V30 710 H 67.0734 0.457169 1.99324 0
M  V30 711 H 65.2284 -1.43889 3.59687 0
M  V30 712 H 65.6424 0.0391274 5.24485 0
M  V30 713 H 67.1164 -1.67099 5.26101 0
M  V30 714 H 67.5934 -2.35355 3.70816 0
M  V30 715 H 68.1994 -0.751117 4.18615 0
M  V30 716 N 66.5145 -1.57545 0.0417849 0
M  V30 717 C 67.7615 -1.92317 -0.634082 0
M  V30 718 C 68.0895 -0.919334 -1.71402 0
M  V30 719 O 67.3445 0.0698253 -1.95575 0
M  V30 720 C 67.6435 -3.33794 -1.27735 0
M  V30 721 C 67.3095 -4.49716 -0.326543 0
M  V30 722 C 65.9715 -4.81156 -0.0648814 0
M  V30 723 C 68.3235 -5.20182 0.325623 0
M  V30 724 C 65.6515 -5.80414 0.856539 0
M  V30 725 C 68.0035 -6.20424 1.23518 0
M  V30 726 C 66.6675 -6.50298 1.5056 0
M  V30 727 H 65.9375 -0.703736 -0.232027 0
M  V30 728 H 68.5845 -1.91205 0.106259 0
M  V30 729 H 66.8895 -3.31228 -2.09274 0
M  V30 730 H 68.5865 -3.57975 -1.80707 0
M  V30 731 H 65.1765 -4.25176 -0.540665 0
M  V30 732 H 69.3605 -4.96112 0.136546 0
M  V30 733 H 64.6165 -6.019 1.07363 0
M  V30 734 H 68.7905 -6.74141 1.74664 0
M  V30 735 H 66.4175 -7.27025 2.22123 0
M  V30 736 N 67.9926 0.231505 -1.5589 0
M  V30 737 C 69.2696 0.981096 -1.69215 0
M  V30 738 C 69.6496 2.02799 -0.586164 0
M  V30 739 O 68.9976 2.24823 0.408253 0
M  V30 740 C 69.2076 1.60054 -3.10135 0
M  V30 741 C 70.5556 2.09658 -3.69227 0
M  V30 742 O 71.5796 1.69967 -3.13033 0
M  V30 743 O 70.4386 2.8258 -4.67772 0
M  V30 744 H 67.5326 0.457653 -0.688827 0
M  V30 745 H 70.0786 0.224073 -1.68214 0
M  V30 746 H 68.8506 0.844105 -3.82087 0
M  V30 747 H 68.4736 2.42336 -3.15212 0
M  V30 748 N 69.4707 1.49531 0.497807 0
M  V30 749 C 70.4177 1.66436 1.59899 0
M  V30 750 C 71.3877 0.505793 1.58212 0
M  V30 751 O 72.5727 0.733202 1.7615 0
M  V30 752 C 69.7127 1.7399 2.98029 0
M  V30 753 C 68.8257 3.01172 3.09708 0
M  V30 754 C 67.9607 2.99686 4.38591 0
M  V30 755 C 66.9997 4.21434 4.43914 0
M  V30 756 N 66.1367 4.1784 5.64229 0
M  V30 757 H 70.9767 2.60459 1.44793 0
M  V30 758 H 68.5137 1.29137 0.704423 0
M  V30 759 H 70.4717 1.76352 3.78095 0
M  V30 760 H 69.1017 0.834301 3.11832 0
M  V30 761 H 68.1537 3.08408 2.22685 0
M  V30 762 H 69.4657 3.91165 3.09502 0
M  V30 763 H 68.6197 3.00628 5.2698 0
M  V30 764 H 67.3587 2.07477 4.41367 0
M  V30 765 H 66.3637 4.20733 3.53926 0
M  V30 766 H 67.5887 5.14839 4.42851 0
M  V30 767 H 65.5347 3.28469 5.67841 0
M  V30 768 H 65.4517 5.01571 5.65652 0
M  V30 769 H 66.7197 4.22889 6.54817 0
M  V30 770 N 70.9488 -0.749086 1.3866 0
M  V30 771 C 71.8808 -1.87273 1.32142 0
M  V30 772 C 72.8938 -1.61127 0.232787 0
M  V30 773 O 74.0828 -1.71623 0.49069 0
M  V30 774 C 71.1828 -3.23005 1.02571 0
M  V30 775 C 70.3558 -3.7662 2.22433 0
M  V30 776 C 69.4148 -4.90879 1.89537 0
M  V30 777 O 68.4408 -5.05276 2.62078 0
M  V30 778 N 69.6428 -5.74198 0.853031 0
M  V30 779 H 72.4078 -1.93373 2.28969 0
M  V30 780 H 69.9688 -0.929216 1.32579 0
M  V30 781 H 71.9608 -3.96992 0.786085 0
M  V30 782 H 70.5308 -3.12262 0.145249 0
M  V30 783 H 69.7508 -2.94147 2.62434 0
M  V30 784 H 71.0388 -4.09173 3.02415 0
M  V30 785 H 70.4368 -5.6514 0.25155 0
M  V30 786 H 68.9938 -6.48313 0.67329 0
M  V30 787 N 72.4269 -1.23603 -0.977757 0
M  V30 788 C 73.6759 -1.06377 -1.71368 0
M  V30 789 C 73.9889 0.399062 -1.91486 0
M  V30 790 O 75.1949 0.691312 -2.62551 0
M  V30 791 C 73.6509 -1.85512 -3.08404 0
M  V30 792 C 73.2589 -3.36141 -2.96164 0
M  V30 793 C 75.0029 -1.76783 -3.85938 0
M  V30 794 C 72.9099 -4.07659 -4.28449 0
M  V30 795 H 71.8399 -0.394452 -0.642591 0
M  V30 796 H 74.4909 -1.47594 -1.09034 0
M  V30 797 H 72.8729 -1.37103 -3.71509 0
M  V30 798 H 74.0469 -3.92056 -2.42133 0
M  V30 799 H 72.3619 -3.45712 -2.32104 0
M  V30 800 H 74.9589 -2.27526 -4.83876 0
M  V30 801 H 75.3019 -0.731116 -4.0983 0
M  V30 802 H 75.8349 -2.22818 -3.2954 0
M  V30 803 H 72.5739 -5.11648 -4.09752 0
M  V30 804 H 72.0939 -3.5653 -4.82334 0
M  V30 805 H 73.7729 -4.141 -4.97122 0
M  V30 806 N 73.905 1.17692 -1.04816 0
M  V30 807 C 74.835 2.23777 -0.666791 0
M  V30 808 C 75.816 1.66796 0.33361 0
M  V30 809 O 77.001 1.93039 0.212042 0
M  V30 810 C 74.131 3.47281 -0.0367933 0
M  V30 811 C 73.085 4.17059 -0.961546 0
M  V30 812 C 72.411 5.34342 -0.195626 0
M  V30 813 C 73.711 4.69713 -2.28402 0
M  V30 814 H 75.405 2.55933 -1.55367 0
M  V30 815 H 72.951 1.23019 -0.748484 0
M  V30 816 H 74.904 4.20706 0.241775 0
M  V30 817 H 73.628 3.14381 0.885004 0
M  V30 818 H 72.287 3.45541 -1.22462 0
M  V30 819 H 71.935 4.97692 0.728816 0
M  V30 820 H 71.635 5.81966 -0.811775 0
M  V30 821 H 73.159 6.10553 0.0757473 0
M  V30 822 H 74.573 5.34794 -2.06563 0
M  V30 823 H 72.97 5.279 -2.8538 0
M  V30 824 H 74.04 3.86726 -2.92525 0
M  V30 825 N 75.3831 0.828654 1.34056 0
M  V30 826 C 76.6131 0.431993 2.02033 0
M  V30 827 C 77.0211 -0.96844 1.62536 0
M  V30 828 O 76.3641 -1.6391 0.829408 0
M  V30 829 C 76.4261 0.461224 3.56529 0
M  V30 830 C 76.0901 1.81599 4.1937 0
M  V30 831 C 77.0871 2.7777 4.39477 0
M  V30 832 C 74.7721 2.10604 4.56017 0
M  V30 833 C 76.7661 4.01115 4.95364 0
M  V30 834 C 74.4531 3.34207 5.11614 0
M  V30 835 C 75.4511 4.2928 5.31232 0
M  V30 836 O 75.1391 5.50699 5.8565 0
M  V30 837 H 74.8711 0.170943 0.654029 0
M  V30 838 H 77.4251 1.11988 1.72185 0
M  V30 839 H 75.6551 -0.283388 3.8566 0
M  V30 840 H 77.3441 0.0838149 4.05813 0
M  V30 841 H 78.1101 2.56659 4.11523 0
M  V30 842 H 73.9891 1.37402 4.40047 0
M  V30 843 H 77.5331 4.75333 5.10592 0
M  V30 844 H 73.4301 3.55179 5.38997 0
M  V30 845 H 74.1981 5.52298 6.04077 0
M  V30 846 N 76.8612 -1.46375 0.584142 0
M  V30 847 C 77.8112 -2.27371 -0.169232 0
M  V30 848 C 78.7952 -1.35955 -0.860523 0
M  V30 849 O 79.9872 -1.60119 -0.754382 0
M  V30 850 C 77.1162 -3.22334 -1.18134 0
M  V30 851 C 76.2022 -4.21235 -0.492088 0
M  V30 852 N 76.5932 -5.03766 0.453129 0
M  V30 853 C 74.8912 -4.39773 -0.742652 0
M  V30 854 C 75.5922 -5.75366 0.85609 0
M  V30 855 N 74.5682 -5.43214 0.204926 0
M  V30 856 H 78.3702 -2.88572 0.557097 0
M  V30 857 H 75.8842 -1.57242 0.406042 0
M  V30 858 H 77.8812 -3.79071 -1.73525 0
M  V30 859 H 76.5412 -2.62693 -1.90847 0
M  V30 860 H 77.5522 -5.11227 0.828723 0
M  V30 861 H 74.2292 -3.91279 -1.45625 0
M  V30 862 H 75.6192 -6.5172 1.63434 0
M  V30 863 N 78.3393 -0.321999 -1.54275 0
M  V30 864 C 79.5693 0.282642 -2.04658 0
M  V30 865 C 79.9773 1.46453 -1.19784 0
M  V30 866 O 79.3203 1.82367 -0.220932 0
M  V30 867 C 79.3823 0.781857 -3.50895 0
M  V30 868 C 79.0463 -0.277517 -4.56157 0
M  V30 869 C 80.0433 -1.11307 -5.07845 0
M  V30 870 C 77.7283 -0.425256 -5.00497 0
M  V30 871 C 79.7223 -2.08211 -6.02434 0
M  V30 872 C 77.4093 -1.39771 -5.94901 0
M  V30 873 C 78.4073 -2.2246 -6.45756 0
M  V30 874 O 78.0953 -3.18054 -7.38307 0
M  V30 875 H 77.8273 0.0622636 -0.673126 0
M  V30 876 H 80.3813 -0.465792 -2.00049 0
M  V30 877 H 78.6113 1.58118 -3.52896 0
M  V30 878 H 80.3003 1.30467 -3.84361 0
M  V30 879 H 81.0663 -1.00991 -4.74369 0
M  V30 880 H 76.9453 0.20847 -4.60528 0
M  V30 881 H 80.4893 -2.72791 -6.42052 0
M  V30 882 H 76.3863 -1.50152 -6.27794 0
M  V30 883 H 77.1543 -3.13275 -7.56175 0
M  V30 884 N 79.8174 1.5752 -0.0501392 0
M  V30 885 C 81.2284 1.80271 0.485705 0
M  V30 886 C 81.5794 0.96228 1.70981 0
M  V30 887 O 80.7044 0.178578 2.15662 0
M  V30 888 C 81.2994 3.26957 0.887938 0
M  V30 889 C 79.8584 3.5063 1.36877 0
M  V30 890 C 79.0054 2.75165 0.343468 0
M  V30 891 H 81.9564 1.56281 -0.276028 0
M  V30 892 H 81.9774 3.37821 1.75093 0
M  V30 893 H 81.4894 3.881 -0.0031809 0
M  V30 894 H 79.5904 2.94766 2.27911 0
M  V30 895 H 79.7034 4.59343 1.36164 0
M  V30 896 H 78.0674 2.4127 0.816128 0
M  V30 897 H 78.8504 3.39034 -0.539548 0
M  V30 898 N 81.2955 -0.223234 1.56011 0
M  V30 899 C 82.5445 -0.945912 1.78144 0
M  V30 900 C 82.8575 -1.85567 0.618396 0
M  V30 901 O 84.0635 -2.61688 0.723318 0
M  V30 902 C 82.5195 -1.73216 3.15475 0
M  V30 903 C 82.1275 -0.868619 4.39499 0
M  V30 904 C 83.8715 -2.44615 3.46935 0
M  V30 905 C 81.7785 -1.65212 5.67855 0
M  V30 906 H 80.7085 -0.356929 0.664167 0
M  V30 907 H 83.3595 -0.199845 1.82409 0
M  V30 908 H 81.7415 -2.52107 3.05382 0
M  V30 909 H 82.9155 -0.120366 4.60643 0
M  V30 910 H 81.2305 -0.26683 4.15544 0
M  V30 911 H 83.8275 -3.03732 4.40058 0
M  V30 912 H 84.1705 -3.17417 2.69355 0
M  V30 913 H 84.7035 -1.72715 3.58349 0
M  V30 914 H 81.4425 -0.967407 6.48322 0
M  V30 915 H 80.9625 -2.37503 5.50774 0
M  V30 916 H 82.6415 -2.21322 6.07968 0
M  V30 917 N 82.7736 -1.49793 -0.48987 0
M  V30 918 C 83.7036 -1.70201 -1.59856 0
M  V30 919 C 84.6846 -0.55076 -1.60937 0
M  V30 920 O 85.8696 -0.787841 -1.77501 0
M  V30 921 C 82.9996 -1.77882 -2.98287 0
M  V30 922 C 81.9536 -2.92907 -3.12073 0
M  V30 923 C 81.2796 -2.85712 -4.51965 0
M  V30 924 C 82.5796 -4.3369 -2.91051 0
M  V30 925 H 84.2736 -2.63025 -1.43032 0
M  V30 926 H 81.8196 -1.26574 -0.686664 0
M  V30 927 H 83.7726 -1.90744 -3.75759 0
M  V30 928 H 82.4966 -0.816653 -3.16225 0
M  V30 929 H 81.1556 -2.79665 -2.37029 0
M  V30 930 H 80.8036 -1.8738 -4.66795 0
M  V30 931 H 80.5036 -3.62921 -4.62128 0
M  V30 932 H 82.0276 -3.00598 -5.31482 0
M  V30 933 H 83.4416 -4.47555 -3.58284 0
M  V30 934 H 81.8386 -5.12205 -3.12675 0
M  V30 935 H 82.9086 -4.47362 -1.87071 0
M  V30 936 N 84.2517 0.741722 -1.39055 0
M  V30 937 C 85.1997 1.87702 -1.3737 0
M  V30 938 C 86.1937 1.67427 -0.257812 0
M  V30 939 O 87.3997 1.7485 -0.427489 0
M  V30 940 H 83.7747 0.617757 -0.428812 0
M  V30 941 H 85.7457 1.86239 -2.33147 0
M  V30 942 C 84.4947 3.25315 -1.22741 0
M  V30 943 H 83.8177 3.41509 -2.07873 0
M  V30 944 H 85.2577 4.04964 -1.25618 0
M  V30 945 C 83.7167 3.36838 0.0647316 0
M  V30 946 O 84.2467 3.88073 1.03741 0
M  V30 947 N 82.4527 2.90329 0.125544 0
M  V30 948 H 81.9997 2.48823 -0.666682 0
M  V30 949 H 81.9577 2.98418 0.989639 0
M  V30 950 N 85.7298 1.2412 0.971189 0
M  V30 951 C 87.0068 0.986867 1.6888 0
M  V30 952 C 87.3868 -0.491857 2.0529 0
M  V30 953 O 86.7348 -1.46531 1.75331 0
M  V30 954 C 86.9448 1.9063 2.92338 0
M  V30 955 C 88.2928 2.17515 3.64654 0
M  V30 956 O 89.3168 1.88254 3.02388 0
M  V30 957 O 88.1758 2.6719 4.7673 0
M  V30 958 H 85.2698 0.372944 0.738134 0
M  V30 959 H 87.8158 1.35203 1.02559 0
M  V30 960 H 86.5878 2.90552 2.62097 0
M  V30 961 H 86.2108 1.54408 3.66393 0
M  V30 962 N 87.2079 -1.17134 1.05439 0
M  V30 963 C 88.1549 -2.21235 0.657539 0
M  V30 964 C 89.1249 -1.62551 -0.341543 0
M  V30 965 O 90.3099 -1.89379 -0.232393 0
M  V30 966 C 87.4499 -3.45076 0.0410575 0
M  V30 967 C 86.5629 -4.18042 1.08927 0
M  V30 968 C 85.6979 -5.29376 0.439848 0
M  V30 969 C 84.7369 -5.94132 1.4722 0
M  V30 970 N 83.8739 -6.96975 0.846756 0
M  V30 971 H 88.7139 -2.54534 1.54972 0
M  V30 972 H 86.2509 -1.25028 0.775006 0
M  V30 973 H 88.2089 -4.15862 -0.33383 0
M  V30 974 H 86.8389 -3.12353 -0.814568 0
M  V30 975 H 85.8909 -3.45945 1.58196 0
M  V30 976 H 87.2029 -4.62306 1.87282 0
M  V30 977 H 86.3569 -6.06699 0.0115125 0
M  V30 978 H 85.0959 -4.86251 -0.375656 0
M  V30 979 H 84.1009 -5.15538 1.91052 0
M  V30 980 H 85.3259 -6.39337 2.28965 0
M  V30 981 H 83.2719 -6.5598 0.0518075 0
M  V30 982 H 83.1889 -7.39565 1.5678 0
M  V30 983 H 84.4569 -7.78239 0.443277 0
M  V30 984 N 88.686 -0.835752 -1.33615 0
M  V30 985 C 89.616 -0.281739 -2.31794 0
M  V30 986 C 90.597 0.608833 -1.58831 0
M  V30 987 O 91.782 0.533035 -1.86741 0
M  V30 988 C 88.912 0.546612 -3.42971 0
M  V30 989 C 87.866 -0.247904 -4.27281 0
M  V30 990 C 87.192 0.704001 -5.30045 0
M  V30 991 C 88.492 -1.46324 -5.01385 0
M  V30 992 H 90.186 -1.10206 -2.78379 0
M  V30 993 H 87.732 -0.531388 -1.33837 0
M  V30 994 H 89.685 0.944467 -4.1068 0
M  V30 995 H 88.409 1.40011 -2.95067 0
M  V30 996 H 87.068 -0.627281 -3.61194 0
M  V30 997 H 86.716 1.55381 -4.78399 0
M  V30 998 H 86.416 0.176524 -5.87335 0
M  V30 999 H 87.94 1.09944 -6.0062 0
M  V30 1000 H 89.354 -1.13871 -5.61877 0
M  V30 1001 H 87.751 -1.92728 -5.6831 0
M  V30 1002 H 88.821 -2.23467 -4.30338 0
M  V30 1003 N 90.1641 1.46063 -0.591896 0
M  V30 1004 C 91.1111 2.30399 0.136069 0
M  V30 1005 C 92.0811 1.41169 0.875238 0
M  V30 1006 O 93.2661 1.70112 0.86409 0
M  V30 1007 C 90.4061 3.25804 1.13781 0
M  V30 1008 C 89.5191 4.30134 0.401137 0
M  V30 1009 C 88.6541 5.12659 1.39121 0
M  V30 1010 C 87.6931 6.0873 0.641462 0
M  V30 1011 N 86.8301 6.8409 1.58004 0
M  V30 1012 H 91.6701 2.92118 -0.589144 0
M  V30 1013 H 89.2071 1.43959 -0.302342 0
M  V30 1014 H 91.1651 3.79569 1.73156 0
M  V30 1015 H 89.7951 2.65872 1.83062 0
M  V30 1016 H 88.8471 3.79152 -0.307826 0
M  V30 1017 H 90.1591 4.98458 -0.184565 0
M  V30 1018 H 89.3131 5.70747 2.05749 0
M  V30 1019 H 88.0521 4.44316 2.01084 0
M  V30 1020 H 87.0571 5.49786 -0.0385419 0
M  V30 1021 H 88.2821 6.79095 0.0270945 0
M  V30 1022 H 86.2281 6.18449 2.18761 0
M  V30 1023 H 86.1451 7.48709 1.04738 0
M  V30 1024 H 87.4131 7.4673 2.23639 0
M  V30 1025 N 91.6422 0.330177 1.54103 0
M  V30 1026 C 92.8912 -0.271336 1.99867 0
M  V30 1027 C 93.2042 -1.52723 1.22209 0
M  V30 1028 O 94.4102 -2.20515 1.58383 0
M  V30 1029 C 92.8662 -0.534032 3.55916 0
M  V30 1030 C 92.4742 0.705193 4.42415 0
M  V30 1031 C 94.2182 -1.09514 4.1013 0
M  V30 1032 C 92.1252 0.414035 5.89949 0
M  V30 1033 H 91.0552 -0.105166 0.74663 0
M  V30 1034 H 93.7062 0.443429 1.78062 0
M  V30 1035 H 92.0882 -1.30915 3.73734 0
M  V30 1036 H 93.2622 1.4804 4.36372 0
M  V30 1037 H 91.5772 1.18698 3.99124 0
M  V30 1038 H 94.1742 -1.3277 5.17954 0
M  V30 1039 H 94.5172 -2.04656 3.62521 0
M  V30 1040 H 95.0502 -0.381038 3.95971 0
M  V30 1041 H 91.7892 1.33481 6.41766 0
M  V30 1042 H 91.3092 -0.323336 5.98928 0
M  V30 1043 H 92.9882 0.0263105 6.46995 0
M  V30 1044 N 93.1203 -1.57491 0.0584922 0
M  V30 1045 C 94.3683 -1.92597 -0.612436 0
M  V30 1046 C 94.6893 -0.938162 -1.70949 0
M  V30 1047 O 93.9593 0.0158301 -1.95894 0
M  V30 1048 H 92.5393 -0.710964 -0.229214 0
M  V30 1049 H 95.2013 -1.94571 0.113218 0
M  V30 1050 H 94.2973 -2.94038 -1.04633 0
M  V30 1051 N 94.5984 0.214957 -1.56127 0
M  V30 1052 C 95.5454 1.26642 -1.92952 0
M  V30 1053 C 96.5154 1.46244 -0.78753 0
M  V30 1054 O 97.7004 1.59704 -1.04399 0
M  V30 1055 C 94.8404 2.6104 -2.25726 0
M  V30 1056 C 93.9534 2.49183 -3.52891 0
M  V30 1057 C 93.0884 3.76149 -3.7508 0
M  V30 1058 C 92.1274 3.59041 -4.95738 0
M  V30 1059 N 91.2644 4.77972 -5.14283 0
M  V30 1060 H 96.1044 0.945384 -2.82607 0
M  V30 1061 H 93.6414 0.455489 -1.3987 0
M  V30 1062 H 95.5994 3.39313 -2.42739 0
M  V30 1063 H 94.2294 2.91227 -1.39236 0
M  V30 1064 H 93.2814 1.6231 -3.44034 0
M  V30 1065 H 94.5934 2.32466 -4.41318 0
M  V30 1066 H 93.7474 4.62865 -3.92226 0
M  V30 1067 H 92.4864 3.95799 -2.84947 0
M  V30 1068 H 91.4914 2.7071 -4.78535 0
M  V30 1069 H 92.7164 3.40856 -5.87362 0
M  V30 1070 H 90.6624 4.97923 -4.27093 0
M  V30 1071 H 90.5794 4.64006 -5.96853 0
M  V30 1072 H 91.8474 5.66096 -5.35869 0
M  V30 1073 N 96.0765 1.50051 0.48192 0
M  V30 1074 C 97.3235 1.60498 1.23477 0
M  V30 1075 C 97.6515 0.300331 1.92167 0
M  V30 1076 O 96.9065 -0.713094 1.82246 0
M  V30 1077 C 97.2055 2.72717 2.30998 0
M  V30 1078 C 96.8715 4.13572 1.79636 0
M  V30 1079 C 95.5335 4.519 1.65348 0
M  V30 1080 C 97.8855 5.01649 1.41412 0
M  V30 1081 C 95.2135 5.76057 1.11244 0
M  V30 1082 C 97.5655 6.26343 0.887538 0
M  V30 1083 C 96.2295 6.63483 0.731207 0
M  V30 1084 H 95.4995 0.587303 0.451836 0
M  V30 1085 H 98.1465 1.83948 0.532468 0
M  V30 1086 H 96.4515 2.43312 3.07094 0
M  V30 1087 H 98.1485 2.78006 2.88988 0
M  V30 1088 H 94.7385 3.83329 1.91721 0
M  V30 1089 H 98.9225 4.72679 1.51289 0
M  V30 1090 H 94.1785 6.03516 0.978686 0
M  V30 1091 H 98.3525 6.93958 0.582654 0
M  V30 1092 H 95.9795 7.59568 0.309806 0
M  V30 1093 N 97.5546 -0.734337 1.39446 0
M  V30 1094 C 98.7946 -1.50655 1.38139 0
M  V30 1095 C 99.1586 -1.91986 -0.0228701 0
M  V30 1096 O 100.36 -2.68318 -0.160947 0
M  V30 1097 C 98.6306 -2.71251 2.32718 0
M  V30 1098 S 100.19 -3.60892 2.49605 0
M  V30 1099 H 97.0076 -0.515315 0.489869 0
M  V30 1100 H 99.6096 -0.860392 1.75549 0
M  V30 1101 H 98.3136 -2.39027 3.33608 0
M  V30 1102 H 97.8446 -3.40795 1.96526 0
M  V30 1103 H 99.8596 -4.64899 1.73446 0
M  V30 1104 N 99.0327 -1.24633 -0.964593 0
M  V30 1105 C 100.258 -1.11596 -1.74818 0
M  V30 1106 C 100.683 0.32723 -1.85232 0
M  V30 1107 O 100.041 1.23695 -1.32549 0
M  V30 1108 C 100.089 -1.76397 -3.1451 0
M  V30 1109 O 99.1927 -1.03685 -3.99153 0
M  V30 1110 H 98.5337 -0.390196 -0.537255 0
M  V30 1111 H 101.064 -1.65002 -1.20977 0
M  V30 1112 H 101.074 -1.8228 -3.65018 0
M  V30 1113 H 99.7487 -2.81401 -3.06246 0
M  V30 1114 H 98.3257 -1.05611 -3.57632 0
M  V30 1115 N 100.511 1.16574 -1.06058 0
M  V30 1116 C 101.76 1.86385 -0.770944 0
M  V30 1117 C 102.073 1.82448 0.705129 0
M  V30 1118 O 103.279 2.47815 1.10905 0
M  V30 1119 C 101.735 3.34466 -1.32893 0
M  V30 1120 C 101.343 3.46883 -2.83507 0
M  V30 1121 C 103.087 4.09548 -1.11672 0
M  V30 1122 C 100.994 4.89036 -3.32562 0
M  V30 1123 H 99.9238 0.698181 -0.284709 0
M  V30 1124 H 102.575 1.31583 -1.27899 0
M  V30 1125 H 100.957 3.88859 -0.748662 0
M  V30 1126 H 102.131 3.02663 -3.47465 0
M  V30 1127 H 100.446 2.85232 -3.03368 0
M  V30 1128 H 103.043 5.14434 -1.45814 0
M  V30 1129 H 103.386 4.16264 -0.0549535 0
M  V30 1130 H 103.919 3.61387 -1.66265 0
M  V30 1131 H 100.658 4.87499 -4.38207 0
M  V30 1132 H 100.178 5.3389 -2.73351 0
M  V30 1133 H 101.857 5.57843 -3.2775 0
M  V30 1134 N 101.989 0.842826 1.3317 0
M  V30 1135 C 103.237 0.439577 1.97262 0
M  V30 1136 C 103.558 -1.00548 1.67078 0
M  V30 1137 O 102.828 -1.70098 0.971779 0
M  V30 1138 H 101.408 0.159558 0.72976 0
M  V30 1139 H 104.07 1.07665 1.62463 0
M  V30 1140 H 103.166 0.574886 3.0676 0
M  V30 1141 N 103.467 -1.45747 0.599634 0
M  V30 1142 C 104.878 -1.85853 0.177681 0
M  V30 1143 C 105.229 -1.50102 -1.26348 0
M  V30 1144 O 104.354 -0.923905 -1.95686 0
M  V30 1145 C 104.949 -3.37326 0.315688 0
M  V30 1146 C 103.508 -3.76365 -0.0515144 0
M  V30 1147 C 102.655 -2.69722 0.643822 0
M  V30 1148 H 105.606 -1.36661 0.806814 0
M  V30 1149 H 105.627 -3.77778 -0.454321 0
M  V30 1150 H 105.139 -3.63315 1.36468 0
M  V30 1151 H 103.24 -3.55993 -1.09999 0
M  V30 1152 H 103.353 -4.77916 0.336594 0
M  V30 1153 H 101.717 -2.54567 0.0822881 0
M  V30 1154 H 102.5 -2.98549 1.6948 0
M  V30 1155 N 104.945 -0.338344 -1.53925 0
M  V30 1156 C 106.193 0.259245 -2.0043 0
M  V30 1157 C 106.514 1.51484 -1.22791 0
M  V30 1158 O 105.784 1.93037 -0.33368 0
M  V30 1159 H 104.364 0.0987845 -0.740439 0
M  V30 1160 H 107.026 -0.458302 -1.89435 0
M  V30 1161 H 106.122 0.505334 -3.07982 0
M  V30 1162 N 106.423 1.57458 -0.0668435 0
M  V30 1163 C 107.669 1.93587 0.6043 0
M  V30 1164 C 108.002 0.946722 1.69561 0
M  V30 1165 O 107.277 -0.0248516 1.94484 0
M  V30 1166 C 107.56 3.40014 1.18585 0
M  V30 1167 C 107.413 4.49685 0.101529 0
M  V30 1168 C 108.732 3.87154 2.09284 0
M  V30 1169 H 105.851 0.703958 0.218202 0
M  V30 1170 H 108.493 1.89542 -0.131804 0
M  V30 1171 H 106.643 3.43592 1.81319 0
M  V30 1172 H 108.315 4.5823 -0.531279 0
M  V30 1173 H 106.558 4.30059 -0.568487 0
M  V30 1174 H 107.229 5.49266 0.54874 0
M  V30 1175 H 109.705 3.85551 1.56491 0
M  V30 1176 H 108.581 4.90231 2.46911 0
M  V30 1177 H 108.842 3.2481 2.99918 0
M  V30 1178 N 107.901 -0.206675 1.56239 0
M  V30 1179 C 109.129 -0.945345 1.8404 0
M  V30 1180 C 109.544 -1.77336 0.647885 0
M  V30 1181 O 108.901 -1.78425 -0.383511 0
M  V30 1182 C 108.952 -1.8509 3.10522 0
M  V30 1183 O 108.673 -1.05634 4.25174 0
M  V30 1184 C 110.174 -2.70222 3.51418 0
M  V30 1185 H 107.394 -0.276372 0.61144 0
M  V30 1186 H 109.938 -0.217417 2.03341 0
M  V30 1187 H 108.093 -2.53259 2.93153 0
M  V30 1188 H 108.507 -1.67238 4.97124 0
M  V30 1189 H 109.981 -3.29438 4.42916 0
M  V30 1190 H 110.458 -3.43358 2.73864 0
M  V30 1191 H 111.064 -2.07443 3.71278 0
M  V30 1192 N 109.379 -1.50304 -0.473955 0
M  V30 1193 C 110.628 -1.60392 -1.22301 0
M  V30 1194 C 110.941 -0.308411 -1.93153 0
M  V30 1195 O 112.147 -0.288156 -2.69966 0
M  V30 1196 C 110.603 -2.83109 -2.2221 0
M  V30 1197 C 110.211 -4.19524 -1.57173 0
M  V30 1198 C 111.955 -3.0254 -2.97775 0
M  V30 1199 C 109.862 -5.33431 -2.55353 0
M  V30 1200 H 108.792 -0.597286 -0.460179 0
M  V30 1201 H 111.443 -1.76731 -0.493803 0
M  V30 1202 H 109.825 -2.60322 -2.9841 0
M  V30 1203 H 110.999 -4.52554 -0.867824 0
M  V30 1204 H 109.314 -4.05674 -0.939002 0
M  V30 1205 H 111.911 -3.84811 -3.71248 0
M  V30 1206 H 112.254 -2.14154 -3.56992 0
M  V30 1207 H 112.787 -3.25494 -2.28688 0
M  V30 1208 H 109.526 -6.23962 -2.00878 0
M  V30 1209 H 109.046 -5.04823 -3.23904 0
M  V30 1210 H 110.725 -5.63887 -3.17239 0
M  V30 1211 N 110.857 0.726932 -1.39834 0
M  V30 1212 C 112.106 1.48214 -1.36805 0
M  V30 1213 C 112.419 1.95576 0.0305291 0
M  V30 1214 O 113.625 2.7088 0.183417 0
M  V30 1215 C 112.081 2.67854 -2.40379 0
M  V30 1216 C 111.689 2.27408 -3.85992 0
M  V30 1217 C 113.433 3.45641 -2.46439 0
M  V30 1218 C 111.34 3.43819 -4.81189 0
M  V30 1219 H 110.27 0.556606 -0.508631 0
M  V30 1220 H 112.921 0.792216 -1.65518 0
M  V30 1221 H 111.303 3.3896 -2.04749 0
M  V30 1222 H 112.477 1.63795 -4.30706 0
M  V30 1223 H 110.792 1.62692 -3.83302 0
M  V30 1224 H 113.389 4.32244 -3.14753 0
M  V30 1225 H 113.732 3.88669 -1.49139 0
M  V30 1226 H 114.265 2.8157 -2.81004 0
M  V30 1227 H 111.004 3.05834 -5.79781 0
M  V30 1228 H 110.524 4.06385 -4.41148 0
M  V30 1229 H 112.203 4.10043 -5.00474 0
M  V30 1230 N 112.336 1.25143 0.95797 0
M  V30 1231 C 113.269 0.995565 2.05338 0
M  V30 1232 C 114.247 -0.0740423 1.62431 0
M  V30 1233 O 115.431 0.0649212 1.88388 0
M  V30 1234 C 112.558 0.504298 3.34925 0
M  V30 1235 C 111.604 1.56393 3.96792 0
M  V30 1236 S 112.437 3.14815 4.33188 0
M  V30 1237 C 113.593 2.67415 5.65898 0
M  V30 1238 H 113.826 1.92309 2.26726 0
M  V30 1239 H 111.359 1.08635 1.09716 0
M  V30 1240 H 113.317 0.227497 4.09869 0
M  V30 1241 H 111.978 -0.402671 3.11508 0
M  V30 1242 H 111.171 1.17082 4.90212 0
M  V30 1243 H 110.773 1.79124 3.28315 0
M  V30 1244 H 113.065 2.10833 6.4386 0
M  V30 1245 H 114.008 3.59463 6.10076 0
M  V30 1246 H 114.416 2.07521 5.24972 0
M  V30 1247 N 113.814 -1.1601 1.06675 0
M  V30 1248 C 114.762 -2.22586 0.675157 0
M  V30 1249 C 115.756 -1.66525 -0.310766 0
M  V30 1250 O 116.962 -1.79145 -0.175215 0
M  V30 1251 H 113.337 -0.724855 0.200223 0
M  V30 1252 H 115.308 -2.52899 1.58381 0
M  V30 1253 C 114.057 -3.47604 0.0817162 0
M  V30 1254 H 113.38 -3.91058 0.831484 0
M  V30 1255 H 114.82 -4.23718 -0.154708 0
M  V30 1256 C 113.279 -3.15718 -1.17576 0
M  V30 1257 O 113.809 -3.31878 -2.26318 0
M  V30 1258 N 112.015 -2.69816 -1.07923 0
M  V30 1259 H 111.562 -2.56866 -0.194293 0
M  V30 1260 H 111.52 -2.48855 -1.92141 0
M  V30 1261 N 115.292 -0.849877 -1.32721 0
M  V30 1262 C 116.54 -0.450032 -1.97026 0
M  V30 1263 C 116.861 0.996604 -1.67609 0
M  V30 1264 O 116.131 1.6958 -0.980786 0
M  V30 1265 H 114.711 -0.163426 -0.728904 0
M  V30 1266 H 117.373 -1.08526 -1.6189 0
M  V30 1267 H 116.469 -0.591146 -3.0645 0
M  V30 1268 N 116.77 1.45427 -0.607355 0
M  V30 1269 C 117.733 2.28974 0.101693 0
M  V30 1270 C 118.733 1.39754 0.795329 0
M  V30 1271 O 119.923 1.61878 0.643527 0
M  V30 1272 C 117.055 3.20768 1.15414 0
M  V30 1273 H 118.248 2.93147 -0.632844 0
M  V30 1274 H 115.801 1.51945 -0.366391 0
M  V30 1275 H 116.536 2.61395 1.91945 0
M  V30 1276 H 116.321 3.86489 0.66098 0
M  V30 1277 H 117.811 3.83589 1.65073 0
M  V30 1278 N 118.248 0.346503 1.53744 0
M  V30 1279 C 119.196 -0.52422 2.26616 0
M  V30 1280 C 120.19 -1.09948 1.28871 0
M  V30 1281 O 121.396 -1.04488 1.46568 0
M  V30 1282 H 117.771 -0.187743 0.728187 0
M  V30 1283 H 119.742 0.11239 2.98188 0
M  V30 1284 C 118.491 -1.66186 3.05414 0
M  V30 1285 H 117.814 -1.22848 3.80458 0
M  V30 1286 H 119.254 -2.24622 3.59612 0
M  V30 1287 C 117.713 -2.59302 2.1509 0
M  V30 1288 O 118.243 -3.61628 1.74895 0
M  V30 1289 N 116.449 -2.28055 1.8011 0
M  V30 1290 H 115.996 -1.44883 2.12994 0
M  V30 1291 H 115.954 -2.90615 1.19958 0
M  V30 1292 N 119.726 -1.57421 0.075193 0
M  V30 1293 C 120.676 -2.09441 -0.901025 0
M  V30 1294 C 121.66 -1.00486 -1.25663 0
M  V30 1295 O 122.852 -1.2679 -1.23504 0
M  V30 1296 C 119.981 -2.66233 -2.16737 0
M  V30 1297 C 119.067 -3.82198 -1.83808 0
M  V30 1298 N 119.458 -4.91028 -1.21345 0
M  V30 1299 C 117.756 -3.91558 -2.13538 0
M  V30 1300 C 118.457 -5.71852 -1.06585 0
M  V30 1301 N 117.433 -5.20233 -1.57667 0
M  V30 1302 H 121.235 -2.90972 -0.413815 0
M  V30 1303 H 118.749 -1.6189 -0.128601 0
M  V30 1304 H 120.746 -3.01819 -2.87595 0
M  V30 1305 H 119.406 -1.8615 -2.66042 0
M  V30 1306 H 120.417 -5.10323 -0.88268 0
M  V30 1307 H 117.094 -3.22454 -2.65197 0
M  V30 1308 H 118.484 -6.69401 -0.578933 0
M  V30 1309 N 121.204 0.198386 -1.56346 0
M  V30 1310 C 122.62 0.549085 -1.49857 0
M  V30 1311 C 122.82 1.86016 -0.774611 0
M  V30 1312 O 121.876 2.50416 -0.323776 0
M  V30 1313 C 123.189 0.606868 -2.94512 0
M  V30 1314 C 124.737 0.695925 -3.05165 0
M  V30 1315 C 125.212 0.784848 -4.51225 0
M  V30 1316 N 126.703 0.848463 -4.55363 0
M  V30 1317 C 127.438 0.937378 -5.65686 0
M  V30 1318 N 126.934 0.9888 -6.85707 0
M  V30 1319 N 128.727 0.974312 -5.53592 0
M  V30 1320 H 120.878 -0.661655 -2.01831 0
M  V30 1321 H 123.141 -0.235261 -0.918344 0
M  V30 1322 H 122.847 -0.28732 -3.50524 0
M  V30 1323 H 122.721 1.46268 -3.47686 0
M  V30 1324 H 125.108 1.58055 -2.49204 0
M  V30 1325 H 125.189 -0.186022 -2.55123 0
M  V30 1326 H 124.833 -0.0954072 -5.0781 0
M  V30 1327 H 124.763 1.68255 -4.98997 0
M  V30 1328 H 127.254 0.818103 -3.68938 0
M  V30 1329 H 127.567 1.05707 -7.65536 0
M  V30 1330 H 125.912 0.957534 -6.88372 0
M  V30 1331 H 129.103 0.930954 -4.58749 0
M  V30 1332 H 129.276 1.04015 -6.39597 0
M  V30 1333 N 122.682 1.50554 0.465978 0
M  V30 1334 C 123.615 1.64436 1.58227 0
M  V30 1335 C 124.593 0.492367 1.54966 0
M  V30 1336 O 125.777 0.712536 1.74514 0
M  V30 1337 C 122.904 1.63165 2.96808 0
M  V30 1338 C 121.95 2.83987 3.18204 0
M  V30 1339 S 122.783 4.45219 2.97557 0
M  V30 1340 C 123.939 4.46649 4.3847 0
M  V30 1341 H 124.172 2.58861 1.46213 0
M  V30 1342 H 121.705 1.3988 0.653678 0
M  V30 1343 H 123.663 1.63116 3.76701 0
M  V30 1344 H 122.324 0.69967 3.06208 0
M  V30 1345 H 121.517 2.79416 4.19455 0
M  V30 1346 H 121.119 2.81629 2.46092 0
M  V30 1347 H 123.411 4.20526 5.31191 0
M  V30 1348 H 124.354 5.48295 4.48082 0
M  V30 1349 H 124.762 3.76296 4.20787 0
M  V30 1350 N 124.16 -0.719506 1.40217 0
M  V30 1351 C 125.437 -1.47221 1.28784 0
M  V30 1352 C 125.817 -2.10883 -0.0956067 0
M  V30 1353 O 125.165 -1.99833 -1.10811 0
M  V30 1354 C 125.375 -2.5111 2.42373 0
M  V30 1355 C 126.723 -3.17053 2.82423 0
M  V30 1356 O 127.747 -2.61429 2.41937 0
M  V30 1357 O 126.606 -4.17742 3.52355 0
M  V30 1358 H 123.7 -0.654491 0.50554 0
M  V30 1359 H 126.246 -0.752014 1.52128 0
M  V30 1360 H 125.018 -2.02556 3.34793 0
M  V30 1361 H 124.641 -3.3067 2.20778 0
M  V30 1362 N 125.638 -1.25649 -0.95132 0
M  V30 1363 C 126.886 -1.10375 -1.69298 0
M  V30 1364 C 127.207 0.355339 -1.91735 0
M  V30 1365 O 126.477 1.25188 -1.50681 0
M  V30 1366 H 125.057 -0.405461 -0.627384 0
M  V30 1367 H 127.719 -1.57823 -1.14358 0
M  V30 1368 H 126.815 -1.61465 -2.67087 0
M  V30 1369 N 127.117 1.15442 -1.07289 0
M  V30 1370 C 128.342 1.90638 -0.816828 0
M  V30 1371 C 128.767 1.77445 0.624083 0
M  V30 1372 O 128.125 1.10671 1.43602 0
M  V30 1373 C 128.173 3.39008 -1.22906 0
M  V30 1374 O 127.277 4.10701 -0.373975 0
M  V30 1375 H 126.618 0.593555 -0.297638 0
M  V30 1376 H 129.148 1.46198 -1.43134 0
M  V30 1377 H 129.158 3.89801 -1.20497 0
M  V30 1378 H 127.833 3.47929 -2.27856 0
M  V30 1379 H 126.41 3.70046 -0.460499 0
M  V30 1380 N 128.595 0.856903 1.32268 0
M  V30 1381 C 129.823 0.475439 2.01363 0
M  V30 1382 C 130.238 -0.928486 1.64392 0
M  V30 1383 O 129.595 -1.60624 0.866387 0
M  V30 1384 C 129.646 0.607545 3.56358 0
M  V30 1385 O 129.367 1.95617 3.92002 0
M  V30 1386 C 130.868 0.225382 4.42727 0
M  V30 1387 H 128.088 0.186636 0.644521 0
M  V30 1388 H 130.632 1.15446 1.68797 0
M  V30 1389 H 128.787 -0.0237719 3.87393 0
M  V30 1390 H 129.201 1.95455 4.86721 0
M  V30 1391 H 130.675 0.368813 5.50767 0
M  V30 1392 H 131.152 -0.834369 4.31202 0
M  V30 1393 H 131.758 0.831864 4.17085 0
M  V30 1394 N 130.073 -1.45103 0.615059 0
M  V30 1395 C 131.303 -2.06254 0.119596 0
M  V30 1396 C 131.711 -1.4591 -1.20445 0
M  V30 1397 O 131.054 -0.570384 -1.7462 0
M  V30 1398 C 131.116 -3.59396 -0.0865591 0
M  V30 1399 C 130.78 -4.42116 1.15683 0
M  V30 1400 C 131.777 -4.7662 2.07676 0
M  V30 1401 C 129.462 -4.82749 1.38775 0
M  V30 1402 C 131.456 -5.50622 3.21082 0
M  V30 1403 C 129.143 -5.56504 2.52481 0
M  V30 1404 C 130.141 -5.90358 3.43463 0
M  V30 1405 O 129.829 -6.62615 4.55189 0
M  V30 1406 H 129.561 -0.672423 0.0694512 0
M  V30 1407 H 132.115 -1.87219 0.844885 0
M  V30 1408 H 130.345 -3.76859 -0.866823 0
M  V30 1409 H 132.034 -4.02365 -0.534555 0
M  V30 1410 H 132.8 -4.4578 1.91063 0
M  V30 1411 H 128.679 -4.55829 0.688545 0
M  V30 1412 H 132.223 -5.76965 3.92119 0
M  V30 1413 H 128.12 -5.86759 2.69043 0
M  V30 1414 H 128.888 -6.81071 4.53966 0
M  V30 1415 N 131.551 -0.354651 -1.53558 0
M  V30 1416 C 132.962 0.126902 -1.86268 0
M  V30 1417 C 133.313 1.49075 -1.27558 0
M  V30 1418 O 132.438 2.08105 -0.5934 0
M  V30 1419 C 133.033 0.237046 -3.3797 0
M  V30 1420 C 131.592 0.662842 -3.70518 0
M  V30 1421 C 130.739 -0.196652 -2.76602 0
M  V30 1422 H 133.69 -0.573849 -1.47962 0
M  V30 1423 H 133.711 1.06259 -3.65362 0
M  V30 1424 H 133.223 -0.755725 -3.80671 0
M  V30 1425 H 131.324 1.66424 -3.33367 0
M  V30 1426 H 131.437 0.445034 -4.77029 0
M  V30 1427 H 129.801 0.332763 -2.52517 0
M  V30 1428 H 130.584 -1.18676 -3.22135 0
M  V30 1429 N 133.029 1.57378 -0.0835403 0
M  V30 1430 C 134.276 1.9393 0.58287 0
M  V30 1431 C 134.604 0.964455 1.68904 0
M  V30 1432 O 133.859 -0.0179474 1.95692 0
M  V30 1433 C 134.158 3.37063 1.1884 0
M  V30 1434 C 133.824 4.50424 0.207194 0
M  V30 1435 C 132.486 4.81159 -0.0627115 0
M  V30 1436 C 134.838 5.19136 -0.463426 0
M  V30 1437 C 132.166 5.77939 -1.01012 0
M  V30 1438 C 134.518 6.16931 -1.39924 0
M  V30 1439 C 133.182 6.46078 -1.67749 0
M  V30 1440 H 132.452 0.70964 0.213287 0
M  V30 1441 H 135.099 1.90856 -0.156916 0
M  V30 1442 H 133.404 3.3666 2.00418 0
M  V30 1443 H 135.101 3.6264 1.71153 0
M  V30 1444 H 131.691 4.2646 0.427747 0
M  V30 1445 H 135.875 4.95576 -0.268034 0
M  V30 1446 H 131.131 5.98842 -1.23283 0
M  V30 1447 H 135.305 6.69273 -1.92476 0
M  V30 1448 H 132.932 7.2088 -2.41321 0
M  V30 1449 N 134.507 -0.190092 1.56449 0
M  V30 1450 C 135.455 -1.25501 1.95837 0
M  V30 1451 C 136.449 -1.4685 0.844485 0
M  V30 1452 O 137.655 -1.47651 1.02952 0
M  V30 1453 H 134.03 -0.421447 0.622805 0
M  V30 1454 H 136.001 -0.895821 2.84636 0
M  V30 1455 C 134.75 -2.59124 2.31841 0
M  V30 1456 H 134.073 -2.43514 3.17082 0
M  V30 1457 H 135.513 -3.32371 2.6326 0
M  V30 1458 C 133.972 -3.16488 1.15486 0
M  V30 1459 O 134.502 -3.99365 0.432535 0
M  V30 1460 N 132.708 -2.75305 0.930349 0
M  V30 1461 H 132.255 -2.08013 1.51948 0
M  V30 1462 H 132.213 -3.14024 0.153634 0
M  V30 1463 N 135.985 -1.50799 -0.457987 0
M  V30 1464 C 136.915 -1.73553 -1.5621 0
M  V30 1465 C 137.896 -0.584774 -1.59732 0
M  V30 1466 O 139.081 -0.825314 -1.7579 0
M  V30 1467 C 136.211 -1.84169 -2.94447 0
M  V30 1468 C 135.165 -2.99461 -3.0579 0
M  V30 1469 C 134.491 -2.95235 -4.45803 0
M  V30 1470 C 135.791 -4.39766 -2.81786 0
M  V30 1471 H 137.485 -2.66 -1.37421 0
M  V30 1472 H 135.031 -1.28002 -0.659662 0
M  V30 1473 H 136.984 -1.98672 -3.71628 0
M  V30 1474 H 135.708 -0.883545 -3.14422 0
M  V30 1475 H 134.367 -2.8463 -2.31044 0
M  V30 1476 H 134.015 -1.97239 -4.62715 0
M  V30 1477 H 133.715 -3.72642 -4.54326 0
M  V30 1478 H 135.239 -3.11803 -5.24987 0
M  V30 1479 H 136.653 -4.55054 -3.4871 0
M  V30 1480 H 135.05 -5.18722 -3.0174 0
M  V30 1481 H 136.12 -4.51229 -1.7754 0
M  V30 1482 N 137.463 0.71206 -1.40597 0
M  V30 1483 C 138.71 1.47197 -1.39065 0
M  V30 1484 C 139.038 1.94499 0.00583891 0
M  V30 1485 O 138.293 1.68752 0.99102 0
M  V30 1486 C 138.592 2.71039 -2.32965 0
M  V30 1487 C 138.258 2.42484 -3.80148 0
M  V30 1488 C 136.92 2.34406 -4.20247 0
M  V30 1489 C 139.272 2.18598 -4.73143 0
M  V30 1490 C 136.6 2.00516 -5.51371 0
M  V30 1491 C 138.952 1.8622 -6.0457 0
M  V30 1492 C 137.616 1.76626 -6.43708 0
M  V30 1493 H 136.886 0.538634 -0.508876 0
M  V30 1494 H 139.533 0.815325 -1.73276 0
M  V30 1495 H 137.838 3.41558 -1.91951 0
M  V30 1496 H 139.535 3.29138 -2.29061 0
M  V30 1497 H 136.125 2.49659 -3.4838 0
M  V30 1498 H 140.309 2.23793 -4.42979 0
M  V30 1499 H 135.565 1.91628 -5.80593 0
M  V30 1500 H 139.739 1.66752 -6.76141 0
M  V30 1501 H 137.366 1.50133 -7.45228 0
M  V30 1502 N 138.941 1.26152 0.944643 0
M  V30 1503 C 140.189 1.11271 1.6871 0
M  V30 1504 C 140.51 -0.345166 1.91921 0
M  V30 1505 O 139.78 -1.24387 1.51343 0
M  V30 1506 H 138.36 0.408783 0.625224 0
M  V30 1507 H 141.022 1.58427 1.1352 0
M  V30 1508 H 140.118 1.62879 2.66227 0
M  V30 1509 N 140.419 -1.14872 1.07899 0
M  V30 1510 C 141.367 -2.21857 0.698727 0
M  V30 1511 C 142.361 -1.66845 -0.293086 0
M  V30 1512 O 143.567 -1.79321 -0.156204 0
M  V30 1513 H 139.942 -0.722691 0.207899 0
M  V30 1514 H 141.913 -2.51205 1.61054 0
M  V30 1515 C 140.662 -3.47498 0.11858 0
M  V30 1516 H 139.985 -3.90154 0.872914 0
M  V30 1517 H 141.425 -4.23858 -0.109759 0
M  V30 1518 C 139.884 -3.16947 -1.1422 0
M  V30 1519 O 140.414 -3.3426 -2.22785 0
M  V30 1520 N 138.62 -2.70946 -1.05055 0
M  V30 1521 H 138.167 -2.57058 -0.167038 0
M  V30 1522 H 138.125 -2.50879 -1.89491 0
M  V30 1523 N 141.898 -0.863906 -1.31812 0
M  V30 1524 C 143.146 -0.470904 -1.96537 0
M  V30 1525 C 143.467 0.978771 -1.68657 0
M  V30 1526 O 142.737 1.6853 -0.998717 0
M  V30 1527 H 141.317 -0.171148 -0.72713 0
M  V30 1528 H 143.979 -1.10236 -1.60729 0
M  V30 1529 H 143.075 -0.623616 -3.05806 0
M  V30 1530 N 143.376 1.44774 -0.622745 0
M  V30 1531 C 144.622 2.02968 -0.13257 0
M  V30 1532 C 144.977 1.48047 1.22881 0
M  V30 1533 O 144.27 0.651625 1.80179 0
M  V30 1534 C 144.464 3.57364 -0.0508323 0
M  V30 1535 C 144.293 4.27262 -1.40275 0
M  V30 1536 C 143.063 4.64577 -1.98737 0
M  V30 1537 C 145.261 4.58248 -2.3348 0
M  V30 1538 N 143.243 5.19404 -3.27251 0
M  V30 1539 C 144.614 5.14069 -3.46603 0
M  V30 1540 C 146.669 4.40195 -2.32664 0
M  V30 1541 C 145.372 5.53738 -4.59093 0
M  V30 1542 C 147.398 4.80907 -3.44213 0
M  V30 1543 C 146.76 5.36834 -4.56058 0
M  V30 1544 H 142.859 0.776541 -0.0922354 0
M  V30 1545 H 145.443 1.76385 -0.82441 0
M  V30 1546 H 143.614 3.83576 0.610265 0
M  V30 1547 H 145.346 4.02219 0.447397 0
M  V30 1548 H 142.101 4.48622 -1.51774 0
M  V30 1549 H 142.525 5.51301 -3.92933 0
M  V30 1550 H 147.167 3.96257 -1.47446 0
M  V30 1551 H 144.885 5.96635 -5.45025 0
M  V30 1552 H 148.471 4.68659 -3.44747 0
M  V30 1553 H 147.351 5.67755 -5.40947 0
M  V30 1554 N 144.854 0.36279 1.53368 0
M  V30 1555 C 145.764 -0.492994 2.29362 0
M  V30 1556 C 146.78 -1.09507 1.35219 0
M  V30 1557 O 147.956 -1.10662 1.68273 0
M  V30 1558 C 145.021 -1.61855 3.066 0
M  V30 1559 C 144.082 -1.04429 4.16405 0
M  V30 1560 C 143.315 -2.11621 4.89951 0
M  V30 1561 O 143.538 -3.32684 4.63333 0
M  V30 1562 O 142.472 -1.74835 5.75948 0
M  V30 1563 H 146.298 0.125331 3.03441 0
M  V30 1564 H 143.883 0.127253 1.48857 0
M  V30 1565 H 145.765 -2.27302 3.54841 0
M  V30 1566 H 144.44 -2.22233 2.3536 0
M  V30 1567 H 143.347 -0.353819 3.72423 0
M  V30 1568 H 144.68 -0.485113 4.89804 0
M  V30 1569 N 146.332 -1.57332 0.0918853 0
M  V30 1570 C 147.279 -2.13847 -0.868211 0
M  V30 1571 C 148.249 -1.05618 -1.28196 0
M  V30 1572 O 149.434 -1.33387 -1.36427 0
M  V30 1573 C 146.574 -2.72062 -2.12312 0
M  V30 1574 C 145.687 -3.94514 -1.7602 0
M  V30 1575 C 144.822 -4.40903 -2.96273 0
M  V30 1576 C 143.861 -5.55953 -2.56092 0
M  V30 1577 N 142.998 -5.97209 -3.69169 0
M  V30 1578 H 147.838 -2.95575 -0.379406 0
M  V30 1579 H 145.375 -1.46048 -0.175606 0
M  V30 1580 H 147.333 -3.03931 -2.858 0
M  V30 1581 H 145.963 -1.93068 -2.58698 0
M  V30 1582 H 145.015 -3.68979 -0.925135 0
M  V30 1583 H 146.327 -4.7802 -1.42472 0
M  V30 1584 H 145.481 -4.74539 -3.78018 0
M  V30 1585 H 144.22 -3.56291 -3.33029 0
M  V30 1586 H 143.225 -5.21948 -1.72773 0
M  V30 1587 H 144.45 -6.42311 -2.20484 0
M  V30 1588 H 142.396 -5.15543 -4.05649 0
M  V30 1589 H 142.313 -6.75504 -3.39456 0
M  V30 1590 H 143.581 -6.35475 -4.51434 0
M  V30 1591 N 147.81 0.181792 -1.56548 0
M  V30 1592 C 148.76 1.22961 -1.92002 0
M  V30 1593 C 149.744 1.40331 -0.787146 0
M  V30 1594 O 150.936 1.42478 -1.05019 0
M  V30 1595 C 148.065 2.57144 -2.27446 0
M  V30 1596 C 147.151 2.43512 -3.47222 0
M  V30 1597 N 147.542 1.99577 -4.64761 0
M  V30 1598 C 145.84 2.74368 -3.51622 0
M  V30 1599 C 146.541 1.98156 -5.46909 0
M  V30 1600 N 145.517 2.40164 -4.8767 0
M  V30 1601 H 149.319 0.881462 -2.8037 0
M  V30 1602 H 146.833 0.390141 -1.57644 0
M  V30 1603 H 148.83 3.32847 -2.51035 0
M  V30 1604 H 147.49 2.92771 -1.40411 0
M  V30 1605 H 148.501 1.70078 -4.89177 0
M  V30 1606 H 145.178 3.14102 -2.75038 0
M  V30 1607 H 146.568 1.65975 -6.51077 0
M  V30 1608 N 149.288 1.51039 0.449983 0
M  V30 1609 C 150.221 1.66105 1.56474 0
M  V30 1610 C 151.199 0.508776 1.54435 0
M  V30 1611 O 152.383 0.731005 1.73749 0
M  V30 1612 C 149.51 1.66304 2.9506 0
M  V30 1613 C 148.556 2.87346 3.15174 0
M  V30 1614 S 149.389 4.4835 2.92818 0
M  V30 1615 C 150.545 4.51274 4.33708 0
M  V30 1616 H 150.778 2.60397 1.43459 0
M  V30 1617 H 148.311 1.40565 0.638805 0
M  V30 1618 H 150.269 1.67103 3.74949 0
M  V30 1619 H 148.93 0.732108 3.05449 0
M  V30 1620 H 148.123 2.83849 4.16468 0
M  V30 1621 H 147.725 2.84223 2.43091 0
M  V30 1622 H 150.017 4.26136 5.26701 0
M  V30 1623 H 150.96 5.53017 4.42242 0
M  V30 1624 H 151.368 3.80738 4.16772 0
M  V30 1625 N 150.766 -0.704594 1.40972 0
M  V30 1626 C 152.177 -1.28418 1.3552 0
M  V30 1627 C 152.528 -1.96171 0.0339434 0
M  V30 1628 O 151.653 -1.98231 -0.867944 0
M  V30 1629 C 152.248 -2.33528 2.45459 0
M  V30 1630 C 150.807 -2.87085 2.43433 0
M  V30 1631 C 149.954 -1.61007 2.2577 0
M  V30 1632 H 152.905 -0.499963 1.50619 0
M  V30 1633 H 152.926 -3.14619 2.13998 0
M  V30 1634 H 152.438 -1.84187 3.41609 0
M  V30 1635 H 150.539 -3.40626 1.51013 0
M  V30 1636 H 150.652 -3.3813 3.39419 0
M  V30 1637 H 149.016 -1.86482 1.73483 0
M  V30 1638 H 149.799 -1.13675 3.23933 0
M  V30 1639 N 152.244 -1.26651 -0.937939 0
M  V30 1640 C 153.191 -1.0849 -2.03712 0
M  V30 1641 C 154.161 0.011033 -1.66096 0
M  V30 1642 O 155.346 -0.149353 -1.90215 0
M  V30 1643 C 152.486 -0.72735 -3.37348 0
M  V30 1644 C 151.599 -1.89986 -3.87981 0
M  V30 1645 C 150.734 -1.48513 -5.10017 0
M  V30 1646 C 149.773 -2.62575 -5.5292 0
M  V30 1647 N 148.91 -2.21762 -6.66158 0
M  V30 1648 H 153.75 -2.02551 -2.18579 0
M  V30 1649 H 151.287 -1.00844 -1.07093 0
M  V30 1650 H 153.245 -0.50092 -4.14182 0
M  V30 1651 H 151.875 0.176298 -3.22318 0
M  V30 1652 H 150.927 -2.23913 -3.07518 0
M  V30 1653 H 152.239 -2.75586 -4.15757 0
M  V30 1654 H 151.393 -1.21934 -5.94321 0
M  V30 1655 H 150.132 -0.60009 -4.83994 0
M  V30 1656 H 149.137 -2.8988 -4.67172 0
M  V30 1657 H 150.362 -3.51685 -5.80943 0
M  V30 1658 H 148.308 -1.35696 -6.41812 0
M  V30 1659 H 148.225 -3.00903 -6.93537 0
M  V30 1660 H 149.493 -1.98403 -7.53828 0
M  V30 1661 N 153.722 1.14298 -1.08507 0
M  V30 1662 C 154.652 2.21542 -0.737646 0
M  V30 1663 C 155.633 1.67773 0.280377 0
M  V30 1664 O 156.818 1.93616 0.150521 0
M  V30 1665 C 153.948 3.46988 -0.147259 0
M  V30 1666 C 152.902 4.13789 -1.09374 0
M  V30 1667 C 152.228 5.33449 -0.365524 0
M  V30 1668 C 153.528 4.62208 -2.4323 0
M  V30 1669 H 155.222 2.5086 -1.6343 0
M  V30 1670 H 152.768 1.20576 -0.787243 0
M  V30 1671 H 154.721 4.21262 0.107808 0
M  V30 1672 H 153.445 3.17037 0.784538 0
M  V30 1673 H 152.104 3.4147 -1.33393 0
M  V30 1674 H 151.752 4.99759 0.57011 0
M  V30 1675 H 151.452 5.79088 -0.996512 0
M  V30 1676 H 152.976 6.10485 -0.118534 0
M  V30 1677 H 154.39 5.27952 -2.23472 0
M  V30 1678 H 152.787 5.18553 -3.02031 0
M  V30 1679 H 153.857 3.77224 -3.04681 0
M  V30 1680 N 155.201 0.870884 1.31352 0
M  V30 1681 C 156.478 0.402907 1.91405 0
M  V30 1682 C 156.858 -1.11512 1.79244 0
M  V30 1683 O 156.206 -1.94411 1.2007 0
M  V30 1684 C 156.416 0.885301 3.37585 0
M  V30 1685 C 157.764 0.911971 4.14691 0
M  V30 1686 O 158.788 0.831016 3.46371 0
M  V30 1687 O 157.647 1.02927 5.3672 0
M  V30 1688 H 154.741 0.120698 0.818145 0
M  V30 1689 H 157.287 0.958857 1.40014 0
M  V30 1690 H 156.059 1.92889 3.40455 0
M  V30 1691 H 155.682 0.307714 3.96407 0
M  V30 1692 N 156.679 -1.44442 0.630414 0
M  V30 1693 C 157.611 -2.2892 -0.113347 0
M  V30 1694 C 158.624 -1.41243 -0.80959 0
M  V30 1695 O 159.813 -1.65402 -0.671156 0
M  V30 1696 C 156.913 -3.17594 -1.18266 0
M  V30 1697 C 156.086 -4.33682 -0.569073 0
M  V30 1698 C 155.145 -5.03397 -1.53226 0
M  V30 1699 O 154.171 -5.59438 -1.04967 0
M  V30 1700 N 155.373 -5.04783 -2.86661 0
M  V30 1701 H 158.138 -2.93392 0.611636 0
M  V30 1702 H 155.699 -1.54881 0.471523 0
M  V30 1703 H 157.691 -3.61097 -1.82732 0
M  V30 1704 H 156.261 -2.54876 -1.80988 0
M  V30 1705 H 155.481 -3.9338 0.254187 0
M  V30 1706 H 156.769 -5.08608 -0.139767 0
M  V30 1707 H 156.167 -4.60584 -3.28449 0
M  V30 1708 H 154.724 -5.52077 -3.46489 0
M  V30 1709 N 158.157 -0.370918 -1.53173 0
M  V30 1710 C 159.087 0.464847 -2.28826 0
M  V30 1711 C 160.068 1.07936 -1.31468 0
M  V30 1712 O 161.253 1.0956 -1.60344 0
M  V30 1713 C 158.383 1.60196 -3.08147 0
M  V30 1714 C 157.337 1.11443 -4.13237 0
M  V30 1715 C 156.663 2.3422 -4.80672 0
M  V30 1716 C 157.963 0.195384 -5.21934 0
M  V30 1717 H 159.657 -0.166329 -2.98938 0
M  V30 1718 H 157.203 -0.0814359 -1.4377 0
M  V30 1719 H 159.156 2.19332 -3.59822 0
M  V30 1720 H 157.88 2.26045 -2.35735 0
M  V30 1721 H 156.539 0.545727 -3.62515 0
M  V30 1722 H 156.187 2.98537 -4.04827 0
M  V30 1723 H 155.887 2.02269 -5.51689 0
M  V30 1724 H 157.411 2.94032 -5.35143 0
M  V30 1725 H 158.825 0.694375 -5.69079 0
M  V30 1726 H 157.222 -0.0335027 -6.00091 0
M  V30 1727 H 158.292 -0.760961 -4.78892 0
M  V30 1728 N 159.635 1.57281 -0.100228 0
M  V30 1729 C 161.046 1.81725 0.428107 0
M  V30 1730 C 161.397 1.01619 1.67833 0
M  V30 1731 O 160.522 0.247098 2.14985 0
M  V30 1732 C 161.117 3.29617 0.78347 0
M  V30 1733 C 159.676 3.54808 1.25653 0
M  V30 1734 C 158.823 2.76118 0.255752 0
M  V30 1735 H 161.774 1.55324 -0.325608 0
M  V30 1736 H 161.795 3.4322 1.64256 0
M  V30 1737 H 161.307 3.87893 -0.12665 0
M  V30 1738 H 159.408 3.01868 2.18418 0
M  V30 1739 H 159.521 4.63443 1.21482 0
M  V30 1740 H 157.885 2.43745 0.738956 0
M  V30 1741 H 158.668 3.37145 -0.647136 0
M  V30 1742 N 161.113 -0.173488 1.56642 0
M  V30 1743 C 162.362 -0.888758 1.81063 0
M  V30 1744 C 162.675 -1.83506 0.67712 0
M  V30 1745 O 163.881 -2.59254 0.806206 0
M  V30 1746 C 162.337 -1.63091 3.20826 0
M  V30 1747 C 161.945 -0.728357 4.4204 0
M  V30 1748 C 163.689 -2.33454 3.54541 0
M  V30 1749 C 161.596 -1.47062 5.72823 0
M  V30 1750 H 160.526 -0.335618 0.675186 0
M  V30 1751 H 163.177 -0.141712 1.82952 0
M  V30 1752 H 161.559 -2.42263 3.13248 0
M  V30 1753 H 162.733 0.0262449 4.60793 0
M  V30 1754 H 161.048 -0.134492 4.16183 0
M  V30 1755 H 163.645 -2.89578 4.49498 0
M  V30 1756 H 163.988 -3.08687 2.79317 0
M  V30 1757 H 164.521 -1.61227 3.63663 0
M  V30 1758 H 161.26 -0.760658 6.51072 0
M  V30 1759 H 160.78 -2.1986 5.58052 0
M  V30 1760 H 162.459 -2.01868 6.14702 0
M  V30 1761 N 162.591 -1.51276 -0.441967 0
M  V30 1762 C 163.538 -1.72256 -1.53612 0
M  V30 1763 C 164.508 -0.564164 -1.56225 0
M  V30 1764 O 165.693 -0.798074 -1.73307 0
M  V30 1765 C 162.833 -1.84932 -2.91366 0
M  V30 1766 C 161.946 -3.12459 -2.98317 0
M  V30 1767 C 161.081 -3.15758 -4.27166 0
M  V30 1768 C 160.12 -4.37619 -4.27967 0
M  V30 1769 N 159.257 -4.38493 -5.48333 0
M  V30 1770 H 164.097 -2.65654 -1.35026 0
M  V30 1771 H 161.634 -1.31662 -0.656009 0
M  V30 1772 H 163.592 -1.90263 -3.7129 0
M  V30 1773 H 162.222 -0.949461 -3.08521 0
M  V30 1774 H 161.274 -3.1646 -2.11086 0
M  V30 1775 H 162.586 -4.02382 -2.94771 0
M  V30 1776 H 161.74 -3.19979 -5.15459 0
M  V30 1777 H 160.479 -2.23715 -4.33362 0
M  V30 1778 H 159.484 -4.33579 -3.38067 0
M  V30 1779 H 160.709 -5.30921 -4.23438 0
M  V30 1780 H 158.655 -3.49318 -5.55259 0
M  V30 1781 H 158.572 -5.22219 -5.46647 0
M  V30 1782 H 159.84 -4.469 -6.38671 0
M  V30 1783 N 164.069 0.697108 -1.41344 0
M  V30 1784 C 165.317 1.45426 -1.40341 0
M  V30 1785 C 165.638 1.94996 -0.0128787 0
M  V30 1786 O 164.908 1.71599 0.945027 0
M  V30 1787 H 163.488 0.539594 -0.516573 0
M  V30 1788 H 166.15 0.825201 -1.76569 0
M  V30 1789 H 165.246 2.31817 -2.08967 0
M  V30 1790 N 165.547 1.27147 0.931209 0
M  V30 1791 C 166.824 1.0401 1.65654 0
M  V30 1792 C 167.204 -0.426297 2.06751 0
M  V30 1793 O 166.552 -1.40879 1.79904 0
M  V30 1794 C 166.762 1.99834 2.86125 0
M  V30 1795 C 168.11 2.29007 3.57549 0
M  V30 1796 O 169.134 1.97779 2.96246 0
M  V30 1797 O 167.993 2.82222 4.67989 0
M  V30 1798 H 165.087 0.396239 0.725895 0
M  V30 1799 H 167.633 1.38397 0.982056 0
M  V30 1800 H 166.405 2.98744 2.52721 0
M  V30 1801 H 166.028 1.65987 3.61295 0
M  V30 1802 N 167.025 -1.13721 1.09112 0
M  V30 1803 C 168.253 -1.88773 0.846899 0
M  V30 1804 C 168.668 -1.7896 -0.601572 0
M  V30 1805 O 168.025 -1.15394 -1.41388 0
M  V30 1806 C 168.076 -3.3849 1.26913 0
M  V30 1807 O 167.797 -3.48043 2.66079 0
M  V30 1808 C 169.298 -4.30518 1.05682 0
M  V30 1809 H 166.518 -0.59772 0.304914 0
M  V30 1810 H 169.062 -1.43977 1.45227 0
M  V30 1811 H 167.217 -3.80881 0.707723 0
M  V30 1812 H 167.631 -4.4109 2.83795 0
M  V30 1813 H 169.105 -5.3391 1.40156 0
M  V30 1814 H 169.582 -4.392 -0.00563416 0
M  V30 1815 H 170.188 -3.93893 1.60402 0
M  V30 1816 N 168.503 -0.877838 -1.30888 0
M  V30 1817 C 169.752 -0.488793 -1.95688 0
M  V30 1818 C 170.065 0.965485 -1.70111 0
M  V30 1819 O 171.271 1.46104 -2.28836 0
M  V30 1820 C 169.727 -0.823201 -3.50359 0
M  V30 1821 C 169.335 -2.29477 -3.84765 0
M  V30 1822 C 171.079 -0.503009 -4.21509 0
M  V30 1823 C 168.986 -2.57118 -5.32583 0
M  V30 1824 H 167.916 -0.179062 -0.732429 0
M  V30 1825 H 170.567 -1.07183 -1.48943 0
M  V30 1826 H 168.949 -0.169331 -3.95638 0
M  V30 1827 H 170.123 -2.99236 -3.5042 0
M  V30 1828 H 168.438 -2.58178 -3.267 0
M  V30 1829 H 171.035 -0.68665 -5.30273 0
M  V30 1830 H 171.378 0.557109 -4.12555 0
M  V30 1831 H 171.911 -1.11376 -3.8189 0
M  V30 1832 H 168.65 -3.61843 -5.4658 0
M  V30 1833 H 168.17 -1.91961 -5.68253 0
M  V30 1834 H 169.849 -2.42251 -5.99936 0
M  V30 1835 N 169.982 1.44106 -0.638065 0
M  V30 1836 C 171.231 2.01194 -0.142744 0
M  V30 1837 C 171.544 1.50835 1.24532 0
M  V30 1838 O 172.75 2.00096 1.83504 0
M  V30 1839 C 171.206 3.59319 -0.20442 0
M  V30 1840 C 170.814 4.18674 -1.59423 0
M  V30 1841 C 172.558 4.23854 0.234079 0
M  V30 1842 C 170.465 5.69045 -1.61065 0
M  V30 1843 H 169.395 0.752367 -0.0495998 0
M  V30 1844 H 172.046 1.65246 -0.797881 0
M  V30 1845 H 170.428 3.92598 0.517946 0
M  V30 1846 H 171.602 3.96921 -2.34074 0
M  V30 1847 H 169.917 3.66453 -1.97741 0
M  V30 1848 H 172.514 5.34155 0.241443 0
M  V30 1849 H 172.857 3.96688 1.2627 0
M  V30 1850 H 173.39 3.95403 -0.436025 0
M  V30 1851 H 170.129 6.00956 -2.61787 0
M  V30 1852 H 169.649 5.929 -0.90718 0
M  V30 1853 H 171.328 6.32809 -1.34766 0
M  V30 1854 N 171.46 0.379036 1.52974 0
M  V30 1855 C 172.708 -0.206014 2.01047 0
M  V30 1856 C 173.029 -1.48175 1.26765 0
M  V30 1857 O 172.299 -1.92085 0.384743 0
M  V30 1858 H 170.879 -0.0791184 0.742798 0
M  V30 1859 H 173.541 0.508366 1.88153 0
M  V30 1860 H 172.637 -0.423501 3.09213 0
M  V30 1861 N 172.938 -1.57226 0.108567 0
M  V30 1862 C 173.886 -2.16002 -0.862885 0
M  V30 1863 C 174.88 -1.10644 -1.28274 0
M  V30 1864 O 176.086 -1.28966 -1.2557 0
M  V30 1865 H 172.461 -0.691148 -0.296342 0
M  V30 1866 H 174.432 -2.96427 -0.342575 0
M  V30 1867 C 173.181 -2.76576 -2.10716 0
M  V30 1868 H 172.504 -3.5734 -1.793 0
M  V30 1869 H 173.944 -3.21253 -2.76717 0
M  V30 1870 C 172.403 -1.73137 -2.89007 0
M  V30 1871 O 172.933 -1.17842 -3.84026 0
M  V30 1872 N 171.139 -1.43317 -2.52801 0
M  V30 1873 H 170.686 -1.88473 -1.75601 0
M  V30 1874 H 170.644 -0.743485 -3.05483 0
M  V30 1875 N 174.416 0.165178 -1.56732 0
M  V30 1876 C 175.693 0.908443 -1.73224 0
M  V30 1877 C 176.073 2.0013 -0.67165 0
M  V30 1878 O 175.421 2.26353 0.31253 0
M  V30 1879 C 175.631 1.46756 -3.16644 0
M  V30 1880 C 176.979 1.93809 -3.77787 0
M  V30 1881 O 178.003 1.56537 -3.1996 0
M  V30 1882 O 176.862 2.62486 -4.79336 0
M  V30 1883 H 173.956 0.428025 -0.707618 0
M  V30 1884 H 176.502 0.152526 -1.69013 0
M  V30 1885 H 175.274 0.68129 -3.85323 0
M  V30 1886 H 174.897 2.28749 -3.25207 0
M  V30 1887 N 175.894 1.51508 0.433938 0
M  V30 1888 C 177.14 1.64588 1.18484 0
M  V30 1889 C 177.473 0.362666 1.90784 0
M  V30 1890 O 176.748 -0.637892 1.83742 0
M  V30 1891 C 177.031 2.85149 2.19913 0
M  V30 1892 C 176.884 4.23456 1.51674 0
M  V30 1893 C 178.203 3.01227 3.20858 0
M  V30 1894 H 175.322 0.598994 0.429389 0
M  V30 1895 H 177.964 1.84002 0.473647 0
M  V30 1896 H 176.114 2.68729 2.80566 0
M  V30 1897 H 177.786 4.51552 0.943322 0
M  V30 1898 H 176.029 4.25998 0.819035 0
M  V30 1899 H 176.7 5.03812 2.2556 0
M  V30 1900 H 179.176 3.16382 2.70263 0
M  V30 1901 H 178.052 3.87141 3.89118 0
M  V30 1902 H 178.313 2.13447 3.8716 0
M  V30 1903 N 177.372 -0.689602 1.41712 0
M  V30 1904 C 178.618 -1.45041 1.42599 0
M  V30 1905 C 178.973 -1.92366 0.0363764 0
M  V30 1906 O 178.266 -1.67022 -0.938844 0
M  V30 1907 C 178.46 -2.67298 2.37247 0
M  V30 1908 C 178.289 -2.31935 3.85274 0
M  V30 1909 C 177.059 -2.2201 4.53916 0
M  V30 1910 C 179.257 -1.94526 4.76093 0
M  V30 1911 N 177.239 -1.79594 5.87043 0
M  V30 1912 C 178.61 -1.62915 5.98213 0
M  V30 1913 C 180.665 -1.81388 4.63684 0
M  V30 1914 C 179.368 -1.19486 7.09306 0
M  V30 1915 C 181.394 -1.39364 5.74745 0
M  V30 1916 C 180.756 -1.08668 6.95967 0
M  V30 1917 H 176.855 -0.527806 0.577014 0
M  V30 1918 H 179.439 -0.797266 1.77628 0
M  V30 1919 H 177.61 -3.30325 2.04304 0
M  V30 1920 H 179.342 -3.33806 2.28814 0
M  V30 1921 H 176.097 -2.406 4.07932 0
M  V30 1922 H 176.521 -1.60851 6.57614 0
M  V30 1923 H 181.163 -2.03772 3.70455 0
M  V30 1924 H 178.881 -0.958477 8.02396 0
M  V30 1925 H 182.467 -1.2974 5.6715 0
M  V30 1926 H 181.347 -0.766417 7.80446 0
M  V30 1927 N 178.85 -1.27639 -0.924453 0
M  V30 1928 C 180.099 -1.13549 -1.66702 0
M  V30 1929 C 180.412 0.317487 -1.93006 0
M  V30 1930 O 181.618 0.579333 -2.65247 0
M  V30 1931 C 180.074 -1.98426 -3.00259 0
M  V30 1932 C 179.682 -3.484 -2.81641 0
M  V30 1933 C 181.426 -1.92993 -3.78092 0
M  V30 1934 C 179.333 -4.25464 -4.10773 0
M  V30 1935 H 178.263 -0.421351 -0.625283 0
M  V30 1936 H 180.914 -1.52085 -1.02676 0
M  V30 1937 H 179.296 -1.52736 -3.6536 0
M  V30 1938 H 180.47 -4.01973 -2.25287 0
M  V30 1939 H 178.785 -3.55245 -2.17232 0
M  V30 1940 H 181.382 -2.47844 -4.7379 0
M  V30 1941 H 181.725 -0.904281 -4.0636 0
M  V30 1942 H 182.258 -2.36595 -3.19793 0
M  V30 1943 H 178.997 -5.28566 -3.87683 0
M  V30 1944 H 178.517 -3.76667 -4.66779 0
M  V30 1945 H 180.196 -4.34812 -4.79111 0
M  V30 1946 N 180.328 1.1314 -1.09713 0
M  V30 1947 C 181.576 1.84119 -0.833338 0
M  V30 1948 C 181.897 1.84097 0.642904 0
M  V30 1949 O 181.167 1.29881 1.46655 0
M  V30 1950 H 179.747 0.681766 -0.305293 0
M  V30 1951 H 182.409 1.37038 -1.38588 0
M  V30 1952 H 181.505 2.88543 -1.18951 0
M  V30 1953 N 181.806 0.884767 1.30421 0
M  V30 1954 C 182.753 0.349642 2.28136 0
M  V30 1955 C 183.723 -0.560061 1.56373 0
M  V30 1956 O 184.908 -0.488524 1.8444 0
M  V30 1957 C 182.048 -0.42999 3.42411 0
M  V30 1958 C 181.161 0.508907 4.28992 0
M  V30 1959 C 180.296 -0.286301 5.30428 0
M  V30 1960 C 179.335 0.648079 6.08659 0
M  V30 1961 N 178.472 -0.111792 7.02011 0
M  V30 1962 H 183.312 1.18807 2.73293 0
M  V30 1963 H 180.849 0.597231 1.3443 0
M  V30 1964 H 182.807 -0.897923 4.07423 0
M  V30 1965 H 181.437 -1.23299 2.98324 0
M  V30 1966 H 180.489 1.09533 3.64289 0
M  V30 1967 H 181.801 1.22475 4.8353 0
M  V30 1968 H 180.955 -0.816098 6.01186 0
M  V30 1969 H 179.694 -1.03536 4.76583 0
M  V30 1970 H 178.699 1.18951 5.36778 0
M  V30 1971 H 179.924 1.39623 6.64592 0
M  V30 1972 H 177.87 -0.843395 6.50556 0
M  V30 1973 H 177.787 0.544429 7.54037 0
M  V30 1974 H 179.055 -0.622339 7.77012 0
M  V30 1975 N 183.284 -1.43765 0.645699 0
M  V30 1976 C 184.561 -1.9541 0.0862963 0
M  V30 1977 C 184.941 -1.58725 -1.39175 0
M  V30 1978 O 184.289 -0.868581 -2.11348 0
M  V30 1979 C 184.499 -3.47488 0.324565 0
M  V30 1980 C 185.847 -4.24001 0.225497 0
M  V30 1981 O 186.871 -3.55274 0.256715 0
M  V30 1982 O 185.73 -5.46313 0.142801 0
M  V30 1983 H 182.824 -0.826882 -0.0139483 0
M  V30 1984 H 185.37 -1.53743 0.718415 0
M  V30 1985 H 184.142 -3.67289 1.3496 0
M  V30 1986 H 183.765 -3.96135 -0.340987 0
M  V30 1987 N 184.763 -0.387143 -1.52771 0
M  V30 1988 C 186.009 0.196025 -2.0185 0
M  V30 1989 C 186.342 1.46641 -1.27319 0
M  V30 1990 O 185.617 1.90889 -0.373032 0
M  V30 1991 C 185.9 0.466136 -3.5707 0
M  V30 1992 C 185.753 -0.819385 -4.42274 0
M  V30 1993 C 187.072 1.25768 -4.21747 0
M  V30 1994 H 184.191 0.0697708 -0.73369 0
M  V30 1995 H 186.833 -0.516286 -1.82851 0
M  V30 1996 H 184.983 1.07293 -3.7339 0
M  V30 1997 H 186.655 -1.4563 -4.37709 0
M  V30 1998 H 184.898 -1.43517 -4.09372 0
M  V30 1999 H 185.569 -0.585065 -5.48891 0
M  V30 2000 H 188.045 0.744167 -4.09391 0
M  V30 2001 H 186.921 1.41541 -5.30337 0
M  V30 2002 H 187.182 2.27228 -3.79236 0
M  V30 2003 N 186.241 1.57166 -0.116904 0
M  V30 2004 C 187.487 1.95412 0.542405 0
M  V30 2005 C 187.82 1.00019 1.66463 0
M  V30 2006 O 187.095 0.0370346 1.94465 0
M  V30 2007 C 187.378 3.43615 1.07708 0
M  V30 2008 C 187.231 4.49781 -0.0415868 0
M  V30 2009 C 188.55 3.93616 1.96861 0
M  V30 2010 H 185.669 0.710543 0.195696 0
M  V30 2011 H 188.311 1.89027 -0.192038 0
M  V30 2012 H 186.461 3.49187 1.70296 0
M  V30 2013 H 188.133 4.56308 -0.676793 0
M  V30 2014 H 186.376 4.28033 -0.705019 0
M  V30 2015 H 187.047 5.50733 0.373717 0
M  V30 2016 H 189.523 3.90335 1.44146 0
M  V30 2017 H 188.399 4.97838 2.3119 0
M  V30 2018 H 188.66 3.34188 2.89432 0
M  V30 2019 N 187.719 -0.156864 1.56817 0
M  V30 2020 C 188.968 -0.869504 1.81996 0
M  V30 2021 C 189.281 -1.82777 0.696545 0
M  V30 2022 O 190.487 -2.58384 0.833658 0
M  V30 2023 C 188.943 -1.59679 3.22538 0
M  V30 2024 C 188.551 -0.681431 4.42787 0
M  V30 2025 C 190.295 -2.2968 3.56997 0
M  V30 2026 C 188.202 -1.40978 5.74351 0
M  V30 2027 H 187.132 -0.328438 0.678708 0
M  V30 2028 H 189.783 -0.1223 1.83092 0
M  V30 2029 H 188.165 -2.38927 3.158 0
M  V30 2030 H 189.339 0.0751166 4.60739 0
M  V30 2031 H 187.654 -0.0903431 4.16302 0
M  V30 2032 H 190.251 -2.84794 4.52544 0
M  V30 2033 H 190.594 -3.05707 2.82576 0
M  V30 2034 H 191.127 -1.57361 3.65352 0
M  V30 2035 H 187.866 -0.691561 6.51842 0
M  V30 2036 H 187.386 -2.13929 5.60352 0
M  V30 2037 H 189.065 -1.95337 6.16808 0
M  V30 2038 N 189.197 -1.51736 -0.425897 0
M  V30 2039 C 190.13 -1.68574 -1.53812 0
M  V30 2040 C 191.108 -0.53328 -1.53606 0
M  V30 2041 O 192.292 -0.758555 -1.72564 0
M  V30 2042 C 189.419 -1.70977 -2.92377 0
M  V30 2043 C 188.465 -2.92324 -3.10563 0
M  V30 2044 S 189.298 -4.52952 -2.85648 0
M  V30 2045 C 190.454 -4.58117 -4.26474 0
M  V30 2046 H 190.687 -2.62647 -1.39298 0
M  V30 2047 H 188.22 -1.41564 -0.616361 0
M  V30 2048 H 190.178 -1.73047 -3.72243 0
M  V30 2049 H 188.839 -0.78061 -3.04245 0
M  V30 2050 H 188.032 -2.90439 -4.11899 0
M  V30 2051 H 187.634 -2.88055 -2.38538 0
M  V30 2052 H 189.926 -4.34462 -5.19855 0
M  V30 2053 H 190.869 -5.59983 -4.33388 0
M  V30 2054 H 191.277 -3.8732 -4.10662 0
M  V30 2055 N 190.675 0.682077 -1.42076 0
M  V30 2056 C 192.086 1.26246 -1.37546 0
M  V30 2057 C 192.437 1.96092 -0.0651481 0
M  V30 2058 O 191.562 1.99587 0.836297 0
M  V30 2059 C 192.157 2.29594 -2.49143 0
M  V30 2060 C 190.716 2.83175 -2.47969 0
M  V30 2061 C 189.863 1.57395 -2.28303 0
M  V30 2062 H 192.814 0.475937 -1.51395 0
M  V30 2063 H 192.835 3.11175 -2.18976 0
M  V30 2064 H 192.347 1.78729 -3.44496 0
M  V30 2065 H 190.448 3.3818 -1.56413 0
M  V30 2066 H 190.561 3.32687 -3.44755 0
M  V30 2067 H 188.925 1.83699 -1.76428 0
M  V30 2068 H 189.708 1.08507 -3.25701 0
M  V30 2069 N 192.153 1.28127 0.917671 0
M  V30 2070 C 193.401 1.14825 1.66312 0
M  V30 2071 C 193.722 -0.304379 1.9261 0
M  V30 2072 O 192.992 -1.21149 1.53947 0
M  V30 2073 H 191.572 0.421953 0.616413 0
M  V30 2074 H 194.234 1.608 1.10134 0
M  V30 2075 H 193.33 1.68489 2.62712 0
M  V30 2076 N 193.631 -1.12557 1.10312 0
M  V30 2077 C 194.877 -1.84311 0.846011 0
M  V30 2078 C 195.21 -1.83805 -0.626859 0
M  V30 2079 O 194.485 -1.28268 -1.46211 0
M  V30 2080 C 194.768 -3.32048 1.39341 0
M  V30 2081 C 194.621 -3.41016 2.93305 0
M  V30 2082 C 195.94 -4.27764 1.03468 0
M  V30 2083 H 193.059 -0.669192 0.30879 0
M  V30 2084 H 195.701 -1.32057 1.36605 0
M  V30 2085 H 193.851 -3.76678 0.951087 0
M  V30 2086 H 195.523 -3.05031 3.46055 0
M  V30 2087 H 193.766 -2.81603 3.29973 0
M  V30 2088 H 194.437 -4.44948 3.26689 0
M  V30 2089 H 196.913 -3.91253 1.41633 0
M  V30 2090 H 195.789 -5.29549 1.44463 0
M  V30 2091 H 196.05 -4.42064 -0.0560404 0
M  V30 2092 N 195.109 -0.891671 -1.2995 0
M  V30 2093 C 196.056 -0.361736 -2.27948 0
M  V30 2094 C 197.026 0.551761 -1.56668 0
M  V30 2095 O 198.211 0.478736 -1.84696 0
M  V30 2096 C 195.351 0.411825 -3.42634 0
M  V30 2097 C 194.464 -0.531651 -4.28716 0
M  V30 2098 C 193.599 0.258167 -5.30572 0
M  V30 2099 C 192.638 -0.680349 -6.08307 0
M  V30 2100 N 191.775 0.0745613 -7.0206 0
M  V30 2101 H 196.615 -1.20254 -2.72659 0
M  V30 2102 H 194.152 -0.604352 -1.34112 0
M  V30 2103 H 196.11 0.876304 -4.07893 0
M  V30 2104 H 194.74 1.21715 -2.98974 0
M  V30 2105 H 193.792 -1.11463 -3.63703 0
M  V30 2106 H 195.104 -1.25038 -4.82874 0
M  V30 2107 H 194.258 0.784204 -6.0161 0
M  V30 2108 H 192.997 1.01008 -4.77126 0
M  V30 2109 H 192.002 -1.21796 -5.3614 0
M  V30 2110 H 193.227 -1.43145 -6.63842 0
M  V30 2111 H 191.173 0.808883 -6.50994 0
M  V30 2112 H 191.09 -0.584409 -7.53738 0
M  V30 2113 H 192.358 0.581123 -7.77331 0
M  V30 2114 N 196.587 1.43421 -0.653314 0
M  V30 2115 C 197.836 2.01032 -0.164076 0
M  V30 2116 C 198.149 1.52147 1.22926 0
M  V30 2117 O 199.355 2.02031 1.81371 0
M  V30 2118 C 197.811 3.59082 -0.24252 0
M  V30 2119 C 197.419 4.1696 -1.63855 0
M  V30 2120 C 199.163 4.24079 0.18911 0
M  V30 2121 C 197.07 5.67304 -1.67092 0
M  V30 2122 H 196 0.751798 -0.0575769 0
M  V30 2123 H 198.651 1.6439 -0.815362 0
M  V30 2124 H 197.033 3.93125 0.476276 0
M  V30 2125 H 198.207 3.94416 -2.38271 0
M  V30 2126 H 196.522 3.64335 -2.01616 0
M  V30 2127 H 199.119 5.34381 0.184775 0
M  V30 2128 H 199.462 3.98005 1.22056 0
M  V30 2129 H 199.995 3.94918 -0.477938 0
M  V30 2130 H 196.734 5.98145 -2.68146 0
M  V30 2131 H 196.254 5.91904 -0.970014 0
M  V30 2132 H 197.933 6.31344 -1.4147 0
M  V30 2133 N 198.065 0.39524 1.52563 0
M  V30 2134 C 199.313 -0.184678 2.01254 0
M  V30 2135 C 199.634 -1.46822 1.28329 0
M  V30 2136 O 198.904 -1.91666 0.405094 0
M  V30 2137 H 197.484 -0.0712355 0.743596 0
M  V30 2138 H 200.146 0.528293 1.87603 0
M  V30 2139 H 199.242 -0.390681 3.09645 0
M  V30 2140 N 199.544 -1.57102 0.125237 0
M  V30 2141 C 200.821 -1.86953 -0.575142 0
M  V30 2142 C 201.201 -1.02749 -1.84407 0
M  V30 2143 O 200.549 -0.108144 -2.28244 0
M  V30 2144 C 200.759 -3.38198 -0.861583 0
M  V30 2145 C 202.107 -4.06937 -1.21192 0
M  V30 2146 O 203.131 -3.43252 -0.951645 0
M  V30 2147 O 201.99 -5.19364 -1.70068 0
M  V30 2148 H 199.084 -0.774147 -0.290906 0
M  V30 2149 H 201.63 -1.68942 0.160211 0
M  V30 2150 H 200.402 -3.91282 0.0373647 0
M  V30 2151 H 200.025 -3.61661 -1.65188 0
M  V30 2152 N 201.022 0.148545 -1.56898 0
M  V30 2153 C 202.27 0.859717 -1.82902 0
M  V30 2154 C 202.591 1.81775 -0.70588 0
M  V30 2155 O 201.861 1.93994 0.272586 0
M  V30 2156 H 200.441 0.320469 -0.674766 0
M  V30 2157 H 203.103 0.142918 -1.94375 0
M  V30 2158 H 202.199 1.4229 -2.77777 0
M  V30 2159 N 202.5 1.5196 0.417844 0
M  V30 2160 C 203.463 1.74065 1.49111 0
M  V30 2161 C 204.463 0.610537 1.48758 0
M  V30 2162 O 205.653 0.87832 1.50437 0
M  V30 2163 C 202.785 1.81502 2.88565 0
M  V30 2164 H 203.978 2.69869 1.30807 0
M  V30 2165 H 201.531 1.42244 0.647785 0
M  V30 2166 H 202.266 0.875813 3.1225 0
M  V30 2167 H 202.051 2.63651 2.90225 0
M  V30 2168 H 203.541 2.00376 3.66387 0
M  V30 2169 N 203.978 -0.674533 1.42435 0
M  V30 2170 C 205.227 -1.43034 1.42212 0
M  V30 2171 C 205.54 -1.95555 0.0420788 0
M  V30 2172 O 206.746 -2.71374 -0.0827558 0
M  V30 2173 C 205.202 -2.58748 2.50155 0
M  V30 2174 C 204.81 -2.12925 3.94166 0
M  V30 2175 C 206.554 -3.36257 2.59098 0
M  V30 2176 C 204.461 -3.25723 4.93618 0
M  V30 2177 H 203.391 -0.537345 0.528939 0
M  V30 2178 H 206.042 -0.73024 1.68344 0
M  V30 2179 H 204.424 -3.31128 2.17188 0
M  V30 2180 H 205.598 -1.47697 4.36488 0
M  V30 2181 H 203.913 -1.48354 3.89076 0
M  V30 2182 H 206.51 -4.20264 3.30578 0
M  V30 2183 H 206.853 -3.82866 1.63461 0
M  V30 2184 H 207.386 -2.70947 2.9126 0
M  V30 2185 H 204.125 -2.84105 5.90732 0
M  V30 2186 H 203.645 -3.89732 4.55926 0
M  V30 2187 H 205.324 -3.91186 5.15347 0
M  V30 2188 N 205.456 -1.28612 -0.910864 0
M  V30 2189 C 206.702 -1.16106 -1.66274 0
M  V30 2190 C 207.035 0.289113 -1.92036 0
M  V30 2191 O 206.31 1.21 -1.52281 0
M  V30 2192 C 206.593 -1.96309 -3.01885 0
M  V30 2193 C 206.446 -3.49405 -2.8326 0
M  V30 2194 C 207.765 -1.78076 -4.02463 0
M  V30 2195 H 204.884 -0.423152 -0.603417 0
M  V30 2196 H 207.526 -1.57961 -1.05586 0
M  V30 2197 H 205.676 -1.60742 -3.53687 0
M  V30 2198 H 207.348 -3.94894 -2.38446 0
M  V30 2199 H 205.591 -3.74893 -2.18261 0
M  V30 2200 H 206.262 -4.00784 -3.79574 0
M  V30 2201 H 208.738 -2.0912 -3.59733 0
M  V30 2202 H 207.614 -2.36561 -4.95308 0
M  V30 2203 H 207.875 -0.733008 -4.35981 0
M  V30 2204 N 206.934 1.1197 -1.10907 0
M  V30 2205 C 207.897 2.16031 -0.765707 0
M  V30 2206 C 208.897 1.59393 0.212235 0
M  V30 2207 O 210.087 1.74196 -0.0115441 0
M  V30 2208 C 207.219 3.40632 -0.135053 0
M  V30 2209 H 208.412 2.47919 -1.68748 0
M  V30 2210 H 205.965 1.27061 -0.910226 0
M  V30 2211 H 206.7 3.14348 0.797218 0
M  V30 2212 H 206.485 3.8302 -0.838937 0
M  V30 2213 H 207.975 4.17505 0.0892469 0
M  V30 2214 N 208.412 0.89855 1.29475 0
M  V30 2215 C 209.375 0.380272 2.26023 0
M  V30 2216 C 210.375 -0.484891 1.53315 0
M  V30 2217 O 211.565 -0.290108 1.71767 0
M  V30 2218 C 208.697 -0.45651 3.3783 0
M  V30 2219 H 209.89 1.23295 2.73383 0
M  V30 2220 H 207.443 0.676589 1.40897 0
M  V30 2221 H 208.178 -1.32922 2.95808 0
M  V30 2222 H 207.963 0.163393 3.91759 0
M  V30 2223 H 209.453 -0.810466 4.0966 0
M  V30 2224 N 209.89 -1.43072 0.660911 0
M  V30 2225 C 210.838 -2.32569 -0.0378199 0
M  V30 2226 C 211.832 -1.49046 -0.805092 0
M  V30 2227 O 213.038 -1.65206 -0.714624 0
M  V30 2228 H 209.413 -0.75136 -0.031019 0
M  V30 2229 H 211.384 -2.89216 0.734609 0
M  V30 2230 C 210.133 -3.33453 -0.985124 0
M  V30 2231 H 209.456 -3.97752 -0.404147 0
M  V30 2232 H 210.896 -3.98691 -1.44297 0
M  V30 2233 C 209.355 -2.64642 -2.08486 0
M  V30 2234 O 209.885 -2.46776 -3.16961 0
M  V30 2235 N 208.091 -2.23891 -1.8526 0
M  V30 2236 H 207.638 -2.38621 -0.970449 0
M  V30 2237 H 207.596 -1.78181 -2.59034 0
M  V30 2238 N 211.368 -0.403325 -1.52352 0
M  V30 2239 C 212.593 0.176499 -2.06648 0
M  V30 2240 C 213.018 1.38577 -1.27193 0
M  V30 2241 O 212.376 1.7879 -0.300637 0
M  V30 2242 C 212.424 0.511061 -3.5696 0
M  V30 2243 O 211.528 1.60294 -3.79973 0
M  V30 2244 H 210.869 0.0167337 -0.663789 0
M  V30 2245 H 213.399 -0.574848 -1.96359 0
M  V30 2246 H 213.409 0.771362 -4.00642 0
M  V30 2247 H 212.084 -0.37296 -4.14224 0
M  V30 2248 H 210.661 1.33526 -3.48174 0
M  V30 2249 N 212.846 1.57033 -0.133567 0
M  V30 2250 C 214.092 1.95976 0.521649 0
M  V30 2251 C 214.425 1.01779 1.65393 0
M  V30 2252 O 213.7 0.0576581 1.94415 0
M  V30 2253 C 213.983 3.44738 1.04057 0
M  V30 2254 C 213.836 4.49711 -0.0892897 0
M  V30 2255 C 215.155 3.95682 1.92675 0
M  V30 2256 H 212.274 0.712579 0.188149 0
M  V30 2257 H 214.916 1.88813 -0.212076 0
M  V30 2258 H 213.066 3.50973 1.66583 0
M  V30 2259 H 214.738 4.55565 -0.725152 0
M  V30 2260 H 212.981 4.27261 -0.750378 0
M  V30 2261 H 213.652 5.51099 0.315284 0
M  V30 2262 H 216.128 3.91841 1.39998 0
M  V30 2263 H 215.004 5.00262 2.25897 0
M  V30 2264 H 215.265 3.37239 2.85872 0
M  V30 2265 N 214.325 -0.140222 1.56975 0
M  V30 2266 C 215.571 -0.852949 1.83991 0
M  V30 2267 C 215.904 -1.80512 0.716187 0
M  V30 2268 O 215.179 -1.92479 -0.279681 0
M  V30 2269 C 215.462 -1.6215 3.21527 0
M  V30 2270 C 215.315 -0.690363 4.4447 0
M  V30 2271 C 216.634 -2.58247 3.56366 0
M  V30 2272 H 213.753 -0.308634 0.669264 0
M  V30 2273 H 216.395 -0.117898 1.89634 0
M  V30 2274 H 214.545 -2.24812 3.16847 0
M  V30 2275 H 216.217 -0.0742264 4.6124 0
M  V30 2276 H 214.46 -0.000396433 4.338 0
M  V30 2277 H 215.131 -1.2643 5.37326 0
M  V30 2278 H 217.607 -2.05701 3.61699 0
M  V30 2279 H 216.483 -3.09067 4.53617 0
M  V30 2280 H 216.744 -3.39923 2.82674 0
M  V30 2281 N 215.803 -1.52179 -0.40978 0
M  V30 2282 C 217.049 -1.66453 -1.15851 0
M  V30 2283 C 217.382 -0.392972 -1.90182 0
M  V30 2284 O 216.657 0.608579 -1.84734 0
M  V30 2285 C 216.94 -2.88612 -2.15349 0
M  V30 2286 C 216.793 -4.25815 -1.44918 0
M  V30 2287 C 218.112 -3.06294 -3.16026 0
M  V30 2288 H 215.231 -0.60575 -0.419805 0
M  V30 2289 H 217.873 -1.84732 -0.444314 0
M  V30 2290 H 216.023 -2.73158 -2.76255 0
M  V30 2291 H 217.695 -4.52995 -0.871365 0
M  V30 2292 H 215.938 -4.27247 -0.751159 0
M  V30 2293 H 216.609 -5.07337 -2.17516 0
M  V30 2294 H 219.085 -3.20641 -2.65195 0
M  V30 2295 H 217.961 -3.93283 -3.8291 0
M  V30 2296 H 218.222 -2.19579 -3.83715 0
M  V30 2297 N 217.281 0.66697 -1.42791 0
M  V30 2298 C 218.228 1.7803 -1.4688 0
M  V30 2299 C 219.198 1.6299 -0.319919 0
M  V30 2300 O 220.383 1.83432 -0.525118 0
M  V30 2301 C 217.523 3.1611 -1.38451 0
M  V30 2302 C 216.636 3.42381 -2.63437 0
M  V30 2303 C 215.771 4.70232 -2.47094 0
M  V30 2304 C 214.81 4.89564 -3.67415 0
M  V30 2305 N 213.947 6.08661 -3.49966 0
M  V30 2306 H 218.787 1.7387 -2.42019 0
M  V30 2307 H 216.324 0.84868 -1.20149 0
M  V30 2308 H 218.282 3.95914 -1.31561 0
M  V30 2309 H 216.912 3.19374 -0.469033 0
M  V30 2310 H 215.964 2.56774 -2.80662 0
M  V30 2311 H 217.276 3.52557 -3.52853 0
M  V30 2312 H 216.43 5.5814 -2.37834 0
M  V30 2313 H 215.169 4.62353 -1.5518 0
M  V30 2314 H 214.174 4.00096 -3.77099 0
M  V30 2315 H 215.399 4.99282 -4.6032 0
M  V30 2316 H 213.345 6.0194 -2.60776 0
M  V30 2317 H 213.262 6.19733 -4.32975 0
M  V30 2318 H 214.53 6.99226 -3.44532 0
M  V30 2319 N 218.759 1.29093 0.90403 0
M  V30 2320 C 220.036 1.075 1.63411 0
M  V30 2321 C 220.416 -0.382346 2.07609 0
M  V30 2322 O 219.764 -1.37031 1.82851 0
M  V30 2323 C 219.974 2.05858 2.81822 0
M  V30 2324 C 221.322 2.36539 3.52611 0
M  V30 2325 O 222.346 2.04019 2.91984 0
M  V30 2326 O 221.205 2.92085 4.61897 0
M  V30 2327 H 218.299 0.411547 0.717327 0
M  V30 2328 H 220.845 1.40449 0.952479 0
M  V30 2329 H 219.617 3.04037 2.46327 0
M  V30 2330 H 219.24 1.73613 3.57693 0
M  V30 2331 N 220.237 -1.11381 1.11499 0
M  V30 2332 C 221.486 -1.82494 0.858993 0
M  V30 2333 C 221.799 -1.85605 -0.617278 0
M  V30 2334 O 223.005 -2.52824 -0.989552 0
M  V30 2335 C 221.461 -3.27745 1.48699 0
M  V30 2336 C 221.069 -3.32961 2.99735 0
M  V30 2337 C 222.813 -4.03754 1.31085 0
M  V30 2338 C 220.72 -4.72612 3.55516 0
M  V30 2339 H 219.65 -0.683802 0.317696 0
M  V30 2340 H 222.301 -1.25331 1.34031 0
M  V30 2341 H 220.683 -3.84844 0.933339 0
M  V30 2342 H 221.857 -2.85741 3.61509 0
M  V30 2343 H 220.172 -2.70433 3.16631 0
M  V30 2344 H 222.769 -5.06891 1.70192 0
M  V30 2345 H 223.112 -4.15527 0.253496 0
M  V30 2346 H 223.645 -3.53043 1.83318 0
M  V30 2347 H 220.384 -4.66036 4.60967 0
M  V30 2348 H 219.904 -5.2024 2.98513 0
M  V30 2349 H 221.583 -5.4157 3.53992 0
M  V30 2350 N 221.715 -0.905404 -1.28997 0
M  V30 2351 C 222.678 -0.392253 -2.25819 0
M  V30 2352 C 223.678 0.476753 -1.5357 0
M  V30 2353 O 224.868 0.280994 -1.71919 0
M  V30 2354 C 222 0.438588 -3.38067 0
M  V30 2355 H 223.193 -1.24743 -2.72725 0
M  V30 2356 H 220.746 -0.684051 -1.40536 0
M  V30 2357 H 221.481 1.31352 -2.96508 0
M  V30 2358 H 221.266 -0.184167 -3.91667 0
M  V30 2359 H 222.756 0.78873 -4.10084 0
M  V30 2360 N 223.193 1.4272 -0.668489 0
M  V30 2361 C 224.604 1.84793 -0.266151 0
M  V30 2362 C 224.955 1.55959 1.19043 0
M  V30 2363 O 224.08 1.01622 1.91055 0
M  V30 2364 C 224.675 3.35436 -0.476271 0
M  V30 2365 C 223.234 3.76182 -0.128113 0
M  V30 2366 C 222.381 2.66344 -0.771777 0
M  V30 2367 H 225.332 1.32656 -0.871098 0
M  V30 2368 H 225.353 3.79515 0.273561 0
M  V30 2369 H 224.865 3.5639 -1.53647 0
M  V30 2370 H 222.966 3.60836 0.928891 0
M  V30 2371 H 223.079 4.75766 -0.564231 0
M  V30 2372 H 221.443 2.53885 -0.203652 0
M  V30 2373 H 222.226 2.90123 -1.83531 0
M  V30 2374 N 224.671 0.411399 1.52136 0
M  V30 2375 C 225.901 -0.16284 2.05957 0
M  V30 2376 C 226.309 -1.3922 1.28119 0
M  V30 2377 O 225.652 -1.80768 0.326881 0
M  V30 2378 C 225.714 -0.575946 3.54856 0
M  V30 2379 C 225.378 0.542998 4.53763 0
M  V30 2380 C 226.375 1.40726 5.00492 0
M  V30 2381 C 224.06 0.716337 4.97166 0
M  V30 2382 C 226.054 2.4298 5.8927 0
M  V30 2383 C 223.741 1.74218 5.8574 0
M  V30 2384 C 224.739 2.59731 6.31687 0
M  V30 2385 O 224.427 3.60558 7.18507 0
M  V30 2386 H 224.159 -0.0229125 0.675612 0
M  V30 2387 H 226.713 0.581634 1.96993 0
M  V30 2388 H 224.943 -1.37274 3.61515 0
M  V30 2389 H 226.632 -1.07836 3.91313 0
M  V30 2390 H 227.398 1.28476 4.67674 0
M  V30 2391 H 223.277 0.0603857 4.6096 0
M  V30 2392 H 226.821 3.0976 6.25055 0
M  V30 2393 H 222.718 1.86498 6.17971 0
M  V30 2394 H 223.486 3.56829 7.36624 0
M  V30 2395 N 226.149 -1.5696 0.141893 0
M  V30 2396 C 227.082 -2.12271 -0.837627 0
M  V30 2397 C 228.06 -1.04495 -1.24578 0
M  V30 2398 O 229.244 -1.32293 -1.34278 0
M  V30 2399 C 226.371 -2.63822 -2.12404 0
M  V30 2400 C 225.417 -3.83698 -1.86221 0
M  V30 2401 S 226.25 -5.24948 -1.05781 0
M  V30 2402 C 227.406 -5.79884 -2.35552 0
M  V30 2403 H 227.639 -2.95023 -0.367249 0
M  V30 2404 H 225.172 -1.54231 -0.0723014 0
M  V30 2405 H 227.13 -2.94175 -2.86307 0
M  V30 2406 H 225.791 -1.8121 -2.56557 0
M  V30 2407 H 224.984 -4.17995 -2.81596 0
M  V30 2408 H 224.586 -3.5408 -1.20429 0
M  V30 2409 H 226.878 -5.91005 -3.31239 0
M  V30 2410 H 227.821 -6.77544 -2.05767 0
M  V30 2411 H 228.229 -5.08095 -2.45967 0
M  V30 2412 N 227.627 0.131896 -1.57047 0
M  V30 2413 C 228.557 1.16384 -2.02428 0
M  V30 2414 C 229.538 1.43936 -0.90644 0
M  V30 2415 O 230.723 1.54599 -1.17528 0
M  V30 2416 C 227.853 2.49328 -2.4177 0
M  V30 2417 C 226.807 2.36266 -3.56879 0
M  V30 2418 C 226.133 3.74057 -3.8208 0
M  V30 2419 C 227.433 1.834 -4.89042 0
M  V30 2420 H 229.127 0.786433 -2.88887 0
M  V30 2421 H 226.673 0.376855 -1.38981 0
M  V30 2422 H 228.626 3.21759 -2.7212 0
M  V30 2423 H 227.35 2.88934 -1.52266 0
M  V30 2424 H 226.009 1.66286 -3.26718 0
M  V30 2425 H 225.657 4.11125 -2.89803 0
M  V30 2426 H 225.357 3.66174 -4.59554 0
M  V30 2427 H 226.881 4.48012 -4.1487 0
M  V30 2428 H 228.295 2.45636 -5.18011 0
M  V30 2429 H 226.692 1.8637 -5.70426 0
M  V30 2430 H 227.762 0.790662 -4.7841 0
M  V30 2431 N 229.106 1.52395 0.401703 0
M  V30 2432 C 230.069 1.75636 1.47257 0
M  V30 2433 C 231.069 0.62628 1.48103 0
M  V30 2434 O 232.259 0.894227 1.49497 0
M  V30 2435 C 229.391 1.84553 2.86624 0
M  V30 2436 H 230.584 2.71241 1.27938 0
M  V30 2437 H 228.137 1.42923 0.632662 0
M  V30 2438 H 228.872 0.908882 3.11303 0
M  V30 2439 H 228.657 2.66715 2.87412 0
M  V30 2440 H 230.147 2.04251 3.64241 0
M  V30 2441 N 230.584 -0.659388 1.43143 0
M  V30 2442 C 231.832 -1.41654 1.44147 0
M  V30 2443 C 232.153 -1.94893 0.0645739 0
M  V30 2444 O 231.423 -1.74044 -0.899198 0
M  V30 2445 H 230.003 -0.525708 0.530697 0
M  V30 2446 H 232.665 -0.778097 1.78694 0
M  V30 2447 H 231.761 -2.26195 2.1504 0
M  V30 2448 N 232.062 -1.29571 -0.897171 0
M  V30 2449 C 233.31 -1.17456 -1.64464 0
M  V30 2450 C 233.631 0.273698 -1.9307 0
M  V30 2451 O 232.901 1.18684 -1.55855 0
M  V30 2452 H 231.481 -0.431706 -0.609622 0
M  V30 2453 H 234.143 -1.62531 -1.07562 0
M  V30 2454 H 233.239 -1.72648 -2.59998 0
M  V30 2455 N 233.54 1.10788 -1.12088 0
M  V30 2456 C 234.488 2.19111 -0.780587 0
M  V30 2457 C 235.482 1.67818 0.230961 0
M  V30 2458 O 236.688 1.79777 0.0895427 0
M  V30 2459 H 233.063 0.714477 -0.234578 0
M  V30 2460 H 235.034 2.45055 -1.70266 0
M  V30 2461 C 233.783 3.46818 -0.24747 0
M  V30 2462 H 233.106 3.86646 -1.01712 0
M  V30 2463 H 234.546 4.23973 -0.0476291 0
M  V30 2464 C 233.005 3.20968 1.02378 0
M  V30 2465 O 233.535 3.42298 2.10226 0
M  V30 2466 N 231.741 2.74658 0.949271 0
M  V30 2467 H 231.288 2.57501 0.0715173 0
M  V30 2468 H 231.246 2.57739 1.80049 0
M  V30 2469 N 235.018 0.912232 1.28515 0
M  V30 2470 C 236.429 0.591352 1.77087 0
M  V30 2471 C 236.78 -0.8933 1.74684 0
M  V30 2472 O 235.905 -1.69876 1.34056 0
M  V30 2473 C 236.5 1.06668 3.2157 0
M  V30 2474 C 235.059 0.79675 3.67871 0
M  V30 2475 C 234.206 1.23427 2.48316 0
M  V30 2476 H 237.157 1.09365 1.15 0
M  V30 2477 H 237.178 0.407455 3.78312 0
M  V30 2478 H 236.69 2.14726 3.23287 0
M  V30 2479 H 234.791 -0.270679 3.71616 0
M  V30 2480 H 234.904 1.40343 4.58084 0
M  V30 2481 H 233.268 0.653036 2.46186 0
M  V30 2482 H 234.051 2.32316 2.52753 0
M  V30 2483 N 236.496 -1.42363 0.676048 0
M  V30 2484 C 237.459 -2.29199 0.00766941 0
M  V30 2485 C 238.459 -1.43389 -0.727745 0
M  V30 2486 O 239.649 -1.64764 -0.56556 0
M  V30 2487 C 236.781 -3.2591 -0.999785 0
M  V30 2488 H 237.974 -2.89794 0.771988 0
M  V30 2489 H 235.527 -1.50024 0.438468 0
M  V30 2490 H 236.262 -2.70256 -1.79255 0
M  V30 2491 H 236.047 -3.89202 -0.475829 0
M  V30 2492 H 237.537 -3.91028 -1.46583 0
M  V30 2493 N 237.974 -0.419461 -1.51915 0
M  V30 2494 C 238.922 0.415502 -2.28859 0
M  V30 2495 C 239.916 1.03674 -1.3397 0
M  V30 2496 O 241.122 0.973757 -1.51387 0
M  V30 2497 H 237.497 0.152786 -0.736315 0
M  V30 2498 H 239.468 -0.254531 -2.97312 0
M  V30 2499 C 238.217 1.51425 -3.12995 0
M  V30 2500 H 237.54 1.04556 -3.85886 0
M  V30 2501 H 238.98 2.07208 -3.6992 0
M  V30 2502 C 237.439 2.48745 -2.27217 0
M  V30 2503 O 237.969 3.52871 -1.9195 0
M  V30 2504 N 236.175 2.19202 -1.90785 0
M  V30 2505 H 235.722 1.34556 -2.19664 0
M  V30 2506 H 235.68 2.84561 -1.33687 0
M  V30 2507 N 239.452 1.56882 -0.150215 0
M  V30 2508 C 240.362 2.20494 0.801222 0
M  V30 2509 C 241.378 1.19019 1.26927 0
M  V30 2510 O 242.554 1.51607 1.32579 0
M  V30 2511 C 239.619 2.81659 2.02161 0
M  V30 2512 C 238.68 3.9827 1.60249 0
M  V30 2513 C 237.913 4.56508 2.7647 0
M  V30 2514 O 238.136 4.13627 3.92771 0
M  V30 2515 O 237.07 5.46719 2.51757 0
M  V30 2516 H 240.896 3.02315 0.289717 0
M  V30 2517 H 238.481 1.49202 0.0769684 0
M  V30 2518 H 240.363 3.20522 2.73576 0
M  V30 2519 H 239.038 2.02849 2.52258 0
M  V30 2520 H 237.945 3.64117 0.858477 0
M  V30 2521 H 239.278 4.78609 1.14864 0
M  V30 2522 N 240.93 -0.123565 1.57115 0
M  V30 2523 C 242.179 -0.830704 1.83799 0
M  V30 2524 C 242.492 -1.81259 0.735158 0
M  V30 2525 O 243.698 -2.56558 0.888278 0
M  V30 2526 C 242.154 -1.52802 3.25852 0
M  V30 2527 C 241.762 -0.587356 4.44133 0
M  V30 2528 C 243.506 -2.22056 3.61789 0
M  V30 2529 C 241.413 -1.28764 5.77212 0
M  V30 2530 H 240.343 -0.313967 0.685522 0
M  V30 2531 H 242.994 -0.0834359 1.8331 0
M  V30 2532 H 241.376 -2.32175 3.20797 0
M  V30 2533 H 242.55 0.172829 4.60476 0
M  V30 2534 H 240.865 -0.00201892 4.164 0
M  V30 2535 H 243.462 -2.75131 4.58483 0
M  V30 2536 H 243.805 -2.99644 2.88997 0
M  V30 2537 H 244.338 -1.49576 3.68608 0
M  V30 2538 H 241.077 -0.55314 6.53162 0
M  V30 2539 H 240.597 -2.01995 5.64764 0
M  V30 2540 H 242.276 -1.8221 6.20813 0
M  V30 2541 N 242.408 -1.52605 -0.393616 0
M  V30 2542 C 243.355 -1.77055 -1.48054 0
M  V30 2543 C 244.325 -0.61358 -1.54352 0
M  V30 2544 O 245.51 -0.852806 -1.70681 0
M  V30 2545 C 242.65 -1.94108 -2.85335 0
M  V30 2546 C 241.763 -3.21792 -2.88226 0
M  V30 2547 C 240.898 -3.29188 -4.16904 0
M  V30 2548 C 239.937 -4.51013 -4.13828 0
M  V30 2549 N 239.074 -4.55716 -5.34105 0
M  V30 2550 H 243.914 -2.69815 -1.26506 0
M  V30 2551 H 241.451 -1.33683 -0.61379 0
M  V30 2552 H 243.409 -2.01979 -3.65049 0
M  V30 2553 H 242.039 -1.04713 -3.05344 0
M  V30 2554 H 241.091 -3.23015 -2.00911 0
M  V30 2555 H 242.403 -4.11557 -2.8182 0
M  V30 2556 H 241.557 -3.36216 -5.05018 0
M  V30 2557 H 240.296 -2.37389 -4.26026 0
M  V30 2558 H 239.301 -4.44115 -3.24102 0
M  V30 2559 H 240.526 -5.44123 -4.06333 0
M  V30 2560 H 238.472 -3.66807 -5.43865 0
M  V30 2561 H 238.389 -5.39346 -5.29756 0
M  V30 2562 H 239.657 -4.66993 -6.2413 0
M  V30 2563 N 243.887 0.651787 -1.4349 0
M  V30 2564 C 244.819 1.77725 -1.44729 0
M  V30 2565 C 245.832 1.59141 -0.343231 0
M  V30 2566 O 247.021 1.67835 -0.607751 0
M  V30 2567 C 244.121 3.15172 -1.24579 0
M  V30 2568 C 243.294 3.60402 -2.47849 0
M  V30 2569 C 242.353 4.76656 -2.22902 0
M  V30 2570 O 241.379 4.86022 -2.96263 0
M  V30 2571 N 242.581 5.66958 -1.24656 0
M  V30 2572 H 245.346 1.77141 -2.41746 0
M  V30 2573 H 242.907 0.835678 -1.38665 0
M  V30 2574 H 244.899 3.90634 -1.0577 0
M  V30 2575 H 243.469 3.1052 -0.360015 0
M  V30 2576 H 242.689 2.75369 -2.82073 0
M  V30 2577 H 243.977 3.87368 -3.29884 0
M  V30 2578 H 243.375 5.62065 -0.640265 0
M  V30 2579 H 241.932 6.42135 -1.1183 0
M  V30 2580 N 245.365 1.30045 0.890287 0
M  V30 2581 C 246.781 1.08261 1.17268 0
M  V30 2582 C 246.981 -0.160063 2.00863 0
M  V30 2583 O 246.037 -0.855181 2.37577 0
M  V30 2584 C 247.35 2.34323 1.8845 0
M  V30 2585 C 248.898 2.39735 2.01237 0
M  V30 2586 C 249.373 3.65625 2.7583 0
M  V30 2587 N 250.864 3.66402 2.83379 0
M  V30 2588 C 251.599 4.60498 3.41657 0
M  V30 2589 N 251.095 5.64933 4.01026 0
M  V30 2590 N 252.888 4.48051 3.39421 0
M  V30 2591 H 245.039 2.09777 0.332762 0
M  V30 2592 H 247.302 0.92446 0.209948 0
M  V30 2593 H 247.008 3.2498 1.34465 0
M  V30 2594 H 246.882 2.4256 2.88867 0
M  V30 2595 H 249.269 1.4956 2.54393 0
M  V30 2596 H 249.35 2.35476 0.999232 0
M  V30 2597 H 248.994 4.56156 2.23347 0
M  V30 2598 H 248.924 3.67144 3.77509 0
M  V30 2599 H 251.415 2.90896 2.41222 0
M  V30 2600 H 251.728 6.32841 4.43545 0
M  V30 2601 H 250.073 5.68732 3.99461 0
M  V30 2602 H 253.264 3.65649 2.92264 0
M  V30 2603 H 253.437 5.21565 3.84544 0
M  V30 2604 N 246.843 -1.10192 1.12674 0
M  V30 2605 C 248.09 -1.82205 0.883606 0
M  V30 2606 C 248.418 -1.8532 -0.590492 0
M  V30 2607 O 247.673 -1.31137 -1.45264 0
M  V30 2608 C 247.972 -3.28552 1.4067 0
M  V30 2609 C 247.638 -3.45582 2.89627 0
M  V30 2610 C 246.3 -3.49937 3.30299 0
M  V30 2611 C 248.652 -3.50768 3.85501 0
M  V30 2612 C 245.98 -3.57049 4.65546 0
M  V30 2613 C 248.332 -3.59414 5.20581 0
M  V30 2614 C 246.996 -3.62034 5.60792 0
M  V30 2615 H 246.266 -0.666735 0.323334 0
M  V30 2616 H 248.913 -1.29868 1.40736 0
M  V30 2617 H 247.218 -3.83473 0.80347 0
M  V30 2618 H 248.915 -3.82788 1.19475 0
M  V30 2619 H 245.505 -3.42871 2.57172 0
M  V30 2620 H 249.689 -3.46651 3.55171 0
M  V30 2621 H 244.945 -3.57361 4.96088 0
M  V30 2622 H 249.119 -3.62371 5.94693 0
M  V30 2623 H 246.746 -3.67298 6.6558 0
M  V30 2624 N 248.321 -0.919034 -1.28029 0
M  V30 2625 C 249.598 -0.473668 -1.89778 0
M  V30 2626 C 249.978 1.04783 -1.83259 0
M  V30 2627 O 249.326 1.8982 -1.27202 0
M  V30 2628 C 249.536 -1.00998 -3.34066 0
M  V30 2629 C 250.884 -1.06525 -4.1102 0
M  V30 2630 O 251.908 -0.958996 -3.43048 0
M  V30 2631 O 250.767 -1.22776 -5.3253 0
M  V30 2632 H 247.861 -0.15098 -0.813101 0
M  V30 2633 H 250.407 -1.01016 -1.36359 0
M  V30 2634 H 249.179 -2.05392 -3.33061 0
M  V30 2635 H 248.802 -0.454626 -3.94992 0
M  V30 2636 N 249.799 1.42003 -0.683588 0
M  V30 2637 C 250.731 2.29183 0.0283068 0
M  V30 2638 C 251.744 1.4415 0.756611 0
M  V30 2639 O 252.933 1.67779 0.609306 0
M  V30 2640 C 250.033 3.21765 1.06398 0
M  V30 2641 C 249.206 4.35496 0.407723 0
M  V30 2642 C 248.265 5.08737 1.34437 0
M  V30 2643 O 247.291 5.62948 0.841318 0
M  V30 2644 N 248.493 5.15075 2.67728 0
M  V30 2645 H 251.258 2.9092 -0.720105 0
M  V30 2646 H 248.819 1.53025 -0.528682 0
M  V30 2647 H 250.811 3.6763 1.69204 0
M  V30 2648 H 249.381 2.61418 1.71404 0
M  V30 2649 H 248.601 3.92165 -0.400012 0
M  V30 2650 H 249.889 5.08776 -0.0490956 0
M  V30 2651 H 249.287 4.72457 3.11129 0
M  V30 2652 H 247.844 5.64556 3.2576 0
M  V30 2653 N 251.277 0.427512 1.51691 0
M  V30 2654 C 252.554 -0.201684 1.94557 0
M  V30 2655 C 252.934 -1.60981 1.36559 0
M  V30 2656 O 252.282 -2.21814 0.548702 0
M  V30 2657 C 252.492 -0.189394 3.48486 0
M  V30 2658 C 253.84 -0.39978 4.22714 0
M  V30 2659 O 254.864 -0.267945 3.55191 0
M  V30 2660 O 253.723 -0.661249 5.42485 0
M  V30 2661 H 250.817 -0.135261 0.815864 0
M  V30 2662 H 253.363 0.484782 1.62628 0
M  V30 2663 H 252.135 0.795431 3.8313 0
M  V30 2664 H 251.758 -0.919187 3.86829 0
M  V30 2665 N 252.755 -1.56801 0.158532 0
M  V30 2666 C 253.983 -2.00859 -0.496303 0
M  V30 2667 C 254.398 -1.03871 -1.57659 0
M  V30 2668 O 253.755 -0.0375165 -1.82461 0
M  V30 2669 C 253.806 -3.4479 -1.08638 0
M  V30 2670 O 253.527 -4.38072 -0.0492322 0
M  V30 2671 C 255.028 -4.04185 -1.8207 0
M  V30 2672 H 252.248 -0.65864 -0.128199 0
M  V30 2673 H 254.792 -2.02885 0.256506 0
M  V30 2674 H 252.947 -3.43579 -1.78975 0
M  V30 2675 H 253.361 -5.2227 -0.483102 0
M  V30 2676 H 254.835 -5.06857 -2.18633 0
M  V30 2677 H 255.312 -3.45549 -2.71095 0
M  V30 2678 H 255.918 -4.0906 -1.16405 0
M  V30 2679 N 254.233 0.115231 -1.57178 0
M  V30 2680 C 255.482 0.820945 -1.84237 0
M  V30 2681 C 255.795 1.80866 -0.744761 0
M  V30 2682 O 257.001 2.56083 -0.901871 0
M  V30 2683 C 255.457 1.51072 -3.26658 0
M  V30 2684 C 255.065 0.563795 -4.44438 0
M  V30 2685 C 256.809 2.20134 -3.62962 0
M  V30 2686 C 254.716 1.25701 -5.77887 0
M  V30 2687 H 253.646 0.310328 -0.687177 0
M  V30 2688 H 256.297 0.0737134 -1.83352 0
M  V30 2689 H 254.679 2.30471 -3.22024 0
M  V30 2690 H 255.853 -0.197247 -4.60378 0
M  V30 2691 H 254.168 -0.0200638 -4.16395 0
M  V30 2692 H 256.765 2.72696 -4.59936 0
M  V30 2693 H 257.108 2.98107 -2.90582 0
M  V30 2694 H 257.641 1.47619 -3.69396 0
M  V30 2695 H 254.38 0.518493 -6.53446 0
M  V30 2696 H 253.9 1.98997 -5.65827 0
M  V30 2697 H 255.579 1.78915 -6.2177 0
M  V30 2698 N 255.711 1.52812 0.385517 0
M  V30 2699 C 256.659 1.78482 1.49155 0
M  V30 2700 C 257.653 0.652914 1.56312 0
M  V30 2701 O 258.859 0.835464 1.59436 0
M  V30 2702 H 255.234 0.5648 0.496493 0
M  V30 2703 H 257.205 2.71095 1.24699 0
M  V30 2704 C 255.954 1.97378 2.86247 0
M  V30 2705 H 255.277 2.83907 2.81491 0
M  V30 2706 H 256.717 2.19327 3.62866 0
M  V30 2707 C 255.176 0.74728 3.28508 0
M  V30 2708 O 255.706 -0.0736232 4.01633 0
M  V30 2709 N 253.912 0.576396 2.84826 0
M  V30 2710 H 253.459 1.24555 2.25486 0
M  V30 2711 H 253.417 -0.24288 3.1346 0
M  V30 2712 N 257.189 -0.644168 1.43834 0
M  V30 2713 C 258.121 -1.76955 1.45669 0
M  V30 2714 C 259.134 -1.58956 0.351666 0
M  V30 2715 O 260.323 -1.6751 0.616644 0
M  V30 2716 C 257.423 -3.14507 1.26248 0
M  V30 2717 C 256.596 -3.59083 2.49757 0
M  V30 2718 C 255.655 -4.75467 2.25427 0
M  V30 2719 O 254.681 -4.84444 2.98836 0
M  V30 2720 N 255.883 -5.66289 1.27661 0
M  V30 2721 H 258.648 -1.75856 2.42682 0
M  V30 2722 H 256.209 -0.828312 1.39106 0
M  V30 2723 H 258.201 -3.90067 1.0784 0
M  V30 2724 H 256.771 -3.10325 0.376478 0
M  V30 2725 H 255.991 -2.7387 2.8353 0
M  V30 2726 H 257.279 -3.85613 3.31934 0
M  V30 2727 H 256.677 -5.61718 0.670064 0
M  V30 2728 H 255.234 -6.41533 1.15234 0
M  V30 2729 N 258.668 -1.30515 -0.883378 0
M  V30 2730 C 259.598 -1.19607 -2.00541 0
M  V30 2731 C 260.579 -0.086346 -1.69881 0
M  V30 2732 O 261.764 -0.268654 -1.92333 0
M  V30 2733 C 258.894 -0.888758 -3.35736 0
M  V30 2734 C 257.848 -1.95659 -3.8066 0
M  V30 2735 C 257.174 -1.50224 -5.13164 0
M  V30 2736 C 258.474 -3.36788 -3.99213 0
M  V30 2737 H 260.168 -2.13476 -2.09925 0
M  V30 2738 H 257.714 -1.02775 -1.00863 0
M  V30 2739 H 259.667 -0.799094 -4.13754 0
M  V30 2740 H 258.391 0.0856125 -3.26488 0
M  V30 2741 H 257.05 -2.03591 -3.04871 0
M  V30 2742 H 256.698 -0.516092 -5.00345 0
M  V30 2743 H 256.398 -2.2165 -5.44192 0
M  V30 2744 H 257.922 -1.42639 -5.93706 0
M  V30 2745 H 259.336 -3.31605 -4.67665 0
M  V30 2746 H 257.733 -4.06314 -4.41621 0
M  V30 2747 H 258.803 -3.78561 -3.03017 0
M  V30 2748 N 260.146 1.09593 -1.13257 0
M  V30 2749 C 261.076 2.18214 -0.830946 0
M  V30 2750 C 262.057 1.68812 0.208966 0
M  V30 2751 O 263.242 1.9408 0.0682666 0
M  V30 2752 C 260.372 3.46051 -0.294296 0
M  V30 2753 C 259.326 4.08778 -1.26826 0
M  V30 2754 C 258.652 5.31419 -0.591449 0
M  V30 2755 C 259.952 4.51476 -2.62615 0
M  V30 2756 H 261.646 2.43703 -1.73923 0
M  V30 2757 H 259.192 1.17128 -0.837675 0
M  V30 2758 H 261.145 4.2134 -0.0709606 0
M  V30 2759 H 259.869 3.20079 0.649366 0
M  V30 2760 H 258.528 3.35505 -1.47756 0
M  V30 2761 H 258.176 5.01727 0.357633 0
M  V30 2762 H 257.876 5.74341 -1.24123 0
M  V30 2763 H 259.4 6.09433 -0.377355 0
M  V30 2764 H 260.814 5.17999 -2.45663 0
M  V30 2765 H 259.211 5.05277 -3.23752 0
M  V30 2766 H 260.281 3.63962 -3.20406 0
M  V30 2767 N 261.624 0.925811 1.2754 0
M  V30 2768 C 262.901 0.483726 1.89524 0
M  V30 2769 C 263.281 -1.03809 1.83812 0
M  V30 2770 O 262.629 -1.89143 1.28207 0
M  V30 2771 C 262.839 1.02769 3.33526 0
M  V30 2772 C 264.187 1.08703 4.10449 0
M  V30 2773 O 265.211 0.977175 3.42534 0
M  V30 2774 O 264.07 1.25599 5.31871 0
M  V30 2775 H 261.164 0.15529 0.812289 0
M  V30 2776 H 263.71 1.01738 1.35822 0
M  V30 2777 H 262.482 2.07155 3.31967 0
M  V30 2778 H 262.105 0.475567 3.94746 0
M  V30 2779 N 263.102 -1.41638 0.69111 0
M  V30 2780 C 264.351 -2.00526 0.217318 0
M  V30 2781 C 264.664 -1.55353 -1.18848 0
M  V30 2782 O 265.87 -2.06769 -1.75951 0
M  V30 2783 C 264.326 -3.58313 0.337639 0
M  V30 2784 C 263.934 -4.12469 1.74852 0
M  V30 2785 C 265.678 -4.24431 -0.0766066 0
M  V30 2786 C 263.585 -5.62675 1.82074 0
M  V30 2787 H 262.515 -0.750008 0.0774893 0
M  V30 2788 H 265.166 -1.6217 0.858661 0
M  V30 2789 H 263.548 -3.9425 -0.371879 0
M  V30 2790 H 264.722 -3.8796 2.48644 0
M  V30 2791 H 263.037 -3.58861 2.11205 0
M  V30 2792 H 265.634 -5.34683 -0.0430284 0
M  V30 2793 H 265.977 -4.01101 -1.1146 0
M  V30 2794 H 266.51 -3.93512 0.582476 0
M  V30 2795 H 263.249 -5.90826 2.83911 0
M  V30 2796 H 262.769 -5.89124 1.12661 0
M  V30 2797 H 264.448 -6.27371 1.58159 0
M  V30 2798 N 264.58 -0.43555 -1.51462 0
M  V30 2799 C 265.527 0.376797 -2.27703 0
M  V30 2800 C 266.497 1.01838 -1.31219 0
M  V30 2801 O 267.682 1.03762 -1.60119 0
M  V30 2802 C 264.822 1.47301 -3.12084 0
M  V30 2803 C 263.935 0.849744 -4.2356 0
M  V30 2804 C 263.07 1.92086 -4.95254 0
M  V30 2805 C 262.109 1.27593 -5.98654 0
M  V30 2806 N 261.246 2.28833 -6.63762 0
M  V30 2807 H 266.086 -0.279734 -2.96684 0
M  V30 2808 H 263.623 -0.149795 -1.46335 0
M  V30 2809 H 265.581 2.11984 -3.59331 0
M  V30 2810 H 264.211 2.0992 -2.45221 0
M  V30 2811 H 263.263 0.0912529 -3.80291 0
M  V30 2812 H 264.575 0.338878 -4.97648 0
M  V30 2813 H 263.729 2.64435 -5.46039 0
M  V30 2814 H 262.468 2.46545 -4.20793 0
M  V30 2815 H 261.473 0.537893 -5.47162 0
M  V30 2816 H 262.698 0.738693 -6.7507 0
M  V30 2817 H 260.644 2.82375 -5.92115 0
M  V30 2818 H 260.561 1.82632 -7.33608 0
M  V30 2819 H 261.829 3.00671 -7.19178 0
M  V30 2820 N 266.058 1.56714 -0.166846 0
M  V30 2821 C 267.304 1.97813 0.473473 0
M  V30 2822 C 267.659 1.05095 1.61161 0
M  V30 2823 O 266.952 0.0897541 1.9139 0
M  V30 2824 C 267.146 3.42889 1.00806 0
M  V30 2825 C 266.975 4.49635 -0.0767392 0
M  V30 2826 C 265.745 5.02566 -0.524894 0
M  V30 2827 C 267.943 5.06793 -0.875504 0
M  V30 2828 N 265.925 5.9294 -1.59047 0
M  V30 2829 C 267.296 5.93565 -1.79111 0
M  V30 2830 C 269.351 4.89306 -0.921083 0
M  V30 2831 C 268.054 6.64721 -2.74843 0
M  V30 2832 C 270.08 5.61179 -1.86633 0
M  V30 2833 C 269.442 6.47675 -2.76942 0
M  V30 2834 H 265.541 0.769093 0.141489 0
M  V30 2835 H 268.125 1.92874 -0.266031 0
M  V30 2836 H 266.296 3.48382 1.7171 0
M  V30 2837 H 268.028 3.71008 1.61664 0
M  V30 2838 H 264.783 4.73439 -0.123432 0
M  V30 2839 H 265.207 6.42831 -2.12361 0
M  V30 2840 H 269.849 4.22136 -0.23692 0
M  V30 2841 H 267.567 7.31107 -3.44249 0
M  V30 2842 H 271.153 5.49636 -1.90764 0
M  V30 2843 H 270.033 7.02313 -3.48893 0
M  V30 2844 N 267.536 -0.106894 1.57237 0
M  V30 2845 C 268.782 -0.808678 1.86633 0
M  V30 2846 C 269.137 -1.76917 0.756178 0
M  V30 2847 O 268.43 -1.90055 -0.242834 0
M  V30 2848 C 268.624 -1.58628 3.20268 0
M  V30 2849 C 268.453 -0.702592 4.44178 0
M  V30 2850 C 267.223 -0.352808 5.04067 0
M  V30 2851 C 269.421 -0.0148031 5.14298 0
M  V30 2852 N 267.403 0.540279 6.11518 0
M  V30 2853 C 268.774 0.736809 6.15606 0
M  V30 2854 C 270.829 0.0603524 4.97863 0
M  V30 2855 C 269.532 1.55654 7.02257 0
M  V30 2856 C 271.558 0.866942 5.85011 0
M  V30 2857 C 270.92 1.60671 6.85831 0
M  V30 2858 H 267.019 -0.27246 0.733001 0
M  V30 2859 H 269.603 -0.0717858 1.94568 0
M  V30 2860 H 267.774 -2.29413 3.13408 0
M  V30 2861 H 269.506 -2.23434 3.3743 0
M  V30 2862 H 266.261 -0.697802 4.68431 0
M  V30 2863 H 266.685 0.979029 6.69884 0
M  V30 2864 H 271.327 -0.497236 4.19866 0
M  V30 2865 H 269.045 2.12524 7.79653 0
M  V30 2866 H 272.631 0.927612 5.74358 0
M  V30 2867 H 271.511 2.2208 7.52097 0
M  V30 2868 N 269.014 -1.53014 -0.377408 0
M  V30 2869 C 269.962 -1.7927 -1.48206 0
M  V30 2870 C 270.956 -0.661195 -1.55963 0
M  V30 2871 O 272.162 -0.843908 -1.58991 0
M  V30 2872 H 268.537 -0.567425 -0.493491 0
M  V30 2873 H 270.508 -2.71753 -1.2326 0
M  V30 2874 C 269.257 -1.98894 -2.85196 0
M  V30 2875 H 268.58 -2.85395 -2.79981 0
M  V30 2876 H 270.02 -2.21249 -3.61698 0
M  V30 2877 C 268.479 -0.764691 -3.28107 0
M  V30 2878 O 269.009 0.0523226 -4.01666 0
M  V30 2879 N 267.215 -0.591493 -2.84517 0
M  V30 2880 H 266.762 -1.25749 -2.24822 0
M  V30 2881 H 266.72 0.226253 -3.13585 0
M  V30 2882 N 270.492 0.636531 -1.44174 0
M  V30 2883 C 271.738 1.39649 -1.47884 0
M  V30 2884 C 272.093 1.92098 -0.107747 0
M  V30 2885 O 271.386 1.70391 0.876208 0
M  V30 2886 C 271.58 2.58309 -2.47005 0
M  V30 2887 C 271.409 2.17476 -3.93617 0
M  V30 2888 C 270.179 2.0501 -4.61843 0
M  V30 2889 C 272.377 1.76722 -4.82984 0
M  V30 2890 N 270.359 1.57683 -5.93304 0
M  V30 2891 C 271.73 1.40601 -6.03847 0
M  V30 2892 C 273.785 1.64054 -4.70096 0
M  V30 2893 C 272.488 0.930787 -7.13252 0
M  V30 2894 C 274.514 1.17937 -5.79521 0
M  V30 2895 C 273.876 0.827625 -6.99521 0
M  V30 2896 H 269.975 0.506027 -0.596205 0
M  V30 2897 H 272.559 0.730791 -1.80465 0
M  V30 2898 H 270.73 3.22514 -2.16423 0
M  V30 2899 H 272.462 3.25083 -2.41045 0
M  V30 2900 H 269.217 2.25294 -4.16581 0
M  V30 2901 H 269.641 1.36334 -6.63131 0
M  V30 2902 H 274.283 1.89882 -3.77762 0
M  V30 2903 H 272.001 0.660012 -8.054 0
M  V30 2904 H 275.587 1.08601 -5.71574 0
M  V30 2905 H 274.467 0.476231 -7.82753 0
M  V30 2906 N 271.97 1.30982 0.876444 0
M  V30 2907 C 273.381 1.18277 1.44456 0
M  V30 2908 C 273.732 -0.213265 1.95037 0
M  V30 2909 O 272.857 -1.11057 1.85729 0
M  V30 2910 C 273.452 2.1411 2.62569 0
M  V30 2911 C 272.011 2.05358 3.15444 0
M  V30 2912 C 271.158 2.03706 1.88146 0
M  V30 2913 H 274.109 1.43127 0.685584 0
M  V30 2914 H 274.13 1.72692 3.39054 0
M  V30 2915 H 273.642 3.15706 2.25724 0
M  V30 2916 H 271.743 1.06934 3.56926 0
M  V30 2917 H 271.856 2.94156 3.78166 0
M  V30 2918 H 270.22 1.48629 2.06837 0
M  V30 2919 H 271.003 3.07047 1.53547 0
M  V30 2920 N 273.449 -1.08991 1.13837 0
M  V30 2921 C 274.698 -1.80631 0.897509 0
M  V30 2922 C 275.011 -1.86872 -0.57777 0
M  V30 2923 O 276.217 -2.54866 -0.935701 0
M  V30 2924 C 274.673 -3.24517 1.55618 0
M  V30 2925 C 274.281 -3.26529 3.0673 0
M  V30 2926 C 276.025 -4.00882 1.3962 0
M  V30 2927 C 273.932 -4.64965 3.65461 0
M  V30 2928 H 272.862 -0.67691 0.332129 0
M  V30 2929 H 275.513 -1.2246 1.3666 0
M  V30 2930 H 273.895 -3.82778 1.01476 0
M  V30 2931 H 275.069 -2.78008 3.67489 0
M  V30 2932 H 273.384 -2.63656 3.22296 0
M  V30 2933 H 275.981 -5.03167 1.80906 0
M  V30 2934 H 276.324 -4.14896 0.341578 0
M  V30 2935 H 276.857 -3.49075 1.90766 0
M  V30 2936 H 273.596 -4.56153 4.70749 0
M  V30 2937 H 273.116 -5.13792 3.09481 0
M  V30 2938 H 274.795 -5.3394 3.654 0
M  V30 2939 N 274.927 -0.932562 -1.27047 0
M  V30 2940 C 276.204 -0.49377 -1.89265 0
M  V30 2941 C 276.584 1.02833 -1.8436 0
M  V30 2942 O 275.932 1.88461 -1.29209 0
M  V30 2943 C 276.142 -1.04536 -3.32976 0
M  V30 2944 C 277.49 -1.10879 -4.09867 0
M  V30 2945 O 278.514 -0.995327 -3.42011 0
M  V30 2946 O 277.373 -1.28417 -5.31198 0
M  V30 2947 H 274.467 -0.159596 -0.811454 0
M  V30 2948 H 277.013 -1.02457 -1.3528 0
M  V30 2949 H 275.785 -2.08913 -3.30864 0
M  V30 2950 H 275.408 -0.496494 -3.94488 0
M  V30 2951 N 276.405 1.4127 -0.698611 0
M  V30 2952 C 277.654 2.00408 -0.227949 0
M  V30 2953 C 277.967 1.55981 1.18023 0
M  V30 2954 O 279.173 2.07699 1.74852 0
M  V30 2955 C 277.629 3.58129 -0.356636 0
M  V30 2956 C 277.237 4.11536 -1.77037 0
M  V30 2957 C 278.981 4.24466 0.0540969 0
M  V30 2958 C 276.888 5.61701 -1.85055 0
M  V30 2959 H 275.818 0.749586 -0.0814657 0
M  V30 2960 H 278.469 1.61713 -0.867249 0
M  V30 2961 H 276.851 3.94442 0.350965 0
M  V30 2962 H 278.025 3.86636 -2.50698 0
M  V30 2963 H 276.34 3.57736 -2.13105 0
M  V30 2964 H 278.937 5.34698 0.0146723 0
M  V30 2965 H 279.28 4.01687 1.09332 0
M  V30 2966 H 279.813 3.93198 -0.603337 0
M  V30 2967 H 276.552 5.89312 -2.8704 0
M  V30 2968 H 276.072 5.88519 -1.15783 0
M  V30 2969 H 277.751 6.26524 -1.61484 0
M  V30 2970 N 277.883 0.443576 1.51229 0
M  V30 2971 C 279.132 -0.122332 2.01329 0
M  V30 2972 C 279.445 -1.43237 1.33201 0
M  V30 2973 O 280.651 -2.0816 1.74304 0
M  V30 2974 C 279.107 -0.268551 3.58897 0
M  V30 2975 C 278.715 1.03142 4.35965 0
M  V30 2976 C 280.459 -0.787894 4.17124 0
M  V30 2977 C 278.366 0.850504 5.85252 0
M  V30 2978 H 277.296 -0.0494929 0.752374 0
M  V30 2979 H 279.947 0.574289 1.74282 0
M  V30 2980 H 278.329 -1.02832 3.82415 0
M  V30 2981 H 279.503 1.80001 4.24189 0
M  V30 2982 H 277.818 1.47977 3.89219 0
M  V30 2983 H 280.415 -0.939841 5.26375 0
M  V30 2984 H 280.758 -1.77201 3.76703 0
M  V30 2985 H 281.291 -0.0862669 3.97706 0
M  V30 2986 H 278.03 1.80718 6.30096 0
M  V30 2987 H 277.55 0.121825 5.99676 0
M  V30 2988 H 279.229 0.506163 6.45017 0
M  V30 2989 N 279.361 -1.56624 0.175154 0
M  V30 2990 C 280.309 -2.19468 -0.770495 0
M  V30 2991 C 281.303 -1.15985 -1.23466 0
M  V30 2992 O 282.509 -1.34176 -1.19987 0
M  V30 2993 H 278.884 -0.703095 -0.266761 0
M  V30 2994 H 280.855 -2.97613 -0.216542 0
M  V30 2995 C 279.604 -2.85264 -1.98796 0
M  V30 2996 H 278.927 -3.64623 -1.63983 0
M  V30 2997 H 280.367 -3.327 -2.62843 0
M  V30 2998 C 278.826 -1.85239 -2.81404 0
M  V30 2999 O 279.356 -1.34024 -3.78682 0
M  V30 3000 N 277.562 -1.53911 -2.46495 0
M  V30 3001 H 277.109 -1.95751 -1.67449 0
M  V30 3002 H 277.067 -0.872382 -3.02054 0
M  V30 3003 N 280.839 0.0985539 -1.57292 0
M  V30 3004 C 281.749 1.13824 -2.05137 0
M  V30 3005 C 282.765 1.44076 -0.975604 0
M  V30 3006 O 283.941 1.54786 -1.28853 0
M  V30 3007 C 281.006 2.43969 -2.46333 0
M  V30 3008 C 280.067 2.2093 -3.68087 0
M  V30 3009 C 279.3 3.44869 -4.0731 0
M  V30 3010 O 279.523 4.52972 -3.46659 0
M  V30 3011 O 278.457 3.34661 -5.00285 0
M  V30 3012 H 282.283 0.761881 -2.93988 0
M  V30 3013 H 279.868 0.310818 -1.46131 0
M  V30 3014 H 281.75 3.20609 -2.73473 0
M  V30 3015 H 280.425 2.81038 -1.60621 0
M  V30 3016 H 279.332 1.42081 -3.46069 0
M  V30 3017 H 280.665 1.88755 -4.54568 0
M  V30 3018 N 282.317 1.53212 0.369288 0
M  V30 3019 C 283.265 1.80054 1.47253 0
M  V30 3020 C 284.259 0.669456 1.55611 0
M  V30 3021 O 285.465 0.852328 1.58541 0
M  V30 3022 H 281.84 0.570034 0.490475 0
M  V30 3023 H 283.811 2.72403 1.21817 0
M  V30 3024 C 282.56 2.00403 2.84137 0
M  V30 3025 H 281.883 2.86876 2.78464 0
M  V30 3026 H 283.323 2.23164 3.60519 0
M  V30 3027 C 281.782 0.782081 3.27697 0
M  V30 3028 O 282.312 -0.0310205 4.01688 0
M  V30 3029 N 280.518 0.606573 2.84199 0
M  V30 3030 H 280.065 1.26939 2.24152 0
M  V30 3031 H 280.023 -0.20962 3.137 0
M  V30 3032 N 283.795 -0.628877 1.44509 0
M  V30 3033 C 285.044 -1.38437 1.4669 0
M  V30 3034 C 285.357 -1.95322 0.104272 0
M  V30 3035 O 286.563 -2.715 0.00362163 0
M  V30 3036 C 285.019 -2.50659 2.5826 0
M  V30 3037 C 284.627 -2.00277 4.0074 0
M  V30 3038 C 286.371 -3.27844 2.69664 0
M  V30 3039 C 284.278 -3.09854 5.0373 0
M  V30 3040 H 283.208 -0.520245 0.545766 0
M  V30 3041 H 285.859 -0.676313 1.70582 0
M  V30 3042 H 284.241 -3.2405 2.27612 0
M  V30 3043 H 285.415 -1.33736 4.40966 0
M  V30 3044 H 283.73 -1.35901 3.93599 0
M  V30 3045 H 286.327 -4.09534 3.43781 0
M  V30 3046 H 286.67 -3.77471 1.75559 0
M  V30 3047 H 287.203 -2.61543 2.99733 0
M  V30 3048 H 283.942 -2.65168 5.99472 0
M  V30 3049 H 283.462 -3.7503 4.68095 0
M  V30 3050 H 285.141 -3.74592 5.27532 0
M  V30 3051 N 285.273 -1.31445 -0.869486 0
M  V30 3052 C 286.55 -1.11795 -1.60503 0
M  V30 3053 C 286.93 0.327168 -2.08549 0
M  V30 3054 O 286.278 1.32135 -1.8642 0
M  V30 3055 C 286.488 -2.13258 -2.76265 0
M  V30 3056 C 287.836 -2.45805 -3.46215 0
M  V30 3057 O 288.86 -2.11688 -2.86473 0
M  V30 3058 O 287.719 -3.04228 -4.5399 0
M  V30 3059 H 284.813 -0.430421 -0.706163 0
M  V30 3060 H 287.359 -1.42925 -0.914907 0
M  V30 3061 H 286.131 -3.10461 -2.3818 0
M  V30 3062 H 285.754 -1.83035 -3.52964 0
M  V30 3063 N 286.751 1.08385 -1.14413 0
M  V30 3064 C 287.698 2.15311 -0.831265 0
M  V30 3065 C 288.668 1.64751 0.211292 0
M  V30 3066 O 289.853 1.90627 0.0811674 0
M  V30 3067 C 286.993 3.43658 -0.315143 0
M  V30 3068 C 286.106 4.08064 -1.41802 0
M  V30 3069 C 285.241 5.24207 -0.859126 0
M  V30 3070 C 284.28 5.80554 -1.93967 0
M  V30 3071 N 283.417 6.88042 -1.39793 0
M  V30 3072 H 288.257 2.41415 -1.74708 0
M  V30 3073 H 285.794 1.18474 -0.871909 0
M  V30 3074 H 287.752 4.172 0.00230884 0
M  V30 3075 H 286.382 3.17839 0.56378 0
M  V30 3076 H 285.434 3.3228 -1.85187 0
M  V30 3077 H 286.746 4.45962 -2.23427 0
M  V30 3078 H 285.9 6.04689 -0.49359 0
M  V30 3079 H 284.639 4.87699 -0.011932 0
M  V30 3080 H 283.644 4.98725 -2.31415 0
M  V30 3081 H 284.869 6.19121 -2.79046 0
M  V30 3082 H 282.815 6.53493 -0.572919 0
M  V30 3083 H 282.732 7.24767 -2.15054 0
M  V30 3084 H 284 7.72255 -1.0603 0
M  V30 3085 N 288.23 0.939286 1.26551 0
M  V30 3086 C 289.479 0.581601 1.93133 0
M  V30 3087 C 289.792 -0.883224 1.74524 0
M  V30 3088 O 290.998 -1.3502 2.35546 0
M  V30 3089 C 289.454 0.989425 3.46032 0
M  V30 3090 C 289.062 2.47573 3.73379 0
M  V30 3091 C 290.806 0.703544 4.18629 0
M  V30 3092 C 288.713 2.82235 5.19709 0
M  V30 3093 H 287.643 0.213803 0.723052 0
M  V30 3094 H 290.294 1.14167 1.4366 0
M  V30 3095 H 288.676 0.357902 3.94379 0
M  V30 3096 H 289.85 3.15614 3.35744 0
M  V30 3097 H 288.165 2.73471 3.1401 0
M  V30 3098 H 290.762 0.938869 5.26393 0
M  V30 3099 H 291.105 -0.359639 4.14744 0
M  V30 3100 H 291.638 1.2947 3.76141 0
M  V30 3101 H 288.377 3.87509 5.28694 0
M  V30 3102 H 287.897 2.18854 5.58447 0
M  V30 3103 H 289.576 2.70599 5.87695 0
M  V30 3104 N 289.708 -1.40897 0.706093 0
M  V30 3105 C 290.638 -2.33418 0.0620085 0
M  V30 3106 C 291.619 -1.52385 -0.755827 0
M  V30 3107 O 292.804 -1.80886 -0.706674 0
M  V30 3108 C 289.934 -3.36293 -0.867445 0
M  V30 3109 C 288.888 -4.27716 -0.155932 0
M  V30 3110 C 288.214 -5.2105 -1.20046 0
M  V30 3111 C 289.514 -5.12944 0.984149 0
M  V30 3112 H 291.208 -2.87527 0.83477 0
M  V30 3113 H 288.754 -1.38249 0.402875 0
M  V30 3114 H 290.707 -3.99949 -1.32735 0
M  V30 3115 H 289.431 -2.80556 -1.67199 0
M  V30 3116 H 288.09 -3.65498 0.284047 0
M  V30 3117 H 287.738 -4.61624 -1.99781 0
M  V30 3118 H 287.438 -5.83056 -0.729328 0
M  V30 3119 H 288.962 -5.87584 -1.66066 0
M  V30 3120 H 290.376 -5.70109 0.604048 0
M  V30 3121 H 288.773 -5.83945 1.38304 0
M  V30 3122 H 289.843 -4.49485 1.81911 0
M  V30 3123 N 291.186 -0.45159 -1.50991 0
M  V30 3124 C 292.463 0.170707 -1.94854 0
M  V30 3125 C 292.843 1.58788 -1.39103 0
M  V30 3126 O 292.191 2.20913 -0.583921 0
M  V30 3127 C 292.401 0.133929 -3.48743 0
M  V30 3128 C 293.749 0.33248 -4.23296 0
M  V30 3129 O 294.773 0.211403 -3.55572 0
M  V30 3130 O 293.632 0.57486 -5.43468 0
M  V30 3131 H 290.726 0.122264 -0.817912 0
M  V30 3132 H 293.272 -0.510594 -1.61836 0
M  V30 3133 H 292.044 -0.856283 -3.81816 0
M  V30 3134 H 291.667 0.857529 -3.88242 0
M  V30 3135 N 292.664 1.56529 -0.183458 0
M  V30 3136 C 293.612 2.19873 0.758845 0
M  V30 3137 C 294.606 1.16638 1.22849 0
M  V30 3138 O 295.812 1.3481 1.19274 0
M  V30 3139 H 292.187 0.7045 0.263029 0
M  V30 3140 H 294.158 2.97724 0.200755 0
M  V30 3141 C 292.907 2.86314 1.9728 0
M  V30 3142 H 292.23 3.65487 1.62047 0
M  V30 3143 H 293.67 3.3409 2.61075 0
M  V30 3144 C 292.129 1.86729 2.80418 0
M  V30 3145 O 292.659 1.36031 3.77966 0
M  V30 3146 N 290.865 1.55216 2.45675 0
M  V30 3147 H 290.412 1.96636 1.66409 0
M  V30 3148 H 290.37 0.888388 3.01588 0
M  V30 3149 N 294.142 -0.090211 1.57342 0
M  V30 3150 C 295.367 -0.810082 1.90925 0
M  V30 3151 C 295.792 -1.71248 0.778187 0
M  V30 3152 O 295.15 -1.79278 -0.269991 0
M  V30 3153 C 295.198 -1.59529 3.23393 0
M  V30 3154 O 294.302 -2.70461 3.11327 0
M  V30 3155 H 293.643 -0.222231 0.625707 0
M  V30 3156 H 296.173 -0.0639716 2.045 0
M  V30 3157 H 296.183 -1.97847 3.5682 0
M  V30 3158 H 294.858 -0.933055 4.05299 0
M  V30 3159 H 293.435 -2.35135 2.89423 0
M  V30 3160 N 295.62 -1.53406 -0.361157 0
M  V30 3161 C 296.869 -1.69022 -1.10066 0
M  V30 3162 C 297.182 -0.450838 -1.90333 0
M  V30 3163 O 298.388 -0.487617 -2.67085 0
M  V30 3164 C 296.844 -2.98812 -2.00598 0
M  V30 3165 C 296.452 -4.30027 -1.25621 0
M  V30 3166 C 298.196 -3.23795 -2.74513 0
M  V30 3167 C 296.103 -5.50903 -2.1508 0
M  V30 3168 H 295.033 -0.629776 -0.414606 0
M  V30 3169 H 297.684 -1.79907 -0.361348 0
M  V30 3170 H 296.066 -2.8174 -2.78278 0
M  V30 3171 H 297.24 -4.57745 -0.529739 0
M  V30 3172 H 295.555 -4.11522 -0.635496 0
M  V30 3173 H 298.152 -4.11289 -3.41681 0
M  V30 3174 H 298.495 -2.40045 -3.40123 0
M  V30 3175 H 299.028 -3.41561 -2.03914 0
M  V30 3176 H 295.767 -6.37143 -1.54041 0
M  V30 3177 H 295.287 -5.27459 -2.85565 0
M  V30 3178 H 296.966 -5.85865 -2.74538 0
M  V30 3179 N 297.098 0.621204 -1.44841 0
M  V30 3180 C 298.347 1.37658 -1.47422 0
M  V30 3181 C 298.66 1.95264 -0.114629 0
M  V30 3182 O 299.866 2.71494 -0.0180199 0
M  V30 3183 C 298.322 2.49285 -2.59586 0
M  V30 3184 C 297.93 1.98149 -4.01797 0
M  V30 3185 C 299.674 3.26409 -2.71399 0
M  V30 3186 C 297.581 3.07178 -5.05367 0
M  V30 3187 H 296.511 0.517344 -0.548517 0
M  V30 3188 H 299.162 0.667257 -1.70938 0
M  V30 3189 H 297.544 3.22839 -2.29328 0
M  V30 3190 H 298.718 1.31395 -4.41669 0
M  V30 3191 H 297.033 1.33812 -3.94314 0
M  V30 3192 H 299.63 4.07706 -3.45948 0
M  V30 3193 H 299.973 3.76535 -1.77559 0
M  V30 3194 H 300.506 2.5995 -3.01116 0
M  V30 3195 H 297.245 2.61985 -6.00869 0
M  V30 3196 H 296.765 3.72542 -4.70077 0
M  V30 3197 H 298.444 3.71789 -5.29511 0
M  V30 3198 N 298.576 1.31904 0.862503 0
M  V30 3199 C 299.992 1.10724 1.14945 0
M  V30 3200 C 300.192 -0.117421 2.01158 0
M  V30 3201 O 299.248 -0.804595 2.39338 0
M  V30 3202 C 300.561 2.38267 1.83437 0
M  V30 3203 C 302.109 2.43949 1.96106 0
M  V30 3204 C 302.584 3.71394 2.68013 0
M  V30 3205 N 304.075 3.72331 2.75543 0
M  V30 3206 C 304.81 4.67641 3.31812 0
M  V30 3207 N 304.306 5.73313 3.88953 0
M  V30 3208 N 306.099 4.5515 3.29841 0
M  V30 3209 H 298.25 2.10436 0.288191 0
M  V30 3210 H 300.513 0.928705 0.190292 0
M  V30 3211 H 300.219 3.27759 1.27542 0
M  V30 3212 H 300.093 2.48633 2.83657 0
M  V30 3213 H 302.48 1.54922 2.51164 0
M  V30 3214 H 302.561 2.37543 0.949059 0
M  V30 3215 H 302.205 4.60791 2.13621 0
M  V30 3216 H 302.135 3.75069 3.69636 0
M  V30 3217 H 304.626 2.95947 2.34997 0
M  V30 3218 H 304.939 6.42107 4.30022 0
M  V30 3219 H 303.284 5.77077 3.87308 0
M  V30 3220 H 306.475 3.71766 2.84443 0
M  V30 3221 H 306.648 5.29604 3.73394 0
M  V30 3222 N 300.054 -1.07777 1.14986 0
M  V30 3223 C 300.964 -2.18404 0.856546 0
M  V30 3224 C 301.98 -1.73211 -0.165485 0
M  V30 3225 O 303.156 -2.01399 0.00755219 0
M  V30 3226 C 300.221 -3.44977 0.34526 0
M  V30 3227 C 299.282 -4.0476 1.43065 0
M  V30 3228 C 298.515 -5.25291 0.943663 0
M  V30 3229 O 298.738 -5.70004 -0.212426 0
M  V30 3230 O 297.672 -5.76638 1.72547 0
M  V30 3231 H 301.498 -2.45978 1.78125 0
M  V30 3232 H 299.083 -1.17033 0.928631 0
M  V30 3233 H 300.965 -4.21348 0.0663671 0
M  V30 3234 H 299.64 -3.18965 -0.551631 0
M  V30 3235 H 298.547 -3.29949 1.76309 0
M  V30 3236 H 299.88 -4.35035 2.30229 0
M  V30 3237 N 301.532 -0.945985 -1.26051 0
M  V30 3238 C 302.778 -0.597002 -1.93814 0
M  V30 3239 C 303.111 0.862484 -1.73997 0
M  V30 3240 O 302.386 1.61769 -1.07986 0
M  V30 3241 C 302.669 -0.945937 -3.47454 0
M  V30 3242 C 302.522 -2.46052 -3.76535 0
M  V30 3243 C 303.841 -0.464785 -4.37639 0
M  V30 3244 H 300.96 -0.218366 -0.703907 0
M  V30 3245 H 303.602 -1.18107 -1.48831 0
M  V30 3246 H 301.752 -0.448902 -3.85898 0
M  V30 3247 H 303.424 -3.03065 -3.47778 0
M  V30 3248 H 301.667 -2.90194 -3.22444 0
M  V30 3249 H 302.338 -2.65517 -4.83947 0
M  V30 3250 H 304.814 -0.891016 -4.06448 0
M  V30 3251 H 303.69 -0.737712 -5.4392 0
M  V30 3252 H 303.951 0.635274 -4.37512 0
M  V30 3253 N 303.011 1.40521 -0.713556 0
M  V30 3254 C 304.26 2.00155 -0.249192 0
M  V30 3255 C 304.573 1.57224 1.16362 0
M  V30 3256 O 305.779 2.09542 1.72639 0
M  V30 3257 C 304.235 3.5773 -0.3946 0
M  V30 3258 C 303.843 4.09635 -1.81392 0
M  V30 3259 C 305.587 4.24499 0.00907364 0
M  V30 3260 C 303.494 5.59707 -1.91003 0
M  V30 3261 H 302.424 0.74868 -0.0894114 0
M  V30 3262 H 305.075 1.60784 -0.884352 0
M  V30 3263 H 303.457 3.94792 0.30911 0
M  V30 3264 H 304.631 3.83955 -2.54785 0
M  V30 3265 H 302.946 3.55456 -2.16888 0
M  V30 3266 H 305.543 5.34683 -0.0420404 0
M  V30 3267 H 305.886 4.02824 1.05065 0
M  V30 3268 H 306.419 3.92536 -0.645007 0
M  V30 3269 H 303.158 5.86234 -2.93275 0
M  V30 3270 H 302.678 5.87258 -1.22019 0
M  V30 3271 H 304.357 6.24776 -1.6812 0
M  V30 3272 N 304.489 0.459591 1.5075 0
M  V30 3273 C 305.735 -0.091664 2.03193 0
M  V30 3274 C 306.09 -1.38432 1.3362 0
M  V30 3275 O 305.383 -1.86257 0.449322 0
M  V30 3276 C 305.577 -0.342866 3.55752 0
M  V30 3277 C 305.406 0.923888 4.40107 0
M  V30 3278 C 304.176 1.46388 4.83631 0
M  V30 3279 C 306.374 1.81617 4.81165 0
M  V30 3280 N 304.356 2.68086 5.52271 0
M  V30 3281 C 305.727 2.87907 5.49099 0
M  V30 3282 C 307.782 1.82793 4.63132 0
M  V30 3283 C 306.485 3.95347 6.0091 0
M  V30 3284 C 308.511 2.89182 5.15876 0
M  V30 3285 C 307.873 3.94191 5.83774 0
M  V30 3286 H 303.972 0.00619247 0.781975 0
M  V30 3287 H 306.556 0.625233 1.84388 0
M  V30 3288 H 304.727 -1.0288 3.74527 0
M  V30 3289 H 306.459 -0.887445 3.9485 0
M  V30 3290 H 303.214 1.01466 4.62603 0
M  V30 3291 H 303.638 3.29857 5.91205 0
M  V30 3292 H 308.28 1.0293 4.1008 0
M  V30 3293 H 305.998 4.76035 6.53006 0
M  V30 3294 H 309.584 2.91061 5.0376 0
M  V30 3295 H 308.464 4.75161 6.23853 0
M  V30 3296 N 305.967 -1.56429 0.191757 0
M  V30 3297 C 306.914 -2.18936 -0.730454 0
M  V30 3298 C 307.884 -1.13557 -1.21219 0
M  V30 3299 O 309.069 -1.41794 -1.27668 0
M  V30 3300 C 306.209 -2.85013 -1.9458 0
M  V30 3301 C 305.322 -4.04909 -1.50574 0
M  V30 3302 C 304.457 -4.58853 -2.67634 0
M  V30 3303 C 303.496 -5.71114 -2.20217 0
M  V30 3304 N 302.633 -6.19478 -3.30442 0
M  V30 3305 H 307.473 -2.97389 -0.190664 0
M  V30 3306 H 305.01 -1.46869 -0.0823694 0
M  V30 3307 H 306.968 -3.21492 -2.65893 0
M  V30 3308 H 305.598 -2.09129 -2.45896 0
M  V30 3309 H 304.65 -3.74115 -0.688605 0
M  V30 3310 H 305.962 -4.86113 -1.11784 0
M  V30 3311 H 305.116 -4.97619 -3.47074 0
M  V30 3312 H 303.855 -3.76749 -3.09696 0
M  V30 3313 H 302.86 -5.31879 -1.3923 0
M  V30 3314 H 304.085 -6.55033 -1.79189 0
M  V30 3315 H 302.031 -5.40297 -3.72041 0
M  V30 3316 H 301.948 -6.95725 -2.9581 0
M  V30 3317 H 303.216 -6.62898 -4.10106 0
M  V30 3318 N 307.445 0.0818655 -1.57387 0
M  V30 3319 C 308.392 1.09834 -2.0299 0
M  V30 3320 C 309.362 1.39043 -0.908639 0
M  V30 3321 O 310.547 1.50282 -1.17559 0
M  V30 3322 C 307.687 2.40971 -2.47037 0
M  V30 3323 C 306.8 2.18379 -3.7274 0
M  V30 3324 C 305.935 3.43008 -4.0561 0
M  V30 3325 C 304.974 3.15736 -5.24383 0
M  V30 3326 N 304.111 4.32667 -5.52941 0
M  V30 3327 H 308.951 0.702472 -2.89602 0
M  V30 3328 H 306.488 0.33531 -1.43227 0
M  V30 3329 H 308.446 3.1752 -2.70623 0
M  V30 3330 H 307.076 2.78379 -1.63417 0
M  V30 3331 H 306.128 1.32569 -3.56552 0
M  V30 3332 H 307.44 1.94227 -4.59431 0
M  V30 3333 H 306.594 4.27958 -4.30043 0
M  V30 3334 H 305.333 3.70225 -3.17466 0
M  V30 3335 H 304.338 2.2918 -4.99757 0
M  V30 3336 H 305.563 2.8985 -6.14136 0
M  V30 3337 H 303.509 4.59935 -4.67756 0
M  V30 3338 H 303.426 4.11753 -6.34031 0
M  V30 3339 H 304.694 5.18644 -5.81918 0
M  V30 3340 O 308.962 1.59916 0.225637 0
M  V30 3341 H 309.653 1.73205 0.867161 0
M  V30 END ATOM
M  V30 BEGIN BOND
M  V30 END BOND
M  V30 END CTAB
M  END
$$$$
