drugbank_target|P50993 Sodium/potassium-transporting ATPase subunit alpha-2 (DB01092)
 OpenBabel12092121013D

  0  0  0     0  0            999 V3000
M  V30 BEGIN CTAB
M  V30 COUNTS 15827 15967 0 0 0
M  V30 BEGIN ATOM
M  V30 1 H -0.908 1.98254 -0.117106 0
M  V30 2 N 0 1.576 0 0
M  V30 3 C 0.933 2.03868 1.02534 0
M  V30 4 C 1.911 0.928543 1.3348 0
M  V30 5 O 3.095 1.19667 1.45644 0
M  V30 6 C 0.222 2.43627 2.35294 0
M  V30 7 C -0.732 3.65373 2.2001 0
M  V30 8 S 0.101 5.13292 1.52614 0
M  V30 9 C 1.257 5.56322 2.86805 0
M  V30 10 H 1.49 2.90518 0.631377 0
M  V30 11 H -0.977 1.52953 0.210867 0
M  V30 12 H 0.981 2.67203 3.11629 0
M  V30 13 H -0.358 1.57376 2.7183 0
M  V30 14 H -1.165 3.90944 3.18086 0
M  V30 15 H -1.563 3.418 1.51819 0
M  V30 16 H 0.729 5.58782 3.83104 0
M  V30 17 H 1.672 6.56266 2.65933 0
M  V30 18 H 2.08 4.83886 2.90714 0
M  V30 19 N 1.4781 -0.272755 1.55222 0
M  V30 20 C 2.7261 -1.00234 1.75492 0
M  V30 21 C 3.0471 -1.8681 0.5592 0
M  V30 22 O 2.3171 -1.91215 -0.425882 0
M  V30 23 H 0.8971 -0.373076 0.647166 0
M  V30 24 H 3.5591 -0.296926 1.92625 0
M  V30 25 H 2.6551 -1.63913 2.65592 0
M  V30 26 N 2.9562 -1.48159 -0.537278 0
M  V30 27 C 4.3722 -1.34118 -0.865129 0
M  V30 28 C 4.5722 -0.346678 -1.98495 0
M  V30 29 O 3.6282 0.234715 -2.51407 0
M  V30 30 C 4.9412 -2.73963 -1.23954 0
M  V30 31 C 6.4892 -2.82397 -1.34984 0
M  V30 32 C 6.9642 -4.22928 -1.75772 0
M  V30 33 N 8.4552 -4.25566 -1.82887 0
M  V30 34 C 9.1902 -5.31235 -2.15817 0
M  V30 35 N 8.6862 -6.47189 -2.47222 0
M  V30 36 N 10.4792 -5.18624 -2.16761 0
M  V30 37 H 2.6302 -2.1144 0.201715 0
M  V30 38 H 4.8932 -0.947598 0.0275949 0
M  V30 39 H 4.5992 -3.48264 -0.490381 0
M  V30 40 H 4.4732 -3.0702 -2.19132 0
M  V30 41 H 6.8602 -2.08356 -2.08978 0
M  V30 42 H 6.9412 -2.5297 -0.379448 0
M  V30 43 H 6.5852 -4.97482 -1.02341 0
M  V30 44 H 6.5152 -4.49794 -2.73848 0
M  V30 45 H 9.0062 -3.41924 -1.60924 0
M  V30 46 H 9.3192 -7.23564 -2.71433 0
M  V30 47 H 7.6642 -6.50476 -2.44757 0
M  V30 48 H 10.8552 -4.27056 -1.91679 0
M  V30 49 H 11.0282 -6.01078 -2.42093 0
M  V30 50 N 4.4343 0.785586 -1.36625 0
M  V30 51 C 5.6823 1.54057 -1.30808 0
M  V30 52 C 6.0033 1.94683 0.111157 0
M  V30 53 O 5.2733 1.65241 1.05224 0
M  V30 54 H 3.8533 0.571354 -0.481211 0
M  V30 55 H 6.5153 0.935821 -1.70963 0
M  V30 56 H 5.6113 2.44637 -1.93801 0
M  V30 57 N 5.9124 1.20967 1.01018 0
M  V30 58 C 6.8754 0.965918 2.07853 0
M  V30 59 C 7.8754 -0.0610545 1.60684 0
M  V30 60 O 9.0654 0.175681 1.73312 0
M  V30 61 C 6.1974 0.455513 3.37843 0
M  V30 62 H 7.3904 1.91365 2.3091 0
M  V30 63 H 4.9434 1.02594 1.17916 0
M  V30 64 H 5.6784 -0.497381 3.20463 0
M  V30 65 H 5.4634 1.19622 3.73407 0
M  V30 66 H 6.9534 0.304667 4.16487 0
M  V30 67 N 7.3905 -1.2043 1.01659 0
M  V30 68 C 8.6385 -1.89423 0.704522 0
M  V30 69 C 8.9595 -1.79231 -0.768197 0
M  V30 70 O 8.2295 -1.1947 -1.55254 0
M  V30 71 H 6.8095 -0.701178 0.257602 0
M  V30 72 H 9.4715 -1.4626 1.28818 0
M  V30 73 H 8.5675 -2.96052 0.987916 0
M  V30 74 N 8.8686 -0.792821 -1.36206 0
M  V30 75 C 10.2846 -0.474903 -1.52371 0
M  V30 76 C 10.4846 1.00622 -1.74578 0
M  V30 77 O 9.5406 1.79162 -1.77924 0
M  V30 78 C 10.8536 -1.3083 -2.70747 0
M  V30 79 C 12.4016 -1.30234 -2.84619 0
M  V30 80 C 12.8766 -2.11956 -4.06004 0
M  V30 81 N 14.3676 -2.09419 -4.13156 0
M  V30 82 C 15.1026 -2.69419 -5.06163 0
M  V30 83 N 14.5986 -3.3829 -6.04592 0
M  V30 84 N 16.3916 -2.59134 -4.98804 0
M  V30 85 H 8.5426 -1.75222 -1.20046 0
M  V30 86 H 10.8056 -0.745024 -0.586211 0
M  V30 87 H 10.5116 -2.35881 -2.6087 0
M  V30 88 H 10.3856 -0.95196 -3.6499 0
M  V30 89 H 12.7726 -0.259748 -2.93955 0
M  V30 90 H 12.8536 -1.69847 -1.91274 0
M  V30 91 H 12.4976 -3.16248 -3.97429 0
M  V30 92 H 12.4276 -1.69711 -4.98503 0
M  V30 93 H 14.9186 -1.59297 -3.42685 0
M  V30 94 H 15.2316 -3.81394 -6.7213 0
M  V30 95 H 13.5766 -3.42393 -6.04807 0
M  V30 96 H 16.7676 -2.04927 -4.20859 0
M  V30 97 H 16.9406 -3.06185 -5.711 0
M  V30 98 N 10.3467 1.47872 -0.545128 0
M  V30 99 C 11.2567 2.33633 0.212746 0
M  V30 100 C 12.2727 1.4744 0.923983 0
M  V30 101 O 13.4487 1.80393 0.895572 0
M  V30 102 C 10.5137 3.23884 1.23693 0
M  V30 103 C 9.5747 4.25961 0.534417 0
M  V30 104 C 8.8077 5.11899 1.5098 0
M  V30 105 O 9.0307 5.00077 2.7437 0
M  V30 106 O 7.9647 5.92831 1.0409 0
M  V30 107 H 11.7907 2.99714 -0.490416 0
M  V30 108 H 9.3757 1.46235 -0.305871 0
M  V30 109 H 11.2577 3.79666 1.82843 0
M  V30 110 H 9.9327 2.60446 1.92222 0
M  V30 111 H 8.8397 3.73972 -0.0979679 0
M  V30 112 H 10.1727 4.92079 -0.109213 0
M  V30 113 N 11.8248 0.280983 1.55075 0
M  V30 114 C 13.0548 -0.336804 2.03836 0
M  V30 115 C 13.4628 -1.49577 1.15859 0
M  V30 116 O 12.8058 -1.82888 0.172503 0
M  V30 117 C 12.8678 -0.874616 3.48699 0
M  V30 118 C 12.5318 0.156478 4.56732 0
M  V30 119 C 13.5288 0.978032 5.10618 0
M  V30 120 C 11.2138 0.292409 5.01448 0
M  V30 121 C 13.2078 1.92165 6.07743 0
M  V30 122 C 10.8948 1.23949 5.98398 0
M  V30 123 C 11.8928 2.05261 6.51427 0
M  V30 124 O 11.5808 2.98367 7.4648 0
M  V30 125 H 11.3128 -0.0800885 0.671239 0
M  V30 126 H 13.8668 0.412589 2.01213 0
M  V30 127 H 12.0968 -1.67418 3.4858 0
M  V30 128 H 13.7858 -1.40612 3.80766 0
M  V30 129 H 14.5518 0.883782 4.7688 0
M  V30 130 H 10.4308 -0.330498 4.59814 0
M  V30 131 H 13.9748 2.55672 6.49059 0
M  V30 132 H 9.8718 1.33454 6.31554 0
M  V30 133 H 10.6398 2.93116 7.64215 0
M  V30 134 N 13.3029 -1.57598 0.00835791 0
M  V30 135 C 14.5279 -1.95617 -0.689103 0
M  V30 136 C 14.9529 -0.883753 -1.66046 0
M  V30 137 O 14.3109 0.157352 -1.80616 0
M  V30 138 C 14.3589 -3.32736 -1.38994 0
M  V30 139 O 13.4629 -3.27631 -2.50463 0
M  V30 140 H 12.8039 -0.638379 -0.182668 0
M  V30 141 H 15.3339 -2.045 0.064036 0
M  V30 142 H 15.3439 -3.68494 -1.75147 0
M  V30 143 H 14.0189 -4.1034 -0.677778 0
M  V30 144 H 12.5959 -3.03561 -2.16576 0
M  V30 145 N 14.781 0.264519 -1.55364 0
M  V30 146 C 16.192 0.834936 -1.6699 0
M  V30 147 C 16.543 1.86718 -0.602552 0
M  V30 148 O 15.668 2.14899 0.254425 0
M  V30 149 C 16.263 1.5212 -3.02729 0
M  V30 150 C 14.822 2.03954 -3.16354 0
M  V30 151 C 13.969 0.884498 -2.62815 0
M  V30 152 H 16.92 0.0406869 -1.58648 0
M  V30 153 H 16.941 2.38853 -2.96191 0
M  V30 154 H 16.453 0.769668 -3.80392 0
M  V30 155 H 14.554 2.82041 -2.43482 0
M  V30 156 H 14.667 2.24902 -4.23032 0
M  V30 157 H 13.031 1.2802 -2.20188 0
M  V30 158 H 13.814 0.14634 -3.42988 0
M  V30 159 N 16.2591 1.48442 0.529413 0
M  V30 160 C 17.2221 1.62524 1.61612 0
M  V30 161 C 18.2221 0.498509 1.52877 0
M  V30 162 O 19.4121 0.76431 1.56537 0
M  V30 163 C 16.5441 1.59597 3.01233 0
M  V30 164 H 17.7371 2.59423 1.50465 0
M  V30 165 H 15.2901 1.37047 0.751514 0
M  V30 166 H 16.0251 0.641781 3.17886 0
M  V30 167 H 15.8101 2.41397 3.08982 0
M  V30 168 H 17.3001 1.72646 3.80241 0
M  V30 169 N 17.7372 -0.778329 1.37039 0
M  V30 170 C 18.7002 -1.87301 1.32102 0
M  V30 171 C 19.7002 -1.59198 0.226405 0
M  V30 172 O 20.8902 -1.67403 0.481861 0
M  V30 173 C 18.0222 -3.24309 1.05055 0
M  V30 174 H 19.2152 -1.93093 2.29467 0
M  V30 175 H 16.7682 -0.977358 1.21973 0
M  V30 176 H 17.5032 -3.24196 0.0819373 0
M  V30 177 H 17.2882 -3.46098 1.84279 0
M  V30 178 H 18.7782 -4.04382 1.04234 0
M  V30 179 N 19.2153 -1.21501 -1.00376 0
M  V30 180 C 20.4433 -1.059 -1.77744 0
M  V30 181 C 20.8583 0.391125 -1.84704 0
M  V30 182 O 20.2153 1.27133 -1.30933 0
M  V30 183 C 20.2663 -1.65111 -3.21591 0
M  V30 184 O 19.9873 -3.0445 -3.15027 0
M  V30 185 C 21.4883 -1.54637 -4.15454 0
M  V30 186 H 18.7083 -0.371825 -0.558558 0
M  V30 187 H 21.2523 -1.60865 -1.26264 0
M  V30 188 H 19.4073 -1.14235 -3.70175 0
M  V30 189 H 19.8213 -3.3278 -4.0541 0
M  V30 190 H 21.2953 -2.00808 -5.14179 0
M  V30 191 H 21.7723 -0.501022 -4.36333 0
M  V30 192 H 22.3783 -2.04767 -3.72761 0
M  V30 193 N 20.6934 1.19889 -1.02296 0
M  V30 194 C 21.9214 1.9339 -0.735399 0
M  V30 195 C 22.3364 1.75148 0.704887 0
M  V30 196 O 21.6934 1.06954 1.47875 0
M  V30 197 C 21.7444 3.45313 -1.06962 0
M  V30 198 O 21.4654 3.62964 -2.45334 0
M  V30 199 C 22.9664 4.35948 -0.804021 0
M  V30 200 H 20.1864 0.61448 -0.269546 0
M  V30 201 H 22.7304 1.522 -1.36585 0
M  V30 202 H 20.8854 3.84359 -0.484455 0
M  V30 203 H 21.2994 4.56886 -2.57595 0
M  V30 204 H 22.7734 5.41174 -1.0879 0
M  V30 205 H 23.2504 4.3842 0.261691 0
M  V30 206 H 23.8564 4.02574 -1.37164 0
M  V30 207 N 22.1715 0.800033 1.35784 0
M  V30 208 C 23.1345 0.211565 2.28221 0
M  V30 209 C 24.1345 -0.59728 1.49296 0
M  V30 210 O 25.3245 -0.416721 1.69142 0
M  V30 211 C 22.4565 -0.705846 3.33513 0
M  V30 212 H 23.6495 1.02677 2.81776 0
M  V30 213 H 21.2025 0.570211 1.45528 0
M  V30 214 H 21.9375 -1.54498 2.85133 0
M  V30 215 H 21.7225 -0.127655 3.91892 0
M  V30 216 H 23.2125 -1.11211 4.02519 0
M  V30 217 N 23.6496 -1.47581 0.552962 0
M  V30 218 C 24.5596 -2.33743 -0.200353 0
M  V30 219 C 25.5756 -1.47928 -0.916151 0
M  V30 220 O 26.7516 -1.80865 -0.885993 0
M  V30 221 C 23.8166 -3.24536 -1.21973 0
M  V30 222 C 22.8776 -4.26238 -0.511819 0
M  V30 223 C 22.1106 -5.12693 -1.48263 0
M  V30 224 O 22.3336 -5.01525 -2.71714 0
M  V30 225 O 21.2676 -5.93375 -1.00945 0
M  V30 226 H 25.0936 -2.9945 0.506304 0
M  V30 227 H 22.6786 -1.46071 0.313622 0
M  V30 228 H 24.5606 -3.80631 -1.80827 0
M  V30 229 H 23.2356 -2.61462 -1.90839 0
M  V30 230 H 22.1426 -3.73914 0.117799 0
M  V30 231 H 23.4756 -4.92014 0.135308 0
M  V30 232 N 25.1277 -0.289203 -1.54924 0
M  V30 233 C 26.0757 0.607966 -2.24514 0
M  V30 234 C 27.0697 1.14655 -1.24702 0
M  V30 235 O 28.2757 1.09856 -1.4259 0
M  V30 236 H 24.6507 0.21464 -0.720718 0
M  V30 237 H 26.6217 -0.00164182 -2.984 0
M  V30 238 C 25.3707 1.77406 -2.99036 0
M  V30 239 H 24.6937 1.36884 -3.75637 0
M  V30 240 H 26.1337 2.37814 -3.51028 0
M  V30 241 C 24.5927 2.67107 -2.05318 0
M  V30 242 O 25.1227 3.6787 -1.61353 0
M  V30 243 N 23.3287 2.34582 -1.71521 0
M  V30 244 H 22.8757 1.52688 -2.07471 0
M  V30 245 H 22.8337 2.94867 -1.0909 0
M  V30 246 N 26.6058 1.57591 -0.0167156 0
M  V30 247 C 27.8538 1.90906 0.663285 0
M  V30 248 C 28.1748 0.892509 1.73376 0
M  V30 249 O 27.4448 -0.0677623 1.95783 0
M  V30 250 H 26.0248 0.704637 0.247983 0
M  V30 251 H 28.6868 1.94803 -0.0615909 0
M  V30 252 H 27.7828 2.9116 1.12393 0
M  V30 253 N 28.0839 -0.256276 1.55502 0
M  V30 254 C 29.3319 -0.983672 1.76545 0
M  V30 255 C 29.6529 -1.86206 0.578982 0
M  V30 256 O 28.9229 -1.91656 -0.405577 0
M  V30 257 H 27.5029 -0.366191 0.651086 0
M  V30 258 H 30.1649 -0.276479 1.92929 0
M  V30 259 H 29.2609 -1.61087 2.67315 0
M  V30 260 N 29.562 -1.4872 -0.521534 0
M  V30 261 C 30.81 -1.56857 -1.27437 0
M  V30 262 C 31.131 -0.247982 -1.93417 0
M  V30 263 O 30.401 0.731151 -1.81744 0
M  V30 264 H 28.981 -0.577885 -0.473347 0
M  V30 265 H 31.643 -1.85233 -0.606205 0
M  V30 266 H 30.739 -2.35402 -2.0492 0
M  V30 267 N 31.0401 0.771051 -1.3745 0
M  V30 268 C 31.9871 1.88435 -1.3327 0
M  V30 269 C 32.9571 1.64914 -0.198136 0
M  V30 270 O 34.1421 1.86821 -0.387606 0
M  V30 271 C 31.2821 3.25509 -1.14622 0
M  V30 272 C 30.3951 3.60979 -2.37314 0
M  V30 273 C 29.5301 4.87265 -2.11533 0
M  V30 274 C 28.5691 5.15469 -3.30088 0
M  V30 275 N 27.7061 6.32944 -3.03853 0
M  V30 276 H 32.5461 1.91344 -2.28455 0
M  V30 277 H 30.0831 0.935466 -1.13523 0
M  V30 278 H 32.0411 4.04582 -1.01831 0
M  V30 279 H 30.6711 3.21974 -0.230837 0
M  V30 280 H 29.7231 2.76885 -2.60842 0
M  V30 281 H 31.0351 3.77759 -3.25729 0
M  V30 282 H 30.1891 5.74244 -1.95777 0
M  V30 283 H 28.9281 4.7259 -1.20457 0
M  V30 284 H 27.9331 4.26966 -3.46382 0
M  V30 285 H 29.1581 5.32052 -4.22016 0
M  V30 286 H 27.1041 6.19625 -2.15407 0
M  V30 287 H 27.0211 6.50143 -3.85812 0
M  V30 288 H 28.2891 7.22857 -2.91716 0
M  V30 289 N 32.5182 1.22032 0.997298 0
M  V30 290 C 33.4652 0.986467 2.08656 0
M  V30 291 C 34.4352 -0.0902671 1.65855 0
M  V30 292 O 35.6202 0.0584294 1.90711 0
M  V30 293 C 32.7602 0.565569 3.40434 0
M  V30 294 C 31.8732 1.71259 3.96604 0
M  V30 295 C 31.0082 1.24011 5.16522 0
M  V30 296 C 30.0472 2.35896 5.64818 0
M  V30 297 N 29.1842 1.89726 6.7598 0
M  V30 298 H 34.0242 1.91892 2.27994 0
M  V30 299 H 31.5612 0.956199 1.11782 0
M  V30 300 H 33.5192 0.302738 4.161 0
M  V30 301 H 32.1492 -0.329879 3.2111 0
M  V30 302 H 31.2012 2.08986 3.17851 0
M  V30 303 H 32.5132 2.55436 4.28432 0
M  V30 304 H 31.6672 0.934395 5.99461 0
M  V30 305 H 30.4062 0.368487 4.86306 0
M  V30 306 H 29.4112 2.67261 4.8047 0
M  V30 307 H 30.6362 3.23567 5.97061 0
M  V30 308 H 28.5822 1.0492 6.47555 0
M  V30 309 H 28.4992 2.67471 7.07103 0
M  V30 310 H 29.7672 1.62211 7.62435 0
M  V30 311 N 33.9963 -1.19345 1.0293 0
M  V30 312 C 34.9433 -2.2258 0.610464 0
M  V30 313 C 35.9133 -1.6179 -0.375946 0
M  V30 314 O 37.0983 -1.88844 -0.272511 0
M  V30 315 C 34.2383 -3.45085 -0.0321473 0
M  V30 316 C 33.3513 -4.20258 1.00035 0
M  V30 317 C 32.4863 -5.3019 0.32746 0
M  V30 318 C 31.5253 -5.97121 1.34584 0
M  V30 319 N 30.6623 -6.98615 0.698726 0
M  V30 320 H 35.5023 -2.57764 1.49538 0
M  V30 321 H 33.0393 -1.26644 0.748311 0
M  V30 322 H 34.9973 -4.15061 -0.421966 0
M  V30 323 H 33.6273 -3.10555 -0.88064 0
M  V30 324 H 32.6793 -3.49223 1.50823 0
M  V30 325 H 33.9913 -4.66175 1.77433 0
M  V30 326 H 33.1453 -6.06587 -0.11718 0
M  V30 327 H 31.8843 -4.85345 -0.478713 0
M  V30 328 H 30.8893 -5.19474 1.80074 0
M  V30 329 H 32.1143 -6.4405 2.15352 0
M  V30 330 H 30.0603 -6.55942 -0.0873471 0
M  V30 331 H 29.9773 -7.42724 1.41058 0
M  V30 332 H 31.2453 -7.79004 0.278102 0
M  V30 333 N 35.4744 -0.807222 -1.35358 0
M  V30 334 C 36.4064 -0.175717 -2.28525 0
M  V30 335 C 37.4194 0.625354 -1.5031 0
M  V30 336 O 38.6084 0.457611 -1.72535 0
M  V30 337 C 35.7084 0.773471 -3.29956 0
M  V30 338 C 34.8814 0.0186296 -4.37396 0
M  V30 339 C 33.9404 0.886395 -5.18681 0
M  V30 340 O 32.9664 0.337106 -5.68201 0
M  V30 341 N 34.1684 2.20839 -5.36852 0
M  V30 342 H 36.9334 -0.976091 -2.83359 0
M  V30 343 H 34.4944 -0.662737 -1.47714 0
M  V30 344 H 36.4864 1.35824 -3.81227 0
M  V30 345 H 35.0564 1.47465 -2.75632 0
M  V30 346 H 34.2764 -0.747349 -3.87051 0
M  V30 347 H 35.5644 -0.501577 -5.06322 0
M  V30 348 H 34.9624 2.67858 -4.98265 0
M  V30 349 H 33.5194 2.74237 -5.91301 0
M  V30 350 N 36.9525 1.47285 -0.560781 0
M  V30 351 C 37.8995 2.30058 0.18491 0
M  V30 352 C 38.8695 1.39281 0.904986 0
M  V30 353 O 40.0545 1.68241 0.899979 0
M  V30 354 C 37.1945 3.23317 1.20666 0
M  V30 355 C 36.3075 4.29186 0.492285 0
M  V30 356 C 35.4425 5.09592 1.49964 0
M  V30 357 C 34.4815 6.07232 0.770439 0
M  V30 358 N 33.6185 6.80584 1.72479 0
M  V30 359 H 38.4585 2.93302 -0.527048 0
M  V30 360 H 35.9955 1.44568 -0.271738 0
M  V30 361 H 37.9535 3.75811 1.81168 0
M  V30 362 H 36.5835 2.61929 1.88661 0
M  V30 363 H 35.6355 3.7972 -0.227333 0
M  V30 364 H 36.9475 4.98738 -0.0787929 0
M  V30 365 H 36.1015 5.66254 2.17809 0
M  V30 366 H 34.8405 4.3995 2.10464 0
M  V30 367 H 33.8455 5.49745 0.0780846 0
M  V30 368 H 35.0705 6.78884 0.171134 0
M  V30 369 H 33.0165 6.1367 2.3183 0
M  V30 370 H 32.9335 7.46319 1.20596 0
M  V30 371 H 34.2015 7.41818 2.39428 0
M  V30 372 N 38.4306 0.297415 1.54768 0
M  V30 373 C 39.3406 -0.58983 2.27064 0
M  V30 374 C 40.3566 -1.15144 1.30453 0
M  V30 375 O 41.5326 -1.17699 1.63428 0
M  V30 376 C 38.5976 -1.74714 2.9946 0
M  V30 377 C 37.6586 -1.21997 4.11601 0
M  V30 378 C 36.8916 -2.32212 4.80535 0
M  V30 379 O 37.1146 -3.52036 4.48806 0
M  V30 380 O 36.0486 -1.99106 5.68014 0
M  V30 381 H 39.8746 -0.00348199 3.037 0
M  V30 382 H 37.4596 0.0640035 1.49263 0
M  V30 383 H 39.3416 -2.42147 3.44881 0
M  V30 384 H 38.0166 -2.32016 2.25722 0
M  V30 385 H 36.9236 -0.511458 3.70587 0
M  V30 386 H 38.2566 -0.692419 4.87305 0
M  V30 387 N 39.9087 -1.5758 0.0250728 0
M  V30 388 C 40.8557 -2.09973 -0.958129 0
M  V30 389 C 41.8257 -1.00085 -1.3256 0
M  V30 390 O 43.0107 -1.27481 -1.41962 0
M  V30 391 C 40.1507 -2.62812 -2.2366 0
M  V30 392 C 39.2637 -3.86693 -1.92594 0
M  V30 393 C 38.3987 -4.27941 -3.14707 0
M  V30 394 C 37.4377 -5.44591 -2.79442 0
M  V30 395 N 36.5747 -5.81014 -3.94167 0
M  V30 396 H 41.4147 -2.937 -0.504428 0
M  V30 397 H 38.9517 -1.45172 -0.237392 0
M  V30 398 H 40.9097 -2.91536 -2.98434 0
M  V30 399 H 39.5397 -1.81922 -2.66654 0
M  V30 400 H 38.5917 -3.64723 -1.0808 0
M  V30 401 H 39.9037 -4.71547 -1.62619 0
M  V30 402 H 39.0577 -4.58079 -3.97804 0
M  V30 403 H 37.7967 -3.41845 -3.4784 0
M  V30 404 H 36.8017 -5.1415 -1.94755 0
M  V30 405 H 38.0267 -6.32382 -2.47528 0
M  V30 406 H 35.9727 -4.97874 -4.2715 0
M  V30 407 H 35.8897 -6.60498 -3.67801 0
M  V30 408 H 37.1577 -6.15756 -4.7798 0
M  V30 409 N 41.3868 0.248026 -1.55636 0
M  V30 410 C 42.2968 1.32859 -1.93354 0
M  V30 411 C 43.3128 1.52719 -0.833838 0
M  V30 412 O 44.4888 1.66363 -1.13513 0
M  V30 413 C 41.5538 2.66337 -2.21958 0
M  V30 414 C 40.6148 2.55008 -3.45354 0
M  V30 415 C 39.8478 3.82121 -3.72584 0
M  V30 416 O 40.0708 4.83951 -3.01907 0
M  V30 417 O 39.0048 3.80822 -4.6611 0
M  V30 418 H 42.8308 1.03862 -2.85388 0
M  V30 419 H 40.4158 0.448686 -1.42503 0
M  V30 420 H 42.2978 3.45216 -2.4167 0
M  V30 421 H 40.9728 2.95068 -1.33103 0
M  V30 422 H 39.8798 1.7442 -3.30951 0
M  V30 423 H 41.2128 2.31222 -4.34508 0
M  V30 424 N 42.8649 1.48995 0.513639 0
M  V30 425 C 43.7949 1.67636 1.62544 0
M  V30 426 C 44.7759 0.525087 1.61793 0
M  V30 427 O 45.9609 0.759502 1.78732 0
M  V30 428 C 43.0909 1.73114 3.01079 0
M  V30 429 C 42.0449 2.87905 3.16693 0
M  V30 430 C 41.3709 2.78486 4.56453 0
M  V30 431 C 42.6709 4.29005 2.97913 0
M  V30 432 H 44.3649 2.60716 1.47198 0
M  V30 433 H 41.9109 1.25465 0.706714 0
M  V30 434 H 43.8639 1.84742 3.78746 0
M  V30 435 H 42.5879 0.766241 3.17484 0
M  V30 436 H 41.2469 2.75859 2.41448 0
M  V30 437 H 40.8949 1.7993 4.69717 0
M  V30 438 H 40.5949 3.55523 4.67843 0
M  V30 439 H 42.1189 2.92104 5.36197 0
M  V30 440 H 43.5329 4.41798 3.65359 0
M  V30 441 H 41.9299 5.07166 3.20785 0
M  V30 442 H 42.9999 4.44329 1.94165 0
M  V30 443 N 44.343 -0.763751 1.37857 0
M  V30 444 C 45.62 -1.51244 1.24035 0
M  V30 445 C 46 -2.10472 -0.162649 0
M  V30 446 O 45.348 -1.96206 -1.17112 0
M  V30 447 C 45.558 -2.58694 2.34261 0
M  V30 448 C 46.906 -3.25878 2.72193 0
M  V30 449 O 47.93 -2.68993 2.33497 0
M  V30 450 O 46.789 -4.2874 3.38887 0
M  V30 451 H 43.883 -0.670243 0.484462 0
M  V30 452 H 46.429 -0.800031 1.49658 0
M  V30 453 H 45.201 -2.13105 3.2818 0
M  V30 454 H 44.824 -3.37527 2.10146 0
M  V30 455 N 45.8211 -1.22559 -0.990812 0
M  V30 456 C 46.7311 -1.01394 -2.11557 0
M  V30 457 C 47.7471 0.0383962 -1.73958 0
M  V30 458 O 48.9231 -0.154787 -2.00804 0
M  V30 459 C 45.9881 -0.596569 -3.41529 0
M  V30 460 C 45.0491 -1.72276 -3.93217 0
M  V30 461 C 44.2821 -1.32521 -5.16985 0
M  V30 462 O 44.5051 -0.204909 -5.70032 0
M  V30 463 O 43.4391 -2.14247 -5.62478 0
M  V30 464 H 47.2651 -1.95633 -2.32296 0
M  V30 465 H 44.8501 -1.01172 -1.0993 0
M  V30 466 H 46.7321 -0.374263 -4.19735 0
M  V30 467 H 45.4071 0.316939 -3.22145 0
M  V30 468 H 44.3141 -1.99961 -3.16174 0
M  V30 469 H 45.6471 -2.61421 -4.17037 0
M  V30 470 N 47.2992 1.18797 -1.03562 0
M  V30 471 C 48.2292 2.24472 -0.643019 0
M  V30 472 C 49.2102 1.66433 0.351283 0
M  V30 473 O 50.3952 1.92803 0.232505 0
M  V30 474 C 47.5252 3.473 4.24935e-05 0
M  V30 475 C 46.4792 4.18055 -0.917257 0
M  V30 476 C 45.8052 5.34519 -0.138941 0
M  V30 477 C 47.1052 4.72109 -2.23407 0
M  V30 478 H 48.7992 2.57566 -1.52643 0
M  V30 479 H 46.3452 1.23806 -0.735394 0
M  V30 480 H 48.2982 4.20426 0.286383 0
M  V30 481 H 47.0222 3.13424 0.918299 0
M  V30 482 H 45.6812 3.46821 -1.1879 0
M  V30 483 H 45.3292 4.96891 0.781562 0
M  V30 484 H 45.0292 5.82794 -0.750005 0
M  V30 485 H 46.5532 6.10438 0.1405 0
M  V30 486 H 47.9672 5.36955 -2.00879 0
M  V30 487 H 46.3642 5.30897 -2.79765 0
M  V30 488 H 47.4342 3.89807 -2.88407 0
M  V30 489 N 48.7773 0.814389 1.34928 0
M  V30 490 C 49.7243 0.22822 2.29669 0
M  V30 491 C 50.6943 -0.642164 1.53184 0
M  V30 492 O 51.8793 -0.585605 1.81591 0
M  V30 493 C 49.0193 -0.61089 3.3965 0
M  V30 494 C 48.1323 0.280792 4.31086 0
M  V30 495 C 47.2673 -0.567067 5.28165 0
M  V30 496 C 46.3063 0.324531 6.11239 0
M  V30 497 N 45.4433 -0.483756 7.00431 0
M  V30 498 H 50.2833 1.04153 2.79206 0
M  V30 499 H 47.8203 0.525133 1.37407 0
M  V30 500 H 49.7783 -1.11263 4.0209 0
M  V30 501 H 48.4083 -1.38939 2.91369 0
M  V30 502 H 47.4603 0.900688 3.69583 0
M  V30 503 H 48.7723 0.966723 4.89342 0
M  V30 504 H 47.9263 -1.13363 5.96015 0
M  V30 505 H 46.6653 -1.28654 4.70425 0
M  V30 506 H 45.6703 0.903298 5.42329 0
M  V30 507 H 46.8953 1.04198 6.71059 0
M  V30 508 H 44.8413 -1.18706 6.45171 0
M  V30 509 H 44.7583 0.143965 7.55863 0
M  V30 510 H 46.0263 -1.03334 7.7262 0
M  V30 511 N 50.2554 -1.46986 0.568584 0
M  V30 512 C 51.2024 -2.30153 -0.172707 0
M  V30 513 C 52.1724 -1.39759 -0.897586 0
M  V30 514 O 53.3574 -1.68716 -0.891044 0
M  V30 515 C 50.4974 -3.23952 -1.1895 0
M  V30 516 C 49.6104 -4.29441 -0.469517 0
M  V30 517 C 48.7454 -5.1038 -1.47259 0
M  V30 518 C 47.7844 -6.07632 -0.738225 0
M  V30 519 N 46.9214 -6.8149 -1.68868 0
M  V30 520 H 51.7614 -2.93019 0.542596 0
M  V30 521 H 49.2984 -1.44422 0.279401 0
M  V30 522 H 51.2564 -3.76767 -1.79173 0
M  V30 523 H 49.8864 -2.62926 -1.87269 0
M  V30 524 H 48.9384 -3.79594 0.247467 0
M  V30 525 H 50.2504 -4.98689 0.105241 0
M  V30 526 H 49.4044 -5.67402 -2.14803 0
M  V30 527 H 48.1434 -4.4106 -2.08128 0
M  V30 528 H 47.1484 -5.49778 -0.0489293 0
M  V30 529 H 48.3734 -6.78966 -0.135129 0
M  V30 530 H 46.3194 -6.14891 -2.28573 0
M  V30 531 H 46.2364 -7.46948 -1.16636 0
M  V30 532 H 47.5044 -7.43078 -2.3549 0
M  V30 533 N 51.7335 -0.305618 -1.54608 0
M  V30 534 C 52.6435 0.57778 -2.27374 0
M  V30 535 C 53.6595 1.14451 -1.31061 0
M  V30 536 O 54.8355 1.16831 -1.6405 0
M  V30 537 C 51.9005 1.73123 -3.00382 0
M  V30 538 C 50.9615 1.19812 -4.12242 0
M  V30 539 C 50.1945 2.2966 -4.81759 0
M  V30 540 O 50.4175 3.49651 -4.50666 0
M  V30 541 O 49.3515 1.96091 -5.69062 0
M  V30 542 H 53.1775 -0.012624 -3.03697 0
M  V30 543 H 50.7625 -0.0719184 -1.49227 0
M  V30 544 H 52.6445 2.40315 -3.4616 0
M  V30 545 H 51.3195 2.30815 -2.26949 0
M  V30 546 H 50.2265 0.491798 -3.70853 0
M  V30 547 H 51.5595 0.666566 -4.87666 0
M  V30 548 N 53.2116 1.57565 -0.0334293 0
M  V30 549 C 54.4576 1.92262 0.645226 0
M  V30 550 C 54.7906 0.910543 1.71531 0
M  V30 551 O 54.0656 -0.066099 1.94388 0
M  V30 552 C 54.3486 3.37422 1.2577 0
M  V30 553 C 54.2016 4.49369 0.196891 0
M  V30 554 C 55.5206 3.82628 2.17449 0
M  V30 555 H 52.6396 0.699171 0.233085 0
M  V30 556 H 55.2816 1.89779 -0.0915694 0
M  V30 557 H 53.4316 3.39669 1.88566 0
M  V30 558 H 55.1036 4.59254 -0.433962 0
M  V30 559 H 53.3466 4.31168 -0.477137 0
M  V30 560 H 54.0176 5.47978 0.665124 0
M  V30 561 H 56.4936 3.82145 1.64634 0
M  V30 562 H 55.3696 4.84883 2.57254 0
M  V30 563 H 55.6306 3.18376 3.0674 0
M  V30 564 N 54.6897 -0.239769 1.55765 0
M  V30 565 C 55.6527 -1.28038 1.90103 0
M  V30 566 C 56.6527 -1.40723 0.778055 0
M  V30 567 O 57.8427 -1.39301 1.04599 0
M  V30 568 C 54.9747 -2.65702 2.13577 0
M  V30 569 H 56.1677 -0.988048 2.83157 0
M  V30 570 H 53.7207 -0.479382 1.48767 0
M  V30 571 H 54.4557 -3.00063 1.23015 0
M  V30 572 H 54.2407 -2.57875 2.95369 0
M  V30 573 H 55.7307 -3.40828 2.41301 0
M  V30 574 N 56.1678 -1.49265 -0.50573 0
M  V30 575 C 57.1008 -1.60183 -1.62532 0
M  V30 576 C 58.0788 -0.451107 -1.56217 0
M  V30 577 O 59.2628 -0.666016 -1.76342 0
M  V30 578 C 56.3898 -1.55238 -3.01029 0
M  V30 579 C 55.4358 -2.7545 -3.25621 0
M  V30 580 S 56.2688 -4.37174 -3.09256 0
M  V30 581 C 57.4248 -4.34866 -4.50158 0
M  V30 582 H 57.6578 -2.54894 -1.53025 0
M  V30 583 H 55.1908 -1.38098 -0.690535 0
M  V30 584 H 57.1488 -1.53071 -3.80893 0
M  V30 585 H 55.8098 -0.618238 -3.07956 0
M  V30 586 H 55.0028 -2.68197 -4.26716 0
M  V30 587 H 54.6048 -2.75005 -2.53472 0
M  V30 588 H 56.8968 -4.06295 -5.42154 0
M  V30 589 H 57.8398 -5.36223 -4.62462 0
M  V30 590 H 58.2478 -3.65007 -4.30616 0
M  V30 591 N 57.6459 0.756429 -1.3826 0
M  V30 592 C 58.9229 1.50584 -1.24835 0
M  V30 593 C 59.3029 2.10556 0.151485 0
M  V30 594 O 58.6509 1.96825 1.1607 0
M  V30 595 C 58.8609 2.57448 -2.3563 0
M  V30 596 C 60.2089 3.24429 -2.73917 0
M  V30 597 O 61.2329 2.67751 -2.34921 0
M  V30 598 O 60.0919 4.26937 -3.41156 0
M  V30 599 H 57.1859 0.667664 -0.48801 0
M  V30 600 H 59.7319 0.792083 -1.5008 0
M  V30 601 H 58.5039 2.11362 -3.29305 0
M  V30 602 H 58.1269 3.36408 -2.11933 0
M  V30 603 N 59.124 1.23083 0.984299 0
M  V30 604 C 60.401 0.9689 1.69917 0
M  V30 605 C 60.781 -0.513604 2.04757 0
M  V30 606 O 60.129 -1.48383 1.73767 0
M  V30 607 C 60.339 1.87518 2.94343 0
M  V30 608 C 61.687 2.13636 3.6694 0
M  V30 609 O 62.711 1.85036 3.04368 0
M  V30 610 O 61.57 2.62119 4.79537 0
M  V30 611 H 58.664 0.365095 0.742048 0
M  V30 612 H 61.21 1.34107 1.03987 0
M  V30 613 H 59.982 2.87756 2.65164 0
M  V30 614 H 59.605 1.50514 3.6801 0
M  V30 615 N 60.6021 -1.18246 1.0419 0
M  V30 616 C 61.5521 -2.19843 0.604392 0
M  V30 617 C 62.5361 -1.56962 -0.353814 0
M  V30 618 O 63.7281 -1.76156 -0.17267 0
M  V30 619 C 60.8571 -3.43287 -0.0298975 0
M  V30 620 C 59.9431 -4.13288 0.951531 0
M  V30 621 N 60.3341 -4.59271 2.11906 0
M  V30 622 C 58.6321 -4.39165 0.7778 0
M  V30 623 C 59.3331 -5.13173 2.73912 0
M  V30 624 N 58.3091 -5.04763 2.01779 0
M  V30 625 H 62.1111 -2.53089 1.4941 0
M  V30 626 H 59.6251 -1.34465 0.910658 0
M  V30 627 H 61.6221 -4.15334 -0.361037 0
M  V30 628 H 60.2821 -3.11537 -0.915127 0
M  V30 629 H 61.2931 -4.5368 2.49789 0
M  V30 630 H 57.9701 -4.17461 -0.0572331 0
M  V30 631 H 59.3601 -5.58947 3.72864 0
M  V30 632 N 62.0802 -0.821533 -1.34494 0
M  V30 633 C 63.0272 -0.240397 -2.29545 0
M  V30 634 C 63.9972 0.634031 -1.53523 0
M  V30 635 O 65.1822 0.575966 -1.81899 0
M  V30 636 C 62.3222 0.592869 -3.39969 0
M  V30 637 C 61.4352 -0.30365 -4.30932 0
M  V30 638 C 60.5702 0.539049 -5.28458 0
M  V30 639 C 59.6092 -0.356942 -6.11058 0
M  V30 640 N 58.7462 0.446603 -7.00678 0
M  V30 641 H 63.5862 -1.05632 -2.7865 0
M  V30 642 H 61.1232 -0.532413 -1.37127 0
M  V30 643 H 63.0812 1.09129 -4.02675 0
M  V30 644 H 61.7112 1.37392 -2.92102 0
M  V30 645 H 60.7632 -0.920276 -3.691 0
M  V30 646 H 62.0752 -0.992661 -4.88823 0
M  V30 647 H 61.2292 1.102 -5.96608 0
M  V30 648 H 59.9682 1.26157 -4.71101 0
M  V30 649 H 58.9732 -0.932047 -5.41842 0
M  V30 650 H 60.1982 -1.07755 -6.70497 0
M  V30 651 H 58.1442 1.15282 -6.45791 0
M  V30 652 H 58.0612 -0.184048 -7.55776 0
M  V30 653 H 59.3292 0.992352 -7.73158 0
M  V30 654 N 63.5583 1.46682 -0.576371 0
M  V30 655 C 64.4883 2.33028 0.148397 0
M  V30 656 C 65.4693 1.44961 0.889956 0
M  V30 657 O 66.6543 1.73789 0.866662 0
M  V30 658 C 63.7843 3.27117 1.1667 0
M  V30 659 C 62.7383 4.24575 0.540386 0
M  V30 660 C 62.0643 5.08126 1.6647 0
M  V30 661 C 63.3643 5.19722 -0.518331 0
M  V30 662 H 65.0583 2.93875 -0.572509 0
M  V30 663 H 62.6043 1.41315 -0.276768 0
M  V30 664 H 64.5573 3.86374 1.68204 0
M  V30 665 H 63.2813 2.64364 1.9178 0
M  V30 666 H 61.9403 3.66571 0.0461769 0
M  V30 667 H 61.5883 4.41762 2.40531 0
M  V30 668 H 61.2883 5.74122 1.25131 0
M  V30 669 H 62.8123 5.70246 2.18293 0
M  V30 670 H 64.2263 5.73232 -0.0883058 0
M  V30 671 H 62.6233 5.94026 -0.851679 0
M  V30 672 H 63.6933 4.64037 -1.40703 0
M  V30 673 N 65.0364 0.313813 1.54444 0
M  V30 674 C 66.2614 -0.296681 2.05267 0
M  V30 675 C 66.6864 -1.45757 1.18897 0
M  V30 676 O 66.0444 -1.80239 0.195886 0
M  V30 677 C 66.0924 -0.71831 3.53373 0
M  V30 678 O 65.1964 -1.82175 3.69981 0
M  V30 679 H 64.5374 -0.0554061 0.661684 0
M  V30 680 H 67.0674 0.459387 1.99376 0
M  V30 681 H 67.0774 -1.00364 3.95463 0
M  V30 682 H 65.7524 0.130821 4.15694 0
M  V30 683 H 64.3294 -1.53598 3.39797 0
M  V30 684 N 66.5145 -1.57545 0.0417849 0
M  V30 685 C 67.4445 -2.14009 -0.933929 0
M  V30 686 C 68.4255 -1.05938 -1.33083 0
M  V30 687 O 69.6105 -1.33833 -1.40721 0
M  V30 688 C 66.7405 -2.67747 -2.21199 0
M  V30 689 C 65.6945 -3.80718 -1.95544 0
M  V30 690 C 65.0205 -4.20935 -3.29724 0
M  V30 691 C 66.3205 -5.06258 -1.28452 0
M  V30 692 H 68.0145 -2.95788 -0.463645 0
M  V30 693 H 65.5605 -1.42285 -0.221573 0
M  V30 694 H 67.5135 -3.05886 -2.89848 0
M  V30 695 H 66.2375 -1.83147 -2.70416 0
M  V30 696 H 64.8965 -3.43037 -1.2931 0
M  V30 697 H 64.5445 -3.33298 -3.76724 0
M  V30 698 H 64.2445 -4.9707 -3.13361 0
M  V30 699 H 65.7685 -4.61666 -3.9962 0
M  V30 700 H 67.1825 -5.41903 -1.8712 0
M  V30 701 H 65.5795 -5.87475 -1.22445 0
M  V30 702 H 66.6495 -4.84207 -0.259219 0
M  V30 703 N 67.9926 0.231505 -1.5589 0
M  V30 704 C 69.2696 0.981096 -1.69215 0
M  V30 705 C 69.6496 2.02799 -0.586164 0
M  V30 706 O 68.9976 2.24823 0.408253 0
M  V30 707 C 69.2076 1.60054 -3.10135 0
M  V30 708 C 70.5556 2.09658 -3.69227 0
M  V30 709 O 71.5796 1.69967 -3.13033 0
M  V30 710 O 70.4386 2.8258 -4.67772 0
M  V30 711 H 67.5326 0.457653 -0.688827 0
M  V30 712 H 70.0786 0.224073 -1.68214 0
M  V30 713 H 68.8506 0.844105 -3.82087 0
M  V30 714 H 68.4736 2.42336 -3.15212 0
M  V30 715 N 69.4707 1.49531 0.497807 0
M  V30 716 C 70.3807 1.69176 1.62532 0
M  V30 717 C 71.3967 0.5744 1.64246 0
M  V30 718 O 72.5727 0.849497 1.82608 0
M  V30 719 C 69.6377 1.75695 2.98885 0
M  V30 720 C 68.6987 2.9929 3.07773 0
M  V30 721 C 67.9317 3.05488 4.37622 0
M  V30 722 O 68.1547 2.19192 5.26603 0
M  V30 723 O 67.0887 3.9798 4.51548 0
M  V30 724 H 70.9147 2.647 1.48887 0
M  V30 725 H 68.4997 1.3331 0.674441 0
M  V30 726 H 70.3817 1.82317 3.79919 0
M  V30 727 H 69.0567 0.8335 3.12785 0
M  V30 728 H 67.9637 2.98183 2.25915 0
M  V30 729 H 69.2967 3.91125 2.98801 0
M  V30 730 N 70.9488 -0.749086 1.3866 0
M  V30 731 C 71.8788 -1.8764 1.38973 0
M  V30 732 C 72.8598 -1.68178 0.255004 0
M  V30 733 O 74.0448 -1.88704 0.458754 0
M  V30 734 C 71.1748 -3.25222 1.21851 0
M  V30 735 C 70.1288 -3.59295 2.32575 0
M  V30 736 C 69.4548 -4.95663 2.00555 0
M  V30 737 C 70.7548 -3.63709 3.7485 0
M  V30 738 H 72.4488 -1.87635 2.3331 0
M  V30 739 H 69.9948 -0.901329 1.12303 0
M  V30 740 H 71.9478 -4.03746 1.20695 0
M  V30 741 H 70.6718 -3.25719 0.239775 0
M  V30 742 H 69.3308 -2.83093 2.32925 0
M  V30 743 H 68.9788 -4.92724 1.01154 0
M  V30 744 H 68.6788 -5.19429 2.74714 0
M  V30 745 H 70.2028 -5.7656 2.01024 0
M  V30 746 H 71.6168 -4.32338 3.76506 0
M  V30 747 H 70.0138 -3.98986 4.48252 0
M  V30 748 H 71.0838 -2.63834 4.06841 0
M  V30 749 N 72.4269 -1.23603 -0.977757 0
M  V30 750 C 73.6749 -1.06759 -1.71601 0
M  V30 751 C 73.9959 0.395929 -1.90938 0
M  V30 752 O 73.2659 1.28356 -1.47992 0
M  V30 753 H 71.8459 -0.392062 -0.635843 0
M  V30 754 H 74.5079 -1.55362 -1.1768 0
M  V30 755 H 73.6039 -1.55763 -2.70452 0
M  V30 756 N 73.905 1.17692 -1.04816 0
M  V30 757 C 75.321 1.39863 -0.768794 0
M  V30 758 C 75.521 1.91118 0.638451 0
M  V30 759 O 74.577 2.10036 1.40146 0
M  V30 760 C 75.89 2.39274 -1.82122 0
M  V30 761 C 77.438 2.52987 -1.843 0
M  V30 762 C 77.913 3.55669 -2.88555 0
M  V30 763 N 79.404 3.63183 -2.87493 0
M  V30 764 C 80.139 4.42381 -3.64811 0
M  V30 765 N 79.635 5.25125 -4.51903 0
M  V30 766 N 81.428 4.37217 -3.53267 0
M  V30 767 H 73.579 0.82752 -1.95617 0
M  V30 768 H 75.842 0.426123 -0.846831 0
M  V30 769 H 75.548 2.08678 -2.83102 0
M  V30 770 H 75.422 3.38725 -1.65967 0
M  V30 771 H 77.809 2.82896 -0.839869 0
M  V30 772 H 77.89 1.53623 -2.04532 0
M  V30 773 H 77.534 3.26499 -3.89051 0
M  V30 774 H 77.464 4.54728 -2.65575 0
M  V30 775 H 79.955 3.04103 -2.24343 0
M  V30 776 H 80.268 5.82728 -5.07591 0
M  V30 777 H 78.613 5.24519 -4.55966 0
M  V30 778 H 81.804 3.71626 -2.84625 0
M  V30 779 H 81.977 4.98696 -4.13771 0
M  V30 780 N 75.3831 0.828654 1.34056 0
M  V30 781 C 76.3301 0.252567 2.29414 0
M  V30 782 C 77.3001 -0.62588 1.53857 0
M  V30 783 O 78.4851 -0.566312 1.82202 0
M  V30 784 C 75.6251 -0.574831 3.40279 0
M  V30 785 C 74.7381 0.326499 4.30764 0
M  V30 786 C 73.8731 -0.511016 5.28736 0
M  V30 787 C 72.9121 0.389342 6.1086 0
M  V30 788 N 72.0491 -0.409439 7.00905 0
M  V30 789 H 76.8891 1.07108 2.78086 0
M  V30 790 H 74.4261 0.539677 1.36843 0
M  V30 791 H 76.3841 -1.06992 4.03248 0
M  V30 792 H 75.0141 -1.35841 2.92826 0
M  V30 793 H 74.0661 0.939837 3.68607 0
M  V30 794 H 75.3781 1.01857 4.88289 0
M  V30 795 H 74.5321 -1.07035 5.97184 0
M  V30 796 H 73.2711 -1.23657 4.71763 0
M  V30 797 H 72.2761 0.960769 5.4134 0
M  V30 798 H 73.5011 1.1131 6.69916 0
M  V30 799 H 71.4471 -1.11856 6.46393 0
M  V30 800 H 71.3641 0.224126 7.55668 0
M  V30 801 H 72.6321 -0.951336 7.73673 0
M  V30 802 N 76.8612 -1.46375 0.584142 0
M  V30 803 C 78.0912 -2.06461 0.0758195 0
M  V30 804 C 78.4992 -1.43322 -1.23512 0
M  V30 805 O 77.8422 -0.533216 -1.75791 0
M  V30 806 C 77.9042 -3.59131 -0.162773 0
M  V30 807 C 77.5682 -4.4447 1.06279 0
M  V30 808 C 78.5652 -4.80918 1.97519 0
M  V30 809 C 76.2502 -4.85584 1.28504 0
M  V30 810 C 78.2442 -5.57309 3.09331 0
M  V30 811 C 75.9312 -5.61734 2.4062 0
M  V30 812 C 76.9292 -5.9751 3.30863 0
M  V30 813 O 76.6172 -6.72121 4.41032 0
M  V30 814 H 76.3492 -0.673745 0.0551725 0
M  V30 815 H 78.9032 -1.88969 0.804984 0
M  V30 816 H 77.1332 -3.74936 -0.946565 0
M  V30 817 H 78.8222 -4.0114 -0.619782 0
M  V30 818 H 79.5882 -4.49732 1.81565 0
M  V30 819 H 75.4672 -4.57187 0.591702 0
M  V30 820 H 79.0112 -5.85152 3.79793 0
M  V30 821 H 74.9082 -5.92334 2.56537 0
M  V30 822 H 75.6762 -6.90547 4.39417 0
M  V30 823 N 78.3393 -0.321999 -1.54275 0
M  V30 824 C 79.2713 0.578671 -2.21775 0
M  V30 825 C 80.2843 1.08109 -1.21722 0
M  V30 826 O 81.4733 0.994938 -1.482 0
M  V30 827 C 78.5733 1.80661 -2.86731 0
M  V30 828 C 77.7463 1.44314 -4.12907 0
M  V30 829 C 76.8053 2.52845 -4.61472 0
M  V30 830 O 75.8313 2.17054 -5.2619 0
M  V30 831 N 77.0333 3.83748 -4.35566 0
M  V30 832 H 79.7983 0.000709447 -2.997 0
M  V30 833 H 77.3593 -0.145132 -1.61248 0
M  V30 834 H 79.3513 2.52655 -3.16145 0
M  V30 835 H 77.9213 2.29245 -2.12521 0
M  V30 836 H 77.1413 0.554906 -3.90275 0
M  V30 837 H 78.4293 1.17598 -4.95023 0
M  V30 838 H 77.8273 4.15625 -3.83761 0
M  V30 839 H 76.3843 4.51977 -4.69638 0
M  V30 840 N 79.8174 1.5752 -0.0501392 0
M  V30 841 C 81.0634 1.92936 0.624798 0
M  V30 842 C 81.3964 0.928685 1.70555 0
M  V30 843 O 80.6714 -0.0454779 1.94447 0
M  V30 844 C 80.9544 3.38737 1.22185 0
M  V30 845 C 80.8074 4.49552 0.149218 0
M  V30 846 C 82.1264 3.84913 2.13378 0
M  V30 847 H 79.2454 0.701604 0.225657 0
M  V30 848 H 81.8874 1.89671 -0.111693 0
M  V30 849 H 80.0374 3.4165 1.84953 0
M  V30 850 H 81.7094 4.58768 -0.482648 0
M  V30 851 H 79.9524 4.30638 -0.522841 0
M  V30 852 H 80.6234 5.48653 0.606966 0
M  V30 853 H 83.0994 3.8387 1.60572 0
M  V30 854 H 81.9754 4.87584 2.52097 0
M  V30 855 H 82.2364 3.21611 3.03346 0
M  V30 856 N 81.2955 -0.223234 1.56011 0
M  V30 857 C 82.5725 -0.972108 1.69733 0
M  V30 858 C 82.9525 -2.02485 0.59691 0
M  V30 859 O 82.3005 -2.25037 -0.396324 0
M  V30 860 C 82.5105 -1.58407 3.10979 0
M  V30 861 C 83.8585 -2.07696 3.70334 0
M  V30 862 O 84.8825 -1.68304 3.1393 0
M  V30 863 O 83.7415 -2.80096 4.69264 0
M  V30 864 H 80.8355 -0.453993 0.691245 0
M  V30 865 H 83.3815 -0.215149 1.68331 0
M  V30 866 H 82.1535 -0.823831 3.82529 0
M  V30 867 H 81.7765 -2.40661 3.16493 0
M  V30 868 N 82.7736 -1.49793 -0.48987 0
M  V30 869 C 83.7036 -1.70201 -1.59856 0
M  V30 870 C 84.6846 -0.55076 -1.60937 0
M  V30 871 O 85.8696 -0.787841 -1.77501 0
M  V30 872 C 82.9996 -1.77882 -2.98287 0
M  V30 873 C 81.9536 -2.92907 -3.12073 0
M  V30 874 C 81.2796 -2.85712 -4.51965 0
M  V30 875 C 82.5796 -4.3369 -2.91051 0
M  V30 876 H 84.2736 -2.63025 -1.43032 0
M  V30 877 H 81.8196 -1.26574 -0.686664 0
M  V30 878 H 83.7726 -1.90744 -3.75759 0
M  V30 879 H 82.4966 -0.816653 -3.16225 0
M  V30 880 H 81.1556 -2.79665 -2.37029 0
M  V30 881 H 80.8036 -1.8738 -4.66795 0
M  V30 882 H 80.5036 -3.62921 -4.62128 0
M  V30 883 H 82.0276 -3.00598 -5.31482 0
M  V30 884 H 83.4416 -4.47555 -3.58284 0
M  V30 885 H 81.8386 -5.12205 -3.12675 0
M  V30 886 H 82.9086 -4.47362 -1.87071 0
M  V30 887 N 84.2517 0.741722 -1.39055 0
M  V30 888 C 85.4767 1.53607 -1.39354 0
M  V30 889 C 85.9017 1.88096 0.0116905 0
M  V30 890 O 85.2597 1.5143 0.996924 0
M  V30 891 C 85.3077 2.80441 -2.26682 0
M  V30 892 O 84.4117 3.76088 -1.69208 0
M  V30 893 H 83.7527 0.464142 -0.474835 0
M  V30 894 H 86.2827 0.915665 -1.82967 0
M  V30 895 H 86.2927 3.29246 -2.40959 0
M  V30 896 H 84.9677 2.5467 -3.2881 0
M  V30 897 H 83.5447 3.34833 -1.64138 0
M  V30 898 N 85.7298 1.2412 0.971189 0
M  V30 899 C 86.6768 1.0305 2.06517 0
M  V30 900 C 87.6468 -0.0550666 1.66009 0
M  V30 901 O 88.8318 0.0988688 1.90544 0
M  V30 902 C 85.9718 0.637653 3.39158 0
M  V30 903 C 85.0848 1.79633 3.92882 0
M  V30 904 C 84.2198 1.34939 5.13775 0
M  V30 905 C 83.2588 2.47823 5.59687 0
M  V30 906 N 82.3958 2.04022 6.71803 0
M  V30 907 H 87.2358 1.96685 2.23873 0
M  V30 908 H 84.7728 0.979694 1.09729 0
M  V30 909 H 86.7308 0.390931 4.15364 0
M  V30 910 H 85.3608 -0.261693 3.21737 0
M  V30 911 H 84.4128 2.15681 3.13346 0
M  V30 912 H 85.7248 2.64466 4.22918 0
M  V30 913 H 84.8788 1.06134 5.97345 0
M  V30 914 H 83.6178 0.471557 4.85415 0
M  V30 915 H 82.6228 2.77392 4.74693 0
M  V30 916 H 83.8478 3.36158 5.90063 0
M  V30 917 H 81.7938 1.18632 6.45184 0
M  V30 918 H 81.7108 2.82409 7.01271 0
M  V30 919 H 82.9788 1.78347 7.58823 0
M  V30 920 N 87.2079 -1.17134 1.05439 0
M  V30 921 C 88.4559 -1.87085 0.764429 0
M  V30 922 C 88.7769 -1.81584 -0.710787 0
M  V30 923 O 88.0469 -1.24349 -1.51374 0
M  V30 924 H 86.6269 -0.692627 0.279779 0
M  V30 925 H 89.2889 -1.42087 1.33406 0
M  V30 926 H 88.3849 -2.92759 1.0816 0
M  V30 927 N 88.686 -0.835752 -1.33615 0
M  V30 928 C 89.616 -0.281739 -2.31794 0
M  V30 929 C 90.597 0.608833 -1.58831 0
M  V30 930 O 91.782 0.533035 -1.86741 0
M  V30 931 C 88.912 0.546612 -3.42971 0
M  V30 932 C 87.866 -0.247904 -4.27281 0
M  V30 933 C 87.192 0.704001 -5.30045 0
M  V30 934 C 88.492 -1.46324 -5.01385 0
M  V30 935 H 90.186 -1.10206 -2.78379 0
M  V30 936 H 87.732 -0.531388 -1.33837 0
M  V30 937 H 89.685 0.944467 -4.1068 0
M  V30 938 H 88.409 1.40011 -2.95067 0
M  V30 939 H 87.068 -0.627281 -3.61194 0
M  V30 940 H 86.716 1.55381 -4.78399 0
M  V30 941 H 86.416 0.176524 -5.87335 0
M  V30 942 H 87.94 1.09944 -6.0062 0
M  V30 943 H 89.354 -1.13871 -5.61877 0
M  V30 944 H 87.751 -1.92728 -5.6831 0
M  V30 945 H 88.821 -2.23467 -4.30338 0
M  V30 946 N 90.1641 1.46063 -0.591896 0
M  V30 947 C 91.3921 2.06717 -0.0868936 0
M  V30 948 C 91.8071 1.43916 1.22203 0
M  V30 949 O 91.1641 0.547698 1.74088 0
M  V30 950 C 91.2151 3.6142 0.0758725 0
M  V30 951 O 90.9361 4.21874 -1.18126 0
M  V30 952 C 92.4371 4.39025 0.61416 0
M  V30 953 H 89.6571 0.668162 -0.0616518 0
M  V30 954 H 92.2011 1.8755 -0.815175 0
M  V30 955 H 90.3561 3.79983 0.754413 0
M  V30 956 H 90.7701 5.14861 -1.00092 0
M  V30 957 H 92.2441 5.4783 0.677193 0
M  V30 958 H 92.7211 4.07708 1.63312 0
M  V30 959 H 93.3271 4.2529 -0.0298142 0
M  V30 960 N 91.6422 0.330177 1.54103 0
M  V30 961 C 92.5902 -0.548226 2.26047 0
M  V30 962 C 93.5842 -1.11309 1.27698 0
M  V30 963 O 94.7902 -1.06036 1.45452 0
M  V30 964 H 91.1652 -0.195456 0.726155 0
M  V30 965 H 93.1362 0.0807567 2.98291 0
M  V30 966 C 91.8852 -1.69415 3.03634 0
M  V30 967 H 91.2082 -1.26876 3.79134 0
M  V30 968 H 92.6482 -2.28423 3.5721 0
M  V30 969 C 91.1072 -2.61569 2.12328 0
M  V30 970 O 91.6372 -3.63462 1.7105 0
M  V30 971 N 89.8432 -2.29952 1.77681 0
M  V30 972 H 89.3902 -1.47134 2.11446 0
M  V30 973 H 89.3482 -2.91871 1.16869 0
M  V30 974 N 93.1203 -1.57491 0.0584922 0
M  V30 975 C 94.0523 -2.08916 -0.942694 0
M  V30 976 C 95.0653 -1.0185 -1.27006 0
M  V30 977 O 96.2543 -1.29398 -1.22957 0
M  V30 978 C 93.3543 -2.52341 -2.26224 0
M  V30 979 C 92.5273 -3.82827 -2.1157 0
M  V30 980 C 91.5863 -4.12487 -3.26712 0
M  V30 981 O 90.6123 -4.82295 -3.02292 0
M  V30 982 N 91.8143 -3.64978 -4.5141 0
M  V30 983 H 94.5793 -2.95437 -0.503722 0
M  V30 984 H 92.1403 -1.61397 -0.12757 0
M  V30 985 H 94.1323 -2.69254 -3.02133 0
M  V30 986 H 92.7023 -1.7103 -2.61663 0
M  V30 987 H 91.9223 -3.75425 -1.20208 0
M  V30 988 H 93.2103 -4.68263 -1.99015 0
M  V30 989 H 92.6083 -3.08558 -4.7414 0
M  V30 990 H 91.1653 -3.87115 -5.2439 0
M  V30 991 N 94.5984 0.214957 -1.56127 0
M  V30 992 C 96.0144 0.564948 -1.49267 0
M  V30 993 C 96.2144 1.86827 -0.754838 0
M  V30 994 O 95.2704 2.50745 -0.297198 0
M  V30 995 C 96.5834 0.638071 -2.93852 0
M  V30 996 C 98.1314 0.728253 -3.0441 0
M  V30 997 C 98.6064 0.832663 -4.50367 0
M  V30 998 N 100.097 0.896712 -4.54437 0
M  V30 999 C 100.832 0.997324 -5.6466 0
M  V30 1000 N 100.328 1.06147 -6.8462 0
M  V30 1001 N 102.121 1.03297 -5.52527 0
M  V30 1002 H 94.2724 -0.640211 -2.02522 0
M  V30 1003 H 96.5354 -0.225507 -0.920788 0
M  V30 1004 H 96.2414 -0.250126 -3.50809 0
M  V30 1005 H 96.1154 1.49947 -3.46115 0
M  V30 1006 H 98.5024 1.60689 -2.47514 0
M  V30 1007 H 98.5834 -0.158952 -2.55306 0
M  V30 1008 H 98.2274 -0.0415417 -5.07883 0
M  V30 1009 H 98.1574 1.73538 -4.97184 0
M  V30 1010 H 100.648 0.857188 -3.6805 0
M  V30 1011 H 100.961 1.1382 -7.64372 0
M  V30 1012 H 99.3064 1.03049 -6.87318 0
M  V30 1013 H 102.497 0.979558 -4.57736 0
M  V30 1014 H 102.67 1.10793 -6.38458 0
M  V30 1015 N 96.0765 1.50051 0.48192 0
M  V30 1016 C 97.0395 1.67584 1.5636 0
M  V30 1017 C 98.0395 0.546894 1.51214 0
M  V30 1018 O 99.2295 0.813725 1.54026 0
M  V30 1019 C 96.3615 1.691 2.96003 0
M  V30 1020 H 97.5545 2.64078 1.42136 0
M  V30 1021 H 95.1075 1.39369 0.707533 0
M  V30 1022 H 95.8425 0.742589 3.15684 0
M  V30 1023 H 95.6275 2.51105 3.01146 0
M  V30 1024 H 97.1175 1.84656 3.74556 0
M  V30 1025 N 97.5546 -0.734337 1.39446 0
M  V30 1026 C 98.4866 -1.85861 1.34121 0
M  V30 1027 C 99.4996 -1.60871 0.249864 0
M  V30 1028 O 100.689 -1.71093 0.508865 0
M  V30 1029 C 97.7886 -3.21899 1.05991 0
M  V30 1030 C 96.9616 -3.74239 2.26415 0
M  V30 1031 C 96.0206 -4.88841 1.94733 0
M  V30 1032 O 95.0466 -5.02468 2.67422 0
M  V30 1033 N 96.2486 -5.73261 0.913884 0
M  V30 1034 H 99.0136 -1.90934 2.31007 0
M  V30 1035 H 96.5746 -0.915102 1.33557 0
M  V30 1036 H 98.5666 -3.96136 0.828147 0
M  V30 1037 H 97.1366 -3.12091 0.178361 0
M  V30 1038 H 96.3566 -2.91347 2.65539 0
M  V30 1039 H 97.6446 -4.05942 3.06738 0
M  V30 1040 H 97.0426 -5.64842 0.311476 0
M  V30 1041 H 95.5996 -6.47563 0.742015 0
M  V30 1042 N 99.0327 -1.24633 -0.964593 0
M  V30 1043 C 100.31 -0.995809 -1.68354 0
M  V30 1044 C 100.69 0.480964 -2.05548 0
M  V30 1045 O 100.038 1.45599 -1.76105 0
M  V30 1046 C 100.248 -1.92177 -2.91323 0
M  V30 1047 C 101.596 -2.19446 -3.63495 0
M  V30 1048 O 102.62 -1.89855 -3.01386 0
M  V30 1049 O 101.479 -2.69714 -4.75307 0
M  V30 1050 H 98.5727 -0.376854 -0.736146 0
M  V30 1051 H 101.119 -1.35745 -1.0184 0
M  V30 1052 H 99.8907 -2.91938 -2.60553 0
M  V30 1053 H 99.5137 -1.56349 -3.65569 0
M  V30 1054 N 100.511 1.16574 -1.06058 0
M  V30 1055 C 101.757 1.87324 -0.777022 0
M  V30 1056 C 102.09 1.81351 0.694645 0
M  V30 1057 O 101.365 1.22753 1.50871 0
M  V30 1058 C 101.648 3.36991 -1.26922 0
M  V30 1059 C 101.501 3.51667 -2.80447 0
M  V30 1060 C 102.82 4.3131 -0.87521 0
M  V30 1061 H 99.9388 0.680191 -0.28374 0
M  V30 1062 H 102.581 1.37036 -1.3161 0
M  V30 1063 H 100.731 3.79949 -0.81063 0
M  V30 1064 H 102.403 3.17664 -3.34495 0
M  V30 1065 H 100.646 2.93656 -3.19294 0
M  V30 1066 H 101.317 4.56766 -3.0995 0
M  V30 1067 H 103.793 3.9624 -1.27014 0
M  V30 1068 H 102.669 5.34545 -1.2471 0
M  V30 1069 H 102.93 4.41552 0.220071 0
M  V30 1070 N 101.989 0.842826 1.3317 0
M  V30 1071 C 102.919 0.294028 2.31641 0
M  V30 1072 C 103.9 -0.600401 1.59151 0
M  V30 1073 O 105.085 -0.523124 1.87022 0
M  V30 1074 C 102.215 -0.528416 3.43257 0
M  V30 1075 C 101.169 0.27056 4.27144 0
M  V30 1076 C 100.495 -0.675881 5.30411 0
M  V30 1077 C 101.795 1.48981 5.00602 0
M  V30 1078 H 103.489 1.11681 2.77791 0
M  V30 1079 H 101.035 0.538478 1.33553 0
M  V30 1080 H 102.988 -0.922674 4.11175 0
M  V30 1081 H 101.712 -1.38445 2.95805 0
M  V30 1082 H 100.371 0.646427 3.60856 0
M  V30 1083 H 100.019 -1.52842 4.79216 0
M  V30 1084 H 99.7189 -0.145374 5.8742 0
M  V30 1085 H 101.243 -1.06757 6.01195 0
M  V30 1086 H 102.657 1.16849 5.61266 0
M  V30 1087 H 101.054 1.95739 5.6728 0
M  V30 1088 H 102.124 2.25746 4.29147 0
M  V30 1089 N 103.467 -1.45747 0.599634 0
M  V30 1090 C 104.43 -2.28917 -0.113835 0
M  V30 1091 C 105.43 -1.3933 -0.802729 0
M  V30 1092 O 106.62 -1.61534 -0.652103 0
M  V30 1093 C 103.752 -3.20152 -1.17114 0
M  V30 1094 H 104.945 -2.93478 0.617289 0
M  V30 1095 H 102.498 -1.52137 0.358327 0
M  V30 1096 H 103.233 -2.60374 -1.93329 0
M  V30 1097 H 103.018 -3.86133 -0.681468 0
M  V30 1098 H 104.508 -3.82708 -1.67105 0
M  V30 1099 N 104.945 -0.338344 -1.53925 0
M  V30 1100 C 106.361 0.0137736 -1.59594 0
M  V30 1101 C 106.561 1.49186 -1.35447 0
M  V30 1102 O 105.617 2.24987 -1.14616 0
M  V30 1103 C 106.93 -0.41773 -2.97784 0
M  V30 1104 C 108.478 -0.369633 -3.1081 0
M  V30 1105 C 108.953 -0.776524 -4.51369 0
M  V30 1106 N 110.444 -0.730506 -4.57403 0
M  V30 1107 C 111.179 -1.01736 -5.64303 0
M  V30 1108 N 110.675 -1.3721 -6.79077 0
M  V30 1109 N 112.468 -0.941942 -5.54151 0
M  V30 1110 H 104.619 -1.3012 -1.67876 0
M  V30 1111 H 106.882 -0.530082 -0.78595 0
M  V30 1112 H 106.588 -1.44811 -3.20504 0
M  V30 1113 H 106.462 0.209729 -3.76616 0
M  V30 1114 H 108.849 0.651568 -2.87817 0
M  V30 1115 H 108.93 -1.03223 -2.34049 0
M  V30 1116 H 108.574 -1.79571 -4.75096 0
M  V30 1117 H 108.504 -0.0914649 -5.26521 0
M  V30 1118 H 110.995 -0.468783 -3.74981 0
M  V30 1119 H 111.308 -1.57597 -7.5656 0
M  V30 1120 H 109.653 -1.4105 -6.80536 0
M  V30 1121 H 112.844 -0.664184 -4.63364 0
M  V30 1122 H 113.017 -1.16884 -6.37371 0
M  V30 1123 N 106.423 1.57458 -0.0668435 0
M  V30 1124 C 107.7 1.8469 0.644132 0
M  V30 1125 C 108.08 0.958343 1.88093 0
M  V30 1126 O 107.428 0.0233579 2.28488 0
M  V30 1127 C 107.638 3.34767 0.986509 0
M  V30 1128 C 108.986 4.02159 1.36212 0
M  V30 1129 O 110.01 3.39484 1.07839 0
M  V30 1130 O 108.869 5.12694 1.89227 0
M  V30 1131 H 105.963 0.762816 0.319437 0
M  V30 1132 H 108.509 1.6942 -0.0973986 0
M  V30 1133 H 107.281 3.91151 0.107883 0
M  V30 1134 H 106.904 3.55281 1.78497 0
M  V30 1135 N 107.901 -0.206675 1.56239 0
M  V30 1136 C 109.149 -0.927007 1.79586 0
M  V30 1137 C 109.47 -1.8427 0.637929 0
M  V30 1138 O 108.74 -1.92849 -0.344398 0
M  V30 1139 H 107.32 -0.345292 0.662407 0
M  V30 1140 H 109.982 -0.21496 1.93711 0
M  V30 1141 H 109.078 -1.52501 2.72305 0
M  V30 1142 N 109.379 -1.50304 -0.473955 0
M  V30 1143 C 110.79 -1.54042 -1.0549 0
M  V30 1144 C 111.141 -0.342248 -1.93192 0
M  V30 1145 O 110.266 0.545157 -2.09421 0
M  V30 1146 C 110.861 -2.79152 -1.91989 0
M  V30 1147 C 109.42 -2.8558 -2.45196 0
M  V30 1148 C 108.567 -2.48295 -1.2347 0
M  V30 1149 H 111.518 -1.5661 -0.256693 0
M  V30 1150 H 111.539 -2.60845 -2.7702 0
M  V30 1151 H 111.051 -3.66339 -1.28131 0
M  V30 1152 H 109.152 -2.02738 -3.12615 0
M  V30 1153 H 109.265 -3.88403 -2.80499 0
M  V30 1154 H 107.629 -2.00669 -1.56856 0
M  V30 1155 H 108.412 -3.37787 -0.612789 0
M  V30 1156 N 110.857 0.726932 -1.39834 0
M  V30 1157 C 111.805 1.86235 -1.39353 0
M  V30 1158 C 112.799 1.67144 -0.275555 0
M  V30 1159 O 114.005 1.74387 -0.44601 0
M  V30 1160 H 110.38 0.613174 -0.43534 0
M  V30 1161 H 112.351 1.83756 -2.35109 0
M  V30 1162 C 111.1 3.23995 -1.26185 0
M  V30 1163 H 110.423 3.39285 -2.11484 0
M  V30 1164 H 111.863 4.03609 -1.29907 0
M  V30 1165 C 110.322 3.36888 0.0290018 0
M  V30 1166 O 110.852 3.89152 0.99619 0
M  V30 1167 N 109.058 2.90446 0.0947437 0
M  V30 1168 H 108.605 2.48102 -0.693035 0
M  V30 1169 H 108.563 2.99451 0.957932 0
M  V30 1170 N 112.336 1.25143 0.95797 0
M  V30 1171 C 113.299 1.05321 2.03569 0
M  V30 1172 C 114.299 0.007152 1.60798 0
M  V30 1173 O 115.489 0.24903 1.72411 0
M  V30 1174 C 112.621 0.598394 3.35607 0
M  V30 1175 H 113.814 2.00986 2.22586 0
M  V30 1176 H 111.367 1.07502 1.13459 0
M  V30 1177 H 112.102 -0.361014 3.22284 0
M  V30 1178 H 111.887 1.35351 3.67998 0
M  V30 1179 H 113.377 0.48104 4.1482 0
M  V30 1180 N 113.814 -1.1601 1.06675 0
M  V30 1181 C 114.744 -2.22688 0.702307 0
M  V30 1182 C 115.725 -1.67306 -0.307032 0
M  V30 1183 O 116.91 -1.93352 -0.181305 0
M  V30 1184 C 114.04 -3.47178 0.092038 0
M  V30 1185 C 112.994 -4.15477 1.02777 0
M  V30 1186 C 112.32 -5.33963 0.28061 0
M  V30 1187 C 113.62 -4.66019 2.35846 0
M  V30 1188 H 115.314 -2.53429 1.59419 0
M  V30 1189 H 112.86 -1.21813 0.767961 0
M  V30 1190 H 114.813 -4.21037 -0.174814 0
M  V30 1191 H 113.537 -3.15749 -0.834877 0
M  V30 1192 H 112.196 -3.43549 1.27944 0
M  V30 1193 H 111.844 -4.98788 -0.649545 0
M  V30 1194 H 111.544 -5.806 0.904258 0
M  V30 1195 H 113.068 -6.10596 0.021396 0
M  V30 1196 H 114.482 -5.3144 2.15045 0
M  V30 1197 H 112.879 -5.23293 2.93743 0
M  V30 1198 H 113.949 -3.82023 2.98641 0
M  V30 1199 N 115.292 -0.849877 -1.32721 0
M  V30 1200 C 116.52 -0.464754 -2.01613 0
M  V30 1201 C 116.935 0.937191 -1.63897 0
M  V30 1202 O 116.292 1.61081 -0.857856 0
M  V30 1203 C 116.343 -0.588638 -3.56675 0
M  V30 1204 O 116.064 -1.93535 -3.93034 0
M  V30 1205 C 117.565 -0.2019 -4.4284 0
M  V30 1206 H 114.785 -0.183215 -0.645502 0
M  V30 1207 H 117.329 -1.1455 -1.69407 0
M  V30 1208 H 115.484 0.0443159 -3.87375 0
M  V30 1209 H 115.898 -1.92871 -4.87751 0
M  V30 1210 H 117.372 -0.339599 -5.50954 0
M  V30 1211 H 117.849 0.857224 -4.30753 0
M  V30 1212 H 118.455 -0.809733 -4.17521 0
M  V30 1213 N 116.77 1.45427 -0.607355 0
M  V30 1214 C 118.181 1.85756 -0.187535 0
M  V30 1215 C 118.532 1.5077 1.25551 0
M  V30 1216 O 117.657 0.93427 1.95193 0
M  V30 1217 C 118.252 3.37154 -0.333572 0
M  V30 1218 C 116.811 3.76387 0.0315542 0
M  V30 1219 C 115.958 2.69377 -0.658117 0
M  V30 1220 H 118.909 1.36231 -0.81405 0
M  V30 1221 H 118.93 3.78014 0.43428 0
M  V30 1222 H 118.442 3.62586 -1.38393 0
M  V30 1223 H 116.543 3.56571 1.0811 0
M  V30 1224 H 116.656 4.77731 -0.361935 0
M  V30 1225 H 115.02 2.5452 -0.0957873 0
M  V30 1226 H 115.803 2.97646 -1.7106 0
M  V30 1227 N 118.248 0.346503 1.53744 0
M  V30 1228 C 119.659 -0.136779 1.86198 0
M  V30 1229 C 120.01 -1.49749 1.26766 0
M  V30 1230 O 119.135 -2.08417 0.582355 0
M  V30 1231 C 119.73 -0.254966 3.37839 0
M  V30 1232 C 118.289 -0.682482 3.70161 0
M  V30 1233 C 117.436 0.181981 2.76702 0
M  V30 1234 H 120.387 0.565994 1.48264 0
M  V30 1235 H 120.408 -1.08195 3.64793 0
M  V30 1236 H 119.92 0.735526 3.81066 0
M  V30 1237 H 118.021 -1.68189 3.3248 0
M  V30 1238 H 118.134 -0.470326 4.76786 0
M  V30 1239 H 116.498 -0.34615 2.52337 0
M  V30 1240 H 117.281 1.16966 3.2276 0
M  V30 1241 N 119.726 -1.57421 0.075193 0
M  V30 1242 C 121.137 -1.81021 -0.456964 0
M  V30 1243 C 121.488 -0.98936 -1.69429 0
M  V30 1244 O 120.613 -0.212865 -2.15351 0
M  V30 1245 C 121.208 -3.28329 -0.83581 0
M  V30 1246 C 119.767 -3.52764 -1.31281 0
M  V30 1247 C 118.914 -2.75676 -0.299648 0
M  V30 1248 H 121.865 -1.55822 0.300856 0
M  V30 1249 H 121.886 -3.40564 -1.69696 0
M  V30 1250 H 121.398 -3.88046 0.0649238 0
M  V30 1251 H 119.499 -2.98355 -2.23193 0
M  V30 1252 H 119.612 -4.61451 -1.28839 0
M  V30 1253 H 117.976 -2.42538 -0.777641 0
M  V30 1254 H 118.759 -3.38132 0.593417 0
M  V30 1255 N 121.204 0.198386 -1.56346 0
M  V30 1256 C 122.432 0.935572 -1.84539 0
M  V30 1257 C 122.847 1.76989 -0.657281 0
M  V30 1258 O 122.204 1.78626 0.374043 0
M  V30 1259 C 122.255 1.8344 -3.11499 0
M  V30 1260 O 121.976 1.03377 -4.25728 0
M  V30 1261 C 123.477 2.68355 -3.52846 0
M  V30 1262 H 120.697 0.273126 -0.612897 0
M  V30 1263 H 123.241 0.20663 -2.03453 0
M  V30 1264 H 121.396 2.51701 -2.94492 0
M  V30 1265 H 121.81 1.64599 -4.98003 0
M  V30 1266 H 123.284 3.27085 -4.44657 0
M  V30 1267 H 123.761 3.41901 -2.75681 0
M  V30 1268 H 124.367 2.05471 -3.72373 0
M  V30 1269 N 122.682 1.50554 0.465978 0
M  V30 1270 C 123.91 1.65563 1.24083 0
M  V30 1271 C 124.325 0.341051 1.85694 0
M  V30 1272 O 123.682 -0.677543 1.69457 0
M  V30 1273 C 123.733 2.75051 2.34583 0
M  V30 1274 O 123.454 4.01413 1.75497 0
M  V30 1275 C 124.955 3.01078 3.25372 0
M  V30 1276 H 122.175 0.55638 0.375077 0
M  V30 1277 H 124.719 1.96807 0.555624 0
M  V30 1278 H 122.874 2.46486 2.9887 0
M  V30 1279 H 123.288 4.62002 2.48303 0
M  V30 1280 H 124.762 3.81339 3.99105 0
M  V30 1281 H 125.239 2.12349 3.84453 0
M  V30 1282 H 125.845 3.31194 2.66816 0
M  V30 1283 N 124.16 -0.719506 1.40217 0
M  V30 1284 C 125.571 -1.29848 1.34151 0
M  V30 1285 C 125.922 -1.96196 0.0131349 0
M  V30 1286 O 125.047 -1.973 -0.88892 0
M  V30 1287 C 125.642 -2.36118 2.42968 0
M  V30 1288 C 124.201 -2.8965 2.40374 0
M  V30 1289 C 123.348 -1.63393 2.24049 0
M  V30 1290 H 126.299 -0.51591 1.5008 0
M  V30 1291 H 126.32 -3.16871 2.10649 0
M  V30 1292 H 125.832 -1.878 3.39636 0
M  V30 1293 H 123.933 -3.42208 1.47392 0
M  V30 1294 H 124.046 -3.4171 3.35814 0
M  V30 1295 H 122.41 -1.88312 1.71495 0
M  V30 1296 H 123.193 -1.17104 3.2271 0
M  V30 1297 N 125.638 -1.25649 -0.95132 0
M  V30 1298 C 126.548 -1.08073 -2.08224 0
M  V30 1299 C 127.564 -0.0169666 -1.73992 0
M  V30 1300 O 128.74 -0.218593 -2.0021 0
M  V30 1301 C 125.805 -0.704922 -3.39458 0
M  V30 1302 C 124.866 -1.84699 -3.87537 0
M  V30 1303 C 124.099 -1.48902 -5.12508 0
M  V30 1304 O 124.322 -0.386156 -5.69091 0
M  V30 1305 O 123.256 -2.32033 -5.55378 0
M  V30 1306 H 127.082 -2.02924 -2.25954 0
M  V30 1307 H 124.667 -1.04618 -1.06656 0
M  V30 1308 H 126.549 -0.507609 -4.18332 0
M  V30 1309 H 125.224 0.214291 -3.2299 0
M  V30 1310 H 124.131 -2.09919 -3.09653 0
M  V30 1311 H 125.464 -2.74557 -4.08509 0
M  V30 1312 N 127.117 1.15442 -1.07289 0
M  V30 1313 C 128.363 1.8672 -0.806679 0
M  V30 1314 C 128.718 1.80723 0.660084 0
M  V30 1315 O 128.011 1.21902 1.47819 0
M  V30 1316 C 128.205 3.3489 -1.24834 0
M  V30 1317 C 128.034 3.55313 -2.7565 0
M  V30 1318 C 126.804 3.7082 -3.4325 0
M  V30 1319 C 129.002 3.53188 -3.73848 0
M  V30 1320 N 126.984 3.7929 -4.82713 0
M  V30 1321 C 128.355 3.67765 -4.99149 0
M  V30 1322 C 130.41 3.36459 -3.67015 0
M  V30 1323 C 129.113 3.6734 -6.18428 0
M  V30 1324 C 131.139 3.37333 -4.85758 0
M  V30 1325 C 130.501 3.52438 -6.09891 0
M  V30 1326 H 126.6 0.700433 -0.347733 0
M  V30 1327 H 129.184 1.38441 -1.36902 0
M  V30 1328 H 127.355 3.81786 -0.713713 0
M  V30 1329 H 129.087 3.93875 -0.929745 0
M  V30 1330 H 125.842 3.71568 -2.93656 0
M  V30 1331 H 126.266 3.8727 -5.55294 0
M  V30 1332 H 130.908 3.237 -2.71989 0
M  V30 1333 H 128.626 3.78878 -7.13777 0
M  V30 1334 H 132.212 3.25617 -4.82146 0
M  V30 1335 H 131.092 3.53047 -7.00234 0
M  V30 1336 N 128.595 0.856903 1.32268 0
M  V30 1337 C 129.841 0.462069 1.97466 0
M  V30 1338 C 130.174 -0.980298 1.67642 0
M  V30 1339 O 129.449 -1.68824 0.965858 0
M  V30 1340 C 129.732 0.704336 3.53145 0
M  V30 1341 C 129.585 2.19529 3.9259 0
M  V30 1342 C 130.904 0.1622 4.39801 0
M  V30 1343 H 128.023 0.169357 0.717278 0
M  V30 1344 H 130.665 1.07574 1.56614 0
M  V30 1345 H 128.815 0.181999 3.88073 0
M  V30 1346 H 130.487 2.78387 3.67829 0
M  V30 1347 H 128.73 2.67292 3.41668 0
M  V30 1348 H 129.401 2.31549 5.01088 0
M  V30 1349 H 131.877 0.608905 4.11621 0
M  V30 1350 H 130.753 0.361265 5.4771 0
M  V30 1351 H 131.014 -0.935158 4.32096 0
M  V30 1352 N 130.073 -1.45103 0.615059 0
M  V30 1353 C 131.02 -2.30586 -0.0993978 0
M  V30 1354 C 131.99 -1.42544 -0.852669 0
M  V30 1355 O 133.175 -1.71465 -0.836917 0
M  V30 1356 C 130.315 -3.27572 -1.08583 0
M  V30 1357 C 129.428 -4.30717 -0.332656 0
M  V30 1358 C 128.563 -5.14807 -1.30947 0
M  V30 1359 C 127.602 -6.09673 -0.544538 0
M  V30 1360 N 126.739 -6.86517 -1.47101 0
M  V30 1361 H 131.579 -2.91144 0.635542 0
M  V30 1362 H 129.116 -1.4346 0.325206 0
M  V30 1363 H 131.074 -3.82276 -1.67095 0
M  V30 1364 H 129.704 -2.68751 -1.78809 0
M  V30 1365 H 128.756 -3.78615 0.368107 0
M  V30 1366 H 130.068 -4.98102 0.263842 0
M  V30 1367 H 129.222 -5.73948 -1.96643 0
M  V30 1368 H 127.961 -4.47458 -1.9399 0
M  V30 1369 H 126.966 -5.49656 0.126003 0
M  V30 1370 H 128.191 -6.79052 0.080947 0
M  V30 1371 H 126.137 -6.21851 -2.08895 0
M  V30 1372 H 126.054 -7.50281 -0.928137 0
M  V30 1373 H 127.322 -7.50194 -2.11731 0
M  V30 1374 N 131.551 -0.354651 -1.53558 0
M  V30 1375 C 132.798 0.238443 -2.01091 0
M  V30 1376 C 133.126 1.49663 -1.24222 0
M  V30 1377 O 132.381 1.93049 -0.321003 0
M  V30 1378 C 132.68 0.587121 -3.52545 0
M  V30 1379 C 132.346 -0.575472 -4.47213 0
M  V30 1380 C 131.008 -0.894497 -4.72813 0
M  V30 1381 C 133.36 -1.35489 -5.03281 0
M  V30 1382 C 130.688 -1.99511 -5.51736 0
M  V30 1383 C 133.04 -2.44583 -5.83405 0
M  V30 1384 C 131.704 -2.77033 -6.07296 0
M  V30 1385 H 130.974 0.0872526 -0.735845 0
M  V30 1386 H 133.621 -0.484859 -1.8526 0
M  V30 1387 H 131.926 1.39129 -3.66265 0
M  V30 1388 H 133.623 1.05809 -3.86789 0
M  V30 1389 H 130.213 -0.316774 -4.27428 0
M  V30 1390 H 134.397 -1.12167 -4.83459 0
M  V30 1391 H 129.653 -2.25063 -5.68469 0
M  V30 1392 H 133.827 -3.05401 -6.25862 0
M  V30 1393 H 131.454 -3.6244 -6.68237 0
M  V30 1394 N 133.029 1.57378 -0.0835403 0
M  V30 1395 C 134.269 1.95808 0.586381 0
M  V30 1396 C 134.633 0.963706 1.66062 0
M  V30 1397 O 135.834 1.23608 2.38693 0
M  V30 1398 C 134.105 3.38808 1.13771 0
M  V30 1399 S 135.664 3.99225 1.82112 0
M  V30 1400 H 132.482 0.684675 0.191679 0
M  V30 1401 H 135.084 1.94843 -0.160194 0
M  V30 1402 H 133.788 4.08954 0.344197 0
M  V30 1403 H 133.319 3.43344 1.92038 0
M  V30 1404 H 135.334 3.87087 3.10449 0
M  V30 1405 N 134.507 -0.190092 1.56449 0
M  V30 1406 C 135.923 -0.54113 1.50146 0
M  V30 1407 C 136.123 -1.85603 0.784465 0
M  V30 1408 O 135.179 -2.5024 0.337051 0
M  V30 1409 C 136.492 -0.591241 2.9483 0
M  V30 1410 C 138.04 -0.679732 3.0553 0
M  V30 1411 C 138.515 -0.760908 4.51635 0
M  V30 1412 N 140.006 -0.824302 4.55806 0
M  V30 1413 C 140.741 -0.907365 5.66175 0
M  V30 1414 N 140.237 -0.952422 6.86222 0
M  V30 1415 N 142.03 -0.94494 5.541 0
M  V30 1416 H 134.181 0.67235 2.01478 0
M  V30 1417 H 136.444 0.240127 0.917084 0
M  V30 1418 H 136.15 0.305905 3.50367 0
M  V30 1419 H 136.024 -1.44422 3.48457 0
M  V30 1420 H 138.411 -1.56731 2.50039 0
M  V30 1421 H 138.492 0.199549 2.5502 0
M  V30 1422 H 138.136 0.122336 5.07753 0
M  V30 1423 H 138.066 -1.65606 4.99882 0
M  V30 1424 H 140.557 -0.798526 3.69367 0
M  V30 1425 H 140.87 -1.01645 7.66086 0
M  V30 1426 H 139.215 -0.921014 6.8887 0
M  V30 1427 H 142.406 -0.906612 4.59236 0
M  V30 1428 H 142.579 -1.00622 6.4014 0
M  V30 1429 N 135.985 -1.50799 -0.457987 0
M  V30 1430 C 136.917 -1.66786 -1.57211 0
M  V30 1431 C 137.93 -0.548962 -1.53265 0
M  V30 1432 O 139.119 -0.8226 -1.58416 0
M  V30 1433 C 136.219 -1.64834 -2.96113 0
M  V30 1434 C 135.392 -2.92971 -3.24787 0
M  V30 1435 C 134.451 -2.83485 -4.43309 0
M  V30 1436 O 133.477 -3.5744 -4.42973 0
M  V30 1437 N 134.679 -1.97929 -5.45714 0
M  V30 1438 H 137.444 -2.62889 -1.43909 0
M  V30 1439 H 135.005 -1.48427 -0.646617 0
M  V30 1440 H 136.997 -1.56084 -3.7339 0
M  V30 1441 H 135.567 -0.764118 -3.03117 0
M  V30 1442 H 134.787 -3.15749 -2.36 0
M  V30 1443 H 136.075 -3.77834 -3.40762 0
M  V30 1444 H 135.473 -1.37182 -5.48815 0
M  V30 1445 H 134.03 -1.95073 -6.21924 0
M  V30 1446 N 137.463 0.71206 -1.40597 0
M  V30 1447 C 138.393 1.83889 -1.43899 0
M  V30 1448 C 139.374 1.67442 -0.299504 0
M  V30 1449 O 140.559 1.87421 -0.508624 0
M  V30 1450 C 137.689 3.21877 -1.30431 0
M  V30 1451 C 136.643 3.53002 -2.42019 0
M  V30 1452 C 135.969 4.90172 -2.13626 0
M  V30 1453 C 137.269 3.53643 -3.84362 0
M  V30 1454 H 138.963 1.81383 -2.38203 0
M  V30 1455 H 136.509 0.871237 -1.14654 0
M  V30 1456 H 138.462 4.00404 -1.31357 0
M  V30 1457 H 137.186 3.24968 -0.326049 0
M  V30 1458 H 135.845 2.76818 -2.40349 0
M  V30 1459 H 135.493 4.89869 -1.14182 0
M  V30 1460 H 135.193 5.11962 -2.88389 0
M  V30 1461 H 136.717 5.71028 -2.1624 0
M  V30 1462 H 138.131 4.22203 -3.87837 0
M  V30 1463 H 136.528 3.86961 -4.58673 0
M  V30 1464 H 137.598 2.52954 -4.13693 0
M  V30 1465 N 138.941 1.26152 0.944643 0
M  V30 1466 C 140.188 1.11492 1.69044 0
M  V30 1467 C 140.516 -0.342366 1.91463 0
M  V30 1468 O 139.771 -1.26812 1.49054 0
M  V30 1469 C 140.07 1.82541 3.07268 0
M  V30 1470 C 139.736 3.32445 3.04616 0
M  V30 1471 C 138.398 3.73337 3.036 0
M  V30 1472 C 140.75 4.28171 2.97185 0
M  V30 1473 C 138.078 5.08348 2.92915 0
M  V30 1474 C 140.43 5.63218 2.88041 0
M  V30 1475 C 139.094 6.03426 2.85366 0
M  V30 1476 H 138.364 0.407977 0.618576 0
M  V30 1477 H 141.011 1.56551 1.10291 0
M  V30 1478 H 139.316 1.29941 3.69625 0
M  V30 1479 H 141.013 1.68642 3.63815 0
M  V30 1480 H 137.603 2.99915 3.06185 0
M  V30 1481 H 141.787 3.97563 2.97081 0
M  V30 1482 H 137.043 5.38667 2.89219 0
M  V30 1483 H 141.217 6.37078 2.81254 0
M  V30 1484 H 138.844 7.07999 2.76842 0
M  V30 1485 N 140.419 -1.14872 1.07899 0
M  V30 1486 C 141.667 -1.85422 0.803941 0
M  V30 1487 C 141.988 -1.83051 -0.67211 0
M  V30 1488 O 141.258 -1.27532 -1.48703 0
M  V30 1489 H 139.838 -0.686537 0.294408 0
M  V30 1490 H 142.5 -1.39226 1.3639 0
M  V30 1491 H 141.596 -2.90399 1.14346 0
M  V30 1492 N 141.898 -0.863906 -1.31812 0
M  V30 1493 C 143.146 -0.470904 -1.96537 0
M  V30 1494 C 143.467 0.978771 -1.68657 0
M  V30 1495 O 142.737 1.6853 -0.998717 0
M  V30 1496 H 141.317 -0.171148 -0.72713 0
M  V30 1497 H 143.979 -1.10236 -1.60729 0
M  V30 1498 H 143.075 -0.623616 -3.05806 0
M  V30 1499 N 143.376 1.44774 -0.622745 0
M  V30 1500 C 144.623 2.02121 -0.1239 0
M  V30 1501 C 144.951 1.48915 1.25118 0
M  V30 1502 O 144.206 0.660045 1.84233 0
M  V30 1503 C 144.505 3.57364 -0.0508323 0
M  V30 1504 C 144.171 4.29787 -1.36358 0
M  V30 1505 C 142.833 4.4929 -1.72314 0
M  V30 1506 C 145.185 4.71062 -2.23048 0
M  V30 1507 C 142.513 5.07325 -2.94682 0
M  V30 1508 C 144.865 5.30452 -3.44679 0
M  V30 1509 C 143.529 5.48175 -3.80868 0
M  V30 1510 H 142.799 0.739612 -0.0453381 0
M  V30 1511 H 145.446 1.73648 -0.807389 0
M  V30 1512 H 143.751 3.85202 0.715991 0
M  V30 1513 H 145.448 3.99456 0.351533 0
M  V30 1514 H 142.038 4.14932 -1.07375 0
M  V30 1515 H 146.222 4.55715 -1.96565 0
M  V30 1516 H 141.478 5.19235 -3.22809 0
M  V30 1517 H 145.652 5.61385 -4.12092 0
M  V30 1518 H 143.279 5.92912 -4.75773 0
M  V30 1519 N 144.854 0.36279 1.53368 0
M  V30 1520 C 146.079 -0.231226 2.06107 0
M  V30 1521 C 146.504 -1.419 1.23474 0
M  V30 1522 O 145.862 -1.79524 0.253128 0
M  V30 1523 C 145.91 -0.605523 3.5548 0
M  V30 1524 O 145.014 -1.70312 3.7559 0
M  V30 1525 H 144.355 -0.034327 0.663112 0
M  V30 1526 H 146.885 0.522584 1.97814 0
M  V30 1527 H 146.895 -0.877314 3.98456 0
M  V30 1528 H 145.57 0.263004 4.15068 0
M  V30 1529 H 144.147 -1.4271 3.44512 0
M  V30 1530 N 146.332 -1.57332 0.0918853 0
M  V30 1531 C 147.581 -1.93412 -0.572249 0
M  V30 1532 C 147.894 -0.975515 -1.69538 0
M  V30 1533 O 149.1 -1.22991 -2.42045 0
M  V30 1534 C 147.556 -3.43648 -1.0693 0
M  V30 1535 C 147.164 -4.47994 0.0239049 0
M  V30 1536 C 148.908 -3.88695 -1.70635 0
M  V30 1537 C 146.815 -5.89381 -0.488319 0
M  V30 1538 H 145.745 -0.721939 -0.217532 0
M  V30 1539 H 148.396 -1.82735 0.167369 0
M  V30 1540 H 146.778 -3.49466 -1.8625 0
M  V30 1541 H 147.952 -4.53815 0.799277 0
M  V30 1542 H 146.267 -4.12536 0.565946 0
M  V30 1543 H 148.864 -4.91725 -2.10025 0
M  V30 1544 H 149.207 -3.27166 -2.57426 0
M  V30 1545 H 149.74 -3.85564 -0.979023 0
M  V30 1546 H 146.479 -6.54602 0.342906 0
M  V30 1547 H 145.999 -5.87037 -1.23077 0
M  V30 1548 H 147.678 -6.39863 -0.958317 0
M  V30 1549 N 147.81 0.181792 -1.56548 0
M  V30 1550 C 148.74 1.22765 -1.98623 0
M  V30 1551 C 149.721 1.46747 -0.860189 0
M  V30 1552 O 150.906 1.58259 -1.12551 0
M  V30 1553 C 148.036 2.56894 -2.33715 0
M  V30 1554 C 146.99 2.475 -3.49182 0
M  V30 1555 C 146.316 3.86023 -3.69986 0
M  V30 1556 C 147.616 1.98866 -4.82959 0
M  V30 1557 H 149.31 0.877942 -2.86239 0
M  V30 1558 H 146.856 0.42088 -1.37712 0
M  V30 1559 H 148.809 3.30253 -2.61746 0
M  V30 1560 H 147.533 2.93632 -1.42997 0
M  V30 1561 H 146.192 1.76596 -3.21262 0
M  V30 1562 H 145.84 4.20136 -2.76576 0
M  V30 1563 H 145.54 3.80609 -4.47672 0
M  V30 1564 H 147.064 4.60984 -4.00407 0
M  V30 1565 H 148.478 2.61992 -5.09934 0
M  V30 1566 H 146.875 2.04424 -5.64208 0
M  V30 1567 H 147.945 0.942465 -4.75653 0
M  V30 1568 N 149.288 1.51039 0.449983 0
M  V30 1569 C 150.218 1.74379 1.55288 0
M  V30 1570 C 151.199 0.593236 1.5942 0
M  V30 1571 O 152.384 0.834625 1.7535 0
M  V30 1572 C 149.514 1.85728 2.93466 0
M  V30 1573 C 148.468 3.01078 3.04197 0
M  V30 1574 C 147.794 2.97595 4.44231 0
M  V30 1575 C 149.094 4.41254 2.7945 0
M  V30 1576 H 150.788 2.66725 1.36008 0
M  V30 1577 H 148.334 1.2835 0.652864 0
M  V30 1578 H 150.287 2.0064 3.70569 0
M  V30 1579 H 149.011 0.900207 3.13949 0
M  V30 1580 H 147.67 2.85851 2.29531 0
M  V30 1581 H 147.318 1.99691 4.61663 0
M  V30 1582 H 147.018 3.75046 4.52343 0
M  V30 1583 H 148.542 3.14583 5.23326 0
M  V30 1584 H 149.956 4.56897 3.46292 0
M  V30 1585 H 148.353 5.20315 2.98985 0
M  V30 1586 H 149.423 4.52164 1.75144 0
M  V30 1587 N 150.766 -0.704594 1.40972 0
M  V30 1588 C 152.012 -1.46546 1.41053 0
M  V30 1589 C 152.367 -1.92393 0.0159714 0
M  V30 1590 O 151.66 -1.66017 -0.956506 0
M  V30 1591 C 151.854 -2.698 2.34399 0
M  V30 1592 C 151.683 -2.36008 3.82793 0
M  V30 1593 C 150.453 -2.26812 4.51536 0
M  V30 1594 C 152.651 -1.99565 4.74003 0
M  V30 1595 N 150.633 -1.8581 5.85105 0
M  V30 1596 C 152.004 -1.69251 5.96451 0
M  V30 1597 C 154.059 -1.86296 4.61734 0
M  V30 1598 C 152.762 -1.27003 7.07999 0
M  V30 1599 C 154.788 -1.45452 5.73234 0
M  V30 1600 C 154.15 -1.16043 6.94776 0
M  V30 1601 H 150.249 -0.533896 0.571383 0
M  V30 1602 H 152.833 -0.816061 1.76773 0
M  V30 1603 H 151.004 -3.32473 2.00789 0
M  V30 1604 H 152.736 -3.36214 2.25261 0
M  V30 1605 H 149.491 -2.44913 4.05357 0
M  V30 1606 H 149.915 -1.67817 6.55871 0
M  V30 1607 H 154.557 -2.0769 3.68273 0
M  V30 1608 H 152.275 -1.04353 8.01334 0
M  V30 1609 H 155.861 -1.35748 5.65742 0
M  V30 1610 H 154.741 -0.84915 7.79589 0
M  V30 1611 N 152.244 -1.26651 -0.937939 0
M  V30 1612 C 153.493 -1.11775 -1.67897 0
M  V30 1613 C 153.806 0.33794 -1.92659 0
M  V30 1614 O 155.012 0.607434 -2.64618 0
M  V30 1615 C 153.468 -1.9523 -3.02346 0
M  V30 1616 C 153.076 -3.45393 -2.8532 0
M  V30 1617 C 154.82 -1.88972 -3.80118 0
M  V30 1618 C 152.727 -4.21083 -4.15263 0
M  V30 1619 H 151.657 -0.414696 -0.629717 0
M  V30 1620 H 154.308 -1.50988 -1.04283 0
M  V30 1621 H 152.69 -1.48853 -3.66959 0
M  V30 1622 H 153.864 -3.99561 -2.29537 0
M  V30 1623 H 152.179 -3.52921 -2.20988 0
M  V30 1624 H 154.776 -2.42805 -4.76392 0
M  V30 1625 H 155.119 -0.86113 -4.07296 0
M  V30 1626 H 155.652 -2.33189 -3.22285 0
M  V30 1627 H 152.391 -5.24425 -3.93267 0
M  V30 1628 H 151.911 -3.71695 -4.70747 0
M  V30 1629 H 153.59 -4.29706 -4.83696 0
M  V30 1630 N 153.722 1.14298 -1.08507 0
M  V30 1631 C 154.97 1.84993 -0.813763 0
M  V30 1632 C 155.291 1.83405 0.662393 0
M  V30 1633 O 154.561 1.28319 1.48024 0
M  V30 1634 H 153.141 0.684966 -0.298045 0
M  V30 1635 H 155.803 1.385 -1.37126 0
M  V30 1636 H 154.899 2.89788 -1.15884 0
M  V30 1637 N 155.201 0.870884 1.31352 0
M  V30 1638 C 156.164 0.332243 2.26779 0
M  V30 1639 C 157.164 -0.517302 1.52252 0
M  V30 1640 O 158.354 -0.326477 1.71113 0
M  V30 1641 C 155.486 -0.528066 3.36785 0
M  V30 1642 H 156.679 1.17469 2.75937 0
M  V30 1643 H 154.232 0.64655 1.423 0
M  V30 1644 H 154.967 -1.39167 2.92922 0
M  V30 1645 H 154.752 0.0802582 3.92018 0
M  V30 1646 H 156.242 -0.897179 4.07849 0
M  V30 1647 N 156.679 -1.44442 0.630414 0
M  V30 1648 C 157.928 -2.01267 0.132073 0
M  V30 1649 C 158.241 -1.50172 -1.25331 0
M  V30 1650 O 159.447 -1.9912 -1.84562 0
M  V30 1651 C 157.903 -3.59422 0.185362 0
M  V30 1652 C 157.511 -4.19514 1.57201 0
M  V30 1653 C 159.255 -4.23724 -0.256553 0
M  V30 1654 C 157.162 -5.69891 1.58045 0
M  V30 1655 H 156.092 -0.752619 0.0456092 0
M  V30 1656 H 158.743 -1.65666 0.789106 0
M  V30 1657 H 157.125 -3.92318 -0.538759 0
M  V30 1658 H 158.299 -3.98156 2.31966 0
M  V30 1659 H 156.614 -3.67496 1.95795 0
M  V30 1660 H 159.211 -5.34019 -0.269767 0
M  V30 1661 H 159.554 -3.96013 -1.28372 0
M  V30 1662 H 160.087 -3.95629 0.41505 0
M  V30 1663 H 156.826 -6.02336 2.58597 0
M  V30 1664 H 156.346 -5.93373 0.875725 0
M  V30 1665 H 158.025 -6.33515 1.31408 0
M  V30 1666 N 158.157 -0.370918 -1.53173 0
M  V30 1667 C 159.087 0.464847 -2.28826 0
M  V30 1668 C 160.068 1.07936 -1.31468 0
M  V30 1669 O 161.253 1.0956 -1.60344 0
M  V30 1670 C 158.383 1.60196 -3.08147 0
M  V30 1671 C 157.337 1.11443 -4.13237 0
M  V30 1672 C 156.663 2.3422 -4.80672 0
M  V30 1673 C 157.963 0.195384 -5.21934 0
M  V30 1674 H 159.657 -0.166329 -2.98938 0
M  V30 1675 H 157.203 -0.0814359 -1.4377 0
M  V30 1676 H 159.156 2.19332 -3.59822 0
M  V30 1677 H 157.88 2.26045 -2.35735 0
M  V30 1678 H 156.539 0.545727 -3.62515 0
M  V30 1679 H 156.187 2.98537 -4.04827 0
M  V30 1680 H 155.887 2.02269 -5.51689 0
M  V30 1681 H 157.411 2.94032 -5.35143 0
M  V30 1682 H 158.825 0.694375 -5.69079 0
M  V30 1683 H 157.222 -0.0335027 -6.00091 0
M  V30 1684 H 158.292 -0.760961 -4.78892 0
M  V30 1685 N 159.635 1.57281 -0.100228 0
M  V30 1686 C 160.875 1.96419 0.56558 0
M  V30 1687 C 161.239 0.981265 1.65031 0
M  V30 1688 O 162.44 1.26133 2.37369 0
M  V30 1689 C 160.711 3.39996 1.10171 0
M  V30 1690 S 162.27 4.01134 1.77867 0
M  V30 1691 H 159.088 0.68667 0.184406 0
M  V30 1692 H 161.69 1.94662 -0.180851 0
M  V30 1693 H 160.394 4.09296 0.300803 0
M  V30 1694 H 159.925 3.45361 1.88385 0
M  V30 1695 H 161.94 3.90358 3.06326 0
M  V30 1696 N 161.113 -0.173488 1.56642 0
M  V30 1697 C 162.36 -0.890465 1.81871 0
M  V30 1698 C 162.688 -1.82339 0.67696 0
M  V30 1699 O 161.943 -1.92795 -0.335926 0
M  V30 1700 C 162.242 -1.72069 3.13252 0
M  V30 1701 C 161.908 -0.936878 4.41059 0
M  V30 1702 C 160.57 -0.720545 4.75775 0
M  V30 1703 C 162.922 -0.386919 5.19762 0
M  V30 1704 C 160.25 0.0568829 5.86672 0
M  V30 1705 C 162.602 0.37741 6.31473 0
M  V30 1706 C 161.266 0.604563 6.64757 0
M  V30 1707 H 160.536 -0.325844 0.665512 0
M  V30 1708 H 163.183 -0.155527 1.90867 0
M  V30 1709 H 161.488 -2.52496 2.99588 0
M  V30 1710 H 163.185 -2.27844 3.29982 0
M  V30 1711 H 159.775 -1.11553 4.13828 0
M  V30 1712 H 163.959 -0.541398 4.93338 0
M  V30 1713 H 159.215 0.242635 6.10918 0
M  V30 1714 H 163.389 0.810825 6.91664 0
M  V30 1715 H 161.016 1.20885 7.50527 0
M  V30 1716 N 162.591 -1.51276 -0.441967 0
M  V30 1717 C 163.521 -1.752 -1.54361 0
M  V30 1718 C 164.502 -0.601682 -1.59103 0
M  V30 1719 O 165.687 -0.843913 -1.74905 0
M  V30 1720 C 162.817 -1.87282 -2.92477 0
M  V30 1721 C 161.771 -3.02687 -3.02596 0
M  V30 1722 C 161.097 -2.99947 -4.42647 0
M  V30 1723 C 162.397 -4.4273 -2.77106 0
M  V30 1724 H 164.091 -2.67442 -1.34592 0
M  V30 1725 H 161.637 -1.28694 -0.646048 0
M  V30 1726 H 163.59 -2.02602 -3.695 0
M  V30 1727 H 162.314 -0.916844 -3.13467 0
M  V30 1728 H 160.973 -2.87065 -2.28012 0
M  V30 1729 H 160.621 -2.02136 -4.60597 0
M  V30 1730 H 160.321 -3.77439 -4.50348 0
M  V30 1731 H 161.845 -3.17354 -5.2165 0
M  V30 1732 H 163.259 -4.58727 -3.43864 0
M  V30 1733 H 161.656 -5.21893 -2.96222 0
M  V30 1734 H 162.726 -4.53087 -1.72744 0
M  V30 1735 N 164.069 0.697108 -1.41344 0
M  V30 1736 C 165.032 1.79281 -1.42797 0
M  V30 1737 C 166.032 1.57607 -0.318837 0
M  V30 1738 O 167.222 1.64309 -0.578642 0
M  V30 1739 C 164.354 3.17632 -1.23785 0
M  V30 1740 H 165.547 1.79385 -2.40335 0
M  V30 1741 H 163.1 0.904582 -1.27464 0
M  V30 1742 H 163.835 3.23167 -0.270814 0
M  V30 1743 H 163.62 3.34765 -2.04144 0
M  V30 1744 H 165.11 3.97617 -1.27633 0
M  V30 1745 N 165.547 1.27147 0.931209 0
M  V30 1746 C 166.777 1.15914 1.71019 0
M  V30 1747 C 167.185 -0.287112 1.87009 0
M  V30 1748 O 166.528 -1.20761 1.38429 0
M  V30 1749 C 166.59 1.76647 3.13107 0
M  V30 1750 C 166.254 3.25807 3.20467 0
M  V30 1751 C 167.251 4.22489 3.02983 0
M  V30 1752 C 164.936 3.66452 3.43538 0
M  V30 1753 C 166.93 5.57794 3.08454 0
M  V30 1754 C 164.617 5.01888 3.48643 0
M  V30 1755 C 165.615 5.97369 3.31119 0
M  V30 1756 O 165.303 7.30337 3.35952 0
M  V30 1757 H 165.035 0.404062 0.54195 0
M  V30 1758 H 167.589 1.68457 1.17521 0
M  V30 1759 H 165.819 1.18578 3.68071 0
M  V30 1760 H 167.508 1.60179 3.72958 0
M  V30 1761 H 168.274 3.92425 2.85004 0
M  V30 1762 H 164.153 2.92611 3.5623 0
M  V30 1763 H 167.697 6.32298 2.94694 0
M  V30 1764 H 163.594 5.31609 3.66145 0
M  V30 1765 H 164.362 7.38739 3.5243 0
M  V30 1766 N 167.025 -1.13721 1.09112 0
M  V30 1767 C 168.273 -1.84559 0.823562 0
M  V30 1768 C 168.594 -1.83754 -0.652658 0
M  V30 1769 O 167.864 -1.29102 -1.47342 0
M  V30 1770 H 166.444 -0.683376 0.301673 0
M  V30 1771 H 169.106 -1.37771 1.37859 0
M  V30 1772 H 168.202 -2.8917 1.17419 0
M  V30 1773 N 168.503 -0.877838 -1.30888 0
M  V30 1774 C 169.752 -0.488793 -1.95688 0
M  V30 1775 C 170.065 0.965485 -1.70111 0
M  V30 1776 O 171.271 1.46104 -2.28836 0
M  V30 1777 C 169.727 -0.823201 -3.50359 0
M  V30 1778 C 169.335 -2.29477 -3.84765 0
M  V30 1779 C 171.079 -0.503009 -4.21509 0
M  V30 1780 C 168.986 -2.57118 -5.32583 0
M  V30 1781 H 167.916 -0.179062 -0.732429 0
M  V30 1782 H 170.567 -1.07183 -1.48943 0
M  V30 1783 H 168.949 -0.169331 -3.95638 0
M  V30 1784 H 170.123 -2.99236 -3.5042 0
M  V30 1785 H 168.438 -2.58178 -3.267 0
M  V30 1786 H 171.035 -0.68665 -5.30273 0
M  V30 1787 H 171.378 0.557109 -4.12555 0
M  V30 1788 H 171.911 -1.11376 -3.8189 0
M  V30 1789 H 168.65 -3.61843 -5.4658 0
M  V30 1790 H 168.17 -1.91961 -5.68253 0
M  V30 1791 H 169.849 -2.42251 -5.99936 0
M  V30 1792 N 169.982 1.44106 -0.638065 0
M  V30 1793 C 170.914 2.28976 0.101205 0
M  V30 1794 C 171.927 1.4167 0.802088 0
M  V30 1795 O 173.116 1.65755 0.662375 0
M  V30 1796 C 170.216 3.18217 1.16581 0
M  V30 1797 C 169.389 4.33978 0.546066 0
M  V30 1798 C 168.448 5.04202 1.50554 0
M  V30 1799 O 167.474 5.59986 1.01999 0
M  V30 1800 N 168.676 5.06296 2.8398 0
M  V30 1801 H 171.441 2.93064 -0.627186 0
M  V30 1802 H 169.002 1.54629 -0.479731 0
M  V30 1803 H 170.994 3.62061 1.80815 0
M  V30 1804 H 169.564 2.55833 1.79634 0
M  V30 1805 H 168.784 3.93239 -0.275046 0
M  V30 1806 H 170.072 5.08675 0.112793 0
M  V30 1807 H 169.47 4.62319 3.26002 0
M  V30 1808 H 168.027 5.53907 3.43556 0
M  V30 1809 N 171.46 0.379036 1.52974 0
M  V30 1810 C 172.423 -0.448865 2.24762 0
M  V30 1811 C 173.423 -0.998689 1.26027 0
M  V30 1812 O 174.613 -0.882313 1.50203 0
M  V30 1813 C 171.745 -1.62872 2.99476 0
M  V30 1814 H 172.938 0.179491 2.99362 0
M  V30 1815 H 170.491 0.13096 1.5575 0
M  V30 1816 H 171.226 -2.29479 2.29151 0
M  V30 1817 H 171.011 -1.24128 3.71934 0
M  V30 1818 H 172.501 -2.2151 3.5401 0
M  V30 1819 N 172.938 -1.57226 0.108567 0
M  V30 1820 C 173.901 -2.13602 -0.831082 0
M  V30 1821 C 174.901 -1.06841 -1.20173 0
M  V30 1822 O 176.091 -1.32666 -1.12895 0
M  V30 1823 C 173.223 -2.66769 -2.12243 0
M  V30 1824 H 174.416 -2.97951 -0.341317 0
M  V30 1825 H 171.969 -1.55667 -0.14057 0
M  V30 1826 H 172.704 -1.85977 -2.65675 0
M  V30 1827 H 172.489 -3.44839 -1.86625 0
M  V30 1828 H 173.979 -3.10332 -2.79435 0
M  V30 1829 N 174.416 0.165178 -1.56732 0
M  V30 1830 C 175.349 1.23336 -1.91998 0
M  V30 1831 C 176.327 1.42476 -0.783531 0
M  V30 1832 O 177.511 1.57384 -1.03743 0
M  V30 1833 C 174.638 2.59533 -2.17625 0
M  V30 1834 C 173.684 2.57093 -3.40302 0
M  V30 1835 S 174.517 2.05571 -4.9447 0
M  V30 1836 C 175.673 3.43532 -5.23198 0
M  V30 1837 H 175.906 0.932387 -2.82301 0
M  V30 1838 H 173.439 0.370013 -1.49901 0
M  V30 1839 H 175.397 3.37918 -2.3307 0
M  V30 1840 H 174.058 2.86827 -1.28019 0
M  V30 1841 H 173.251 3.57308 -3.55453 0
M  V30 1842 H 172.853 1.86806 -3.24005 0
M  V30 1843 H 175.145 4.39559 -5.15552 0
M  V30 1844 H 176.088 3.33251 -6.2478 0
M  V30 1845 H 176.496 3.39828 -4.50752 0
M  V30 1846 N 175.894 1.51508 0.433938 0
M  V30 1847 C 176.804 1.75917 1.5521 0
M  V30 1848 C 177.82 0.643545 1.61662 0
M  V30 1849 O 178.996 0.926183 1.7884 0
M  V30 1850 C 176.061 1.88213 2.91164 0
M  V30 1851 C 175.122 3.12074 2.94802 0
M  V30 1852 C 174.355 3.23774 4.24271 0
M  V30 1853 O 174.578 2.4133 5.16833 0
M  V30 1854 O 173.512 4.16774 4.34262 0
M  V30 1855 H 177.338 2.70777 1.37527 0
M  V30 1856 H 174.923 1.36051 0.617293 0
M  V30 1857 H 176.805 1.98267 3.71845 0
M  V30 1858 H 175.48 0.965413 3.08968 0
M  V30 1859 H 174.387 3.07497 2.13065 0
M  V30 1860 H 175.72 4.03446 2.81943 0
M  V30 1861 N 177.372 -0.689602 1.41712 0
M  V30 1862 C 178.649 -1.44457 1.31877 0
M  V30 1863 C 179.029 -2.11039 -0.0508537 0
M  V30 1864 O 178.377 -2.02138 -1.06547 0
M  V30 1865 C 178.587 -2.45913 2.47645 0
M  V30 1866 C 179.935 -3.10991 2.89084 0
M  V30 1867 O 180.959 -2.56238 2.47428 0
M  V30 1868 O 179.818 -4.10174 3.61137 0
M  V30 1869 H 176.912 -0.64362 0.519309 0
M  V30 1870 H 179.458 -0.719576 1.53689 0
M  V30 1871 H 178.23 -1.95409 3.39015 0
M  V30 1872 H 177.853 -3.25913 2.27742 0
M  V30 1873 N 178.85 -1.27639 -0.924453 0
M  V30 1874 C 179.76 -1.12466 -2.05885 0
M  V30 1875 C 180.776 -0.053869 -1.73917 0
M  V30 1876 O 181.952 -0.261012 -1.99702 0
M  V30 1877 C 179.017 -0.776768 -3.37886 0
M  V30 1878 C 178.078 -1.92878 -3.83532 0
M  V30 1879 C 177.311 -1.59739 -5.09234 0
M  V30 1880 O 177.534 -0.506782 -5.68144 0
M  V30 1881 O 176.468 -2.43761 -5.50331 0
M  V30 1882 H 180.294 -2.07671 -2.21599 0
M  V30 1883 H 177.879 -1.06857 -1.04413 0
M  V30 1884 H 179.761 -0.596229 -4.17161 0
M  V30 1885 H 178.436 0.145732 -3.23372 0
M  V30 1886 H 177.343 -2.1644 -3.0513 0
M  V30 1887 H 178.676 -2.8316 -4.02593 0
M  V30 1888 N 180.328 1.1314 -1.09713 0
M  V30 1889 C 181.739 1.66029 -0.853885 0
M  V30 1890 C 182.09 1.86241 0.617142 0
M  V30 1891 O 181.215 1.5834 1.47503 0
M  V30 1892 C 181.81 3.01599 -1.5435 0
M  V30 1893 C 180.369 3.51467 -1.34714 0
M  V30 1894 C 179.516 2.26648 -1.59769 0
M  V30 1895 H 182.467 0.970226 -1.25588 0
M  V30 1896 H 182.488 3.67709 -0.978267 0
M  V30 1897 H 182 2.86856 -2.6141 0
M  V30 1898 H 180.101 3.71408 -0.297838 0
M  V30 1899 H 180.214 4.314 -2.08401 0
M  V30 1900 H 178.578 2.33385 -1.01998 0
M  V30 1901 H 179.361 2.14467 -2.68065 0
M  V30 1902 N 181.806 0.884767 1.30421 0
M  V30 1903 C 183.031 0.517288 2.00845 0
M  V30 1904 C 183.456 -0.886779 1.65885 0
M  V30 1905 O 182.814 -1.58768 0.875354 0
M  V30 1906 C 182.862 0.698994 3.5376 0
M  V30 1907 O 181.966 -0.255208 4.1161 0
M  V30 1908 H 181.307 0.203872 0.631927 0
M  V30 1909 H 183.837 1.19225 1.66272 0
M  V30 1910 H 183.847 0.597912 4.03595 0
M  V30 1911 H 182.522 1.72271 3.78544 0
M  V30 1912 H 181.099 -0.10784 3.72744 0
M  V30 1913 N 183.284 -1.43765 0.645699 0
M  V30 1914 C 184.232 -2.32516 -0.0624849 0
M  V30 1915 C 185.226 -1.48183 -0.820855 0
M  V30 1916 O 186.432 -1.64439 -0.732106 0
M  V30 1917 H 182.807 -0.750989 -0.0389864 0
M  V30 1918 H 184.778 -2.89979 0.703892 0
M  V30 1919 C 183.527 -3.32389 -1.02044 0
M  V30 1920 H 182.85 -3.97301 -0.446312 0
M  V30 1921 H 184.29 -3.97138 -1.48517 0
M  V30 1922 C 182.749 -2.62416 -2.11281 0
M  V30 1923 O 183.279 -2.434 -3.19561 0
M  V30 1924 N 181.485 -2.21913 -1.87624 0
M  V30 1925 H 181.032 -2.37578 -0.995703 0
M  V30 1926 H 180.99 -1.75424 -2.6091 0
M  V30 1927 N 184.763 -0.387143 -1.52771 0
M  V30 1928 C 186.04 0.253197 -1.93954 0
M  V30 1929 C 186.42 1.64545 -1.32243 0
M  V30 1930 O 185.768 2.23191 -0.489699 0
M  V30 1931 C 185.978 0.281722 -3.47861 0
M  V30 1932 C 187.326 0.511715 -4.21505 0
M  V30 1933 O 188.35 0.362023 -3.54356 0
M  V30 1934 O 187.209 0.804847 -5.40541 0
M  V30 1935 H 184.303 0.156845 -0.811991 0
M  V30 1936 H 186.849 -0.441494 -1.63856 0
M  V30 1937 H 185.621 -0.693571 -3.85104 0
M  V30 1938 H 185.244 1.02142 -3.84256 0
M  V30 1939 N 186.241 1.57166 -0.116904 0
M  V30 1940 C 187.189 2.16457 0.851418 0
M  V30 1941 C 188.183 1.11323 1.27686 0
M  V30 1942 O 189.389 1.2963 1.24884 0
M  V30 1943 H 185.764 0.69271 0.292672 0
M  V30 1944 H 187.735 2.96605 0.32685 0
M  V30 1945 C 186.484 2.77689 2.09246 0
M  V30 1946 H 185.807 3.58285 1.77402 0
M  V30 1947 H 187.247 3.22716 2.7501 0
M  V30 1948 C 185.706 1.74667 2.88085 0
M  V30 1949 O 186.236 1.19877 3.83396 0
M  V30 1950 N 184.442 1.44656 2.52038 0
M  V30 1951 H 183.989 1.89402 1.74599 0
M  V30 1952 H 183.947 0.759675 3.05084 0
M  V30 1953 N 187.719 -0.156864 1.56817 0
M  V30 1954 C 188.649 -1.19589 2.00551 0
M  V30 1955 C 189.63 -1.4536 0.883426 0
M  V30 1956 O 190.815 -1.56449 1.15054 0
M  V30 1957 C 187.945 -2.53143 2.37773 0
M  V30 1958 C 186.899 -2.41913 3.53075 0
M  V30 1959 C 186.225 -3.80088 3.76081 0
M  V30 1960 C 187.525 -1.91157 4.86062 0
M  V30 1961 H 189.219 -0.832293 2.87599 0
M  V30 1962 H 186.765 -0.398918 1.38364 0
M  V30 1963 H 188.718 -3.26047 2.66967 0
M  V30 1964 H 187.442 -2.91319 1.4765 0
M  V30 1965 H 186.101 -1.71462 3.24031 0
M  V30 1966 H 185.749 -4.15683 2.83225 0
M  V30 1967 H 185.449 -3.73439 4.53671 0
M  V30 1968 H 186.973 -4.54556 4.0769 0
M  V30 1969 H 188.387 -2.53846 5.14038 0
M  V30 1970 H 186.784 -1.95422 5.67389 0
M  V30 1971 H 187.854 -0.866673 4.77092 0
M  V30 1972 N 189.197 -1.51736 -0.425897 0
M  V30 1973 C 190.427 -1.68549 -1.19476 0
M  V30 1974 C 190.835 -0.387288 -1.85194 0
M  V30 1975 O 190.178 0.645142 -1.71999 0
M  V30 1976 C 190.24 -2.75275 -2.31223 0
M  V30 1977 C 189.904 -4.17534 -1.8578 0
M  V30 1978 C 190.901 -5.01936 -1.35485 0
M  V30 1979 C 188.586 -4.6369 -1.93123 0
M  V30 1980 C 190.58 -6.30559 -0.931347 0
M  V30 1981 C 188.267 -5.92307 -1.50384 0
M  V30 1982 C 189.265 -6.75569 -1.00473 0
M  V30 1983 O 188.953 -8.0178 -0.583452 0
M  V30 1984 H 188.685 -0.568525 -0.365725 0
M  V30 1985 H 191.239 -1.98982 -0.509444 0
M  V30 1986 H 189.469 -2.40182 -3.03067 0
M  V30 1987 H 191.158 -2.80853 -2.93047 0
M  V30 1988 H 191.924 -4.67475 -1.29197 0
M  V30 1989 H 187.803 -3.98997 -2.30916 0
M  V30 1990 H 191.347 -6.95498 -0.541084 0
M  V30 1991 H 187.244 -6.2628 -1.56346 0
M  V30 1992 H 188.012 -8.1543 -0.708275 0
M  V30 1993 N 190.675 0.682077 -1.42076 0
M  V30 1994 C 191.605 1.80796 -1.47767 0
M  V30 1995 C 192.586 1.6677 -0.334954 0
M  V30 1996 O 193.771 1.863 -0.548264 0
M  V30 1997 C 190.901 3.19038 -1.37229 0
M  V30 1998 C 189.855 3.47789 -2.49453 0
M  V30 1999 C 189.181 4.8553 -2.23975 0
M  V30 2000 C 190.481 3.45411 -3.91776 0
M  V30 2001 H 192.175 1.7629 -2.41997 0
M  V30 2002 H 189.721 0.846721 -1.16476 0
M  V30 2003 H 191.674 3.97528 -1.39821 0
M  V30 2004 H 190.398 3.24204 -0.394907 0
M  V30 2005 H 189.057 2.71657 -2.46166 0
M  V30 2006 H 188.705 4.87337 -1.24547 0
M  V30 2007 H 188.405 5.0573 -2.99184 0
M  V30 2008 H 189.929 5.66312 -2.28304 0
M  V30 2009 H 191.343 4.13882 -3.96705 0
M  V30 2010 H 189.74 3.77145 -4.66778 0
M  V30 2011 H 190.81 2.44122 -4.18966 0
M  V30 2012 N 192.153 1.28127 0.917671 0
M  V30 2013 C 193.401 1.14825 1.66312 0
M  V30 2014 C 193.722 -0.304379 1.9261 0
M  V30 2015 O 192.992 -1.21149 1.53947 0
M  V30 2016 H 191.572 0.421953 0.616413 0
M  V30 2017 H 194.234 1.608 1.10134 0
M  V30 2018 H 193.33 1.68489 2.62712 0
M  V30 2019 N 193.631 -1.12557 1.10312 0
M  V30 2020 C 194.877 -1.84311 0.846011 0
M  V30 2021 C 195.21 -1.83805 -0.626859 0
M  V30 2022 O 194.485 -1.28268 -1.46211 0
M  V30 2023 C 194.768 -3.32048 1.39341 0
M  V30 2024 C 194.621 -3.41016 2.93305 0
M  V30 2025 C 195.94 -4.27764 1.03468 0
M  V30 2026 H 193.059 -0.669192 0.30879 0
M  V30 2027 H 195.701 -1.32057 1.36605 0
M  V30 2028 H 193.851 -3.76678 0.951087 0
M  V30 2029 H 195.523 -3.05031 3.46055 0
M  V30 2030 H 193.766 -2.81603 3.29973 0
M  V30 2031 H 194.437 -4.44948 3.26689 0
M  V30 2032 H 196.913 -3.91253 1.41633 0
M  V30 2033 H 195.789 -5.29549 1.44463 0
M  V30 2034 H 196.05 -4.42064 -0.0560404 0
M  V30 2035 N 195.109 -0.891671 -1.2995 0
M  V30 2036 C 196.355 -0.514261 -1.96171 0
M  V30 2037 C 196.688 0.935506 -1.70182 0
M  V30 2038 O 195.963 1.66204 -1.01028 0
M  V30 2039 C 196.246 -0.797719 -3.51153 0
M  V30 2040 C 196.099 -2.2986 -3.86632 0
M  V30 2041 C 197.418 -0.278749 -4.39216 0
M  V30 2042 H 194.537 -0.188314 -0.712535 0
M  V30 2043 H 197.179 -1.11689 -1.53706 0
M  V30 2044 H 195.329 -0.284826 -3.87455 0
M  V30 2045 H 197.001 -2.88042 -3.60319 0
M  V30 2046 H 195.244 -2.76257 -3.34462 0
M  V30 2047 H 195.915 -2.44753 -4.94773 0
M  V30 2048 H 198.391 -0.717825 -4.09862 0
M  V30 2049 H 197.267 -0.506353 -5.46559 0
M  V30 2050 H 197.528 0.820266 -4.34424 0
M  V30 2051 N 196.587 1.43421 -0.653314 0
M  V30 2052 C 197.517 2.33487 0.0246656 0
M  V30 2053 C 198.498 1.49475 0.811863 0
M  V30 2054 O 199.683 1.78139 0.773322 0
M  V30 2055 C 196.813 3.32841 0.99166 0
M  V30 2056 C 195.767 4.26842 0.314568 0
M  V30 2057 C 195.093 5.16236 1.39302 0
M  V30 2058 C 196.393 5.16243 -0.793095 0
M  V30 2059 H 198.087 2.90427 -0.727481 0
M  V30 2060 H 195.633 1.39649 -0.351287 0
M  V30 2061 H 197.586 3.94747 1.47487 0
M  V30 2062 H 196.31 2.74158 1.77497 0
M  V30 2063 H 194.969 3.663 -0.148199 0
M  V30 2064 H 194.617 4.53891 2.16776 0
M  V30 2065 H 194.317 5.79948 0.945223 0
M  V30 2066 H 195.841 5.81015 1.87759 0
M  V30 2067 H 197.255 5.71958 -0.392039 0
M  V30 2068 H 195.652 5.88676 -1.16536 0
M  V30 2069 H 196.722 4.55927 -1.65103 0
M  V30 2070 N 198.065 0.39524 1.52563 0
M  V30 2071 C 199.028 -0.425001 2.25225 0
M  V30 2072 C 200.028 -0.985266 1.27079 0
M  V30 2073 O 201.218 -0.866332 1.5113 0
M  V30 2074 C 198.35 -1.59686 3.01186 0
M  V30 2075 H 199.543 0.211233 2.99155 0
M  V30 2076 H 197.096 0.147472 1.55603 0
M  V30 2077 H 197.831 -2.27035 2.31572 0
M  V30 2078 H 197.616 -1.20176 3.73229 0
M  V30 2079 H 199.106 -2.17743 3.5634 0
M  V30 2080 N 199.544 -1.57102 0.125237 0
M  V30 2081 C 200.507 -2.14471 -0.80838 0
M  V30 2082 C 201.507 -1.0811 -1.19033 0
M  V30 2083 O 202.697 -1.33856 -1.11482 0
M  V30 2084 C 199.829 -2.69005 -2.09402 0
M  V30 2085 H 201.022 -2.98297 -0.309696 0
M  V30 2086 H 198.575 -1.55807 -0.124051 0
M  V30 2087 H 199.31 -1.88785 -2.63687 0
M  V30 2088 H 199.095 -3.46799 -1.82957 0
M  V30 2089 H 200.585 -3.13278 -2.76128 0
M  V30 2090 N 201.022 0.148545 -1.56898 0
M  V30 2091 C 202.268 0.862694 -1.83536 0
M  V30 2092 C 202.601 1.80889 -0.706604 0
M  V30 2093 O 201.876 1.92328 0.289885 0
M  V30 2094 C 202.159 1.63853 -3.20662 0
M  V30 2095 C 202.012 0.713925 -4.44098 0
M  V30 2096 C 203.331 2.60133 -3.54991 0
M  V30 2097 H 200.45 0.312179 -0.667618 0
M  V30 2098 H 203.092 0.127953 -1.89569 0
M  V30 2099 H 201.242 2.26489 -3.1565 0
M  V30 2100 H 202.914 0.098686 -4.61194 0
M  V30 2101 H 201.157 0.0234019 -4.33794 0
M  V30 2102 H 201.828 1.29278 -5.36648 0
M  V30 2103 H 204.304 2.07616 -3.60603 0
M  V30 2104 H 203.18 3.11468 -4.51972 0
M  V30 2105 H 203.441 3.41417 -2.80868 0
M  V30 2106 N 202.5 1.5196 0.417844 0
M  V30 2107 C 203.746 1.65836 1.16732 0
M  V30 2108 C 204.079 0.382881 1.90388 0
M  V30 2109 O 203.354 -0.618368 1.84408 0
M  V30 2110 C 203.637 2.87466 2.16876 0
M  V30 2111 C 203.49 4.25041 1.47174 0
M  V30 2112 C 204.809 3.04613 3.17646 0
M  V30 2113 H 201.928 0.603515 0.423011 0
M  V30 2114 H 204.57 1.84494 0.454105 0
M  V30 2115 H 202.72 2.71689 2.777 0
M  V30 2116 H 204.392 4.52527 0.895376 0
M  V30 2117 H 202.635 4.26843 0.773806 0
M  V30 2118 H 203.306 5.06176 2.20204 0
M  V30 2119 H 205.782 3.1923 2.66892 0
M  V30 2120 H 204.658 3.91247 3.8499 0
M  V30 2121 H 204.919 2.17541 3.84874 0
M  V30 2122 N 203.978 -0.674533 1.42435 0
M  V30 2123 C 205.227 -1.43034 1.42212 0
M  V30 2124 C 205.54 -1.95555 0.0420788 0
M  V30 2125 O 206.746 -2.71374 -0.0827558 0
M  V30 2126 C 205.202 -2.58748 2.50155 0
M  V30 2127 C 204.81 -2.12925 3.94166 0
M  V30 2128 C 206.554 -3.36257 2.59098 0
M  V30 2129 C 204.461 -3.25723 4.93618 0
M  V30 2130 H 203.391 -0.537345 0.528939 0
M  V30 2131 H 206.042 -0.73024 1.68344 0
M  V30 2132 H 204.424 -3.31128 2.17188 0
M  V30 2133 H 205.598 -1.47697 4.36488 0
M  V30 2134 H 203.913 -1.48354 3.89076 0
M  V30 2135 H 206.51 -4.20264 3.30578 0
M  V30 2136 H 206.853 -3.82866 1.63461 0
M  V30 2137 H 207.386 -2.70947 2.9126 0
M  V30 2138 H 204.125 -2.84105 5.90732 0
M  V30 2139 H 203.645 -3.89732 4.55926 0
M  V30 2140 H 205.324 -3.91186 5.15347 0
M  V30 2141 N 205.456 -1.28612 -0.910864 0
M  V30 2142 C 206.702 -1.16106 -1.66274 0
M  V30 2143 C 207.035 0.289113 -1.92036 0
M  V30 2144 O 206.31 1.21 -1.52281 0
M  V30 2145 C 206.593 -1.96309 -3.01885 0
M  V30 2146 C 206.446 -3.49405 -2.8326 0
M  V30 2147 C 207.765 -1.78076 -4.02463 0
M  V30 2148 H 204.884 -0.423152 -0.603417 0
M  V30 2149 H 207.526 -1.57961 -1.05586 0
M  V30 2150 H 205.676 -1.60742 -3.53687 0
M  V30 2151 H 207.348 -3.94894 -2.38446 0
M  V30 2152 H 205.591 -3.74893 -2.18261 0
M  V30 2153 H 206.262 -4.00784 -3.79574 0
M  V30 2154 H 208.738 -2.0912 -3.59733 0
M  V30 2155 H 207.614 -2.36561 -4.95308 0
M  V30 2156 H 207.875 -0.733008 -4.35981 0
M  V30 2157 N 206.934 1.1197 -1.10907 0
M  V30 2158 C 208.162 1.87402 -0.876824 0
M  V30 2159 C 208.577 1.79894 0.573025 0
M  V30 2160 O 207.934 1.17629 1.39534 0
M  V30 2161 C 207.985 3.36428 -1.32282 0
M  V30 2162 O 207.706 3.43765 -2.71582 0
M  V30 2163 C 209.207 4.28783 -1.12518 0
M  V30 2164 H 206.427 0.592793 -0.314384 0
M  V30 2165 H 208.971 1.41649 -1.47499 0
M  V30 2166 H 207.126 3.79706 -0.768229 0
M  V30 2167 H 207.54 4.3652 -2.90776 0
M  V30 2168 H 209.014 5.31613 -1.48633 0
M  V30 2169 H 209.491 4.39153 -0.0642394 0
M  V30 2170 H 210.097 3.91291 -1.66648 0
M  V30 2171 N 208.412 0.89855 1.29475 0
M  V30 2172 C 209.66 0.522847 1.9522 0
M  V30 2173 C 209.981 -0.93371 1.71192 0
M  V30 2174 O 209.251 -1.65823 1.04305 0
M  V30 2175 H 207.831 0.190366 0.722336 0
M  V30 2176 H 210.493 1.14459 1.5775 0
M  V30 2177 H 209.589 0.704476 3.04045 0
M  V30 2178 N 209.89 -1.43072 0.660911 0
M  V30 2179 C 211.13 -2.03596 0.181146 0
M  V30 2180 C 211.494 -1.51057 -1.18515 0
M  V30 2181 O 212.695 -2.03275 -1.75877 0
M  V30 2182 C 210.966 -3.56845 0.19911 0
M  V30 2183 S 212.525 -4.38289 -0.211684 0
M  V30 2184 H 209.343 -0.706954 0.0757479 0
M  V30 2185 H 211.945 -1.75027 0.870965 0
M  V30 2186 H 210.649 -3.92583 1.1961 0
M  V30 2187 H 210.18 -3.90067 -0.510996 0
M  V30 2188 H 212.195 -4.74583 -1.44863 0
M  V30 2189 N 211.368 -0.403325 -1.52352 0
M  V30 2190 C 212.615 0.174347 -2.01748 0
M  V30 2191 C 212.943 1.45636 -1.2892 0
M  V30 2192 O 212.198 1.9193 -0.382258 0
M  V30 2193 C 212.497 0.474665 -3.54234 0
M  V30 2194 C 212.163 -0.717458 -4.45155 0
M  V30 2195 C 210.825 -1.04447 -4.69728 0
M  V30 2196 C 213.177 -1.51432 -4.98716 0
M  V30 2197 C 210.505 -2.16963 -5.45109 0
M  V30 2198 C 212.857 -2.6302 -5.75329 0
M  V30 2199 C 211.521 -2.96213 -5.98175 0
M  V30 2200 H 210.791 0.0637981 -0.738248 0
M  V30 2201 H 213.438 -0.543553 -1.83624 0
M  V30 2202 H 211.743 1.27406 -3.70506 0
M  V30 2203 H 213.44 0.934496 -3.89959 0
M  V30 2204 H 210.03 -0.452596 -4.26204 0
M  V30 2205 H 214.214 -1.27491 -4.79645 0
M  V30 2206 H 209.47 -2.43034 -5.61021 0
M  V30 2207 H 213.644 -3.25158 -6.15829 0
M  V30 2208 H 211.271 -3.83516 -6.56368 0
M  V30 2209 N 212.846 1.57033 -0.133567 0
M  V30 2210 C 214.071 2.00475 0.531477 0
M  V30 2211 C 214.496 1.01291 1.58499 0
M  V30 2212 O 213.854 -0.0133279 1.81295 0
M  V30 2213 C 213.902 3.42729 1.12113 0
M  V30 2214 O 213.006 3.46498 2.23636 0
M  V30 2215 H 212.347 0.650876 0.131362 0
M  V30 2216 H 214.877 2.03344 -0.22634 0
M  V30 2217 H 214.887 3.81246 1.4531 0
M  V30 2218 H 213.562 4.14428 0.349557 0
M  V30 2219 H 212.139 3.19811 1.91769 0
M  V30 2220 N 214.325 -0.140222 1.56975 0
M  V30 2221 C 215.555 -0.865181 1.87612 0
M  V30 2222 C 215.963 -1.74942 0.72055 0
M  V30 2223 O 215.306 -1.80917 -0.318561 0
M  V30 2224 C 215.368 -1.76782 3.13031 0
M  V30 2225 C 215.032 -1.06005 4.44536 0
M  V30 2226 C 216.029 -0.410768 5.18275 0
M  V30 2227 C 213.714 -1.04754 4.91255 0
M  V30 2228 C 215.708 0.241572 6.36942 0
M  V30 2229 C 213.395 -0.391394 6.09845 0
M  V30 2230 C 214.393 0.252029 6.82535 0
M  V30 2231 O 214.081 0.897757 7.98871 0
M  V30 2232 H 213.813 -0.255188 0.625983 0
M  V30 2233 H 216.367 -0.135653 2.04952 0
M  V30 2234 H 214.597 -2.53846 2.91718 0
M  V30 2235 H 216.286 -2.36533 3.29859 0
M  V30 2236 H 217.052 -0.412195 4.83245 0
M  V30 2237 H 212.931 -1.53777 4.34596 0
M  V30 2238 H 216.475 0.744375 6.93617 0
M  V30 2239 H 212.372 -0.387656 6.44335 0
M  V30 2240 H 213.14 0.800102 8.1458 0
M  V30 2241 N 215.803 -1.52179 -0.40978 0
M  V30 2242 C 217.033 -1.69807 -1.17682 0
M  V30 2243 C 217.441 -0.406908 -1.84773 0
M  V30 2244 O 216.784 0.626863 -1.72673 0
M  V30 2245 C 216.846 -2.77712 -2.2829 0
M  V30 2246 C 216.51 -4.19481 -1.81341 0
M  V30 2247 C 217.507 -5.03345 -1.30154 0
M  V30 2248 C 215.192 -4.65713 -1.88194 0
M  V30 2249 C 217.186 -6.31511 -0.864416 0
M  V30 2250 C 214.873 -5.93869 -1.44093 0
M  V30 2251 C 215.871 -6.76597 -0.933023 0
M  V30 2252 O 215.559 -8.02354 -0.49838 0
M  V30 2253 H 215.291 -0.572372 -0.359675 0
M  V30 2254 H 217.845 -1.99511 -0.488311 0
M  V30 2255 H 216.075 -2.43383 -3.00502 0
M  V30 2256 H 217.764 -2.83946 -2.90051 0
M  V30 2257 H 218.53 -4.68819 -1.24232 0
M  V30 2258 H 214.409 -4.01424 -2.26671 0
M  V30 2259 H 217.953 -6.96033 -0.467286 0
M  V30 2260 H 213.85 -6.27903 -1.49694 0
M  V30 2261 H 214.618 -8.16135 -0.621747 0
M  V30 2262 N 217.281 0.66697 -1.42791 0
M  V30 2263 C 218.213 1.7925 -1.42836 0
M  V30 2264 C 219.226 1.59496 -0.326333 0
M  V30 2265 O 220.415 1.6847 -0.589916 0
M  V30 2266 C 217.515 3.16476 -1.21229 0
M  V30 2267 C 216.688 3.63011 -2.44013 0
M  V30 2268 C 215.747 4.78993 -2.17834 0
M  V30 2269 O 214.773 4.89137 -2.91091 0
M  V30 2270 N 215.975 5.68248 -1.18635 0
M  V30 2271 H 218.74 1.79695 -2.39854 0
M  V30 2272 H 216.301 0.850338 -1.37771 0
M  V30 2273 H 218.293 3.91734 -1.01621 0
M  V30 2274 H 216.863 3.10884 -0.32706 0
M  V30 2275 H 216.083 2.78346 -2.79137 0
M  V30 2276 H 217.371 3.90845 -3.25757 0
M  V30 2277 H 216.769 5.62712 -0.580615 0
M  V30 2278 H 215.326 6.43285 -1.05013 0
M  V30 2279 N 218.759 1.29093 0.90403 0
M  V30 2280 C 219.669 1.15727 2.0407 0
M  V30 2281 C 220.685 0.0815308 1.73809 0
M  V30 2282 O 221.861 0.292749 1.99261 0
M  V30 2283 C 218.926 0.830424 3.36608 0
M  V30 2284 C 217.987 1.98955 3.80415 0
M  V30 2285 C 217.22 1.6782 5.06628 0
M  V30 2286 O 217.443 0.597105 5.67266 0
M  V30 2287 O 216.377 2.52486 5.46383 0
M  V30 2288 H 220.203 2.11171 2.18267 0
M  V30 2289 H 217.788 1.08504 1.027 0
M  V30 2290 H 219.67 0.662521 4.16159 0
M  V30 2291 H 218.345 -0.0942678 3.23563 0
M  V30 2292 H 217.252 2.21267 3.01648 0
M  V30 2293 H 218.585 2.89529 3.98037 0
M  V30 2294 N 220.237 -1.11381 1.11499 0
M  V30 2295 C 221.2 -2.15622 0.777153 0
M  V30 2296 C 222.2 -1.59504 -0.203779 0
M  V30 2297 O 223.39 -1.74188 0.020782 0
M  V30 2298 C 220.522 -3.40556 0.153116 0
M  V30 2299 H 221.715 -2.47021 1.70061 0
M  V30 2300 H 219.268 -1.26577 0.916952 0
M  V30 2301 H 220.003 -3.14767 -0.780536 0
M  V30 2302 H 219.788 -3.8257 0.859238 0
M  V30 2303 H 221.278 -4.17546 -0.0671044 0
M  V30 2304 N 221.715 -0.905404 -1.28997 0
M  V30 2305 C 222.662 -0.385892 -2.27551 0
M  V30 2306 C 223.632 0.535113 -1.57244 0
M  V30 2307 O 224.817 0.459119 -1.85194 0
M  V30 2308 C 221.957 0.375461 -3.43051 0
M  V30 2309 C 221.07 -0.577092 -4.28128 0
M  V30 2310 C 220.205 0.201879 -5.30816 0
M  V30 2311 C 219.244 -0.744829 -6.07551 0
M  V30 2312 N 218.381 9.42587e-05 -7.021 0
M  V30 2313 H 223.221 -1.23139 -2.71368 0
M  V30 2314 H 220.758 -0.618542 -1.33463 0
M  V30 2315 H 222.716 0.832992 -4.088 0
M  V30 2316 H 221.346 1.18537 -3.00248 0
M  V30 2317 H 220.398 -1.15315 -3.62501 0
M  V30 2318 H 221.71 -1.30152 -4.8152 0
M  V30 2319 H 220.864 0.720351 -6.02408 0
M  V30 2320 H 219.603 0.959413 -4.7817 0
M  V30 2321 H 218.608 -1.27475 -5.34818 0
M  V30 2322 H 219.833 -1.50178 -6.62286 0
M  V30 2323 H 217.779 0.739791 -6.51815 0
M  V30 2324 H 217.696 -0.664321 -7.53076 0
M  V30 2325 H 218.964 0.498644 -7.77903 0
M  V30 2326 N 223.193 1.4272 -0.668489 0
M  V30 2327 C 224.418 2.06484 -0.194758 0
M  V30 2328 C 224.843 1.49862 1.13679 0
M  V30 2329 O 224.201 0.614582 1.70565 0
M  V30 2330 C 224.249 3.60353 -0.133546 0
M  V30 2331 O 223.353 4.02464 0.899806 0
M  V30 2332 H 222.694 0.656137 -0.10188 0
M  V30 2333 H 225.224 1.82964 -0.915722 0
M  V30 2334 H 225.234 4.07976 0.0447041 0
M  V30 2335 H 223.909 4.00938 -1.1055 0
M  V30 2336 H 222.486 3.66402 0.693109 0
M  V30 2337 N 224.671 0.411399 1.52136 0
M  V30 2338 C 225.896 -0.165538 2.06738 0
M  V30 2339 C 226.321 -1.379 1.27926 0
M  V30 2340 O 225.679 -1.78628 0.310114 0
M  V30 2341 C 225.727 -0.492124 3.57226 0
M  V30 2342 O 224.831 -1.58276 3.80818 0
M  V30 2343 H 224.172 -0.0132132 0.663869 0
M  V30 2344 H 226.702 0.585253 1.96051 0
M  V30 2345 H 226.712 -0.750104 4.01045 0
M  V30 2346 H 225.387 0.394922 4.14021 0
M  V30 2347 H 223.964 -1.31677 3.48877 0
M  V30 2348 N 226.149 -1.5696 0.141893 0
M  V30 2349 C 227.096 -2.16501 -0.799737 0
M  V30 2350 C 228.066 -1.09643 -1.24771 0
M  V30 2351 O 229.251 -1.3766 -1.32115 0
M  V30 2352 C 226.391 -2.78679 -2.03549 0
M  V30 2353 C 225.504 -3.99914 -1.6338 0
M  V30 2354 C 224.639 -4.50106 -2.82096 0
M  V30 2355 C 223.678 -5.63819 -2.38275 0
M  V30 2356 N 222.815 -6.08651 -3.49983 0
M  V30 2357 H 227.655 -2.96632 -0.285179 0
M  V30 2358 H 225.192 -1.46533 -0.129053 0
M  V30 2359 H 227.15 -3.1287 -2.75986 0
M  V30 2360 H 225.78 -2.012 -2.52425 0
M  V30 2361 H 224.832 -3.71735 -0.807279 0
M  V30 2362 H 226.144 -4.82311 -1.27192 0
M  V30 2363 H 225.298 -4.86325 -3.62729 0
M  V30 2364 H 224.037 -3.66706 -3.21525 0
M  V30 2365 H 223.042 -5.2718 -1.56081 0
M  V30 2366 H 224.267 -6.49 -1.99938 0
M  V30 2367 H 222.213 -5.28188 -3.89042 0
M  V30 2368 H 222.13 -6.85961 -3.17794 0
M  V30 2369 H 223.398 -6.49515 -4.30988 0
M  V30 2370 N 227.627 0.131896 -1.57047 0
M  V30 2371 C 228.876 0.84044 -1.83356 0
M  V30 2372 C 229.189 1.81646 -0.725535 0
M  V30 2373 O 230.395 2.57025 -0.874659 0
M  V30 2374 C 228.851 1.54528 -3.25037 0
M  V30 2375 C 228.459 0.610902 -4.43815 0
M  V30 2376 C 230.203 2.23972 -3.60606 0
M  V30 2377 C 228.11 1.31823 -5.76521 0
M  V30 2378 H 227.04 0.317599 -0.683847 0
M  V30 2379 H 229.691 0.0931561 -1.83263 0
M  V30 2380 H 228.073 2.33873 -3.19561 0
M  V30 2381 H 229.247 -0.148407 -4.60561 0
M  V30 2382 H 227.562 0.0241016 -4.16393 0
M  V30 2383 H 230.159 2.77558 -4.57018 0
M  V30 2384 H 230.502 3.01173 -2.87403 0
M  V30 2385 H 231.035 1.51529 -3.6781 0
M  V30 2386 H 227.774 0.587771 -6.52859 0
M  V30 2387 H 227.294 2.04987 -5.63685 0
M  V30 2388 H 228.973 1.855 -6.19838 0
M  V30 2389 N 229.106 1.52395 0.401703 0
M  V30 2390 C 230.039 1.70999 1.51111 0
M  V30 2391 C 231.017 0.55765 1.52738 0
M  V30 2392 O 232.201 0.785912 1.71335 0
M  V30 2393 C 229.328 1.75607 2.8962 0
M  V30 2394 C 228.374 2.97227 3.05873 0
M  V30 2395 S 229.207 4.57439 2.78405 0
M  V30 2396 C 230.363 4.64844 4.19131 0
M  V30 2397 H 230.596 2.6483 1.35102 0
M  V30 2398 H 228.129 1.42527 0.593762 0
M  V30 2399 H 230.087 1.78947 3.69443 0
M  V30 2400 H 228.748 0.828914 3.02965 0
M  V30 2401 H 227.941 2.96955 4.07227 0
M  V30 2402 H 227.543 2.91813 2.33925 0
M  V30 2403 H 229.835 4.42677 5.12877 0
M  V30 2404 H 230.778 5.66807 4.24424 0
M  V30 2405 H 231.186 3.93804 4.04448 0
M  V30 2406 N 230.584 -0.659388 1.43143 0
M  V30 2407 C 231.861 -1.41627 1.34912 0
M  V30 2408 C 232.241 -2.11099 -0.00607785 0
M  V30 2409 O 231.589 -2.04353 -1.02236 0
M  V30 2410 C 231.799 -2.40604 2.52805 0
M  V30 2411 C 233.147 -3.04789 2.95616 0
M  V30 2412 O 234.171 -2.50932 2.52807 0
M  V30 2413 O 233.03 -4.02421 3.69756 0
M  V30 2414 H 230.124 -0.63246 0.532844 0
M  V30 2415 H 232.67 -0.686814 1.5518 0
M  V30 2416 H 231.442 -1.88174 3.43083 0
M  V30 2417 H 231.065 -3.21009 2.34604 0
M  V30 2418 N 232.062 -1.29571 -0.897171 0
M  V30 2419 C 233.287 -1.20705 -1.68656 0
M  V30 2420 C 233.712 0.228582 -1.86706 0
M  V30 2421 O 233.07 1.16494 -1.3892 0
M  V30 2422 C 233.118 -1.9282 -3.04717 0
M  V30 2423 O 232.222 -1.24697 -3.93096 0
M  V30 2424 H 231.563 -0.418126 -0.515816 0
M  V30 2425 H 234.093 -1.71183 -1.12061 0
M  V30 2426 H 234.103 -2.01372 -3.54843 0
M  V30 2427 H 232.778 -2.97239 -2.90899 0
M  V30 2428 H 231.355 -1.2442 -3.51531 0
M  V30 2429 N 233.54 1.10788 -1.12088 0
M  V30 2430 C 234.787 1.82671 -0.873931 0
M  V30 2431 C 235.115 1.85004 0.600311 0
M  V30 2432 O 234.37 1.30365 1.45957 0
M  V30 2433 C 234.669 3.29294 -1.38926 0
M  V30 2434 C 234.335 3.47113 -2.87791 0
M  V30 2435 C 232.997 3.51684 -3.28439 0
M  V30 2436 C 235.349 3.52808 -3.83635 0
M  V30 2437 C 232.677 3.59513 -4.63646 0
M  V30 2438 C 235.029 3.62169 -5.18668 0
M  V30 2439 C 233.693 3.65003 -5.58864 0
M  V30 2440 H 232.963 0.668441 -0.319794 0
M  V30 2441 H 235.61 1.30613 -1.40045 0
M  V30 2442 H 233.915 3.83894 -0.783122 0
M  V30 2443 H 235.612 3.83416 -1.17443 0
M  V30 2444 H 232.202 3.4423 -2.5535 0
M  V30 2445 H 236.386 3.4853 -3.53328 0
M  V30 2446 H 231.642 3.59987 -4.94185 0
M  V30 2447 H 235.816 3.6552 -5.92763 0
M  V30 2448 H 233.443 3.70822 -6.63623 0
M  V30 2449 N 235.018 0.912232 1.28515 0
M  V30 2450 C 235.965 0.397954 2.27343 0
M  V30 2451 C 236.935 -0.526766 1.57526 0
M  V30 2452 O 238.12 -0.449292 1.85435 0
M  V30 2453 C 235.26 -0.357263 3.43246 0
M  V30 2454 C 234.373 0.599788 4.27816 0
M  V30 2455 C 233.508 -0.173725 5.30916 0
M  V30 2456 C 232.547 0.777039 6.07148 0
M  V30 2457 N 231.684 0.0371398 7.0209 0
M  V30 2458 H 236.524 1.24577 2.70711 0
M  V30 2459 H 234.061 0.625612 1.33133 0
M  V30 2460 H 236.019 -0.8113 4.09236 0
M  V30 2461 H 234.649 -1.16943 3.00872 0
M  V30 2462 H 233.701 1.17235 3.61884 0
M  V30 2463 H 235.013 1.32704 4.80823 0
M  V30 2464 H 234.167 -0.688394 6.02782 0
M  V30 2465 H 232.906 -0.934041 4.78672 0
M  V30 2466 H 231.911 1.3031 5.34134 0
M  V30 2467 H 233.136 1.53689 6.61481 0
M  V30 2468 H 231.082 -0.705213 6.52198 0
M  V30 2469 H 230.999 0.704249 7.52713 0
M  V30 2470 H 232.267 -0.457383 7.78157 0
M  V30 2471 N 236.496 -1.42363 0.676048 0
M  V30 2472 C 237.444 -2.32596 -0.0131507 0
M  V30 2473 C 238.438 -1.49891 -0.789238 0
M  V30 2474 O 239.644 -1.65955 -0.697061 0
M  V30 2475 H 236.019 -0.751647 -0.0230481 0
M  V30 2476 H 237.99 -2.88421 0.765243 0
M  V30 2477 C 236.739 -3.34479 -0.949702 0
M  V30 2478 H 236.062 -3.98158 -0.361938 0
M  V30 2479 H 237.502 -4.00199 -1.4006 0
M  V30 2480 C 235.961 -2.66838 -2.05667 0
M  V30 2481 O 236.491 -2.50124 -3.14326 0
M  V30 2482 N 234.697 -2.25843 -1.82875 0
M  V30 2483 H 234.244 -2.39637 -0.945085 0
M  V30 2484 H 234.202 -1.80918 -2.5713 0
M  V30 2485 N 237.974 -0.419461 -1.51915 0
M  V30 2486 C 238.907 0.445751 -2.23804 0
M  V30 2487 C 239.885 1.03951 -1.25031 0
M  V30 2488 O 241.069 1.08541 -1.54114 0
M  V30 2489 C 238.196 1.61964 -2.97465 0
M  V30 2490 C 237.242 1.14828 -4.10751 0
M  V30 2491 S 238.075 0.104938 -5.35397 0
M  V30 2492 C 239.231 1.28391 -6.1259 0
M  V30 2493 H 239.464 -0.164627 -2.96844 0
M  V30 2494 H 236.997 -0.203833 -1.53049 0
M  V30 2495 H 238.955 2.29271 -3.40507 0
M  V30 2496 H 237.616 2.20139 -2.24048 0
M  V30 2497 H 236.809 2.02561 -4.61503 0
M  V30 2498 H 236.411 0.553712 -3.69878 0
M  V30 2499 H 238.703 2.20563 -6.40592 0
M  V30 2500 H 239.646 0.816724 -7.03374 0
M  V30 2501 H 240.054 1.51439 -5.43807 0
M  V30 2502 N 239.452 1.56882 -0.150215 0
M  V30 2503 C 240.698 1.96518 0.500834 0
M  V30 2504 C 241.031 1.03527 1.64304 0
M  V30 2505 O 240.306 0.0782751 1.94342 0
M  V30 2506 C 240.589 3.45822 1.00395 0
M  V30 2507 C 240.442 4.49591 -0.136983 0
M  V30 2508 C 241.761 3.97704 1.88467 0
M  V30 2509 H 238.88 0.714535 0.18058 0
M  V30 2510 H 241.522 1.88577 -0.232091 0
M  V30 2511 H 239.672 3.5272 1.62851 0
M  V30 2512 H 241.344 4.5477 -0.77343 0
M  V30 2513 H 239.587 4.26441 -0.795652 0
M  V30 2514 H 240.258 5.51402 0.256815 0
M  V30 2515 H 242.734 3.93304 1.35834 0
M  V30 2516 H 241.61 5.0263 2.20578 0
M  V30 2517 H 241.871 3.40252 2.82279 0
M  V30 2518 N 240.93 -0.123565 1.57115 0
M  V30 2519 C 242.341 -0.681198 1.73829 0
M  V30 2520 C 242.692 -1.80535 0.768214 0
M  V30 2521 O 241.817 -2.16317 -0.0599103 0
M  V30 2522 C 242.412 -1.24246 3.15196 0
M  V30 2523 C 240.971 -1.74643 3.33432 0
M  V30 2524 C 240.118 -0.644284 2.69711 0
M  V30 2525 H 243.069 0.102315 1.5837 0
M  V30 2526 H 243.09 -2.11216 3.16493 0
M  V30 2527 H 242.602 -0.424062 3.85776 0
M  V30 2528 H 240.703 -2.58974 2.67886 0
M  V30 2529 H 240.816 -1.85902 4.41562 0
M  V30 2530 H 239.18 -1.07676 2.3082 0
M  V30 2531 H 239.963 0.163058 3.42913 0
M  V30 2532 N 242.408 -1.52605 -0.393616 0
M  V30 2533 C 243.34 -1.73303 -1.49995 0
M  V30 2534 C 244.353 -0.613473 -1.50799 0
M  V30 2535 O 245.542 -0.889049 -1.54784 0
M  V30 2536 C 242.642 -1.77245 -2.88855 0
M  V30 2537 C 241.815 -3.06483 -3.12069 0
M  V30 2538 C 240.874 -3.02033 -4.30886 0
M  V30 2539 O 239.9 -3.75907 -4.27414 0
M  V30 2540 N 241.102 -2.20897 -5.36828 0
M  V30 2541 H 243.867 -2.68756 -1.32629 0
M  V30 2542 H 241.428 -1.51036 -0.583083 0
M  V30 2543 H 243.42 -1.7178 -3.66434 0
M  V30 2544 H 241.99 -0.891993 -2.99603 0
M  V30 2545 H 241.21 -3.25474 -2.22396 0
M  V30 2546 H 242.498 -3.91947 -3.2443 0
M  V30 2547 H 241.896 -1.60336 -5.42502 0
M  V30 2548 H 240.453 -2.21275 -6.13091 0
M  V30 2549 N 243.887 0.651787 -1.4349 0
M  V30 2550 C 244.819 1.77725 -1.44729 0
M  V30 2551 C 245.832 1.59141 -0.343231 0
M  V30 2552 O 247.021 1.67835 -0.607751 0
M  V30 2553 C 244.121 3.15172 -1.24579 0
M  V30 2554 C 243.294 3.60402 -2.47849 0
M  V30 2555 C 242.353 4.76656 -2.22902 0
M  V30 2556 O 241.379 4.86022 -2.96263 0
M  V30 2557 N 242.581 5.66958 -1.24656 0
M  V30 2558 H 245.346 1.77141 -2.41746 0
M  V30 2559 H 242.907 0.835678 -1.38665 0
M  V30 2560 H 244.899 3.90634 -1.0577 0
M  V30 2561 H 243.469 3.1052 -0.360015 0
M  V30 2562 H 242.689 2.75369 -2.82073 0
M  V30 2563 H 243.977 3.87368 -3.29884 0
M  V30 2564 H 243.375 5.62065 -0.640265 0
M  V30 2565 H 241.932 6.42135 -1.1183 0
M  V30 2566 N 245.365 1.30045 0.890287 0
M  V30 2567 C 246.328 1.15963 1.977 0
M  V30 2568 C 247.328 0.0923777 1.60534 0
M  V30 2569 O 248.518 0.340071 1.70848 0
M  V30 2570 C 245.65 0.775451 3.31963 0
M  V30 2571 H 246.843 2.12502 2.11619 0
M  V30 2572 H 244.396 1.13366 1.07601 0
M  V30 2573 H 245.131 -0.189671 3.23745 0
M  V30 2574 H 244.916 1.54668 3.60306 0
M  V30 2575 H 246.406 0.700251 4.11687 0
M  V30 2576 N 246.843 -1.10192 1.12674 0
M  V30 2577 C 247.773 -2.18652 0.819362 0
M  V30 2578 C 248.754 -1.68698 -0.217915 0
M  V30 2579 O 249.939 -1.94041 -0.0785581 0
M  V30 2580 C 247.069 -3.46202 0.27594 0
M  V30 2581 C 246.023 -4.09444 1.24656 0
M  V30 2582 C 245.349 -5.31725 0.563258 0
M  V30 2583 C 246.649 -4.52863 2.60217 0
M  V30 2584 H 248.343 -2.44622 1.72628 0
M  V30 2585 H 245.889 -1.17571 0.831451 0
M  V30 2586 H 247.842 -4.21372 0.0486149 0
M  V30 2587 H 246.566 -3.1973 -0.666331 0
M  V30 2588 H 245.225 -3.36284 1.45974 0
M  V30 2589 H 244.873 -5.0153 -0.384235 0
M  V30 2590 H 244.573 -5.74991 1.21075 0
M  V30 2591 H 246.097 -6.09624 0.34503 0
M  V30 2592 H 247.511 -5.19294 2.42913 0
M  V30 2593 H 245.908 -5.06986 3.21068 0
M  V30 2594 H 246.978 -3.65656 3.18471 0
M  V30 2595 N 248.321 -0.919034 -1.28029 0
M  V30 2596 C 249.567 -0.555757 -1.95036 0
M  V30 2597 C 249.9 0.899198 -1.72128 0
M  V30 2598 O 249.175 1.64023 -1.04531 0
M  V30 2599 C 249.458 -0.872024 -3.49382 0
M  V30 2600 C 249.311 -2.3801 -3.81669 0
M  V30 2601 C 250.63 -0.37185 -4.38526 0
M  V30 2602 H 247.749 -0.203386 -0.708381 0
M  V30 2603 H 250.391 -1.14924 -1.51303 0
M  V30 2604 H 248.541 -0.366946 -3.86763 0
M  V30 2605 H 250.213 -2.9562 -3.54128 0
M  V30 2606 H 248.456 -2.83289 -3.28526 0
M  V30 2607 H 249.127 -2.55192 -4.8947 0
M  V30 2608 H 251.603 -0.804602 -4.08247 0
M  V30 2609 H 250.479 -0.622173 -5.45362 0
M  V30 2610 H 250.74 0.727934 -4.36066 0
M  V30 2611 N 249.799 1.42003 -0.683588 0
M  V30 2612 C 251.048 2.00638 -0.206681 0
M  V30 2613 C 251.361 1.5472 1.19671 0
M  V30 2614 O 252.567 2.05833 1.77045 0
M  V30 2615 C 251.023 3.58487 -0.318632 0
M  V30 2616 C 250.631 4.1339 -1.72663 0
M  V30 2617 C 252.375 4.24384 0.0991141 0
M  V30 2618 C 250.282 5.63633 -1.79087 0
M  V30 2619 H 249.212 0.750408 -0.0735107 0
M  V30 2620 H 251.863 1.62624 -0.850048 0
M  V30 2621 H 250.245 3.94047 0.392781 0
M  V30 2622 H 251.419 3.89273 -2.46583 0
M  V30 2623 H 249.734 3.59976 -2.09299 0
M  V30 2624 H 252.331 5.34652 0.0713833 0
M  V30 2625 H 252.674 4.00505 1.13586 0
M  V30 2626 H 253.207 3.93816 -0.561599 0
M  V30 2627 H 249.946 5.92323 -2.80774 0
M  V30 2628 H 249.466 5.89714 -1.09535 0
M  V30 2629 H 251.145 6.28201 -1.5483 0
M  V30 2630 N 251.277 0.427512 1.51691 0
M  V30 2631 C 252.693 0.0792977 1.59403 0
M  V30 2632 C 252.893 -1.41035 1.43914 0
M  V30 2633 O 251.949 -2.17922 1.27539 0
M  V30 2634 C 253.262 0.590636 2.94842 0
M  V30 2635 C 254.81 0.550215 3.08126 0
M  V30 2636 C 255.285 1.03836 4.46074 0
M  V30 2637 N 256.776 0.995943 4.52366 0
M  V30 2638 C 257.511 1.34463 5.57411 0
M  V30 2639 N 257.007 1.76569 6.69922 0
M  V30 2640 N 258.8 1.26343 5.47717 0
M  V30 2641 H 250.951 1.39687 1.60004 0
M  V30 2642 H 253.214 0.575003 0.753708 0
M  V30 2643 H 252.92 1.63251 3.11516 0
M  V30 2644 H 252.794 0.0102061 3.77199 0
M  V30 2645 H 255.181 -0.482654 2.91126 0
M  V30 2646 H 255.262 1.16693 2.27632 0
M  V30 2647 H 254.906 2.06965 4.63819 0
M  V30 2648 H 254.836 0.398286 5.25092 0
M  V30 2649 H 257.327 0.68661 3.7161 0
M  V30 2650 H 257.64 2.01438 7.46085 0
M  V30 2651 H 255.985 1.80488 6.71155 0
M  V30 2652 H 259.176 0.933209 4.58703 0
M  V30 2653 H 259.349 1.53846 6.29472 0
M  V30 2654 N 252.755 -1.56801 0.158532 0
M  V30 2655 C 253.665 -2.20916 -0.789518 0
M  V30 2656 C 254.681 -1.1969 -1.26294 0
M  V30 2657 O 255.857 -1.52308 -1.31773 0
M  V30 2658 C 252.922 -2.82727 -2.00665 0
M  V30 2659 C 251.983 -3.99114 -1.58134 0
M  V30 2660 C 251.216 -4.57968 -2.74045 0
M  V30 2661 O 251.439 -4.15704 -3.90572 0
M  V30 2662 O 250.373 -5.48047 -2.48855 0
M  V30 2663 H 254.199 -3.02464 -0.273681 0
M  V30 2664 H 251.784 -1.4924 -0.0690548 0
M  V30 2665 H 253.666 -3.21968 -2.71872 0
M  V30 2666 H 252.341 -2.04184 -2.51179 0
M  V30 2667 H 251.248 -3.64567 -0.839155 0
M  V30 2668 H 252.581 -4.79212 -1.12325 0
M  V30 2669 N 254.233 0.115231 -1.57178 0
M  V30 2670 C 255.481 0.820727 -1.84685 0
M  V30 2671 C 255.802 1.80237 -0.744279 0
M  V30 2672 O 255.072 1.94529 0.231375 0
M  V30 2673 H 253.652 0.306084 -0.681411 0
M  V30 2674 H 256.314 0.101656 -1.94635 0
M  V30 2675 H 255.41 1.36366 -2.80733 0
M  V30 2676 N 255.711 1.52812 0.385517 0
M  V30 2677 C 256.621 1.80766 1.49535 0
M  V30 2678 C 257.637 0.694651 1.59532 0
M  V30 2679 O 258.813 0.982611 1.75803 0
M  V30 2680 C 255.878 1.97381 2.85029 0
M  V30 2681 C 254.939 3.21295 2.84724 0
M  V30 2682 C 254.172 3.37108 4.13756 0
M  V30 2683 O 254.395 2.5765 5.08893 0
M  V30 2684 O 253.329 4.30378 4.20783 0
M  V30 2685 H 257.155 2.75015 1.28842 0
M  V30 2686 H 254.74 1.37946 0.573697 0
M  V30 2687 H 256.622 2.09996 3.65349 0
M  V30 2688 H 255.297 1.06322 3.05741 0
M  V30 2689 H 254.204 3.1412 2.03174 0
M  V30 2690 H 255.537 4.12212 2.68965 0
M  V30 2691 N 257.189 -0.644168 1.43834 0
M  V30 2692 C 258.136 -1.75671 1.49694 0
M  V30 2693 C 259.106 -1.6246 0.345809 0
M  V30 2694 O 260.291 -1.82573 0.554234 0
M  V30 2695 C 257.431 -3.13867 1.43463 0
M  V30 2696 C 256.544 -3.38147 2.6885 0
M  V30 2697 C 255.679 -4.66241 2.54544 0
M  V30 2698 C 254.718 -4.83657 3.75157 0
M  V30 2699 N 253.855 -6.03016 3.59605 0
M  V30 2700 H 258.695 -1.69998 2.44754 0
M  V30 2701 H 256.232 -0.829458 1.21484 0
M  V30 2702 H 258.19 -3.9377 1.37843 0
M  V30 2703 H 256.82 -3.18588 0.519783 0
M  V30 2704 H 255.872 -2.52276 2.84712 0
M  V30 2705 H 257.184 -3.46899 3.58417 0
M  V30 2706 H 256.338 -5.54285 2.46683 0
M  V30 2707 H 255.077 -4.59826 1.62516 0
M  V30 2708 H 254.082 -3.94046 3.83416 0
M  V30 2709 H 255.307 -4.91896 4.68204 0
M  V30 2710 H 253.253 -5.97715 2.7032 0
M  V30 2711 H 253.17 -6.12766 4.42779 0
M  V30 2712 H 254.438 -6.93657 3.55613 0
M  V30 2713 N 258.668 -1.30515 -0.883378 0
M  V30 2714 C 259.601 -1.11359 -1.99184 0
M  V30 2715 C 260.579 -0.0207858 -1.62587 0
M  V30 2716 O 261.763 -0.174646 -1.87689 0
M  V30 2717 C 258.89 -0.69871 -3.31415 0
M  V30 2718 C 257.936 -1.79261 -3.86998 0
M  V30 2719 S 258.769 -3.39536 -4.14096 0
M  V30 2720 C 259.925 -2.99954 -5.49344 0
M  V30 2721 H 260.158 -2.052 -2.15128 0
M  V30 2722 H 257.691 -1.14847 -1.03196 0
M  V30 2723 H 259.649 -0.466075 -4.07846 0
M  V30 2724 H 258.31 0.220368 -3.13326 0
M  V30 2725 H 257.503 -1.45464 -4.82552 0
M  V30 2726 H 257.105 -1.97961 -3.17313 0
M  V30 2727 H 259.397 -2.48013 -6.30473 0
M  V30 2728 H 260.34 -3.9442 -5.8808 0
M  V30 2729 H 260.748 -2.37775 -5.1198 0
M  V30 2730 N 260.146 1.09593 -1.13257 0
M  V30 2731 C 261.078 2.16015 -0.766167 0
M  V30 2732 C 262.091 1.61423 0.211303 0
M  V30 2733 O 263.28 1.78498 -0.00863946 0
M  V30 2734 C 260.38 3.38706 -0.114662 0
M  V30 2735 C 259.553 4.22717 -1.12379 0
M  V30 2736 C 258.612 5.23835 -0.498301 0
M  V30 2737 O 257.638 5.573 -1.15781 0
M  V30 2738 N 258.84 5.75886 0.730417 0
M  V30 2739 H 261.605 2.48055 -1.68193 0
M  V30 2740 H 259.166 1.25292 -1.02535 0
M  V30 2741 H 261.158 4.03464 0.315991 0
M  V30 2742 H 259.728 3.04569 0.704011 0
M  V30 2743 H 258.948 3.54122 -1.73179 0
M  V30 2744 H 260.236 4.75673 -1.80589 0
M  V30 2745 H 259.634 5.50911 1.28504 0
M  V30 2746 H 258.191 6.42387 1.10376 0
M  V30 2747 N 261.624 0.925811 1.2754 0
M  V30 2748 C 262.873 0.561084 1.93739 0
M  V30 2749 C 263.186 -0.901685 1.73577 0
M  V30 2750 O 264.392 -1.37511 2.34101 0
M  V30 2751 C 262.848 0.952668 3.47062 0
M  V30 2752 C 262.456 2.43599 3.75983 0
M  V30 2753 C 264.2 0.659103 4.19352 0
M  V30 2754 C 262.107 2.76707 5.22673 0
M  V30 2755 H 261.037 0.206122 0.725279 0
M  V30 2756 H 263.688 1.12637 1.44863 0
M  V30 2757 H 262.07 0.316053 3.94737 0
M  V30 2758 H 263.244 3.12035 3.39073 0
M  V30 2759 H 261.559 2.70125 3.16893 0
M  V30 2760 H 264.156 0.882985 5.27359 0
M  V30 2761 H 264.499 -0.403607 4.14339 0
M  V30 2762 H 265.032 1.25473 3.77494 0
M  V30 2763 H 261.771 3.8188 5.32774 0
M  V30 2764 H 261.291 2.12919 5.60737 0
M  V30 2765 H 262.97 2.6435 5.90532 0
M  V30 2766 N 263.102 -1.41638 0.69111 0
M  V30 2767 C 264.05 -2.32597 0.0115199 0
M  V30 2768 C 265.044 -1.5072 -0.773296 0
M  V30 2769 O 266.25 -1.66685 -0.67942 0
M  V30 2770 H 262.625 -0.751849 -0.0150746 0
M  V30 2771 H 264.596 -2.87593 0.795791 0
M  V30 2772 C 263.345 -3.35467 -0.914172 0
M  V30 2773 H 262.668 -3.9852 -0.319687 0
M  V30 2774 H 264.108 -4.01662 -1.35808 0
M  V30 2775 C 262.567 -2.69004 -2.02826 0
M  V30 2776 O 263.097 -2.53444 -3.11655 0
M  V30 2777 N 261.303 -2.2777 -1.80469 0
M  V30 2778 H 260.85 -2.40626 -0.919615 0
M  V30 2779 H 260.808 -1.83635 -2.55197 0
M  V30 2780 N 264.58 -0.43555 -1.51462 0
M  V30 2781 C 265.543 0.365137 -2.26273 0
M  V30 2782 C 266.543 0.951227 -1.29647 0
M  V30 2783 O 267.733 0.825958 -1.53374 0
M  V30 2784 C 264.865 1.51645 -3.05314 0
M  V30 2785 H 266.058 -0.290474 -2.9849 0
M  V30 2786 H 263.611 -0.188676 -1.55157 0
M  V30 2787 H 264.346 2.20816 -2.3751 0
M  V30 2788 H 264.131 1.10238 -3.76284 0
M  V30 2789 H 265.621 2.08218 -3.61987 0
M  V30 2790 N 266.058 1.56714 -0.166846 0
M  V30 2791 C 266.968 2.21331 0.777791 0
M  V30 2792 C 267.984 1.20358 1.25658 0
M  V30 2793 O 269.16 1.53005 1.30964 0
M  V30 2794 C 266.225 2.83787 1.99163 0
M  V30 2795 C 265.286 3.99947 1.56016 0
M  V30 2796 C 264.519 4.59415 2.71613 0
M  V30 2797 O 264.742 4.17769 3.88362 0
M  V30 2798 O 263.676 5.49359 2.45945 0
M  V30 2799 H 267.502 3.02605 0.257636 0
M  V30 2800 H 265.087 1.49275 0.0611393 0
M  V30 2801 H 266.969 3.23405 2.70161 0
M  V30 2802 H 265.644 2.05513 2.50092 0
M  V30 2803 H 264.551 3.65007 0.819809 0
M  V30 2804 H 265.884 4.79801 1.09782 0
M  V30 2805 N 267.536 -0.106894 1.57237 0
M  V30 2806 C 268.446 -1.14911 2.0453 0
M  V30 2807 C 269.462 -1.44592 0.96795 0
M  V30 2808 O 270.638 -1.55468 1.2803 0
M  V30 2809 C 267.703 -2.45272 2.45036 0
M  V30 2810 C 266.764 -2.22879 3.66911 0
M  V30 2811 C 265.997 -3.47024 4.05475 0
M  V30 2812 O 266.22 -4.54804 3.44252 0
M  V30 2813 O 265.154 -3.3731 4.98504 0
M  V30 2814 H 268.98 -0.777461 2.9358 0
M  V30 2815 H 266.565 -0.318563 1.45964 0
M  V30 2816 H 268.447 -3.22055 2.71769 0
M  V30 2817 H 267.122 -2.81886 1.59129 0
M  V30 2818 H 266.029 -1.43915 3.45311 0
M  V30 2819 H 267.362 -1.91163 4.53561 0
M  V30 2820 N 269.014 -1.53014 -0.377408 0
M  V30 2821 C 270.26 -1.68872 -1.12294 0
M  V30 2822 C 270.593 -0.433224 -1.89306 0
M  V30 2823 O 269.868 0.569258 -1.85983 0
M  V30 2824 C 270.151 -2.93115 -2.09179 0
M  V30 2825 C 270.004 -4.28794 -1.35853 0
M  V30 2826 C 271.323 -3.12928 -3.09458 0
M  V30 2827 H 268.442 -0.614518 -0.406862 0
M  V30 2828 H 271.084 -1.85633 -0.40503 0
M  V30 2829 H 269.234 -2.78956 -2.70399 0
M  V30 2830 H 270.906 -4.54742 -0.775082 0
M  V30 2831 H 269.149 -4.28744 -0.660364 0
M  V30 2832 H 269.82 -5.11837 -2.06706 0
M  V30 2833 H 272.296 -3.26194 -2.58334 0
M  V30 2834 H 271.172 -4.01316 -3.74482 0
M  V30 2835 H 271.433 -2.27669 -3.78971 0
M  V30 2836 N 270.492 0.636531 -1.44174 0
M  V30 2837 C 271.738 1.39826 -1.4689 0
M  V30 2838 C 272.071 1.93947 -0.0990585 0
M  V30 2839 O 271.346 1.73325 0.882544 0
M  V30 2840 C 271.629 2.56751 -2.5249 0
M  V30 2841 C 271.482 2.08014 -3.98811 0
M  V30 2842 C 272.801 3.58946 -2.54649 0
M  V30 2843 H 269.92 0.507075 -0.53483 0
M  V30 2844 H 272.562 0.720188 -1.75822 0
M  V30 2845 H 270.712 3.14597 -2.2795 0
M  V30 2846 H 272.384 1.5504 -4.34466 0
M  V30 2847 H 270.627 1.39242 -4.10846 0
M  V30 2848 H 271.298 2.92169 -4.68339 0
M  V30 2849 H 273.774 3.1089 -2.76563 0
M  V30 2850 H 272.65 4.38286 -3.3045 0
M  V30 2851 H 272.911 4.12655 -1.58646 0
M  V30 2852 N 271.97 1.30982 0.876444 0
M  V30 2853 C 273.216 1.20474 1.63138 0
M  V30 2854 C 273.549 -0.238096 1.92735 0
M  V30 2855 O 272.824 -1.1692 1.55435 0
M  V30 2856 C 273.107 2.04244 2.96574 0
M  V30 2857 C 272.96 3.56793 2.73896 0
M  V30 2858 C 274.279 1.88684 3.97601 0
M  V30 2859 H 271.398 0.439001 0.591985 0
M  V30 2860 H 274.04 1.60704 1.01361 0
M  V30 2861 H 272.19 1.70063 3.493 0
M  V30 2862 H 273.862 4.01077 2.27892 0
M  V30 2863 H 272.105 3.80548 2.08245 0
M  V30 2864 H 272.776 4.10706 3.68815 0
M  V30 2865 H 275.252 2.18584 3.54062 0
M  V30 2866 H 274.128 2.4961 4.88862 0
M  V30 2867 H 274.389 0.848343 4.33884 0
M  V30 2868 N 273.449 -1.08991 1.13837 0
M  V30 2869 C 274.697 -1.80899 0.901098 0
M  V30 2870 C 275.018 -1.86356 -0.574134 0
M  V30 2871 O 274.288 -1.35235 -1.41733 0
M  V30 2872 H 272.868 -0.669966 0.330386 0
M  V30 2873 H 275.53 -1.318 1.43578 0
M  V30 2874 H 274.626 -2.83929 1.29578 0
M  V30 2875 N 274.927 -0.932562 -1.27047 0
M  V30 2876 C 276.204 -0.49377 -1.89265 0
M  V30 2877 C 276.584 1.02833 -1.8436 0
M  V30 2878 O 275.932 1.88461 -1.29209 0
M  V30 2879 C 276.142 -1.04536 -3.32976 0
M  V30 2880 C 277.49 -1.10879 -4.09867 0
M  V30 2881 O 278.514 -0.995327 -3.42011 0
M  V30 2882 O 277.373 -1.28417 -5.31198 0
M  V30 2883 H 274.467 -0.159596 -0.811454 0
M  V30 2884 H 277.013 -1.02457 -1.3528 0
M  V30 2885 H 275.785 -2.08913 -3.30864 0
M  V30 2886 H 275.408 -0.496494 -3.94488 0
M  V30 2887 N 276.405 1.4127 -0.698611 0
M  V30 2888 C 277.335 2.33447 -0.049629 0
M  V30 2889 C 278.316 1.51982 0.763898 0
M  V30 2890 O 279.501 1.80509 0.716257 0
M  V30 2891 C 276.631 3.35828 0.885267 0
M  V30 2892 C 275.585 4.27627 0.178613 0
M  V30 2893 C 274.911 5.20406 1.22807 0
M  V30 2894 C 276.211 5.13459 -0.956933 0
M  V30 2895 H 277.905 2.87966 -0.81951 0
M  V30 2896 H 275.451 1.38461 -0.395538 0
M  V30 2897 H 277.404 3.9924 1.34854 0
M  V30 2898 H 276.128 2.79666 1.68685 0
M  V30 2899 H 274.787 3.65643 -0.26466 0
M  V30 2900 H 274.435 4.60558 2.02226 0
M  V30 2901 H 274.135 5.82661 0.760239 0
M  V30 2902 H 275.659 5.86695 1.69179 0
M  V30 2903 H 277.073 5.70421 -0.573805 0
M  V30 2904 H 275.47 5.8467 -1.35205 0
M  V30 2905 H 276.54 4.50443 -1.79524 0
M  V30 2906 N 277.883 0.443576 1.51229 0
M  V30 2907 C 279.129 -0.120975 2.02439 0
M  V30 2908 C 279.462 -1.41815 1.32674 0
M  V30 2909 O 278.737 -1.89373 0.443622 0
M  V30 2910 C 279.02 -0.333291 3.58554 0
M  V30 2911 C 278.873 0.982968 4.38928 0
M  V30 2912 C 280.192 -1.10028 4.26124 0
M  V30 2913 H 277.311 -0.0424923 0.735774 0
M  V30 2914 H 279.953 0.583794 1.80809 0
M  V30 2915 H 278.103 -0.933614 3.77115 0
M  V30 2916 H 279.775 1.61775 4.32003 0
M  V30 2917 H 278.018 1.58611 4.03763 0
M  V30 2918 H 278.689 0.788379 5.46341 0
M  V30 2919 H 281.165 -0.591711 4.11871 0
M  V30 2920 H 280.041 -1.21761 5.35225 0
M  V30 2921 H 280.302 -2.12996 3.87408 0
M  V30 2922 N 279.361 -1.56624 0.175154 0
M  V30 2923 C 280.271 -2.21741 -0.766042 0
M  V30 2924 C 281.287 -1.21023 -1.25018 0
M  V30 2925 O 282.463 -1.53697 -1.3015 0
M  V30 2926 C 279.528 -2.84839 -1.97655 0
M  V30 2927 C 278.589 -4.00769 -1.53892 0
M  V30 2928 C 277.822 -4.60849 -2.69173 0
M  V30 2929 O 278.045 -4.19823 -3.86141 0
M  V30 2930 O 276.979 -5.50655 -2.43028 0
M  V30 2931 H 280.805 -3.02738 -0.241585 0
M  V30 2932 H 278.39 -1.49305 -0.053222 0
M  V30 2933 H 280.272 -3.24834 -2.68442 0
M  V30 2934 H 278.947 -2.06836 -2.48999 0
M  V30 2935 H 277.854 -3.65436 -0.80044 0
M  V30 2936 H 279.187 -4.80376 -1.07236 0
M  V30 2937 N 280.839 0.0985539 -1.57292 0
M  V30 2938 C 282.085 0.803867 -1.86188 0
M  V30 2939 C 282.418 1.78549 -0.763794 0
M  V30 2940 O 281.693 1.93153 0.22855 0
M  V30 2941 C 281.976 1.53568 -3.25713 0
M  V30 2942 C 281.829 0.572277 -4.46145 0
M  V30 2943 C 283.148 2.48708 -3.63087 0
M  V30 2944 H 280.267 0.290781 -0.677211 0
M  V30 2945 H 282.909 0.0675783 -1.8988 0
M  V30 2946 H 281.059 2.16332 -3.22696 0
M  V30 2947 H 282.731 -0.0480894 -4.61275 0
M  V30 2948 H 280.974 -0.114618 -4.33649 0
M  V30 2949 H 281.645 1.12139 -5.40489 0
M  V30 2950 H 284.121 1.96039 -3.67026 0
M  V30 2951 H 282.997 2.96932 -4.61652 0
M  V30 2952 H 283.258 3.32309 -2.91588 0
M  V30 2953 N 282.317 1.53212 0.369288 0
M  V30 2954 C 283.264 1.79388 1.45219 0
M  V30 2955 C 284.234 0.638059 1.53356 0
M  V30 2956 O 285.419 0.879852 1.69302 0
M  V30 2957 C 282.559 1.98623 2.82211 0
M  V30 2958 C 281.672 3.26337 2.8307 0
M  V30 2959 C 280.807 3.35779 4.11614 0
M  V30 2960 C 279.846 4.5754 4.06601 0
M  V30 2961 N 278.983 4.64155 5.26787 0
M  V30 2962 H 283.823 2.71794 1.22198 0
M  V30 2963 H 281.36 1.34642 0.592444 0
M  V30 2964 H 283.318 2.07761 3.61789 0
M  V30 2965 H 281.948 1.09558 3.03639 0
M  V30 2966 H 281 3.26171 1.95747 0
M  V30 2967 H 282.312 4.15988 2.75237 0
M  V30 2968 H 281.466 3.44208 4.99606 0
M  V30 2969 H 280.205 2.44137 4.22195 0
M  V30 2970 H 279.21 4.49215 3.16996 0
M  V30 2971 H 280.435 5.50519 3.97625 0
M  V30 2972 H 278.381 3.75413 5.3796 0
M  V30 2973 H 278.298 5.47706 5.21109 0
M  V30 2974 H 279.566 4.76863 6.16621 0
M  V30 2975 N 283.795 -0.628877 1.44509 0
M  V30 2976 C 285.043 -1.38565 1.4712 0
M  V30 2977 C 285.364 -1.94712 0.105899 0
M  V30 2978 O 284.634 -1.75912 -0.862079 0
M  V30 2979 H 283.214 -0.514333 0.541729 0
M  V30 2980 H 285.876 -0.740018 1.80305 0
M  V30 2981 H 284.972 -2.21583 2.19789 0
M  V30 2982 N 285.273 -1.31445 -0.869486 0
M  V30 2983 C 286.521 -1.20918 -1.61936 0
M  V30 2984 C 286.842 0.232683 -1.93607 0
M  V30 2985 O 286.112 1.15352 -1.58338 0
M  V30 2986 H 284.692 -0.44454 -0.600328 0
M  V30 2987 H 287.354 -1.64776 -1.0409 0
M  V30 2988 H 286.45 -1.78124 -2.56278 0
M  V30 2989 N 286.751 1.08385 -1.14413 0
M  V30 2990 C 288.028 1.77429 -0.823297 0
M  V30 2991 C 288.408 1.9974 0.683163 0
M  V30 2992 O 287.756 1.60739 1.62405 0
M  V30 2993 C 287.966 3.09004 -1.62227 0
M  V30 2994 C 289.314 3.83532 -1.82177 0
M  V30 2995 O 290.338 3.18786 -1.58915 0
M  V30 2996 O 289.197 4.99792 -2.21067 0
M  V30 2997 H 286.291 0.769999 -0.301712 0
M  V30 2998 H 288.837 1.14846 -1.24934 0
M  V30 2999 H 287.609 2.88316 -2.64555 0
M  V30 3000 H 287.232 3.79316 -1.19187 0
M  V30 3001 N 288.23 0.939286 1.26551 0
M  V30 3002 C 289.646 0.641304 1.46149 0
M  V30 3003 C 289.846 -0.805964 1.84679 0
M  V30 3004 O 288.902 -1.58278 1.96734 0
M  V30 3005 C 290.215 1.6011 2.54529 0
M  V30 3006 C 291.763 1.6106 2.68382 0
M  V30 3007 C 292.238 2.55765 3.79932 0
M  V30 3008 N 293.729 2.5404 3.87322 0
M  V30 3009 C 294.464 3.24004 4.73085 0
M  V30 3010 N 293.96 4.03388 5.63249 0
M  V30 3011 N 295.753 3.12965 4.66914 0
M  V30 3012 H 287.904 1.87478 0.998285 0
M  V30 3013 H 290.167 0.805559 0.499779 0
M  V30 3014 H 289.873 2.63412 2.33039 0
M  V30 3015 H 289.747 1.35171 3.52149 0
M  V30 3016 H 292.134 0.584835 2.89247 0
M  V30 3017 H 292.215 1.90053 1.71212 0
M  V30 3018 H 291.859 3.58458 3.5982 0
M  V30 3019 H 291.789 2.24063 4.76554 0
M  V30 3020 H 294.28 1.96396 3.22858 0
M  V30 3021 H 294.593 4.5373 6.25579 0
M  V30 3022 H 292.938 4.07489 5.63008 0
M  V30 3023 H 296.129 2.50432 3.95476 0
M  V30 3024 H 296.302 3.67759 5.33533 0
M  V30 3025 N 289.708 -1.40897 0.706093 0
M  V30 3026 C 290.954 -2.01352 0.241889 0
M  V30 3027 C 291.287 -1.55832 -1.15888 0
M  V30 3028 O 290.562 -0.774145 -1.7843 0
M  V30 3029 C 290.845 -3.58752 0.311311 0
M  V30 3030 C 290.698 -4.1437 1.74978 0
M  V30 3031 C 292.017 -4.38914 -0.322922 0
M  V30 3032 H 289.136 -0.731562 0.0893687 0
M  V30 3033 H 291.778 -1.67504 0.896802 0
M  V30 3034 H 289.928 -3.87718 -0.246302 0
M  V30 3035 H 291.6 -3.96239 2.36205 0
M  V30 3036 H 289.843 -3.69016 2.28057 0
M  V30 3037 H 290.514 -5.23532 1.74981 0
M  V30 3038 H 292.99 -4.15822 0.152089 0
M  V30 3039 H 291.866 -5.48358 -0.243855 0
M  V30 3040 H 292.127 -4.19176 -1.40513 0
M  V30 3041 N 291.186 -0.45159 -1.50991 0
M  V30 3042 C 292.597 0.00818571 -1.86698 0
M  V30 3043 C 292.948 1.40661 -1.3678 0
M  V30 3044 O 292.073 2.0391 -0.724546 0
M  V30 3045 C 292.668 0.0216303 -3.38793 0
M  V30 3046 C 291.227 0.425865 -3.73983 0
M  V30 3047 C 290.374 -0.372163 -2.74791 0
M  V30 3048 H 293.325 -0.666785 -1.44013 0
M  V30 3049 H 293.346 0.828078 -3.7138 0
M  V30 3050 H 292.858 -0.996288 -3.75094 0
M  V30 3051 H 290.959 1.44886 -3.43277 0
M  V30 3052 H 291.072 0.140761 -4.78893 0
M  V30 3053 H 289.436 0.171498 -2.54122 0
M  V30 3054 H 290.219 -1.38922 -3.13935 0
M  V30 3055 N 292.664 1.56529 -0.183458 0
M  V30 3056 C 293.627 2.17324 0.728223 0
M  V30 3057 C 294.627 1.12453 1.14939 0
M  V30 3058 O 295.817 1.37902 1.06437 0
M  V30 3059 C 292.949 2.76591 1.99274 0
M  V30 3060 H 294.142 2.99241 0.198772 0
M  V30 3061 H 291.695 1.5616 0.0661391 0
M  V30 3062 H 292.43 1.98441 2.56499 0
M  V30 3063 H 292.215 3.5335 1.69959 0
M  V30 3064 H 293.705 3.23311 2.6431 0
M  V30 3065 N 294.142 -0.090211 1.57342 0
M  V30 3066 C 295.419 -0.824761 1.77361 0
M  V30 3067 C 295.799 -1.96698 0.76637 0
M  V30 3068 O 295.147 -2.27586 -0.204179 0
M  V30 3069 C 295.357 -1.31481 3.23286 0
M  V30 3070 C 296.705 -1.75563 3.86604 0
M  V30 3071 O 297.729 -1.41093 3.27065 0
M  V30 3072 O 296.588 -2.39317 4.91314 0
M  V30 3073 H 293.682 -0.393776 0.727234 0
M  V30 3074 H 296.228 -0.0717138 1.69548 0
M  V30 3075 H 295 -0.496671 3.88135 0
M  V30 3076 H 294.623 -2.12973 3.35751 0
M  V30 3077 N 295.62 -1.53406 -0.361157 0
M  V30 3078 C 296.55 -1.83136 -1.44857 0
M  V30 3079 C 297.531 -0.685174 -1.5569 0
M  V30 3080 O 298.716 -0.93544 -1.70186 0
M  V30 3081 C 295.846 -2.02522 -2.82138 0
M  V30 3082 C 294.8 -3.18302 -2.86126 0
M  V30 3083 C 294.126 -3.22989 -4.26125 0
M  V30 3084 C 295.426 -4.56796 -2.53248 0
M  V30 3085 H 297.12 -2.74201 -1.20226 0
M  V30 3086 H 294.666 -1.31938 -0.576922 0
M  V30 3087 H 296.619 -2.21904 -3.58241 0
M  V30 3088 H 295.343 -1.08172 -3.08166 0
M  V30 3089 H 294.002 -2.98747 -2.12475 0
M  V30 3090 H 293.65 -2.26267 -4.49235 0
M  V30 3091 H 293.35 -4.00781 -4.29708 0
M  V30 3092 H 294.874 -3.44559 -5.04094 0
M  V30 3093 H 296.288 -4.7631 -3.19064 0
M  V30 3094 H 294.685 -5.36862 -2.68141 0
M  V30 3095 H 295.755 -4.61606 -1.48484 0
M  V30 3096 N 297.098 0.621204 -1.44841 0
M  V30 3097 C 298.514 0.94048 -1.28946 0
M  V30 3098 C 298.714 2.00154 -0.23249 0
M  V30 3099 O 297.77 2.49651 0.378237 0
M  V30 3100 C 299.083 1.39433 -2.66419 0
M  V30 3101 C 300.631 1.50927 -2.74208 0
M  V30 3102 C 301.106 1.99692 -4.12174 0
M  V30 3103 N 302.597 2.06947 -4.144 0
M  V30 3104 C 303.332 2.45871 -5.1801 0
M  V30 3105 N 302.828 2.83862 -6.31977 0
M  V30 3106 N 304.621 2.46092 -5.05366 0
M  V30 3107 H 296.772 -0.0803548 -2.12248 0
M  V30 3108 H 299.035 0.0266913 -0.947624 0
M  V30 3109 H 298.741 0.688925 -3.44887 0
M  V30 3110 H 298.615 2.36347 -2.93973 0
M  V30 3111 H 301.002 2.20561 -1.96053 0
M  V30 3112 H 301.083 0.523627 -2.50383 0
M  V30 3113 H 300.727 1.30649 -4.90809 0
M  V30 3114 H 300.657 2.99146 -4.33381 0
M  V30 3115 H 303.148 1.80232 -3.32152 0
M  V30 3116 H 303.461 3.12405 -7.0684 0
M  V30 3117 H 301.806 2.8159 -6.35399 0
M  V30 3118 H 304.997 2.1581 -4.15384 0
M  V30 3119 H 305.17 2.76102 -5.86235 0
M  V30 3120 N 298.576 1.31904 0.862503 0
M  V30 3121 C 299.825 1.21373 1.61094 0
M  V30 3122 C 300.138 -0.22504 1.94301 0
M  V30 3123 O 301.344 -0.452121 2.67709 0
M  V30 3124 C 299.8 2.12525 2.9045 0
M  V30 3125 C 299.408 3.61441 2.64697 0
M  V30 3126 C 301.152 2.10813 3.68454 0
M  V30 3127 C 299.059 4.44578 3.90006 0
M  V30 3128 H 297.989 0.450705 0.604468 0
M  V30 3129 H 300.64 1.56811 0.953027 0
M  V30 3130 H 299.022 1.69994 3.57656 0
M  V30 3131 H 300.196 4.12264 2.05851 0
M  V30 3132 H 298.511 3.65205 2.00036 0
M  V30 3133 H 301.108 2.70167 4.61426 0
M  V30 3134 H 301.451 1.09713 4.01583 0
M  V30 3135 H 301.984 2.51583 3.08141 0
M  V30 3136 H 298.723 5.46461 3.62023 0
M  V30 3137 H 298.243 3.98508 4.48276 0
M  V30 3138 H 299.922 4.57176 4.5782 0
M  V30 3139 N 300.054 -1.07777 1.14986 0
M  V30 3140 C 301.303 -1.79669 0.916617 0
M  V30 3141 C 301.616 -1.87474 -0.557917 0
M  V30 3142 O 302.822 -2.55845 -0.908617 0
M  V30 3143 C 301.278 -3.22848 1.59051 0
M  V30 3144 C 300.886 -3.23257 3.10176 0
M  V30 3145 C 302.63 -3.99379 1.43864 0
M  V30 3146 C 300.537 -4.61063 3.70372 0
M  V30 3147 H 299.467 -0.673349 0.33929 0
M  V30 3148 H 302.118 -1.21003 1.37951 0
M  V30 3149 H 300.5 -3.8168 1.0553 0
M  V30 3150 H 301.674 -2.74095 3.70417 0
M  V30 3151 H 299.989 -2.60222 3.25074 0
M  V30 3152 H 302.586 -5.0122 1.86232 0
M  V30 3153 H 302.929 -4.14511 0.385564 0
M  V30 3154 H 303.462 -3.47032 1.94457 0
M  V30 3155 H 300.201 -4.51135 4.7556 0
M  V30 3156 H 299.721 -5.1048 3.14913 0
M  V30 3157 H 301.4 -5.30034 3.71043 0
M  V30 3158 N 301.532 -0.945985 -1.26051 0
M  V30 3159 C 302.757 -0.612525 -1.98149 0
M  V30 3160 C 303.182 0.806623 -1.69927 0
M  V30 3161 O 302.54 1.54411 -0.950108 0
M  V30 3162 C 302.588 -0.866981 -3.50023 0
M  V30 3163 O 301.692 0.0585333 -4.12358 0
M  V30 3164 H 301.033 -0.23379 -0.621481 0
M  V30 3165 H 303.563 -1.27023 -1.60395 0
M  V30 3166 H 303.573 -0.789792 -4.00283 0
M  V30 3167 H 302.248 -1.90135 -3.69894 0
M  V30 3168 H 300.825 -0.0701241 -3.72834 0
M  V30 3169 N 303.011 1.40521 -0.713556 0
M  V30 3170 C 304.236 2.05759 -0.26035 0
M  V30 3171 C 304.661 1.53403 1.08854 0
M  V30 3172 O 304.019 0.668535 1.68524 0
M  V30 3173 C 304.067 3.59745 -0.248122 0
M  V30 3174 O 303.171 4.05123 0.77131 0
M  V30 3175 H 302.512 0.652564 -0.122703 0
M  V30 3176 H 305.042 1.79958 -0.973467 0
M  V30 3177 H 305.052 4.07911 -0.0851129 0
M  V30 3178 H 303.727 3.97218 -1.2325 0
M  V30 3179 H 302.304 3.68422 0.57619 0
M  V30 3180 N 304.489 0.459591 1.5075 0
M  V30 3181 C 305.439 -0.358926 2.25157 0
M  V30 3182 C 306.423 -0.971285 1.28276 0
M  V30 3183 O 307.615 -0.885739 1.53244 0
M  V30 3184 C 304.744 -1.44695 3.11317 0
M  V30 3185 C 303.83 -0.842894 4.15639 0
M  V30 3186 N 304.221 0.0299373 5.05791 0
M  V30 3187 C 302.519 -1.10809 4.32015 0
M  V30 3188 C 303.22 0.371563 5.80512 0
M  V30 3189 N 302.196 -0.250409 5.43023 0
M  V30 3190 H 305.998 0.313636 2.92222 0
M  V30 3191 H 303.512 0.273021 1.60089 0
M  V30 3192 H 305.509 -2.04641 3.63218 0
M  V30 3193 H 304.169 -2.12162 2.45799 0
M  V30 3194 H 305.18 0.39797 5.16369 0
M  V30 3195 H 301.857 -1.7786 3.77719 0
M  V30 3196 H 303.247 1.08319 6.63111 0
M  V30 3197 N 305.967 -1.56429 0.191757 0
M  V30 3198 C 307.215 -1.97095 -0.447006 0
M  V30 3199 C 307.536 -1.07967 -1.62383 0
M  V30 3200 O 306.806 -0.150248 -1.95323 0
M  V30 3201 H 305.386 -0.727832 -0.168135 0
M  V30 3202 H 308.048 -1.92911 0.27771 0
M  V30 3203 H 307.144 -3.01848 -0.793371 0
M  V30 3204 N 307.445 0.0818655 -1.57387 0
M  V30 3205 C 308.685 0.788375 -1.88584 0
M  V30 3206 C 309.049 1.75248 -0.784351 0
M  V30 3207 O 310.25 2.50334 -0.979105 0
M  V30 3208 C 308.521 1.48654 -3.25018 0
M  V30 3209 S 310.08 2.22951 -3.7794 0
M  V30 3210 H 306.898 0.262383 -0.660815 0
M  V30 3211 H 309.5 0.0448995 -1.95448 0
M  V30 3212 H 308.204 0.770919 -4.03094 0
M  V30 3213 H 307.735 2.26965 -3.21326 0
M  V30 3214 H 309.75 3.49309 -3.52417 0
M  V30 3215 N 308.923 1.53595 0.353017 0
M  V30 3216 C 309.87 1.80919 1.43308 0
M  V30 3217 C 310.84 0.654288 1.5267 0
M  V30 3218 O 312.025 0.897759 1.6836 0
M  V30 3219 C 309.165 2.01605 2.80089 0
M  V30 3220 C 308.278 3.29321 2.79593 0
M  V30 3221 C 307.413 3.40125 4.0803 0
M  V30 3222 C 306.452 4.61826 4.01725 0
M  V30 3223 N 305.589 4.69716 5.21834 0
M  V30 3224 H 310.429 2.73074 1.19308 0
M  V30 3225 H 307.966 1.35263 0.578131 0
M  V30 3226 H 309.924 2.11586 3.59565 0
M  V30 3227 H 308.554 1.12772 3.0246 0
M  V30 3228 H 307.606 3.28229 1.92276 0
M  V30 3229 H 308.918 4.18884 2.70809 0
M  V30 3230 H 308.072 3.49488 4.95927 0
M  V30 3231 H 306.811 2.48601 4.19582 0
M  V30 3232 H 305.816 4.52552 3.12213 0
M  V30 3233 H 307.041 5.54705 3.91764 0
M  V30 3234 H 304.987 3.81097 5.33948 0
M  V30 3235 H 304.904 5.53202 5.1527 0
M  V30 3236 H 306.172 4.83376 6.11529 0
M  V30 3237 N 310.401 -0.613514 1.45168 0
M  V30 3238 C 311.647 -1.37471 1.49096 0
M  V30 3239 C 311.98 -1.93765 0.129901 0
M  V30 3240 O 311.255 -1.74707 -0.854858 0
M  V30 3241 C 311.538 -2.52701 2.56542 0
M  V30 3242 C 311.391 -2.01643 4.0207 0
M  V30 3243 C 312.71 -3.54849 2.60327 0
M  V30 3244 H 309.829 -0.498502 0.54283 0
M  V30 3245 H 312.471 -0.692125 1.76945 0
M  V30 3246 H 310.621 -3.10931 2.32926 0
M  V30 3247 H 312.293 -1.48108 4.36877 0
M  V30 3248 H 310.536 -1.32688 4.13009 0
M  V30 3249 H 311.207 -2.84681 4.72928 0
M  V30 3250 H 313.683 -3.0645 2.81474 0
M  V30 3251 H 312.559 -4.32973 3.37381 0
M  V30 3252 H 312.82 -4.10079 1.6519 0
M  V30 3253 N 311.879 -1.3236 -0.855495 0
M  V30 3254 C 313.156 -1.13491 -1.59309 0
M  V30 3255 C 313.536 0.30503 -2.08885 0
M  V30 3256 O 312.884 1.30151 -1.87811 0
M  V30 3257 C 313.094 -2.16176 -2.73987 0
M  V30 3258 C 314.442 -2.49463 -3.43589 0
M  V30 3259 O 315.466 -2.14715 -2.84211 0
M  V30 3260 O 314.325 -3.09027 -4.50738 0
M  V30 3261 H 311.419 -0.437887 -0.701559 0
M  V30 3262 H 313.965 -1.43887 -0.899696 0
M  V30 3263 H 312.737 -3.1297 -2.34873 0
M  V30 3264 H 312.36 -1.86769 -3.51003 0
M  V30 3265 N 313.357 1.07166 -1.15556 0
M  V30 3266 C 314.305 2.16517 -0.8499 0
M  V30 3267 C 315.299 1.68468 0.177454 0
M  V30 3268 O 316.505 1.79971 0.0323026 0
M  V30 3269 H 312.88 0.706652 -0.25719 0
M  V30 3270 H 314.851 2.39514 -1.77976 0
M  V30 3271 C 313.6 3.45855 -0.357682 0
M  V30 3272 H 312.923 3.83214 -1.13961 0
M  V30 3273 H 314.363 4.23607 -0.182489 0
M  V30 3274 C 312.822 3.24062 0.921152 0
M  V30 3275 O 313.352 3.48813 1.9923 0
M  V30 3276 N 311.558 2.77539 0.86141 0
M  V30 3277 H 311.105 2.57598 -0.0104408 0
M  V30 3278 H 311.063 2.63337 1.71758 0
M  V30 3279 N 314.835 0.952656 1.25548 0
M  V30 3280 C 316.06 0.623025 1.97821 0
M  V30 3281 C 316.485 -0.7976 1.70352 0
M  V30 3282 O 315.843 -1.53905 0.958283 0
M  V30 3283 C 315.891 0.885532 3.49558 0
M  V30 3284 O 314.995 -0.0366641 4.12384 0
M  V30 3285 H 314.336 0.237082 0.620232 0
M  V30 3286 H 316.866 1.27871 1.59719 0
M  V30 3287 H 316.876 0.811009 3.99858 0
M  V30 3288 H 315.551 1.92094 3.6888 0
M  V30 3289 H 314.128 0.0898954 3.72792 0
M  V30 3290 N 316.313 -1.40141 0.720998 0
M  V30 3291 C 317.538 -2.05618 0.271258 0
M  V30 3292 C 317.963 -1.53978 -1.08039 0
M  V30 3293 O 317.321 -0.677463 -1.68167 0
M  V30 3294 C 317.369 -3.59609 0.267197 0
M  V30 3295 O 316.473 -4.05526 -0.749814 0
M  V30 3296 H 315.814 -0.651904 0.126162 0
M  V30 3297 H 318.344 -1.79439 0.982997 0
M  V30 3298 H 318.354 -4.0786 0.106744 0
M  V30 3299 H 317.029 -3.96559 1.25354 0
M  V30 3300 H 315.606 -3.68722 -0.556644 0
M  V30 3301 N 317.792 -0.46758 -1.50504 0
M  V30 3302 C 318.722 0.318381 -2.31319 0
M  V30 3303 C 319.703 0.993564 -1.38066 0
M  V30 3304 O 320.888 0.991411 -1.66987 0
M  V30 3305 C 318.018 1.40275 -3.17711 0
M  V30 3306 C 316.972 0.849373 -4.19487 0
M  V30 3307 C 316.298 2.03177 -4.94594 0
M  V30 3308 C 317.598 -0.136942 -5.2212 0
M  V30 3309 H 319.292 -0.356106 -2.97275 0
M  V30 3310 H 316.838 -0.172703 -1.42961 0
M  V30 3311 H 318.791 1.96004 -3.73042 0
M  V30 3312 H 317.515 2.10596 -2.49634 0
M  V30 3313 H 316.174 0.314076 -3.65252 0
M  V30 3314 H 315.822 2.72187 -4.22993 0
M  V30 3315 H 315.522 1.66774 -5.63436 0
M  V30 3316 H 317.046 2.59403 -5.52759 0
M  V30 3317 H 318.46 0.331056 -5.72343 0
M  V30 3318 H 316.857 -0.41507 -5.98663 0
M  V30 3319 H 317.927 -1.06398 -4.73083 0
M  V30 3320 N 319.27 1.56325 -0.20005 0
M  V30 3321 C 320.498 2.02105 0.442874 0
M  V30 3322 C 320.913 1.08014 1.5485 0
M  V30 3323 O 320.27 0.0858797 1.82298 0
M  V30 3324 C 320.321 3.47549 0.994583 0
M  V30 3325 O 320.042 4.38049 -0.0669322 0
M  V30 3326 C 321.543 4.0887 1.7129 0
M  V30 3327 H 318.763 0.661807 0.110691 0
M  V30 3328 H 321.307 2.02134 -0.310207 0
M  V30 3329 H 319.462 3.48204 1.69803 0
M  V30 3330 H 319.876 5.23368 0.344462 0
M  V30 3331 H 321.35 5.12475 2.05118 0
M  V30 3332 H 321.827 3.52615 2.61838 0
M  V30 3333 H 322.433 4.12002 1.05518 0
M  V30 3334 N 320.748 -0.0735177 1.57428 0
M  V30 3335 C 321.996 -0.771472 1.86796 0
M  V30 3336 C 322.317 -1.78201 0.791804 0
M  V30 3337 O 321.587 -1.95074 -0.179718 0
M  V30 3338 H 320.167 -0.28791 0.689287 0
M  V30 3339 H 322.829 -0.0500161 1.94836 0
M  V30 3340 H 321.925 -1.28874 2.8425 0
M  V30 3341 N 322.226 -1.5378 -0.344866 0
M  V30 3342 C 323.136 -1.84667 -1.4469 0
M  V30 3343 C 324.152 -0.736704 -1.57635 0
M  V30 3344 O 325.328 -1.02888 -1.73136 0
M  V30 3345 C 322.393 -2.04869 -2.79696 0
M  V30 3346 C 321.454 -3.28731 -2.76106 0
M  V30 3347 C 320.687 -3.4796 -4.04673 0
M  V30 3348 O 320.91 -2.71052 -5.01883 0
M  V30 3349 O 319.844 -4.41383 -4.09224 0
M  V30 3350 H 323.67 -2.78334 -1.21506 0
M  V30 3351 H 321.255 -1.39418 -0.536921 0
M  V30 3352 H 323.137 -2.19609 -3.59652 0
M  V30 3353 H 321.812 -1.14391 -3.02814 0
M  V30 3354 H 320.719 -3.19396 -1.94774 0
M  V30 3355 H 322.052 -4.19198 -2.57941 0
M  V30 3356 N 323.704 0.605807 -1.45491 0
M  V30 3357 C 324.929 1.39625 -1.53361 0
M  V30 3358 C 325.354 1.87351 -0.167645 0
M  V30 3359 O 324.712 1.60243 0.848051 0
M  V30 3360 C 324.76 2.57559 -2.5238 0
M  V30 3361 O 323.864 3.58248 -2.04285 0
M  V30 3362 H 323.205 0.416771 -0.516912 0
M  V30 3363 H 325.735 0.737103 -1.90861 0
M  V30 3364 H 325.745 3.0478 -2.71244 0
M  V30 3365 H 324.42 2.22171 -3.51586 0
M  V30 3366 H 322.997 3.17664 -1.95305 0
M  V30 3367 N 325.182 1.32811 0.848464 0
M  V30 3368 C 326.092 1.24278 1.98978 0
M  V30 3369 C 327.108 0.155176 1.73307 0
M  V30 3370 O 328.284 0.376999 1.9784 0
M  V30 3371 C 325.349 0.972444 3.32783 0
M  V30 3372 C 324.41 2.14911 3.71634 0
M  V30 3373 C 323.643 1.89157 4.99054 0
M  V30 3374 O 323.866 0.837165 5.64223 0
M  V30 3375 O 322.8 2.75433 5.35183 0
M  V30 3376 H 326.626 2.20238 2.09115 0
M  V30 3377 H 324.211 1.12762 0.980052 0
M  V30 3378 H 326.093 0.838432 4.12975 0
M  V30 3379 H 324.768 0.043051 3.23671 0
M  V30 3380 H 323.675 2.33862 2.91992 0
M  V30 3381 H 325.008 3.06151 3.85399 0
M  V30 3382 N 326.66 -1.06551 1.16123 0
M  V30 3383 C 328.071 -1.60768 0.949232 0
M  V30 3384 C 328.422 -1.89523 -0.507508 0
M  V30 3385 O 327.547 -1.66671 -1.38021 0
M  V30 3386 C 328.142 -2.92086 1.71671 0
M  V30 3387 C 326.701 -3.43015 1.54977 0
M  V30 3388 C 325.848 -2.16947 1.72711 0
M  V30 3389 H 328.799 -0.895354 1.31031 0
M  V30 3390 H 328.82 -3.6138 1.19099 0
M  V30 3391 H 328.332 -2.71127 2.7769 0
M  V30 3392 H 326.433 -3.69039 0.513873 0
M  V30 3393 H 326.546 -4.18516 2.33198 0
M  V30 3394 H 324.91 -2.27041 1.15431 0
M  V30 3395 H 325.693 -1.98473 2.80113 0
M  V30 3396 N 328.138 -0.959301 -1.25041 0
M  V30 3397 C 329.07 -0.440543 -2.24926 0
M  V30 3398 C 330.083 0.446131 -1.56568 0
M  V30 3399 O 331.272 0.253657 -1.76689 0
M  V30 3400 C 328.372 0.38412 -3.36716 0
M  V30 3401 C 327.545 -0.490658 -4.34639 0
M  V30 3402 C 326.604 0.276587 -5.25473 0
M  V30 3403 O 325.63 -0.326614 -5.68262 0
M  V30 3404 N 326.832 1.56844 -5.5891 0
M  V30 3405 H 329.597 -1.29931 -2.70071 0
M  V30 3406 H 327.158 -0.830181 -1.38995 0
M  V30 3407 H 329.15 0.905228 -3.94446 0
M  V30 3408 H 327.72 1.14377 -2.90924 0
M  V30 3409 H 326.94 -1.19282 -3.7572 0
M  V30 3410 H 328.228 -1.08756 -4.97041 0
M  V30 3411 H 327.626 2.08036 -5.26059 0
M  V30 3412 H 326.183 2.03541 -6.19205 0
M  V30 3413 N 329.616 1.39756 -0.72842 0
M  V30 3414 C 330.844 2.04948 -0.283528 0
M  V30 3415 C 331.259 1.54908 1.0793 0
M  V30 3416 O 330.616 0.711135 1.68075 0
M  V30 3417 C 330.667 3.60498 -0.268957 0
M  V30 3418 O 330.388 4.08695 -1.57798 0
M  V30 3419 C 331.889 4.4288 0.192912 0
M  V30 3420 H 329.109 0.659243 -0.125056 0
M  V30 3421 H 331.653 1.78927 -0.990226 0
M  V30 3422 H 329.808 3.85444 0.388801 0
M  V30 3423 H 330.222 5.02977 -1.48709 0
M  V30 3424 H 331.696 5.51791 0.151952 0
M  V30 3425 H 332.173 4.21418 1.23708 0
M  V30 3426 H 332.779 4.23069 -0.435039 0
M  V30 3427 N 331.094 0.475555 1.50254 0
M  V30 3428 C 332.51 0.12997 1.5907 0
M  V30 3429 C 332.71 -1.36385 1.48328 0
M  V30 3430 O 331.766 -2.13754 1.34407 0
M  V30 3431 C 333.079 0.684139 2.92814 0
M  V30 3432 C 334.627 0.647965 3.0622 0
M  V30 3433 C 335.102 1.17975 4.42545 0
M  V30 3434 N 336.593 1.13936 4.48969 0
M  V30 3435 C 337.328 1.52129 5.52851 0
M  V30 3436 N 336.824 1.97793 6.63965 0
M  V30 3437 N 338.617 1.43704 5.4342 0
M  V30 3438 H 330.768 1.44706 1.55479 0
M  V30 3439 H 333.031 0.598691 0.735033 0
M  V30 3440 H 332.737 1.73079 3.06164 0
M  V30 3441 H 332.611 0.130204 3.76975 0
M  V30 3442 H 334.998 -0.38979 2.92514 0
M  V30 3443 H 335.079 1.23876 2.23805 0
M  V30 3444 H 334.723 2.21616 4.57 0
M  V30 3445 H 334.653 0.565138 5.23559 0
M  V30 3446 H 337.144 0.804488 3.69238 0
M  V30 3447 H 337.457 2.25072 7.39299 0
M  V30 3448 H 335.802 2.01749 6.65073 0
M  V30 3449 H 338.993 1.07867 4.55502 0
M  V30 3450 H 339.166 1.73794 6.24259 0
M  V30 3451 N 332.573 -1.56217 0.208337 0
M  V30 3452 C 333.798 -2.02782 -0.435222 0
M  V30 3453 C 334.223 -1.08738 -1.53485 0
M  V30 3454 O 333.581 -0.0731855 -1.81152 0
M  V30 3455 C 333.629 -3.47687 -0.956335 0
M  V30 3456 O 332.733 -3.56773 -2.06849 0
M  V30 3457 H 332.074 -0.656403 -0.100158 0
M  V30 3458 H 334.604 -2.02033 0.3231 0
M  V30 3459 H 334.614 -3.87745 -1.26955 0
M  V30 3460 H 333.289 -4.15624 -0.15143 0
M  V30 3461 H 331.866 -3.28597 -1.76292 0
M  V30 3462 N 334.051 0.0651679 -1.57465 0
M  V30 3463 C 335.462 0.616213 -1.76238 0
M  V30 3464 C 335.813 1.7756 -0.834689 0
M  V30 3465 O 334.938 2.1639 -0.0204156 0
M  V30 3466 C 335.533 1.12462 -3.1959 0
M  V30 3467 C 334.092 1.62147 -3.39684 0
M  V30 3468 C 333.239 0.543739 -2.71917 0
M  V30 3469 H 336.19 -0.161022 -1.57881 0
M  V30 3470 H 336.211 1.99324 -3.24114 0
M  V30 3471 H 335.723 0.280592 -3.87084 0
M  V30 3472 H 333.824 2.48854 -2.77313 0
M  V30 3473 H 333.937 1.69385 -4.48158 0
M  V30 3474 H 332.301 0.990352 -2.34657 0
M  V30 3475 H 333.084 -0.290216 -3.42071 0
M  V30 3476 N 335.529 1.53961 0.336706 0
M  V30 3477 C 336.439 1.85432 1.43708 0
M  V30 3478 C 337.455 0.745053 1.57242 0
M  V30 3479 O 338.631 1.03804 1.72588 0
M  V30 3480 C 335.696 2.06349 2.78605 0
M  V30 3481 C 334.757 3.30191 2.74358 0
M  V30 3482 C 333.99 3.50101 4.02822 0
M  V30 3483 O 334.213 2.7371 5.00439 0
M  V30 3484 O 333.147 4.43547 4.06878 0
M  V30 3485 H 336.973 2.78975 1.20028 0
M  V30 3486 H 334.558 1.39701 0.52952 0
M  V30 3487 H 336.44 2.21513 3.58483 0
M  V30 3488 H 335.115 1.15995 3.02203 0
M  V30 3489 H 334.022 3.20425 1.93078 0
M  V30 3490 H 335.355 4.2056 2.55715 0
M  V30 3491 N 337.007 -0.598083 1.45811 0
M  V30 3492 C 338.254 -1.35681 1.50323 0
M  V30 3493 C 338.582 -1.9393 0.148739 0
M  V30 3494 O 337.837 -1.76094 -0.853787 0
M  V30 3495 C 338.136 -2.51669 2.53766 0
M  V30 3496 C 337.802 -2.11508 3.98215 0
M  V30 3497 C 336.464 -2.0027 4.37545 0
M  V30 3498 C 338.816 -1.80308 4.89018 0
M  V30 3499 C 336.144 -1.56067 5.65562 0
M  V30 3500 C 338.496 -1.37589 6.17456 0
M  V30 3501 C 337.16 -1.24916 6.55708 0
M  V30 3502 H 336.43 -0.496492 0.550069 0
M  V30 3503 H 339.077 -0.675052 1.79207 0
M  V30 3504 H 337.382 -3.25225 2.18486 0
M  V30 3505 H 339.079 -3.09895 2.54492 0
M  V30 3506 H 335.669 -2.21185 3.67117 0
M  V30 3507 H 339.853 -1.87884 4.59362 0
M  V30 3508 H 335.109 -1.44886 5.93985 0
M  V30 3509 H 339.283 -1.12495 6.87254 0
M  V30 3510 H 336.91 -0.904386 7.54801 0
M  V30 3511 N 338.485 -1.33259 -0.841409 0
M  V30 3512 C 339.713 -1.27605 -1.62864 0
M  V30 3513 C 340.128 0.153507 -1.88175 0
M  V30 3514 O 339.485 1.09485 -1.46011 0
M  V30 3515 C 339.536 -2.04596 -2.98031 0
M  V30 3516 O 339.257 -3.41975 -2.73834 0
M  V30 3517 C 340.758 -2.06122 -3.92465 0
M  V30 3518 H 337.978 -0.439718 -0.506842 0
M  V30 3519 H 340.522 -1.75591 -1.04824 0
M  V30 3520 H 338.677 -1.60299 -3.5268 0
M  V30 3521 H 339.091 -3.81549 -3.59889 0
M  V30 3522 H 340.565 -2.64451 -4.84531 0
M  V30 3523 H 341.042 -1.05083 -4.26444 0
M  V30 3524 H 341.648 -2.50427 -3.43753 0
M  V30 3525 N 339.963 1.05934 -1.16686 0
M  V30 3526 C 340.913 2.11764 -0.844978 0
M  V30 3527 C 341.897 1.59922 0.177178 0
M  V30 3528 O 343.089 1.76983 -0.0241768 0
M  V30 3529 C 340.218 3.41493 -0.351812 0
M  V30 3530 C 339.304 4.00152 -1.40496 0
M  V30 3531 N 339.695 4.32874 -2.61636 0
M  V30 3532 C 337.993 4.278 -1.26106 0
M  V30 3533 C 338.694 4.79552 -3.29249 0
M  V30 3534 N 337.67 4.79211 -2.56628 0
M  V30 3535 H 341.472 2.34916 -1.76612 0
M  V30 3536 H 338.986 1.23511 -1.05446 0
M  V30 3537 H 340.983 4.16773 -0.102796 0
M  V30 3538 H 339.643 3.19778 0.56322 0
M  V30 3539 H 340.654 4.23109 -2.98663 0
M  V30 3540 H 337.331 4.15511 -0.407081 0
M  V30 3541 H 338.721 5.14045 -4.32675 0
M  V30 3542 N 341.441 0.965919 1.2453 0
M  V30 3543 C 342.351 0.502154 2.29163 0
M  V30 3544 C 343.367 -0.436017 1.68448 0
M  V30 3545 O 344.543 -0.309497 1.99008 0
M  V30 3546 C 341.608 -0.201956 3.46111 0
M  V30 3547 C 340.669 0.775821 4.22232 0
M  V30 3548 C 339.902 0.105217 5.33596 0
M  V30 3549 O 340.125 -1.10683 5.59558 0
M  V30 3550 O 339.059 0.796475 5.96607 0
M  V30 3551 H 342.885 1.37194 2.70946 0
M  V30 3552 H 340.47 0.732875 1.30189 0
M  V30 3553 H 342.352 -0.597564 4.17142 0
M  V30 3554 H 341.027 -1.04673 3.06309 0
M  V30 3555 H 339.934 1.22185 3.53584 0
M  V30 3556 H 341.267 1.58896 4.65846 0
M  V30 3557 N 342.919 -1.39368 0.735821 0
M  V30 3558 C 343.867 -2.32443 0.0855131 0
M  V30 3559 C 344.861 -1.53104 -0.724954 0
M  V30 3560 O 346.067 -1.68762 -0.626047 0
M  V30 3561 H 342.442 -0.751948 0.00885257 0
M  V30 3562 H 344.413 -2.84916 0.886883 0
M  V30 3563 C 343.162 -3.38206 -0.806983 0
M  V30 3564 H 342.485 -3.99335 -0.19274 0
M  V30 3565 H 343.925 -4.05779 -1.2296 0
M  V30 3566 C 342.384 -2.75321 -1.94165 0
M  V30 3567 O 342.914 -2.63231 -3.03435 0
M  V30 3568 N 341.12 -2.33396 -1.73132 0
M  V30 3569 H 340.667 -2.4343 -0.842596 0
M  V30 3570 H 340.625 -1.91661 -2.49225 0
M  V30 3571 N 344.397 -0.483516 -1.5 0
M  V30 3572 C 345.808 -0.0314176 -1.86674 0
M  V30 3573 C 346.159 1.37728 -1.39733 0
M  V30 3574 O 345.284 2.02327 -0.767635 0
M  V30 3575 C 345.879 -0.0502376 -3.38763 0
M  V30 3576 C 344.438 0.346442 -3.74802 0
M  V30 3577 C 343.585 -0.430366 -2.7394 0
M  V30 3578 H 346.536 -0.697182 -1.42566 0
M  V30 3579 H 346.557 0.749116 -3.73053 0
M  V30 3580 H 346.069 -1.07563 -3.72897 0
M  V30 3581 H 344.17 1.37572 -3.46273 0
M  V30 3582 H 344.283 0.0391486 -4.79084 0
M  V30 3583 H 342.647 0.117557 -2.54429 0
M  V30 3584 H 343.43 -1.4555 -3.10918 0
M  V30 3585 N 345.875 1.56104 -0.216619 0
M  V30 3586 C 346.805 2.23063 0.690296 0
M  V30 3587 C 347.786 1.20072 1.20485 0
M  V30 3588 O 348.971 1.48643 1.24976 0
M  V30 3589 C 346.101 2.90672 1.90072 0
M  V30 3590 C 345.055 4.00092 1.5202 0
M  V30 3591 C 344.381 4.54972 2.80899 0
M  V30 3592 C 345.681 5.17398 0.71391 0
M  V30 3593 H 347.375 2.99109 0.132038 0
M  V30 3594 H 344.921 1.43866 0.0620664 0
M  V30 3595 H 346.874 3.36204 2.54057 0
M  V30 3596 H 345.598 2.12066 2.48386 0
M  V30 3597 H 344.257 3.55283 0.903839 0
M  V30 3598 H 343.905 3.73102 3.37348 0
M  V30 3599 H 343.605 5.28817 2.56176 0
M  V30 3600 H 345.129 5.0322 3.45836 0
M  V30 3601 H 346.543 5.59342 1.25735 0
M  V30 3602 H 344.94 5.97444 0.563951 0
M  V30 3603 H 346.01 4.84088 -0.280527 0
M  V30 3604 N 347.353 -0.0568162 1.57498 0
M  V30 3605 C 348.263 -1.08346 2.08083 0
M  V30 3606 C 349.279 -1.41439 1.01346 0
M  V30 3607 O 350.455 -1.51316 1.32912 0
M  V30 3608 C 347.52 -2.37352 2.52715 0
M  V30 3609 C 346.581 -2.11093 3.73816 0
M  V30 3610 C 345.814 -3.33949 4.1631 0
M  V30 3611 O 346.037 -4.43622 3.58547 0
M  V30 3612 O 344.971 -3.21279 5.08983 0
M  V30 3613 H 348.797 -0.683667 2.95905 0
M  V30 3614 H 346.382 -0.271965 1.46904 0
M  V30 3615 H 348.264 -3.13246 2.81877 0
M  V30 3616 H 346.939 -2.76681 1.68016 0
M  V30 3617 H 345.846 -1.32856 3.49714 0
M  V30 3618 H 347.179 -1.76637 4.59413 0
M  V30 3619 N 348.832 -1.54138 -0.328536 0
M  V30 3620 C 350.06 -1.76062 -1.08673 0
M  V30 3621 C 350.475 -0.506852 -1.81869 0
M  V30 3622 O 349.832 0.522223 -1.74869 0
M  V30 3623 C 349.883 -2.95054 -2.08866 0
M  V30 3624 O 349.604 -4.15583 -1.38644 0
M  V30 3625 C 351.105 -3.2915 -2.96943 0
M  V30 3626 H 348.325 -0.587889 -0.323461 0
M  V30 3627 H 350.869 -2.0101 -0.376175 0
M  V30 3628 H 349.024 -2.72394 -2.75464 0
M  V30 3629 H 349.438 -4.82481 -2.05699 0
M  V30 3630 H 350.912 -4.15723 -3.63151 0
M  V30 3631 H 351.389 -2.461 -3.63774 0
M  V30 3632 H 351.995 -3.53871 -2.35914 0
M  V30 3633 N 350.31 0.590341 -1.46126 0
M  V30 3634 C 351.726 0.912917 -1.30912 0
M  V30 3635 C 351.926 1.99616 -0.274893 0
M  V30 3636 O 350.982 2.50397 0.325197 0
M  V30 3637 C 352.295 1.3375 -2.69317 0
M  V30 3638 C 353.843 1.45077 -2.77348 0
M  V30 3639 C 354.318 1.90904 -4.16317 0
M  V30 3640 N 355.809 1.9811 -4.18696 0
M  V30 3641 C 356.544 2.34828 -5.23109 0
M  V30 3642 N 356.04 2.70393 -6.37856 0
M  V30 3643 N 357.833 2.35317 -5.10473 0
M  V30 3644 H 349.984 -0.125358 -2.1203 0
M  V30 3645 H 352.247 0.00658481 -0.947977 0
M  V30 3646 H 351.953 0.615614 -3.4627 0
M  V30 3647 H 351.827 2.30058 -2.9892 0
M  V30 3648 H 354.214 2.16353 -2.00687 0
M  V30 3649 H 354.295 0.4704 -2.51438 0
M  V30 3650 H 353.939 1.20209 -4.9347 0
M  V30 3651 H 353.869 2.89886 -4.39629 0
M  V30 3652 H 356.36 1.73146 -3.359 0
M  V30 3653 H 356.673 2.97341 -7.13308 0
M  V30 3654 H 355.018 2.68048 -6.41229 0
M  V30 3655 H 358.209 2.0695 -4.19868 0
M  V30 3656 H 358.382 2.63605 -5.9196 0
M  V30 3657 N 351.788 1.33704 0.83433 0
M  V30 3658 C 352.736 1.24323 1.96587 0
M  V30 3659 C 353.73 0.143659 1.6879 0
M  V30 3660 O 354.936 0.30791 1.77347 0
M  V30 3661 H 351.311 0.385925 0.645419 0
M  V30 3662 H 353.282 2.19978 2.01624 0
M  V30 3663 C 352.031 1.00394 3.32891 0
M  V30 3664 H 351.354 1.84231 3.54822 0
M  V30 3665 H 352.794 0.97862 4.12552 0
M  V30 3666 C 351.253 -0.293047 3.35623 0
M  V30 3667 O 351.783 -1.29823 3.80143 0
M  V30 3668 N 349.989 -0.322174 2.88809 0
M  V30 3669 H 349.536 0.496379 2.52772 0
M  V30 3670 H 349.494 -1.18977 2.91019 0
M  V30 3671 N 353.266 -1.05314 1.17247 0
M  V30 3672 C 354.515 -1.77685 0.954521 0
M  V30 3673 C 354.828 -1.88616 -0.518025 0
M  V30 3674 O 356.034 -2.57714 -0.854144 0
M  V30 3675 C 354.49 -3.19402 1.65863 0
M  V30 3676 C 354.098 -3.16605 3.16963 0
M  V30 3677 C 355.842 -3.96237 1.52303 0
M  V30 3678 C 353.749 -4.53103 3.80068 0
M  V30 3679 H 352.679 -0.666 0.353496 0
M  V30 3680 H 355.33 -1.1805 1.40486 0
M  V30 3681 H 353.712 -3.79355 1.13602 0
M  V30 3682 H 354.886 -2.66176 3.76148 0
M  V30 3683 H 353.201 -2.53268 3.30521 0
M  V30 3684 H 355.798 -4.97157 1.96822 0
M  V30 3685 H 356.141 -4.136 0.473401 0
M  V30 3686 H 356.674 -3.42829 2.01775 0
M  V30 3687 H 353.413 -4.40946 4.85023 0
M  V30 3688 H 352.933 -5.03686 3.2567 0
M  V30 3689 H 354.612 -5.22045 3.82202 0
M  V30 3690 N 354.744 -0.972509 -1.24016 0
M  V30 3691 C 355.984 -0.644951 -1.93958 0
M  V30 3692 C 356.348 0.80559 -1.74282 0
M  V30 3693 O 357.549 1.2436 -2.38302 0
M  V30 3694 C 355.82 -1.01521 -3.42678 0
M  V30 3695 S 357.379 -0.802927 -4.31391 0
M  V30 3696 H 354.197 -0.236452 -0.670531 0
M  V30 3697 H 356.799 -1.25048 -1.50277 0
M  V30 3698 H 355.503 -2.06769 -3.54506 0
M  V30 3699 H 355.034 -0.400648 -3.91355 0
M  V30 3700 H 357.049 0.317256 -4.95185 0
M  V30 3701 N 356.222 1.38976 -0.743202 0
M  V30 3702 C 357.469 2.00343 -0.294752 0
M  V30 3703 C 357.797 1.58983 1.12047 0
M  V30 3704 O 357.052 0.813809 1.77977 0
M  V30 3705 C 357.351 3.55647 -0.353517 0
M  V30 3706 C 357.017 4.16685 -1.72292 0
M  V30 3707 C 355.679 4.3307 -2.09771 0
M  V30 3708 C 358.031 4.50464 -2.62168 0
M  V30 3709 C 355.359 4.80526 -3.36618 0
M  V30 3710 C 357.711 4.99332 -3.88395 0
M  V30 3711 C 356.375 5.13924 -4.25956 0
M  V30 3712 H 355.645 0.733108 -0.107857 0
M  V30 3713 H 358.292 1.6618 -0.951651 0
M  V30 3714 H 356.597 3.89884 0.386954 0
M  V30 3715 H 358.294 4.00998 0.0117269 0
M  V30 3716 H 354.884 4.04339 -1.42155 0
M  V30 3717 H 359.068 4.37416 -2.3448 0
M  V30 3718 H 354.324 4.90008 -3.65653 0
M  V30 3719 H 358.498 5.2444 -4.58187 0
M  V30 3720 H 356.125 5.50457 -5.2431 0
M  V30 3721 N 357.7 0.491464 1.49741 0
M  V30 3722 C 358.947 -0.0564256 2.02421 0
M  V30 3723 C 359.275 -1.37872 1.37192 0
M  V30 3724 O 358.53 -1.89375 0.493508 0
M  V30 3725 C 358.829 -0.267329 3.56399 0
M  V30 3726 C 358.495 0.975775 4.40215 0
M  V30 3727 C 357.157 1.31655 4.62839 0
M  V30 3728 C 359.509 1.80251 4.89039 0
M  V30 3729 C 356.837 2.48375 5.31532 0
M  V30 3730 C 359.189 2.96116 5.59015 0
M  V30 3731 C 357.853 3.30585 5.79888 0
M  V30 3732 H 357.123 -0.0206476 0.740712 0
M  V30 3733 H 359.77 0.649686 1.80143 0
M  V30 3734 H 358.075 -1.05588 3.77304 0
M  V30 3735 H 359.772 -0.705549 3.94744 0
M  V30 3736 H 356.362 0.700315 4.2284 0
M  V30 3737 H 360.546 1.55239 4.71396 0
M  V30 3738 H 355.802 2.7533 5.45897 0
M  V30 3739 H 359.976 3.60509 5.95824 0
M  V30 3740 H 357.603 4.21132 6.32892 0
M  V30 3741 N 359.178 -1.55987 0.224894 0
M  V30 3742 C 360.403 -2.03232 -0.41369 0
M  V30 3743 C 360.828 -1.10359 -1.52323 0
M  V30 3744 O 360.186 -0.092395 -1.81064 0
M  V30 3745 C 360.234 -3.48682 -0.919405 0
M  V30 3746 O 359.338 -3.58947 -2.03054 0
M  V30 3747 H 358.679 -0.657428 -0.0931903 0
M  V30 3748 H 361.209 -2.01679 0.34451 0
M  V30 3749 H 361.219 -3.8907 -1.22835 0
M  V30 3750 H 359.894 -4.15761 -0.107339 0
M  V30 3751 H 358.471 -3.30448 -1.72796 0
M  V30 3752 N 360.656 0.0484629 -1.57525 0
M  V30 3753 C 361.884 0.755421 -1.92616 0
M  V30 3754 C 362.299 1.69919 -0.822984 0
M  V30 3755 O 361.656 1.81378 0.202085 0
M  V30 3756 C 361.707 1.52915 -3.27566 0
M  V30 3757 O 361.428 0.62329 -4.33644 0
M  V30 3758 C 362.929 2.33502 -3.76818 0
M  V30 3759 H 360.149 0.213465 -0.63614 0
M  V30 3760 H 362.693 0.0117698 -2.04497 0
M  V30 3761 H 360.848 2.22486 -3.17142 0
M  V30 3762 H 361.262 1.16383 -5.11425 0
M  V30 3763 H 362.736 2.83214 -4.73808 0
M  V30 3764 H 363.213 3.14068 -3.07014 0
M  V30 3765 H 363.819 1.69043 -3.90262 0
M  V30 3766 N 362.134 1.5431 0.320358 0
M  V30 3767 C 363.082 1.84647 1.4145 0
M  V30 3768 C 364.076 0.718624 1.53402 0
M  V30 3769 O 365.282 0.902335 1.5575 0
M  V30 3770 H 361.657 0.585349 0.472091 0
M  V30 3771 H 363.628 2.7614 1.13089 0
M  V30 3772 C 362.377 2.09341 2.77617 0
M  V30 3773 H 361.7 2.9559 2.69196 0
M  V30 3774 H 363.14 2.3452 3.53237 0
M  V30 3775 C 361.599 0.885939 3.25043 0
M  V30 3776 O 362.129 0.0967891 4.01583 0
M  V30 3777 N 360.335 0.696682 2.82125 0
M  V30 3778 H 359.882 1.34006 2.2 0
M  V30 3779 H 359.84 -0.109712 3.14209 0
M  V30 3780 N 363.613 -0.582584 1.46437 0
M  V30 3781 C 364.853 -1.35184 1.53312 0
M  V30 3782 C 365.217 -1.9115 0.180508 0
M  V30 3783 O 366.418 -2.68514 0.124017 0
M  V30 3784 C 364.689 -2.45089 2.60127 0
M  V30 3785 S 366.248 -3.32439 2.86408 0
M  V30 3786 H 363.066 -0.460559 0.54167 0
M  V30 3787 H 365.668 -0.669709 1.83671 0
M  V30 3788 H 364.372 -2.02366 3.57038 0
M  V30 3789 H 363.903 -3.18074 2.315 0
M  V30 3790 H 365.918 -4.43924 2.21688 0
M  V30 3791 N 365.091 -1.34144 -0.827227 0
M  V30 3792 C 366.337 -1.26446 -1.58554 0
M  V30 3793 C 366.67 0.1664 -1.93486 0
M  V30 3794 O 365.945 1.1107 -1.59667 0
M  V30 3795 C 366.228 -2.15111 -2.8879 0
M  V30 3796 C 366.081 -3.66712 -2.60465 0
M  V30 3797 C 367.4 -2.03311 -3.90324 0
M  V30 3798 H 364.519 -0.46067 -0.575284 0
M  V30 3799 H 367.161 -1.64356 -0.953269 0
M  V30 3800 H 365.311 -1.8291 -3.42748 0
M  V30 3801 H 366.983 -4.09259 -2.1285 0
M  V30 3802 H 365.226 -3.88014 -1.93978 0
M  V30 3803 H 365.897 -4.24112 -3.53317 0
M  V30 3804 H 368.373 -2.31574 -3.45706 0
M  V30 3805 H 367.249 -2.67582 -4.79261 0
M  V30 3806 H 367.51 -1.00879 -4.30437 0
M  V30 3807 N 366.569 1.04691 -1.17803 0
M  V30 3808 C 367.479 2.16057 -0.914151 0
M  V30 3809 C 368.495 1.73589 0.119503 0
M  V30 3810 O 369.671 2.01308 -0.0609468 0
M  V30 3811 C 366.736 3.4394 -0.436603 0
M  V30 3812 C 365.797 4.00825 -1.53746 0
M  V30 3813 C 365.03 5.22604 -1.0826 0
M  V30 3814 O 365.253 5.70367 0.0612244 0
M  V30 3815 O 364.187 5.7186 -1.87775 0
M  V30 3816 H 368.013 2.41169 -1.84584 0
M  V30 3817 H 365.598 1.1453 -0.959334 0
M  V30 3818 H 367.48 4.21024 -0.178057 0
M  V30 3819 H 366.155 3.20316 0.466869 0
M  V30 3820 H 365.062 3.25158 -1.84995 0
M  V30 3821 H 366.395 4.28778 -2.41683 0
M  V30 3822 N 368.047 0.979072 1.23499 0
M  V30 3823 C 369.295 0.645941 1.91499 0
M  V30 3824 C 369.616 -0.822948 1.76784 0
M  V30 3825 O 368.886 -1.58854 1.14639 0
M  V30 3826 H 367.466 0.235919 0.708767 0
M  V30 3827 H 370.128 1.2426 1.50152 0
M  V30 3828 H 369.224 0.896411 2.9895 0
M  V30 3829 N 369.525 -1.3858 0.750561 0
M  V30 3830 C 370.753 -2.04471 0.316098 0
M  V30 3831 C 371.168 -1.56606 -1.05452 0
M  V30 3832 O 370.525 -0.737784 -1.66922 0
M  V30 3833 C 370.576 -3.60025 0.326275 0
M  V30 3834 O 370.297 -4.06133 1.6428 0
M  V30 3835 C 371.798 -4.43131 -0.122429 0
M  V30 3836 H 369.018 -0.65717 0.135528 0
M  V30 3837 H 371.562 -1.77329 1.01857 0
M  V30 3838 H 369.717 -3.86014 -0.327431 0
M  V30 3839 H 370.131 -5.00547 1.56693 0
M  V30 3840 H 371.605 -5.51963 -0.0641473 0
M  V30 3841 H 372.082 -4.23333 -1.16988 0
M  V30 3842 H 372.688 -4.22323 0.50229 0
M  V30 3843 N 371.003 -0.499398 -1.49478 0
M  V30 3844 C 371.966 0.268838 -2.27618 0
M  V30 3845 C 372.966 0.895383 -1.33565 0
M  V30 3846 O 374.156 0.760164 -1.56739 0
M  V30 3847 C 371.288 1.38559 -3.11471 0
M  V30 3848 H 372.481 -0.416812 -2.96989 0
M  V30 3849 H 370.034 -0.254313 -1.54217 0
M  V30 3850 H 370.769 2.10544 -2.46661 0
M  V30 3851 H 370.554 0.941797 -3.80621 0
M  V30 3852 H 372.044 1.92678 -3.70493 0
M  V30 3853 N 372.481 1.55866 -0.233164 0
M  V30 3854 C 373.897 1.59133 0.121988 0
M  V30 3855 C 374.097 1.25016 1.58029 0
M  V30 3856 O 373.153 0.990922 2.32243 0
M  V30 3857 C 374.466 2.99932 -0.214792 0
M  V30 3858 C 376.014 3.12601 -0.157971 0
M  V30 3859 C 376.489 4.55597 -0.46859 0
M  V30 3860 N 377.98 4.61305 -0.418585 0
M  V30 3861 C 378.715 5.69903 -0.63227 0
M  V30 3862 N 378.211 6.86819 -0.90835 0
M  V30 3863 N 380.004 5.59264 -0.563913 0
M  V30 3864 H 372.155 1.76315 -1.18434 0
M  V30 3865 H 374.418 0.820093 -0.475553 0
M  V30 3866 H 374.124 3.29588 -1.22739 0
M  V30 3867 H 373.998 3.74327 0.464691 0
M  V30 3868 H 376.385 2.82735 0.845283 0
M  V30 3869 H 376.466 2.40511 -0.871102 0
M  V30 3870 H 376.11 4.86182 -1.46934 0
M  V30 3871 H 376.04 5.25928 0.265865 0
M  V30 3872 H 378.531 3.77297 -0.213368 0
M  V30 3873 H 378.844 7.65507 -1.05919 0
M  V30 3874 H 377.189 6.88536 -0.945673 0
M  V30 3875 H 380.38 4.66802 -0.348372 0
M  V30 3876 H 380.553 6.43831 -0.733847 0
M  V30 3877 N 373.959 -0.0401083 1.57549 0
M  V30 3878 C 375.207 -0.731677 1.8839 0
M  V30 3879 C 375.528 -1.76481 0.829425 0
M  V30 3880 O 374.798 -1.95411 -0.1383 0
M  V30 3881 H 373.378 -0.273225 0.695239 0
M  V30 3882 H 376.04 -0.00867725 1.94898 0
M  V30 3883 H 375.136 -1.22816 2.86919 0
M  V30 3884 N 375.437 -1.54477 -0.31217 0
M  V30 3885 C 376.686 -1.72438 -1.04633 0
M  V30 3886 C 376.999 -0.511163 -1.88803 0
M  V30 3887 O 378.205 -0.572341 -2.65399 0
M  V30 3888 C 376.661 -3.05043 -1.9099 0
M  V30 3889 C 376.269 -4.33806 -1.11877 0
M  V30 3890 C 378.013 -3.32364 -2.64073 0
M  V30 3891 C 375.92 -5.57467 -1.97445 0
M  V30 3892 H 374.85 -0.642647 -0.394361 0
M  V30 3893 H 377.501 -1.80966 -0.303929 0
M  V30 3894 H 375.883 -2.90451 -2.69173 0
M  V30 3895 H 377.057 -4.59199 -0.383843 0
M  V30 3896 H 375.372 -4.13336 -0.504252 0
M  V30 3897 H 377.969 -4.21951 -3.28423 0
M  V30 3898 H 378.312 -2.50745 -3.32314 0
M  V30 3899 H 378.845 -3.47875 -1.92944 0
M  V30 3900 H 375.584 -6.41722 -1.33692 0
M  V30 3901 H 375.104 -5.36277 -2.6864 0
M  V30 3902 H 376.783 -5.94303 -2.5576 0
M  V30 3903 N 376.915 0.57481 -1.46744 0
M  V30 3904 C 378.161 1.3347 -1.52688 0
M  V30 3905 C 378.494 1.93353 -0.181229 0
M  V30 3906 O 377.769 1.76912 0.808237 0
M  V30 3907 C 378.052 2.45811 -2.63152 0
M  V30 3908 C 377.905 1.90912 -4.07275 0
M  V30 3909 C 379.224 3.47822 -2.69644 0
M  V30 3910 H 376.343 0.483935 -0.555856 0
M  V30 3911 H 378.985 0.644968 -1.78718 0
M  V30 3912 H 377.135 3.04646 -2.41088 0
M  V30 3913 H 378.807 1.36473 -4.4065 0
M  V30 3914 H 377.05 1.21691 -4.16382 0
M  V30 3915 H 377.721 2.72042 -4.80309 0
M  V30 3916 H 380.197 2.9888 -2.895 0
M  V30 3917 H 379.073 4.23876 -3.48742 0
M  V30 3918 H 379.334 4.05555 -1.76005 0
M  V30 3919 N 378.394 1.34581 0.820102 0
M  V30 3920 C 379.643 1.26437 1.57151 0
M  V30 3921 C 379.956 -0.163111 1.94919 0
M  V30 3922 O 381.162 -0.366722 2.69012 0
M  V30 3923 C 379.618 2.21658 2.83541 0
M  V30 3924 C 379.226 3.69679 2.53065 0
M  V30 3925 C 380.97 2.22428 3.61561 0
M  V30 3926 C 378.877 4.56761 3.75664 0
M  V30 3927 H 377.807 0.469707 0.589823 0
M  V30 3928 H 380.458 1.59763 0.902656 0
M  V30 3929 H 378.84 1.81287 3.52067 0
M  V30 3930 H 380.014 4.18605 1.92631 0
M  V30 3931 H 378.329 3.71384 1.88316 0
M  V30 3932 H 380.926 2.8471 4.52597 0
M  V30 3933 H 381.269 1.22434 3.97889 0
M  V30 3934 H 381.802 2.61259 2.99981 0
M  V30 3935 H 378.541 5.57702 3.44454 0
M  V30 3936 H 378.061 4.12568 4.35371 0
M  V30 3937 H 379.74 4.71509 4.43044 0
M  V30 3938 N 379.872 -1.04064 1.18357 0
M  V30 3939 C 380.835 -2.10243 0.912707 0
M  V30 3940 C 381.835 -1.60477 -0.101928 0
M  V30 3941 O 383.025 -1.73703 0.131517 0
M  V30 3942 C 380.157 -3.38893 0.369387 0
M  V30 3943 H 381.35 -2.35706 1.85426 0
M  V30 3944 H 378.903 -1.20489 0.995594 0
M  V30 3945 H 379.638 -3.19094 -0.578776 0
M  V30 3946 H 379.423 -3.76331 1.1008 0
M  V30 3947 H 380.913 -4.17128 0.198575 0
M  V30 3948 N 381.35 -0.985608 -1.22978 0
M  V30 3949 C 382.578 -0.675582 -1.95559 0
M  V30 3950 C 382.993 0.758413 -1.72897 0
M  V30 3951 O 382.35 1.51094 -1.02357 0
M  V30 3952 C 382.401 -0.96293 -3.48439 0
M  V30 3953 O 382.122 -2.34057 -3.70336 0
M  V30 3954 C 383.623 -0.669585 -4.38214 0
M  V30 3955 H 380.843 -0.250523 -0.622478 0
M  V30 3956 H 383.387 -1.3184 -1.56328 0
M  V30 3957 H 381.542 -0.366033 -3.85667 0
M  V30 3958 H 381.956 -2.43424 -4.64591 0
M  V30 3959 H 383.43 -0.920967 -5.44263 0
M  V30 3960 H 383.907 0.396383 -4.37408 0
M  V30 3961 H 384.513 -1.2472 -4.06602 0
M  V30 3962 N 382.828 1.3818 -0.7579 0
M  V30 3963 C 384.076 1.99624 -0.315361 0
M  V30 3964 C 384.397 1.60464 1.10799 0
M  V30 3965 O 383.667 0.863507 1.75842 0
M  V30 3966 H 382.247 0.73831 -0.113611 0
M  V30 3967 H 384.909 1.68878 -0.972952 0
M  V30 3968 H 384.005 3.09754 -0.381931 0
M  V30 3969 N 384.306 0.507319 1.49211 0
M  V30 3970 C 385.583 -0.0982702 1.95353 0
M  V30 3971 C 385.963 -1.53516 1.449 0
M  V30 3972 O 385.311 -2.18594 0.66551 0
M  V30 3973 C 385.521 -0.00440283 3.49 0
M  V30 3974 C 386.869 -0.175147 4.24239 0
M  V30 3975 O 387.893 -0.0792891 3.56112 0
M  V30 3976 O 386.752 -0.37276 5.45227 0
M  V30 3977 H 383.846 -0.0918236 0.821887 0
M  V30 3978 H 386.392 0.570307 1.5983 0
M  V30 3979 H 385.164 0.997402 3.78375 0
M  V30 3980 H 384.787 -0.712845 3.91158 0
M  V30 3981 N 385.784 -1.5574 0.241426 0
M  V30 3982 C 387.2 -1.59196 -0.113548 0
M  V30 3983 C 387.4 -1.25852 -1.57364 0
M  V30 3984 O 386.456 -1.00322 -2.31715 0
M  V30 3985 C 387.769 -2.99814 0.230695 0
M  V30 3986 C 389.317 -3.12513 0.174547 0
M  V30 3987 C 389.792 -4.55342 0.492744 0
M  V30 3988 N 391.283 -4.61076 0.443043 0
M  V30 3989 C 392.018 -5.6956 0.662484 0
M  V30 3990 N 391.514 -6.86328 0.944761 0
M  V30 3991 N 393.307 -5.58957 0.593564 0
M  V30 3992 H 385.458 -1.75685 1.19368 0
M  V30 3993 H 387.721 -0.81756 0.479896 0
M  V30 3994 H 387.427 -3.28932 1.24485 0
M  V30 3995 H 387.301 -3.74568 -0.444833 0
M  V30 3996 H 389.688 -2.83179 -0.830277 0
M  V30 3997 H 389.769 -2.40045 0.883845 0
M  V30 3998 H 389.413 -4.85396 1.4951 0
M  V30 3999 H 389.343 -5.26062 -0.23797 0
M  V30 4000 H 391.834 -3.77179 0.233374 0
M  V30 4001 H 392.147 -7.64935 1.09977 0
M  V30 4002 H 390.492 -6.88025 0.982175 0
M  V30 4003 H 393.683 -4.66611 0.373123 0
M  V30 4004 H 393.856 -6.43433 0.767981 0
M  V30 4005 N 387.262 0.0317525 -1.57568 0
M  V30 4006 C 388.49 0.734949 -1.93407 0
M  V30 4007 C 388.905 1.69036 -0.84096 0
M  V30 4008 O 388.262 1.81582 0.182836 0
M  V30 4009 C 388.313 1.49432 -3.29169 0
M  V30 4010 O 388.034 0.577261 -4.3428 0
M  V30 4011 C 389.535 2.29492 -3.79273 0
M  V30 4012 H 386.755 0.206706 -0.638368 0
M  V30 4013 H 389.299 -0.00992046 -2.04498 0
M  V30 4014 H 387.454 2.1911 -3.19483 0
M  V30 4015 H 387.868 1.10952 -5.1263 0
M  V30 4016 H 389.342 2.78172 -4.76785 0
M  V30 4017 H 389.819 3.10794 -3.10328 0
M  V30 4018 H 390.425 1.64894 -3.92033 0
M  V30 4019 N 388.74 1.54641 0.303973 0
M  V30 4020 C 389.986 1.74038 1.04109 0
M  V30 4021 C 390.319 0.523051 1.87024 0
M  V30 4022 O 389.594 -0.479874 1.88487 0
M  V30 4023 C 389.877 3.02761 1.94955 0
M  V30 4024 C 389.73 4.34787 1.1524 0
M  V30 4025 C 391.049 3.27336 2.94175 0
M  V30 4026 H 388.168 0.63323 0.377079 0
M  V30 4027 H 390.81 1.87354 0.316001 0
M  V30 4028 H 388.96 2.9154 2.56782 0
M  V30 4029 H 390.632 4.57922 0.557236 0
M  V30 4030 H 388.875 4.31407 0.455053 0
M  V30 4031 H 389.546 5.21116 1.8205 0
M  V30 4032 H 392.022 3.38148 2.42477 0
M  V30 4033 H 390.898 4.18726 3.54908 0
M  V30 4034 H 391.159 2.45491 3.67677 0
M  V30 4035 N 390.218 -0.567019 1.47046 0
M  V30 4036 C 391.151 -1.69016 1.53326 0
M  V30 4037 C 392.129 -1.57949 0.386126 0
M  V30 4038 O 393.313 -1.78945 0.592529 0
M  V30 4039 C 390.44 -3.07191 1.42658 0
M  V30 4040 C 389.486 -3.36733 2.6175 0
M  V30 4041 S 390.319 -3.27069 4.24012 0
M  V30 4042 C 391.475 -4.67755 4.1588 0
M  V30 4043 H 391.708 -1.63434 2.48348 0
M  V30 4044 H 389.241 -0.747048 1.35124 0
M  V30 4045 H 391.199 -3.86897 1.37191 0
M  V30 4046 H 389.86 -3.10249 0.490369 0
M  V30 4047 H 389.053 -4.37441 2.50323 0
M  V30 4048 H 388.655 -2.64627 2.64289 0
M  V30 4049 H 390.947 -5.58491 3.83529 0
M  V30 4050 H 391.89 -4.84239 5.16641 0
M  V30 4051 H 392.298 -4.45341 3.46889 0
M  V30 4052 N 391.696 -1.35014 -0.812953 0
M  V30 4053 C 392.944 -1.27678 -1.56661 0
M  V30 4054 C 393.265 0.150359 -1.94419 0
M  V30 4055 O 392.535 1.08532 -1.63088 0
M  V30 4056 H 391.115 -0.469602 -0.580933 0
M  V30 4057 H 393.777 -1.69043 -0.970076 0
M  V30 4058 H 392.873 -1.88833 -2.48492 0
M  V30 4059 N 393.175 1.03435 -1.18907 0
M  V30 4060 C 394.591 1.28973 -0.940111 0
M  V30 4061 C 394.791 1.97676 0.390691 0
M  V30 4062 O 393.847 2.26127 1.12352 0
M  V30 4063 C 395.16 2.14221 -2.11021 0
M  V30 4064 C 396.708 2.27547 -2.14922 0
M  V30 4065 C 397.183 3.16164 -3.31367 0
M  V30 4066 N 398.674 3.23752 -3.31269 0
M  V30 4067 C 399.409 3.92495 -4.18014 0
M  V30 4068 N 398.905 4.63515 -5.14904 0
M  V30 4069 N 400.698 3.88838 -4.05908 0
M  V30 4070 H 392.849 0.57252 -2.04538 0
M  V30 4071 H 395.112 0.315184 -0.894071 0
M  V30 4072 H 394.818 1.71054 -3.073 0
M  V30 4073 H 394.692 3.14919 -2.0762 0
M  V30 4074 H 397.079 2.69947 -1.19217 0
M  V30 4075 H 397.16 1.26418 -2.22378 0
M  V30 4076 H 396.804 2.74474 -4.27348 0
M  V30 4077 H 396.734 4.17339 -3.21148 0
M  V30 4078 H 399.225 2.73167 -2.61129 0
M  V30 4079 H 399.538 5.13583 -5.77453 0
M  V30 4080 H 397.883 4.62398 -5.18857 0
M  V30 4081 H 401.074 3.32491 -3.29495 0
M  V30 4082 H 401.247 4.4214 -4.73726 0
M  V30 4083 N 394.653 0.992116 1.22453 0
M  V30 4084 C 395.902 0.662992 1.90492 0
M  V30 4085 C 396.215 -0.808407 1.78113 0
M  V30 4086 O 397.421 -1.24908 2.41061 0
M  V30 4087 C 395.877 1.1353 3.41524 0
M  V30 4088 C 395.485 2.63187 3.62542 0
M  V30 4089 C 397.229 0.880465 4.15269 0
M  V30 4090 C 395.136 3.04024 5.0727 0
M  V30 4091 H 394.066 0.244278 0.713333 0
M  V30 4092 H 396.717 1.20157 1.38688 0
M  V30 4093 H 395.099 0.52485 3.92506 0
M  V30 4094 H 396.273 3.2957 3.22056 0
M  V30 4095 H 394.588 2.86543 3.02129 0
M  V30 4096 H 397.185 1.16128 5.21937 0
M  V30 4097 H 397.528 -0.183408 4.15896 0
M  V30 4098 H 398.061 1.45307 3.70312 0
M  V30 4099 H 394.8 4.09584 5.11782 0
M  V30 4100 H 394.32 2.42343 5.48662 0
M  V30 4101 H 395.999 2.95282 5.75689 0
M  V30 4102 N 396.131 -1.37776 0.765217 0
M  V30 4103 C 397.094 -2.28686 0.153416 0
M  V30 4104 C 398.094 -1.47727 -0.635081 0
M  V30 4105 O 399.284 -1.68027 -0.459632 0
M  V30 4106 C 396.416 -3.31608 -0.790495 0
M  V30 4107 H 397.609 -2.84297 0.954723 0
M  V30 4108 H 395.162 -1.46932 0.53299 0
M  V30 4109 H 395.897 -2.81109 -1.61705 0
M  V30 4110 H 395.682 -3.9144 -0.227348 0
M  V30 4111 H 397.172 -3.99559 -1.21419 0
M  V30 4112 N 397.609 -0.515225 -1.4894 0
M  V30 4113 C 398.837 0.0206034 -2.0689 0
M  V30 4114 C 399.252 1.29514 -1.37374 0
M  V30 4115 O 398.609 1.76698 -0.456529 0
M  V30 4116 C 398.66 0.26351 -3.60538 0
M  V30 4117 O 398.381 -0.960517 -4.27441 0
M  V30 4118 C 399.882 0.841383 -4.35242 0
M  V30 4119 H 397.102 -0.0268608 -0.670462 0
M  V30 4120 H 399.646 -0.716651 -1.91532 0
M  V30 4121 H 397.801 0.950777 -3.75552 0
M  V30 4122 H 398.215 -0.73212 -5.19365 0
M  V30 4123 H 399.689 0.96085 -5.43573 0
M  V30 4124 H 400.166 1.8427 -3.98674 0
M  V30 4125 H 400.772 0.191143 -4.2487 0
M  V30 4126 N 399.087 1.5561 -0.249682 0
M  V30 4127 C 400.017 2.24477 0.642826 0
M  V30 4128 C 400.998 1.22601 1.17911 0
M  V30 4129 O 402.183 1.5126 1.21795 0
M  V30 4130 C 399.313 2.94638 1.83863 0
M  V30 4131 C 398.267 4.03227 1.435 0
M  V30 4132 C 397.593 4.60828 2.71186 0
M  V30 4133 C 398.893 5.18796 0.604002 0
M  V30 4134 H 400.587 2.99321 0.0685625 0
M  V30 4135 H 398.133 1.43965 0.0315363 0
M  V30 4136 H 400.086 3.41517 2.46868 0
M  V30 4137 H 398.81 2.17287 2.43832 0
M  V30 4138 H 397.469 3.57121 0.828275 0
M  V30 4139 H 397.117 3.80174 3.29358 0
M  V30 4140 H 396.817 5.34132 2.44901 0
M  V30 4141 H 398.341 5.10442 3.35084 0
M  V30 4142 H 399.755 5.61883 1.13842 0
M  V30 4143 H 398.152 5.98506 0.437097 0
M  V30 4144 H 399.222 4.83384 -0.383147 0
M  V30 4145 N 400.565 -0.0233959 1.57583 0
M  V30 4146 C 401.528 -1.00693 2.05897 0
M  V30 4147 C 402.528 -1.28693 0.964092 0
M  V30 4148 O 403.718 -1.23602 1.22753 0
M  V30 4149 C 400.85 -2.33825 2.4807 0
M  V30 4150 H 402.043 -0.589476 2.9405 0
M  V30 4151 H 399.596 -0.270354 1.53944 0
M  V30 4152 H 400.331 -2.80307 1.6309 0
M  V30 4153 H 400.116 -2.1483 3.2801 0
M  V30 4154 H 401.606 -3.04426 2.85857 0
M  V30 4155 N 402.043 -1.548 -0.295768 0
M  V30 4156 C 403.268 -1.78653 -1.05346 0
M  V30 4157 C 403.693 -0.546894 -1.79974 0
M  V30 4158 O 403.051 0.502763 -1.7419 0
M  V30 4159 C 403.099 -2.99679 -2.00561 0
M  V30 4160 O 402.203 -2.7317 -3.08953 0
M  V30 4161 H 401.544 -0.59116 -0.302367 0
M  V30 4162 H 404.074 -2.01895 -0.331598 0
M  V30 4163 H 404.084 -3.27793 -2.42932 0
M  V30 4164 H 402.759 -3.89562 -1.4565 0
M  V30 4165 H 401.336 -2.56089 -2.71059 0
M  V30 4166 N 403.521 0.559213 -1.47345 0
M  V30 4167 C 404.769 1.31388 -1.53563 0
M  V30 4168 C 405.09 1.93985 -0.198678 0
M  V30 4169 O 404.36 1.79825 0.777167 0
M  V30 4170 H 402.94 0.487901 -0.565652 0
M  V30 4171 H 405.602 0.65315 -1.8363 0
M  V30 4172 H 404.698 2.10844 -2.30111 0
M  V30 4173 N 404.999 1.35443 0.805782 0
M  V30 4174 C 405.929 1.31095 1.93226 0
M  V30 4175 C 406.91 0.185244 1.69088 0
M  V30 4176 O 408.095 0.380332 1.90439 0
M  V30 4177 C 405.225 1.08299 3.29983 0
M  V30 4178 C 404.179 2.17519 3.68605 0
M  V30 4179 C 403.505 1.79887 5.03532 0
M  V30 4180 C 404.805 3.5949 3.78898 0
M  V30 4181 H 406.499 2.25352 1.97122 0
M  V30 4182 H 404.045 1.0848 0.946996 0
M  V30 4183 H 405.998 1.03897 4.08391 0
M  V30 4184 H 404.722 0.104885 3.26432 0
M  V30 4185 H 403.381 2.2102 2.92482 0
M  V30 4186 H 403.029 0.80693 4.96485 0
M  V30 4187 H 402.729 2.53001 5.30344 0
M  V30 4188 H 404.253 1.77011 5.84379 0
M  V30 4189 H 405.667 3.58307 4.47536 0
M  V30 4190 H 404.064 4.31371 4.1718 0
M  V30 4191 H 405.134 3.95584 2.80431 0
M  V30 4192 N 406.477 -1.02803 1.19454 0
M  V30 4193 C 407.387 -2.14575 0.948408 0
M  V30 4194 C 408.403 -1.73757 -0.091871 0
M  V30 4195 O 409.579 -2.01185 0.0929654 0
M  V30 4196 C 406.644 -3.43202 0.491265 0
M  V30 4197 C 405.705 -3.98328 1.60103 0
M  V30 4198 C 404.938 -5.20816 1.16561 0
M  V30 4199 O 405.161 -5.70392 0.0295238 0
M  V30 4200 O 404.095 -5.68801 1.96849 0
M  V30 4201 H 407.921 -2.38202 1.88397 0
M  V30 4202 H 405.506 -1.12989 0.977433 0
M  V30 4203 H 407.388 -4.20687 0.245015 0
M  V30 4204 H 406.063 -3.21018 -0.415851 0
M  V30 4205 H 404.97 -3.22174 1.90144 0
M  V30 4206 H 406.303 -4.24879 2.48473 0
M  V30 4207 N 407.956 -0.998596 -1.21925 0
M  V30 4208 C 409.202 -0.678667 -1.91107 0
M  V30 4209 C 409.535 0.78791 -1.77498 0
M  V30 4210 O 408.81 1.57043 -1.1475 0
M  V30 4211 C 409.093 -1.09245 -3.43129 0
M  V30 4212 C 408.946 -2.61801 -3.6576 0
M  V30 4213 C 410.265 -0.649984 -4.35274 0
M  V30 4214 H 407.384 -0.248025 -0.694012 0
M  V30 4215 H 410.026 -1.24314 -1.43688 0
M  V30 4216 H 408.176 -0.612171 -3.83647 0
M  V30 4217 H 409.848 -3.17543 -3.34611 0
M  V30 4218 H 408.091 -3.03609 -3.09845 0
M  V30 4219 H 408.762 -2.85804 -4.7225 0
M  V30 4220 H 411.238 -1.0626 -4.02303 0
M  V30 4221 H 410.114 -0.967743 -5.40302 0
M  V30 4222 H 410.375 0.449139 -4.39813 0
M  V30 4223 N 409.434 1.37368 -0.772513 0
M  V30 4224 C 410.682 1.99279 -0.336516 0
M  V30 4225 C 411.003 1.6163 1.09091 0
M  V30 4226 O 410.273 0.882109 1.74916 0
M  V30 4227 H 408.853 0.737063 -0.121435 0
M  V30 4228 H 411.515 1.67836 -0.990809 0
M  V30 4229 H 410.611 3.09332 -0.414763 0
M  V30 4230 N 410.912 0.523116 1.48665 0
M  V30 4231 C 412.328 0.180511 1.58576 0
M  V30 4232 C 412.528 -1.31597 1.52592 0
M  V30 4233 O 411.584 -2.0937 1.4114 0
M  V30 4234 C 412.897 0.776949 2.90489 0
M  V30 4235 C 414.445 0.745058 3.04003 0
M  V30 4236 C 414.92 1.31995 4.38567 0
M  V30 4237 N 416.411 1.28162 4.45117 0
M  V30 4238 C 417.146 1.6964 5.47731 0
M  V30 4239 N 416.642 2.18816 6.57337 0
M  V30 4240 N 418.435 1.6092 5.38573 0
M  V30 4241 H 410.586 1.4958 1.50797 0
M  V30 4242 H 412.849 0.621772 0.715614 0
M  V30 4243 H 412.555 1.82732 3.00503 0
M  V30 4244 H 412.429 0.25007 3.7637 0
M  V30 4245 H 414.816 -0.296532 2.93606 0
M  V30 4246 H 414.897 1.30933 2.1975 0
M  V30 4247 H 414.541 2.36043 4.49718 0
M  V30 4248 H 414.471 0.731418 5.21496 0
M  V30 4249 H 416.962 0.92155 3.66491 0
M  V30 4250 H 417.275 2.48478 7.31764 0
M  V30 4251 H 415.62 2.22805 6.58318 0
M  V30 4252 H 418.811 1.22304 4.5184 0
M  V30 4253 H 418.984 1.93567 6.18414 0
M  V30 4254 N 412.39 -1.55475 0.257931 0
M  V30 4255 C 413.618 -2.03609 -0.367559 0
M  V30 4256 C 414.033 -1.13687 -1.50734 0
M  V30 4257 O 413.39 -0.153479 -1.81853 0
M  V30 4258 C 413.441 -3.51001 -0.864908 0
M  V30 4259 O 413.162 -4.37499 0.229465 0
M  V30 4260 C 414.663 -4.14946 -1.55997 0
M  V30 4261 H 411.883 -0.665459 -0.0860521 0
M  V30 4262 H 414.427 -2.00843 0.385014 0
M  V30 4263 H 412.582 -3.54266 -1.56762 0
M  V30 4264 H 412.996 -5.24286 -0.14998 0
M  V30 4265 H 414.47 -5.19735 -1.85956 0
M  V30 4266 H 414.947 -3.6209 -2.4857 0
M  V30 4267 H 415.553 -4.15635 -0.901543 0
M  V30 4268 N 413.868 0.0150385 -1.57593 0
M  V30 4269 C 415.279 0.559832 -1.78109 0
M  V30 4270 C 415.63 1.74814 -0.890756 0
M  V30 4271 O 414.755 2.16216 -0.0892482 0
M  V30 4272 C 415.35 1.02238 -3.23006 0
M  V30 4273 C 413.909 1.51258 -3.44671 0
M  V30 4274 C 413.056 0.456955 -2.73509 0
M  V30 4275 H 416.007 -0.211169 -1.57289 0
M  V30 4276 H 416.028 1.88912 -3.30292 0
M  V30 4277 H 415.54 0.157302 -3.87781 0
M  V30 4278 H 413.641 2.39905 -2.8509 0
M  V30 4279 H 413.754 1.55042 -4.5332 0
M  V30 4280 H 412.118 0.915196 -2.37689 0
M  V30 4281 H 412.901 -0.398896 -3.40975 0
M  V30 4282 N 415.346 1.54954 0.287554 0
M  V30 4283 C 416.595 1.74081 1.01877 0
M  V30 4284 C 416.908 0.541135 1.87966 0
M  V30 4285 O 418.114 0.614491 2.64455 0
M  V30 4286 C 416.57 3.08042 1.86113 0
M  V30 4287 C 416.178 4.35531 1.04961 0
M  V30 4288 C 417.922 3.36523 2.58752 0
M  V30 4289 C 415.829 5.60538 1.88551 0
M  V30 4290 H 414.759 0.64884 0.384087 0
M  V30 4291 H 417.41 1.81426 0.275101 0
M  V30 4292 H 415.792 2.94696 2.64519 0
M  V30 4293 H 416.966 4.59751 0.31074 0
M  V30 4294 H 415.281 4.14085 0.43843 0
M  V30 4295 H 417.878 4.27122 3.21668 0
M  V30 4296 H 418.221 2.56 3.28283 0
M  V30 4297 H 418.754 3.50901 1.87386 0
M  V30 4298 H 415.493 6.43767 1.23466 0
M  V30 4299 H 415.013 5.40483 2.60074 0
M  V30 4300 H 416.692 5.98297 2.46273 0
M  V30 4301 N 416.824 -0.551391 1.4764 0
M  V30 4302 C 417.787 -1.64007 1.60107 0
M  V30 4303 C 418.787 -1.53601 0.47576 0
M  V30 4304 O 419.977 -1.57655 0.740988 0
M  V30 4305 C 417.109 -3.03569 1.55108 0
M  V30 4306 H 418.302 -1.543 2.57161 0
M  V30 4307 H 415.855 -0.771776 1.35917 0
M  V30 4308 H 416.59 -3.18804 0.594519 0
M  V30 4309 H 416.375 -3.12532 2.36783 0
M  V30 4310 H 417.865 -3.82762 1.66982 0
M  V30 4311 N 418.302 -1.35869 -0.798587 0
M  V30 4312 C 419.235 -1.23801 -1.91699 0
M  V30 4313 C 420.213 -0.124143 -1.62125 0
M  V30 4314 O 421.397 -0.293656 -1.86199 0
M  V30 4315 C 418.524 -0.908063 -3.263 0
M  V30 4316 C 417.57 -2.0351 -3.74815 0
M  V30 4317 S 418.403 -3.65183 -3.91665 0
M  V30 4318 C 419.559 -3.34283 -5.29156 0
M  V30 4319 H 419.792 -2.18466 -2.01643 0
M  V30 4320 H 417.325 -1.21178 -0.956833 0
M  V30 4321 H 419.283 -0.724506 -4.04056 0
M  V30 4322 H 417.944 0.0206584 -3.14093 0
M  V30 4323 H 417.137 -1.75858 -4.72324 0
M  V30 4324 H 416.739 -2.1774 -3.04081 0
M  V30 4325 H 419.031 -2.87607 -6.13424 0
M  V30 4326 H 419.974 -4.31022 -5.61806 0
M  V30 4327 H 420.382 -2.69854 -4.95822 0
M  V30 4328 N 419.78 1.02168 -1.19998 0
M  V30 4329 C 420.69 2.14069 -0.959774 0
M  V30 4330 C 421.706 1.73804 0.082655 0
M  V30 4331 O 422.882 2.01133 -0.103633 0
M  V30 4332 C 419.947 3.42936 -0.509459 0
M  V30 4333 C 419.008 3.97474 -1.62213 0
M  V30 4334 C 418.241 5.2019 -1.19321 0
M  V30 4335 O 418.464 5.70369 -0.0597726 0
M  V30 4336 O 417.398 5.67749 -1.99863 0
M  V30 4337 H 421.224 2.37199 -1.89658 0
M  V30 4338 H 418.809 1.12469 -0.983411 0
M  V30 4339 H 420.691 4.20551 -0.267322 0
M  V30 4340 H 419.366 3.21234 0.398821 0
M  V30 4341 H 418.273 3.21161 -1.9185 0
M  V30 4342 H 419.606 4.23555 -2.50723 0
M  V30 4343 N 421.258 1.00505 1.21394 0
M  V30 4344 C 422.507 0.683159 1.89778 0
M  V30 4345 C 422.82 -0.789471 1.7896 0
M  V30 4346 O 424.026 -1.22344 2.42372 0
M  V30 4347 C 422.482 1.17146 3.40301 0
M  V30 4348 C 422.09 2.67017 3.5973 0
M  V30 4349 C 423.834 0.924461 4.14311 0
M  V30 4350 C 421.741 3.09387 5.04017 0
M  V30 4351 H 420.671 0.25183 0.710702 0
M  V30 4352 H 423.322 1.21622 1.37406 0
M  V30 4353 H 421.704 0.566451 3.91928 0
M  V30 4354 H 422.878 3.32968 3.18542 0
M  V30 4355 H 421.193 2.89732 2.99073 0
M  V30 4356 H 423.79 1.21658 5.20676 0
M  V30 4357 H 424.133 -0.139286 4.16067 0
M  V30 4358 H 424.666 1.49226 3.6875 0
M  V30 4359 H 421.405 4.14989 5.07409 0
M  V30 4360 H 420.925 2.48149 5.46061 0
M  V30 4361 H 422.604 3.01371 5.72525 0
M  V30 4362 N 422.737 -1.36956 0.779787 0
M  V30 4363 C 423.647 -2.33965 0.172491 0
M  V30 4364 C 424.663 -1.60574 -0.670222 0
M  V30 4365 O 425.839 -1.92617 -0.588263 0
M  V30 4366 C 422.904 -3.39761 -0.690173 0
M  V30 4367 C 421.965 -4.28964 0.169924 0
M  V30 4368 C 421.198 -5.29707 -0.651662 0
M  V30 4369 O 421.421 -5.38238 -1.88827 0
M  V30 4370 O 420.355 -6.01873 -0.0566264 0
M  V30 4371 H 424.181 -2.87647 0.974321 0
M  V30 4372 H 421.766 -1.39258 0.541078 0
M  V30 4373 H 423.648 -4.04471 -1.1824 0
M  V30 4374 H 422.323 -2.88394 -1.47006 0
M  V30 4375 H 421.23 -3.67326 0.708696 0
M  V30 4376 H 422.563 -4.83656 0.913085 0
M  V30 4377 N 424.215 -0.530993 -1.48385 0
M  V30 4378 C 425.165 0.251092 -2.26613 0
M  V30 4379 C 426.149 0.908977 -1.32765 0
M  V30 4380 O 427.341 0.811616 -1.57295 0
M  V30 4381 C 424.47 1.29677 -3.17866 0
M  V30 4382 C 423.556 0.643627 -4.19188 0
M  V30 4383 N 423.947 -0.271223 -5.05072 0
M  V30 4384 C 422.245 0.900711 -4.3681 0
M  V30 4385 C 422.946 -0.648109 -5.78078 0
M  V30 4386 N 421.922 -0.00895987 -5.43599 0
M  V30 4387 H 425.724 -0.452702 -2.90393 0
M  V30 4388 H 423.238 -0.349091 -1.58604 0
M  V30 4389 H 425.235 1.87079 -3.72568 0
M  V30 4390 H 423.895 2.00193 -2.55642 0
M  V30 4391 H 424.906 -0.643883 -5.13882 0
M  V30 4392 H 421.583 1.59636 -3.85775 0
M  V30 4393 H 422.973 -1.39833 -6.57188 0
M  V30 4394 N 425.693 1.55336 -0.266172 0
M  V30 4395 C 426.94 1.99397 0.353158 0
M  V30 4396 C 427.268 1.15451 1.56529 0
M  V30 4397 O 426.523 0.209974 1.9457 0
M  V30 4398 C 426.822 3.48606 0.787957 0
M  V30 4399 C 426.488 4.49773 -0.318541 0
M  V30 4400 C 425.15 4.77158 -0.62239 0
M  V30 4401 C 427.502 5.10212 -1.06459 0
M  V30 4402 C 424.83 5.62251 -1.67602 0
M  V30 4403 C 427.182 5.96449 -2.10788 0
M  V30 4404 C 425.846 6.22158 -2.41817 0
M  V30 4405 H 425.116 0.729644 0.12923 0
M  V30 4406 H 427.763 1.87732 -0.37802 0
M  V30 4407 H 426.068 3.57701 1.59866 0
M  V30 4408 H 427.765 3.80098 1.27775 0
M  V30 4409 H 424.355 4.2854 -0.0715925 0
M  V30 4410 H 428.539 4.89086 -0.843098 0
M  V30 4411 H 423.795 5.80419 -1.92155 0
M  V30 4412 H 427.969 6.42317 -2.69076 0
M  V30 4413 H 425.596 6.87888 -3.23596 0
M  V30 4414 N 427.171 -0.0066808 1.57599 0
M  V30 4415 C 428.42 -0.692078 1.89455 0
M  V30 4416 C 428.733 -1.75306 0.867586 0
M  V30 4417 O 429.939 -2.49262 1.07614 0
M  V30 4418 C 428.395 -1.2821 3.36289 0
M  V30 4419 C 428.003 -0.256291 4.47266 0
M  V30 4420 C 429.747 -1.94608 3.77264 0
M  V30 4421 C 427.654 -0.855927 5.85173 0
M  V30 4422 H 426.584 -0.262252 0.706923 0
M  V30 4423 H 429.235 0.052769 1.83424 0
M  V30 4424 H 427.617 -2.0774 3.37135 0
M  V30 4425 H 428.791 0.513923 4.57925 0
M  V30 4426 H 427.106 0.306862 4.15268 0
M  V30 4427 H 429.703 -2.40364 4.77629 0
M  V30 4428 H 430.046 -2.77382 3.10427 0
M  V30 4429 H 430.579 -1.21822 3.78688 0
M  V30 4430 H 427.318 -0.0671161 6.55466 0
M  V30 4431 H 426.838 -1.59546 5.78191 0
M  V30 4432 H 428.517 -1.35658 6.32618 0
M  V30 4433 N 428.649 -1.55105 -0.279332 0
M  V30 4434 C 429.581 -1.83952 -1.36727 0
M  V30 4435 C 430.594 -0.723642 -1.45833 0
M  V30 4436 O 431.783 -1.00141 -1.47763 0
M  V30 4437 C 428.883 -1.98183 -2.74912 0
M  V30 4438 C 428.056 -3.28787 -2.88475 0
M  V30 4439 C 427.115 -3.33162 -4.07295 0
M  V30 4440 O 426.141 -4.06576 -3.98353 0
M  V30 4441 N 427.343 -2.60109 -5.18964 0
M  V30 4442 H 430.108 -2.77853 -1.12328 0
M  V30 4443 H 427.669 -1.54945 -0.469442 0
M  V30 4444 H 429.661 -1.98488 -3.52682 0
M  V30 4445 H 428.231 -1.11177 -2.92162 0
M  V30 4446 H 427.451 -3.41075 -1.97641 0
M  V30 4447 H 428.739 -4.14933 -2.94463 0
M  V30 4448 H 428.137 -2.00136 -5.29115 0
M  V30 4449 H 426.694 -2.66143 -5.94988 0
M  V30 4450 N 430.127 0.543554 -1.4793 0
M  V30 4451 C 431.057 1.65888 -1.64327 0
M  V30 4452 C 432.038 1.62818 -0.492383 0
M  V30 4453 O 433.223 1.80226 -0.723338 0
M  V30 4454 C 430.353 3.04506 -1.67013 0
M  V30 4455 C 429.307 3.2243 -2.81466 0
M  V30 4456 C 428.633 4.61972 -2.69233 0
M  V30 4457 C 429.933 3.06496 -4.22915 0
M  V30 4458 H 431.627 1.52421 -2.57698 0
M  V30 4459 H 429.173 0.731849 -1.24016 0
M  V30 4460 H 431.126 3.82391 -1.77074 0
M  V30 4461 H 429.85 3.18964 -0.70212 0
M  V30 4462 H 428.509 2.46957 -2.70938 0
M  V30 4463 H 428.157 4.73247 -1.7043 0
M  V30 4464 H 427.857 4.74911 -3.46025 0
M  V30 4465 H 429.381 5.41974 -2.81242 0
M  V30 4466 H 430.795 3.74186 -4.34348 0
M  V30 4467 H 429.192 3.30938 -5.006 0
M  V30 4468 H 430.262 2.03077 -4.40327 0
M  V30 4469 N 431.605 1.3629 0.791371 0
M  V30 4470 C 432.854 1.29742 1.54434 0
M  V30 4471 C 433.167 -0.121729 1.95221 0
M  V30 4472 O 434.373 -0.309579 2.69729 0
M  V30 4473 C 432.829 2.27623 2.78776 0
M  V30 4474 C 432.437 3.74963 2.45166 0
M  V30 4475 C 434.181 2.30047 3.56761 0
M  V30 4476 C 432.088 4.64626 3.65891 0
M  V30 4477 H 431.018 0.482113 0.579727 0
M  V30 4478 H 433.669 1.61642 0.868565 0
M  V30 4479 H 432.051 1.88714 3.48142 0
M  V30 4480 H 433.225 4.22596 1.83709 0
M  V30 4481 H 431.54 3.75295 1.80396 0
M  V30 4482 H 434.137 2.94247 4.46456 0
M  V30 4483 H 434.48 1.30846 3.95203 0
M  V30 4484 H 435.013 2.67563 2.94372 0
M  V30 4485 H 431.752 5.64883 3.32547 0
M  V30 4486 H 431.272 4.2171 4.26521 0
M  V30 4487 H 432.951 4.80801 4.32943 0
M  V30 4488 N 433.083 -1.0153 1.20538 0
M  V30 4489 C 434.311 -1.78746 1.04199 0
M  V30 4490 C 434.726 -1.84323 -0.408733 0
M  V30 4491 O 434.083 -1.29714 -1.28377 0
M  V30 4492 C 434.134 -3.23152 1.62035 0
M  V30 4493 O 433.855 -3.17918 3.0143 0
M  V30 4494 C 435.356 -4.16911 1.50666 0
M  V30 4495 H 432.576 -0.56208 0.366479 0
M  V30 4496 H 435.12 -1.27794 1.59653 0
M  V30 4497 H 433.275 -3.71248 1.10697 0
M  V30 4498 H 433.689 -4.08567 3.28897 0
M  V30 4499 H 435.163 -5.16072 1.95892 0
M  V30 4500 H 435.64 -4.36791 0.459363 0
M  V30 4501 H 436.246 -3.74698 2.01201 0
M  V30 4502 N 434.561 -1.01147 -1.20859 0
M  V30 4503 C 435.809 -0.696486 -1.89719 0
M  V30 4504 C 436.13 0.775788 -1.78904 0
M  V30 4505 O 435.4 1.55759 -1.18811 0
M  V30 4506 H 433.98 -0.254628 -0.702263 0
M  V30 4507 H 436.642 -1.28197 -1.46804 0
M  V30 4508 H 435.738 -0.975357 -2.96468 0
M  V30 4509 N 436.039 1.36541 -0.78704 0
M  V30 4510 C 437.285 1.99599 -0.358872 0
M  V30 4511 C 437.618 1.62323 1.06606 0
M  V30 4512 O 436.893 0.876858 1.73613 0
M  V30 4513 C 437.176 3.56327 -0.519944 0
M  V30 4514 C 437.029 4.03464 -1.98839 0
M  V30 4515 C 438.348 4.4005 0.0664737 0
M  V30 4516 H 435.467 0.725107 -0.131869 0
M  V30 4517 H 438.109 1.6199 -0.992936 0
M  V30 4518 H 436.259 3.88495 0.0198321 0
M  V30 4519 H 437.931 3.81793 -2.58905 0
M  V30 4520 H 436.174 3.55092 -2.49183 0
M  V30 4521 H 436.845 5.12439 -2.05207 0
M  V30 4522 H 439.321 4.14228 -0.394267 0
M  V30 4523 H 438.197 5.48847 -0.0762682 0
M  V30 4524 H 438.458 4.26655 1.15835 0
M  V30 4525 N 437.518 0.538854 1.48102 0
M  V30 4526 C 438.481 -0.208395 2.28251 0
M  V30 4527 C 439.481 -0.859656 1.35892 0
M  V30 4528 O 440.671 -0.71834 1.58699 0
M  V30 4529 C 437.803 -1.30252 3.15035 0
M  V30 4530 H 438.996 0.495407 2.9578 0
M  V30 4531 H 436.549 0.295112 1.53489 0
M  V30 4532 H 437.284 -2.0393 2.52157 0
M  V30 4533 H 437.069 -0.840551 3.82985 0
M  V30 4534 H 438.559 -1.82787 3.75471 0
M  V30 4535 N 438.996 -1.55193 0.274407 0
M  V30 4536 C 440.242 -1.99877 -0.343086 0
M  V30 4537 C 440.575 -1.16256 -1.55558 0
M  V30 4538 O 439.85 -0.232462 -1.93106 0
M  V30 4539 C 440.133 -3.52706 -0.725965 0
M  V30 4540 C 439.986 -4.47081 0.493818 0
M  V30 4541 C 441.305 -4.11422 -1.56268 0
M  V30 4542 H 438.424 -0.726625 -0.123229 0
M  V30 4543 H 441.066 -1.86136 0.38121 0
M  V30 4544 H 439.216 -3.64546 -1.34307 0
M  V30 4545 H 440.888 -4.47186 1.13237 0
M  V30 4546 H 439.131 -4.1877 1.13201 0
M  V30 4547 H 439.802 -5.51699 0.18217 0
M  V30 4548 H 442.278 -4.02855 -1.04151 0
M  V30 4549 H 441.154 -5.18568 -1.79939 0
M  V30 4550 H 441.415 -3.61607 -2.54348 0
M  V30 4551 N 440.474 -0.00167713 -1.576 0
M  V30 4552 C 441.721 0.68282 -1.90641 0
M  V30 4553 C 442.049 1.73686 -0.875415 0
M  V30 4554 O 441.304 1.95334 0.119575 0
M  V30 4555 C 441.603 1.36189 -3.30435 0
M  V30 4556 C 441.269 0.440887 -4.48739 0
M  V30 4557 C 439.931 0.187312 -4.80835 0
M  V30 4558 C 442.283 -0.193134 -5.20842 0
M  V30 4559 C 439.611 -0.70855 -5.82406 0
M  V30 4560 C 441.963 -1.07688 -6.23367 0
M  V30 4561 C 440.627 -1.33962 -6.53919 0
M  V30 4562 H 439.897 0.249862 -0.697603 0
M  V30 4563 H 442.544 -0.0575642 -1.91413 0
M  V30 4564 H 440.849 2.17636 -3.25794 0
M  V30 4565 H 442.546 1.89759 -3.5326 0
M  V30 4566 H 439.136 0.648694 -4.23663 0
M  V30 4567 H 443.32 -0.0102445 -4.96299 0
M  V30 4568 H 438.576 -0.920097 -6.04437 0
M  V30 4569 H 442.75 -1.57451 -6.78367 0
M  V30 4570 H 440.377 -2.03549 -7.32442 0
M  V30 4571 N 441.952 1.55251 0.271103 0
M  V30 4572 C 442.882 1.9127 1.33933 0
M  V30 4573 C 443.863 0.77478 1.5143 0
M  V30 4574 O 445.048 1.03307 1.64442 0
M  V30 4575 C 442.178 2.18627 2.69851 0
M  V30 4576 C 441.132 3.34442 2.67081 0
M  V30 4577 C 440.458 3.47284 4.06569 0
M  V30 4578 C 441.758 4.70784 2.26185 0
M  V30 4579 H 443.452 2.80744 1.04035 0
M  V30 4580 H 440.998 1.35077 0.499017 0
M  V30 4581 H 442.951 2.42413 3.44694 0
M  V30 4582 H 441.675 1.25955 3.01335 0
M  V30 4583 H 440.334 3.10627 1.94695 0
M  V30 4584 H 439.982 2.52074 4.35279 0
M  V30 4585 H 439.682 4.25152 4.0561 0
M  V30 4586 H 441.206 3.73363 4.83148 0
M  V30 4587 H 442.62 4.94102 2.90751 0
M  V30 4588 H 441.017 5.51582 2.36384 0
M  V30 4589 H 442.087 4.69478 1.21319 0
M  V30 4590 N 443.43 -0.535701 1.48216 0
M  V30 4591 C 444.678 -1.28928 1.55634 0
M  V30 4592 C 444.999 -1.93645 0.229514 0
M  V30 4593 O 444.269 -1.81038 -0.74846 0
M  V30 4594 H 442.849 -0.47884 0.573342 0
M  V30 4595 H 445.511 -0.623853 1.84646 0
M  V30 4596 H 444.607 -2.07157 2.33436 0
M  V30 4597 N 444.908 -1.36708 -0.784132 0
M  V30 4598 C 446.154 -1.31426 -1.54451 0
M  V30 4599 C 446.487 0.10476 -1.93917 0
M  V30 4600 O 445.762 1.05934 -1.6312 0
M  V30 4601 C 446.045 -2.24189 -2.818 0
M  V30 4602 C 445.898 -3.74813 -2.48667 0
M  V30 4603 C 447.217 -2.15626 -3.83658 0
M  V30 4604 H 444.336 -0.478739 -0.560337 0
M  V30 4605 H 446.978 -1.67305 -0.900498 0
M  V30 4606 H 445.128 -1.93722 -3.36755 0
M  V30 4607 H 446.8 -4.15823 -1.99722 0
M  V30 4608 H 445.043 -3.93989 -1.81535 0
M  V30 4609 H 445.714 -4.35138 -3.39646 0
M  V30 4610 H 448.19 -2.42456 -3.38163 0
M  V30 4611 H 447.066 -2.82694 -4.70506 0
M  V30 4612 H 447.327 -1.14522 -4.27009 0
M  V30 4613 N 446.386 1.0089 -1.21074 0
M  V30 4614 C 447.611 1.78727 -1.05221 0
M  V30 4615 C 448.036 1.83932 0.393795 0
M  V30 4616 O 447.394 1.28004 1.28393 0
M  V30 4617 C 447.442 3.20665 -1.64944 0
M  V30 4618 O 446.546 4.02632 -0.892273 0
M  V30 4619 H 445.887 0.550973 -0.370574 0
M  V30 4620 H 448.417 1.26847 -1.60534 0
M  V30 4621 H 448.427 3.71352 -1.69002 0
M  V30 4622 H 447.102 3.16191 -2.70177 0
M  V30 4623 H 445.679 3.61207 -0.926492 0
M  V30 4624 N 447.864 1.01787 1.20321 0
M  V30 4625 C 449.111 0.707936 1.89722 0
M  V30 4626 C 449.439 -0.762535 1.78929 0
M  V30 4627 O 448.694 -1.56977 1.16861 0
M  V30 4628 C 448.993 1.09076 3.40349 0
M  V30 4629 C 448.659 2.55765 3.71342 0
M  V30 4630 C 447.321 2.95845 3.79511 0
M  V30 4631 C 449.673 3.50723 3.85542 0
M  V30 4632 C 447.001 4.2982 3.99339 0
M  V30 4633 C 449.353 4.84387 4.06881 0
M  V30 4634 C 448.017 5.24172 4.1328 0
M  V30 4635 H 447.287 0.259052 0.694243 0
M  V30 4636 H 449.934 1.27868 1.42555 0
M  V30 4637 H 448.239 0.438453 3.89339 0
M  V30 4638 H 449.936 0.828636 3.92345 0
M  V30 4639 H 446.526 2.2371 3.65584 0
M  V30 4640 H 450.71 3.20916 3.78585 0
M  V30 4641 H 445.966 4.60196 4.02529 0
M  V30 4642 H 450.14 5.57891 4.1681 0
M  V30 4643 H 447.767 6.27997 4.28396 0
M  V30 4644 N 449.342 -1.36122 0.79427 0
M  V30 4645 C 450.589 -1.99111 0.368905 0
M  V30 4646 C 450.917 -1.63032 -1.0607 0
M  V30 4647 O 450.172 -0.879303 -1.74833 0
M  V30 4648 C 450.471 -3.5409 0.48527 0
M  V30 4649 C 450.137 -4.10003 1.87638 0
M  V30 4650 C 448.799 -4.24986 2.257 0
M  V30 4651 C 451.151 -4.40423 2.78706 0
M  V30 4652 C 448.479 -4.67701 3.54221 0
M  V30 4653 C 450.831 -4.84573 4.0666 0
M  V30 4654 C 449.495 -4.97761 4.44737 0
M  V30 4655 H 448.765 -0.7286 0.134992 0
M  V30 4656 H 451.412 -1.62534 1.01267 0
M  V30 4657 H 449.717 -3.91052 -0.241984 0
M  V30 4658 H 451.414 -4.00766 0.137109 0
M  V30 4659 H 448.004 -3.98784 1.57064 0
M  V30 4660 H 452.188 -4.28412 2.50553 0
M  V30 4661 H 447.444 -4.761 3.83587 0
M  V30 4662 H 451.618 -5.07074 4.77336 0
M  V30 4663 H 449.245 -5.30618 5.44379 0
M  V30 4664 N 450.82 -0.546701 -1.47814 0
M  V30 4665 C 452.066 -0.0187684 -2.02791 0
M  V30 4666 C 452.399 1.32338 -1.42128 0
M  V30 4667 O 451.674 1.85867 -0.573023 0
M  V30 4668 C 451.957 0.0854985 -3.59998 0
M  V30 4669 C 451.81 -1.283 -4.31114 0
M  V30 4670 C 453.129 0.80412 -4.32691 0
M  V30 4671 H 450.248 -0.0082946 -0.736953 0
M  V30 4672 H 452.89 -0.706962 -1.76358 0
M  V30 4673 H 451.04 0.671609 -3.82651 0
M  V30 4674 H 452.712 -1.91151 -4.19832 0
M  V30 4675 H 450.955 -1.86049 -3.91878 0
M  V30 4676 H 451.626 -1.16287 -5.39612 0
M  V30 4677 H 454.102 0.306576 -4.14969 0
M  V30 4678 H 452.978 0.846011 -5.42341 0
M  V30 4679 H 453.239 1.85802 -4.01161 0
M  V30 4680 N 452.299 1.55045 -0.282633 0
M  V30 4681 C 453.229 2.2579 0.595066 0
M  V30 4682 C 454.21 1.25074 1.15284 0
M  V30 4683 O 455.395 1.5381 1.18559 0
M  V30 4684 C 452.525 2.98472 1.77572 0
M  V30 4685 C 451.479 4.0618 1.34914 0
M  V30 4686 C 450.805 4.66477 2.6135 0
M  V30 4687 C 452.105 5.1996 0.493821 0
M  V30 4688 H 453.799 2.994 0.00505653 0
M  V30 4689 H 451.345 1.44 0.000992001 0
M  V30 4690 H 453.298 3.46677 2.39568 0
M  V30 4691 H 452.022 2.2241 2.39168 0
M  V30 4692 H 450.681 3.58797 0.752338 0
M  V30 4693 H 450.329 3.87074 3.2122 0
M  V30 4694 H 450.029 5.39207 2.33516 0
M  V30 4695 H 451.553 5.17435 3.24181 0
M  V30 4696 H 452.967 5.64172 1.01898 0
M  V30 4697 H 451.364 5.99299 0.310047 0
M  V30 4698 H 452.434 4.82462 -0.485593 0
M  V30 4699 N 453.777 0.010035 1.57597 0
M  V30 4700 C 455.002 -0.687021 1.95691 0
M  V30 4701 C 455.427 -1.65952 0.885519 0
M  V30 4702 O 454.785 -1.80633 -0.15543 0
M  V30 4703 C 454.833 -1.3864 3.32884 0
M  V30 4704 O 453.937 -2.50115 3.27897 0
M  V30 4705 H 453.278 -0.181989 0.638573 0
M  V30 4706 H 455.808 0.0662122 2.04493 0
M  V30 4707 H 455.818 -1.74754 3.6868 0
M  V30 4708 H 454.493 -0.673411 4.10412 0
M  V30 4709 H 453.07 -2.16253 3.03791 0
M  V30 4710 N 455.255 -1.55392 -0.262866 0
M  V30 4711 C 456.185 -1.91978 -1.32917 0
M  V30 4712 C 457.166 -0.7828 -1.51017 0
M  V30 4713 O 458.351 -1.04178 -1.63892 0
M  V30 4714 C 455.481 -2.20055 -2.68687 0
M  V30 4715 C 454.435 -3.35854 -2.65304 0
M  V30 4716 C 453.761 -3.49435 -4.04721 0
M  V30 4717 C 455.061 -4.71977 -2.23685 0
M  V30 4718 H 456.755 -2.81292 -1.02544 0
M  V30 4719 H 454.301 -1.3534 -0.491846 0
M  V30 4720 H 456.254 -2.44237 -3.43404 0
M  V30 4721 H 454.978 -1.27551 -3.00663 0
M  V30 4722 H 453.637 -3.11655 -1.93045 0
M  V30 4723 H 453.285 -2.54379 -4.33936 0
M  V30 4724 H 452.985 -4.27297 -4.0335 0
M  V30 4725 H 454.509 -3.7592 -4.81161 0
M  V30 4726 H 455.923 -4.95637 -2.88127 0
M  V30 4727 H 454.32 -5.52828 -2.33456 0
M  V30 4728 H 455.39 -4.70115 -1.18827 0
M  V30 4729 N 456.733 0.527833 -1.48498 0
M  V30 4730 C 457.982 1.28003 -1.55878 0
M  V30 4731 C 458.295 1.9414 -0.238577 0
M  V30 4732 O 459.501 2.7083 -0.190643 0
M  V30 4733 C 457.957 2.32272 -2.74914 0
M  V30 4734 C 457.565 1.72196 -4.13585 0
M  V30 4735 C 459.309 3.08488 -2.91608 0
M  V30 4736 C 457.216 2.74417 -5.23879 0
M  V30 4737 H 456.146 0.481413 -0.580308 0
M  V30 4738 H 458.797 0.557195 -1.74836 0
M  V30 4739 H 457.179 3.07601 -2.49395 0
M  V30 4740 H 458.353 1.03041 -4.49132 0
M  V30 4741 H 456.668 1.08464 -4.02025 0
M  V30 4742 H 459.265 3.84879 -3.71177 0
M  V30 4743 H 459.608 3.64481 -2.01145 0
M  V30 4744 H 460.141 2.40274 -3.17038 0
M  V30 4745 H 456.88 2.23242 -6.16314 0
M  V30 4746 H 456.4 3.41893 -4.92818 0
M  V30 4747 H 458.079 3.37362 -5.52083 0
M  V30 4748 N 458.211 1.37122 0.776871 0
M  V30 4749 C 459.141 1.35164 1.90402 0
M  V30 4750 C 460.122 0.221069 1.68657 0
M  V30 4751 O 461.307 0.420642 1.8959 0
M  V30 4752 C 458.437 1.15274 3.27611 0
M  V30 4753 C 457.391 2.25289 3.63908 0
M  V30 4754 C 456.717 1.90527 4.99603 0
M  V30 4755 C 458.017 3.67446 3.71188 0
M  V30 4756 H 459.711 2.29482 1.92297 0
M  V30 4757 H 457.257 1.10465 0.923773 0
M  V30 4758 H 459.21 1.12536 4.06096 0
M  V30 4759 H 457.934 0.174102 3.26136 0
M  V30 4760 H 456.593 2.27174 2.87728 0
M  V30 4761 H 456.241 0.91206 4.94662 0
M  V30 4762 H 455.941 2.64193 5.24858 0
M  V30 4763 H 457.465 1.89367 5.80493 0
M  V30 4764 H 458.879 3.67719 4.39836 0
M  V30 4765 H 457.276 4.40123 4.07936 0
M  V30 4766 H 458.346 4.01443 2.71977 0
M  V30 4767 N 459.689 -1.00246 1.21608 0
M  V30 4768 C 460.937 -1.73717 1.0328 0
M  V30 4769 C 461.258 -1.90102 -0.434318 0
M  V30 4770 O 460.528 -1.45376 -1.31311 0
M  V30 4771 H 459.108 -0.643613 0.379172 0
M  V30 4772 H 461.77 -1.20787 1.52959 0
M  V30 4773 H 460.866 -2.73535 1.50283 0
M  V30 4774 N 461.167 -1.02423 -1.1978 0
M  V30 4775 C 462.397 -0.736387 -1.93031 0
M  V30 4776 C 462.805 0.708023 -1.75453 0
M  V30 4777 O 462.148 1.4927 -1.07071 0
M  V30 4778 C 462.21 -1.00194 -3.45255 0
M  V30 4779 C 461.874 -2.43698 -3.86601 0
M  V30 4780 C 462.871 -3.41814 -3.91738 0
M  V30 4781 C 460.556 -2.77975 -4.18372 0
M  V30 4782 C 462.55 -4.72265 -4.28071 0
M  V30 4783 C 460.237 -4.08636 -4.54378 0
M  V30 4784 C 461.235 -5.05592 -4.59201 0
M  V30 4785 O 460.923 -6.33914 -4.94376 0
M  V30 4786 H 460.655 -0.269116 -0.620123 0
M  V30 4787 H 463.209 -1.37043 -1.52998 0
M  V30 4788 H 461.439 -0.310747 -3.85449 0
M  V30 4789 H 463.128 -0.704488 -3.9974 0
M  V30 4790 H 463.894 -3.16671 -3.67348 0
M  V30 4791 H 459.773 -2.0319 -4.13805 0
M  V30 4792 H 463.317 -5.4794 -4.3175 0
M  V30 4793 H 459.214 -4.33556 -4.78226 0
M  V30 4794 H 459.982 -6.38317 -5.12341 0
M  V30 4795 N 462.645 1.35699 -0.801477 0
M  V30 4796 C 463.87 2.03687 -0.390678 0
M  V30 4797 C 464.295 1.60015 0.988778 0
M  V30 4798 O 463.653 0.774357 1.63931 0
M  V30 4799 C 463.701 3.57439 -0.476404 0
M  V30 4800 O 462.805 4.09208 0.512106 0
M  V30 4801 H 462.146 0.64344 -0.163956 0
M  V30 4802 H 464.676 1.73403 -1.08594 0
M  V30 4803 H 464.686 4.06544 -0.344357 0
M  V30 4804 H 463.361 3.88576 -1.48262 0
M  V30 4805 H 461.938 3.7134 0.340721 0
M  V30 4806 N 464.123 0.554532 1.47522 0
M  V30 4807 C 465.369 0.0377449 2.03365 0
M  V30 4808 C 465.724 -1.29654 1.42154 0
M  V30 4809 O 465.017 -1.83022 0.566865 0
M  V30 4810 C 465.211 -0.115927 3.57212 0
M  V30 4811 C 465.04 1.20191 4.33341 0
M  V30 4812 C 463.81 1.76849 4.73342 0
M  V30 4813 C 466.008 2.11849 4.68641 0
M  V30 4814 N 463.99 3.02665 5.34104 0
M  V30 4815 C 465.361 3.22245 5.29677 0
M  V30 4816 C 467.416 2.11876 4.5057 0
M  V30 4817 C 466.119 4.32763 5.74551 0
M  V30 4818 C 468.145 3.21405 4.9644 0
M  V30 4819 C 467.507 4.30519 5.57523 0
M  V30 4820 H 463.606 0.0559107 0.779999 0
M  V30 4821 H 466.19 0.741232 1.80038 0
M  V30 4822 H 464.361 -0.788533 3.80311 0
M  V30 4823 H 466.093 -0.634538 3.99695 0
M  V30 4824 H 462.848 1.30681 4.55214 0
M  V30 4825 H 463.272 3.66788 5.69031 0
M  V30 4826 H 467.914 1.28801 4.02704 0
M  V30 4827 H 465.632 5.166 6.2141 0
M  V30 4828 H 469.218 3.22509 4.8423 0
M  V30 4829 H 468.098 5.13873 5.92371 0
M  V30 4830 N 465.601 -1.54893 0.290851 0
M  V30 4831 C 466.531 -2.26103 -0.583084 0
M  V30 4832 C 467.512 -1.25684 -1.14619 0
M  V30 4833 O 468.697 -1.54436 -1.17741 0
M  V30 4834 C 465.827 -2.99409 -1.75987 0
M  V30 4835 C 464.781 -4.0689 -1.32758 0
M  V30 4836 C 464.107 -4.67856 -2.58872 0
M  V30 4837 C 465.407 -5.20215 -0.46624 0
M  V30 4838 H 467.101 -2.99398 0.0108214 0
M  V30 4839 H 464.647 -1.43998 0.00664468 0
M  V30 4840 H 466.6 -3.47943 -2.37727 0
M  V30 4841 H 465.324 -2.23675 -2.37985 0
M  V30 4842 H 463.983 -3.59191 -0.733299 0
M  V30 4843 H 463.631 -3.88772 -3.19163 0
M  V30 4844 H 463.331 -5.40438 -2.30653 0
M  V30 4845 H 464.855 -5.19147 -3.21433 0
M  V30 4846 H 466.269 -5.64704 -0.989047 0
M  V30 4847 H 464.666 -5.99455 -0.27826 0
M  V30 4848 H 465.736 -4.82198 0.511173 0
M  V30 4849 N 467.08 -0.0183926 -1.57589 0
M  V30 4850 C 467.99 0.982943 -2.13015 0
M  V30 4851 C 469.006 1.36443 -1.07979 0
M  V30 4852 O 470.182 1.44802 -1.3998 0
M  V30 4853 C 467.247 2.25024 -2.63752 0
M  V30 4854 C 466.308 1.93018 -3.83461 0
M  V30 4855 C 465.541 3.13706 -4.31769 0
M  V30 4856 O 465.764 4.2601 -3.79305 0
M  V30 4857 O 464.698 2.96629 -5.23732 0
M  V30 4858 H 468.524 0.541709 -2.9883 0
M  V30 4859 H 466.109 0.201565 -1.48034 0
M  V30 4860 H 467.991 2.99441 -2.96502 0
M  V30 4861 H 466.666 2.68349 -1.81026 0
M  V30 4862 H 465.573 1.16019 -3.55655 0
M  V30 4863 H 466.906 1.54516 -4.67317 0
M  V30 4864 N 468.558 1.5553 0.254621 0
M  V30 4865 C 469.521 1.88872 1.29846 0
M  V30 4866 C 470.521 0.764591 1.41459 0
M  V30 4867 O 471.711 1.03265 1.40293 0
M  V30 4868 C 468.843 2.11032 2.67728 0
M  V30 4869 H 470.036 2.82201 1.01502 0
M  V30 4870 H 467.589 1.48303 0.493556 0
M  V30 4871 H 468.324 1.20146 3.01223 0
M  V30 4872 H 468.109 2.92895 2.60682 0
M  V30 4873 H 469.599 2.38038 3.43115 0
M  V30 4874 N 470.036 -0.519951 1.48776 0
M  V30 4875 C 471.282 -1.27711 1.57536 0
M  V30 4876 C 471.615 -1.92547 0.252866 0
M  V30 4877 O 470.89 -1.7979 -0.742021 0
M  V30 4878 C 471.173 -2.35875 2.72094 0
M  V30 4879 C 471.026 -1.75664 4.1408 0
M  V30 4880 C 472.345 -3.37575 2.82367 0
M  V30 4881 H 469.464 -0.462971 0.573434 0
M  V30 4882 H 472.106 -0.578194 1.80989 0
M  V30 4883 H 470.256 -2.95488 2.52228 0
M  V30 4884 H 471.928 -1.20025 4.45412 0
M  V30 4885 H 470.171 -1.06154 4.20611 0
M  V30 4886 H 470.842 -2.54029 4.90075 0
M  V30 4887 H 473.318 -2.87929 3.00393 0
M  V30 4888 H 472.194 -4.1064 3.64233 0
M  V30 4889 H 472.455 -3.98743 1.90936 0
M  V30 4890 N 471.514 -1.37532 -0.769588 0
M  V30 4891 C 472.763 -1.32183 -1.5235 0
M  V30 4892 C 473.076 0.0906555 -1.9539 0
M  V30 4893 O 474.282 0.266628 -2.70188 0
M  V30 4894 C 472.738 -2.32029 -2.75119 0
M  V30 4895 C 472.346 -3.78816 -2.3917 0
M  V30 4896 C 474.09 -2.35694 -3.53056 0
M  V30 4897 C 471.997 -4.70388 -3.58453 0
M  V30 4898 H 470.927 -0.491275 -0.571984 0
M  V30 4899 H 473.578 -1.63004 -0.842739 0
M  V30 4900 H 471.96 -1.94229 -3.45096 0
M  V30 4901 H 473.134 -4.25466 -1.76962 0
M  V30 4902 H 471.449 -3.78117 -1.74402 0
M  V30 4903 H 474.046 -3.01312 -4.41718 0
M  V30 4904 H 474.389 -1.37117 -3.93071 0
M  V30 4905 H 474.922 -2.72212 -2.90078 0
M  V30 4906 H 471.661 -5.70102 -3.23518 0
M  V30 4907 H 471.181 -4.28442 -4.19758 0
M  V30 4908 H 472.86 -4.87628 -4.25239 0
M  V30 4909 N 472.992 0.995999 -1.22138 0
M  V30 4910 C 474.239 1.7351 -1.04406 0
M  V30 4911 C 474.567 1.89884 0.421244 0
M  V30 4912 O 473.822 1.43683 1.32867 0
M  V30 4913 C 474.121 3.14553 -1.6968 0
M  V30 4914 C 473.787 3.18102 -3.19565 0
M  V30 4915 C 472.449 3.18778 -3.60464 0
M  V30 4916 C 474.801 3.14636 -4.15516 0
M  V30 4917 C 472.129 3.13684 -4.95801 0
M  V30 4918 C 474.481 3.11084 -5.50826 0
M  V30 4919 C 473.145 3.10074 -5.91109 0
M  V30 4920 H 472.415 0.634916 -0.38205 0
M  V30 4921 H 475.062 1.1667 -1.51857 0
M  V30 4922 H 473.367 3.74682 -1.14546 0
M  V30 4923 H 475.064 3.70477 -1.53454 0
M  V30 4924 H 471.654 3.18324 -2.86998 0
M  V30 4925 H 475.838 3.13266 -3.84939 0
M  V30 4926 H 471.094 3.11245 -5.26247 0
M  V30 4927 H 475.268 3.07357 -6.24904 0
M  V30 4928 H 472.895 3.05882 -6.95946 0
M  V30 4929 N 474.47 1.03057 1.19235 0
M  V30 4930 C 475.4 0.633497 2.24742 0
M  V30 4931 C 476.381 -0.358335 1.66283 0
M  V30 4932 O 477.566 -0.240676 1.92703 0
M  V30 4933 C 474.696 -0.0147648 3.47297 0
M  V30 4934 C 473.65 0.899527 4.18441 0
M  V30 4935 C 472.976 0.116281 5.34574 0
M  V30 4936 C 474.276 2.21404 4.73051 0
M  V30 4937 H 475.97 1.5155 2.58211 0
M  V30 4938 H 473.516 0.73014 1.24117 0
M  V30 4939 H 475.469 -0.304202 4.20301 0
M  V30 4940 H 474.193 -0.931577 3.13032 0
M  V30 4941 H 472.852 1.17319 3.47321 0
M  V30 4942 H 472.5 -0.802619 4.96555 0
M  V30 4943 H 472.2 0.725293 5.83107 0
M  V30 4944 H 473.724 -0.166376 6.10373 0
M  V30 4945 H 475.138 1.98601 5.37802 0
M  V30 4946 H 473.535 2.77512 5.32078 0
M  V30 4947 H 474.605 2.86752 3.91026 0
M  V30 4948 N 475.948 -1.35272 0.808662 0
M  V30 4949 C 477.197 -1.97963 0.386483 0
M  V30 4950 C 477.51 -1.64866 -1.05255 0
M  V30 4951 O 478.716 -2.20937 -1.57794 0
M  V30 4952 C 477.172 -3.54162 0.640096 0
M  V30 4953 C 476.78 -3.96166 2.0918 0
M  V30 4954 C 478.524 -4.23553 0.283376 0
M  V30 4955 C 476.431 -5.4522 2.29106 0
M  V30 4956 H 475.361 -0.740742 0.140774 0
M  V30 4957 H 478.012 -1.5431 0.993012 0
M  V30 4958 H 476.394 -3.95983 -0.0364117 0
M  V30 4959 H 477.568 -3.65491 2.80629 0
M  V30 4960 H 475.883 -3.3967 2.40859 0
M  V30 4961 H 478.48 -5.33124 0.410273 0
M  V30 4962 H 478.823 -4.09105 -0.770659 0
M  V30 4963 H 479.356 -3.8716 0.913884 0
M  V30 4964 H 476.095 -5.64638 3.32962 0
M  V30 4965 H 475.615 -5.77457 1.62184 0
M  V30 4966 H 477.294 -6.1171 2.1076 0
M  V30 4967 N 477.426 -0.562348 -1.47226 0
M  V30 4968 C 478.674 -0.0401371 -2.0206 0
M  V30 4969 C 478.995 1.3165 -1.43852 0
M  V30 4970 O 478.265 1.85976 -0.615599 0
M  V30 4971 H 476.845 -0.0118479 -0.746906 0
M  V30 4972 H 479.507 -0.73352 -1.8057 0
M  V30 4973 H 478.603 0.0441254 -3.12069 0
M  V30 4974 N 478.904 1.54736 -0.299062 0
M  V30 4975 C 480.153 1.99279 0.311549 0
M  V30 4976 C 480.466 1.19107 1.55154 0
M  V30 4977 O 481.672 1.53908 2.23662 0
M  V30 4978 C 480.128 3.54768 0.605632 0
M  V30 4979 C 479.736 4.43746 -0.615914 0
M  V30 4980 C 481.48 4.07841 1.17754 0
M  V30 4981 C 479.387 5.90663 -0.29509 0
M  V30 4982 H 478.317 0.744359 0.120187 0
M  V30 4983 H 480.968 1.78919 -0.407464 0
M  V30 4984 H 479.35 3.71021 1.38419 0
M  V30 4985 H 480.524 4.39267 -1.39218 0
M  V30 4986 H 478.839 4.01434 -1.10633 0
M  V30 4987 H 481.436 5.15174 1.43179 0
M  V30 4988 H 481.779 3.58324 2.11918 0
M  V30 4989 H 482.312 3.95123 0.460739 0
M  V30 4990 H 479.051 6.44325 -1.20524 0
M  V30 4991 H 478.571 5.98155 0.44394 0
M  V30 4992 H 480.25 6.46916 0.104048 0
M  V30 4993 N 480.382 0.0267497 1.57577 0
M  V30 4994 C 481.631 -0.651736 1.9088 0
M  V30 4995 C 481.944 -1.73427 0.904576 0
M  V30 4996 O 483.15 -2.46923 1.12877 0
M  V30 4997 C 481.606 -1.21048 3.38933 0
M  V30 4998 C 481.214 -0.161362 4.47709 0
M  V30 4999 C 482.958 -1.86562 3.81307 0
M  V30 5000 C 480.865 -0.731611 5.86857 0
M  V30 5001 H 479.795 -0.247198 0.712326 0
M  V30 5002 H 482.446 0.0916641 1.83271 0
M  V30 5003 H 480.828 -2.00542 3.41466 0
M  V30 5004 H 482.002 0.61094 4.56732 0
M  V30 5005 H 480.317 0.394877 4.14523 0
M  V30 5006 H 482.914 -2.30178 4.8262 0
M  V30 5007 H 483.257 -2.70735 3.16241 0
M  V30 5008 H 483.79 -1.13762 3.81186 0
M  V30 5009 H 480.529 0.0719329 6.55461 0
M  V30 5010 H 480.049 -1.47245 5.81445 0
M  V30 5011 H 481.728 -1.22208 6.35354 0
M  V30 5012 N 481.861 -1.55662 -0.24637 0
M  V30 5013 C 483.107 -1.77782 -0.975779 0
M  V30 5014 C 483.44 -0.592103 -1.84953 0
M  V30 5015 O 482.715 0.409588 -1.90138 0
M  V30 5016 C 482.998 -3.09788 -1.83584 0
M  V30 5017 C 482.851 -4.38764 -0.990241 0
M  V30 5018 C 484.17 -3.38029 -2.81823 0
M  V30 5019 H 481.289 -0.646789 -0.353317 0
M  V30 5020 H 483.931 -1.88398 -0.246248 0
M  V30 5021 H 482.081 -3.00869 -2.45784 0
M  V30 5022 H 483.753 -4.59675 -0.386897 0
M  V30 5023 H 481.996 -4.32798 -0.294626 0
M  V30 5024 H 482.667 -5.27514 -1.62584 0
M  V30 5025 H 485.143 -3.46915 -2.2976 0
M  V30 5026 H 484.019 -4.3161 -3.39122 0
M  V30 5027 H 484.28 -2.58968 -3.58313 0
M  V30 5028 N 483.339 0.512053 -1.4905 0
M  V30 5029 C 484.302 1.59704 -1.64399 0
M  V30 5030 C 485.302 1.52285 -0.516317 0
M  V30 5031 O 486.492 1.55635 -0.782527 0
M  V30 5032 C 483.624 2.9935 -1.63102 0
M  V30 5033 H 484.817 1.47428 -2.61161 0
M  V30 5034 H 482.37 0.735469 -1.37915 0
M  V30 5035 H 483.105 3.17116 -0.678836 0
M  V30 5036 H 482.89 3.06144 -2.44986 0
M  V30 5037 H 484.38 3.782 -1.77072 0
M  V30 5038 N 484.817 1.37938 0.762283 0
M  V30 5039 C 485.765 1.34569 1.89721 0
M  V30 5040 C 486.759 0.232929 1.67791 0
M  V30 5041 O 487.965 0.401485 1.75465 0
M  V30 5042 H 484.34 0.419594 0.624055 0
M  V30 5043 H 486.311 2.30357 1.8968 0
M  V30 5044 C 485.06 1.17898 3.27101 0
M  V30 5045 H 484.383 2.02781 3.44558 0
M  V30 5046 H 485.823 1.19593 4.06784 0
M  V30 5047 C 484.282 -0.114728 3.36705 0
M  V30 5048 O 484.812 -1.0949 3.8649 0
M  V30 5049 N 483.018 -0.16863 2.9011 0
M  V30 5050 H 482.565 0.62967 2.49786 0
M  V30 5051 H 482.523 -1.03383 2.96916 0
M  V30 5052 N 486.295 -0.989507 1.22664 0
M  V30 5053 C 487.541 -1.7321 1.05481 0
M  V30 5054 C 487.874 -1.89852 -0.408635 0
M  V30 5055 O 487.149 -1.44416 -1.30285 0
M  V30 5056 C 487.432 -3.1357 1.77047 0
M  V30 5057 C 487.285 -3.04555 3.31008 0
M  V30 5058 C 488.604 -4.12812 1.5256 0
M  V30 5059 H 485.723 -0.628697 0.384589 0
M  V30 5060 H 488.365 -1.15258 1.51049 0
M  V30 5061 H 486.515 -3.63046 1.3831 0
M  V30 5062 H 488.187 -2.62674 3.7921 0
M  V30 5063 H 486.43 -2.41278 3.6051 0
M  V30 5064 H 487.101 -4.03894 3.76263 0
M  V30 5065 H 489.577 -3.72106 1.86215 0
M  V30 5066 H 488.453 -5.09132 2.05124 0
M  V30 5067 H 488.714 -4.39711 0.458936 0
M  V30 5068 N 487.773 -1.03688 -1.18687 0
M  V30 5069 C 489.184 -0.766488 -1.70241 0
M  V30 5070 C 489.535 0.713052 -1.82784 0
M  V30 5071 O 488.66 1.55529 -1.50465 0
M  V30 5072 C 489.255 -1.38475 -3.09209 0
M  V30 5073 C 487.814 -1.16276 -3.5799 0
M  V30 5074 C 486.961 -1.4778 -2.34641 0
M  V30 5075 H 489.912 -1.20378 -1.03415 0
M  V30 5076 H 489.933 -0.785939 -3.72295 0
M  V30 5077 H 489.445 -2.46157 -3.00048 0
M  V30 5078 H 487.546 -0.104508 -3.72453 0
M  V30 5079 H 487.659 -1.8571 -4.41643 0
M  V30 5080 H 486.023 -0.897366 -2.38368 0
M  V30 5081 H 486.806 -2.56562 -2.28102 0
M  V30 5082 N 489.251 1.34841 -0.815825 0
M  V30 5083 C 490.161 2.33425 -0.234462 0
M  V30 5084 C 491.177 1.62295 0.627413 0
M  V30 5085 O 492.353 1.94109 0.536987 0
M  V30 5086 C 489.418 3.41471 0.599849 0
M  V30 5087 C 488.479 4.28362 -0.283596 0
M  V30 5088 C 487.712 5.31248 0.51099 0
M  V30 5089 O 487.935 5.43056 1.7449 0
M  V30 5090 O 486.869 6.01812 -0.10297 0
M  V30 5091 H 490.695 2.84962 -1.05024 0
M  V30 5092 H 488.28 1.37774 -0.577809 0
M  V30 5093 H 490.162 4.07464 1.07475 0
M  V30 5094 H 488.837 2.9219 1.39308 0
M  V30 5095 H 487.744 3.65318 -0.805836 0
M  V30 5096 H 489.077 4.81066 -1.041 0
M  V30 5097 N 490.729 0.570148 1.46925 0
M  V30 5098 C 491.977 0.0508523 2.02036 0
M  V30 5099 C 492.298 -1.30885 1.44548 0
M  V30 5100 O 491.568 -1.85647 0.625453 0
M  V30 5101 H 490.148 0.0158088 0.746833 0
M  V30 5102 H 492.81 0.743086 1.80178 0
M  V30 5103 H 491.906 -0.027575 3.12088 0
M  V30 5104 N 492.207 -1.54576 0.307264 0
M  V30 5105 C 493.137 -2.26708 -0.55907 0
M  V30 5106 C 494.118 -1.26893 -1.1328 0
M  V30 5107 O 495.303 -1.55677 -1.16097 0
M  V30 5108 C 492.433 -3.01259 -1.72801 0
M  V30 5109 C 491.387 -4.08275 -1.28435 0
M  V30 5110 C 490.713 -4.70575 -2.53895 0
M  V30 5111 C 492.013 -5.2068 -0.411038 0
M  V30 5112 H 493.707 -2.9937 0.042576 0
M  V30 5113 H 491.253 -1.43983 0.0219173 0
M  V30 5114 H 493.206 -3.50444 -2.34023 0
M  V30 5115 H 491.93 -2.26187 -2.356 0
M  V30 5116 H 490.589 -3.59949 -0.695161 0
M  V30 5117 H 490.237 -3.92136 -3.15021 0
M  V30 5118 H 489.937 -5.42854 -2.24908 0
M  V30 5119 H 491.461 -5.22527 -3.15908 0
M  V30 5120 H 492.875 -5.65721 -0.929097 0
M  V30 5121 H 491.272 -5.99716 -0.214664 0
M  V30 5122 H 492.342 -4.81629 0.562287 0
M  V30 5123 N 493.685 -0.035106 -1.57561 0
M  V30 5124 C 494.615 0.942993 -2.13612 0
M  V30 5125 C 495.596 1.33531 -1.05373 0
M  V30 5126 O 496.781 1.41287 -1.33235 0
M  V30 5127 C 493.911 2.22332 -2.66807 0
M  V30 5128 C 492.865 1.97156 -3.79886 0
M  V30 5129 C 492.191 3.31506 -4.19533 0
M  V30 5130 C 493.491 1.30596 -5.05709 0
M  V30 5131 H 495.185 0.476179 -2.95589 0
M  V30 5132 H 492.731 0.227602 -1.4219 0
M  V30 5133 H 494.684 2.91142 -3.04654 0
M  V30 5134 H 493.408 2.7119 -1.81999 0
M  V30 5135 H 492.067 1.30763 -3.42486 0
M  V30 5136 H 491.715 3.78134 -3.31698 0
M  V30 5137 H 491.415 3.15465 -4.95738 0
M  V30 5138 H 492.939 4.01574 -4.59968 0
M  V30 5139 H 494.353 1.89416 -5.41105 0
M  V30 5140 H 492.75 1.24934 -5.86951 0
M  V30 5141 H 493.82 0.279742 -4.84092 0
M  V30 5142 N 495.163 1.55791 0.238111 0
M  V30 5143 C 496.126 1.90239 1.27835 0
M  V30 5144 C 497.126 0.779552 1.4064 0
M  V30 5145 O 498.316 1.04747 1.3919 0
M  V30 5146 C 495.448 2.13859 2.65475 0
M  V30 5147 H 496.641 2.83262 0.985034 0
M  V30 5148 H 494.194 1.48818 0.477799 0
M  V30 5149 H 494.929 1.23334 2.99932 0
M  V30 5150 H 494.714 2.95643 2.57561 0
M  V30 5151 H 496.204 2.41664 3.40571 0
M  V30 5152 N 496.642 -0.504142 1.49319 0
M  V30 5153 C 497.87 -1.28256 1.62351 0
M  V30 5154 C 498.285 -1.86502 0.293682 0
M  V30 5155 O 497.642 -1.67678 -0.720449 0
M  V30 5156 C 497.693 -2.41507 2.68992 0
M  V30 5157 O 497.414 -1.85656 3.96817 0
M  V30 5158 C 498.915 -3.32929 2.927 0
M  V30 5159 H 496.135 -0.389115 0.546654 0
M  V30 5160 H 498.679 -0.605531 1.95329 0
M  V30 5161 H 496.834 -3.05046 2.38801 0
M  V30 5162 H 497.248 -2.59981 4.55533 0
M  V30 5163 H 498.722 -4.0868 3.71058 0
M  V30 5164 H 499.199 -3.89733 2.02496 0
M  V30 5165 H 499.805 -2.75158 3.24296 0
M  V30 5166 N 498.12 -1.38341 -0.754957 0
M  V30 5167 C 499.366 -1.34672 -1.51628 0
M  V30 5168 C 499.699 0.0636036 -1.94096 0
M  V30 5169 O 498.974 1.0245 -1.6533 0
M  V30 5170 C 499.257 -2.30116 -2.76981 0
M  V30 5171 C 499.11 -3.80003 -2.4066 0
M  V30 5172 C 500.429 -2.23715 -3.78998 0
M  V30 5173 H 497.548 -0.490517 -0.550056 0
M  V30 5174 H 500.19 -1.69178 -0.864807 0
M  V30 5175 H 498.34 -2.00821 -3.3257 0
M  V30 5176 H 500.012 -4.19966 -1.90856 0
M  V30 5177 H 498.255 -3.97751 -1.73137 0
M  V30 5178 H 498.926 -4.42244 -3.30339 0
M  V30 5179 H 501.402 -2.49574 -3.32945 0
M  V30 5180 H 500.278 -2.9261 -4.64403 0
M  V30 5181 H 500.539 -1.23554 -4.24484 0
M  V30 5182 N 499.598 0.982988 -1.23187 0
M  V30 5183 C 500.826 1.75921 -1.08901 0
M  V30 5184 C 501.241 1.85341 0.359719 0
M  V30 5185 O 500.598 1.33072 1.24892 0
M  V30 5186 C 500.649 3.18742 -1.70545 0
M  V30 5187 O 500.37 3.09814 -3.09753 0
M  V30 5188 C 501.871 4.1277 -1.61667 0
M  V30 5189 H 499.091 0.552166 -0.381252 0
M  V30 5190 H 501.635 1.23516 -1.62985 0
M  V30 5191 H 499.79 3.68182 -1.20501 0
M  V30 5192 H 500.204 3.99703 -3.39614 0
M  V30 5193 H 501.678 5.10697 -2.09506 0
M  V30 5194 H 502.155 4.3542 -0.575009 0
M  V30 5195 H 502.761 3.69232 -2.11064 0
M  V30 5196 N 501.076 1.04316 1.18135 0
M  V30 5197 C 502.322 0.749128 1.88457 0
M  V30 5198 C 502.655 -0.72149 1.803 0
M  V30 5199 O 501.93 -1.52676 1.205 0
M  V30 5200 C 502.213 1.21905 3.38838 0
M  V30 5201 C 502.066 2.75195 3.55792 0
M  V30 5202 C 503.385 0.811085 4.32561 0
M  V30 5203 H 500.504 0.273611 0.684329 0
M  V30 5204 H 503.146 1.29561 1.38975 0
M  V30 5205 H 501.296 0.754137 3.8111 0
M  V30 5206 H 502.968 3.29743 3.22595 0
M  V30 5207 H 501.211 3.14899 2.98364 0
M  V30 5208 H 501.882 3.03135 4.61317 0
M  V30 5209 H 504.358 1.21118 3.98082 0
M  V30 5210 H 503.234 1.16761 5.36338 0
M  V30 5211 H 503.495 -0.285596 4.41177 0
M  V30 5212 N 502.554 -1.34406 0.822964 0
M  V30 5213 C 503.794 -2.00103 0.416915 0
M  V30 5214 C 504.158 -1.63826 -1.00125 0
M  V30 5215 O 505.359 -2.22367 -1.51018 0
M  V30 5216 C 503.63 -3.52101 0.613151 0
M  V30 5217 S 505.189 -4.37774 0.299956 0
M  V30 5218 H 502.007 -0.69333 0.157527 0
M  V30 5219 H 504.609 -1.63698 1.06879 0
M  V30 5220 H 503.313 -3.75991 1.64496 0
M  V30 5221 H 502.844 -3.93364 -0.0534554 0
M  V30 5222 H 504.859 -4.8822 -0.886336 0
M  V30 5223 N 504.032 -0.577932 -1.46621 0
M  V30 5224 C 504.962 0.145917 -2.33044 0
M  V30 5225 C 505.943 0.888412 -1.45056 0
M  V30 5226 O 507.128 0.864812 -1.73881 0
M  V30 5227 C 504.258 1.16322 -3.27241 0
M  V30 5228 C 503.212 0.535868 -4.24632 0
M  V30 5229 C 502.538 1.65929 -5.08303 0
M  V30 5230 C 503.838 -0.523861 -5.19666 0
M  V30 5231 H 505.532 -0.575636 -2.93814 0
M  V30 5232 H 503.078 -0.278272 -1.41286 0
M  V30 5233 H 505.031 1.67793 -3.86553 0
M  V30 5234 H 503.755 1.91498 -2.64567 0
M  V30 5235 H 502.414 0.0422759 -3.66576 0
M  V30 5236 H 502.062 2.40061 -4.42018 0
M  V30 5237 H 501.762 1.2452 -5.74255 0
M  V30 5238 H 503.286 2.17686 -5.70478 0
M  V30 5239 H 504.7 -0.0944059 -5.73222 0
M  V30 5240 H 503.097 -0.858 -5.93935 0
M  V30 5241 H 504.167 -1.41197 -4.63887 0
M  V30 5242 N 505.51 1.54411 -0.315457 0
M  V30 5243 C 506.738 2.04833 0.291738 0
M  V30 5244 C 507.153 1.19203 1.46411 0
M  V30 5245 O 506.51 0.220867 1.81159 0
M  V30 5246 C 506.561 3.53969 0.73404 0
M  V30 5247 O 506.282 4.36346 -0.391682 0
M  V30 5248 C 507.783 4.2045 1.40489 0
M  V30 5249 H 505.003 0.668195 0.0612947 0
M  V30 5250 H 507.547 1.99276 -0.45929 0
M  V30 5251 H 505.702 3.5984 1.43506 0
M  V30 5252 H 506.116 5.24481 -0.0447088 0
M  V30 5253 H 507.59 5.26278 1.66539 0
M  V30 5254 H 508.067 3.71067 2.3496 0
M  V30 5255 H 508.673 4.18694 0.746662 0
M  V30 5256 N 506.988 0.0434614 1.5754 0
M  V30 5257 C 507.918 -0.931651 2.14109 0
M  V30 5258 C 508.899 -1.32971 1.06079 0
M  V30 5259 O 510.084 -1.40579 1.33982 0
M  V30 5260 C 507.214 -2.20914 2.67982 0
M  V30 5261 C 506.168 -1.95139 3.80926 0
M  V30 5262 C 505.494 -3.29276 4.21285 0
M  V30 5263 C 506.794 -1.27913 5.06395 0
M  V30 5264 H 508.488 -0.460497 2.95837 0
M  V30 5265 H 506.034 -0.220058 1.42309 0
M  V30 5266 H 507.987 -2.89522 3.06194 0
M  V30 5267 H 506.711 -2.70221 1.83434 0
M  V30 5268 H 505.37 -1.28945 3.43175 0
M  V30 5269 H 505.018 -3.76369 3.33699 0
M  V30 5270 H 504.718 -3.12831 4.97404 0
M  V30 5271 H 506.242 -3.99129 4.62091 0
M  V30 5272 H 507.656 -1.86544 5.42102 0
M  V30 5273 H 506.053 -1.2182 5.87605 0
M  V30 5274 H 507.123 -0.254066 4.84234 0
M  V30 5275 N 508.466 -1.55915 -0.229846 0
M  V30 5276 C 509.694 -1.82617 -0.972562 0
M  V30 5277 C 510.109 -0.621488 -1.78278 0
M  V30 5278 O 509.466 0.409956 -1.77836 0
M  V30 5279 C 509.517 -3.0774 -1.89679 0
M  V30 5280 O 509.238 -4.23559 -1.11934 0
M  V30 5281 C 510.739 -3.47368 -2.75409 0
M  V30 5282 H 507.959 -0.60727 -0.285419 0
M  V30 5283 H 510.503 -2.02996 -0.247579 0
M  V30 5284 H 508.658 -2.89361 -2.57583 0
M  V30 5285 H 509.072 -4.94586 -1.74599 0
M  V30 5286 H 510.546 -4.37977 -3.35977 0
M  V30 5287 H 511.023 -2.68737 -3.47386 0
M  V30 5288 H 511.629 -3.68158 -2.12931 0
M  V30 5289 N 509.944 0.496216 -1.49584 0
M  V30 5290 C 510.907 1.57952 -1.66084 0
M  V30 5291 C 511.907 1.51729 -0.53244 0
M  V30 5292 O 513.097 1.54796 -0.79899 0
M  V30 5293 C 510.229 2.97604 -1.66268 0
M  V30 5294 H 511.422 1.44649 -2.6271 0
M  V30 5295 H 508.975 0.7208 -1.38687 0
M  V30 5296 H 509.71 3.16378 -0.712432 0
M  V30 5297 H 509.495 3.03528 -2.4822 0
M  V30 5298 H 510.985 3.76301 -1.81073 0
M  V30 5299 N 511.423 1.38739 0.74761 0
M  V30 5300 C 512.37 1.36449 1.86146 0
M  V30 5301 C 513.34 0.226098 1.64554 0
M  V30 5302 O 514.525 0.41926 1.86137 0
M  V30 5303 C 511.665 1.2013 3.23516 0
M  V30 5304 C 510.778 2.43407 3.56899 0
M  V30 5305 C 509.913 2.19773 4.83605 0
M  V30 5306 C 508.952 3.3879 5.09792 0
M  V30 5307 N 508.089 3.14553 6.27695 0
M  V30 5308 H 512.929 2.3167 1.87438 0
M  V30 5309 H 510.466 1.15094 0.916063 0
M  V30 5310 H 512.424 1.08683 4.02795 0
M  V30 5311 H 511.054 0.285453 3.21535 0
M  V30 5312 H 510.106 2.65504 2.72418 0
M  V30 5313 H 511.418 3.32094 3.72176 0
M  V30 5314 H 510.572 2.05496 5.70838 0
M  V30 5315 H 509.311 1.28461 4.70478 0
M  V30 5316 H 508.316 3.53579 4.21025 0
M  V30 5317 H 509.541 4.30986 5.24812 0
M  V30 5318 H 507.487 2.25893 6.1588 0
M  V30 5319 H 507.404 3.96791 6.435 0
M  V30 5320 H 508.672 3.03943 7.17801 0
M  V30 5321 N 512.901 -0.976442 1.23707 0
M  V30 5322 C 514.317 -1.24341 1.00058 0
M  V30 5323 C 514.517 -1.99315 -0.295932 0
M  V30 5324 O 513.573 -2.3123 -1.01435 0
M  V30 5325 C 514.886 -2.03909 2.21001 0
M  V30 5326 C 516.434 -2.17034 2.25534 0
M  V30 5327 C 516.909 -2.99994 3.46075 0
M  V30 5328 N 518.4 -3.07578 3.46338 0
M  V30 5329 C 519.135 -3.72104 4.36264 0
M  V30 5330 N 518.631 -4.3842 5.36432 0
M  V30 5331 N 520.424 -3.69029 4.23998 0
M  V30 5332 H 512.575 -0.47428 2.07037 0
M  V30 5333 H 514.838 -0.272167 0.908091 0
M  V30 5334 H 514.544 -1.56198 3.15111 0
M  V30 5335 H 514.418 -3.04654 2.22409 0
M  V30 5336 H 516.805 -2.63951 1.31961 0
M  V30 5337 H 516.886 -1.15664 2.28156 0
M  V30 5338 H 516.53 -2.53772 4.39957 0
M  V30 5339 H 516.46 -4.01541 3.40694 0
M  V30 5340 H 518.951 -2.60397 2.73865 0
M  V30 5341 H 519.264 -4.85447 6.013 0
M  V30 5342 H 517.609 -4.37116 5.40328 0
M  V30 5343 H 520.8 -3.16392 3.44984 0
M  V30 5344 H 520.973 -4.19034 4.94282 0
M  V30 5345 N 514.379 -1.04941 -1.1758 0
M  V30 5346 C 515.312 -0.592518 -2.20373 0
M  V30 5347 C 516.29 0.377561 -1.58156 0
M  V30 5348 O 517.474 0.28978 -1.86259 0
M  V30 5349 C 514.601 0.133215 -3.38438 0
M  V30 5350 C 513.647 -0.791484 -4.19092 0
M  V30 5351 S 514.48 -2.27925 -4.84572 0
M  V30 5352 C 515.636 -1.56462 -6.06028 0
M  V30 5353 H 515.869 -1.46342 -2.58788 0
M  V30 5354 H 513.402 -0.861148 -1.28155 0
M  V30 5355 H 515.36 0.545746 -4.06856 0
M  V30 5356 H 514.021 0.980124 -2.98416 0
M  V30 5357 H 513.214 -0.230039 -5.03475 0
M  V30 5358 H 512.816 -1.14326 -3.56098 0
M  V30 5359 H 515.108 -0.862539 -6.71987 0
M  V30 5360 H 516.051 -2.38583 -6.66696 0
M  V30 5361 H 516.459 -1.05313 -5.5459 0
M  V30 5362 N 515.857 1.33968 -0.830081 0
M  V30 5363 C 516.82 2.27694 -0.26235 0
M  V30 5364 C 517.82 1.50589 0.563876 0
M  V30 5365 O 519.01 1.70028 0.378941 0
M  V30 5366 C 516.142 3.35002 0.63138 0
M  V30 5367 H 517.335 2.79419 -1.08928 0
M  V30 5368 H 514.888 1.44221 -0.602486 0
M  V30 5369 H 515.623 2.88504 1.48109 0
M  V30 5370 H 515.408 3.92079 0.0403276 0
M  V30 5371 H 516.898 4.04897 1.02217 0
M  V30 5372 N 517.335 0.585699 1.46312 0
M  V30 5373 C 518.751 0.247607 1.57668 0
M  V30 5374 C 518.951 -1.25007 1.58037 0
M  V30 5375 O 518.007 -2.03196 1.49893 0
M  V30 5376 C 519.32 0.899456 2.86933 0
M  V30 5377 C 520.868 0.873326 3.00569 0
M  V30 5378 C 521.343 1.50477 4.32574 0
M  V30 5379 N 522.834 1.46925 4.3928 0
M  V30 5380 C 523.569 1.92719 5.40044 0
M  V30 5381 N 523.065 2.46499 6.47464 0
M  V30 5382 N 524.858 1.83617 5.31264 0
M  V30 5383 H 517.009 1.55841 1.44317 0
M  V30 5384 H 519.272 0.651564 0.688599 0
M  V30 5385 H 518.978 1.95313 2.92482 0
M  V30 5386 H 518.852 0.409476 3.74971 0
M  V30 5387 H 521.239 -0.171736 2.946 0
M  V30 5388 H 521.32 1.40136 2.13999 0
M  V30 5389 H 520.964 2.54905 4.39302 0
M  V30 5390 H 520.894 0.951944 5.17924 0
M  V30 5391 H 523.385 1.07616 3.62253 0
M  V30 5392 H 523.698 2.79291 7.20567 0
M  V30 5393 H 522.043 2.50526 6.48276 0
M  V30 5394 H 525.234 1.41358 4.46246 0
M  V30 5395 H 525.407 2.19622 6.09648 0
M  V30 5396 N 518.813 -1.54241 0.323641 0
M  V30 5397 C 519.76 -2.24339 -0.542277 0
M  V30 5398 C 520.73 -1.23421 -1.11159 0
M  V30 5399 O 521.915 -1.52104 -1.15192 0
M  V30 5400 C 519.055 -3.00479 -1.69725 0
M  V30 5401 C 518.168 -4.16214 -1.15716 0
M  V30 5402 C 517.303 -4.79884 -2.27783 0
M  V30 5403 C 516.342 -5.87722 -1.71023 0
M  V30 5404 N 515.479 -6.45254 -2.76752 0
M  V30 5405 H 520.319 -2.97935 0.0620613 0
M  V30 5406 H 517.856 -1.47039 0.0423993 0
M  V30 5407 H 519.814 -3.42869 -2.3769 0
M  V30 5408 H 518.444 -2.29217 -2.27288 0
M  V30 5409 H 517.496 -3.78605 -0.369063 0
M  V30 5410 H 518.808 -4.93838 -0.701832 0
M  V30 5411 H 517.962 -5.25243 -3.03651 0
M  V30 5412 H 516.701 -4.01641 -2.76652 0
M  V30 5413 H 515.706 -5.41765 -0.936518 0
M  V30 5414 H 516.931 -6.67863 -1.2303 0
M  V30 5415 H 514.877 -5.69884 -3.24912 0
M  V30 5416 H 514.794 -7.18292 -2.35782 0
M  V30 5417 H 516.062 -6.95269 -3.5245 0
M  V30 5418 N 520.291 -0.0518155 -1.57515 0
M  V30 5419 C 521.239 0.940195 -2.12751 0
M  V30 5420 C 522.233 1.3218 -1.05948 0
M  V30 5421 O 523.439 1.30138 -1.24355 0
M  V30 5422 H 519.814 0.321066 -0.680015 0
M  V30 5423 H 521.785 0.449217 -2.94999 0
M  V30 5424 C 520.534 2.2055 -2.68799 0
M  V30 5425 H 519.857 1.92066 -3.50643 0
M  V30 5426 H 521.297 2.88119 -3.11068 0
M  V30 5427 C 519.756 2.95061 -1.62605 0
M  V30 5428 O 520.286 3.88025 -1.03921 0
M  V30 5429 N 518.492 2.57804 -1.34111 0
M  V30 5430 H 518.039 1.82281 -1.8202 0
M  V30 5431 H 517.997 3.07964 -0.632872 0
M  V30 5432 N 521.769 1.56035 0.221574 0
M  V30 5433 C 523.009 1.80822 0.953038 0
M  V30 5434 C 523.373 0.625316 1.81532 0
M  V30 5435 O 524.574 0.752491 2.58052 0
M  V30 5436 C 522.845 3.10503 1.76983 0
M  V30 5437 S 524.404 3.56604 2.55693 0
M  V30 5438 H 521.222 0.634849 0.320137 0
M  V30 5439 H 523.824 1.94274 0.218619 0
M  V30 5440 H 522.528 3.94636 1.12651 0
M  V30 5441 H 522.059 2.99858 2.54655 0
M  V30 5442 H 524.074 3.1994 3.79279 0
M  V30 5443 N 523.247 -0.488276 1.49845 0
M  V30 5444 C 524.177 -1.59675 1.70371 0
M  V30 5445 C 525.158 -1.60878 0.552473 0
M  V30 5446 O 526.343 -1.77417 0.78973 0
M  V30 5447 C 523.473 -2.98098 1.782 0
M  V30 5448 C 522.427 -3.11761 2.93239 0
M  V30 5449 C 521.753 -4.51661 2.86193 0
M  V30 5450 C 523.053 -2.90589 4.33999 0
M  V30 5451 H 524.747 -1.42752 2.63177 0
M  V30 5452 H 522.293 -0.685317 1.26647 0
M  V30 5453 H 524.246 -3.75555 1.91144 0
M  V30 5454 H 522.97 -3.16138 0.820018 0
M  V30 5455 H 521.629 -2.36732 2.79917 0
M  V30 5456 H 521.277 -4.66595 1.87877 0
M  V30 5457 H 520.977 -4.61742 3.63412 0
M  V30 5458 H 522.501 -5.31162 3.01163 0
M  V30 5459 H 523.915 -3.57807 4.47936 0
M  V30 5460 H 522.312 -3.1213 5.12538 0
M  V30 5461 H 523.382 -1.86595 4.4756 0
M  V30 5462 N 524.725 -1.39134 -0.740242 0
M  V30 5463 C 525.971 -1.36273 -1.50192 0
M  V30 5464 C 526.304 0.0430136 -1.94152 0
M  V30 5465 O 525.579 1.00691 -1.66408 0
M  V30 5466 C 525.862 -2.33041 -2.74525 0
M  V30 5467 C 525.715 -3.82535 -2.36617 0
M  V30 5468 C 527.034 -2.27723 -3.76604 0
M  V30 5469 H 524.153 -0.496323 -0.544823 0
M  V30 5470 H 526.795 -1.70085 -0.846815 0
M  V30 5471 H 524.945 -2.04337 -3.30422 0
M  V30 5472 H 526.617 -4.21967 -1.86391 0
M  V30 5473 H 524.86 -3.99565 -1.68909 0
M  V30 5474 H 525.531 -4.45723 -3.2563 0
M  V30 5475 H 528.007 -2.53091 -3.30279 0
M  V30 5476 H 526.883 -2.97519 -4.61274 0
M  V30 5477 H 527.144 -1.28049 -4.2315 0
M  V30 5478 N 526.204 0.969867 -1.24223 0
M  V30 5479 C 527.151 2.06407 -1.0327 0
M  V30 5480 C 528.121 1.66014 0.0533 0
M  V30 5481 O 529.306 1.90533 -0.100896 0
M  V30 5482 C 526.446 3.3909 -0.641262 0
M  V30 5483 C 525.559 3.9269 -1.80051 0
M  V30 5484 C 524.694 5.13631 -1.35486 0
M  V30 5485 C 523.733 5.59423 -2.48419 0
M  V30 5486 N 522.87 6.71586 -2.04737 0
M  V30 5487 H 527.71 2.23663 -1.96923 0
M  V30 5488 H 525.247 1.09624 -0.980862 0
M  V30 5489 H 527.205 4.15323 -0.395351 0
M  V30 5490 H 525.835 3.21765 0.258269 0
M  V30 5491 H 524.887 3.13116 -2.16014 0
M  V30 5492 H 526.199 4.22636 -2.64916 0
M  V30 5493 H 525.353 5.97231 -1.0677 0
M  V30 5494 H 524.092 4.85364 -0.476722 0
M  V30 5495 H 523.097 4.74398 -2.77897 0
M  V30 5496 H 524.322 5.89705 -3.36786 0
M  V30 5497 H 522.268 6.45058 -1.19318 0
M  V30 5498 H 522.185 7.0097 -2.83156 0
M  V30 5499 H 523.453 7.58633 -1.79154 0
M  V30 5500 N 527.682 1.05563 1.17022 0
M  V30 5501 C 528.63 0.653887 2.2322 0
M  V30 5502 C 529.624 -0.326642 1.66221 0
M  V30 5503 O 530.83 -0.192301 1.7897 0
M  V30 5504 H 527.205 0.193297 0.726733 0
M  V30 5505 H 529.176 1.5596 2.54399 0
M  V30 5506 C 527.925 0.0485434 3.47666 0
M  V30 5507 H 527.248 0.79413 3.91834 0
M  V30 5508 H 528.688 -0.195133 4.23551 0
M  V30 5509 C 527.147 -1.20583 3.14581 0
M  V30 5510 O 527.677 -2.29475 3.29703 0
M  V30 5511 N 525.883 -1.10493 2.68774 0
M  V30 5512 H 525.43 -0.218795 2.56669 0
M  V30 5513 H 525.388 -1.94507 2.47011 0
M  V30 5514 N 529.16 -1.33526 0.837174 0
M  V30 5515 C 530.09 -2.31764 0.284206 0
M  V30 5516 C 531.071 -1.58896 -0.607142 0
M  V30 5517 O 532.256 -1.86798 -0.531047 0
M  V30 5518 C 529.386 -3.43029 -0.542962 0
M  V30 5519 C 528.34 -4.27255 0.252451 0
M  V30 5520 C 527.666 -5.3012 -0.69836 0
M  V30 5521 C 528.966 -5.01229 1.46858 0
M  V30 5522 H 530.66 -2.78262 1.10502 0
M  V30 5523 H 528.206 -1.3378 0.532812 0
M  V30 5524 H 530.159 -4.1078 -0.940096 0
M  V30 5525 H 528.883 -2.95216 -1.39697 0
M  V30 5526 H 527.542 -3.61127 0.631124 0
M  V30 5527 H 527.19 -4.78564 -1.54872 0
M  V30 5528 H 526.89 -5.87353 -0.170274 0
M  V30 5529 H 528.414 -6.00737 -1.09305 0
M  V30 5530 H 529.828 -5.61756 1.14469 0
M  V30 5531 H 528.225 -5.68104 1.93333 0
M  V30 5532 H 529.295 -4.301 2.23924 0
M  V30 5533 N 530.638 -0.59345 -1.46 0
M  V30 5534 C 531.548 0.135817 -2.34207 0
M  V30 5535 C 532.564 0.875008 -1.50398 0
M  V30 5536 O 533.74 0.835778 -1.83239 0
M  V30 5537 C 530.805 1.12977 -3.27776 0
M  V30 5538 C 529.866 0.394081 -4.27487 0
M  V30 5539 C 529.099 1.34068 -5.16586 0
M  V30 5540 O 529.322 2.5778 -5.08828 0
M  V30 5541 O 528.256 0.845426 -5.95933 0
M  V30 5542 H 532.082 -0.588691 -2.9794 0
M  V30 5543 H 529.667 -0.353784 -1.45151 0
M  V30 5544 H 531.549 1.70261 -3.85473 0
M  V30 5545 H 530.224 1.83556 -2.66625 0
M  V30 5546 H 529.131 -0.220869 -3.73447 0
M  V30 5547 H 530.464 -0.270939 -4.91454 0
M  V30 5548 N 532.116 1.54067 -0.331816 0
M  V30 5549 C 533.079 2.23275 0.517768 0
M  V30 5550 C 534.079 1.22897 1.03697 0
M  V30 5551 O 535.269 1.47419 0.928084 0
M  V30 5552 C 532.401 2.94326 1.72004 0
M  V30 5553 H 533.594 2.99773 -0.0873507 0
M  V30 5554 H 531.147 1.56079 -0.0830042 0
M  V30 5555 H 531.882 2.21986 2.36417 0
M  V30 5556 H 531.667 3.67941 1.35507 0
M  V30 5557 H 533.157 3.47031 2.32291 0
M  V30 5558 N 533.594 0.0601682 1.57485 0
M  V30 5559 C 534.84 -0.612501 1.93329 0
M  V30 5560 C 535.173 -1.6996 0.939526 0
M  V30 5561 O 534.448 -1.94472 -0.0330957 0
M  V30 5562 C 534.731 -1.20025 3.39508 0
M  V30 5563 C 534.584 -0.12059 4.49638 0
M  V30 5564 C 535.903 -2.10923 3.86264 0
M  V30 5565 H 533.022 -0.221185 0.703027 0
M  V30 5566 H 535.664 0.123768 1.89596 0
M  V30 5567 H 533.814 -1.82774 3.42821 0
M  V30 5568 H 535.486 0.51185 4.58452 0
M  V30 5569 H 533.729 0.550251 4.30296 0
M  V30 5570 H 534.4 -0.572019 5.49028 0
M  V30 5571 H 536.876 -1.58124 3.84884 0
M  V30 5572 H 535.752 -2.48987 4.8918 0
M  V30 5573 H 536.013 -3.01292 3.23536 0
M  V30 5574 N 535.072 -1.5615 -0.213296 0
M  V30 5575 C 535.982 -1.96265 -1.28519 0
M  V30 5576 C 536.998 -0.86765 -1.50824 0
M  V30 5577 O 538.174 -1.17191 -1.63793 0
M  V30 5578 C 535.239 -2.27836 -2.61327 0
M  V30 5579 C 534.3 -3.50949 -2.47252 0
M  V30 5580 C 533.533 -3.81004 -3.73727 0
M  V30 5581 O 533.756 -3.12612 -4.77106 0
M  V30 5582 O 532.69 -4.74477 -3.70344 0
M  V30 5583 H 536.516 -2.87631 -0.974795 0
M  V30 5584 H 534.101 -1.43467 -0.416832 0
M  V30 5585 H 535.983 -2.49299 -3.39747 0
M  V30 5586 H 534.658 -1.39643 -2.9203 0
M  V30 5587 H 533.565 -3.34754 -1.67004 0
M  V30 5588 H 534.898 -4.39551 -2.21486 0
M  V30 5589 N 536.55 0.480323 -1.50102 0
M  V30 5590 C 537.778 1.25657 -1.64371 0
M  V30 5591 C 538.193 1.86011 -0.323316 0
M  V30 5592 O 537.55 1.68803 0.693682 0
M  V30 5593 C 537.601 2.37197 -2.728 0
M  V30 5594 O 537.322 1.7932 -3.9972 0
M  V30 5595 C 538.823 3.2823 -2.9796 0
M  V30 5596 H 536.043 0.380369 -0.552775 0
M  V30 5597 H 538.587 0.574379 -1.96268 0
M  V30 5598 H 536.742 3.01208 -2.43623 0
M  V30 5599 H 537.156 2.52701 -4.59611 0
M  V30 5600 H 538.63 4.02725 -3.77513 0
M  V30 5601 H 539.107 3.86462 -2.08671 0
M  V30 5602 H 539.713 2.69964 -3.28633 0
M  V30 5603 N 538.028 1.39524 0.732853 0
M  V30 5604 C 538.958 1.41153 1.86005 0
M  V30 5605 C 539.939 0.274614 1.67869 0
M  V30 5606 O 541.124 0.480745 1.88155 0
M  V30 5607 C 538.254 1.25638 3.23778 0
M  V30 5608 C 537.208 2.36752 3.56556 0
M  V30 5609 C 536.534 2.06326 4.93289 0
M  V30 5610 C 537.834 3.79069 3.5931 0
M  V30 5611 H 539.528 2.35484 1.84899 0
M  V30 5612 H 537.074 1.13348 0.888162 0
M  V30 5613 H 539.027 1.25398 4.0231 0
M  V30 5614 H 537.751 0.277772 3.25417 0
M  V30 5615 H 536.41 2.36213 2.80355 0
M  V30 5616 H 536.058 1.06897 4.9151 0
M  V30 5617 H 535.758 2.80757 5.16187 0
M  V30 5618 H 537.282 2.07739 5.74175 0
M  V30 5619 H 538.696 3.81526 4.27914 0
M  V30 5620 H 537.093 4.52878 3.93728 0
M  V30 5621 H 538.163 4.09893 2.59068 0
M  V30 5622 N 539.506 -0.963266 1.24736 0
M  V30 5623 C 540.754 -1.70343 1.08755 0
M  V30 5624 C 541.075 -1.91387 -0.373619 0
M  V30 5625 O 540.345 -1.4948 -1.2662 0
M  V30 5626 H 538.925 -0.631224 0.399456 0
M  V30 5627 H 541.587 -1.15859 1.56725 0
M  V30 5628 H 540.683 -2.68616 1.58909 0
M  V30 5629 N 540.985 -1.06182 -1.16461 0
M  V30 5630 C 542.21 -0.798599 -1.91408 0
M  V30 5631 C 542.635 0.640987 -1.76842 0
M  V30 5632 O 541.993 1.44652 -1.09296 0
M  V30 5633 C 542.041 -1.19665 -3.40165 0
M  V30 5634 O 541.145 -0.334768 -4.11039 0
M  V30 5635 H 540.486 -0.291961 -0.596368 0
M  V30 5636 H 543.016 -1.41732 -1.47557 0
M  V30 5637 H 543.026 -1.16772 -3.90933 0
M  V30 5638 H 541.701 -2.24526 -3.50087 0
M  V30 5639 H 540.278 -0.425168 -3.70468 0
M  V30 5640 N 542.463 1.3308 -0.844243 0
M  V30 5641 C 543.691 2.01808 -0.456203 0
M  V30 5642 C 544.106 1.63498 0.944131 0
M  V30 5643 O 543.463 0.85102 1.61443 0
M  V30 5644 C 543.514 3.56922 -0.573513 0
M  V30 5645 O 543.235 3.93851 -1.91868 0
M  V30 5646 C 544.736 4.42922 -0.183125 0
M  V30 5647 H 541.956 0.646273 -0.180477 0
M  V30 5648 H 544.5 1.69891 -1.1383 0
M  V30 5649 H 542.655 3.87352 0.0607367 0
M  V30 5650 H 543.069 4.88564 -1.90802 0
M  V30 5651 H 544.543 5.51093 -0.316241 0
M  V30 5652 H 545.02 4.30386 0.875477 0
M  V30 5653 H 545.626 4.1786 -0.792027 0
M  V30 5654 N 543.941 0.601185 1.45683 0
M  V30 5655 C 545.166 0.0982245 2.07167 0
M  V30 5656 C 545.591 -1.20546 1.44396 0
M  V30 5657 O 544.949 -1.73247 0.534347 0
M  V30 5658 C 544.997 -0.0346976 3.60583 0
M  V30 5659 O 544.101 -1.08657 3.97828 0
M  V30 5660 H 543.442 0.0711618 0.660176 0
M  V30 5661 H 545.972 0.829376 1.87036 0
M  V30 5662 H 545.982 -0.234969 4.07323 0
M  V30 5663 H 544.657 0.917265 4.05659 0
M  V30 5664 H 543.234 -0.863275 3.6277 0
M  V30 5665 N 545.419 -1.53889 0.339982 0
M  V30 5666 C 546.647 -2.05271 -0.259114 0
M  V30 5667 C 547.062 -1.21517 -1.44496 0
M  V30 5668 O 546.419 -0.24966 -1.80784 0
M  V30 5669 C 546.47 -3.55092 -0.677634 0
M  V30 5670 O 546.191 -4.35667 0.461051 0
M  V30 5671 C 547.692 -4.22631 -1.33782 0
M  V30 5672 H 544.912 -0.669085 -0.0506566 0
M  V30 5673 H 547.456 -1.9852 0.490935 0
M  V30 5674 H 545.611 -3.62077 -1.37763 0
M  V30 5675 H 546.025 -5.24343 0.128144 0
M  V30 5676 H 547.499 -5.28861 -1.58145 0
M  V30 5677 H 547.976 -3.74758 -2.29027 0
M  V30 5678 H 548.582 -4.19829 -0.679957 0
M  V30 5679 N 546.897 -0.0685191 -1.57451 0
M  V30 5680 C 548.146 0.600898 -1.92541 0
M  V30 5681 C 548.459 1.70967 -0.950239 0
M  V30 5682 O 549.665 2.43844 -1.19384 0
M  V30 5683 C 548.121 1.12019 -3.42023 0
M  V30 5684 C 547.729 0.0426028 -4.4798 0
M  V30 5685 C 549.473 1.76386 -3.86119 0
M  V30 5686 C 547.38 0.575759 -5.88591 0
M  V30 5687 H 546.31 0.228225 -0.71863 0
M  V30 5688 H 548.961 -0.140223 -1.82963 0
M  V30 5689 H 547.343 1.91418 -3.46663 0
M  V30 5690 H 548.517 -0.73182 -4.54952 0
M  V30 5691 H 546.832 -0.504642 -4.13331 0
M  V30 5692 H 549.429 2.17302 -4.88553 0
M  V30 5693 H 549.772 2.62255 -3.23308 0
M  V30 5694 H 550.305 1.03615 -3.84069 0
M  V30 5695 H 547.044 -0.245691 -6.55039 0
M  V30 5696 H 546.564 1.31778 -5.85145 0
M  V30 5697 H 548.243 1.0532 -6.3837 0
M  V30 5698 N 548.375 1.56261 0.205012 0
M  V30 5699 C 549.615 1.81823 0.933806 0
M  V30 5700 C 549.979 0.644534 1.80858 0
M  V30 5701 O 551.18 0.779819 2.5724 0
M  V30 5702 C 549.451 3.12362 1.7368 0
M  V30 5703 S 551.01 3.59296 2.51897 0
M  V30 5704 H 547.828 0.638209 0.313386 0
M  V30 5705 H 550.43 1.94495 0.198001 0
M  V30 5706 H 549.134 3.95809 1.08459 0
M  V30 5707 H 548.665 3.02542 2.5146 0
M  V30 5708 H 550.68 3.23945 3.75864 0
M  V30 5709 N 549.853 -0.472356 1.50355 0
M  V30 5710 C 551.078 -1.25251 1.65309 0
M  V30 5711 C 551.503 -1.85081 0.335643 0
M  V30 5712 O 550.861 -1.67227 -0.700335 0
M  V30 5713 C 550.909 -2.3379 2.74544 0
M  V30 5714 O 550.013 -3.38401 2.35709 0
M  V30 5715 H 549.354 -0.368539 0.552336 0
M  V30 5716 H 551.884 -0.562271 1.96722 0
M  V30 5717 H 551.894 -2.79121 2.97583 0
M  V30 5718 H 550.569 -1.89614 3.70161 0
M  V30 5719 H 549.146 -2.9879 2.23112 0
M  V30 5720 N 551.331 -1.39911 -0.725443 0
M  V30 5721 C 552.608 -1.28158 -1.47766 0
M  V30 5722 C 552.988 0.104545 -2.10841 0
M  V30 5723 O 552.336 1.11657 -1.99361 0
M  V30 5724 C 552.546 -2.41306 -2.52135 0
M  V30 5725 C 553.894 -2.81076 -3.18247 0
M  V30 5726 O 554.918 -2.40827 -2.62452 0
M  V30 5727 O 553.777 -3.50581 -4.19231 0
M  V30 5728 H 550.871 -0.502761 -0.656628 0
M  V30 5729 H 553.417 -1.51808 -0.758456 0
M  V30 5730 H 552.189 -3.33932 -2.03974 0
M  V30 5731 H 551.812 -2.19374 -3.31603 0
M  V30 5732 N 552.809 0.956637 -1.25245 0
M  V30 5733 C 553.756 2.053 -1.05454 0
M  V30 5734 C 554.726 1.66062 0.0356889 0
M  V30 5735 O 555.911 1.90415 -0.121099 0
M  V30 5736 C 553.051 3.38391 -0.677191 0
M  V30 5737 C 552.164 3.90758 -1.84206 0
M  V30 5738 C 551.299 5.12165 -1.40926 0
M  V30 5739 C 550.338 5.56757 -2.54338 0
M  V30 5740 N 549.475 6.69376 -2.11848 0
M  V30 5741 H 554.315 2.21562 -1.99284 0
M  V30 5742 H 551.852 1.08578 -0.992434 0
M  V30 5743 H 553.81 4.1488 -0.43938 0
M  V30 5744 H 552.44 3.22021 0.224127 0
M  V30 5745 H 551.492 3.10808 -2.19323 0
M  V30 5746 H 552.804 4.19802 -2.69383 0
M  V30 5747 H 551.958 5.96065 -1.13098 0
M  V30 5748 H 550.697 4.84832 -0.528175 0
M  V30 5749 H 549.702 4.71423 -2.82913 0
M  V30 5750 H 550.927 5.861 -3.43022 0
M  V30 5751 H 548.873 6.43756 -1.26153 0
M  V30 5752 H 548.79 6.97927 -2.90574 0
M  V30 5753 H 550.058 7.5669 -1.87191 0
M  V30 5754 N 554.287 1.06798 1.15896 0
M  V30 5755 C 555.515 0.808694 1.90441 0
M  V30 5756 C 555.93 -0.637506 1.77711 0
M  V30 5757 O 555.287 -1.43684 1.12522 0
M  V30 5758 C 555.338 1.20068 3.40978 0
M  V30 5759 O 555.059 2.59013 3.53333 0
M  V30 5760 C 556.56 0.96987 4.3256 0
M  V30 5761 H 553.78 0.292809 0.603742 0
M  V30 5762 H 556.324 1.42296 1.46874 0
M  V30 5763 H 554.479 0.630842 3.82229 0
M  V30 5764 H 554.893 2.7485 4.46719 0
M  V30 5765 H 556.367 1.29371 5.36626 0
M  V30 5766 H 556.844 -0.0941209 4.39099 0
M  V30 5767 H 557.45 1.52433 3.97044 0
M  V30 5768 N 555.766 -1.3263 0.851289 0
M  V30 5769 C 557.014 -1.96978 0.452128 0
M  V30 5770 C 557.335 -1.67715 -0.99482 0
M  V30 5771 O 556.605 -0.98259 -1.69476 0
M  V30 5772 H 555.185 -0.72873 0.164202 0
M  V30 5773 H 557.847 -1.61774 1.08698 0
M  V30 5774 H 556.943 -3.06387 0.594407 0
M  V30 5775 N 557.244 -0.608902 -1.45362 0
M  V30 5776 C 558.472 -0.111013 -2.06602 0
M  V30 5777 C 558.887 1.20516 -1.45332 0
M  V30 5778 O 558.244 1.73437 -0.567978 0
M  V30 5779 C 558.295 0.033688 -3.61484 0
M  V30 5780 O 558.016 -1.23041 -4.20467 0
M  V30 5781 C 559.517 0.562882 -4.39712 0
M  V30 5782 H 556.737 -0.0694453 -0.667397 0
M  V30 5783 H 559.281 -0.837008 -1.86586 0
M  V30 5784 H 557.436 0.710016 -3.80838 0
M  V30 5785 H 557.85 -1.06094 -5.13658 0
M  V30 5786 H 559.324 0.613213 -5.48583 0
M  V30 5787 H 559.801 1.58543 -4.09586 0
M  V30 5788 H 560.407 -0.0794454 -4.25226 0
M  V30 5789 N 558.722 1.53707 -0.348139 0
M  V30 5790 C 559.652 2.28111 0.498766 0
M  V30 5791 C 560.633 1.29851 1.09876 0
M  V30 5792 O 561.818 1.587 1.11928 0
M  V30 5793 C 558.948 3.05735 1.64753 0
M  V30 5794 C 557.902 4.11537 1.17565 0
M  V30 5795 C 557.228 4.77142 2.4133 0
M  V30 5796 C 558.528 5.21587 0.272844 0
M  V30 5797 H 560.222 2.99152 -0.121934 0
M  V30 5798 H 557.768 1.43875 -0.0600842 0
M  V30 5799 H 559.721 3.56526 2.24649 0
M  V30 5800 H 558.445 2.32354 2.2952 0
M  V30 5801 H 557.104 3.61665 0.599483 0
M  V30 5802 H 556.752 4.0035 3.04514 0
M  V30 5803 H 556.452 5.48626 2.10436 0
M  V30 5804 H 557.976 5.30719 3.01943 0
M  V30 5805 H 559.39 5.67986 0.778779 0
M  V30 5806 H 557.787 6.00074 0.0555849 0
M  V30 5807 H 558.857 4.79969 -0.689785 0
M  V30 5808 N 560.2 0.0768682 1.57412 0
M  V30 5809 C 561.428 -0.59997 1.9801 0
M  V30 5810 C 561.843 -1.62842 0.955408 0
M  V30 5811 O 561.2 -1.8241 -0.057314 0
M  V30 5812 C 561.251 -1.26401 3.38681 0
M  V30 5813 O 560.972 -0.276723 4.37225 0
M  V30 5814 C 562.473 -2.0282 3.94182 0
M  V30 5815 H 559.693 -0.162239 0.651091 0
M  V30 5816 H 562.237 0.150771 2.03943 0
M  V30 5817 H 560.392 -1.96581 3.33819 0
M  V30 5818 H 560.806 -0.753744 5.19056 0
M  V30 5819 H 562.28 -2.44667 4.94815 0
M  V30 5820 H 562.757 -2.88678 3.31001 0
M  V30 5821 H 563.363 -1.37496 4.02461 0
M  V30 5822 N 561.678 -1.56367 -0.196722 0
M  V30 5823 C 562.61 -1.90941 -1.26784 0
M  V30 5824 C 563.623 -0.799928 -1.41792 0
M  V30 5825 O 564.812 -1.07833 -1.42247 0
M  V30 5826 C 561.912 -2.12477 -2.6402 0
M  V30 5827 C 561.085 -3.43616 -2.70641 0
M  V30 5828 C 560.144 -3.54284 -3.89062 0
M  V30 5829 O 559.17 -4.2712 -3.76241 0
M  V30 5830 N 560.372 -2.87252 -5.04447 0
M  V30 5831 H 563.137 -2.83417 -0.974417 0
M  V30 5832 H 560.698 -1.57215 -0.386649 0
M  V30 5833 H 562.69 -2.16904 -3.41665 0
M  V30 5834 H 561.26 -1.26508 -2.85857 0
M  V30 5835 H 560.48 -3.51072 -1.79283 0
M  V30 5836 H 561.768 -4.29958 -2.72054 0
M  V30 5837 H 561.166 -2.27901 -5.17762 0
M  V30 5838 H 559.723 -2.97308 -5.80044 0
M  V30 5839 N 563.156 0.464375 -1.50603 0
M  V30 5840 C 564.104 1.58224 -1.70493 0
M  V30 5841 C 565.098 1.59492 -0.570836 0
M  V30 5842 O 566.304 1.63561 -0.751517 0
M  V30 5843 H 562.679 0.525161 -0.538247 0
M  V30 5844 H 564.65 1.38613 -2.64252 0
M  V30 5845 C 563.399 2.96113 -1.82243 0
M  V30 5846 H 562.722 2.95858 -2.68901 0
M  V30 5847 H 564.162 3.73769 -2.00182 0
M  V30 5848 C 562.621 3.31946 -0.575628 0
M  V30 5849 O 563.151 4.00708 0.282152 0
M  V30 5850 N 561.357 2.87436 -0.427665 0
M  V30 5851 H 560.904 2.31652 -1.12674 0
M  V30 5852 H 560.862 3.11776 0.405379 0
M  V30 5853 N 564.634 1.40294 0.718013 0
M  V30 5854 C 566.05 1.2227 1.02577 0
M  V30 5855 C 566.25 0.0961976 2.0127 0
M  V30 5856 O 565.306 -0.546695 2.46511 0
M  V30 5857 C 566.619 2.56348 1.57182 0
M  V30 5858 C 568.167 2.6334 1.69178 0
M  V30 5859 C 568.642 3.9768 2.27188 0
M  V30 5860 N 570.133 3.99409 2.34578 0
M  V30 5861 C 570.868 5.00141 2.8044 0
M  V30 5862 N 570.364 6.11268 3.26073 0
M  V30 5863 N 572.157 4.87511 2.79802 0
M  V30 5864 H 564.308 2.12304 0.0637899 0
M  V30 5865 H 566.571 0.943632 0.0909036 0
M  V30 5866 H 566.277 3.3942 0.921262 0
M  V30 5867 H 566.151 2.77266 2.55741 0
M  V30 5868 H 568.538 1.80641 2.33351 0
M  V30 5869 H 568.619 2.46255 0.692247 0
M  V30 5870 H 568.263 4.80817 1.63638 0
M  V30 5871 H 568.193 4.12093 3.27852 0
M  V30 5872 H 570.684 3.19162 2.02346 0
M  V30 5873 H 570.997 6.84023 3.59628 0
M  V30 5874 H 569.342 6.14837 3.24038 0
M  V30 5875 H 572.533 3.9979 2.43487 0
M  V30 5876 H 572.706 5.66158 3.15228 0
M  V30 5877 N 566.112 -0.949982 1.2575 0
M  V30 5878 C 567.045 -2.047 1.00862 0
M  V30 5879 C 568.023 -1.62475 -0.0636982 0
M  V30 5880 O 569.207 -1.88343 0.0769153 0
M  V30 5881 C 566.334 -3.34597 0.525613 0
M  V30 5882 C 565.38 -3.95788 1.58916 0
M  V30 5883 S 566.213 -4.31175 3.17567 0
M  V30 5884 C 567.369 -5.64183 2.71013 0
M  V30 5885 H 567.602 -2.25497 1.93749 0
M  V30 5886 H 565.135 -1.09022 1.09332 0
M  V30 5887 H 567.093 -4.09716 0.25359 0
M  V30 5888 H 565.754 -3.11758 -0.382828 0
M  V30 5889 H 564.947 -4.89457 1.20201 0
M  V30 5890 H 564.549 -3.27168 1.81211 0
M  V30 5891 H 566.841 -6.42504 2.14928 0
M  V30 5892 H 567.784 -6.07774 3.6334 0
M  V30 5893 H 568.192 -5.2364 2.1086 0
M  V30 5894 N 567.59 -1.07411 -1.15328 0
M  V30 5895 C 568.818 -0.818782 -1.90009 0
M  V30 5896 C 569.233 0.628072 -1.78047 0
M  V30 5897 O 568.59 1.43085 -1.13282 0
M  V30 5898 C 568.641 -1.21874 -3.40337 0
M  V30 5899 O 568.362 -2.60883 -3.51954 0
M  V30 5900 C 569.863 -0.992796 -4.3204 0
M  V30 5901 H 567.083 -0.296007 -0.60218 0
M  V30 5902 H 569.627 -1.43073 -1.46117 0
M  V30 5903 H 567.782 -0.651103 -3.81889 0
M  V30 5904 H 568.196 -2.77216 -4.45255 0
M  V30 5905 H 569.67 -1.32215 -5.35932 0
M  V30 5906 H 570.147 0.0708331 -4.39143 0
M  V30 5907 H 570.753 -1.54537 -3.9623 0
M  V30 5908 N 569.068 1.32177 -0.85831 0
M  V30 5909 C 570.314 1.97417 -0.46417 0
M  V30 5910 C 570.647 1.67746 0.978514 0
M  V30 5911 O 569.922 0.967654 1.68721 0
M  V30 5912 C 570.205 3.53069 -0.708094 0
M  V30 5913 C 570.058 3.92357 -2.19946 0
M  V30 5914 C 571.377 4.39783 -0.166881 0
M  V30 5915 H 568.496 0.717097 -0.17012 0
M  V30 5916 H 571.138 1.56499 -1.07741 0
M  V30 5917 H 569.288 3.88054 -0.186128 0
M  V30 5918 H 570.96 3.67533 -2.78779 0
M  V30 5919 H 569.203 3.41384 -2.67656 0
M  V30 5920 H 569.874 5.00841 -2.32082 0
M  V30 5921 H 572.35 4.11556 -0.613285 0
M  V30 5922 H 571.226 5.47671 -0.367093 0
M  V30 5923 H 571.487 4.32196 0.930559 0
M  V30 5924 N 570.547 0.616602 1.45037 0
M  V30 5925 C 571.51 -0.0871112 2.29034 0
M  V30 5926 C 572.51 -0.786414 1.40258 0
M  V30 5927 O 573.7 -0.633207 1.62284 0
M  V30 5928 C 570.832 -1.13369 3.21497 0
M  V30 5929 H 572.025 0.651497 2.92738 0
M  V30 5930 H 569.578 0.376058 1.51709 0
M  V30 5931 H 570.313 -1.90277 2.62612 0
M  V30 5932 H 570.098 -0.636358 3.86902 0
M  V30 5933 H 571.588 -1.62627 3.84633 0
M  V30 5934 N 572.025 -1.5352 0.356285 0
M  V30 5935 C 572.975 -2.22204 -0.510815 0
M  V30 5936 C 573.959 -1.21393 -1.05605 0
M  V30 5937 O 575.151 -1.46883 -0.987639 0
M  V30 5938 C 572.28 -3.00786 -1.65478 0
M  V30 5939 C 571.366 -4.08965 -1.12287 0
M  V30 5940 N 571.757 -5.04829 -0.313191 0
M  V30 5941 C 570.055 -4.23505 -1.39856 0
M  V30 5942 C 570.756 -5.81695 -0.0230322 0
M  V30 5943 N 569.732 -5.40074 -0.618144 0
M  V30 5944 H 573.534 -2.93676 0.114711 0
M  V30 5945 H 571.048 -1.61572 0.163811 0
M  V30 5946 H 573.045 -3.48502 -2.28806 0
M  V30 5947 H 571.705 -2.30843 -2.28345 0
M  V30 5948 H 572.716 -5.17879 0.0468202 0
M  V30 5949 H 569.393 -3.64786 -2.0307 0
M  V30 5950 H 570.783 -6.68931 0.630927 0
M  V30 5951 N 573.503 -0.0852151 -1.57369 0
M  V30 5952 C 574.436 0.913608 -2.09113 0
M  V30 5953 C 575.414 1.28264 -0.999358 0
M  V30 5954 O 576.598 1.3896 -1.27367 0
M  V30 5955 C 573.725 2.21777 -2.55993 0
M  V30 5956 C 572.771 1.99932 -3.76735 0
M  V30 5957 S 573.604 1.24637 -5.20794 0
M  V30 5958 C 574.76 2.56304 -5.71016 0
M  V30 5959 H 574.993 0.473369 -2.93507 0
M  V30 5960 H 572.526 0.127856 -1.5387 0
M  V30 5961 H 574.484 2.96726 -2.83662 0
M  V30 5962 H 573.145 2.62923 -1.71843 0
M  V30 5963 H 572.338 2.96482 -4.07571 0
M  V30 5964 H 571.94 1.33116 -3.49509 0
M  V30 5965 H 574.232 3.5233 -5.78679 0
M  V30 5966 H 575.175 2.3006 -6.69685 0
M  V30 5967 H 575.583 2.64125 -4.98897 0
M  V30 5968 N 574.981 1.5647 0.188427 0
M  V30 5969 C 576.227 1.82181 0.904534 0
M  V30 5970 C 576.582 0.663258 1.80606 0
M  V30 5971 O 575.875 -0.341231 1.88537 0
M  V30 5972 C 576.069 3.11596 1.7505 0
M  V30 5973 C 575.898 4.39928 0.932372 0
M  V30 5974 C 574.668 5.01554 0.61417 0
M  V30 5975 C 576.866 5.13527 0.281936 0
M  V30 5976 N 574.848 6.13499 -0.221896 0
M  V30 5977 C 576.219 6.18603 -0.416037 0
M  V30 5978 C 578.274 4.97505 0.198345 0
M  V30 5979 C 576.977 7.09394 -1.18965 0
M  V30 5980 C 579.003 5.88725 -0.561887 0
M  V30 5981 C 578.365 6.93251 -1.24828 0
M  V30 5982 H 574.464 0.717858 0.310168 0
M  V30 5983 H 577.048 1.93932 0.172757 0
M  V30 5984 H 575.219 3.01068 2.45383 0
M  V30 5985 H 576.951 3.25369 2.4066 0
M  V30 5986 H 573.706 4.64174 0.940187 0
M  V30 5987 H 574.13 6.74065 -0.629735 0
M  V30 5988 H 578.772 4.16716 0.714665 0
M  V30 5989 H 576.49 7.8964 -1.71737 0
M  V30 5990 H 580.076 5.78401 -0.628009 0
M  V30 5991 H 578.956 7.62618 -1.82712 0
M  V30 5992 N 576.459 -0.456382 1.50847 0
M  V30 5993 C 577.706 -1.20736 1.62571 0
M  V30 5994 C 578.034 -1.9163 0.332904 0
M  V30 5995 O 577.289 -1.8343 -0.682058 0
M  V30 5996 C 577.588 -2.26336 2.76599 0
M  V30 5997 C 577.254 -1.7259 4.16562 0
M  V30 5998 C 575.916 -1.57654 4.54641 0
M  V30 5999 C 578.268 -1.32877 5.03977 0
M  V30 6000 C 575.596 -1.0145 5.77862 0
M  V30 6001 C 577.948 -0.7811 6.27759 0
M  V30 6002 C 576.612 -0.618488 6.64628 0
M  V30 6003 H 575.882 -0.441803 0.594888 0
M  V30 6004 H 578.529 -0.501169 1.84826 0
M  V30 6005 H 576.834 -3.0292 2.48489 0
M  V30 6006 H 578.531 -2.84227 2.82871 0
M  V30 6007 H 575.121 -1.85187 3.86528 0
M  V30 6008 H 579.305 -1.43245 4.75179 0
M  V30 6009 H 574.561 -0.876109 6.0509 0
M  V30 6010 H 578.735 -0.464783 6.94847 0
M  V30 6011 H 576.362 -0.180838 7.59985 0
M  V30 6012 N 577.937 -1.40673 -0.710563 0
M  V30 6013 C 579.214 -1.29718 -1.46398 0
M  V30 6014 C 579.594 0.082177 -2.1094 0
M  V30 6015 O 578.942 1.09536 -2.00534 0
M  V30 6016 C 579.152 -2.43967 -2.49562 0
M  V30 6017 C 580.5 -2.84436 -3.15248 0
M  V30 6018 O 581.524 -2.43597 -2.59883 0
M  V30 6019 O 580.383 -3.55008 -4.1549 0
M  V30 6020 H 577.477 -0.509697 -0.651258 0
M  V30 6021 H 580.023 -1.52603 -0.742312 0
M  V30 6022 H 578.795 -3.36076 -2.0042 0
M  V30 6023 H 578.418 -2.22879 -3.29258 0
M  V30 6024 N 579.415 0.9433 -1.26252 0
M  V30 6025 C 580.363 2.06302 -1.07434 0
M  V30 6026 C 581.357 1.694 -0.00189471 0
M  V30 6027 O 582.563 1.79302 -0.158408 0
M  V30 6028 H 578.938 0.675453 -0.330556 0
M  V30 6029 H 580.909 2.19326 -2.02333 0
M  V30 6030 C 579.658 3.40125 -0.721817 0
M  V30 6031 H 578.981 3.68996 -1.5389 0
M  V30 6032 H 580.421 4.19295 -0.629922 0
M  V30 6033 C 578.88 3.31993 0.572902 0
M  V30 6034 O 579.41 3.67945 1.61182 0
M  V30 6035 N 577.616 2.85099 0.562748 0
M  V30 6036 H 577.163 2.5604 -0.283092 0
M  V30 6037 H 577.121 2.80041 1.42915 0
M  V30 6038 N 580.893 1.08022 1.14757 0
M  V30 6039 C 581.825 0.664566 2.19354 0
M  V30 6040 C 582.838 -0.286374 1.60261 0
M  V30 6041 O 584.027 -0.0746362 1.78344 0
M  V30 6042 C 581.127 -0.0434634 3.38872 0
M  V30 6043 C 580.3 0.925381 4.27499 0
M  V30 6044 C 579.359 0.253398 5.2559 0
M  V30 6045 O 578.385 0.896581 5.62094 0
M  V30 6046 N 579.587 -0.998263 5.71852 0
M  V30 6047 H 582.352 1.56438 2.55631 0
M  V30 6048 H 579.913 0.965788 1.29939 0
M  V30 6049 H 581.905 -0.503857 4.01551 0
M  V30 6050 H 580.475 -0.845321 3.00954 0
M  V30 6051 H 579.695 1.56472 3.61815 0
M  V30 6052 H 580.983 1.58203 4.8358 0
M  V30 6053 H 580.381 -1.54063 5.44317 0
M  V30 6054 H 578.938 -1.40222 6.36538 0
M  V30 6055 N 582.371 -1.3172 0.865308 0
M  V30 6056 C 583.62 -1.96145 0.470098 0
M  V30 6057 C 583.933 -1.69182 -0.981674 0
M  V30 6058 O 585.139 -2.27431 -1.48281 0
M  V30 6059 C 583.595 -3.51129 0.789732 0
M  V30 6060 C 583.203 -3.86938 2.25795 0
M  V30 6061 C 584.947 -4.2197 0.462765 0
M  V30 6062 C 582.854 -5.35012 2.52024 0
M  V30 6063 H 581.784 -0.734105 0.172065 0
M  V30 6064 H 584.435 -1.49959 1.05757 0
M  V30 6065 H 582.817 -3.95781 0.131571 0
M  V30 6066 H 583.991 -3.5326 2.95879 0
M  V30 6067 H 582.306 -3.29149 2.55049 0
M  V30 6068 H 584.903 -5.30904 0.636019 0
M  V30 6069 H 585.246 -4.12005 -0.59645 0
M  V30 6070 H 585.779 -3.82936 1.07727 0
M  V30 6071 H 582.518 -5.50008 3.56611 0
M  V30 6072 H 582.038 -5.70058 1.8653 0
M  V30 6073 H 583.717 -6.0222 2.36515 0
M  V30 6074 N 583.85 -0.624285 -1.44708 0
M  V30 6075 C 584.8 0.106466 -2.27751 0
M  V30 6076 C 585.784 0.822703 -1.38277 0
M  V30 6077 O 586.976 0.709939 -1.62138 0
M  V30 6078 C 584.105 1.092 -3.25469 0
M  V30 6079 C 583.191 0.375737 -4.22432 0
M  V30 6080 N 583.582 -0.591881 -5.02325 0
M  V30 6081 C 581.88 0.621093 -4.41654 0
M  V30 6082 C 582.581 -1.01443 -5.72786 0
M  V30 6083 N 581.557 -0.354651 -5.42442 0
M  V30 6084 H 585.359 -0.636464 -2.86926 0
M  V30 6085 H 582.873 -0.44925 -1.56062 0
M  V30 6086 H 584.87 1.63006 -3.83712 0
M  V30 6087 H 583.529 1.8353 -2.67856 0
M  V30 6088 H 584.541 -0.969389 -5.08747 0
M  V30 6089 H 581.218 1.34779 -3.95147 0
M  V30 6090 H 582.608 -1.81345 -6.46965 0
M  V30 6091 N 585.328 1.53329 -0.364422 0
M  V30 6092 C 586.238 2.29414 0.490552 0
M  V30 6093 C 587.254 1.35335 1.09363 0
M  V30 6094 O 588.43 1.68391 1.10483 0
M  V30 6095 C 585.495 3.06772 1.61529 0
M  V30 6096 C 584.556 4.16516 1.03986 0
M  V30 6097 C 583.789 4.90176 2.111 0
M  V30 6098 O 584.012 4.63687 3.32191 0
M  V30 6099 O 582.946 5.76134 1.74222 0
M  V30 6100 H 586.772 3.03428 -0.12856 0
M  V30 6101 H 584.357 1.48843 -0.128837 0
M  V30 6102 H 586.239 3.55082 2.26924 0
M  V30 6103 H 584.914 2.35596 2.21983 0
M  V30 6104 H 583.821 3.7246 0.349856 0
M  V30 6105 H 585.154 4.89855 0.4799 0
M  V30 6106 N 586.806 0.0935595 1.57322 0
M  V30 6107 C 587.769 -0.851426 2.12799 0
M  V30 6108 C 588.769 -1.21187 1.0569 0
M  V30 6109 O 589.959 -1.14156 1.31583 0
M  V30 6110 C 587.091 -2.14779 2.64731 0
M  V30 6111 H 588.284 -0.369733 2.97612 0
M  V30 6112 H 585.837 -0.155417 1.55525 0
M  V30 6113 H 586.572 -2.67437 1.83434 0
M  V30 6114 H 586.357 -1.89907 3.43042 0
M  V30 6115 H 587.847 -2.82383 3.07651 0
M  V30 6116 N 588.284 -1.56567 -0.180126 0
M  V30 6117 C 589.561 -1.7235 -0.924931 0
M  V30 6118 C 589.941 -0.652523 -2.00762 0
M  V30 6119 O 589.289 0.334115 -2.26044 0
M  V30 6120 C 589.499 -3.1523 -1.49771 0
M  V30 6121 C 590.847 -3.75921 -1.97405 0
M  V30 6122 O 591.871 -3.18452 -1.59583 0
M  V30 6123 O 590.73 -4.7681 -2.67048 0
M  V30 6124 H 587.824 -0.703502 -0.434758 0
M  V30 6125 H 590.37 -1.6886 -0.168647 0
M  V30 6126 H 589.142 -3.84656 -0.718027 0
M  V30 6127 H 588.765 -3.23009 -2.31842 0
M  V30 6128 N 589.762 0.448376 -1.51087 0
M  V30 6129 C 590.99 1.22143 -1.66999 0
M  V30 6130 C 591.405 1.85283 -0.362699 0
M  V30 6131 O 590.762 1.70236 0.65772 0
M  V30 6132 C 590.813 2.31357 -2.7777 0
M  V30 6133 O 590.534 1.70801 -4.03434 0
M  V30 6134 C 592.035 3.21836 -3.04855 0
M  V30 6135 H 589.255 0.368558 -0.560719 0
M  V30 6136 H 591.799 0.532618 -1.97442 0
M  V30 6137 H 589.954 2.95973 -2.49958 0
M  V30 6138 H 590.368 2.42895 -4.64868 0
M  V30 6139 H 591.842 3.94627 -3.85971 0
M  V30 6140 H 592.319 3.81949 -2.16821 0
M  V30 6141 H 592.925 2.62933 -3.34285 0
M  V30 6142 N 591.24 1.41047 0.703093 0
M  V30 6143 C 592.468 1.4334 1.49202 0
M  V30 6144 C 592.883 0.0365596 1.88765 0
M  V30 6145 O 592.24 -0.942419 1.56284 0
M  V30 6146 C 592.291 2.33538 2.75939 0
M  V30 6147 O 592.012 3.67786 2.38045 0
M  V30 6148 C 593.513 2.44555 3.6974 0
M  V30 6149 H 590.733 0.488472 0.460039 0
M  V30 6150 H 593.277 1.85245 0.86629 0
M  V30 6151 H 591.432 1.94962 3.34766 0
M  V30 6152 H 591.846 4.15816 3.19683 0
M  V30 6153 H 593.32 3.11849 4.55471 0
M  V30 6154 H 593.797 1.47447 4.1371 0
M  V30 6155 H 594.403 2.83735 3.16819 0
M  V30 6156 N 592.718 -0.936591 1.26751 0
M  V30 6157 C 593.628 -2.06949 1.10496 0
M  V30 6158 C 594.644 -1.7396 0.037271 0
M  V30 6159 O 595.82 -1.99941 0.241944 0
M  V30 6160 C 592.885 -3.38612 0.744491 0
M  V30 6161 C 591.946 -3.85355 1.89209 0
M  V30 6162 C 591.179 -5.10735 1.54873 0
M  V30 6163 O 591.402 -5.68602 0.452546 0
M  V30 6164 O 590.336 -5.52632 2.38499 0
M  V30 6165 H 594.162 -2.23571 2.05547 0
M  V30 6166 H 591.747 -1.05428 1.05855 0
M  V30 6167 H 593.629 -4.17711 0.556396 0
M  V30 6168 H 592.304 -3.23218 -0.176582 0
M  V30 6169 H 591.211 -3.07182 2.13518 0
M  V30 6170 H 592.544 -4.05277 2.79305 0
M  V30 6171 N 594.196 -1.08629 -1.14182 0
M  V30 6172 C 595.473 -0.73002 -1.81466 0
M  V30 6173 C 595.853 0.785996 -1.95922 0
M  V30 6174 O 595.201 1.70535 -1.52086 0
M  V30 6175 C 595.411 -1.45957 -3.17014 0
M  V30 6176 C 596.759 -1.62008 -3.92477 0
M  V30 6177 O 597.783 -1.42141 -3.26611 0
M  V30 6178 O 596.642 -1.94806 -5.106 0
M  V30 6179 H 593.736 -0.261307 -0.784632 0
M  V30 6180 H 596.282 -1.188 -1.2118 0
M  V30 6181 H 595.054 -2.49221 -3.01669 0
M  V30 6182 H 594.677 -0.993222 -3.84995 0
M  V30 6183 N 595.674 1.31259 -0.872281 0
M  V30 6184 C 596.606 2.27396 -0.28697 0
M  V30 6185 C 597.619 1.53181 0.551297 0
M  V30 6186 O 598.808 1.74561 0.372914 0
M  V30 6187 C 595.908 3.33335 0.611617 0
M  V30 6188 C 595.081 4.36966 -0.194729 0
M  V30 6189 C 594.14 5.22387 0.632358 0
M  V30 6190 O 593.166 5.69169 0.0595691 0
M  V30 6191 N 594.368 5.46985 1.94391 0
M  V30 6192 H 597.133 2.78261 -1.11314 0
M  V30 6193 H 594.694 1.44306 -0.733994 0
M  V30 6194 H 596.686 3.87398 1.17068 0
M  V30 6195 H 595.256 2.82496 1.33846 0
M  V30 6196 H 594.476 3.82945 -0.935241 0
M  V30 6197 H 595.764 5.03273 -0.747935 0
M  V30 6198 H 595.162 5.10737 2.43237 0
M  V30 6199 H 593.719 6.03973 2.45071 0
M  V30 6200 N 597.152 0.631951 1.44375 0
M  V30 6201 C 598.377 0.142146 2.06912 0
M  V30 6202 C 598.802 -1.17456 1.4692 0
M  V30 6203 O 598.16 -1.72074 0.570975 0
M  V30 6204 C 598.208 0.0417952 3.60576 0
M  V30 6205 O 597.312 -1.00194 4.00044 0
M  V30 6206 H 596.653 0.0851491 0.658518 0
M  V30 6207 H 599.183 0.868863 1.85235 0
M  V30 6208 H 599.193 -0.148517 4.0773 0
M  V30 6209 H 597.868 1.0031 4.03622 0
M  V30 6210 H 596.445 -0.786131 3.64519 0
M  V30 6211 N 598.631 -1.53133 0.372548 0
M  V30 6212 C 599.879 -2.00958 -0.214534 0
M  V30 6213 C 600.2 -1.26135 -1.48711 0
M  V30 6214 O 599.47 -0.376597 -1.92246 0
M  V30 6215 H 598.05 -0.742456 -0.0822664 0
M  V30 6216 H 600.712 -1.88367 0.500385 0
M  V30 6217 H 599.808 -3.09031 -0.436605 0
M  V30 6218 N 600.109 -0.101901 -1.5727 0
M  V30 6219 C 601.072 0.840129 -2.13247 0
M  V30 6220 C 602.072 1.20625 -1.06331 0
M  V30 6221 O 603.262 1.13456 -1.32186 0
M  V30 6222 C 600.394 2.13372 -2.65867 0
M  V30 6223 H 601.587 0.353945 -2.97804 0
M  V30 6224 H 599.14 0.147167 -1.55606 0
M  V30 6225 H 599.875 2.66461 -1.84849 0
M  V30 6226 H 599.66 1.88085 -3.44044 0
M  V30 6227 H 601.15 2.80748 -3.09145 0
M  V30 6228 N 601.587 1.56661 0.17182 0
M  V30 6229 C 602.815 1.861 0.904115 0
M  V30 6230 C 603.23 0.687227 1.75848 0
M  V30 6231 O 602.587 -0.343671 1.79235 0
M  V30 6232 C 602.638 3.14568 1.78127 0
M  V30 6233 O 602.359 4.27422 0.961366 0
M  V30 6234 C 603.86 3.5735 2.62327 0
M  V30 6235 H 601.08 0.617445 0.262684 0
M  V30 6236 H 603.624 2.03775 0.172068 0
M  V30 6237 H 601.779 2.98721 2.46666 0
M  V30 6238 H 602.193 5.00725 1.56123 0
M  V30 6239 H 603.667 4.50144 3.1949 0
M  V30 6240 H 604.144 2.81445 3.37173 0
M  V30 6241 H 604.75 3.75807 1.99121 0
M  V30 6242 N 603.065 -0.440357 1.51323 0
M  V30 6243 C 604.312 -1.19004 1.63842 0
M  V30 6244 C 604.64 -1.91266 0.35321 0
M  V30 6245 O 603.895 -1.84143 -0.662565 0
M  V30 6246 C 604.194 -2.2339 2.78984 0
M  V30 6247 C 603.86 -1.68162 4.18369 0
M  V30 6248 C 602.522 -1.52823 4.56288 0
M  V30 6249 C 604.874 -1.27524 5.05358 0
M  V30 6250 C 602.202 -0.953157 5.78906 0
M  V30 6251 C 604.554 -0.714474 6.28552 0
M  V30 6252 C 603.218 -0.547961 6.65247 0
M  V30 6253 H 602.488 -0.435468 0.59954 0
M  V30 6254 H 605.135 -0.481538 1.85347 0
M  V30 6255 H 603.44 -3.00267 2.51688 0
M  V30 6256 H 605.137 -2.81211 2.85869 0
M  V30 6257 H 601.727 -1.81077 3.8847 0
M  V30 6258 H 605.911 -1.38197 4.76671 0
M  V30 6259 H 601.167 -0.811882 6.05986 0
M  V30 6260 H 605.341 -0.391059 6.95301 0
M  V30 6261 H 602.968 -0.100222 7.60134 0
M  V30 6262 N 604.543 -1.41418 -0.695603 0
M  V30 6263 C 605.82 -1.31264 -1.45014 0
M  V30 6264 C 606.2 0.0597994 -2.11015 0
M  V30 6265 O 605.548 1.07403 -2.01685 0
M  V30 6266 C 605.758 -2.466 -2.4696 0
M  V30 6267 C 607.106 -2.87763 -3.12214 0
M  V30 6268 O 608.13 -2.46339 -2.57285 0
M  V30 6269 O 606.989 -3.59395 -4.11701 0
M  V30 6270 H 604.083 -0.516576 -0.645816 0
M  V30 6271 H 606.629 -1.53382 -0.726084 0
M  V30 6272 H 605.401 -3.38183 -1.96845 0
M  V30 6273 H 605.024 -2.26358 -3.26876 0
M  V30 6274 N 606.021 0.929856 -1.27246 0
M  V30 6275 C 606.968 2.03017 -1.09785 0
M  V30 6276 C 607.938 1.661 0.000456744 0
M  V30 6277 O 609.123 1.90116 -0.161462 0
M  V30 6278 C 606.263 3.36878 -0.748816 0
M  V30 6279 C 605.376 3.86763 -1.92453 0
M  V30 6280 C 604.511 5.09061 -1.51758 0
M  V30 6281 C 603.55 5.51237 -2.66091 0
M  V30 6282 N 602.687 6.64732 -2.25999 0
M  V30 6283 H 607.527 2.17285 -2.03939 0
M  V30 6284 H 605.064 1.06448 -1.01524 0
M  V30 6285 H 607.022 4.13855 -0.527283 0
M  V30 6286 H 605.652 3.22424 0.155771 0
M  V30 6287 H 604.704 3.06086 -2.25867 0
M  V30 6288 H 606.016 4.13994 -2.78227 0
M  V30 6289 H 605.17 5.93532 -1.25716 0
M  V30 6290 H 603.909 4.83602 -0.630896 0
M  V30 6291 H 602.914 4.65316 -2.92849 0
M  V30 6292 H 604.139 5.78692 -3.55377 0
M  V30 6293 H 602.085 6.40935 -1.3978 0
M  V30 6294 H 602.002 6.91607 -3.05313 0
M  V30 6295 H 603.27 7.52549 -2.03199 0
M  V30 6296 N 607.499 1.09233 1.13605 0
M  V30 6297 C 608.915 0.82163 1.36826 0
M  V30 6298 C 609.115 -0.565021 1.93416 0
M  V30 6299 O 608.171 -1.32026 2.15234 0
M  V30 6300 C 609.484 1.91124 2.32147 0
M  V30 6301 C 611.032 1.93824 2.45767 0
M  V30 6302 C 611.507 3.01923 3.44393 0
M  V30 6303 N 612.998 3.01149 3.51942 0
M  V30 6304 C 613.733 3.81434 4.2813 0
M  V30 6305 N 613.229 4.71621 5.07489 0
M  V30 6306 N 615.022 3.69702 4.23411 0
M  V30 6307 H 607.173 1.98633 0.752234 0
M  V30 6308 H 609.436 0.862482 0.393482 0
M  V30 6309 H 609.142 2.90862 1.97717 0
M  V30 6310 H 609.016 1.78777 3.32142 0
M  V30 6311 H 611.403 0.94726 2.79483 0
M  V30 6312 H 611.484 2.10248 1.45703 0
M  V30 6313 H 611.128 4.01232 3.11408 0
M  V30 6314 H 611.058 2.82742 4.44257 0
M  V30 6315 H 613.549 2.35789 2.95317 0
M  V30 6316 H 613.862 5.29468 5.62924 0
M  V30 6317 H 612.207 4.75658 5.06729 0
M  V30 6318 H 615.398 2.98606 3.60489 0
M  V30 6319 H 615.571 4.32509 4.82535 0
M  V30 6320 N 608.977 -1.30795 0.87923 0
M  V30 6321 C 610.202 -2.01063 0.508769 0
M  V30 6322 C 610.627 -1.65508 -0.893803 0
M  V30 6323 O 609.985 -0.868616 -1.59138 0
M  V30 6324 C 610.033 -3.54054 0.683991 0
M  V30 6325 O 609.137 -4.11498 -0.272654 0
M  V30 6326 H 608.478 -0.632786 0.201191 0
M  V30 6327 H 611.008 -1.66776 1.18519 0
M  V30 6328 H 611.018 -4.03845 0.580798 0
M  V30 6329 H 609.693 -3.79271 1.70665 0
M  V30 6330 H 608.27 -3.72695 -0.12364 0
M  V30 6331 N 610.455 -0.639598 -1.44038 0
M  V30 6332 C 611.866 -0.228866 -1.85292 0
M  V30 6333 C 612.217 1.22161 -1.53529 0
M  V30 6334 O 611.342 1.93064 -0.977518 0
M  V30 6335 C 611.937 -0.408592 -3.36327 0
M  V30 6336 C 610.496 -0.0522953 -3.76364 0
M  V30 6337 C 609.643 -0.717959 -2.67844 0
M  V30 6338 H 612.594 -0.844194 -1.34384 0
M  V30 6339 H 612.615 0.349968 -3.78887 0
M  V30 6340 H 612.127 -1.46435 -3.59414 0
M  V30 6341 H 610.228 1.0014 -3.58891 0
M  V30 6342 H 610.341 -0.468261 -4.76806 0
M  V30 6343 H 608.705 -0.152459 -2.54243 0
M  V30 6344 H 609.488 -1.77648 -2.93762 0
M  V30 6345 N 611.933 1.52934 -0.380664 0
M  V30 6346 C 613.161 2.05886 0.204599 0
M  V30 6347 C 613.576 1.25305 1.41223 0
M  V30 6348 O 612.933 0.297504 1.80059 0
M  V30 6349 C 612.984 3.56764 0.583249 0
M  V30 6350 O 612.705 4.34292 -0.576398 0
M  V30 6351 C 614.206 4.2603 1.2253 0
M  V30 6352 H 611.426 0.670193 0.0328991 0
M  V30 6353 H 613.97 1.97148 -0.543397 0
M  V30 6354 H 612.125 3.65603 1.28115 0
M  V30 6355 H 612.539 5.23819 -0.267119 0
M  V30 6356 H 614.013 5.32868 1.44068 0
M  V30 6357 H 614.49 3.80698 2.19011 0
M  V30 6358 H 615.096 4.21485 0.568407 0
M  V30 6359 N 613.412 0.11024 1.57214 0
M  V30 6360 C 614.658 -0.544479 1.95977 0
M  V30 6361 C 615.013 -1.64845 0.992171 0
M  V30 6362 O 614.306 -1.91589 0.0206981 0
M  V30 6363 C 614.5 -1.13102 3.39032 0
M  V30 6364 C 614.329 -0.0854079 4.49619 0
M  V30 6365 C 613.099 0.343373 5.04132 0
M  V30 6366 C 615.297 0.692232 5.0962 0
M  V30 6367 N 613.279 1.37567 5.98288 0
M  V30 6368 C 614.65 1.57596 5.99636 0
M  V30 6369 C 616.705 0.744085 4.92309 0
M  V30 6370 C 615.408 2.50701 6.74197 0
M  V30 6371 C 617.434 1.6628 5.67543 0
M  V30 6372 C 616.796 2.53412 6.57238 0
M  V30 6373 H 612.895 -0.169124 0.763493 0
M  V30 6374 H 615.479 0.196326 1.93708 0
M  V30 6375 H 613.65 -1.84158 3.41965 0
M  V30 6376 H 615.382 -1.74934 3.64939 0
M  V30 6377 H 612.137 -0.0473277 4.73576 0
M  V30 6378 H 612.561 1.89048 6.50069 0
M  V30 6379 H 617.203 0.0845825 4.22715 0
M  V30 6380 H 614.921 3.17669 7.43043 0
M  V30 6381 H 618.507 1.70825 5.56156 0
M  V30 6382 H 617.387 3.23347 7.14434 0
M  V30 6383 N 614.89 -1.56749 -0.16351 0
M  V30 6384 C 616.118 -1.86577 -0.894233 0
M  V30 6385 C 616.533 -0.696543 -1.75481 0
M  V30 6386 O 615.89 0.334161 -1.79415 0
M  V30 6387 C 615.941 -3.15508 -1.76456 0
M  V30 6388 O 615.662 -4.27926 -0.938685 0
M  V30 6389 C 617.163 -3.58737 -2.60428 0
M  V30 6390 H 614.383 -0.618829 -0.259405 0
M  V30 6391 H 616.927 -2.03863 -0.161259 0
M  V30 6392 H 615.082 -3.00025 -2.45079 0
M  V30 6393 H 615.496 -5.01546 -1.53465 0
M  V30 6394 H 616.97 -4.51832 -3.17099 0
M  V30 6395 H 617.447 -2.83229 -3.35675 0
M  V30 6396 H 618.053 -3.76858 -1.97125 0
M  V30 6397 N 616.368 0.432326 -1.51554 0
M  V30 6398 C 617.331 1.50765 -1.72634 0
M  V30 6399 C 618.331 1.49334 -0.596314 0
M  V30 6400 O 619.521 1.51268 -0.863925 0
M  V30 6401 C 616.653 2.90284 -1.7874 0
M  V30 6402 H 617.846 1.33377 -2.68609 0
M  V30 6403 H 615.399 0.661329 -1.4162 0
M  V30 6404 H 616.134 3.13071 -0.845977 0
M  V30 6405 H 615.919 2.92727 -2.6087 0
M  V30 6406 H 617.409 3.68282 -1.96871 0
M  V30 6407 N 617.846 1.41785 0.688094 0
M  V30 6408 C 618.776 1.47 1.8142 0
M  V30 6409 C 619.757 0.327881 1.6691 0
M  V30 6410 O 620.942 0.540362 1.86531 0
M  V30 6411 C 618.072 1.35876 3.19617 0
M  V30 6412 C 617.026 2.47976 3.48844 0
M  V30 6413 C 616.352 2.21915 4.86475 0
M  V30 6414 C 617.652 3.90309 3.47068 0
M  V30 6415 H 619.346 2.41247 1.77314 0
M  V30 6416 H 616.892 1.16116 0.851651 0
M  V30 6417 H 618.845 1.38134 3.98117 0
M  V30 6418 H 617.569 0.38116 3.24368 0
M  V30 6419 H 616.228 2.45013 2.72698 0
M  V30 6420 H 615.876 1.2248 4.8786 0
M  V30 6421 H 615.576 2.97037 5.06994 0
M  V30 6422 H 617.1 2.25901 5.67275 0
M  V30 6423 H 618.514 3.94947 4.1556 0
M  V30 6424 H 616.911 4.65175 3.7912 0
M  V30 6425 H 617.981 4.17927 2.45896 0
M  V30 6426 N 619.324 -0.923095 1.27737 0
M  V30 6427 C 620.549 -1.71054 1.17283 0
M  V30 6428 C 620.974 -1.86208 -0.266153 0
M  V30 6429 O 620.332 -1.36545 -1.1927 0
M  V30 6430 C 620.38 -3.0854 1.86642 0
M  V30 6431 O 619.484 -3.95528 1.16752 0
M  V30 6432 H 618.825 -0.524136 0.407649 0
M  V30 6433 H 621.355 -1.15487 1.6889 0
M  V30 6434 H 621.365 -3.58828 1.94182 0
M  V30 6435 H 620.04 -2.96828 2.91317 0
M  V30 6436 H 618.617 -3.53967 1.17312 0
M  V30 6437 N 620.802 -1.09834 -1.13024 0
M  V30 6438 C 622.218 -0.828875 -1.36388 0
M  V30 6439 C 622.418 0.554756 -1.93713 0
M  V30 6440 O 621.474 1.30882 -2.15931 0
M  V30 6441 C 622.787 -1.92352 -2.3113 0
M  V30 6442 C 624.335 -1.95124 -2.44735 0
M  V30 6443 C 624.81 -3.03745 -3.42787 0
M  V30 6444 N 626.301 -3.03012 -3.5034 0
M  V30 6445 C 627.036 -3.83699 -4.26101 0
M  V30 6446 N 626.532 -4.74306 -5.04981 0
M  V30 6447 N 628.325 -3.71942 -4.21445 0
M  V30 6448 H 620.476 -1.99029 -0.74169 0
M  V30 6449 H 622.739 -0.864557 -0.388903 0
M  V30 6450 H 622.445 -2.91906 -1.96172 0
M  V30 6451 H 622.319 -1.80536 -3.3119 0
M  V30 6452 H 624.706 -0.962069 -2.78977 0
M  V30 6453 H 624.787 -2.11018 -1.44586 0
M  V30 6454 H 624.431 -4.02878 -3.09276 0
M  V30 6455 H 624.361 -2.85094 -4.42752 0
M  V30 6456 H 626.852 -2.37352 -2.94062 0
M  V30 6457 H 627.165 -5.32446 -5.60108 0
M  V30 6458 H 625.51 -4.78339 -5.04199 0
M  V30 6459 H 628.701 -3.00513 -3.589 0
M  V30 6460 H 628.874 -4.35062 -4.80235 0
M  V30 6461 N 622.28 1.30327 -0.886154 0
M  V30 6462 C 623.529 1.95373 -0.501243 0
M  V30 6463 C 623.842 1.70722 0.954634 0
M  V30 6464 O 625.048 2.29761 1.44644 0
M  V30 6465 C 623.504 3.49828 -0.845493 0
M  V30 6466 C 623.112 3.83296 -2.31922 0
M  V30 6467 C 624.856 4.2118 -0.529838 0
M  V30 6468 C 622.763 5.30935 -2.60504 0
M  V30 6469 H 621.693 0.731274 -0.183722 0
M  V30 6470 H 624.344 1.48258 -1.08129 0
M  V30 6471 H 622.726 3.95522 -0.19452 0
M  V30 6472 H 623.9 3.48508 -3.01461 0
M  V30 6473 H 622.215 3.2505 -2.60253 0
M  V30 6474 H 624.812 5.29825 -0.720401 0
M  V30 6475 H 625.155 4.12902 0.530828 0
M  V30 6476 H 625.688 3.81173 -1.13806 0
M  V30 6477 H 622.427 5.44265 -3.65316 0
M  V30 6478 H 621.947 5.67019 -1.95575 0
M  V30 6479 H 623.626 5.98381 -2.46066 0
M  V30 6480 N 623.758 0.647228 1.43697 0
M  V30 6481 C 624.721 -0.0385101 2.29168 0
M  V30 6482 C 625.721 -0.756487 1.41894 0
M  V30 6483 O 626.911 -0.598641 1.63591 0
M  V30 6484 C 624.043 -1.06524 3.23829 0
M  V30 6485 H 625.236 0.713445 2.9129 0
M  V30 6486 H 622.789 0.408153 1.50877 0
M  V30 6487 H 623.524 -1.84664 2.66589 0
M  V30 6488 H 623.309 -0.554147 3.88164 0
M  V30 6489 H 624.799 -1.54432 3.87996 0
M  V30 6490 N 625.236 -1.5273 0.388769 0
M  V30 6491 C 626.484 -2.01174 -0.193208 0
M  V30 6492 C 626.805 -1.27705 -1.47365 0
M  V30 6493 O 626.075 -0.396966 -1.91836 0
M  V30 6494 H 624.655 -0.743287 -0.0743871 0
M  V30 6495 H 627.317 -1.87826 0.520336 0
M  V30 6496 H 626.413 -3.09477 -0.403803 0
M  V30 6497 N 626.714 -0.118576 -1.57153 0
M  V30 6498 C 627.644 0.828436 -2.1831 0
M  V30 6499 C 628.625 1.27758 -1.12303 0
M  V30 6500 O 629.81 1.34026 -1.40537 0
M  V30 6501 C 626.94 2.07876 -2.78217 0
M  V30 6502 C 625.894 1.76742 -3.89803 0
M  V30 6503 C 625.22 3.08801 -4.36516 0
M  V30 6504 C 626.52 1.03606 -5.11921 0
M  V30 6505 H 628.214 0.318824 -2.97698 0
M  V30 6506 H 625.76 0.151911 -1.43196 0
M  V30 6507 H 627.713 2.74584 -3.19659 0
M  V30 6508 H 626.437 2.61161 -1.96118 0
M  V30 6509 H 625.096 1.12424 -3.48936 0
M  V30 6510 H 624.744 3.6002 -3.51276 0
M  V30 6511 H 624.444 2.88743 -5.11763 0
M  V30 6512 H 625.968 3.76627 -4.80608 0
M  V30 6513 H 627.382 1.60467 -5.50385 0
M  V30 6514 H 625.779 0.936454 -5.92748 0
M  V30 6515 H 626.849 0.0227421 -4.84895 0
M  V30 6516 N 628.193 1.56834 0.155195 0
M  V30 6517 C 629.433 1.84701 0.875488 0
M  V30 6518 C 629.797 0.701747 1.78716 0
M  V30 6519 O 630.998 0.861263 2.54629 0
M  V30 6520 C 629.269 3.1773 1.63654 0
M  V30 6521 S 630.828 3.67128 2.40338 0
M  V30 6522 H 627.646 0.647856 0.292923 0
M  V30 6523 H 630.248 1.95026 0.136024 0
M  V30 6524 H 628.952 3.99059 0.958117 0
M  V30 6525 H 628.483 3.10388 2.41708 0
M  V30 6526 H 630.498 3.35739 3.65368 0
M  V30 6527 N 629.671 -0.424282 1.51781 0
M  V30 6528 C 630.619 -1.53649 1.74628 0
M  V30 6529 C 631.613 -1.57923 0.612922 0
M  V30 6530 O 632.819 -1.61511 0.794618 0
M  V30 6531 H 629.194 -0.510706 0.551981 0
M  V30 6532 H 631.165 -1.31558 2.67834 0
M  V30 6533 C 629.914 -2.91177 1.9003 0
M  V30 6534 H 629.237 -2.88625 2.76651 0
M  V30 6535 H 630.677 -3.6833 2.10021 0
M  V30 6536 C 629.136 -3.30303 0.663435 0
M  V30 6537 O 629.666 -4.01315 -0.175812 0
M  V30 6538 N 627.872 -2.86201 0.503723 0
M  V30 6539 H 627.419 -2.28583 1.18776 0
M  V30 6540 H 627.377 -3.12741 -0.322575 0
M  V30 6541 N 631.149 -1.42148 -0.680565 0
M  V30 6542 C 632.565 -1.24947 -0.992995 0
M  V30 6543 C 632.765 -0.149527 -2.00944 0
M  V30 6544 O 631.821 0.481145 -2.47873 0
M  V30 6545 C 633.134 -2.60426 -1.5033 0
M  V30 6546 C 634.682 -2.67733 -1.62137 0
M  V30 6547 C 635.157 -4.03564 -2.16565 0
M  V30 6548 N 636.648 -4.05488 -2.23905 0
M  V30 6549 C 637.383 -5.07401 -2.67081 0
M  V30 6550 N 636.879 -6.19698 -3.09751 0
M  V30 6551 N 638.672 -4.94758 -2.66778 0
M  V30 6552 H 630.823 -2.12399 -0.0074788 0
M  V30 6553 H 633.086 -0.94571 -0.0658529 0
M  V30 6554 H 632.792 -3.41743 -0.830947 0
M  V30 6555 H 632.666 -2.83949 -2.483 0
M  V30 6556 H 635.053 -1.86765 -2.2848 0
M  V30 6557 H 635.134 -2.48004 -0.626713 0
M  V30 6558 H 634.778 -4.84987 -1.50833 0
M  V30 6559 H 634.708 -4.20641 -3.1681 0
M  V30 6560 H 637.199 -3.24415 -1.93812 0
M  V30 6561 H 637.512 -6.93318 -3.41365 0
M  V30 6562 H 635.857 -6.23212 -3.07623 0
M  V30 6563 H 639.048 -4.06105 -2.32801 0
M  V30 6564 H 639.221 -5.74317 -3.00107 0
M  V30 6565 N 632.627 0.916307 -1.28225 0
M  V30 6566 C 633.59 1.99996 -1.11957 0
M  V30 6567 C 634.59 1.60688 -0.0600152 0
M  V30 6568 O 635.78 1.71499 -0.30558 0
M  V30 6569 C 632.912 3.33458 -0.708411 0
M  V30 6570 H 634.105 2.15858 -2.08196 0
M  V30 6571 H 631.658 1.09863 -1.11175 0
M  V30 6572 H 632.393 3.23297 0.254859 0
M  V30 6573 H 632.178 3.63349 -1.47377 0
M  V30 6574 H 633.668 4.13014 -0.617164 0
M  V30 6575 N 634.105 1.10431 1.1244 0
M  V30 6576 C 635.351 0.847972 1.84221 0
M  V30 6577 C 635.684 -0.624903 1.83871 0
M  V30 6578 O 634.959 -1.46074 1.28423 0
M  V30 6579 C 635.242 1.39695 3.319 0
M  V30 6580 C 635.095 2.93668 3.40704 0
M  V30 6581 C 636.414 1.03924 4.27654 0
M  V30 6582 H 633.533 0.309502 0.668863 0
M  V30 6583 H 636.175 1.36745 1.31912 0
M  V30 6584 H 634.325 0.955095 3.76577 0
M  V30 6585 H 635.997 3.46379 3.04662 0
M  V30 6586 H 634.24 3.30272 2.81252 0
M  V30 6587 H 634.911 3.27162 4.446 0
M  V30 6588 H 637.387 1.42049 3.91102 0
M  V30 6589 H 636.263 1.45027 5.29394 0
M  V30 6590 H 636.524 -0.051336 4.4207 0
M  V30 6591 N 635.583 -1.29855 0.893053 0
M  V30 6592 C 636.83 -1.95826 0.515585 0
M  V30 6593 C 637.158 -1.70451 -0.936842 0
M  V30 6594 O 636.413 -1.00657 -1.67829 0
M  V30 6595 C 636.712 -3.49515 0.746588 0
M  V30 6596 C 636.378 -3.94955 2.17535 0
M  V30 6597 C 635.04 -4.07073 2.56603 0
M  V30 6598 C 637.392 -4.18536 3.10607 0
M  V30 6599 C 634.72 -4.40138 3.87938 0
M  V30 6600 C 637.072 -4.53073 4.41484 0
M  V30 6601 C 635.736 -4.634 4.80434 0
M  V30 6602 H 635.006 -0.71658 0.188666 0
M  V30 6603 H 637.653 -1.54574 1.13045 0
M  V30 6604 H 635.958 -3.9177 0.0487551 0
M  V30 6605 H 637.655 -3.98644 0.434009 0
M  V30 6606 H 634.245 -3.86035 1.86212 0
M  V30 6607 H 638.429 -4.08646 2.81641 0
M  V30 6608 H 633.685 -4.46335 4.17846 0
M  V30 6609 H 637.859 -4.70269 5.13634 0
M  V30 6610 H 635.486 -4.88775 5.82239 0
M  V30 6611 N 637.061 -0.65484 -1.43351 0
M  V30 6612 C 638.008 0.0357713 -2.30772 0
M  V30 6613 C 638.978 0.813035 -1.44841 0
M  V30 6614 O 640.163 0.789314 -1.73708 0
M  V30 6615 C 637.303 0.995084 -3.30442 0
M  V30 6616 C 636.416 0.21375 -4.31471 0
M  V30 6617 C 635.551 1.16701 -5.18222 0
M  V30 6618 C 634.59 0.376201 -6.10943 0
M  V30 6619 N 633.727 1.28113 -6.90313 0
M  V30 6620 H 638.567 -0.71559 -2.89281 0
M  V30 6621 H 636.104 -0.364645 -1.42509 0
M  V30 6622 H 638.062 1.5649 -3.86739 0
M  V30 6623 H 636.692 1.7133 -2.7358 0
M  V30 6624 H 635.744 -0.472377 -3.77456 0
M  V30 6625 H 637.056 -0.401103 -4.97185 0
M  V30 6626 H 636.21 1.8074 -5.79153 0
M  V30 6627 H 634.949 1.81577 -4.52638 0
M  V30 6628 H 633.954 -0.277534 -5.49099 0
M  V30 6629 H 635.179 -0.268178 -6.7857 0
M  V30 6630 H 633.125 1.91666 -6.27376 0
M  V30 6631 H 633.042 0.720879 -7.52555 0
M  V30 6632 H 634.31 1.90962 -7.55747 0
M  V30 6633 N 638.539 1.52521 -0.396863 0
M  V30 6634 C 639.502 2.2527 0.422604 0
M  V30 6635 C 640.502 1.27184 0.983913 0
M  V30 6636 O 641.692 1.51222 0.864723 0
M  V30 6637 C 638.824 3.01356 1.59365 0
M  V30 6638 H 640.017 2.99133 -0.214416 0
M  V30 6639 H 637.57 1.55587 -0.149128 0
M  V30 6640 H 638.305 2.31813 2.26789 0
M  V30 6641 H 638.09 3.73357 1.19779 0
M  V30 6642 H 639.58 3.56571 2.17363 0
M  V30 6643 N 640.017 0.126909 1.57088 0
M  V30 6644 C 641.265 -0.528123 1.95078 0
M  V30 6645 C 641.586 -1.66708 1.0116 0
M  V30 6646 O 640.856 -1.95777 0.0693527 0
M  V30 6647 H 639.436 -0.198087 0.720257 0
M  V30 6648 H 642.098 0.197703 1.93895 0
M  V30 6649 H 641.194 -0.917507 2.98309 0
M  V30 6650 N 641.495 -1.56914 -0.146875 0
M  V30 6651 C 642.427 -1.94878 -1.20645 0
M  V30 6652 C 643.44 -0.844633 -1.39175 0
M  V30 6653 O 644.629 -1.12304 -1.38744 0
M  V30 6654 C 641.729 -2.20769 -2.57127 0
M  V30 6655 C 640.902 -3.52053 -2.59572 0
M  V30 6656 C 639.961 -3.66482 -3.77594 0
M  V30 6657 O 638.987 -4.38873 -3.62462 0
M  V30 6658 N 640.189 -3.03156 -4.95052 0
M  V30 6659 H 642.954 -2.86374 -0.883757 0
M  V30 6660 H 640.515 -1.58366 -0.336436 0
M  V30 6661 H 642.507 -2.27664 -3.34591 0
M  V30 6662 H 641.077 -1.35538 -2.81688 0
M  V30 6663 H 640.297 -3.56598 -1.68023 0
M  V30 6664 H 641.585 -4.38396 -2.58238 0
M  V30 6665 H 640.983 -2.44258 -5.10249 0
M  V30 6666 H 639.54 -3.15611 -5.70292 0
M  V30 6667 N 642.974 0.416227 -1.52004 0
M  V30 6668 C 643.884 1.53147 -1.77717 0
M  V30 6669 C 644.9 1.609 -0.662368 0
M  V30 6670 O 646.076 1.77747 -0.946991 0
M  V30 6671 C 643.141 2.88948 -1.91598 0
M  V30 6672 C 642.202 2.9114 -3.15493 0
M  V30 6673 C 641.435 4.20464 -3.28703 0
M  V30 6674 O 641.658 5.13981 -2.47345 0
M  V30 6675 O 640.592 4.29368 -4.21813 0
M  V30 6676 H 644.418 1.34357 -2.72363 0
M  V30 6677 H 642.003 0.601373 -1.36762 0
M  V30 6678 H 643.885 3.69505 -2.02593 0
M  V30 6679 H 642.56 3.07821 -1.00141 0
M  V30 6680 H 641.467 2.09461 -3.09962 0
M  V30 6681 H 642.8 2.77216 -4.06709 0
M  V30 6682 N 644.452 1.42507 0.673017 0
M  V30 6683 C 645.4 1.46362 1.80779 0
M  V30 6684 C 646.394 0.339166 1.6597 0
M  V30 6685 O 647.6 0.512262 1.72557 0
M  V30 6686 H 643.975 0.458433 0.596107 0
M  V30 6687 H 645.946 2.41953 1.74646 0
M  V30 6688 C 644.695 1.38462 3.18941 0
M  V30 6689 H 644.018 2.24283 3.30964 0
M  V30 6690 H 645.458 1.45221 3.98355 0
M  V30 6691 C 643.917 0.0996354 3.36753 0
M  V30 6692 O 644.447 -0.846894 3.92671 0
M  V30 6693 N 642.653 0.016211 2.90595 0
M  V30 6694 H 642.2 0.78725 2.45276 0
M  V30 6695 H 642.158 -0.84291 3.0289 0
M  V30 6696 N 645.93 -0.909495 1.28709 0
M  V30 6697 C 647.179 -1.65365 1.15487 0
M  V30 6698 C 647.492 -1.93364 -0.294941 0
M  V30 6699 O 648.698 -2.65905 -0.548338 0
M  V30 6700 C 647.154 -2.97923 2.01916 0
M  V30 6701 C 646.762 -2.77556 3.51663 0
M  V30 6702 C 648.506 -3.75814 1.97393 0
M  V30 6703 C 646.413 -4.0578 4.30229 0
M  V30 6704 H 645.343 -0.620323 0.42862 0
M  V30 6705 H 647.994 -1.00894 1.53273 0
M  V30 6706 H 646.376 -3.63552 1.5699 0
M  V30 6707 H 647.55 -2.2058 4.04575 0
M  V30 6708 H 645.865 -2.13072 3.57756 0
M  V30 6709 H 648.462 -4.70866 2.53357 0
M  V30 6710 H 648.805 -4.05277 0.951643 0
M  V30 6711 H 649.338 -3.1701 2.40311 0
M  V30 6712 H 646.077 -3.81488 5.33055 0
M  V30 6713 H 645.597 -4.62351 3.82089 0
M  V30 6714 H 647.276 -4.74004 4.40374 0
M  V30 6715 N 647.408 -1.11026 -1.11852 0
M  V30 6716 C 648.633 -0.879064 -1.87849 0
M  V30 6717 C 649.058 0.565406 -1.79401 0
M  V30 6718 O 648.416 1.39886 -1.15333 0
M  V30 6719 C 648.464 -1.33985 -3.34784 0
M  V30 6720 O 647.568 -0.508803 -4.09249 0
M  V30 6721 H 646.909 -0.316992 -0.583448 0
M  V30 6722 H 649.439 -1.47863 -1.41413 0
M  V30 6723 H 649.449 -1.33248 -3.85628 0
M  V30 6724 H 648.124 -2.39172 -3.40249 0
M  V30 6725 H 646.701 -0.581913 -3.68332 0
M  V30 6726 N 648.886 1.2938 -0.899927 0
M  V30 6727 C 650.132 1.9584 -0.526742 0
M  V30 6728 C 650.465 1.70774 0.924651 0
M  V30 6729 O 649.74 1.02084 1.65557 0
M  V30 6730 C 650.023 3.50638 -0.820062 0
M  V30 6731 C 649.876 3.85161 -2.32317 0
M  V30 6732 C 651.195 4.3903 -0.30671 0
M  V30 6733 H 648.314 0.711322 -0.192848 0
M  V30 6734 H 650.956 1.52992 -1.12665 0
M  V30 6735 H 649.106 3.87265 -0.309491 0
M  V30 6736 H 650.778 3.58477 -2.9033 0
M  V30 6737 H 649.021 3.32696 -2.78381 0
M  V30 6738 H 649.692 4.93204 -2.47898 0
M  V30 6739 H 652.168 4.09396 -0.743908 0
M  V30 6740 H 651.044 5.46226 -0.541144 0
M  V30 6741 H 651.305 4.34937 0.792588 0
M  V30 6742 N 650.364 0.662433 1.43002 0
M  V30 6743 C 651.589 0.186003 2.06564 0
M  V30 6744 C 652.014 -1.14314 1.49379 0
M  V30 6745 O 651.372 -1.70824 0.607346 0
M  V30 6746 C 651.42 0.118269 3.60406 0
M  V30 6747 O 650.524 -0.916859 4.02079 0
M  V30 6748 H 649.865 0.0990981 0.656563 0
M  V30 6749 H 652.395 0.907958 1.8335 0
M  V30 6750 H 652.405 -0.0619981 4.07953 0
M  V30 6751 H 651.08 1.08849 4.01403 0
M  V30 6752 H 649.657 -0.708635 3.66105 0
M  V30 6753 N 651.842 -1.52309 0.404946 0
M  V30 6754 C 652.789 -2.26898 -0.422597 0
M  V30 6755 C 653.759 -1.2914 -1.04461 0
M  V30 6756 O 654.944 -1.57996 -1.06967 0
M  V30 6757 C 652.084 -3.09053 -1.53559 0
M  V30 6758 C 651.197 -4.21762 -0.934908 0
M  V30 6759 C 650.332 -4.91283 -2.02025 0
M  V30 6760 C 649.371 -5.95962 -1.39628 0
M  V30 6761 N 648.508 -6.59017 -2.42159 0
M  V30 6762 H 653.348 -2.97188 0.219903 0
M  V30 6763 H 650.885 -1.46607 0.120282 0
M  V30 6764 H 652.843 -3.54987 -2.19181 0
M  V30 6765 H 651.473 -2.40942 -2.14818 0
M  V30 6766 H 650.525 -3.80029 -0.167854 0
M  V30 6767 H 651.837 -4.96864 -0.439073 0
M  V30 6768 H 650.991 -5.40601 -2.75383 0
M  V30 6769 H 649.73 -4.15741 -2.54973 0
M  V30 6770 H 648.735 -5.45968 -0.648023 0
M  V30 6771 H 649.96 -6.73445 -0.874553 0
M  V30 6772 H 647.906 -5.86306 -2.94247 0
M  V30 6773 H 647.823 -7.2978 -1.97376 0
M  V30 6774 H 649.091 -7.12974 -3.15099 0
M  V30 6775 N 653.32 -0.135238 -1.57019 0
M  V30 6776 C 654.736 0.221262 -1.58059 0
M  V30 6777 C 654.936 1.65538 -1.14889 0
M  V30 6778 O 653.992 2.37985 -0.843751 0
M  V30 6779 C 655.305 -0.0268114 -3.00688 0
M  V30 6780 C 656.853 0.0378206 -3.12977 0
M  V30 6781 C 657.328 -0.182769 -4.57635 0
M  V30 6782 N 658.819 -0.129292 -4.6302 0
M  V30 6783 C 659.554 -0.274648 -5.72742 0
M  V30 6784 N 659.05 -0.477075 -6.91155 0
M  V30 6785 N 660.843 -0.213077 -5.61696 0
M  V30 6786 H 652.994 -1.07177 -1.83376 0
M  V30 6787 H 655.257 -0.423338 -0.848227 0
M  V30 6788 H 654.963 -1.01889 -3.36618 0
M  V30 6789 H 654.837 0.697863 -3.70688 0
M  V30 6790 H 657.224 1.02043 -2.76896 0
M  V30 6791 H 657.305 -0.718996 -2.45487 0
M  V30 6792 H 656.949 -1.16243 -4.94419 0
M  V30 6793 H 656.879 0.59423 -5.23237 0
M  V30 6794 H 659.37 0.0229896 -3.77893 0
M  V30 6795 H 659.683 -0.578413 -7.70632 0
M  V30 6796 H 658.028 -0.513252 -6.93102 0
M  V30 6797 H 661.219 -0.0557796 -4.68067 0
M  V30 6798 H 661.392 -0.329796 -6.4716 0
M  V30 6799 N 654.798 1.5699 0.138552 0
M  V30 6800 C 656.075 1.74741 0.87891 0
M  V30 6801 C 656.455 0.705522 1.98961 0
M  V30 6802 O 655.803 -0.274066 2.2685 0
M  V30 6803 C 656.013 3.1909 1.4136 0
M  V30 6804 C 657.361 3.81023 1.87368 0
M  V30 6805 O 658.385 3.22571 1.51084 0
M  V30 6806 O 657.244 4.83722 2.54312 0
M  V30 6807 H 654.338 0.714781 0.415953 0
M  V30 6808 H 656.884 1.69248 0.123817 0
M  V30 6809 H 655.656 3.86424 0.61579 0
M  V30 6810 H 655.279 3.29043 2.23196 0
M  V30 6811 N 656.276 -0.40816 1.52223 0
M  V30 6812 C 657.504 -1.17672 1.70179 0
M  V30 6813 C 657.919 -1.84257 0.411696 0
M  V30 6814 O 657.276 -1.7192 -0.612354 0
M  V30 6815 C 657.327 -2.23911 2.83806 0
M  V30 6816 O 657.048 -1.60044 4.0782 0
M  V30 6817 C 658.549 -3.1364 3.13281 0
M  V30 6818 H 655.769 -0.353562 0.570293 0
M  V30 6819 H 658.313 -0.480083 1.98785 0
M  V30 6820 H 656.468 -2.89242 2.57717 0
M  V30 6821 H 656.882 -2.30484 4.71145 0
M  V30 6822 H 658.356 -3.84255 3.96298 0
M  V30 6823 H 658.833 -3.76066 2.26872 0
M  V30 6824 H 659.439 -2.53977 3.41139 0
M  V30 6825 N 657.755 -1.42862 -0.66545 0
M  V30 6826 C 658.718 -1.46756 -1.76055 0
M  V30 6827 C 659.718 -0.353866 -1.56858 0
M  V30 6828 O 660.908 -0.615099 -1.62979 0
M  V30 6829 C 658.04 -1.30829 -3.14796 0
M  V30 6830 H 659.233 -2.44271 -1.73987 0
M  V30 6831 H 656.786 -1.29447 -0.875965 0
M  V30 6832 H 657.521 -0.342733 -3.22484 0
M  V30 6833 H 657.306 -2.11551 -3.30134 0
M  V30 6834 H 658.796 -1.36458 -3.94676 0
M  V30 6835 N 659.233 0.902656 -1.29189 0
M  V30 6836 C 660.481 1.6496 -1.16758 0
M  V30 6837 C 660.802 1.92952 0.28188 0
M  V30 6838 O 660.072 1.55351 1.19344 0
M  V30 6839 H 658.652 0.611447 -0.429118 0
M  V30 6840 H 661.314 1.0825 -1.62074 0
M  V30 6841 H 660.41 2.60728 -1.71544 0
M  V30 6842 N 660.711 1.11618 1.11262 0
M  V30 6843 C 661.988 0.777876 1.79467 0
M  V30 6844 C 662.368 -0.733774 1.97937 0
M  V30 6845 O 661.716 -1.66443 1.56554 0
M  V30 6846 C 661.926 1.5431 3.13032 0
M  V30 6847 C 663.274 1.72357 3.88044 0
M  V30 6848 O 664.298 1.5075 3.22727 0
M  V30 6849 O 663.157 2.08276 5.05256 0
M  V30 6850 H 660.251 0.282018 0.777428 0
M  V30 6851 H 662.797 1.21971 1.17988 0
M  V30 6852 H 661.569 2.57132 2.94956 0
M  V30 6853 H 661.192 1.09495 3.82226 0
M  V30 6854 N 662.189 -1.289 0.906776 0
M  V30 6855 C 663.152 -2.25777 0.394656 0
M  V30 6856 C 664.152 -1.53621 -0.475119 0
M  V30 6857 O 665.342 -1.71949 -0.279165 0
M  V30 6858 C 662.474 -3.38113 -0.43499 0
M  V30 6859 H 663.667 -2.72592 1.25033 0
M  V30 6860 H 661.22 -1.40463 0.685547 0
M  V30 6861 H 661.955 -2.96648 -1.31036 0
M  V30 6862 H 661.74 -3.91647 0.188334 0
M  V30 6863 H 663.23 -4.10168 -0.784365 0
M  V30 6864 N 663.667 -0.670007 -1.42649 0
M  V30 6865 C 664.892 -0.196955 -2.06463 0
M  V30 6866 C 665.317 1.1352 -1.49983 0
M  V30 6867 O 664.675 1.705 -0.616397 0
M  V30 6868 C 664.723 -0.137381 -3.60338 0
M  V30 6869 O 663.827 0.895523 -4.02559 0
M  V30 6870 H 663.168 -0.102579 -0.656029 0
M  V30 6871 H 665.698 -0.917669 -1.82866 0
M  V30 6872 H 665.708 0.0403625 -4.0798 0
M  V30 6873 H 664.383 -1.10977 -4.0082 0
M  V30 6874 H 662.96 0.689209 -3.66476 0
M  V30 6875 N 665.145 1.52092 -0.413018 0
M  V30 6876 C 666.055 2.30858 0.417318 0
M  V30 6877 C 667.071 1.38746 1.05003 0
M  V30 6878 O 668.247 1.71821 1.05069 0
M  V30 6879 C 665.312 3.11756 1.51687 0
M  V30 6880 C 664.373 4.19613 0.906825 0
M  V30 6881 C 663.606 4.96644 1.95399 0
M  V30 6882 O 663.829 4.7402 3.17271 0
M  V30 6883 O 662.763 5.81385 1.55805 0
M  V30 6884 H 666.589 3.02865 -0.225028 0
M  V30 6885 H 664.174 1.48358 -0.176126 0
M  V30 6886 H 666.056 3.62122 2.15512 0
M  V30 6887 H 664.731 2.42539 2.14375 0
M  V30 6888 H 663.638 3.73385 0.231183 0
M  V30 6889 H 664.971 4.91134 0.323814 0
M  V30 6890 N 666.623 0.143563 1.56945 0
M  V30 6891 C 667.848 -0.518701 2.00809 0
M  V30 6892 C 668.273 -1.5785 1.02298 0
M  V30 6893 O 667.631 -1.813 -0.0017839 0
M  V30 6894 C 667.679 -1.09929 3.43436 0
M  V30 6895 O 666.783 -2.21425 3.47915 0
M  V30 6896 H 666.124 -0.127215 0.6517 0
M  V30 6897 H 668.654 0.239283 2.03196 0
M  V30 6898 H 668.664 -1.4288 3.82164 0
M  V30 6899 H 667.339 -0.323162 4.14643 0
M  V30 6900 H 665.916 -1.89728 3.21026 0
M  V30 6901 N 668.101 -1.57061 -0.130224 0
M  V30 6902 C 669.064 -1.98593 -1.14426 0
M  V30 6903 C 670.064 -0.874584 -1.34936 0
M  V30 6904 O 671.254 -1.14086 -1.31643 0
M  V30 6905 C 668.386 -2.31639 -2.50112 0
M  V30 6906 H 669.579 -2.89374 -0.787561 0
M  V30 6907 H 667.132 -1.51756 -0.374146 0
M  V30 6908 H 667.867 -1.43703 -2.90723 0
M  V30 6909 H 667.652 -3.12684 -2.36583 0
M  V30 6910 H 669.142 -2.64551 -3.23114 0
M  V30 6911 N 669.579 0.400081 -1.52437 0
M  V30 6912 C 670.509 1.4947 -1.7939 0
M  V30 6913 C 671.49 1.57383 -0.645329 0
M  V30 6914 O 672.675 1.72511 -0.891826 0
M  V30 6915 C 669.805 2.87201 -1.95276 0
M  V30 6916 C 668.759 2.94134 -3.10917 0
M  V30 6917 C 668.085 4.34207 -3.1204 0
M  V30 6918 C 669.385 2.64791 -4.50203 0
M  V30 6919 H 671.079 1.27165 -2.71052 0
M  V30 6920 H 668.625 0.610312 -1.30427 0
M  V30 6921 H 670.578 3.63772 -2.12715 0
M  V30 6922 H 669.302 3.10819 -1.00294 0
M  V30 6923 H 667.961 2.20009 -2.93243 0
M  V30 6924 H 667.609 4.54848 -2.14761 0
M  V30 6925 H 667.309 4.39768 -3.89715 0
M  V30 6926 H 668.833 5.127 -3.31619 0
M  V30 6927 H 670.247 3.31083 -4.68035 0
M  V30 6928 H 668.644 2.81717 -5.29864 0
M  V30 6929 H 669.714 1.60184 -4.57678 0
M  V30 6930 N 671.057 1.43213 0.657864 0
M  V30 6931 C 671.987 1.50815 1.78262 0
M  V30 6932 C 672.968 0.363211 1.66177 0
M  V30 6933 O 674.153 0.579806 1.85343 0
M  V30 6934 C 671.283 1.42625 3.16663 0
M  V30 6935 C 670.237 2.5532 3.43505 0
M  V30 6936 C 669.563 2.32184 4.81658 0
M  V30 6937 C 670.863 3.97583 3.38711 0
M  V30 6938 H 672.557 2.44954 1.72157 0
M  V30 6939 H 670.103 1.17896 0.82683 0
M  V30 6940 H 672.056 1.46548 3.95097 0
M  V30 6941 H 670.78 0.449877 3.23487 0
M  V30 6942 H 669.439 2.50742 2.6744 0
M  V30 6943 H 669.087 1.32801 4.85153 0
M  V30 6944 H 668.787 3.07724 5.00579 0
M  V30 6945 H 670.311 2.37883 5.62356 0
M  V30 6946 H 671.725 4.03673 4.07089 0
M  V30 6947 H 670.122 4.73112 3.69168 0
M  V30 6948 H 671.192 4.23049 2.36976 0
M  V30 6949 N 672.536 -0.895792 1.29666 0
M  V30 6950 C 673.483 -2.00035 1.15129 0
M  V30 6951 C 674.453 -1.66043 0.0435819 0
M  V30 6952 O 675.638 -1.89621 0.211811 0
M  V30 6953 C 672.778 -3.34774 0.83787 0
M  V30 6954 C 671.891 -3.81525 2.0264 0
M  V30 6955 C 671.026 -5.04858 1.65201 0
M  V30 6956 C 670.065 -5.43988 2.80612 0
M  V30 6957 N 669.202 -6.58507 2.43544 0
M  V30 6958 H 674.042 -2.11802 2.09628 0
M  V30 6959 H 671.579 -1.03719 1.04311 0
M  V30 6960 H 673.537 -4.12311 0.636824 0
M  V30 6961 H 672.167 -3.22724 -0.0702314 0
M  V30 6962 H 671.219 -2.9999 2.33903 0
M  V30 6963 H 672.531 -4.06472 2.89106 0
M  V30 6964 H 671.685 -5.8999 1.41408 0
M  V30 6965 H 670.424 -4.81759 0.758893 0
M  V30 6966 H 669.429 -4.57388 3.05083 0
M  V30 6967 H 670.654 -5.69066 3.70595 0
M  V30 6968 H 668.6 -6.37004 1.56724 0
M  V30 6969 H 668.517 -6.83269 3.23542 0
M  V30 6970 H 669.785 -7.46897 2.2308 0
M  V30 6971 N 674.014 -1.12206 -1.10668 0
M  V30 6972 C 675.254 -0.885935 -1.84202 0
M  V30 6973 C 675.618 0.577849 -1.83098 0
M  V30 6974 O 676.819 0.931051 -2.5216 0
M  V30 6975 C 675.09 -1.44197 -3.2702 0
M  V30 6976 S 676.649 -1.34402 -4.1771 0
M  V30 6977 H 673.467 -0.319653 -0.635093 0
M  V30 6978 H 676.069 -1.43112 -1.33189 0
M  V30 6979 H 674.773 -2.50096 -3.25392 0
M  V30 6980 H 674.304 -0.894173 -3.83103 0
M  V30 6981 H 676.319 -0.313873 -4.95206 0
M  V30 6982 N 675.492 1.28418 -0.913599 0
M  V30 6983 C 676.741 1.94265 -0.542572 0
M  V30 6984 C 677.054 1.72709 0.918207 0
M  V30 6985 O 678.26 2.32778 1.39738 0
M  V30 6986 C 676.716 3.47956 -0.919507 0
M  V30 6987 C 676.324 3.78291 -2.4 0
M  V30 6988 C 678.068 4.19962 -0.619057 0
M  V30 6989 C 675.975 5.2529 -2.71707 0
M  V30 6990 H 674.905 0.727213 -0.199192 0
M  V30 6991 H 677.556 1.45931 -1.11249 0
M  V30 6992 H 675.938 3.9502 -0.278372 0
M  V30 6993 H 677.112 3.42035 -3.08786 0
M  V30 6994 H 675.427 3.19456 -2.67089 0
M  V30 6995 H 678.024 5.28178 -0.832623 0
M  V30 6996 H 678.367 4.13935 0.443126 0
M  V30 6997 H 678.9 3.78674 -1.21865 0
M  V30 6998 H 675.639 5.36394 -3.76778 0
M  V30 6999 H 675.159 5.62743 -2.07559 0
M  V30 7000 H 676.838 5.93027 -2.58703 0
M  V30 7001 N 676.97 0.677563 1.42291 0
M  V30 7002 C 677.88 0.000962654 2.346 0
M  V30 7003 C 678.896 -0.785833 1.55244 0
M  V30 7004 O 680.072 -0.727523 1.87801 0
M  V30 7005 C 677.137 -0.936746 3.33805 0
M  V30 7006 C 676.198 -0.144173 4.29058 0
M  V30 7007 C 675.431 -1.03722 5.23524 0
M  V30 7008 O 675.654 -2.27675 5.22992 0
M  V30 7009 O 674.588 -0.496542 5.99848 0
M  V30 7010 H 678.414 0.761397 2.94001 0
M  V30 7011 H 675.999 0.43781 1.42841 0
M  V30 7012 H 677.881 -1.47497 3.94744 0
M  V30 7013 H 676.556 -1.67698 2.76874 0
M  V30 7014 H 675.463 0.438224 3.71524 0
M  V30 7015 H 676.796 0.55701 4.89038 0
M  V30 7016 N 678.448 -1.51871 0.421078 0
M  V30 7017 C 679.378 -2.30231 -0.389363 0
M  V30 7018 C 680.359 -1.34946 -1.03555 0
M  V30 7019 O 681.544 -1.63859 -1.04229 0
M  V30 7020 C 678.674 -3.13247 -1.49979 0
M  V30 7021 C 677.628 -4.16677 -0.977966 0
M  V30 7022 C 676.954 -4.88112 -2.1829 0
M  V30 7023 C 678.254 -5.22295 -0.0236775 0
M  V30 7024 H 679.948 -2.98229 0.264524 0
M  V30 7025 H 677.494 -1.43424 0.12866 0
M  V30 7026 H 679.447 -3.66838 -2.07383 0
M  V30 7027 H 678.171 -2.4304 -2.18173 0
M  V30 7028 H 676.83 -3.64114 -0.426245 0
M  V30 7029 H 676.478 -4.14423 -2.85066 0
M  V30 7030 H 676.178 -5.58041 -1.84021 0
M  V30 7031 H 677.702 -5.44521 -2.76278 0
M  V30 7032 H 679.116 -5.71055 -0.506899 0
M  V30 7033 H 677.513 -5.99656 0.230782 0
M  V30 7034 H 678.583 -4.76131 0.917999 0
M  V30 7035 N 679.926 -0.151884 -1.56866 0
M  V30 7036 C 681.151 0.508044 -2.01081 0
M  V30 7037 C 681.576 1.57306 -1.03134 0
M  V30 7038 O 680.934 1.81298 -0.0078309 0
M  V30 7039 C 680.982 1.08106 -3.44014 0
M  V30 7040 O 680.086 2.19577 -3.49084 0
M  V30 7041 H 679.427 0.123757 -0.652365 0
M  V30 7042 H 681.957 -0.250055 -2.03066 0
M  V30 7043 H 681.967 1.40851 -3.82916 0
M  V30 7044 H 680.642 0.301168 -4.14808 0
M  V30 7045 H 679.219 1.88023 -3.22027 0
M  V30 7046 N 681.404 1.57128 0.121893 0
M  V30 7047 C 682.644 1.86517 0.836113 0
M  V30 7048 C 683.008 0.739497 1.77188 0
M  V30 7049 O 684.209 0.91508 2.52744 0
M  V30 7050 C 682.48 3.21129 1.56878 0
M  V30 7051 S 684.039 3.72143 2.32497 0
M  V30 7052 H 680.857 0.653923 0.279115 0
M  V30 7053 H 683.459 1.95271 0.0946254 0
M  V30 7054 H 682.163 4.01002 0.873255 0
M  V30 7055 H 681.694 3.15446 2.35069 0
M  V30 7056 H 683.709 3.43413 3.58164 0
M  V30 7057 N 682.882 -0.391992 1.52647 0
M  V30 7058 C 684.13 -1.13507 1.67214 0
M  V30 7059 C 684.451 -1.90575 0.41304 0
M  V30 7060 O 683.721 -1.87348 -0.572498 0
M  V30 7061 H 682.301 -0.422013 0.616372 0
M  V30 7062 H 684.963 -0.44502 1.89751 0
M  V30 7063 H 684.059 -1.83964 2.52118 0
M  V30 7064 N 684.36 -1.4356 -0.65026 0
M  V30 7065 C 685.585 -1.48995 -1.44275 0
M  V30 7066 C 686.01 -0.109954 -1.87778 0
M  V30 7067 O 685.368 0.896926 -1.57559 0
M  V30 7068 C 685.416 -2.44341 -2.65198 0
M  V30 7069 O 684.52 -1.93172 -3.6436 0
M  V30 7070 H 683.861 -0.503852 -0.432469 0
M  V30 7071 H 686.391 -1.88504 -0.795446 0
M  V30 7072 H 686.401 -2.61743 -3.12977 0
M  V30 7073 H 685.076 -3.44588 -2.32877 0
M  V30 7074 H 683.653 -1.85445 -3.23519 0
M  V30 7075 N 685.838 0.888903 -1.30139 0
M  V30 7076 C 687.084 1.6428 -1.18912 0
M  V30 7077 C 687.417 1.92499 0.256477 0
M  V30 7078 O 686.692 1.54312 1.18397 0
M  V30 7079 C 686.975 2.9851 -2.01405 0
M  V30 7080 C 686.828 2.77288 -3.54163 0
M  V30 7081 C 688.147 3.99383 -1.84882 0
M  V30 7082 H 685.266 0.596148 -0.433333 0
M  V30 7083 H 687.908 1.0289 -1.5973 0
M  V30 7084 H 686.058 3.50907 -1.66722 0
M  V30 7085 H 687.73 2.31709 -3.98884 0
M  V30 7086 H 685.973 2.11867 -3.78543 0
M  V30 7087 H 686.644 3.72717 -4.07168 0
M  V30 7088 H 689.12 3.56132 -2.15196 0
M  V30 7089 H 687.996 4.91222 -2.44934 0
M  V30 7090 H 688.257 4.34674 -0.806902 0
M  V30 7091 N 687.317 1.12792 1.10072 0
M  V30 7092 C 688.733 0.864745 1.34143 0
M  V30 7093 C 688.933 -0.503201 1.95116 0
M  V30 7094 O 687.989 -1.25111 2.19325 0
M  V30 7095 C 689.302 1.98413 2.25949 0
M  V30 7096 C 690.85 2.01545 2.39476 0
M  V30 7097 C 691.325 3.12727 3.34613 0
M  V30 7098 N 692.816 3.12194 3.42183 0
M  V30 7099 C 693.551 3.94862 4.15779 0
M  V30 7100 N 693.047 4.87528 4.92228 0
M  V30 7101 N 694.84 3.82985 4.11435 0
M  V30 7102 H 686.991 2.00926 0.68866 0
M  V30 7103 H 689.254 0.874564 0.365844 0
M  V30 7104 H 688.96 2.97005 1.88364 0
M  V30 7105 H 688.834 1.89254 3.26287 0
M  V30 7106 H 691.221 1.0357 2.76328 0
M  V30 7107 H 691.302 2.14777 1.3894 0
M  V30 7108 H 690.946 4.10936 2.98486 0
M  V30 7109 H 690.876 2.96732 4.35037 0
M  V30 7110 H 693.367 2.45065 2.87666 0
M  V30 7111 H 693.68 5.47109 5.45794 0
M  V30 7112 H 692.025 4.91539 4.9134 0
M  V30 7113 H 695.216 3.09923 3.50807 0
M  V30 7114 H 695.389 4.47641 4.68531 0
M  V30 7115 N 688.795 -1.27931 0.920396 0
M  V30 7116 C 689.742 -2.27085 0.412422 0
M  V30 7117 C 690.712 -1.57858 -0.516725 0
M  V30 7118 O 691.897 -1.85717 -0.437475 0
M  V30 7119 C 689.037 -3.43466 -0.335399 0
M  V30 7120 C 688.15 -4.27425 0.627017 0
M  V30 7121 C 687.285 -5.31016 -0.139916 0
M  V30 7122 C 686.324 -6.06641 0.815683 0
M  V30 7123 N 685.461 -7.02052 0.0818439 0
M  V30 7124 H 690.301 -2.69913 1.26298 0
M  V30 7125 H 687.838 -1.32732 0.634076 0
M  V30 7126 H 689.796 -4.09744 -0.785226 0
M  V30 7127 H 688.426 -3.01611 -1.15025 0
M  V30 7128 H 687.478 -3.6113 1.19537 0
M  V30 7129 H 688.79 -4.79969 1.35763 0
M  V30 7130 H 687.944 -6.03208 -0.649998 0
M  V30 7131 H 686.683 -4.79257 -0.903543 0
M  V30 7132 H 685.688 -5.33294 1.33708 0
M  V30 7133 H 686.913 -6.60489 1.57897 0
M  V30 7134 H 684.859 -6.52634 -0.663671 0
M  V30 7135 H 684.776 -7.52249 0.752163 0
M  V30 7136 H 686.044 -7.78432 -0.407825 0
M  V30 7137 N 690.273 -0.685099 -1.4193 0
M  V30 7138 C 691.206 0.0371639 -2.2817 0
M  V30 7139 C 692.184 0.798436 -1.41647 0
M  V30 7140 O 693.368 0.791428 -1.71081 0
M  V30 7141 C 690.495 1.05993 -3.21688 0
M  V30 7142 C 689.541 0.393043 -4.24685 0
M  V30 7143 S 690.374 -0.856921 -5.28599 0
M  V30 7144 C 691.53 0.164508 -6.25684 0
M  V30 7145 H 691.763 -0.694305 -2.89079 0
M  V30 7146 H 689.296 -0.474999 -1.46912 0
M  V30 7147 H 691.254 1.64489 -3.76103 0
M  V30 7148 H 689.915 1.7639 -2.59895 0
M  V30 7149 H 689.108 1.16513 -4.90348 0
M  V30 7150 H 688.71 -0.118589 -3.73812 0
M  V30 7151 H 691.002 1.02106 -6.69762 0
M  V30 7152 H 691.945 -0.457917 -7.06618 0
M  V30 7153 H 692.353 0.514596 -5.6215 0
M  V30 7154 N 691.751 1.51645 -0.429126 0
M  V30 7155 C 693.167 1.59394 -0.080994 0
M  V30 7156 C 693.367 1.44064 1.40882 0
M  V30 7157 O 692.423 1.27771 2.17786 0
M  V30 7158 C 693.736 2.94779 -0.593773 0
M  V30 7159 C 695.284 3.08067 -0.553494 0
M  V30 7160 C 695.759 4.45963 -1.04311 0
M  V30 7161 N 697.25 4.5226 -1.00076 0
M  V30 7162 C 697.985 5.57268 -1.35056 0
M  V30 7163 N 697.481 6.69734 -1.77282 0
M  V30 7164 N 699.274 5.47582 -1.26925 0
M  V30 7165 H 691.425 1.59856 -1.39857 0
M  V30 7166 H 693.688 0.753095 -0.575805 0
M  V30 7167 H 693.394 3.11342 -1.63583 0
M  V30 7168 H 693.268 3.77197 -0.0142202 0
M  V30 7169 H 695.655 2.91177 0.479556 0
M  V30 7170 H 695.736 2.27508 -1.16935 0
M  V30 7171 H 695.38 4.63598 -2.07459 0
M  V30 7172 H 695.31 5.25049 -0.403873 0
M  V30 7173 H 697.801 3.71537 -0.690564 0
M  V30 7174 H 698.114 7.4587 -2.02232 0
M  V30 7175 H 696.459 6.70963 -1.81202 0
M  V30 7176 H 699.65 4.58604 -0.93809 0
M  V30 7177 H 699.823 6.29308 -1.54516 0
M  V30 7178 N 693.229 0.160201 1.56784 0
M  V30 7179 C 694.506 -0.533355 1.88188 0
M  V30 7180 C 694.886 -1.82072 1.06831 0
M  V30 7181 O 694.234 -2.27946 0.158959 0
M  V30 7182 C 694.444 -0.786034 3.40033 0
M  V30 7183 C 695.792 -1.12097 4.09536 0
M  V30 7184 O 696.816 -0.874949 3.45287 0
M  V30 7185 O 695.675 -1.58457 5.23023 0
M  V30 7186 H 692.769 -0.273589 0.780434 0
M  V30 7187 H 695.315 0.197803 1.68543 0
M  V30 7188 H 694.087 0.124515 3.91102 0
M  V30 7189 H 693.71 -1.57091 3.65251 0
M  V30 7190 N 694.707 -1.5719 -0.113559 0
M  V30 7191 C 696.123 -1.52607 -0.467253 0
M  V30 7192 C 696.323 -0.874058 -1.81556 0
M  V30 7193 O 695.379 -0.458703 -2.48299 0
M  V30 7194 C 696.692 -2.97363 -0.446736 0
M  V30 7195 C 698.24 -3.08482 -0.529903 0
M  V30 7196 C 698.715 -4.54809 -0.539721 0
M  V30 7197 N 700.206 -4.59284 -0.601005 0
M  V30 7198 C 700.941 -5.69927 -0.630138 0
M  V30 7199 N 700.437 -6.90051 -0.616589 0
M  V30 7200 N 702.23 -5.5805 -0.673558 0
M  V30 7201 H 694.381 -1.97958 0.769819 0
M  V30 7202 H 696.644 -0.90428 0.284572 0
M  V30 7203 H 696.35 -3.48458 0.47643 0
M  V30 7204 H 696.224 -3.55086 -1.27254 0
M  V30 7205 H 698.611 -2.57386 -1.44349 0
M  V30 7206 H 698.692 -2.53744 0.323695 0
M  V30 7207 H 698.336 -5.06552 0.369843 0
M  V30 7208 H 698.266 -5.07364 -1.41028 0
M  V30 7209 H 700.757 -3.72822 -0.617419 0
M  V30 7210 H 701.07 -7.70132 -0.641592 0
M  V30 7211 H 699.415 -6.92543 -0.583927 0
M  V30 7212 H 702.606 -4.63112 -0.681544 0
M  V30 7213 H 702.779 -6.44286 -0.692794 0
M  V30 7214 N 696.185 0.383891 -1.52853 0
M  V30 7215 C 697.133 1.48965 -1.7864 0
M  V30 7216 C 698.127 1.56242 -0.654577 0
M  V30 7217 O 699.333 1.59347 -0.83716 0
M  V30 7218 H 695.708 0.495892 -0.565328 0
M  V30 7219 H 697.679 1.24411 -2.71228 0
M  V30 7220 C 696.428 2.86036 -1.97683 0
M  V30 7221 H 695.751 2.81188 -2.84206 0
M  V30 7222 H 697.191 3.62632 -2.19713 0
M  V30 7223 C 695.65 3.28428 -0.750776 0
M  V30 7224 O 696.18 4.0164 0.0693491 0
M  V30 7225 N 694.386 2.84765 -0.579427 0
M  V30 7226 H 693.933 2.25353 -1.24795 0
M  V30 7227 H 693.891 3.13486 0.239544 0
M  V30 7228 N 697.663 1.43903 0.642637 0
M  V30 7229 C 699.074 1.40975 1.22404 0
M  V30 7230 C 699.425 0.1192 1.95838 0
M  V30 7231 O 698.55 -0.780939 2.01818 0
M  V30 7232 C 699.145 2.5538 2.22636 0
M  V30 7233 C 697.704 2.55684 2.76229 0
M  V30 7234 C 696.851 2.32556 1.51039 0
M  V30 7235 H 699.802 1.5265 0.434006 0
M  V30 7236 H 699.823 2.27474 3.05017 0
M  V30 7237 H 699.335 3.49294 1.69161 0
M  V30 7238 H 697.436 1.65679 3.33738 0
M  V30 7239 H 697.549 3.53799 3.23053 0
M  V30 7240 H 695.913 1.81427 1.78764 0
M  V30 7241 H 696.696 3.28569 0.99484 0
M  V30 7242 N 699.141 -0.881989 1.30609 0
M  V30 7243 C 700.088 -1.98803 1.17244 0
M  V30 7244 C 701.058 -1.65987 0.0611905 0
M  V30 7245 O 702.243 -1.89385 0.231911 0
M  V30 7246 C 699.383 -3.33867 0.87333 0
M  V30 7247 C 698.496 -3.79354 2.06675 0
M  V30 7248 C 697.631 -5.03078 1.70547 0
M  V30 7249 C 696.67 -5.40981 2.86366 0
M  V30 7250 N 695.807 -6.55886 2.50514 0
M  V30 7251 H 700.647 -2.09566 2.11863 0
M  V30 7252 H 698.184 -1.02607 1.05405 0
M  V30 7253 H 700.142 -4.11612 0.680519 0
M  V30 7254 H 698.772 -3.2278 -0.0359983 0
M  V30 7255 H 697.824 -2.97492 2.37071 0
M  V30 7256 H 699.136 -4.03382 2.93401 0
M  V30 7257 H 698.29 -5.88457 1.47658 0
M  V30 7258 H 697.029 -4.80927 0.809947 0
M  V30 7259 H 696.034 -4.54127 3.09917 0
M  V30 7260 H 697.259 -5.65104 3.76609 0
M  V30 7261 H 695.205 -6.35306 1.63471 0
M  V30 7262 H 695.122 -6.79799 3.30771 0
M  V30 7263 H 696.39 -7.44489 2.30989 0
M  V30 7264 N 700.619 -1.13374 -1.09472 0
M  V30 7265 C 701.865 -0.896516 -1.81908 0
M  V30 7266 C 702.198 0.575933 -1.85463 0
M  V30 7267 O 701.473 1.42618 -1.32251 0
M  V30 7268 C 701.756 -1.48445 -3.28079 0
M  V30 7269 C 701.609 -3.02598 -3.32798 0
M  V30 7270 C 702.928 -1.15226 -4.24748 0
M  V30 7271 H 700.047 -0.327127 -0.660422 0
M  V30 7272 H 702.689 -1.40195 -1.2824 0
M  V30 7273 H 700.839 -1.0546 -3.73912 0
M  V30 7274 H 702.511 -3.54335 -2.95372 0
M  V30 7275 H 700.754 -3.37613 -2.72397 0
M  V30 7276 H 701.425 -3.38835 -4.3577 0
M  V30 7277 H 703.901 -1.52369 -3.87199 0
M  V30 7278 H 702.777 -1.59012 -5.25363 0
M  V30 7279 H 703.038 -0.0658891 -4.42051 0
M  V30 7280 N 702.098 1.27442 -0.927168 0
M  V30 7281 C 703.061 2.2512 -0.430525 0
M  V30 7282 C 704.061 1.54357 0.450619 0
M  V30 7283 O 705.251 1.72371 0.251774 0
M  V30 7284 C 702.383 3.38763 0.381144 0
M  V30 7285 H 703.576 2.70569 -1.29354 0
M  V30 7286 H 701.129 1.39355 -0.707806 0
M  V30 7287 H 701.864 2.98695 1.263 0
M  V30 7288 H 701.649 3.91298 -0.250618 0
M  V30 7289 H 703.139 4.11364 0.719012 0
M  V30 7290 N 703.576 0.692616 1.41565 0
M  V30 7291 C 704.486 0.0258451 2.34586 0
M  V30 7292 C 705.502 -0.769324 1.56069 0
M  V30 7293 O 706.678 -0.707563 1.88562 0
M  V30 7294 C 703.743 -0.901289 3.3478 0
M  V30 7295 C 702.804 -0.0986579 4.29187 0
M  V30 7296 C 702.037 -0.981634 5.24595 0
M  V30 7297 O 702.26 -2.22115 5.25377 0
M  V30 7298 O 701.194 -0.432892 6.00341 0
M  V30 7299 H 705.02 0.792537 2.93177 0
M  V30 7300 H 702.605 0.452935 1.42369 0
M  V30 7301 H 704.487 -1.43302 3.96286 0
M  V30 7302 H 703.162 -1.64752 2.78637 0
M  V30 7303 H 702.069 0.477604 3.71039 0
M  V30 7304 H 703.402 0.608848 4.8842 0
M  V30 7305 N 705.054 -1.51416 0.437162 0
M  V30 7306 C 706.303 -2.01275 -0.130865 0
M  V30 7307 C 706.616 -1.32593 -1.438 0
M  V30 7308 O 707.822 -1.7342 -2.08897 0
M  V30 7309 C 706.278 -3.5878 -0.283763 0
M  V30 7310 C 705.886 -4.36399 1.01293 0
M  V30 7311 C 707.63 -4.16786 -0.805569 0
M  V30 7312 C 705.537 -5.85608 0.825687 0
M  V30 7313 H 704.467 -0.752157 -0.0526818 0
M  V30 7314 H 707.118 -1.74524 0.566896 0
M  V30 7315 H 705.5 -3.81976 -1.04452 0
M  V30 7316 H 706.674 -4.24948 1.78201 0
M  V30 7317 H 704.989 -3.89843 1.46326 0
M  V30 7318 H 707.586 -5.25972 -0.962146 0
M  V30 7319 H 707.929 -3.75949 -1.78796 0
M  V30 7320 H 708.462 -3.97666 -0.103125 0
M  V30 7321 H 705.201 -6.30857 1.78045 0
M  V30 7322 H 704.721 -5.99723 0.0964029 0
M  V30 7323 H 706.4 -6.45226 0.478815 0
M  V30 7324 N 706.532 -0.168513 -1.56696 0
M  V30 7325 C 707.943 0.348694 -1.83415 0
M  V30 7326 C 708.294 1.63257 -1.0882 0
M  V30 7327 O 707.419 2.13707 -0.340333 0
M  V30 7328 C 708.014 0.639423 -3.32711 0
M  V30 7329 C 706.573 1.10108 -3.59935 0
M  V30 7330 C 705.72 0.135464 -2.76969 0
M  V30 7331 H 708.671 -0.392829 -1.53761 0
M  V30 7332 H 708.692 1.49179 -3.50037 0
M  V30 7333 H 708.204 -0.295173 -3.86976 0
M  V30 7334 H 706.305 2.05088 -3.11079 0
M  V30 7335 H 706.418 1.01218 -4.68286 0
M  V30 7336 H 704.782 0.632286 -2.46727 0
M  V30 7337 H 705.565 -0.793104 -3.34013 0
M  V30 7338 N 708.01 1.57248 0.105221 0
M  V30 7339 C 709.257 1.8557 0.810552 0
M  V30 7340 C 709.585 0.755595 1.79223 0
M  V30 7341 O 708.84 -0.251788 1.94073 0
M  V30 7342 C 709.139 3.20437 1.58287 0
M  V30 7343 C 708.805 4.44716 0.744235 0
M  V30 7344 C 707.467 4.78458 0.513013 0
M  V30 7345 C 709.819 5.20953 0.160578 0
M  V30 7346 C 707.147 5.8587 -0.311894 0
M  V30 7347 C 709.499 6.29235 -0.651596 0
M  V30 7348 C 708.163 6.615 -0.893005 0
M  V30 7349 H 707.433 0.67905 0.296602 0
M  V30 7350 H 710.08 1.91363 0.0723968 0
M  V30 7351 H 708.385 3.10283 2.39232 0
M  V30 7352 H 710.082 3.39576 2.13282 0
M  V30 7353 H 706.672 4.18287 0.934555 0
M  V30 7354 H 710.856 4.95226 0.3264 0
M  V30 7355 H 706.112 6.09286 -0.508012 0
M  V30 7356 H 710.286 6.87484 -1.11077 0
M  V30 7357 H 707.913 7.44562 -1.53401 0
M  V30 7358 N 709.488 -0.375779 1.53054 0
M  V30 7359 C 710.436 -1.48015 1.79428 0
M  V30 7360 C 711.43 -1.55893 0.662854 0
M  V30 7361 O 712.636 -1.58901 0.845599 0
M  V30 7362 H 709.011 -0.492887 0.56795 0
M  V30 7363 H 710.982 -1.22971 2.71884 0
M  V30 7364 C 709.731 -2.84984 1.99197 0
M  V30 7365 H 709.054 -2.79677 2.85693 0
M  V30 7366 H 710.494 -3.61462 2.21633 0
M  V30 7367 C 708.953 -3.28025 0.768183 0
M  V30 7368 O 709.483 -4.01671 -0.0480482 0
M  V30 7369 N 707.689 -2.84454 0.594521 0
M  V30 7370 H 707.236 -2.24688 1.25988 0
M  V30 7371 H 707.194 -3.13609 -0.222916 0
M  V30 7372 N 710.966 -1.44241 -0.634997 0
M  V30 7373 C 712.191 -1.50516 -1.42687 0
M  V30 7374 C 712.616 -0.129864 -1.87651 0
M  V30 7375 O 711.974 0.880164 -1.58502 0
M  V30 7376 C 712.022 -2.4714 -2.62591 0
M  V30 7377 O 711.126 -1.97025 -3.62291 0
M  V30 7378 H 710.467 -0.50841 -0.427101 0
M  V30 7379 H 712.997 -1.89337 -0.775408 0
M  V30 7380 H 713.007 -2.65048 -3.10183 0
M  V30 7381 H 711.682 -3.47039 -2.29209 0
M  V30 7382 H 710.259 -1.88866 -3.21534 0
M  V30 7383 N 712.444 0.87505 -1.31075 0
M  V30 7384 C 713.672 1.66058 -1.23419 0
M  V30 7385 C 714.087 1.87723 0.201347 0
M  V30 7386 O 713.444 1.43178 1.13165 0
M  V30 7387 C 713.495 3.03142 -1.96945 0
M  V30 7388 O 713.216 2.82448 -3.34895 0
M  V30 7389 C 714.717 3.97583 -1.96067 0
M  V30 7390 H 711.937 0.517868 -0.426677 0
M  V30 7391 H 714.481 1.09258 -1.72867 0
M  V30 7392 H 712.636 3.56645 -1.51271 0
M  V30 7393 H 713.05 3.69483 -3.72267 0
M  V30 7394 H 714.524 4.91104 -2.52034 0
M  V30 7395 H 715.001 4.2898 -0.941961 0
M  V30 7396 H 715.607 3.50015 -2.41597 0
M  V30 7397 N 713.922 1.13953 1.08869 0
M  V30 7398 C 714.87 0.817664 2.17754 0
M  V30 7399 C 715.864 -0.202444 1.68186 0
M  V30 7400 O 717.07 -0.0590159 1.79903 0
M  V30 7401 H 713.445 0.246671 0.710392 0
M  V30 7402 H 715.416 1.74401 2.4213 0
M  V30 7403 C 714.165 0.3063 3.46348 0
M  V30 7404 H 713.488 1.08259 3.84864 0
M  V30 7405 H 714.928 0.119584 4.23831 0
M  V30 7406 C 713.387 -0.969158 3.22659 0
M  V30 7407 O 713.917 -2.04386 3.45817 0
M  V30 7408 N 712.123 -0.902516 2.7623 0
M  V30 7409 H 711.67 -0.027801 2.57585 0
M  V30 7410 H 711.628 -1.75649 2.60758 0
M  V30 7411 N 715.4 -1.26948 0.933913 0
M  V30 7412 C 716.347 -2.26635 0.436484 0
M  V30 7413 C 717.317 -1.58397 -0.499953 0
M  V30 7414 O 718.502 -1.86171 -0.417753 0
M  V30 7415 C 715.642 -3.43803 -0.298951 0
M  V30 7416 C 714.755 -4.26736 0.672316 0
M  V30 7417 C 713.89 -5.31134 -0.0835872 0
M  V30 7418 C 712.929 -6.05742 0.879979 0
M  V30 7419 N 712.066 -7.01926 0.156301 0
M  V30 7420 H 716.906 -2.68558 1.29154 0
M  V30 7421 H 714.443 -1.32052 0.648118 0
M  V30 7422 H 716.401 -4.10554 -0.741723 0
M  V30 7423 H 715.031 -3.02814 -1.1182 0
M  V30 7424 H 714.083 -3.59842 1.23361 0
M  V30 7425 H 715.395 -4.78502 1.40846 0
M  V30 7426 H 714.549 -6.03863 -0.585984 0
M  V30 7427 H 713.288 -4.80188 -0.852661 0
M  V30 7428 H 712.293 -5.31846 1.39357 0
M  V30 7429 H 713.518 -6.58777 1.64894 0
M  V30 7430 H 711.464 -6.53301 -0.594413 0
M  V30 7431 H 711.381 -7.51409 0.831906 0
M  V30 7432 H 712.649 -7.78821 -0.325239 0
M  V30 7433 N 716.879 -0.700114 -1.41195 0
M  V30 7434 C 718.109 -0.241828 -2.0518 0
M  V30 7435 C 718.517 1.1157 -1.52803 0
M  V30 7436 O 717.86 1.70926 -0.673042 0
M  V30 7437 C 717.922 -0.12695 -3.59276 0
M  V30 7438 C 717.586 -1.41725 -4.34469 0
M  V30 7439 C 718.583 -2.35604 -4.63451 0
M  V30 7440 C 716.268 -1.67189 -4.73659 0
M  V30 7441 C 718.262 -3.53204 -5.3059 0
M  V30 7442 C 715.949 -2.85073 -5.40534 0
M  V30 7443 C 716.947 -3.77904 -5.68927 0
M  V30 7444 O 716.635 -4.93723 -6.34424 0
M  V30 7445 H 716.367 -0.109247 -0.667114 0
M  V30 7446 H 718.921 -0.954538 -1.81873 0
M  V30 7447 H 717.151 0.641571 -3.81341 0
M  V30 7448 H 718.84 0.294748 -4.04828 0
M  V30 7449 H 719.606 -2.1719 -4.33651 0
M  V30 7450 H 715.485 -0.957935 -4.50937 0
M  V30 7451 H 719.029 -4.25679 -5.52669 0
M  V30 7452 H 714.926 -3.03402 -5.69752 0
M  V30 7453 H 715.694 -4.93597 -6.5292 0
M  V30 7454 N 718.357 1.51182 -0.445186 0
M  V30 7455 C 719.289 2.25714 0.398206 0
M  V30 7456 C 720.302 1.30032 0.979562 0
M  V30 7457 O 721.491 1.55731 0.872368 0
M  V30 7458 C 718.591 3.00348 1.56985 0
M  V30 7459 C 717.764 4.23187 1.10596 0
M  V30 7460 C 716.823 4.80334 2.14863 0
M  V30 7461 O 715.849 5.4196 1.73977 0
M  V30 7462 N 717.051 4.65053 3.47427 0
M  V30 7463 H 719.816 2.98732 -0.240629 0
M  V30 7464 H 717.377 1.59556 -0.274507 0
M  V30 7465 H 719.369 3.35464 2.26376 0
M  V30 7466 H 717.939 2.30291 2.11387 0
M  V30 7467 H 717.159 3.93476 0.238832 0
M  V30 7468 H 718.447 5.02886 0.773537 0
M  V30 7469 H 717.845 4.15984 3.83372 0
M  V30 7470 H 716.402 5.04509 4.12691 0
M  V30 7471 N 719.835 0.176821 1.56605 0
M  V30 7472 C 720.765 -0.746841 2.21234 0
M  V30 7473 C 721.746 -1.23502 1.16967 0
M  V30 7474 O 722.931 -1.28718 1.45414 0
M  V30 7475 C 720.061 -1.97407 2.8574 0
M  V30 7476 C 719.015 -1.62153 3.96094 0
M  V30 7477 C 718.341 -2.92387 4.47676 0
M  V30 7478 C 719.641 -0.845353 5.15413 0
M  V30 7479 H 721.335 -0.208116 2.98676 0
M  V30 7480 H 718.881 -0.0986594 1.43662 0
M  V30 7481 H 720.834 -2.62531 3.2963 0
M  V30 7482 H 719.558 -2.53703 2.05676 0
M  V30 7483 H 718.217 -0.993964 3.52868 0
M  V30 7484 H 717.865 -3.46734 3.64396 0
M  V30 7485 H 717.565 -2.69551 5.22127 0
M  V30 7486 H 719.089 -3.5853 4.94255 0
M  V30 7487 H 720.503 -1.39929 5.55961 0
M  V30 7488 H 718.9 -0.715814 5.95815 0
M  V30 7489 H 719.97 0.157239 4.84645 0
M  V30 7490 N 721.313 -1.57302 -0.09688 0
M  V30 7491 C 722.538 -1.9058 -0.818169 0
M  V30 7492 C 722.963 -0.770921 -1.71576 0
M  V30 7493 O 722.321 0.277588 -1.79162 0
M  V30 7494 C 722.369 -3.22714 -1.60898 0
M  V30 7495 O 721.473 -3.10178 -2.71779 0
M  V30 7496 H 720.814 -0.624759 -0.224882 0
M  V30 7497 H 723.344 -2.04471 -0.07264 0
M  V30 7498 H 723.354 -3.55978 -1.99358 0
M  V30 7499 H 722.029 -4.04899 -0.950227 0
M  V30 7500 H 720.606 -2.88424 -2.3636 0
M  V30 7501 N 722.791 0.367657 -1.53252 0
M  V30 7502 C 724.04 1.10782 -1.68554 0
M  V30 7503 C 724.353 1.90523 -0.442765 0
M  V30 7504 O 725.559 2.6729 -0.47629 0
M  V30 7505 C 724.015 2.01863 -2.97959 0
M  V30 7506 C 723.623 1.27443 -4.29491 0
M  V30 7507 C 725.367 2.75883 -3.22628 0
M  V30 7508 C 723.274 2.17414 -5.49987 0
M  V30 7509 H 722.204 0.417272 -0.628013 0
M  V30 7510 H 724.855 0.368971 -1.79752 0
M  V30 7511 H 723.237 2.7947 -2.80558 0
M  V30 7512 H 724.411 0.549138 -4.57516 0
M  V30 7513 H 722.726 0.652935 -4.11249 0
M  V30 7514 H 725.323 3.43421 -4.09837 0
M  V30 7515 H 725.666 3.41138 -2.38601 0
M  V30 7516 H 726.199 2.0536 -3.40693 0
M  V30 7517 H 722.938 1.5674 -6.36485 0
M  V30 7518 H 722.458 2.87799 -5.26243 0
M  V30 7519 H 724.137 2.77019 -5.84696 0
M  V30 7520 N 724.269 1.44576 0.627338 0
M  V30 7521 C 725.219 1.48168 1.73293 0
M  V30 7522 C 726.203 0.347045 1.57113 0
M  V30 7523 O 727.395 0.592605 1.66785 0
M  V30 7524 C 724.524 1.43236 3.11991 0
M  V30 7525 C 723.61 2.61828 3.33627 0
M  V30 7526 N 724.001 3.87053 3.25612 0
M  V30 7527 C 722.299 2.57104 3.64436 0
M  V30 7528 C 723 4.66093 3.48041 0
M  V30 7529 N 721.976 3.97228 3.71095 0
M  V30 7530 H 725.778 2.42832 1.6556 0
M  V30 7531 H 723.292 1.39592 0.829934 0
M  V30 7532 H 725.289 1.43893 3.91281 0
M  V30 7533 H 723.949 0.496133 3.20887 0
M  V30 7534 H 724.96 4.18966 3.04447 0
M  V30 7535 H 721.637 1.72295 3.8029 0
M  V30 7536 H 723.027 5.75117 3.47404 0
M  V30 7537 N 725.747 -0.868086 1.31537 0
M  V30 7538 C 726.657 -2.00801 1.21311 0
M  V30 7539 C 727.673 -1.73518 0.129431 0
M  V30 7540 O 728.849 -1.98378 0.347588 0
M  V30 7541 C 725.914 -3.3419 0.922935 0
M  V30 7542 C 724.975 -3.74783 2.0937 0
M  V30 7543 C 724.208 -5.01807 1.81728 0
M  V30 7544 O 724.431 -5.65404 0.753313 0
M  V30 7545 O 723.365 -5.39213 2.67457 0
M  V30 7546 H 727.191 -2.12361 2.17109 0
M  V30 7547 H 724.776 -0.996684 1.11295 0
M  V30 7548 H 726.658 -4.14174 0.777033 0
M  V30 7549 H 725.333 -3.237 -0.00500301 0
M  V30 7550 H 724.24 -2.95432 2.29501 0
M  V30 7551 H 725.573 -3.89902 3.00396 0
M  V30 7552 N 727.225 -1.14528 -1.08264 0
M  V30 7553 C 728.641 -0.885976 -1.3275 0
M  V30 7554 C 728.841 0.472096 -1.95892 0
M  V30 7555 O 727.897 1.21606 -2.21288 0
M  V30 7556 C 729.21 -2.01982 -2.22764 0
M  V30 7557 C 730.758 -2.05329 -2.36239 0
M  V30 7558 C 731.233 -3.1801 -3.29596 0
M  V30 7559 N 732.724 -3.17598 -3.37173 0
M  V30 7560 C 733.459 -4.01426 -4.09444 0
M  V30 7561 N 732.955 -4.95297 -4.8441 0
M  V30 7562 N 734.748 -3.89482 -4.0529 0
M  V30 7563 H 726.899 -2.01996 -0.656607 0
M  V30 7564 H 729.162 -0.880274 -0.351884 0
M  V30 7565 H 728.868 -2.99964 -1.83615 0
M  V30 7566 H 728.742 -1.94421 -3.23234 0
M  V30 7567 H 731.129 -1.07953 -2.74646 0
M  V30 7568 H 731.21 -2.1696 -1.35506 0
M  V30 7569 H 730.854 -4.15633 -2.9191 0
M  V30 7570 H 730.784 -3.03616 -4.30261 0
M  V30 7571 H 733.275 -2.4961 -2.83731 0
M  V30 7572 H 733.588 -5.55723 -5.37021 0
M  V30 7573 H 731.933 -4.99293 -4.83457 0
M  V30 7574 H 735.124 -3.15465 -3.45832 0
M  V30 7575 H 735.297 -4.55039 -4.6135 0
M  V30 7576 N 728.703 1.26451 -0.940633 0
M  V30 7577 C 729.613 2.30128 -0.455881 0
M  V30 7578 C 730.629 1.67536 0.469867 0
M  V30 7579 O 731.805 1.98344 0.349529 0
M  V30 7580 C 728.87 3.45634 0.271648 0
M  V30 7581 C 727.931 4.23709 -0.690594 0
M  V30 7582 C 727.164 5.337 0.00231047 0
M  V30 7583 O 727.387 5.57215 1.21935 0
M  V30 7584 O 726.321 5.98091 -0.676111 0
M  V30 7585 H 730.147 2.73655 -1.31707 0
M  V30 7586 H 727.732 1.3164 -0.706497 0
M  V30 7587 H 729.614 4.15853 0.681486 0
M  V30 7588 H 728.289 3.04138 1.10824 0
M  V30 7589 H 727.196 3.55974 -1.15037 0
M  V30 7590 H 728.529 4.68953 -1.49478 0
M  V30 7591 N 730.181 0.707592 1.40822 0
M  V30 7592 C 731.458 0.171172 1.9485 0
M  V30 7593 C 731.838 -1.32143 1.64625 0
M  V30 7594 O 731.186 -2.07372 0.959647 0
M  V30 7595 C 731.396 0.475334 3.45748 0
M  V30 7596 C 732.744 0.409625 4.22619 0
M  V30 7597 O 733.768 0.410934 3.53822 0
M  V30 7598 O 732.627 0.380185 5.45176 0
M  V30 7599 H 729.721 0.022015 0.826707 0
M  V30 7600 H 732.267 0.784577 1.50474 0
M  V30 7601 H 731.039 1.50801 3.61075 0
M  V30 7602 H 730.662 -0.168439 3.97243 0
M  V30 7603 N 731.66 -1.50943 0.453197 0
M  V30 7604 C 732.885 -2.07116 -0.108463 0
M  V30 7605 C 733.31 -1.31681 -1.3432 0
M  V30 7606 O 732.668 -0.359256 -1.77705 0
M  V30 7607 C 732.716 -3.58447 -0.393424 0
M  V30 7608 O 731.82 -3.85038 -1.47714 0
M  V30 7609 H 731.161 -0.66398 0.0050993 0
M  V30 7610 H 733.691 -1.94362 0.639095 0
M  V30 7611 H 733.701 -4.02961 -0.639222 0
M  V30 7612 H 732.376 -4.12774 0.508946 0
M  V30 7613 H 730.953 -3.52376 -1.22006 0
M  V30 7614 N 733.138 -0.185124 -1.56509 0
M  V30 7615 C 734.549 0.329221 -1.83774 0
M  V30 7616 C 734.9 1.62093 -1.10545 0
M  V30 7617 O 734.025 2.13334 -0.36298 0
M  V30 7618 C 734.62 0.604099 -3.33371 0
M  V30 7619 C 733.179 1.06284 -3.61083 0
M  V30 7620 C 732.326 0.10608 -2.77097 0
M  V30 7621 H 735.277 -0.409116 -1.53336 0
M  V30 7622 H 735.298 1.45458 -3.51599 0
M  V30 7623 H 734.81 -0.336201 -3.86641 0
M  V30 7624 H 732.911 2.01777 -3.13236 0
M  V30 7625 H 733.024 0.962453 -4.69333 0
M  V30 7626 H 731.388 0.606082 -2.47384 0
M  V30 7627 H 732.171 -0.828486 -3.33153 0
M  V30 7628 N 734.616 1.57351 0.0885366 0
M  V30 7629 C 735.548 1.99221 1.13329 0
M  V30 7630 C 736.561 0.895705 1.35945 0
M  V30 7631 O 737.75 1.17376 1.34481 0
M  V30 7632 C 734.85 2.3016 2.48756 0
M  V30 7633 C 734.023 3.61444 2.46327 0
M  V30 7634 C 733.082 3.80244 3.63732 0
M  V30 7635 O 732.108 4.52024 3.45924 0
M  V30 7636 N 733.31 3.2132 4.8346 0
M  V30 7637 H 736.075 2.89456 0.776862 0
M  V30 7638 H 733.636 1.59505 0.277428 0
M  V30 7639 H 735.628 2.39925 3.25911 0
M  V30 7640 H 734.198 1.459 2.76464 0
M  V30 7641 H 733.418 3.62588 1.54673 0
M  V30 7642 H 734.706 4.47678 2.41789 0
M  V30 7643 H 734.104 2.63028 5.00832 0
M  V30 7644 H 732.661 3.3656 5.58185 0
M  V30 7645 N 736.094 -0.359525 1.53444 0
M  V30 7646 C 737.319 -1.12644 1.74144 0
M  V30 7647 C 737.744 -1.82082 0.472007 0
M  V30 7648 O 737.102 -1.71962 -0.57436 0
M  V30 7649 C 737.15 -2.12781 2.9113 0
M  V30 7650 O 736.254 -3.19984 2.60162 0
M  V30 7651 H 735.595 -0.326553 0.578152 0
M  V30 7652 H 738.125 -0.414798 2.00351 0
M  V30 7653 H 738.135 -2.56278 3.17467 0
M  V30 7654 H 736.81 -1.61634 3.83207 0
M  V30 7655 H 735.387 -2.81417 2.44661 0
M  V30 7656 N 737.572 -1.44907 -0.619662 0
M  V30 7657 C 738.522 -1.49085 -1.72504 0
M  V30 7658 C 739.506 -0.355372 -1.56926 0
M  V30 7659 O 740.698 -0.601441 -1.66468 0
M  V30 7660 C 737.827 -1.44889 -3.11227 0
M  V30 7661 C 736.913 -2.63593 -3.32234 0
M  V30 7662 N 737.304 -3.88775 -3.23555 0
M  V30 7663 C 735.602 -2.59033 -3.63067 0
M  V30 7664 C 736.303 -4.67932 -3.45564 0
M  V30 7665 N 735.279 -3.9919 -3.68983 0
M  V30 7666 H 739.081 -2.43706 -1.6427 0
M  V30 7667 H 736.595 -1.4003 -0.82252 0
M  V30 7668 H 738.592 -1.45966 -3.90512 0
M  V30 7669 H 737.252 -0.513143 -3.2062 0
M  V30 7670 H 738.263 -4.20574 -3.02221 0
M  V30 7671 H 734.94 -1.7431 -3.79371 0
M  V30 7672 H 736.33 -5.76952 -3.44349 0
M  V30 7673 N 739.05 0.861098 -1.31996 0
M  V30 7674 C 740.296 1.61721 -1.22369 0
M  V30 7675 C 740.629 1.93 0.215587 0
M  V30 7676 O 739.904 1.56789 1.15098 0
M  V30 7677 C 740.187 2.9417 -2.07691 0
M  V30 7678 C 740.04 2.69714 -3.59965 0
M  V30 7679 C 741.359 3.95372 -1.93312 0
M  V30 7680 H 738.478 0.586822 -0.44588 0
M  V30 7681 H 741.12 0.994788 -1.61876 0
M  V30 7682 H 739.27 3.47292 -1.74128 0
M  V30 7683 H 740.942 2.23196 -4.03709 0
M  V30 7684 H 739.185 2.03789 -3.82952 0
M  V30 7685 H 739.856 3.63996 -4.14983 0
M  V30 7686 H 742.332 3.51487 -2.22701 0
M  V30 7687 H 741.208 4.85916 -2.55298 0
M  V30 7688 H 741.469 4.32865 -0.898922 0
M  V30 7689 N 740.528 1.15101 1.07655 0
M  V30 7690 C 741.458 0.867864 2.16773 0
M  V30 7691 C 742.439 -0.180283 1.69142 0
M  V30 7692 O 743.624 -0.0353152 1.94168 0
M  V30 7693 C 740.754 0.35299 3.45501 0
M  V30 7694 C 739.708 1.33746 4.06566 0
M  V30 7695 C 739.034 0.681562 5.30338 0
M  V30 7696 C 740.334 2.7024 4.46954 0
M  V30 7697 H 742.028 1.78034 2.40716 0
M  V30 7698 H 739.574 0.857435 1.15689 0
M  V30 7699 H 741.527 0.142465 4.21159 0
M  V30 7700 H 740.251 -0.594945 3.21135 0
M  V30 7701 H 738.91 1.53429 3.32949 0
M  V30 7702 H 738.558 -0.272422 5.02262 0
M  V30 7703 H 738.258 1.33853 5.72151 0
M  V30 7704 H 739.782 0.48074 6.08705 0
M  V30 7705 H 741.196 2.5442 5.13754 0
M  V30 7706 H 739.593 3.32282 4.99709 0
M  V30 7707 H 740.663 3.26537 3.58471 0
M  V30 7708 N 742.006 -1.2595 0.947325 0
M  V30 7709 C 743.252 -1.9375 0.599064 0
M  V30 7710 C 743.585 -1.74088 -0.860632 0
M  V30 7711 O 742.86 -1.08158 -1.61654 0
M  V30 7712 C 743.143 -3.47353 0.949634 0
M  V30 7713 C 742.996 -3.76273 2.46452 0
M  V30 7714 C 744.315 -4.37589 0.469442 0
M  V30 7715 H 741.434 -0.703674 0.219115 0
M  V30 7716 H 744.076 -1.48705 1.18266 0
M  V30 7717 H 742.226 -3.8585 0.453008 0
M  V30 7718 H 743.898 -3.47455 3.03435 0
M  V30 7719 H 742.141 -3.22135 2.90537 0
M  V30 7720 H 742.812 -4.83664 2.66032 0
M  V30 7721 H 745.288 -4.06353 0.89534 0
M  V30 7722 H 744.164 -5.43841 0.7435 0
M  V30 7723 H 744.425 -4.37579 -0.630618 0
M  V30 7724 N 743.484 -0.715051 -1.40445 0
M  V30 7725 C 744.417 -0.0112426 -2.28197 0
M  V30 7726 C 745.395 0.768211 -1.43308 0
M  V30 7727 O 746.579 0.754961 -1.72721 0
M  V30 7728 C 743.706 0.991453 -3.23864 0
M  V30 7729 C 742.752 0.302873 -4.25423 0
M  V30 7730 S 743.585 -0.968852 -5.26663 0
M  V30 7731 C 744.741 0.0317538 -6.25892 0
M  V30 7732 H 744.974 -0.755467 -2.87541 0
M  V30 7733 H 742.507 -0.506054 -1.45871 0
M  V30 7734 H 744.465 1.56475 -3.79507 0
M  V30 7735 H 743.126 1.70838 -2.63578 0
M  V30 7736 H 742.319 1.06086 -4.92709 0
M  V30 7737 H 741.921 -0.197853 -3.73476 0
M  V30 7738 H 744.213 0.878764 -6.71777 0
M  V30 7739 H 745.156 -0.607698 -7.05488 0
M  V30 7740 H 745.564 0.39524 -5.63115 0
M  V30 7741 N 744.962 1.50701 -0.461195 0
M  V30 7742 C 745.909 2.2831 0.338094 0
M  V30 7743 C 746.879 1.32928 0.995957 0
M  V30 7744 O 748.064 1.61857 1.0103 0
M  V30 7745 C 745.204 3.14539 1.41983 0
M  V30 7746 C 744.317 4.24942 0.77773 0
M  V30 7747 C 743.452 4.98443 1.83652 0
M  V30 7748 C 742.491 6.00733 1.17413 0
M  V30 7749 N 741.628 6.6755 2.17533 0
M  V30 7750 H 746.468 2.96167 -0.330051 0
M  V30 7751 H 744.005 1.4606 -0.174611 0
M  V30 7752 H 745.963 3.62877 2.05855 0
M  V30 7753 H 744.593 2.48749 2.05727 0
M  V30 7754 H 743.645 3.80391 0.0266924 0
M  V30 7755 H 744.957 4.98151 0.254362 0
M  V30 7756 H 744.111 5.50449 2.55129 0
M  V30 7757 H 742.85 4.24917 2.39367 0
M  V30 7758 H 741.855 5.47997 0.444944 0
M  V30 7759 H 743.08 6.76227 0.624006 0
M  V30 7760 H 741.026 5.96823 2.72284 0
M  V30 7761 H 740.943 7.36603 1.70154 0
M  V30 7762 H 742.211 7.24178 2.88421 0
M  V30 7763 N 746.441 0.193421 1.56409 0
M  V30 7764 C 747.689 -0.444908 1.97142 0
M  V30 7765 C 748.01 -1.62268 1.08139 0
M  V30 7766 O 747.28 -1.95307 0.152326 0
M  V30 7767 H 745.86 -0.16736 0.728011 0
M  V30 7768 H 748.522 0.279763 1.92882 0
M  V30 7769 H 747.618 -0.790159 3.01932 0
M  V30 7770 N 747.919 -1.57396 -0.0801906 0
M  V30 7771 C 748.882 -2.02133 -1.0805 0
M  V30 7772 C 749.882 -0.91707 -1.32085 0
M  V30 7773 O 751.072 -1.18217 -1.27947 0
M  V30 7774 C 748.204 -2.39479 -2.42616 0
M  V30 7775 H 749.397 -2.91733 -0.6951 0
M  V30 7776 H 746.95 -1.52869 -0.325677 0
M  V30 7777 H 747.685 -1.52879 -2.86004 0
M  V30 7778 H 747.47 -3.20052 -2.26515 0
M  V30 7779 H 748.96 -2.74697 -3.14534 0
M  V30 7780 N 749.397 0.351382 -1.53633 0
M  V30 7781 C 750.808 0.927429 -1.62036 0
M  V30 7782 C 751.159 1.89809 -0.496706 0
M  V30 7783 O 750.284 2.1313 0.374749 0
M  V30 7784 C 750.879 1.68886 -2.93706 0
M  V30 7785 C 749.438 2.21404 -3.04397 0
M  V30 7786 C 748.585 1.03075 -2.57431 0
M  V30 7787 H 751.536 0.129748 -1.58169 0
M  V30 7788 H 751.557 2.55116 -2.82305 0
M  V30 7789 H 751.069 0.982149 -3.75467 0
M  V30 7790 H 749.17 2.95274 -2.27253 0
M  V30 7791 H 749.283 2.48312 -4.09729 0
M  V30 7792 H 747.647 1.40188 -2.12649 0
M  V30 7793 H 748.43 0.338793 -3.41624 0
M  V30 7794 N 750.875 1.45233 0.611969 0
M  V30 7795 C 751.785 1.56098 1.7513 0
M  V30 7796 C 752.801 0.445646 1.68196 0
M  V30 7797 O 753.977 0.705718 1.88631 0
M  V30 7798 C 751.042 1.52052 3.11579 0
M  V30 7799 C 750.103 2.74589 3.29999 0
M  V30 7800 C 749.336 2.70726 4.59938 0
M  V30 7801 O 749.559 1.77806 5.41979 0
M  V30 7802 O 748.493 3.61864 4.80976 0
M  V30 7803 H 752.319 2.52392 1.68914 0
M  V30 7804 H 749.904 1.27695 0.775528 0
M  V30 7805 H 751.786 1.52387 3.92882 0
M  V30 7806 H 750.461 0.589085 3.18295 0
M  V30 7807 H 749.368 2.79817 2.48301 0
M  V30 7808 H 750.701 3.66843 3.28157 0
M  V30 7809 N 752.353 -0.854086 1.3245 0
M  V30 7810 C 753.769 -1.14238 1.11453 0
M  V30 7811 C 753.969 -2.01228 -0.10461 0
M  V30 7812 O 753.025 -2.39845 -0.789339 0
M  V30 7813 C 754.338 -1.81916 2.39431 0
M  V30 7814 C 755.886 -1.94549 2.45193 0
M  V30 7815 C 756.361 -2.65642 3.73093 0
M  V30 7816 N 757.852 -2.73167 3.74078 0
M  V30 7817 C 758.587 -3.28828 4.69744 0
M  V30 7818 N 758.083 -3.85295 5.75778 0
M  V30 7819 N 759.876 -3.26936 4.57241 0
M  V30 7820 H 752.027 -0.274786 2.10615 0
M  V30 7821 H 754.29 -0.184375 0.929898 0
M  V30 7822 H 753.996 -1.25452 3.28565 0
M  V30 7823 H 753.87 -2.82068 2.50434 0
M  V30 7824 H 756.257 -2.50172 1.56518 0
M  V30 7825 H 756.338 -0.933914 2.38142 0
M  V30 7826 H 755.982 -2.10683 4.62142 0
M  V30 7827 H 755.912 -3.6724 3.77415 0
M  V30 7828 H 758.403 -2.33108 2.97438 0
M  V30 7829 H 758.716 -4.25925 6.44832 0
M  V30 7830 H 757.061 -3.83625 5.79531 0
M  V30 7831 H 760.252 -2.8207 3.7357 0
M  V30 7832 H 760.425 -3.70014 5.31971 0
M  V30 7833 N 753.831 -1.1567 -1.07043 0
M  V30 7834 C 755.08 -0.928039 -1.79082 0
M  V30 7835 C 755.393 0.545968 -1.87826 0
M  V30 7836 O 756.599 0.892308 -2.56418 0
M  V30 7837 C 755.055 -1.61103 -3.21829 0
M  V30 7838 C 754.663 -3.12228 -3.21275 0
M  V30 7839 C 756.407 -1.46404 -3.98455 0
M  V30 7840 C 754.314 -3.733 -4.58695 0
M  V30 7841 H 753.244 -0.34357 -0.671175 0
M  V30 7842 H 755.895 -1.38718 -1.20123 0
M  V30 7843 H 754.277 -1.07958 -3.81 0
M  V30 7844 H 755.451 -3.72155 -2.71731 0
M  V30 7845 H 753.766 -3.26725 -2.58147 0
M  V30 7846 H 756.363 -1.8942 -5.00024 0
M  V30 7847 H 756.706 -0.41195 -4.14257 0
M  V30 7848 H 757.239 -1.96663 -3.45787 0
M  V30 7849 H 753.978 -4.78423 -4.48098 0
M  V30 7850 H 753.498 -3.18157 -5.08465 0
M  V30 7851 H 755.177 -3.7441 -5.27661 0
M  V30 7852 N 755.309 1.25446 -0.953992 0
M  V30 7853 C 756.239 2.28264 -0.491717 0
M  V30 7854 C 757.22 1.63717 0.461617 0
M  V30 7855 O 758.405 1.90821 0.36071 0
M  V30 7856 C 755.535 3.46525 0.231915 0
M  V30 7857 C 754.489 4.23247 -0.636098 0
M  V30 7858 C 753.815 5.34254 0.218238 0
M  V30 7859 C 755.115 4.85971 -1.91389 0
M  V30 7860 H 756.809 2.67183 -1.35106 0
M  V30 7861 H 754.355 1.2844 -0.651095 0
M  V30 7862 H 756.308 4.17576 0.566439 0
M  V30 7863 H 755.032 3.06594 1.12551 0
M  V30 7864 H 753.691 3.53978 -0.953696 0
M  V30 7865 H 753.339 4.90564 1.11156 0
M  V30 7866 H 753.039 5.86501 -0.359232 0
M  V30 7867 H 754.563 6.08138 0.547743 0
M  V30 7868 H 755.977 5.49168 -1.64581 0
M  V30 7869 H 754.374 5.48391 -2.43696 0
M  V30 7870 H 755.444 4.08192 -2.61738 0
M  V30 7871 N 756.787 0.722489 1.40064 0
M  V30 7872 C 758.064 0.191829 1.94657 0
M  V30 7873 C 758.444 -1.30389 1.66018 0
M  V30 7874 O 757.792 -2.06342 0.981588 0
M  V30 7875 C 758.002 0.511978 3.45224 0
M  V30 7876 C 759.35 0.454426 4.22161 0
M  V30 7877 O 760.374 0.448438 3.53366 0
M  V30 7878 O 759.233 0.437986 5.44742 0
M  V30 7879 H 756.327 0.0307821 0.826427 0
M  V30 7880 H 758.873 0.800493 1.49634 0
M  V30 7881 H 757.645 1.54622 3.59455 0
M  V30 7882 H 757.268 -0.126296 3.97399 0
M  V30 7883 N 758.265 -1.50454 0.469181 0
M  V30 7884 C 759.681 -1.59124 0.123226 0
M  V30 7885 C 759.881 -1.47749 -1.37013 0
M  V30 7886 O 758.937 -1.335 -2.14322 0
M  V30 7887 C 760.25 -2.93101 0.67172 0
M  V30 7888 C 761.798 -3.06491 0.634978 0
M  V30 7889 C 762.273 -4.43041 1.16098 0
M  V30 7890 N 763.764 -4.49448 1.12031 0
M  V30 7891 C 764.499 -5.53491 1.49784 0
M  V30 7892 N 763.995 -6.64798 1.94976 0
M  V30 7893 N 765.788 -5.44025 1.41399 0
M  V30 7894 H 757.939 -1.56091 1.44046 0
M  V30 7895 H 760.202 -0.737564 0.59557 0
M  V30 7896 H 759.908 -3.06895 1.7178 0
M  V30 7897 H 759.782 -3.77027 0.114222 0
M  V30 7898 H 762.169 -2.92346 -0.402187 0
M  V30 7899 H 762.25 -2.24328 1.22926 0
M  V30 7900 H 761.894 -4.57935 2.19677 0
M  V30 7901 H 761.824 -5.23794 0.542939 0
M  V30 7902 H 764.315 -3.69575 0.788828 0
M  V30 7903 H 764.628 -7.40246 2.21936 0
M  V30 7904 H 762.973 -6.65923 1.98927 0
M  V30 7905 H 766.164 -4.55955 1.05935 0
M  V30 7906 H 766.337 -6.2499 1.71147 0
M  V30 7907 N 759.743 -0.201713 -1.56304 0
M  V30 7908 C 760.983 0.437395 -1.99665 0
M  V30 7909 C 761.347 1.58341 -1.08592 0
M  V30 7910 O 762.548 2.28716 -1.41217 0
M  V30 7911 C 760.819 0.879572 -3.46408 0
M  V30 7912 S 762.378 1.51558 -4.11795 0
M  V30 7913 H 759.196 0.139621 -0.697156 0
M  V30 7914 H 761.798 -0.306337 -1.93085 0
M  V30 7915 H 760.502 0.0355295 -4.10385 0
M  V30 7916 H 760.033 1.65661 -3.56819 0
M  V30 7917 H 762.048 2.80445 -4.09347 0
M  V30 7918 N 761.222 1.57436 0.0718424 0
M  V30 7919 C 762.447 1.91858 0.787745 0
M  V30 7920 C 762.872 0.798119 1.70328 0
M  V30 7921 O 762.23 -0.24905 1.79581 0
M  V30 7922 C 762.278 3.25232 1.55744 0
M  V30 7923 O 761.382 3.14462 2.6681 0
M  V30 7924 H 760.723 0.628258 0.214914 0
M  V30 7925 H 763.253 2.04561 0.0401012 0
M  V30 7926 H 763.263 3.59105 1.9367 0
M  V30 7927 H 761.938 4.0636 0.885691 0
M  V30 7928 H 760.515 2.92148 2.31741 0
M  V30 7929 N 762.7 -0.34323 1.53817 0
M  V30 7930 C 763.928 -1.10348 1.75017 0
M  V30 7931 C 764.343 -1.82345 0.489475 0
M  V30 7932 O 763.7 -1.74362 -0.538886 0
M  V30 7933 C 763.751 -2.11672 2.93048 0
M  V30 7934 O 763.472 -1.42603 4.14241 0
M  V30 7935 C 764.973 -3.0007 3.26301 0
M  V30 7936 H 762.193 -0.329056 0.584776 0
M  V30 7937 H 764.737 -0.395339 2.00642 0
M  V30 7938 H 762.892 -2.78051 2.69753 0
M  V30 7939 H 763.306 -2.10294 4.80496 0
M  V30 7940 H 764.78 -3.67101 4.12239 0
M  V30 7941 H 765.257 -3.66105 2.42618 0
M  V30 7942 H 765.863 -2.3928 3.51604 0
M  V30 7943 N 764.178 -1.45556 -0.604258 0
M  V30 7944 C 765.427 -1.49019 -1.35928 0
M  V30 7945 C 765.74 -0.137409 -1.95117 0
M  V30 7946 O 766.946 -0.0497032 -2.71455 0
M  V30 7947 C 765.402 -2.62477 -2.46239 0
M  V30 7948 C 765.01 -4.04082 -1.93447 0
M  V30 7949 C 766.754 -2.7519 -3.23219 0
M  V30 7950 C 764.661 -5.08917 -3.0126 0
M  V30 7951 H 763.591 -0.554518 -0.510907 0
M  V30 7952 H 766.242 -1.71705 -0.647262 0
M  V30 7953 H 764.624 -2.3308 -3.2014 0
M  V30 7954 H 765.798 -4.43173 -1.26232 0
M  V30 7955 H 764.113 -3.95849 -1.29201 0
M  V30 7956 H 766.71 -3.50683 -4.0364 0
M  V30 7957 H 767.053 -1.81941 -3.74437 0
M  V30 7958 H 767.586 -3.04129 -2.56418 0
M  V30 7959 H 764.325 -6.03886 -2.54955 0
M  V30 7960 H 763.845 -4.74393 -3.67031 0
M  V30 7961 H 765.524 -5.33814 -3.65584 0
M  V30 7962 N 765.656 0.84705 -1.32902 0
M  V30 7963 C 766.586 1.97166 -1.25091 0
M  V30 7964 C 767.567 1.69578 -0.133161 0
M  V30 7965 O 768.752 1.91519 -0.321591 0
M  V30 7966 C 765.882 3.33157 -0.981006 0
M  V30 7967 C 764.836 3.75119 -2.06082 0
M  V30 7968 C 764.162 5.08826 -1.64318 0
M  V30 7969 C 765.462 3.89774 -3.47669 0
M  V30 7970 H 767.156 2.03958 -2.19184 0
M  V30 7971 H 764.702 0.979907 -1.05517 0
M  V30 7972 H 766.655 4.11393 -0.912891 0
M  V30 7973 H 765.379 3.266 -0.00445559 0
M  V30 7974 H 764.038 2.9914 -2.11921 0
M  V30 7975 H 763.686 4.98732 -0.653876 0
M  V30 7976 H 763.386 5.37873 -2.36572 0
M  V30 7977 H 764.91 5.89546 -1.58958 0
M  V30 7978 H 766.324 4.58343 -3.44376 0
M  V30 7979 H 764.721 4.30248 -4.18338 0
M  V30 7980 H 765.791 2.92463 -3.86773 0
M  V30 7981 N 767.134 1.16236 1.06428 0
M  V30 7982 C 768.38 0.944431 1.79467 0
M  V30 7983 C 768.713 -0.526558 1.86925 0
M  V30 7984 O 767.988 -1.39061 1.35986 0
M  V30 7985 C 768.271 1.57092 3.24028 0
M  V30 7986 C 768.124 3.11315 3.24658 0
M  V30 7987 C 769.443 1.26447 4.21544 0
M  V30 7988 H 766.562 0.344521 0.651517 0
M  V30 7989 H 769.204 1.43545 1.24478 0
M  V30 7990 H 767.354 1.15337 3.70985 0
M  V30 7991 H 769.026 3.62042 2.85873 0
M  V30 7992 H 767.269 3.44716 2.6335 0
M  V30 7993 H 767.94 3.50269 4.26633 0
M  V30 7994 H 770.416 1.62581 3.83023 0
M  V30 7995 H 769.292 1.72885 5.20963 0
M  V30 7996 H 769.553 0.183068 4.41721 0
M  V30 7997 N 768.612 -1.24939 0.960631 0
M  V30 7998 C 769.544 -2.24879 0.442937 0
M  V30 7999 C 770.557 -1.56615 -0.444464 0
M  V30 8000 O 771.746 -1.76715 -0.251776 0
M  V30 8001 C 768.846 -3.36757 -0.380537 0
M  V30 8002 C 768.019 -4.34587 0.495283 0
M  V30 8003 C 767.078 -5.25502 -0.270995 0
M  V30 8004 O 766.104 -5.68227 0.332661 0
M  V30 8005 N 767.306 -5.59077 -1.56249 0
M  V30 8006 H 770.071 -2.69932 1.30218 0
M  V30 8007 H 767.632 -1.38907 0.83166 0
M  V30 8008 H 769.624 -3.94542 -0.90103 0
M  V30 8009 H 768.194 -2.91045 -1.14067 0
M  V30 8010 H 767.414 -3.75593 1.19682 0
M  V30 8011 H 768.702 -4.96925 1.09285 0
M  V30 8012 H 768.1 -5.2628 -2.07476 0
M  V30 8013 H 766.657 -6.19421 -2.02882 0
M  V30 8014 N 770.09 -0.729906 -1.39679 0
M  V30 8015 C 771.338 -0.275077 -2.00219 0
M  V30 8016 C 771.659 1.1401 -1.58199 0
M  V30 8017 O 770.929 1.77546 -0.827904 0
M  V30 8018 H 769.509 -0.0987127 -0.740449 0
M  V30 8019 H 772.171 -0.93873 -1.70804 0
M  V30 8020 H 771.267 -0.319446 -3.10461 0
M  V30 8021 N 771.568 1.50203 -0.477153 0
M  V30 8022 C 772.515 2.28656 0.31386 0
M  V30 8023 C 773.485 1.33977 0.981802 0
M  V30 8024 O 774.67 1.62919 0.993072 0
M  V30 8025 C 771.81 3.16027 1.38639 0
M  V30 8026 C 770.923 4.25743 0.732615 0
M  V30 8027 C 770.058 5.00363 1.78355 0
M  V30 8028 C 769.097 6.01945 1.11035 0
M  V30 8029 N 768.234 6.6982 2.10441 0
M  V30 8030 H 773.074 2.958 -0.361445 0
M  V30 8031 H 770.611 1.45867 -0.190093 0
M  V30 8032 H 772.569 3.6504 2.01994 0
M  V30 8033 H 771.199 2.50917 2.03077 0
M  V30 8034 H 770.251 3.80398 -0.0136546 0
M  V30 8035 H 771.563 4.98393 0.201513 0
M  V30 8036 H 770.717 5.53124 2.49276 0
M  V30 8037 H 769.456 4.27432 2.34847 0
M  V30 8038 H 768.461 5.48438 0.386797 0
M  V30 8039 H 769.686 6.76851 0.552248 0
M  V30 8040 H 767.632 5.99677 2.65939 0
M  V30 8041 H 767.549 7.38366 1.62332 0
M  V30 8042 H 768.817 7.27196 2.80724 0
M  V30 8043 N 773.046 0.209999 1.56195 0
M  V30 8044 C 773.956 -0.716459 2.23392 0
M  V30 8045 C 774.972 -1.22291 1.23778 0
M  V30 8046 O 776.148 -1.26694 1.56558 0
M  V30 8047 C 773.213 -1.91261 2.89172 0
M  V30 8048 C 772.274 -1.44927 4.04097 0
M  V30 8049 C 771.507 -2.5884 4.66731 0
M  V30 8050 O 771.73 -3.76693 4.2832 0
M  V30 8051 O 770.664 -2.30701 5.55932 0
M  V30 8052 H 774.49 -0.174089 3.03201 0
M  V30 8053 H 772.075 -0.0199505 1.49387 0
M  V30 8054 H 773.957 -2.6114 3.30733 0
M  V30 8055 H 772.632 -2.4433 2.12331 0
M  V30 8056 H 771.539 -0.718839 3.67129 0
M  V30 8057 H 772.872 -0.965084 4.82646 0
M  V30 8058 N 774.524 -1.57472 -0.0634922 0
M  V30 8059 C 775.773 -1.86837 -0.759928 0
M  V30 8060 C 776.086 -0.803823 -1.7832 0
M  V30 8061 O 777.292 -0.985578 -2.52979 0
M  V30 8062 C 775.748 -3.31448 -1.4025 0
M  V30 8063 C 775.356 -4.46052 -0.417368 0
M  V30 8064 C 777.1 -3.70003 -2.08082 0
M  V30 8065 C 775.007 -5.81707 -1.06633 0
M  V30 8066 H 773.937 -0.697009 -0.287567 0
M  V30 8067 H 776.588 -1.83495 -0.0133914 0
M  V30 8068 H 774.97 -3.29427 -2.19759 0
M  V30 8069 H 776.144 -4.5948 0.348503 0
M  V30 8070 H 774.459 -4.16104 0.156955 0
M  V30 8071 H 777.056 -4.68653 -2.57426 0
M  V30 8072 H 777.399 -3.00226 -2.88393 0
M  V30 8073 H 777.932 -3.7405 -1.35394 0
M  V30 8074 H 774.671 -6.54798 -0.303374 0
M  V30 8075 H 774.191 -5.72064 -1.80286 0
M  V30 8076 H 775.87 -6.27317 -1.58376 0
M  V30 8077 N 776.003 0.335068 -1.53997 0
M  V30 8078 C 777.414 0.910191 -1.6301 0
M  V30 8079 C 777.765 1.89271 -0.516809 0
M  V30 8080 O 776.89 2.13516 0.352123 0
M  V30 8081 C 777.485 1.65761 -2.9548 0
M  V30 8082 C 776.044 2.18163 -3.06728 0
M  V30 8083 C 775.191 1.00338 -2.5851 0
M  V30 8084 H 778.142 0.112965 -1.58297 0
M  V30 8085 H 778.163 2.52107 -2.84995 0
M  V30 8086 H 777.675 0.94227 -3.76488 0
M  V30 8087 H 775.776 2.92847 -2.30372 0
M  V30 8088 H 775.889 2.43952 -4.1234 0
M  V30 8089 H 774.253 1.37925 -2.14124 0
M  V30 8090 H 775.036 0.30254 -3.41964 0
M  V30 8091 N 777.481 1.45874 0.596531 0
M  V30 8092 C 778.411 1.5824 1.71705 0
M  V30 8093 C 779.392 0.433366 1.64487 0
M  V30 8094 O 780.577 0.657895 1.82717 0
M  V30 8095 C 777.707 1.55927 3.10329 0
M  V30 8096 C 776.661 2.69659 3.32367 0
M  V30 8097 C 775.987 2.52403 4.71377 0
M  V30 8098 C 777.287 4.11591 3.21544 0
M  V30 8099 H 778.981 2.52035 1.61613 0
M  V30 8100 H 776.527 1.21297 0.776082 0
M  V30 8101 H 778.48 1.63173 3.88526 0
M  V30 8102 H 777.204 0.586674 3.21288 0
M  V30 8103 H 775.863 2.61859 2.56564 0
M  V30 8104 H 775.511 1.53258 4.79083 0
M  V30 8105 H 775.211 3.28679 4.87077 0
M  V30 8106 H 776.735 2.6152 5.5176 0
M  V30 8107 H 778.149 4.20576 3.89601 0
M  V30 8108 H 776.546 4.88344 3.4877 0
M  V30 8109 H 777.616 4.32719 2.1882 0
M  V30 8110 N 778.959 -0.83999 1.33349 0
M  V30 8111 C 780.236 -1.57973 1.15342 0
M  V30 8112 C 780.616 -2.09226 -0.280632 0
M  V30 8113 O 779.964 -1.89317 -1.2795 0
M  V30 8114 C 780.174 -2.71446 2.19359 0
M  V30 8115 C 781.522 -3.40654 2.53456 0
M  V30 8116 O 782.546 -2.81686 2.18017 0
M  V30 8117 O 781.405 -4.47101 3.14266 0
M  V30 8118 H 778.499 -0.6964 0.446044 0
M  V30 8119 H 781.045 -0.882843 1.44927 0
M  V30 8120 H 779.817 -2.31205 3.1569 0
M  V30 8121 H 779.44 -3.488 1.90852 0
M  V30 8122 N 780.437 -1.16799 -1.0581 0
M  V30 8123 C 781.384 -0.87902 -2.13405 0
M  V30 8124 C 782.354 0.174541 -1.6518 0
M  V30 8125 O 783.539 0.0386843 -1.90761 0
M  V30 8126 C 780.679 -0.391616 -3.42871 0
M  V30 8127 C 779.792 -1.50857 -4.04804 0
M  V30 8128 C 778.927 -0.975682 -5.22163 0
M  V30 8129 C 777.966 -2.06851 -5.76089 0
M  V30 8130 N 777.103 -1.55085 -6.84758 0
M  V30 8131 H 781.943 -1.80043 -2.37463 0
M  V30 8132 H 779.48 -0.898083 -1.16503 0
M  V30 8133 H 781.438 -0.0906247 -4.17102 0
M  V30 8134 H 780.068 0.49284 -3.19016 0
M  V30 8135 H 779.12 -1.92542 -3.28073 0
M  V30 8136 H 780.432 -2.33305 -4.40874 0
M  V30 8137 H 779.586 -0.628165 -6.03439 0
M  V30 8138 H 778.325 -0.120566 -4.87551 0
M  V30 8139 H 777.33 -2.42467 -4.93447 0
M  V30 8140 H 778.555 -2.92768 -6.12751 0
M  V30 8141 H 776.501 -0.718345 -6.52055 0
M  V30 8142 H 776.418 -2.31145 -7.19797 0
M  V30 8143 H 777.686 -1.23206 -7.69702 0
M  V30 8144 N 781.915 1.24427 -0.967243 0
M  V30 8145 C 782.825 2.29109 -0.504592 0
M  V30 8146 C 783.841 1.68495 0.434224 0
M  V30 8147 O 785.017 1.99041 0.307379 0
M  V30 8148 C 782.082 3.46133 0.198273 0
M  V30 8149 C 781.143 4.22149 -0.780313 0
M  V30 8150 C 780.376 5.33585 -0.110896 0
M  V30 8151 O 780.599 5.59676 1.10088 0
M  V30 8152 O 779.533 5.96522 -0.802823 0
M  V30 8153 H 783.359 2.708 -1.37482 0
M  V30 8154 H 780.944 1.30111 -0.73426 0
M  V30 8155 H 782.826 4.17205 0.593124 0
M  V30 8156 H 781.501 3.0642 1.04347 0
M  V30 8157 H 780.408 3.53454 -1.22561 0
M  V30 8158 H 781.741 4.65677 -1.59392 0
M  V30 8159 N 783.393 0.737304 1.3929 0
M  V30 8160 C 784.326 0.0475454 2.2815 0
M  V30 8161 C 785.304 -0.745314 1.44512 0
M  V30 8162 O 786.488 -0.727387 1.739 0
M  V30 8163 C 783.615 -0.939803 3.254 0
M  V30 8164 C 782.661 -0.235153 4.25851 0
M  V30 8165 S 783.494 1.05252 5.25055 0
M  V30 8166 C 784.65 0.0678242 6.25863 0
M  V30 8167 H 784.883 0.801117 2.86303 0
M  V30 8168 H 782.416 0.529197 1.45048 0
M  V30 8169 H 784.374 -1.50417 3.81949 0
M  V30 8170 H 783.035 -1.66623 2.66262 0
M  V30 8171 H 782.228 -0.982336 4.94334 0
M  V30 8172 H 781.83 0.257245 3.73114 0
M  V30 8173 H 784.122 -0.771779 6.7309 0
M  V30 8174 H 785.065 0.719858 7.04431 0
M  V30 8175 H 785.473 -0.305604 5.63672 0
M  V30 8176 N 784.871 -1.49948 0.485112 0
M  V30 8177 C 785.803 -2.26691 -0.338222 0
M  V30 8178 C 786.816 -1.32584 -0.944742 0
M  V30 8179 O 788.005 -1.57989 -0.830772 0
M  V30 8180 C 785.105 -3.04405 -1.48966 0
M  V30 8181 C 784.278 -4.25971 -0.993371 0
M  V30 8182 C 783.337 -4.85861 -2.02052 0
M  V30 8183 O 782.363 -5.46382 -1.59547 0
M  V30 8184 N 783.565 -4.74101 -3.34975 0
M  V30 8185 H 786.33 -2.97989 0.319748 0
M  V30 8186 H 783.891 -1.58772 0.316714 0
M  V30 8187 H 785.883 -3.41348 -2.17403 0
M  V30 8188 H 784.453 -2.35815 -2.05207 0
M  V30 8189 H 783.673 -3.93971 -0.134424 0
M  V30 8190 H 784.961 -5.0476 -0.639934 0
M  V30 8191 H 784.359 -4.26002 -3.72208 0
M  V30 8192 H 782.916 -5.15274 -3.9917 0
M  V30 8193 N 786.349 -0.21828 -1.56081 0
M  V30 8194 C 787.626 0.463143 -1.90038 0
M  V30 8195 C 788.006 1.77982 -1.13515 0
M  V30 8196 O 787.354 2.27199 -0.24345 0
M  V30 8197 C 787.564 0.659292 -3.42716 0
M  V30 8198 C 788.912 0.968203 -4.13414 0
M  V30 8199 O 789.936 0.746195 -3.48296 0
M  V30 8200 O 788.795 1.38936 -5.28544 0
M  V30 8201 H 785.889 0.244435 -0.790051 0
M  V30 8202 H 788.435 -0.260221 -1.67693 0
M  V30 8203 H 787.207 -0.269584 -3.9037 0
M  V30 8204 H 786.83 1.43426 -3.7083 0
M  V30 8205 N 787.827 1.57504 0.0551401 0
M  V30 8206 C 788.79 2.03826 1.04821 0
M  V30 8207 C 789.79 0.937968 1.30609 0
M  V30 8208 O 790.98 1.20237 1.2605 0
M  V30 8209 C 788.112 2.43309 2.38775 0
M  V30 8210 H 789.305 2.92802 0.6486 0
M  V30 8211 H 786.858 1.53368 0.301315 0
M  V30 8212 H 787.593 1.5741 2.83536 0
M  V30 8213 H 787.378 3.23615 2.21395 0
M  V30 8214 H 788.868 2.79666 3.10124 0
M  V30 8215 N 789.305 -0.326896 1.54172 0
M  V30 8216 C 790.552 -1.06523 1.72218 0
M  V30 8217 C 790.88 -1.88119 0.494114 0
M  V30 8218 O 790.135 -1.8855 -0.524147 0
M  V30 8219 C 790.434 -2.0208 2.94785 0
M  V30 8220 C 790.1 -1.36665 4.2969 0
M  V30 8221 C 788.762 -1.18556 4.66367 0
M  V30 8222 C 791.114 -0.896868 5.13425 0
M  V30 8223 C 788.442 -0.521113 5.84381 0
M  V30 8224 C 790.794 -0.246261 6.3212 0
M  V30 8225 C 789.458 -0.052987 6.67479 0
M  V30 8226 H 788.728 -0.389796 0.63019 0
M  V30 8227 H 791.375 -0.342725 1.88408 0
M  V30 8228 H 789.68 -2.8077 2.73268 0
M  V30 8229 H 791.377 -2.59231 3.05941 0
M  V30 8230 H 787.967 -1.51762 4.00832 0
M  V30 8231 H 792.151 -1.02458 4.85609 0
M  V30 8232 H 787.407 -0.36014 6.10338 0
M  V30 8233 H 791.581 0.125775 6.96286 0
M  V30 8234 H 789.208 0.463903 7.58783 0
M  V30 8235 N 790.784 -1.46188 -0.588786 0
M  V30 8236 C 791.716 -1.52319 -1.71265 0
M  V30 8237 C 792.729 -0.412096 -1.57498 0
M  V30 8238 O 793.918 -0.680146 -1.65034 0
M  V30 8239 C 791.018 -1.38164 -3.09458 0
M  V30 8240 C 790.191 -2.63284 -3.49286 0
M  V30 8241 C 789.25 -2.43415 -4.66514 0
M  V30 8242 O 788.276 -3.17113 -4.72682 0
M  V30 8243 N 789.478 -1.49187 -5.61002 0
M  V30 8244 H 792.243 -2.49219 -1.66463 0
M  V30 8245 H 789.804 -1.42167 -0.774601 0
M  V30 8246 H 791.796 -1.22653 -3.85666 0
M  V30 8247 H 790.366 -0.494678 -3.08661 0
M  V30 8248 H 789.586 -2.93779 -2.62845 0
M  V30 8249 H 790.874 -3.46413 -3.7266 0
M  V30 8250 H 790.272 -0.884027 -5.5875 0
M  V30 8251 H 788.829 -1.39642 -6.36666 0
M  V30 8252 N 792.262 0.832906 -1.33792 0
M  V30 8253 C 793.21 1.96455 -1.24532 0
M  V30 8254 C 794.204 1.68774 -0.145455 0
M  V30 8255 O 795.41 1.77314 -0.309797 0
M  V30 8256 H 791.785 0.645008 -0.386611 0
M  V30 8257 H 793.756 2.01389 -2.20193 0
M  V30 8258 C 792.505 3.32784 -1.00748 0
M  V30 8259 H 791.828 3.54626 -1.84609 0
M  V30 8260 H 793.268 4.12447 -0.98301 0
M  V30 8261 C 791.727 3.35654 0.289475 0
M  V30 8262 O 792.257 3.80281 1.29419 0
M  V30 8263 N 790.463 2.88843 0.3191 0
M  V30 8264 H 790.01 2.52719 -0.499069 0
M  V30 8265 H 789.968 2.91145 1.18667 0
M  V30 8266 N 793.74 1.17359 1.05189 0
M  V30 8267 C 794.703 0.892604 2.11105 0
M  V30 8268 C 795.703 -0.117236 1.60372 0
M  V30 8269 O 796.893 0.114936 1.7382 0
M  V30 8270 C 794.025 0.337032 3.3923 0
M  V30 8271 H 795.218 1.83169 2.37464 0
M  V30 8272 H 792.771 0.984051 1.21434 0
M  V30 8273 H 793.506 -0.609198 3.18527 0
M  V30 8274 H 793.291 1.06484 3.77364 0
M  V30 8275 H 794.781 0.158763 4.17298 0
M  V30 8276 N 795.218 -1.23913 0.973828 0
M  V30 8277 C 796.448 -1.95911 0.655938 0
M  V30 8278 C 796.856 -1.72375 -0.779967 0
M  V30 8279 O 796.199 -1.00807 -1.5357 0
M  V30 8280 C 796.261 -3.49103 0.858324 0
M  V30 8281 C 795.925 -3.96347 2.27504 0
M  V30 8282 C 796.922 -4.05537 3.25324 0
M  V30 8283 C 794.607 -4.29509 2.60437 0
M  V30 8284 C 796.601 -4.47233 4.5416 0
M  V30 8285 C 794.288 -4.70887 3.89498 0
M  V30 8286 C 795.286 -4.79714 4.86172 0
M  V30 8287 O 794.974 -5.20166 6.1293 0
M  V30 8288 H 794.706 -0.630721 0.243244 0
M  V30 8289 H 797.26 -1.58534 1.30599 0
M  V30 8290 H 795.49 -3.86405 0.151097 0
M  V30 8291 H 797.179 -4.02311 0.538592 0
M  V30 8292 H 797.945 -3.80128 3.0121 0
M  V30 8293 H 793.824 -4.21853 1.85906 0
M  V30 8294 H 797.368 -4.54038 5.29618 0
M  V30 8295 H 793.265 -4.95744 4.1341 0
M  V30 8296 H 794.033 -5.38298 6.16586 0
M  V30 8297 N 796.696 -0.74468 -1.38897 0
M  V30 8298 C 797.629 -0.0596441 -2.28122 0
M  V30 8299 C 798.607 0.73764 -1.44906 0
M  V30 8300 O 799.791 0.718155 -1.74284 0
M  V30 8301 C 796.918 0.922533 -3.25894 0
M  V30 8302 C 795.964 0.212566 -4.2597 0
M  V30 8303 S 796.797 -1.08035 -5.24489 0
M  V30 8304 C 797.953 -0.101014 -6.25818 0
M  V30 8305 H 798.186 -0.816289 -2.85874 0
M  V30 8306 H 795.719 -0.536882 -1.44765 0
M  V30 8307 H 797.677 1.4839 -3.82741 0
M  V30 8308 H 796.338 1.65209 -2.67142 0
M  V30 8309 H 795.531 0.956106 -4.94848 0
M  V30 8310 H 795.133 -0.277029 -3.72973 0
M  V30 8311 H 797.425 0.736072 -6.7349 0
M  V30 8312 H 798.368 -0.757206 -7.0404 0
M  V30 8313 H 798.776 0.275706 -5.63826 0
M  V30 8314 N 798.174 1.49689 -0.493057 0
M  V30 8315 C 799.084 2.32746 0.294358 0
M  V30 8316 C 800.1 1.44117 0.975003 0
M  V30 8317 O 801.276 1.77149 0.958138 0
M  V30 8318 C 798.341 3.19358 1.34949 0
M  V30 8319 C 797.402 4.2383 0.683122 0
M  V30 8320 C 796.635 5.06303 1.68798 0
M  V30 8321 O 796.858 4.90172 2.91698 0
M  V30 8322 O 795.792 5.88826 1.24768 0
M  V30 8323 H 799.618 3.01247 -0.385254 0
M  V30 8324 H 797.203 1.47216 -0.254519 0
M  V30 8325 H 799.085 3.73037 1.96014 0
M  V30 8326 H 797.76 2.53561 2.01217 0
M  V30 8327 H 796.667 3.74086 0.0329351 0
M  V30 8328 H 798 4.9216 0.0630192 0
M  V30 8329 N 799.652 0.226554 1.55963 0
M  V30 8330 C 800.582 -0.676079 2.23498 0
M  V30 8331 C 801.563 -1.19718 1.20837 0
M  V30 8332 O 802.748 -1.24027 1.49436 0
M  V30 8333 C 799.878 -1.88217 2.91876 0
M  V30 8334 C 798.832 -1.4947 4.01052 0
M  V30 8335 C 798.158 -2.77997 4.56751 0
M  V30 8336 C 799.458 -0.680951 5.17842 0
M  V30 8337 H 801.152 -0.112989 2.99187 0
M  V30 8338 H 798.698 -0.0529046 1.43903 0
M  V30 8339 H 800.651 -2.51911 3.37815 0
M  V30 8340 H 799.375 -2.47031 2.13643 0
M  V30 8341 H 798.034 -0.881199 3.55852 0
M  V30 8342 H 797.682 -3.34966 3.75243 0
M  V30 8343 H 797.382 -2.52803 5.30438 0
M  V30 8344 H 798.906 -3.42625 5.05411 0
M  V30 8345 H 800.32 -1.22171 5.60131 0
M  V30 8346 H 798.717 -0.525898 5.97791 0
M  V30 8347 H 799.787 0.311346 4.83899 0
M  V30 8348 N 801.13 -1.57531 -0.0467866 0
M  V30 8349 C 802.378 -1.88078 -0.739656 0
M  V30 8350 C 802.699 -0.821936 -1.76831 0
M  V30 8351 O 801.969 0.146582 -1.95351 0
M  V30 8352 H 800.549 -0.694075 -0.276169 0
M  V30 8353 H 803.211 -1.94893 -0.0169391 0
M  V30 8354 H 802.307 -2.86396 -1.24031 0
M  V30 8355 N 802.608 0.318715 -1.54344 0
M  V30 8356 C 803.856 1.054 -1.72439 0
M  V30 8357 C 804.177 1.88388 -0.503495 0
M  V30 8358 O 803.447 1.89866 0.48246 0
M  V30 8359 H 802.027 0.392124 -0.635805 0
M  V30 8360 H 804.689 0.35398 -1.91659 0
M  V30 8361 H 803.785 1.71726 -2.60608 0
M  V30 8362 N 804.086 1.46499 0.581025 0
M  V30 8363 C 805.016 1.60052 1.70017 0
M  V30 8364 C 805.997 0.450788 1.64018 0
M  V30 8365 O 807.182 0.677237 1.82009 0
M  V30 8366 C 804.312 1.5921 3.08658 0
M  V30 8367 C 803.266 2.73169 3.29488 0
M  V30 8368 C 802.592 2.57389 4.68674 0
M  V30 8369 C 803.892 4.14978 3.1716 0
M  V30 8370 H 805.586 2.53735 1.5893 0
M  V30 8371 H 803.132 1.22113 0.763173 0
M  V30 8372 H 805.085 1.67285 3.86773 0
M  V30 8373 H 803.809 0.620718 3.20647 0
M  V30 8374 H 802.468 2.64566 2.53773 0
M  V30 8375 H 802.116 1.58331 4.77431 0
M  V30 8376 H 801.816 3.33826 4.83564 0
M  V30 8377 H 803.34 2.67358 5.48956 0
M  V30 8378 H 804.754 4.24684 3.85119 0
M  V30 8379 H 803.151 4.92016 3.4357 0
M  V30 8380 H 804.221 4.35016 2.14218 0
M  V30 8381 N 805.565 -0.825799 1.34232 0
M  V30 8382 C 806.813 -1.57873 1.26177 0
M  V30 8383 C 807.134 -1.94267 -0.168904 0
M  V30 8384 O 806.404 -1.62045 -1.10084 0
M  V30 8385 H 804.984 -0.585388 0.464037 0
M  V30 8386 H 807.646 -0.986163 1.6811 0
M  V30 8387 H 806.742 -2.50283 1.86453 0
M  V30 8388 N 807.043 -1.17915 -1.04565 0
M  V30 8389 C 807.953 -0.916449 -2.15959 0
M  V30 8390 C 808.969 0.117655 -1.73602 0
M  V30 8391 O 810.145 -0.063089 -2.01301 0
M  V30 8392 C 807.21 -0.440262 -3.43893 0
M  V30 8393 C 806.271 -1.54172 -4.00661 0
M  V30 8394 C 805.504 -1.08816 -5.22489 0
M  V30 8395 O 805.727 0.0551547 -5.70373 0
M  V30 8396 O 804.661 -1.88383 -5.7166 0
M  V30 8397 H 808.487 -1.8484 -2.40972 0
M  V30 8398 H 806.072 -0.960552 -1.14428 0
M  V30 8399 H 807.954 -0.182537 -4.21004 0
M  V30 8400 H 806.629 0.46346 -3.20365 0
M  V30 8401 H 805.536 -1.85341 -3.24961 0
M  V30 8402 H 806.869 -2.42139 -4.2852 0
M  V30 8403 N 808.521 1.23394 -0.980386 0
M  V30 8404 C 809.937 1.43961 -0.689008 0
M  V30 8405 C 810.137 1.87229 0.744809 0
M  V30 8406 O 809.193 2.01831 1.51725 0
M  V30 8407 C 810.506 2.49128 -1.68392 0
M  V30 8408 C 812.054 2.62941 -1.69796 0
M  V30 8409 C 812.529 3.71317 -2.68118 0
M  V30 8410 N 814.02 3.7876 -2.66636 0
M  V30 8411 C 814.755 4.62176 -3.39383 0
M  V30 8412 N 814.251 5.49682 -4.21688 0
M  V30 8413 N 816.044 4.56372 -3.28147 0
M  V30 8414 H 808.195 0.936106 -1.90659 0
M  V30 8415 H 810.458 0.473023 -0.821555 0
M  V30 8416 H 810.164 2.24252 -2.70931 0
M  V30 8417 H 810.038 3.47514 -1.46675 0
M  V30 8418 H 812.425 2.87168 -0.679617 0
M  V30 8419 H 812.506 1.64871 -1.95579 0
M  V30 8420 H 812.15 3.4784 -3.70095 0
M  V30 8421 H 812.08 4.68929 -2.3961 0
M  V30 8422 H 814.571 3.16226 -2.06904 0
M  V30 8423 H 814.884 6.10323 -4.74053 0
M  V30 8424 H 813.229 5.49306 -4.25779 0
M  V30 8425 H 816.42 3.87029 -2.63299 0
M  V30 8426 H 816.593 5.21153 -3.85102 0
M  V30 8427 N 809.999 0.752036 1.385 0
M  V30 8428 C 811.245 0.307958 2.00448 0
M  V30 8429 C 811.578 -1.10702 1.59558 0
M  V30 8430 O 810.853 -1.75788 0.832391 0
M  V30 8431 C 811.136 0.429092 3.57534 0
M  V30 8432 C 810.989 1.88507 4.08393 0
M  V30 8433 C 812.308 -0.178442 4.39738 0
M  V30 8434 H 809.427 0.113373 0.728228 0
M  V30 8435 H 812.069 0.951389 1.64465 0
M  V30 8436 H 810.219 -0.118695 3.88319 0
M  V30 8437 H 811.891 2.49104 3.88259 0
M  V30 8438 H 810.134 2.40066 3.61318 0
M  V30 8439 H 810.805 1.92099 5.17496 0
M  V30 8440 H 813.281 0.28872 4.15097 0
M  V30 8441 H 812.157 -0.0634349 5.48863 0
M  V30 8442 H 812.418 -1.26655 4.23569 0
M  V30 8443 N 811.477 -1.49425 0.500989 0
M  V30 8444 C 812.407 -2.31971 -0.266775 0
M  V30 8445 C 813.388 -1.40245 -0.962563 0
M  V30 8446 O 814.573 -1.69154 -0.953968 0
M  V30 8447 C 811.703 -3.20757 -1.33163 0
M  V30 8448 C 810.657 -4.21275 -0.75572 0
M  V30 8449 C 809.983 -4.98997 -1.92109 0
M  V30 8450 C 811.283 -5.21686 0.253213 0
M  V30 8451 H 812.977 -2.96408 0.422237 0
M  V30 8452 H 810.523 -1.4254 0.204505 0
M  V30 8453 H 812.476 -3.77315 -1.87646 0
M  V30 8454 H 811.2 -2.54263 -2.04983 0
M  V30 8455 H 809.859 -3.65861 -0.232637 0
M  V30 8456 H 809.507 -4.28951 -2.62698 0
M  V30 8457 H 809.207 -5.67011 -1.54182 0
M  V30 8458 H 810.731 -5.584 -2.47026 0
M  V30 8459 H 812.145 -5.72939 -0.203483 0
M  V30 8460 H 810.542 -5.9759 0.548322 0
M  V30 8461 H 811.612 -4.70596 1.16909 0
M  V30 8462 N 812.955 -0.234822 -1.55841 0
M  V30 8463 C 814.203 0.392483 -1.98252 0
M  V30 8464 C 814.524 1.59344 -1.12404 0
M  V30 8465 O 813.794 1.94834 -0.204055 0
M  V30 8466 H 812.374 0.147999 -0.732192 0
M  V30 8467 H 815.036 -0.330804 -1.92072 0
M  V30 8468 H 814.132 0.709829 -3.03921 0
M  V30 8469 N 814.433 1.57553 0.0384317 0
M  V30 8470 C 815.68 1.88841 0.731116 0
M  V30 8471 C 816.008 0.83093 1.75857 0
M  V30 8472 O 815.263 -0.169248 1.94967 0
M  V30 8473 C 815.562 3.26862 1.44554 0
M  V30 8474 C 815.228 4.47472 0.554946 0
M  V30 8475 C 813.89 4.80203 0.309621 0
M  V30 8476 C 816.242 5.21165 -0.0605204 0
M  V30 8477 C 813.57 5.8402 -0.560101 0
M  V30 8478 C 815.922 6.25905 -0.91789 0
M  V30 8479 C 814.586 6.57117 -1.17277 0
M  V30 8480 H 813.856 0.691018 0.267534 0
M  V30 8481 H 816.503 1.91498 -0.00883195 0
M  V30 8482 H 814.808 3.2015 2.25856 0
M  V30 8483 H 816.505 3.48316 1.98688 0
M  V30 8484 H 813.095 4.21874 0.756304 0
M  V30 8485 H 817.279 4.96164 0.116064 0
M  V30 8486 H 812.535 6.06583 -0.765974 0
M  V30 8487 H 816.709 6.82155 -1.40136 0
M  V30 8488 H 814.336 7.37385 -1.84843 0
M  V30 8489 N 815.911 -0.310526 1.54511 0
M  V30 8490 C 817.151 -1.05498 1.7507 0
M  V30 8491 C 817.515 -1.84814 0.520381 0
M  V30 8492 O 818.716 -2.61937 0.603547 0
M  V30 8493 C 816.987 -1.94466 2.99863 0
M  V30 8494 S 818.546 -2.75686 3.41383 0
M  V30 8495 H 815.364 -0.355951 0.615483 0
M  V30 8496 H 817.966 -0.329464 1.92704 0
M  V30 8497 H 816.67 -1.35055 3.87541 0
M  V30 8498 H 816.201 -2.71401 2.84789 0
M  V30 8499 H 818.216 -3.96971 2.97706 0
M  V30 8500 N 817.389 -1.46805 -0.573248 0
M  V30 8501 C 818.321 -1.54127 -1.6964 0
M  V30 8502 C 819.334 -0.428778 -1.57052 0
M  V30 8503 O 820.523 -0.697612 -1.64303 0
M  V30 8504 C 817.623 -1.41438 -3.07975 0
M  V30 8505 C 816.796 -2.66974 -3.46474 0
M  V30 8506 C 815.855 -2.48349 -4.63906 0
M  V30 8507 O 814.881 -3.22109 -4.69292 0
M  V30 8508 N 816.083 -1.55129 -5.59388 0
M  V30 8509 H 818.848 -2.50971 -1.6381 0
M  V30 8510 H 816.409 -1.42981 -0.759479 0
M  V30 8511 H 818.401 -1.26737 -3.84343 0
M  V30 8512 H 816.971 -0.527388 -3.08119 0
M  V30 8513 H 816.191 -2.9655 -2.59715 0
M  V30 8514 H 817.479 -3.50347 -3.68964 0
M  V30 8515 H 816.877 -0.94324 -5.57781 0
M  V30 8516 H 815.434 -1.46387 -6.35149 0
M  V30 8517 N 818.867 0.818669 -1.34668 0
M  V30 8518 C 819.797 1.94468 -1.29245 0
M  V30 8519 C 820.778 1.69257 -0.169101 0
M  V30 8520 O 821.963 1.90794 -0.362143 0
M  V30 8521 C 819.093 3.31001 -1.05145 0
M  V30 8522 C 818.047 3.70663 -2.13992 0
M  V30 8523 C 817.373 5.05226 -1.75074 0
M  V30 8524 C 818.673 3.82312 -3.55858 0
M  V30 8525 H 820.367 1.99263 -2.2346 0
M  V30 8526 H 817.913 0.957304 -1.07572 0
M  V30 8527 H 819.866 4.09364 -0.999949 0
M  V30 8528 H 818.59 3.26517 -0.0737312 0
M  V30 8529 H 817.249 2.94578 -2.18219 0
M  V30 8530 H 816.897 4.97233 -0.759518 0
M  V30 8531 H 816.597 5.32734 -2.47928 0
M  V30 8532 H 818.121 5.86042 -1.71427 0
M  V30 8533 H 819.535 4.50935 -3.5402 0
M  V30 8534 H 817.932 4.21278 -4.2737 0
M  V30 8535 H 819.002 2.84193 -3.9289 0
M  V30 8536 N 820.346 1.18468 1.03938 0
M  V30 8537 C 821.294 0.909286 2.14091 0
M  V30 8538 C 822.288 -0.130928 1.68893 0
M  V30 8539 O 823.494 0.0173403 1.79992 0
M  V30 8540 H 819.869 0.27658 0.699291 0
M  V30 8541 H 821.84 1.84514 2.34515 0
M  V30 8542 C 820.589 0.452922 3.44737 0
M  V30 8543 H 819.912 1.24485 3.79926 0
M  V30 8544 H 821.352 0.299238 4.22943 0
M  V30 8545 C 819.811 -0.831435 3.26479 0
M  V30 8546 O 820.341 -1.89535 3.54174 0
M  V30 8547 N 818.547 -0.784545 2.79809 0
M  V30 8548 H 818.094 0.0814746 2.57471 0
M  V30 8549 H 818.052 -1.64431 2.67973 0
M  V30 8550 N 821.824 -1.22873 0.986916 0
M  V30 8551 C 822.754 -2.2688 0.552064 0
M  V30 8552 C 823.735 -1.64883 -0.418048 0
M  V30 8553 O 824.92 -1.9171 -0.30999 0
M  V30 8554 C 822.05 -3.47018 -0.139959 0
M  V30 8555 C 821.004 -4.21411 0.748091 0
M  V30 8556 C 820.33 -5.34645 -0.0765132 0
M  V30 8557 C 821.63 -4.80726 2.04206 0
M  V30 8558 H 823.324 -2.63507 1.42143 0
M  V30 8559 H 820.87 -1.26668 0.68492 0
M  V30 8560 H 822.823 -4.18931 -0.455527 0
M  V30 8561 H 821.547 -3.0947 -1.04382 0
M  V30 8562 H 820.206 -3.51325 1.04721 0
M  V30 8563 H 819.854 -4.93339 -0.981109 0
M  V30 8564 H 819.554 -5.85342 0.514606 0
M  V30 8565 H 821.078 -6.09377 -0.386313 0
M  V30 8566 H 822.492 -5.44612 1.79083 0
M  V30 8567 H 820.889 -5.41737 2.5815 0
M  V30 8568 H 821.959 -4.01109 2.72469 0
M  V30 8569 N 823.302 -0.75937 -1.38099 0
M  V30 8570 C 824.713 -0.385078 -1.82686 0
M  V30 8571 C 825.064 1.0871 -1.6333 0
M  V30 8572 O 824.189 1.84084 -1.13762 0
M  V30 8573 C 824.784 -0.692161 -3.31654 0
M  V30 8574 C 823.343 -0.371077 -3.74566 0
M  V30 8575 C 822.49 -0.942375 -2.60796 0
M  V30 8576 H 825.441 -0.955048 -1.26746 0
M  V30 8577 H 825.462 0.0276001 -3.8049 0
M  V30 8578 H 824.974 -1.76369 -3.4571 0
M  V30 8579 H 823.075 0.693637 -3.66087 0
M  V30 8580 H 823.188 -0.870672 -4.71122 0
M  V30 8581 H 821.552 -0.367383 -2.52036 0
M  V30 8582 H 822.335 -2.01905 -2.77649 0
M  V30 8583 N 824.78 1.49157 -0.508906 0
M  V30 8584 C 826.005 2.07376 0.0315182 0
M  V30 8585 C 826.43 1.36575 1.2934 0
M  V30 8586 O 825.788 0.424963 1.76249 0
M  V30 8587 C 825.836 3.59661 0.260118 0
M  V30 8588 O 824.94 3.90255 1.33322 0
M  V30 8589 H 824.281 0.663334 -0.029739 0
M  V30 8590 H 826.811 1.91857 -0.710791 0
M  V30 8591 H 826.821 4.05056 0.489225 0
M  V30 8592 H 825.496 4.10601 -0.661794 0
M  V30 8593 H 824.073 3.56661 1.08844 0
M  V30 8594 N 826.258 0.243083 1.55714 0
M  V30 8595 C 827.506 -0.381964 1.98458 0
M  V30 8596 C 827.827 -1.58745 1.13247 0
M  V30 8597 O 827.097 -1.94723 0.214384 0
M  V30 8598 H 825.677 -0.144114 0.732967 0
M  V30 8599 H 828.339 0.340985 1.91894 0
M  V30 8600 H 827.435 -0.693702 3.04293 0
M  V30 8601 N 827.736 -1.57571 -0.0300757 0
M  V30 8602 C 828.683 -2.06492 -1.03101 0
M  V30 8603 C 829.653 -0.953862 -1.3598 0
M  V30 8604 O 830.838 -1.22436 -1.46335 0
M  V30 8605 C 827.978 -2.54826 -2.32718 0
M  V30 8606 C 827.091 -3.79718 -2.06006 0
M  V30 8607 C 826.226 -4.16668 -3.29487 0
M  V30 8608 C 825.265 -5.3448 -2.98324 0
M  V30 8609 N 824.402 -5.66867 -4.14254 0
M  V30 8610 H 829.242 -2.91755 -0.606877 0
M  V30 8611 H 826.779 -1.44252 -0.288038 0
M  V30 8612 H 828.737 -2.80916 -3.08451 0
M  V30 8613 H 827.367 -1.72481 -2.72856 0
M  V30 8614 H 826.419 -3.60718 -1.20774 0
M  V30 8615 H 827.731 -4.65569 -1.79017 0
M  V30 8616 H 826.885 -4.43881 -4.13588 0
M  V30 8617 H 825.624 -3.29466 -3.59588 0
M  V30 8618 H 824.629 -5.07021 -2.12625 0
M  V30 8619 H 825.854 -6.23334 -2.69502 0
M  V30 8620 H 823.8 -4.82625 -4.44308 0
M  V30 8621 H 823.717 -6.47226 -3.90685 0
M  V30 8622 H 824.985 -5.98656 -4.99231 0
M  V30 8623 N 829.214 0.302327 -1.54673 0
M  V30 8624 C 830.461 1.0377 -1.73891 0
M  V30 8625 C 830.789 1.87309 -0.523979 0
M  V30 8626 O 830.044 1.8936 0.494084 0
M  V30 8627 C 830.343 1.97365 -2.97963 0
M  V30 8628 C 830.009 1.29812 -4.3181 0
M  V30 8629 C 828.671 1.11121 -4.68194 0
M  V30 8630 C 831.023 0.815073 -5.14787 0
M  V30 8631 C 828.351 0.428077 -5.85136 0
M  V30 8632 C 830.703 0.145665 -6.32432 0
M  V30 8633 C 829.367 -0.0532098 -6.67479 0
M  V30 8634 H 828.637 0.379721 -0.636312 0
M  V30 8635 H 831.284 0.312708 -1.8893 0
M  V30 8636 H 829.589 2.76387 -2.777 0
M  V30 8637 H 831.286 2.54331 -3.10027 0
M  V30 8638 H 827.876 1.45366 -4.03196 0
M  V30 8639 H 832.06 0.947191 -4.87178 0
M  V30 8640 H 827.316 0.262995 -6.10834 0
M  V30 8641 H 831.49 -0.236533 -6.95998 0
M  V30 8642 H 829.117 -0.58456 -7.57949 0
M  V30 8643 N 830.692 1.47107 0.565454 0
M  V30 8644 C 832.103 1.47266 1.1476 0
M  V30 8645 C 832.454 0.222841 1.9493 0
M  V30 8646 O 831.579 -0.672862 2.05673 0
M  V30 8647 C 832.174 2.66822 2.08785 0
M  V30 8648 C 830.733 2.69967 2.62288 0
M  V30 8649 C 829.88 2.40236 1.38499 0
M  V30 8650 H 832.831 1.54736 0.352479 0
M  V30 8651 H 832.852 2.43323 2.92531 0
M  V30 8652 H 832.364 3.5777 1.50408 0
M  V30 8653 H 830.465 1.83137 3.24487 0
M  V30 8654 H 830.578 3.70426 3.03845 0
M  V30 8655 H 828.942 1.90648 1.68895 0
M  V30 8656 H 829.725 3.33381 0.819274 0
M  V30 8657 N 832.17 -0.811516 1.35101 0
M  V30 8658 C 833.586 -1.10634 1.15031 0
M  V30 8659 C 833.786 -2.01459 -0.0405379 0
M  V30 8660 O 832.842 -2.42235 -0.712635 0
M  V30 8661 C 834.155 -1.74207 2.45097 0
M  V30 8662 C 835.703 -1.8665 2.51258 0
M  V30 8663 C 836.178 -2.53638 3.81355 0
M  V30 8664 N 837.669 -2.61128 3.82579 0
M  V30 8665 C 838.404 -3.13717 4.79968 0
M  V30 8666 N 837.9 -3.66782 5.87744 0
M  V30 8667 N 839.693 -3.12224 4.67411 0
M  V30 8668 H 831.844 -0.207641 2.11383 0
M  V30 8669 H 834.107 -0.154697 0.935293 0
M  V30 8670 H 833.813 -1.14936 3.32389 0
M  V30 8671 H 833.687 -2.73958 2.59281 0
M  V30 8672 H 836.074 -2.45066 1.64398 0
M  V30 8673 H 836.155 -0.857678 2.40993 0
M  V30 8674 H 835.799 -1.95873 4.68611 0
M  V30 8675 H 835.729 -3.55047 3.88907 0
M  V30 8676 H 838.22 -2.23527 3.04703 0
M  V30 8677 H 838.533 -4.05194 6.58056 0
M  V30 8678 H 836.878 -3.64994 5.91443 0
M  V30 8679 H 840.069 -2.70042 3.82354 0
M  V30 8680 H 840.242 -3.52903 5.43474 0
M  V30 8681 N 833.648 -1.19017 -1.03309 0
M  V30 8682 C 834.896 -0.988258 -1.76289 0
M  V30 8683 C 835.217 0.482557 -1.88935 0
M  V30 8684 O 834.487 1.34969 -1.41987 0
M  V30 8685 H 833.067 -0.36267 -0.653054 0
M  V30 8686 H 835.729 -1.49836 -1.2464 0
M  V30 8687 H 834.825 -1.43273 -2.77271 0
M  V30 8688 N 835.127 1.22348 -0.993418 0
M  V30 8689 C 836.374 1.9111 -0.669568 0
M  V30 8690 C 836.702 1.77357 0.79843 0
M  V30 8691 O 835.957 1.13675 1.593 0
M  V30 8692 C 836.256 3.42477 -1.02197 0
M  V30 8693 C 835.922 3.7642 -2.48232 0
M  V30 8694 C 834.584 3.85395 -2.88139 0
M  V30 8695 C 836.936 3.9253 -3.42884 0
M  V30 8696 C 834.264 4.07918 -4.21687 0
M  V30 8697 C 836.616 4.16557 -4.76091 0
M  V30 8698 C 835.28 4.23757 -5.15739 0
M  V30 8699 H 834.55 0.699321 -0.245012 0
M  V30 8700 H 837.197 1.45102 -1.2497 0
M  V30 8701 H 835.502 3.90143 -0.359921 0
M  V30 8702 H 837.199 3.93935 -0.74942 0
M  V30 8703 H 833.789 3.70017 -2.16299 0
M  V30 8704 H 837.973 3.84974 -3.13224 0
M  V30 8705 H 833.229 4.11719 -4.51993 0
M  V30 8706 H 837.403 4.27966 -5.4938 0
M  V30 8707 H 835.03 4.40962 -6.19239 0
M  V30 8708 N 836.605 0.766683 1.37694 0
M  V30 8709 C 837.552 0.147725 2.30327 0
M  V30 8710 C 838.522 -0.695366 1.50844 0
M  V30 8711 O 839.707 -0.64878 1.79431 0
M  V30 8712 C 836.847 -0.72935 3.37305 0
M  V30 8713 C 835.96 0.129795 4.31805 0
M  V30 8714 C 835.095 -0.751511 5.25857 0
M  V30 8715 C 834.134 0.110475 6.12 0
M  V30 8716 N 833.271 -0.728522 6.9831 0
M  V30 8717 H 838.111 0.943204 2.82679 0
M  V30 8718 H 835.648 0.476736 1.3916 0
M  V30 8719 H 837.606 -1.25263 3.97951 0
M  V30 8720 H 836.236 -1.49048 2.86329 0
M  V30 8721 H 835.288 0.770829 3.72508 0
M  V30 8722 H 836.6 0.794923 4.92425 0
M  V30 8723 H 835.754 -1.34146 5.91684 0
M  V30 8724 H 834.493 -1.45034 4.65636 0
M  V30 8725 H 833.498 0.712999 5.45157 0
M  V30 8726 H 834.723 0.806557 6.74293 0
M  V30 8727 H 832.669 -1.41206 6.40622 0
M  V30 8728 H 832.586 -0.12058 7.55904 0
M  V30 8729 H 833.854 -1.30303 7.68532 0
M  V30 8730 N 838.083 -1.48885 0.516809 0
M  V30 8731 C 839.33 -2.02488 -0.0220602 0
M  V30 8732 C 839.658 -1.39513 -1.35523 0
M  V30 8733 O 838.913 -0.52558 -1.8851 0
M  V30 8734 C 839.212 -3.56801 -0.206798 0
M  V30 8735 C 838.878 -4.38496 1.05035 0
M  V30 8736 C 837.54 -4.60538 1.39492 0
M  V30 8737 C 839.892 -4.85909 1.88525 0
M  V30 8738 C 837.22 -5.2724 2.57361 0
M  V30 8739 C 839.572 -5.53909 3.05561 0
M  V30 8740 C 838.236 -5.74193 3.4038 0
M  V30 8741 H 837.506 -0.740956 -0.00807238 0
M  V30 8742 H 840.153 -1.79014 0.680168 0
M  V30 8743 H 838.458 -3.79042 -0.991687 0
M  V30 8744 H 840.155 -3.95885 -0.638447 0
M  V30 8745 H 836.745 -4.2159 0.771984 0
M  V30 8746 H 840.929 -4.68694 1.63218 0
M  V30 8747 H 836.185 -5.41145 2.84556 0
M  V30 8748 H 840.359 -5.89619 3.7057 0
M  V30 8749 H 837.986 -6.25652 4.31814 0
M  V30 8750 N 839.561 -0.251338 -1.55583 0
M  V30 8751 C 840.838 0.422729 -1.90977 0
M  V30 8752 C 841.218 1.75534 -1.17265 0
M  V30 8753 O 840.566 2.26632 -0.291588 0
M  V30 8754 C 840.776 0.586448 -3.44037 0
M  V30 8755 C 842.124 0.880294 -4.15375 0
M  V30 8756 O 843.148 0.672148 -3.49801 0
M  V30 8757 O 842.007 1.27694 -5.31372 0
M  V30 8758 H 839.101 0.227622 -0.795058 0
M  V30 8759 H 841.647 -0.295733 -1.67103 0
M  V30 8760 H 840.419 -0.352327 -3.89711 0
M  V30 8761 H 840.042 1.35528 -3.73789 0
M  V30 8762 N 841.039 1.57585 0.0217189 0
M  V30 8763 C 842.267 1.93871 0.722619 0
M  V30 8764 C 842.682 0.851706 1.68498 0
M  V30 8765 O 842.039 -0.17127 1.81695 0
M  V30 8766 C 842.09 3.30114 1.47333 0
M  V30 8767 O 841.811 4.34639 0.549597 0
M  V30 8768 C 843.312 3.80727 2.27072 0
M  V30 8769 H 840.532 0.639671 0.202637 0
M  V30 8770 H 843.076 2.04487 -0.0229414 0
M  V30 8771 H 841.231 3.20872 2.17071 0
M  V30 8772 H 841.645 5.13326 1.07686 0
M  V30 8773 H 843.119 4.78547 2.75131 0
M  V30 8774 H 843.596 3.12301 3.08812 0
M  V30 8775 H 844.202 3.93075 1.62395 0
M  V30 8776 N 842.517 -0.29412 1.54831 0
M  V30 8777 C 843.794 -1.04847 1.65126 0
M  V30 8778 C 844.174 -2.04996 0.503986 0
M  V30 8779 O 843.522 -2.22996 -0.498496 0
M  V30 8780 C 843.732 -1.72418 3.03435 0
M  V30 8781 C 845.08 -2.24362 3.60481 0
M  V30 8782 O 846.104 -1.8244 3.05932 0
M  V30 8783 O 844.963 -3.01196 4.56008 0
M  V30 8784 H 842.057 -0.485032 0.669831 0
M  V30 8785 H 844.603 -0.291659 1.67175 0
M  V30 8786 H 843.375 -0.997351 3.78376 0
M  V30 8787 H 842.998 -2.54839 3.05193 0
M  V30 8788 N 843.995 -1.47404 -0.557645 0
M  V30 8789 C 844.905 -1.62491 -1.69216 0
M  V30 8790 C 845.921 -0.507764 -1.66426 0
M  V30 8791 O 847.097 -0.775241 -1.85882 0
M  V30 8792 C 844.162 -1.63511 -3.05721 0
M  V30 8793 C 843.223 -2.86648 -3.1958 0
M  V30 8794 C 842.456 -2.87609 -4.49574 0
M  V30 8795 O 842.679 -1.97799 -5.35006 0
M  V30 8796 O 841.613 -3.79465 -4.67215 0
M  V30 8797 H 845.439 -2.58487 -1.59431 0
M  V30 8798 H 843.024 -1.30485 -0.7276 0
M  V30 8799 H 844.906 -1.66863 -3.86956 0
M  V30 8800 H 843.581 -0.706812 -3.15889 0
M  V30 8801 H 842.488 -2.8884 -2.37744 0
M  V30 8802 H 843.821 -3.7877 -3.14316 0
M  V30 8803 N 845.473 0.80434 -1.35529 0
M  V30 8804 C 846.403 1.93086 -1.31301 0
M  V30 8805 C 847.384 1.69068 -0.187044 0
M  V30 8806 O 848.569 1.90399 -0.382359 0
M  V30 8807 C 845.699 3.29867 -1.0865 0
M  V30 8808 C 844.653 3.68373 -2.17911 0
M  V30 8809 C 843.979 5.0334 -1.80423 0
M  V30 8810 C 845.279 3.78516 -3.59893 0
M  V30 8811 H 846.973 1.96882 -2.25561 0
M  V30 8812 H 844.519 0.945841 -1.08581 0
M  V30 8813 H 846.472 4.08281 -1.04331 0
M  V30 8814 H 845.196 3.2642 -0.108359 0
M  V30 8815 H 843.855 2.92247 -2.21331 0
M  V30 8816 H 843.503 4.96399 -0.812213 0
M  V30 8817 H 843.203 5.30074 -2.53565 0
M  V30 8818 H 844.727 5.84191 -1.77633 0
M  V30 8819 H 846.141 4.47155 -3.58783 0
M  V30 8820 H 844.538 4.16721 -4.31814 0
M  V30 8821 H 845.608 2.8001 -3.95882 0
M  V30 8822 N 846.951 1.19563 1.02676 0
M  V30 8823 C 847.899 0.931942 2.13114 0
M  V30 8824 C 848.893 -0.113007 1.69023 0
M  V30 8825 O 850.099 0.0364298 1.79963 0
M  V30 8826 H 846.474 0.283981 0.696318 0
M  V30 8827 H 848.445 1.86991 2.32545 0
M  V30 8828 C 847.194 0.489461 3.44238 0
M  V30 8829 H 846.517 1.28508 3.78584 0
M  V30 8830 H 847.957 0.34408 4.22602 0
M  V30 8831 C 846.416 -0.796761 3.27343 0
M  V30 8832 O 846.946 -1.85767 3.56165 0
M  V30 8833 N 845.152 -0.754824 2.80626 0
M  V30 8834 H 844.699 0.108778 2.5737 0
M  V30 8835 H 844.657 -1.6158 2.69702 0
M  V30 8836 N 848.429 -1.21819 0.999893 0
M  V30 8837 C 849.676 -1.90752 0.679694 0
M  V30 8838 C 850.004 -1.77777 -0.789014 0
M  V30 8839 O 849.259 -1.14518 -1.58695 0
M  V30 8840 C 849.558 -3.4193 1.04012 0
M  V30 8841 C 849.224 -3.75098 2.50225 0
M  V30 8842 C 847.886 -3.83861 2.90179 0
M  V30 8843 C 850.238 -3.90706 3.44961 0
M  V30 8844 C 847.566 -4.05676 4.23844 0
M  V30 8845 C 849.918 -4.14027 4.78294 0
M  V30 8846 C 848.582 -4.21016 5.17979 0
M  V30 8847 H 847.852 -0.698012 0.248718 0
M  V30 8848 H 850.499 -1.44437 1.25738 0
M  V30 8849 H 848.804 -3.89947 0.380606 0
M  V30 8850 H 850.501 -3.93532 0.770301 0
M  V30 8851 H 847.091 -3.68865 2.18258 0
M  V30 8852 H 851.275 -3.83307 3.15261 0
M  V30 8853 H 846.531 -4.09316 4.5417 0
M  V30 8854 H 850.705 -4.25046 5.51642 0
M  V30 8855 H 848.332 -4.37672 6.21568 0
M  V30 8856 N 849.908 -0.773975 -1.37286 0
M  V30 8857 C 851.319 -0.404433 -1.82267 0
M  V30 8858 C 851.67 1.06971 -1.64474 0
M  V30 8859 O 850.795 1.82867 -1.15708 0
M  V30 8860 C 851.39 -0.727298 -3.30902 0
M  V30 8861 C 849.949 -0.410784 -3.74152 0
M  V30 8862 C 849.096 -0.969983 -2.59782 0
M  V30 8863 H 852.047 -0.968437 -1.25726 0
M  V30 8864 H 852.068 -0.0127575 -3.80498 0
M  V30 8865 H 851.58 -1.80026 -3.4382 0
M  V30 8866 H 849.681 0.65477 -3.66802 0
M  V30 8867 H 849.794 -0.920592 -4.70172 0
M  V30 8868 H 848.158 -0.394094 -2.51633 0
M  V30 8869 H 848.941 -2.04839 -2.75492 0
M  V30 8870 N 851.386 1.48609 -0.524698 0
M  V30 8871 C 852.614 2.06899 0.00742946 0
M  V30 8872 C 853.029 1.38196 1.28637 0
M  V30 8873 O 852.386 0.467771 1.76403 0
M  V30 8874 C 852.437 3.60699 0.240548 0
M  V30 8875 O 852.158 4.26821 -0.987715 0
M  V30 8876 C 853.659 4.35769 0.813652 0
M  V30 8877 H 850.879 0.670278 -0.0311294 0
M  V30 8878 H 853.423 1.91071 -0.728832 0
M  V30 8879 H 851.578 3.76149 0.926845 0
M  V30 8880 H 851.992 5.18889 -0.765175 0
M  V30 8881 H 853.466 5.44174 0.926219 0
M  V30 8882 H 853.943 3.9984 1.81728 0
M  V30 8883 H 854.549 4.24983 0.164086 0
M  V30 8884 N 852.864 0.259585 1.55447 0
M  V30 8885 C 853.774 -0.645026 2.25558 0
M  V30 8886 C 854.79 -1.18291 1.27606 0
M  V30 8887 O 855.966 -1.21649 1.6051 0
M  V30 8888 C 853.031 -1.81964 2.9511 0
M  V30 8889 C 852.092 -1.31997 4.08504 0
M  V30 8890 C 851.325 -2.43861 4.74729 0
M  V30 8891 O 851.548 -3.62876 4.40088 0
M  V30 8892 O 850.482 -2.12898 5.6299 0
M  V30 8893 H 854.308 -0.0775399 3.03601 0
M  V30 8894 H 851.893 0.0275859 1.49375 0
M  V30 8895 H 853.775 -2.50485 3.38873 0
M  V30 8896 H 852.45 -2.37451 2.19997 0
M  V30 8897 H 851.357 -0.601676 3.6923 0
M  V30 8898 H 852.69 -0.811045 4.85472 0
M  V30 8899 N 854.342 -1.57594 -0.0133615 0
M  V30 8900 C 855.289 -2.07574 -1.00905 0
M  V30 8901 C 856.259 -0.968231 -1.34961 0
M  V30 8902 O 857.444 -1.23981 -1.45028 0
M  V30 8903 C 854.584 -2.5728 -2.30002 0
M  V30 8904 C 853.697 -3.81881 -2.01967 0
M  V30 8905 C 852.832 -4.20139 -3.25049 0
M  V30 8906 C 851.871 -5.37614 -2.92639 0
M  V30 8907 N 851.008 -5.71229 -4.08218 0
M  V30 8908 H 855.848 -2.92382 -0.575899 0
M  V30 8909 H 853.385 -1.4455 -0.272722 0
M  V30 8910 H 855.343 -2.84171 -3.05454 0
M  V30 8911 H 853.973 -1.75365 -2.71011 0
M  V30 8912 H 853.025 -3.61979 -1.16942 0
M  V30 8913 H 854.337 -4.67441 -1.74069 0
M  V30 8914 H 853.491 -4.48242 -4.08857 0
M  V30 8915 H 852.23 -3.33262 -3.56073 0
M  V30 8916 H 851.235 -5.09248 -2.07235 0
M  V30 8917 H 852.46 -6.26157 -2.62876 0
M  V30 8918 H 850.406 -4.8731 -4.39164 0
M  V30 8919 H 850.323 -6.51333 -3.83799 0
M  V30 8920 H 851.591 -6.03917 -4.92854 0
M  V30 8921 N 855.82 0.285905 -1.54985 0
M  V30 8922 C 856.75 1.35752 -1.89983 0
M  V30 8923 C 857.731 1.52163 -0.760295 0
M  V30 8924 O 858.916 1.65421 -1.01733 0
M  V30 8925 C 856.046 2.71925 -2.16042 0
M  V30 8926 C 855 2.70261 -3.31878 0
M  V30 8927 C 854.326 4.09864 -3.43388 0
M  V30 8928 C 855.626 2.30667 -4.68604 0
M  V30 8929 H 857.32 1.06709 -2.79738 0
M  V30 8930 H 854.866 0.511884 -1.34595 0
M  V30 8931 H 856.819 3.46992 -2.39113 0
M  V30 8932 H 855.543 3.02523 -1.23074 0
M  V30 8933 H 854.202 1.97651 -3.08755 0
M  V30 8934 H 853.85 4.37664 -2.47909 0
M  V30 8935 H 853.55 4.09648 -4.21262 0
M  V30 8936 H 855.074 4.86689 -3.68736 0
M  V30 8937 H 856.488 2.95453 -4.91305 0
M  V30 8938 H 854.885 2.41637 -5.49301 0
M  V30 8939 H 855.955 1.25793 -4.68299 0
M  V30 8940 N 857.298 1.47698 0.54982 0
M  V30 8941 C 858.538 1.56286 1.31735 0
M  V30 8942 C 858.902 0.223042 1.907 0
M  V30 8943 O 860.103 0.183798 2.68171 0
M  V30 8944 C 858.374 2.65522 2.39234 0
M  V30 8945 S 859.933 2.93742 3.25977 0
M  V30 8946 H 856.751 0.551795 0.448378 0
M  V30 8947 H 859.353 1.85118 0.628629 0
M  V30 8948 H 858.057 3.61457 1.94362 0
M  V30 8949 H 857.588 2.38528 3.12838 0
M  V30 8950 H 859.603 2.31522 4.38876 0
M  V30 8951 N 858.776 -0.797141 1.35954 0
M  V30 8952 C 860.023 -1.55468 1.29754 0
M  V30 8953 C 860.351 -1.94095 -0.125391 0
M  V30 8954 O 859.606 -1.62341 -1.09288 0
M  V30 8955 C 859.905 -2.84847 2.15863 0
M  V30 8956 C 859.571 -2.65394 3.64523 0
M  V30 8957 C 858.233 -2.59796 4.05042 0
M  V30 8958 C 860.585 -2.4727 4.58811 0
M  V30 8959 C 857.913 -2.3403 5.38002 0
M  V30 8960 C 860.265 -2.23032 5.91979 0
M  V30 8961 C 858.929 -2.15862 6.31633 0
M  V30 8962 H 858.199 -0.568897 0.474803 0
M  V30 8963 H 860.846 -0.920299 1.67937 0
M  V30 8964 H 859.151 -3.52712 1.70591 0
M  V30 8965 H 860.848 -3.42597 2.08395 0
M  V30 8966 H 857.438 -2.70602 3.32374 0
M  V30 8967 H 861.622 -2.506 4.28384 0
M  V30 8968 H 856.878 -2.26956 5.67715 0
M  V30 8969 H 861.052 -2.08001 6.64612 0
M  V30 8970 H 858.679 -1.9566 7.34589 0
M  V30 8971 N 860.254 -1.20106 -1.0204 0
M  V30 8972 C 861.5 -1.01039 -1.75838 0
M  V30 8973 C 861.833 0.456819 -1.88751 0
M  V30 8974 O 861.108 1.33919 -1.41053 0
M  V30 8975 C 861.391 -1.69009 -3.17975 0
M  V30 8976 C 861.244 -3.2315 -3.1288 0
M  V30 8977 C 862.563 -1.42005 -4.16561 0
M  V30 8978 H 859.682 -0.368465 -0.638281 0
M  V30 8979 H 862.324 -1.48066 -1.19064 0
M  V30 8980 H 860.474 -1.29026 -3.66449 0
M  V30 8981 H 862.146 -3.72402 -2.72239 0
M  V30 8982 H 860.389 -3.54253 -2.50374 0
M  V30 8983 H 861.06 -3.65862 -4.13339 0
M  V30 8984 H 863.536 -1.76685 -3.76725 0
M  V30 8985 H 862.412 -1.92101 -5.14187 0
M  V30 8986 H 862.673 -0.346884 -4.40737 0
M  V30 8987 N 861.732 1.21287 -1.00634 0
M  V30 8988 C 862.98 1.90013 -0.688438 0
M  V30 8989 C 863.301 1.78573 0.783365 0
M  V30 8990 O 862.571 1.1815 1.56261 0
M  V30 8991 H 861.151 0.703336 -0.251648 0
M  V30 8992 H 863.813 1.47346 -1.27574 0
M  V30 8993 H 862.909 2.96879 -0.962781 0
M  V30 8994 N 863.21 0.781244 1.36873 0
M  V30 8995 C 864.14 0.188128 2.32741 0
M  V30 8996 C 865.121 -0.672326 1.56249 0
M  V30 8997 O 866.306 -0.607835 1.84442 0
M  V30 8998 C 863.436 -0.684341 3.40491 0
M  V30 8999 C 862.39 0.0755641 4.27933 0
M  V30 9000 C 861.716 -0.916968 5.26779 0
M  V30 9001 C 863.016 1.26006 5.06873 0
M  V30 9002 H 864.71 0.989016 2.82593 0
M  V30 9003 H 862.256 0.477038 1.35869 0
M  V30 9004 H 864.209 -1.10915 4.06541 0
M  V30 9005 H 862.933 -1.51785 2.89187 0
M  V30 9006 H 861.592 0.481258 3.63427 0
M  V30 9007 H 861.24 -1.74528 4.71751 0
M  V30 9008 H 860.94 -0.413 5.86147 0
M  V30 9009 H 862.464 -1.34052 5.95703 0
M  V30 9010 H 863.878 0.911425 5.66009 0
M  V30 9011 H 862.275 1.69676 5.75613 0
M  V30 9012 H 863.345 2.05948 4.38991 0
M  V30 9013 N 864.689 -1.48329 0.532571 0
M  V30 9014 C 865.622 -2.26524 -0.2761 0
M  V30 9015 C 866.6 -1.32498 -0.942496 0
M  V30 9016 O 867.784 -1.61844 -0.966376 0
M  V30 9017 C 864.911 -3.08808 -1.39124 0
M  V30 9018 C 863.957 -4.18227 -0.835984 0
M  V30 9019 S 864.79 -5.34669 0.298186 0
M  V30 9020 C 865.946 -6.20514 -0.81937 0
M  V30 9021 H 866.179 -2.94764 0.387502 0
M  V30 9022 H 863.712 -1.51081 0.318407 0
M  V30 9023 H 865.67 -3.56792 -2.03002 0
M  V30 9024 H 864.331 -2.39976 -2.02658 0
M  V30 9025 H 863.524 -4.75435 -1.67264 0
M  V30 9026 H 863.126 -3.72996 -0.27385 0
M  V30 9027 H 865.418 -6.55371 -1.7174 0
M  V30 9028 H 866.361 -7.07525 -0.285199 0
M  V30 9029 H 866.769 -5.5366 -1.10094 0
M  V30 9030 N 866.167 -0.267825 -1.55308 0
M  V30 9031 C 867.392 0.357487 -2.04296 0
M  V30 9032 C 867.817 1.49222 -1.14518 0
M  V30 9033 O 867.175 1.80741 -0.142292 0
M  V30 9034 C 867.223 0.822899 -3.51085 0
M  V30 9035 O 866.327 1.93078 -3.6441 0
M  V30 9036 H 865.668 0.075025 -0.659748 0
M  V30 9037 H 868.198 -0.399996 -2.00652 0
M  V30 9038 H 868.208 1.12059 -3.92309 0
M  V30 9039 H 866.883 -0.0073562 -4.15899 0
M  V30 9040 H 865.46 1.63618 -3.35087 0
M  V30 9041 N 867.645 1.57599 0.00500368 0
M  V30 9042 C 868.578 2.03541 1.03181 0
M  V30 9043 C 869.556 0.924301 1.33774 0
M  V30 9044 O 870.74 1.19204 1.46023 0
M  V30 9045 C 867.867 2.42879 2.36067 0
M  V30 9046 C 866.913 3.64673 2.21169 0
M  V30 9047 S 867.746 5.12805 1.54243 0
M  V30 9048 C 868.902 5.55408 2.88569 0
M  V30 9049 H 869.135 2.90316 0.640598 0
M  V30 9050 H 866.668 1.52886 0.215722 0
M  V30 9051 H 868.626 2.66212 3.12476 0
M  V30 9052 H 867.287 1.56512 2.72329 0
M  V30 9053 H 866.48 3.89932 3.19326 0
M  V30 9054 H 866.082 3.41316 1.52904 0
M  V30 9055 H 868.374 5.57563 3.84876 0
M  V30 9056 H 869.317 6.55418 2.68016 0
M  V30 9057 H 869.725 4.82961 2.92249 0
M  V30 9058 N 869.123 -0.277682 1.55134 0
M  V30 9059 C 870.372 -1.00766 1.74726 0
M  V30 9060 C 870.685 -1.87617 0.553092 0
M  V30 9061 O 871.891 -2.64058 0.631318 0
M  V30 9062 C 870.347 -1.84147 3.09221 0
M  V30 9063 C 869.955 -1.02186 4.3619 0
M  V30 9064 C 871.699 -2.56604 3.38164 0
M  V30 9065 C 869.606 -1.84978 5.61727 0
M  V30 9066 H 868.536 -0.379948 0.651273 0
M  V30 9067 H 871.187 -0.263543 1.81598 0
M  V30 9068 H 869.569 -2.62637 2.96375 0
M  V30 9069 H 870.743 -0.281459 4.5994 0
M  V30 9070 H 869.058 -0.412054 4.14356 0
M  V30 9071 H 871.655 -3.18942 4.29162 0
M  V30 9072 H 871.998 -3.26647 2.58085 0
M  V30 9073 H 872.531 -1.85147 3.52087 0
M  V30 9074 H 869.27 -1.19365 6.4454 0
M  V30 9075 H 868.79 -2.56628 5.42128 0
M  V30 9076 H 870.469 -2.42458 5.99853 0
M  V30 9077 N 870.601 -1.47988 -0.541979 0
M  V30 9078 C 871.878 -1.45878 -1.30303 0
M  V30 9079 C 872.258 -0.163931 -2.10463 0
M  V30 9080 O 871.606 0.854479 -2.11922 0
M  V30 9081 C 871.816 -2.71359 -2.19466 0
M  V30 9082 C 873.164 -3.19199 -2.79995 0
M  V30 9083 O 874.188 -2.72193 -2.2976 0
M  V30 9084 O 873.047 -4.00961 -3.71339 0
M  V30 9085 H 870.141 -0.582043 -0.587498 0
M  V30 9086 H 872.687 -1.60207 -0.559623 0
M  V30 9087 H 871.459 -3.57122 -1.59936 0
M  V30 9088 H 871.082 -2.59692 -3.01075 0
M  V30 9089 N 872.079 0.78992 -1.36375 0
M  V30 9090 C 873.49 1.36506 -1.2737 0
M  V30 9091 C 873.841 1.96008 0.086711 0
M  V30 9092 O 872.966 1.92521 0.988159 0
M  V30 9093 C 873.561 2.48175 -2.30639 0
M  V30 9094 C 872.12 3.01506 -2.25325 0
M  V30 9095 C 871.267 1.74581 -2.15445 0
M  V30 9096 H 874.218 0.591606 -1.47261 0
M  V30 9097 H 874.239 3.27179 -1.94253 0
M  V30 9098 H 873.751 2.04838 -3.2964 0
M  V30 9099 H 871.852 3.49265 -1.29788 0
M  V30 9100 H 871.965 3.58355 -3.17992 0
M  V30 9101 H 870.329 1.96794 -1.61692 0
M  V30 9102 H 871.112 1.33373 -3.16333 0
M  V30 9103 N 873.557 1.20646 1.01402 0
M  V30 9104 C 874.968 1.01823 1.56489 0
M  V30 9105 C 875.319 -0.42463 1.9155 0
M  V30 9106 O 874.444 -1.30644 1.72514 0
M  V30 9107 C 875.039 1.84208 2.84347 0
M  V30 9108 C 873.598 1.69743 3.35953 0
M  V30 9109 C 872.745 1.8198 2.09233 0
M  V30 9110 H 875.696 1.348 0.837539 0
M  V30 9111 H 875.717 1.34698 3.55861 0
M  V30 9112 H 875.229 2.89215 2.58798 0
M  V30 9113 H 873.33 0.673833 3.66456 0
M  V30 9114 H 873.443 2.51173 4.07981 0
M  V30 9115 H 871.807 1.25193 2.21808 0
M  V30 9116 H 872.59 2.88477 1.86107 0
M  V30 9117 N 875.035 -1.20752 1.01276 0
M  V30 9118 C 876.451 -1.42084 0.726934 0
M  V30 9119 C 876.651 -1.89138 -0.694907 0
M  V30 9120 O 875.707 -2.05783 -1.4632 0
M  V30 9121 C 877.02 -2.44575 1.74938 0
M  V30 9122 C 878.568 -2.58347 1.76708 0
M  V30 9123 C 879.043 -3.64078 2.77869 0
M  V30 9124 N 880.534 -3.71558 2.76585 0
M  V30 9125 C 881.269 -4.53016 3.51517 0
M  V30 9126 N 880.765 -5.38309 4.36114 0
M  V30 9127 N 882.558 -4.47512 3.40132 0
M  V30 9128 H 874.709 -0.885228 1.93074 0
M  V30 9129 H 876.972 -0.451075 0.833808 0
M  V30 9130 H 876.678 -2.1699 2.76782 0
M  V30 9131 H 876.552 -3.43503 1.55838 0
M  V30 9132 H 878.939 -2.85265 0.755516 0
M  V30 9133 H 879.02 -1.59628 1.99882 0
M  V30 9134 H 878.664 -3.37905 3.79187 0
M  V30 9135 H 878.594 -4.62412 2.51958 0
M  V30 9136 H 881.085 -3.10629 2.15216 0
M  V30 9137 H 881.398 -5.9754 4.90068 0
M  V30 9138 H 879.743 -5.37824 4.40194 0
M  V30 9139 H 882.934 -3.79912 2.73467 0
M  V30 9140 H 883.107 -5.10759 3.98784 0
M  V30 9141 N 876.513 -0.788492 -1.36457 0
M  V30 9142 C 877.476 -0.192209 -2.28393 0
M  V30 9143 C 878.476 0.609916 -1.48784 0
M  V30 9144 O 879.666 0.431046 -1.68783 0
M  V30 9145 C 876.798 0.734096 -3.32902 0
M  V30 9146 H 877.991 -1.00284 -2.82636 0
M  V30 9147 H 875.544 -0.557852 -1.46006 0
M  V30 9148 H 876.279 1.5691 -2.83813 0
M  V30 9149 H 876.064 0.160875 -3.9177 0
M  V30 9150 H 877.554 1.1462 -4.01562 0
M  V30 9151 N 877.991 1.48044 -0.54043 0
M  V30 9152 C 878.954 2.28273 0.205966 0
M  V30 9153 C 879.954 1.35983 0.858209 0
M  V30 9154 O 881.144 1.58776 0.716651 0
M  V30 9155 C 878.276 3.15174 1.29917 0
M  V30 9156 H 879.469 2.95727 -0.498555 0
M  V30 9157 H 877.022 1.53457 -0.296745 0
M  V30 9158 H 877.757 2.52374 2.03661 0
M  V30 9159 H 877.542 3.83074 0.836475 0
M  V30 9160 H 879.032 3.75666 1.82387 0
M  V30 9161 N 879.47 0.276058 1.55163 0
M  V30 9162 C 880.716 -0.340959 1.99913 0
M  V30 9163 C 881.049 -1.55434 1.16422 0
M  V30 9164 O 880.324 -1.93081 0.234517 0
M  V30 9165 C 880.607 -0.722211 3.52783 0
M  V30 9166 C 880.46 0.498575 4.47028 0
M  V30 9167 C 881.779 -1.5583 4.11589 0
M  V30 9168 H 878.898 -0.122455 0.726756 0
M  V30 9169 H 881.54 0.38319 1.86096 0
M  V30 9170 H 879.69 -1.33919 3.64689 0
M  V30 9171 H 881.362 1.13713 4.47065 0
M  V30 9172 H 879.605 1.13646 4.18649 0
M  V30 9173 H 880.276 0.188041 5.5168 0
M  V30 9174 H 882.752 -1.03722 4.02965 0
M  V30 9175 H 881.628 -1.79387 5.1876 0
M  V30 9176 H 881.889 -2.53963 3.61877 0
M  V30 9177 N 880.948 -1.576 0.00335426 0
M  V30 9178 C 882.359 -1.7875 -0.539008 0
M  V30 9179 C 882.71 -0.911097 -1.73763 0
M  V30 9180 O 881.835 -0.114476 -2.16097 0
M  V30 9181 C 882.43 -3.24177 -0.984611 0
M  V30 9182 C 880.989 -3.46412 -1.47226 0
M  V30 9183 C 880.136 -2.74024 -0.425004 0
M  V30 9184 H 883.087 -1.57032 0.229511 0
M  V30 9185 H 883.108 -3.32474 -1.85044 0
M  V30 9186 H 882.62 -3.87938 -0.112035 0
M  V30 9187 H 880.721 -2.8787 -2.36562 0
M  V30 9188 H 880.834 -4.55098 -1.49741 0
M  V30 9189 H 879.198 -2.38741 -0.887394 0
M  V30 9190 H 879.981 -3.40486 0.438662 0
M  V30 9191 N 882.426 0.269451 -1.5528 0
M  V30 9192 C 883.703 1.02207 -1.66773 0
M  V30 9193 C 884.083 2.04168 -0.536536 0
M  V30 9194 O 883.431 2.23761 0.462956 0
M  V30 9195 C 883.641 1.67569 -3.0614 0
M  V30 9196 C 884.989 2.18599 -3.64005 0
M  V30 9197 O 886.013 1.7755 -3.08795 0
M  V30 9198 O 884.872 2.93903 -4.60742 0
M  V30 9199 H 881.966 0.474314 -0.677462 0
M  V30 9200 H 884.512 0.265026 -1.67618 0
M  V30 9201 H 883.284 0.937029 -3.79915 0
M  V30 9202 H 882.907 2.49951 -3.09209 0
M  V30 9203 N 883.904 1.48273 0.534124 0
M  V30 9204 C 884.867 1.6201 1.62127 0
M  V30 9205 C 885.867 0.493653 1.53035 0
M  V30 9206 O 887.057 0.759337 1.56779 0
M  V30 9207 C 884.189 1.5864 3.01739 0
M  V30 9208 H 885.382 2.58944 1.51288 0
M  V30 9209 H 882.935 1.36808 0.755861 0
M  V30 9210 H 883.67 0.631685 3.18088 0
M  V30 9211 H 883.455 2.40415 3.09747 0
M  V30 9212 H 884.945 1.71438 3.80787 0
M  V30 9213 N 885.382 -0.782676 1.36792 0
M  V30 9214 C 886.628 -1.54311 1.3159 0
M  V30 9215 C 886.961 -1.93928 -0.102696 0
M  V30 9216 O 886.236 -1.63233 -1.05761 0
M  V30 9217 C 886.519 -2.81561 2.24489 0
M  V30 9218 C 886.372 -2.48268 3.75078 0
M  V30 9219 C 887.691 -3.83428 2.16034 0
M  V30 9220 H 884.81 -0.559828 0.479335 0
M  V30 9221 H 887.452 -0.898717 1.67401 0
M  V30 9222 H 885.602 -3.36549 1.9408 0
M  V30 9223 H 887.274 -1.99279 4.16036 0
M  V30 9224 H 885.517 -1.81116 3.94182 0
M  V30 9225 H 886.188 -3.39183 4.35499 0
M  V30 9226 H 888.664 -3.37905 2.42815 0
M  V30 9227 H 887.54 -4.70204 2.83194 0
M  V30 9228 H 887.801 -4.26887 1.14976 0
M  V30 9229 N 886.86 -1.21182 -1.00761 0
M  V30 9230 C 888.108 -1.02543 -1.74153 0
M  V30 9231 C 888.429 0.442372 -1.89916 0
M  V30 9232 O 887.699 1.31927 -1.44818 0
M  V30 9233 H 886.279 -0.37644 -0.645214 0
M  V30 9234 H 888.941 -1.52446 -1.21434 0
M  V30 9235 H 888.037 -1.49122 -2.7417 0
M  V30 9236 N 888.338 1.20213 -1.01915 0
M  V30 9237 C 889.285 2.2309 -0.591571 0
M  V30 9238 C 890.255 1.61465 0.389649 0
M  V30 9239 O 891.44 1.88606 0.288511 0
M  V30 9240 C 888.58 3.45045 0.0614028 0
M  V30 9241 C 887.693 4.21091 -0.964688 0
M  V30 9242 C 886.828 5.30448 -0.282499 0
M  V30 9243 C 885.867 5.98241 -1.29517 0
M  V30 9244 N 885.004 6.99182 -0.639472 0
M  V30 9245 H 889.844 2.59023 -1.47347 0
M  V30 9246 H 887.381 1.27274 -0.737547 0
M  V30 9247 H 889.339 4.14688 0.45714 0
M  V30 9248 H 887.969 3.09797 0.906937 0
M  V30 9249 H 887.021 3.50489 -1.47857 0
M  V30 9250 H 888.333 4.67662 -1.73475 0
M  V30 9251 H 887.487 6.06466 0.168603 0
M  V30 9252 H 886.226 4.84922 0.519843 0
M  V30 9253 H 885.231 5.20982 -1.75663 0
M  V30 9254 H 886.456 6.45853 -2.09884 0
M  V30 9255 H 884.402 6.55844 0.142955 0
M  V30 9256 H 884.319 7.43893 -1.34756 0
M  V30 9257 H 885.587 7.79212 -0.212047 0
M  V30 9258 N 889.816 0.795718 1.36037 0
M  V30 9259 C 891.056 0.376514 2.00902 0
M  V30 9260 C 891.42 -1.03405 1.61776 0
M  V30 9261 O 892.621 -1.55468 2.19279 0
M  V30 9262 C 890.892 0.542086 3.53265 0
M  V30 9263 S 892.451 0.211694 4.38289 0
M  V30 9264 H 889.269 0.143527 0.696363 0
M  V30 9265 H 891.871 1.03559 1.65819 0
M  V30 9266 H 890.575 1.56888 3.79229 0
M  V30 9267 H 890.106 -0.132698 3.93176 0
M  V30 9268 H 892.121 -0.98452 4.86335 0
M  V30 9269 N 891.294 -1.47756 0.548274 0
M  V30 9270 C 892.71 -1.58247 0.207401 0
M  V30 9271 C 892.91 -1.54804 -1.28988 0
M  V30 9272 O 891.966 -1.44673 -2.06944 0
M  V30 9273 C 893.279 -2.89129 0.826142 0
M  V30 9274 C 894.827 -3.02695 0.79655 0
M  V30 9275 C 895.302 -4.36264 1.3942 0
M  V30 9276 N 896.793 -4.42877 1.35698 0
M  V30 9277 C 897.528 -5.44773 1.78913 0
M  V30 9278 N 897.024 -6.53528 2.29942 0
M  V30 9279 N 898.817 -5.35765 1.70038 0
M  V30 9280 H 890.968 -1.48236 1.52117 0
M  V30 9281 H 893.231 -0.704957 0.633829 0
M  V30 9282 H 892.937 -2.97358 1.87806 0
M  V30 9283 H 892.811 -3.75891 0.313916 0
M  V30 9284 H 895.198 -2.94067 -0.246655 0
M  V30 9285 H 895.279 -2.17496 1.34644 0
M  V30 9286 H 894.923 -4.45646 2.43642 0
M  V30 9287 H 894.853 -5.20179 0.819827 0
M  V30 9288 H 897.344 -3.64874 0.983623 0
M  V30 9289 H 897.657 -7.27441 2.60863 0
M  V30 9290 H 896.002 -6.54442 2.33947 0
M  V30 9291 H 899.193 -4.49699 1.29955 0
M  V30 9292 H 899.366 -6.1504 2.04035 0
M  V30 9293 N 892.772 -0.284283 -1.55015 0
M  V30 9294 C 893.997 0.335799 -2.04664 0
M  V30 9295 C 894.422 1.47999 -1.16094 0
M  V30 9296 O 893.78 1.8058 -0.161454 0
M  V30 9297 C 893.828 0.785615 -3.51938 0
M  V30 9298 O 892.932 1.89202 -3.66437 0
M  V30 9299 H 892.273 0.0680233 -0.660506 0
M  V30 9300 H 894.803 -0.421255 -2.00216 0
M  V30 9301 H 894.813 1.07892 -3.93476 0
M  V30 9302 H 893.488 -0.0514675 -4.15868 0
M  V30 9303 H 892.065 1.60055 -3.36804 0
M  V30 9304 N 894.251 1.57596 -0.0117121 0
M  V30 9305 C 895.214 2.08089 0.960816 0
M  V30 9306 C 896.214 0.992519 1.26514 0
M  V30 9307 O 897.404 1.25475 1.20837 0
M  V30 9308 C 894.536 2.53217 2.28241 0
M  V30 9309 H 895.729 2.9529 0.523829 0
M  V30 9310 H 893.282 1.54508 0.235995 0
M  V30 9311 H 894.017 1.69294 2.76604 0
M  V30 9312 H 893.802 3.32714 2.0747 0
M  V30 9313 H 895.292 2.92568 2.97983 0
M  V30 9314 N 895.729 -0.261212 1.5542 0
M  V30 9315 C 896.977 -0.989272 1.76232 0
M  V30 9316 C 897.298 -1.86389 0.573067 0
M  V30 9317 O 896.568 -1.91526 -0.41166 0
M  V30 9318 H 895.148 -0.368256 0.64992 0
M  V30 9319 H 897.81 -0.282603 1.9284 0
M  V30 9320 H 896.906 -1.61935 2.66802 0
M  V30 9321 N 897.207 -1.48554 -0.526253 0
M  V30 9322 C 898.456 -1.56014 -1.27837 0
M  V30 9323 C 898.769 -0.240643 -1.94114 0
M  V30 9324 O 899.975 -0.193525 -2.70809 0
M  V30 9325 C 898.431 -2.75161 -2.31979 0
M  V30 9326 C 898.039 -4.13768 -1.71755 0
M  V30 9327 C 899.783 -2.91936 -3.08178 0
M  V30 9328 C 897.69 -5.24171 -2.7386 0
M  V30 9329 H 896.62 -0.58082 -0.480795 0
M  V30 9330 H 899.271 -1.74895 -0.555335 0
M  V30 9331 H 897.653 -2.49722 -3.07335 0
M  V30 9332 H 898.827 -4.49241 -1.02563 0
M  V30 9333 H 897.142 -4.02141 -1.08036 0
M  V30 9334 H 899.739 -3.71586 -3.84484 0
M  V30 9335 H 900.082 -2.01533 -3.64267 0
M  V30 9336 H 900.615 -3.17294 -2.39937 0
M  V30 9337 H 897.354 -6.16552 -2.22586 0
M  V30 9338 H 896.874 -4.93181 -3.41368 0
M  V30 9339 H 898.553 -5.52442 -3.36774 0
M  V30 9340 N 898.685 0.775411 -1.37205 0
M  V30 9341 C 899.632 1.88857 -1.32671 0
M  V30 9342 C 900.602 1.64976 -0.192899 0
M  V30 9343 O 901.787 1.86944 -0.381673 0
M  V30 9344 C 898.927 3.25871 -1.13588 0
M  V30 9345 C 898.04 3.61731 -2.36167 0
M  V30 9346 C 897.175 4.87934 -2.09985 0
M  V30 9347 C 896.214 5.16514 -3.2845 0
M  V30 9348 N 895.351 6.33905 -3.01842 0
M  V30 9349 H 900.191 1.92068 -2.27846 0
M  V30 9350 H 897.728 0.939066 -1.13225 0
M  V30 9351 H 899.686 4.04903 -1.00546 0
M  V30 9352 H 898.316 3.22045 -0.220613 0
M  V30 9353 H 897.368 2.77712 -2.59962 0
M  V30 9354 H 898.68 3.78792 -3.24528 0
M  V30 9355 H 897.834 5.74863 -1.93953 0
M  V30 9356 H 896.573 4.7297 -1.18956 0
M  V30 9357 H 895.578 4.28063 -3.45025 0
M  V30 9358 H 896.803 5.33389 -4.20325 0
M  V30 9359 H 894.749 6.20306 -2.13439 0
M  V30 9360 H 894.666 6.51364 -3.83746 0
M  V30 9361 H 895.934 7.23779 -2.8942 0
M  V30 9362 N 900.163 1.21714 1.00117 0
M  V30 9363 C 901.409 1.03823 1.74208 0
M  V30 9364 C 901.742 -0.426733 1.89454 0
M  V30 9365 O 901.017 -1.31658 1.43166 0
M  V30 9366 C 901.3 1.74047 3.15246 0
M  V30 9367 C 901.153 3.28087 3.077 0
M  V30 9368 C 902.472 1.48614 4.14249 0
M  V30 9369 H 899.591 0.378573 0.632338 0
M  V30 9370 H 902.233 1.49942 1.16694 0
M  V30 9371 H 900.383 1.3484 3.64349 0
M  V30 9372 H 902.055 3.76686 2.6628 0
M  V30 9373 H 900.298 3.58191 2.44707 0
M  V30 9374 H 900.969 3.72392 4.07466 0
M  V30 9375 H 903.445 1.82656 3.73866 0
M  V30 9376 H 902.321 2.00257 5.11066 0
M  V30 9377 H 902.582 0.416957 4.40129 0
M  V30 9378 N 901.641 -1.19671 1.02551 0
M  V30 9379 C 902.89 -1.88591 0.715272 0
M  V30 9380 C 903.203 -1.80274 -0.758982 0
M  V30 9381 O 904.409 -2.44413 -1.18213 0
M  V30 9382 C 902.865 -3.38264 1.22905 0
M  V30 9383 C 902.473 -3.55146 2.73084 0
M  V30 9384 C 904.217 -4.12683 0.994649 0
M  V30 9385 C 902.124 -4.98693 3.17897 0
M  V30 9386 H 901.054 -0.706326 0.263857 0
M  V30 9387 H 903.705 -1.35322 1.23936 0
M  V30 9388 H 902.087 -3.9091 0.632892 0
M  V30 9389 H 903.261 -3.12845 3.38326 0
M  V30 9390 H 901.576 -2.94112 2.94766 0
M  V30 9391 H 904.173 -5.18536 1.30478 0
M  V30 9392 H 904.516 -4.16243 -0.0686466 0
M  V30 9393 H 905.049 -3.66164 1.55464 0
M  V30 9394 H 901.788 -5.00293 4.23542 0
M  V30 9395 H 901.308 -5.4177 2.57381 0
M  V30 9396 H 902.987 -5.67327 3.11045 0
M  V30 9397 N 903.119 -0.802921 -1.35613 0
M  V30 9398 C 904.052 -0.156345 -2.27664 0
M  V30 9399 C 905.03 0.675517 -1.47904 0
M  V30 9400 O 906.214 0.643589 -1.77173 0
M  V30 9401 C 903.341 0.78348 -3.29514 0
M  V30 9402 C 902.387 0.0317062 -4.26488 0
M  V30 9403 S 903.22 -1.30183 -5.19435 0
M  V30 9404 C 904.376 -0.366354 -6.24827 0
M  V30 9405 H 904.609 -0.936803 -2.82155 0
M  V30 9406 H 902.142 -0.597799 -1.42358 0
M  V30 9407 H 904.1 1.32023 -3.8869 0
M  V30 9408 H 902.761 1.53729 -2.73909 0
M  V30 9409 H 901.954 0.745364 -4.98458 0
M  V30 9410 H 901.556 -0.43497 -3.71462 0
M  V30 9411 H 903.848 0.44976 -6.76005 0
M  V30 9412 H 904.791 -1.05513 -7.00195 0
M  V30 9413 H 905.199 0.0363203 -5.64488 0
M  V30 9414 N 904.597 1.47463 -0.556102 0
M  V30 9415 C 905.843 2.02775 -0.0316806 0
M  V30 9416 C 906.176 1.42967 1.3143 0
M  V30 9417 O 905.451 0.584847 1.85499 0
M  V30 9418 C 905.734 3.60046 0.0625742 0
M  V30 9419 C 905.587 4.30288 -1.31043 0
M  V30 9420 C 906.906 4.33195 0.776553 0
M  V30 9421 H 904.025 0.736886 -0.0129869 0
M  V30 9422 H 906.667 1.75904 -0.718177 0
M  V30 9423 H 904.817 3.83071 0.647231 0
M  V30 9424 H 906.489 4.18607 -1.9382 0
M  V30 9425 H 904.732 3.90685 -1.8854 0
M  V30 9426 H 905.403 5.38861 -1.1972 0
M  V30 9427 H 907.879 4.15156 0.280147 0
M  V30 9428 H 906.755 5.42869 0.81146 0
M  V30 9429 H 907.016 4.02336 1.83244 0
M  V30 9430 N 906.075 0.2925 1.54862 0
M  V30 9431 C 907.303 -0.322113 2.04377 0
M  V30 9432 C 907.718 -1.48164 1.17016 0
M  V30 9433 O 907.075 -1.81466 0.19395 0
M  V30 9434 C 907.126 -0.786506 3.5284 0
M  V30 9435 O 906.847 0.326863 4.36879 0
M  V30 9436 C 908.348 -1.46715 4.18318 0
M  V30 9437 H 905.568 -0.0712074 0.667211 0
M  V30 9438 H 908.112 0.429657 1.99935 0
M  V30 9439 H 906.267 -1.48832 3.5767 0
M  V30 9440 H 906.681 -0.0331558 5.2449 0
M  V30 9441 H 908.155 -1.74333 5.23748 0
M  V30 9442 H 908.632 -2.40443 3.67538 0
M  V30 9443 H 909.238 -0.808735 4.1754 0
M  V30 9444 N 907.553 -1.57587 0.0200696 0
M  V30 9445 C 908.801 -1.91046 -0.65922 0
M  V30 9446 C 909.122 -0.896197 -1.73186 0
M  V30 9447 O 908.392 0.0635952 -1.95797 0
M  V30 9448 H 906.972 -0.705163 -0.246483 0
M  V30 9449 H 909.634 -1.94789 0.0657368 0
M  V30 9450 H 908.73 -2.91399 -1.11773 0
M  V30 9451 N 909.032 0.252966 -1.55557 0
M  V30 9452 C 910.309 1.00432 -1.67847 0
M  V30 9453 C 910.689 2.03587 -0.55816 0
M  V30 9454 O 910.037 2.24239 0.439197 0
M  V30 9455 C 910.247 1.64313 -3.079 0
M  V30 9456 C 911.595 2.14726 -3.66303 0
M  V30 9457 O 912.619 1.74264 -3.10661 0
M  V30 9458 O 911.478 2.89 -4.63833 0
M  V30 9459 H 908.572 0.467102 -0.682455 0
M  V30 9460 H 911.118 0.247233 -1.67889 0
M  V30 9461 H 909.89 0.896681 -3.80888 0
M  V30 9462 H 909.513 2.46657 -3.11843 0
M  V30 9463 N 910.51 1.48831 0.518367 0
M  V30 9464 C 911.46 1.60614 1.61824 0
M  V30 9465 C 912.444 0.462631 1.54106 0
M  V30 9466 O 913.636 0.714689 1.6193 0
M  V30 9467 C 910.765 1.65984 3.00507 0
M  V30 9468 C 909.851 2.85854 3.13286 0
M  V30 9469 N 910.242 4.1014 2.96005 0
M  V30 9470 C 908.54 2.83429 3.4436 0
M  V30 9471 C 909.241 4.90626 3.12508 0
M  V30 9472 N 908.217 4.2366 3.40607 0
M  V30 9473 H 912.019 2.54443 1.47091 0
M  V30 9474 H 909.533 1.45363 0.724102 0
M  V30 9475 H 911.53 1.72521 3.79529 0
M  V30 9476 H 910.19 0.732792 3.16323 0
M  V30 9477 H 911.201 4.40395 2.72531 0
M  V30 9478 H 907.878 2.0003 3.66462 0
M  V30 9479 H 909.268 5.99302 3.03786 0
M  V30 9480 N 911.988 -0.768124 1.37614 0
M  V30 9481 C 913.399 -1.34462 1.29525 0
M  V30 9482 C 913.75 -1.96121 -0.0555168 0
M  V30 9483 O 912.875 -1.94069 -0.957406 0
M  V30 9484 C 913.47 -2.44475 2.34558 0
M  V30 9485 C 912.029 -2.97883 2.30093 0
M  V30 9486 C 911.176 -1.71131 2.18196 0
M  V30 9487 H 914.127 -0.568103 1.48183 0
M  V30 9488 H 914.148 -3.24047 1.99434 0
M  V30 9489 H 913.66 -1.99568 3.32858 0
M  V30 9490 H 911.761 -3.47156 1.35328 0
M  V30 9491 H 911.874 -3.53251 3.23652 0
M  V30 9492 H 910.238 -1.94197 1.64802 0
M  V30 9493 H 911.021 -1.28323 3.18415 0
M  V30 9494 N 913.466 -1.22244 -0.994698 0
M  V30 9495 C 914.715 -1.04005 -1.72817 0
M  V30 9496 C 915.028 0.425413 -1.90918 0
M  V30 9497 O 916.234 0.727429 -2.61574 0
M  V30 9498 C 914.69 -1.81244 -3.10932 0
M  V30 9499 C 914.298 -3.32028 -3.00768 0
M  V30 9500 C 916.042 -1.71448 -3.88337 0
M  V30 9501 C 913.949 -4.01716 -4.34026 0
M  V30 9502 H 912.879 -0.385559 -0.647966 0
M  V30 9503 H 915.53 -1.46077 -1.11058 0
M  V30 9504 H 913.912 -1.3197 -3.73363 0
M  V30 9505 H 915.086 -3.88682 -2.47513 0
M  V30 9506 H 913.401 -3.4248 -2.36846 0
M  V30 9507 H 915.998 -2.20836 -4.86965 0
M  V30 9508 H 916.341 -0.674568 -4.10798 0
M  V30 9509 H 916.874 -2.18256 -3.3258 0
M  V30 9510 H 913.613 -5.05952 -4.16765 0
M  V30 9511 H 913.133 -3.49849 -4.87202 0
M  V30 9512 H 914.812 -4.0721 -5.02782 0
M  V30 9513 N 914.944 1.19125 -1.03184 0
M  V30 9514 C 916.172 1.92838 -0.74975 0
M  V30 9515 C 916.587 1.75667 0.691851 0
M  V30 9516 O 915.944 1.0805 1.47076 0
M  V30 9517 C 915.995 3.44509 -1.09525 0
M  V30 9518 O 915.716 3.6113 -2.48025 0
M  V30 9519 C 917.217 4.35338 -0.836397 0
M  V30 9520 H 914.437 0.61246 -0.274105 0
M  V30 9521 H 916.981 1.5118 -1.37712 0
M  V30 9522 H 915.136 3.83988 -0.513006 0
M  V30 9523 H 915.55 4.54959 -2.60984 0
M  V30 9524 H 917.024 5.4035 -1.12808 0
M  V30 9525 H 917.501 4.38602 0.229102 0
M  V30 9526 H 918.107 4.01544 -1.40152 0
M  V30 9527 N 916.422 0.810101 1.35185 0
M  V30 9528 C 917.385 0.22852 2.28058 0
M  V30 9529 C 918.385 -0.586168 1.49735 0
M  V30 9530 O 919.575 -0.40414 1.69447 0
M  V30 9531 C 916.707 -0.681041 3.34028 0
M  V30 9532 H 917.9 1.04768 2.81005 0
M  V30 9533 H 915.453 0.58101 1.451 0
M  V30 9534 H 916.188 -1.52375 2.86273 0
M  V30 9535 H 915.973 -0.0985276 3.91976 0
M  V30 9536 H 917.463 -1.08217 4.03335 0
M  V30 9537 N 917.9 -1.47166 0.563914 0
M  V30 9538 C 918.847 -2.30097 -0.180013 0
M  V30 9539 C 919.817 -1.39473 -0.902019 0
M  V30 9540 O 921.002 -1.68432 -0.896396 0
M  V30 9541 C 918.142 -3.23573 -1.19978 0
M  V30 9542 C 917.255 -4.2929 -0.483149 0
M  V30 9543 C 916.39 -5.0991 -1.48879 0
M  V30 9544 C 915.429 -6.07395 -0.757513 0
M  V30 9545 N 914.566 -6.8095 -1.71031 0
M  V30 9546 H 919.406 -2.93189 0.53329 0
M  V30 9547 H 916.943 -1.4451 0.274814 0
M  V30 9548 H 918.901 -3.76196 -1.80368 0
M  V30 9549 H 917.531 -2.6233 -1.88103 0
M  V30 9550 H 916.583 -3.79671 0.235414 0
M  V30 9551 H 917.895 -4.9872 0.0894075 0
M  V30 9552 H 917.049 -5.66717 -2.16603 0
M  V30 9553 H 915.788 -4.40397 -2.09527 0
M  V30 9554 H 914.793 -5.4976 -0.0663841 0
M  V30 9555 H 916.018 -6.78919 -0.156685 0
M  V30 9556 H 913.964 -6.14162 -2.30524 0
M  V30 9557 H 913.881 -7.46574 -1.19007 0
M  V30 9558 H 915.149 -7.42326 -2.37849 0
M  V30 9559 N 919.378 -0.300708 -1.54705 0
M  V30 9560 C 920.341 0.562648 -2.22187 0
M  V30 9561 C 921.341 1.06152 -1.20782 0
M  V30 9562 O 922.531 0.957596 -1.45519 0
M  V30 9563 C 919.663 1.77899 -2.908 0
M  V30 9564 H 920.856 -0.0269361 -2.99888 0
M  V30 9565 H 918.409 -0.0515412 -1.56215 0
M  V30 9566 H 919.144 2.40841 -2.17177 0
M  V30 9567 H 918.929 1.42892 -3.65136 0
M  V30 9568 H 920.419 2.39236 -3.42281 0
M  V30 9569 N 920.856 1.57574 -0.0284266 0
M  V30 9570 C 922.105 1.9095 0.649704 0
M  V30 9571 C 922.418 0.906421 1.7333 0
M  V30 9572 O 923.624 1.1314 2.46803 0
M  V30 9573 C 922.08 3.39061 1.20687 0
M  V30 9574 C 921.688 4.47726 0.156597 0
M  V30 9575 C 923.432 3.81505 1.86156 0
M  V30 9576 C 921.339 5.86935 0.725365 0
M  V30 9577 H 920.269 0.712589 0.24644 0
M  V30 9578 H 922.92 1.83261 -0.0936143 0
M  V30 9579 H 921.302 3.41679 2.00178 0
M  V30 9580 H 922.476 4.56667 -0.6158 0
M  V30 9581 H 920.791 4.14481 -0.399288 0
M  V30 9582 H 923.388 4.82865 2.29665 0
M  V30 9583 H 923.731 3.16529 2.70398 0
M  V30 9584 H 924.264 3.81307 1.13356 0
M  V30 9585 H 921.003 6.55453 -0.0789081 0
M  V30 9586 H 920.523 5.81602 1.46627 0
M  V30 9587 H 922.202 6.35483 1.21532 0
M  V30 9588 N 922.334 -0.244713 1.55689 0
M  V30 9589 C 923.297 -1.2864 1.89695 0
M  V30 9590 C 924.297 -1.40969 0.773583 0
M  V30 9591 O 925.487 -1.39632 1.04156 0
M  V30 9592 C 922.619 -2.66379 2.12732 0
M  V30 9593 H 923.812 -0.997033 2.82841 0
M  V30 9594 H 921.365 -0.484103 1.48614 0
M  V30 9595 H 922.1 -3.00452 1.22062 0
M  V30 9596 H 921.885 -2.58812 2.94549 0
M  V30 9597 H 923.375 -3.41592 2.40218 0
M  V30 9598 N 923.813 -1.49104 -0.510467 0
M  V30 9599 C 924.76 -1.65074 -1.61305 0
M  V30 9600 C 925.73 -0.492362 -1.58635 0
M  V30 9601 O 926.915 -0.718241 -1.76765 0
M  V30 9602 C 924.055 -1.71457 -2.99493 0
M  V30 9603 C 923.168 -2.98536 -3.12251 0
M  V30 9604 C 922.303 -2.95957 -4.41116 0
M  V30 9605 C 921.342 -4.17655 -4.47471 0
M  V30 9606 N 920.479 -4.13041 -5.67751 0
M  V30 9607 H 925.319 -2.59222 -1.46996 0
M  V30 9608 H 922.856 -1.28535 -0.715346 0
M  V30 9609 H 924.814 -1.7314 -3.79577 0
M  V30 9610 H 923.444 -0.807834 -3.12528 0
M  V30 9611 H 922.496 -3.06509 -2.25292 0
M  V30 9612 H 923.808 -3.88527 -3.12807 0
M  V30 9613 H 922.962 -2.96149 -5.2951 0
M  V30 9614 H 921.701 -2.03728 -4.4311 0
M  V30 9615 H 920.706 -4.17717 -3.57481 0
M  V30 9616 H 921.931 -5.11066 -4.472 0
M  V30 9617 H 919.877 -3.23643 -5.70606 0
M  V30 9618 H 919.794 -4.96757 -5.69884 0
M  V30 9619 H 921.062 -4.17322 -6.58379 0
M  V30 9620 N 925.291 0.760815 -1.38019 0
M  V30 9621 C 926.539 1.51673 -1.33566 0
M  V30 9622 C 926.86 1.94852 0.076024 0
M  V30 9623 O 926.13 1.67112 1.02227 0
M  V30 9624 H 924.71 0.562581 -0.491438 0
M  V30 9625 H 927.372 0.904832 -1.72623 0
M  V30 9626 H 926.468 2.41102 -1.98182 0
M  V30 9627 N 926.769 1.22769 0.988202 0
M  V30 9628 C 928.015 1.05665 1.73097 0
M  V30 9629 C 928.348 -0.406615 1.89895 0
M  V30 9630 O 927.623 -1.30132 1.44554 0
M  V30 9631 C 927.906 1.77381 3.13382 0
M  V30 9632 C 927.759 3.31332 3.04203 0
M  V30 9633 C 929.078 1.52999 4.12649 0
M  V30 9634 H 926.197 0.385258 0.628288 0
M  V30 9635 H 928.839 1.51171 1.15097 0
M  V30 9636 H 926.989 1.38696 3.62899 0
M  V30 9637 H 928.661 3.79489 2.6227 0
M  V30 9638 H 926.904 3.60767 2.40894 0
M  V30 9639 H 927.575 3.76692 4.03493 0
M  V30 9640 H 930.051 1.86611 3.71908 0
M  V30 9641 H 928.927 2.05666 5.08913 0
M  V30 9642 H 929.188 0.463615 4.39662 0
M  V30 9643 N 928.247 -1.18576 1.03814 0
M  V30 9644 C 929.495 -1.88121 0.738574 0
M  V30 9645 C 929.816 -1.80587 -0.735744 0
M  V30 9646 O 929.086 -1.22251 -1.53074 0
M  V30 9647 H 927.666 -0.696417 0.270208 0
M  V30 9648 H 930.328 -1.43912 1.31435 0
M  V30 9649 H 929.424 -2.94222 1.04115 0
M  V30 9650 N 929.725 -0.817259 -1.34754 0
M  V30 9651 C 930.974 -0.39908 -1.97713 0
M  V30 9652 C 931.287 1.04203 -1.65533 0
M  V30 9653 O 932.493 1.56384 -2.21937 0
M  V30 9654 C 930.949 -0.662634 -3.53747 0
M  V30 9655 C 930.557 -2.11699 -3.94826 0
M  V30 9656 C 932.301 -0.31034 -4.23364 0
M  V30 9657 C 930.208 -2.32573 -5.4375 0
M  V30 9658 H 929.138 -0.145488 -0.739831 0
M  V30 9659 H 931.789 -1.00282 -1.53674 0
M  V30 9660 H 930.171 0.0111972 -3.95998 0
M  V30 9661 H 931.345 -2.82951 -3.63697 0
M  V30 9662 H 929.66 -2.43017 -3.3813 0
M  V30 9663 H 932.257 -0.44421 -5.32852 0
M  V30 9664 H 932.6 0.744594 -4.09587 0
M  V30 9665 H 933.133 -0.938518 -3.8657 0
M  V30 9666 H 929.872 -3.36551 -5.62507 0
M  V30 9667 H 929.392 -1.65858 -5.76412 0
M  V30 9668 H 931.071 -2.14651 -6.10356 0
M  V30 9669 N 931.203 1.46865 -0.571711 0
M  V30 9670 C 932.452 2.01636 -0.050881 0
M  V30 9671 C 932.765 1.45001 1.31279 0
M  V30 9672 O 933.971 1.91523 1.92435 0
M  V30 9673 C 932.427 3.59877 -0.0404114 0
M  V30 9674 C 932.035 4.25506 -1.40172 0
M  V30 9675 C 933.779 4.22346 0.42705 0
M  V30 9676 C 931.686 5.75795 -1.34958 0
M  V30 9677 H 930.616 0.753846 -0.0152514 0
M  V30 9678 H 933.267 1.68711 -0.721723 0
M  V30 9679 H 931.649 3.89829 0.696374 0
M  V30 9680 H 932.823 4.07178 -2.15737 0
M  V30 9681 H 931.138 3.75086 -1.8083 0
M  V30 9682 H 933.735 5.32499 0.484688 0
M  V30 9683 H 934.078 3.9052 1.44222 0
M  V30 9684 H 934.611 3.9698 -0.255326 0
M  V30 9685 H 931.35 6.12265 -2.3412 0
M  V30 9686 H 930.87 5.96419 -0.635962 0
M  V30 9687 H 932.549 6.38294 -1.05779 0
M  V30 9688 N 932.681 0.308908 1.54543 0
M  V30 9689 C 933.906 -0.303196 2.05172 0
M  V30 9690 C 934.331 -1.46133 1.18434 0
M  V30 9691 O 933.689 -1.803 0.190162 0
M  V30 9692 C 933.737 -0.729526 3.53143 0
M  V30 9693 O 932.841 -1.83348 3.69401 0
M  V30 9694 H 932.182 -0.0575066 0.661505 0
M  V30 9695 H 934.712 0.453055 1.99521 0
M  V30 9696 H 934.722 -1.01619 3.95143 0
M  V30 9697 H 933.397 0.117622 4.15734 0
M  V30 9698 H 931.974 -1.54676 3.39308 0
M  V30 9699 N 934.159 -1.57557 0.0367827 0
M  V30 9700 C 935.069 -2.14148 -0.958017 0
M  V30 9701 C 936.085 -1.09564 -1.35173 0
M  V30 9702 O 937.261 -1.4166 -1.43158 0
M  V30 9703 C 934.326 -2.6636 -2.21931 0
M  V30 9704 C 933.387 -3.85688 -1.8853 0
M  V30 9705 C 932.62 -4.35401 -3.08645 0
M  V30 9706 O 932.843 -3.8425 -4.21554 0
M  V30 9707 O 931.777 -5.27158 -2.90497 0
M  V30 9708 H 935.603 -2.99442 -0.506797 0
M  V30 9709 H 933.188 -1.48259 -0.184275 0
M  V30 9710 H 935.07 -2.99976 -2.9596 0
M  V30 9711 H 933.745 -1.84145 -2.66219 0
M  V30 9712 H 932.652 -3.56985 -1.11861 0
M  V30 9713 H 933.985 -4.69089 -1.49052 0
M  V30 9714 N 935.637 0.236453 -1.55816 0
M  V30 9715 C 936.885 0.96111 -1.77784 0
M  V30 9716 C 937.206 1.85454 -0.602648 0
M  V30 9717 O 936.476 1.92157 0.381137 0
M  V30 9718 H 935.056 0.35787 -0.655697 0
M  V30 9719 H 937.718 0.251888 -1.93265 0
M  V30 9720 H 936.814 1.5767 -2.69345 0
M  V30 9721 N 937.115 1.49373 0.502552 0
M  V30 9722 C 938.063 1.66411 1.62512 0
M  V30 9723 C 939.057 0.530062 1.60893 0
M  V30 9724 O 940.263 0.709648 1.65421 0
M  V30 9725 H 936.638 0.524707 0.538689 0
M  V30 9726 H 938.609 2.60639 1.45293 0
M  V30 9727 C 937.358 1.74648 3.00655 0
M  V30 9728 H 936.681 2.61285 3.02606 0
M  V30 9729 H 938.121 1.90605 3.78742 0
M  V30 9730 C 936.58 0.490963 3.33303 0
M  V30 9731 O 937.11 -0.384039 3.9986 0
M  V30 9732 N 935.316 0.354375 2.88431 0
M  V30 9733 H 934.863 1.06742 2.34444 0
M  V30 9734 H 934.821 -0.484593 3.10643 0
M  V30 9735 N 938.594 -0.753485 1.38421 0
M  V30 9736 C 939.504 -1.89797 1.37892 0
M  V30 9737 C 940.52 -1.71797 0.276023 0
M  V30 9738 O 941.696 -1.94718 0.514464 0
M  V30 9739 C 938.761 -3.25166 1.20284 0
M  V30 9740 C 937.822 -3.55691 2.4038 0
M  V30 9741 C 937.055 -4.84601 2.23602 0
M  V30 9742 O 937.278 -5.56985 1.22979 0
M  V30 9743 O 936.212 -5.14605 3.12194 0
M  V30 9744 H 940.038 -1.93197 2.34326 0
M  V30 9745 H 937.623 -0.898775 1.19342 0
M  V30 9746 H 939.505 -4.06099 1.12525 0
M  V30 9747 H 938.18 -3.22577 0.269352 0
M  V30 9748 H 937.087 -2.74919 2.53714 0
M  V30 9749 H 938.42 -3.6304 3.32359 0
M  V30 9750 N 940.072 -1.23292 -0.981677 0
M  V30 9751 C 941.3 -1.09088 -1.75805 0
M  V30 9752 C 941.715 0.357746 -1.8538 0
M  V30 9753 O 941.072 1.24751 -1.33205 0
M  V30 9754 C 941.123 -1.70885 -3.1856 0
M  V30 9755 O 940.844 -3.10082 -3.09484 0
M  V30 9756 C 942.345 -1.62106 -4.12597 0
M  V30 9757 H 939.565 -0.38184 -0.55176 0
M  V30 9758 H 942.109 -1.63116 -1.23342 0
M  V30 9759 H 940.264 -1.20893 -3.68054 0
M  V30 9760 H 940.678 -3.40039 -3.99342 0
M  V30 9761 H 942.152 -2.10049 -5.10474 0
M  V30 9762 H 942.629 -0.579642 -4.35358 0
M  V30 9763 H 943.235 -2.11457 -3.69007 0
M  V30 9764 N 941.55 1.18024 -1.04442 0
M  V30 9765 C 942.796 1.88377 -0.751133 0
M  V30 9766 C 943.129 1.80377 0.719571 0
M  V30 9767 O 942.404 1.20662 1.52548 0
M  V30 9768 C 942.687 3.38708 -1.22265 0
M  V30 9769 C 942.54 3.55499 -2.75574 0
M  V30 9770 C 943.859 4.32475 -0.815688 0
M  V30 9771 H 940.978 0.684037 -0.27434 0
M  V30 9772 H 943.62 1.38837 -1.29709 0
M  V30 9773 H 941.77 3.8103 -0.758192 0
M  V30 9774 H 943.442 3.22244 -3.30086 0
M  V30 9775 H 941.685 2.98028 -3.15217 0
M  V30 9776 H 942.356 4.60994 -3.03625 0
M  V30 9777 H 944.832 3.97953 -1.21542 0
M  V30 9778 H 943.708 5.36213 -1.17331 0
M  V30 9779 H 943.969 4.41207 0.280901 0
M  V30 9780 N 943.028 0.824394 1.34319 0
M  V30 9781 C 943.938 0.24932 2.33271 0
M  V30 9782 C 944.954 -0.617066 1.62691 0
M  V30 9783 O 946.13 -0.524616 1.94447 0
M  V30 9784 C 943.195 -0.578094 3.41846 0
M  V30 9785 C 942.256 0.310866 4.28173 0
M  V30 9786 C 941.489 -0.477153 5.31563 0
M  V30 9787 O 941.712 -1.71028 5.44156 0
M  V30 9788 O 940.646 0.141287 6.01734 0
M  V30 9789 H 944.472 1.06837 2.84288 0
M  V30 9790 H 942.057 0.58657 1.37403 0
M  V30 9791 H 943.939 -1.04878 4.0814 0
M  V30 9792 H 942.614 -1.37444 2.93071 0
M  V30 9793 H 941.521 0.829081 3.64797 0
M  V30 9794 H 942.854 1.07161 4.80393 0
M  V30 9795 N 944.506 -1.46559 0.579492 0
M  V30 9796 C 945.783 -1.956 -0.00287136 0
M  V30 9797 C 946.163 -1.52215 -1.46266 0
M  V30 9798 O 945.511 -0.771335 -2.15088 0
M  V30 9799 C 945.721 -3.48606 0.165824 0
M  V30 9800 C 947.069 -4.24588 0.0319807 0
M  V30 9801 O 948.093 -3.56075 0.094496 0
M  V30 9802 O 946.952 -5.46396 -0.106386 0
M  V30 9803 H 944.046 -0.825387 -0.0516274 0
M  V30 9804 H 946.592 -1.56858 0.647584 0
M  V30 9805 H 945.364 -3.7306 1.18076 0
M  V30 9806 H 944.987 -3.94169 -0.521212 0
M  V30 9807 N 945.984 -0.3171 -1.54377 0
M  V30 9808 C 947.233 0.288271 -1.99629 0
M  V30 9809 C 947.546 1.53754 -1.2091 0
M  V30 9810 O 948.752 2.2185 -1.56508 0
M  V30 9811 C 947.208 0.564188 -3.5545 0
M  V30 9812 C 946.816 -0.667659 -4.42997 0
M  V30 9813 C 948.56 1.12987 -4.09187 0
M  V30 9814 C 946.467 -0.364003 -5.90279 0
M  V30 9815 H 945.397 0.111492 -0.745711 0
M  V30 9816 H 948.048 -0.428317 -1.78431 0
M  V30 9817 H 946.43 1.34079 -3.72611 0
M  V30 9818 H 947.604 -1.44335 -4.37612 0
M  V30 9819 H 945.919 -1.1531 -4.00116 0
M  V30 9820 H 948.516 1.37157 -5.1681 0
M  V30 9821 H 948.859 2.07722 -3.60773 0
M  V30 9822 H 949.392 0.414595 -3.95634 0
M  V30 9823 H 946.131 -1.28035 -6.42874 0
M  V30 9824 H 945.651 0.374102 -5.98632 0
M  V30 9825 H 947.33 0.0285433 -6.46994 0
M  V30 9826 N 947.462 1.57535 -0.0451378 0
M  V30 9827 C 948.425 2.1008 0.916461 0
M  V30 9828 C 949.425 1.01913 1.2438 0
M  V30 9829 O 950.615 1.2801 1.18148 0
M  V30 9830 C 947.747 2.58001 2.22818 0
M  V30 9831 H 948.94 2.96334 0.461076 0
M  V30 9832 H 946.493 1.54974 0.203169 0
M  V30 9833 H 947.228 1.75123 2.72951 0
M  V30 9834 H 947.013 3.3704 2.00366 0
M  V30 9835 H 948.503 2.98822 2.9171 0
M  V30 9836 N 948.94 -0.228186 1.55939 0
M  V30 9837 C 949.903 -1.26621 1.91049 0
M  V30 9838 C 950.903 -1.40141 0.788491 0
M  V30 9839 O 952.093 -1.3852 1.05631 0
M  V30 9840 C 949.225 -2.64108 2.15545 0
M  V30 9841 H 950.418 -0.966978 2.83883 0
M  V30 9842 H 947.971 -0.468313 1.49119 0
M  V30 9843 H 948.706 -2.99141 1.25241 0
M  V30 9844 H 948.491 -2.55673 2.97277 0
M  V30 9845 H 949.981 -3.39025 2.43827 0
M  V30 9846 N 950.418 -1.49637 -0.494624 0
M  V30 9847 C 951.834 -1.36541 -0.826361 0
M  V30 9848 C 952.034 -0.403386 -1.97421 0
M  V30 9849 O 951.09 0.162614 -2.51976 0
M  V30 9850 C 952.403 -2.77401 -1.16057 0
M  V30 9851 C 953.951 -2.86148 -1.26841 0
M  V30 9852 C 954.426 -4.27789 -1.63587 0
M  V30 9853 N 955.917 -4.3063 -1.70624 0
M  V30 9854 C 956.652 -5.37198 -2.00514 0
M  V30 9855 N 956.148 -6.54004 -2.28584 0
M  V30 9856 N 957.941 -5.2462 -2.01818 0
M  V30 9857 H 950.092 -2.10776 0.26219 0
M  V30 9858 H 952.355 -0.946419 0.0547235 0
M  V30 9859 H 952.061 -3.49526 -0.390434 0
M  V30 9860 H 951.935 -3.1317 -2.10249 0
M  V30 9861 H 954.322 -2.14256 -2.02925 0
M  V30 9862 H 954.403 -2.53953 -0.30684 0
M  V30 9863 H 954.047 -5.00209 -0.880507 0
M  V30 9864 H 953.977 -4.57453 -2.60854 0
M  V30 9865 H 956.468 -3.46393 -1.51065 0
M  V30 9866 H 956.781 -7.31041 -2.50598 0
M  V30 9867 H 955.126 -6.57219 -2.26027 0
M  V30 9868 H 958.317 -4.32371 -1.79369 0
M  V30 9869 H 958.49 -6.07765 -2.24778 0
M  V30 9870 N 951.896 0.746133 -1.38819 0
M  V30 9871 C 952.826 1.87344 -1.39372 0
M  V30 9872 C 953.807 1.68123 -0.258583 0
M  V30 9873 O 954.992 1.88606 -0.462769 0
M  V30 9874 C 952.122 3.24962 -1.22543 0
M  V30 9875 C 951.076 3.58799 -2.33339 0
M  V30 9876 C 950.402 4.95235 -2.01609 0
M  V30 9877 C 951.702 3.62911 -3.75624 0
M  V30 9878 H 953.396 1.87138 -2.33709 0
M  V30 9879 H 950.942 0.898937 -1.12495 0
M  V30 9880 H 952.895 4.03488 -1.21554 0
M  V30 9881 H 951.619 3.25667 -0.246707 0
M  V30 9882 H 950.278 2.82596 -2.33527 0
M  V30 9883 H 949.926 4.92508 -1.02202 0
M  V30 9884 H 949.626 5.18843 -2.75819 0
M  V30 9885 H 951.15 5.76131 -2.02251 0
M  V30 9886 H 952.564 4.31535 -3.77426 0
M  V30 9887 H 950.961 3.98031 -4.491 0
M  V30 9888 H 952.031 2.62967 -4.07402 0
M  V30 9889 N 953.375 1.23811 0.975125 0
M  V30 9890 C 954.323 1.02149 2.0897 0
M  V30 9891 C 955.317 -0.0412172 1.6935 0
M  V30 9892 O 956.523 0.112726 1.79647 0
M  V30 9893 H 952.898 0.313259 0.683647 0
M  V30 9894 H 954.869 1.96686 2.24404 0
M  V30 9895 C 953.618 0.635023 3.41852 0
M  V30 9896 H 952.941 1.44449 3.72793 0
M  V30 9897 H 954.381 0.52301 4.20762 0
M  V30 9898 C 952.84 -0.657207 3.30428 0
M  V30 9899 O 953.37 -1.70494 3.63723 0
M  V30 9900 N 951.576 -0.635122 2.83575 0
M  V30 9901 H 951.123 0.21784 2.56677 0
M  V30 9902 H 951.081 -1.49995 2.76313 0
M  V30 9903 N 954.853 -1.17469 1.05066 0
M  V30 9904 C 956.102 -1.87032 0.755114 0
M  V30 9905 C 956.415 -1.81844 -0.720572 0
M  V30 9906 O 957.621 -2.46866 -1.13002 0
M  V30 9907 C 956.077 -3.35581 1.30052 0
M  V30 9908 C 955.685 -3.49274 2.80556 0
M  V30 9909 C 957.429 -4.1048 1.08196 0
M  V30 9910 C 955.336 -4.91838 3.28404 0
M  V30 9911 H 954.266 -0.70057 0.278779 0
M  V30 9912 H 956.917 -1.32663 1.26779 0
M  V30 9913 H 955.299 -3.89479 0.715667 0
M  V30 9914 H 956.473 -3.05598 3.44886 0
M  V30 9915 H 954.788 -2.87793 3.00939 0
M  V30 9916 H 957.385 -5.15652 1.41447 0
M  V30 9917 H 957.728 -4.16295 0.0196603 0
M  V30 9918 H 958.261 -3.62784 1.63195 0
M  V30 9919 H 955 -4.91196 4.34058 0
M  V30 9920 H 954.52 -5.36189 2.68815 0
M  V30 9921 H 956.199 -5.60602 3.23009 0
M  V30 9922 N 956.331 -0.831506 -1.3388 0
M  V30 9923 C 957.742 -0.481375 -1.80388 0
M  V30 9924 C 958.093 0.998993 -1.68863 0
M  V30 9925 O 957.218 1.77795 -1.2336 0
M  V30 9926 C 957.813 -0.86699 -3.27519 0
M  V30 9927 C 956.372 -0.569105 -3.72073 0
M  V30 9928 C 955.519 -1.07929 -2.55434 0
M  V30 9929 H 958.47 -1.02089 -1.21505 0
M  V30 9930 H 958.491 -0.174128 -3.80101 0
M  V30 9931 H 958.003 -1.94447 -3.35875 0
M  V30 9932 H 956.104 0.498607 -3.69249 0
M  V30 9933 H 956.217 -1.11918 -4.65845 0
M  V30 9934 H 954.581 -0.500465 -2.49735 0
M  V30 9935 H 955.364 -2.16339 -2.66556 0
M  V30 9936 N 957.809 1.4625 -0.587256 0
M  V30 9937 C 958.742 2.27392 0.191837 0
M  V30 9938 C 959.72 1.35905 0.89267 0
M  V30 9939 O 960.904 1.65319 0.905643 0
M  V30 9940 C 958.031 3.13758 1.27567 0
M  V30 9941 C 957.077 4.21041 0.680186 0
M  V30 9942 S 957.91 5.33194 -0.496419 0
M  V30 9943 C 959.066 6.23127 0.588506 0
M  V30 9944 H 959.299 2.93123 -0.496635 0
M  V30 9945 H 956.832 1.49795 -0.37426 0
M  V30 9946 H 958.79 3.6408 1.8962 0
M  V30 9947 H 957.451 2.47332 1.93612 0
M  V30 9948 H 956.644 4.81316 1.49503 0
M  V30 9949 H 956.246 3.73755 0.135227 0
M  V30 9950 H 958.538 6.61294 1.47298 0
M  V30 9951 H 959.481 7.08096 0.0224093 0
M  V30 9952 H 959.889 5.57365 0.894696 0
M  V30 9953 N 959.287 0.325282 1.54207 0
M  V30 9954 C 960.512 -0.281418 2.05482 0
M  V30 9955 C 960.937 -1.44869 1.19977 0
M  V30 9956 O 960.295 -1.80088 0.209275 0
M  V30 9957 C 960.343 -0.692029 3.53897 0
M  V30 9958 O 959.447 -1.7942 3.71325 0
M  V30 9959 H 958.788 -0.0504872 0.662078 0
M  V30 9960 H 961.318 0.474191 1.99029 0
M  V30 9961 H 961.328 -0.974219 3.96198 0
M  V30 9962 H 960.003 0.161709 4.15586 0
M  V30 9963 H 958.58 -1.51069 3.40929 0
M  V30 9964 N 960.765 -1.57509 0.0534917 0
M  V30 9965 C 961.697 -2.08616 -0.949322 0
M  V30 9966 C 962.71 -1.01446 -1.27328 0
M  V30 9967 O 963.899 -1.29007 -1.23367 0
M  V30 9968 C 960.999 -2.51622 -2.27024 0
M  V30 9969 C 960.172 -3.82154 -2.12785 0
M  V30 9970 C 959.231 -4.11448 -3.2802 0
M  V30 9971 O 958.257 -4.81333 -3.03822 0
M  V30 9972 N 959.459 -3.63543 -4.52567 0
M  V30 9973 H 962.224 -2.95275 -0.5131 0
M  V30 9974 H 959.785 -1.61355 -0.132693 0
M  V30 9975 H 961.777 -2.68293 -3.02986 0
M  V30 9976 H 960.347 -1.70198 -2.62205 0
M  V30 9977 H 959.567 -3.75041 -1.21399 0
M  V30 9978 H 960.855 -4.67629 -2.00501 0
M  V30 9979 H 960.253 -3.07051 -4.75117 0
M  V30 9980 H 958.81 -3.85448 -5.25617 0
M  V30 9981 N 962.243 0.219913 -1.56058 0
M  V30 9982 C 963.489 0.945463 -1.79412 0
M  V30 9983 C 963.822 1.83922 -0.62341 0
M  V30 9984 O 963.097 1.90806 0.377256 0
M  V30 9985 C 963.38 1.783 -3.1286 0
M  V30 9986 C 963.233 0.915626 -4.40382 0
M  V30 9987 C 964.552 2.76045 -3.42764 0
M  V30 9988 H 961.671 0.342288 -0.652693 0
M  V30 9989 H 964.313 0.214235 -1.88788 0
M  V30 9990 H 962.463 2.40642 -3.04998 0
M  V30 9991 H 964.135 0.30882 -4.60265 0
M  V30 9992 H 962.378 0.221124 -4.33236 0
M  V30 9993 H 963.049 1.53607 -5.30197 0
M  V30 9994 H 965.525 2.23838 -3.50764 0
M  V30 9995 H 964.401 3.31748 -4.37304 0
M  V30 9996 H 964.662 3.53866 -2.65012 0
M  V30 9997 N 963.721 1.49897 0.486681 0
M  V30 9998 C 964.669 1.68125 1.60738 0
M  V30 9999 C 965.663 0.547097 1.60322 0
M  V30 10000 O 966.869 0.727153 1.64659 0
M  V30 10001 H 963.244 0.530391 0.533094 0
M  V30 10002 H 965.215 2.62165 1.42521 0
M  V30 10003 C 963.964 1.77827 2.98786 0
M  V30 10004 H 963.287 2.6448 2.99818 0
M  V30 10005 H 964.727 1.94611 3.76699 0
M  V30 10006 C 963.186 0.526287 3.32764 0
M  V30 10007 O 963.716 -0.341607 4.00245 0
M  V30 10008 N 961.922 0.384947 2.88039 0
M  V30 10009 H 961.469 1.09222 2.33299 0
M  V30 10010 H 961.427 -0.451618 3.11139 0
M  V30 10011 N 965.199 -0.738761 1.39212 0
M  V30 10012 C 966.61 -1.31684 1.32348 0
M  V30 10013 C 966.961 -1.96195 -0.0139041 0
M  V30 10014 O 966.086 -1.96056 -0.916025 0
M  V30 10015 C 966.681 -2.39444 2.39691 0
M  V30 10016 C 965.24 -2.92935 2.36359 0
M  V30 10017 C 964.387 -1.66465 2.21776 0
M  V30 10018 H 967.338 -0.536543 1.49355 0
M  V30 10019 H 967.359 -3.19744 2.06262 0
M  V30 10020 H 966.871 -1.92463 3.37016 0
M  V30 10021 H 964.972 -3.44207 1.42662 0
M  V30 10022 H 965.085 -3.46306 3.31073 0
M  V30 10023 H 963.449 -1.90657 1.68884 0
M  V30 10024 H 964.232 -1.21541 3.21065 0
M  V30 10025 N 966.677 -1.24326 -0.968545 0
M  V30 10026 C 968.093 -1.00847 -1.23701 0
M  V30 10027 C 968.293 0.283235 -1.99499 0
M  V30 10028 O 967.349 0.999607 -2.31871 0
M  V30 10029 C 968.662 -2.22295 -2.02498 0
M  V30 10030 C 970.21 -2.26911 -2.15593 0
M  V30 10031 C 970.685 -3.47978 -2.97784 0
M  V30 10032 N 972.176 -3.48289 -3.05367 0
M  V30 10033 C 972.911 -4.38625 -3.69318 0
M  V30 10034 N 972.407 -5.39213 -4.34995 0
M  V30 10035 N 974.2 -4.26339 -3.66322 0
M  V30 10036 H 966.351 -2.07335 -0.461087 0
M  V30 10037 H 968.614 -0.909805 -0.26638 0
M  V30 10038 H 968.32 -3.161 -1.54188 0
M  V30 10039 H 968.194 -2.24344 -3.03232 0
M  V30 10040 H 970.581 -1.33639 -2.63106 0
M  V30 10041 H 970.662 -2.28888 -1.14209 0
M  V30 10042 H 970.306 -4.41564 -2.50965 0
M  V30 10043 H 970.236 -3.43244 -3.99364 0
M  V30 10044 H 972.727 -2.75517 -2.58648 0
M  V30 10045 H 973.04 -6.04378 -4.81608 0
M  V30 10046 H 971.385 -5.43101 -4.33667 0
M  V30 10047 H 974.576 -3.46991 -3.14189 0
M  V30 10048 H 974.749 -4.9694 -4.15878 0
M  V30 10049 N 968.156 1.1691 -1.05688 0
M  V30 10050 C 969.066 2.24735 -0.67315 0
M  V30 10051 C 970.082 1.71252 0.308043 0
M  V30 10052 O 971.258 2.00772 0.158889 0
M  V30 10053 C 968.323 3.4665 -0.059026 0
M  V30 10054 C 967.384 4.15198 -1.0913 0
M  V30 10055 C 966.617 5.31292 -0.50639 0
M  V30 10056 O 966.84 5.663 0.682692 0
M  V30 10057 O 965.774 5.88923 -1.2431 0
M  V30 10058 H 969.6 2.59855 -1.57191 0
M  V30 10059 H 967.185 1.24306 -0.828751 0
M  V30 10060 H 969.067 4.20455 0.282018 0
M  V30 10061 H 967.742 3.13316 0.813304 0
M  V30 10062 H 966.649 3.43389 -1.48442 0
M  V30 10063 H 967.982 4.52571 -1.93495 0
M  V30 10064 N 969.634 0.838594 1.33437 0
M  V30 10065 C 970.597 0.276843 2.27522 0
M  V30 10066 C 971.597 -0.554275 1.50945 0
M  V30 10067 O 972.787 -0.368107 1.70266 0
M  V30 10068 C 969.919 -0.610036 3.35397 0
M  V30 10069 H 971.112 1.10705 2.78719 0
M  V30 10070 H 968.665 0.611657 1.43835 0
M  V30 10071 H 969.4 -1.46269 2.89441 0
M  V30 10072 H 969.185 -0.0153615 3.92097 0
M  V30 10073 H 970.675 -0.996368 4.05539 0
M  V30 10074 N 971.112 -1.45937 0.595003 0
M  V30 10075 C 972.059 -2.30427 -0.131165 0
M  V30 10076 C 973.029 -1.41355 -0.872232 0
M  V30 10077 O 974.214 -1.70296 -0.860467 0
M  V30 10078 C 971.354 -3.26045 -1.13087 0
M  V30 10079 C 970.467 -4.30218 -0.391982 0
M  V30 10080 C 969.602 -5.12953 -1.3803 0
M  V30 10081 C 968.641 -6.08865 -0.628505 0
M  V30 10082 N 967.778 -6.84425 -1.56548 0
M  V30 10083 H 972.618 -2.91992 0.595359 0
M  V30 10084 H 970.155 -1.43895 0.305405 0
M  V30 10085 H 972.113 -3.79937 -1.72348 0
M  V30 10086 H 970.743 -2.66261 -1.82496 0
M  V30 10087 H 969.795 -3.79086 0.315895 0
M  V30 10088 H 971.107 -4.98418 0.195173 0
M  V30 10089 H 970.261 -5.71184 -2.04534 0
M  V30 10090 H 969 -4.44743 -2.00138 0
M  V30 10091 H 968.005 -5.49777 0.0502431 0
M  V30 10092 H 969.23 -6.79099 -0.012641 0
M  V30 10093 H 967.176 -6.18913 -2.17444 0
M  V30 10094 H 967.093 -7.48931 -1.03145 0
M  V30 10095 H 968.361 -7.47204 -2.22049 0
M  V30 10096 N 972.59 -0.333456 -1.54032 0
M  V30 10097 C 973.553 0.515392 -2.2333 0
M  V30 10098 C 974.553 1.03566 -1.23007 0
M  V30 10099 O 975.743 0.926514 -1.47517 0
M  V30 10100 C 972.875 1.7169 -2.94508 0
M  V30 10101 H 974.068 -0.0905407 -2.99763 0
M  V30 10102 H 971.621 -0.0846651 -1.56071 0
M  V30 10103 H 972.356 2.3618 -2.22237 0
M  V30 10104 H 972.141 1.35115 -3.68085 0
M  V30 10105 H 973.631 2.31922 -3.47278 0
M  V30 10106 N 974.068 1.57479 -0.061844 0
M  V30 10107 C 975.308 1.94982 0.613309 0
M  V30 10108 C 975.672 0.940729 1.67375 0
M  V30 10109 O 976.873 1.20307 2.40374 0
M  V30 10110 C 975.144 3.37208 1.18429 0
M  V30 10111 S 976.703 3.96678 1.87596 0
M  V30 10112 H 973.521 0.681969 0.201096 0
M  V30 10113 H 976.123 1.95045 -0.133328 0
M  V30 10114 H 974.827 4.08441 0.400522 0
M  V30 10115 H 974.358 3.40665 1.96751 0
M  V30 10116 H 976.373 3.82772 3.15754 0
M  V30 10117 N 975.546 -0.211634 1.56173 0
M  V30 10118 C 976.792 -0.935935 1.79911 0
M  V30 10119 C 977.125 -1.83589 0.633155 0
M  V30 10120 O 976.4 -1.91004 -0.367132 0
M  V30 10121 C 976.683 -1.76638 3.13801 0
M  V30 10122 C 976.536 -0.892259 4.40861 0
M  V30 10123 C 977.855 -2.74224 3.44223 0
M  V30 10124 H 974.974 -0.338822 0.654499 0
M  V30 10125 H 977.616 -0.20422 1.88899 0
M  V30 10126 H 975.766 -2.39021 3.0627 0
M  V30 10127 H 977.438 -0.284407 4.60422 0
M  V30 10128 H 975.681 -0.198145 4.33347 0
M  V30 10129 H 976.352 -1.50793 5.31004 0
M  V30 10130 H 978.828 -2.21975 3.51946 0
M  V30 10131 H 977.704 -3.29424 4.39057 0
M  V30 10132 H 977.965 -3.52455 2.66885 0
M  V30 10133 N 977.024 -1.50153 -0.478725 0
M  V30 10134 C 978.27 -1.60998 -1.23318 0
M  V30 10135 C 978.603 -0.305868 -1.91776 0
M  V30 10136 O 977.878 0.692158 -1.81767 0
M  V30 10137 C 978.161 -2.78495 -2.28282 0
M  V30 10138 C 978.014 -4.18767 -1.64178 0
M  V30 10139 C 979.333 -2.91569 -3.2966 0
M  V30 10140 H 976.452 -0.585983 -0.446982 0
M  V30 10141 H 979.094 -1.82514 -0.528063 0
M  V30 10142 H 977.244 -2.60281 -2.8842 0
M  V30 10143 H 978.916 -4.48552 -1.07696 0
M  V30 10144 H 977.159 -4.23379 -0.94514 0
M  V30 10145 H 977.83 -4.96894 -2.40417 0
M  V30 10146 H 980.306 -3.08219 -2.79536 0
M  V30 10147 H 979.182 -3.75419 -4.0044 0
M  V30 10148 H 979.443 -2.01859 -3.93326 0
M  V30 10149 N 978.502 0.731368 -1.39602 0
M  V30 10150 C 979.452 1.83662 -1.35101 0
M  V30 10151 C 980.436 1.5923 -0.231241 0
M  V30 10152 O 981.628 1.70671 -0.469072 0
M  V30 10153 C 978.757 3.21629 -1.20041 0
M  V30 10154 C 977.843 3.51878 -2.36733 0
M  V30 10155 N 978.234 3.53041 -3.6221 0
M  V30 10156 C 976.532 3.82259 -2.2977 0
M  V30 10157 C 977.233 3.81188 -4.39398 0
M  V30 10158 N 976.209 3.99145 -3.69031 0
M  V30 10159 H 980.011 1.82871 -2.30077 0
M  V30 10160 H 977.525 0.929777 -1.3315 0
M  V30 10161 H 979.522 4.00754 -1.14899 0
M  V30 10162 H 978.182 3.23656 -0.260184 0
M  V30 10163 H 979.193 3.34266 -3.95584 0
M  V30 10164 H 975.87 3.9187 -1.44029 0
M  V30 10165 H 977.26 3.88525 -5.48177 0
M  V30 10166 N 979.98 1.24838 0.961938 0
M  V30 10167 C 981.228 1.08936 1.70227 0
M  V30 10168 C 981.549 -0.371582 1.91427 0
M  V30 10169 O 980.819 -1.26461 1.49614 0
M  V30 10170 H 979.399 0.400128 0.630799 0
M  V30 10171 H 982.061 1.56848 1.15692 0
M  V30 10172 H 981.157 1.59195 2.68446 0
M  V30 10173 N 981.458 -1.16348 1.06306 0
M  V30 10174 C 982.683 -1.91323 0.800636 0
M  V30 10175 C 983.108 -1.7691 -0.639105 0
M  V30 10176 O 982.466 -1.0945 -1.44535 0
M  V30 10177 C 982.514 -3.40038 1.20027 0
M  V30 10178 O 981.618 -4.11003 0.339142 0
M  V30 10179 H 980.959 -0.596057 0.292595 0
M  V30 10180 H 983.489 -1.47406 1.41889 0
M  V30 10181 H 983.499 -3.90808 1.17188 0
M  V30 10182 H 982.174 -3.49848 2.24898 0
M  V30 10183 H 980.751 -3.70423 0.42911 0
M  V30 10184 N 982.937 -0.845659 -1.3299 0
M  V30 10185 C 984.214 -0.366306 -1.92139 0
M  V30 10186 C 984.594 1.14912 -1.77083 0
M  V30 10187 O 983.942 1.96667 -1.16338 0
M  V30 10188 C 984.152 -0.820716 -3.39213 0
M  V30 10189 C 985.5 -0.832667 -4.16355 0
M  V30 10190 O 986.524 -0.764764 -3.47893 0
M  V30 10191 O 985.383 -0.926658 -5.38586 0
M  V30 10192 H 982.477 -0.105063 -0.820299 0
M  V30 10193 H 985.023 -0.931962 -1.41819 0
M  V30 10194 H 983.795 -1.86357 -3.44074 0
M  V30 10195 H 983.418 -0.232009 -3.96923 0
M  V30 10196 N 984.415 1.45619 -0.602734 0
M  V30 10197 C 985.345 2.33258 0.106342 0
M  V30 10198 C 986.326 1.46543 0.863664 0
M  V30 10199 O 987.511 1.75324 0.835175 0
M  V30 10200 C 984.641 3.29168 1.10751 0
M  V30 10201 C 983.595 4.25481 0.463717 0
M  V30 10202 C 982.921 5.11046 1.57278 0
M  V30 10203 C 984.221 5.18702 -0.61199 0
M  V30 10204 H 985.915 2.92795 -0.625423 0
M  V30 10205 H 983.461 1.40793 -0.302213 0
M  V30 10206 H 985.414 3.89346 1.61208 0
M  V30 10207 H 984.138 2.6778 1.8698 0
M  V30 10208 H 982.797 3.66595 -0.0199496 0
M  V30 10209 H 982.445 4.46029 2.32524 0
M  V30 10210 H 982.145 5.76286 1.14755 0
M  V30 10211 H 983.669 5.74091 2.07972 0
M  V30 10212 H 985.083 5.72979 -0.191686 0
M  V30 10213 H 983.48 5.92393 -0.958686 0
M  V30 10214 H 984.55 4.61424 -1.4905 0
M  V30 10215 N 985.893 0.34162 1.53853 0
M  V30 10216 C 986.84 -0.516058 2.24957 0
M  V30 10217 C 987.81 -1.09711 1.2471 0
M  V30 10218 O 988.995 -1.13409 1.53438 0
M  V30 10219 C 986.135 -1.66207 3.02439 0
M  V30 10220 C 985.248 -1.10851 4.17536 0
M  V30 10221 C 984.383 -2.22167 4.82509 0
M  V30 10222 C 983.422 -1.64152 5.89678 0
M  V30 10223 N 982.559 -2.69203 6.4844 0
M  V30 10224 H 987.399 0.0968275 2.97843 0
M  V30 10225 H 984.936 0.0595565 1.46979 0
M  V30 10226 H 986.894 -2.33672 3.4562 0
M  V30 10227 H 985.524 -2.24597 2.31853 0
M  V30 10228 H 984.576 -0.324853 3.7901 0
M  V30 10229 H 985.888 -0.644151 4.94623 0
M  V30 10230 H 985.042 -2.97501 5.28751 0
M  V30 10231 H 983.781 -2.71946 4.04842 0
M  V30 10232 H 982.786 -0.873228 5.42821 0
M  V30 10233 H 984.011 -1.15228 6.69253 0
M  V30 10234 H 981.957 -3.1824 5.73637 0
M  V30 10235 H 981.874 -2.27383 7.20994 0
M  V30 10236 H 983.142 -3.44312 6.99335 0
M  V30 10237 N 987.371 -1.57444 0.0701946 0
M  V30 10238 C 988.648 -1.84826 -0.6402 0
M  V30 10239 C 989.028 -0.962344 -1.87889 0
M  V30 10240 O 988.376 -0.0282209 -2.28483 0
M  V30 10241 C 988.586 -3.34976 -0.979382 0
M  V30 10242 C 989.934 -4.02448 -1.35355 0
M  V30 10243 O 990.958 -3.39713 -1.07116 0
M  V30 10244 O 989.817 -5.13096 -1.88136 0
M  V30 10245 H 986.911 -0.763494 -0.317813 0
M  V30 10246 H 989.457 -1.69399 0.101004 0
M  V30 10247 H 988.229 -3.91173 -0.0995576 0
M  V30 10248 H 987.852 -3.5566 -1.7774 0
M  V30 10249 N 988.849 0.203349 -1.56283 0
M  V30 10250 C 989.782 1.27982 -1.88934 0
M  V30 10251 C 990.76 1.44345 -0.748555 0
M  V30 10252 O 991.944 1.59867 -0.998741 0
M  V30 10253 C 989.071 2.64762 -2.11231 0
M  V30 10254 C 988.117 2.65315 -3.33932 0
M  V30 10255 S 988.95 2.17568 -4.8931 0
M  V30 10256 C 990.106 3.56189 -5.14665 0
M  V30 10257 H 990.339 1.00095 -2.79943 0
M  V30 10258 H 987.872 0.406458 -1.48954 0
M  V30 10259 H 989.83 3.43501 -2.2476 0
M  V30 10260 H 988.491 2.89864 -1.20986 0
M  V30 10261 H 987.684 3.6587 -3.46634 0
M  V30 10262 H 987.286 1.94652 -3.19353 0
M  V30 10263 H 989.578 4.52001 -5.0468 0
M  V30 10264 H 990.521 3.48387 -6.16467 0
M  V30 10265 H 990.929 3.50719 -4.42331 0
M  V30 10266 N 990.327 1.50405 0.470755 0
M  V30 10267 C 991.555 1.65168 1.24608 0
M  V30 10268 C 991.97 0.335153 1.85801 0
M  V30 10269 O 991.327 -0.682919 1.69241 0
M  V30 10270 C 991.378 2.74305 2.35455 0
M  V30 10271 O 991.099 4.00854 1.76771 0
M  V30 10272 C 992.6 3.00044 3.26326 0
M  V30 10273 H 989.82 0.555186 0.376842 0
M  V30 10274 H 992.364 1.9663 0.56187 0
M  V30 10275 H 990.519 2.45536 2.99651 0
M  V30 10276 H 990.933 4.61211 2.49769 0
M  V30 10277 H 992.407 3.8007 4.00313 0
M  V30 10278 H 992.884 2.11128 3.85126 0
M  V30 10279 H 993.49 3.30345 2.67866 0
M  V30 10280 N 991.805 -0.723954 1.39988 0
M  V30 10281 C 993.03 -1.5182 1.41299 0
M  V30 10282 C 993.455 -1.88096 0.0122636 0
M  V30 10283 O 992.813 -1.52687 -0.977559 0
M  V30 10284 C 992.861 -2.77532 2.30235 0
M  V30 10285 O 991.965 -3.73903 1.73984 0
M  V30 10286 H 991.306 -0.458058 0.480707 0
M  V30 10287 H 993.836 -0.892291 1.84118 0
M  V30 10288 H 993.846 -3.2615 2.45132 0
M  V30 10289 H 992.521 -2.50462 3.32026 0
M  V30 10290 H 991.098 -3.32715 1.68389 0
M  V30 10291 N 993.283 -1.25346 -0.955304 0
M  V30 10292 C 994.193 -1.07412 -2.08566 0
M  V30 10293 C 995.209 -0.0114424 -1.73996 0
M  V30 10294 O 996.385 -0.212236 -2.00279 0
M  V30 10295 C 993.45 -0.694141 -3.3968 0
M  V30 10296 C 992.511 -1.83468 -3.88121 0
M  V30 10297 C 991.744 -1.47274 -5.12978 0
M  V30 10298 O 991.967 -0.368086 -5.69211 0
M  V30 10299 O 990.901 -2.30269 -5.56111 0
M  V30 10300 H 994.727 -2.02206 -2.26598 0
M  V30 10301 H 992.312 -1.04279 -1.06988 0
M  V30 10302 H 994.194 -0.494325 -4.18491 0
M  V30 10303 H 992.869 0.224545 -3.2292 0
M  V30 10304 H 991.776 -2.08935 -3.10318 0
M  V30 10305 H 993.109 -2.73258 -4.09379 0
M  V30 10306 N 994.761 1.15782 -1.06922 0
M  V30 10307 C 995.693 2.19978 -0.643604 0
M  V30 10308 C 996.706 1.59981 0.301653 0
M  V30 10309 O 997.895 1.78265 0.0916508 0
M  V30 10310 C 994.995 3.38815 0.0757973 0
M  V30 10311 C 994.168 4.28363 -0.884545 0
M  V30 10312 C 993.227 5.25807 -0.203233 0
M  V30 10313 O 992.253 5.62924 -0.842904 0
M  V30 10314 N 993.455 5.70874 1.05279 0
M  V30 10315 H 996.22 2.57112 -1.53992 0
M  V30 10316 H 993.781 1.30855 -0.953344 0
M  V30 10317 H 995.773 4.01052 0.542151 0
M  V30 10318 H 994.343 3.00133 0.874 0
M  V30 10319 H 993.563 3.63292 -1.53012 0
M  V30 10320 H 994.851 4.85067 -1.53581 0
M  V30 10321 H 994.249 5.42822 1.5925 0
M  V30 10322 H 992.806 6.35171 1.46289 0
M  V30 10323 N 996.239 0.8527 1.3254 0
M  V30 10324 C 997.169 0.311234 2.31416 0
M  V30 10325 C 998.15 -0.588557 1.59593 0
M  V30 10326 O 999.335 -0.509211 1.87405 0
M  V30 10327 C 996.465 -0.502892 3.4364 0
M  V30 10328 C 995.419 0.302296 4.26931 0
M  V30 10329 C 994.745 -0.636445 5.30899 0
M  V30 10330 C 996.045 1.52697 4.99481 0
M  V30 10331 H 997.739 1.13742 2.76953 0
M  V30 10332 H 995.285 0.548389 1.33149 0
M  V30 10333 H 997.238 -0.892092 4.11849 0
M  V30 10334 H 995.962 -1.36242 2.96826 0
M  V30 10335 H 994.621 0.673226 3.60365 0
M  V30 10336 H 994.269 -1.49277 4.80339 0
M  V30 10337 H 993.969 -0.101716 5.87512 0
M  V30 10338 H 995.493 -1.02286 6.01972 0
M  V30 10339 H 996.907 1.21017 5.60382 0
M  V30 10340 H 995.304 1.9995 5.65809 0
M  V30 10341 H 996.374 2.28929 4.27457 0
M  V30 10342 N 997.718 -1.45297 0.610449 0
M  V30 10343 C 998.995 -1.95562 0.0386189 0
M  V30 10344 C 999.375 -1.55284 -1.43004 0
M  V30 10345 O 998.723 -0.816785 -2.13403 0
M  V30 10346 C 998.933 -3.48176 0.239731 0
M  V30 10347 C 1000.28 -4.24425 0.122035 0
M  V30 10348 O 1001.3 -3.55794 0.170003 0
M  V30 10349 O 1000.16 -5.46499 0.00953695 0
M  V30 10350 H 997.258 -0.826296 -0.0341081 0
M  V30 10351 H 999.804 -1.55449 0.68071 0
M  V30 10352 H 998.576 -3.70471 1.25963 0
M  V30 10353 H 998.199 -3.95186 -0.437486 0
M  V30 10354 N 999.196 -0.349774 -1.5367 0
M  V30 10355 C 1000.11 0.512421 -2.28935 0
M  V30 10356 C 1001.12 1.1065 -1.34286 0
M  V30 10357 O 1002.3 1.12084 -1.67329 0
M  V30 10358 C 999.363 1.64449 -3.05217 0
M  V30 10359 C 998.424 1.07956 -4.15505 0
M  V30 10360 C 997.657 2.15768 -4.88139 0
M  V30 10361 O 997.88 3.366 -4.60496 0
M  V30 10362 O 996.814 1.79712 -5.74445 0
M  V30 10363 H 1000.64 -0.0996001 -3.03537 0
M  V30 10364 H 998.225 -0.114629 -1.4896 0
M  V30 10365 H 1000.11 2.30302 -3.52901 0
M  V30 10366 H 998.782 2.24221 -2.33467 0
M  V30 10367 H 997.689 0.385381 -3.7211 0
M  V30 10368 H 999.022 0.526621 -4.89375 0
M  V30 10369 N 1000.67 1.57404 -0.0785433 0
M  V30 10370 C 1001.92 1.9292 0.588626 0
M  V30 10371 C 1002.24 0.961106 1.70359 0
M  V30 10372 O 1003.44 1.20934 2.43079 0
M  V30 10373 C 1001.9 3.42729 1.09839 0
M  V30 10374 C 1001.51 4.47998 0.0140773 0
M  V30 10375 C 1003.25 3.87235 1.73924 0
M  V30 10376 C 1001.16 5.88945 0.538269 0
M  V30 10377 H 1000.09 0.720069 0.223645 0
M  V30 10378 H 1002.74 1.8287 -0.15187 0
M  V30 10379 H 1001.12 3.47875 1.89207 0
M  V30 10380 H 1002.29 4.54476 -0.760773 0
M  V30 10381 H 1000.61 4.13001 -0.53095 0
M  V30 10382 H 1003.21 4.89927 2.14186 0
M  V30 10383 H 1003.55 3.24971 2.60191 0
M  V30 10384 H 1004.08 3.84721 1.01168 0
M  V30 10385 H 1000.82 6.5487 -0.287395 0
M  V30 10386 H 1000.34 5.85972 1.28049 0
M  V30 10387 H 1002.02 6.39028 1.01253 0
M  V30 10388 N 1002.15 -0.195058 1.56388 0
M  V30 10389 C 1003.08 -1.24444 1.97575 0
M  V30 10390 C 1004.06 -1.47471 0.847717 0
M  V30 10391 O 1005.25 -1.59208 1.11205 0
M  V30 10392 C 1002.38 -2.58866 2.31529 0
M  V30 10393 C 1001.33 -2.50451 3.47071 0
M  V30 10394 C 1000.66 -3.89146 3.667 0
M  V30 10395 C 1001.96 -2.02953 4.81256 0
M  V30 10396 H 1003.65 -0.902178 2.85484 0
M  V30 10397 H 1001.2 -0.43254 1.3735 0
M  V30 10398 H 1003.15 -3.3246 2.58936 0
M  V30 10399 H 1001.87 -2.94833 1.40502 0
M  V30 10400 H 1000.53 -1.79313 3.19754 0
M  V30 10401 H 1000.18 -4.22466 2.73004 0
M  V30 10402 H 999.882 -3.84391 4.44429 0
M  V30 10403 H 1001.41 -4.64363 3.96484 0
M  V30 10404 H 1002.82 -2.66306 5.07695 0
M  V30 10405 H 1001.22 -2.092 5.62455 0
M  V30 10406 H 1002.29 -0.982757 4.74837 0
M  V30 10407 N 1003.63 -1.50653 -0.462772 0
M  V30 10408 C 1004.58 -1.70122 -1.55971 0
M  V30 10409 C 1005.55 -0.542581 -1.56988 0
M  V30 10410 O 1006.73 -0.774114 -1.74391 0
M  V30 10411 C 1003.87 -1.80899 -2.93887 0
M  V30 10412 C 1002.98 -3.08318 -3.02595 0
M  V30 10413 C 1002.12 -3.09841 -4.31477 0
M  V30 10414 C 1001.16 -4.3168 -4.33957 0
M  V30 10415 N 1000.3 -4.30894 -5.54323 0
M  V30 10416 H 1005.14 -2.63768 -1.38674 0
M  V30 10417 H 1002.67 -1.30746 -0.674091 0
M  V30 10418 H 1004.63 -1.85128 -3.73876 0
M  V30 10419 H 1003.26 -0.906854 -3.098 0
M  V30 10420 H 1002.31 -3.13521 -2.15427 0
M  V30 10421 H 1003.62 -3.98282 -3.00288 0
M  V30 10422 H 1002.78 -3.12845 -5.1982 0
M  V30 10423 H 1001.52 -2.17722 -4.36404 0
M  V30 10424 H 1000.52 -4.28879 -3.4401 0
M  V30 10425 H 1001.75 -5.25035 -4.30715 0
M  V30 10426 H 999.694 -3.41633 -5.6002 0
M  V30 10427 H 999.611 -5.14636 -5.53792 0
M  V30 10428 H 1000.88 -4.38056 -6.44769 0
M  V30 10429 N 1005.11 0.71652 -1.4037 0
M  V30 10430 C 1006.06 1.85194 -1.40734 0
M  V30 10431 C 1007.05 1.66934 -0.287969 0
M  V30 10432 O 1008.26 1.74051 -0.458957 0
M  V30 10433 H 1004.63 0.609922 -0.439885 0
M  V30 10434 H 1006.6 1.82003 -2.36468 0
M  V30 10435 C 1005.35 3.23048 -1.28589 0
M  V30 10436 H 1004.67 3.37704 -2.13999 0
M  V30 10437 H 1006.11 4.02633 -1.32902 0
M  V30 10438 C 1004.57 3.369 0.00396512 0
M  V30 10439 O 1005.1 3.89881 0.967243 0
M  V30 10440 N 1003.31 2.90508 0.0731565 0
M  V30 10441 H 1002.86 2.4758 -0.711454 0
M  V30 10442 H 1002.81 3.00155 0.935652 0
M  V30 10443 N 1006.59 1.25851 0.948643 0
M  V30 10444 C 1007.54 1.03437 2.03187 0
M  V30 10445 C 1008.52 -0.0307632 1.60871 0
M  V30 10446 O 1009.71 0.185296 1.76027 0
M  V30 10447 C 1006.84 0.661426 3.36868 0
M  V30 10448 C 1005.93 1.76363 3.8569 0
M  V30 10449 N 1006.32 2.9998 4.07241 0
M  V30 10450 C 1004.62 1.64552 4.14534 0
M  V30 10451 C 1005.32 3.71564 4.47566 0
M  V30 10452 N 1004.29 2.99214 4.53841 0
M  V30 10453 H 1008.1 1.97277 2.17851 0
M  V30 10454 H 1005.61 1.16258 1.13392 0
M  V30 10455 H 1007.61 0.482021 4.14104 0
M  V30 10456 H 1006.27 -0.269582 3.23579 0
M  V30 10457 H 1007.28 3.35963 3.94143 0
M  V30 10458 H 1003.95 0.783891 4.10075 0
M  V30 10459 H 1005.34 4.77702 4.72494 0
M  V30 10460 N 1008.06 -1.15214 1.07534 0
M  V30 10461 C 1009.29 -1.89922 0.820804 0
M  V30 10462 C 1009.71 -1.78114 -0.626177 0
M  V30 10463 O 1009.06 -1.13435 -1.42964 0
M  V30 10464 C 1009.12 -3.40207 1.22236 0
M  V30 10465 O 1008.84 -3.51676 2.61257 0
M  V30 10466 C 1010.34 -4.31934 0.997393 0
M  V30 10467 H 1007.56 -0.601865 0.296647 0
M  V30 10468 H 1010.1 -1.45965 1.43229 0
M  V30 10469 H 1008.26 -3.8182 0.655167 0
M  V30 10470 H 1008.67 -4.44959 2.77689 0
M  V30 10471 H 1010.14 -5.35791 1.32785 0
M  V30 10472 H 1010.62 -4.3915 -0.0661599 0
M  V30 10473 H 1011.23 -3.96066 1.54958 0
M  V30 10474 N 1009.54 -0.859717 -1.32086 0
M  V30 10475 C 1010.45 -0.31108 -2.32528 0
M  V30 10476 C 1011.47 0.573714 -1.6427 0
M  V30 10477 O 1012.64 0.472878 -1.9577 0
M  V30 10478 C 1009.71 0.487256 -3.43259 0
M  V30 10479 C 1008.77 -0.424279 -4.27198 0
M  V30 10480 C 1008 0.336051 -5.32641 0
M  V30 10481 O 1008.23 1.56541 -5.48499 0
M  V30 10482 O 1007.16 -0.300777 -6.01148 0
M  V30 10483 H 1010.99 -1.14336 -2.81355 0
M  V30 10484 H 1008.57 -0.622794 -1.358 0
M  V30 10485 H 1010.45 0.940203 -4.10777 0
M  V30 10486 H 1009.13 1.29626 -2.96612 0
M  V30 10487 H 1008.04 -0.925509 -3.62471 0
M  V30 10488 H 1009.37 -1.1986 -4.77383 0
M  V30 10489 N 1011.02 1.44971 -0.618145 0
M  V30 10490 C 1012.27 2.01372 -0.115004 0
M  V30 10491 C 1012.58 1.49104 1.26599 0
M  V30 10492 O 1013.79 1.97549 1.86244 0
M  V30 10493 C 1012.24 3.59567 -0.154883 0
M  V30 10494 C 1011.85 4.20832 -1.53639 0
M  V30 10495 C 1013.6 4.23491 0.292468 0
M  V30 10496 C 1011.5 5.7121 -1.53208 0
M  V30 10497 H 1010.43 0.752979 -0.0392267 0
M  V30 10498 H 1013.08 1.66329 -0.775032 0
M  V30 10499 H 1011.47 3.91847 0.572001 0
M  V30 10500 H 1012.64 4.00109 -2.28582 0
M  V30 10501 H 1010.96 3.69143 -1.92672 0
M  V30 10502 H 1013.55 5.33771 0.315032 0
M  V30 10503 H 1013.9 3.9491 1.31725 0
M  V30 10504 H 1014.43 3.95967 -0.381493 0
M  V30 10505 H 1011.17 6.04506 -2.53481 0
M  V30 10506 H 1010.69 5.94094 -0.825387 0
M  V30 10507 H 1012.37 6.34606 -1.26032 0
M  V30 10508 N 1012.5 0.357919 1.53482 0
M  V30 10509 C 1013.74 -0.23451 2.0144 0
M  V30 10510 C 1014.08 -1.49044 1.24497 0
M  V30 10511 O 1013.35 -1.91566 0.336535 0
M  V30 10512 C 1013.64 -0.534193 3.56116 0
M  V30 10513 C 1013.49 0.734834 4.43757 0
M  V30 10514 C 1014.81 -1.33793 4.1927 0
M  V30 10515 H 1011.93 -0.0837595 0.732225 0
M  V30 10516 H 1014.57 0.481297 1.83803 0
M  V30 10517 H 1012.72 -1.144 3.71275 0
M  V30 10518 H 1014.39 1.37251 4.40409 0
M  V30 10519 H 1012.63 1.35678 4.12036 0
M  V30 10520 H 1013.3 0.48021 5.49907 0
M  V30 10521 H 1015.78 -0.822158 4.07897 0
M  V30 10522 H 1014.66 -1.51636 5.27539 0
M  V30 10523 H 1014.92 -2.34423 3.74831 0
M  V30 10524 N 1013.98 -1.5736 0.0868897 0
M  V30 10525 C 1015.22 -1.94054 -0.578741 0
M  V30 10526 C 1015.55 -0.968047 -1.68698 0
M  V30 10527 O 1014.81 0.0137824 -1.95695 0
M  V30 10528 C 1015.11 -3.37316 -1.18123 0
M  V30 10529 C 1014.77 -4.50467 -0.197607 0
M  V30 10530 C 1013.43 -4.81145 0.072952 0
M  V30 10531 C 1015.79 -5.19036 0.474473 0
M  V30 10532 C 1013.11 -5.77723 1.02242 0
M  V30 10533 C 1015.47 -6.16632 1.41236 0
M  V30 10534 C 1014.13 -6.45719 1.69124 0
M  V30 10535 H 1013.4 -0.710093 -0.211776 0
M  V30 10536 H 1016.05 -1.90822 0.160978 0
M  V30 10537 H 1014.35 -3.37085 -1.99701 0
M  V30 10538 H 1016.05 -3.63003 -1.7038 0
M  V30 10539 H 1012.64 -4.2655 -0.418669 0
M  V30 10540 H 1016.82 -4.95518 0.278581 0
M  V30 10541 H 1012.08 -5.98578 1.24557 0
M  V30 10542 H 1016.25 -6.68862 1.939 0
M  V30 10543 H 1013.88 -7.20365 2.42855 0
M  V30 10544 N 1015.45 0.186762 -1.56489 0
M  V30 10545 C 1016.42 1.21511 -1.94339 0
M  V30 10546 C 1017.42 1.38001 -0.82537 0
M  V30 10547 O 1018.61 1.3567 -1.09266 0
M  V30 10548 C 1015.74 2.583 -2.22472 0
M  V30 10549 H 1016.93 0.891371 -2.86347 0
M  V30 10550 H 1014.49 0.428612 -1.50308 0
M  V30 10551 H 1015.22 2.95715 -1.33129 0
M  V30 10552 H 1015.01 2.47701 -3.03951 0
M  V30 10553 H 1016.5 3.32441 -2.5273 0
M  V30 10554 N 1016.93 1.50896 0.454776 0
M  V30 10555 C 1018.35 1.38684 0.78987 0
M  V30 10556 C 1018.55 0.455587 1.96282 0
M  V30 10557 O 1017.6 -0.0957503 2.52318 0
M  V30 10558 C 1018.92 2.80381 1.08661 0
M  V30 10559 C 1020.47 2.8941 1.19209 0
M  V30 10560 C 1020.94 4.31976 1.52187 0
M  V30 10561 N 1022.43 4.35002 1.59146 0
M  V30 10562 C 1023.17 5.42326 1.862 0
M  V30 10563 N 1022.66 6.59835 2.11164 0
M  V30 10564 N 1024.46 5.29786 1.87838 0
M  V30 10565 H 1016.61 2.10006 -0.317981 0
M  V30 10566 H 1018.87 0.944636 -0.0797969 0
M  V30 10567 H 1018.58 3.50438 0.297626 0
M  V30 10568 H 1018.45 3.18634 2.01872 0
M  V30 10569 H 1020.84 2.19561 1.97173 0
M  V30 10570 H 1020.92 2.54677 0.239401 0
M  V30 10571 H 1020.56 5.02368 0.747576 0
M  V30 10572 H 1020.49 4.64208 2.48633 0
M  V30 10573 H 1022.98 3.50276 1.41828 0
M  V30 10574 H 1023.3 7.37428 2.31128 0
M  V30 10575 H 1021.64 6.62981 2.08522 0
M  V30 10576 H 1024.83 4.36974 1.67843 0
M  V30 10577 H 1025 6.13511 2.08585 0
M  V30 10578 N 1018.41 -0.709066 1.40748 0
M  V30 10579 C 1019.64 -1.49808 1.42707 0
M  V30 10580 C 1020.05 -1.88778 0.0285574 0
M  V30 10581 O 1019.41 -1.55883 -0.949035 0
M  V30 10582 C 1019.46 -2.76926 2.32366 0
M  V30 10583 O 1019.18 -2.39602 3.66773 0
M  V30 10584 C 1020.68 -3.70773 2.42986 0
M  V30 10585 H 1017.9 -0.462106 0.486517 0
M  V30 10586 H 1020.45 -0.874135 1.84876 0
M  V30 10587 H 1018.6 -3.3559 1.93541 0
M  V30 10588 H 1019.02 -3.21443 4.14457 0
M  V30 10589 H 1020.49 -4.56789 3.09916 0
M  V30 10590 H 1020.97 -4.14332 1.45691 0
M  V30 10591 H 1021.57 -3.18019 2.8239 0
M  V30 10592 N 1019.89 -1.26353 -0.941956 0
M  V30 10593 C 1021.11 -1.14731 -1.72776 0
M  V30 10594 C 1021.54 0.293766 -1.85792 0
M  V30 10595 O 1020.9 1.21284 -1.34759 0
M  V30 10596 C 1020.95 -1.82041 -3.11277 0
M  V30 10597 O 1020.05 -1.10867 -3.97218 0
M  V30 10598 H 1019.39 -0.399823 -0.53013 0
M  V30 10599 H 1021.92 -1.67157 -1.17981 0
M  V30 10600 H 1021.93 -1.88834 -3.61671 0
M  V30 10601 H 1020.61 -2.86879 -3.0112 0
M  V30 10602 H 1019.18 -1.12044 -3.55669 0
M  V30 10603 N 1021.37 1.14642 -1.08144 0
M  V30 10604 C 1022.78 1.6719 -0.830923 0
M  V30 10605 C 1023.13 1.85373 0.642749 0
M  V30 10606 O 1022.25 1.56293 1.49671 0
M  V30 10607 C 1022.85 3.03697 -1.50179 0
M  V30 10608 C 1021.41 3.5329 -1.29858 0
M  V30 10609 C 1020.56 2.28828 -1.5663 0
M  V30 10610 H 1023.51 0.987441 -1.24239 0
M  V30 10611 H 1023.53 3.69023 -0.9275 0
M  V30 10612 H 1023.04 2.90431 -2.57432 0
M  V30 10613 H 1021.14 3.71783 -0.246626 0
M  V30 10614 H 1021.25 4.34231 -2.02436 0
M  V30 10615 H 1019.62 2.34769 -0.987716 0
M  V30 10616 H 1020.4 2.18141 -2.65084 0
M  V30 10617 N 1022.85 0.866709 1.31628 0
M  V30 10618 C 1023.78 0.277328 2.27516 0
M  V30 10619 C 1024.79 -0.557786 1.52946 0
M  V30 10620 O 1025.98 -0.38031 1.74402 0
M  V30 10621 C 1023.08 -0.625742 3.33073 0
M  V30 10622 C 1022.25 0.176204 4.37045 0
M  V30 10623 C 1021.31 -0.654497 5.22114 0
M  V30 10624 O 1020.34 -0.0836961 5.69138 0
M  V30 10625 N 1021.54 -1.96708 5.46156 0
M  V30 10626 H 1024.3 1.10133 2.78731 0
M  V30 10627 H 1021.87 0.72787 1.44616 0
M  V30 10628 H 1023.86 -1.18709 3.86898 0
M  V30 10629 H 1022.43 -1.35042 2.81926 0
M  V30 10630 H 1021.65 0.918999 3.83338 0
M  V30 10631 H 1022.94 0.726594 5.03585 0
M  V30 10632 H 1022.33 -2.454 5.09701 0
M  V30 10633 H 1020.89 -2.47629 6.02929 0
M  V30 10634 N 1024.32 -1.44642 0.625825 0
M  V30 10635 C 1025.26 -2.28882 -0.120614 0
M  V30 10636 C 1026.27 -1.40985 -0.81407 0
M  V30 10637 O 1027.46 -1.65188 -0.676404 0
M  V30 10638 C 1024.56 -3.17217 -1.19274 0
M  V30 10639 C 1023.73 -4.33499 -0.582839 0
M  V30 10640 C 1022.79 -5.02908 -1.54823 0
M  V30 10641 O 1021.82 -5.59102 -1.06743 0
M  V30 10642 N 1023.02 -5.0387 -2.88262 0
M  V30 10643 H 1025.78 -2.93585 0.602318 0
M  V30 10644 H 1023.34 -1.5503 0.466604 0
M  V30 10645 H 1025.34 -3.60515 -1.83878 0
M  V30 10646 H 1023.91 -2.54301 -1.81797 0
M  V30 10647 H 1023.13 -3.93458 0.241696 0
M  V30 10648 H 1024.41 -5.08561 -0.155914 0
M  V30 10649 H 1023.81 -4.59539 -3.2991 0
M  V30 10650 H 1022.37 -5.50974 -3.4824 0
M  V30 10651 N 1025.8 -0.366053 -1.5329 0
M  V30 10652 C 1026.75 0.480205 -2.25749 0
M  V30 10653 C 1027.72 1.07713 -1.2644 0
M  V30 10654 O 1028.9 1.10953 -1.55222 0
M  V30 10655 C 1026.04 1.61374 -3.05045 0
M  V30 10656 C 1025.16 1.04194 -4.19246 0
M  V30 10657 C 1024.29 2.14462 -4.85983 0
M  V30 10658 C 1023.33 1.5475 -5.92215 0
M  V30 10659 N 1022.47 2.58852 -6.52641 0
M  V30 10660 H 1027.31 -0.144199 -2.97651 0
M  V30 10661 H 1024.84 -0.0829321 -1.46866 0
M  V30 10662 H 1026.8 2.28144 -3.49294 0
M  V30 10663 H 1025.43 2.2088 -2.35397 0
M  V30 10664 H 1024.48 0.264514 -3.79479 0
M  V30 10665 H 1025.8 0.565379 -4.95585 0
M  V30 10666 H 1024.95 2.89051 -5.33418 0
M  V30 10667 H 1023.69 2.6547 -4.09117 0
M  V30 10668 H 1022.69 0.786759 -5.44142 0
M  V30 10669 H 1023.92 1.04566 -6.71001 0
M  V30 10670 H 1021.87 3.09073 -5.78627 0
M  V30 10671 H 1021.78 2.15884 -7.24521 0
M  V30 10672 H 1023.05 3.33142 -7.04724 0
M  V30 10673 N 1027.28 1.57312 -0.0952337 0
M  V30 10674 C 1028.21 2.17056 0.860753 0
M  V30 10675 C 1029.19 1.10394 1.29411 0
M  V30 10676 O 1030.38 1.38532 1.36098 0
M  V30 10677 C 1027.51 2.751 2.11984 0
M  V30 10678 C 1026.46 3.87136 1.8251 0
M  V30 10679 C 1025.79 4.31883 3.15247 0
M  V30 10680 C 1027.09 5.10326 1.11194 0
M  V30 10681 H 1028.78 2.97192 0.362983 0
M  V30 10682 H 1026.33 1.42955 0.173151 0
M  V30 10683 H 1028.28 3.15547 2.79299 0
M  V30 10684 H 1027 1.92219 2.64044 0
M  V30 10685 H 1025.66 3.47229 1.17592 0
M  V30 10686 H 1025.31 3.45893 3.65195 0
M  V30 10687 H 1025.01 5.0742 2.96309 0
M  V30 10688 H 1026.53 4.74964 3.83721 0
M  V30 10689 H 1027.95 5.47942 1.6862 0
M  V30 10690 H 1026.34 5.91293 1.02435 0
M  V30 10691 H 1027.41 4.84807 0.0947227 0
M  V30 10692 N 1028.76 -0.17846 1.56586 0
M  V30 10693 C 1030.01 -0.894502 1.8078 0
M  V30 10694 C 1030.32 -1.8372 0.67129 0
M  V30 10695 O 1031.53 -2.59509 0.797971 0
M  V30 10696 C 1029.98 -1.64109 3.20306 0
M  V30 10697 C 1029.59 -0.742387 4.41806 0
M  V30 10698 C 1031.33 -2.34578 3.53798 0
M  V30 10699 C 1029.24 -1.4888 5.72354 0
M  V30 10700 H 1028.17 -0.33776 0.674117 0
M  V30 10701 H 1030.82 -0.14752 1.82906 0
M  V30 10702 H 1029.2 -2.43257 3.12477 0
M  V30 10703 H 1030.38 0.011615 4.60799 0
M  V30 10704 H 1028.69 -0.147705 4.16138 0
M  V30 10705 H 1031.29 -2.91004 4.48577 0
M  V30 10706 H 1031.63 -3.09572 2.78336 0
M  V30 10707 H 1032.17 -1.62381 3.63149 0
M  V30 10708 H 1028.9 -0.781325 6.50827 0
M  V30 10709 H 1028.42 -2.21631 5.57351 0
M  V30 10710 H 1030.1 -2.03819 6.14058 0
M  V30 10711 N 1030.24 -1.51135 -0.446768 0
M  V30 10712 C 1031.48 -1.62571 -1.19388 0
M  V30 10713 C 1031.8 -0.3432 -1.92566 0
M  V30 10714 O 1033 -0.336804 -2.69403 0
M  V30 10715 C 1031.46 -2.87071 -2.17068 0
M  V30 10716 C 1031.07 -4.22291 -1.49581 0
M  V30 10717 C 1032.81 -3.07862 -2.9227 0
M  V30 10718 C 1030.72 -5.3795 -2.45689 0
M  V30 10719 H 1029.65 -0.60549 -0.449331 0
M  V30 10720 H 1032.3 -1.77593 -0.461846 0
M  V30 10721 H 1030.68 -2.65662 -2.93666 0
M  V30 10722 H 1031.86 -4.54046 -0.786054 0
M  V30 10723 H 1030.17 -4.07302 -0.865677 0
M  V30 10724 H 1032.77 -3.91444 -3.64246 0
M  V30 10725 H 1033.11 -2.20559 -3.53072 0
M  V30 10726 H 1033.64 -3.29566 -2.2278 0
M  V30 10727 H 1030.38 -6.27484 -1.89591 0
M  V30 10728 H 1029.9 -5.10583 -3.14746 0
M  V30 10729 H 1031.58 -5.69517 -3.07017 0
M  V30 10730 N 1031.71 0.701592 -1.41122 0
M  V30 10731 C 1032.96 1.46376 -1.40363 0
M  V30 10732 C 1033.29 1.94197 -0.0105442 0
M  V30 10733 O 1032.57 1.69121 0.960637 0
M  V30 10734 C 1032.85 2.67994 -2.40523 0
M  V30 10735 C 1032.7 2.25977 -3.88914 0
M  V30 10736 C 1034.02 3.70181 -2.38022 0
M  V30 10737 H 1031.14 0.530929 -0.511159 0
M  V30 10738 H 1033.78 0.799588 -1.72356 0
M  V30 10739 H 1031.93 3.24661 -2.13372 0
M  V30 10740 H 1033.61 1.74684 -4.26946 0
M  V30 10741 H 1031.85 1.57826 -4.04071 0
M  V30 10742 H 1032.52 3.13215 -4.54533 0
M  V30 10743 H 1035 3.23174 -2.62103 0
M  V30 10744 H 1033.87 4.52894 -3.10127 0
M  V30 10745 H 1034.13 4.19458 -1.3967 0
M  V30 10746 N 1033.19 1.2685 0.935242 0
M  V30 10747 C 1034.1 1.10716 2.06831 0
M  V30 10748 C 1035.12 0.0391222 1.73956 0
M  V30 10749 O 1036.29 0.244071 1.99916 0
M  V30 10750 C 1033.36 0.748093 3.38533 0
M  V30 10751 C 1032.42 1.89619 3.85153 0
M  V30 10752 C 1031.65 1.55416 5.1057 0
M  V30 10753 O 1031.88 0.458596 5.68553 0
M  V30 10754 O 1030.81 2.39087 5.52378 0
M  V30 10755 H 1034.64 2.05785 2.23352 0
M  V30 10756 H 1032.22 1.05967 1.05315 0
M  V30 10757 H 1034.1 0.560841 4.17651 0
M  V30 10758 H 1032.78 -0.173142 3.23237 0
M  V30 10759 H 1031.68 2.13845 3.06954 0
M  V30 10760 H 1033.02 2.79737 4.04979 0
M  V30 10761 N 1034.67 -1.14067 1.0875 0
M  V30 10762 C 1035.92 -1.84819 0.817698 0
M  V30 10763 C 1036.24 -1.83545 -0.658488 0
M  V30 10764 O 1035.51 -1.28633 -1.47751 0
M  V30 10765 H 1034.09 -0.68433 0.299502 0
M  V30 10766 H 1036.75 -1.38208 1.37421 0
M  V30 10767 H 1035.85 -2.89541 1.16501 0
M  V30 10768 N 1036.15 -0.873678 -1.31166 0
M  V30 10769 C 1037.39 -0.493006 -1.98365 0
M  V30 10770 C 1037.75 0.937973 -1.67529 0
M  V30 10771 O 1038.95 1.42419 -2.2797 0
M  V30 10772 C 1037.22 -0.747128 -3.49504 0
M  V30 10773 S 1038.78 -0.466869 -4.36309 0
M  V30 10774 H 1035.6 -0.183882 -0.68681 0
M  V30 10775 H 1038.2 -1.13051 -1.59499 0
M  V30 10776 H 1036.91 -1.78731 -3.69437 0
M  V30 10777 H 1036.44 -0.096761 -3.93281 0
M  V30 10778 H 1038.45 0.699298 -4.91248 0
M  V30 10779 N 1037.63 1.44308 -0.633487 0
M  V30 10780 C 1038.56 2.28943 0.108474 0
M  V30 10781 C 1039.57 1.41415 0.806582 0
M  V30 10782 O 1040.76 1.65544 0.667634 0
M  V30 10783 C 1037.86 3.17845 1.1759 0
M  V30 10784 C 1037.03 4.33802 0.559842 0
M  V30 10785 C 1036.09 5.03722 1.52154 0
M  V30 10786 O 1035.12 5.5966 1.03776 0
M  V30 10787 N 1036.32 5.05392 2.85586 0
M  V30 10788 H 1039.09 2.93262 -0.617879 0
M  V30 10789 H 1036.65 1.54781 -0.474819 0
M  V30 10790 H 1038.64 3.61485 1.81963 0
M  V30 10791 H 1037.21 2.55261 1.80445 0
M  V30 10792 H 1036.43 3.93325 -0.262559 0
M  V30 10793 H 1037.72 5.08637 0.128942 0
M  V30 10794 H 1037.11 4.61282 3.27468 0
M  V30 10795 H 1035.67 5.52813 3.45313 0
M  V30 10796 N 1039.1 0.374177 1.53094 0
M  V30 10797 C 1040.52 0.0234783 1.59583 0
M  V30 10798 C 1040.72 -1.45984 1.38892 0
M  V30 10799 O 1039.78 -2.22251 1.19836 0
M  V30 10800 C 1041.09 0.487117 2.96728 0
M  V30 10801 C 1042.64 0.442073 3.09862 0
M  V30 10802 C 1043.11 0.881659 4.49434 0
M  V30 10803 N 1044.6 0.837062 4.55574 0
M  V30 10804 C 1045.34 1.14878 5.61774 0
M  V30 10805 N 1044.83 1.53022 6.75689 0
M  V30 10806 N 1046.63 1.07102 5.51802 0
M  V30 10807 H 1038.78 1.34003 1.64794 0
M  V30 10808 H 1041.04 0.548281 0.773364 0
M  V30 10809 H 1040.75 1.52252 3.17037 0
M  V30 10810 H 1040.62 -0.121772 3.77003 0
M  V30 10811 H 1043.01 -0.584216 2.89259 0
M  V30 10812 H 1043.09 1.08657 2.31576 0
M  V30 10813 H 1042.73 1.90611 4.70776 0
M  V30 10814 H 1042.66 0.214326 5.26164 0
M  V30 10815 H 1045.15 0.556173 3.73785 0
M  V30 10816 H 1045.47 1.75211 7.52676 0
M  V30 10817 H 1043.81 1.56895 6.77059 0
M  V30 10818 H 1047 0.772149 4.61688 0
M  V30 10819 H 1047.18 1.31728 6.3447 0
M  V30 10820 N 1040.58 -1.57259 0.103575 0
M  V30 10821 C 1041.51 -2.1153 -0.882472 0
M  V30 10822 C 1042.53 -1.05446 -1.24036 0
M  V30 10823 O 1043.72 -1.32867 -1.192 0
M  V30 10824 C 1040.82 -2.58717 -2.18903 0
M  V30 10825 C 1039.99 -3.8873 -2.00519 0
M  V30 10826 C 1039.05 -4.21675 -3.14764 0
M  V30 10827 O 1038.07 -4.90755 -2.88355 0
M  V30 10828 N 1039.28 -3.77757 -4.40772 0
M  V30 10829 H 1042.04 -2.96758 -0.418901 0
M  V30 10830 H 1039.6 -1.61696 -0.0812921 0
M  V30 10831 H 1041.59 -2.77797 -2.94297 0
M  V30 10832 H 1040.16 -1.78454 -2.56657 0
M  V30 10833 H 1039.38 -3.78714 -1.09406 0
M  V30 10834 H 1040.67 -4.73771 -1.85522 0
M  V30 10835 H 1040.07 -3.22011 -4.65108 0
M  V30 10836 H 1038.63 -4.01975 -5.13088 0
M  V30 10837 N 1042.06 0.170153 -1.56679 0
M  V30 10838 C 1043.31 0.884841 -1.817 0
M  V30 10839 C 1043.63 1.82731 -0.680763 0
M  V30 10840 O 1042.9 1.936 0.299294 0
M  V30 10841 H 1041.48 0.329738 -0.670285 0
M  V30 10842 H 1044.14 0.169691 -1.9416 0
M  V30 10843 H 1043.24 1.46104 -2.7579 0
M  V30 10844 N 1043.54 1.5137 0.438746 0
M  V30 10845 C 1044.5 1.71993 1.51496 0
M  V30 10846 C 1045.5 0.589978 1.49586 0
M  V30 10847 O 1046.69 0.857505 1.51633 0
M  V30 10848 C 1043.82 1.77508 2.91039 0
M  V30 10849 H 1045.02 2.68041 1.34514 0
M  V30 10850 H 1042.57 1.41338 0.667326 0
M  V30 10851 H 1043.3 0.832698 3.13427 0
M  V30 10852 H 1043.09 2.59627 2.9383 0
M  V30 10853 H 1044.58 1.95308 3.69113 0
M  V30 10854 N 1045.02 -0.694098 1.41492 0
M  V30 10855 C 1046.27 -1.4498 1.40227 0
M  V30 10856 C 1046.58 -1.95594 0.0151253 0
M  V30 10857 O 1047.78 -2.71234 -0.120146 0
M  V30 10858 C 1046.24 -2.62171 2.46565 0
M  V30 10859 C 1045.85 -2.18337 3.91194 0
M  V30 10860 C 1047.59 -3.39796 2.54439 0
M  V30 10861 C 1045.5 -3.32495 4.89082 0
M  V30 10862 H 1044.43 -0.544584 0.521483 0
M  V30 10863 H 1047.08 -0.75337 1.67322 0
M  V30 10864 H 1045.46 -3.34089 2.12604 0
M  V30 10865 H 1046.64 -1.53698 4.34412 0
M  V30 10866 H 1044.95 -1.53702 3.86994 0
M  V30 10867 H 1047.55 -4.2478 3.24755 0
M  V30 10868 H 1047.89 -3.85082 1.5817 0
M  V30 10869 H 1048.42 -2.74935 2.87499 0
M  V30 10870 H 1045.16 -2.92219 5.86761 0
M  V30 10871 H 1044.68 -3.95978 4.50512 0
M  V30 10872 H 1046.36 -3.98251 5.09907 0
M  V30 10873 N 1046.49 -1.27344 -0.928501 0
M  V30 10874 C 1047.74 -1.13804 -1.67859 0
M  V30 10875 C 1048.07 0.31555 -1.91619 0
M  V30 10876 O 1047.35 1.23087 -1.50599 0
M  V30 10877 C 1047.63 -1.9213 -3.04562 0
M  V30 10878 C 1047.48 -3.45468 -2.88048 0
M  V30 10879 C 1048.8 -1.72513 -4.04879 0
M  V30 10880 H 1045.92 -0.414796 -0.609191 0
M  V30 10881 H 1048.56 -1.5649 -1.07753 0
M  V30 10882 H 1046.71 -1.55853 -3.55868 0
M  V30 10883 H 1048.39 -3.9157 -2.43865 0
M  V30 10884 H 1046.63 -3.71849 -2.23407 0
M  V30 10885 H 1047.3 -3.95515 -3.85061 0
M  V30 10886 H 1049.78 -2.04143 -3.62581 0
M  V30 10887 H 1048.65 -2.29713 -4.98521 0
M  V30 10888 H 1048.91 -0.672856 -4.3695 0
M  V30 10889 N 1047.97 1.13488 -1.09353 0
M  V30 10890 C 1048.94 2.17066 -0.735863 0
M  V30 10891 C 1049.94 1.59086 0.234181 0
M  V30 10892 O 1051.13 1.74196 0.012463 0
M  V30 10893 C 1048.26 3.40786 -0.0880975 0
M  V30 10894 H 1049.45 2.50221 -1.65316 0
M  V30 10895 H 1047 1.28304 -0.89263 0
M  V30 10896 H 1047.74 3.1322 0.840462 0
M  V30 10897 H 1047.52 3.8414 -0.786073 0
M  V30 10898 H 1049.01 4.17342 0.146775 0
M  V30 10899 N 1049.45 0.880621 1.30701 0
M  V30 10900 C 1050.7 0.497611 1.966 0
M  V30 10901 C 1051.03 -0.949901 1.69383 0
M  V30 10902 O 1050.31 -1.67054 0.996152 0
M  V30 10903 C 1050.59 0.767919 3.51817 0
M  V30 10904 C 1050.44 2.26574 3.88567 0
M  V30 10905 C 1051.76 0.241502 4.39437 0
M  V30 10906 H 1048.88 0.182267 0.714106 0
M  V30 10907 H 1051.52 1.10382 1.54648 0
M  V30 10908 H 1049.67 0.251967 3.87682 0
M  V30 10909 H 1051.34 2.84977 3.62748 0
M  V30 10910 H 1049.59 2.73411 3.36792 0
M  V30 10911 H 1050.26 2.40549 4.9683 0
M  V30 10912 H 1052.73 0.683051 4.10455 0
M  V30 10913 H 1051.61 0.459997 5.46969 0
M  V30 10914 H 1051.87 -0.857068 4.33713 0
M  V30 10915 N 1050.93 -1.4397 0.641131 0
M  V30 10916 C 1052.16 -2.06303 0.157006 0
M  V30 10917 C 1052.57 -1.47981 -1.17248 0
M  V30 10918 O 1051.93 -0.606471 -1.72128 0
M  V30 10919 C 1051.98 -3.6147 0.0468425 0
M  V30 10920 O 1051.7 -4.17622 1.32376 0
M  V30 10921 C 1053.2 -4.40857 -0.464795 0
M  V30 10922 H 1050.42 -0.665684 0.0842946 0
M  V30 10923 H 1052.97 -1.84675 0.878363 0
M  V30 10924 H 1051.12 -3.82325 -0.625006 0
M  V30 10925 H 1051.54 -5.11167 1.17509 0
M  V30 10926 H 1053.01 -5.49813 -0.490862 0
M  V30 10927 H 1053.49 -4.13016 -1.4938 0
M  V30 10928 H 1054.09 -4.24943 0.174146 0
M  V30 10929 N 1052.41 -0.382291 -1.52893 0
M  V30 10930 C 1053.66 0.201734 -2.01091 0
M  V30 10931 C 1053.98 1.47905 -1.2708 0
M  V30 10932 O 1053.25 1.92002 -0.38883 0
M  V30 10933 H 1051.83 0.0775373 -0.742965 0
M  V30 10934 H 1054.49 -0.512369 -1.88045 0
M  V30 10935 H 1053.58 0.416919 -3.09303 0
M  V30 10936 N 1053.89 1.57202 -0.111913 0
M  V30 10937 C 1055.16 1.86459 0.590972 0
M  V30 10938 C 1055.54 1.01182 1.85271 0
M  V30 10939 O 1054.89 0.0887891 2.28327 0
M  V30 10940 C 1055.1 3.37455 0.890225 0
M  V30 10941 C 1056.45 4.05895 1.24638 0
M  V30 10942 O 1057.47 3.42433 0.980713 0
M  V30 10943 O 1056.33 5.17903 1.74466 0
M  V30 10944 H 1053.43 0.771652 0.297459 0
M  V30 10945 H 1055.97 1.69072 -0.145882 0
M  V30 10946 H 1054.74 3.913 -0.00419012 0
M  V30 10947 H 1054.37 3.60248 1.68248 0
M  V30 10948 N 1055.36 -0.161842 1.56767 0
M  V30 10949 C 1056.61 -0.875192 1.82167 0
M  V30 10950 C 1056.93 -1.82367 0.690444 0
M  V30 10951 O 1056.2 -1.93756 -0.289023 0
M  V30 10952 H 1054.78 -0.326178 0.672024 0
M  V30 10953 H 1057.44 -0.159392 1.94247 0
M  V30 10954 H 1056.54 -1.44639 2.76561 0
M  V30 10955 N 1056.84 -1.516 -0.430713 0
M  V30 10956 C 1058.09 -1.6484 -1.18134 0
M  V30 10957 C 1058.42 -0.366725 -1.90706 0
M  V30 10958 O 1057.7 0.63398 -1.83878 0
M  V30 10959 C 1057.98 -2.85617 -2.19306 0
M  V30 10960 C 1057.83 -4.23778 -1.50773 0
M  V30 10961 C 1059.15 -3.01909 -3.20217 0
M  V30 10962 H 1056.27 -0.599907 -0.428113 0
M  V30 10963 H 1058.91 -1.84102 -0.46973 0
M  V30 10964 H 1057.06 -2.69325 -2.79993 0
M  V30 10965 H 1058.73 -4.51752 -0.93371 0
M  V30 10966 H 1056.98 -4.26171 -0.809966 0
M  V30 10967 H 1057.65 -5.04291 -2.24487 0
M  V30 10968 H 1060.12 -3.16956 -2.69589 0
M  V30 10969 H 1059 -3.87968 -3.88293 0
M  V30 10970 H 1059.26 -2.1427 -3.86705 0
M  V30 10971 N 1058.32 0.686584 -1.41858 0
M  V30 10972 C 1059.27 1.82167 -1.4463 0
M  V30 10973 C 1060.26 1.66286 -0.323313 0
M  V30 10974 O 1061.47 1.73038 -0.495773 0
M  V30 10975 H 1057.84 0.600454 -0.452724 0
M  V30 10976 H 1059.81 1.76947 -2.40276 0
M  V30 10977 C 1058.56 3.20248 -1.35412 0
M  V30 10978 H 1057.89 3.33089 -2.21115 0
M  V30 10979 H 1059.33 3.99723 -1.41413 0
M  V30 10980 C 1057.78 3.36832 -0.0674972 0
M  V30 10981 O 1058.31 3.91845 0.884325 0
M  V30 10982 N 1056.52 2.90598 0.011519 0
M  V30 10983 H 1056.07 2.46016 -0.76381 0
M  V30 10984 H 1056.03 3.02072 0.871774 0
M  V30 10985 N 1059.8 1.27835 0.921735 0
M  V30 10986 C 1061.07 1.05238 1.64877 0
M  V30 10987 C 1061.45 -0.410921 2.07062 0
M  V30 10988 O 1060.8 -1.39538 1.80946 0
M  V30 10989 C 1061.01 2.01955 2.84632 0
M  V30 10990 C 1062.36 2.31657 3.55837 0
M  V30 10991 O 1063.38 1.99975 2.94768 0
M  V30 10992 O 1062.24 2.85692 4.65878 0
M  V30 10993 H 1059.34 0.401622 0.72293 0
M  V30 10994 H 1061.88 1.39123 0.971744 0
M  V30 10995 H 1060.66 3.00614 2.50494 0
M  V30 10996 H 1060.28 1.68667 3.60052 0
M  V30 10997 N 1061.28 -1.12907 1.09954 0
M  V30 10998 C 1062.5 -1.88679 0.861099 0
M  V30 10999 C 1062.93 -1.78853 -0.582499 0
M  V30 11000 O 1062.28 -1.13992 -1.4098 0
M  V30 11001 C 1062.33 -3.36047 1.30785 0
M  V30 11002 O 1061.44 -4.09716 0.469728 0
M  V30 11003 H 1060.78 -0.586447 0.31141 0
M  V30 11004 H 1063.31 -1.42818 1.46507 0
M  V30 11005 H 1063.32 -3.86882 1.29562 0
M  V30 11006 H 1061.99 -3.42516 2.35914 0
M  V30 11007 H 1060.57 -3.6887 0.54674 0
M  V30 11008 N 1062.75 -0.88754 -1.30232 0
M  V30 11009 C 1064.16 -0.55745 -1.78184 0
M  V30 11010 C 1064.52 0.926474 -1.72948 0
M  V30 11011 O 1063.64 1.72403 -1.3079 0
M  V30 11012 C 1064.24 -1.00512 -3.23547 0
M  V30 11013 C 1062.79 -0.726402 -3.69324 0
M  V30 11014 C 1061.94 -1.18666 -2.50627 0
M  V30 11015 H 1064.89 -1.07151 -1.17066 0
M  V30 11016 H 1064.91 -0.335185 -3.79021 0
M  V30 11017 H 1064.43 -2.08517 -3.27326 0
M  V30 11018 H 1062.53 0.341548 -3.71031 0
M  V30 11019 H 1062.64 -1.31575 -4.60679 0
M  V30 11020 H 1061 -0.605936 -2.47387 0
M  V30 11021 H 1061.79 -2.2745 -2.57141 0
M  V30 11022 N 1064.23 1.43628 -0.648757 0
M  V30 11023 C 1065.2 2.29172 0.0360713 0
M  V30 11024 C 1066.2 1.41974 0.754976 0
M  V30 11025 O 1067.39 1.63654 0.5969 0
M  V30 11026 C 1064.52 3.23942 1.0618 0
M  V30 11027 H 1065.71 2.91214 -0.716544 0
M  V30 11028 H 1063.26 1.50833 -0.409759 0
M  V30 11029 H 1064 2.66786 1.8438 0
M  V30 11030 H 1063.78 3.88223 0.550016 0
M  V30 11031 H 1065.27 3.8816 1.54019 0
M  V30 11032 N 1065.71 0.390394 1.52688 0
M  V30 11033 C 1066.64 -0.43567 2.294 0
M  V30 11034 C 1067.62 -1.06253 1.32832 0
M  V30 11035 O 1068.81 -1.07509 1.61726 0
M  V30 11036 C 1065.94 -1.56259 3.10162 0
M  V30 11037 C 1064.89 -1.06172 4.14622 0
M  V30 11038 C 1064.22 -2.2808 4.83615 0
M  V30 11039 C 1065.52 -0.128902 5.22141 0
M  V30 11040 H 1067.21 0.204384 2.98702 0
M  V30 11041 H 1064.76 0.0997377 1.43654 0
M  V30 11042 H 1066.71 -2.14732 3.62585 0
M  V30 11043 H 1065.43 -2.23025 2.38595 0
M  V30 11044 H 1064.09 -0.499518 3.63181 0
M  V30 11045 H 1063.74 -2.93358 4.08595 0
M  V30 11046 H 1063.44 -1.95227 5.5422 0
M  V30 11047 H 1064.96 -2.87193 5.38844 0
M  V30 11048 H 1066.38 -0.621849 5.69917 0
M  V30 11049 H 1064.78 0.109919 5.99999 0
M  V30 11050 H 1065.85 0.821884 4.77884 0
M  V30 11051 N 1067.19 -1.57141 0.120249 0
M  V30 11052 C 1068.14 -2.15379 -0.829497 0
M  V30 11053 C 1069.11 -1.07913 -1.2627 0
M  V30 11054 O 1070.29 -1.35827 -1.33999 0
M  V30 11055 C 1067.43 -2.75847 -2.0737 0
M  V30 11056 C 1066.54 -3.97624 -1.68875 0
M  V30 11057 C 1065.68 -4.46175 -2.88272 0
M  V30 11058 C 1064.72 -5.60481 -2.46023 0
M  V30 11059 N 1063.85 -6.0377 -3.58337 0
M  V30 11060 H 1068.69 -2.96211 -0.326031 0
M  V30 11061 H 1066.23 -1.46341 -0.149235 0
M  V30 11062 H 1068.19 -3.09037 -2.80272 0
M  V30 11063 H 1066.82 -1.97703 -2.55174 0
M  V30 11064 H 1065.87 -3.70588 -0.858431 0
M  V30 11065 H 1067.18 -4.80512 -1.33827 0
M  V30 11066 H 1066.34 -4.8128 -3.69397 0
M  V30 11067 H 1065.08 -3.6224 -3.26548 0
M  V30 11068 H 1064.08 -5.24979 -1.63331 0
M  V30 11069 H 1065.31 -6.46184 -2.08863 0
M  V30 11070 H 1063.25 -5.22776 -3.96284 0
M  V30 11071 H 1063.17 -6.81517 -3.27217 0
M  V30 11072 H 1064.44 -6.43514 -4.39898 0
M  V30 11073 N 1068.67 0.153526 -1.5685 0
M  V30 11074 C 1069.61 1.18973 -1.97773 0
M  V30 11075 C 1070.58 1.43041 -0.844311 0
M  V30 11076 O 1071.77 1.55484 -1.10586 0
M  V30 11077 C 1068.91 2.51981 -2.35795 0
M  V30 11078 C 1068.02 2.35143 -3.62397 0
M  V30 11079 C 1067.16 3.61141 -3.89552 0
M  V30 11080 C 1066.2 3.39311 -5.09445 0
M  V30 11081 N 1065.33 4.57423 -5.32643 0
M  V30 11082 H 1070.17 0.833758 -2.86099 0
M  V30 11083 H 1067.71 0.400252 -1.4155 0
M  V30 11084 H 1069.67 3.29527 -2.55867 0
M  V30 11085 H 1068.3 2.85539 -1.50557 0
M  V30 11086 H 1067.35 1.48684 -3.50139 0
M  V30 11087 H 1068.66 2.14969 -4.501 0
M  V30 11088 H 1067.82 4.47117 -4.10087 0
M  V30 11089 H 1066.55 3.84312 -3.00259 0
M  V30 11090 H 1065.56 2.51723 -4.8879 0
M  V30 11091 H 1066.78 3.17545 -6.00285 0
M  V30 11092 H 1064.73 4.8078 -4.46303 0
M  V30 11093 H 1064.65 4.40228 -6.14602 0
M  V30 11094 H 1065.92 5.44632 -5.57671 0
M  V30 11095 N 1070.14 1.51827 0.422667 0
M  V30 11096 C 1071.11 1.7359 1.49663 0
M  V30 11097 C 1072.11 0.605811 1.48952 0
M  V30 11098 O 1073.3 0.87354 1.50715 0
M  V30 11099 C 1070.43 1.80585 2.8914 0
M  V30 11100 H 1071.62 2.69453 1.31664 0
M  V30 11101 H 1069.18 1.42038 0.652298 0
M  V30 11102 H 1069.91 0.865895 3.12526 0
M  V30 11103 H 1069.7 2.62729 2.9106 0
M  V30 11104 H 1071.19 1.99212 3.67021 0
M  V30 11105 N 1071.62 -0.679052 1.4222 0
M  V30 11106 C 1072.9 -1.43473 1.32947 0
M  V30 11107 C 1073.28 -2.11071 -0.0351689 0
M  V30 11108 O 1072.63 -2.02925 -1.05042 0
M  V30 11109 C 1072.84 -2.44065 2.49466 0
M  V30 11110 C 1074.19 -3.08834 2.91387 0
M  V30 11111 O 1075.21 -2.54392 2.49325 0
M  V30 11112 O 1074.07 -4.07478 3.64175 0
M  V30 11113 H 1071.16 -0.639743 0.524078 0
M  V30 11114 H 1073.71 -0.708134 1.54219 0
M  V30 11115 H 1072.48 -1.92884 3.40457 0
M  V30 11116 H 1072.1 -3.24212 2.30158 0
M  V30 11117 N 1073.1 -1.28322 -0.914942 0
M  V30 11118 C 1074.35 -1.14785 -1.65853 0
M  V30 11119 C 1074.66 0.303135 -1.93237 0
M  V30 11120 O 1075.87 0.559606 -2.6567 0
M  V30 11121 C 1074.32 -2.00652 -2.98776 0
M  V30 11122 C 1073.93 -3.50483 -2.79044 0
M  V30 11123 C 1075.68 -1.95798 -3.76648 0
M  V30 11124 C 1073.58 -4.28505 -4.076 0
M  V30 11125 H 1072.51 -0.425987 -0.622135 0
M  V30 11126 H 1075.16 -1.52844 -1.01543 0
M  V30 11127 H 1073.55 -1.55447 -3.64214 0
M  V30 11128 H 1074.72 -4.03636 -2.22293 0
M  V30 11129 H 1073.04 -3.5685 -2.14586 0
M  V30 11130 H 1075.63 -2.51359 -4.71935 0
M  V30 11131 H 1075.98 -0.934455 -4.05677 0
M  V30 11132 H 1076.51 -2.38965 -3.18026 0
M  V30 11133 H 1073.25 -5.31433 -3.83744 0
M  V30 11134 H 1072.77 -3.80125 -4.63966 0
M  V30 11135 H 1074.45 -4.3836 -4.75867 0
M  V30 11136 N 1074.58 1.12322 -1.10551 0
M  V30 11137 C 1075.83 1.83495 -0.846998 0
M  V30 11138 C 1076.15 1.8457 0.629205 0
M  V30 11139 O 1075.42 1.30968 1.45686 0
M  V30 11140 H 1074 0.679479 -0.310351 0
M  V30 11141 H 1076.66 1.36004 -1.39602 0
M  V30 11142 H 1075.76 2.87651 -1.21092 0
M  V30 11143 N 1076.06 0.894434 1.2976 0
M  V30 11144 C 1077.31 0.513673 1.95049 0
M  V30 11145 C 1077.62 -0.943744 1.71327 0
M  V30 11146 O 1078.82 -1.43179 2.30678 0
M  V30 11147 C 1077.28 0.867751 3.49282 0
M  V30 11148 C 1076.89 2.34358 3.81812 0
M  V30 11149 C 1078.63 0.556645 4.20835 0
M  V30 11150 C 1076.54 2.63879 5.29265 0
M  V30 11151 H 1075.47 0.188375 0.73009 0
M  V30 11152 H 1078.12 1.09071 1.47566 0
M  V30 11153 H 1076.5 0.2197 3.9539 0
M  V30 11154 H 1077.68 3.03674 3.46581 0
M  V30 11155 H 1075.99 2.62318 3.23386 0
M  V30 11156 H 1078.59 0.754123 5.29355 0
M  V30 11157 H 1078.93 -0.504526 4.13231 0
M  V30 11158 H 1079.46 1.1623 3.80441 0
M  V30 11159 H 1076.2 3.68774 5.41928 0
M  V30 11160 H 1075.72 1.99182 5.65762 0
M  V30 11161 H 1077.4 2.49871 5.96803 0
M  V30 11162 N 1077.53 -1.43282 0.656365 0
M  V30 11163 C 1078.5 -2.29188 -0.0239173 0
M  V30 11164 C 1079.5 -1.42373 -0.747436 0
M  V30 11165 O 1080.69 -1.63969 -0.588213 0
M  V30 11166 C 1077.82 -3.24501 -1.0446 0
M  V30 11167 H 1079.01 -2.9083 0.731978 0
M  V30 11168 H 1076.57 -1.50614 0.417752 0
M  V30 11169 H 1077.3 -2.6776 -1.82962 0
M  V30 11170 H 1077.09 -3.88509 -0.52942 0
M  V30 11171 H 1078.58 -3.88971 -1.51958 0
M  V30 11172 N 1079.01 -0.398486 -1.52479 0
M  V30 11173 C 1079.95 0.476551 -2.23169 0
M  V30 11174 C 1080.92 1.05665 -1.23587 0
M  V30 11175 O 1082.11 1.10654 -1.52604 0
M  V30 11176 C 1079.24 1.66048 -2.95204 0
M  V30 11177 C 1078.28 1.20478 -4.0913 0
M  V30 11178 S 1079.11 0.178711 -5.35202 0
M  V30 11179 C 1080.27 1.36821 -6.10762 0
M  V30 11180 H 1080.5 -0.123704 -2.97043 0
M  V30 11181 H 1078.04 -0.182722 -1.53315 0
M  V30 11182 H 1079.99 2.33942 -3.37315 0
M  V30 11183 H 1078.66 2.23206 -2.20993 0
M  V30 11184 H 1077.85 2.08901 -4.58668 0
M  V30 11185 H 1077.45 0.604632 -3.6908 0
M  V30 11186 H 1079.74 2.2937 -6.37492 0
M  V30 11187 H 1080.69 0.913579 -7.02182 0
M  V30 11188 H 1081.09 1.58919 -5.41669 0
M  V30 11189 N 1080.49 1.57075 -0.12858 0
M  V30 11190 C 1081.74 1.95134 0.526046 0
M  V30 11191 C 1082.06 1.01337 1.66601 0
M  V30 11192 O 1081.33 0.0714361 1.9577 0
M  V30 11193 H 1079.91 0.720468 0.19732 0
M  V30 11194 H 1082.57 1.93874 -0.199767 0
M  V30 11195 H 1081.67 2.98406 0.914332 0
M  V30 11196 N 1081.97 -0.145205 1.5693 0
M  V30 11197 C 1083.22 -0.855955 1.82637 0
M  V30 11198 C 1083.53 -1.82255 0.710109 0
M  V30 11199 O 1084.74 -2.57758 0.852837 0
M  V30 11200 C 1083.19 -1.57278 3.23715 0
M  V30 11201 C 1082.8 -0.648507 4.43281 0
M  V30 11202 C 1084.55 -2.27021 3.58695 0
M  V30 11203 C 1082.45 -1.36706 5.75383 0
M  V30 11204 H 1081.38 -0.323385 0.68113 0
M  V30 11205 H 1084.03 -0.10869 1.83178 0
M  V30 11206 H 1082.42 -2.36574 3.17567 0
M  V30 11207 H 1083.59 0.109355 4.6067 0
M  V30 11208 H 1081.9 -0.0594029 4.16358 0
M  V30 11209 H 1084.5 -2.81423 4.54648 0
M  V30 11210 H 1084.84 -3.03598 2.8484 0
M  V30 11211 H 1085.38 -1.54642 3.66512 0
M  V30 11212 H 1082.12 -0.6431 6.52338 0
M  V30 11213 H 1081.64 -2.09759 5.61926 0
M  V30 11214 H 1083.32 -1.90748 6.18243 0
M  V30 11215 N 1083.45 -1.52049 -0.414609 0
M  V30 11216 C 1084.67 -1.6997 -1.18848 0
M  V30 11217 C 1085.1 -0.406058 -1.83665 0
M  V30 11218 O 1084.46 0.635981 -1.69779 0
M  V30 11219 C 1084.5 -2.8327 -2.23138 0
M  V30 11220 O 1083.61 -2.48457 -3.29155 0
M  V30 11221 H 1082.95 -0.566003 -0.347183 0
M  V30 11222 H 1085.48 -1.98726 -0.486757 0
M  V30 11223 H 1085.49 -3.08022 -2.67557 0
M  V30 11224 H 1084.16 -3.7713 -1.75344 0
M  V30 11225 H 1082.74 -2.34357 -2.90054 0
M  V30 11226 N 1084.93 0.6715 -1.42579 0
M  V30 11227 C 1086.17 1.42871 -1.42941 0
M  V30 11228 C 1086.49 1.94941 -0.0480483 0
M  V30 11229 O 1085.76 1.73275 0.913921 0
M  V30 11230 H 1084.34 0.530189 -0.526221 0
M  V30 11231 H 1087.01 0.793219 -1.78028 0
M  V30 11232 H 1086.1 2.2801 -2.13114 0
M  V30 11233 N 1086.4 1.28806 0.908124 0
M  V30 11234 C 1087.63 1.19271 1.69674 0
M  V30 11235 C 1088.05 -0.244403 1.86505 0
M  V30 11236 O 1087.41 -1.17668 1.37927 0
M  V30 11237 C 1087.46 1.9023 3.06341 0
M  V30 11238 O 1086.56 1.2136 3.94139 0
M  V30 11239 H 1085.9 0.413738 0.519343 0
M  V30 11240 H 1088.43 1.70227 1.13508 0
M  V30 11241 H 1088.44 1.98356 3.56537 0
M  V30 11242 H 1087.12 2.94762 2.93408 0
M  V30 11243 H 1085.7 1.21435 3.52573 0
M  V30 11244 N 1087.88 -1.11734 1.11145 0
M  V30 11245 C 1089.16 -1.79795 0.770261 0
M  V30 11246 C 1089.54 -1.97624 -0.742158 0
M  V30 11247 O 1088.89 -1.55847 -1.67105 0
M  V30 11248 C 1089.1 -3.13684 1.52982 0
M  V30 11249 C 1090.44 -3.88771 1.70711 0
M  V30 11250 O 1091.47 -3.23363 1.49381 0
M  V30 11251 O 1090.33 -5.06134 2.06132 0
M  V30 11252 H 1087.42 -0.778617 0.27872 0
M  V30 11253 H 1089.97 -1.18504 1.2147 0
M  V30 11254 H 1088.74 -2.96043 2.55879 0
M  V30 11255 H 1088.36 -3.82687 1.07873 0
M  V30 11256 N 1089.36 -0.901303 -1.29284 0
M  V30 11257 C 1090.61 -0.528826 -1.95784 0
M  V30 11258 C 1090.94 0.922833 -1.70873 0
M  V30 11259 O 1090.21 1.65448 -1.0226 0
M  V30 11260 C 1090.5 -0.823793 -3.50551 0
M  V30 11261 C 1090.35 -2.32727 -3.84913 0
M  V30 11262 C 1091.67 -0.311382 -4.38997 0
M  V30 11263 H 1088.79 -0.193604 -0.711116 0
M  V30 11264 H 1091.43 -1.12828 -1.52872 0
M  V30 11265 H 1089.58 -0.313612 -3.87232 0
M  V30 11266 H 1091.25 -2.90712 -3.58168 0
M  V30 11267 H 1089.49 -2.78735 -3.32399 0
M  V30 11268 H 1090.17 -2.48423 -4.9294 0
M  V30 11269 H 1092.64 -0.748265 -4.09317 0
M  V30 11270 H 1091.52 -0.546957 -5.46168 0
M  V30 11271 H 1091.78 0.787959 -4.35021 0
M  V30 11272 N 1090.84 1.42931 -0.663954 0
M  V30 11273 C 1092.06 2.06544 -0.188201 0
M  V30 11274 C 1092.49 1.495 1.14155 0
M  V30 11275 O 1091.85 0.609164 1.7076 0
M  V30 11276 C 1091.89 3.60393 -0.122105 0
M  V30 11277 O 1091 4.02176 0.91258 0
M  V30 11278 H 1090.34 0.656458 -0.0997967 0
M  V30 11279 H 1092.87 1.83253 -0.909909 0
M  V30 11280 H 1092.88 4.07959 0.0576568 0
M  V30 11281 H 1091.55 4.01287 -1.09276 0
M  V30 11282 H 1090.13 3.6618 0.704738 0
M  V30 11283 N 1092.32 0.406567 1.52266 0
M  V30 11284 C 1093.26 -0.420182 2.26943 0
M  V30 11285 C 1094.23 -1.04323 1.29251 0
M  V30 11286 O 1095.42 -1.06799 1.5811 0
M  V30 11287 C 1092.56 -1.5323 3.09216 0
M  V30 11288 C 1091.67 -0.930419 4.21862 0
M  V30 11289 C 1090.81 -2.01502 4.91498 0
M  V30 11290 C 1089.84 -1.38994 5.9611 0
M  V30 11291 N 1088.98 -2.41458 6.59274 0
M  V30 11292 H 1093.82 0.223066 2.97164 0
M  V30 11293 H 1091.36 0.121842 1.46595 0
M  V30 11294 H 1093.32 -2.18803 3.5522 0
M  V30 11295 H 1091.95 -2.14561 2.41171 0
M  V30 11296 H 1091 -0.163809 3.80047 0
M  V30 11297 H 1092.31 -0.433785 4.9691 0
M  V30 11298 H 1091.46 -2.74807 5.40894 0
M  V30 11299 H 1090.2 -2.5453 4.16012 0
M  V30 11300 H 1089.21 -0.642213 5.46036 0
M  V30 11301 H 1090.43 -0.867386 6.73538 0
M  V30 11302 H 1088.38 -2.93623 5.86619 0
M  V30 11303 H 1088.3 -1.96599 7.2999 0
M  V30 11304 H 1089.56 -3.14341 7.13309 0
M  V30 11305 N 1093.79 -1.57004 0.136909 0
M  V30 11306 C 1094.73 -2.13355 -0.837405 0
M  V30 11307 C 1095.74 -1.08053 -1.21772 0
M  V30 11308 O 1096.93 -1.35365 -1.16355 0
M  V30 11309 C 1094.03 -2.63302 -2.13366 0
M  V30 11310 C 1093.2 -3.92896 -1.92228 0
M  V30 11311 C 1092.26 -4.28257 -3.05749 0
M  V30 11312 O 1091.29 -4.96761 -2.7788 0
M  V30 11313 N 1092.49 -3.87021 -4.3266 0
M  V30 11314 H 1095.25 -2.9758 -0.35586 0
M  V30 11315 H 1092.81 -1.61832 -0.0469758 0
M  V30 11316 H 1094.81 -2.83977 -2.88339 0
M  V30 11317 H 1093.38 -1.83858 -2.52814 0
M  V30 11318 H 1092.6 -3.80949 -1.01349 0
M  V30 11319 H 1093.88 -4.776 -1.75431 0
M  V30 11320 H 1093.28 -3.31804 -4.58173 0
M  V30 11321 H 1091.84 -4.12768 -5.04446 0
M  V30 11322 N 1095.27 0.136881 -1.57004 0
M  V30 11323 C 1096.24 1.15267 -1.98106 0
M  V30 11324 C 1097.24 1.35305 -0.868856 0
M  V30 11325 O 1098.43 1.32126 -1.13527 0
M  V30 11326 C 1095.56 2.51092 -2.30577 0
M  V30 11327 H 1096.75 0.799821 -2.89038 0
M  V30 11328 H 1094.3 0.380576 -1.51596 0
M  V30 11329 H 1095.04 2.9133 -1.42469 0
M  V30 11330 H 1094.82 2.37906 -3.11678 0
M  V30 11331 H 1096.31 3.24232 -2.63179 0
M  V30 11332 N 1096.75 1.52266 0.40654 0
M  V30 11333 C 1097.71 1.75168 1.47814 0
M  V30 11334 C 1098.71 0.621575 1.48301 0
M  V30 11335 O 1099.9 0.889476 1.4978 0
M  V30 11336 C 1097.04 1.83642 2.87208 0
M  V30 11337 H 1098.23 2.70834 1.28798 0
M  V30 11338 H 1095.78 1.42722 0.637196 0
M  V30 11339 H 1096.52 0.898994 3.1159 0
M  V30 11340 H 1096.3 2.65801 2.88257 0
M  V30 11341 H 1097.79 2.03093 3.64888 0
M  V30 11342 N 1098.23 -0.663929 1.42933 0
M  V30 11343 C 1099.51 -1.42054 1.34462 0
M  V30 11344 C 1099.89 -2.11096 -0.0127801 0
M  V30 11345 O 1099.23 -2.04027 -1.02884 0
M  V30 11346 C 1099.44 -2.41406 2.5204 0
M  V30 11347 C 1100.79 -3.05726 2.94647 0
M  V30 11348 O 1101.82 -2.51733 2.52009 0
M  V30 11349 O 1100.67 -4.03593 3.68477 0
M  V30 11350 H 1097.77 -0.634149 0.530834 0
M  V30 11351 H 1100.31 -0.691738 1.54962 0
M  V30 11352 H 1099.09 -1.89263 3.42484 0
M  V30 11353 H 1098.71 -3.21752 2.33584 0
M  V30 11354 N 1099.71 -1.29285 -0.901281 0
M  V30 11355 C 1100.64 -1.08603 -2.007 0
M  V30 11356 C 1101.62 0.00162233 -1.626 0
M  V30 11357 O 1102.8 -0.148764 -1.87912 0
M  V30 11358 C 1099.93 -0.652972 -3.32346 0
M  V30 11359 C 1098.97 -1.73911 -3.89432 0
M  V30 11360 S 1099.81 -3.33797 -4.18736 0
M  V30 11361 C 1100.96 -2.92355 -5.53425 0
M  V30 11362 H 1101.2 -2.02216 -2.17936 0
M  V30 11363 H 1098.73 -1.13414 -1.04769 0
M  V30 11364 H 1100.69 -0.409825 -4.08449 0
M  V30 11365 H 1099.35 0.263527 -3.12993 0
M  V30 11366 H 1098.54 -1.388 -4.84511 0
M  V30 11367 H 1098.14 -1.93569 -3.20011 0
M  V30 11368 H 1100.44 -2.39301 -6.33831 0
M  V30 11369 H 1101.38 -3.86278 -5.9346 0
M  V30 11370 H 1101.79 -2.30697 -5.15208 0
M  V30 11371 N 1101.18 1.11143 -1.11736 0
M  V30 11372 C 1102.43 1.82311 -0.862875 0
M  V30 11373 C 1102.75 1.85735 0.613326 0
M  V30 11374 O 1103.95 2.53034 0.984168 0
M  V30 11375 C 1102.41 3.27427 -1.49396 0
M  V30 11376 C 1102.02 3.32323 -3.00443 0
M  V30 11377 C 1103.76 4.03474 -1.31944 0
M  V30 11378 C 1101.67 4.71855 -3.56521 0
M  V30 11379 H 1100.6 0.683124 -0.31915 0
M  V30 11380 H 1103.25 1.25045 -1.34298 0
M  V30 11381 H 1101.63 3.84644 -0.941528 0
M  V30 11382 H 1102.8 2.84971 -3.62117 0
M  V30 11383 H 1101.12 2.69758 -3.17206 0
M  V30 11384 H 1103.72 5.06528 -1.71271 0
M  V30 11385 H 1104.06 4.15473 -0.262339 0
M  V30 11386 H 1104.59 3.52652 -1.84069 0
M  V30 11387 H 1101.33 4.65054 -4.61958 0
M  V30 11388 H 1100.85 5.19604 -2.99619 0
M  V30 11389 H 1102.53 5.40816 -3.55144 0
M  V30 11390 N 1102.66 0.908147 1.28804 0
M  V30 11391 C 1103.59 0.409106 2.29888 0
M  V30 11392 C 1104.57 -0.520338 1.61946 0
M  V30 11393 O 1105.76 -0.429268 1.89396 0
M  V30 11394 C 1102.89 -0.35669 3.45463 0
M  V30 11395 C 1101.84 0.4831 4.25265 0
M  V30 11396 C 1101.17 -0.4107 5.3312 0
M  V30 11397 C 1102.47 1.73744 4.92555 0
M  V30 11398 H 1104.16 1.25386 2.7188 0
M  V30 11399 H 1101.71 0.604368 1.30703 0
M  V30 11400 H 1103.66 -0.71661 4.15262 0
M  V30 11401 H 1102.39 -1.2353 3.02337 0
M  V30 11402 H 1101.04 0.825464 3.57186 0
M  V30 11403 H 1100.69 -1.28769 4.86238 0
M  V30 11404 H 1100.39 0.14756 5.87415 0
M  V30 11405 H 1101.92 -0.766626 6.05768 0
M  V30 11406 H 1103.33 1.44676 5.54745 0
M  V30 11407 H 1101.73 2.23767 5.5682 0
M  V30 11408 H 1102.8 2.46853 4.17363 0
M  V30 11409 N 1104.14 -1.42577 0.671525 0
M  V30 11410 C 1105.07 -2.33499 0.00506984 0
M  V30 11411 C 1106.05 -1.50497 -0.792763 0
M  V30 11412 O 1107.24 -1.79109 -0.750574 0
M  V30 11413 C 1104.37 -3.34077 -0.949194 0
M  V30 11414 C 1103.32 -4.27208 -0.260187 0
M  V30 11415 C 1102.65 -5.17968 -1.32716 0
M  V30 11416 C 1103.95 -5.15192 0.858772 0
M  V30 11417 H 1105.64 -2.89477 0.764407 0
M  V30 11418 H 1103.19 -1.39191 0.369043 0
M  V30 11419 H 1105.14 -3.96594 -1.42448 0
M  V30 11420 H 1103.86 -2.76396 -1.73991 0
M  V30 11421 H 1102.52 -3.66082 0.194834 0
M  V30 11422 H 1102.17 -4.56615 -2.10979 0
M  V30 11423 H 1101.87 -5.81104 -0.871293 0
M  V30 11424 H 1103.39 -5.83359 -1.80345 0
M  V30 11425 H 1104.81 -5.71412 0.464844 0
M  V30 11426 H 1103.21 -5.87144 1.24023 0
M  V30 11427 H 1104.28 -4.53787 1.70895 0
M  V30 11428 N 1105.62 -0.414636 -1.52048 0
M  V30 11429 C 1106.9 0.218172 -1.94379 0
M  V30 11430 C 1107.28 1.62133 -1.35189 0
M  V30 11431 O 1106.62 2.22271 -0.529877 0
M  V30 11432 C 1106.83 0.218932 -3.48313 0
M  V30 11433 C 1108.18 0.435604 -4.2236 0
M  V30 11434 O 1109.21 0.298049 -3.54951 0
M  V30 11435 O 1108.06 0.707217 -5.41905 0
M  V30 11436 H 1105.16 0.142173 -0.814688 0
M  V30 11437 H 1107.7 -0.470977 -1.63033 0
M  V30 11438 H 1106.48 -0.76292 -3.83791 0
M  V30 11439 H 1106.1 0.951949 -3.86036 0
M  V30 11440 N 1107.1 1.56929 -0.145233 0
M  V30 11441 C 1108.37 1.8767 0.551288 0
M  V30 11442 C 1108.75 1.05089 1.83083 0
M  V30 11443 O 1108.1 0.137201 2.28088 0
M  V30 11444 C 1108.31 3.39268 0.818445 0
M  V30 11445 C 1109.66 4.08447 1.16 0
M  V30 11446 O 1110.68 3.44436 0.907857 0
M  V30 11447 O 1109.54 5.21488 1.63441 0
M  V30 11448 H 1106.64 0.777788 0.281024 0
M  V30 11449 H 1109.18 1.68724 -0.181712 0
M  V30 11450 H 1107.95 3.91203 -0.0871897 0
M  V30 11451 H 1107.58 3.63735 1.60569 0
M  V30 11452 N 1108.58 -0.128553 1.57075 0
M  V30 11453 C 1109.52 -1.17719 2.00611 0
M  V30 11454 C 1110.52 -1.43423 0.90146 0
M  V30 11455 O 1111.72 -1.43498 1.08666 0
M  V30 11456 H 1108.1 -0.396683 0.638864 0
M  V30 11457 H 1110.07 -0.783437 2.87932 0
M  V30 11458 C 1108.82 -2.49826 2.41831 0
M  V30 11459 H 1108.14 -2.30883 3.26394 0
M  V30 11460 H 1109.58 -3.21784 2.761 0
M  V30 11461 C 1108.04 -3.11712 1.27816 0
M  V30 11462 O 1108.57 -3.9736 0.588917 0
M  V30 11463 N 1106.78 -2.71442 1.03767 0
M  V30 11464 H 1106.32 -2.01891 1.59994 0
M  V30 11465 H 1106.28 -3.1318 0.276743 0
M  V30 11466 N 1110.05 -1.5248 -0.398459 0
M  V30 11467 C 1111.3 -1.67061 -1.14441 0
M  V30 11468 C 1111.63 -0.405821 -1.90219 0
M  V30 11469 O 1110.88 0.611532 -1.859 0
M  V30 11470 C 1111.18 -2.85038 -2.15611 0
M  V30 11471 C 1110.85 -4.22847 -1.56561 0
M  V30 11472 C 1109.51 -4.60329 -1.40182 0
M  V30 11473 C 1111.86 -5.08683 -1.1354 0
M  V30 11474 C 1109.19 -5.81314 -0.793149 0
M  V30 11475 C 1111.54 -6.30284 -0.540866 0
M  V30 11476 C 1110.21 -6.66505 -0.364297 0
M  V30 11477 H 1109.48 -0.611321 -0.418769 0
M  V30 11478 H 1112.12 -1.86604 -0.430241 0
M  V30 11479 H 1110.43 -2.59873 -2.93212 0
M  V30 11480 H 1112.13 -2.93516 -2.73221 0
M  V30 11481 H 1108.72 -3.93316 -1.70295 0
M  V30 11482 H 1112.9 -4.80301 -1.24999 0
M  V30 11483 H 1108.16 -6.07994 -0.64446 0
M  V30 11484 H 1112.33 -6.96115 -0.199167 0
M  V30 11485 H 1109.96 -7.60121 0.109439 0
M  V30 11486 N 1111.53 0.65634 -1.43283 0
M  V30 11487 C 1112.49 1.75117 -1.47874 0
M  V30 11488 C 1113.49 1.56629 -0.363846 0
M  V30 11489 O 1114.68 1.62584 -0.625464 0
M  V30 11490 C 1111.82 3.13957 -1.32831 0
M  V30 11491 H 1113.01 1.72429 -2.45374 0
M  V30 11492 H 1110.56 0.867704 -1.30002 0
M  V30 11493 H 1111.3 3.22259 -0.36326 0
M  V30 11494 H 1111.08 3.28781 -2.13649 0
M  V30 11495 H 1112.57 3.93799 -1.38969 0
M  V30 11496 N 1113.01 1.29761 0.894412 0
M  V30 11497 C 1114.23 1.21064 1.68399 0
M  V30 11498 C 1114.66 -0.224608 1.86754 0
M  V30 11499 O 1114.02 -1.16199 1.39167 0
M  V30 11500 C 1114.07 1.93468 3.04306 0
M  V30 11501 O 1113.17 1.25533 3.9283 0
M  V30 11502 H 1112.51 0.419223 0.514925 0
M  V30 11503 H 1115.04 1.71421 1.11696 0
M  V30 11504 H 1115.05 2.02127 3.54413 0
M  V30 11505 H 1113.73 2.97857 2.90265 0
M  V30 11506 H 1112.3 1.25168 3.51266 0
M  V30 11507 N 1114.49 -1.10549 1.12324 0
M  V30 11508 C 1115.74 -1.81851 0.872531 0
M  V30 11509 C 1116.05 -1.86058 -0.603468 0
M  V30 11510 O 1117.26 -2.53553 -0.970736 0
M  V30 11511 C 1115.71 -3.26631 1.51131 0
M  V30 11512 C 1115.32 -3.30725 3.02201 0
M  V30 11513 C 1117.06 -4.02768 1.34082 0
M  V30 11514 C 1114.97 -4.69957 3.59018 0
M  V30 11515 H 1113.9 -0.681422 0.322769 0
M  V30 11516 H 1116.55 -1.24332 1.34959 0
M  V30 11517 H 1114.93 -3.8414 0.961913 0
M  V30 11518 H 1116.11 -2.83046 3.63623 0
M  V30 11519 H 1114.42 -2.68072 3.18632 0
M  V30 11520 H 1117.02 -5.05612 1.73955 0
M  V30 11521 H 1117.36 -4.15328 0.284369 0
M  V30 11522 H 1117.9 -3.51671 1.85937 0
M  V30 11523 H 1114.63 -4.62597 4.64418 0
M  V30 11524 H 1114.15 -5.18008 3.02371 0
M  V30 11525 H 1115.83 -5.38925 3.58007 0
M  V30 11526 N 1115.97 -0.914965 -1.28321 0
M  V30 11527 C 1117.21 -0.549562 -1.95212 0
M  V30 11528 C 1117.54 0.904658 -1.71842 0
M  V30 11529 O 1116.82 1.64354 -1.04009 0
M  V30 11530 C 1117.1 -0.860927 -3.49657 0
M  V30 11531 C 1116.96 -2.36797 -3.82423 0
M  V30 11532 C 1118.27 -0.357926 -4.38642 0
M  V30 11533 H 1115.39 -0.201136 -0.709023 0
M  V30 11534 H 1118.04 -1.14443 -1.51667 0
M  V30 11535 H 1116.19 -0.354665 -3.86878 0
M  V30 11536 H 1117.86 -2.94494 -3.55065 0
M  V30 11537 H 1116.1 -2.82245 -3.29424 0
M  V30 11538 H 1116.77 -2.53637 -4.90278 0
M  V30 11539 H 1119.25 -0.791636 -4.085 0
M  V30 11540 H 1118.12 -0.604855 -5.45557 0
M  V30 11541 H 1118.38 0.741775 -4.35833 0
M  V30 11542 N 1117.44 1.42219 -0.679077 0
M  V30 11543 C 1118.67 2.05815 -0.211649 0
M  V30 11544 C 1119.09 1.51037 1.13284 0
M  V30 11545 O 1118.44 0.651894 1.7046 0
M  V30 11546 C 1118.49 3.61218 -0.142663 0
M  V30 11547 O 1118.22 4.13965 -1.43402 0
M  V30 11548 C 1119.72 4.41934 0.347746 0
M  V30 11549 H 1116.94 0.663215 -0.101914 0
M  V30 11550 H 1119.48 1.82282 -0.927017 0
M  V30 11551 H 1117.64 3.83848 0.52342 0
M  V30 11552 H 1118.05 5.07872 -1.31021 0
M  V30 11553 H 1119.52 5.50921 0.344916 0
M  V30 11554 H 1120 4.16832 1.38377 0
M  V30 11555 H 1120.61 4.24332 -0.286751 0
M  V30 11556 N 1118.92 0.422693 1.51826 0
M  V30 11557 C 1120.17 -0.148348 2.01555 0
M  V30 11558 C 1120.49 -1.44483 1.30956 0
M  V30 11559 O 1119.76 -1.90904 0.439599 0
M  V30 11560 H 1118.34 -0.0578116 0.74476 0
M  V30 11561 H 1121 0.562046 1.8662 0
M  V30 11562 H 1120.1 -0.334766 3.10299 0
M  V30 11563 N 1120.4 -1.5685 0.153553 0
M  V30 11564 C 1121.65 -1.96625 -0.49665 0
M  V30 11565 C 1121.98 -1.03877 -1.64083 0
M  V30 11566 O 1121.25 -0.0824112 -1.94325 0
M  V30 11567 C 1121.54 -3.46035 -0.996585 0
M  V30 11568 C 1121.39 -4.49561 0.146551 0
M  V30 11569 C 1122.71 -3.98104 -1.8762 0
M  V30 11570 H 1119.83 -0.714917 -0.179059 0
M  V30 11571 H 1122.47 -1.88527 0.236104 0
M  V30 11572 H 1120.62 -3.53066 -1.621 0
M  V30 11573 H 1122.29 -4.54604 0.783108 0
M  V30 11574 H 1120.53 -4.26271 0.804727 0
M  V30 11575 H 1121.21 -5.51456 -0.245078 0
M  V30 11576 H 1123.68 -3.93593 -1.34997 0
M  V30 11577 H 1122.56 -5.03098 -2.19508 0
M  V30 11578 H 1122.82 -3.40852 -2.81554 0
M  V30 11579 N 1121.88 0.120221 -1.57141 0
M  V30 11580 C 1122.79 1.16641 -2.03549 0
M  V30 11581 C 1123.8 1.45407 -0.955656 0
M  V30 11582 O 1124.98 1.56547 -1.26708 0
M  V30 11583 C 1122.04 2.4734 -2.42948 0
M  V30 11584 C 1121.11 2.25982 -3.65008 0
M  V30 11585 C 1120.34 3.50449 -4.02518 0
M  V30 11586 O 1120.56 4.57706 -3.40384 0
M  V30 11587 O 1119.5 3.41524 -4.95626 0
M  V30 11588 H 1123.32 0.802323 -2.9291 0
M  V30 11589 H 1120.91 0.330927 -1.45689 0
M  V30 11590 H 1122.79 3.24348 -2.69029 0
M  V30 11591 H 1121.46 2.83225 -1.56733 0
M  V30 11592 H 1120.37 1.46837 -3.44078 0
M  V30 11593 H 1121.7 1.95002 -4.51924 0
M  V30 11594 N 1123.36 1.52689 0.390367 0
M  V30 11595 C 1124.27 1.8029 1.50108 0
M  V30 11596 C 1125.28 0.689582 1.59752 0
M  V30 11597 O 1126.46 0.977024 1.76114 0
M  V30 11598 C 1123.52 1.96475 2.85654 0
M  V30 11599 C 1122.58 3.2039 2.85743 0
M  V30 11600 C 1121.82 3.35793 4.14824 0
M  V30 11601 O 1122.04 2.56033 5.09709 0
M  V30 11602 O 1120.97 4.2904 4.22147 0
M  V30 11603 H 1124.8 2.74605 1.29715 0
M  V30 11604 H 1122.39 1.37763 0.578074 0
M  V30 11605 H 1124.27 2.08835 3.66013 0
M  V30 11606 H 1122.94 1.05351 3.06077 0
M  V30 11607 H 1121.85 3.13473 2.0417 0
M  V30 11608 H 1123.18 4.11356 2.70272 0
M  V30 11609 N 1124.83 -0.648732 1.43629 0
M  V30 11610 C 1126.08 -1.40579 1.45196 0
M  V30 11611 C 1126.4 -1.9484 0.0790556 0
M  V30 11612 O 1125.67 -1.74707 -0.886239 0
M  V30 11613 H 1124.25 -0.52175 0.53459 0
M  V30 11614 H 1126.92 -0.764796 1.79268 0
M  V30 11615 H 1126.01 -2.24591 2.16715 0
M  V30 11616 N 1126.31 -1.30234 -0.887518 0
M  V30 11617 C 1127.73 -1.0851 -1.17037 0
M  V30 11618 C 1127.93 0.155788 -2.00897 0
M  V30 11619 O 1126.98 0.850123 -2.37759 0
M  V30 11620 C 1128.3 -2.34723 -1.87951 0
M  V30 11621 C 1129.85 -2.40163 -2.00726 0
M  V30 11622 C 1130.32 -3.66211 -2.75051 0
M  V30 11623 N 1131.81 -3.67004 -2.82599 0
M  V30 11624 C 1132.55 -4.61224 -3.40676 0
M  V30 11625 N 1132.04 -5.65786 -3.99823 0
M  V30 11626 N 1133.84 -4.48772 -3.38467 0
M  V30 11627 H 1125.99 -2.09847 -0.328297 0
M  V30 11628 H 1128.25 -0.924904 -0.20798 0
M  V30 11629 H 1127.96 -3.25265 -1.33773 0
M  V30 11630 H 1127.83 -2.43175 -2.8835 0
M  V30 11631 H 1130.22 -1.50101 -2.54074 0
M  V30 11632 H 1130.3 -2.35688 -0.994218 0
M  V30 11633 H 1129.94 -4.56631 -2.22376 0
M  V30 11634 H 1129.87 -3.67947 -3.76726 0
M  V30 11635 H 1132.36 -2.91409 -2.40602 0
M  V30 11636 H 1132.68 -6.33783 -4.42197 0
M  V30 11637 H 1131.02 -5.69581 -3.9825 0
M  V30 11638 H 1134.21 -3.6627 -2.91485 0
M  V30 11639 H 1134.38 -5.22382 -3.83433 0
M  V30 11640 N 1127.79 1.09952 -1.12909 0
M  V30 11641 C 1128.72 2.18477 -0.824014 0
M  V30 11642 C 1129.7 1.68744 0.214324 0
M  V30 11643 O 1130.89 1.94057 0.0744281 0
M  V30 11644 C 1128.02 3.46143 -0.283308 0
M  V30 11645 C 1126.97 4.09178 -1.25528 0
M  V30 11646 C 1126.3 5.31604 -0.574574 0
M  V30 11647 C 1127.6 4.52308 -2.6118 0
M  V30 11648 H 1129.29 2.44254 -1.73148 0
M  V30 11649 H 1126.84 1.17394 -0.833952 0
M  V30 11650 H 1128.79 4.21361 -0.057583 0
M  V30 11651 H 1127.51 3.19872 0.659525 0
M  V30 11652 H 1126.17 3.35973 -1.4669 0
M  V30 11653 H 1125.82 5.01611 0.37356 0
M  V30 11654 H 1125.52 5.74732 -1.22299 0
M  V30 11655 H 1127.04 6.0955 -0.358004 0
M  V30 11656 H 1128.46 5.18776 -2.44017 0
M  V30 11657 H 1126.86 5.06302 -3.22147 0
M  V30 11658 H 1127.93 3.64977 -3.19249 0
M  V30 11659 N 1129.27 0.921757 1.27833 0
M  V30 11660 C 1130.52 0.55493 1.93916 0
M  V30 11661 C 1130.83 -0.907191 1.7329 0
M  V30 11662 O 1132.04 -1.38253 2.33663 0
M  V30 11663 C 1130.49 0.941644 3.47363 0
M  V30 11664 C 1130.1 2.42404 3.76755 0
M  V30 11665 C 1131.84 0.645785 4.19559 0
M  V30 11666 C 1129.75 2.75046 5.23549 0
M  V30 11667 H 1128.68 0.203818 0.72593 0
M  V30 11668 H 1131.33 1.12176 1.4522 0
M  V30 11669 H 1129.71 0.303519 3.94835 0
M  V30 11670 H 1130.89 3.10957 3.40062 0
M  V30 11671 H 1129.2 2.69118 3.17749 0
M  V30 11672 H 1131.8 0.866237 5.27637 0
M  V30 11673 H 1132.14 -0.41676 4.14209 0
M  V30 11674 H 1132.68 1.24274 3.7789 0
M  V30 11675 H 1129.42 3.80186 5.33984 0
M  V30 11676 H 1128.94 2.11138 5.6141 0
M  V30 11677 H 1130.61 2.62474 5.91368 0
M  V30 11678 N 1130.75 -1.41857 0.686609 0
M  V30 11679 C 1131.99 -2.01368 0.213801 0
M  V30 11680 C 1132.32 -1.5434 -1.18361 0
M  V30 11681 O 1131.58 -0.741447 -1.81111 0
M  V30 11682 C 1131.88 -3.56783 0.209951 0
M  V30 11683 C 1131.54 -4.23288 1.55365 0
M  V30 11684 C 1130.2 -4.41169 1.92154 0
M  V30 11685 C 1132.56 -4.6066 2.43807 0
M  V30 11686 C 1129.88 -4.93697 3.16986 0
M  V30 11687 C 1132.24 -5.14573 3.67963 0
M  V30 11688 C 1130.9 -5.30667 4.04906 0
M  V30 11689 H 1130.17 -0.736858 0.0782352 0
M  V30 11690 H 1132.82 -1.69879 0.88393 0
M  V30 11691 H 1131.12 -3.88009 -0.543712 0
M  V30 11692 H 1132.82 -4.00625 -0.173267 0
M  V30 11693 H 1129.41 -4.09738 1.2575 0
M  V30 11694 H 1133.59 -4.46507 2.16668 0
M  V30 11695 H 1128.85 -5.04342 3.45615 0
M  V30 11696 H 1133.02 -5.42473 4.36687 0
M  V30 11697 H 1130.65 -5.71133 5.01709 0
M  V30 11698 N 1132.22 -0.430739 -1.51599 0
M  V30 11699 C 1133.5 0.197543 -1.946 0
M  V30 11700 C 1133.88 1.6069 -1.36901 0
M  V30 11701 O 1133.23 2.21697 -0.553422 0
M  V30 11702 C 1133.44 0.181976 -3.48525 0
M  V30 11703 C 1134.79 0.390783 -4.22798 0
M  V30 11704 O 1135.81 0.260384 -3.55247 0
M  V30 11705 O 1134.67 0.649701 -5.42624 0
M  V30 11706 H 1131.76 0.133524 -0.81615 0
M  V30 11707 H 1134.31 -0.488243 -1.62525 0
M  V30 11708 H 1133.08 -0.803584 -3.8296 0
M  V30 11709 H 1132.71 0.910952 -3.87024 0
M  V30 11710 N 1133.7 1.56767 -0.161869 0
M  V30 11711 C 1134.65 2.18807 0.789074 0
M  V30 11712 C 1135.64 1.14934 1.24445 0
M  V30 11713 O 1136.85 1.33154 1.2112 0
M  V30 11714 H 1133.23 0.700808 0.272713 0
M  V30 11715 H 1135.2 2.97419 0.241766 0
M  V30 11716 C 1133.95 2.83568 2.01207 0
M  V30 11717 H 1133.27 3.63219 1.67068 0
M  V30 11718 H 1134.71 3.3046 2.65654 0
M  V30 11719 C 1133.17 1.82846 2.82964 0
M  V30 11720 O 1133.7 1.30809 3.79805 0
M  V30 11721 N 1131.9 1.51815 2.47791 0
M  V30 11722 H 1131.45 1.94325 1.69103 0
M  V30 11723 H 1131.41 0.846742 3.02783 0
M  V30 11724 N 1135.18 -0.111886 1.57202 0
M  V30 11725 C 1136.11 -1.13796 2.03894 0
M  V30 11726 C 1137.09 -1.4277 0.924696 0
M  V30 11727 O 1138.28 -1.53089 1.19488 0
M  V30 11728 C 1135.41 -2.46229 2.44925 0
M  V30 11729 C 1134.36 -2.31702 3.59859 0
M  V30 11730 C 1133.69 -3.69161 3.86813 0
M  V30 11731 C 1134.99 -1.77158 4.91337 0
M  V30 11732 H 1136.68 -0.749581 2.89865 0
M  V30 11733 H 1134.23 -0.359126 1.3945 0
M  V30 11734 H 1136.18 -3.18267 2.76195 0
M  V30 11735 H 1134.9 -2.86971 1.55933 0
M  V30 11736 H 1133.56 -1.62112 3.28809 0
M  V30 11737 H 1133.21 -4.07401 2.95015 0
M  V30 11738 H 1132.91 -3.60292 4.6418 0
M  V30 11739 H 1134.43 -4.42693 4.20542 0
M  V30 11740 H 1135.85 -2.3902 5.21097 0
M  V30 11741 H 1134.25 -1.79091 5.72753 0
M  V30 11742 H 1135.32 -0.729675 4.79379 0
M  V30 11743 N 1136.66 -1.52894 -0.382264 0
M  V30 11744 C 1137.61 -1.78151 -1.46734 0
M  V30 11745 C 1138.58 -0.625034 -1.53891 0
M  V30 11746 O 1139.76 -0.865467 -1.70042 0
M  V30 11747 C 1136.9 -1.96223 -2.83885 0
M  V30 11748 C 1136.01 -3.23925 -2.85826 0
M  V30 11749 C 1135.15 -3.32277 -4.14446 0
M  V30 11750 C 1134.19 -4.54076 -4.10465 0
M  V30 11751 N 1133.32 -4.59672 -5.30703 0
M  V30 11752 H 1138.16 -2.70748 -1.24497 0
M  V30 11753 H 1135.7 -1.34135 -0.603838 0
M  V30 11754 H 1137.66 -2.04686 -3.63537 0
M  V30 11755 H 1136.29 -1.0698 -3.04557 0
M  V30 11756 H 1135.34 -3.245 -1.98505 0
M  V30 11757 H 1136.65 -4.1364 -2.78754 0
M  V30 11758 H 1135.81 -3.3996 -5.02506 0
M  V30 11759 H 1134.55 -2.40548 -4.2425 0
M  V30 11760 H 1133.55 -4.46511 -3.20793 0
M  V30 11761 H 1134.78 -5.47128 -4.02278 0
M  V30 11762 H 1132.72 -3.70838 -5.41124 0
M  V30 11763 H 1132.64 -5.43268 -5.25734 0
M  V30 11764 H 1133.91 -4.71618 -6.20642 0
M  V30 11765 N 1138.14 0.641106 -1.43971 0
M  V30 11766 C 1139.08 1.75352 -1.50068 0
M  V30 11767 C 1140.05 1.62386 -0.349266 0
M  V30 11768 O 1141.24 1.82455 -0.558118 0
M  V30 11769 C 1138.38 3.13561 -1.4413 0
M  V30 11770 C 1137.49 3.37574 -2.6957 0
M  V30 11771 C 1136.63 4.65698 -2.55535 0
M  V30 11772 C 1135.67 4.82857 -3.76186 0
M  V30 11773 N 1134.8 6.02249 -3.60888 0
M  V30 11774 H 1139.64 1.69477 -2.45116 0
M  V30 11775 H 1137.18 0.826871 -1.2166 0
M  V30 11776 H 1139.14 3.93476 -1.38681 0
M  V30 11777 H 1137.77 3.18476 -0.526563 0
M  V30 11778 H 1136.82 2.5167 -2.85248 0
M  V30 11779 H 1138.13 3.46135 -3.59154 0
M  V30 11780 H 1137.29 5.53759 -2.47862 0
M  V30 11781 H 1136.03 4.59479 -1.63495 0
M  V30 11782 H 1135.03 3.93229 -3.84254 0
M  V30 11783 H 1136.26 4.90898 -4.6925 0
M  V30 11784 H 1134.2 5.97138 -2.71591 0
M  V30 11785 H 1134.12 6.11822 -4.44083 0
M  V30 11786 H 1135.39 6.92898 -3.57088 0
M  V30 11787 N 1139.62 1.30703 0.880598 0
M  V30 11788 C 1140.84 1.22843 1.67106 0
M  V30 11789 C 1141.27 -0.204788 1.86982 0
M  V30 11790 O 1140.62 -1.14716 1.40392 0
M  V30 11791 C 1140.67 1.96685 3.02237 0
M  V30 11792 O 1139.78 1.29693 3.91476 0
M  V30 11793 H 1139.12 0.424661 0.51045 0
M  V30 11794 H 1141.65 1.72596 1.09871 0
M  V30 11795 H 1141.66 2.05874 3.52249 0
M  V30 11796 H 1140.33 3.00919 2.8709 0
M  V30 11797 H 1138.91 1.28886 3.49918 0
M  V30 11798 N 1141.09 -1.09351 1.1349 0
M  V30 11799 C 1142.34 -1.80915 0.89177 0
M  V30 11800 C 1142.66 -1.86688 -0.5837 0
M  V30 11801 O 1143.86 -2.54568 -0.943788 0
M  V30 11802 C 1142.32 -3.25009 1.54587 0
M  V30 11803 C 1141.93 -3.27501 3.05691 0
M  V30 11804 C 1143.67 -4.01323 1.38346 0
M  V30 11805 C 1141.58 -4.66123 3.63983 0
M  V30 11806 H 1140.51 -0.677961 0.329978 0
M  V30 11807 H 1143.16 -1.22893 1.3627 0
M  V30 11808 H 1141.54 -3.83098 1.0026 0
M  V30 11809 H 1142.71 -2.79174 3.66604 0
M  V30 11810 H 1141.03 -2.64677 3.21457 0
M  V30 11811 H 1143.63 -5.03739 1.79307 0
M  V30 11812 H 1143.97 -4.15003 0.328404 0
M  V30 11813 H 1144.5 -3.49679 1.89656 0
M  V30 11814 H 1141.24 -4.57646 4.69298 0
M  V30 11815 H 1140.76 -5.14772 3.07848 0
M  V30 11816 H 1142.44 -5.35097 3.63703 0
M  V30 11817 N 1142.57 -0.928524 -1.27343 0
M  V30 11818 C 1143.53 -0.43292 -2.25074 0
M  V30 11819 C 1144.53 0.448976 -1.54405 0
M  V30 11820 O 1145.72 0.249939 -1.72398 0
M  V30 11821 C 1142.86 0.377539 -3.38803 0
M  V30 11822 H 1144.05 -1.29642 -2.70431 0
M  V30 11823 H 1141.6 -0.709289 -1.3928 0
M  V30 11824 H 1142.34 1.25982 -2.98829 0
M  V30 11825 H 1142.12 -0.254782 -3.91271 0
M  V30 11826 H 1143.61 0.714634 -4.1144 0
M  V30 11827 N 1144.05 1.41491 -0.694123 0
M  V30 11828 C 1145.28 2.0528 -0.233128 0
M  V30 11829 C 1145.69 1.52329 1.12217 0
M  V30 11830 O 1145.03 0.66579 1.7121 0
M  V30 11831 C 1145.09 3.59326 -0.111718 0
M  V30 11832 C 1144.76 4.35065 -1.39882 0
M  V30 11833 C 1145.75 4.64446 -2.33637 0
M  V30 11834 C 1143.44 4.74364 -1.65179 0
M  V30 11835 C 1145.43 5.32083 -3.50951 0
M  V30 11836 C 1143.12 5.41737 -2.82779 0
M  V30 11837 C 1144.12 5.70524 -3.75488 0
M  V30 11838 O 1143.81 6.36511 -4.91029 0
M  V30 11839 H 1143.54 0.667571 -0.106418 0
M  V30 11840 H 1146.09 1.82276 -0.94682 0
M  V30 11841 H 1144.32 3.81065 0.65773 0
M  V30 11842 H 1146.01 4.047 0.311906 0
M  V30 11843 H 1146.78 4.34568 -2.1535 0
M  V30 11844 H 1142.66 4.5134 -0.93881 0
M  V30 11845 H 1146.2 5.54468 -4.23333 0
M  V30 11846 H 1142.1 5.71033 -3.00984 0
M  V30 11847 H 1142.86 6.55006 -4.90825 0
M  V30 11848 N 1145.53 0.438773 1.51369 0
M  V30 11849 C 1146.76 -0.125847 2.06517 0
M  V30 11850 C 1147.17 -1.36336 1.30606 0
M  V30 11851 O 1146.53 -1.78792 0.36603 0
M  V30 11852 C 1146.58 -0.446619 3.5873 0
M  V30 11853 O 1146.3 0.741781 4.31775 0
M  V30 11854 C 1147.8 -1.06175 4.30397 0
M  V30 11855 H 1145.02 -0.00728868 0.67096 0
M  V30 11856 H 1147.56 0.618267 1.9493 0
M  V30 11857 H 1145.72 -1.14064 3.70227 0
M  V30 11858 H 1146.13 0.466907 5.22418 0
M  V30 11859 H 1147.61 -1.23619 5.3798 0
M  V30 11860 H 1148.08 -2.04317 3.88782 0
M  V30 11861 H 1148.69 -0.40708 4.23347 0
M  V30 11862 N 1147.01 -1.56678 0.170181 0
M  V30 11863 C 1147.94 -2.20916 -0.756213 0
M  V30 11864 C 1148.92 -1.16442 -1.23997 0
M  V30 11865 O 1150.1 -1.44867 -1.29333 0
M  V30 11866 C 1147.23 -2.84901 -1.98617 0
M  V30 11867 C 1146.19 -3.95403 -1.63831 0
M  V30 11868 C 1145.51 -4.46432 -2.94282 0
M  V30 11869 C 1146.81 -5.15051 -0.867195 0
M  V30 11870 H 1148.51 -2.98585 -0.220776 0
M  V30 11871 H 1146.05 -1.43619 -0.104748 0
M  V30 11872 H 1148 -3.28514 -2.63926 0
M  V30 11873 H 1146.73 -2.04598 -2.54572 0
M  V30 11874 H 1145.39 -3.52444 -1.00891 0
M  V30 11875 H 1145.04 -3.62923 -3.48276 0
M  V30 11876 H 1144.74 -5.20979 -2.71762 0
M  V30 11877 H 1146.26 -4.92731 -3.60622 0
M  V30 11878 H 1147.67 -5.55363 -1.42285 0
M  V30 11879 H 1146.07 -5.95507 -0.741065 0
M  V30 11880 H 1147.14 -4.84707 0.136693 0
M  V30 11881 N 1148.48 0.103547 -1.57259 0
M  V30 11882 C 1149.71 0.82235 -1.89855 0
M  V30 11883 C 1150.13 1.72694 -0.76303 0
M  V30 11884 O 1149.48 1.8056 0.265421 0
M  V30 11885 C 1149.53 1.64282 -3.22015 0
M  V30 11886 O 1149.26 0.774628 -4.31197 0
M  V30 11887 C 1150.76 2.46543 -3.68418 0
M  V30 11888 H 1147.98 0.235591 -0.628282 0
M  V30 11889 H 1150.52 0.0833106 -2.0433 0
M  V30 11890 H 1148.68 2.33446 -3.09163 0
M  V30 11891 H 1149.09 1.34205 -5.0704 0
M  V30 11892 H 1150.56 2.99618 -4.63609 0
M  V30 11893 H 1151.04 3.24618 -2.95838 0
M  V30 11894 H 1151.65 1.82594 -3.84109 0
M  V30 11895 N 1149.96 1.53094 0.37415 0
M  V30 11896 C 1151.19 1.73061 1.143 0
M  V30 11897 C 1151.61 0.454611 1.82524 0
M  V30 11898 O 1150.97 -0.590743 1.71406 0
M  V30 11899 C 1151.02 2.89086 2.15549 0
M  V30 11900 O 1150.12 2.57096 3.22452 0
M  V30 11901 H 1149.46 0.575009 0.332055 0
M  V30 11902 H 1151.99 1.99946 0.433897 0
M  V30 11903 H 1152 3.15007 2.59296 0
M  V30 11904 H 1150.68 3.81647 1.65283 0
M  V30 11905 H 1149.25 2.41965 2.83738 0
M  V30 11906 N 1151.44 -0.633461 1.44309 0
M  V30 11907 C 1152.39 -1.76674 1.51292 0
M  V30 11908 C 1153.38 -1.64972 0.384807 0
M  V30 11909 O 1154.59 -1.71079 0.559653 0
M  V30 11910 H 1150.96 -0.583238 0.474697 0
M  V30 11911 H 1152.93 -1.67907 2.46678 0
M  V30 11912 C 1151.68 -3.15002 1.47205 0
M  V30 11913 H 1151.01 -3.24653 2.33325 0
M  V30 11914 H 1152.45 -3.94199 1.56151 0
M  V30 11915 C 1150.9 -3.3635 0.192464 0
M  V30 11916 O 1151.43 -3.94857 -0.738285 0
M  V30 11917 N 1149.64 -2.9044 0.0963424 0
M  V30 11918 H 1149.19 -2.43011 0.85459 0
M  V30 11919 H 1149.15 -3.05099 -0.759061 0
M  V30 11920 N 1152.92 -1.31168 -0.873655 0
M  V30 11921 C 1154.17 -1.20003 -1.62118 0
M  V30 11922 C 1154.48 0.241505 -1.94103 0
M  V30 11923 O 1155.69 0.474801 -2.67316 0
M  V30 11924 C 1154.14 -2.10055 -2.92241 0
M  V30 11925 C 1153.75 -3.59183 -2.67752 0
M  V30 11926 C 1155.49 -2.07681 -3.70228 0
M  V30 11927 C 1153.4 -4.41255 -3.93761 0
M  V30 11928 H 1152.33 -0.445564 -0.608267 0
M  V30 11929 H 1154.98 -1.55997 -0.966287 0
M  V30 11930 H 1153.36 -1.66956 -3.59085 0
M  V30 11931 H 1154.54 -4.10504 -2.09339 0
M  V30 11932 H 1152.85 -3.63496 -2.03125 0
M  V30 11933 H 1155.45 -2.66246 -4.637 0
M  V30 11934 H 1155.79 -1.06304 -4.02499 0
M  V30 11935 H 1156.33 -2.48961 -3.10263 0
M  V30 11936 H 1153.07 -5.43372 -3.66643 0
M  V30 11937 H 1152.59 -3.94694 -4.51638 0
M  V30 11938 H 1154.26 -4.53278 -4.6168 0
M  V30 11939 N 1154.4 1.08748 -1.14068 0
M  V30 11940 C 1155.81 1.62551 -0.918379 0
M  V30 11941 C 1156.16 1.8852 0.543583 0
M  V30 11942 O 1155.28 1.64007 1.41176 0
M  V30 11943 C 1155.88 2.95309 -1.66066 0
M  V30 11944 C 1154.44 3.4591 -1.48403 0
M  V30 11945 C 1153.58 2.20204 -1.6854 0
M  V30 11946 H 1156.54 0.920196 -1.29298 0
M  V30 11947 H 1156.56 3.63587 -1.12181 0
M  V30 11948 H 1156.07 2.76377 -2.72465 0
M  V30 11949 H 1154.17 3.69953 -0.443353 0
M  V30 11950 H 1154.28 4.2289 -2.25169 0
M  V30 11951 H 1152.65 2.29203 -1.11077 0
M  V30 11952 H 1153.43 2.03783 -2.76274 0
M  V30 11953 N 1155.87 0.935264 1.26849 0
M  V30 11954 C 1156.78 0.446122 2.30319 0
M  V30 11955 C 1157.8 -0.476965 1.67335 0
M  V30 11956 O 1158.98 -0.357934 1.98194 0
M  V30 11957 C 1156.04 -0.286297 3.45516 0
M  V30 11958 C 1155.1 0.672626 4.23998 0
M  V30 11959 C 1154.34 -0.0249345 5.33694 0
M  V30 11960 O 1154.56 -1.24296 5.56693 0
M  V30 11961 O 1153.49 0.650752 5.98372 0
M  V30 11962 H 1157.32 1.30546 2.74211 0
M  V30 11963 H 1154.9 0.70091 1.31938 0
M  V30 11964 H 1156.79 -0.699109 4.1556 0
M  V30 11965 H 1155.46 -1.12112 3.03665 0
M  V30 11966 H 1154.37 1.13527 3.56458 0
M  V30 11967 H 1155.7 1.47489 4.69583 0
M  V30 11968 N 1157.35 -1.41121 0.701616 0
M  V30 11969 C 1158.6 -2.00359 0.232214 0
M  V30 11970 C 1158.91 -1.56231 -1.17691 0
M  V30 11971 O 1160.12 -2.08071 -1.74409 0
M  V30 11972 C 1158.58 -3.58052 0.364257 0
M  V30 11973 C 1158.18 -4.11158 1.77913 0
M  V30 11974 C 1159.93 -4.24476 -0.0450628 0
M  V30 11975 C 1157.84 -5.61306 1.8625 0
M  V30 11976 H 1156.77 -0.749411 0.0830609 0
M  V30 11977 H 1159.42 -1.61528 0.870689 0
M  V30 11978 H 1157.8 -3.94515 -0.342569 0
M  V30 11979 H 1158.97 -3.86101 2.5152 0
M  V30 11980 H 1157.29 -3.57282 2.13866 0
M  V30 11981 H 1159.88 -5.347 -0.00329209 0
M  V30 11982 H 1160.23 -4.01919 -1.08477 0
M  V30 11983 H 1160.76 -3.93069 0.611704 0
M  V30 11984 H 1157.5 -5.88699 2.88294 0
M  V30 11985 H 1157.02 -5.88271 1.17036 0
M  V30 11986 H 1158.7 -6.26179 1.62817 0
M  V30 11987 N 1158.83 -0.446794 -1.51134 0
M  V30 11988 C 1160.06 0.114893 -2.06581 0
M  V30 11989 C 1160.47 1.35642 -1.31327 0
M  V30 11990 O 1159.83 1.78595 -0.375506 0
M  V30 11991 C 1159.88 0.427589 -3.58962 0
M  V30 11992 O 1159.6 -0.764669 -4.31375 0
M  V30 11993 C 1161.1 1.03891 -4.30954 0
M  V30 11994 H 1158.32 0.00373031 -0.67099 0
M  V30 11995 H 1160.87 -0.628596 -1.94599 0
M  V30 11996 H 1159.02 1.12099 -3.70827 0
M  V30 11997 H 1159.44 -0.494605 -5.22163 0
M  V30 11998 H 1160.91 1.20764 -5.38628 0
M  V30 11999 H 1161.39 2.02252 -3.8986 0
M  V30 12000 H 1161.99 0.384623 -4.23557 0
M  V30 12001 N 1160.31 1.56586 -0.178487 0
M  V30 12002 C 1161.72 1.83633 0.337009 0
M  V30 12003 C 1162.07 1.09857 1.6256 0
M  V30 12004 O 1161.2 0.353933 2.13486 0
M  V30 12005 C 1161.79 3.33112 0.618225 0
M  V30 12006 C 1160.35 3.60629 1.07814 0
M  V30 12007 C 1159.5 2.7705 0.117825 0
M  V30 12008 H 1162.45 1.53508 -0.402612 0
M  V30 12009 H 1162.47 3.5098 1.46947 0
M  V30 12010 H 1161.98 3.8678 -0.319808 0
M  V30 12011 H 1160.08 3.12378 2.03103 0
M  V30 12012 H 1160.19 4.68921 0.982339 0
M  V30 12013 H 1158.56 2.47125 0.616563 0
M  V30 12014 H 1159.34 3.33501 -0.814356 0
M  V30 12015 N 1161.79 -0.095206 1.57312 0
M  V30 12016 C 1163.03 -0.798719 1.86083 0
M  V30 12017 C 1163.36 -1.78739 0.766991 0
M  V30 12018 O 1162.62 -1.9423 -0.239425 0
M  V30 12019 C 1162.92 -1.56244 3.21438 0
M  V30 12020 C 1162.58 -0.715903 4.4518 0
M  V30 12021 C 1161.24 -0.482537 4.78774 0
M  V30 12022 C 1163.6 -0.127404 5.21044 0
M  V30 12023 C 1160.92 0.349193 5.8566 0
M  V30 12024 C 1163.28 0.691649 6.28808 0
M  V30 12025 C 1161.94 0.935107 6.60918 0
M  V30 12026 H 1161.21 -0.292272 0.680924 0
M  V30 12027 H 1163.86 -0.0602105 1.91405 0
M  V30 12028 H 1162.16 -2.37251 3.118 0
M  V30 12029 H 1163.86 -2.11116 3.40927 0
M  V30 12030 H 1160.45 -0.907902 4.18874 0
M  V30 12031 H 1164.63 -0.29486 4.95423 0
M  V30 12032 H 1159.89 0.546797 6.0895 0
M  V30 12033 H 1164.06 1.15452 6.86763 0
M  V30 12034 H 1161.69 1.58139 7.4357 0
M  V30 12035 N 1163.26 -1.53291 -0.366026 0
M  V30 12036 C 1164.19 -1.82675 -1.45437 0
M  V30 12037 C 1165.18 -0.680227 -1.55907 0
M  V30 12038 O 1166.36 -0.930032 -1.70482 0
M  V30 12039 C 1163.49 -2.01626 -2.8278 0
M  V30 12040 C 1162.44 -3.17391 -2.87135 0
M  V30 12041 C 1161.77 -3.21634 -4.27148 0
M  V30 12042 C 1163.07 -4.5599 -2.54697 0
M  V30 12043 H 1164.76 -2.73818 -1.21096 0
M  V30 12044 H 1162.31 -1.31754 -0.581108 0
M  V30 12045 H 1164.26 -2.20765 -3.58944 0
M  V30 12046 H 1162.99 -1.07193 -3.08508 0
M  V30 12047 H 1161.65 -2.98071 -2.13422 0
M  V30 12048 H 1161.29 -2.2484 -4.49951 0
M  V30 12049 H 1160.99 -3.99414 -4.30978 0
M  V30 12050 H 1162.52 -3.42957 -5.05186 0
M  V30 12051 H 1163.93 -4.75294 -3.20575 0
M  V30 12052 H 1162.33 -5.36008 -2.69844 0
M  V30 12053 H 1163.4 -4.61133 -1.49949 0
M  V30 12054 N 1164.74 0.6258 -1.44643 0
M  V30 12055 C 1165.67 1.74858 -1.54748 0
M  V30 12056 C 1166.65 1.65327 -0.400138 0
M  V30 12057 O 1167.84 1.84005 -0.620948 0
M  V30 12058 C 1164.97 3.13408 -1.49643 0
M  V30 12059 C 1163.92 3.37733 -2.62908 0
M  V30 12060 C 1163.25 4.76367 -2.42855 0
M  V30 12061 C 1164.55 3.29771 -4.05029 0
M  V30 12062 H 1166.24 1.66658 -2.48728 0
M  V30 12063 H 1163.79 0.800363 -1.19709 0
M  V30 12064 H 1165.74 3.91735 -1.55312 0
M  V30 12065 H 1164.47 3.22404 -0.521824 0
M  V30 12066 H 1163.12 2.61788 -2.56637 0
M  V30 12067 H 1162.77 4.82074 -1.43575 0
M  V30 12068 H 1162.47 4.936 -3.18799 0
M  V30 12069 H 1164 5.56917 -2.50351 0
M  V30 12070 H 1165.41 3.97996 -4.12641 0
M  V30 12071 H 1163.81 3.58538 -4.81218 0
M  V30 12072 H 1164.88 2.27493 -4.28223 0
M  V30 12073 N 1166.22 1.31629 0.866686 0
M  V30 12074 C 1167.47 1.21503 1.61998 0
M  V30 12075 C 1167.8 -0.226044 1.93182 0
M  V30 12076 O 1167.05 -1.17573 1.56445 0
M  V30 12077 C 1167.35 2.00775 2.95676 0
M  V30 12078 C 1167.02 3.50245 2.83971 0
M  V30 12079 C 1165.68 3.91 2.80485 0
M  V30 12080 C 1168.03 4.45347 2.70769 0
M  V30 12081 C 1165.36 5.25119 2.61661 0
M  V30 12082 C 1167.71 5.79595 2.53481 0
M  V30 12083 C 1166.37 6.19567 2.48381 0
M  V30 12084 H 1165.64 0.44461 0.592792 0
M  V30 12085 H 1168.29 1.62929 1.00629 0
M  V30 12086 H 1166.6 1.52039 3.61097 0
M  V30 12087 H 1168.29 1.90318 3.52959 0
M  V30 12088 H 1164.88 3.17869 2.87502 0
M  V30 12089 H 1169.07 4.14789 2.72514 0
M  V30 12090 H 1164.32 5.5516 2.5614 0
M  V30 12091 H 1168.5 6.5291 2.42243 0
M  V30 12092 H 1166.12 7.23434 2.33554 0
M  V30 12093 N 1167.7 -1.08142 1.14644 0
M  V30 12094 C 1168.95 -1.79959 0.910908 0
M  V30 12095 C 1169.26 -1.87296 -0.563866 0
M  V30 12096 O 1170.47 -2.55555 -0.916735 0
M  V30 12097 C 1168.92 -3.23351 1.58025 0
M  V30 12098 C 1168.53 -3.2424 3.09148 0
M  V30 12099 C 1170.28 -3.99834 1.42595 0
M  V30 12100 C 1168.18 -4.62236 3.68906 0
M  V30 12101 H 1167.11 -0.674423 0.33715 0
M  V30 12102 H 1169.76 -1.21441 1.37566 0
M  V30 12103 H 1168.15 -3.82013 1.04318 0
M  V30 12104 H 1169.32 -2.75269 3.69545 0
M  V30 12105 H 1167.63 -2.61253 3.24246 0
M  V30 12106 H 1170.23 -5.01809 1.8464 0
M  V30 12107 H 1170.57 -4.14631 0.372402 0
M  V30 12108 H 1171.11 -3.47648 1.93354 0
M  V30 12109 H 1167.85 -4.52642 4.74126 0
M  V30 12110 H 1167.37 -5.11477 3.1329 0
M  V30 12111 H 1169.05 -5.3121 3.69358 0
M  V30 12112 N 1169.18 -0.941978 -1.26351 0
M  V30 12113 C 1170.43 -0.585711 -1.93009 0
M  V30 12114 C 1170.74 0.879507 -1.74711 0
M  V30 12115 O 1171.95 1.34518 -2.35833 0
M  V30 12116 C 1170.4 -0.996787 -3.45821 0
M  V30 12117 C 1170.01 -2.48367 -3.72851 0
M  V30 12118 C 1171.75 -0.712452 -4.18479 0
M  V30 12119 C 1169.66 -2.83341 -5.19107 0
M  V30 12120 H 1168.59 -0.215342 -0.722595 0
M  V30 12121 H 1171.24 -1.14472 -1.43417 0
M  V30 12122 H 1169.62 -0.366295 -3.94302 0
M  V30 12123 H 1170.8 -3.16328 -3.35072 0
M  V30 12124 H 1169.11 -2.74139 -3.13427 0
M  V30 12125 H 1171.71 -0.95007 -5.26192 0
M  V30 12126 H 1172.05 0.350811 -4.14819 0
M  V30 12127 H 1172.59 -1.3027 -3.75865 0
M  V30 12128 H 1169.32 -3.88633 -5.27868 0
M  V30 12129 H 1168.84 -2.20043 -5.5798 0
M  V30 12130 H 1170.52 -2.71849 -5.87118 0
M  V30 12131 N 1170.66 1.40747 -0.709091 0
M  V30 12132 C 1171.62 2.29118 -0.0611607 0
M  V30 12133 C 1172.62 1.45049 0.694081 0
M  V30 12134 O 1173.81 1.66039 0.526952 0
M  V30 12135 C 1170.94 3.28154 0.923447 0
M  V30 12136 H 1172.13 2.87913 -0.839413 0
M  V30 12137 H 1169.69 1.4896 -0.473363 0
M  V30 12138 H 1170.42 2.74366 1.72899 0
M  V30 12139 H 1170.21 3.90207 0.384862 0
M  V30 12140 H 1171.7 3.94343 1.37417 0
M  V30 12141 N 1172.13 0.454803 1.50895 0
M  V30 12142 C 1173.08 -0.361974 2.29766 0
M  V30 12143 C 1174.08 -1.00519 1.36353 0
M  V30 12144 O 1175.28 -0.938159 1.53618 0
M  V30 12145 H 1171.66 -0.135559 0.739681 0
M  V30 12146 H 1173.63 0.323853 2.96637 0
M  V30 12147 C 1172.38 -1.44078 3.16444 0
M  V30 12148 H 1171.7 -0.955212 3.88221 0
M  V30 12149 H 1173.14 -1.98518 3.74655 0
M  V30 12150 C 1171.6 -2.43374 2.32961 0
M  V30 12151 O 1172.13 -3.48295 2.00133 0
M  V30 12152 N 1170.33 -2.14689 1.95849 0
M  V30 12153 H 1169.88 -1.29392 2.22745 0
M  V30 12154 H 1169.84 -2.81363 1.40292 0
M  V30 12155 N 1173.61 -1.56489 0.186789 0
M  V30 12156 C 1174.86 -1.96517 -0.45433 0
M  V30 12157 C 1175.17 -1.07618 -1.63333 0
M  V30 12158 O 1176.38 -1.37392 -2.3417 0
M  V30 12159 C 1174.84 -3.49482 -0.859685 0
M  V30 12160 C 1174.44 -4.47031 0.294572 0
M  V30 12161 C 1176.19 -3.98296 -1.46835 0
M  V30 12162 C 1174.09 -5.91254 -0.131279 0
M  V30 12163 H 1173.02 -0.733765 -0.17351 0
M  V30 12164 H 1175.68 -1.8139 0.277485 0
M  V30 12165 H 1174.06 -3.60082 -1.64793 0
M  V30 12166 H 1175.23 -4.48156 1.07205 0
M  V30 12167 H 1173.55 -4.08362 0.814197 0
M  V30 12168 H 1176.14 -5.03518 -1.79928 0
M  V30 12169 H 1176.49 -3.42123 -2.37186 0
M  V30 12170 H 1177.02 -3.90776 -0.744247 0
M  V30 12171 H 1173.76 -6.51334 0.737839 0
M  V30 12172 H 1173.28 -5.93401 -0.873786 0
M  V30 12173 H 1174.96 -6.44485 -0.569913 0
M  V30 12174 N 1175.09 0.086862 -1.5736 0
M  V30 12175 C 1176.5 0.640442 -1.75372 0
M  V30 12176 C 1176.85 1.78693 -0.81014 0
M  V30 12177 O 1175.98 2.16398 0.00940712 0
M  V30 12178 C 1176.57 1.16856 -3.1801 0
M  V30 12179 C 1175.13 1.66813 -3.37417 0
M  V30 12180 C 1174.28 0.58116 -2.71142 0
M  V30 12181 H 1177.23 -0.139249 -1.58088 0
M  V30 12182 H 1177.25 2.03772 -3.21337 0
M  V30 12183 H 1176.76 0.333909 -3.86661 0
M  V30 12184 H 1174.86 2.52652 -2.73858 0
M  V30 12185 H 1174.98 1.75545 -4.45781 0
M  V30 12186 H 1173.34 1.0226 -2.3327 0
M  V30 12187 H 1174.12 -0.243047 -3.42439 0
M  V30 12188 N 1176.57 1.53483 0.357892 0
M  V30 12189 C 1177.5 1.83444 1.44466 0
M  V30 12190 C 1178.48 0.688486 1.55544 0
M  V30 12191 O 1179.66 0.93906 1.69986 0
M  V30 12192 C 1176.79 2.03122 2.81707 0
M  V30 12193 C 1175.75 3.1891 2.85448 0
M  V30 12194 C 1175.07 3.23895 4.25436 0
M  V30 12195 C 1176.37 4.57334 2.52275 0
M  V30 12196 H 1178.07 2.74456 1.19642 0
M  V30 12197 H 1175.61 1.3206 0.574112 0
M  V30 12198 H 1177.57 2.22666 3.57768 0
M  V30 12199 H 1176.29 1.08827 3.07935 0
M  V30 12200 H 1174.95 2.99199 2.11838 0
M  V30 12201 H 1174.6 2.27223 4.48753 0
M  V30 12202 H 1174.3 4.01694 4.28854 0
M  V30 12203 H 1175.82 3.45632 5.0336 0
M  V30 12204 H 1177.24 4.76988 3.1805 0
M  V30 12205 H 1175.63 5.37431 2.66998 0
M  V30 12206 H 1176.7 4.61921 1.47501 0
M  V30 12207 N 1178.05 -0.61812 1.44973 0
M  V30 12208 C 1179.46 -1.19994 1.43033 0
M  V30 12209 C 1179.81 -1.95607 0.152422 0
M  V30 12210 O 1178.93 -2.03114 -0.746571 0
M  V30 12211 C 1179.53 -2.18269 2.59122 0
M  V30 12212 C 1178.09 -2.7185 2.60336 0
M  V30 12213 C 1177.23 -1.4707 2.35086 0
M  V30 12214 H 1180.18 -0.408034 1.53365 0
M  V30 12215 H 1180.21 -3.01113 2.32619 0
M  V30 12216 H 1179.72 -1.63208 3.52115 0
M  V30 12217 H 1177.82 -3.30878 1.7132 0
M  V30 12218 H 1177.93 -3.17001 3.59231 0
M  V30 12219 H 1176.3 -1.75658 1.84435 0
M  V30 12220 H 1177.08 -0.938928 3.30211 0
M  V30 12221 N 1179.52 -1.32087 -0.859693 0
M  V30 12222 C 1180.45 -1.23204 -1.98351 0
M  V30 12223 C 1181.43 -0.116974 -1.69697 0
M  V30 12224 O 1182.62 -0.303301 -1.91817 0
M  V30 12225 C 1179.75 -0.949171 -3.34078 0
M  V30 12226 C 1178.7 -2.02493 -3.77069 0
M  V30 12227 C 1178.03 -1.59455 -5.1037 0
M  V30 12228 C 1179.33 -3.43934 -3.93074 0
M  V30 12229 H 1181.02 -2.17227 -2.0604 0
M  V30 12230 H 1178.57 -1.04577 -0.989931 0
M  V30 12231 H 1180.52 -0.873594 -4.12245 0
M  V30 12232 H 1179.25 0.0267095 -3.26589 0
M  V30 12233 H 1177.91 -2.09057 -3.01149 0
M  V30 12234 H 1177.55 -0.606256 -4.99333 0
M  V30 12235 H 1177.25 -2.31429 -5.40106 0
M  V30 12236 H 1178.78 -1.53325 -5.91036 0
M  V30 12237 H 1180.19 -3.39986 -4.61608 0
M  V30 12238 H 1178.59 -4.14214 -4.3422 0
M  V30 12239 H 1179.66 -3.83965 -2.9614 0
M  V30 12240 N 1181 1.07532 -1.15215 0
M  V30 12241 C 1182.25 1.79737 -0.924062 0
M  V30 12242 C 1182.57 1.87072 0.550356 0
M  V30 12243 O 1181.84 1.37029 1.4 0
M  V30 12244 H 1180.42 0.665704 -0.338891 0
M  V30 12245 H 1183.08 1.29961 -1.45245 0
M  V30 12246 H 1182.18 2.82256 -1.33184 0
M  V30 12247 N 1182.48 0.948665 1.2585 0
M  V30 12248 C 1183.71 0.617229 1.97479 0
M  V30 12249 C 1184.12 -0.809406 1.7057 0
M  V30 12250 O 1183.48 -1.54066 0.97826 0
M  V30 12251 C 1183.53 0.859065 3.51144 0
M  V30 12252 O 1183.25 2.2296 3.77121 0
M  V30 12253 C 1184.75 0.539197 4.40009 0
M  V30 12254 H 1181.97 0.231933 0.629641 0
M  V30 12255 H 1184.52 1.27141 1.60173 0
M  V30 12256 H 1182.67 0.25138 3.86584 0
M  V30 12257 H 1183.09 2.29524 4.71613 0
M  V30 12258 H 1184.56 0.758986 5.46757 0
M  V30 12259 H 1185.04 -0.526062 4.36038 0
M  V30 12260 H 1185.64 1.12594 4.10125 0
M  V30 12261 N 1183.96 -1.40369 0.716545 0
M  V30 12262 C 1185.2 -2.01167 0.256846 0
M  V30 12263 C 1185.54 -1.56689 -1.14727 0
M  V30 12264 O 1184.81 -0.787384 -1.7785 0
M  V30 12265 C 1185.1 -3.58511 0.337963 0
M  V30 12266 C 1184.95 -4.13059 1.78052 0
M  V30 12267 C 1186.27 -4.39142 -0.290295 0
M  V30 12268 H 1183.39 -0.730877 0.0948028 0
M  V30 12269 H 1186.03 -1.66833 0.909225 0
M  V30 12270 H 1184.18 -3.87891 -0.217482 0
M  V30 12271 H 1185.85 -3.94472 2.39143 0
M  V30 12272 H 1184.09 -3.67311 2.30793 0
M  V30 12273 H 1184.76 -5.22217 1.78867 0
M  V30 12274 H 1187.24 -4.15697 0.182987 0
M  V30 12275 H 1186.12 -5.48524 -0.203097 0
M  V30 12276 H 1186.38 -4.20209 -1.37394 0
M  V30 12277 N 1185.44 -0.462799 -1.50652 0
M  V30 12278 C 1186.66 0.0929761 -2.06691 0
M  V30 12279 C 1187.08 1.34241 -1.32758 0
M  V30 12280 O 1186.44 1.78187 -0.394427 0
M  V30 12281 C 1186.49 0.389492 -3.59396 0
M  V30 12282 O 1186.21 -0.810379 -4.3054 0
M  V30 12283 C 1187.71 0.993147 -4.32032 0
M  V30 12284 H 1184.93 -0.00338664 -0.670991 0
M  V30 12285 H 1187.47 -0.649201 -1.93922 0
M  V30 12286 H 1185.63 1.08159 -3.71995 0
M  V30 12287 H 1186.04 -0.54996 -5.21609 0
M  V30 12288 H 1187.52 1.15044 -5.39878 0
M  V30 12289 H 1187.99 1.98106 -3.91983 0
M  V30 12290 H 1188.6 0.339677 -4.23941 0
M  V30 12291 N 1186.91 1.56388 -0.195085 0
M  V30 12292 C 1188.16 1.96755 0.443901 0
M  V30 12293 C 1188.48 1.08483 1.6276 0
M  V30 12294 O 1189.68 1.38632 2.33438 0
M  V30 12295 C 1188.14 3.49933 0.841139 0
M  V30 12296 C 1187.75 4.46868 -0.318275 0
M  V30 12297 C 1189.49 3.99069 1.44721 0
M  V30 12298 C 1187.4 5.91316 0.0999211 0
M  V30 12299 H 1186.33 0.734674 0.169616 0
M  V30 12300 H 1188.98 1.8124 -0.287101 0
M  V30 12301 H 1187.36 3.60951 1.62881 0
M  V30 12302 H 1188.53 4.47581 -1.0958 0
M  V30 12303 H 1186.85 4.07925 -0.835842 0
M  V30 12304 H 1189.45 5.04465 1.77255 0
M  V30 12305 H 1189.79 3.43376 2.35369 0
M  V30 12306 H 1190.32 3.91165 0.723513 0
M  V30 12307 H 1187.06 6.50934 -0.77237 0
M  V30 12308 H 1186.58 5.93856 0.842304 0
M  V30 12309 H 1188.26 6.44778 0.535726 0
M  V30 12310 N 1188.39 -0.0785156 1.57404 0
M  V30 12311 C 1189.32 -1.09446 2.06262 0
M  V30 12312 C 1190.3 -1.40777 0.954772 0
M  V30 12313 O 1191.49 -1.5052 1.22708 0
M  V30 12314 C 1188.62 -2.40979 2.50093 0
M  V30 12315 C 1187.57 -2.24017 3.64692 0
M  V30 12316 C 1186.9 -3.60873 3.94556 0
M  V30 12317 C 1188.2 -1.66696 4.94985 0
M  V30 12318 H 1189.89 -0.687928 2.9139 0
M  V30 12319 H 1187.44 -0.329466 1.4018 0
M  V30 12320 H 1189.39 -3.12337 2.82884 0
M  V30 12321 H 1188.12 -2.83599 1.61985 0
M  V30 12322 H 1186.77 -1.55101 3.32174 0
M  V30 12323 H 1186.42 -4.01051 3.0359 0
M  V30 12324 H 1186.12 -3.50365 4.71718 0
M  V30 12325 H 1187.65 -4.33673 4.29837 0
M  V30 12326 H 1189.06 -2.27913 5.2605 0
M  V30 12327 H 1187.46 -1.66902 5.76423 0
M  V30 12328 H 1188.53 -0.627827 4.80818 0
M  V30 12329 N 1189.87 -1.5367 -0.349747 0
M  V30 12330 C 1191.11 -1.72329 -1.09919 0
M  V30 12331 C 1191.47 -0.473178 -1.86078 0
M  V30 12332 O 1192.68 -0.53669 -2.63388 0
M  V30 12333 C 1190.95 -2.94817 -2.02034 0
M  V30 12334 S 1192.51 -3.34257 -2.84285 0
M  V30 12335 H 1189.32 -0.606225 -0.3715 0
M  V30 12336 H 1191.93 -1.91803 -0.378399 0
M  V30 12337 H 1190.63 -3.83979 -1.44874 0
M  V30 12338 H 1190.16 -2.7779 -2.78561 0
M  V30 12339 H 1192.18 -2.87506 -4.04419 0
M  V30 12340 N 1191.35 0.610423 -1.45298 0
M  V30 12341 C 1192.6 1.36558 -1.48441 0
M  V30 12342 C 1192.91 1.95173 -0.129137 0
M  V30 12343 O 1194.12 2.71473 -0.0381956 0
M  V30 12344 C 1192.57 2.47349 -2.61431 0
M  V30 12345 C 1192.18 1.95158 -4.03258 0
M  V30 12346 C 1193.92 3.24383 -2.73817 0
M  V30 12347 C 1191.83 3.03414 -5.07635 0
M  V30 12348 H 1190.76 0.513253 -0.552347 0
M  V30 12349 H 1193.41 0.654535 -1.7143 0
M  V30 12350 H 1191.79 3.21125 -2.31721 0
M  V30 12351 H 1192.97 1.2811 -4.42634 0
M  V30 12352 H 1191.28 1.30878 -3.95297 0
M  V30 12353 H 1193.88 4.05123 -3.48969 0
M  V30 12354 H 1194.22 3.75205 -1.80352 0
M  V30 12355 H 1194.76 2.57705 -3.03039 0
M  V30 12356 H 1191.5 2.57512 -6.028 0
M  V30 12357 H 1191.02 3.69039 -4.72833 0
M  V30 12358 H 1192.69 3.67844 -5.32259 0
M  V30 12359 N 1192.83 1.32541 0.852676 0
M  V30 12360 C 1194.1 1.1383 1.59067 0
M  V30 12361 C 1194.48 -0.300584 2.08949 0
M  V30 12362 O 1193.83 -1.29751 1.88088 0
M  V30 12363 C 1194.04 2.16758 2.73527 0
M  V30 12364 C 1195.39 2.50194 3.43057 0
M  V30 12365 O 1196.41 2.15319 2.83754 0
M  V30 12366 O 1195.27 3.09985 4.50079 0
M  V30 12367 H 1192.37 0.439379 0.700625 0
M  V30 12368 H 1194.91 1.44078 0.896632 0
M  V30 12369 H 1193.68 3.13469 2.34207 0
M  V30 12370 H 1193.31 1.87515 3.50605 0
M  V30 12371 N 1194.3 -1.0692 1.15784 0
M  V30 12372 C 1195.23 -2.16216 0.881649 0
M  V30 12373 C 1196.22 -1.69253 -0.16951 0
M  V30 12374 O 1197.4 -1.94186 -0.0229511 0
M  V30 12375 C 1194.53 -3.4527 0.374982 0
M  V30 12376 C 1193.48 -4.05706 1.36332 0
M  V30 12377 C 1192.81 -5.29894 0.715317 0
M  V30 12378 C 1194.11 -4.45224 2.7308 0
M  V30 12379 H 1195.8 -2.39577 1.79563 0
M  V30 12380 H 1193.35 -1.15141 0.864784 0
M  V30 12381 H 1195.3 -4.2106 0.169279 0
M  V30 12382 H 1194.03 -3.21508 -0.574485 0
M  V30 12383 H 1192.69 -3.31965 1.55546 0
M  V30 12384 H 1192.33 -5.02425 -0.240436 0
M  V30 12385 H 1192.03 -5.71287 1.37494 0
M  V30 12386 H 1193.56 -6.08386 0.519489 0
M  V30 12387 H 1194.97 -5.12124 2.57686 0
M  V30 12388 H 1193.37 -4.97583 3.35457 0
M  V30 12389 H 1194.44 -3.56384 3.28813 0
M  V30 12390 N 1195.78 -0.955326 -1.25345 0
M  V30 12391 C 1197.03 -0.609278 -1.92697 0
M  V30 12392 C 1197.35 0.856535 -1.75181 0
M  V30 12393 O 1196.62 1.61013 -1.11587 0
M  V30 12394 H 1195.2 -0.22235 -0.713141 0
M  V30 12395 H 1197.86 -1.21372 -1.52496 0
M  V30 12396 H 1196.96 -0.839198 -3.00606 0
M  V30 12397 N 1197.26 1.39987 -0.723979 0
M  V30 12398 C 1198.49 2.05037 -0.27702 0
M  V30 12399 C 1198.9 1.54565 1.08421 0
M  V30 12400 O 1198.26 0.705795 1.683 0
M  V30 12401 C 1198.31 3.60582 -0.25751 0
M  V30 12402 O 1198.03 4.09194 -1.565 0
M  V30 12403 C 1199.53 4.42817 0.206972 0
M  V30 12404 H 1196.75 0.659637 -0.122963 0
M  V30 12405 H 1199.3 1.7924 -0.98454 0
M  V30 12406 H 1197.45 3.85319 0.401037 0
M  V30 12407 H 1197.87 5.03447 -1.47112 0
M  V30 12408 H 1199.34 5.5174 0.16947 0
M  V30 12409 H 1199.82 4.21023 1.25045 0
M  V30 12410 H 1200.42 4.23205 -0.421604 0
M  V30 12411 N 1198.74 0.470782 1.50404 0
M  V30 12412 C 1200.02 -0.145879 1.95055 0
M  V30 12413 C 1200.4 -1.57004 1.41114 0
M  V30 12414 O 1199.74 -2.20152 0.612006 0
M  V30 12415 C 1199.95 -0.0895071 3.48885 0
M  V30 12416 C 1201.3 -0.278548 4.23685 0
M  V30 12417 O 1202.33 -0.166105 3.55812 0
M  V30 12418 O 1201.19 -0.505606 5.44156 0
M  V30 12419 H 1198.28 -0.111838 0.819403 0
M  V30 12420 H 1200.83 0.531162 1.61173 0
M  V30 12421 H 1199.6 0.904836 3.80695 0
M  V30 12422 H 1199.22 -0.808019 3.89303 0
M  V30 12423 N 1200.22 -1.56282 0.203376 0
M  V30 12424 C 1201.15 -2.15395 -0.753684 0
M  V30 12425 C 1202.13 -1.09303 -1.20381 0
M  V30 12426 O 1203.31 -1.37461 -1.28984 0
M  V30 12427 C 1200.44 -2.71954 -2.01888 0
M  V30 12428 C 1199.49 -3.9071 -1.71021 0
M  V30 12429 S 1200.32 -5.28695 -0.850999 0
M  V30 12430 C 1201.47 -5.88681 -2.12615 0
M  V30 12431 H 1201.71 -2.96237 -0.251196 0
M  V30 12432 H 1199.24 -1.54396 -0.0117238 0
M  V30 12433 H 1201.2 -3.05183 -2.74542 0
M  V30 12434 H 1199.86 -1.91138 -2.49249 0
M  V30 12435 H 1199.05 -4.28723 -2.64977 0
M  V30 12436 H 1198.65 -3.58533 -1.06442 0
M  V30 12437 H 1200.95 -6.03548 -3.07792 0
M  V30 12438 H 1201.89 -6.85096 -1.79021 0
M  V30 12439 H 1202.3 -5.17356 -2.2584 0
M  V30 12440 N 1201.7 0.070167 -1.57444 0
M  V30 12441 C 1202.94 0.770153 -1.87607 0
M  V30 12442 C 1203.27 1.77143 -0.795875 0
M  V30 12443 O 1202.55 1.93533 0.193674 0
M  V30 12444 C 1202.83 1.47668 -3.2843 0
M  V30 12445 C 1202.69 0.491712 -4.47104 0
M  V30 12446 C 1204 2.42118 -3.67514 0
M  V30 12447 H 1201.12 0.278519 -0.682346 0
M  V30 12448 H 1203.77 0.0333184 -1.89971 0
M  V30 12449 H 1201.92 2.10476 -3.26546 0
M  V30 12450 H 1203.59 -0.131283 -4.61113 0
M  V30 12451 H 1201.83 -0.192817 -4.33371 0
M  V30 12452 H 1202.5 1.02372 -5.42424 0
M  V30 12453 H 1204.98 1.89387 -3.70502 0
M  V30 12454 H 1203.85 2.88556 -4.66933 0
M  V30 12455 H 1204.11 3.26995 -2.97534 0
M  V30 12456 N 1203.17 1.53854 0.341593 0
M  V30 12457 C 1204.58 1.62623 0.917093 0
M  V30 12458 C 1204.94 0.508781 1.89488 0
M  V30 12459 O 1204.06 -0.361171 2.13365 0
M  V30 12460 C 1204.66 2.94775 1.67012 0
M  V30 12461 C 1203.21 3.058 2.19461 0
M  V30 12462 C 1202.36 2.58082 1.01433 0
M  V30 12463 H 1205.31 1.58248 0.119674 0
M  V30 12464 H 1205.33 2.83924 2.53313 0
M  V30 12465 H 1204.85 3.76085 0.958221 0
M  V30 12466 H 1202.95 2.29128 2.93821 0
M  V30 12467 H 1203.06 4.11302 2.45698 0
M  V30 12468 H 1201.42 2.13537 1.38831 0
M  V30 12469 H 1202.21 3.41833 0.317033 0
M  V30 12470 N 1204.65 -0.602709 1.4562 0
M  V30 12471 C 1205.61 -1.69508 1.54271 0
M  V30 12472 C 1206.61 -1.55171 0.421727 0
M  V30 12473 O 1207.8 -1.60151 0.685375 0
M  V30 12474 C 1204.94 -3.0881 1.44392 0
M  V30 12475 H 1206.13 -1.63203 2.51605 0
M  V30 12476 H 1203.68 -0.818857 1.33133 0
M  V30 12477 H 1204.42 -3.20689 0.482614 0
M  V30 12478 H 1204.2 -3.20625 2.25704 0
M  V30 12479 H 1205.69 -3.8837 1.53488 0
M  V30 12480 N 1206.13 -1.32992 -0.845635 0
M  V30 12481 C 1207.38 -1.23415 -1.59536 0
M  V30 12482 C 1207.69 0.200278 -1.94572 0
M  V30 12483 O 1208.9 0.417993 -2.68263 0
M  V30 12484 C 1207.35 -2.16207 -2.8772 0
M  V30 12485 C 1206.96 -3.64782 -2.60073 0
M  V30 12486 C 1208.71 -2.15488 -3.65739 0
M  V30 12487 C 1206.61 -4.49508 -3.84313 0
M  V30 12488 H 1205.54 -0.458366 -0.598679 0
M  V30 12489 H 1208.19 -1.58012 -0.932981 0
M  V30 12490 H 1206.58 -1.74535 -3.55462 0
M  V30 12491 H 1207.75 -4.14852 -2.00585 0
M  V30 12492 H 1206.06 -3.67723 -1.95369 0
M  V30 12493 H 1208.66 -2.76021 -4.57948 0
M  V30 12494 H 1209 -1.14818 -4.00153 0
M  V30 12495 H 1209.54 -2.55487 -3.04912 0
M  V30 12496 H 1206.28 -5.51027 -3.55035 0
M  V30 12497 H 1205.8 -4.04185 -4.43165 0
M  V30 12498 H 1207.48 -4.62969 -4.51961 0
M  V30 12499 N 1207.61 1.06304 -1.1635 0
M  V30 12500 C 1208.83 1.83338 -0.969639 0
M  V30 12501 C 1209.26 1.81945 0.477231 0
M  V30 12502 O 1208.62 1.22018 1.34094 0
M  V30 12503 C 1208.66 3.2785 -1.50155 0
M  V30 12504 O 1207.77 4.06281 -0.707805 0
M  V30 12505 H 1207.11 0.567293 -0.345072 0
M  V30 12506 H 1209.64 1.34033 -1.54584 0
M  V30 12507 H 1209.65 3.7867 -1.51898 0
M  V30 12508 H 1208.32 3.28179 -2.55483 0
M  V30 12509 H 1206.9 3.65055 -0.760872 0
M  V30 12510 N 1209.09 0.96196 1.24836 0
M  V30 12511 C 1210.02 0.506241 2.27946 0
M  V30 12512 C 1211 -0.451183 1.64007 0
M  V30 12513 O 1212.18 -0.348552 1.91046 0
M  V30 12514 C 1209.31 -0.209846 3.46665 0
M  V30 12515 C 1208.27 0.663035 4.22833 0
M  V30 12516 C 1207.59 -0.184216 5.34383 0
M  V30 12517 C 1208.89 1.94479 4.84742 0
M  V30 12518 H 1210.59 1.36805 2.66317 0
M  V30 12519 H 1208.13 0.65926 1.28023 0
M  V30 12520 H 1210.08 -0.539838 4.17928 0
M  V30 12521 H 1208.81 -1.10596 3.07305 0
M  V30 12522 H 1207.47 0.976216 3.53363 0
M  V30 12523 H 1207.12 -1.08031 4.91262 0
M  V30 12524 H 1206.82 0.39657 5.8626 0
M  V30 12525 H 1208.34 -0.509009 6.08475 0
M  V30 12526 H 1209.75 1.68074 5.48109 0
M  V30 12527 H 1208.15 2.47183 5.46828 0
M  V30 12528 H 1209.22 2.64332 4.06517 0
M  V30 12529 N 1210.56 -1.39601 0.731392 0
M  V30 12530 C 1211.53 -2.28992 0.0976037 0
M  V30 12531 C 1212.53 -1.46135 -0.670917 0
M  V30 12532 O 1213.72 -1.66856 -0.50047 0
M  V30 12533 C 1210.85 -3.29582 -0.871124 0
M  V30 12534 H 1212.04 -2.86541 0.885112 0
M  V30 12535 H 1209.59 -1.48188 0.497002 0
M  V30 12536 H 1210.33 -2.77082 -1.68512 0
M  V30 12537 H 1210.11 -3.9077 -0.322735 0
M  V30 12538 H 1211.6 -3.96479 -1.31126 0
M  V30 12539 N 1212.04 -0.478751 -1.50152 0
M  V30 12540 C 1213.27 0.0709455 -2.06478 0
M  V30 12541 C 1213.68 1.33376 -1.34192 0
M  V30 12542 O 1213.02 1.79133 -0.40707 0
M  V30 12543 C 1213.09 0.417322 -3.5707 0
M  V30 12544 C 1212.75 -0.744563 -4.50894 0
M  V30 12545 C 1213.75 -1.62879 -4.93727 0
M  V30 12546 C 1211.43 -0.937062 -4.93482 0
M  V30 12547 C 1213.43 -2.68985 -5.77863 0
M  V30 12548 C 1211.11 -2.00134 -5.77399 0
M  V30 12549 C 1212.11 -2.87609 -6.19492 0
M  V30 12550 O 1211.8 -3.92203 -7.01735 0
M  V30 12551 H 1211.53 -0.00720177 -0.675962 0
M  V30 12552 H 1214.08 -0.668797 -1.94207 0
M  V30 12553 H 1212.31 1.21036 -3.6727 0
M  V30 12554 H 1214 0.903002 -3.95728 0
M  V30 12555 H 1214.77 -1.49179 -4.61488 0
M  V30 12556 H 1210.65 -0.265636 -4.60234 0
M  V30 12557 H 1214.19 -3.37293 -6.10639 0
M  V30 12558 H 1210.09 -2.13837 -6.09052 0
M  V30 12559 H 1210.86 -3.89284 -7.2 0
M  V30 12560 N 1213.52 1.56172 -0.211661 0
M  V30 12561 C 1214.43 2.23468 0.714081 0
M  V30 12562 C 1215.45 1.23908 1.22159 0
M  V30 12563 O 1216.62 1.56693 1.26528 0
M  V30 12564 C 1213.69 2.89375 1.90953 0
M  V30 12565 C 1212.75 4.04251 1.44497 0
M  V30 12566 C 1211.98 4.67006 2.58343 0
M  V30 12567 O 1212.2 4.28721 3.76237 0
M  V30 12568 O 1211.14 5.56177 2.3011 0
M  V30 12569 H 1214.96 3.03219 0.170862 0
M  V30 12570 H 1212.55 1.49389 0.0183607 0
M  V30 12571 H 1214.43 3.3101 2.60787 0
M  V30 12572 H 1213.11 2.12591 2.44104 0
M  V30 12573 H 1212.01 3.67205 0.714932 0
M  V30 12574 H 1213.35 4.82748 0.959947 0
M  V30 12575 N 1215 -0.0618163 1.57479 0
M  V30 12576 C 1215.96 -1.05684 2.0338 0
M  V30 12577 C 1216.96 -1.31006 0.932423 0
M  V30 12578 O 1218.15 -1.26559 1.19702 0
M  V30 12579 C 1215.28 -2.39805 2.42294 0
M  V30 12580 H 1216.48 -0.661006 2.92525 0
M  V30 12581 H 1214.03 -0.307814 1.53239 0
M  V30 12582 H 1214.76 -2.84201 1.56207 0
M  V30 12583 H 1214.55 -2.22764 3.22674 0
M  V30 12584 H 1216.04 -3.11307 2.78349 0
M  V30 12585 N 1216.48 -1.54033 -0.333429 0
M  V30 12586 C 1217.44 -1.82021 -1.39288 0
M  V30 12587 C 1218.44 -0.691623 -1.45166 0
M  V30 12588 O 1219.63 -0.959925 -1.45365 0
M  V30 12589 C 1216.76 -1.97136 -2.78119 0
M  V30 12590 H 1217.95 -2.76671 -1.1573 0
M  V30 12591 H 1215.51 -1.45599 -0.568376 0
M  V30 12592 H 1216.24 -1.04663 -3.06946 0
M  V30 12593 H 1216.03 -2.79251 -2.75247 0
M  V30 12594 H 1217.52 -2.20271 -3.54782 0
M  V30 12595 N 1217.95 0.594978 -1.45938 0
M  V30 12596 C 1218.86 1.73296 -1.58132 0
M  V30 12597 C 1219.88 1.67665 -0.465245 0
M  V30 12598 O 1221.06 1.87794 -0.727684 0
M  V30 12599 C 1218.12 3.09783 -1.55677 0
M  V30 12600 C 1217.18 3.26772 -2.78422 0
M  V30 12601 C 1216.42 4.56748 -2.76075 0
M  V30 12602 O 1216.64 5.39867 -1.84119 0
M  V30 12603 O 1215.57 4.76721 -3.67452 0
M  V30 12604 H 1219.4 1.65957 -2.54346 0
M  V30 12605 H 1216.98 0.760572 -1.28591 0
M  V30 12606 H 1218.87 3.91077 -1.56961 0
M  V30 12607 H 1217.54 3.17585 -0.626191 0
M  V30 12608 H 1216.45 2.45018 -2.82696 0
M  V30 12609 H 1217.78 3.23853 -3.70648 0
M  V30 12610 N 1219.43 1.33438 0.838571 0
M  V30 12611 C 1220.66 1.28097 1.63113 0
M  V30 12612 C 1221.08 -0.145197 1.87539 0
M  V30 12613 O 1220.44 -1.10191 1.43971 0
M  V30 12614 C 1220.49 2.06201 2.95827 0
M  V30 12615 O 1219.59 1.42082 3.87152 0
M  V30 12616 H 1218.93 0.440685 0.496681 0
M  V30 12617 H 1221.46 1.76004 1.04325 0
M  V30 12618 H 1221.47 2.16977 3.45521 0
M  V30 12619 H 1220.15 3.099 2.77371 0
M  V30 12620 H 1218.73 1.39953 3.45641 0
M  V30 12621 N 1220.91 -1.05686 1.16912 0
M  V30 12622 C 1222.19 -1.7546 0.864483 0
M  V30 12623 C 1222.57 -2.0128 -0.636359 0
M  V30 12624 O 1221.92 -1.64485 -1.58609 0
M  V30 12625 C 1222.13 -3.05134 1.69395 0
M  V30 12626 C 1223.47 -3.79176 1.91079 0
M  V30 12627 O 1224.5 -3.1499 1.66312 0
M  V30 12628 O 1223.36 -4.94496 2.32671 0
M  V30 12629 H 1220.45 -0.762748 0.319601 0
M  V30 12630 H 1223 -1.11899 1.27581 0
M  V30 12631 H 1221.77 -2.82063 2.71212 0
M  V30 12632 H 1221.39 -3.76431 1.28007 0
M  V30 12633 N 1222.39 -0.968567 -1.24324 0
M  V30 12634 C 1223.64 -0.626519 -1.91723 0
M  V30 12635 C 1223.95 0.84225 -1.76538 0
M  V30 12636 O 1225.16 1.29486 -2.38633 0
M  V30 12637 C 1223.61 -1.06992 -3.43629 0
M  V30 12638 C 1223.22 -2.5622 -3.67499 0
M  V30 12639 C 1224.96 -0.801057 -4.16873 0
M  V30 12640 C 1222.87 -2.94288 -5.1298 0
M  V30 12641 H 1221.8 -0.23062 -0.717865 0
M  V30 12642 H 1224.45 -1.17489 -1.40956 0
M  V30 12643 H 1222.83 -0.44985 -3.93437 0
M  V30 12644 H 1224.01 -3.23364 -3.28287 0
M  V30 12645 H 1222.32 -2.80726 -3.07542 0
M  V30 12646 H 1224.92 -1.06147 -5.24058 0
M  V30 12647 H 1225.26 0.262742 -4.1547 0
M  V30 12648 H 1225.8 -1.38213 -3.73017 0
M  V30 12649 H 1222.54 -3.99743 -5.19506 0
M  V30 12650 H 1222.06 -2.31829 -5.53187 0
M  V30 12651 H 1223.73 -2.84242 -5.81219 0
M  V30 12652 N 1223.87 1.39211 -0.738786 0
M  V30 12653 C 1224.8 2.28145 -0.0499733 0
M  V30 12654 C 1225.78 1.44592 0.743776 0
M  V30 12655 O 1226.96 1.73978 0.725536 0
M  V30 12656 C 1224.09 3.255 0.93634 0
M  V30 12657 C 1223.13 4.25876 0.230621 0
M  V30 12658 S 1223.97 5.24942 -1.0581 0
M  V30 12659 C 1225.12 6.25856 -0.0744844 0
M  V30 12660 H 1225.36 2.86218 -0.804163 0
M  V30 12661 H 1222.89 1.44991 -0.53074 0
M  V30 12662 H 1224.85 3.82109 1.50011 0
M  V30 12663 H 1223.51 2.66439 1.66339 0
M  V30 12664 H 1222.7 4.94438 0.977075 0
M  V30 12665 H 1222.3 3.73087 -0.261216 0
M  V30 12666 H 1224.6 6.73172 0.764616 0
M  V30 12667 H 1225.54 7.04354 -0.727354 0
M  V30 12668 H 1225.95 5.63704 0.299605 0
M  V30 12669 N 1225.34 0.486708 1.49896 0
M  V30 12670 C 1226.29 -0.299294 2.28851 0
M  V30 12671 C 1227.26 -0.973251 1.346 0
M  V30 12672 O 1228.45 -0.982678 1.63548 0
M  V30 12673 C 1225.59 -1.36624 3.16904 0
M  V30 12674 C 1224.7 -0.705492 4.262 0
M  V30 12675 C 1223.83 -1.75165 5.01488 0
M  V30 12676 C 1222.87 -1.072 6.0264 0
M  V30 12677 N 1222.01 -2.06172 6.71147 0
M  V30 12678 H 1226.85 0.380272 2.95564 0
M  V30 12679 H 1224.39 0.199377 1.45743 0
M  V30 12680 H 1226.35 -1.99666 3.66319 0
M  V30 12681 H 1224.98 -2.01476 2.52205 0
M  V30 12682 H 1224.03 0.0378757 3.80381 0
M  V30 12683 H 1225.34 -0.169774 4.98511 0
M  V30 12684 H 1224.49 -2.45749 5.547 0
M  V30 12685 H 1223.23 -2.3212 4.28919 0
M  V30 12686 H 1222.24 -0.351868 5.48673 0
M  V30 12687 H 1223.46 -0.509139 6.77189 0
M  V30 12688 H 1221.41 -2.62115 6.01358 0
M  V30 12689 H 1221.33 -1.57627 7.39385 0
M  V30 12690 H 1222.59 -2.76088 7.28969 0
M  V30 12691 N 1226.82 -1.56058 0.219941 0
M  V30 12692 C 1228.24 -1.59024 -0.135476 0
M  V30 12693 C 1228.44 -1.23672 -1.59083 0
M  V30 12694 O 1227.5 -0.971197 -2.33075 0
M  V30 12695 C 1228.81 -3.00103 0.189356 0
M  V30 12696 C 1230.36 -3.12724 0.131463 0
M  V30 12697 C 1230.83 -4.55977 0.429947 0
M  V30 12698 N 1232.32 -4.61643 0.37946 0
M  V30 12699 C 1233.06 -5.70419 0.58393 0
M  V30 12700 N 1232.55 -6.87565 0.850088 0
M  V30 12701 N 1234.35 -5.59722 0.516477 0
M  V30 12702 H 1226.5 -1.77313 1.16935 0
M  V30 12703 H 1228.76 -0.824096 0.468583 0
M  V30 12704 H 1228.47 -3.30616 1.19941 0
M  V30 12705 H 1228.34 -3.73919 -0.49641 0
M  V30 12706 H 1230.73 -2.82008 -0.869223 0
M  V30 12707 H 1230.81 -2.41241 0.85068 0
M  V30 12708 H 1230.45 -4.8741 1.42806 0
M  V30 12709 H 1230.38 -5.25684 -0.310444 0
M  V30 12710 H 1232.87 -3.77465 0.181373 0
M  V30 12711 H 1233.19 -7.66378 0.994251 0
M  V30 12712 H 1231.53 -6.89313 0.887265 0
M  V30 12713 H 1234.72 -4.6708 0.308784 0
M  V30 12714 H 1234.9 -6.4443 0.679236 0
M  V30 12715 N 1228.3 0.053464 -1.57509 0
M  V30 12716 C 1229.23 1.08863 -2.01696 0
M  V30 12717 C 1230.25 1.33916 -0.925765 0
M  V30 12718 O 1231.44 1.31833 -1.20343 0
M  V30 12719 C 1228.54 2.43567 -2.35644 0
M  V30 12720 C 1227.71 2.38215 -3.66841 0
M  V30 12721 C 1226.77 3.55172 -3.88252 0
M  V30 12722 O 1225.79 3.35769 -4.59617 0
M  V30 12723 N 1227 4.76182 -3.3201 0
M  V30 12724 H 1229.76 0.712192 -2.91115 0
M  V30 12725 H 1227.32 0.241829 -1.60084 0
M  V30 12726 H 1229.31 3.20486 -2.47125 0
M  V30 12727 H 1227.88 2.73145 -1.52022 0
M  V30 12728 H 1227.1 1.46557 -3.65943 0
M  V30 12729 H 1228.39 2.31757 -4.52953 0
M  V30 12730 H 1227.79 4.94849 -2.74118 0
M  V30 12731 H 1226.35 5.5055 -3.4891 0
M  V30 12732 N 1229.78 1.54207 0.325255 0
M  V30 12733 C 1231.19 1.63587 0.899793 0
M  V30 12734 C 1231.54 0.528851 1.88938 0
M  V30 12735 O 1230.67 -0.33852 2.13736 0
M  V30 12736 C 1231.26 2.9653 1.63877 0
M  V30 12737 C 1229.82 3.08111 2.16205 0
M  V30 12738 C 1228.97 2.59144 0.986903 0
M  V30 12739 H 1231.92 1.58366 0.102883 0
M  V30 12740 H 1231.94 2.86595 2.50287 0
M  V30 12741 H 1231.45 3.7708 0.918279 0
M  V30 12742 H 1229.55 2.32232 2.91375 0
M  V30 12743 H 1229.67 4.13885 2.41322 0
M  V30 12744 H 1228.03 2.14997 1.36558 0
M  V30 12745 H 1228.81 3.4215 0.28076 0
M  V30 12746 N 1231.26 -0.58723 1.46251 0
M  V30 12747 C 1232.67 -0.910129 1.31106 0
M  V30 12748 C 1232.87 -1.99557 0.279141 0
M  V30 12749 O 1231.93 -2.50466 -0.319867 0
M  V30 12750 C 1233.24 -1.33177 2.69601 0
M  V30 12751 C 1234.79 -1.44486 2.77656 0
M  V30 12752 C 1235.27 -1.90018 4.16722 0
M  V30 12753 N 1236.76 -1.97219 4.19117 0
M  V30 12754 C 1237.49 -2.33714 5.23608 0
M  V30 12755 N 1236.99 -2.69034 6.3843 0
M  V30 12756 N 1238.78 -2.3423 5.10972 0
M  V30 12757 H 1230.93 0.12987 2.12003 0
M  V30 12758 H 1233.19 -0.00456718 0.947989 0
M  V30 12759 H 1232.9 -0.608243 3.464 0
M  V30 12760 H 1232.77 -2.29421 2.99409 0
M  V30 12761 H 1235.16 -2.15926 2.01147 0
M  V30 12762 H 1235.24 -0.465047 2.51537 0
M  V30 12763 H 1234.89 -1.19159 4.93724 0
M  V30 12764 H 1234.82 -2.88949 4.40245 0
M  V30 12765 H 1237.31 -1.72431 3.36268 0
M  V30 12766 H 1237.62 -2.95822 7.13939 0
M  V30 12767 H 1235.97 -2.66683 6.41798 0
M  V30 12768 H 1239.16 -2.06056 4.20308 0
M  V30 12769 H 1239.33 -2.62345 5.92519 0
M  V30 12770 N 1232.74 -1.33881 -0.831482 0
M  V30 12771 C 1233.68 -1.24741 -1.96322 0
M  V30 12772 C 1234.68 -0.147251 -1.68759 0
M  V30 12773 O 1235.88 -0.311684 -1.77281 0
M  V30 12774 H 1232.26 -0.387298 -0.644596 0
M  V30 12775 H 1234.23 -2.20407 -2.01155 0
M  V30 12776 C 1232.98 -1.01102 -3.32677 0
M  V30 12777 H 1232.3 -1.84986 -3.54429 0
M  V30 12778 H 1233.74 -0.987398 -4.12343 0
M  V30 12779 C 1232.2 0.285903 -3.35685 0
M  V30 12780 O 1232.73 1.29014 -3.80419 0
M  V30 12781 N 1230.94 0.316026 -2.88877 0
M  V30 12782 H 1230.48 -0.501758 -2.52666 0
M  V30 12783 H 1230.44 1.18357 -2.91271 0
M  V30 12784 N 1234.21 1.05064 -1.1747 0
M  V30 12785 C 1235.44 1.82299 -0.98903 0
M  V30 12786 C 1235.86 1.82441 0.457907 0
M  V30 12787 O 1235.22 1.23433 1.32793 0
M  V30 12788 C 1235.27 3.26239 -1.53624 0
M  V30 12789 O 1234.37 4.05507 -0.750857 0
M  V30 12790 H 1233.71 0.563601 -0.35107 0
M  V30 12791 H 1236.24 1.32386 -1.55997 0
M  V30 12792 H 1236.25 3.77038 -1.55906 0
M  V30 12793 H 1234.93 3.25451 -2.58949 0
M  V30 12794 H 1233.51 3.64227 -0.799548 0
M  V30 12795 N 1235.69 0.975146 1.23809 0
M  V30 12796 C 1236.62 0.469151 2.24347 0
M  V30 12797 C 1237.64 -0.426156 1.57123 0
M  V30 12798 O 1238.83 -0.231136 1.76997 0
M  V30 12799 C 1235.93 -0.34121 3.37178 0
M  V30 12800 C 1235.1 0.545968 4.33979 0
M  V30 12801 C 1234.16 -0.209648 5.25782 0
M  V30 12802 O 1233.18 0.398953 5.678 0
M  V30 12803 N 1234.39 -1.49713 5.60862 0
M  V30 12804 H 1237.15 1.33359 2.68394 0
M  V30 12805 H 1234.71 0.847814 1.37927 0
M  V30 12806 H 1236.7 -0.854924 3.95567 0
M  V30 12807 H 1235.27 -1.10663 2.92357 0
M  V30 12808 H 1234.49 1.24057 3.7417 0
M  V30 12809 H 1235.78 1.15077 4.95615 0
M  V30 12810 H 1235.18 -2.0132 5.28665 0
M  V30 12811 H 1233.74 -1.95639 6.21746 0
M  V30 12812 N 1237.17 -1.38817 0.746158 0
M  V30 12813 C 1238.4 -2.0457 0.309605 0
M  V30 12814 C 1238.81 -1.5627 -1.05948 0
M  V30 12815 O 1238.17 -0.73248 -1.67156 0
M  V30 12816 C 1238.22 -3.60126 0.314843 0
M  V30 12817 O 1237.94 -4.06652 1.6299 0
M  V30 12818 C 1239.44 -4.4309 -0.136497 0
M  V30 12819 H 1236.66 -0.657597 0.133441 0
M  V30 12820 H 1239.21 -1.77651 1.01293 0
M  V30 12821 H 1237.36 -3.85908 -0.339685 0
M  V30 12822 H 1237.78 -5.01042 1.55103 0
M  V30 12823 H 1239.25 -5.5194 -0.0816714 0
M  V30 12824 H 1239.73 -4.22959 -1.18332 0
M  V30 12825 H 1240.33 -4.22481 0.488879 0
M  V30 12826 N 1238.65 -0.49465 -1.49636 0
M  V30 12827 C 1239.92 0.114829 -1.95263 0
M  V30 12828 C 1240.3 1.54739 -1.43593 0
M  V30 12829 O 1239.65 2.1915 -0.646953 0
M  V30 12830 C 1239.86 0.0339912 -3.48983 0
M  V30 12831 C 1241.21 0.211108 -4.24075 0
M  V30 12832 O 1242.23 0.109478 -3.56032 0
M  V30 12833 O 1241.09 0.418971 -5.44892 0
M  V30 12834 H 1238.19 0.0987883 -0.821078 0
M  V30 12835 H 1240.73 -0.556736 -1.60308 0
M  V30 12836 H 1239.51 -0.965287 -3.79207 0
M  V30 12837 H 1239.13 0.745982 -3.90539 0
M  V30 12838 N 1240.13 1.55939 -0.228214 0
M  V30 12839 C 1241.07 2.20581 0.679157 0
M  V30 12840 C 1242.04 1.16355 1.18536 0
M  V30 12841 O 1243.23 1.44735 1.24324 0
M  V30 12842 C 1240.37 2.89477 1.87875 0
M  V30 12843 C 1239.48 4.08313 1.41083 0
M  V30 12844 C 1238.62 4.64974 2.56851 0
M  V30 12845 C 1237.65 5.76098 2.06828 0
M  V30 12846 N 1236.79 6.27021 3.15894 0
M  V30 12847 H 1241.63 2.97753 0.121203 0
M  V30 12848 H 1239.17 1.47021 0.0480688 0
M  V30 12849 H 1241.13 3.2761 2.58317 0
M  V30 12850 H 1239.76 2.14811 2.40948 0
M  V30 12851 H 1238.81 3.75621 0.601102 0
M  V30 12852 H 1240.12 4.8859 1.00408 0
M  V30 12853 H 1239.27 5.05584 3.35365 0
M  V30 12854 H 1238.01 3.83875 3.00818 0
M  V30 12855 H 1237.02 5.34984 1.26778 0
M  V30 12856 H 1238.24 6.59037 1.63852 0
M  V30 12857 H 1236.19 5.48833 3.5933 0
M  V30 12858 H 1236.11 7.02439 2.79491 0
M  V30 12859 H 1237.37 6.72289 3.94523 0
M  V30 12860 N 1241.6 -0.0451101 1.57535 0
M  V30 12861 C 1242.53 -1.05046 2.08537 0
M  V30 12862 C 1243.52 -1.3872 0.984418 0
M  V30 12863 O 1244.7 -1.47884 1.25873 0
M  V30 12864 C 1241.83 -2.3562 2.55148 0
M  V30 12865 C 1240.78 -2.16231 3.69362 0
M  V30 12866 C 1240.11 -3.52423 4.02122 0
M  V30 12867 C 1241.41 -1.56159 4.98409 0
M  V30 12868 H 1243.1 -0.625965 2.92783 0
M  V30 12869 H 1240.65 -0.299657 1.40848 0
M  V30 12870 H 1242.6 -3.06266 2.89446 0
M  V30 12871 H 1241.33 -2.80099 1.67964 0
M  V30 12872 H 1239.99 -1.4802 3.35389 0
M  V30 12873 H 1239.63 -3.94522 3.12028 0
M  V30 12874 H 1239.33 -3.4028 4.79044 0
M  V30 12875 H 1240.86 -4.24458 4.38939 0
M  V30 12876 H 1242.27 -2.16703 5.30766 0
M  V30 12877 H 1240.67 -1.54638 5.79834 0
M  V30 12878 H 1241.74 -0.525698 4.82042 0
M  V30 12879 N 1243.08 -1.54377 -0.317073 0
M  V30 12880 C 1244.33 -1.73149 -1.05581 0
M  V30 12881 C 1244.66 -0.507176 -1.8746 0
M  V30 12882 O 1243.94 0.495837 -1.88074 0
M  V30 12883 C 1244.22 -3.01098 -1.97515 0
M  V30 12884 C 1244.07 -4.33794 -1.18922 0
M  V30 12885 C 1245.39 -3.24831 -2.9694 0
M  V30 12886 H 1242.51 -0.630011 -0.382434 0
M  V30 12887 H 1245.15 -1.87079 -0.331873 0
M  V30 12888 H 1243.3 -2.89352 -2.59244 0
M  V30 12889 H 1244.97 -4.57433 -0.596039 0
M  V30 12890 H 1243.22 -4.31005 -0.491612 0
M  V30 12891 H 1243.89 -5.19554 -1.86462 0
M  V30 12892 H 1246.36 -3.3608 -2.45335 0
M  V30 12893 H 1245.24 -4.15702 -3.58445 0
M  V30 12894 H 1245.5 -2.42365 -3.69745 0
M  V30 12895 N 1244.56 0.579466 -1.4656 0
M  V30 12896 C 1245.51 1.70937 -1.57744 0
M  V30 12897 C 1246.5 1.6343 -0.44577 0
M  V30 12898 O 1247.71 1.68884 -0.622762 0
M  V30 12899 H 1244.08 0.565218 -0.496017 0
M  V30 12900 H 1246.05 1.58636 -2.52739 0
M  V30 12901 C 1244.8 3.09321 -1.58794 0
M  V30 12902 H 1244.13 3.1577 -2.45213 0
M  V30 12903 H 1245.57 3.88132 -1.70674 0
M  V30 12904 C 1244.03 3.35404 -0.317165 0
M  V30 12905 O 1244.56 3.97325 0.591228 0
M  V30 12906 N 1242.76 2.89883 -0.204071 0
M  V30 12907 H 1242.31 2.39672 -0.944194 0
M  V30 12908 H 1242.27 3.07706 0.645303 0
M  V30 12909 N 1246.04 1.3432 0.824371 0
M  V30 12910 C 1246.95 1.27847 1.96704 0
M  V30 12911 C 1247.96 0.18641 1.72999 0
M  V30 12912 O 1249.14 0.412623 1.97128 0
M  V30 12913 C 1246.21 1.03231 3.30975 0
M  V30 12914 C 1245.27 2.21579 3.67697 0
M  V30 12915 C 1244.5 1.98128 4.95561 0
M  V30 12916 O 1244.72 0.938798 5.62621 0
M  V30 12917 O 1243.66 2.85041 5.30128 0
M  V30 12918 H 1247.48 2.23974 2.05108 0
M  V30 12919 H 1245.07 1.14512 0.959554 0
M  V30 12920 H 1246.95 0.912784 4.11395 0
M  V30 12921 H 1245.62 0.101425 3.23541 0
M  V30 12922 H 1244.53 2.3909 2.87727 0
M  V30 12923 H 1245.86 3.13052 3.79815 0
M  V30 12924 N 1247.52 -1.0444 1.18026 0
M  V30 12925 C 1248.93 -1.29766 0.929143 0
M  V30 12926 C 1249.13 -1.97338 -0.407436 0
M  V30 12927 O 1248.19 -2.25166 -1.14265 0
M  V30 12928 C 1249.5 -2.16002 2.09197 0
M  V30 12929 C 1251.05 -2.29361 2.12985 0
M  V30 12930 C 1251.52 -3.18962 3.28675 0
M  V30 12931 N 1253.02 -3.26549 3.28512 0
M  V30 12932 C 1253.75 -3.96025 4.14671 0
M  V30 12933 N 1253.25 -4.67863 5.10956 0
M  V30 12934 N 1255.04 -3.92266 4.02597 0
M  V30 12935 H 1247.19 -0.58984 2.04046 0
M  V30 12936 H 1249.45 -0.322752 0.891367 0
M  V30 12937 H 1249.16 -1.73653 3.05839 0
M  V30 12938 H 1249.03 -3.16667 2.04943 0
M  V30 12939 H 1251.42 -2.70948 1.16924 0
M  V30 12940 H 1251.5 -1.28299 2.21298 0
M  V30 12941 H 1251.15 -2.78087 4.25006 0
M  V30 12942 H 1251.08 -4.20047 3.17598 0
M  V30 12943 H 1253.57 -2.75371 2.58804 0
M  V30 12944 H 1253.88 -5.1846 5.73079 0
M  V30 12945 H 1252.22 -4.6678 5.14919 0
M  V30 12946 H 1255.42 -3.35273 3.26665 0
M  V30 12947 H 1255.59 -4.4614 4.69961 0
M  V30 12948 N 1248.99 -0.981699 -1.2329 0
M  V30 12949 C 1249.92 -0.542441 -2.27112 0
M  V30 12950 C 1250.91 0.425034 -1.64704 0
M  V30 12951 O 1252.09 0.318114 -1.91577 0
M  V30 12952 C 1249.22 0.154668 -3.46955 0
M  V30 12953 C 1248.17 -0.73022 -4.21725 0
M  V30 12954 C 1247.5 0.0991766 -5.34608 0
M  V30 12955 C 1248.8 -2.02166 -4.81587 0
M  V30 12956 H 1250.49 -1.41024 -2.64107 0
M  V30 12957 H 1248.04 -0.679544 -1.26957 0
M  V30 12958 H 1249.99 0.473281 -4.18734 0
M  V30 12959 H 1248.72 1.05693 -3.09025 0
M  V30 12960 H 1247.38 -1.03231 -3.51765 0
M  V30 12961 H 1247.02 1.00201 -4.92919 0
M  V30 12962 H 1246.72 -0.489788 -5.85555 0
M  V30 12963 H 1248.25 0.412141 -6.09207 0
M  V30 12964 H 1249.66 -1.76773 -5.45366 0
M  V30 12965 H 1248.06 -2.55851 -5.42826 0
M  V30 12966 H 1249.13 -2.70766 -4.02261 0
M  V30 12967 N 1250.47 1.3842 -0.753509 0
M  V30 12968 C 1251.72 1.99359 -0.306416 0
M  V30 12969 C 1252.03 1.60492 1.11811 0
M  V30 12970 O 1253.24 2.14401 1.66567 0
M  V30 12971 C 1251.7 3.56453 -0.496895 0
M  V30 12972 C 1251.3 4.04272 -1.9305 0
M  V30 12973 C 1253.05 4.24351 -0.11251 0
M  V30 12974 C 1250.96 5.54007 -2.06955 0
M  V30 12975 H 1249.89 0.745812 -0.110818 0
M  V30 12976 H 1252.54 1.58185 -0.930039 0
M  V30 12977 H 1250.92 3.95515 0.195912 0
M  V30 12978 H 1252.09 3.765 -2.65677 0
M  V30 12979 H 1250.41 3.49098 -2.26979 0
M  V30 12980 H 1253 5.34344 -0.195161 0
M  V30 12981 H 1253.35 4.05668 0.934849 0
M  V30 12982 H 1253.88 3.90528 -0.757168 0
M  V30 12983 H 1250.62 5.77594 -3.09944 0
M  V30 12984 H 1250.14 5.83522 -1.38788 0
M  V30 12985 H 1251.82 6.19704 -1.85945 0
M  V30 12986 N 1251.95 0.502579 1.49372 0
M  V30 12987 C 1253.18 -0.0403087 2.07361 0
M  V30 12988 C 1253.6 -1.29918 1.36026 0
M  V30 12989 O 1252.96 -1.76428 0.417488 0
M  V30 12990 C 1253.01 -0.275362 3.59547 0
M  V30 12991 O 1252.11 -1.34975 3.89686 0
M  V30 12992 H 1251.45 0.0269268 0.663454 0
M  V30 12993 H 1253.98 0.702652 1.92156 0
M  V30 12994 H 1253.99 -0.506392 4.04845 0
M  V30 12995 H 1252.67 0.644382 4.10878 0
M  V30 12996 H 1251.24 -1.10355 3.56197 0
M  V30 12997 N 1253.43 -1.55816 0.23648 0
M  V30 12998 C 1254.36 -2.16945 -0.707826 0
M  V30 12999 C 1255.34 -1.11832 -1.18036 0
M  V30 13000 O 1256.52 -1.40166 -1.26039 0
M  V30 13001 C 1253.65 -2.76175 -1.96074 0
M  V30 13002 C 1252.7 -3.9425 -1.62695 0
M  V30 13003 S 1253.53 -5.30381 -0.738663 0
M  V30 13004 C 1254.69 -5.93059 -2.00081 0
M  V30 13005 H 1254.92 -2.96703 -0.188303 0
M  V30 13006 H 1252.45 -1.54386 0.0210284 0
M  V30 13007 H 1254.41 -3.10938 -2.68007 0
M  V30 13008 H 1253.07 -1.96382 -2.45138 0
M  V30 13009 H 1252.26 -4.34247 -2.55823 0
M  V30 13010 H 1251.87 -3.6071 -0.988129 0
M  V30 13011 H 1254.16 -6.09941 -2.94921 0
M  V30 13012 H 1255.1 -6.88739 -1.64449 0
M  V30 13013 H 1255.51 -5.2203 -2.14815 0
M  V30 13014 N 1254.91 0.036755 -1.57557 0
M  V30 13015 C 1255.87 1.02435 -2.05036 0
M  V30 13016 C 1256.87 1.29506 -0.953146 0
M  V30 13017 O 1258.06 1.24638 -1.217 0
M  V30 13018 C 1255.19 2.3592 -2.46079 0
M  V30 13019 H 1256.38 0.614384 -2.93539 0
M  V30 13020 H 1253.94 0.283396 -1.53709 0
M  V30 13021 H 1254.67 2.8168 -1.60708 0
M  V30 13022 H 1254.46 2.17603 -3.26177 0
M  V30 13023 H 1255.95 3.06839 -2.83266 0
M  V30 13024 N 1256.39 1.54543 0.308881 0
M  V30 13025 C 1257.62 1.77174 1.06268 0
M  V30 13026 C 1258.02 0.527461 1.81699 0
M  V30 13027 O 1257.37 -0.512027 1.7642 0
M  V30 13028 C 1257.43 2.92115 2.09545 0
M  V30 13029 C 1257.09 4.30492 1.5338 0
M  V30 13030 C 1258.09 5.1081 0.967923 0
M  V30 13031 C 1255.77 4.77074 1.5718 0
M  V30 13032 C 1257.77 6.35827 0.447517 0
M  V30 13033 C 1255.46 6.02055 1.04753 0
M  V30 13034 C 1256.45 6.81266 0.486345 0
M  V30 13035 O 1256.14 8.03894 -0.0300055 0
M  V30 13036 H 1255.87 0.594773 0.321281 0
M  V30 13037 H 1258.43 2.02289 0.356136 0
M  V30 13038 H 1256.66 2.62606 2.83857 0
M  V30 13039 H 1258.35 3.02394 2.70763 0
M  V30 13040 H 1259.11 4.7597 0.931523 0
M  V30 13041 H 1254.99 4.15453 1.998 0
M  V30 13042 H 1258.54 6.97599 0.00884212 0
M  V30 13043 H 1254.43 6.36383 1.08105 0
M  V30 13044 H 1255.2 8.18457 0.0840381 0
M  V30 13045 N 1257.86 -0.571685 1.46866 0
M  V30 13046 C 1259.11 -1.32685 1.52444 0
M  V30 13047 C 1259.43 -1.94147 0.182225 0
M  V30 13048 O 1258.7 -1.79159 -0.792385 0
M  V30 13049 H 1257.28 -0.492679 0.561495 0
M  V30 13050 H 1259.94 -0.668694 1.8307 0
M  V30 13051 H 1259.04 -2.12788 2.28315 0
M  V30 13052 N 1259.34 -1.34755 -0.817236 0
M  V30 13053 C 1260.27 -1.22648 -1.93624 0
M  V30 13054 C 1261.29 -0.152226 -1.62087 0
M  V30 13055 O 1262.48 -0.404578 -1.73855 0
M  V30 13056 C 1259.58 -0.863519 -3.27714 0
M  V30 13057 C 1258.75 -2.03394 -3.87233 0
M  V30 13058 C 1257.81 -1.64846 -4.99712 0
M  V30 13059 O 1256.83 -2.3658 -5.17705 0
M  V30 13060 N 1258.04 -0.565909 -5.77735 0
M  V30 13061 H 1260.8 -2.19051 -2.0454 0
M  V30 13062 H 1258.36 -1.27785 -0.994113 0
M  V30 13063 H 1260.35 -0.58733 -4.00415 0
M  V30 13064 H 1258.92 0.0104987 -3.12598 0
M  V30 13065 H 1258.14 -2.47454 -3.06856 0
M  V30 13066 H 1259.43 -2.81655 -4.23731 0
M  V30 13067 H 1258.83 0.030313 -5.65692 0
M  V30 13068 H 1257.39 -0.349467 -6.50862 0
M  V30 13069 N 1260.82 1.03812 -1.18578 0
M  V30 13070 C 1262.07 1.76455 -0.977071 0
M  V30 13071 C 1262.38 1.8926 0.493964 0
M  V30 13072 O 1263.59 2.58781 0.821256 0
M  V30 13073 C 1262.04 3.17264 -1.69917 0
M  V30 13074 C 1261.65 3.12543 -3.20969 0
M  V30 13075 C 1263.4 3.94266 -1.57337 0
M  V30 13076 C 1261.3 4.48226 -3.85807 0
M  V30 13077 H 1260.23 0.661445 -0.361949 0
M  V30 13078 H 1262.88 1.16252 -1.41978 0
M  V30 13079 H 1261.27 3.77878 -1.18424 0
M  V30 13080 H 1262.44 2.61364 -3.79507 0
M  V30 13081 H 1260.75 2.49039 -3.33719 0
M  V30 13082 H 1263.35 4.9461 -2.03137 0
M  V30 13083 H 1263.69 4.12963 -0.526033 0
M  V30 13084 H 1264.23 3.40232 -2.06124 0
M  V30 13085 H 1260.97 4.34734 -4.90599 0
M  V30 13086 H 1260.49 4.99497 -3.32058 0
M  V30 13087 H 1262.17 5.17135 -3.88819 0
M  V30 13088 N 1262.3 0.988223 1.22768 0
M  V30 13089 C 1263.55 0.660154 1.91014 0
M  V30 13090 C 1263.87 -0.809788 1.77391 0
M  V30 13091 O 1263.14 -1.57998 1.15817 0
M  V30 13092 H 1261.72 0.24118 0.706995 0
M  V30 13093 H 1264.38 1.25372 1.49224 0
M  V30 13094 H 1263.47 0.918603 2.98275 0
M  V30 13095 N 1263.78 -1.38018 0.760839 0
M  V30 13096 C 1264.71 -2.28037 0.0862629 0
M  V30 13097 C 1265.69 -1.45757 -0.720679 0
M  V30 13098 O 1266.87 -1.7511 -0.697766 0
M  V30 13099 C 1264 -3.26949 -0.884437 0
M  V30 13100 C 1263.04 -4.26189 -0.162839 0
M  V30 13101 S 1263.88 -5.23193 1.14148 0
M  V30 13102 C 1265.03 -6.25658 0.174043 0
M  V30 13103 H 1265.27 -2.84902 0.849596 0
M  V30 13104 H 1262.8 -1.44129 0.55374 0
M  V30 13105 H 1264.76 -3.84447 -1.43913 0
M  V30 13106 H 1263.42 -2.69052 -1.6208 0
M  V30 13107 H 1262.61 -4.9593 -0.89829 0
M  V30 13108 H 1262.21 -3.72624 0.320537 0
M  V30 13109 H 1264.5 -6.74303 -0.657423 0
M  V30 13110 H 1265.45 -7.03108 0.839319 0
M  V30 13111 H 1265.86 -5.6411 -0.209887 0
M  V30 13112 N 1265.25 -0.510493 -1.49103 0
M  V30 13113 C 1266.5 0.0325393 -2.01674 0
M  V30 13114 C 1266.82 1.37162 -1.39448 0
M  V30 13115 O 1268.02 2.00189 -1.83402 0
M  V30 13116 C 1266.48 0.108433 -3.59737 0
M  V30 13117 C 1266.09 -1.22458 -4.30939 0
M  V30 13118 C 1267.83 0.601326 -4.20219 0
M  V30 13119 C 1265.74 -1.11033 -5.80884 0
M  V30 13120 H 1264.67 0.0159333 -0.753832 0
M  V30 13121 H 1267.32 -0.651344 -1.71551 0
M  V30 13122 H 1265.7 0.856974 -3.86616 0
M  V30 13123 H 1266.87 -1.98715 -4.15751 0
M  V30 13124 H 1265.19 -1.65166 -3.82242 0
M  V30 13125 H 1267.79 0.704462 -5.30039 0
M  V30 13126 H 1268.13 1.60247 -3.84222 0
M  V30 13127 H 1268.66 -0.0909561 -3.97696 0
M  V30 13128 H 1265.4 -2.08603 -6.21422 0
M  V30 13129 H 1264.92 -0.388798 -5.98539 0
M  V30 13130 H 1266.6 -0.792949 -6.42123 0
M  V30 13131 N 1266.73 1.55688 -0.24474 0
M  V30 13132 C 1267.66 2.18616 0.68844 0
M  V30 13133 C 1268.68 1.16185 1.14039 0
M  V30 13134 O 1269.87 1.43059 1.06754 0
M  V30 13135 C 1266.97 2.77375 1.94721 0
M  V30 13136 C 1266.14 4.05204 1.64706 0
M  V30 13137 C 1265.2 4.48302 2.75521 0
M  V30 13138 O 1264.22 5.14723 2.42999 0
M  V30 13139 N 1265.43 4.15907 4.04971 0
M  V30 13140 H 1268.19 2.99324 0.150018 0
M  V30 13141 H 1265.75 1.61771 -0.0646183 0
M  V30 13142 H 1267.74 3.03165 2.68091 0
M  V30 13143 H 1266.31 2.00837 2.39548 0
M  V30 13144 H 1265.53 3.87026 0.74865 0
M  V30 13145 H 1266.82 4.8855 1.42114 0
M  V30 13146 H 1266.22 3.62579 4.34227 0
M  V30 13147 H 1264.78 4.46538 4.74813 0
M  V30 13148 N 1268.21 -0.0283989 1.57574 0
M  V30 13149 C 1269.17 -1.01346 2.05576 0
M  V30 13150 C 1270.17 -1.28999 0.960001 0
M  V30 13151 O 1271.36 -1.23991 1.2236 0
M  V30 13152 C 1268.49 -2.34611 2.47327 0
M  V30 13153 H 1269.69 -0.598809 2.93861 0
M  V30 13154 H 1267.24 -0.27524 1.53857 0
M  V30 13155 H 1267.98 -2.80823 1.622 0
M  V30 13156 H 1267.76 -2.1587 3.27326 0
M  V30 13157 H 1269.25 -3.05332 2.84889 0
M  V30 13158 N 1269.69 -1.54705 -0.300681 0
M  V30 13159 C 1270.62 -1.88679 -1.37559 0
M  V30 13160 C 1271.6 -0.74574 -1.52881 0
M  V30 13161 O 1272.78 -1.0015 -1.66384 0
M  V30 13162 C 1269.91 -2.13438 -2.73974 0
M  V30 13163 C 1268.87 -3.29284 -2.73415 0
M  V30 13164 C 1268.19 -3.39462 -4.13122 0
M  V30 13165 C 1269.49 -4.66382 -2.35128 0
M  V30 13166 H 1271.19 -2.78707 -1.09373 0
M  V30 13167 H 1268.73 -1.341 -0.524704 0
M  V30 13168 H 1270.69 -2.35791 -3.49257 0
M  V30 13169 H 1269.41 -1.20181 -3.03684 0
M  V30 13170 H 1268.07 -3.06855 -2.00588 0
M  V30 13171 H 1267.72 -2.43721 -4.4001 0
M  V30 13172 H 1267.42 -4.17334 -4.1365 0
M  V30 13173 H 1268.94 -3.64075 -4.90185 0
M  V30 13174 H 1270.36 -4.88463 -3.00128 0
M  V30 13175 H 1268.75 -5.4697 -2.46867 0
M  V30 13176 H 1269.82 -4.67078 -1.30256 0
M  V30 13177 N 1271.17 0.563888 -1.47167 0
M  V30 13178 C 1272.41 1.31875 -1.53145 0
M  V30 13179 C 1272.74 1.94047 -0.192518 0
M  V30 13180 O 1272.01 1.79577 0.782872 0
M  V30 13181 H 1270.59 0.489694 -0.5641 0
M  V30 13182 H 1273.25 0.658976 -1.83422 0
M  V30 13183 H 1272.34 2.11574 -2.2944 0
M  V30 13184 N 1272.64 1.35187 0.810078 0
M  V30 13185 C 1273.89 1.28011 1.56389 0
M  V30 13186 C 1274.21 -0.14622 1.94451 0
M  V30 13187 O 1273.48 -1.08185 1.63318 0
M  V30 13188 H 1272.06 0.470837 0.579932 0
M  V30 13189 H 1274.73 1.69249 0.966476 0
M  V30 13190 H 1273.82 1.89362 2.4809 0
M  V30 13191 N 1274.12 -1.03182 1.19127 0
M  V30 13192 C 1275.37 -1.76533 0.992093 0
M  V30 13193 C 1275.7 -1.88549 -0.477429 0
M  V30 13194 O 1274.95 -1.39675 -1.37074 0
M  V30 13195 C 1275.25 -3.19452 1.60267 0
M  V30 13196 C 1274.92 -3.27449 3.09981 0
M  V30 13197 C 1273.58 -3.29338 3.50841 0
M  V30 13198 C 1275.93 -3.26833 4.05992 0
M  V30 13199 C 1273.26 -3.28265 4.86271 0
M  V30 13200 C 1275.61 -3.27299 5.41348 0
M  V30 13201 C 1274.28 -3.27485 5.81644 0
M  V30 13202 H 1273.55 -0.645979 0.363033 0
M  V30 13203 H 1276.19 -1.21127 1.48326 0
M  V30 13204 H 1274.5 -3.77917 1.03372 0
M  V30 13205 H 1276.19 -3.74869 1.42388 0
M  V30 13206 H 1272.78 -3.26704 2.77421 0
M  V30 13207 H 1276.97 -3.24556 3.75469 0
M  V30 13208 H 1272.22 -3.26731 5.16775 0
M  V30 13209 H 1276.4 -3.25773 6.15504 0
M  V30 13210 H 1274.03 -3.26407 6.86558 0
M  V30 13211 N 1275.6 -0.99472 -1.22242 0
M  V30 13212 C 1276.85 -0.671602 -1.91039 0
M  V30 13213 C 1277.18 0.796543 -1.77441 0
M  V30 13214 O 1276.43 1.59179 -1.13845 0
M  V30 13215 C 1276.73 -1.02561 -3.42368 0
M  V30 13216 C 1276.4 -2.48632 -3.76155 0
M  V30 13217 C 1275.06 -2.88549 -3.85088 0
M  V30 13218 C 1277.41 -3.43302 -3.92165 0
M  V30 13219 C 1274.74 -4.22121 -4.07469 0
M  V30 13220 C 1277.09 -4.76534 -4.1605 0
M  V30 13221 C 1275.75 -5.1619 -4.23207 0
M  V30 13222 H 1275.02 -0.245756 -0.69906 0
M  V30 13223 H 1277.67 -1.25125 -1.44969 0
M  V30 13224 H 1275.98 -0.364073 -3.90105 0
M  V30 13225 H 1277.67 -0.753612 -3.93855 0
M  V30 13226 H 1274.26 -2.16693 -3.69787 0
M  V30 13227 H 1278.45 -3.13633 -3.8464 0
M  V30 13228 H 1273.7 -4.52431 -4.11238 0
M  V30 13229 H 1277.88 -5.49835 -4.27381 0
M  V30 13230 H 1275.5 -6.19708 -4.40303 0
M  V30 13231 N 1277.08 1.37613 -0.768148 0
M  V30 13232 C 1278.31 2.04052 -0.342111 0
M  V30 13233 C 1278.72 1.57936 1.03449 0
M  V30 13234 O 1278.08 0.758981 1.65969 0
M  V30 13235 C 1278.13 3.5958 -0.372096 0
M  V30 13236 O 1277.85 4.04008 -1.69439 0
M  V30 13237 C 1279.35 4.43251 0.0659884 0
M  V30 13238 H 1276.57 0.655391 -0.143886 0
M  V30 13239 H 1279.12 1.76017 -1.04107 0
M  V30 13240 H 1277.27 3.86399 0.278248 0
M  V30 13241 H 1277.68 4.98511 -1.63054 0
M  V30 13242 H 1279.16 5.52 -0.00614775 0
M  V30 13243 H 1279.64 4.24788 1.11588 0
M  V30 13244 H 1280.24 4.2165 -0.55603 0
M  V30 13245 N 1278.56 0.518393 1.4883 0
M  V30 13246 C 1279.79 -0.0161765 2.06594 0
M  V30 13247 C 1280.19 -1.29771 1.37681 0
M  V30 13248 O 1279.54 -1.77991 0.454421 0
M  V30 13249 C 1279.6 -0.322505 3.5805 0
M  V30 13250 C 1279.26 0.863848 4.48761 0
M  V30 13251 C 1280.26 1.75912 4.89235 0
M  V30 13252 C 1277.95 1.06757 4.90824 0
M  V30 13253 C 1279.94 2.84211 5.70528 0
M  V30 13254 C 1277.63 2.15372 5.7189 0
M  V30 13255 C 1278.62 3.03932 6.11649 0
M  V30 13256 O 1278.31 4.1067 6.9109 0
M  V30 13257 H 1278.04 0.0251212 0.675533 0
M  V30 13258 H 1280.6 0.720052 1.92365 0
M  V30 13259 H 1278.83 -1.11256 3.7035 0
M  V30 13260 H 1280.52 -0.797764 3.97983 0
M  V30 13261 H 1281.28 1.61362 4.5737 0
M  V30 13262 H 1277.16 0.387566 4.59368 0
M  V30 13263 H 1280.71 3.53364 6.01481 0
M  V30 13264 H 1276.6 2.2991 6.03168 0
M  V30 13265 H 1277.37 4.08237 7.09426 0
M  V30 13266 N 1280.03 -1.55556 0.252993 0
M  V30 13267 C 1281.28 -1.9909 -0.37005 0
M  V30 13268 C 1281.61 -1.1412 -1.57502 0
M  V30 13269 O 1280.86 -0.193471 -1.94741 0
M  V30 13270 C 1281.16 -3.47925 -0.817484 0
M  V30 13271 C 1280.83 -4.50027 0.280398 0
M  V30 13272 C 1279.49 -4.77669 0.581914 0
M  V30 13273 C 1281.84 -5.11096 1.02129 0
M  V30 13274 C 1279.17 -5.63652 1.62829 0
M  V30 13275 C 1281.52 -5.98215 2.05723 0
M  V30 13276 C 1280.19 -6.24186 2.36533 0
M  V30 13277 H 1279.46 -0.728522 -0.135411 0
M  V30 13278 H 1282.1 -1.88046 0.36209 0
M  V30 13279 H 1280.41 -3.56333 -1.62893 0
M  V30 13280 H 1282.11 -3.79001 -1.30993 0
M  V30 13281 H 1278.7 -4.28585 0.0352579 0
M  V30 13282 H 1282.88 -4.89784 0.801603 0
M  V30 13283 H 1278.14 -5.82028 1.87227 0
M  V30 13284 H 1282.31 -6.44575 2.6362 0
M  V30 13285 H 1279.94 -6.90607 3.17752 0
M  V30 13286 N 1281.51 0.0200419 -1.57587 0
M  V30 13287 C 1282.76 0.710078 -1.89962 0
M  V30 13288 C 1283.09 1.74521 -0.851829 0
M  V30 13289 O 1282.37 1.94052 0.132005 0
M  V30 13290 C 1282.65 1.37145 -3.32961 0
M  V30 13291 C 1282.5 0.349221 -4.48442 0
M  V30 13292 C 1283.82 2.30304 -3.75031 0
M  V30 13293 H 1280.94 0.25667 -0.690862 0
M  V30 13294 H 1283.58 -0.0271362 -1.89981 0
M  V30 13295 H 1281.73 1.99981 -3.33076 0
M  V30 13296 H 1283.4 -0.277916 -4.60462 0
M  V30 13297 H 1281.65 -0.330594 -4.32538 0
M  V30 13298 H 1282.32 0.850636 -5.45406 0
M  V30 13299 H 1284.79 1.77503 -3.7634 0
M  V30 13300 H 1283.67 2.73555 -4.75877 0
M  V30 13301 H 1283.93 3.17364 -3.07786 0
M  V30 13302 N 1282.99 1.54862 0.292472 0
M  V30 13303 C 1284.24 1.73756 1.02429 0
M  V30 13304 C 1284.55 0.535164 1.88137 0
M  V30 13305 O 1285.76 0.606092 2.64648 0
M  V30 13306 C 1284.21 3.0745 1.8709 0
M  V30 13307 C 1283.82 4.35195 1.06343 0
M  V30 13308 C 1285.57 3.357 2.59819 0
M  V30 13309 C 1283.47 5.59936 1.9033 0
M  V30 13310 H 1282.4 0.647617 0.386145 0
M  V30 13311 H 1285.05 1.81338 0.28086 0
M  V30 13312 H 1283.44 2.93855 2.65453 0
M  V30 13313 H 1284.61 4.5965 0.325335 0
M  V30 13314 H 1282.93 4.13944 0.451574 0
M  V30 13315 H 1285.52 4.26099 3.23023 0
M  V30 13316 H 1285.87 2.54956 3.29094 0
M  V30 13317 H 1286.4 3.50304 1.88499 0
M  V30 13318 H 1283.14 6.43372 1.25509 0
M  V30 13319 H 1282.66 5.39654 2.61789 0
M  V30 13320 H 1284.34 5.97512 2.48171 0
M  V30 13321 N 1284.47 -0.556076 1.47464 0
M  V30 13322 C 1285.4 -1.67275 1.62915 0
M  V30 13323 C 1286.38 -1.63229 0.478562 0
M  V30 13324 O 1287.56 -1.80833 0.708032 0
M  V30 13325 C 1284.69 -3.05911 1.64426 0
M  V30 13326 C 1283.65 -3.24804 2.78722 0
M  V30 13327 C 1282.97 -4.64238 2.65307 0
M  V30 13328 C 1284.27 -3.10071 4.20302 0
M  V30 13329 H 1285.97 -1.54601 2.56396 0
M  V30 13330 H 1283.51 -0.742337 1.23391 0
M  V30 13331 H 1285.47 -3.83878 1.73826 0
M  V30 13332 H 1284.19 -3.19547 0.675053 0
M  V30 13333 H 1282.85 -2.49246 2.68835 0
M  V30 13334 H 1282.5 -4.74675 1.66412 0
M  V30 13335 H 1282.2 -4.77828 3.41986 0
M  V30 13336 H 1283.72 -5.44339 2.76637 0
M  V30 13337 H 1285.14 -3.77855 4.3116 0
M  V30 13338 H 1283.53 -3.3517 4.97776 0
M  V30 13339 H 1284.6 -2.06803 4.38589 0
M  V30 13340 N 1285.95 -1.35615 -0.802897 0
M  V30 13341 C 1286.91 -1.28705 -1.89651 0
M  V30 13342 C 1287.91 -0.197681 -1.5958 0
M  V30 13343 O 1289.1 -0.451618 -1.68244 0
M  V30 13344 C 1286.23 -0.991941 -3.26149 0
M  V30 13345 H 1287.43 -2.25951 -1.97196 0
M  V30 13346 H 1284.98 -1.20192 -0.999179 0
M  V30 13347 H 1285.71 -0.0235051 -3.24291 0
M  V30 13348 H 1285.5 -1.78013 -3.49362 0
M  V30 13349 H 1286.99 -0.969298 -4.06195 0
M  V30 13350 N 1287.43 1.02549 -1.19673 0
M  V30 13351 C 1288.34 2.14373 -0.952972 0
M  V30 13352 C 1289.35 1.73776 0.0881727 0
M  V30 13353 O 1290.53 2.01165 -0.0972471 0
M  V30 13354 C 1287.59 3.43096 -0.498569 0
M  V30 13355 C 1286.65 3.97987 -1.60951 0
M  V30 13356 C 1285.89 5.20567 -1.17669 0
M  V30 13357 O 1286.11 5.70385 -0.0416636 0
M  V30 13358 O 1285.04 5.6838 -1.98059 0
M  V30 13359 H 1288.87 2.378 -1.88904 0
M  V30 13360 H 1286.45 1.12781 -0.979836 0
M  V30 13361 H 1288.34 4.20634 -0.253968 0
M  V30 13362 H 1287.01 3.21105 0.409018 0
M  V30 13363 H 1285.92 3.21768 -1.90829 0
M  V30 13364 H 1287.25 4.24349 -2.49377 0
M  V30 13365 N 1288.9 1.00119 1.21713 0
M  V30 13366 C 1289.85 0.551452 2.25969 0
M  V30 13367 C 1290.85 -0.402075 1.64559 0
M  V30 13368 O 1292.05 -0.273685 1.77907 0
M  V30 13369 H 1288.43 0.159968 0.734789 0
M  V30 13370 H 1290.4 1.44201 2.61244 0
M  V30 13371 C 1289.15 -0.109992 3.47526 0
M  V30 13372 H 1288.47 0.614686 3.95046 0
M  V30 13373 H 1289.91 -0.388007 4.22221 0
M  V30 13374 C 1288.37 -1.34798 3.08757 0
M  V30 13375 O 1288.9 -2.44266 3.189 0
M  V30 13376 N 1287.1 -1.2263 2.63458 0
M  V30 13377 H 1286.65 -0.335571 2.55405 0
M  V30 13378 H 1286.61 -2.05565 2.37887 0
M  V30 13379 N 1290.38 -1.37203 0.775435 0
M  V30 13380 C 1291.63 -1.99207 0.340756 0
M  V30 13381 C 1291.95 -1.61861 -1.08747 0
M  V30 13382 O 1291.22 -0.88583 -1.74728 0
M  V30 13383 H 1289.8 -0.736803 0.123004 0
M  V30 13384 H 1292.46 -1.67625 0.994379 0
M  V30 13385 H 1291.56 -3.09243 0.421346 0
M  V30 13386 N 1291.86 -0.526279 -1.48553 0
M  V30 13387 C 1293.11 0.0091665 -2.02498 0
M  V30 13388 C 1293.43 1.34632 -1.40373 0
M  V30 13389 O 1292.69 1.88172 -0.537573 0
M  V30 13390 C 1292.99 0.184075 -3.56926 0
M  V30 13391 C 1292.65 -1.07825 -4.37818 0
M  V30 13392 C 1291.32 -1.42422 -4.59641 0
M  V30 13393 C 1293.67 -1.91616 -4.84699 0
M  V30 13394 C 1291 -2.60713 -5.25591 0
M  V30 13395 C 1293.35 -3.09082 -5.51952 0
M  V30 13396 C 1292.01 -3.44029 -5.72014 0
M  V30 13397 H 1291.28 0.00335426 -0.740992 0
M  V30 13398 H 1293.93 -0.691553 -1.78577 0
M  V30 13399 H 1292.23 0.967532 -3.79666 0
M  V30 13400 H 1293.93 0.613226 -3.96283 0
M  V30 13401 H 1290.52 -0.798812 -4.2109 0
M  V30 13402 H 1294.71 -1.66199 -4.67645 0
M  V30 13403 H 1289.96 -2.87996 -5.39322 0
M  V30 13404 H 1294.14 -3.74317 -5.87247 0
M  V30 13405 H 1291.76 -4.35789 -6.2289 0
M  V30 13406 N 1293.34 1.5542 -0.261239 0
M  V30 13407 C 1294.27 2.24949 0.626126 0
M  V30 13408 C 1295.25 1.23474 1.16997 0
M  V30 13409 O 1296.43 1.52161 1.20667 0
M  V30 13410 C 1293.56 2.95996 1.81669 0
M  V30 13411 C 1292.52 4.04282 1.40499 0
M  V30 13412 C 1291.84 4.62831 2.67753 0
M  V30 13413 C 1293.14 5.1923 0.56543 0
M  V30 13414 H 1294.84 2.99364 0.0463164 0
M  V30 13415 H 1292.38 1.43985 0.0208366 0
M  V30 13416 H 1294.34 3.43343 2.44323 0
M  V30 13417 H 1293.06 2.19093 2.42211 0
M  V30 13418 H 1291.72 3.57726 0.801712 0
M  V30 13419 H 1291.37 3.82611 3.26524 0
M  V30 13420 H 1291.07 5.35938 2.40925 0
M  V30 13421 H 1292.59 5.12918 3.31281 0
M  V30 13422 H 1294.01 5.62714 1.09663 0
M  V30 13423 H 1292.4 5.98814 0.392607 0
M  V30 13424 H 1293.47 4.83086 -0.419059 0
M  V30 13425 N 1294.82 -0.0116844 1.57596 0
M  V30 13426 C 1296.23 -0.55604 1.78228 0
M  V30 13427 C 1296.58 -1.74624 0.894474 0
M  V30 13428 O 1295.7 -2.16196 0.0938498 0
M  V30 13429 C 1296.3 -1.0155 3.23223 0
M  V30 13430 C 1294.86 -1.50525 3.44992 0
M  V30 13431 C 1294 -0.451133 2.73606 0
M  V30 13432 H 1296.95 0.214516 1.57243 0
M  V30 13433 H 1296.98 -1.88208 3.30693 0
M  V30 13434 H 1296.49 -0.149048 3.87814 0
M  V30 13435 H 1294.59 -2.39298 2.856 0
M  V30 13436 H 1294.7 -1.54076 4.53649 0
M  V30 13437 H 1293.07 -0.910135 2.37884 0
M  V30 13438 H 1293.85 0.406152 3.40889 0
M  V30 13439 N 1296.29 -1.55015 -0.284256 0
M  V30 13440 C 1297.52 -1.79431 -1.04016 0
M  V30 13441 C 1297.94 -0.560254 -1.79563 0
M  V30 13442 O 1297.3 0.489804 -1.74558 0
M  V30 13443 C 1297.35 -3.01162 -1.98328 0
M  V30 13444 O 1296.45 -2.75459 -3.06914 0
M  V30 13445 H 1295.79 -0.593391 -0.297965 0
M  V30 13446 H 1298.32 -2.02136 -0.316585 0
M  V30 13447 H 1298.33 -3.29589 -2.40489 0
M  V30 13448 H 1297.01 -3.90634 -1.42751 0
M  V30 13449 H 1295.59 -2.58096 -2.69148 0
M  V30 13450 N 1297.77 0.548248 -1.47757 0
M  V30 13451 C 1299.19 0.875048 -1.33473 0
M  V30 13452 C 1299.39 1.98747 -0.331952 0
M  V30 13453 O 1298.44 2.51226 0.253348 0
M  V30 13454 C 1299.76 1.25982 -2.73037 0
M  V30 13455 C 1301.3 1.37074 -2.81389 0
M  V30 13456 C 1301.78 1.78902 -4.21613 0
M  V30 13457 N 1303.27 1.86037 -4.24198 0
M  V30 13458 C 1304.01 2.1975 -5.2962 0
M  V30 13459 N 1303.5 2.52013 -6.45338 0
M  V30 13460 N 1305.29 2.206 -5.17003 0
M  V30 13461 H 1297.45 -0.186033 -2.11584 0
M  V30 13462 H 1299.71 -0.0205687 -0.947777 0
M  V30 13463 H 1299.41 0.516188 -3.47891 0
M  V30 13464 H 1299.29 2.21402 -3.05387 0
M  V30 13465 H 1301.68 2.10517 -2.06801 0
M  V30 13466 H 1301.76 0.398193 -2.52682 0
M  V30 13467 H 1301.4 1.06026 -4.9671 0
M  V30 13468 H 1301.33 2.77176 -4.47751 0
M  V30 13469 H 1303.82 1.63455 -3.40721 0
M  V30 13470 H 1304.13 2.7679 -7.21531 0
M  V30 13471 H 1302.48 2.49573 -6.48643 0
M  V30 13472 H 1305.67 1.9484 -4.25623 0
M  V30 13473 H 1305.84 2.46543 -5.99267 0
M  V30 13474 N 1299.25 1.36039 0.795694 0
M  V30 13475 C 1300.18 1.32528 1.92246 0
M  V30 13476 C 1301.16 0.197805 1.68946 0
M  V30 13477 O 1302.35 0.394474 1.90151 0
M  V30 13478 C 1299.48 1.10748 3.29169 0
M  V30 13479 C 1298.43 2.20253 3.66978 0
M  V30 13480 C 1297.76 1.83624 5.02181 0
M  V30 13481 C 1299.06 3.62296 3.76216 0
M  V30 13482 H 1300.75 2.2681 1.95442 0
M  V30 13483 H 1298.3 1.09181 0.938908 0
M  V30 13484 H 1300.25 1.06929 4.07608 0
M  V30 13485 H 1298.97 0.129141 3.26345 0
M  V30 13486 H 1297.63 2.23187 2.90832 0
M  V30 13487 H 1297.28 0.843804 4.95872 0
M  V30 13488 H 1296.98 2.56935 5.28449 0
M  V30 13489 H 1298.5 1.81349 5.83048 0
M  V30 13490 H 1299.92 3.61623 4.44861 0
M  V30 13491 H 1298.31 4.34459 4.13963 0
M  V30 13492 H 1299.38 3.97657 2.77483 0
M  V30 13493 N 1300.73 -1.01913 1.20215 0
M  V30 13494 C 1301.66 -2.12282 0.97256 0
M  V30 13495 C 1302.64 -1.6982 -0.0975709 0
M  V30 13496 O 1303.82 -1.94109 0.0594307 0
M  V30 13497 C 1300.95 -3.43369 0.521085 0
M  V30 13498 C 1299.91 -3.99559 1.53417 0
M  V30 13499 C 1299.23 -5.26383 0.93942 0
M  V30 13500 C 1300.53 -4.33241 2.91718 0
M  V30 13501 H 1302.23 -2.31746 1.89563 0
M  V30 13502 H 1299.77 -1.1137 0.912841 0
M  V30 13503 H 1301.73 -4.19963 0.347713 0
M  V30 13504 H 1300.45 -3.23655 -0.437605 0
M  V30 13505 H 1299.11 -3.25069 1.69486 0
M  V30 13506 H 1298.76 -5.02993 -0.0271236 0
M  V30 13507 H 1298.46 -5.64942 1.616 0
M  V30 13508 H 1299.98 -6.05635 0.777059 0
M  V30 13509 H 1301.4 -5.00734 2.79175 0
M  V30 13510 H 1299.79 -4.82907 3.56259 0
M  V30 13511 H 1300.86 -3.42118 3.43633 0
M  V30 13512 N 1302.21 -1.00763 -1.2118 0
M  V30 13513 C 1303.45 -0.690459 -1.8994 0
M  V30 13514 C 1303.78 0.781464 -1.78656 0
M  V30 13515 O 1303.05 1.56135 -1.18316 0
M  V30 13516 H 1301.63 -0.252397 -0.703068 0
M  V30 13517 H 1304.29 -1.2773 -1.47211 0
M  V30 13518 H 1303.38 -0.96594 -2.96776 0
M  V30 13519 N 1303.68 1.3679 -0.7827 0
M  V30 13520 C 1304.93 1.98664 -0.348634 0
M  V30 13521 C 1305.25 1.62827 1.08382 0
M  V30 13522 O 1306.45 2.17886 1.61982 0
M  V30 13523 C 1304.91 3.55319 -0.572392 0
M  V30 13524 C 1304.52 4.00086 -2.01582 0
M  V30 13525 C 1306.26 4.24017 -0.202496 0
M  V30 13526 C 1304.17 5.49493 -2.18659 0
M  V30 13527 H 1303.1 0.743294 -0.126612 0
M  V30 13528 H 1305.75 1.56177 -0.963383 0
M  V30 13529 H 1304.13 3.95842 0.111973 0
M  V30 13530 H 1305.3 3.7078 -2.73603 0
M  V30 13531 H 1303.62 3.44205 -2.34333 0
M  V30 13532 H 1306.22 5.3381 -0.308459 0
M  V30 13533 H 1306.56 4.07559 0.84859 0
M  V30 13534 H 1307.09 3.88834 -0.839834 0
M  V30 13535 H 1303.83 5.7089 -3.22126 0
M  V30 13536 H 1303.35 5.80447 -1.51134 0
M  V30 13537 H 1305.03 6.15621 -1.99048 0
M  V30 13538 N 1305.16 0.53415 1.48272 0
M  V30 13539 C 1306.58 0.192291 1.58437 0
M  V30 13540 C 1306.78 -1.3046 1.53566 0
M  V30 13541 O 1305.83 -2.08316 1.42692 0
M  V30 13542 C 1307.15 0.798515 2.89904 0
M  V30 13543 C 1308.7 0.76763 3.03441 0
M  V30 13544 C 1309.17 1.3525 4.37574 0
M  V30 13545 N 1310.66 1.31466 4.44152 0
M  V30 13546 C 1311.4 1.73706 5.46456 0
M  V30 13547 N 1310.89 2.23695 6.55692 0
M  V30 13548 N 1312.69 1.64918 5.37363 0
M  V30 13549 H 1304.84 1.50696 1.49681 0
M  V30 13550 H 1307.1 0.627073 0.710973 0
M  V30 13551 H 1306.81 1.8496 2.99136 0
M  V30 13552 H 1306.68 0.278033 3.76174 0
M  V30 13553 H 1309.07 -0.274704 2.93819 0
M  V30 13554 H 1309.15 1.32562 2.18771 0
M  V30 13555 H 1308.79 2.39379 4.47951 0
M  V30 13556 H 1308.72 0.770153 5.20938 0
M  V30 13557 H 1311.21 0.948761 3.65796 0
M  V30 13558 H 1311.53 2.5391 7.29897 0
M  V30 13559 H 1309.87 2.27691 6.56644 0
M  V30 13560 H 1313.06 1.25658 4.50919 0
M  V30 13561 H 1313.23 1.98157 6.16958 0
M  V30 13562 N 1306.64 -1.55279 0.269478 0
M  V30 13563 C 1307.57 -2.25278 -0.614188 0
M  V30 13564 C 1308.55 -1.24092 -1.1634 0
M  V30 13565 O 1309.74 -1.52799 -1.19858 0
M  V30 13566 C 1306.87 -2.96956 -1.80096 0
M  V30 13567 C 1305.82 -4.05021 -1.38353 0
M  V30 13568 C 1305.15 -4.64244 -2.65295 0
M  V30 13569 C 1306.45 -5.19523 -0.537886 0
M  V30 13570 H 1308.14 -2.99385 -0.0304397 0
M  V30 13571 H 1305.69 -1.43994 -0.0132004 0
M  V30 13572 H 1307.64 -3.44633 -2.42499 0
M  V30 13573 H 1306.36 -2.20374 -2.41045 0
M  V30 13574 H 1305.02 -3.58146 -0.78273 0
M  V30 13575 H 1304.67 -3.84337 -3.2449 0
M  V30 13576 H 1304.37 -5.37208 -2.38079 0
M  V30 13577 H 1305.89 -5.14668 -3.28557 0
M  V30 13578 H 1307.31 -5.63287 -1.06677 0
M  V30 13579 H 1305.71 -5.99014 -0.360845 0
M  V30 13580 H 1306.78 -4.82857 0.444672 0
M  V30 13581 N 1308.12 0.00332656 -1.576 0
M  V30 13582 C 1309.4 0.725722 -1.81639 0
M  V30 13583 C 1309.78 1.92173 -0.87365 0
M  V30 13584 O 1309.12 2.28365 0.0783931 0
M  V30 13585 C 1309.33 1.13458 -3.30043 0
M  V30 13586 C 1310.68 1.53982 -3.95695 0
M  V30 13587 O 1311.71 1.22846 -3.34346 0
M  V30 13588 O 1310.56 2.11866 -5.03761 0
M  V30 13589 H 1307.66 0.353083 -0.747838 0
M  V30 13590 H 1310.2 -0.0218724 -1.69686 0
M  V30 13591 H 1308.98 0.281925 -3.90283 0
M  V30 13592 H 1308.6 1.94138 -3.46982 0
M  V30 13593 N 1309.6 1.55164 0.276031 0
M  V30 13594 C 1310.84 1.76811 1.00545 0
M  V30 13595 C 1311.2 0.560749 1.84047 0
M  V30 13596 O 1310.49 -0.446608 1.86322 0
M  V30 13597 C 1310.68 3.0127 1.92279 0
M  V30 13598 C 1310.51 4.33996 1.17804 0
M  V30 13599 C 1309.28 4.97311 0.894963 0
M  V30 13600 C 1311.48 5.11132 0.56998 0
M  V30 13601 N 1309.46 6.13777 0.123106 0
M  V30 13602 C 1310.83 6.19963 -0.0678612 0
M  V30 13603 C 1312.89 4.95605 0.47752 0
M  V30 13604 C 1311.59 7.14957 -0.789246 0
M  V30 13605 C 1313.62 5.90952 -0.230266 0
M  V30 13606 C 1312.98 6.99169 -0.856857 0
M  V30 13607 H 1309.08 0.6993 0.350006 0
M  V30 13608 H 1311.66 1.92655 0.281432 0
M  V30 13609 H 1309.83 2.86807 2.61909 0
M  V30 13610 H 1311.57 3.11335 2.58559 0
M  V30 13611 H 1308.32 4.58159 1.19947 0
M  V30 13612 H 1308.75 6.76538 -0.250065 0
M  V30 13613 H 1313.39 4.12043 0.947639 0
M  V30 13614 H 1311.11 7.98041 -1.27106 0
M  V30 13615 H 1314.69 5.81015 -0.302083 0
M  V30 13616 H 1313.57 7.71678 -1.39581 0
M  V30 13617 N 1311.07 -0.540404 1.48045 0
M  V30 13618 C 1312.35 -1.30148 1.46017 0
M  V30 13619 C 1312.73 -2.10445 0.166171 0
M  V30 13620 O 1312.08 -2.12013 -0.852223 0
M  V30 13621 C 1312.29 -2.19177 2.71593 0
M  V30 13622 C 1313.64 -2.79655 3.19497 0
M  V30 13623 O 1314.66 -2.2947 2.72437 0
M  V30 13624 O 1313.52 -3.70912 4.01356 0
M  V30 13625 H 1310.61 -0.586879 0.582668 0
M  V30 13626 H 1313.16 -0.557918 1.60267 0
M  V30 13627 H 1311.93 -1.59556 3.57292 0
M  V30 13628 H 1311.56 -3.00798 2.60012 0
M  V30 13629 N 1312.55 -1.36459 -0.788468 0
M  V30 13630 C 1313.83 -1.21289 -1.53455 0
M  V30 13631 C 1314.21 0.200549 -2.10145 0
M  V30 13632 O 1313.56 1.20629 -1.94064 0
M  V30 13633 C 1313.77 -2.29562 -2.62873 0
M  V30 13634 C 1315.12 -2.66277 -3.30729 0
M  V30 13635 O 1316.14 -2.28612 -2.73157 0
M  V30 13636 O 1315 -3.31106 -4.34777 0
M  V30 13637 H 1312.09 -0.472306 -0.678864 0
M  V30 13638 H 1314.64 -1.48192 -0.826869 0
M  V30 13639 H 1313.41 -3.24286 -2.18984 0
M  V30 13640 H 1313.03 -2.0403 -3.41259 0
M  V30 13641 N 1314.03 1.01274 -1.20754 0
M  V30 13642 C 1315.45 1.27256 -0.963221 0
M  V30 13643 C 1315.65 1.98349 0.354972 0
M  V30 13644 O 1314.7 2.28116 1.08255 0
M  V30 13645 C 1316.02 2.1038 -2.14851 0
M  V30 13646 C 1317.56 2.23633 -2.18991 0
M  V30 13647 C 1318.04 3.10136 -3.37016 0
M  V30 13648 N 1319.53 3.17724 -3.37054 0
M  V30 13649 C 1320.26 3.84891 -4.25025 0
M  V30 13650 N 1319.76 4.54152 -5.23181 0
M  V30 13651 N 1321.55 3.81454 -4.12855 0
M  V30 13652 H 1313.7 0.535534 -2.05538 0
M  V30 13653 H 1315.97 0.299006 -0.899611 0
M  V30 13654 H 1315.67 1.65484 -3.10335 0
M  V30 13655 H 1315.55 3.11122 -2.13267 0
M  V30 13656 H 1317.93 2.67753 -1.24067 0
M  V30 13657 H 1318.02 1.22387 -2.24622 0
M  V30 13658 H 1317.66 2.66721 -4.32229 0
M  V30 13659 H 1317.59 4.11478 -3.28623 0
M  V30 13660 H 1320.08 2.68412 -2.66014 0
M  V30 13661 H 1320.39 5.03084 -5.86623 0
M  V30 13662 H 1318.74 4.52964 -5.27113 0
M  V30 13663 H 1321.93 3.26494 -3.35439 0
M  V30 13664 H 1322.1 4.33523 -4.81624 0
M  V30 13665 N 1315.51 1.01404 1.20644 0
M  V30 13666 C 1316.74 0.72104 1.93929 0
M  V30 13667 C 1317.15 -0.717853 1.7462 0
M  V30 13668 O 1316.51 -1.48664 1.05855 0
M  V30 13669 C 1316.56 1.04399 3.46097 0
M  V30 13670 O 1316.28 2.42637 3.64773 0
M  V30 13671 C 1317.78 0.771678 4.36532 0
M  V30 13672 H 1315 0.264983 0.616462 0
M  V30 13673 H 1317.55 1.35453 1.53208 0
M  V30 13674 H 1315.7 0.455946 3.84708 0
M  V30 13675 H 1316.12 2.54201 4.58783 0
M  V30 13676 H 1317.59 1.04774 5.41965 0
M  V30 13677 H 1318.07 -0.294188 4.38214 0
M  V30 13678 H 1318.67 1.34176 4.0358 0
M  V30 13679 N 1316.99 -1.36373 0.789944 0
M  V30 13680 C 1317.92 -2.27803 0.134613 0
M  V30 13681 C 1318.9 -1.47252 -0.689599 0
M  V30 13682 O 1320.08 -1.76551 -0.660466 0
M  V30 13683 C 1317.21 -3.28751 -0.814888 0
M  V30 13684 C 1316.26 -4.26439 -0.0724012 0
M  V30 13685 S 1317.09 -5.20654 1.2522 0
M  V30 13686 C 1318.24 -6.25148 0.306715 0
M  V30 13687 H 1318.48 -2.83036 0.909837 0
M  V30 13688 H 1316.01 -1.42922 0.584187 0
M  V30 13689 H 1317.97 -3.87413 -1.35726 0
M  V30 13690 H 1316.63 -2.72429 -1.56336 0
M  V30 13691 H 1315.82 -4.97724 -0.792894 0
M  V30 13692 H 1315.42 -3.7186 0.399504 0
M  V30 13693 H 1317.72 -6.75546 -0.514246 0
M  V30 13694 H 1318.66 -7.0117 0.98827 0
M  V30 13695 H 1319.07 -5.64428 -0.0901834 0
M  V30 13696 N 1318.47 -0.542005 -1.47987 0
M  V30 13697 C 1319.41 0.227398 -2.31486 0
M  V30 13698 C 1320.41 0.923984 -1.41982 0
M  V30 13699 O 1321.61 0.847 -1.58827 0
M  V30 13700 H 1317.99 0.0922034 -0.746326 0
M  V30 13701 H 1319.96 -0.49625 -2.94245 0
M  V30 13702 C 1318.71 1.25384 -3.24306 0
M  V30 13703 H 1318.03 0.727243 -3.9313 0
M  V30 13704 H 1319.47 1.76337 -3.85592 0
M  V30 13705 C 1317.93 2.29378 -2.46754 0
M  V30 13706 O 1318.46 3.36034 -2.201 0
M  V30 13707 N 1316.67 2.02905 -2.08033 0
M  V30 13708 H 1316.21 1.16186 -2.2991 0
M  V30 13709 H 1316.17 2.72705 -1.56458 0
M  V30 13710 N 1319.94 1.55134 -0.277709 0
M  V30 13711 C 1321.22 1.91667 0.390253 0
M  V30 13712 C 1321.6 1.20228 1.73518 0
M  V30 13713 O 1320.95 0.330013 2.26104 0
M  V30 13714 C 1321.16 3.44983 0.52797 0
M  V30 13715 C 1322.51 4.16809 0.809665 0
M  V30 13716 O 1323.53 3.50891 0.612679 0
M  V30 13717 O 1322.39 5.33463 1.18656 0
M  V30 13718 H 1319.48 0.798807 0.214095 0
M  V30 13719 H 1322.03 1.66577 -0.324053 0
M  V30 13720 H 1320.8 3.89056 -0.418422 0
M  V30 13721 H 1320.42 3.76035 1.29164 0
M  V30 13722 N 1321.42 0.00503138 1.57599 0
M  V30 13723 C 1322.35 -0.983586 2.11773 0
M  V30 13724 C 1323.33 -1.35518 1.02805 0
M  V30 13725 O 1324.52 -1.43804 1.30514 0
M  V30 13726 C 1321.65 -2.27383 2.62515 0
M  V30 13727 C 1320.6 -2.0437 3.76054 0
M  V30 13728 C 1319.93 -3.39451 4.1313 0
M  V30 13729 C 1321.23 -1.40223 5.03125 0
M  V30 13730 H 1322.92 -0.532501 2.94627 0
M  V30 13731 H 1320.47 -0.254696 1.4173 0
M  V30 13732 H 1322.42 -2.96903 2.99043 0
M  V30 13733 H 1321.14 -2.74614 1.7679 0
M  V30 13734 H 1319.8 -1.37275 3.39928 0
M  V30 13735 H 1319.45 -3.84395 3.24422 0
M  V30 13736 H 1319.15 -3.24868 4.89627 0
M  V30 13737 H 1320.68 -4.10279 4.52221 0
M  V30 13738 H 1322.09 -1.99708 5.37392 0
M  V30 13739 H 1320.49 -1.36112 5.8446 0
M  V30 13740 H 1321.56 -0.372073 4.8347 0
M  V30 13741 N 1322.9 -1.55308 -0.267798 0
M  V30 13742 C 1323.81 -1.91649 -1.35307 0
M  V30 13743 C 1324.83 -0.814349 -1.53767 0
M  V30 13744 O 1326 -1.11388 -1.67793 0
M  V30 13745 C 1323.07 -2.18553 -2.69138 0
M  V30 13746 C 1322.13 -3.42083 -2.5938 0
M  V30 13747 C 1321.36 -3.67695 -3.86828 0
M  V30 13748 O 1321.58 -2.95728 -4.87751 0
M  V30 13749 O 1320.52 -4.61229 -3.86718 0
M  V30 13750 H 1324.34 -2.84044 -1.07483 0
M  V30 13751 H 1321.93 -1.41921 -0.466772 0
M  V30 13752 H 1323.81 -2.3726 -3.48261 0
M  V30 13753 H 1322.49 -1.2934 -2.96737 0
M  V30 13754 H 1321.39 -3.28706 -1.78614 0
M  V30 13755 H 1322.73 -4.31532 -2.36729 0
M  V30 13756 N 1324.38 0.532545 -1.4833 0
M  V30 13757 C 1325.65 1.29371 -1.46705 0
M  V30 13758 C 1326.03 2.10354 -0.177329 0
M  V30 13759 O 1325.38 2.12462 0.840968 0
M  V30 13760 C 1325.59 2.17733 -2.72751 0
M  V30 13761 C 1326.94 2.77956 -3.20976 0
M  V30 13762 O 1327.96 2.28022 -2.7365 0
M  V30 13763 O 1326.82 3.68779 -4.03317 0
M  V30 13764 H 1323.92 0.58378 -0.585773 0
M  V30 13765 H 1326.46 0.549411 -1.6056 0
M  V30 13766 H 1325.24 1.57659 -3.58133 0
M  V30 13767 H 1324.86 2.99415 -2.61603 0
M  V30 13768 N 1325.86 1.36875 0.78122 0
M  V30 13769 C 1327.08 1.349 1.57533 0
M  V30 13770 C 1327.51 -0.0655249 1.87986 0
M  V30 13771 O 1326.86 -1.03986 1.48515 0
M  V30 13772 C 1326.91 2.18562 2.86815 0
M  V30 13773 O 1326.02 1.58374 3.80777 0
M  V30 13774 H 1325.36 0.461355 0.477543 0
M  V30 13775 H 1327.89 1.80271 0.96766 0
M  V30 13776 H 1327.9 2.31436 3.36008 0
M  V30 13777 H 1326.57 3.21385 2.63978 0
M  V30 13778 H 1325.15 1.54487 3.39394 0
M  V30 13779 N 1327.33 -1.00632 1.21289 0
M  V30 13780 C 1328.56 -1.77709 1.05371 0
M  V30 13781 C 1328.97 -1.84933 -0.39956 0
M  V30 13782 O 1328.31 -1.30881 -1.28903 0
M  V30 13783 C 1328.38 -3.23206 1.5741 0
M  V30 13784 C 1328.04 -3.39563 3.05852 0
M  V30 13785 C 1329.04 -3.27952 4.03415 0
M  V30 13786 C 1326.72 -3.65048 3.4503 0
M  V30 13787 C 1328.72 -3.41587 5.38142 0
M  V30 13788 C 1326.4 -3.78325 4.7991 0
M  V30 13789 C 1327.4 -3.66601 5.76275 0
M  V30 13790 O 1327.09 -3.79458 7.08708 0
M  V30 13791 H 1326.82 -0.565369 0.370585 0
M  V30 13792 H 1329.38 -1.27483 1.6105 0
M  V30 13793 H 1327.61 -3.74562 0.96126 0
M  V30 13794 H 1329.29 -3.81953 1.37356 0
M  V30 13795 H 1330.06 -3.0819 3.74492 0
M  V30 13796 H 1325.94 -3.73256 2.70557 0
M  V30 13797 H 1329.48 -3.32353 6.13341 0
M  V30 13798 H 1325.38 -3.97591 5.08519 0
M  V30 13799 H 1326.15 -3.96413 7.161 0
M  V30 13800 N 1328.81 -1.02043 -1.20104 0
M  V30 13801 C 1330.06 -0.710566 -1.89197 0
M  V30 13802 C 1330.38 0.762471 -1.79475 0
M  V30 13803 O 1329.65 1.54871 -1.19965 0
M  V30 13804 H 1328.23 -0.259839 -0.700352 0
M  V30 13805 H 1330.89 -1.29285 -1.45848 0
M  V30 13806 H 1329.99 -0.997363 -2.95735 0
M  V30 13807 N 1330.29 1.35952 -0.797165 0
M  V30 13808 C 1331.22 2.28649 -0.15877 0
M  V30 13809 C 1332.24 1.49842 0.636481 0
M  V30 13810 O 1333.42 1.72191 0.47039 0
M  V30 13811 C 1330.52 3.29373 0.797913 0
M  V30 13812 C 1329.7 4.3737 0.0510574 0
M  V30 13813 C 1328.76 5.18009 0.924826 0
M  V30 13814 O 1327.78 5.67935 0.379223 0
M  V30 13815 N 1328.98 5.352 2.24813 0
M  V30 13816 H 1331.75 2.84075 -0.955056 0
M  V30 13817 H 1329.31 1.48201 -0.651767 0
M  V30 13818 H 1331.3 3.80209 1.38646 0
M  V30 13819 H 1329.87 2.74531 1.49504 0
M  V30 13820 H 1329.09 3.87594 -0.718633 0
M  V30 13821 H 1330.38 5.0668 -0.464025 0
M  V30 13822 H 1329.78 4.96266 2.71545 0
M  V30 13823 H 1328.34 5.89252 2.78614 0
M  V30 13824 N 1331.77 0.549846 1.47697 0
M  V30 13825 C 1332.68 -0.205286 2.337 0
M  V30 13826 C 1333.69 -0.919271 1.47734 0
M  V30 13827 O 1334.87 -0.889808 1.80678 0
M  V30 13828 C 1331.94 -1.22658 3.24278 0
M  V30 13829 C 1331 -0.520815 4.26129 0
M  V30 13830 C 1330.23 -1.49345 5.12378 0
M  V30 13831 O 1330.45 -2.72772 5.00951 0
M  V30 13832 O 1329.39 -1.02197 5.93161 0
M  V30 13833 H 1333.21 0.499982 2.99556 0
M  V30 13834 H 1330.8 0.310538 1.46137 0
M  V30 13835 H 1332.68 -1.8163 3.80248 0
M  V30 13836 H 1331.35 -1.9139 2.61059 0
M  V30 13837 H 1330.26 0.109906 3.73939 0
M  V30 13838 H 1331.59 0.124922 4.92041 0
M  V30 13839 N 1333.25 -1.54984 0.285932 0
M  V30 13840 C 1334.49 -2.00848 -0.321162 0
M  V30 13841 C 1334.85 -1.17086 -1.52672 0
M  V30 13842 O 1334.14 -0.235523 -1.90147 0
M  V30 13843 C 1334.33 -3.49581 -0.7435 0
M  V30 13844 C 1334.16 -4.47738 0.419586 0
M  V30 13845 C 1332.93 -4.97096 0.906821 0
M  V30 13846 C 1335.13 -4.98636 1.25963 0
M  V30 13847 N 1333.11 -5.79076 2.03824 0
M  V30 13848 C 1334.48 -5.78169 2.23878 0
M  V30 13849 C 1336.54 -4.80852 1.29174 0
M  V30 13850 C 1335.24 -6.41813 3.2476 0
M  V30 13851 C 1337.27 -5.45303 2.28906 0
M  V30 13852 C 1336.63 -6.24656 3.25552 0
M  V30 13853 H 1332.73 -0.777647 -0.0823951 0
M  V30 13854 H 1335.31 -1.90282 0.412418 0
M  V30 13855 H 1333.48 -3.60468 -1.44628 0
M  V30 13856 H 1335.22 -3.82261 -1.32885 0
M  V30 13857 H 1331.97 -4.71117 0.484305 0
M  V30 13858 H 1332.4 -6.24754 2.6079 0
M  V30 13859 H 1337.04 -4.19097 0.558318 0
M  V30 13860 H 1334.76 -7.0271 3.99029 0
M  V30 13861 H 1338.34 -5.33479 2.32145 0
M  V30 13862 H 1337.22 -6.73645 4.01462 0
M  V30 13863 N 1334.72 -0.0133892 -1.57594 0
M  V30 13864 C 1335.95 0.679255 -1.95432 0
M  V30 13865 C 1336.37 1.66558 -0.889028 0
M  V30 13866 O 1335.72 1.82031 0.130755 0
M  V30 13867 C 1335.78 1.39943 -3.33314 0
M  V30 13868 O 1335.5 0.452643 -4.35755 0
M  V30 13869 C 1337 2.18535 -3.85691 0
M  V30 13870 H 1334.22 0.188337 -0.644026 0
M  V30 13871 H 1336.76 -0.0684861 -2.04385 0
M  V30 13872 H 1334.92 2.0987 -3.25628 0
M  V30 13873 H 1335.33 0.962243 -5.15598 0
M  V30 13874 H 1336.8 2.64403 -4.84557 0
M  V30 13875 H 1337.28 3.01779 -3.19102 0
M  V30 13876 H 1337.89 1.53598 -3.96595 0
M  V30 13877 N 1336.2 1.55448 0.259558 0
M  V30 13878 C 1337.43 1.80465 1.00577 0
M  V30 13879 C 1337.84 0.585001 1.79929 0
M  V30 13880 O 1337.18 -0.455641 1.7796 0
M  V30 13881 C 1337.25 2.98634 2.00146 0
M  V30 13882 C 1336.91 4.35154 1.39607 0
M  V30 13883 C 1337.91 5.13631 0.804923 0
M  V30 13884 C 1335.59 4.81833 1.41923 0
M  V30 13885 C 1337.59 6.36929 0.245007 0
M  V30 13886 C 1335.27 6.05083 0.855458 0
M  V30 13887 C 1336.27 6.82469 0.269359 0
M  V30 13888 O 1335.96 8.03392 -0.285743 0
M  V30 13889 H 1335.69 0.604693 0.302196 0
M  V30 13890 H 1338.24 2.0332 0.291599 0
M  V30 13891 H 1336.47 2.71504 2.75359 0
M  V30 13892 H 1338.16 3.10855 2.61006 0
M  V30 13893 H 1338.93 4.78693 0.779625 0
M  V30 13894 H 1334.81 4.21599 1.86481 0
M  V30 13895 H 1338.35 6.97274 -0.213098 0
M  V30 13896 H 1334.25 6.395 0.878041 0
M  V30 13897 H 1335.02 8.1831 -0.17639 0
M  V30 13898 N 1337.68 -0.524672 1.4861 0
M  V30 13899 C 1338.59 -1.65554 1.6622 0
M  V30 13900 C 1339.61 -1.65254 0.54471 0
M  V30 13901 O 1340.78 -1.84109 0.816454 0
M  V30 13902 C 1337.85 -3.02003 1.7028 0
M  V30 13903 C 1336.91 -3.13116 2.93695 0
M  V30 13904 C 1336.14 -4.43055 2.97553 0
M  V30 13905 O 1336.36 -5.30468 2.09667 0
M  V30 13906 O 1335.3 -4.58646 3.89779 0
M  V30 13907 H 1339.12 -1.53633 2.61974 0
M  V30 13908 H 1336.71 -0.698354 1.32073 0
M  V30 13909 H 1338.59 -3.83143 1.75441 0
M  V30 13910 H 1337.27 -3.14236 0.777002 0
M  V30 13911 H 1336.17 -2.31251 2.94064 0
M  V30 13912 H 1337.51 -3.058 3.85677 0
M  V30 13913 N 1339.16 -1.37287 -0.77395 0
M  V30 13914 C 1340.09 -1.28746 -1.89624 0
M  V30 13915 C 1341.1 -0.203715 -1.6152 0
M  V30 13916 O 1342.29 -0.459684 -1.72479 0
M  V30 13917 C 1339.39 -0.967342 -3.24801 0
M  V30 13918 C 1338.57 -2.1561 -3.80567 0
M  V30 13919 C 1337.62 -1.80661 -4.94215 0
M  V30 13920 O 1336.65 -2.5293 -5.09917 0
M  V30 13921 N 1337.85 -0.749424 -5.75642 0
M  V30 13922 H 1340.62 -2.25447 -1.97468 0
M  V30 13923 H 1338.18 -1.30883 -0.952956 0
M  V30 13924 H 1340.17 -0.714421 -3.98344 0
M  V30 13925 H 1338.74 -0.0889573 -3.12473 0
M  V30 13926 H 1337.96 -2.57091 -2.98828 0
M  V30 13927 H 1339.25 -2.94993 -4.14556 0
M  V30 13928 H 1338.65 -0.149673 -5.65502 0
M  V30 13929 H 1337.2 -0.556358 -6.49421 0
M  V30 13930 N 1340.64 0.999871 -1.21821 0
M  V30 13931 C 1342.05 1.26228 -0.976664 0
M  V30 13932 C 1342.25 1.98714 0.333915 0
M  V30 13933 O 1341.31 2.29252 1.05829 0
M  V30 13934 C 1342.62 2.08089 -2.1707 0
M  V30 13935 C 1344.17 2.21298 -2.21351 0
M  V30 13936 C 1344.64 3.06544 -3.40287 0
M  V30 13937 N 1346.14 3.14131 -3.40405 0
M  V30 13938 C 1346.87 3.80362 -4.29083 0
M  V30 13939 N 1346.37 4.48577 -5.27968 0
M  V30 13940 N 1348.16 3.77053 -4.16878 0
M  V30 13941 H 1340.31 0.513704 -2.06094 0
M  V30 13942 H 1342.57 0.289447 -0.902732 0
M  V30 13943 H 1342.28 1.62183 -3.12073 0
M  V30 13944 H 1342.15 3.08843 -2.16554 0
M  V30 13945 H 1344.54 2.66422 -1.269 0
M  V30 13946 H 1344.62 1.19997 -2.25908 0
M  V30 13947 H 1344.27 2.62122 -4.35034 0
M  V30 13948 H 1344.2 4.0797 -3.32969 0
M  V30 13949 H 1346.69 2.65576 -2.68846 0
M  V30 13950 H 1347 4.96833 -5.91926 0
M  V30 13951 H 1345.34 4.47348 -5.31888 0
M  V30 13952 H 1348.54 3.22918 -3.38883 0
M  V30 13953 H 1348.71 4.2839 -4.86195 0
M  V30 13954 N 1342.11 1.02678 1.19562 0
M  V30 13955 C 1343.06 0.605764 2.22709 0
M  V30 13956 C 1344.03 -0.37936 1.6171 0
M  V30 13957 O 1345.22 -0.276496 1.88786 0
M  V30 13958 C 1342.36 -0.0394312 3.45077 0
M  V30 13959 C 1341.47 0.991481 4.20468 0
M  V30 13960 C 1340.6 0.316269 5.30258 0
M  V30 13961 C 1339.64 1.33324 5.97404 0
M  V30 13962 N 1338.78 0.683979 6.9876 0
M  V30 13963 H 1343.62 1.48994 2.58079 0
M  V30 13964 H 1341.16 0.745636 1.26802 0
M  V30 13965 H 1343.12 -0.430726 4.14971 0
M  V30 13966 H 1341.75 -0.887193 3.10369 0
M  V30 13967 H 1340.8 1.50085 3.49541 0
M  V30 13968 H 1342.11 1.76449 4.66548 0
M  V30 13969 H 1341.26 -0.129983 6.06561 0
M  V30 13970 H 1340 -0.488956 4.85243 0
M  V30 13971 H 1339.01 1.78977 5.19853 0
M  V30 13972 H 1340.23 2.13992 6.44503 0
M  V30 13973 H 1338.18 -0.101192 6.55922 0
M  V30 13974 H 1338.1 1.3949 7.4302 0
M  V30 13975 H 1339.36 0.261658 7.79061 0
M  V30 13976 N 1343.59 -1.35528 0.804364 0
M  V30 13977 C 1344.84 -1.99126 0.384261 0
M  V30 13978 C 1345.17 -1.63668 -1.0453 0
M  V30 13979 O 1344.45 -0.898896 -1.72482 0
M  V30 13980 C 1344.73 -3.55636 0.565278 0
M  V30 13981 C 1344.58 -4.00899 2.03961 0
M  V30 13982 C 1345.9 -4.40099 -0.0104301 0
M  V30 13983 H 1343.02 -0.723369 0.141092 0
M  V30 13984 H 1345.66 -1.60712 1.01348 0
M  V30 13985 H 1343.81 -3.88489 0.0296425 0
M  V30 13986 H 1345.48 -3.78465 2.63746 0
M  V30 13987 H 1343.73 -3.5189 2.53685 0
M  V30 13988 H 1344.4 -5.09785 2.11716 0
M  V30 13989 H 1346.87 -4.13692 0.446985 0
M  V30 13990 H 1345.75 -5.48705 0.146155 0
M  V30 13991 H 1346.01 -4.28096 -1.10392 0
M  V30 13992 N 1345.07 -0.557671 -1.47404 0
M  V30 13993 C 1346.32 -0.0338384 -2.02772 0
M  V30 13994 C 1346.65 1.31278 -1.43107 0
M  V30 13995 O 1345.93 1.85436 -0.58682 0
M  V30 13996 C 1346.21 0.0587427 -3.60052 0
M  V30 13997 C 1346.06 -1.315 -4.30148 0
M  V30 13998 C 1347.38 0.771942 -4.33277 0
M  V30 13999 H 1344.5 -0.0137711 -0.736871 0
M  V30 14000 H 1347.14 -0.720049 -1.75827 0
M  V30 14001 H 1345.29 0.643154 -3.83139 0
M  V30 14002 H 1346.96 -1.94265 -4.184 0
M  V30 14003 H 1345.21 -1.88956 -3.90484 0
M  V30 14004 H 1345.88 -1.20294 -5.38733 0
M  V30 14005 H 1348.35 0.275729 -4.15185 0
M  V30 14006 H 1347.23 0.805683 -5.42955 0
M  V30 14007 H 1347.49 1.82816 -4.0253 0
M  V30 14008 N 1346.55 1.54831 -0.294147 0
M  V30 14009 C 1347.46 2.26939 0.594621 0
M  V30 14010 C 1348.48 1.30209 1.15419 0
M  V30 14011 O 1349.65 1.6318 1.18044 0
M  V30 14012 C 1346.72 2.9909 1.75345 0
M  V30 14013 C 1345.78 4.11342 1.22865 0
M  V30 14014 C 1345.01 4.80043 2.33225 0
M  V30 14015 O 1345.23 4.48062 3.52983 0
M  V30 14016 O 1344.17 5.67593 2.00304 0
M  V30 14017 H 1347.99 3.03698 0.00989235 0
M  V30 14018 H 1345.58 1.49276 -0.0608528 0
M  V30 14019 H 1347.46 3.44369 2.42875 0
M  V30 14020 H 1346.14 2.25232 2.32492 0
M  V30 14021 H 1345.04 3.70478 0.519279 0
M  V30 14022 H 1346.38 4.87158 0.702703 0
M  V30 14023 N 1348.03 0.0217466 1.57585 0
M  V30 14024 C 1349.27 -0.658487 1.91495 0
M  V30 14025 C 1349.6 -1.72557 0.897462 0
M  V30 14026 O 1348.86 -1.95471 -0.0946909 0
M  V30 14027 C 1349.16 -1.3197 3.32143 0
M  V30 14028 C 1348.82 -0.383706 4.49264 0
M  V30 14029 C 1347.48 -0.126065 4.81035 0
M  V30 14030 C 1349.84 0.259445 5.20554 0
M  V30 14031 C 1347.16 0.782659 5.81456 0
M  V30 14032 C 1349.52 1.15618 6.21945 0
M  V30 14033 C 1348.18 1.42278 6.5216 0
M  V30 14034 H 1347.45 -0.240958 0.700729 0
M  V30 14035 H 1350.1 0.0819351 1.91325 0
M  V30 14036 H 1348.4 -2.13469 3.28539 0
M  V30 14037 H 1350.1 -1.85245 3.55648 0
M  V30 14038 H 1346.69 -0.59469 4.24454 0
M  V30 14039 H 1350.87 0.073445 4.96246 0
M  V30 14040 H 1346.13 0.996995 6.03216 0
M  V30 14041 H 1350.3 1.66077 6.76307 0
M  V30 14042 H 1347.93 2.1286 7.29791 0
M  V30 14043 N 1349.51 -1.55583 -0.251311 0
M  V30 14044 C 1350.73 -1.81259 -0.997636 0
M  V30 14045 C 1351.15 -0.596861 -1.79117 0
M  V30 14046 O 1350.51 0.434425 -1.77254 0
M  V30 14047 C 1350.56 -3.05097 -1.93902 0
M  V30 14048 O 1350.28 -4.21976 -1.1776 0
M  V30 14049 C 1351.78 -3.4354 -2.8017 0
M  V30 14050 H 1349 -0.603279 -0.29376 0
M  V30 14051 H 1351.54 -2.02635 -0.27553 0
M  V30 14052 H 1349.7 -2.85784 -2.61546 0
M  V30 14053 H 1350.11 -4.92133 -1.81398 0
M  V30 14054 H 1351.59 -4.33305 -3.41981 0
M  V30 14055 H 1352.06 -2.63924 -3.51057 0
M  V30 14056 H 1352.67 -3.65189 -2.17985 0
M  V30 14057 N 1350.98 0.516783 -1.48886 0
M  V30 14058 C 1352.22 1.28221 -1.59181 0
M  V30 14059 C 1352.59 1.90156 -0.265466 0
M  V30 14060 O 1353.79 2.67695 -0.243489 0
M  V30 14061 C 1352.06 2.3326 -2.70785 0
M  V30 14062 S 1353.62 3.19353 -3.00931 0
M  V30 14063 H 1350.44 0.435976 -0.561646 0
M  V30 14064 H 1353.04 0.587238 -1.86472 0
M  V30 14065 H 1351.74 1.86263 -3.65697 0
M  V30 14066 H 1351.27 3.07447 -2.45438 0
M  V30 14067 H 1353.29 4.3361 -2.4124 0
M  V30 14068 N 1352.46 1.37696 0.766659 0
M  V30 14069 C 1353.41 1.30383 1.87041 0
M  V30 14070 C 1354.4 0.190643 1.59767 0
M  V30 14071 O 1355.59 0.425485 1.7181 0
M  V30 14072 C 1352.72 1.11817 3.2458 0
M  V30 14073 C 1351.8 2.27701 3.57789 0
M  V30 14074 N 1352.19 3.53108 3.62144 0
M  V30 14075 C 1350.49 2.19967 3.87983 0
M  V30 14076 C 1351.19 4.29555 3.92247 0
M  V30 14077 N 1350.17 3.58754 4.08408 0
M  V30 14078 H 1353.97 2.25348 1.88668 0
M  V30 14079 H 1351.48 1.30741 0.963362 0
M  V30 14080 H 1353.48 1.04663 4.03548 0
M  V30 14081 H 1352.14 0.177731 3.24213 0
M  V30 14082 H 1353.15 3.86949 3.44225 0
M  V30 14083 H 1349.83 1.34009 3.95408 0
M  V30 14084 H 1351.22 5.38112 4.0235 0
M  V30 14085 N 1353.94 -0.993397 1.22349 0
M  V30 14086 C 1355.17 -1.76838 1.07406 0
M  V30 14087 C 1355.58 -1.8503 -0.37542 0
M  V30 14088 O 1354.94 -1.32008 -1.26016 0
M  V30 14089 C 1354.99 -3.20177 1.67837 0
M  V30 14090 O 1354.71 -3.12429 3.07115 0
M  V30 14091 C 1356.21 -4.14125 1.58161 0
M  V30 14092 H 1353.43 -0.555379 0.376557 0
M  V30 14093 H 1355.98 -1.24893 1.61932 0
M  V30 14094 H 1354.13 -3.69191 1.17375 0
M  V30 14095 H 1354.55 -4.02568 3.36213 0
M  V30 14096 H 1356.02 -5.12455 2.05169 0
M  V30 14097 H 1356.5 -4.35892 0.538073 0
M  V30 14098 H 1357.1 -3.71008 2.07926 0
M  V30 14099 N 1355.42 -1.03311 -1.19015 0
M  V30 14100 C 1356.38 -0.622114 -2.20596 0
M  V30 14101 C 1357.38 0.316502 -1.57654 0
M  V30 14102 O 1358.57 0.102932 -1.73896 0
M  V30 14103 C 1355.7 0.0890432 -3.40784 0
M  V30 14104 H 1356.9 -1.52095 -2.58471 0
M  V30 14105 H 1354.45 -0.824777 -1.32767 0
M  V30 14106 H 1355.18 1.00203 -3.08431 0
M  V30 14107 H 1354.97 -0.58547 -3.87704 0
M  V30 14108 H 1356.46 0.363366 -4.16016 0
M  V30 14109 N 1356.9 1.35099 -0.81154 0
M  V30 14110 C 1358.14 1.98625 -0.394231 0
M  V30 14111 C 1358.47 1.6437 1.03985 0
M  V30 14112 O 1357.73 0.901496 1.737 0
M  V30 14113 C 1358.02 3.53444 -0.530322 0
M  V30 14114 C 1357.69 4.0758 -1.92844 0
M  V30 14115 C 1356.35 4.22077 -2.31094 0
M  V30 14116 C 1358.7 4.36838 -2.84292 0
M  V30 14117 C 1356.03 4.63153 -3.60148 0
M  V30 14118 C 1358.38 4.79355 -4.12798 0
M  V30 14119 C 1357.05 4.92057 -4.51039 0
M  V30 14120 H 1356.32 0.726822 -0.144259 0
M  V30 14121 H 1358.97 1.61231 -1.03329 0
M  V30 14122 H 1357.27 3.91328 0.192166 0
M  V30 14123 H 1358.97 4.00558 -0.188134 0
M  V30 14124 H 1355.56 3.96752 -1.62129 0
M  V30 14125 H 1359.74 4.25187 -2.55988 0
M  V30 14126 H 1355 4.71176 -3.89619 0
M  V30 14127 H 1359.17 5.00954 -4.83754 0
M  V30 14128 H 1356.8 5.23643 -5.51092 0
M  V30 14129 N 1358.37 0.56548 1.47106 0
M  V30 14130 C 1359.62 0.0445255 2.02451 0
M  V30 14131 C 1359.95 -1.30863 1.43893 0
M  V30 14132 O 1359.2 -1.8668 0.587274 0
M  V30 14133 C 1359.5 -0.0893776 3.57288 0
M  V30 14134 C 1359.17 1.19395 4.34805 0
M  V30 14135 C 1357.83 1.54558 4.55703 0
M  V30 14136 C 1360.18 2.04399 4.79448 0
M  V30 14137 C 1357.51 2.74557 5.18494 0
M  V30 14138 C 1359.86 3.23608 5.43563 0
M  V30 14139 C 1358.53 3.59074 5.62692 0
M  V30 14140 H 1357.8 0.016293 0.740821 0
M  V30 14141 H 1360.44 0.738657 1.76681 0
M  V30 14142 H 1358.75 -0.86653 3.82097 0
M  V30 14143 H 1360.45 -0.507943 3.9777 0
M  V30 14144 H 1357.04 0.910176 4.18824 0
M  V30 14145 H 1361.22 1.78539 4.63074 0
M  V30 14146 H 1356.48 3.02194 5.31497 0
M  V30 14147 H 1360.65 3.89755 5.77117 0
M  V30 14148 H 1358.28 4.5215 6.11117 0
M  V30 14149 N 1359.85 -1.54672 0.302354 0
M  V30 14150 C 1360.82 -2.22246 -0.560283 0
M  V30 14151 C 1361.82 -1.20895 -1.06023 0
M  V30 14152 O 1363.01 -1.45621 -0.956047 0
M  V30 14153 C 1360.14 -2.9099 -1.77589 0
M  V30 14154 H 1361.33 -2.99885 0.0301274 0
M  V30 14155 H 1358.88 -1.56209 0.0532036 0
M  V30 14156 H 1359.62 -2.17433 -2.4061 0
M  V30 14157 H 1359.4 -3.65288 -1.42503 0
M  V30 14158 H 1360.89 -3.42535 -2.38871 0
M  V30 14159 N 1361.33 -0.0301034 -1.57571 0
M  V30 14160 C 1362.56 0.662045 -1.9655 0
M  V30 14161 C 1362.98 1.64811 -0.906581 0
M  V30 14162 O 1362.34 1.80816 0.132415 0
M  V30 14163 C 1362.39 1.34389 -3.34622 0
M  V30 14164 O 1361.49 2.45919 -3.31056 0
M  V30 14165 H 1360.83 0.173842 -0.640839 0
M  V30 14166 H 1363.36 -0.092248 -2.04392 0
M  V30 14167 H 1363.37 1.70045 -3.70875 0
M  V30 14168 H 1362.05 0.621092 -4.11236 0
M  V30 14169 H 1360.62 2.12367 -3.06521 0
M  V30 14170 N 1362.81 1.55714 0.243056 0
M  V30 14171 C 1364.06 1.76927 0.96849 0
M  V30 14172 C 1364.37 0.594748 1.86339 0
M  V30 14173 O 1365.58 0.689981 2.62586 0
M  V30 14174 C 1364.03 3.13246 1.77214 0
M  V30 14175 C 1363.64 4.38358 0.92444 0
M  V30 14176 C 1365.38 3.43796 2.49007 0
M  V30 14177 C 1363.29 5.65708 1.7242 0
M  V30 14178 H 1362.22 0.659574 0.365346 0
M  V30 14179 H 1364.87 1.8214 0.223026 0
M  V30 14180 H 1363.25 3.02151 2.5597 0
M  V30 14181 H 1364.43 4.60452 0.178936 0
M  V30 14182 H 1362.74 4.15171 0.319653 0
M  V30 14183 H 1365.34 4.3616 3.09303 0
M  V30 14184 H 1365.68 2.65297 3.20817 0
M  V30 14185 H 1366.22 3.56124 1.77259 0
M  V30 14186 H 1362.96 6.47039 1.04978 0
M  V30 14187 H 1362.48 5.4771 2.44488 0
M  V30 14188 H 1364.15 6.05105 2.29036 0
M  V30 14189 N 1364.29 -0.50888 1.49158 0
M  V30 14190 C 1365.53 -1.26537 1.58481 0
M  V30 14191 C 1365.87 -1.92353 0.267168 0
M  V30 14192 O 1365.14 -1.80336 -0.728639 0
M  V30 14193 C 1365.42 -2.33846 2.73839 0
M  V30 14194 C 1365.28 -1.72582 4.15374 0
M  V30 14195 C 1366.6 -3.35467 2.84868 0
M  V30 14196 H 1363.71 -0.458697 0.576859 0
M  V30 14197 H 1366.36 -0.564728 1.81413 0
M  V30 14198 H 1364.51 -2.93605 2.54417 0
M  V30 14199 H 1366.18 -1.16711 4.46292 0
M  V30 14200 H 1364.42 -1.03025 4.21389 0
M  V30 14201 H 1365.09 -2.5038 4.91949 0
M  V30 14202 H 1367.57 -2.85689 3.02524 0
M  V30 14203 H 1366.44 -4.07922 3.67275 0
M  V30 14204 H 1366.71 -3.97313 1.93894 0
M  V30 14205 N 1365.76 -1.381 -0.759346 0
M  V30 14206 C 1367.01 -1.3419 -1.52055 0
M  V30 14207 C 1367.34 0.0697657 -1.94075 0
M  V30 14208 O 1366.62 1.02975 -1.65004 0
M  V30 14209 C 1366.9 -2.29236 -2.7771 0
M  V30 14210 C 1366.75 -3.79237 -2.41866 0
M  V30 14211 C 1368.07 -2.22511 -3.79706 0
M  V30 14212 H 1365.19 -0.488768 -0.551611 0
M  V30 14213 H 1367.83 -1.68902 -0.870174 0
M  V30 14214 H 1365.98 -1.99764 -3.33206 0
M  V30 14215 H 1367.66 -4.19358 -1.92189 0
M  V30 14216 H 1365.9 -3.97199 -1.74399 0
M  V30 14217 H 1366.57 -4.41193 -3.31742 0
M  V30 14218 H 1369.05 -2.48516 -3.33735 0
M  V30 14219 H 1367.92 -2.91134 -4.6533 0
M  V30 14220 H 1368.18 -1.22206 -4.24874 0
M  V30 14221 N 1367.24 0.986894 -1.22875 0
M  V30 14222 C 1368.49 1.72985 -1.05849 0
M  V30 14223 C 1368.82 1.89939 0.404594 0
M  V30 14224 O 1368.1 1.44693 1.29978 0
M  V30 14225 C 1368.38 3.13193 -1.77714 0
M  V30 14226 C 1368.23 3.0385 -3.31655 0
M  V30 14227 C 1369.55 4.12486 -1.53438 0
M  V30 14228 H 1366.67 0.627877 -0.385926 0
M  V30 14229 H 1369.31 1.14936 -1.51294 0
M  V30 14230 H 1367.46 3.62751 -1.39083 0
M  V30 14231 H 1369.13 2.61866 -3.79768 0
M  V30 14232 H 1367.38 2.4051 -3.61023 0
M  V30 14233 H 1368.05 4.03092 -3.77122 0
M  V30 14234 H 1370.52 3.71709 -1.87007 0
M  V30 14235 H 1369.4 5.08694 -2.06207 0
M  V30 14236 H 1369.66 4.39613 -0.468294 0
M  V30 14237 N 1368.72 1.0394 1.18466 0
M  V30 14238 C 1369.65 0.587413 2.21545 0
M  V30 14239 C 1370.67 -0.34227 1.59161 0
M  V30 14240 O 1371.85 -0.136988 1.77974 0
M  V30 14241 C 1368.95 -0.161999 3.38513 0
M  V30 14242 C 1368.13 0.775243 4.30475 0
M  V30 14243 C 1367.19 0.0693526 5.26154 0
M  V30 14244 O 1366.21 0.69937 5.64887 0
M  V30 14245 N 1367.41 -1.19773 5.68009 0
M  V30 14246 H 1370.18 1.47399 2.60948 0
M  V30 14247 H 1367.74 0.919734 1.33239 0
M  V30 14248 H 1369.73 -0.644041 3.99542 0
M  V30 14249 H 1368.3 -0.950099 2.97812 0
M  V30 14250 H 1367.52 1.43717 3.67068 0
M  V30 14251 H 1368.81 1.41187 4.88819 0
M  V30 14252 H 1368.21 -1.73013 5.38593 0
M  V30 14253 H 1366.77 -1.62407 6.31243 0
M  V30 14254 N 1370.2 -1.34667 0.818693 0
M  V30 14255 C 1371.44 -1.99131 0.414527 0
M  V30 14256 C 1371.8 -1.63747 -1.01018 0
M  V30 14257 O 1371.09 -0.896699 -1.69322 0
M  V30 14258 C 1371.29 -3.53157 0.549059 0
M  V30 14259 C 1371.12 -4.03505 1.98529 0
M  V30 14260 C 1369.89 -4.32296 2.61627 0
M  V30 14261 C 1372.08 -4.2118 2.95147 0
M  V30 14262 N 1370.07 -4.68651 3.96534 0
M  V30 14263 C 1371.44 -4.60668 4.14952 0
M  V30 14264 C 1373.49 -4.03418 2.91819 0
M  V30 14265 C 1372.19 -4.8425 5.31878 0
M  V30 14266 C 1374.22 -4.28164 4.07958 0
M  V30 14267 C 1373.58 -4.67934 5.26514 0
M  V30 14268 H 1369.68 -0.75607 0.199704 0
M  V30 14269 H 1372.27 -1.63154 1.0625 0
M  V30 14270 H 1370.44 -3.88339 -0.0689894 0
M  V30 14271 H 1372.17 -4.04527 0.118304 0
M  V30 14272 H 1368.92 -4.23051 2.12896 0
M  V30 14273 H 1369.35 -4.9107 4.66025 0
M  V30 14274 H 1373.99 -3.71802 2.01303 0
M  V30 14275 H 1371.71 -5.14734 6.22956 0
M  V30 14276 H 1375.29 -4.15961 4.06777 0
M  V30 14277 H 1374.17 -4.86707 6.14887 0
M  V30 14278 N 1371.68 -0.573274 -1.46804 0
M  V30 14279 C 1372.64 0.155066 -2.28675 0
M  V30 14280 C 1373.64 0.827706 -1.37861 0
M  V30 14281 O 1374.83 0.681105 -1.60333 0
M  V30 14282 C 1371.96 1.22864 -3.1799 0
M  V30 14283 H 1373.15 -0.564305 -2.94543 0
M  V30 14284 H 1370.71 -0.330855 -1.52758 0
M  V30 14285 H 1371.44 1.97989 -2.56848 0
M  V30 14286 H 1371.23 0.750936 -3.84842 0
M  V30 14287 H 1372.72 1.73974 -3.79635 0
M  V30 14288 N 1373.15 1.5451 -0.310553 0
M  V30 14289 C 1374.43 1.92452 0.34951 0
M  V30 14290 C 1374.81 1.23881 1.70929 0
M  V30 14291 O 1374.16 0.377898 2.25353 0
M  V30 14292 C 1374.37 3.46026 0.454675 0
M  V30 14293 C 1375.72 4.18432 0.721071 0
M  V30 14294 O 1376.74 3.52112 0.538112 0
M  V30 14295 O 1375.6 5.3586 1.07314 0
M  V30 14296 H 1372.69 0.803168 0.197103 0
M  V30 14297 H 1375.24 1.65852 -0.359313 0
M  V30 14298 H 1374.01 3.88081 -0.500853 0
M  V30 14299 H 1373.64 3.7869 1.21159 0
M  V30 14300 N 1374.63 0.0384594 1.57553 0
M  V30 14301 C 1375.56 -0.938444 2.13812 0
M  V30 14302 C 1376.54 -1.33307 1.05657 0
M  V30 14303 O 1377.73 -1.41003 1.33535 0
M  V30 14304 C 1374.86 -2.21764 2.67279 0
M  V30 14305 C 1373.81 -1.96347 3.80305 0
M  V30 14306 C 1373.14 -3.30612 4.20238 0
M  V30 14307 C 1374.44 -1.2952 5.05986 0
M  V30 14308 H 1376.13 -0.469887 2.9569 0
M  V30 14309 H 1373.68 -0.224576 1.42238 0
M  V30 14310 H 1375.63 -2.90493 3.05273 0
M  V30 14311 H 1374.36 -2.70802 1.82576 0
M  V30 14312 H 1373.02 -1.30033 3.42764 0
M  V30 14313 H 1372.66 -3.77427 3.32502 0
M  V30 14314 H 1372.36 -3.14409 4.96408 0
M  V30 14315 H 1373.89 -4.00594 4.60822 0
M  V30 14316 H 1375.3 -1.88264 5.41507 0
M  V30 14317 H 1373.7 -1.23685 5.87216 0
M  V30 14318 H 1374.77 -0.269439 4.84151 0
M  V30 14319 N 1376.11 -1.55841 -0.234795 0
M  V30 14320 C 1377.36 -1.77438 -0.959094 0
M  V30 14321 C 1377.67 -0.604621 -1.86021 0
M  V30 14322 O 1378.88 -0.703897 -2.62217 0
M  V30 14323 C 1377.34 -3.14182 -1.7555 0
M  V30 14324 C 1376.94 -4.38843 -0.90118 0
M  V30 14325 C 1378.69 -3.45112 -2.47181 0
M  V30 14326 C 1376.59 -5.66614 -1.69417 0
M  V30 14327 H 1375.52 -0.661503 -0.361843 0
M  V30 14328 H 1378.18 -1.82255 -0.213364 0
M  V30 14329 H 1376.56 -3.03505 -2.54364 0
M  V30 14330 H 1377.73 -4.60541 -0.154515 0
M  V30 14331 H 1376.05 -4.15335 -0.297631 0
M  V30 14332 H 1378.64 -4.37794 -3.06986 0
M  V30 14333 H 1378.99 -2.66995 -3.19405 0
M  V30 14334 H 1379.52 -3.57059 -1.75368 0
M  V30 14335 H 1376.26 -6.47587 -1.01545 0
M  V30 14336 H 1375.78 -5.48998 -2.4158 0
M  V30 14337 H 1377.46 -6.06311 -2.25824 0
M  V30 14338 N 1377.59 0.500963 -1.49426 0
M  V30 14339 C 1378.84 1.25171 -1.58162 0
M  V30 14340 C 1379.15 1.93678 -0.273556 0
M  V30 14341 O 1380.36 2.70442 -0.239462 0
M  V30 14342 C 1378.81 2.27276 -2.79059 0
M  V30 14343 C 1378.42 1.64708 -4.16624 0
M  V30 14344 C 1380.17 3.03178 -2.97125 0
M  V30 14345 C 1378.07 2.64923 -5.28743 0
M  V30 14346 H 1377 0.470867 -0.588897 0
M  V30 14347 H 1379.65 0.525569 -1.75812 0
M  V30 14348 H 1378.04 3.03052 -2.54903 0
M  V30 14349 H 1379.21 0.949231 -4.50917 0
M  V30 14350 H 1377.52 1.01195 -4.03916 0
M  V30 14351 H 1380.12 3.78122 -3.78058 0
M  V30 14352 H 1380.46 3.60793 -2.07687 0
M  V30 14353 H 1381 2.34517 -3.2132 0
M  V30 14354 H 1377.74 2.12089 -6.20241 0
M  V30 14355 H 1377.26 3.32948 -4.98904 0
M  V30 14356 H 1378.94 3.27349 -5.58079 0
M  V30 14357 N 1379.07 1.38501 0.752011 0
M  V30 14358 C 1380.31 1.36212 1.52399 0
M  V30 14359 C 1380.67 -0.0472831 1.91942 0
M  V30 14360 O 1381.87 -0.195055 2.68091 0
M  V30 14361 C 1380.14 2.2925 2.74188 0
M  V30 14362 S 1381.7 2.44995 3.64037 0
M  V30 14363 H 1378.52 0.483276 0.521503 0
M  V30 14364 H 1381.12 1.74441 0.882647 0
M  V30 14365 H 1379.83 3.30541 2.4325 0
M  V30 14366 H 1379.36 1.92176 3.43266 0
M  V30 14367 H 1381.37 1.67519 4.67067 0
M  V30 14368 N 1380.55 -0.980364 1.23396 0
M  V30 14369 C 1381.49 -2.07275 1.01516 0
M  V30 14370 C 1382.46 -1.65963 -0.0673729 0
M  V30 14371 O 1383.65 -1.90612 0.0847392 0
M  V30 14372 C 1380.79 -3.39621 0.61249 0
M  V30 14373 C 1379.9 -3.94203 1.76715 0
M  V30 14374 C 1379.04 -5.14761 1.31126 0
M  V30 14375 C 1378.07 -5.61509 2.43667 0
M  V30 14376 N 1377.21 -6.73297 1.99035 0
M  V30 14377 H 1382.05 -2.25325 1.9502 0
M  V30 14378 H 1379.59 -1.10452 0.971532 0
M  V30 14379 H 1381.55 -4.15643 0.360126 0
M  V30 14380 H 1380.18 -3.21535 -0.285539 0
M  V30 14381 H 1379.23 -3.14937 2.13352 0
M  V30 14382 H 1380.54 -4.24867 2.61323 0
M  V30 14383 H 1379.69 -5.98115 1.01702 0
M  V30 14384 H 1378.43 -4.85751 0.435555 0
M  V30 14385 H 1377.44 -4.76737 2.73865 0
M  V30 14386 H 1378.66 -5.92539 3.31774 0
M  V30 14387 H 1376.61 -6.46046 1.13845 0
M  V30 14388 H 1376.53 -7.03345 2.77203 0
M  V30 14389 H 1377.79 -7.60125 1.72716 0
M  V30 14390 N 1382.02 -1.04567 -1.17913 0
M  V30 14391 C 1383.25 -0.772204 -1.9195 0
M  V30 14392 C 1383.67 0.671303 -1.76462 0
M  V30 14393 O 1383.02 1.45805 -1.0976 0
M  V30 14394 C 1383.07 -1.13539 -3.43207 0
M  V30 14395 O 1382.8 -2.52223 -3.58211 0
M  V30 14396 C 1384.3 -0.887146 -4.34332 0
M  V30 14397 H 1381.52 -0.281234 -0.609219 0
M  V30 14398 H 1384.06 -1.39467 -1.49563 0
M  V30 14399 H 1382.22 -0.557784 -3.83363 0
M  V30 14400 H 1382.63 -2.66275 -4.51882 0
M  V30 14401 H 1384.1 -1.19107 -5.38997 0
M  V30 14402 H 1384.58 0.1779 -4.3884 0
M  V30 14403 H 1385.19 -1.44829 -3.99881 0
M  V30 14404 N 1383.5 1.34231 -0.825823 0
M  V30 14405 C 1384.92 1.51166 -0.511945 0
M  V30 14406 C 1385.12 1.76981 0.963318 0
M  V30 14407 O 1384.17 1.82243 1.74767 0
M  V30 14408 C 1385.49 2.67474 -1.37399 0
M  V30 14409 C 1387.03 2.81356 -1.37141 0
M  V30 14410 C 1387.51 4.0071 -2.218 0
M  V30 14411 N 1389 4.07922 -2.19439 0
M  V30 14412 C 1389.74 4.99438 -2.81691 0
M  V30 14413 N 1389.23 5.96157 -3.52944 0
M  V30 14414 N 1391.02 4.92332 -2.7123 0
M  V30 14415 H 1383.18 1.15734 -1.78099 0
M  V30 14416 H 1385.44 0.567856 -0.759107 0
M  V30 14417 H 1385.14 2.55036 -2.42176 0
M  V30 14418 H 1385.02 3.62558 -1.04075 0
M  V30 14419 H 1387.41 2.93233 -0.331405 0
M  V30 14420 H 1387.49 1.87072 -1.74464 0
M  V30 14421 H 1387.13 3.89593 -3.25852 0
M  V30 14422 H 1387.06 4.94213 -1.81826 0
M  V30 14423 H 1389.55 3.38695 -1.67612 0
M  V30 14424 H 1389.86 6.62623 -3.97682 0
M  V30 14425 H 1388.21 5.96272 -3.5705 0
M  V30 14426 H 1391.4 4.15733 -2.15137 0
M  V30 14427 H 1391.57 5.63458 -3.20031 0
M  V30 14428 N 1384.98 0.581051 1.46498 0
M  V30 14429 C 1386.4 0.242599 1.57745 0
M  V30 14430 C 1386.6 -1.25508 1.57639 0
M  V30 14431 O 1385.65 -2.0367 1.49247 0
M  V30 14432 C 1386.96 0.890342 2.87217 0
M  V30 14433 C 1388.51 0.863778 3.00845 0
M  V30 14434 C 1388.99 1.49103 4.3305 0
M  V30 14435 N 1390.48 1.4553 4.39745 0
M  V30 14436 C 1391.21 1.91003 5.40653 0
M  V30 14437 N 1390.71 2.44442 6.48244 0
M  V30 14438 N 1392.5 1.8193 5.31844 0
M  V30 14439 H 1384.65 1.55382 1.44811 0
M  V30 14440 H 1386.92 0.649375 0.690664 0
M  V30 14441 H 1386.62 1.94383 2.93101 0
M  V30 14442 H 1386.5 0.397569 3.75099 0
M  V30 14443 H 1388.88 -0.181089 2.94544 0
M  V30 14444 H 1388.96 1.39455 2.14443 0
M  V30 14445 H 1388.61 2.53509 4.40109 0
M  V30 14446 H 1388.54 0.935496 5.18224 0
M  V30 14447 H 1391.03 1.06466 3.62593 0
M  V30 14448 H 1391.34 2.77002 7.2145 0
M  V30 14449 H 1389.69 2.48467 6.49068 0
M  V30 14450 H 1392.88 1.3994 4.46693 0
M  V30 14451 H 1393.05 2.17685 6.10342 0
M  V30 14452 N 1386.46 -1.54343 0.318742 0
M  V30 14453 C 1387.41 -2.25634 -0.56497 0
M  V30 14454 C 1388.4 -1.26869 -1.12252 0
M  V30 14455 O 1389.61 -1.44662 -1.07112 0
M  V30 14456 H 1385.98 -0.724686 -0.200834 0
M  V30 14457 H 1387.95 -2.98342 0.0586393 0
M  V30 14458 C 1386.7 -3.0237 -1.71662 0
M  V30 14459 H 1386.02 -3.78183 -1.29684 0
M  V30 14460 H 1387.46 -3.55507 -2.31065 0
M  V30 14461 C 1385.92 -2.10383 -2.63136 0
M  V30 14462 O 1386.45 -1.68351 -3.6472 0
M  V30 14463 N 1384.66 -1.75971 -2.31263 0
M  V30 14464 H 1384.21 -2.10349 -1.48698 0
M  V30 14465 H 1384.16 -1.14702 -2.9273 0
M  V30 14466 N 1387.94 -0.0468143 -1.5753 0
M  V30 14467 C 1389.16 0.641161 -1.97241 0
M  V30 14468 C 1389.59 1.6384 -0.92401 0
M  V30 14469 O 1388.94 1.80946 0.113229 0
M  V30 14470 C 1388.99 1.30832 -3.36029 0
M  V30 14471 O 1388.1 2.42394 -3.33645 0
M  V30 14472 H 1387.44 0.167035 -0.642647 0
M  V30 14473 H 1389.97 -0.113921 -2.04283 0
M  V30 14474 H 1389.98 1.66102 -3.72658 0
M  V30 14475 H 1388.65 0.57744 -4.11872 0
M  V30 14476 H 1387.23 2.09104 -3.08756 0
M  V30 14477 N 1389.41 1.55964 0.226527 0
M  V30 14478 C 1390.66 1.7901 0.95306 0
M  V30 14479 C 1390.99 0.615608 1.84184 0
M  V30 14480 O 1390.27 -0.385341 1.90645 0
M  V30 14481 C 1390.55 3.12101 1.79624 0
M  V30 14482 C 1390.4 4.3999 0.934286 0
M  V30 14483 C 1391.72 3.4159 2.77496 0
M  V30 14484 H 1388.84 0.651236 0.345052 0
M  V30 14485 H 1391.48 1.88696 0.222236 0
M  V30 14486 H 1389.63 3.03975 2.41933 0
M  V30 14487 H 1391.31 4.6013 0.328328 0
M  V30 14488 H 1389.55 4.33138 0.239487 0
M  V30 14489 H 1390.22 5.29541 1.55853 0
M  V30 14490 H 1392.7 3.49812 2.25323 0
M  V30 14491 H 1391.57 4.35894 3.33599 0
M  V30 14492 H 1391.83 2.6351 3.54986 0
M  V30 14493 N 1390.89 -0.493031 1.4969 0
M  V30 14494 C 1392.14 -1.24664 1.59578 0
M  V30 14495 C 1392.47 -1.92385 0.286075 0
M  V30 14496 O 1391.72 -1.81712 -0.726586 0
M  V30 14497 C 1392.02 -2.33014 2.70997 0
M  V30 14498 C 1391.69 -1.82697 4.12229 0
M  V30 14499 C 1390.35 -1.68694 4.50662 0
M  V30 14500 C 1392.7 -1.45127 5.00587 0
M  V30 14501 C 1390.03 -1.15512 5.75216 0
M  V30 14502 C 1392.38 -0.933951 6.25668 0
M  V30 14503 C 1391.05 -0.780378 6.62923 0
M  V30 14504 H 1390.32 -0.456178 0.583937 0
M  V30 14505 H 1392.96 -0.546091 1.83549 0
M  V30 14506 H 1391.27 -3.08889 2.41029 0
M  V30 14507 H 1392.96 -2.91041 2.75855 0
M  V30 14508 H 1389.55 -1.94557 3.81897 0
M  V30 14509 H 1393.74 -1.5479 4.71544 0
M  V30 14510 H 1388.99 -1.0234 6.02774 0
M  V30 14511 H 1393.17 -0.634088 6.93507 0
M  V30 14512 H 1390.8 -0.366111 7.59318 0
M  V30 14513 N 1392.37 -1.38898 -0.744656 0
M  V30 14514 C 1393.3 -1.32739 -1.8685 0
M  V30 14515 C 1394.32 -0.23793 -1.61052 0
M  V30 14516 O 1395.5 -0.496166 -1.71466 0
M  V30 14517 C 1392.6 -1.03602 -3.22676 0
M  V30 14518 C 1391.78 -2.23634 -3.75908 0
M  V30 14519 C 1390.84 -1.91103 -4.90271 0
M  V30 14520 O 1389.86 -2.6369 -5.04437 0
M  V30 14521 N 1391.06 -0.871358 -5.73923 0
M  V30 14522 H 1393.83 -2.29585 -1.92641 0
M  V30 14523 H 1391.39 -1.32875 -0.924979 0
M  V30 14524 H 1393.38 -0.798755 -3.96739 0
M  V30 14525 H 1391.95 -0.155218 -3.12214 0
M  V30 14526 H 1391.17 -2.63371 -2.93307 0
M  V30 14527 H 1392.46 -3.0372 -4.08205 0
M  V30 14528 H 1391.86 -0.269591 -5.65057 0
M  V30 14529 H 1390.42 -0.693984 -6.48095 0
M  V30 14530 N 1393.85 0.973806 -1.23914 0
M  V30 14531 C 1394.78 2.07003 -0.983982 0
M  V30 14532 C 1395.79 1.62739 0.0443893 0
M  V30 14533 O 1396.98 1.77465 -0.191927 0
M  V30 14534 C 1394.08 3.35737 -0.461937 0
M  V30 14535 C 1393.26 4.08939 -1.55202 0
M  V30 14536 C 1392.31 5.15947 -1.03369 0
M  V30 14537 O 1391.34 5.42461 -1.72409 0
M  V30 14538 N 1392.54 5.80343 0.135067 0
M  V30 14539 H 1395.31 2.29468 -1.92781 0
M  V30 14540 H 1392.87 1.14098 -1.14861 0
M  V30 14541 H 1394.86 4.04576 -0.100074 0
M  V30 14542 H 1393.43 3.10189 0.387467 0
M  V30 14543 H 1392.65 3.34462 -2.08635 0
M  V30 14544 H 1393.94 4.5461 -2.2849 0
M  V30 14545 H 1393.34 5.61196 0.71241 0
M  V30 14546 H 1391.89 6.50326 0.438132 0
M  V30 14547 N 1395.33 1.05191 1.17357 0
M  V30 14548 C 1396.57 0.760479 1.87246 0
M  V30 14549 C 1396.9 -0.714618 1.81434 0
M  V30 14550 O 1396.17 -1.51636 1.24029 0
M  V30 14551 H 1394.75 0.278317 0.693216 0
M  V30 14552 H 1397.41 1.33106 1.42369 0
M  V30 14553 H 1396.5 1.07542 2.92987 0
M  V30 14554 N 1396.8 -1.33791 0.83293 0
M  V30 14555 C 1397.74 -2.27259 0.207019 0
M  V30 14556 C 1398.72 -1.49372 -0.642403 0
M  V30 14557 O 1399.9 -1.78562 -0.603963 0
M  V30 14558 C 1397.03 -3.31177 -0.709885 0
M  V30 14559 C 1396.07 -4.26453 0.0633036 0
M  V30 14560 S 1396.91 -5.16406 1.41721 0
M  V30 14561 C 1398.06 -6.23856 0.505446 0
M  V30 14562 H 1398.29 -2.79998 0.999422 0
M  V30 14563 H 1395.83 -1.40991 0.629361 0
M  V30 14564 H 1397.79 -3.91535 -1.23332 0
M  V30 14565 H 1396.45 -2.77265 -1.4759 0
M  V30 14566 H 1395.64 -4.99995 -0.634145 0
M  V30 14567 H 1395.24 -3.70401 0.517607 0
M  V30 14568 H 1397.53 -6.7684 -0.299066 0
M  V30 14569 H 1398.48 -6.97671 1.21084 0
M  V30 14570 H 1398.88 -5.64429 0.0894308 0
M  V30 14571 N 1398.28 -0.588812 -1.46187 0
M  V30 14572 C 1399.23 0.140932 -2.30369 0
M  V30 14573 C 1400.2 0.878216 -1.40984 0
M  V30 14574 O 1401.38 0.867678 -1.69929 0
M  V30 14575 C 1398.52 1.14468 -3.25563 0
M  V30 14576 C 1397.64 0.410215 -4.30048 0
M  V30 14577 C 1396.77 1.40203 -5.12364 0
M  V30 14578 C 1395.81 0.65431 -6.08593 0
M  V30 14579 N 1394.95 1.59448 -6.83755 0
M  V30 14580 H 1399.79 -0.582976 -2.92242 0
M  V30 14581 H 1397.33 -0.299302 -1.44023 0
M  V30 14582 H 1399.28 1.73957 -3.79203 0
M  V30 14583 H 1397.91 1.83623 -2.65485 0
M  V30 14584 H 1396.97 -0.299822 -3.79217 0
M  V30 14585 H 1398.28 -0.174043 -4.98496 0
M  V30 14586 H 1397.43 2.06953 -5.70312 0
M  V30 14587 H 1396.17 2.02022 -4.4389 0
M  V30 14588 H 1395.18 -0.0269371 -5.49793 0
M  V30 14589 H 1396.4 0.0414285 -6.79087 0
M  V30 14590 H 1394.35 2.20066 -6.17986 0
M  V30 14591 H 1394.26 1.06318 -7.48487 0
M  V30 14592 H 1395.53 2.25215 -7.46256 0
M  V30 14593 N 1399.76 1.54172 -0.326923 0
M  V30 14594 C 1400.71 2.25931 0.552996 0
M  V30 14595 C 1401.7 1.27463 1.11578 0
M  V30 14596 O 1402.91 1.45228 1.06343 0
M  V30 14597 H 1399.28 0.725741 0.196988 0
M  V30 14598 H 1401.25 2.98307 -0.0744603 0
M  V30 14599 C 1400 3.03276 1.70056 0
M  V30 14600 H 1399.33 3.78865 1.27676 0
M  V30 14601 H 1400.77 3.56727 2.29177 0
M  V30 14602 C 1399.23 2.11775 2.62017 0
M  V30 14603 O 1399.76 1.70282 3.63822 0
M  V30 14604 N 1397.96 1.77195 2.30327 0
M  V30 14605 H 1397.51 2.11135 1.4758 0
M  V30 14606 H 1397.47 1.16253 2.92117 0
M  V30 14607 N 1401.24 0.0551678 1.57503 0
M  V30 14608 C 1402.19 -0.917847 2.11764 0
M  V30 14609 C 1403.16 -1.30624 1.02599 0
M  V30 14610 O 1404.34 -1.39501 1.30169 0
M  V30 14611 C 1401.48 -2.18599 2.67036 0
M  V30 14612 C 1400.59 -1.85173 3.90301 0
M  V30 14613 C 1399.73 -3.06475 4.33874 0
M  V30 14614 C 1398.77 -2.68988 5.49829 0
M  V30 14615 N 1397.9 -3.82997 5.88437 0
M  V30 14616 H 1402.74 -0.448236 2.9461 0
M  V30 14617 H 1400.28 -0.209619 1.45599 0
M  V30 14618 H 1402.24 -2.92811 2.97183 0
M  V30 14619 H 1400.87 -2.6313 1.86982 0
M  V30 14620 H 1399.92 -1.01094 3.66721 0
M  V30 14621 H 1401.23 -1.53582 4.74567 0
M  V30 14622 H 1400.39 -3.88982 4.65594 0
M  V30 14623 H 1399.13 -3.41247 3.48427 0
M  V30 14624 H 1398.13 -1.84899 5.17776 0
M  V30 14625 H 1399.36 -2.35404 6.36994 0
M  V30 14626 H 1397.3 -4.17562 5.05942 0
M  V30 14627 H 1397.22 -3.55118 6.67403 0
M  V30 14628 H 1398.49 -4.66131 6.24773 0
M  V30 14629 N 1402.72 -1.56081 -0.218252 0
M  V30 14630 C 1403.97 -1.78445 -0.94022 0
M  V30 14631 C 1404.28 -0.624317 -1.85369 0
M  V30 14632 O 1405.48 -0.731669 -2.61455 0
M  V30 14633 C 1403.94 -3.16026 -1.72208 0
M  V30 14634 C 1403.55 -4.39774 -0.854584 0
M  V30 14635 C 1405.29 -3.47714 -2.43506 0
M  V30 14636 C 1403.2 -5.68379 -1.63398 0
M  V30 14637 H 1402.13 -0.665303 -0.354806 0
M  V30 14638 H 1404.78 -1.82471 -0.194021 0
M  V30 14639 H 1403.16 -3.06185 -2.5113 0
M  V30 14640 H 1404.34 -4.60679 -0.105659 0
M  V30 14641 H 1402.65 -4.15627 -0.253562 0
M  V30 14642 H 1405.25 -4.41026 -3.02325 0
M  V30 14643 H 1405.59 -2.70367 -3.16555 0
M  V30 14644 H 1406.12 -3.58899 -1.71571 0
M  V30 14645 H 1402.86 -6.48628 -0.946704 0
M  V30 14646 H 1402.38 -5.5153 -2.35743 0
M  V30 14647 H 1404.06 -6.08672 -2.1938 0
M  V30 14648 N 1404.2 0.485086 -1.49949 0
M  V30 14649 C 1405.13 1.59312 -1.7071 0
M  V30 14650 C 1406.11 1.6076 -0.555896 0
M  V30 14651 O 1407.29 1.77249 -0.793504 0
M  V30 14652 C 1404.42 2.97718 -1.78834 0
M  V30 14653 C 1403.38 3.11136 -2.93902 0
M  V30 14654 C 1402.7 4.51051 -2.87154 0
M  V30 14655 C 1404 2.89665 -4.34617 0
M  V30 14656 H 1405.7 1.42192 -2.6348 0
M  V30 14657 H 1403.24 0.68262 -1.26792 0
M  V30 14658 H 1405.19 3.75148 -1.91943 0
M  V30 14659 H 1403.92 3.15963 -0.826744 0
M  V30 14660 H 1402.58 2.36135 -2.80421 0
M  V30 14661 H 1402.23 4.66195 -1.88869 0
M  V30 14662 H 1401.93 4.60967 -3.64394 0
M  V30 14663 H 1403.45 5.3052 -3.02293 0
M  V30 14664 H 1404.86 3.56853 -4.48697 0
M  V30 14665 H 1403.26 3.11039 -5.13201 0
M  V30 14666 H 1404.33 1.85642 -4.47956 0
M  V30 14667 N 1405.67 1.39291 0.737279 0
M  V30 14668 C 1406.92 1.35702 1.49224 0
M  V30 14669 C 1407.24 -0.0450282 1.95548 0
M  V30 14670 O 1408.44 -0.203495 2.70736 0
M  V30 14671 C 1406.9 2.38387 2.69629 0
M  V30 14672 C 1406.51 3.84295 2.30263 0
M  V30 14673 C 1408.25 2.4387 3.47459 0
M  V30 14674 C 1406.16 4.78626 3.47377 0
M  V30 14675 H 1405.09 0.50449 0.560362 0
M  V30 14676 H 1407.74 1.64926 0.804466 0
M  V30 14677 H 1406.12 2.0223 3.40469 0
M  V30 14678 H 1407.29 4.2948 1.66984 0
M  V30 14679 H 1405.61 3.82085 1.6553 0
M  V30 14680 H 1408.21 3.11539 4.34566 0
M  V30 14681 H 1408.55 1.46253 3.89764 0
M  V30 14682 H 1409.08 2.78908 2.83646 0
M  V30 14683 H 1405.82 5.77497 3.10124 0
M  V30 14684 H 1405.34 4.38123 4.09645 0
M  V30 14685 H 1407.02 4.9742 4.13742 0
M  V30 14686 N 1407.15 -0.967221 1.24429 0
M  V30 14687 C 1408.4 -1.71026 1.08427 0
M  V30 14688 C 1408.73 -1.90815 -0.376812 0
M  V30 14689 O 1407.98 -1.46745 -1.29477 0
M  V30 14690 C 1408.28 -3.10507 1.76975 0
M  V30 14691 C 1407.95 -3.10557 3.26902 0
M  V30 14692 C 1406.61 -3.10278 3.67806 0
M  V30 14693 C 1408.96 -3.04852 4.22746 0
M  V30 14694 C 1406.29 -3.02027 5.02988 0
M  V30 14695 C 1408.64 -2.98143 5.57937 0
M  V30 14696 C 1407.3 -2.96193 5.98185 0
M  V30 14697 H 1406.57 -0.625827 0.396764 0
M  V30 14698 H 1409.22 -1.13094 1.54538 0
M  V30 14699 H 1407.53 -3.71906 1.2326 0
M  V30 14700 H 1409.22 -3.66794 1.62058 0
M  V30 14701 H 1405.81 -3.11539 2.94349 0
M  V30 14702 H 1410 -3.04197 3.92145 0
M  V30 14703 H 1405.25 -2.98878 5.33368 0
M  V30 14704 H 1409.43 -2.92688 6.31907 0
M  V30 14705 H 1407.05 -2.89555 7.02895 0
M  V30 14706 N 1408.63 -1.05812 -1.16797 0
M  V30 14707 C 1409.88 -0.770398 -1.8684 0
M  V30 14708 C 1410.2 0.704986 -1.8181 0
M  V30 14709 O 1409.47 1.50977 -1.24832 0
M  V30 14710 H 1408.05 -0.281989 -0.691731 0
M  V30 14711 H 1410.71 -1.33859 -1.41661 0
M  V30 14712 H 1409.81 -1.09094 -2.92412 0
M  V30 14713 N 1410.11 1.33347 -0.840014 0
M  V30 14714 C 1411.04 2.31703 -0.289138 0
M  V30 14715 C 1412.02 1.59024 0.603759 0
M  V30 14716 O 1413.2 1.86911 0.527071 0
M  V30 14717 C 1410.33 3.43144 0.53566 0
M  V30 14718 C 1409.29 4.272 -0.261544 0
M  V30 14719 C 1408.61 5.30267 0.687075 0
M  V30 14720 C 1409.91 5.00915 -1.47924 0
M  V30 14721 H 1411.61 2.78026 -1.11094 0
M  V30 14722 H 1409.15 1.33666 -0.535658 0
M  V30 14723 H 1411.11 4.10979 0.931351 0
M  V30 14724 H 1409.83 2.95512 1.39069 0
M  V30 14725 H 1408.49 3.60991 -0.638809 0
M  V30 14726 H 1408.14 4.78893 1.53853 0
M  V30 14727 H 1407.84 5.87388 0.157773 0
M  V30 14728 H 1409.36 6.00968 1.08026 0
M  V30 14729 H 1410.78 5.61511 -1.15664 0
M  V30 14730 H 1409.17 5.67692 -1.94541 0
M  V30 14731 H 1410.24 4.29622 -2.24839 0
M  V30 14732 N 1411.59 0.596556 1.45873 0
M  V30 14733 C 1412.52 -0.116229 2.33211 0
M  V30 14734 C 1413.5 -0.869868 1.46176 0
M  V30 14735 O 1414.68 -0.842599 1.74968 0
M  V30 14736 C 1411.81 -1.12145 3.28696 0
M  V30 14737 C 1410.77 -0.481749 4.2528 0
M  V30 14738 C 1410.09 -1.59443 5.10374 0
M  V30 14739 C 1411.39 0.589996 5.18957 0
M  V30 14740 H 1413.09 0.613005 2.93057 0
M  V30 14741 H 1410.63 0.296242 1.4092 0
M  V30 14742 H 1412.58 -1.62857 3.88659 0
M  V30 14743 H 1411.31 -1.88114 2.66985 0
M  V30 14744 H 1409.97 0.0044092 3.666 0
M  V30 14745 H 1409.62 -2.34413 4.45039 0
M  V30 14746 H 1409.32 -1.17197 5.75794 0
M  V30 14747 H 1410.84 -2.10404 5.73204 0
M  V30 14748 H 1412.25 0.167395 5.73056 0
M  V30 14749 H 1410.65 0.933565 5.92794 0
M  V30 14750 H 1411.72 1.47093 4.62052 0
M  V30 14751 N 1413.06 -1.53996 0.335095 0
M  V30 14752 C 1413.97 -2.28436 -0.534244 0
M  V30 14753 C 1414.99 -1.33224 -1.11926 0
M  V30 14754 O 1416.17 -1.66252 -1.13676 0
M  V30 14755 C 1413.23 -3.03634 -1.67354 0
M  V30 14756 C 1412.29 -4.14455 -1.11916 0
M  V30 14757 C 1411.52 -4.86058 -2.20416 0
M  V30 14758 O 1411.75 -4.57263 -3.40979 0
M  V30 14759 O 1410.68 -5.72704 -1.85185 0
M  V30 14760 H 1414.51 -3.03618 0.0706314 0
M  V30 14761 H 1412.09 -1.49062 0.100409 0
M  V30 14762 H 1413.97 -3.50687 -2.33659 0
M  V30 14763 H 1412.65 -2.31317 -2.26438 0
M  V30 14764 H 1411.56 -3.71725 -0.420871 0
M  V30 14765 H 1412.89 -4.8885 -0.573295 0
M  V30 14766 N 1414.54 -0.0635198 -1.57472 0
M  V30 14767 C 1415.45 0.921531 -2.15743 0
M  V30 14768 C 1416.47 1.33294 -1.11842 0
M  V30 14769 O 1417.64 1.40733 -1.4407 0
M  V30 14770 C 1414.71 2.17378 -2.70088 0
M  V30 14771 C 1413.77 1.81956 -3.88832 0
M  V30 14772 C 1413 3.01211 -4.40577 0
M  V30 14773 O 1413.23 4.14971 -3.9135 0
M  V30 14774 O 1412.16 2.81507 -5.32012 0
M  V30 14775 H 1415.99 0.455899 -3.00259 0
M  V30 14776 H 1413.57 0.159085 -1.48551 0
M  V30 14777 H 1415.45 2.90826 -3.04956 0
M  V30 14778 H 1414.13 2.63055 -1.88637 0
M  V30 14779 H 1413.03 1.05786 -3.58832 0
M  V30 14780 H 1414.37 1.41069 -4.71551 0
M  V30 14781 N 1416.02 1.56195 0.209972 0
M  V30 14782 C 1417.25 1.8384 0.949228 0
M  V30 14783 C 1417.66 0.644141 1.77472 0
M  V30 14784 O 1417.02 -0.387276 1.78344 0
M  V30 14785 C 1417.07 3.10131 1.85745 0
M  V30 14786 O 1416.79 4.2495 1.06531 0
M  V30 14787 C 1418.29 3.50847 2.70963 0
M  V30 14788 H 1415.51 0.610856 0.277662 0
M  V30 14789 H 1418.06 2.03295 0.221708 0
M  V30 14790 H 1416.21 2.92618 2.53877 0
M  V30 14791 H 1416.63 4.96769 1.68287 0
M  V30 14792 H 1418.1 4.4222 3.30372 0
M  V30 14793 H 1418.58 2.73139 3.43936 0
M  V30 14794 H 1419.18 3.7084 2.08226 0
M  V30 14795 N 1417.5 -0.477127 1.50204 0
M  V30 14796 C 1418.46 -1.55824 1.68082 0
M  V30 14797 C 1419.46 -1.51039 0.551719 0
M  V30 14798 O 1420.65 -1.53766 0.818638 0
M  V30 14799 C 1417.78 -2.95462 1.70044 0
M  V30 14800 H 1418.98 -1.41292 2.64531 0
M  V30 14801 H 1416.53 -0.70308 1.39594 0
M  V30 14802 H 1417.26 -3.15445 0.752663 0
M  V30 14803 H 1417.05 -3.00343 2.52065 0
M  V30 14804 H 1418.54 -3.73964 1.85851 0
M  V30 14805 N 1418.98 -1.3968 -0.729882 0
M  V30 14806 C 1419.91 -1.41549 -1.85704 0
M  V30 14807 C 1420.89 -0.278186 -1.6781 0
M  V30 14808 O 1422.07 -0.484749 -1.88053 0
M  V30 14809 C 1419.2 -1.26327 -3.2351 0
M  V30 14810 C 1418.16 -2.37511 -3.56051 0
M  V30 14811 C 1417.48 -2.07375 -4.92849 0
M  V30 14812 C 1418.78 -3.79833 -3.58502 0
M  V30 14813 H 1420.48 -2.35877 -1.84398 0
M  V30 14814 H 1418.02 -1.13536 -0.885747 0
M  V30 14815 H 1419.98 -1.26254 -4.02042 0
M  V30 14816 H 1418.7 -0.284697 -3.25357 0
M  V30 14817 H 1417.36 -2.36809 -2.79852 0
M  V30 14818 H 1417.01 -1.07943 -4.91281 0
M  V30 14819 H 1416.71 -2.81855 -5.15588 0
M  V30 14820 H 1418.23 -2.08961 -5.73731 0
M  V30 14821 H 1419.64 -3.82436 -4.27101 0
M  V30 14822 H 1418.04 -4.53715 -3.92763 0
M  V30 14823 H 1419.11 -4.10443 -2.58195 0
M  V30 14824 N 1420.45 0.960609 -1.2494 0
M  V30 14825 C 1421.42 2.03791 -1.04891 0
M  V30 14826 C 1422.42 1.608 -0.00375792 0
M  V30 14827 O 1423.61 1.72463 -0.24539 0
M  V30 14828 C 1420.74 3.35733 -0.591309 0
M  V30 14829 H 1421.93 2.2301 -2.00516 0
M  V30 14830 H 1419.49 1.13686 -1.07263 0
M  V30 14831 H 1420.22 3.22207 0.367816 0
M  V30 14832 H 1420.01 3.68283 -1.34574 0
M  V30 14833 H 1421.5 4.14921 -0.472283 0
M  V30 14834 N 1421.93 1.0643 1.16234 0
M  V30 14835 C 1422.9 0.680383 2.18869 0
M  V30 14836 C 1423.9 -0.274591 1.58438 0
M  V30 14837 O 1425.09 -0.0567907 1.74107 0
M  V30 14838 C 1422.22 0.00134091 3.409 0
M  V30 14839 H 1423.41 1.58894 2.54347 0
M  V30 14840 H 1420.96 0.859688 1.30534 0
M  V30 14841 H 1421.7 -0.919903 3.1098 0
M  V30 14842 H 1421.48 0.688057 3.86016 0
M  V30 14843 H 1422.97 -0.252938 4.16833 0
M  V30 14844 N 1423.41 -1.329 0.847073 0
M  V30 14845 C 1424.66 -1.9751 0.446755 0
M  V30 14846 C 1424.99 -1.67069 -0.995905 0
M  V30 14847 O 1424.24 -0.947232 -1.71248 0
M  V30 14848 C 1424.54 -3.51913 0.623845 0
M  V30 14849 C 1424.21 -4.02324 2.03583 0
M  V30 14850 C 1422.87 -4.15802 2.42203 0
M  V30 14851 C 1425.22 -4.29147 2.95774 0
M  V30 14852 C 1422.55 -4.53441 3.72301 0
M  V30 14853 C 1424.9 -4.68242 4.25362 0
M  V30 14854 C 1423.56 -4.79925 4.63927 0
M  V30 14855 H 1422.83 -0.722742 0.163479 0
M  V30 14856 H 1425.48 -1.58435 1.07567 0
M  V30 14857 H 1423.79 -3.917 -0.0883447 0
M  V30 14858 H 1425.48 -3.99919 0.294268 0
M  V30 14859 H 1422.07 -3.92314 1.72591 0
M  V30 14860 H 1426.26 -4.1825 2.67171 0
M  V30 14861 H 1421.51 -4.60681 4.01974 0
M  V30 14862 H 1425.69 -4.87952 4.96866 0
M  V30 14863 H 1423.31 -5.08847 5.64782 0
M  V30 14864 N 1424.89 -0.604284 -1.45555 0
M  V30 14865 C 1425.82 0.103859 -2.33269 0
M  V30 14866 C 1426.8 0.862104 -1.46635 0
M  V30 14867 O 1427.98 0.833308 -1.75413 0
M  V30 14868 C 1425.11 1.104 -3.29286 0
M  V30 14869 C 1424.07 0.459189 -4.2553 0
M  V30 14870 C 1423.39 1.56734 -5.11213 0
M  V30 14871 C 1424.69 -0.617509 -5.18637 0
M  V30 14872 H 1426.39 -0.628538 -2.92728 0
M  V30 14873 H 1423.93 -0.303711 -1.40761 0
M  V30 14874 H 1425.89 1.60794 -3.89517 0
M  V30 14875 H 1424.61 1.86695 -2.67979 0
M  V30 14876 H 1423.27 -0.0238508 -3.66592 0
M  V30 14877 H 1422.92 2.32049 -4.46276 0
M  V30 14878 H 1422.62 1.14142 -5.76407 0
M  V30 14879 H 1424.14 2.07361 -5.74312 0
M  V30 14880 H 1425.56 -0.197784 -5.72959 0
M  V30 14881 H 1423.95 -0.96499 -5.9229 0
M  V30 14882 H 1425.02 -1.49541 -4.61265 0
M  V30 14883 N 1426.37 1.53816 -0.343257 0
M  V30 14884 C 1427.59 2.05796 0.257418 0
M  V30 14885 C 1428.02 1.2166 1.43459 0
M  V30 14886 O 1427.37 0.230278 1.79832 0
M  V30 14887 C 1427.42 3.54681 0.65068 0
M  V30 14888 O 1426.53 3.73394 1.75074 0
M  V30 14889 H 1425.87 0.662622 0.042757 0
M  V30 14890 H 1428.4 1.98462 -0.497386 0
M  V30 14891 H 1428.41 3.97308 0.927914 0
M  V30 14892 H 1427.08 4.15368 -0.210199 0
M  V30 14893 H 1425.66 3.42669 1.4708 0
M  V30 14894 N 1427.84 0.0718701 1.57436 0
M  V30 14895 C 1429.07 -0.605374 1.97532 0
M  V30 14896 C 1429.48 -1.6368 0.948974 0
M  V30 14897 O 1428.83 -1.83556 -0.0726987 0
M  V30 14898 C 1428.89 -1.33139 3.33937 0
M  V30 14899 C 1428.55 -0.453426 4.54745 0
M  V30 14900 C 1429.55 0.289012 5.19096 0
M  V30 14901 C 1427.23 -0.378282 5.00874 0
M  V30 14902 C 1429.23 1.09482 6.27927 0
M  V30 14903 C 1426.91 0.431192 6.09577 0
M  V30 14904 C 1427.91 1.16641 6.72966 0
M  V30 14905 O 1427.6 1.96253 7.79577 0
M  V30 14906 H 1427.33 -0.168804 0.654585 0
M  V30 14907 H 1429.89 0.140832 2.04917 0
M  V30 14908 H 1428.12 -2.12367 3.23167 0
M  V30 14909 H 1429.81 -1.90089 3.58638 0
M  V30 14910 H 1430.57 0.240552 4.84403 0
M  V30 14911 H 1426.45 -0.940166 4.51311 0
M  V30 14912 H 1429.99 1.66918 6.77336 0
M  V30 14913 H 1425.89 0.481217 6.43704 0
M  V30 14914 H 1426.66 1.88686 7.96455 0
M  V30 14915 N 1429.32 -1.56304 -0.201686 0
M  V30 14916 C 1430.56 -1.82021 -0.929934 0
M  V30 14917 C 1430.93 -0.648382 -1.80721 0
M  V30 14918 O 1432.13 -0.785292 -2.57073 0
M  V30 14919 C 1430.4 -3.12731 -1.73014 0
M  V30 14920 S 1431.96 -3.59831 -2.51131 0
M  V30 14921 H 1428.78 -0.638874 -0.312027 0
M  V30 14922 H 1431.38 -1.94536 -0.193861 0
M  V30 14923 H 1430.08 -3.96039 -1.07616 0
M  V30 14924 H 1429.61 -3.03076 -2.50816 0
M  V30 14925 H 1431.63 -3.24744 -3.75174 0
M  V30 14926 N 1430.8 0.469154 -1.50455 0
M  V30 14927 C 1432.21 1.04997 -1.54378 0
M  V30 14928 C 1432.56 1.93082 -0.348414 0
M  V30 14929 O 1431.69 2.09594 0.538469 0
M  V30 14930 C 1432.28 1.91096 -2.79764 0
M  V30 14931 C 1430.84 2.44283 -2.86361 0
M  V30 14932 C 1429.99 1.22676 -2.48688 0
M  V30 14933 H 1432.94 0.251692 -1.56691 0
M  V30 14934 H 1432.96 2.76186 -2.61728 0
M  V30 14935 H 1432.47 1.26961 -3.66746 0
M  V30 14936 H 1430.57 3.11966 -2.03735 0
M  V30 14937 H 1430.69 2.79258 -3.89297 0
M  V30 14938 H 1429.05 1.56215 -2.01169 0
M  V30 14939 H 1429.83 0.602002 -3.37981 0
M  V30 14940 N 1432.28 1.40065 0.722464 0
M  V30 14941 C 1433.53 1.37698 1.47932 0
M  V30 14942 C 1433.85 -0.0222608 1.94987 0
M  V30 14943 O 1433.12 -0.975795 1.69868 0
M  V30 14944 H 1431.7 0.506766 0.548815 0
M  V30 14945 H 1434.36 1.75053 0.856884 0
M  V30 14946 H 1433.46 2.04756 2.35545 0
M  V30 14947 N 1433.76 -0.95397 1.25448 0
M  V30 14948 C 1434.69 -2.05019 1.00212 0
M  V30 14949 C 1435.67 -1.62454 -0.0688563 0
M  V30 14950 O 1436.85 -1.88366 0.0709352 0
M  V30 14951 C 1433.98 -3.34762 0.514987 0
M  V30 14952 C 1433.03 -3.9629 1.57659 0
M  V30 14953 S 1433.86 -4.32181 3.16196 0
M  V30 14954 C 1435.01 -5.65041 2.6922 0
M  V30 14955 H 1435.25 -2.26111 1.93032 0
M  V30 14956 H 1432.78 -1.09369 1.08985 0
M  V30 14957 H 1434.74 -4.09794 0.24058 0
M  V30 14958 H 1433.4 -3.11635 -0.392724 0
M  V30 14959 H 1432.59 -4.89836 1.18647 0
M  V30 14960 H 1432.19 -3.27741 1.80171 0
M  V30 14961 H 1434.49 -6.43184 2.12887 0
M  V30 14962 H 1435.43 -6.08925 3.61408 0
M  V30 14963 H 1435.84 -5.24306 2.09196 0
M  V30 14964 N 1435.24 -1.07045 -1.15668 0
M  V30 14965 C 1436.48 -0.790172 -1.86013 0
M  V30 14966 C 1436.8 0.685663 -1.82548 0
M  V30 14967 O 1436.07 1.49644 -1.26426 0
M  V30 14968 H 1434.65 -0.28931 -0.688701 0
M  V30 14969 H 1437.32 -1.35354 -1.40233 0
M  V30 14970 H 1436.41 -1.1219 -2.91239 0
M  V30 14971 N 1436.71 1.32449 -0.85411 0
M  V30 14972 C 1437.96 1.97563 -0.4579 0
M  V30 14973 C 1438.29 1.67435 0.983835 0
M  V30 14974 O 1437.57 0.962292 1.69027 0
M  V30 14975 C 1437.85 3.53292 -0.69688 0
M  V30 14976 C 1437.7 3.93053 -2.18699 0
M  V30 14977 C 1439.02 4.39834 -0.152917 0
M  V30 14978 H 1436.14 0.717634 -0.167842 0
M  V30 14979 H 1438.78 1.5684 -1.07243 0
M  V30 14980 H 1436.93 3.88111 -0.173807 0
M  V30 14981 H 1438.61 3.68416 -2.7761 0
M  V30 14982 H 1436.85 3.42232 -2.6657 0
M  V30 14983 H 1437.52 5.01576 -2.3049 0
M  V30 14984 H 1440 4.11748 -0.600216 0
M  V30 14985 H 1438.87 5.47785 -0.349703 0
M  V30 14986 H 1439.13 4.31898 0.944276 0
M  V30 14987 N 1438.19 0.611994 1.45232 0
M  V30 14988 C 1439.15 -0.0943825 2.29006 0
M  V30 14989 C 1440.15 -0.790863 1.40007 0
M  V30 14990 O 1441.34 -0.638356 1.62082 0
M  V30 14991 C 1438.48 -1.1439 3.21135 0
M  V30 14992 H 1439.67 0.6422 2.92943 0
M  V30 14993 H 1437.22 0.37124 1.51827 0
M  V30 14994 H 1437.96 -1.9111 2.62007 0
M  V30 14995 H 1437.74 -0.648638 3.86698 0
M  V30 14996 H 1439.23 -1.63848 3.84114 0
M  V30 14997 N 1439.67 -1.53632 0.351409 0
M  V30 14998 C 1440.6 -2.28217 -0.49391 0
M  V30 14999 C 1441.58 -1.30085 -1.09599 0
M  V30 15000 O 1442.77 -1.58938 -1.1159 0
M  V30 15001 C 1439.9 -3.06085 -1.64102 0
M  V30 15002 C 1438.85 -4.11786 -1.16689 0
M  V30 15003 C 1438.18 -4.77654 -2.40314 0
M  V30 15004 C 1439.48 -5.21644 -0.261742 0
M  V30 15005 H 1441.17 -2.99125 0.1283 0
M  V30 15006 H 1438.72 -1.43861 0.0631462 0
M  V30 15007 H 1440.67 -3.57003 -2.2389 0
M  V30 15008 H 1439.39 -2.32842 -2.29025 0
M  V30 15009 H 1438.05 -3.61792 -0.591784 0
M  V30 15010 H 1437.7 -4.00997 -3.03661 0
M  V30 15011 H 1437.4 -5.49072 -2.09268 0
M  V30 15012 H 1438.92 -5.3136 -3.00813 0
M  V30 15013 H 1440.34 -5.6815 -0.766689 0
M  V30 15014 H 1438.73 -6.00085 -0.0428132 0
M  V30 15015 H 1439.8 -4.79821 0.699999 0
M  V30 15016 N 1441.15 -0.0802183 -1.57396 0
M  V30 15017 C 1442.56 0.276428 -1.57188 0
M  V30 15018 C 1442.76 1.69456 -1.09027 0
M  V30 15019 O 1441.82 2.40792 -0.75997 0
M  V30 15020 C 1443.13 0.0784079 -3.00598 0
M  V30 15021 C 1444.68 0.1473 -3.12653 0
M  V30 15022 C 1445.16 -0.0225423 -4.57994 0
M  V30 15023 N 1446.65 0.0327854 -4.63188 0
M  V30 15024 C 1447.38 -0.0740922 -5.73352 0
M  V30 15025 N 1446.88 -0.234966 -6.92401 0
M  V30 15026 N 1448.67 -0.0164241 -5.62098 0
M  V30 15027 H 1440.82 -1.00695 -1.87014 0
M  V30 15028 H 1443.08 -0.393402 -0.862519 0
M  V30 15029 H 1442.79 -0.900488 -3.39977 0
M  V30 15030 H 1442.66 0.82713 -3.6802 0
M  V30 15031 H 1445.05 1.11669 -2.73156 0
M  V30 15032 H 1445.13 -0.632666 -2.47853 0
M  V30 15033 H 1444.78 -0.988733 -4.98183 0
M  V30 15034 H 1444.71 0.776933 -5.20837 0
M  V30 15035 H 1447.2 0.15519 -3.77581 0
M  V30 15036 H 1447.51 -0.308435 -7.72184 0
M  V30 15037 H 1445.86 -0.270439 -6.94474 0
M  V30 15038 H 1449.05 0.108019 -4.67975 0
M  V30 15039 H 1449.22 -0.10317 -6.47918 0
M  V30 15040 N 1442.63 1.56409 0.193394 0
M  V30 15041 C 1443.56 1.89745 1.26776 0
M  V30 15042 C 1444.54 0.75773 1.43865 0
M  V30 15043 O 1445.72 1.0089 1.59228 0
M  V30 15044 C 1442.85 2.12913 2.63412 0
M  V30 15045 C 1441.89 3.35614 2.63183 0
M  V30 15046 S 1442.73 4.90686 2.14448 0
M  V30 15047 C 1443.88 5.16923 3.52904 0
M  V30 15048 H 1444.12 2.80575 0.983105 0
M  V30 15049 H 1441.65 1.4921 0.396965 0
M  V30 15050 H 1443.61 2.26943 3.42063 0
M  V30 15051 H 1442.27 1.2283 2.89088 0
M  V30 15052 H 1441.46 3.48957 3.63655 0
M  V30 15053 H 1441.06 3.20586 1.92615 0
M  V30 15054 H 1443.35 5.07548 4.48778 0
M  V30 15055 H 1444.3 6.18673 3.44455 0
M  V30 15056 H 1444.71 4.44555 3.47895 0
M  V30 15057 N 1444.1 -0.461169 1.50702 0
M  V30 15058 C 1445.33 -1.23375 1.65717 0
M  V30 15059 C 1445.74 -1.86047 0.343992 0
M  V30 15060 O 1445.08 -1.70447 -0.68508 0
M  V30 15061 C 1445.15 -2.3758 2.69808 0
M  V30 15062 C 1444.81 -1.95467 4.13088 0
M  V30 15063 C 1445.81 -1.47154 4.9864 0
M  V30 15064 C 1443.49 -2.03885 4.5906 0
M  V30 15065 C 1445.49 -1.07815 6.28215 0
M  V30 15066 C 1443.17 -1.64157 5.88639 0
M  V30 15067 C 1444.17 -1.16201 6.73043 0
M  V30 15068 O 1443.86 -0.770282 8.00201 0
M  V30 15069 H 1443.59 -0.378885 0.559841 0
M  V30 15070 H 1446.15 -0.555712 1.9774 0
M  V30 15071 H 1444.38 -3.08586 2.33049 0
M  V30 15072 H 1446.06 -2.99517 2.73942 0
M  V30 15073 H 1446.83 -1.40064 4.64335 0
M  V30 15074 H 1442.71 -2.40159 3.93503 0
M  V30 15075 H 1446.25 -0.703139 6.94047 0
M  V30 15076 H 1442.15 -1.70909 6.22463 0
M  V30 15077 H 1442.92 -0.898254 8.13556 0
M  V30 15078 N 1445.58 -1.40446 -0.715026 0
M  V30 15079 C 1446.99 -1.34564 -1.29419 0
M  V30 15080 C 1447.34 -0.0193984 -1.9619 0
M  V30 15081 O 1446.47 0.882616 -1.97582 0
M  V30 15082 C 1447.06 -2.43721 -2.35342 0
M  V30 15083 C 1445.62 -2.41297 -2.88881 0
M  V30 15084 C 1444.77 -2.2457 -1.62676 0
M  V30 15085 H 1447.72 -1.50244 -0.511116 0
M  V30 15086 H 1447.74 -2.1166 -3.16197 0
M  V30 15087 H 1447.25 -3.40234 -1.86715 0
M  V30 15088 H 1445.35 -1.48483 -3.41736 0
M  V30 15089 H 1445.47 -3.36903 -3.40637 0
M  V30 15090 H 1443.83 -1.72096 -1.87763 0
M  V30 15091 H 1444.61 -3.23082 -1.16074 0
M  V30 15092 N 1447.06 0.947303 -1.25952 0
M  V30 15093 C 1447.99 2.0625 -1.09467 0
M  V30 15094 C 1448.97 1.701 -0.00160498 0
M  V30 15095 O 1450.16 1.93432 -0.172501 0
M  V30 15096 C 1447.29 3.39746 -0.720392 0
M  V30 15097 C 1446.24 3.89935 -1.76451 0
M  V30 15098 C 1445.57 5.2001 -1.24472 0
M  V30 15099 C 1446.87 4.15496 -3.16481 0
M  V30 15100 H 1448.56 2.203 -2.02752 0
M  V30 15101 H 1446.11 1.05858 -0.97622 0
M  V30 15102 H 1448.06 4.17221 -0.591972 0
M  V30 15103 H 1446.78 3.25656 0.248161 0
M  V30 15104 H 1445.44 3.14635 -1.8815 0
M  V30 15105 H 1445.09 5.02295 -0.266182 0
M  V30 15106 H 1444.79 5.54559 -1.94263 0
M  V30 15107 H 1446.31 6.00075 -1.12884 0
M  V30 15108 H 1447.73 4.83605 -3.07894 0
M  V30 15109 H 1446.12 4.61315 -3.83808 0
M  V30 15110 H 1447.19 3.21501 -3.62995 0
M  V30 15111 N 1448.54 1.07657 1.15099 0
M  V30 15112 C 1449.49 0.699678 2.19939 0
M  V30 15113 C 1450.46 -0.310432 1.63173 0
M  V30 15114 O 1451.64 -0.196177 1.89789 0
M  V30 15115 C 1448.78 0.106963 3.44934 0
M  V30 15116 C 1447.89 1.16892 4.15885 0
M  V30 15117 C 1447.03 0.540884 5.28439 0
M  V30 15118 C 1446.07 1.58542 5.91211 0
M  V30 15119 N 1445.2 0.979731 6.95231 0
M  V30 15120 H 1450.04 1.59805 2.51528 0
M  V30 15121 H 1447.58 0.798746 1.23525 0
M  V30 15122 H 1449.54 -0.254335 4.16424 0
M  V30 15123 H 1448.17 -0.754756 3.13852 0
M  V30 15124 H 1447.22 1.64775 3.4286 0
M  V30 15125 H 1448.53 1.96078 4.58645 0
M  V30 15126 H 1447.69 0.127397 6.06566 0
M  V30 15127 H 1446.43 -0.282708 4.8688 0
M  V30 15128 H 1445.43 2.00865 5.11794 0
M  V30 15129 H 1446.66 2.41135 6.34847 0
M  V30 15130 H 1444.6 0.177098 6.55761 0
M  V30 15131 H 1444.52 1.70878 7.36435 0
M  V30 15132 H 1445.79 0.591849 7.7725 0
M  V30 15133 N 1450.02 -1.31994 0.861122 0
M  V30 15134 C 1451.26 -1.97317 0.468371 0
M  V30 15135 C 1451.6 -1.67954 -0.974941 0
M  V30 15136 O 1450.87 -0.971243 -1.68514 0
M  V30 15137 C 1451.15 -3.52918 0.715607 0
M  V30 15138 C 1451.01 -3.91888 2.20781 0
M  V30 15139 C 1452.33 -4.39747 0.17624 0
M  V30 15140 H 1449.44 -0.716733 0.171646 0
M  V30 15141 H 1452.09 -1.56269 1.08074 0
M  V30 15142 H 1450.24 -3.88013 0.194387 0
M  V30 15143 H 1451.91 -3.66938 2.7956 0
M  V30 15144 H 1450.15 -3.40813 2.68382 0
M  V30 15145 H 1450.82 -5.00346 2.33147 0
M  V30 15146 H 1453.3 -4.11424 0.622043 0
M  V30 15147 H 1452.17 -5.47592 0.378748 0
M  V30 15148 H 1452.44 -4.32393 -0.921358 0
M  V30 15149 N 1451.49 -0.619688 -1.44906 0
M  V30 15150 C 1452.72 -0.126363 -2.06514 0
M  V30 15151 C 1453.14 1.19432 -1.46224 0
M  V30 15152 O 1452.49 1.7301 -0.580851 0
M  V30 15153 C 1452.55 0.00682319 -3.61499 0
M  V30 15154 O 1452.27 -1.26162 -4.19541 0
M  V30 15155 C 1453.77 0.530189 -4.40118 0
M  V30 15156 H 1450.99 -0.0744032 -0.666862 0
M  V30 15157 H 1453.53 -0.850851 -1.85959 0
M  V30 15158 H 1451.69 0.681694 -3.81355 0
M  V30 15159 H 1452.1 -1.09908 -5.12855 0
M  V30 15160 H 1453.57 0.572428 -5.49024 0
M  V30 15161 H 1454.05 1.55494 -4.10753 0
M  V30 15162 H 1454.66 -0.111044 -4.25155 0
M  V30 15163 N 1452.97 1.53444 -0.359552 0
M  V30 15164 C 1454.22 2.02152 0.224969 0
M  V30 15165 C 1454.57 1.24236 1.46912 0
M  V30 15166 O 1453.87 0.325976 1.88807 0
M  V30 15167 C 1454.06 3.5273 0.575863 0
M  V30 15168 C 1453.89 4.45226 -0.63273 0
M  V30 15169 C 1452.66 4.92204 -1.14296 0
M  V30 15170 C 1454.86 4.92058 -1.49611 0
M  V30 15171 N 1452.84 5.68692 -2.31221 0
M  V30 15172 C 1454.21 5.66829 -2.51208 0
M  V30 15173 C 1456.27 4.74141 -1.51969 0
M  V30 15174 C 1454.97 6.25587 -3.55012 0
M  V30 15175 C 1456.99 5.33761 -2.54663 0
M  V30 15176 C 1456.36 6.08412 -3.54984 0
M  V30 15177 H 1452.46 0.780693 0.0451987 0
M  V30 15178 H 1455.04 1.88097 -0.502735 0
M  V30 15179 H 1453.21 3.66958 1.27265 0
M  V30 15180 H 1454.94 3.88166 1.14495 0
M  V30 15181 H 1451.7 4.6827 -0.70853 0
M  V30 15182 H 1452.12 6.116 -2.90301 0
M  V30 15183 H 1456.76 4.15956 -0.757639 0
M  V30 15184 H 1454.48 6.82871 -4.32102 0
M  V30 15185 H 1458.07 5.21795 -2.57334 0
M  V30 15186 H 1456.95 6.53724 -4.33145 0
M  V30 15187 N 1454.45 0.0885642 1.57351 0
M  V30 15188 C 1455.7 -0.571435 1.95208 0
M  V30 15189 C 1456.05 -1.66196 0.96936 0
M  V30 15190 O 1455.34 -1.91599 -0.00570677 0
M  V30 15191 C 1455.54 -1.17764 3.37441 0
M  V30 15192 C 1455.37 -0.147362 4.49458 0
M  V30 15193 C 1454.14 0.273866 5.04557 0
M  V30 15194 C 1456.34 0.621935 5.10526 0
M  V30 15195 N 1454.32 1.29309 6.00127 0
M  V30 15196 C 1455.69 1.49317 6.01751 0
M  V30 15197 C 1457.74 0.676169 4.93287 0
M  V30 15198 C 1456.45 2.41386 6.77588 0
M  V30 15199 C 1458.47 1.58443 5.6978 0
M  V30 15200 C 1457.83 2.44331 6.60668 0
M  V30 15201 H 1453.93 -0.179629 0.76109 0
M  V30 15202 H 1456.52 0.169612 1.9396 0
M  V30 15203 H 1454.69 -1.88853 3.39395 0
M  V30 15204 H 1456.42 -1.79947 3.62493 0
M  V30 15205 H 1453.18 -0.112587 4.73466 0
M  V30 15206 H 1453.6 1.80072 6.52613 0
M  V30 15207 H 1458.24 0.0263199 4.22792 0
M  V30 15208 H 1455.96 3.07399 7.4735 0
M  V30 15209 H 1459.55 1.63145 5.58458 0
M  V30 15210 H 1458.43 3.1347 7.18823 0
M  V30 15211 N 1455.93 -1.56509 -0.185096 0
M  V30 15212 C 1457.18 -1.81206 -0.903924 0
M  V30 15213 C 1457.5 -0.663423 -1.82836 0
M  V30 15214 O 1456.76 0.350211 -1.92541 0
M  V30 15215 C 1457.06 -3.11968 -1.74387 0
M  V30 15216 C 1456.72 -4.40353 -0.969552 0
M  V30 15217 C 1455.39 -4.75227 -0.755799 0
M  V30 15218 C 1457.74 -5.19461 -0.425443 0
M  V30 15219 C 1455.07 -5.86698 0.0133856 0
M  V30 15220 C 1457.42 -6.31736 0.330582 0
M  V30 15221 C 1456.08 -6.65187 0.555262 0
M  V30 15222 H 1455.35 -0.663078 -0.330769 0
M  V30 15223 H 1458 -1.90747 -0.169673 0
M  V30 15224 H 1456.3 -2.97708 -2.5471 0
M  V30 15225 H 1458 -3.28284 -2.30284 0
M  V30 15226 H 1454.59 -4.1299 -1.14618 0
M  V30 15227 H 1458.77 -4.92923 -0.577959 0
M  V30 15228 H 1454.03 -6.11081 0.197335 0
M  V30 15229 H 1458.2 -6.92246 0.759523 0
M  V30 15230 H 1455.83 -7.51403 1.15318 0
M  V30 15231 N 1457.41 0.45317 -1.50944 0
M  V30 15232 C 1458.65 1.21354 -1.64476 0
M  V30 15233 C 1459.01 1.88859 -0.345879 0
M  V30 15234 O 1460.21 2.66421 -0.356808 0
M  V30 15235 C 1458.48 2.21565 -2.80435 0
M  V30 15236 S 1460.04 3.06302 -3.14205 0
M  V30 15237 H 1456.86 0.411762 -0.579632 0
M  V30 15238 H 1459.46 0.50762 -1.88795 0
M  V30 15239 H 1458.17 1.70585 -3.73268 0
M  V30 15240 H 1457.7 2.96761 -2.58257 0
M  V30 15241 H 1459.71 4.22988 -2.59414 0
M  V30 15242 N 1458.88 1.40823 0.707568 0
M  V30 15243 C 1459.85 1.41464 1.80334 0
M  V30 15244 C 1460.85 0.307143 1.57839 0
M  V30 15245 O 1462.04 0.566444 1.64733 0
M  V30 15246 C 1459.17 1.21426 3.18541 0
M  V30 15247 H 1460.36 2.38998 1.81162 0
M  V30 15248 H 1457.92 1.2679 0.914007 0
M  V30 15249 H 1458.65 0.246847 3.23359 0
M  V30 15250 H 1458.44 2.01657 3.36269 0
M  V30 15251 H 1459.93 1.24681 3.98553 0
M  V30 15252 N 1460.36 -0.94061 1.26453 0
M  V30 15253 C 1461.61 -1.68687 1.12031 0
M  V30 15254 C 1461.94 -1.91571 -0.336252 0
M  V30 15255 O 1461.19 -1.49458 -1.26336 0
M  V30 15256 C 1461.49 -3.06683 1.83521 0
M  V30 15257 C 1461.16 -3.03553 3.33416 0
M  V30 15258 C 1459.82 -3.02407 3.74304 0
M  V30 15259 C 1462.17 -2.95817 4.29118 0
M  V30 15260 C 1459.5 -2.9129 5.09281 0
M  V30 15261 C 1461.85 -2.86242 5.64135 0
M  V30 15262 C 1460.52 -2.83438 6.04333 0
M  V30 15263 H 1459.79 -0.61727 0.40995 0
M  V30 15264 H 1462.43 -1.0979 1.56902 0
M  V30 15265 H 1460.74 -3.69208 1.31121 0
M  V30 15266 H 1462.43 -3.63274 1.69802 0
M  V30 15267 H 1459.02 -3.05226 3.00891 0
M  V30 15268 H 1463.21 -2.9581 3.9851 0
M  V30 15269 H 1458.46 -2.87498 5.39588 0
M  V30 15270 H 1462.64 -2.79219 6.37973 0
M  V30 15271 H 1460.27 -2.74581 7.08879 0
M  V30 15272 N 1461.84 -1.08266 -1.14527 0
M  V30 15273 C 1463.25 -0.832702 -1.67102 0
M  V30 15274 C 1463.6 0.640776 -1.85441 0
M  V30 15275 O 1462.73 1.49505 -1.56452 0
M  V30 15276 C 1463.32 -1.50502 -3.03537 0
M  V30 15277 C 1461.88 -1.30234 -3.53152 0
M  V30 15278 C 1461.03 -1.56873 -2.28661 0
M  V30 15279 H 1463.98 -1.24344 -0.986118 0
M  V30 15280 H 1464 -0.931426 -3.68924 0
M  V30 15281 H 1463.51 -2.57741 -2.90157 0
M  V30 15282 H 1461.61 -0.250582 -3.71756 0
M  V30 15283 H 1461.73 -2.02898 -4.34015 0
M  V30 15284 H 1460.09 -0.990214 -2.34663 0
M  V30 15285 H 1460.87 -2.65316 -2.17859 0
M  V30 15286 N 1463.32 1.31536 -0.86811 0
M  V30 15287 C 1464.55 2.00661 -0.491815 0
M  V30 15288 C 1464.96 1.65341 0.919733 0
M  V30 15289 O 1464.3 0.87773 1.61374 0
M  V30 15290 C 1464.36 3.55002 -0.566926 0
M  V30 15291 C 1464.03 4.1379 -1.93976 0
M  V30 15292 C 1465.02 4.31032 -2.90702 0
M  V30 15293 C 1462.71 4.4956 -2.24056 0
M  V30 15294 C 1464.7 4.8323 -4.15653 0
M  V30 15295 C 1462.39 5.01461 -3.49257 0
M  V30 15296 C 1463.39 5.18246 -4.44871 0
M  V30 15297 O 1463.08 5.69033 -5.67852 0
M  V30 15298 H 1462.81 0.648663 -0.190296 0
M  V30 15299 H 1465.36 1.68783 -1.17053 0
M  V30 15300 H 1463.59 3.86332 0.168704 0
M  V30 15301 H 1465.28 4.05385 -0.204323 0
M  V30 15302 H 1466.05 4.03717 -2.6877 0
M  V30 15303 H 1461.93 4.35772 -1.50412 0
M  V30 15304 H 1465.47 4.96247 -4.9029 0
M  V30 15305 H 1461.37 5.28209 -3.71033 0
M  V30 15306 H 1462.13 5.87405 -5.69998 0
M  V30 15307 N 1464.8 0.627364 1.44575 0
M  V30 15308 C 1466.02 0.135576 2.06956 0
M  V30 15309 C 1466.45 -1.17922 1.46547 0
M  V30 15310 O 1465.81 -1.72255 0.565509 0
M  V30 15311 C 1465.85 0.030347 3.60587 0
M  V30 15312 O 1464.96 -1.01464 3.99724 0
M  V30 15313 H 1464.3 0.083058 0.658785 0
M  V30 15314 H 1466.83 0.862977 1.8551 0
M  V30 15315 H 1466.84 -0.161461 4.0768 0
M  V30 15316 H 1465.51 0.990285 4.03938 0
M  V30 15317 H 1464.09 -0.797701 3.64268 0
M  V30 15318 N 1466.28 -1.53251 0.367684 0
M  V30 15319 C 1467.21 -2.28728 -0.469676 0
M  V30 15320 C 1468.19 -1.3124 -1.08213 0
M  V30 15321 O 1469.37 -1.60112 -1.09898 0
M  V30 15322 C 1466.5 -3.07808 -1.60846 0
M  V30 15323 C 1465.46 -4.13 -1.12315 0
M  V30 15324 C 1464.78 -4.80176 -2.35234 0
M  V30 15325 C 1466.08 -5.21892 -0.2064 0
M  V30 15326 H 1467.78 -2.98972 0.160019 0
M  V30 15327 H 1465.32 -1.43786 0.0784011 0
M  V30 15328 H 1467.27 -3.59358 -2.20091 0
M  V30 15329 H 1466 -2.35258 -2.26542 0
M  V30 15330 H 1464.66 -3.62399 -0.553378 0
M  V30 15331 H 1464.31 -4.04196 -2.99391 0
M  V30 15332 H 1464.01 -5.51261 -2.03433 0
M  V30 15333 H 1465.53 -5.34521 -2.9516 0
M  V30 15334 H 1466.94 -5.68932 -0.706386 0
M  V30 15335 H 1465.34 -6.00096 0.0208362 0
M  V30 15336 H 1466.41 -4.79051 0.750851 0
M  V30 15337 N 1467.75 -0.0969077 -1.57302 0
M  V30 15338 C 1468.68 0.858443 -2.17147 0
M  V30 15339 C 1469.66 1.29294 -1.10531 0
M  V30 15340 O 1470.85 1.3595 -1.38676 0
M  V30 15341 C 1467.98 2.11691 -2.75326 0
M  V30 15342 C 1466.93 1.82097 -3.8733 0
M  V30 15343 C 1466.26 3.14787 -4.32219 0
M  V30 15344 C 1467.56 1.10651 -5.10444 0
M  V30 15345 H 1469.25 0.35982 -2.9723 0
M  V30 15346 H 1466.8 0.17163 -1.42974 0
M  V30 15347 H 1468.75 2.78963 -3.15844 0
M  V30 15348 H 1467.48 2.63839 -1.925 0
M  V30 15349 H 1466.14 1.17222 -3.47354 0
M  V30 15350 H 1465.78 3.64826 -3.46281 0
M  V30 15351 H 1465.48 2.95769 -5.07735 0
M  V30 15352 H 1467.01 3.83215 -4.75372 0
M  V30 15353 H 1468.42 1.68036 -5.48121 0
M  V30 15354 H 1466.82 1.01805 -5.91401 0
M  V30 15355 H 1467.89 0.0895634 -4.84817 0
M  V30 15356 N 1469.23 1.56605 0.176793 0
M  V30 15357 C 1470.48 1.80875 0.892578 0
M  V30 15358 C 1470.79 0.673245 1.83648 0
M  V30 15359 O 1472 0.800732 2.59423 0
M  V30 15360 C 1470.46 3.20481 1.63768 0
M  V30 15361 C 1470.06 4.41885 0.737685 0
M  V30 15362 C 1471.81 3.54048 2.34202 0
M  V30 15363 C 1469.71 5.72512 1.48271 0
M  V30 15364 H 1468.64 0.674476 0.337042 0
M  V30 15365 H 1471.3 1.82922 0.145574 0
M  V30 15366 H 1469.68 3.12736 2.42924 0
M  V30 15367 H 1470.85 4.60797 -0.0165186 0
M  V30 15368 H 1469.17 4.16153 0.143277 0
M  V30 15369 H 1471.76 4.48886 2.90526 0
M  V30 15370 H 1472.11 2.78665 3.09276 0
M  V30 15371 H 1472.64 3.63322 1.61995 0
M  V30 15372 H 1469.38 6.5091 0.774399 0
M  V30 15373 H 1468.9 5.57586 2.21038 0
M  V30 15374 H 1470.58 6.14274 2.03165 0
M  V30 15375 N 1470.71 -0.445159 1.51182 0
M  V30 15376 C 1471.96 -1.19524 1.63463 0
M  V30 15377 C 1472.28 -1.91377 0.347136 0
M  V30 15378 O 1471.54 -1.83932 -0.668408 0
M  V30 15379 C 1471.84 -2.24274 2.78273 0
M  V30 15380 C 1471.5 -1.6949 4.17833 0
M  V30 15381 C 1470.17 -1.54271 4.558 0
M  V30 15382 C 1472.52 -1.29128 5.04951 0
M  V30 15383 C 1469.85 -0.971532 5.786 0
M  V30 15384 C 1472.2 -0.734426 6.28322 0
M  V30 15385 C 1470.86 -0.569079 6.6507 0
M  V30 15386 H 1470.13 -0.437369 0.598155 0
M  V30 15387 H 1472.78 -0.48742 1.85193 0
M  V30 15388 H 1471.08 -3.01065 2.50734 0
M  V30 15389 H 1472.78 -2.82117 2.84975 0
M  V30 15390 H 1469.37 -1.82309 3.87894 0
M  V30 15391 H 1473.56 -1.39709 4.7623 0
M  V30 15392 H 1468.81 -0.831117 6.05725 0
M  V30 15393 H 1472.99 -0.413133 6.95173 0
M  V30 15394 H 1470.61 -0.124355 7.60098 0
M  V30 15395 N 1472.19 -1.41197 -0.700089 0
M  V30 15396 C 1473.44 -1.39611 -1.45574 0
M  V30 15397 C 1473.75 -0.00683378 -1.95599 0
M  V30 15398 O 1474.96 0.131643 -2.71181 0
M  V30 15399 C 1473.41 -2.45452 -2.63214 0
M  V30 15400 C 1473.02 -3.90265 -2.19993 0
M  V30 15401 C 1474.76 -2.52996 -3.40871 0
M  V30 15402 C 1472.67 -4.87668 -3.34565 0
M  V30 15403 H 1471.6 -0.51917 -0.546789 0
M  V30 15404 H 1474.25 -1.67001 -0.760456 0
M  V30 15405 H 1472.63 -2.11186 -3.34987 0
M  V30 15406 H 1473.81 -4.33756 -1.55539 0
M  V30 15407 H 1472.12 -3.86339 -1.55341 0
M  V30 15408 H 1474.72 -3.22952 -4.26153 0
M  V30 15409 H 1475.06 -1.56536 -3.85749 0
M  V30 15410 H 1475.6 -2.86331 -2.76151 0
M  V30 15411 H 1472.33 -5.85517 -2.94704 0
M  V30 15412 H 1471.85 -4.4883 -3.97884 0
M  V30 15413 H 1473.53 -5.08215 -4.00409 0
M  V30 15414 N 1473.67 0.933891 -1.2695 0
M  V30 15415 C 1474.9 1.71263 -1.15553 0
M  V30 15416 C 1475.3 1.86948 0.291059 0
M  V30 15417 O 1474.65 1.38173 1.21053 0
M  V30 15418 C 1474.71 3.13479 -1.75986 0
M  V30 15419 C 1474.37 3.21154 -3.2513 0
M  V30 15420 C 1475.37 3.03874 -4.21849 0
M  V30 15421 C 1473.05 3.44311 -3.65726 0
M  V30 15422 C 1475.05 3.09631 -5.57142 0
M  V30 15423 C 1472.74 3.49702 -5.01151 0
M  V30 15424 C 1473.73 3.32379 -5.96668 0
M  V30 15425 O 1473.42 3.37493 -7.29626 0
M  V30 15426 H 1473.15 0.542801 -0.402918 0
M  V30 15427 H 1475.71 1.17877 -1.68209 0
M  V30 15428 H 1473.94 3.6832 -1.178 0
M  V30 15429 H 1475.63 3.73295 -1.59391 0
M  V30 15430 H 1476.39 2.85832 -3.91823 0
M  V30 15431 H 1472.27 3.56847 -2.91859 0
M  V30 15432 H 1475.82 2.96028 -6.31675 0
M  V30 15433 H 1471.71 3.67267 -5.30835 0
M  V30 15434 H 1472.48 3.53988 -7.37994 0
M  V30 15435 N 1475.14 1.08871 1.13951 0
M  V30 15436 C 1476.42 0.73388 1.81311 0
M  V30 15437 C 1476.8 -0.781824 1.96089 0
M  V30 15438 O 1476.15 -1.70211 1.52448 0
M  V30 15439 C 1476.36 1.46631 3.16702 0
M  V30 15440 C 1477.71 1.62843 3.92132 0
M  V30 15441 O 1478.73 1.42836 3.26307 0
M  V30 15442 O 1477.59 1.95893 5.10185 0
M  V30 15443 H 1474.68 0.262976 0.784074 0
M  V30 15444 H 1477.23 1.19057 1.20927 0
M  V30 15445 H 1476 2.49863 3.01138 0
M  V30 15446 H 1475.62 1.00141 3.84782 0
M  V30 15447 N 1476.62 -1.31073 0.875073 0
M  V30 15448 C 1477.53 -2.3215 0.338196 0
M  V30 15449 C 1478.55 -1.64928 -0.554504 0
M  V30 15450 O 1479.72 -1.96308 -0.449998 0
M  V30 15451 C 1476.79 -3.43804 -0.447163 0
M  V30 15452 C 1475.85 -4.26674 0.474106 0
M  V30 15453 C 1475.08 -5.32997 -0.273867 0
M  V30 15454 O 1475.31 -5.50288 -1.50129 0
M  V30 15455 O 1474.24 -6.00756 0.370913 0
M  V30 15456 H 1478.07 -2.80002 1.17612 0
M  V30 15457 H 1475.65 -1.35064 0.6386 0
M  V30 15458 H 1477.53 -4.11847 -0.892199 0
M  V30 15459 H 1476.21 -2.98105 -1.26155 0
M  V30 15460 H 1475.11 -3.61366 0.967748 0
M  V30 15461 H 1476.45 -4.75952 1.25423 0
M  V30 15462 N 1478.1 -0.635022 -1.4424 0
M  V30 15463 C 1479.35 -0.141276 -2.02307 0
M  V30 15464 C 1479.68 1.23508 -1.49865 0
M  V30 15465 O 1478.95 1.82065 -0.684291 0
M  V30 15466 C 1479.24 -0.132196 -3.59857 0
M  V30 15467 C 1479.09 -1.54117 -4.22573 0
M  V30 15468 C 1480.41 0.541186 -4.3676 0
M  V30 15469 H 1477.53 -0.0528117 -0.735105 0
M  V30 15470 H 1480.17 -0.812239 -1.71763 0
M  V30 15471 H 1478.32 0.439156 -3.8601 0
M  V30 15472 H 1479.99 -2.16171 -4.07514 0
M  V30 15473 H 1478.24 -2.09389 -3.79919 0
M  V30 15474 H 1478.91 -1.48682 -5.31599 0
M  V30 15475 H 1481.38 0.0552603 -4.16063 0
M  V30 15476 H 1480.26 0.516742 -5.46462 0
M  V30 15477 H 1480.52 1.61222 -4.11655 0
M  V30 15478 N 1479.58 1.53054 -0.375806 0
M  V30 15479 C 1480.99 1.5958 -0.0251765 0
M  V30 15480 C 1481.19 1.39047 1.45836 0
M  V30 15481 O 1480.25 1.20073 2.22123 0
M  V30 15482 C 1481.56 2.96676 -0.490274 0
M  V30 15483 C 1483.11 3.09815 -0.44537 0
M  V30 15484 C 1483.59 4.4934 -0.886442 0
M  V30 15485 N 1485.08 4.55484 -0.84191 0
M  V30 15486 C 1485.81 5.61652 -1.15476 0
M  V30 15487 N 1485.31 6.75526 -1.53741 0
M  V30 15488 N 1487.1 5.51688 -1.07689 0
M  V30 15489 H 1479.25 1.64651 -1.34178 0
M  V30 15490 H 1481.52 0.77278 -0.549104 0
M  V30 15491 H 1481.22 3.16874 -1.52589 0
M  V30 15492 H 1481.1 3.77016 0.11776 0
M  V30 15493 H 1483.48 2.89321 0.581138 0
M  V30 15494 H 1483.56 2.3146 -1.08903 0
M  V30 15495 H 1483.21 4.70573 -1.91111 0
M  V30 15496 H 1483.14 5.26141 -0.219925 0
M  V30 15497 H 1485.63 3.73725 -0.56015 0
M  V30 15498 H 1485.94 7.52489 -1.76012 0
M  V30 15499 H 1484.29 6.76892 -1.57616 0
M  V30 15500 H 1487.48 4.61605 -0.777062 0
M  V30 15501 H 1487.65 6.34329 -1.32403 0
M  V30 15502 N 1481.06 0.105248 1.57248 0
M  V30 15503 C 1482 -0.850012 2.14577 0
M  V30 15504 C 1482.97 -1.27294 1.06703 0
M  V30 15505 O 1484.16 -1.35289 1.34542 0
M  V30 15506 C 1481.3 -2.09993 2.73856 0
M  V30 15507 C 1480.41 -1.72662 3.95995 0
M  V30 15508 C 1479.55 -2.92517 4.43404 0
M  V30 15509 C 1478.59 -2.5136 5.58108 0
M  V30 15510 N 1477.72 -3.64082 6.00324 0
M  V30 15511 H 1482.56 -0.354282 2.95887 0
M  V30 15512 H 1480.1 -0.163192 1.46192 0
M  V30 15513 H 1482.06 -2.83208 3.06348 0
M  V30 15514 H 1480.69 -2.57048 1.95259 0
M  V30 15515 H 1479.74 -0.893754 3.69752 0
M  V30 15516 H 1481.05 -1.38406 4.79213 0
M  V30 15517 H 1480.21 -3.73973 4.77734 0
M  V30 15518 H 1478.94 -3.2999 3.59107 0
M  V30 15519 H 1477.95 -1.68333 5.23397 0
M  V30 15520 H 1479.17 -2.15019 6.44161 0
M  V30 15521 H 1477.12 -4.01255 5.18971 0
M  V30 15522 H 1477.04 -3.33705 6.78363 0
M  V30 15523 H 1478.31 -4.46019 6.39287 0
M  V30 15524 N 1482.53 -1.56697 -0.168486 0
M  V30 15525 C 1483.46 -1.99659 -1.21073 0
M  V30 15526 C 1484.45 -0.872625 -1.46011 0
M  V30 15527 O 1485.63 -1.13891 -1.57297 0
M  V30 15528 C 1482.76 -2.35889 -2.54899 0
M  V30 15529 C 1481.71 -3.51272 -2.44524 0
M  V30 15530 C 1481.04 -3.73253 -3.82866 0
M  V30 15531 C 1482.34 -4.84631 -1.94756 0
M  V30 15532 H 1484.03 -2.86974 -0.853593 0
M  V30 15533 H 1481.58 -1.38065 -0.409165 0
M  V30 15534 H 1483.53 -2.64542 -3.28017 0
M  V30 15535 H 1482.26 -1.45486 -2.92406 0
M  V30 15536 H 1480.92 -3.22751 -1.7386 0
M  V30 15537 H 1480.56 -2.80136 -4.17772 0
M  V30 15538 H 1480.26 -4.5089 -3.76792 0
M  V30 15539 H 1481.79 -4.04309 -4.57566 0
M  V30 15540 H 1483.2 -5.12142 -2.5765 0
M  V30 15541 H 1481.6 -5.65925 -1.99623 0
M  V30 15542 H 1482.67 -4.76436 -0.902021 0
M  V30 15543 N 1484.01 0.437135 -1.51416 0
M  V30 15544 C 1485.26 1.1835 -1.63328 0
M  V30 15545 C 1485.57 1.92343 -0.355455 0
M  V30 15546 O 1486.78 2.69183 -0.353951 0
M  V30 15547 C 1485.24 2.15235 -2.88447 0
M  V30 15548 C 1484.84 1.46889 -4.23235 0
M  V30 15549 C 1486.59 2.90303 -3.09716 0
M  V30 15550 C 1484.5 2.42259 -5.39504 0
M  V30 15551 H 1483.43 0.445467 -0.608338 0
M  V30 15552 H 1486.08 0.450528 -1.77883 0
M  V30 15553 H 1484.46 2.91968 -2.67527 0
M  V30 15554 H 1485.63 0.757128 -4.54537 0
M  V30 15555 H 1483.95 0.839725 -4.07845 0
M  V30 15556 H 1486.54 3.61747 -3.93756 0
M  V30 15557 H 1486.89 3.5166 -2.22802 0
M  V30 15558 H 1487.42 2.20677 -3.30978 0
M  V30 15559 H 1484.16 1.85591 -6.28678 0
M  V30 15560 H 1483.68 3.11488 -5.12577 0
M  V30 15561 H 1485.36 3.03384 -5.7146 0
M  V30 15562 N 1485.49 1.41566 0.692592 0
M  V30 15563 C 1486.42 1.46423 1.81886 0
M  V30 15564 C 1487.4 0.32258 1.67013 0
M  V30 15565 O 1488.59 0.534437 1.86701 0
M  V30 15566 C 1485.72 1.3486 3.20047 0
M  V30 15567 C 1484.67 2.46867 3.49629 0
M  V30 15568 C 1484 2.20369 4.87177 0
M  V30 15569 C 1485.3 3.89205 3.48306 0
M  V30 15570 H 1486.99 2.40683 1.78079 0
M  V30 15571 H 1484.54 1.15845 0.855334 0
M  V30 15572 H 1486.49 1.36869 3.98553 0
M  V30 15573 H 1485.21 0.370859 3.24488 0
M  V30 15574 H 1483.87 2.44146 2.73475 0
M  V30 15575 H 1483.52 1.20931 4.88247 0
M  V30 15576 H 1483.22 2.95426 5.07934 0
M  V30 15577 H 1484.74 2.24099 5.6799 0
M  V30 15578 H 1486.16 3.93626 4.16811 0
M  V30 15579 H 1484.56 4.63969 3.80595 0
M  V30 15580 H 1485.63 4.17144 2.47222 0
M  V30 15581 N 1486.97 -0.927146 1.27443 0
M  V30 15582 C 1488.38 -1.20319 1.0486 0
M  V30 15583 C 1488.58 -2.00323 -0.217491 0
M  V30 15584 O 1487.64 -2.35032 -0.922833 0
M  V30 15585 C 1488.95 -1.9508 2.28833 0
M  V30 15586 C 1490.5 -2.08016 2.33877 0
M  V30 15587 C 1490.98 -2.86183 3.5758 0
M  V30 15588 N 1492.47 -2.93751 3.58141 0
M  V30 15589 C 1493.2 -3.54698 4.5053 0
M  V30 15590 N 1492.7 -4.17032 5.53223 0
M  V30 15591 N 1494.49 -3.52107 4.38152 0
M  V30 15592 H 1486.64 -0.392671 2.08739 0
M  V30 15593 H 1488.91 -0.236323 0.918072 0
M  V30 15594 H 1488.61 -1.43712 3.20998 0
M  V30 15595 H 1488.49 -2.95692 2.34193 0
M  V30 15596 H 1490.87 -2.5857 1.42217 0
M  V30 15597 H 1490.95 -1.06622 2.3252 0
M  V30 15598 H 1490.6 -2.36312 4.49576 0
M  V30 15599 H 1490.53 -3.87863 3.56188 0
M  V30 15600 H 1493.02 -2.49449 2.83872 0
M  V30 15601 H 1493.33 -4.61477 6.19886 0
M  V30 15602 H 1491.68 -4.15576 5.57065 0
M  V30 15603 H 1494.87 -3.02611 3.57134 0
M  V30 15604 H 1495.04 -3.99315 5.10344 0
M  V30 15605 N 1488.45 -1.09474 -1.13372 0
M  V30 15606 C 1489.86 -0.824541 -1.36651 0
M  V30 15607 C 1490.06 0.560903 -1.93536 0
M  V30 15608 O 1489.12 1.31567 -2.15514 0
M  V30 15609 C 1490.43 -1.91618 -2.31739 0
M  V30 15610 C 1491.98 -1.94346 -2.45354 0
M  V30 15611 C 1492.45 -3.02655 -3.4375 0
M  V30 15612 N 1493.95 -3.01898 -3.513 0
M  V30 15613 C 1494.68 -3.82344 -4.27318 0
M  V30 15614 N 1494.18 -4.727 -5.06484 0
M  V30 15615 N 1495.97 -3.70602 -4.22623 0
M  V30 15616 H 1488.12 -1.98793 -0.748005 0
M  V30 15617 H 1490.38 -0.863318 -0.391646 0
M  V30 15618 H 1490.09 -2.91282 -1.97098 0
M  V30 15619 H 1489.96 -1.79484 -3.31761 0
M  V30 15620 H 1492.35 -0.953206 -2.79281 0
M  V30 15621 H 1492.43 -2.10558 -1.45255 0
M  V30 15622 H 1492.08 -4.01894 -3.10553 0
M  V30 15623 H 1492.01 -2.83687 -4.43655 0
M  V30 15624 H 1494.5 -2.36417 -2.94814 0
M  V30 15625 H 1494.81 -5.30665 -5.61796 0
M  V30 15626 H 1493.15 -4.76736 -5.05715 0
M  V30 15627 H 1496.35 -2.99372 -3.59853 0
M  V30 15628 H 1496.52 -4.33535 -4.81614 0
M  V30 15629 N 1489.92 1.30607 -0.882012 0
M  V30 15630 C 1491.15 2.00128 -0.51307 0
M  V30 15631 C 1491.56 1.66307 0.902144 0
M  V30 15632 O 1490.91 0.894797 1.60434 0
M  V30 15633 C 1490.97 3.5438 -0.604547 0
M  V30 15634 C 1490.63 4.1171 -1.98354 0
M  V30 15635 C 1491.63 4.27924 -2.95257 0
M  V30 15636 C 1489.31 4.47158 -2.28812 0
M  V30 15637 C 1491.31 4.78795 -4.20755 0
M  V30 15638 C 1488.99 4.97728 -3.54556 0
M  V30 15639 C 1489.99 5.13499 -4.50342 0
M  V30 15640 O 1489.68 5.62978 -5.73856 0
M  V30 15641 H 1489.41 0.646608 -0.197165 0
M  V30 15642 H 1491.97 1.67532 -1.18837 0
M  V30 15643 H 1490.2 3.86489 0.127719 0
M  V30 15644 H 1491.89 4.05146 -0.247308 0
M  V30 15645 H 1492.65 4.00844 -2.73037 0
M  V30 15646 H 1488.53 4.34152 -1.55026 0
M  V30 15647 H 1492.07 4.91019 -4.95526 0
M  V30 15648 H 1487.97 5.24244 -3.76615 0
M  V30 15649 H 1488.74 5.81326 -5.76196 0
M  V30 15650 N 1491.4 0.642663 1.43901 0
M  V30 15651 C 1492.81 0.232809 1.85243 0
M  V30 15652 C 1493.16 -1.21834 1.53789 0
M  V30 15653 O 1492.29 -1.92855 0.981625 0
M  V30 15654 C 1492.88 0.415749 3.36239 0
M  V30 15655 C 1491.44 0.0603055 3.76352 0
M  V30 15656 C 1490.59 0.723658 2.67691 0
M  V30 15657 H 1493.54 0.847052 1.34204 0
M  V30 15658 H 1493.56 -0.341903 3.78961 0
M  V30 15659 H 1493.07 1.472 3.59101 0
M  V30 15660 H 1491.18 -0.993761 3.59103 0
M  V30 15661 H 1491.29 0.478408 4.76705 0
M  V30 15662 H 1489.65 0.15787 2.5421 0
M  V30 15663 H 1490.44 1.78273 2.93383 0
M  V30 15664 N 1492.88 -1.52852 0.383918 0
M  V30 15665 C 1494.13 -2.01112 -0.199594 0
M  V30 15666 C 1494.45 -1.27237 -1.47769 0
M  V30 15667 O 1493.72 -0.390873 -1.91961 0
M  V30 15668 H 1492.3 -0.743047 -0.0767466 0
M  V30 15669 H 1494.96 -1.8799 0.51437 0
M  V30 15670 H 1494.06 -3.09347 -0.413627 0
M  V30 15671 N 1494.36 -0.113586 -1.5719 0
M  V30 15672 C 1495.61 0.544642 -1.94623 0
M  V30 15673 C 1495.93 1.6756 -0.997428 0
M  V30 15674 O 1495.2 1.95829 -0.0527521 0
M  V30 15675 H 1493.78 0.204186 -0.718552 0
M  V30 15676 H 1496.44 -0.181258 -1.94055 0
M  V30 15677 H 1495.54 0.942765 -2.9752 0
M  V30 15678 N 1495.84 1.56784 0.160173 0
M  V30 15679 C 1497.08 1.83782 0.871526 0
M  V30 15680 C 1497.44 0.695726 1.79381 0
M  V30 15681 O 1496.73 -0.307168 1.89122 0
M  V30 15682 C 1496.93 3.14703 1.69402 0
M  V30 15683 C 1496.75 4.41538 0.852869 0
M  V30 15684 C 1495.52 5.0258 0.523604 0
M  V30 15685 C 1497.72 5.13952 0.189264 0
M  V30 15686 N 1495.7 6.12999 -0.332518 0
M  V30 15687 C 1497.08 6.17752 -0.527548 0
M  V30 15688 C 1499.13 4.97782 0.108577 0
M  V30 15689 C 1497.83 7.07133 -1.31741 0
M  V30 15690 C 1499.86 5.87615 -0.667985 0
M  V30 15691 C 1499.22 6.90887 -1.37312 0
M  V30 15692 H 1495.32 0.723336 0.297169 0
M  V30 15693 H 1497.9 1.94212 0.137749 0
M  V30 15694 H 1496.08 3.05445 2.39913 0
M  V30 15695 H 1497.81 3.29657 2.34752 0
M  V30 15696 H 1494.56 4.65794 0.85631 0
M  V30 15697 H 1494.99 6.72819 -0.751215 0
M  V30 15698 H 1499.63 4.17937 0.639385 0
M  V30 15699 H 1497.35 7.86414 -1.85952 0
M  V30 15700 H 1500.93 5.77174 -0.732234 0
M  V30 15701 H 1499.81 7.59198 -1.96438 0
M  V30 15702 N 1497.32 -0.429099 1.51646 0
M  V30 15703 C 1498.56 -1.17958 1.64966 0
M  V30 15704 C 1498.89 -1.90667 0.368755 0
M  V30 15705 O 1498.17 -1.83945 -0.632023 0
M  V30 15706 C 1498.45 -2.19002 2.8585 0
M  V30 15707 C 1498.31 -1.50321 4.23938 0
M  V30 15708 C 1499.62 -3.19895 3.0225 0
M  V30 15709 H 1496.74 -0.427474 0.600362 0
M  V30 15710 H 1499.39 -0.46777 1.84152 0
M  V30 15711 H 1497.54 -2.79707 2.69623 0
M  V30 15712 H 1499.21 -0.928902 4.51851 0
M  V30 15713 H 1497.45 -0.805431 4.26257 0
M  V30 15714 H 1498.12 -2.2395 5.0453 0
M  V30 15715 H 1500.6 -2.69251 3.17243 0
M  V30 15716 H 1499.47 -3.8788 3.88381 0
M  V30 15717 H 1499.73 -3.86477 2.14682 0
M  V30 15718 N 1498.79 -1.41931 -0.685074 0
M  V30 15719 C 1499.7 -1.46985 -1.82846 0
M  V30 15720 C 1500.72 -0.359487 -1.70246 0
M  V30 15721 O 1501.9 -0.608824 -1.91977 0
M  V30 15722 C 1498.96 -1.36001 -3.18912 0
M  V30 15723 C 1498.02 -2.57442 -3.43543 0
M  V30 15724 C 1497.25 -2.46972 -4.73118 0
M  V30 15725 O 1497.48 -1.49999 -5.50324 0
M  V30 15726 O 1496.41 -3.36922 -4.98766 0
M  V30 15727 H 1500.24 -2.4347 -1.81538 0
M  V30 15728 H 1497.82 -1.23583 -0.839497 0
M  V30 15729 H 1499.7 -1.32198 -4.00127 0
M  V30 15730 H 1498.38 -0.426366 -3.2088 0
M  V30 15731 H 1497.29 -2.66821 -2.62217 0
M  V30 15732 H 1498.62 -3.49671 -3.46398 0
M  V30 15733 N 1500.27 0.920374 -1.27933 0
M  V30 15734 C 1501.22 2.02196 -1.1129 0
M  V30 15735 C 1502.19 1.66096 -0.0118871 0
M  V30 15736 O 1503.37 1.8999 -0.175586 0
M  V30 15737 C 1500.51 3.36312 -0.77383 0
M  V30 15738 C 1499.63 3.85322 -1.95322 0
M  V30 15739 C 1498.76 5.07919 -1.55537 0
M  V30 15740 C 1497.8 5.49244 -2.7018 0
M  V30 15741 N 1496.94 6.63034 -2.30933 0
M  V30 15742 H 1501.78 2.15764 -2.05548 0
M  V30 15743 H 1499.31 1.05691 -1.02312 0
M  V30 15744 H 1501.27 4.13451 -0.558024 0
M  V30 15745 H 1499.9 3.22531 0.131806 0
M  V30 15746 H 1498.95 3.04399 -2.28135 0
M  V30 15747 H 1500.27 4.11915 -2.81296 0
M  V30 15748 H 1499.42 5.92581 -1.30123 0
M  V30 15749 H 1498.16 4.8312 -0.666818 0
M  V30 15750 H 1497.16 4.63127 -2.96299 0
M  V30 15751 H 1498.39 5.76035 -3.59667 0
M  V30 15752 H 1496.34 6.39878 -1.44539 0
M  V30 15753 H 1496.25 6.89319 -3.10444 0
M  V30 15754 H 1497.52 7.51018 -2.08786 0
M  V30 15755 N 1501.75 1.10074 1.1279 0
M  V30 15756 C 1502.66 0.758458 2.22001 0
M  V30 15757 C 1503.68 -0.242438 1.72303 0
M  V30 15758 O 1504.85 -0.0821223 2.01233 0
M  V30 15759 C 1501.92 0.191326 3.46172 0
M  V30 15760 C 1500.98 1.24902 4.10729 0
M  V30 15761 C 1500.21 0.708857 5.28972 0
M  V30 15762 O 1500.43 -0.465993 5.68493 0
M  V30 15763 O 1499.37 1.46703 5.83748 0
M  V30 15764 H 1503.19 1.66997 2.53665 0
M  V30 15765 H 1500.78 0.875604 1.21052 0
M  V30 15766 H 1502.66 -0.121292 4.21225 0
M  V30 15767 H 1501.34 -0.693094 3.16193 0
M  V30 15768 H 1500.24 1.61444 3.37471 0
M  V30 15769 H 1501.58 2.10632 4.44854 0
M  V30 15770 N 1503.23 -1.30138 0.888926 0
M  V30 15771 C 1504.46 -2.00143 0.524437 0
M  V30 15772 C 1504.87 -1.66608 -0.888093 0
M  V30 15773 O 1504.23 -0.905326 -1.58462 0
M  V30 15774 C 1504.28 -3.54769 0.694327 0
M  V30 15775 O 1504 -3.87112 2.05125 0
M  V30 15776 C 1505.5 -4.42045 0.333354 0
M  V30 15777 H 1502.72 -0.639775 0.202309 0
M  V30 15778 H 1505.26 -1.65929 1.19531 0
M  V30 15779 H 1503.42 -3.87335 0.0707712 0
M  V30 15780 H 1503.83 -4.81807 2.07275 0
M  V30 15781 H 1505.31 -5.49702 0.503107 0
M  V30 15782 H 1505.78 -4.33109 -0.728893 0
M  V30 15783 H 1506.39 -4.14931 0.933398 0
M  V30 15784 N 1504.71 -0.650285 -1.43559 0
M  V30 15785 C 1505.94 -0.169893 -2.059 0
M  V30 15786 C 1506.34 1.16848 -1.48806 0
M  V30 15787 O 1505.69 1.73177 -0.612827 0
M  V30 15788 C 1505.75 -0.00117055 -3.595 0
M  V30 15789 C 1505.41 -1.26438 -4.39161 0
M  V30 15790 C 1506.41 -2.19245 -4.7141 0
M  V30 15791 C 1504.09 -1.50514 -4.79219 0
M  V30 15792 C 1506.09 -3.34424 -5.42623 0
M  V30 15793 C 1503.78 -2.65987 -5.50177 0
M  V30 15794 C 1504.77 -3.57767 -5.81801 0
M  V30 15795 O 1504.46 -4.71223 -6.51309 0
M  V30 15796 H 1504.19 -0.0858397 -0.670528 0
M  V30 15797 H 1506.75 -0.890321 -1.85101 0
M  V30 15798 H 1504.98 0.774599 -3.78863 0
M  V30 15799 H 1506.67 0.436206 -4.03549 0
M  V30 15800 H 1507.43 -2.01885 -4.40985 0
M  V30 15801 H 1503.31 -0.799577 -4.54013 0
M  V30 15802 H 1506.86 -4.06082 -5.67224 0
M  V30 15803 H 1502.75 -2.83282 -5.80019 0
M  V30 15804 H 1503.52 -4.70451 -6.6979 0
M  V30 15805 N 1506.18 1.52647 -0.392018 0
M  V30 15806 C 1507.41 2.05734 0.189018 0
M  V30 15807 C 1507.82 1.26338 1.40838 0
M  V30 15808 O 1507.16 0.303866 1.81169 0
M  V30 15809 C 1507.23 3.54095 0.621026 0
M  V30 15810 C 1506.89 4.54416 -0.485249 0
M  V30 15811 C 1507.89 5.02241 -1.3435 0
M  V30 15812 C 1505.57 4.98037 -0.653055 0
M  V30 15813 C 1507.57 5.92313 -2.35467 0
M  V30 15814 C 1505.25 5.87908 -1.66755 0
M  V30 15815 C 1506.25 6.34939 -2.51677 0
M  V30 15816 O 1505.94 7.23034 -3.51392 0
M  V30 15817 H 1505.67 0.675266 0.0315024 0
M  V30 15818 H 1508.23 1.97717 -0.556535 0
M  V30 15819 H 1506.46 3.5974 1.4186 0
M  V30 15820 H 1508.14 3.8991 1.12804 0
M  V30 15821 H 1508.91 4.6927 -1.22518 0
M  V30 15822 H 1504.79 4.61 -0.00176071 0
M  V30 15823 H 1508.33 6.28944 -3.01786 0
M  V30 15824 H 1504.23 6.20293 -1.78624 0
M  V30 15825 H 1505 7.41102 -3.47433 0
M  V30 15826 O 1507.7 0.262365 1.59355 0
M  V30 15827 H 1508.39 -0.310171 1.91201 0
M  V30 END ATOM
M  V30 BEGIN BOND
M  V30 END BOND
M  V30 END CTAB
M  END
$$$$
