drugbank_target|P50914 60S ribosomal protein L14 (DB11638)
 OpenBabel12092121093D

  0  0  0     0  0            999 V3000
M  V30 BEGIN CTAB
M  V30 COUNTS 3431 3463 0 0 0
M  V30 BEGIN ATOM
M  V30 1 H -0.908 1.98254 -0.117106 0
M  V30 2 N 0 1.576 0 0
M  V30 3 C 0.933 2.03868 1.02534 0
M  V30 4 C 1.911 0.928543 1.3348 0
M  V30 5 O 3.095 1.19667 1.45644 0
M  V30 6 C 0.222 2.43627 2.35294 0
M  V30 7 C -0.732 3.65373 2.2001 0
M  V30 8 S 0.101 5.13292 1.52614 0
M  V30 9 C 1.257 5.56322 2.86805 0
M  V30 10 H 1.49 2.90518 0.631377 0
M  V30 11 H -0.977 1.52953 0.210867 0
M  V30 12 H 0.981 2.67203 3.11629 0
M  V30 13 H -0.358 1.57376 2.7183 0
M  V30 14 H -1.165 3.90944 3.18086 0
M  V30 15 H -1.563 3.418 1.51819 0
M  V30 16 H 0.729 5.58782 3.83104 0
M  V30 17 H 1.672 6.56266 2.65933 0
M  V30 18 H 2.08 4.83886 2.90714 0
M  V30 19 N 1.4781 -0.272755 1.55222 0
M  V30 20 C 2.7241 -1.00581 1.761 0
M  V30 21 C 3.0571 -1.85932 0.560625 0
M  V30 22 O 2.3321 -1.89416 -0.441801 0
M  V30 23 C 2.6151 -1.88816 3.06628 0
M  V30 24 C 2.4681 -1.06457 4.37021 0
M  V30 25 C 3.7871 -2.8752 3.33197 0
M  V30 26 H 0.9061 -0.364244 0.640699 0
M  V30 27 H 3.5481 -0.278189 1.87952 0
M  V30 28 H 1.6981 -2.50856 2.96654 0
M  V30 29 H 3.3701 -0.464863 4.58952 0
M  V30 30 H 1.6131 -0.368043 4.32236 0
M  V30 31 H 2.2841 -1.71514 5.24678 0
M  V30 32 H 4.7601 -2.35615 3.42965 0
M  V30 33 H 3.6361 -3.46399 4.25792 0
M  V30 34 H 3.8971 -3.62657 2.52849 0
M  V30 35 N 2.9562 -1.48159 -0.537278 0
M  V30 36 C 4.2032 -1.55804 -1.29349 0
M  V30 37 C 4.5312 -0.228802 -1.9315 0
M  V30 38 O 3.7862 0.780242 -1.79473 0
M  V30 39 C 4.0852 -2.63956 -2.40961 0
M  V30 40 C 3.7512 -4.0662 -1.94861 0
M  V30 41 C 2.4132 -4.45452 -1.82006 0
M  V30 42 C 4.7652 -4.96055 -1.59933 0
M  V30 43 C 2.0932 -5.71531 -1.32547 0
M  V30 44 C 4.4452 -6.22617 -1.11939 0
M  V30 45 C 3.1092 -6.60312 -0.976951 0
M  V30 46 H 2.3792 -0.570129 -0.473322 0
M  V30 47 H 5.0262 -1.81845 -0.600372 0
M  V30 48 H 3.3312 -2.31747 -3.15912 0
M  V30 49 H 5.0282 -2.67089 -2.99107 0
M  V30 50 H 1.6182 -3.75949 -2.05815 0
M  V30 51 H 5.8022 -4.66738 -1.68728 0
M  V30 52 H 1.0582 -5.99468 -1.202 0
M  V30 53 H 5.2322 -6.91318 -0.839811 0
M  V30 54 H 2.8592 -7.57895 -0.591501 0
M  V30 55 N 4.4343 0.785586 -1.36625 0
M  V30 56 C 5.8503 1.08419 -1.17122 0
M  V30 57 C 6.0503 2.015 0.00208491 0
M  V30 58 O 5.1063 2.43551 0.666278 0
M  V30 59 C 6.4193 1.69498 -2.48377 0
M  V30 60 C 7.9673 1.81821 -2.54775 0
M  V30 61 C 8.4423 2.46315 -3.86126 0
M  V30 62 N 9.9333 2.53779 -3.87492 0
M  V30 63 C 10.6683 3.045 -4.85868 0
M  V30 64 N 10.1643 3.55499 -5.94637 0
M  V30 65 N 11.9573 3.03247 -4.73284 0
M  V30 66 H 4.1083 0.167264 -2.1174 0
M  V30 67 H 6.3713 0.13682 -0.938075 0
M  V30 68 H 6.0773 1.08571 -3.34522 0
M  V30 69 H 5.9513 2.6896 -2.64462 0
M  V30 70 H 8.3383 2.41884 -1.69045 0
M  V30 71 H 8.4193 0.811532 -2.42586 0
M  V30 72 H 8.0633 1.86895 -4.72263 0
M  V30 73 H 7.9933 3.47561 -3.95612 0
M  V30 74 H 10.4843 2.17672 -3.08913 0
M  V30 75 H 10.7973 3.92562 -6.65669 0
M  V30 76 H 9.1423 3.5364 -5.98301 0
M  V30 77 H 12.3333 2.62696 -3.87438 0
M  V30 78 H 12.5063 3.42467 -5.50109 0
M  V30 79 N 5.9124 1.20967 1.01018 0
M  V30 80 C 7.3284 0.965905 1.27053 0
M  V30 81 C 7.5284 -0.350785 1.98423 0
M  V30 82 O 6.5844 -1.07773 2.28344 0
M  V30 83 C 7.8974 2.15294 2.09926 0
M  V30 84 C 9.4454 2.19463 2.23171 0
M  V30 85 C 9.9204 3.3767 3.09424 0
M  V30 86 N 11.4114 3.37724 3.17012 0
M  V30 87 C 12.1464 4.25837 3.83993 0
M  V30 88 N 11.6424 5.24138 4.53047 0
M  V30 89 N 13.4354 4.1366 3.80581 0
M  V30 90 H 5.5864 2.0565 0.531194 0
M  V30 91 H 7.8494 0.90024 0.297106 0
M  V30 92 H 7.5554 3.10684 1.64828 0
M  V30 93 H 7.4294 2.13923 3.10672 0
M  V30 94 H 9.8164 1.24632 2.6749 0
M  V30 95 H 9.8974 2.2488 1.21912 0
M  V30 96 H 9.5414 4.32791 2.65808 0
M  V30 97 H 9.4714 3.29491 4.10784 0
M  V30 98 H 11.9624 2.6658 2.6785 0
M  V30 99 H 12.2754 5.87684 5.01844 0
M  V30 100 H 10.6204 5.28068 4.5185 0
M  V30 101 H 13.8114 3.36127 3.25785 0
M  V30 102 H 13.9844 4.82538 4.32505 0
M  V30 103 N 7.3905 -1.2043 1.01659 0
M  V30 104 C 8.6375 -1.89797 0.705917 0
M  V30 105 C 8.9655 -1.78848 -0.764439 0
M  V30 106 O 8.2205 -1.16694 -1.57102 0
M  V30 107 C 8.5195 -3.40464 1.08714 0
M  V30 108 C 8.1855 -3.71614 2.5537 0
M  V30 109 C 6.8475 -3.79826 2.95441 0
M  V30 110 C 9.1995 -3.85915 3.50313 0
M  V30 111 C 6.5275 -3.99797 4.29394 0
M  V30 112 C 8.8795 -4.07396 4.83954 0
M  V30 113 C 7.5435 -4.13837 5.23732 0
M  V30 114 H 6.8135 -0.694518 0.258313 0
M  V30 115 H 9.4605 -1.42691 1.27717 0
M  V30 116 H 7.7655 -3.89385 0.434309 0
M  V30 117 H 9.4625 -3.92433 0.824461 0
M  V30 118 H 6.0525 -3.65822 2.23321 0
M  V30 119 H 10.2365 -3.78926 3.20513 0
M  V30 120 H 5.4925 -4.03018 4.59768 0
M  V30 121 H 9.6665 -4.17404 5.57447 0
M  V30 122 H 7.2935 -4.29064 6.27541 0
M  V30 123 N 8.8686 -0.792821 -1.36206 0
M  V30 124 C 10.1146 -0.36733 -1.99446 0
M  V30 125 C 10.4476 1.05917 -1.62774 0
M  V30 126 O 9.7226 1.7324 -0.88421 0
M  V30 127 C 10.0056 -0.535044 -3.56103 0
M  V30 128 C 9.8586 -2.00548 -4.02617 0
M  V30 129 C 11.1776 0.0478191 -4.40074 0
M  V30 130 H 8.2966 -0.134941 -0.724541 0
M  V30 131 H 10.9386 -0.999794 -1.61568 0
M  V30 132 H 9.0886 0.00336329 -3.885 0
M  V30 133 H 10.7606 -2.60521 -3.80692 0
M  V30 134 H 9.0036 -2.50686 -3.54032 0
M  V30 135 H 9.6746 -2.07377 -5.11565 0
M  V30 136 H 12.1506 -0.411822 -4.14057 0
M  V30 137 H 11.0266 -0.0995336 -5.4881 0
M  V30 138 H 11.2876 1.14025 -4.27142 0
M  V30 139 N 10.3467 1.47872 -0.545128 0
M  V30 140 C 11.2567 2.33633 0.212746 0
M  V30 141 C 12.2727 1.4744 0.923983 0
M  V30 142 O 13.4487 1.80393 0.895572 0
M  V30 143 C 10.5137 3.23884 1.23693 0
M  V30 144 C 9.5747 4.25961 0.534417 0
M  V30 145 C 8.8077 5.11899 1.5098 0
M  V30 146 O 9.0307 5.00077 2.7437 0
M  V30 147 O 7.9647 5.92831 1.0409 0
M  V30 148 H 11.7907 2.99714 -0.490416 0
M  V30 149 H 9.3757 1.46235 -0.305871 0
M  V30 150 H 11.2577 3.79666 1.82843 0
M  V30 151 H 9.9327 2.60446 1.92222 0
M  V30 152 H 8.8397 3.73972 -0.0979679 0
M  V30 153 H 10.1727 4.92079 -0.109213 0
M  V30 154 N 11.8248 0.280983 1.55075 0
M  V30 155 C 13.0708 -0.33461 2.00021 0
M  V30 156 C 13.4038 -1.55063 1.16915 0
M  V30 157 O 12.6788 -1.93006 0.240646 0
M  V30 158 C 12.9618 -0.711007 3.53011 0
M  V30 159 C 12.8148 0.512766 4.46868 0
M  V30 160 C 14.1338 -1.54522 4.12081 0
M  V30 161 H 11.2528 -0.120147 0.727141 0
M  V30 162 H 13.8948 0.389097 1.85973 0
M  V30 163 H 12.0448 -1.32761 3.65112 0
M  V30 164 H 13.7168 1.15131 4.46702 0
M  V30 165 H 11.9598 1.14975 4.18286 0
M  V30 166 H 12.6308 0.205556 5.51617 0
M  V30 167 H 15.1068 -1.02442 4.03293 0
M  V30 168 H 13.9828 -1.77739 5.19327 0
M  V30 169 H 14.2438 -2.52813 3.62682 0
M  V30 170 N 13.3029 -1.57598 0.00835791 0
M  V30 171 C 14.5509 -1.90551 -0.6734 0
M  V30 172 C 14.8719 -0.883301 -1.73847 0
M  V30 173 O 14.1419 0.0781442 -1.95744 0
M  V30 174 H 12.7219 -0.703312 -0.251717 0
M  V30 175 H 15.3839 -1.94833 0.0512592 0
M  V30 176 H 14.4799 -2.9056 -1.13935 0
M  V30 177 N 14.781 0.264519 -1.55364 0
M  V30 178 C 16.197 0.61215 -1.47394 0
M  V30 179 C 16.397 1.89134 -0.695018 0
M  V30 180 O 15.453 2.51563 -0.217275 0
M  V30 181 C 16.766 0.731235 -2.91674 0
M  V30 182 C 18.314 0.82473 -3.01939 0
M  V30 183 C 18.789 0.975522 -4.4749 0
M  V30 184 N 20.28 1.04083 -4.51354 0
M  V30 185 C 21.015 1.17646 -5.61201 0
M  V30 186 N 20.511 1.27874 -6.80896 0
M  V30 187 N 22.304 1.20823 -5.48961 0
M  V30 188 H 14.455 -0.575456 -2.04456 0
M  V30 189 H 16.718 -0.196099 -0.927496 0
M  V30 190 H 16.424 -0.138392 -3.51428 0
M  V30 191 H 16.298 1.60883 -3.41169 0
M  V30 192 H 18.685 1.68482 -2.42276 0
M  V30 193 H 18.766 -0.0776479 -2.55682 0
M  V30 194 H 18.41 0.120058 -5.07758 0
M  V30 195 H 18.34 1.89268 -4.91412 0
M  V30 196 H 20.831 0.973846 -3.65136 0
M  V30 197 H 21.144 1.38081 -7.60364 0
M  V30 198 H 19.489 1.24863 -6.83692 0
M  V30 199 H 22.68 1.12469 -4.54388 0
M  V30 200 H 22.853 1.31049 -6.3461 0
M  V30 201 N 16.2591 1.48442 0.529413 0
M  V30 202 C 17.5051 1.5672 1.28711 0
M  V30 203 C 17.8381 0.2406 1.92704 0
M  V30 204 O 17.1131 -0.753454 1.79313 0
M  V30 205 C 17.3961 2.70587 2.37603 0
M  V30 206 C 17.2491 4.12953 1.78297 0
M  V30 207 C 18.5681 2.80212 3.39366 0
M  V30 208 H 15.6871 0.570474 0.466613 0
M  V30 209 H 18.3291 1.80617 0.589706 0
M  V30 210 H 16.4791 2.50342 2.97088 0
M  V30 211 H 18.1511 4.44639 1.22858 0
M  V30 212 H 16.3941 4.19927 1.0883 0
M  V30 213 H 17.0651 4.88448 2.57144 0
M  V30 214 H 19.5411 2.98553 2.89836 0
M  V30 215 H 18.4171 3.61611 4.12951 0
M  V30 216 H 18.6781 1.88393 3.99951 0
M  V30 217 N 17.7372 -0.778329 1.37039 0
M  V30 218 C 18.7002 -1.87301 1.32102 0
M  V30 219 C 19.7002 -1.59198 0.226405 0
M  V30 220 O 20.8902 -1.67403 0.481861 0
M  V30 221 C 18.0222 -3.24309 1.05055 0
M  V30 222 H 19.2152 -1.93093 2.29467 0
M  V30 223 H 16.7682 -0.977358 1.21973 0
M  V30 224 H 17.5032 -3.24196 0.0819373 0
M  V30 225 H 17.2882 -3.46098 1.84279 0
M  V30 226 H 18.7782 -4.04382 1.04234 0
M  V30 227 N 19.2153 -1.21501 -1.00376 0
M  V30 228 C 20.4453 -1.05746 -1.77486 0
M  V30 229 C 20.8533 0.395655 -1.85017 0
M  V30 230 O 20.1963 1.28626 -1.31152 0
M  V30 231 C 20.2583 -1.58092 -3.22873 0
M  V30 232 C 19.9223 -3.06568 -3.38917 0
M  V30 233 C 20.9193 -4.04106 -3.271 0
M  V30 234 C 18.6043 -3.45799 -3.64319 0
M  V30 235 C 20.5983 -5.38862 -3.40451 0
M  V30 236 C 18.2853 -4.80707 -3.77311 0
M  V30 237 C 19.2833 -5.77047 -3.65384 0
M  V30 238 O 18.9713 -7.09507 -3.77961 0
M  V30 239 H 18.7033 -0.371778 -0.564586 0
M  V30 240 H 21.2573 -1.61319 -1.27143 0
M  V30 241 H 19.4873 -0.969163 -3.74358 0
M  V30 242 H 21.1763 -1.38162 -3.81662 0
M  V30 243 H 21.9423 -3.75141 -3.07399 0
M  V30 244 H 17.8213 -2.71344 -3.72684 0
M  V30 245 H 21.3653 -6.14041 -3.31058 0
M  V30 246 H 17.2623 -5.09357 -3.96517 0
M  V30 247 H 18.0303 -7.16935 -3.94901 0
M  V30 248 N 20.6934 1.19889 -1.02296 0
M  V30 249 C 21.9394 1.89701 -0.717033 0
M  V30 250 C 22.2724 1.7905 0.751989 0
M  V30 251 O 21.5474 1.17891 1.547 0
M  V30 252 C 21.8304 3.40858 -1.16136 0
M  V30 253 C 21.6834 3.60411 -2.69117 0
M  V30 254 C 23.0024 4.33876 -0.737549 0
M  V30 255 H 20.1214 0.688874 -0.261957 0
M  V30 256 H 22.7634 1.41154 -1.27183 0
M  V30 257 H 20.9134 3.82335 -0.689342 0
M  V30 258 H 22.5854 3.28145 -3.2422 0
M  V30 259 H 20.8284 3.03665 -3.0979 0
M  V30 260 H 21.4994 4.66396 -2.95261 0
M  V30 261 H 23.9754 4.00081 -1.14344 0
M  V30 262 H 22.8514 5.38242 -1.0764 0
M  V30 263 H 23.1124 4.40628 0.360436 0
M  V30 264 N 22.1715 0.800033 1.35784 0
M  V30 265 C 23.3965 0.388511 2.03729 0
M  V30 266 C 23.8215 -0.990481 1.5991 0
M  V30 267 O 23.1795 -1.64013 0.772612 0
M  V30 268 C 23.2275 0.4726 3.5749 0
M  V30 269 O 22.3315 -0.51646 4.09153 0
M  V30 270 H 21.6725 0.163271 0.643614 0
M  V30 271 H 24.2025 1.0841 1.73518 0
M  V30 272 H 24.2125 0.34003 4.06581 0
M  V30 273 H 22.8875 1.47848 3.88734 0
M  V30 274 H 21.4645 -0.344673 3.71304 0
M  V30 275 N 23.6496 -1.47581 0.552962 0
M  V30 276 C 24.8966 -2.02482 0.0273243 0
M  V30 277 C 25.2246 -1.42776 -1.32081 0
M  V30 278 O 24.4796 -0.571393 -1.87173 0
M  V30 279 C 24.7786 -3.57199 -0.119728 0
M  V30 280 C 24.4446 -4.35804 1.15697 0
M  V30 281 C 23.1066 -4.57 1.50681 0
M  V30 282 C 25.4586 -4.81167 2.00319 0
M  V30 283 C 22.7866 -5.20807 2.70142 0
M  V30 284 C 25.1386 -5.46293 3.18978 0
M  V30 285 C 23.8026 -5.65722 3.54281 0
M  V30 286 H 23.0726 -0.740933 0.00999866 0
M  V30 287 H 25.7196 -1.77302 0.72362 0
M  V30 288 H 24.0246 -3.81348 -0.89896 0
M  V30 289 H 25.7216 -3.97324 -0.541718 0
M  V30 290 H 22.3116 -4.19582 0.874561 0
M  V30 291 H 26.4956 -4.64574 1.74599 0
M  V30 292 H 21.7516 -5.34045 2.97668 0
M  V30 293 H 25.9256 -5.80407 3.84838 0
M  V30 294 H 23.5526 -6.14936 4.46942 0
M  V30 295 N 25.1277 -0.289203 -1.54924 0
M  V30 296 C 26.3757 0.322879 -1.99504 0
M  V30 297 C 26.6967 1.55313 -1.1791 0
M  V30 298 O 25.9667 1.94001 -0.272097 0
M  V30 299 H 24.5467 0.122291 -0.736922 0
M  V30 300 H 27.2087 -0.397802 -1.90797 0
M  V30 301 H 26.3047 0.603061 -3.06218 0
M  V30 302 N 26.6058 1.57591 -0.0167156 0
M  V30 303 C 28.0168 1.79201 0.523834 0
M  V30 304 C 28.3678 0.925796 1.72984 0
M  V30 305 O 27.4928 0.132792 2.15992 0
M  V30 306 C 28.0878 3.25 0.957091 0
M  V30 307 C 26.6468 3.47648 1.44283 0
M  V30 308 C 25.7938 2.74374 0.401757 0
M  V30 309 H 28.7448 1.56831 -0.242816 0
M  V30 310 H 28.7658 3.34031 1.82219 0
M  V30 311 H 28.2778 3.88019 0.0791415 0
M  V30 312 H 26.3788 2.89866 2.34113 0
M  V30 313 H 26.4918 4.56352 1.45877 0
M  V30 314 H 24.8558 2.39485 0.867121 0
M  V30 315 H 25.6388 3.40102 -0.467513 0
M  V30 316 N 28.0839 -0.256276 1.55502 0
M  V30 317 C 29.0339 -1.31981 1.85916 0
M  V30 318 C 30.0179 -1.43927 0.719296 0
M  V30 319 O 31.2099 -1.47326 0.981019 0
M  V30 320 C 28.3389 -2.67703 2.14918 0
M  V30 321 C 27.4249 -2.59801 3.35208 0
M  V30 322 N 27.8159 -2.21524 4.54709 0
M  V30 323 C 26.1139 -2.90832 3.38131 0
M  V30 324 C 26.8149 -2.24024 5.36832 0
M  V30 325 N 25.7909 -2.63158 4.75656 0
M  V30 326 H 29.5929 -1.01423 2.75845 0
M  V30 327 H 27.1069 -0.464911 1.55603 0
M  V30 328 H 29.1039 -3.44445 2.34869 0
M  V30 329 H 27.7639 -2.99137 1.26282 0
M  V30 330 H 28.7749 -1.93223 4.80505 0
M  V30 331 H 25.4519 -3.26867 2.59739 0
M  V30 332 H 26.8419 -1.9685 6.42417 0
M  V30 333 N 29.562 -1.4872 -0.521534 0
M  V30 334 C 30.525 -1.63379 -1.60748 0
M  V30 335 C 31.525 -0.50661 -1.52611 0
M  V30 336 O 32.715 -0.772601 -1.5613 0
M  V30 337 C 29.847 -1.61192 -3.00383 0
M  V30 338 H 31.04 -2.60217 -1.49087 0
M  V30 339 H 28.593 -1.37444 -0.744235 0
M  V30 340 H 29.328 -0.65863 -3.17541 0
M  V30 341 H 29.113 -2.43032 -3.07698 0
M  V30 342 H 30.603 -1.7466 -3.7932 0
M  V30 343 N 31.0401 0.771051 -1.3745 0
M  V30 344 C 32.2881 1.52661 -1.32435 0
M  V30 345 C 32.6091 1.9479 0.0905024 0
M  V30 346 O 31.8791 1.66348 1.03466 0
M  V30 347 H 30.4591 0.566218 -0.487244 0
M  V30 348 H 33.1211 0.917636 -1.71946 0
M  V30 349 H 32.2171 2.42568 -1.96385 0
M  V30 350 N 32.5182 1.22032 0.997298 0
M  V30 351 C 33.4652 0.986467 2.08656 0
M  V30 352 C 34.4352 -0.0902671 1.65855 0
M  V30 353 O 35.6202 0.0584294 1.90711 0
M  V30 354 C 32.7602 0.565569 3.40434 0
M  V30 355 C 31.8732 1.71259 3.96604 0
M  V30 356 C 31.0082 1.24011 5.16522 0
M  V30 357 C 30.0472 2.35896 5.64818 0
M  V30 358 N 29.1842 1.89726 6.7598 0
M  V30 359 H 34.0242 1.91892 2.27994 0
M  V30 360 H 31.5612 0.956199 1.11782 0
M  V30 361 H 33.5192 0.302738 4.161 0
M  V30 362 H 32.1492 -0.329879 3.2111 0
M  V30 363 H 31.2012 2.08986 3.17851 0
M  V30 364 H 32.5132 2.55436 4.28432 0
M  V30 365 H 31.6672 0.934395 5.99461 0
M  V30 366 H 30.4062 0.368487 4.86306 0
M  V30 367 H 29.4112 2.67261 4.8047 0
M  V30 368 H 30.6362 3.23567 5.97061 0
M  V30 369 H 28.5822 1.0492 6.47555 0
M  V30 370 H 28.4992 2.67471 7.07103 0
M  V30 371 H 29.7672 1.62211 7.62435 0
M  V30 372 N 33.9963 -1.19345 1.0293 0
M  V30 373 C 34.9263 -2.2481 0.631105 0
M  V30 374 C 35.9073 -1.66245 -0.360104 0
M  V30 375 O 37.0923 -1.92677 -0.242726 0
M  V30 376 C 34.2223 -3.47295 -0.0184607 0
M  V30 377 C 33.1763 -4.18536 0.895073 0
M  V30 378 C 32.5023 -5.34586 0.110592 0
M  V30 379 C 33.8023 -4.73287 2.209 0
M  V30 380 H 35.4963 -2.58372 1.51275 0
M  V30 381 H 33.0423 -1.24194 0.728818 0
M  V30 382 H 34.9953 -4.20268 -0.308675 0
M  V30 383 H 33.7193 -3.12933 -0.934907 0
M  V30 384 H 32.3783 -3.47446 1.16949 0
M  V30 385 H 32.0263 -4.96469 -0.807902 0
M  V30 386 H 31.7263 -5.83183 0.719087 0
M  V30 387 H 33.2503 -6.10355 -0.172871 0
M  V30 388 H 34.6643 -5.38013 1.98028 0
M  V30 389 H 33.0613 -5.32373 2.76946 0
M  V30 390 H 34.1313 -3.91331 2.86336 0
M  V30 391 N 35.4744 -0.807222 -1.35358 0
M  V30 392 C 36.7204 -0.388463 -1.99045 0
M  V30 393 C 37.0534 1.04184 -1.63888 0
M  V30 394 O 36.3284 1.72292 -0.902535 0
M  V30 395 C 36.6114 -0.572783 -3.55515 0
M  V30 396 C 36.4644 -2.04807 -4.00468 0
M  V30 397 C 37.7834 0.00114064 -4.401 0
M  V30 398 H 34.9024 -0.142619 -0.723069 0
M  V30 399 H 37.5444 -1.01687 -1.60498 0
M  V30 400 H 35.6944 -0.0378425 -3.88482 0
M  V30 401 H 37.3664 -2.64544 -3.77908 0
M  V30 402 H 35.6094 -2.54427 -3.51353 0
M  V30 403 H 36.2804 -2.12792 -5.09337 0
M  V30 404 H 38.7564 -0.455716 -4.13597 0
M  V30 405 H 37.6324 -0.157737 -5.48673 0
M  V30 406 H 37.8934 1.09488 -4.28328 0
M  V30 407 N 36.9525 1.47285 -0.560781 0
M  V30 408 C 37.9155 2.28535 0.174488 0
M  V30 409 C 38.9155 1.37153 0.839388 0
M  V30 410 O 40.1055 1.59748 0.694702 0
M  V30 411 C 37.2375 3.16934 1.25561 0
M  V30 412 H 38.4305 2.95012 -0.539262 0
M  V30 413 H 35.9835 1.53034 -0.317865 0
M  V30 414 H 36.7185 2.55157 2.00164 0
M  V30 415 H 36.5035 3.8419 0.783604 0
M  V30 416 H 37.9935 3.78143 1.77193 0
M  V30 417 N 38.4306 0.297415 1.54768 0
M  V30 418 C 39.6796 -0.313669 1.99246 0
M  V30 419 C 39.9926 -1.55281 1.18942 0
M  V30 420 O 41.1986 -2.23825 1.5367 0
M  V30 421 C 39.6546 -0.609407 3.54703 0
M  V30 422 C 39.2626 0.611192 4.43811 0
M  V30 423 C 41.0066 -1.18188 4.07715 0
M  V30 424 C 38.9136 0.288805 5.90694 0
M  V30 425 H 37.8436 -0.120979 0.744231 0
M  V30 426 H 40.4946 0.40556 1.78962 0
M  V30 427 H 38.8766 -1.38813 3.70873 0
M  V30 428 H 40.0506 1.3875 4.39414 0
M  V30 429 H 38.3656 1.10205 4.01552 0
M  V30 430 H 40.9626 -1.43727 5.15021 0
M  V30 431 H 41.3056 -2.12299 3.58099 0
M  V30 432 H 41.8386 -0.464944 3.95074 0
M  V30 433 H 38.5776 1.19838 6.44453 0
M  V30 434 H 38.0976 -0.450305 5.98107 0
M  V30 435 H 39.7766 -0.110933 6.46905 0
M  V30 436 N 39.9087 -1.5758 0.0250728 0
M  V30 437 C 41.1547 -1.91917 -0.655413 0
M  V30 438 C 41.4877 -0.901433 -1.72011 0
M  V30 439 O 40.7627 0.0764069 -1.9435 0
M  V30 440 C 41.0457 -3.36751 -1.27558 0
M  V30 441 C 40.8987 -4.49258 -0.220719 0
M  V30 442 C 42.2177 -3.81469 -2.19475 0
M  V30 443 H 39.3367 -0.697925 -0.23679 0
M  V30 444 H 41.9787 -1.89825 0.0815036 0
M  V30 445 H 40.1287 -3.38664 -1.90365 0
M  V30 446 H 41.8007 -4.59478 0.409601 0
M  V30 447 H 40.0437 -4.31415 0.454264 0
M  V30 448 H 40.7147 -5.47618 -0.694175 0
M  V30 449 H 43.1907 -3.81266 -1.66659 0
M  V30 450 H 42.0667 -4.83512 -2.59822 0
M  V30 451 H 42.3277 -3.16744 -3.08424 0
M  V30 452 N 41.3868 0.248026 -1.55636 0
M  V30 453 C 42.6638 0.998988 -1.68165 0
M  V30 454 C 43.0438 2.03409 -0.564621 0
M  V30 455 O 42.3918 2.24378 0.432076 0
M  V30 456 C 42.6018 1.63334 -3.0842 0
M  V30 457 C 43.9498 2.13562 -3.66983 0
M  V30 458 O 44.9738 1.73277 -3.11213 0
M  V30 459 O 43.8328 2.87526 -4.64749 0
M  V30 460 H 40.9268 0.464933 -0.683935 0
M  V30 461 H 43.4728 0.241902 -1.67967 0
M  V30 462 H 42.2448 0.884583 -3.8117 0
M  V30 463 H 41.8678 2.45666 -3.12624 0
M  V30 464 N 42.8649 1.48995 0.513639 0
M  V30 465 C 44.1109 1.58076 1.27042 0
M  V30 466 C 44.4439 0.261026 1.92438 0
M  V30 467 O 43.7189 -0.734393 1.80103 0
M  V30 468 C 44.0019 2.73091 2.34719 0
M  V30 469 C 43.8549 4.14821 1.73907 0
M  V30 470 C 45.1739 2.83796 3.36375 0
M  V30 471 H 42.2929 0.575391 0.460536 0
M  V30 472 H 44.9349 1.81232 0.570516 0
M  V30 473 H 43.0849 2.53479 2.94416 0
M  V30 474 H 44.7569 4.45917 1.18135 0
M  V30 475 H 42.9999 4.21058 1.0437 0
M  V30 476 H 43.6709 4.91147 2.51949 0
M  V30 477 H 46.1469 3.01611 2.86653 0
M  V30 478 H 45.0229 3.65971 4.09093 0
M  V30 479 H 45.2839 1.92624 3.9793 0
M  V30 480 N 44.343 -0.763751 1.37857 0
M  V30 481 C 45.592 -1.51789 1.32827 0
M  V30 482 C 45.905 -1.95426 -0.0823719 0
M  V30 483 O 47.111 -2.70298 -0.255172 0
M  V30 484 C 45.567 -2.74133 2.33193 0
M  V30 485 C 45.175 -2.37562 3.79827 0
M  V30 486 C 46.919 -3.52054 2.37188 0
M  V30 487 C 44.826 -3.56456 4.71904 0
M  V30 488 H 43.756 -0.569896 0.493695 0
M  V30 489 H 46.407 -0.835822 1.63359 0
M  V30 490 H 44.789 -3.4427 1.9569 0
M  V30 491 H 45.963 -1.75157 4.26212 0
M  V30 492 H 44.278 -1.72798 3.78853 0
M  V30 493 H 46.875 -4.40437 3.03182 0
M  V30 494 H 47.218 -3.92486 1.38782 0
M  V30 495 H 47.751 -2.88921 2.7344 0
M  V30 496 H 44.49 -3.21099 5.71468 0
M  V30 497 H 44.01 -4.17938 4.30218 0
M  V30 498 H 45.689 -4.23168 4.89426 0
M  V30 499 N 45.8211 -1.22559 -0.990812 0
M  V30 500 C 47.0981 -0.959875 -1.70428 0
M  V30 501 C 47.4781 0.524455 -2.04481 0
M  V30 502 O 46.8261 1.49302 -1.72977 0
M  V30 503 C 47.0361 -1.85955 -2.95333 0
M  V30 504 C 48.3841 -2.11687 -3.68068 0
M  V30 505 O 49.4081 -1.8342 -3.05345 0
M  V30 506 O 48.2671 -2.59572 -4.80921 0
M  V30 507 H 45.3611 -0.361154 -0.743974 0
M  V30 508 H 47.9071 -1.33554 -1.04697 0
M  V30 509 H 46.6791 -2.86346 -2.66687 0
M  V30 510 H 46.3021 -1.4856 -3.68803 0
M  V30 511 N 47.2992 1.18797 -1.03562 0
M  V30 512 C 48.2312 2.21731 -0.580337 0
M  V30 513 C 49.2442 1.59051 0.347349 0
M  V30 514 O 50.4332 1.77929 0.142669 0
M  V30 515 C 47.5332 3.38459 0.172805 0
M  V30 516 C 46.7062 4.3072 -0.761496 0
M  V30 517 C 45.7652 5.26174 -0.0525547 0
M  V30 518 O 44.7912 5.65108 -0.681333 0
M  V30 519 N 45.9932 5.67624 1.21586 0
M  V30 520 H 48.7582 2.61417 -1.46565 0
M  V30 521 H 46.3192 1.33531 -0.915476 0
M  V30 522 H 48.3112 3.99335 0.656793 0
M  V30 523 H 46.8812 2.97507 0.959602 0
M  V30 524 H 46.1012 3.67525 -1.42544 0
M  V30 525 H 47.3892 4.89267 -1.39626 0
M  V30 526 H 46.7872 5.38038 1.74732 0
M  V30 527 H 45.3442 6.30721 1.64421 0
M  V30 528 N 48.7773 0.814389 1.34928 0
M  V30 529 C 49.7253 0.218424 2.31572 0
M  V30 530 C 50.7193 -0.636128 1.57002 0
M  V30 531 O 51.9253 -0.52842 1.72069 0
M  V30 532 H 48.3003 0.0518799 0.750208 0
M  V30 533 H 50.2713 1.04852 2.79372 0
M  V30 534 C 49.0203 -0.61207 3.4227 0
M  V30 535 H 48.3433 0.0361578 3.99784 0
M  V30 536 H 49.7833 -0.995317 4.12152 0
M  V30 537 C 48.2423 -1.78087 2.85984 0
M  V30 538 O 48.7723 -2.8787 2.80168 0
M  V30 539 N 46.9783 -1.59488 2.42924 0
M  V30 540 H 46.5253 -0.701874 2.47854 0
M  V30 541 H 46.4833 -2.37846 2.05613 0
M  V30 542 N 50.2554 -1.46986 0.568584 0
M  V30 543 C 51.6714 -1.57946 0.229189 0
M  V30 544 C 51.8714 -1.56567 -1.26843 0
M  V30 545 O 50.9274 -1.47511 -2.04931 0
M  V30 546 C 52.2404 -2.87963 0.865909 0
M  V30 547 C 53.7884 -3.01568 0.838188 0
M  V30 548 C 54.2634 -4.34301 1.45419 0
M  V30 549 N 55.7544 -4.40965 1.41788 0
M  V30 550 C 56.4894 -5.42256 1.86403 0
M  V30 551 N 55.9854 -6.50297 2.38926 0
M  V30 552 N 57.7784 -5.3337 1.77405 0
M  V30 553 H 49.9294 -1.46126 1.54146 0
M  V30 554 H 52.1924 -0.696156 0.643484 0
M  V30 555 H 51.8984 -2.94742 1.91886 0
M  V30 556 H 51.7724 -3.75423 0.365687 0
M  V30 557 H 54.1594 -2.94379 -0.206106 0
M  V30 558 H 54.2404 -2.1562 1.37629 0
M  V30 559 H 53.8844 -4.42247 2.49761 0
M  V30 560 H 53.8144 -5.19 0.891435 0
M  V30 561 H 56.3054 -3.63484 1.03381 0
M  V30 562 H 56.6184 -7.23777 2.70863 0
M  V30 563 H 54.9634 -6.51155 2.42944 0
M  V30 564 H 58.1544 -4.47865 1.3614 0
M  V30 565 H 58.3274 -6.12169 2.12492 0
M  V30 566 N 51.7335 -0.305618 -1.54608 0
M  V30 567 C 52.6965 0.555591 -2.22364 0
M  V30 568 C 53.6965 1.05768 -1.21119 0
M  V30 569 O 54.8865 0.952972 -1.45822 0
M  V30 570 C 52.0185 1.76974 -2.91364 0
M  V30 571 H 53.2115 -0.0364572 -2.99878 0
M  V30 572 H 50.7645 -0.0565007 -1.56198 0
M  V30 573 H 51.4995 2.40151 -2.17941 0
M  V30 574 H 51.2845 1.41732 -3.65588 0
M  V30 575 H 52.7745 2.38148 -3.43038 0
M  V30 576 N 53.2116 1.57565 -0.0334293 0
M  V30 577 C 54.1416 2.13511 0.945265 0
M  V30 578 C 55.1226 1.05231 1.33643 0
M  V30 579 O 56.3076 1.33084 1.41429 0
M  V30 580 C 53.4376 2.6657 2.22616 0
M  V30 581 C 52.3916 3.79676 1.97561 0
M  V30 582 C 51.7176 4.1918 3.31952 0
M  V30 583 C 53.0176 5.0557 1.31135 0
M  V30 584 H 54.7116 2.95538 0.479325 0
M  V30 585 H 52.2576 1.42166 0.229115 0
M  V30 586 H 54.2106 3.04344 2.91466 0
M  V30 587 H 52.9346 1.8171 2.71384 0
M  V30 588 H 51.5936 3.42347 1.31127 0
M  V30 589 H 51.2416 3.31296 3.78487 0
M  V30 590 H 50.9416 4.95402 3.15992 0
M  V30 591 H 52.4656 4.59541 4.02063 0
M  V30 592 H 53.8796 5.40903 1.89992 0
M  V30 593 H 52.2766 5.86818 1.25559 0
M  V30 594 H 53.3466 4.84062 0.284894 0
M  V30 595 N 54.6897 -0.239769 1.55765 0
M  V30 596 C 55.9357 -0.968234 1.78194 0
M  V30 597 C 56.2687 -1.84701 0.599938 0
M  V30 598 O 55.5437 -1.9031 -0.401524 0
M  V30 599 C 55.8267 -1.8227 3.10564 0
M  V30 600 C 55.6797 -0.971633 4.3918 0
M  V30 601 C 56.9987 -2.80388 3.39221 0
M  V30 602 H 54.1177 -0.350572 0.648281 0
M  V30 603 H 56.7597 -0.238259 1.885 0
M  V30 604 H 54.9097 -2.44507 3.01908 0
M  V30 605 H 56.5817 -0.367408 4.59835 0
M  V30 606 H 54.8247 -0.276276 4.32919 0
M  V30 607 H 55.4957 -1.60346 5.28198 0
M  V30 608 H 57.9717 -2.28287 3.47885 0
M  V30 609 H 56.8477 -3.3729 4.33044 0
M  V30 610 H 57.1087 -3.57212 2.60484 0
M  V30 611 N 56.1678 -1.49265 -0.50573 0
M  V30 612 C 57.4448 -1.49012 -1.26707 0
M  V30 613 C 57.8248 -0.215205 -2.1 0
M  V30 614 O 57.1728 0.802547 -2.13943 0
M  V30 615 C 57.3828 -2.7663 -2.12783 0
M  V30 616 C 58.7308 -3.25932 -2.72127 0
M  V30 617 O 59.7548 -2.77715 -2.23054 0
M  V30 618 O 58.6138 -4.09897 -3.61451 0
M  V30 619 H 55.7078 -0.596197 -0.57313 0
M  V30 620 H 58.2538 -1.61524 -0.52039 0
M  V30 621 H 57.0258 -3.60916 -1.5118 0
M  V30 622 H 56.6488 -2.66956 -2.94653 0
M  V30 623 N 57.6459 0.756429 -1.3826 0
M  V30 624 C 58.8939 1.51248 -1.34047 0
M  V30 625 C 59.2149 1.94875 0.0698372 0
M  V30 626 O 58.4849 1.67436 1.01696 0
M  V30 627 H 57.0649 0.561018 -0.493222 0
M  V30 628 H 59.7269 0.899347 -1.7291 0
M  V30 629 H 58.8229 2.40472 -1.98947 0
M  V30 630 N 59.124 1.23083 0.984299 0
M  V30 631 C 60.535 1.05609 1.5396 0
M  V30 632 C 60.886 -0.377793 1.92528 0
M  V30 633 O 60.011 -1.26398 1.75649 0
M  V30 634 C 60.606 1.91087 2.7977 0
M  V30 635 C 59.165 1.77885 3.31713 0
M  V30 636 C 58.312 1.87028 2.04733 0
M  V30 637 H 61.263 1.36802 0.804419 0
M  V30 638 H 61.284 1.43336 3.5247 0
M  V30 639 H 60.796 2.9544 2.51668 0
M  V30 640 H 58.897 0.762995 3.64704 0
M  V30 641 H 59.01 2.61047 4.01735 0
M  V30 642 H 57.374 1.30565 2.18689 0
M  V30 643 H 58.157 2.92929 1.79017 0
M  V30 644 N 60.6021 -1.18246 1.0419 0
M  V30 645 C 61.8421 -1.89948 0.754916 0
M  V30 646 C 62.2061 -1.78608 -0.70451 0
M  V30 647 O 63.4071 -2.4503 -1.10516 0
M  V30 648 C 61.6781 -3.36305 1.20969 0
M  V30 649 S 63.2371 -4.26088 1.04854 0
M  V30 650 H 60.0551 -0.655897 0.274446 0
M  V30 651 H 62.6571 -1.42873 1.33445 0
M  V30 652 H 61.3611 -3.42089 2.26722 0
M  V30 653 H 60.8921 -3.8842 0.624004 0
M  V30 654 H 62.9071 -4.96189 -0.0332896 0
M  V30 655 N 62.0802 -0.821533 -1.34494 0
M  V30 656 C 63.3082 -0.421884 -2.02553 0
M  V30 657 C 63.7232 0.971745 -1.61872 0
M  V30 658 O 63.0802 1.62864 -0.823496 0
M  V30 659 C 63.1312 -0.51285 -3.57844 0
M  V30 660 O 62.8522 -1.85155 -3.97051 0
M  V30 661 C 64.3532 -0.107921 -4.43169 0
M  V30 662 H 61.5732 -0.169482 -0.649243 0
M  V30 663 H 64.1172 -1.1093 -1.71798 0
M  V30 664 H 62.2722 0.126474 -3.87193 0
M  V30 665 H 62.6862 -1.82482 -4.91732 0
M  V30 666 H 64.1602 -0.222657 -5.51551 0
M  V30 667 H 64.6372 0.948401 -4.28838 0
M  V30 668 H 65.2432 -0.720989 -4.19144 0
M  V30 669 N 63.5583 1.46682 -0.576371 0
M  V30 670 C 64.4903 2.28341 0.198231 0
M  V30 671 C 65.5033 1.38141 0.861453 0
M  V30 672 O 66.6923 1.62797 0.732082 0
M  V30 673 C 63.7923 3.12986 1.29972 0
M  V30 674 C 62.9653 4.31271 0.729639 0
M  V30 675 C 62.0243 4.97363 1.71803 0
M  V30 676 O 61.0503 5.55156 1.25658 0
M  V30 677 N 62.2523 4.93796 3.05198 0
M  V30 678 H 65.0173 2.9546 -0.502324 0
M  V30 679 H 62.5783 1.56525 -0.413715 0
M  V30 680 H 64.5703 3.54066 1.96008 0
M  V30 681 H 63.1403 2.47984 1.90323 0
M  V30 682 H 62.3603 3.94052 -0.108012 0
M  V30 683 H 63.6483 5.07739 0.328438 0
M  V30 684 H 63.0463 4.48077 3.45317 0
M  V30 685 H 61.6033 5.38837 3.6674 0
M  V30 686 N 65.0364 0.313813 1.54444 0
M  V30 687 C 66.2824 -0.292108 2.00685 0
M  V30 688 C 66.6154 -1.52548 1.20177 0
M  V30 689 O 65.8904 -1.92452 0.281531 0
M  V30 690 C 66.1734 -0.635968 3.5444 0
M  V30 691 C 66.0264 0.607437 4.4568 0
M  V30 692 C 67.3454 -1.45747 4.15266 0
M  V30 693 H 64.4644 -0.104697 0.729526 0
M  V30 694 H 67.1064 0.428457 1.85106 0
M  V30 695 H 65.2564 -1.24986 3.67846 0
M  V30 696 H 66.9284 1.24581 4.44159 0
M  V30 697 H 65.1714 1.23822 4.15753 0
M  V30 698 H 65.8424 0.322515 5.51057 0
M  V30 699 H 68.3184 -0.938645 4.05375 0
M  V30 700 H 67.1944 -1.66683 5.2298 0
M  V30 701 H 67.4554 -2.45063 3.67963 0
M  V30 702 N 66.5145 -1.57545 0.0417849 0
M  V30 703 C 67.9305 -1.56467 -0.314704 0
M  V30 704 C 68.1305 -1.04859 -1.72066 0
M  V30 705 O 67.1865 -0.700983 -2.42575 0
M  V30 706 C 68.4995 -3.00317 -0.15174 0
M  V30 707 C 70.0475 -3.12201 -0.223553 0
M  V30 708 C 70.5225 -4.57913 -0.0892295 0
M  V30 709 N 72.0135 -4.6297 -0.145808 0
M  V30 710 C 72.7485 -5.73362 -0.0658459 0
M  V30 711 N 72.2445 -6.92769 0.0659282 0
M  V30 712 N 74.0375 -5.6197 -0.12075 0
M  V30 713 H 66.1885 -1.89416 0.961014 0
M  V30 714 H 68.4515 -0.871862 0.372237 0
M  V30 715 H 68.1575 -3.42073 0.817254 0
M  V30 716 H 68.0315 -3.65892 -0.916692 0
M  V30 717 H 70.4185 -2.70349 -1.18301 0
M  V30 718 H 70.4995 -2.49323 0.571994 0
M  V30 719 H 70.1435 -5.00448 0.866867 0
M  V30 720 H 70.0735 -5.18786 -0.903802 0
M  V30 721 H 72.5645 -3.7709 -0.247286 0
M  V30 722 H 72.8775 -7.72707 0.119905 0
M  V30 723 H 71.2225 -6.94927 0.100885 0
M  V30 724 H 74.4135 -4.67572 -0.222187 0
M  V30 725 H 74.5865 -6.47977 -0.0549735 0
M  V30 726 N 67.9926 0.231505 -1.5589 0
M  V30 727 C 69.4086 0.580748 -1.48659 0
M  V30 728 C 69.6086 1.87617 -0.73498 0
M  V30 729 O 68.6646 2.51046 -0.270586 0
M  V30 730 C 69.9776 0.669202 -2.93159 0
M  V30 731 C 71.5256 0.760499 -3.03621 0
M  V30 732 C 72.0006 0.880383 -4.49459 0
M  V30 733 N 73.4916 0.944861 -4.53461 0
M  V30 734 C 74.2266 1.05716 -5.63571 0
M  V30 735 N 73.7226 1.13403 -6.83456 0
M  V30 736 N 75.5156 1.09152 -5.514 0
M  V30 737 H 67.6666 -0.618695 -2.03189 0
M  V30 738 H 69.9296 -0.215728 -0.923128 0
M  V30 739 H 69.6356 -0.212904 -3.51055 0
M  V30 740 H 69.5096 1.5361 -3.44505 0
M  V30 741 H 71.8966 1.63305 -2.45796 0
M  V30 742 H 71.9776 -0.131864 -2.5546 0
M  V30 743 H 71.6216 0.0123284 -5.07899 0
M  V30 744 H 71.5516 1.78802 -4.95316 0
M  V30 745 H 74.0426 0.896176 -3.6712 0
M  V30 746 H 74.3556 1.21921 -7.63122 0
M  V30 747 H 72.7006 1.10333 -6.86186 0
M  V30 748 H 75.8916 1.02805 -4.56671 0
M  V30 749 H 76.0646 1.17558 -6.37247 0
M  V30 750 N 69.4707 1.49531 0.497807 0
M  V30 751 C 70.4027 1.62559 1.61578 0
M  V30 752 C 71.4157 0.508134 1.54667 0
M  V30 753 O 72.6047 0.780309 1.60541 0
M  V30 754 C 69.7047 1.56925 3.00379 0
M  V30 755 C 68.8777 2.84257 3.3244 0
M  V30 756 C 67.9367 2.71632 4.50669 0
M  V30 757 O 66.9627 3.4557 4.52294 0
M  V30 758 N 68.1647 1.83391 5.5077 0
M  V30 759 H 70.9297 2.58981 1.50828 0
M  V30 760 H 68.4907 1.4666 0.685743 0
M  V30 761 H 70.4827 1.46129 3.77397 0
M  V30 762 H 69.0527 0.683483 3.05037 0
M  V30 763 H 68.2727 3.09381 2.44289 0
M  V30 764 H 69.5607 3.68666 3.5066 0
M  V30 765 H 68.9587 1.22583 5.52259 0
M  V30 766 H 67.5157 1.78515 6.26878 0
M  V30 767 N 70.9488 -0.749086 1.3866 0
M  V30 768 C 71.9118 -1.84457 1.36045 0
M  V30 769 C 72.9118 -1.58682 0.260122 0
M  V30 770 O 74.1018 -1.66343 0.517261 0
M  V30 771 C 71.2338 -3.22008 1.11911 0
M  V30 772 H 72.4268 -1.88182 2.33512 0
M  V30 773 H 69.9798 -0.951266 1.24019 0
M  V30 774 H 70.7148 -3.2395 0.150686 0
M  V30 775 H 70.4998 -3.42111 1.91579 0
M  V30 776 H 71.9898 -4.0208 1.12788 0
M  V30 777 N 72.4269 -1.23603 -0.977757 0
M  V30 778 C 73.3599 -0.962772 -2.06896 0
M  V30 779 C 74.3379 0.0998743 -1.62293 0
M  V30 780 O 75.5219 -0.0349421 -1.88468 0
M  V30 781 C 72.6489 -0.45095 -3.35685 0
M  V30 782 C 71.6949 -1.50061 -3.99229 0
M  V30 783 S 72.5279 -3.07884 -4.38142 0
M  V30 784 C 73.6839 -2.58378 -5.7008 0
M  V30 785 H 73.9169 -1.88677 -2.29757 0
M  V30 786 H 71.4499 -1.06876 -1.11431 0
M  V30 787 H 73.4079 -0.162261 -4.10179 0
M  V30 788 H 72.0689 0.452179 -3.10828 0
M  V30 789 H 71.2619 -1.09269 -4.92013 0
M  V30 790 H 70.8639 -1.73878 -3.31123 0
M  V30 791 H 73.1559 -2.00563 -6.47133 0
M  V30 792 H 74.0989 -3.49711 -6.15717 0
M  V30 793 H 74.5069 -1.99143 -5.28207 0
M  V30 794 N 73.905 1.17692 -1.04816 0
M  V30 795 C 75.316 1.69501 -0.782698 0
M  V30 796 C 75.667 1.83456 0.695577 0
M  V30 797 O 74.792 1.51942 1.54086 0
M  V30 798 C 75.387 3.07874 -1.41419 0
M  V30 799 C 73.946 3.56864 -1.19686 0
M  V30 800 C 73.093 2.3322 -1.50012 0
M  V30 801 H 76.044 1.02262 -1.2136 0
M  V30 802 H 76.065 3.71528 -0.821428 0
M  V30 803 H 75.577 2.97685 -2.49009 0
M  V30 804 H 73.678 3.72337 -0.140043 0
M  V30 805 H 73.791 4.39851 -1.89916 0
M  V30 806 H 72.155 2.37501 -0.920071 0
M  V30 807 H 72.938 2.25644 -2.58727 0
M  V30 808 N 75.3831 0.828654 1.34056 0
M  V30 809 C 76.6301 0.419458 1.98108 0
M  V30 810 C 76.9581 -1.01886 1.65679 0
M  V30 811 O 76.2131 -1.72539 0.923512 0
M  V30 812 C 76.5121 0.575226 3.52741 0
M  V30 813 C 76.1781 1.98012 4.05095 0
M  V30 814 C 74.8401 2.36442 4.19104 0
M  V30 815 C 77.1921 2.89824 4.33188 0
M  V30 816 C 74.5201 3.66009 4.58535 0
M  V30 817 C 76.8721 4.1886 4.74066 0
M  V30 818 C 75.5361 4.5726 4.86281 0
M  V30 819 H 74.8061 0.153491 0.724929 0
M  V30 820 H 77.4531 1.05371 1.59904 0
M  V30 821 H 75.7581 -0.142385 3.91541 0
M  V30 822 H 77.4551 0.239057 4.00287 0
M  V30 823 H 74.0451 1.67162 3.94658 0
M  V30 824 H 78.2291 2.61375 4.21897 0
M  V30 825 H 73.4851 3.95579 4.66184 0
M  V30 826 H 77.6591 4.90086 4.94761 0
M  V30 827 H 75.2861 5.57707 5.16592 0
M  V30 828 N 76.8612 -1.46375 0.584142 0
M  V30 829 C 77.8082 -2.30323 -0.148286 0
M  V30 830 C 78.7782 -1.40703 -0.882713 0
M  V30 831 O 79.9632 -1.69651 -0.873099 0
M  V30 832 C 77.1032 -3.25196 -1.15507 0
M  V30 833 C 76.2162 -4.29915 -0.423943 0
M  V30 834 C 75.3512 -5.11914 -1.41838 0
M  V30 835 C 74.3902 -6.08381 -0.673736 0
M  V30 836 N 73.5272 -6.83242 -1.6163 0
M  V30 837 H 78.3672 -2.92427 0.573644 0
M  V30 838 H 75.9042 -1.44118 0.294703 0
M  V30 839 H 77.8622 -3.78646 -1.75166 0
M  V30 840 H 76.4922 -2.64898 -1.8447 0
M  V30 841 H 75.5442 -3.7931 0.287714 0
M  V30 842 H 76.8562 -4.98549 0.158128 0
M  V30 843 H 76.0102 -5.69648 -2.08773 0
M  V30 844 H 74.7492 -4.43243 -2.03438 0
M  V30 845 H 73.7542 -5.49799 0.00938483 0
M  V30 846 H 74.9792 -6.79071 -0.0631082 0
M  V30 847 H 72.9252 -6.1728 -2.22038 0
M  V30 848 H 72.8422 -7.48144 -1.08707 0
M  V30 849 H 74.1102 -7.45534 -2.27596 0
M  V30 850 N 78.3393 -0.321999 -1.54275 0
M  V30 851 C 79.5793 0.281657 -2.0245 0
M  V30 852 C 79.9433 1.49468 -1.20513 0
M  V30 853 O 81.1443 2.17109 -1.58484 0
M  V30 854 C 79.4153 0.609014 -3.52173 0
M  V30 855 S 80.9743 1.19255 -4.22284 0
M  V30 856 H 77.7923 0.0852825 -0.705867 0
M  V30 857 H 80.3943 -0.454758 -1.90137 0
M  V30 858 H 79.0983 -0.281982 -4.0943 0
M  V30 859 H 78.6293 1.37567 -3.68563 0
M  V30 860 H 80.6443 2.47944 -4.29812 0
M  V30 861 N 79.8174 1.5752 -0.0501392 0
M  V30 862 C 80.7504 2.07026 0.959962 0
M  V30 863 C 81.7284 0.970539 1.30458 0
M  V30 864 O 82.9124 1.2424 1.41763 0
M  V30 865 C 80.0394 2.5099 2.27424 0
M  V30 866 C 79.0854 3.72188 2.08275 0
M  V30 867 S 79.9184 5.17888 1.36207 0
M  V30 868 C 81.0744 5.65165 2.6896 0
M  V30 869 H 81.3074 2.9238 0.538631 0
M  V30 870 H 78.8404 1.53547 0.162099 0
M  V30 871 H 80.7984 2.76982 3.02971 0
M  V30 872 H 79.4594 1.65944 2.66686 0
M  V30 873 H 78.6524 4.00866 3.05487 0
M  V30 874 H 78.2544 3.46457 1.40868 0
M  V30 875 H 80.5464 5.70687 3.65133 0
M  V30 876 H 81.4894 6.64394 2.4492 0
M  V30 877 H 81.8974 4.9289 2.75172 0
M  V30 878 N 81.2955 -0.223234 1.56011 0
M  V30 879 C 82.2275 -1.30006 1.88762 0
M  V30 880 C 83.2405 -1.43129 0.775746 0
M  V30 881 O 84.4295 -1.44057 1.05403 0
M  V30 882 C 81.5295 -2.67589 2.07965 0
M  V30 883 C 80.7025 -2.76434 3.38973 0
M  V30 884 C 79.7615 -3.95019 3.47629 0
M  V30 885 O 78.7875 -3.83436 4.20672 0
M  V30 886 N 79.9895 -5.09249 2.78649 0
M  V30 887 H 82.7545 -1.02238 2.81722 0
M  V30 888 H 80.3155 -0.413278 1.56536 0
M  V30 889 H 82.3075 -3.45297 2.11073 0
M  V30 890 H 80.8775 -2.87964 1.21638 0
M  V30 891 H 80.0975 -1.85216 3.47978 0
M  V30 892 H 81.3855 -2.79313 4.25278 0
M  V30 893 H 80.7835 -5.21556 2.19081 0
M  V30 894 H 79.3405 -5.85007 2.8742 0
M  V30 895 N 82.7736 -1.49793 -0.48987 0
M  V30 896 C 83.7036 -1.70201 -1.59856 0
M  V30 897 C 84.6846 -0.55076 -1.60937 0
M  V30 898 O 85.8696 -0.787841 -1.77501 0
M  V30 899 C 82.9996 -1.77882 -2.98287 0
M  V30 900 C 81.9536 -2.92907 -3.12073 0
M  V30 901 C 81.2796 -2.85712 -4.51965 0
M  V30 902 C 82.5796 -4.3369 -2.91051 0
M  V30 903 H 84.2736 -2.63025 -1.43032 0
M  V30 904 H 81.8196 -1.26574 -0.686664 0
M  V30 905 H 83.7726 -1.90744 -3.75759 0
M  V30 906 H 82.4966 -0.816653 -3.16225 0
M  V30 907 H 81.1556 -2.79665 -2.37029 0
M  V30 908 H 80.8036 -1.8738 -4.66795 0
M  V30 909 H 80.5036 -3.62921 -4.62128 0
M  V30 910 H 82.0276 -3.00598 -5.31482 0
M  V30 911 H 83.4416 -4.47555 -3.58284 0
M  V30 912 H 81.8386 -5.12205 -3.12675 0
M  V30 913 H 82.9086 -4.47362 -1.87071 0
M  V30 914 N 84.2517 0.741722 -1.39055 0
M  V30 915 C 85.4797 1.53098 -1.39171 0
M  V30 916 C 85.8947 1.88794 0.0155099 0
M  V30 917 O 85.2517 1.53626 0.985159 0
M  V30 918 C 85.3027 2.82274 -2.2584 0
M  V30 919 O 85.0237 2.48097 -3.61081 0
M  V30 920 C 86.5247 3.76343 -2.34266 0
M  V30 921 H 83.7447 0.473335 -0.4756 0
M  V30 922 H 86.2887 0.917045 -1.82785 0
M  V30 923 H 84.4437 3.40015 -1.85656 0
M  V30 924 H 84.8577 3.31029 -4.06842 0
M  V30 925 H 86.3317 4.63898 -2.9917 0
M  V30 926 H 86.8087 4.17619 -1.35982 0
M  V30 927 H 87.4147 3.24523 -2.74891 0
M  V30 928 N 85.7298 1.2412 0.971189 0
M  V30 929 C 87.0068 0.986867 1.6888 0
M  V30 930 C 87.3868 -0.491857 2.0529 0
M  V30 931 O 86.7348 -1.46531 1.75331 0
M  V30 932 C 86.9448 1.9063 2.92338 0
M  V30 933 C 88.2928 2.17515 3.64654 0
M  V30 934 O 89.3168 1.88254 3.02388 0
M  V30 935 O 88.1758 2.6719 4.7673 0
M  V30 936 H 85.2698 0.372944 0.738134 0
M  V30 937 H 87.8158 1.35203 1.02559 0
M  V30 938 H 86.5878 2.90552 2.62097 0
M  V30 939 H 86.2108 1.54408 3.66393 0
M  V30 940 N 87.2079 -1.17134 1.05439 0
M  V30 941 C 88.4549 -1.87456 0.765942 0
M  V30 942 C 88.7829 -1.81189 -0.707153 0
M  V30 943 O 88.0379 -1.21633 -1.5331 0
M  V30 944 C 88.3369 -3.36833 1.19491 0
M  V30 945 C 88.0029 -3.63301 2.67063 0
M  V30 946 C 86.6649 -3.70234 3.07376 0
M  V30 947 C 89.0169 -3.74575 3.62413 0
M  V30 948 C 86.3449 -3.85933 4.41896 0
M  V30 949 C 88.6969 -3.91793 4.9667 0
M  V30 950 C 87.3609 -3.96966 5.36633 0
M  V30 951 H 86.6309 -0.685948 0.280278 0
M  V30 952 H 89.2779 -1.38556 1.32192 0
M  V30 953 H 87.5829 -3.87807 0.557969 0
M  V30 954 H 89.2799 -3.89611 0.948893 0
M  V30 955 H 85.8699 -3.58532 2.34846 0
M  V30 956 H 90.0539 -3.68537 3.32406 0
M  V30 957 H 85.3099 -3.88187 4.72357 0
M  V30 958 H 89.4839 -3.99458 5.70444 0
M  V30 959 H 87.1109 -4.08883 6.40874 0
M  V30 960 N 88.686 -0.835752 -1.33615 0
M  V30 961 C 89.935 -0.426289 -1.97144 0
M  V30 962 C 90.248 1.01912 -1.66953 0
M  V30 963 O 91.454 1.53311 -2.24072 0
M  V30 964 C 89.91 -0.711321 -3.52801 0
M  V30 965 C 89.518 -2.1712 -3.91871 0
M  V30 966 C 91.262 -0.368654 -4.22896 0
M  V30 967 C 89.169 -2.40044 -5.40493 0
M  V30 968 H 88.099 -0.15567 -0.737755 0
M  V30 969 H 90.75 -1.0239 -1.52278 0
M  V30 970 H 89.132 -0.0433766 -3.95976 0
M  V30 971 H 90.306 -2.87936 -3.59763 0
M  V30 972 H 88.621 -2.47654 -3.34749 0
M  V30 973 H 91.218 -0.517601 -5.32189 0
M  V30 974 H 91.561 0.688078 -4.10574 0
M  V30 975 H 92.094 -0.991702 -3.8524 0
M  V30 976 H 88.833 -3.44271 -5.57815 0
M  V30 977 H 88.353 -1.73785 -5.74072 0
M  V30 978 H 90.032 -2.23042 -6.0734 0
M  V30 979 N 90.1641 1.46063 -0.591896 0
M  V30 980 C 91.0941 2.33172 0.123673 0
M  V30 981 C 92.0751 1.45897 0.87453 0
M  V30 982 O 93.2601 1.74698 0.848181 0
M  V30 983 C 90.3901 3.28336 1.13194 0
M  V30 984 C 89.3441 4.25124 0.495324 0
M  V30 985 C 88.6701 5.09863 1.61071 0
M  V30 986 C 89.9701 5.19143 -0.573425 0
M  V30 987 H 91.6641 2.93252 -0.603646 0
M  V30 988 H 89.2101 1.41014 -0.291741 0
M  V30 989 H 91.1631 3.88137 1.64097 0
M  V30 990 H 89.8871 2.66383 1.88965 0
M  V30 991 H 88.5461 3.66599 0.00729452 0
M  V30 992 H 88.1941 4.44288 2.35832 0
M  V30 993 H 87.8941 5.75417 1.19035 0
M  V30 994 H 89.4181 5.72529 2.12233 0
M  V30 995 H 90.8321 5.73106 -0.1491 0
M  V30 996 H 89.2291 5.93089 -0.914636 0
M  V30 997 H 90.2991 4.62519 -1.45617 0
M  V30 998 N 91.6422 0.330177 1.54103 0
M  V30 999 C 92.5892 -0.532762 2.24567 0
M  V30 1000 C 93.5592 -1.10635 1.23892 0
M  V30 1001 O 94.7442 -1.14546 1.5259 0
M  V30 1002 C 91.8842 -1.6845 3.01195 0
M  V30 1003 C 90.9972 -1.13951 4.167 0
M  V30 1004 C 90.1322 -2.25746 4.80845 0
M  V30 1005 C 89.1712 -1.6853 5.88442 0
M  V30 1006 N 88.3082 -2.74014 6.46421 0
M  V30 1007 H 93.1482 0.0746905 2.97906 0
M  V30 1008 H 90.6852 0.048632 1.4702 0
M  V30 1009 H 92.6432 -2.36234 3.43874 0
M  V30 1010 H 91.2732 -2.26314 2.30178 0
M  V30 1011 H 90.3252 -0.35301 3.78758 0
M  V30 1012 H 91.6372 -0.680892 4.94131 0
M  V30 1013 H 90.7912 -3.01422 5.26526 0
M  V30 1014 H 89.5302 -2.74947 4.0281 0
M  V30 1015 H 88.5352 -0.913543 5.42157 0
M  V30 1016 H 89.7602 -1.20198 6.68378 0
M  V30 1017 H 87.7062 -3.22494 5.71256 0
M  V30 1018 H 87.6232 -2.32735 7.19285 0
M  V30 1019 H 88.8912 -3.49499 6.96757 0
M  V30 1020 N 93.1203 -1.57491 0.0584922 0
M  V30 1021 C 94.3673 -1.92978 -0.613648 0
M  V30 1022 C 94.6953 -0.937461 -1.70417 0
M  V30 1023 O 93.9503 0.049078 -1.95638 0
M  V30 1024 C 94.2493 -3.3513 -1.24188 0
M  V30 1025 C 93.9153 -4.50037 -0.278826 0
M  V30 1026 C 92.5773 -4.81198 -0.0138447 0
M  V30 1027 C 94.9293 -5.19807 0.380777 0
M  V30 1028 C 92.2573 -5.79473 0.918052 0
M  V30 1029 C 94.6093 -6.19079 1.30091 0
M  V30 1030 C 93.2733 -6.48665 1.57449 0
M  V30 1031 H 92.5433 -0.706157 -0.22455 0
M  V30 1032 H 95.1903 -1.91082 0.126533 0
M  V30 1033 H 93.4953 -3.33429 -2.05749 0
M  V30 1034 H 95.1923 -3.59871 -1.769 0
M  V30 1035 H 91.7823 -4.25726 -0.495539 0
M  V30 1036 H 95.9663 -4.95939 0.189158 0
M  V30 1037 H 91.2223 -6.00727 1.1374 0
M  V30 1038 H 95.3963 -6.7225 1.81804 0
M  V30 1039 H 93.0233 -7.24628 2.29822 0
M  V30 1040 N 94.5984 0.214957 -1.56127 0
M  V30 1041 C 96.0094 0.781386 -1.69562 0
M  V30 1042 C 96.3604 1.84707 -0.66165 0
M  V30 1043 O 95.4854 2.156 0.185927 0
M  V30 1044 C 96.0804 1.42411 -3.07416 0
M  V30 1045 C 94.6394 1.93786 -3.22683 0
M  V30 1046 C 93.7864 0.800438 -2.65496 0
M  V30 1047 H 96.7374 -0.00980633 -1.58697 0
M  V30 1048 H 96.7584 2.29309 -3.0364 0
M  V30 1049 H 96.2704 0.64826 -3.82648 0
M  V30 1050 H 94.3714 2.74152 -2.52332 0
M  V30 1051 H 94.4844 2.1133 -4.29973 0
M  V30 1052 H 92.8484 1.2095 -2.2415 0
M  V30 1053 H 93.6314 0.0371471 -3.4328 0
M  V30 1054 N 96.0765 1.50051 0.48192 0
M  V30 1055 C 97.0265 1.64512 1.5786 0
M  V30 1056 C 98.0105 0.500073 1.52932 0
M  V30 1057 O 99.2025 0.753964 1.60139 0
M  V30 1058 C 96.3315 1.73263 2.9637 0
M  V30 1059 C 95.4175 2.93409 3.06222 0
M  V30 1060 N 95.8085 4.17236 2.85915 0
M  V30 1061 C 94.1065 2.91742 3.37346 0
M  V30 1062 C 94.8075 4.981 3.00451 0
M  V30 1063 N 93.7835 4.3184 3.30174 0
M  V30 1064 H 97.5855 2.57955 1.40842 0
M  V30 1065 H 95.0995 1.47086 0.688439 0
M  V30 1066 H 97.0965 1.81724 3.75209 0
M  V30 1067 H 95.7565 0.809711 3.14442 0
M  V30 1068 H 96.7675 4.46909 2.6171 0
M  V30 1069 H 93.4445 2.08907 3.61475 0
M  V30 1070 H 94.8345 6.06532 2.89082 0
M  V30 1071 N 97.5546 -0.734337 1.39446 0
M  V30 1072 C 98.7796 -1.52866 1.40167 0
M  V30 1073 C 99.2046 -1.881 -0.00171513 0
M  V30 1074 O 98.5626 -1.51957 -0.988879 0
M  V30 1075 C 98.6106 -2.79235 2.28167 0
M  V30 1076 O 97.7146 -3.75185 1.71201 0
M  V30 1077 H 97.0556 -0.461618 0.477289 0
M  V30 1078 H 99.5856 -0.905949 1.8345 0
M  V30 1079 H 99.5956 -3.27963 2.42702 0
M  V30 1080 H 98.2706 -2.52923 3.30156 0
M  V30 1081 H 96.8476 -3.33958 1.65912 0
M  V30 1082 N 99.0327 -1.24633 -0.964593 0
M  V30 1083 C 99.9957 -1.0424 -2.04124 0
M  V30 1084 C 100.996 0.00137563 -1.608 0
M  V30 1085 O 102.186 -0.239883 -1.7254 0
M  V30 1086 C 99.3177 -0.580588 -3.3592 0
M  V30 1087 H 100.511 -1.99803 -2.23649 0
M  V30 1088 H 98.0637 -1.06899 -1.14027 0
M  V30 1089 H 98.7987 0.3781 -3.22088 0
M  V30 1090 H 98.5837 -1.33398 -3.6871 0
M  V30 1091 H 100.074 -0.459034 -4.15069 0
M  V30 1092 N 100.511 1.16574 -1.06058 0
M  V30 1093 C 101.461 2.18854 -0.63929 0
M  V30 1094 C 102.445 1.57505 0.328798 0
M  V30 1095 O 103.637 1.76408 0.144623 0
M  V30 1096 C 100.766 3.43291 -0.0247203 0
M  V30 1097 C 99.8518 4.11722 -1.01716 0
M  V30 1098 N 100.243 4.55841 -2.19186 0
M  V30 1099 C 98.5408 4.37872 -0.847569 0
M  V30 1100 C 99.2418 5.08751 -2.82042 0
M  V30 1101 N 98.2178 5.01489 -2.09784 0
M  V30 1102 H 102.02 2.5068 -1.53417 0
M  V30 1103 H 99.5338 1.32999 -0.931935 0
M  V30 1104 H 101.531 4.15856 0.294915 0
M  V30 1105 H 100.191 3.12954 0.865448 0
M  V30 1106 H 101.202 4.49649 -2.56975 0
M  V30 1107 H 97.8788 4.17499 -0.00918848 0
M  V30 1108 H 99.2688 5.52944 -3.81709 0
M  V30 1109 N 101.989 0.842826 1.3317 0
M  V30 1110 C 102.921 0.236245 2.27979 0
M  V30 1111 C 103.934 -0.585282 1.51915 0
M  V30 1112 O 105.123 -0.411705 1.73687 0
M  V30 1113 C 102.223 -0.685717 3.3189 0
M  V30 1114 C 101.396 0.0973448 4.37292 0
M  V30 1115 C 100.455 -0.748565 5.20848 0
M  V30 1116 O 99.4809 -0.186339 5.68895 0
M  V30 1117 N 100.683 -2.06527 5.42519 0
M  V30 1118 H 103.448 1.05088 2.80672 0
M  V30 1119 H 101.009 0.701667 1.45905 0
M  V30 1120 H 103.001 -1.25669 3.84694 0
M  V30 1121 H 101.571 -1.40105 2.79445 0
M  V30 1122 H 100.791 0.849706 3.84933 0
M  V30 1123 H 102.079 0.635643 5.04814 0
M  V30 1124 H 101.477 -2.54554 5.05192 0
M  V30 1125 H 100.034 -2.58464 5.98364 0
M  V30 1126 N 103.467 -1.45747 0.599634 0
M  V30 1127 C 104.414 -2.30467 -0.123849 0
M  V30 1128 C 105.384 -1.41632 -0.86774 0
M  V30 1129 O 106.569 -1.70568 -0.855056 0
M  V30 1130 C 103.709 -3.26402 -1.12051 0
M  V30 1131 C 102.822 -4.3034 -0.37832 0
M  V30 1132 C 101.957 -5.13389 -1.364 0
M  V30 1133 C 100.996 -6.09061 -0.609171 0
M  V30 1134 N 100.133 -6.84918 -1.54374 0
M  V30 1135 H 104.973 -2.91802 0.604627 0
M  V30 1136 H 102.51 -1.43797 0.309972 0
M  V30 1137 H 104.468 -3.80482 -1.7114 0
M  V30 1138 H 103.098 -2.66839 -1.8165 0
M  V30 1139 H 102.15 -3.78984 0.327929 0
M  V30 1140 H 103.462 -4.98354 0.210997 0
M  V30 1141 H 102.616 -5.7183 -2.02719 0
M  V30 1142 H 101.355 -4.45376 -1.98725 0
M  V30 1143 H 100.36 -5.49758 0.0676979 0
M  V30 1144 H 101.585 -6.79099 0.00891991 0
M  V30 1145 H 99.531 -6.19601 -2.15478 0
M  V30 1146 H 99.448 -7.49254 -1.00766 0
M  V30 1147 H 100.716 -7.47906 -2.19676 0
M  V30 1148 N 104.945 -0.338344 -1.53925 0
M  V30 1149 C 106.175 0.260919 -2.04946 0
M  V30 1150 C 106.583 1.45174 -1.2133 0
M  V30 1151 O 105.926 1.82122 -0.240262 0
M  V30 1152 C 105.988 0.744596 -3.51704 0
M  V30 1153 C 105.652 -0.325883 -4.55837 0
M  V30 1154 C 106.649 -1.16687 -5.06636 0
M  V30 1155 C 104.334 -0.478317 -5.00017 0
M  V30 1156 C 106.328 -2.14588 -6.00192 0
M  V30 1157 C 104.015 -1.46073 -5.93385 0
M  V30 1158 C 105.013 -2.29297 -6.4336 0
M  V30 1159 O 104.701 -3.25867 -7.34892 0
M  V30 1160 H 104.433 0.0551207 -0.673749 0
M  V30 1161 H 106.987 -0.486984 -1.99544 0
M  V30 1162 H 105.217 1.54366 -3.54553 0
M  V30 1163 H 106.906 1.26383 -3.85723 0
M  V30 1164 H 107.672 -1.06016 -4.73271 0
M  V30 1165 H 103.551 0.159613 -4.60724 0
M  V30 1166 H 107.095 -2.79585 -6.39123 0
M  V30 1167 H 102.992 -1.56802 -6.26166 0
M  V30 1168 H 103.76 -3.21278 -7.5281 0
M  V30 1169 N 106.423 1.57458 -0.0668435 0
M  V30 1170 C 107.669 1.93587 0.6043 0
M  V30 1171 C 108.002 0.946722 1.69561 0
M  V30 1172 O 107.277 -0.0248516 1.94484 0
M  V30 1173 C 107.56 3.40014 1.18585 0
M  V30 1174 C 107.413 4.49685 0.101529 0
M  V30 1175 C 108.732 3.87154 2.09284 0
M  V30 1176 H 105.851 0.703958 0.218202 0
M  V30 1177 H 108.493 1.89542 -0.131804 0
M  V30 1178 H 106.643 3.43592 1.81319 0
M  V30 1179 H 108.315 4.5823 -0.531279 0
M  V30 1180 H 106.558 4.30059 -0.568487 0
M  V30 1181 H 107.229 5.49266 0.54874 0
M  V30 1182 H 109.705 3.85551 1.56491 0
M  V30 1183 H 108.581 4.90231 2.46911 0
M  V30 1184 H 108.842 3.2481 2.99918 0
M  V30 1185 N 107.901 -0.206675 1.56239 0
M  V30 1186 C 109.317 -0.557025 1.49564 0
M  V30 1187 C 109.517 -1.86424 0.764735 0
M  V30 1188 O 108.573 -2.50584 0.310491 0
M  V30 1189 C 109.886 -0.622478 2.94186 0
M  V30 1190 C 111.434 -0.712099 3.04792 0
M  V30 1191 C 111.909 -0.808767 4.50803 0
M  V30 1192 N 113.4 -0.8726 4.54907 0
M  V30 1193 C 114.135 -0.967365 5.65181 0
M  V30 1194 N 113.631 -1.02515 6.85173 0
M  V30 1195 N 115.424 -1.00366 5.53067 0
M  V30 1196 H 107.575 0.650943 2.02179 0
M  V30 1197 H 109.838 0.230387 0.919579 0
M  V30 1198 H 109.544 0.268727 3.50672 0
M  V30 1199 H 109.418 -1.4811 3.46905 0
M  V30 1200 H 111.805 -1.59374 2.48363 0
M  V30 1201 H 111.886 0.172489 2.55218 0
M  V30 1202 H 111.53 0.0684754 5.07854 0
M  V30 1203 H 111.46 -1.70899 4.98098 0
M  V30 1204 H 113.951 -0.837657 3.68499 0
M  V30 1205 H 114.264 -1.09765 7.64965 0
M  V30 1206 H 112.609 -0.994026 6.87855 0
M  V30 1207 H 115.8 -0.95527 4.58249 0
M  V30 1208 H 115.973 -1.07405 6.39037 0
M  V30 1209 N 109.379 -1.50304 -0.473955 0
M  V30 1210 C 110.311 -1.65109 -1.58971 0
M  V30 1211 C 111.324 -0.532676 -1.53839 0
M  V30 1212 O 112.513 -0.805751 -1.59279 0
M  V30 1213 C 109.613 -1.61684 -2.97845 0
M  V30 1214 C 108.786 -2.8951 -3.27876 0
M  V30 1215 C 107.845 -2.78768 -4.4629 0
M  V30 1216 O 106.871 -3.52722 -4.46739 0
M  V30 1217 N 108.073 -1.9213 -5.47783 0
M  V30 1218 H 110.838 -2.61347 -1.46689 0
M  V30 1219 H 108.399 -1.47732 -0.662324 0
M  V30 1220 H 110.391 -1.52114 -3.75024 0
M  V30 1221 H 108.961 -0.731925 -3.03911 0
M  V30 1222 H 108.181 -3.13228 -2.39336 0
M  V30 1223 H 109.469 -3.74199 -3.4475 0
M  V30 1224 H 108.867 -1.31353 -5.50239 0
M  V30 1225 H 107.424 -1.88466 -6.23958 0
M  V30 1226 N 110.857 0.726932 -1.39834 0
M  V30 1227 C 111.82 1.82269 -1.38962 0
M  V30 1228 C 112.82 1.58248 -0.285334 0
M  V30 1229 O 114.01 1.65499 -0.54366 0
M  V30 1230 C 111.142 3.20186 -1.17019 0
M  V30 1231 H 112.335 1.84443 -2.36476 0
M  V30 1232 H 109.888 0.931416 -1.25516 0
M  V30 1233 H 110.623 3.23669 -0.202204 0
M  V30 1234 H 110.408 3.3902 -1.96998 0
M  V30 1235 H 111.898 4.00235 -1.1917 0
M  V30 1236 N 112.336 1.25143 0.95797 0
M  V30 1237 C 113.582 1.10863 1.70531 0
M  V30 1238 C 113.937 -0.347391 1.89238 0
M  V30 1239 O 113.23 -1.25262 1.44983 0
M  V30 1240 C 113.424 1.79272 3.09187 0
M  V30 1241 C 113.253 3.31376 3.04006 0
M  V30 1242 C 112.023 4.0062 3.07948 0
M  V30 1243 C 114.221 4.27825 2.8543 0
M  V30 1244 N 112.203 5.39526 2.9289 0
M  V30 1245 C 113.574 5.53794 2.78769 0
M  V30 1246 C 115.629 4.1828 2.70085 0
M  V30 1247 C 114.332 6.7131 2.58331 0
M  V30 1248 C 116.358 5.35485 2.51017 0
M  V30 1249 C 115.72 6.60393 2.45073 0
M  V30 1250 H 111.819 0.460362 0.632132 0
M  V30 1251 H 114.403 1.58196 1.13499 0
M  V30 1252 H 112.574 1.34439 3.64391 0
M  V30 1253 H 114.306 1.57764 3.72683 0
M  V30 1254 H 111.061 3.51855 3.17009 0
M  V30 1255 H 111.485 6.12416 2.88574 0
M  V30 1256 H 116.127 3.22461 2.73457 0
M  V30 1257 H 113.845 7.67243 2.53701 0
M  V30 1258 H 117.431 5.29959 2.40073 0
M  V30 1259 H 116.311 7.49557 2.30509 0
M  V30 1260 N 113.814 -1.1601 1.06675 0
M  V30 1261 C 114.746 -2.20115 0.638921 0
M  V30 1262 C 115.759 -1.59916 -0.305057 0
M  V30 1263 O 116.948 -1.78245 -0.0954446 0
M  V30 1264 C 114.048 -3.38798 -0.0830083 0
M  V30 1265 C 113.221 -4.2855 0.875426 0
M  V30 1266 C 112.28 -5.25849 0.192042 0
M  V30 1267 O 111.306 -5.63102 0.830921 0
M  V30 1268 N 112.508 -5.70648 -1.06493 0
M  V30 1269 H 115.273 -2.57439 1.53444 0
M  V30 1270 H 112.834 -1.31057 0.950557 0
M  V30 1271 H 114.826 -4.00936 -0.550685 0
M  V30 1272 H 113.396 -2.99947 -0.880386 0
M  V30 1273 H 112.616 -3.63617 1.52238 0
M  V30 1274 H 113.904 -4.85393 1.52548 0
M  V30 1275 H 113.302 -5.42482 -1.60405 0
M  V30 1276 H 111.859 -6.34859 -1.47641 0
M  V30 1277 N 115.292 -0.849877 -1.32721 0
M  V30 1278 C 116.239 -0.289033 -2.28983 0
M  V30 1279 C 117.209 0.601324 -1.54833 0
M  V30 1280 O 118.394 0.537253 -1.8308 0
M  V30 1281 C 115.534 0.520623 -3.4115 0
M  V30 1282 C 114.647 -0.394989 -4.3019 0
M  V30 1283 C 113.782 0.426834 -5.29482 0
M  V30 1284 C 112.821 -0.486476 -6.10164 0
M  V30 1285 N 111.958 0.297879 -7.01468 0
M  V30 1286 H 116.798 -1.11519 -2.76347 0
M  V30 1287 H 114.335 -0.56138 -1.35967 0
M  V30 1288 H 116.293 1.00563 -4.04899 0
M  V30 1289 H 114.923 1.31165 -2.9495 0
M  V30 1290 H 113.975 -0.99836 -3.67065 0
M  V30 1291 H 115.287 -1.09612 -4.86607 0
M  V30 1292 H 114.441 0.975205 -5.98811 0
M  V30 1293 H 113.18 1.16136 -4.73671 0
M  V30 1294 H 112.185 -1.04677 -5.39743 0
M  V30 1295 H 113.41 -1.21953 -6.6806 0
M  V30 1296 H 111.356 1.01558 -6.48091 0
M  V30 1297 H 111.273 -0.344318 -7.55216 0
M  V30 1298 H 112.541 0.828131 -7.75089 0
M  V30 1299 N 116.77 1.45427 -0.607355 0
M  V30 1300 C 117.733 2.28974 0.101693 0
M  V30 1301 C 118.733 1.39754 0.795329 0
M  V30 1302 O 119.923 1.61878 0.643527 0
M  V30 1303 C 117.055 3.20768 1.15414 0
M  V30 1304 H 118.248 2.93147 -0.632844 0
M  V30 1305 H 115.801 1.51945 -0.366391 0
M  V30 1306 H 116.536 2.61395 1.91945 0
M  V30 1307 H 116.321 3.86489 0.66098 0
M  V30 1308 H 117.811 3.83589 1.65073 0
M  V30 1309 N 118.248 0.346503 1.53744 0
M  V30 1310 C 119.525 -0.304532 1.93215 0
M  V30 1311 C 119.905 -1.67993 1.27834 0
M  V30 1312 O 119.253 -2.24411 0.430352 0
M  V30 1313 C 119.463 -0.373852 3.46992 0
M  V30 1314 C 120.811 -0.62329 4.2 0
M  V30 1315 O 121.835 -0.455847 3.53271 0
M  V30 1316 O 120.694 -0.947879 5.38217 0
M  V30 1317 H 117.788 -0.178318 0.807547 0
M  V30 1318 H 120.334 0.397895 1.64969 0
M  V30 1319 H 119.106 0.591224 3.86808 0
M  V30 1320 H 118.729 -1.12294 3.81413 0
M  V30 1321 N 119.726 -1.57421 0.075193 0
M  V30 1322 C 120.975 -1.92794 -0.592731 0
M  V30 1323 C 121.288 -0.957478 -1.70563 0
M  V30 1324 O 122.494 -1.20417 -2.43335 0
M  V30 1325 C 120.95 -3.42495 -1.10569 0
M  V30 1326 C 120.558 -4.47994 -0.0236121 0
M  V30 1327 C 122.302 -3.86864 -1.74748 0
M  V30 1328 C 120.209 -5.88829 -0.550803 0
M  V30 1329 H 119.139 -0.719591 -0.225177 0
M  V30 1330 H 121.79 -1.82902 0.147978 0
M  V30 1331 H 120.172 -3.47471 -1.89947 0
M  V30 1332 H 121.346 -4.54637 0.751099 0
M  V30 1333 H 119.661 -4.13113 0.522159 0
M  V30 1334 H 122.258 -4.8947 -2.15229 0
M  V30 1335 H 122.601 -3.24417 -2.60882 0
M  V30 1336 H 123.134 -3.84504 -1.01986 0
M  V30 1337 H 119.873 -6.54929 0.273457 0
M  V30 1338 H 119.393 -5.85698 -1.29296 0
M  V30 1339 H 121.072 -6.38811 -1.02613 0
M  V30 1340 N 121.204 0.198386 -1.56346 0
M  V30 1341 C 122.152 1.26538 -1.95169 0
M  V30 1342 C 123.146 1.47295 -0.836685 0
M  V30 1343 O 124.352 1.48195 -1.02167 0
M  V30 1344 H 120.727 0.424744 -0.620561 0
M  V30 1345 H 122.698 0.910904 -2.84157 0
M  V30 1346 C 121.447 2.6035 -2.30463 0
M  V30 1347 H 120.77 2.45192 -3.15786 0
M  V30 1348 H 122.21 3.33762 -2.61494 0
M  V30 1349 C 120.669 3.17096 -1.13806 0
M  V30 1350 O 121.199 3.99588 -0.41135 0
M  V30 1351 N 119.405 2.75795 -0.915736 0
M  V30 1352 H 118.952 2.08816 -1.50843 0
M  V30 1353 H 118.91 3.14101 -0.136979 0
M  V30 1354 N 122.682 1.50554 0.465978 0
M  V30 1355 C 123.91 1.65563 1.24083 0
M  V30 1356 C 124.325 0.341051 1.85694 0
M  V30 1357 O 123.682 -0.677543 1.69457 0
M  V30 1358 C 123.733 2.75051 2.34583 0
M  V30 1359 O 123.454 4.01413 1.75497 0
M  V30 1360 C 124.955 3.01078 3.25372 0
M  V30 1361 H 122.175 0.55638 0.375077 0
M  V30 1362 H 124.719 1.96807 0.555624 0
M  V30 1363 H 122.874 2.46486 2.9887 0
M  V30 1364 H 123.288 4.62002 2.48303 0
M  V30 1365 H 124.762 3.81339 3.99105 0
M  V30 1366 H 125.239 2.12349 3.84453 0
M  V30 1367 H 125.845 3.31194 2.66816 0
M  V30 1368 N 124.16 -0.719506 1.40217 0
M  V30 1369 C 125.107 -1.83359 1.40172 0
M  V30 1370 C 126.077 -1.64065 0.259206 0
M  V30 1371 O 127.262 -1.85254 0.456677 0
M  V30 1372 C 124.402 -3.2103 1.26624 0
M  V30 1373 C 123.515 -3.51923 2.50548 0
M  V30 1374 C 122.65 -4.79079 2.29471 0
M  V30 1375 C 121.689 -5.02863 3.48992 0
M  V30 1376 N 120.826 -6.2123 3.27135 0
M  V30 1377 H 125.666 -1.82733 2.35399 0
M  V30 1378 H 123.203 -0.892688 1.16917 0
M  V30 1379 H 125.161 -4.00524 1.16776 0
M  V30 1380 H 123.791 -3.20895 0.350176 0
M  V30 1381 H 122.843 -2.67014 2.70939 0
M  V30 1382 H 124.155 -3.6541 3.39525 0
M  V30 1383 H 123.309 -5.66582 2.16955 0
M  V30 1384 H 122.048 -4.67794 1.37913 0
M  V30 1385 H 121.053 -4.13816 3.6199 0
M  V30 1386 H 122.278 -5.16023 4.41472 0
M  V30 1387 H 120.224 -6.11204 2.38256 0
M  V30 1388 H 120.141 -6.35375 4.09675 0
M  V30 1389 H 121.409 -7.11532 3.18344 0
M  V30 1390 N 125.638 -1.25649 -0.95132 0
M  V30 1391 C 126.884 -1.11766 -1.69941 0
M  V30 1392 C 127.239 0.33735 -1.89419 0
M  V30 1393 O 126.532 1.24491 -1.45645 0
M  V30 1394 C 126.726 -1.80909 -3.08231 0
M  V30 1395 C 126.555 -3.32984 -3.02245 0
M  V30 1396 C 125.325 -4.02247 -3.05819 0
M  V30 1397 C 127.523 -4.29332 -2.83157 0
M  V30 1398 N 125.505 -5.41072 -2.90024 0
M  V30 1399 C 126.876 -5.55265 -2.75828 0
M  V30 1400 C 128.931 -4.19707 -2.67863 0
M  V30 1401 C 127.634 -6.72671 -2.54767 0
M  V30 1402 C 129.66 -5.36809 -2.48173 0
M  V30 1403 C 129.022 -6.61683 -2.41567 0
M  V30 1404 H 125.121 -0.463708 -0.629682 0
M  V30 1405 H 127.705 -1.58796 -1.12659 0
M  V30 1406 H 125.876 -1.36369 -3.63673 0
M  V30 1407 H 127.608 -1.59739 -3.71841 0
M  V30 1408 H 124.363 -3.53531 -3.15139 0
M  V30 1409 H 124.787 -6.13938 -2.85323 0
M  V30 1410 H 129.429 -3.23907 -2.71743 0
M  V30 1411 H 127.147 -7.68577 -2.49629 0
M  V30 1412 H 130.733 -5.31224 -2.37259 0
M  V30 1413 H 129.613 -7.50768 -2.26531 0
M  V30 1414 N 127.117 1.15442 -1.07289 0
M  V30 1415 C 128.08 2.18358 -0.696591 0
M  V30 1416 C 129.08 1.58637 0.262837 0
M  V30 1417 O 130.27 1.74145 0.0438809 0
M  V30 1418 C 127.402 3.4089 -0.0266151 0
M  V30 1419 H 128.595 2.53162 -1.60776 0
M  V30 1420 H 126.148 1.29893 -0.869342 0
M  V30 1421 H 126.883 3.11653 0.896822 0
M  V30 1422 H 126.668 3.85495 -0.716657 0
M  V30 1423 H 128.158 4.17009 0.222028 0
M  V30 1424 N 128.595 0.856903 1.32268 0
M  V30 1425 C 129.558 0.308171 2.27119 0
M  V30 1426 C 130.558 -0.533421 1.51695 0
M  V30 1427 O 131.748 -0.344607 1.70757 0
M  V30 1428 C 128.88 -0.563757 3.36206 0
M  V30 1429 H 130.073 1.14535 2.77167 0
M  V30 1430 H 127.626 0.631421 1.42978 0
M  V30 1431 H 128.361 -1.42266 2.91429 0
M  V30 1432 H 128.146 0.0386749 3.92081 0
M  V30 1433 H 129.636 -0.940386 4.06874 0
M  V30 1434 N 130.073 -1.45103 0.615059 0
M  V30 1435 C 131.301 -2.06553 0.11977 0
M  V30 1436 C 131.716 -1.45842 -1.19898 0
M  V30 1437 O 131.073 -0.575325 -1.73194 0
M  V30 1438 C 131.124 -3.61495 -0.018364 0
M  V30 1439 O 130.845 -4.19942 1.24822 0
M  V30 1440 C 132.346 -4.39947 -0.544237 0
M  V30 1441 H 129.566 -0.667096 0.0722739 0
M  V30 1442 H 132.11 -1.8623 0.84491 0
M  V30 1443 H 130.265 -3.81135 -0.693865 0
M  V30 1444 H 130.679 -5.13204 1.0827 0
M  V30 1445 H 132.153 -5.48838 -0.589953 0
M  V30 1446 H 132.63 -4.10255 -1.56805 0
M  V30 1447 H 133.236 -4.25188 0.0974703 0
M  V30 1448 N 131.551 -0.354651 -1.53558 0
M  V30 1449 C 132.967 -0.00315426 -1.596 0
M  V30 1450 C 133.167 1.47741 -1.37021 0
M  V30 1451 O 132.223 2.23759 -1.16996 0
M  V30 1452 C 133.536 -0.44929 -2.97325 0
M  V30 1453 C 135.084 -0.402578 -3.104 0
M  V30 1454 C 135.559 -0.824355 -4.5052 0
M  V30 1455 N 137.05 -0.778979 -4.56603 0
M  V30 1456 C 137.785 -1.07715 -5.63192 0
M  V30 1457 N 137.281 -1.44405 -6.77583 0
M  V30 1458 N 139.074 -1.00066 -5.53121 0
M  V30 1459 H 131.225 -1.31893 -1.66487 0
M  V30 1460 H 133.488 -0.538388 -0.780284 0
M  V30 1461 H 133.194 -1.48202 -3.1895 0
M  V30 1462 H 133.068 0.169772 -3.76818 0
M  V30 1463 H 135.455 0.621004 -2.88492 0
M  V30 1464 H 135.536 -1.05699 -2.32941 0
M  V30 1465 H 135.18 -1.846 -4.73165 0
M  V30 1466 H 135.11 -0.147304 -5.26394 0
M  V30 1467 H 137.601 -0.508528 -3.74463 0
M  V30 1468 H 137.914 -1.65612 -7.54846 0
M  V30 1469 H 136.259 -1.4826 -6.79002 0
M  V30 1470 H 139.45 -0.713293 -4.62633 0
M  V30 1471 H 139.623 -1.23638 -6.36096 0
M  V30 1472 N 133.029 1.57378 -0.0835403 0
M  V30 1473 C 134.275 1.95025 0.577664 0
M  V30 1474 C 134.63 0.964049 1.66505 0
M  V30 1475 O 133.923 -0.0118235 1.91596 0
M  V30 1476 C 134.117 3.37063 1.1884 0
M  V30 1477 C 133.946 4.49409 0.16171 0
M  V30 1478 C 132.716 5.04642 -0.257756 0
M  V30 1479 C 134.914 5.10722 -0.605634 0
M  V30 1480 N 132.896 6.00537 -1.27393 0
M  V30 1481 C 134.267 6.02225 -1.47395 0
M  V30 1482 C 136.322 4.93501 -0.660418 0
M  V30 1483 C 135.025 6.78355 -2.39221 0
M  V30 1484 C 137.051 5.70283 -1.56623 0
M  V30 1485 C 136.413 6.61444 -2.4222 0
M  V30 1486 H 132.512 0.760512 0.182058 0
M  V30 1487 H 135.096 1.94013 -0.163419 0
M  V30 1488 H 133.267 3.3879 1.89936 0
M  V30 1489 H 134.999 3.61917 1.81103 0
M  V30 1490 H 131.754 4.73428 0.127702 0
M  V30 1491 H 132.178 6.53184 -1.77987 0
M  V30 1492 H 136.82 4.22798 -0.0128221 0
M  V30 1493 H 134.538 7.48327 -3.05011 0
M  V30 1494 H 138.124 5.58976 -1.61361 0
M  V30 1495 H 137.004 7.1982 -3.11174 0
M  V30 1496 N 134.507 -0.190092 1.56449 0
M  V30 1497 C 135.47 -1.21925 1.9408 0
M  V30 1498 C 136.47 -1.38176 0.822431 0
M  V30 1499 O 137.66 -1.35903 1.08977 0
M  V30 1500 C 134.792 -2.58773 2.21922 0
M  V30 1501 H 135.985 -0.897464 2.86157 0
M  V30 1502 H 133.538 -0.43181 1.50217 0
M  V30 1503 H 134.273 -2.95998 1.32499 0
M  V30 1504 H 134.058 -2.48348 3.03424 0
M  V30 1505 H 135.548 -3.32978 2.52022 0
M  V30 1506 N 135.985 -1.50799 -0.457987 0
M  V30 1507 C 136.932 -1.70617 -1.5543 0
M  V30 1508 C 137.902 -0.547562 -1.56815 0
M  V30 1509 O 139.087 -0.779647 -1.74144 0
M  V30 1510 C 136.227 -1.81831 -2.93311 0
M  V30 1511 C 135.34 -3.09278 -3.01615 0
M  V30 1512 C 134.475 -3.11209 -4.30491 0
M  V30 1513 C 133.514 -4.33055 -4.32585 0
M  V30 1514 N 132.651 -4.32652 -5.52952 0
M  V30 1515 H 137.491 -2.64207 -1.37836 0
M  V30 1516 H 135.028 -1.30959 -0.669937 0
M  V30 1517 H 136.986 -1.86314 -3.73287 0
M  V30 1518 H 135.616 -0.916685 -3.0951 0
M  V30 1519 H 134.668 -3.14203 -2.1443 0
M  V30 1520 H 135.98 -3.99233 -2.99022 0
M  V30 1521 H 135.134 -3.14494 -5.18824 0
M  V30 1522 H 133.873 -2.19106 -4.35711 0
M  V30 1523 H 132.878 -4.29969 -3.42647 0
M  V30 1524 H 134.103 -5.264 -4.29046 0
M  V30 1525 H 132.049 -3.43409 -5.58933 0
M  V30 1526 H 131.966 -5.16392 -5.52155 0
M  V30 1527 H 133.234 -4.40101 -6.43375 0
M  V30 1528 N 137.463 0.71206 -1.40597 0
M  V30 1529 C 138.41 1.82613 -1.41142 0
M  V30 1530 C 139.38 1.63925 -0.267903 0
M  V30 1531 O 140.565 1.85009 -0.466495 0
M  V30 1532 C 137.705 3.20354 -1.28324 0
M  V30 1533 C 136.818 3.50589 -2.52411 0
M  V30 1534 C 135.953 4.77855 -2.32009 0
M  V30 1535 C 134.992 5.01005 -3.51654 0
M  V30 1536 N 134.129 6.19487 -3.30425 0
M  V30 1537 H 138.969 1.81482 -2.36365 0
M  V30 1538 H 136.506 0.886475 -1.17388 0
M  V30 1539 H 138.464 3.99899 -1.18899 0
M  V30 1540 H 137.094 3.20705 -0.367189 0
M  V30 1541 H 136.146 2.65573 -2.72351 0
M  V30 1542 H 137.458 3.63604 -3.41458 0
M  V30 1543 H 136.612 5.65424 -2.19956 0
M  V30 1544 H 135.351 4.67056 -1.40392 0
M  V30 1545 H 134.356 4.1189 -3.64179 0
M  V30 1546 H 135.581 5.13674 -4.44202 0
M  V30 1547 H 133.527 6.09932 -2.41494 0
M  V30 1548 H 133.444 6.33194 -4.13039 0
M  V30 1549 H 134.712 7.09834 -3.22113 0
M  V30 1550 N 138.941 1.26152 0.944643 0
M  V30 1551 C 140.19 1.10883 1.68487 0
M  V30 1552 C 140.503 -0.348153 1.92477 0
M  V30 1553 O 141.709 -0.621459 2.64292 0
M  V30 1554 C 140.165 1.93624 3.03377 0
M  V30 1555 C 139.773 3.43875 2.87148 0
M  V30 1556 C 141.517 1.86954 3.81115 0
M  V30 1557 C 139.424 4.18875 4.1749 0
M  V30 1558 H 138.354 0.41135 0.631907 0
M  V30 1559 H 141.005 1.50433 1.05082 0
M  V30 1560 H 139.387 1.46904 3.67743 0
M  V30 1561 H 140.561 3.98338 2.31653 0
M  V30 1562 H 138.876 3.51744 2.22856 0
M  V30 1563 H 141.473 2.40275 4.77673 0
M  V30 1564 H 141.816 0.839518 4.07747 0
M  V30 1565 H 142.349 2.31477 3.23517 0
M  V30 1566 H 139.088 5.22332 3.96043 0
M  V30 1567 H 138.608 3.69193 4.72712 0
M  V30 1568 H 140.287 4.27134 4.85968 0
M  V30 1569 N 140.419 -1.14872 1.07899 0
M  V30 1570 C 141.329 -2.2341 0.715915 0
M  V30 1571 C 142.345 -1.71808 -0.275306 0
M  V30 1572 O 143.521 -2.01039 -0.120545 0
M  V30 1573 C 140.586 -3.46474 0.125168 0
M  V30 1574 C 139.647 -4.13039 1.17034 0
M  V30 1575 C 138.88 -5.30229 0.607688 0
M  V30 1576 O 139.103 -5.675 -0.574497 0
M  V30 1577 O 138.037 -5.86444 1.35526 0
M  V30 1578 H 141.863 -2.56808 1.62121 0
M  V30 1579 H 139.448 -1.22702 0.852322 0
M  V30 1580 H 141.33 -4.20917 -0.201729 0
M  V30 1581 H 140.005 -3.14811 -0.753364 0
M  V30 1582 H 138.912 -3.40493 1.54968 0
M  V30 1583 H 140.245 -4.48796 2.02097 0
M  V30 1584 N 141.898 -0.863906 -1.31812 0
M  V30 1585 C 142.861 -0.320212 -2.26952 0
M  V30 1586 C 143.861 0.525369 -1.51975 0
M  V30 1587 O 145.051 0.335547 -1.70938 0
M  V30 1588 C 142.183 0.545919 -3.365 0
M  V30 1589 H 143.376 -1.16004 -2.76556 0
M  V30 1590 H 140.929 -0.638995 -1.42641 0
M  V30 1591 H 141.664 1.40718 -2.92179 0
M  V30 1592 H 141.449 -0.0594674 -3.92055 0
M  V30 1593 H 142.939 0.918796 -4.07367 0
M  V30 1594 N 143.376 1.44774 -0.622745 0
M  V30 1595 C 144.792 1.56986 -0.287652 0
M  V30 1596 C 144.992 1.61167 1.20944 0
M  V30 1597 O 144.048 1.55015 1.99315 0
M  V30 1598 C 145.361 2.84551 -0.972188 0
M  V30 1599 C 146.909 2.9825 -0.949536 0
M  V30 1600 C 147.384 4.28605 -1.61437 0
M  V30 1601 N 148.875 4.35399 -1.58057 0
M  V30 1602 C 149.61 5.34964 -2.064 0
M  V30 1603 N 149.106 6.40981 -2.62897 0
M  V30 1604 N 150.899 5.26419 -1.97078 0
M  V30 1605 H 143.05 1.40304 -1.59463 0
M  V30 1606 H 145.313 0.671794 -0.668878 0
M  V30 1607 H 145.019 2.87417 -2.02693 0
M  V30 1608 H 144.893 3.73807 -0.504771 0
M  V30 1609 H 147.28 2.94941 0.0967067 0
M  V30 1610 H 147.361 2.10364 -1.45536 0
M  V30 1611 H 147.005 4.32672 -2.66002 0
M  V30 1612 H 146.935 5.15334 -1.08344 0
M  V30 1613 H 149.426 3.59397 -1.16801 0
M  V30 1614 H 149.739 7.13225 -2.97539 0
M  V30 1615 H 148.084 6.4169 -2.66943 0
M  V30 1616 H 151.275 4.42504 -1.52669 0
M  V30 1617 H 151.448 6.03861 -2.35066 0
M  V30 1618 N 144.854 0.36279 1.53368 0
M  V30 1619 C 145.764 -0.492994 2.29362 0
M  V30 1620 C 146.78 -1.09507 1.35219 0
M  V30 1621 O 147.956 -1.10662 1.68273 0
M  V30 1622 C 145.021 -1.61855 3.066 0
M  V30 1623 C 144.082 -1.04429 4.16405 0
M  V30 1624 C 143.315 -2.11621 4.89951 0
M  V30 1625 O 143.538 -3.32684 4.63333 0
M  V30 1626 O 142.472 -1.74835 5.75948 0
M  V30 1627 H 146.298 0.125331 3.03441 0
M  V30 1628 H 143.883 0.127253 1.48857 0
M  V30 1629 H 145.765 -2.27302 3.54841 0
M  V30 1630 H 144.44 -2.22233 2.3536 0
M  V30 1631 H 143.347 -0.353819 3.72423 0
M  V30 1632 H 144.68 -0.485113 4.89804 0
M  V30 1633 N 146.332 -1.57332 0.0918853 0
M  V30 1634 C 147.748 -1.57389 -0.264766 0
M  V30 1635 C 147.948 -1.10281 -1.68643 0
M  V30 1636 O 147.004 -0.777801 -2.40222 0
M  V30 1637 C 148.317 -3.00648 -0.0561195 0
M  V30 1638 C 149.865 -3.12754 -0.124116 0
M  V30 1639 C 150.34 -4.57965 0.0564972 0
M  V30 1640 N 151.831 -4.632 0.00155611 0
M  V30 1641 C 152.566 -5.73281 0.116598 0
M  V30 1642 N 152.062 -6.92208 0.286294 0
M  V30 1643 N 153.855 -5.6207 0.0580973 0
M  V30 1644 H 146.006 -1.86262 1.02079 0
M  V30 1645 H 148.269 -0.859579 0.399786 0
M  V30 1646 H 147.975 -3.393 0.925669 0
M  V30 1647 H 147.849 -3.68623 -0.799823 0
M  V30 1648 H 150.236 -2.73976 -1.09641 0
M  V30 1649 H 150.317 -2.47377 0.651024 0
M  V30 1650 H 149.961 -4.97436 1.02564 0
M  V30 1651 H 149.891 -5.21399 -0.738297 0
M  V30 1652 H 152.382 -3.77686 -0.127192 0
M  V30 1653 H 152.695 -7.71934 0.365676 0
M  V30 1654 H 151.04 -6.94254 0.32192 0
M  V30 1655 H 154.231 -4.68043 -0.0733204 0
M  V30 1656 H 154.404 -6.47824 0.151203 0
M  V30 1657 N 147.81 0.181792 -1.56548 0
M  V30 1658 C 148.757 1.22521 -1.95595 0
M  V30 1659 C 149.727 1.4454 -0.818373 0
M  V30 1660 O 150.912 1.57454 -1.07763 0
M  V30 1661 C 148.052 2.56193 -2.31212 0
M  V30 1662 C 147.165 2.41641 -3.58097 0
M  V30 1663 C 146.3 3.68108 -3.82975 0
M  V30 1664 C 145.339 3.48445 -5.03242 0
M  V30 1665 N 144.476 4.66956 -5.24306 0
M  V30 1666 H 149.316 0.885226 -2.84548 0
M  V30 1667 H 146.853 0.425718 -1.40805 0
M  V30 1668 H 148.811 3.34088 -2.49882 0
M  V30 1669 H 147.441 2.88208 -1.45382 0
M  V30 1670 H 146.493 1.54976 -3.474 0
M  V30 1671 H 147.805 2.23052 -4.46149 0
M  V30 1672 H 146.959 4.54441 -4.01956 0
M  V30 1673 H 145.698 3.89666 -2.93278 0
M  V30 1674 H 144.703 2.60499 -4.8417 0
M  V30 1675 H 145.928 3.2832 -5.9446 0
M  V30 1676 H 143.874 4.88752 -4.37559 0
M  V30 1677 H 143.791 4.51242 -6.06561 0
M  V30 1678 H 145.059 5.54602 -5.47756 0
M  V30 1679 N 149.288 1.51039 0.449983 0
M  V30 1680 C 150.251 1.70863 1.5277 0
M  V30 1681 C 151.251 0.578846 1.5002 0
M  V30 1682 O 152.441 0.846213 1.52266 0
M  V30 1683 C 149.573 1.75341 2.9235 0
M  V30 1684 H 150.766 2.67034 1.36502 0
M  V30 1685 H 148.319 1.40838 0.677812 0
M  V30 1686 H 149.054 0.809383 3.14037 0
M  V30 1687 H 148.839 2.57436 2.95752 0
M  V30 1688 H 150.329 1.92559 3.70555 0
M  V30 1689 N 150.766 -0.704594 1.40972 0
M  V30 1690 C 151.713 -1.81862 1.42109 0
M  V30 1691 C 152.683 -1.63781 0.276593 0
M  V30 1692 O 153.868 -1.84759 0.4763 0
M  V30 1693 C 151.008 -3.19669 1.30022 0
M  V30 1694 C 150.121 -3.49246 2.54267 0
M  V30 1695 C 149.256 -4.76618 2.3454 0
M  V30 1696 C 148.295 -4.99133 3.54306 0
M  V30 1697 N 147.432 -6.17726 3.33706 0
M  V30 1698 H 152.272 -1.80226 2.37324 0
M  V30 1699 H 149.809 -0.880238 1.17857 0
M  V30 1700 H 151.767 -3.99263 1.21018 0
M  V30 1701 H 150.397 -3.20506 0.384192 0
M  V30 1702 H 149.449 -2.64125 2.73756 0
M  V30 1703 H 150.761 -3.61788 3.43381 0
M  V30 1704 H 149.915 -5.64249 2.22952 0
M  V30 1705 H 148.654 -4.66305 1.42867 0
M  V30 1706 H 147.659 -4.09953 3.66359 0
M  V30 1707 H 148.884 -5.11311 4.4692 0
M  V30 1708 H 146.83 -6.08642 2.44725 0
M  V30 1709 H 146.747 -6.30995 4.16391 0
M  V30 1710 H 148.015 -7.08115 3.25873 0
M  V30 1711 N 152.244 -1.26651 -0.937939 0
M  V30 1712 C 153.177 -1.02811 -2.03728 0
M  V30 1713 C 154.155 0.0481915 -1.62529 0
M  V30 1714 O 155.339 -0.0948839 -1.88261 0
M  V30 1715 C 152.466 -0.557517 -3.3408 0
M  V30 1716 C 151.512 -1.62686 -3.94253 0
M  V30 1717 S 152.345 -3.21667 -4.28125 0
M  V30 1718 C 153.501 -2.76384 -5.61572 0
M  V30 1719 H 153.734 -1.95891 -2.23638 0
M  V30 1720 H 151.267 -1.10367 -1.07974 0
M  V30 1721 H 153.225 -0.292674 -4.09455 0
M  V30 1722 H 151.886 0.353062 -3.12109 0
M  V30 1723 H 151.079 -1.24866 -4.88287 0
M  V30 1724 H 150.681 -1.84324 -3.25424 0
M  V30 1725 H 152.973 -2.2105 -6.40424 0
M  V30 1726 H 153.916 -3.69123 -6.0428 0
M  V30 1727 H 154.324 -2.15847 -5.21604 0
M  V30 1728 N 153.722 1.14298 -1.08507 0
M  V30 1729 C 154.95 1.89219 -0.836876 0
M  V30 1730 C 155.365 1.78638 0.611054 0
M  V30 1731 O 154.722 1.14643 1.41998 0
M  V30 1732 C 154.773 3.39158 -1.25116 0
M  V30 1733 O 154.494 3.49449 -2.64229 0
M  V30 1734 C 155.995 4.31073 -1.03398 0
M  V30 1735 H 153.215 0.599328 -0.301739 0
M  V30 1736 H 155.759 1.44746 -1.44461 0
M  V30 1737 H 153.914 3.81251 -0.687514 0
M  V30 1738 H 154.328 4.42589 -2.81452 0
M  V30 1739 H 155.802 5.34646 -1.37323 0
M  V30 1740 H 156.279 4.3919 0.0289259 0
M  V30 1741 H 156.885 3.94738 -1.58311 0
M  V30 1742 N 155.201 0.870884 1.31352 0
M  V30 1743 C 156.478 0.402907 1.91405 0
M  V30 1744 C 156.858 -1.11512 1.79244 0
M  V30 1745 O 156.206 -1.94411 1.2007 0
M  V30 1746 C 156.416 0.885301 3.37585 0
M  V30 1747 C 157.764 0.911971 4.14691 0
M  V30 1748 O 158.788 0.831016 3.46371 0
M  V30 1749 O 157.647 1.02927 5.3672 0
M  V30 1750 H 154.741 0.120698 0.818145 0
M  V30 1751 H 157.287 0.958857 1.40014 0
M  V30 1752 H 156.059 1.92889 3.40455 0
M  V30 1753 H 155.682 0.307714 3.96407 0
M  V30 1754 N 156.679 -1.44442 0.630414 0
M  V30 1755 C 157.926 -2.02052 0.134617 0
M  V30 1756 C 158.254 -1.49576 -1.24327 0
M  V30 1757 O 157.509 -0.669806 -1.83881 0
M  V30 1758 C 157.808 -3.57332 0.0697835 0
M  V30 1759 C 157.474 -4.29058 1.38635 0
M  V30 1760 C 156.136 -4.4837 1.74694 0
M  V30 1761 C 158.488 -4.69872 2.25543 0
M  V30 1762 C 155.816 -5.05756 2.97369 0
M  V30 1763 C 158.168 -5.28616 3.47487 0
M  V30 1764 C 156.832 -5.46147 3.8377 0
M  V30 1765 H 156.102 -0.739361 0.0492598 0
M  V30 1766 H 158.749 -1.73217 0.816586 0
M  V30 1767 H 157.054 -3.85577 -0.695553 0
M  V30 1768 H 158.751 -3.99637 -0.330344 0
M  V30 1769 H 155.341 -4.14357 1.09574 0
M  V30 1770 H 159.525 -4.54666 1.98979 0
M  V30 1771 H 154.781 -5.17515 3.25558 0
M  V30 1772 H 158.955 -5.59192 4.15063 0
M  V30 1773 H 156.582 -5.9038 4.7891 0
M  V30 1774 N 158.157 -0.370918 -1.53173 0
M  V30 1775 C 159.434 0.273754 -1.93675 0
M  V30 1776 C 159.814 1.65938 -1.3049 0
M  V30 1777 O 159.162 2.23698 -0.465999 0
M  V30 1778 C 159.372 0.318602 -3.47543 0
M  V30 1779 C 160.72 0.556392 -4.20939 0
M  V30 1780 O 161.744 0.399587 -3.53952 0
M  V30 1781 O 160.603 0.862133 -5.39657 0
M  V30 1782 H 157.697 0.165448 -0.810281 0
M  V30 1783 H 160.243 -0.42409 -1.64315 0
M  V30 1784 H 159.015 -0.652687 -3.85818 0
M  V30 1785 H 158.638 1.06212 -3.83151 0
M  V30 1786 N 159.635 1.57281 -0.100228 0
M  V30 1787 C 161.051 1.57527 0.256416 0
M  V30 1788 C 161.251 1.11173 1.68056 0
M  V30 1789 O 160.307 0.79053 2.39806 0
M  V30 1790 C 161.62 3.00673 0.0401747 0
M  V30 1791 C 163.168 3.12815 0.107528 0
M  V30 1792 C 163.643 4.57929 -0.0807834 0
M  V30 1793 N 165.134 4.63193 -0.0261207 0
M  V30 1794 C 165.869 5.73212 -0.146999 0
M  V30 1795 N 165.365 6.92047 -0.322999 0
M  V30 1796 N 167.158 5.62031 -0.0879044 0
M  V30 1797 H 159.309 1.85718 -1.03065 0
M  V30 1798 H 161.572 0.857446 -0.404339 0
M  V30 1799 H 161.278 3.38804 -0.943649 0
M  V30 1800 H 161.152 3.69042 0.780262 0
M  V30 1801 H 163.539 2.74554 1.08186 0
M  V30 1802 H 163.62 2.47028 -0.664134 0
M  V30 1803 H 163.264 4.96886 -1.05201 0
M  V30 1804 H 163.194 5.21783 0.710635 0
M  V30 1805 H 165.685 3.77748 0.107161 0
M  V30 1806 H 165.998 7.7173 -0.406608 0
M  V30 1807 H 164.343 6.94074 -0.358733 0
M  V30 1808 H 167.534 4.68075 0.048498 0
M  V30 1809 H 167.707 6.47734 -0.185557 0
M  V30 1810 N 161.113 -0.173488 1.56642 0
M  V30 1811 C 162.36 -0.890465 1.81871 0
M  V30 1812 C 162.688 -1.82339 0.67696 0
M  V30 1813 O 161.943 -1.92795 -0.335926 0
M  V30 1814 C 162.242 -1.72069 3.13252 0
M  V30 1815 C 161.908 -0.936878 4.41059 0
M  V30 1816 C 160.57 -0.720545 4.75775 0
M  V30 1817 C 162.922 -0.386919 5.19762 0
M  V30 1818 C 160.25 0.0568829 5.86672 0
M  V30 1819 C 162.602 0.37741 6.31473 0
M  V30 1820 C 161.266 0.604563 6.64757 0
M  V30 1821 H 160.536 -0.325844 0.665512 0
M  V30 1822 H 163.183 -0.155527 1.90867 0
M  V30 1823 H 161.488 -2.52496 2.99588 0
M  V30 1824 H 163.185 -2.27844 3.29982 0
M  V30 1825 H 159.775 -1.11553 4.13828 0
M  V30 1826 H 163.959 -0.541398 4.93338 0
M  V30 1827 H 159.215 0.242635 6.10918 0
M  V30 1828 H 163.389 0.810825 6.91664 0
M  V30 1829 H 161.016 1.20885 7.50527 0
M  V30 1830 N 162.591 -1.51276 -0.441967 0
M  V30 1831 C 163.538 -1.72256 -1.53612 0
M  V30 1832 C 164.508 -0.564164 -1.56225 0
M  V30 1833 O 165.693 -0.798074 -1.73307 0
M  V30 1834 C 162.833 -1.84932 -2.91366 0
M  V30 1835 C 161.946 -3.12459 -2.98317 0
M  V30 1836 C 161.081 -3.15758 -4.27166 0
M  V30 1837 C 160.12 -4.37619 -4.27967 0
M  V30 1838 N 159.257 -4.38493 -5.48333 0
M  V30 1839 H 164.097 -2.65654 -1.35026 0
M  V30 1840 H 161.634 -1.31662 -0.656009 0
M  V30 1841 H 163.592 -1.90263 -3.7129 0
M  V30 1842 H 162.222 -0.949461 -3.08521 0
M  V30 1843 H 161.274 -3.1646 -2.11086 0
M  V30 1844 H 162.586 -4.02382 -2.94771 0
M  V30 1845 H 161.74 -3.19979 -5.15459 0
M  V30 1846 H 160.479 -2.23715 -4.33362 0
M  V30 1847 H 159.484 -4.33579 -3.38067 0
M  V30 1848 H 160.709 -5.30921 -4.23438 0
M  V30 1849 H 158.655 -3.49318 -5.55259 0
M  V30 1850 H 158.572 -5.22219 -5.46647 0
M  V30 1851 H 159.84 -4.469 -6.38671 0
M  V30 1852 N 164.069 0.697108 -1.41344 0
M  V30 1853 C 165.315 1.4593 -1.40827 0
M  V30 1854 C 165.648 1.94193 -0.0167098 0
M  V30 1855 O 164.923 1.69425 0.955263 0
M  V30 1856 C 165.206 2.67229 -2.41373 0
M  V30 1857 C 165.059 2.24741 -3.8963 0
M  V30 1858 C 166.378 3.69423 -2.39196 0
M  V30 1859 H 163.497 0.529303 -0.512842 0
M  V30 1860 H 166.139 0.794112 -1.72609 0
M  V30 1861 H 164.289 3.23982 -2.14401 0
M  V30 1862 H 165.961 1.73327 -4.27499 0
M  V30 1863 H 164.204 1.56542 -4.0457 0
M  V30 1864 H 164.875 3.1177 -4.55525 0
M  V30 1865 H 167.351 3.2234 -2.63128 0
M  V30 1866 H 166.227 4.51907 -3.11563 0
M  V30 1867 H 166.488 4.19012 -1.41001 0
M  V30 1868 N 165.547 1.27147 0.931209 0
M  V30 1869 C 166.48 1.0389 2.0318 0
M  V30 1870 C 167.458 -0.0395716 1.62552 0
M  V30 1871 O 168.642 0.104867 1.88208 0
M  V30 1872 C 165.769 0.575227 3.3378 0
M  V30 1873 C 164.815 1.64774 3.93385 0
M  V30 1874 S 165.648 3.23933 4.26413 0
M  V30 1875 C 166.804 2.79358 5.60098 0
M  V30 1876 H 167.037 1.97075 2.22596 0
M  V30 1877 H 164.57 1.10938 1.07387 0
M  V30 1878 H 166.528 0.314385 4.09294 0
M  V30 1879 H 165.189 -0.336505 3.12292 0
M  V30 1880 H 164.382 1.27454 4.87618 0
M  V30 1881 H 163.984 1.86048 3.24441 0
M  V30 1882 H 166.276 2.24443 6.39243 0
M  V30 1883 H 167.219 3.72322 6.02314 0
M  V30 1884 H 167.627 2.1861 5.20452 0
M  V30 1885 N 167.025 -1.13721 1.09112 0
M  V30 1886 C 167.972 -2.19031 0.727591 0
M  V30 1887 C 168.942 -1.63555 -0.289656 0
M  V30 1888 O 170.127 -1.90023 -0.172026 0
M  V30 1889 C 167.267 -3.4477 0.15082 0
M  V30 1890 C 166.38 -4.14365 1.22172 0
M  V30 1891 C 165.515 -5.27709 0.608042 0
M  V30 1892 C 164.554 -5.89147 1.66047 0
M  V30 1893 N 163.691 -6.93929 1.06806 0
M  V30 1894 H 168.531 -2.49475 1.62991 0
M  V30 1895 H 166.068 -1.22499 0.81439 0
M  V30 1896 H 168.026 -4.16714 -0.201358 0
M  V30 1897 H 166.656 -3.14787 -0.714783 0
M  V30 1898 H 165.708 -3.40737 1.69122 0
M  V30 1899 H 167.02 -4.56114 2.01895 0
M  V30 1900 H 166.174 -6.06355 0.204523 0
M  V30 1901 H 164.913 -4.872 -0.220769 0
M  V30 1902 H 163.918 -5.09198 2.07357 0
M  V30 1903 H 165.143 -6.31729 2.49189 0
M  V30 1904 H 163.089 -6.55483 0.260476 0
M  V30 1905 H 163.006 -7.34202 1.8023 0
M  V30 1906 H 164.274 -7.76434 0.690644 0
M  V30 1907 N 168.503 -0.877838 -1.30888 0
M  V30 1908 C 169.466 -0.344265 -2.266 0
M  V30 1909 C 170.466 0.50922 -1.52524 0
M  V30 1910 O 171.656 0.317398 -1.71284 0
M  V30 1911 C 168.788 0.510198 -3.37061 0
M  V30 1912 H 169.981 -1.1893 -2.7531 0
M  V30 1913 H 167.534 -0.654088 -1.41956 0
M  V30 1914 H 168.269 1.37612 -2.93655 0
M  V30 1915 H 168.054 -0.101047 -3.9197 0
M  V30 1916 H 169.544 0.875537 -4.08319 0
M  V30 1917 N 169.982 1.44106 -0.638065 0
M  V30 1918 C 170.929 2.30715 0.062701 0
M  V30 1919 C 171.899 1.43882 0.829883 0
M  V30 1920 O 173.084 1.72775 0.809532 0
M  V30 1921 C 170.224 3.29258 1.03358 0
M  V30 1922 C 169.337 4.31192 0.26409 0
M  V30 1923 C 168.472 5.16825 1.22741 0
M  V30 1924 C 167.511 6.10462 0.447475 0
M  V30 1925 N 166.648 6.8877 1.36161 0
M  V30 1926 H 171.488 2.90096 -0.681781 0
M  V30 1927 H 169.025 1.42925 -0.347988 0
M  V30 1928 H 170.983 3.84886 1.60992 0
M  V30 1929 H 169.613 2.71562 1.74511 0
M  V30 1930 H 168.665 3.77981 -0.428295 0
M  V30 1931 H 169.977 4.97619 -0.343052 0
M  V30 1932 H 169.131 5.77004 1.87487 0
M  V30 1933 H 167.87 4.50488 1.86847 0
M  V30 1934 H 166.875 5.49386 -0.213433 0
M  V30 1935 H 168.1 6.78837 -0.188968 0
M  V30 1936 H 166.046 6.25096 1.98975 0
M  V30 1937 H 165.963 7.51663 0.808656 0
M  V30 1938 H 167.231 7.53467 1.99769 0
M  V30 1939 N 171.46 0.379036 1.52974 0
M  V30 1940 C 172.407 -0.461048 2.26148 0
M  V30 1941 C 173.377 -1.06637 1.27349 0
M  V30 1942 O 174.562 -1.09633 1.56157 0
M  V30 1943 C 171.702 -1.58782 3.06402 0
M  V30 1944 C 170.815 -1.00636 4.20115 0
M  V30 1945 C 169.95 -2.10334 4.87784 0
M  V30 1946 C 168.989 -1.49724 5.93506 0
M  V30 1947 N 168.126 -2.5331 6.54812 0
M  V30 1948 H 172.966 0.169429 2.97518 0
M  V30 1949 H 170.503 0.0953806 1.4679 0
M  V30 1950 H 172.461 -2.25174 3.51215 0
M  V30 1951 H 171.091 -2.18876 2.37261 0
M  V30 1952 H 170.143 -0.232332 3.7969 0
M  V30 1953 H 171.455 -0.523343 4.96047 0
M  V30 1954 H 170.609 -2.84519 5.35849 0
M  V30 1955 H 169.348 -2.61992 4.11353 0
M  V30 1956 H 168.353 -0.740598 5.44789 0
M  V30 1957 H 169.578 -0.988732 6.71864 0
M  V30 1958 H 167.524 -3.04156 5.81227 0
M  V30 1959 H 167.441 -2.09734 7.26325 0
M  V30 1960 H 168.709 -3.27155 7.07524 0
M  V30 1961 N 172.938 -1.57226 0.108567 0
M  V30 1962 C 173.871 -2.10447 -0.882464 0
M  V30 1963 C 174.849 -1.01829 -1.26766 0
M  V30 1964 O 176.033 -1.29415 -1.37054 0
M  V30 1965 C 173.16 -2.59258 -2.17952 0
M  V30 1966 C 172.206 -3.79662 -1.94318 0
M  V30 1967 S 173.039 -5.22586 -1.16892 0
M  V30 1968 C 174.195 -5.74758 -2.47799 0
M  V30 1969 H 174.428 -2.94178 -0.429745 0
M  V30 1970 H 171.961 -1.54043 -0.105 0
M  V30 1971 H 173.919 -2.88036 -2.92482 0
M  V30 1972 H 172.58 -1.75728 -2.60343 0
M  V30 1973 H 171.773 -4.11928 -2.90399 0
M  V30 1974 H 171.375 -3.51446 -1.27913 0
M  V30 1975 H 173.667 -5.83846 -3.43701 0
M  V30 1976 H 174.61 -6.73027 -2.20093 0
M  V30 1977 H 175.018 -5.02763 -2.56689 0
M  V30 1978 N 174.416 0.165178 -1.56732 0
M  V30 1979 C 175.832 0.517174 -1.50988 0
M  V30 1980 C 176.032 1.84331 -0.813894 0
M  V30 1981 O 175.088 2.49672 -0.37682 0
M  V30 1982 C 176.401 0.544261 -2.95733 0
M  V30 1983 C 177.949 0.631039 -3.06573 0
M  V30 1984 C 178.424 0.68896 -4.52788 0
M  V30 1985 N 179.915 0.751683 -4.5706 0
M  V30 1986 C 180.65 0.817177 -5.67547 0
M  V30 1987 N 180.146 0.843129 -6.8765 0
M  V30 1988 N 181.939 0.856668 -5.55534 0
M  V30 1989 H 174.09 -0.704318 -2.00382 0
M  V30 1990 H 176.353 -0.254687 -0.913148 0
M  V30 1991 H 176.059 -0.361607 -3.49836 0
M  V30 1992 H 175.933 1.3886 -3.5071 0
M  V30 1993 H 178.32 1.52733 -2.52501 0
M  V30 1994 H 178.401 -0.240095 -2.54671 0
M  V30 1995 H 178.045 -0.2031 -5.07494 0
M  V30 1996 H 177.975 1.57633 -5.02454 0
M  V30 1997 H 180.466 0.739661 -3.70591 0
M  V30 1998 H 180.779 0.894448 -7.67606 0
M  V30 1999 H 179.124 0.811304 -6.90248 0
M  V30 2000 H 182.315 0.833437 -4.60621 0
M  V30 2001 H 182.488 0.904247 -6.4166 0
M  V30 2002 N 175.894 1.51508 0.433938 0
M  V30 2003 C 176.842 1.73646 1.54757 0
M  V30 2004 C 177.836 0.602854 1.5831 0
M  V30 2005 O 179.042 0.784318 1.62014 0
M  V30 2006 H 175.417 0.548718 0.51421 0
M  V30 2007 H 177.388 2.66991 1.33261 0
M  V30 2008 C 176.137 1.88172 2.92381 0
M  V30 2009 H 175.46 2.74808 2.90381 0
M  V30 2010 H 176.9 2.07672 3.6966 0
M  V30 2011 C 175.359 0.64239 3.30719 0
M  V30 2012 O 175.889 -0.201362 4.01195 0
M  V30 2013 N 174.095 0.485489 2.86516 0
M  V30 2014 H 173.642 1.17318 2.29334 0
M  V30 2015 H 173.6 -0.342482 3.12529 0
M  V30 2016 N 177.372 -0.689602 1.41712 0
M  V30 2017 C 178.788 -1.00093 1.24312 0
M  V30 2018 C 178.988 -2.01036 0.136729 0
M  V30 2019 O 178.044 -2.47562 -0.496918 0
M  V30 2020 C 179.357 -1.51985 2.59463 0
M  V30 2021 C 180.905 -1.63838 2.66695 0
M  V30 2022 C 181.38 -2.1913 4.02177 0
M  V30 2023 N 182.871 -2.26483 4.04054 0
M  V30 2024 C 183.606 -2.70306 5.0569 0
M  V30 2025 N 183.102 -3.13691 6.17713 0
M  V30 2026 N 184.895 -2.69923 4.9305 0
M  V30 2027 H 177.046 -0.0210029 2.1239 0
M  V30 2028 H 179.309 -0.0718733 0.945272 0
M  V30 2029 H 179.015 -0.85269 3.41207 0
M  V30 2030 H 178.889 -2.50103 2.82362 0
M  V30 2031 H 181.276 -2.29664 1.85306 0
M  V30 2032 H 181.357 -0.642492 2.476 0
M  V30 2033 H 181.001 -1.53918 4.84016 0
M  V30 2034 H 180.931 -3.19482 4.18615 0
M  V30 2035 H 183.422 -1.95874 3.23174 0
M  V30 2036 H 183.735 -3.45773 6.9113 0
M  V30 2037 H 182.08 -3.11585 6.21241 0
M  V30 2038 H 185.271 -2.35382 4.04614 0
M  V30 2039 H 185.444 -3.03758 5.72394 0
M  V30 2040 N 178.85 -1.27639 -0.924453 0
M  V30 2041 C 180.099 -1.13549 -1.66702 0
M  V30 2042 C 180.412 0.317487 -1.93006 0
M  V30 2043 O 181.618 0.579333 -2.65247 0
M  V30 2044 C 180.074 -1.98426 -3.00259 0
M  V30 2045 C 179.682 -3.484 -2.81641 0
M  V30 2046 C 181.426 -1.92993 -3.78092 0
M  V30 2047 C 179.333 -4.25464 -4.10773 0
M  V30 2048 H 178.263 -0.421351 -0.625283 0
M  V30 2049 H 180.914 -1.52085 -1.02676 0
M  V30 2050 H 179.296 -1.52736 -3.6536 0
M  V30 2051 H 180.47 -4.01973 -2.25287 0
M  V30 2052 H 178.785 -3.55245 -2.17232 0
M  V30 2053 H 181.382 -2.47844 -4.7379 0
M  V30 2054 H 181.725 -0.904281 -4.0636 0
M  V30 2055 H 182.258 -2.36595 -3.19793 0
M  V30 2056 H 178.997 -5.28566 -3.87683 0
M  V30 2057 H 178.517 -3.76667 -4.66779 0
M  V30 2058 H 180.196 -4.34812 -4.79111 0
M  V30 2059 N 180.328 1.1314 -1.09713 0
M  V30 2060 C 181.577 1.83838 -0.829851 0
M  V30 2061 C 181.89 1.84599 0.646728 0
M  V30 2062 O 183.096 2.51218 1.02965 0
M  V30 2063 C 181.552 3.30069 -1.43466 0
M  V30 2064 C 181.16 3.37688 -2.94399 0
M  V30 2065 C 182.904 4.05788 -1.24645 0
M  V30 2066 C 180.811 4.78209 -3.47952 0
M  V30 2067 H 179.741 0.68877 -0.306777 0
M  V30 2068 H 182.392 1.27448 -1.3202 0
M  V30 2069 H 180.774 3.8628 -0.871996 0
M  V30 2070 H 181.948 2.91456 -3.56918 0
M  V30 2071 H 180.263 2.75436 -3.12289 0
M  V30 2072 H 182.86 5.09535 -1.62107 0
M  V30 2073 H 183.203 4.15878 -0.187357 0
M  V30 2074 H 183.736 3.55915 -1.77678 0
M  V30 2075 H 180.475 4.73311 -4.53495 0
M  V30 2076 H 179.995 5.24924 -2.90198 0
M  V30 2077 H 181.674 5.47133 -3.45332 0
M  V30 2078 N 181.806 0.884767 1.30421 0
M  V30 2079 C 182.753 0.349642 2.28136 0
M  V30 2080 C 183.723 -0.560061 1.56373 0
M  V30 2081 O 184.908 -0.488524 1.8444 0
M  V30 2082 C 182.048 -0.42999 3.42411 0
M  V30 2083 C 181.161 0.508907 4.28992 0
M  V30 2084 C 180.296 -0.286301 5.30428 0
M  V30 2085 C 179.335 0.648079 6.08659 0
M  V30 2086 N 178.472 -0.111792 7.02011 0
M  V30 2087 H 183.312 1.18807 2.73293 0
M  V30 2088 H 180.849 0.597231 1.3443 0
M  V30 2089 H 182.807 -0.897923 4.07423 0
M  V30 2090 H 181.437 -1.23299 2.98324 0
M  V30 2091 H 180.489 1.09533 3.64289 0
M  V30 2092 H 181.801 1.22475 4.8353 0
M  V30 2093 H 180.955 -0.816098 6.01186 0
M  V30 2094 H 179.694 -1.03536 4.76583 0
M  V30 2095 H 178.699 1.18951 5.36778 0
M  V30 2096 H 179.924 1.39623 6.64592 0
M  V30 2097 H 177.87 -0.843395 6.50556 0
M  V30 2098 H 177.787 0.544429 7.54037 0
M  V30 2099 H 179.055 -0.622339 7.77012 0
M  V30 2100 N 183.284 -1.43765 0.645699 0
M  V30 2101 C 184.232 -2.32516 -0.0624849 0
M  V30 2102 C 185.226 -1.48183 -0.820855 0
M  V30 2103 O 186.432 -1.64439 -0.732106 0
M  V30 2104 H 182.807 -0.750989 -0.0389864 0
M  V30 2105 H 184.778 -2.89979 0.703892 0
M  V30 2106 C 183.527 -3.32389 -1.02044 0
M  V30 2107 H 182.85 -3.97301 -0.446312 0
M  V30 2108 H 184.29 -3.97138 -1.48517 0
M  V30 2109 C 182.749 -2.62416 -2.11281 0
M  V30 2110 O 183.279 -2.434 -3.19561 0
M  V30 2111 N 181.485 -2.21913 -1.87624 0
M  V30 2112 H 181.032 -2.37578 -0.995703 0
M  V30 2113 H 180.99 -1.75424 -2.6091 0
M  V30 2114 N 184.763 -0.387143 -1.52771 0
M  V30 2115 C 185.673 0.456442 -2.30117 0
M  V30 2116 C 186.689 1.07342 -1.36944 0
M  V30 2117 O 187.865 1.07971 -1.70013 0
M  V30 2118 C 184.93 1.56957 -3.09136 0
M  V30 2119 C 183.991 0.977916 -4.18014 0
M  V30 2120 C 183.224 2.038 -4.93256 0
M  V30 2121 O 183.447 3.25271 -4.68567 0
M  V30 2122 O 182.381 1.6565 -5.78657 0
M  V30 2123 H 186.207 -0.17359 -3.03203 0
M  V30 2124 H 183.792 -0.150919 -1.48636 0
M  V30 2125 H 185.674 2.21628 -3.58412 0
M  V30 2126 H 184.349 2.18461 -2.38865 0
M  V30 2127 H 183.256 0.294525 -3.72939 0
M  V30 2128 H 184.589 0.407128 -4.90513 0
M  V30 2129 N 186.241 1.57166 -0.116904 0
M  V30 2130 C 187.487 1.95412 0.542405 0
M  V30 2131 C 187.82 1.00019 1.66463 0
M  V30 2132 O 187.095 0.0370346 1.94465 0
M  V30 2133 C 187.378 3.43615 1.07708 0
M  V30 2134 C 187.231 4.49781 -0.0415868 0
M  V30 2135 C 188.55 3.93616 1.96861 0
M  V30 2136 H 185.669 0.710543 0.195696 0
M  V30 2137 H 188.311 1.89027 -0.192038 0
M  V30 2138 H 186.461 3.49187 1.70296 0
M  V30 2139 H 188.133 4.56308 -0.676793 0
M  V30 2140 H 186.376 4.28033 -0.705019 0
M  V30 2141 H 187.047 5.50733 0.373717 0
M  V30 2142 H 189.523 3.90335 1.44146 0
M  V30 2143 H 188.399 4.97838 2.3119 0
M  V30 2144 H 188.66 3.34188 2.89432 0
M  V30 2145 N 187.719 -0.156864 1.56817 0
M  V30 2146 C 188.666 -1.19394 1.97519 0
M  V30 2147 C 189.636 -1.4322 0.841265 0
M  V30 2148 O 190.821 -1.55719 1.10255 0
M  V30 2149 C 187.961 -2.52483 2.35258 0
M  V30 2150 C 187.074 -2.35914 3.61896 0
M  V30 2151 C 186.209 -3.61969 3.88782 0
M  V30 2152 C 185.248 -3.40395 5.08722 0
M  V30 2153 N 184.385 -4.58556 5.31668 0
M  V30 2154 H 189.225 -0.839845 2.85921 0
M  V30 2155 H 186.762 -0.403264 1.41464 0
M  V30 2156 H 188.72 -3.30071 2.55165 0
M  V30 2157 H 187.35 -2.85859 1.49949 0
M  V30 2158 H 186.402 -1.49429 3.49821 0
M  V30 2159 H 187.714 -2.15926 4.49641 0
M  V30 2160 H 186.868 -4.47989 4.09135 0
M  V30 2161 H 185.607 -3.84951 2.9944 0
M  V30 2162 H 184.612 -2.52763 4.88253 0
M  V30 2163 H 185.837 -3.18822 5.99608 0
M  V30 2164 H 183.783 -4.81729 4.45279 0
M  V30 2165 H 183.7 -4.41535 6.13664 0
M  V30 2166 H 184.968 -5.45817 5.5651 0
M  V30 2167 N 189.197 -1.51736 -0.425897 0
M  V30 2168 C 190.144 -1.73875 -1.51776 0
M  V30 2169 C 191.114 -0.580702 -1.55618 0
M  V30 2170 O 192.299 -0.81641 -1.72451 0
M  V30 2171 C 189.439 -1.88012 -2.89388 0
M  V30 2172 C 188.552 -3.15606 -2.94986 0
M  V30 2173 C 187.687 -3.20271 -4.23793 0
M  V30 2174 C 186.726 -4.42134 -4.23302 0
M  V30 2175 N 185.863 -4.44284 -5.43651 0
M  V30 2176 H 190.703 -2.67071 -1.32201 0
M  V30 2177 H 188.24 -1.32351 -0.642008 0
M  V30 2178 H 190.198 -1.9419 -3.69251 0
M  V30 2179 H 188.828 -0.98213 -3.07496 0
M  V30 2180 H 187.88 -3.18681 -2.07717 0
M  V30 2181 H 189.192 -4.05486 -2.90486 0
M  V30 2182 H 188.346 -3.25428 -5.12036 0
M  V30 2183 H 187.085 -2.28299 -4.30965 0
M  V30 2184 H 186.09 -4.3714 -3.3345 0
M  V30 2185 H 187.315 -5.35382 -4.17783 0
M  V30 2186 H 185.261 -3.55188 -5.51523 0
M  V30 2187 H 185.178 -5.27988 -5.41078 0
M  V30 2188 H 186.446 -4.53649 -6.33895 0
M  V30 2189 N 190.675 0.682077 -1.42076 0
M  V30 2190 C 191.605 1.80796 -1.47767 0
M  V30 2191 C 192.586 1.6677 -0.334954 0
M  V30 2192 O 193.771 1.863 -0.548264 0
M  V30 2193 C 190.901 3.19038 -1.37229 0
M  V30 2194 C 189.855 3.47789 -2.49453 0
M  V30 2195 C 189.181 4.8553 -2.23975 0
M  V30 2196 C 190.481 3.45411 -3.91776 0
M  V30 2197 H 192.175 1.7629 -2.41997 0
M  V30 2198 H 189.721 0.846721 -1.16476 0
M  V30 2199 H 191.674 3.97528 -1.39821 0
M  V30 2200 H 190.398 3.24204 -0.394907 0
M  V30 2201 H 189.057 2.71657 -2.46166 0
M  V30 2202 H 188.705 4.87337 -1.24547 0
M  V30 2203 H 188.405 5.0573 -2.99184 0
M  V30 2204 H 189.929 5.66312 -2.28304 0
M  V30 2205 H 191.343 4.13882 -3.96705 0
M  V30 2206 H 189.74 3.77145 -4.66778 0
M  V30 2207 H 190.81 2.44122 -4.18966 0
M  V30 2208 N 192.153 1.28127 0.917671 0
M  V30 2209 C 193.085 1.07517 2.02417 0
M  V30 2210 C 194.098 0.0281099 1.62776 0
M  V30 2211 O 195.287 0.270748 1.76435 0
M  V30 2212 C 192.387 0.610957 3.33347 0
M  V30 2213 C 191.56 1.73255 4.01624 0
M  V30 2214 C 190.619 1.26238 5.10833 0
M  V30 2215 O 189.645 1.96389 5.34247 0
M  V30 2216 N 190.847 0.123448 5.80369 0
M  V30 2217 H 193.612 2.02806 2.20658 0
M  V30 2218 H 191.173 1.19827 1.08871 0
M  V30 2219 H 193.165 0.280101 4.0373 0
M  V30 2220 H 191.735 -0.24898 3.11607 0
M  V30 2221 H 190.955 2.23319 3.24842 0
M  V30 2222 H 192.243 2.48503 4.43986 0
M  V30 2223 H 191.641 -0.461847 5.63812 0
M  V30 2224 H 190.198 -0.148158 6.51632 0
M  V30 2225 N 193.631 -1.12557 1.10312 0
M  V30 2226 C 194.578 -2.18247 0.750781 0
M  V30 2227 C 195.548 -1.63853 -0.272293 0
M  V30 2228 O 196.733 -1.90195 -0.151862 0
M  V30 2229 C 193.873 -3.44591 0.187379 0
M  V30 2230 C 192.986 -4.13046 1.2656 0
M  V30 2231 C 192.121 -5.27034 0.663978 0
M  V30 2232 C 191.16 -5.87353 1.72287 0
M  V30 2233 N 190.297 -6.92757 1.1416 0
M  V30 2234 H 195.137 -2.47732 1.65628 0
M  V30 2235 H 192.674 -1.21629 0.827337 0
M  V30 2236 H 194.632 -4.16904 -0.157148 0
M  V30 2237 H 193.262 -3.15527 -0.681355 0
M  V30 2238 H 192.314 -3.38924 1.72727 0
M  V30 2239 H 193.626 -4.53947 2.06721 0
M  V30 2240 H 192.78 -6.06104 0.268824 0
M  V30 2241 H 191.519 -4.87407 -0.169082 0
M  V30 2242 H 190.524 -5.06971 2.12746 0
M  V30 2243 H 191.749 -6.29051 2.55875 0
M  V30 2244 H 189.695 -6.5517 0.329984 0
M  V30 2245 H 189.612 -7.3225 1.88007 0
M  V30 2246 H 190.88 -7.75658 0.772956 0
M  V30 2247 N 195.109 -0.891671 -1.2995 0
M  V30 2248 C 196.072 -0.36828 -2.26222 0
M  V30 2249 C 197.072 0.493014 -1.53056 0
M  V30 2250 O 198.262 0.299213 -1.71611 0
M  V30 2251 C 195.394 0.47442 -3.37583 0
M  V30 2252 H 196.587 -1.21844 -2.74033 0
M  V30 2253 H 194.14 -0.669107 -1.41254 0
M  V30 2254 H 194.875 1.34489 -2.95099 0
M  V30 2255 H 194.66 -0.142615 -3.91841 0
M  V30 2256 H 196.15 0.83218 -4.09224 0
M  V30 2257 N 196.587 1.43421 -0.653314 0
M  V30 2258 C 197.55 2.29182 0.0287951 0
M  V30 2259 C 198.55 1.42213 0.750465 0
M  V30 2260 O 199.74 1.63843 0.591701 0
M  V30 2261 C 196.872 3.24278 1.05151 0
M  V30 2262 H 198.065 2.90985 -0.725786 0
M  V30 2263 H 195.618 1.50702 -0.414545 0
M  V30 2264 H 196.353 2.6737 1.83532 0
M  V30 2265 H 196.138 3.88396 0.537687 0
M  V30 2266 H 197.628 3.88647 1.52786 0
M  V30 2267 N 198.065 0.39524 1.52563 0
M  V30 2268 C 198.995 -0.428384 2.29537 0
M  V30 2269 C 199.976 -1.05831 1.33169 0
M  V30 2270 O 201.161 -1.06995 1.62067 0
M  V30 2271 C 198.291 -1.55274 3.10656 0
M  V30 2272 C 197.245 -1.04855 4.14957 0
M  V30 2273 C 196.571 -2.26543 4.84337 0
M  V30 2274 C 197.871 -0.112324 5.22179 0
M  V30 2275 H 199.565 0.213867 2.98635 0
M  V30 2276 H 197.111 0.104298 1.43622 0
M  V30 2277 H 199.064 -2.1358 3.63265 0
M  V30 2278 H 197.788 -2.22266 2.39302 0
M  V30 2279 H 196.447 -0.487985 3.63338 0
M  V30 2280 H 196.095 -2.92059 4.09525 0
M  V30 2281 H 195.795 -1.93466 5.54837 0
M  V30 2282 H 197.319 -2.85481 5.39753 0
M  V30 2283 H 198.733 -0.603752 5.70112 0
M  V30 2284 H 197.13 0.128968 5.99961 0
M  V30 2285 H 198.2 0.837052 4.77621 0
M  V30 2286 N 199.544 -1.57102 0.125237 0
M  V30 2287 C 200.474 -2.18659 -0.819174 0
M  V30 2288 C 201.455 -1.12843 -1.27281 0
M  V30 2289 O 202.64 -1.41104 -1.33429 0
M  V30 2290 C 199.77 -2.79096 -2.06695 0
M  V30 2291 C 198.724 -3.90548 -1.75088 0
M  V30 2292 C 198.05 -4.37821 -3.06948 0
M  V30 2293 C 199.35 -5.12356 -1.01435 0
M  V30 2294 H 201.044 -2.9783 -0.306202 0
M  V30 2295 H 198.59 -1.4326 -0.145839 0
M  V30 2296 H 200.543 -3.2082 -2.73226 0
M  V30 2297 H 199.267 -1.97223 -2.60328 0
M  V30 2298 H 197.926 -3.49409 -1.10944 0
M  V30 2299 H 197.574 -3.52799 -3.58527 0
M  V30 2300 H 197.274 -5.12982 -2.86571 0
M  V30 2301 H 198.798 -4.822 -3.74587 0
M  V30 2302 H 200.212 -5.5106 -1.58132 0
M  V30 2303 H 198.609 -5.9314 -0.911319 0
M  V30 2304 H 199.679 -4.849 -0.00218681 0
M  V30 2305 N 201.022 0.148545 -1.56898 0
M  V30 2306 C 201.969 1.18345 -1.98149 0
M  V30 2307 C 202.939 1.42772 -0.848848 0
M  V30 2308 O 204.124 1.55132 -1.11079 0
M  V30 2309 C 201.264 2.51231 -2.36594 0
M  V30 2310 C 200.377 2.33991 -3.63142 0
M  V30 2311 C 199.512 3.59902 -3.90697 0
M  V30 2312 C 198.551 3.37692 -5.1052 0
M  V30 2313 N 197.688 4.5573 -5.34092 0
M  V30 2314 H 202.528 0.82467 -2.86362 0
M  V30 2315 H 200.065 0.395756 -1.41676 0
M  V30 2316 H 202.023 3.28713 -2.56912 0
M  V30 2317 H 200.653 2.85059 -1.51463 0
M  V30 2318 H 199.705 1.47572 -3.50609 0
M  V30 2319 H 201.017 2.13539 -4.5078 0
M  V30 2320 H 200.171 4.45813 -4.11505 0
M  V30 2321 H 198.91 3.83357 -3.01477 0
M  V30 2322 H 197.915 2.5017 -4.89587 0
M  V30 2323 H 199.14 3.15637 -6.0129 0
M  V30 2324 H 197.086 4.79361 -4.47827 0
M  V30 2325 H 197.003 4.38274 -6.15996 0
M  V30 2326 H 198.271 5.42858 -5.59397 0
M  V30 2327 N 202.5 1.5196 0.417844 0
M  V30 2328 C 203.463 1.74065 1.49111 0
M  V30 2329 C 204.463 0.610537 1.48758 0
M  V30 2330 O 205.653 0.87832 1.50437 0
M  V30 2331 C 202.785 1.81502 2.88565 0
M  V30 2332 H 203.978 2.69869 1.30807 0
M  V30 2333 H 201.531 1.42244 0.647785 0
M  V30 2334 H 202.266 0.875813 3.1225 0
M  V30 2335 H 202.051 2.63651 2.90225 0
M  V30 2336 H 203.541 2.00376 3.66387 0
M  V30 2337 N 203.978 -0.674533 1.42435 0
M  V30 2338 C 205.203 -1.46784 1.46524 0
M  V30 2339 C 205.628 -1.87938 0.078066 0
M  V30 2340 O 204.986 -1.56014 -0.92354 0
M  V30 2341 C 205.034 -2.69307 2.39805 0
M  V30 2342 O 204.138 -3.67587 1.86959 0
M  V30 2343 H 203.479 -0.440959 0.496439 0
M  V30 2344 H 206.009 -0.827326 1.87127 0
M  V30 2345 H 206.019 -3.17374 2.56393 0
M  V30 2346 H 204.694 -2.38692 3.40586 0
M  V30 2347 H 203.271 -3.2662 1.79927 0
M  V30 2348 N 205.456 -1.28612 -0.910864 0
M  V30 2349 C 206.867 -1.14406 -1.47541 0
M  V30 2350 C 207.218 0.264901 -1.94403 0
M  V30 2351 O 206.343 1.15942 -1.82719 0
M  V30 2352 C 206.938 -2.07073 -2.68153 0
M  V30 2353 C 205.497 -1.96923 -3.20778 0
M  V30 2354 C 204.644 -1.98646 -1.93481 0
M  V30 2355 H 207.595 -1.41259 -0.723291 0
M  V30 2356 H 207.616 -1.63642 -3.43514 0
M  V30 2357 H 207.128 -3.09611 -2.34015 0
M  V30 2358 H 205.229 -0.97433 -3.59635 0
M  V30 2359 H 205.342 -2.84026 -3.85832 0
M  V30 2360 H 203.706 -1.43093 -2.10705 0
M  V30 2361 H 204.489 -3.02868 -1.61634 0
M  V30 2362 N 206.934 1.1197 -1.10907 0
M  V30 2363 C 207.881 2.17846 -0.762345 0
M  V30 2364 C 208.851 1.63995 0.263599 0
M  V30 2365 O 210.036 1.90273 0.141773 0
M  V30 2366 C 207.176 3.44487 -0.205651 0
M  V30 2367 C 206.289 4.12369 -1.28748 0
M  V30 2368 C 205.424 5.26674 -0.691919 0
M  V30 2369 C 204.463 5.86431 -1.75399 0
M  V30 2370 N 203.6 6.92142 -1.17833 0
M  V30 2371 H 208.44 2.46851 -1.6694 0
M  V30 2372 H 205.977 1.21188 -0.833776 0
M  V30 2373 H 207.935 4.16981 0.135037 0
M  V30 2374 H 206.565 3.15884 0.664613 0
M  V30 2375 H 205.617 3.38003 -1.74522 0
M  V30 2376 H 206.929 4.52844 -2.09125 0
M  V30 2377 H 206.083 6.05953 -0.300963 0
M  V30 2378 H 204.822 4.8749 0.143232 0
M  V30 2379 H 203.827 5.05835 -2.15432 0
M  V30 2380 H 205.052 6.27685 -2.59208 0
M  V30 2381 H 202.998 6.54985 -0.364725 0
M  V30 2382 H 202.915 7.31242 -1.91887 0
M  V30 2383 H 204.183 7.75237 -0.81408 0
M  V30 2384 N 208.412 0.89855 1.29475 0
M  V30 2385 C 209.359 0.373819 2.27753 0
M  V30 2386 C 210.329 -0.543444 1.56958 0
M  V30 2387 O 211.514 -0.468934 1.84948 0
M  V30 2388 C 208.654 -0.393648 3.42848 0
M  V30 2389 C 207.767 0.554379 4.28428 0
M  V30 2390 C 206.902 -0.230026 5.30702 0
M  V30 2391 C 205.941 0.712599 6.07938 0
M  V30 2392 N 205.078 -0.0373283 7.0209 0
M  V30 2393 H 209.918 1.21699 2.72017 0
M  V30 2394 H 207.455 0.611456 1.33789 0
M  V30 2395 H 209.413 -0.85466 4.08352 0
M  V30 2396 H 208.043 -1.20128 2.99615 0
M  V30 2397 H 207.095 1.13391 3.63107 0
M  V30 2398 H 208.407 1.27597 4.82204 0
M  V30 2399 H 207.561 -0.752288 6.02018 0
M  V30 2400 H 206.3 -0.984758 4.77654 0
M  V30 2401 H 205.305 1.24637 5.35486 0
M  V30 2402 H 206.53 1.46664 6.63074 0
M  V30 2403 H 204.476 -0.774348 6.51414 0
M  V30 2404 H 204.393 0.624374 7.53417 0
M  V30 2405 H 205.661 -0.539891 7.77628 0
M  V30 2406 N 209.89 -1.43072 0.660911 0
M  V30 2407 C 210.853 -2.29194 -0.0166406 0
M  V30 2408 C 211.853 -1.42609 -0.742912 0
M  V30 2409 O 213.043 -1.64155 -0.583004 0
M  V30 2410 C 210.175 -3.24831 -1.0343 0
M  V30 2411 H 211.368 -2.90596 0.741208 0
M  V30 2412 H 208.921 -1.5048 0.422532 0
M  V30 2413 H 209.656 -2.68339 -1.82111 0
M  V30 2414 H 209.441 -3.88676 -0.517082 0
M  V30 2415 H 210.931 -3.89451 -1.50723 0
M  V30 2416 N 211.368 -0.403325 -1.52352 0
M  V30 2417 C 212.779 0.0675782 -1.86578 0
M  V30 2418 C 213.13 1.44941 -1.32236 0
M  V30 2419 O 212.255 2.06112 -0.659307 0
M  V30 2420 C 212.85 0.129404 -3.38553 0
M  V30 2421 C 211.409 0.544629 -3.72439 0
M  V30 2422 C 210.556 -0.284551 -2.75836 0
M  V30 2423 H 213.507 -0.620631 -1.46061 0
M  V30 2424 H 213.528 0.94581 -3.68558 0
M  V30 2425 H 213.04 -0.87645 -3.78074 0
M  V30 2426 H 211.141 1.55734 -3.38493 0
M  V30 2427 H 211.254 0.293046 -4.78203 0
M  V30 2428 H 209.618 0.252258 -2.53448 0
M  V30 2429 H 210.401 -1.28865 -3.18196 0
M  V30 2430 N 212.846 1.57033 -0.133567 0
M  V30 2431 C 214.094 1.953 0.519848 0
M  V30 2432 C 214.415 1.01866 1.66278 0
M  V30 2433 O 213.685 0.0776513 1.95746 0
M  V30 2434 H 212.265 0.721091 0.195032 0
M  V30 2435 H 214.927 1.93809 -0.205921 0
M  V30 2436 H 214.023 2.98695 0.904854 0
M  V30 2437 N 214.325 -0.140222 1.56975 0
M  V30 2438 C 215.553 -0.866437 1.87884 0
M  V30 2439 C 215.968 -1.74428 0.722517 0
M  V30 2440 O 215.325 -1.79891 -0.30749 0
M  V30 2441 C 215.376 -1.71753 3.18093 0
M  V30 2442 O 215.097 -0.875056 4.29272 0
M  V30 2443 C 216.598 -2.55074 3.62563 0
M  V30 2444 H 213.818 -0.25019 0.622612 0
M  V30 2445 H 216.362 -0.130977 2.0408 0
M  V30 2446 H 214.517 -2.40598 3.03631 0
M  V30 2447 H 214.931 -1.46002 5.03769 0
M  V30 2448 H 216.405 -3.10356 4.5649 0
M  V30 2449 H 216.882 -3.31434 2.88181 0
M  V30 2450 H 217.488 -1.91509 3.79743 0
M  V30 2451 N 215.803 -1.52179 -0.40978 0
M  V30 2452 C 216.75 -1.75475 -1.49924 0
M  V30 2453 C 217.72 -0.597175 -1.54994 0
M  V30 2454 O 218.905 -0.834655 -1.71575 0
M  V30 2455 C 216.045 -1.9107 -2.87378 0
M  V30 2456 C 215.158 -3.18717 -2.91622 0
M  V30 2457 C 214.293 -3.24747 -4.20372 0
M  V30 2458 C 213.332 -4.46598 -4.18588 0
M  V30 2459 N 212.469 -4.50025 -5.38908 0
M  V30 2460 H 217.309 -2.68458 -1.29361 0
M  V30 2461 H 214.846 -1.33024 -0.627934 0
M  V30 2462 H 216.804 -1.98096 -3.6717 0
M  V30 2463 H 215.434 -1.01469 -3.06437 0
M  V30 2464 H 214.486 -3.20866 -2.04326 0
M  V30 2465 H 215.798 -4.08544 -2.86169 0
M  V30 2466 H 214.952 -3.30841 -5.08556 0
M  V30 2467 H 213.691 -2.32857 -4.28519 0
M  V30 2468 H 212.696 -4.40652 -3.28794 0
M  V30 2469 H 213.921 -5.39783 -4.12081 0
M  V30 2470 H 211.867 -3.61017 -5.47725 0
M  V30 2471 H 211.784 -5.33697 -5.35447 0
M  V30 2472 H 213.052 -4.60347 -6.29048 0
M  V30 2473 N 217.281 0.66697 -1.42791 0
M  V30 2474 C 218.529 1.42417 -1.43394 0
M  V30 2475 C 218.85 1.94925 -0.0542373 0
M  V30 2476 O 218.12 1.73564 0.908415 0
M  V30 2477 H 216.7 0.528515 -0.527902 0
M  V30 2478 H 219.362 0.787562 -1.78279 0
M  V30 2479 H 218.458 2.27333 -2.13837 0
M  V30 2480 N 218.759 1.29093 0.90403 0
M  V30 2481 C 219.987 1.19689 1.68766 0
M  V30 2482 C 220.402 -0.243113 1.87228 0
M  V30 2483 O 219.759 -1.16326 1.40621 0
M  V30 2484 C 219.81 1.90144 3.07453 0
M  V30 2485 O 219.531 3.2852 2.89838 0
M  V30 2486 C 221.032 1.87162 4.01852 0
M  V30 2487 H 218.252 0.415035 0.527244 0
M  V30 2488 H 220.796 1.7039 1.13082 0
M  V30 2489 H 218.951 1.43289 3.59926 0
M  V30 2490 H 219.365 3.63944 3.77684 0
M  V30 2491 H 220.839 2.41032 4.96596 0
M  V30 2492 H 221.316 0.84617 4.30972 0
M  V30 2493 H 221.922 2.33741 3.5531 0
M  V30 2494 N 220.237 -1.11381 1.11499 0
M  V30 2495 C 221.2 -2.15622 0.777153 0
M  V30 2496 C 222.2 -1.59504 -0.203779 0
M  V30 2497 O 223.39 -1.74188 0.020782 0
M  V30 2498 C 220.522 -3.40556 0.153116 0
M  V30 2499 H 221.715 -2.47021 1.70061 0
M  V30 2500 H 219.268 -1.26577 0.916952 0
M  V30 2501 H 220.003 -3.14767 -0.780536 0
M  V30 2502 H 219.788 -3.8257 0.859238 0
M  V30 2503 H 221.278 -4.17546 -0.0671044 0
M  V30 2504 N 221.715 -0.905404 -1.28997 0
M  V30 2505 C 222.678 -0.392253 -2.25819 0
M  V30 2506 C 223.678 0.476753 -1.5357 0
M  V30 2507 O 224.868 0.280994 -1.71919 0
M  V30 2508 C 222 0.438588 -3.38067 0
M  V30 2509 H 223.193 -1.24743 -2.72725 0
M  V30 2510 H 220.746 -0.684051 -1.40536 0
M  V30 2511 H 221.481 1.31352 -2.96508 0
M  V30 2512 H 221.266 -0.184167 -3.91667 0
M  V30 2513 H 222.756 0.78873 -4.10084 0
M  V30 2514 N 223.193 1.4272 -0.668489 0
M  V30 2515 C 224.156 2.292 0.00448567 0
M  V30 2516 C 225.156 1.43001 0.735339 0
M  V30 2517 O 226.346 1.64461 0.57429 0
M  V30 2518 C 223.478 3.25375 1.01705 0
M  V30 2519 H 224.671 2.90199 -0.756608 0
M  V30 2520 H 222.224 1.50254 -0.430506 0
M  V30 2521 H 222.959 2.69301 1.80686 0
M  V30 2522 H 222.744 3.88944 0.496463 0
M  V30 2523 H 224.234 3.90245 1.48655 0
M  V30 2524 N 224.671 0.411399 1.52136 0
M  V30 2525 C 225.634 -0.401089 2.25663 0
M  V30 2526 C 226.634 -0.971732 1.28117 0
M  V30 2527 O 227.824 -0.850254 1.52041 0
M  V30 2528 C 224.956 -1.56483 3.02863 0
M  V30 2529 H 226.149 0.24295 2.98914 0
M  V30 2530 H 223.702 0.163968 1.55438 0
M  V30 2531 H 224.437 -2.24567 2.33967 0
M  V30 2532 H 224.222 -1.16211 3.74483 0
M  V30 2533 H 225.712 -2.13951 3.58629 0
M  V30 2534 N 226.149 -1.5696 0.141893 0
M  V30 2535 C 227.112 -2.15316 -0.785587 0
M  V30 2536 C 228.112 -1.09366 -1.1788 0
M  V30 2537 O 229.302 -1.35031 -1.10056 0
M  V30 2538 C 226.434 -2.71211 -2.06537 0
M  V30 2539 H 227.627 -2.98608 -0.278041 0
M  V30 2540 H 225.18 -1.5593 -0.107519 0
M  V30 2541 H 225.915 -1.91571 -2.6167 0
M  V30 2542 H 225.7 -3.4872 -1.79268 0
M  V30 2543 H 227.19 -3.16189 -2.72789 0
M  V30 2544 N 227.627 0.131896 -1.57047 0
M  V30 2545 C 228.59 1.14638 -1.98471 0
M  V30 2546 C 229.59 1.35029 -0.873148 0
M  V30 2547 O 230.78 1.31764 -1.13946 0
M  V30 2548 C 227.912 2.50358 -2.31373 0
M  V30 2549 H 229.105 0.79064 -2.8929 0
M  V30 2550 H 226.658 0.375761 -1.51716 0
M  V30 2551 H 227.393 2.90876 -1.43393 0
M  V30 2552 H 227.178 2.36915 -3.12432 0
M  V30 2553 H 228.668 3.23395 -2.64207 0
M  V30 2554 N 229.106 1.52395 0.401703 0
M  V30 2555 C 230.069 1.75636 1.47257 0
M  V30 2556 C 231.069 0.62628 1.48103 0
M  V30 2557 O 232.259 0.894227 1.49497 0
M  V30 2558 C 229.391 1.84553 2.86624 0
M  V30 2559 H 230.584 2.71241 1.27938 0
M  V30 2560 H 228.137 1.42923 0.632662 0
M  V30 2561 H 228.872 0.908882 3.11303 0
M  V30 2562 H 228.657 2.66715 2.87412 0
M  V30 2563 H 230.147 2.04251 3.64241 0
M  V30 2564 N 230.584 -0.659388 1.43143 0
M  V30 2565 C 231.547 -1.75432 1.47501 0
M  V30 2566 C 232.547 -1.56707 0.360512 0
M  V30 2567 O 233.737 -1.62717 0.622002 0
M  V30 2568 C 230.869 -3.14239 1.32162 0
M  V30 2569 H 232.062 -1.7295 2.45006 0
M  V30 2570 H 229.615 -0.870469 1.29817 0
M  V30 2571 H 230.35 -3.22336 0.356401 0
M  V30 2572 H 230.135 -3.29235 2.12948 0
M  V30 2573 H 231.625 -3.94094 1.3813 0
M  V30 2574 N 232.062 -1.29571 -0.897171 0
M  V30 2575 C 233.025 -1.14913 -1.98312 0
M  V30 2576 C 234.025 -0.0838629 -1.60581 0
M  V30 2577 O 235.215 -0.331006 -1.71026 0
M  V30 2578 C 232.347 -0.757835 -3.3237 0
M  V30 2579 H 233.54 -2.11377 -2.12743 0
M  V30 2580 H 231.093 -1.12793 -1.08201 0
M  V30 2581 H 231.828 0.206837 -3.2364 0
M  V30 2582 H 231.613 -1.52755 -3.61121 0
M  V30 2583 H 233.103 -0.678408 -4.12053 0
M  V30 2584 N 233.54 1.10788 -1.12088 0
M  V30 2585 C 234.503 2.15207 -0.788577 0
M  V30 2586 C 235.503 1.59609 0.195317 0
M  V30 2587 O 236.693 1.74174 -0.0300193 0
M  V30 2588 C 233.825 3.4047 -0.171174 0
M  V30 2589 H 235.018 2.46116 -1.71368 0
M  V30 2590 H 232.571 1.26089 -0.923652 0
M  V30 2591 H 233.306 3.15176 0.763832 0
M  V30 2592 H 233.091 3.82109 -0.879514 0
M  V30 2593 H 234.581 4.17576 0.04496 0
M  V30 2594 N 235.018 0.912232 1.28515 0
M  V30 2595 C 235.965 0.397954 2.27343 0
M  V30 2596 C 236.935 -0.526766 1.57526 0
M  V30 2597 O 238.12 -0.449292 1.85435 0
M  V30 2598 C 235.26 -0.357263 3.43246 0
M  V30 2599 C 234.373 0.599788 4.27816 0
M  V30 2600 C 233.508 -0.173725 5.30916 0
M  V30 2601 C 232.547 0.777039 6.07148 0
M  V30 2602 N 231.684 0.0371398 7.0209 0
M  V30 2603 H 236.524 1.24577 2.70711 0
M  V30 2604 H 234.061 0.625612 1.33133 0
M  V30 2605 H 236.019 -0.8113 4.09236 0
M  V30 2606 H 234.649 -1.16943 3.00872 0
M  V30 2607 H 233.701 1.17235 3.61884 0
M  V30 2608 H 235.013 1.32704 4.80823 0
M  V30 2609 H 234.167 -0.688394 6.02782 0
M  V30 2610 H 232.906 -0.934041 4.78672 0
M  V30 2611 H 231.911 1.3031 5.34134 0
M  V30 2612 H 233.136 1.53689 6.61481 0
M  V30 2613 H 231.082 -0.705213 6.52198 0
M  V30 2614 H 230.999 0.704249 7.52713 0
M  V30 2615 H 232.267 -0.457383 7.78157 0
M  V30 2616 N 236.496 -1.42363 0.676048 0
M  V30 2617 C 237.742 -2.0182 0.199125 0
M  V30 2618 C 238.075 -1.53339 -1.19168 0
M  V30 2619 O 237.35 -0.736124 -1.80032 0
M  V30 2620 C 237.633 -3.59331 0.235144 0
M  V30 2621 C 237.486 -4.17989 1.66149 0
M  V30 2622 C 238.805 -4.3813 -0.41595 0
M  V30 2623 H 235.924 -0.733293 0.0738311 0
M  V30 2624 H 238.566 -1.69368 0.86107 0
M  V30 2625 H 236.716 -3.87109 -0.328487 0
M  V30 2626 H 238.388 -4.0116 2.27747 0
M  V30 2627 H 236.631 -3.7377 2.20178 0
M  V30 2628 H 237.302 -5.27126 1.63837 0
M  V30 2629 H 239.778 -4.16051 0.0638529 0
M  V30 2630 H 238.654 -5.47717 -0.360115 0
M  V30 2631 H 238.915 -4.16101 -1.49373 0
M  V30 2632 N 237.974 -0.419461 -1.51915 0
M  V30 2633 C 239.385 0.0477853 -1.86639 0
M  V30 2634 C 239.736 1.43531 -1.33766 0
M  V30 2635 O 238.861 2.05401 -0.68113 0
M  V30 2636 C 239.456 0.0934885 -3.38671 0
M  V30 2637 C 238.015 0.505097 -3.72996 0
M  V30 2638 C 237.162 -0.313792 -2.75519 0
M  V30 2639 H 240.113 -0.636088 -1.45395 0
M  V30 2640 H 240.134 0.906667 -3.6954 0
M  V30 2641 H 239.646 -0.916501 -3.77123 0
M  V30 2642 H 237.747 1.52135 -3.40126 0
M  V30 2643 H 237.86 0.242309 -4.78487 0
M  V30 2644 H 236.224 0.225363 -2.53701 0
M  V30 2645 H 237.007 -1.32232 -3.16812 0
M  V30 2646 N 239.452 1.56882 -0.150215 0
M  V30 2647 C 240.415 2.1573 0.774157 0
M  V30 2648 C 241.415 1.0999 1.17298 0
M  V30 2649 O 242.605 1.35613 1.09338 0
M  V30 2650 C 239.737 2.72302 2.05096 0
M  V30 2651 H 240.93 2.98752 0.262201 0
M  V30 2652 H 238.483 1.55985 0.099248 0
M  V30 2653 H 239.218 1.92956 2.6065 0
M  V30 2654 H 239.003 3.49665 1.77416 0
M  V30 2655 H 240.493 3.17632 2.71109 0
M  V30 2656 N 240.93 -0.123565 1.57115 0
M  V30 2657 C 241.877 -1.15177 2.00007 0
M  V30 2658 C 242.847 -1.41403 0.871454 0
M  V30 2659 O 244.032 -1.53346 1.13533 0
M  V30 2660 C 241.172 -2.47436 2.40561 0
M  V30 2661 C 240.285 -2.28184 3.66819 0
M  V30 2662 C 239.42 -3.53641 3.96373 0
M  V30 2663 C 238.459 -3.29528 5.15827 0
M  V30 2664 N 237.596 -4.47175 5.41275 0
M  V30 2665 H 242.436 -0.779008 2.87638 0
M  V30 2666 H 239.973 -0.373166 1.42288 0
M  V30 2667 H 241.931 -3.24584 2.62109 0
M  V30 2668 H 240.561 -2.82614 1.55978 0
M  V30 2669 H 239.613 -1.41976 3.52912 0
M  V30 2670 H 240.925 -2.0634 4.5412 0
M  V30 2671 H 240.079 -4.39209 4.18545 0
M  V30 2672 H 238.818 -3.78512 3.07538 0
M  V30 2673 H 237.823 -2.42349 4.93505 0
M  V30 2674 H 239.048 -3.06031 6.06236 0
M  V30 2675 H 236.994 -4.72175 4.55397 0
M  V30 2676 H 236.911 -4.28419 6.22891 0
M  V30 2677 H 238.179 -5.3389 5.67963 0
M  V30 2678 N 242.408 -1.52605 -0.393616 0
M  V30 2679 C 243.355 -1.77055 -1.48054 0
M  V30 2680 C 244.325 -0.61358 -1.54352 0
M  V30 2681 O 245.51 -0.852806 -1.70681 0
M  V30 2682 C 242.65 -1.94108 -2.85335 0
M  V30 2683 C 241.763 -3.21792 -2.88226 0
M  V30 2684 C 240.898 -3.29188 -4.16904 0
M  V30 2685 C 239.937 -4.51013 -4.13828 0
M  V30 2686 N 239.074 -4.55716 -5.34105 0
M  V30 2687 H 243.914 -2.69815 -1.26506 0
M  V30 2688 H 241.451 -1.33683 -0.61379 0
M  V30 2689 H 243.409 -2.01979 -3.65049 0
M  V30 2690 H 242.039 -1.04713 -3.05344 0
M  V30 2691 H 241.091 -3.23015 -2.00911 0
M  V30 2692 H 242.403 -4.11557 -2.8182 0
M  V30 2693 H 241.557 -3.36216 -5.05018 0
M  V30 2694 H 240.296 -2.37389 -4.26026 0
M  V30 2695 H 239.301 -4.44115 -3.24102 0
M  V30 2696 H 240.526 -5.44123 -4.06333 0
M  V30 2697 H 238.472 -3.66807 -5.43865 0
M  V30 2698 H 238.389 -5.39346 -5.29756 0
M  V30 2699 H 239.657 -4.66993 -6.2413 0
M  V30 2700 N 243.887 0.651787 -1.4349 0
M  V30 2701 C 245.136 1.40754 -1.44469 0
M  V30 2702 C 245.449 1.95463 -0.0731845 0
M  V30 2703 O 246.655 2.71471 0.0395721 0
M  V30 2704 C 245.111 2.54735 -2.5424 0
M  V30 2705 C 244.719 2.06628 -3.97504 0
M  V30 2706 C 246.463 3.32092 -2.64414 0
M  V30 2707 C 244.37 3.17829 -4.98737 0
M  V30 2708 H 243.3 0.528862 -0.53742 0
M  V30 2709 H 245.951 0.703365 -1.69485 0
M  V30 2710 H 244.333 3.2763 -2.22428 0
M  V30 2711 H 245.507 1.40734 -4.38783 0
M  V30 2712 H 243.822 1.42146 -3.91387 0
M  V30 2713 H 246.419 4.14952 -3.37223 0
M  V30 2714 H 246.762 3.80217 -1.69532 0
M  V30 2715 H 247.295 2.66279 -2.95534 0
M  V30 2716 H 244.034 2.74671 -5.95177 0
M  V30 2717 H 243.554 3.82429 -4.62069 0
M  V30 2718 H 245.233 3.82937 -5.21505 0
M  V30 2719 N 245.365 1.30045 0.890287 0
M  V30 2720 C 246.593 1.21472 1.67487 0
M  V30 2721 C 247.008 -0.223241 1.87476 0
M  V30 2722 O 246.365 -1.14828 1.41847 0
M  V30 2723 C 246.416 1.93394 3.05419 0
M  V30 2724 O 246.137 3.31576 2.86337 0
M  V30 2725 C 247.638 1.91414 3.99844 0
M  V30 2726 H 244.858 0.420604 0.522813 0
M  V30 2727 H 247.402 1.7158 1.11268 0
M  V30 2728 H 245.557 1.47099 3.58386 0
M  V30 2729 H 245.971 3.67929 3.73802 0
M  V30 2730 H 247.445 2.46285 4.94012 0
M  V30 2731 H 247.922 0.891833 4.3005 0
M  V30 2732 H 248.528 2.37496 3.52811 0
M  V30 2733 N 246.843 -1.10192 1.12674 0
M  V30 2734 C 247.806 -2.14786 0.799979 0
M  V30 2735 C 248.806 -1.59711 -0.18685 0
M  V30 2736 O 249.996 -1.74156 0.0392558 0
M  V30 2737 C 247.128 -3.40374 0.189228 0
M  V30 2738 H 248.321 -2.45203 1.72671 0
M  V30 2739 H 245.874 -1.25597 0.930326 0
M  V30 2740 H 246.609 -3.15577 -0.747107 0
M  V30 2741 H 246.394 -3.81637 0.899766 0
M  V30 2742 H 247.884 -4.17594 -0.0228143 0
M  V30 2743 N 248.321 -0.919034 -1.28029 0
M  V30 2744 C 249.284 -0.416182 -2.2539 0
M  V30 2745 C 250.284 0.460438 -1.54067 0
M  V30 2746 O 251.474 0.262744 -1.72207 0
M  V30 2747 C 248.606 0.402707 -3.38513 0
M  V30 2748 H 249.799 -1.27629 -2.71387 0
M  V30 2749 H 247.352 -0.698919 -1.39803 0
M  V30 2750 H 248.087 1.282 -2.97885 0
M  V30 2751 H 247.872 -0.225698 -3.9145 0
M  V30 2752 H 249.362 0.745191 -4.10897 0
M  V30 2753 N 249.799 1.42003 -0.683588 0
M  V30 2754 C 251.024 2.06265 -0.216647 0
M  V30 2755 C 251.449 1.51059 1.12083 0
M  V30 2756 O 250.807 0.632638 1.69904 0
M  V30 2757 C 250.855 3.60191 -0.171759 0
M  V30 2758 O 249.959 4.03396 0.857069 0
M  V30 2759 H 249.3 0.65502 -0.108834 0
M  V30 2760 H 251.83 1.81982 -0.935077 0
M  V30 2761 H 251.84 4.08 0.0014303 0
M  V30 2762 H 250.515 3.99743 -1.14796 0
M  V30 2763 H 249.092 3.67117 0.654208 0
M  V30 2764 N 251.277 0.427512 1.51691 0
M  V30 2765 C 252.224 -0.388867 2.275 0
M  V30 2766 C 253.194 -1.02532 1.30677 0
M  V30 2767 O 254.379 -1.0461 1.59566 0
M  V30 2768 C 251.519 -1.48954 3.11298 0
M  V30 2769 C 250.632 -0.872194 4.23104 0
M  V30 2770 C 249.767 -1.94709 4.94228 0
M  V30 2771 C 248.806 -1.30766 5.97969 0
M  V30 2772 N 247.943 -2.32349 6.62539 0
M  V30 2773 H 252.783 0.263997 2.96828 0
M  V30 2774 H 250.32 0.142033 1.46413 0
M  V30 2775 H 252.278 -2.13887 3.58201 0
M  V30 2776 H 250.908 -2.11217 2.44105 0
M  V30 2777 H 249.96 -0.111419 3.80237 0
M  V30 2778 H 251.272 -0.365264 4.97461 0
M  V30 2779 H 250.426 -2.67327 5.44629 0
M  V30 2780 H 249.165 -2.48773 4.1948 0
M  V30 2781 H 248.17 -0.566902 5.4687 0
M  V30 2782 H 249.395 -0.774483 6.74669 0
M  V30 2783 H 247.341 -2.85511 5.90609 0
M  V30 2784 H 247.258 -1.8652 7.3263 0
M  V30 2785 H 248.526 -3.04481 7.17574 0
M  V30 2786 N 252.755 -1.56801 0.158532 0
M  V30 2787 C 253.702 -2.17337 -0.776729 0
M  V30 2788 C 254.672 -1.1096 -1.23601 0
M  V30 2789 O 255.857 -1.39054 -1.30647 0
M  V30 2790 C 252.997 -2.80822 -2.00582 0
M  V30 2791 C 252.11 -4.01624 -1.59129 0
M  V30 2792 C 251.245 -4.53072 -2.77306 0
M  V30 2793 C 250.284 -5.66314 -2.32282 0
M  V30 2794 N 249.421 -6.12329 -3.43508 0
M  V30 2795 H 254.261 -2.96918 -0.253701 0
M  V30 2796 H 251.798 -1.46661 -0.113504 0
M  V30 2797 H 253.756 -3.15779 -2.72652 0
M  V30 2798 H 252.386 -2.03866 -2.50277 0
M  V30 2799 H 251.438 -3.72571 -0.767806 0
M  V30 2800 H 252.75 -4.83633 -1.2207 0
M  V30 2801 H 251.904 -4.90145 -3.57551 0
M  V30 2802 H 250.643 -3.70095 -3.17617 0
M  V30 2803 H 249.648 -5.28806 -1.5048 0
M  V30 2804 H 250.873 -6.51085 -1.93043 0
M  V30 2805 H 248.819 -5.32284 -3.83418 0
M  V30 2806 H 248.736 -6.89293 -3.105 0
M  V30 2807 H 250.004 -6.5405 -4.24075 0
M  V30 2808 N 254.233 0.115231 -1.57178 0
M  V30 2809 C 255.196 1.12526 -1.99676 0
M  V30 2810 C 256.196 1.34095 -0.88742 0
M  V30 2811 O 257.386 1.30548 -1.15337 0
M  V30 2812 C 254.518 2.4789 -2.34015 0
M  V30 2813 H 255.711 0.759912 -2.90113 0
M  V30 2814 H 253.264 0.359648 -1.52106 0
M  V30 2815 H 253.999 2.89339 -1.4647 0
M  V30 2816 H 253.784 2.33588 -3.14927 0
M  V30 2817 H 255.274 3.20575 -2.67622 0
M  V30 2818 N 255.711 1.52812 0.385517 0
M  V30 2819 C 257.122 1.5993 0.963293 0
M  V30 2820 C 257.473 0.454302 1.90868 0
M  V30 2821 O 256.598 -0.422132 2.12243 0
M  V30 2822 C 257.193 2.89871 1.75387 0
M  V30 2823 C 255.752 2.99389 2.28129 0
M  V30 2824 C 254.899 2.55071 1.08783 0
M  V30 2825 H 257.85 1.5784 0.164948 0
M  V30 2826 H 257.871 2.76553 2.61341 0
M  V30 2827 H 257.383 3.73186 1.06554 0
M  V30 2828 H 255.484 2.20619 3.00263 0
M  V30 2829 H 255.597 4.04096 2.57377 0
M  V30 2830 H 253.961 2.09473 1.4489 0
M  V30 2831 H 254.744 3.40785 0.414807 0
M  V30 2832 N 257.189 -0.644168 1.43834 0
M  V30 2833 C 258.152 -1.73857 1.49353 0
M  V30 2834 C 259.152 -1.56315 0.377112 0
M  V30 2835 O 260.342 -1.62048 0.639226 0
M  V30 2836 C 257.474 -3.12819 1.35488 0
M  V30 2837 H 258.667 -1.70342 2.46827 0
M  V30 2838 H 256.22 -0.856652 1.30733 0
M  V30 2839 H 256.955 -3.2194 0.390569 0
M  V30 2840 H 256.74 -3.26958 2.16428 0
M  V30 2841 H 258.23 -3.92606 1.42302 0
M  V30 2842 N 258.668 -1.30515 -0.883378 0
M  V30 2843 C 259.6 -1.12846 -1.99496 0
M  V30 2844 C 260.613 -0.0712571 -1.62644 0
M  V30 2845 O 261.802 -0.317432 -1.75655 0
M  V30 2846 C 258.902 -0.699123 -3.3161 0
M  V30 2847 C 258.075 -1.83842 -3.96889 0
M  V30 2848 C 257.134 -1.39737 -5.07307 0
M  V30 2849 O 256.16 -2.10485 -5.28852 0
M  V30 2850 N 257.362 -0.277279 -5.79837 0
M  V30 2851 H 260.127 -2.08585 -2.15203 0
M  V30 2852 H 257.688 -1.22672 -1.05656 0
M  V30 2853 H 259.68 -0.387044 -4.02845 0
M  V30 2854 H 258.25 0.166276 -3.12157 0
M  V30 2855 H 257.47 -2.31853 -3.18807 0
M  V30 2856 H 258.758 -2.60187 -4.37241 0
M  V30 2857 H 258.156 0.3122 -5.64838 0
M  V30 2858 H 256.713 -0.0246623 -6.51795 0
M  V30 2859 N 260.146 1.09593 -1.13257 0
M  V30 2860 C 261.093 2.1618 -0.808381 0
M  V30 2861 C 262.063 1.64517 0.228754 0
M  V30 2862 O 263.248 1.9053 0.101381 0
M  V30 2863 C 260.388 3.43973 -0.278675 0
M  V30 2864 C 259.501 4.09545 -1.37466 0
M  V30 2865 C 258.636 5.25088 -0.803479 0
M  V30 2866 C 257.675 5.82579 -1.87799 0
M  V30 2867 N 256.812 6.89486 -1.32488 0
M  V30 2868 H 261.652 2.43254 -1.72138 0
M  V30 2869 H 259.189 1.19392 -0.859294 0
M  V30 2870 H 261.147 4.17174 0.0465583 0
M  V30 2871 H 259.777 3.17223 0.597459 0
M  V30 2872 H 258.829 3.34226 -1.81652 0
M  V30 2873 H 260.141 4.48307 -2.18684 0
M  V30 2874 H 259.295 6.05178 -0.429427 0
M  V30 2875 H 258.034 4.87684 0.0397956 0
M  V30 2876 H 257.039 5.01152 -2.26113 0
M  V30 2877 H 258.264 6.22045 -2.72463 0
M  V30 2878 H 256.21 6.54064 -0.503575 0
M  V30 2879 H 256.127 7.27007 -2.07355 0
M  V30 2880 H 257.395 7.73336 -0.978336 0
M  V30 2881 N 261.624 0.925811 1.2754 0
M  V30 2882 C 262.87 0.566092 1.94739 0
M  V30 2883 C 263.203 -0.890057 1.72603 0
M  V30 2884 O 262.478 -1.63467 1.05399 0
M  V30 2885 C 262.761 0.89054 3.48915 0
M  V30 2886 C 262.614 2.4003 3.80402 0
M  V30 2887 C 263.933 0.395101 4.38323 0
M  V30 2888 H 261.052 0.20714 0.707292 0
M  V30 2889 H 263.694 1.15725 1.50691 0
M  V30 2890 H 261.844 0.387452 3.86563 0
M  V30 2891 H 263.516 2.97494 3.52555 0
M  V30 2892 H 261.759 2.85028 3.2702 0
M  V30 2893 H 262.43 2.57785 4.8811 0
M  V30 2894 H 264.906 0.826241 4.07814 0
M  V30 2895 H 263.782 0.651086 5.45025 0
M  V30 2896 H 264.043 -0.704798 4.36446 0
M  V30 2897 N 263.102 -1.41638 0.69111 0
M  V30 2898 C 264.513 -1.84346 0.295517 0
M  V30 2899 C 264.864 -1.57833 -1.16547 0
M  V30 2900 O 263.989 -1.04648 -1.89414 0
M  V30 2901 C 264.584 -3.34636 0.529575 0
M  V30 2902 C 263.143 -3.7593 0.187944 0
M  V30 2903 C 262.29 -2.65082 0.814052 0
M  V30 2904 H 265.241 -1.31253 0.892092 0
M  V30 2905 H 265.262 -3.79903 -0.213148 0
M  V30 2906 H 264.774 -3.53901 1.59297 0
M  V30 2907 H 262.875 -3.62268 -0.871367 0
M  V30 2908 H 262.988 -4.74808 0.63985 0
M  V30 2909 H 261.352 -2.53528 0.244017 0
M  V30 2910 H 262.135 -2.87167 1.88123 0
M  V30 2911 N 264.58 -0.43555 -1.51462 0
M  V30 2912 C 265.543 0.365137 -2.26273 0
M  V30 2913 C 266.543 0.951227 -1.29647 0
M  V30 2914 O 267.733 0.825958 -1.53374 0
M  V30 2915 C 264.865 1.51645 -3.05314 0
M  V30 2916 H 266.058 -0.290474 -2.9849 0
M  V30 2917 H 263.611 -0.188676 -1.55157 0
M  V30 2918 H 264.346 2.20816 -2.3751 0
M  V30 2919 H 264.131 1.10238 -3.76284 0
M  V30 2920 H 265.621 2.08218 -3.61987 0
M  V30 2921 N 266.058 1.56714 -0.166846 0
M  V30 2922 C 266.99 2.14914 0.796537 0
M  V30 2923 C 268.003 1.10357 1.19688 0
M  V30 2924 O 269.192 1.37561 1.13751 0
M  V30 2925 C 266.292 2.67326 2.08303 0
M  V30 2926 C 265.465 3.96493 1.84696 0
M  V30 2927 C 264.524 4.34014 2.97521 0
M  V30 2928 O 263.55 5.01973 2.6835 0
M  V30 2929 N 264.752 3.95208 4.25196 0
M  V30 2930 H 267.517 2.98205 0.299006 0
M  V30 2931 H 265.078 1.61892 0.0160839 0
M  V30 2932 H 267.07 2.89428 2.82867 0
M  V30 2933 H 265.64 1.88649 2.4926 0
M  V30 2934 H 264.86 3.82814 0.940602 0
M  V30 2935 H 266.148 4.8086 1.66285 0
M  V30 2936 H 265.546 3.40487 4.51758 0
M  V30 2937 H 264.103 4.2232 4.96477 0
M  V30 2938 N 267.536 -0.106894 1.57237 0
M  V30 2939 C 268.483 -1.13049 2.01217 0
M  V30 2940 C 269.453 -1.40471 0.886403 0
M  V30 2941 O 270.638 -1.52133 1.15153 0
M  V30 2942 C 267.778 -2.4487 2.43172 0
M  V30 2943 C 266.891 -2.24281 3.69218 0
M  V30 2944 C 266.026 -3.49417 4.00101 0
M  V30 2945 C 265.065 -3.24038 5.19294 0
M  V30 2946 N 264.202 -4.41409 5.45988 0
M  V30 2947 H 269.042 -0.748456 2.88448 0
M  V30 2948 H 266.579 -0.358054 1.42676 0
M  V30 2949 H 268.537 -3.21786 2.65537 0
M  V30 2950 H 267.167 -2.80944 1.58967 0
M  V30 2951 H 266.219 -1.38224 3.54398 0
M  V30 2952 H 267.531 -2.01512 4.56283 0
M  V30 2953 H 266.685 -4.34746 4.2318 0
M  V30 2954 H 265.424 -3.75229 3.11535 0
M  V30 2955 H 264.429 -2.37102 4.96047 0
M  V30 2956 H 265.654 -2.99584 6.09447 0
M  V30 2957 H 263.6 -4.67319 4.60379 0
M  V30 2958 H 263.517 -4.21788 6.274 0
M  V30 2959 H 264.785 -5.27836 5.73593 0
M  V30 2960 N 269.014 -1.53014 -0.377408 0
M  V30 2961 C 269.977 -1.77957 -1.44444 0
M  V30 2962 C 270.977 -0.649763 -1.47087 0
M  V30 2963 O 272.167 -0.917897 -1.48055 0
M  V30 2964 C 269.299 -1.89089 -2.83651 0
M  V30 2965 H 270.492 -2.73243 -1.23606 0
M  V30 2966 H 268.045 -1.43912 -0.609844 0
M  V30 2967 H 268.78 -0.958293 -3.09818 0
M  V30 2968 H 268.565 -2.71254 -2.83132 0
M  V30 2969 H 270.055 -2.1002 -3.60945 0
M  V30 2970 N 270.492 0.636531 -1.44174 0
M  V30 2971 C 271.72 1.42353 -1.50144 0
M  V30 2972 C 272.135 1.88389 -0.124575 0
M  V30 2973 O 271.492 1.6051 0.868489 0
M  V30 2974 C 271.543 2.64744 -2.46156 0
M  V30 2975 O 271.264 2.20629 -3.7849 0
M  V30 2976 C 272.765 3.57929 -2.61537 0
M  V30 2977 H 269.985 0.436752 -0.5094 0
M  V30 2978 H 272.529 0.778933 -1.89084 0
M  V30 2979 H 270.684 3.25307 -2.10366 0
M  V30 2980 H 271.098 2.99938 -4.30276 0
M  V30 2981 H 272.572 4.40428 -3.32757 0
M  V30 2982 H 273.049 4.06382 -1.66585 0
M  V30 2983 H 273.655 3.03238 -2.98206 0
M  V30 2984 N 271.97 1.30982 0.876444 0
M  V30 2985 C 273.218 1.20058 1.62575 0
M  V30 2986 C 273.539 -0.242947 1.93481 0
M  V30 2987 O 272.809 -1.1619 1.57724 0
M  V30 2988 H 271.389 0.44135 0.602677 0
M  V30 2989 H 274.051 1.64222 1.04962 0
M  V30 2990 H 273.147 1.76762 2.57219 0
M  V30 2991 N 273.449 -1.08991 1.13837 0
M  V30 2992 C 274.381 -2.15606 0.777612 0
M  V30 2993 C 275.394 -1.61533 -0.202739 0
M  V30 2994 O 276.583 -1.78491 0.0181055 0
M  V30 2995 C 273.683 -3.3864 0.132623 0
M  V30 2996 C 272.856 -4.22115 1.1462 0
M  V30 2997 C 271.915 -5.23564 0.526074 0
M  V30 2998 O 270.941 -5.56678 1.18735 0
M  V30 2999 N 272.143 -5.76266 -0.699866 0
M  V30 3000 H 274.908 -2.47159 1.69506 0
M  V30 3001 H 272.469 -1.24747 1.03198 0
M  V30 3002 H 274.461 -4.03626 -0.29459 0
M  V30 3003 H 273.031 -3.04938 -0.687849 0
M  V30 3004 H 272.251 -3.53199 1.75055 0
M  V30 3005 H 273.539 -4.74709 1.83109 0
M  V30 3006 H 272.937 -5.51585 -1.25581 0
M  V30 3007 H 271.494 -6.42963 -1.06968 0
M  V30 3008 N 274.927 -0.932562 -1.27047 0
M  V30 3009 C 275.874 -0.434072 -2.26681 0
M  V30 3010 C 276.844 0.501639 -1.58344 0
M  V30 3011 O 278.029 0.419734 -1.86126 0
M  V30 3012 C 275.169 0.30261 -3.43771 0
M  V30 3013 C 274.282 -0.667774 -4.26808 0
M  V30 3014 C 273.417 0.0892393 -5.31125 0
M  V30 3015 C 272.456 -0.873532 -6.05835 0
M  V30 3016 N 271.593 -0.148832 -7.01942 0
M  V30 3017 H 276.433 -1.28868 -2.68695 0
M  V30 3018 H 273.97 -0.646713 -1.32121 0
M  V30 3019 H 275.928 0.746092 -4.10474 0
M  V30 3020 H 274.558 1.12142 -3.02695 0
M  V30 3021 H 273.61 -1.22978 -3.59973 0
M  V30 3022 H 274.922 -1.40337 -4.78651 0
M  V30 3023 H 274.076 0.592409 -6.03801 0
M  V30 3024 H 272.815 0.85777 -4.80097 0
M  V30 3025 H 271.82 -1.38791 -5.31994 0
M  V30 3026 H 273.045 -1.64193 -6.58952 0
M  V30 3027 H 270.991 0.601365 -6.53238 0
M  V30 3028 H 270.908 -0.82391 -7.51497 0
M  V30 3029 H 272.176 0.333527 -7.78786 0
M  V30 3030 N 276.405 1.4127 -0.698611 0
M  V30 3031 C 277.368 2.29158 -0.044132 0
M  V30 3032 C 278.368 1.44529 0.704841 0
M  V30 3033 O 279.558 1.65643 0.539276 0
M  V30 3034 C 276.69 3.27459 0.947809 0
M  V30 3035 H 277.883 2.88529 -0.817994 0
M  V30 3036 H 275.436 1.49307 -0.46228 0
M  V30 3037 H 276.171 2.73073 1.74933 0
M  V30 3038 H 275.956 3.8991 0.41385 0
M  V30 3039 H 277.446 3.93311 1.40344 0
M  V30 3040 N 277.883 0.443576 1.51229 0
M  V30 3041 C 278.846 -0.353132 2.26463 0
M  V30 3042 C 279.846 -0.944338 1.3015 0
M  V30 3043 O 281.036 -0.817813 1.5381 0
M  V30 3044 C 278.168 -1.50023 3.06114 0
M  V30 3045 H 279.361 0.3063 2.98332 0
M  V30 3046 H 276.914 0.196902 1.55055 0
M  V30 3047 H 277.649 -2.19553 2.38677 0
M  V30 3048 H 277.434 -1.08241 3.76864 0
M  V30 3049 H 278.924 -2.06296 3.63087 0
M  V30 3050 N 279.361 -1.56624 0.175154 0
M  V30 3051 C 280.772 -1.83561 -0.340916 0
M  V30 3052 C 281.123 -1.09511 -1.62794 0
M  V30 3053 O 280.248 -0.349389 -2.13561 0
M  V30 3054 C 280.843 -3.32979 -0.625313 0
M  V30 3055 C 279.402 -3.60399 -1.08581 0
M  V30 3056 C 278.549 -2.77024 -0.123722 0
M  V30 3057 H 281.5 -1.53593 0.399344 0
M  V30 3058 H 281.521 -3.50666 -1.47694 0
M  V30 3059 H 281.033 -3.86847 0.311575 0
M  V30 3060 H 279.134 -3.11945 -2.03767 0
M  V30 3061 H 279.247 -4.68711 -0.992317 0
M  V30 3062 H 277.611 -2.46993 -0.621821 0
M  V30 3063 H 278.394 -3.33674 0.807256 0
M  V30 3064 N 280.839 0.0985539 -1.57292 0
M  V30 3065 C 281.802 1.10402 -2.00858 0
M  V30 3066 C 282.802 1.33146 -0.901593 0
M  V30 3067 O 283.992 1.29318 -1.16716 0
M  V30 3068 C 281.124 2.45394 -2.36632 0
M  V30 3069 H 282.317 0.729099 -2.90902 0
M  V30 3070 H 279.87 0.343495 -1.52479 0
M  V30 3071 H 280.605 2.87769 -1.49531 0
M  V30 3072 H 280.39 2.30235 -3.17387 0
M  V30 3073 H 281.88 3.17718 -2.71007 0
M  V30 3074 N 282.317 1.53212 0.369288 0
M  V30 3075 C 283.728 1.60943 0.946276 0
M  V30 3076 C 284.079 0.47452 1.90375 0
M  V30 3077 O 283.204 -0.399597 2.12679 0
M  V30 3078 C 283.799 2.91715 1.72302 0
M  V30 3079 C 282.358 3.01792 2.24941 0
M  V30 3080 C 281.505 2.56211 1.06072 0
M  V30 3081 H 284.456 1.58007 0.148198 0
M  V30 3082 H 284.477 2.79309 2.58393 0
M  V30 3083 H 283.989 3.74295 1.0259 0
M  V30 3084 H 282.09 2.23791 2.97906 0
M  V30 3085 H 282.203 4.06803 2.53077 0
M  V30 3086 H 280.567 2.10998 1.4266 0
M  V30 3087 H 281.35 3.41206 0.378639 0
M  V30 3088 N 283.795 -0.628877 1.44509 0
M  V30 3089 C 284.742 -1.74074 1.51549 0
M  V30 3090 C 285.712 -1.62084 0.363021 0
M  V30 3091 O 286.897 -1.81975 0.573567 0
M  V30 3092 C 284.037 -3.12328 1.46784 0
M  V30 3093 C 283.15 -3.35277 2.72422 0
M  V30 3094 C 282.285 -4.63515 2.59475 0
M  V30 3095 C 281.324 -4.7965 3.80266 0
M  V30 3096 N 280.461 -5.99168 3.65981 0
M  V30 3097 H 285.301 -1.67392 2.46544 0
M  V30 3098 H 282.838 -0.816527 1.22357 0
M  V30 3099 H 284.796 -3.92286 1.42012 0
M  V30 3100 H 283.426 -3.18018 0.553544 0
M  V30 3101 H 282.478 -2.49242 2.87372 0
M  V30 3102 H 283.79 -3.43078 3.62076 0
M  V30 3103 H 282.944 -5.51638 2.52548 0
M  V30 3104 H 281.683 -4.58076 1.67384 0
M  V30 3105 H 280.688 -3.89957 3.87574 0
M  V30 3106 H 281.913 -4.86902 4.73395 0
M  V30 3107 H 279.859 -5.94814 2.76644 0
M  V30 3108 H 279.776 -6.08035 4.49254 0
M  V30 3109 H 281.044 -6.89846 3.6295 0
M  V30 3110 N 285.273 -1.31445 -0.869486 0
M  V30 3111 C 286.236 -1.19094 -1.9583 0
M  V30 3112 C 287.236 -0.117906 -1.60367 0
M  V30 3113 O 288.426 -0.367208 -1.70286 0
M  V30 3114 C 285.558 -0.828165 -3.30688 0
M  V30 3115 H 286.751 -2.15842 -2.08212 0
M  V30 3116 H 284.304 -1.15063 -1.05784 0
M  V30 3117 H 285.039 0.138142 -3.24006 0
M  V30 3118 H 284.824 -1.6038 -3.578 0
M  V30 3119 H 286.314 -0.765658 -4.10521 0
M  V30 3120 N 286.751 1.08385 -1.14413 0
M  V30 3121 C 287.683 2.1519 -0.789036 0
M  V30 3122 C 288.696 1.61638 0.19417 0
M  V30 3123 O 289.885 1.78479 -0.0275711 0
M  V30 3124 C 286.985 3.38565 -0.15058 0
M  V30 3125 C 286.158 4.21501 -1.16857 0
M  V30 3126 C 285.217 5.23277 -0.553832 0
M  V30 3127 O 284.243 5.56041 -1.21686 0
M  V30 3128 N 285.445 5.76629 0.669296 0
M  V30 3129 H 288.21 2.46257 -1.70814 0
M  V30 3130 H 285.771 1.24198 -1.03858 0
M  V30 3131 H 287.763 4.03777 0.273181 0
M  V30 3132 H 286.333 3.05299 0.671667 0
M  V30 3133 H 285.553 3.52265 -1.76926 0
M  V30 3134 H 286.841 4.73731 -1.85624 0
M  V30 3135 H 286.239 5.52243 1.22654 0
M  V30 3136 H 284.796 6.43521 1.03556 0
M  V30 3137 N 288.23 0.939286 1.26551 0
M  V30 3138 C 289.177 0.446088 2.26448 0
M  V30 3139 C 290.147 -0.493234 1.58608 0
M  V30 3140 O 291.332 -0.409857 1.86346 0
M  V30 3141 C 288.472 -0.284375 3.43926 0
M  V30 3142 C 287.585 0.690399 4.26448 0
M  V30 3143 C 286.72 -0.0610712 5.31165 0
M  V30 3144 C 285.759 0.905649 6.05363 0
M  V30 3145 N 284.896 0.186055 7.01853 0
M  V30 3146 H 289.736 1.30291 2.68008 0
M  V30 3147 H 287.273 0.65371 1.31776 0
M  V30 3148 H 289.231 -0.724313 4.10864 0
M  V30 3149 H 287.861 -1.10535 3.03285 0
M  V30 3150 H 286.913 1.24885 3.59316 0
M  V30 3151 H 288.225 1.42873 4.779 0
M  V30 3152 H 287.379 -0.56038 6.04106 0
M  V30 3153 H 286.118 -0.832297 4.80546 0
M  V30 3154 H 285.123 1.4161 5.3125 0
M  V30 3155 H 286.348 1.67685 6.58072 0
M  V30 3156 H 284.294 -0.566714 6.53548 0
M  V30 3157 H 284.211 0.863752 7.51049 0
M  V30 3158 H 285.479 -0.292221 7.78952 0
M  V30 3159 N 289.708 -1.40897 0.706093 0
M  V30 3160 C 290.956 -2.00657 0.241054 0
M  V30 3161 C 291.277 -1.56241 -1.16678 0
M  V30 3162 O 290.547 -0.79765 -1.78926 0
M  V30 3163 H 289.127 -0.742018 0.0861308 0
M  V30 3164 H 291.789 -1.72372 0.909604 0
M  V30 3165 H 290.885 -3.10958 0.266705 0
M  V30 3166 N 291.186 -0.45159 -1.50991 0
M  V30 3167 C 292.118 0.388634 -2.25881 0
M  V30 3168 C 293.131 0.974041 -1.30446 0
M  V30 3169 O 294.32 0.865758 -1.56099 0
M  V30 3170 C 291.42 1.5571 -3.01011 0
M  V30 3171 C 290.593 1.08801 -4.23652 0
M  V30 3172 C 289.652 2.12825 -4.8124 0
M  V30 3173 O 288.678 1.71678 -5.42693 0
M  V30 3174 N 289.88 3.45453 -4.66522 0
M  V30 3175 H 292.645 -0.25329 -2.98628 0
M  V30 3176 H 290.206 -0.281268 -1.59438 0
M  V30 3177 H 292.198 2.24952 -3.3642 0
M  V30 3178 H 290.768 2.10409 -2.31186 0
M  V30 3179 H 289.988 0.22215 -3.93574 0
M  V30 3180 H 291.276 0.752213 -5.03209 0
M  V30 3181 H 290.674 3.81605 -4.17605 0
M  V30 3182 H 289.231 4.10549 -5.06254 0
M  V30 3183 N 292.664 1.56529 -0.183458 0
M  V30 3184 C 293.611 2.18546 0.742055 0
M  V30 3185 C 294.581 1.12912 1.2182 0
M  V30 3186 O 295.766 1.41115 1.28418 0
M  V30 3187 C 292.906 2.83977 1.96089 0
M  V30 3188 C 292.019 4.04105 1.52719 0
M  V30 3189 C 291.154 4.57427 2.70063 0
M  V30 3190 C 290.193 5.69938 2.23243 0
M  V30 3191 N 289.33 6.17717 3.33722 0
M  V30 3192 H 294.17 2.97284 0.206432 0
M  V30 3193 H 291.707 1.46823 0.0901571 0
M  V30 3194 H 293.665 3.20077 2.67594 0
M  V30 3195 H 292.295 2.07822 2.47002 0
M  V30 3196 H 291.347 3.73745 0.708436 0
M  V30 3197 H 292.659 4.85513 1.1436 0
M  V30 3198 H 291.813 4.95772 3.49708 0
M  V30 3199 H 290.552 3.75101 3.11689 0
M  V30 3200 H 289.557 5.31133 1.42048 0
M  V30 3201 H 290.782 6.54073 1.82661 0
M  V30 3202 H 288.728 5.38317 3.74902 0
M  V30 3203 H 288.645 6.94146 2.99495 0
M  V30 3204 H 289.913 6.60713 4.13616 0
M  V30 3205 N 294.142 -0.090211 1.57342 0
M  V30 3206 C 295.105 -1.09335 2.01441 0
M  V30 3207 C 296.105 -1.32666 0.908641 0
M  V30 3208 O 297.295 -1.28697 1.174 0
M  V30 3209 C 294.427 -2.44136 2.3793 0
M  V30 3210 H 295.62 -0.713662 2.91285 0
M  V30 3211 H 293.173 -0.335404 1.52659 0
M  V30 3212 H 293.908 -2.86972 1.51055 0
M  V30 3213 H 293.693 -2.28548 3.18603 0
M  V30 3214 H 295.183 -3.16277 2.72688 0
M  V30 3215 N 295.62 -1.53406 -0.361157 0
M  V30 3216 C 297.031 -1.61442 -0.937728 0
M  V30 3217 C 297.382 -0.48461 -1.90121 0
M  V30 3218 O 296.507 0.388312 -2.12888 0
M  V30 3219 C 297.102 -2.92624 -1.70753 0
M  V30 3220 C 295.661 -3.02981 -2.23337 0
M  V30 3221 C 294.808 -2.5677 -1.04712 0
M  V30 3222 H 297.759 -1.58083 -0.139816 0
M  V30 3223 H 297.78 -2.80675 -2.56908 0
M  V30 3224 H 297.292 -3.74834 -1.00604 0
M  V30 3225 H 295.393 -2.25368 -2.96715 0
M  V30 3226 H 295.506 -4.0814 -2.50916 0
M  V30 3227 H 293.87 -2.11752 -1.41539 0
M  V30 3228 H 294.653 -3.41402 -0.360539 0
M  V30 3229 N 297.098 0.621204 -1.44841 0
M  V30 3230 C 298.061 1.71459 -1.521 0
M  V30 3231 C 299.061 1.55696 -0.401933 0
M  V30 3232 O 300.251 1.61011 -0.664925 0
M  V30 3233 C 297.383 3.10624 -1.40447 0
M  V30 3234 H 298.576 1.66394 -2.49506 0
M  V30 3235 H 296.129 0.835745 -1.3208 0
M  V30 3236 H 296.864 3.21277 -0.441737 0
M  V30 3237 H 296.649 3.23473 -2.21602 0
M  V30 3238 H 298.139 3.90293 -1.4853 0
M  V30 3239 N 298.576 1.31904 0.862503 0
M  V30 3240 C 299.508 1.16005 1.97675 0
M  V30 3241 C 300.521 0.0971234 1.6251 0
M  V30 3242 O 301.71 0.345337 1.75128 0
M  V30 3243 C 298.81 0.751791 3.30456 0
M  V30 3244 C 297.983 1.90133 3.93914 0
M  V30 3245 C 297.042 1.4779 5.05019 0
M  V30 3246 O 296.068 2.18872 5.25437 0
M  V30 3247 N 297.27 0.369491 5.79323 0
M  V30 3248 H 300.035 2.11982 2.11857 0
M  V30 3249 H 297.596 1.24337 1.03691 0
M  V30 3250 H 299.588 0.451084 4.02178 0
M  V30 3251 H 298.158 -0.116593 3.12382 0
M  V30 3252 H 297.378 2.36896 3.15078 0
M  V30 3253 H 298.666 2.67111 4.33047 0
M  V30 3254 H 298.064 -0.222299 5.65263 0
M  V30 3255 H 296.621 0.128354 6.51674 0
M  V30 3256 N 300.054 -1.07777 1.14986 0
M  V30 3257 C 301.001 -2.14867 0.842672 0
M  V30 3258 C 301.971 -1.6486 -0.202552 0
M  V30 3259 O 303.156 -1.90668 -0.0710568 0
M  V30 3260 C 300.296 -3.43486 0.333363 0
M  V30 3261 C 299.409 -4.07306 1.43965 0
M  V30 3262 C 298.544 -5.23744 0.886914 0
M  V30 3263 C 297.583 -5.79517 1.97043 0
M  V30 3264 N 296.72 -6.87291 1.4344 0
M  V30 3265 H 301.56 -2.40485 1.75986 0
M  V30 3266 H 299.097 -1.1801 0.878179 0
M  V30 3267 H 301.055 -4.17195 0.0198163 0
M  V30 3268 H 299.685 -3.18133 -0.546916 0
M  V30 3269 H 298.737 -3.31293 1.86946 0
M  V30 3270 H 300.049 -4.44771 2.25788 0
M  V30 3271 H 299.203 -6.04419 0.525651 0
M  V30 3272 H 297.942 -4.87685 0.0377957 0
M  V30 3273 H 296.947 -4.97491 2.34057 0
M  V30 3274 H 298.172 -6.17632 2.82325 0
M  V30 3275 H 296.118 -6.5318 0.607567 0
M  V30 3276 H 296.035 -7.23617 2.18895 0
M  V30 3277 H 297.303 -7.71682 1.10124 0
M  V30 3278 N 301.532 -0.945985 -1.26051 0
M  V30 3279 C 302.495 -0.463897 -2.24456 0
M  V30 3280 C 303.495 0.427655 -1.55009 0
M  V30 3281 O 304.685 0.226157 -1.72726 0
M  V30 3282 C 301.817 0.330812 -3.39291 0
M  V30 3283 H 303.01 -1.33357 -2.68619 0
M  V30 3284 H 300.563 -0.728416 -1.38289 0
M  V30 3285 H 301.298 1.21852 -3.00537 0
M  V30 3286 H 301.083 -0.308679 -3.90883 0
M  V30 3287 H 302.573 0.657865 -4.12386 0
M  V30 3288 N 303.011 1.40521 -0.713556 0
M  V30 3289 C 304.422 1.83853 -0.324807 0
M  V30 3290 C 304.773 1.59667 1.14021 0
M  V30 3291 O 303.898 1.07649 1.87725 0
M  V30 3292 C 304.493 3.33751 -0.582746 0
M  V30 3293 C 303.052 3.75584 -0.247727 0
M  V30 3294 C 302.199 2.63753 -0.856121 0
M  V30 3295 H 305.15 1.29817 -0.91286 0
M  V30 3296 H 305.171 3.80194 0.152682 0
M  V30 3297 H 304.683 3.51322 -1.64908 0
M  V30 3298 H 302.784 3.63608 0.813624 0
M  V30 3299 H 302.897 4.7373 -0.715307 0
M  V30 3300 H 301.261 2.53108 -0.28432 0
M  V30 3301 H 302.044 2.84137 -1.92668 0
M  V30 3302 N 304.489 0.459591 1.5075 0
M  V30 3303 C 305.452 -0.329093 2.26825 0
M  V30 3304 C 306.452 -0.930481 1.31144 0
M  V30 3305 O 307.642 -0.801453 1.54669 0
M  V30 3306 C 304.774 -1.46768 3.07688 0
M  V30 3307 H 305.967 0.337924 2.9799 0
M  V30 3308 H 303.52 0.213336 1.54837 0
M  V30 3309 H 304.255 -2.17009 2.40993 0
M  V30 3310 H 304.04 -1.04238 3.77991 0
M  V30 3311 H 305.53 -2.02433 3.65254 0
M  V30 3312 N 305.967 -1.56429 0.191757 0
M  V30 3313 C 307.378 -1.83912 -0.321428 0
M  V30 3314 C 307.729 -1.11231 -1.61623 0
M  V30 3315 O 306.854 -0.37202 -2.13178 0
M  V30 3316 C 307.449 -3.33624 -0.589961 0
M  V30 3317 C 306.008 -3.6153 -1.04753 0
M  V30 3318 C 305.155 -2.7714 -0.0943327 0
M  V30 3319 H 308.106 -1.53161 0.415612 0
M  V30 3320 H 308.127 -3.52213 -1.43966 0
M  V30 3321 H 307.639 -3.86495 0.352588 0
M  V30 3322 H 305.74 -3.14089 -2.00447 0
M  V30 3323 H 305.853 -4.69737 -0.942549 0
M  V30 3324 H 304.217 -2.47638 -0.595589 0
M  V30 3325 H 305 -3.32799 0.842601 0
M  V30 3326 N 307.445 0.0818655 -1.57387 0
M  V30 3327 C 308.392 1.09834 -2.0299 0
M  V30 3328 C 309.362 1.39043 -0.908639 0
M  V30 3329 O 310.547 1.50282 -1.17559 0
M  V30 3330 C 307.687 2.40971 -2.47037 0
M  V30 3331 C 306.8 2.18379 -3.7274 0
M  V30 3332 C 305.935 3.43008 -4.0561 0
M  V30 3333 C 304.974 3.15736 -5.24383 0
M  V30 3334 N 304.111 4.32667 -5.52941 0
M  V30 3335 H 308.951 0.702472 -2.89602 0
M  V30 3336 H 306.488 0.33531 -1.43227 0
M  V30 3337 H 308.446 3.1752 -2.70623 0
M  V30 3338 H 307.076 2.78379 -1.63417 0
M  V30 3339 H 306.128 1.32569 -3.56552 0
M  V30 3340 H 307.44 1.94227 -4.59431 0
M  V30 3341 H 306.594 4.27958 -4.30043 0
M  V30 3342 H 305.333 3.70225 -3.17466 0
M  V30 3343 H 304.338 2.2918 -4.99757 0
M  V30 3344 H 305.563 2.8985 -6.14136 0
M  V30 3345 H 303.509 4.59935 -4.67756 0
M  V30 3346 H 303.426 4.11753 -6.34031 0
M  V30 3347 H 304.694 5.18644 -5.81918 0
M  V30 3348 N 308.923 1.53595 0.353017 0
M  V30 3349 C 309.886 1.80232 1.41594 0
M  V30 3350 C 310.886 0.673081 1.46035 0
M  V30 3351 O 312.076 0.941335 1.46576 0
M  V30 3352 C 309.208 1.93578 2.80607 0
M  V30 3353 H 310.401 2.75174 1.19244 0
M  V30 3354 H 307.954 1.44864 0.586872 0
M  V30 3355 H 308.689 1.00746 3.08254 0
M  V30 3356 H 308.474 2.75724 2.78781 0
M  V30 3357 H 309.964 2.15735 3.57558 0
M  V30 3358 N 310.401 -0.613514 1.45168 0
M  V30 3359 C 311.626 -1.40437 1.52618 0
M  V30 3360 C 312.051 -1.87438 0.157707 0
M  V30 3361 O 311.409 -1.59791 -0.856537 0
M  V30 3362 C 311.457 -2.58894 2.51011 0
M  V30 3363 O 310.561 -3.59326 2.02382 0
M  V30 3364 H 309.902 -0.419506 0.514695 0
M  V30 3365 H 312.432 -0.747215 1.90467 0
M  V30 3366 H 312.442 -3.06214 2.69624 0
M  V30 3367 H 311.117 -2.24032 3.50403 0
M  V30 3368 H 309.694 -3.18695 1.93618 0
M  V30 3369 N 311.879 -1.3236 -0.855495 0
M  V30 3370 C 313.127 -1.22629 -1.60644 0
M  V30 3371 C 313.448 0.212136 -1.93843 0
M  V30 3372 O 312.718 1.13666 -1.59552 0
M  V30 3373 H 311.298 -0.450882 -0.595579 0
M  V30 3374 H 313.96 -1.65871 -1.02337 0
M  V30 3375 H 313.056 -1.80832 -2.54374 0
M  V30 3376 N 313.357 1.07166 -1.15556 0
M  V30 3377 C 314.304 2.14417 -0.854055 0
M  V30 3378 C 315.274 1.64965 0.193806 0
M  V30 3379 O 316.459 1.90703 0.0609443 0
M  V30 3380 C 313.599 3.43304 -0.351574 0
M  V30 3381 C 312.712 4.06537 -1.46123 0
M  V30 3382 C 311.847 5.23266 -0.914677 0
M  V30 3383 C 310.886 5.78464 -2.00114 0
M  V30 3384 N 310.023 6.86521 -1.47083 0
M  V30 3385 H 314.863 2.39548 -1.77259 0
M  V30 3386 H 312.4 1.17543 -0.884425 0
M  V30 3387 H 314.358 4.17179 -0.0419409 0
M  V30 3388 H 312.988 3.18419 0.530037 0
M  V30 3389 H 312.04 3.30297 -1.88701 0
M  V30 3390 H 313.352 4.43567 -2.28144 0
M  V30 3391 H 312.506 6.04131 -0.557698 0
M  V30 3392 H 311.245 4.87658 -0.0636583 0
M  V30 3393 H 310.25 4.96243 -2.36692 0
M  V30 3394 H 311.475 6.16126 -2.85597 0
M  V30 3395 H 309.421 6.52849 -0.642198 0
M  V30 3396 H 309.338 7.22446 -2.22729 0
M  V30 3397 H 310.606 7.71087 -1.14215 0
M  V30 3398 N 314.835 0.952656 1.25548 0
M  V30 3399 C 315.782 0.47008 2.25962 0
M  V30 3400 C 316.752 -0.476384 1.59122 0
M  V30 3401 O 317.937 -0.39007 1.8677 0
M  V30 3402 C 315.077 -0.247881 3.44209 0
M  V30 3403 C 314.19 0.735591 4.25691 0
M  V30 3404 C 313.325 -0.0047306 5.312 0
M  V30 3405 C 312.364 0.969805 6.04368 0
M  V30 3406 N 311.501 0.260486 7.01617 0
M  V30 3407 H 316.341 1.33126 2.66611 0
M  V30 3408 H 313.878 0.66765 1.31076 0
M  V30 3409 H 315.836 -0.680695 4.1161 0
M  V30 3410 H 314.466 -1.07312 3.0444 0
M  V30 3411 H 313.518 1.28689 3.57971 0
M  V30 3412 H 314.83 1.47934 4.76358 0
M  V30 3413 H 313.984 -0.496275 6.04667 0
M  V30 3414 H 312.723 -0.781282 4.81401 0
M  V30 3415 H 311.728 1.47237 5.29718 0
M  V30 3416 H 312.953 1.74655 6.56256 0
M  V30 3417 H 310.899 -0.497364 6.54112 0
M  V30 3418 H 310.816 0.943362 7.50091 0
M  V30 3419 H 312.084 -0.209587 7.79218 0
M  V30 3420 N 316.313 -1.40141 0.720998 0
M  V30 3421 C 317.276 -2.29058 0.0805834 0
M  V30 3422 C 318.276 -1.45632 -0.681758 0
M  V30 3423 O 319.466 -1.6648 -0.512856 0
M  V30 3424 C 316.598 -3.28925 -0.895593 0
M  V30 3425 H 317.791 -2.87191 0.863793 0
M  V30 3426 H 315.344 -1.48553 0.485975 0
M  V30 3427 H 316.079 -2.75822 -1.70566 0
M  V30 3428 H 315.864 -3.90519 -0.351766 0
M  V30 3429 H 317.354 -3.95494 -1.34069 0
M  V30 3430 O 317.83 -0.609464 -1.49559 0
M  V30 3431 H 318.521 -0.121877 -1.93316 0
M  V30 END ATOM
M  V30 BEGIN BOND
M  V30 END BOND
M  V30 END CTAB
M  END
$$$$
