drugbank_target|P50921 Triosephosphate isomerase (DB02726)
 OpenBabel12092120013D

  0  0  0     0  0            999 V3000
M  V30 BEGIN CTAB
M  V30 COUNTS 3739 3768 0 0 0
M  V30 BEGIN ATOM
M  V30 1 H -0.908 1.98254 -0.117106 0
M  V30 2 N 0 1.576 0 0
M  V30 3 C 0.933 2.03868 1.02534 0
M  V30 4 C 1.911 0.928543 1.3348 0
M  V30 5 O 3.095 1.19667 1.45644 0
M  V30 6 C 0.222 2.43627 2.35294 0
M  V30 7 C -0.732 3.65373 2.2001 0
M  V30 8 S 0.101 5.13292 1.52614 0
M  V30 9 C 1.257 5.56322 2.86805 0
M  V30 10 H 1.49 2.90518 0.631377 0
M  V30 11 H -0.977 1.52953 0.210867 0
M  V30 12 H 0.981 2.67203 3.11629 0
M  V30 13 H -0.358 1.57376 2.7183 0
M  V30 14 H -1.165 3.90944 3.18086 0
M  V30 15 H -1.563 3.418 1.51819 0
M  V30 16 H 0.729 5.58782 3.83104 0
M  V30 17 H 1.672 6.56266 2.65933 0
M  V30 18 H 2.08 4.83886 2.90714 0
M  V30 19 N 1.4781 -0.272755 1.55222 0
M  V30 20 C 2.8941 -0.619959 1.47067 0
M  V30 21 C 3.0941 -1.895 0.684978 0
M  V30 22 O 2.1501 -2.51675 0.203931 0
M  V30 23 C 3.4631 -0.746693 2.91282 0
M  V30 24 C 5.0111 -0.840731 3.01497 0
M  V30 25 C 5.4861 -0.99924 4.46967 0
M  V30 26 N 6.9771 -1.06476 4.50796 0
M  V30 27 C 7.7121 -1.20621 5.6057 0
M  V30 28 N 7.2081 -1.31483 6.80209 0
M  V30 29 N 9.0011 -1.23733 5.48312 0
M  V30 30 H 1.1521 0.564606 2.04758 0
M  V30 31 H 3.4151 0.191177 0.928523 0
M  V30 32 H 3.1211 0.119753 3.51496 0
M  V30 33 H 2.9951 -1.6269 3.40311 0
M  V30 34 H 5.3821 -1.69764 2.41379 0
M  V30 35 H 5.4631 0.0640874 2.5572 0
M  V30 36 H 5.1071 -0.146984 5.07687 0
M  V30 37 H 5.0371 -1.91871 4.90401 0
M  V30 38 H 7.5281 -0.993196 3.64615 0
M  V30 39 H 7.8411 -1.42111 7.59621 0
M  V30 40 H 6.1861 -1.28487 6.8302 0
M  V30 41 H 9.3771 -1.14877 4.53785 0
M  V30 42 H 9.5501 -1.34412 6.33906 0
M  V30 43 N 2.9562 -1.48159 -0.537278 0
M  V30 44 C 3.9062 -1.5854 -1.63857 0
M  V30 45 C 4.8902 -0.442969 -1.54682 0
M  V30 46 O 6.0822 -0.69401 -1.62827 0
M  V30 47 C 3.2112 -1.62144 -3.02596 0
M  V30 48 C 2.2972 -2.81841 -3.16901 0
M  V30 49 N 2.6882 -4.06337 -3.01204 0
M  V30 50 C 0.9862 -2.79021 -3.47942 0
M  V30 51 C 1.6872 -4.86606 -3.18731 0
M  V30 52 N 0.6632 -4.19288 -3.45974 0
M  V30 53 H 4.4652 -2.5255 -1.50319 0
M  V30 54 H 1.9792 -1.4443 -0.742555 0
M  V30 55 H 3.9762 -1.67674 -3.81695 0
M  V30 56 H 2.6362 -0.69245 -3.17231 0
M  V30 57 H 3.6472 -4.36888 -2.78117 0
M  V30 58 H 0.3242 -1.95347 -3.6898 0
M  V30 59 H 1.7142 -5.95385 -3.11394 0
M  V30 60 N 4.4343 0.785586 -1.36625 0
M  V30 61 C 5.8453 1.36101 -1.27803 0
M  V30 62 C 6.1963 1.96035 0.0804875 0
M  V30 63 O 5.3213 1.92834 0.982042 0
M  V30 64 C 5.9163 2.47442 -2.31426 0
M  V30 65 C 4.4753 3.00789 -2.26281 0
M  V30 66 C 3.6223 1.73896 -2.15999 0
M  V30 67 H 6.5733 0.586928 -1.47448 0
M  V30 68 H 6.5943 3.2656 -1.95291 0
M  V30 69 H 6.1063 2.03791 -3.30289 0
M  V30 70 H 4.2073 3.48851 -1.30896 0
M  V30 71 H 4.3203 3.57343 -3.19128 0
M  V30 72 H 2.6843 1.9628 -1.62316 0
M  V30 73 H 3.4673 1.32368 -3.16755 0
M  V30 74 N 5.9124 1.20967 1.01018 0
M  V30 75 C 7.1584 1.02526 1.74975 0
M  V30 76 C 7.4914 -0.4408 1.89131 0
M  V30 77 O 6.7664 -1.32718 1.42184 0
M  V30 78 C 7.0494 1.71699 3.1653 0
M  V30 79 C 6.9024 3.25791 3.10129 0
M  V30 80 C 8.2214 1.45531 4.15342 0
M  V30 81 H 5.3404 0.373863 0.635134 0
M  V30 82 H 7.9824 1.49071 1.17805 0
M  V30 83 H 6.1324 1.32128 3.65341 0
M  V30 84 H 7.8044 3.74697 2.69072 0
M  V30 85 H 6.0474 3.56363 2.47362 0
M  V30 86 H 6.7184 3.69353 4.10222 0
M  V30 87 H 9.1944 1.79872 3.75213 0
M  V30 88 H 8.0704 1.96453 5.1254 0
M  V30 89 H 8.3314 0.384237 4.40427 0
M  V30 90 N 7.3905 -1.2043 1.01659 0
M  V30 91 C 8.6365 -1.90079 0.706963 0
M  V30 92 C 8.9695 -1.78648 -0.761474 0
M  V30 93 O 8.2445 -1.17069 -1.55323 0
M  V30 94 C 8.5275 -3.41469 1.14327 0
M  V30 95 C 8.3805 -3.61833 2.67201 0
M  V30 96 C 9.6995 -4.34261 0.714529 0
M  V30 97 H 6.8185 -0.690254 0.2583 0
M  V30 98 H 9.4605 -1.41826 1.26433 0
M  V30 99 H 7.6105 -3.82696 0.669056 0
M  V30 100 H 9.2825 -3.2986 3.22475 0
M  V30 101 H 7.5255 -3.05304 3.08175 0
M  V30 102 H 8.1965 -4.67955 2.92783 0
M  V30 103 H 10.6725 -4.00682 1.12221 0
M  V30 104 H 9.5485 -5.38806 1.04784 0
M  V30 105 H 9.8095 -4.40431 -0.383799 0
M  V30 106 N 8.8686 -0.792821 -1.36206 0
M  V30 107 C 9.8016 -0.139422 -2.27774 0
M  V30 108 C 10.7796 0.68649 -1.47398 0
M  V30 109 O 11.9636 0.656738 -1.7669 0
M  V30 110 C 9.0906 0.807947 -3.28922 0
M  V30 111 C 8.1366 0.0633999 -4.26453 0
M  V30 112 S 8.9696 -1.26319 -5.20388 0
M  V30 113 C 10.1256 -0.31991 -6.25082 0
M  V30 114 H 10.3586 -0.915809 -2.82843 0
M  V30 115 H 7.8916 -0.587203 -1.42798 0
M  V30 116 H 9.8496 1.34908 -3.87699 0
M  V30 117 H 8.5106 1.55761 -2.72759 0
M  V30 118 H 7.7036 0.782386 -4.9789 0
M  V30 119 H 7.3056 -0.407352 -3.71775 0
M  V30 120 H 9.5976 0.499985 -6.75653 0
M  V30 121 H 10.5406 -1.00307 -7.00959 0
M  V30 122 H 10.9486 0.0782694 -5.64446 0
M  V30 123 N 10.3467 1.47872 -0.545128 0
M  V30 124 C 11.5947 2.02093 -0.016553 0
M  V30 125 C 11.9157 1.42305 1.3332 0
M  V30 126 O 11.1857 0.593853 1.86682 0
M  V30 127 H 9.7657 0.746993 -0.00313038 0
M  V30 128 H 12.4277 1.81414 -0.712397 0
M  V30 129 H 11.5237 3.11996 0.0805422 0
M  V30 130 N 11.8248 0.280983 1.55075 0
M  V30 131 C 12.7728 -0.619864 2.24188 0
M  V30 132 C 13.7668 -1.15315 1.24092 0
M  V30 133 O 14.9728 -1.1061 1.42005 0
M  V30 134 H 11.3478 -0.218459 0.719569 0
M  V30 135 H 13.3188 -0.0141831 2.98397 0
M  V30 136 C 12.0678 -1.7899 2.98091 0
M  V30 137 H 11.3908 -1.38874 3.74905 0
M  V30 138 H 12.8308 -2.39672 3.49762 0
M  V30 139 C 11.2898 -2.68192 2.03899 0
M  V30 140 O 11.8198 -3.6872 1.594 0
M  V30 141 N 10.0258 -2.35488 1.70275 0
M  V30 142 H 9.5728 -1.53787 2.06658 0
M  V30 143 H 9.5308 -2.95442 1.07524 0
M  V30 144 N 13.3029 -1.57598 0.00835791 0
M  V30 145 C 14.5489 -1.92046 -0.670055 0
M  V30 146 C 14.9039 -0.88351 -1.70915 0
M  V30 147 O 14.1969 0.103223 -1.91322 0
M  V30 148 C 14.3909 -3.3101 -1.34787 0
M  V30 149 C 14.2199 -4.48126 -0.375945 0
M  V30 150 C 12.9899 -5.05297 0.0166914 0
M  V30 151 C 15.1879 -5.1303 0.361272 0
M  V30 152 N 13.1699 -6.05931 0.985952 0
M  V30 153 C 14.5409 -6.08571 1.18495 0
M  V30 154 C 16.5959 -4.9609 0.42421 0
M  V30 155 C 15.2989 -6.88996 2.06584 0
M  V30 156 C 17.3249 -5.77107 1.29236 0
M  V30 157 C 16.6869 -6.72248 2.10386 0
M  V30 158 H 12.7859 -0.75096 -0.218136 0
M  V30 159 H 15.3699 -1.94572 0.0706669 0
M  V30 160 H 13.5409 -3.29342 -2.05884 0
M  V30 161 H 15.2729 -3.52864 -1.98164 0
M  V30 162 H 12.0279 -4.72279 -0.353435 0
M  V30 163 H 12.4519 -6.60932 1.4662 0
M  V30 164 H 17.0939 -4.22378 -0.188915 0
M  V30 165 H 14.8119 -7.62028 2.6896 0
M  V30 166 H 18.3979 -5.66038 1.34508 0
M  V30 167 H 17.2779 -7.33846 2.76476 0
M  V30 168 N 14.781 0.264519 -1.55364 0
M  V30 169 C 15.728 1.32717 -1.88825 0
M  V30 170 C 16.698 1.48675 -0.740605 0
M  V30 171 O 17.883 1.62945 -0.992657 0
M  V30 172 C 15.023 2.68089 -2.17307 0
M  V30 173 C 14.136 2.60284 -3.44785 0
M  V30 174 C 13.271 3.87892 -3.62924 0
M  V30 175 C 12.31 3.74631 -4.84064 0
M  V30 176 N 11.447 4.94092 -4.98816 0
M  V30 177 H 16.287 1.03481 -2.79456 0
M  V30 178 H 13.824 0.499757 -1.3835 0
M  V30 179 H 15.782 3.46864 -2.31821 0
M  V30 180 H 14.412 2.95509 -1.299 0
M  V30 181 H 13.464 1.73173 -3.38697 0
M  V30 182 H 14.776 2.46388 -4.33698 0
M  V30 183 H 13.93 4.75109 -3.77302 0
M  V30 184 H 12.669 4.04664 -2.7221 0
M  V30 185 H 11.674 2.85797 -4.69681 0
M  V30 186 H 12.899 3.5937 -5.76221 0
M  V30 187 H 10.845 5.11259 -4.11036 0
M  V30 188 H 10.762 4.8276 -5.81789 0
M  V30 189 H 12.03 5.82857 -5.17588 0
M  V30 190 N 16.2591 1.48442 0.529413 0
M  V30 191 C 17.1891 1.65902 1.64313 0
M  V30 192 C 18.1701 0.507897 1.6234 0
M  V30 193 O 19.3551 0.740503 1.79528 0
M  V30 194 C 16.4851 1.69911 3.02898 0
M  V30 195 C 15.4391 2.8453 3.19729 0
M  V30 196 C 14.7651 2.73629 4.59381 0
M  V30 197 C 16.0651 4.25821 3.02447 0
M  V30 198 H 17.7591 2.5914 1.49955 0
M  V30 199 H 15.3051 1.24709 0.719982 0
M  V30 200 H 17.2581 1.80715 3.80684 0
M  V30 201 H 15.9821 0.732524 3.18279 0
M  V30 202 H 14.6411 2.73283 2.44361 0
M  V30 203 H 14.2891 1.74938 4.71599 0
M  V30 204 H 13.9891 3.50541 4.71588 0
M  V30 205 H 15.5131 2.86401 5.39265 0
M  V30 206 H 16.9271 4.37898 3.70024 0
M  V30 207 H 15.3241 5.03735 3.26146 0
M  V30 208 H 16.3941 4.42244 1.98867 0
M  V30 209 N 17.7372 -0.778329 1.37039 0
M  V30 210 C 18.6852 -1.91278 1.32345 0
M  V30 211 C 19.6792 -1.68051 0.213331 0
M  V30 212 O 20.8852 -1.75922 0.38098 0
M  V30 213 H 17.2602 -0.628909 0.412283 0
M  V30 214 H 19.2312 -1.92355 2.28127 0
M  V30 215 C 17.9802 -3.28455 1.14073 0
M  V30 216 H 17.3032 -3.46901 1.98746 0
M  V30 217 H 18.7432 -4.08152 1.14837 0
M  V30 218 C 17.2022 -3.36548 -0.154015 0
M  V30 219 O 17.7322 -3.85186 -1.13993 0
M  V30 220 N 15.9382 -2.89894 -0.202475 0
M  V30 221 H 15.4852 -2.50504 0.600476 0
M  V30 222 H 15.4432 -2.9569 -1.06841 0
M  V30 223 N 19.2153 -1.21501 -1.00376 0
M  V30 224 C 20.4633 -1.03095 -1.73827 0
M  V30 225 C 20.7843 0.436341 -1.90055 0
M  V30 226 O 20.0543 1.31466 -1.45236 0
M  V30 227 H 18.6343 -0.378487 -0.644016 0
M  V30 228 H 21.2963 -1.52831 -1.20949 0
M  V30 229 H 20.3923 -1.49991 -2.73695 0
M  V30 230 N 20.6934 1.19889 -1.02296 0
M  V30 231 C 21.9184 1.9393 -0.735237 0
M  V30 232 C 22.3434 1.74639 0.698782 0
M  V30 233 O 21.7014 1.04481 1.48167 0
M  V30 234 C 21.7494 3.43916 -1.08417 0
M  V30 235 O 20.8534 4.11917 -0.199446 0
M  V30 236 H 20.1944 0.605645 -0.272196 0
M  V30 237 H 22.7244 1.52137 -1.36804 0
M  V30 238 H 22.7344 3.9456 -1.03856 0
M  V30 239 H 21.4094 3.5728 -2.12894 0
M  V30 240 H 19.9864 3.71666 -0.303136 0
M  V30 241 N 22.1715 0.800033 1.35784 0
M  V30 242 C 23.1185 0.203848 2.29898 0
M  V30 243 C 24.0885 -0.658375 1.52495 0
M  V30 244 O 25.2735 -0.604832 1.8096 0
M  V30 245 C 22.4135 -0.64688 3.38983 0
M  V30 246 C 21.5265 0.235054 4.3136 0
M  V30 247 C 20.6615 -0.623054 5.27533 0
M  V30 248 C 19.7005 0.259682 6.11549 0
M  V30 249 N 18.8375 -0.558019 6.99879 0
M  V30 250 H 23.6775 1.01186 2.80295 0
M  V30 251 H 21.2145 0.51053 1.37957 0
M  V30 252 H 23.1725 -1.15521 4.00887 0
M  V30 253 H 21.8025 -1.42021 2.89879 0
M  V30 254 H 20.8545 0.861438 3.70518 0
M  V30 255 H 22.1665 0.914768 4.9034 0
M  V30 256 H 21.3205 -1.19678 5.94779 0
M  V30 257 H 20.0595 -1.33636 4.69034 0
M  V30 258 H 19.0645 0.845726 5.43256 0
M  V30 259 H 20.2895 0.970748 6.72126 0
M  V30 260 H 18.2355 -1.25542 6.43875 0
M  V30 261 H 18.1525 0.0637872 7.55973 0
M  V30 262 H 19.4205 -1.11523 7.71481 0
M  V30 263 N 23.6496 -1.47581 0.552962 0
M  V30 264 C 24.5596 -2.33743 -0.200353 0
M  V30 265 C 25.5756 -1.47928 -0.916151 0
M  V30 266 O 26.7516 -1.80865 -0.885993 0
M  V30 267 C 23.8166 -3.24536 -1.21973 0
M  V30 268 C 22.8776 -4.26238 -0.511819 0
M  V30 269 C 22.1106 -5.12693 -1.48263 0
M  V30 270 O 22.3336 -5.01525 -2.71714 0
M  V30 271 O 21.2676 -5.93375 -1.00945 0
M  V30 272 H 25.0936 -2.9945 0.506304 0
M  V30 273 H 22.6786 -1.46071 0.313622 0
M  V30 274 H 24.5606 -3.80631 -1.80827 0
M  V30 275 H 23.2356 -2.61462 -1.90839 0
M  V30 276 H 22.1426 -3.73914 0.117799 0
M  V30 277 H 23.4756 -4.92014 0.135308 0
M  V30 278 N 25.1277 -0.289203 -1.54924 0
M  V30 279 C 26.0607 0.633823 -2.19221 0
M  V30 280 C 27.0387 1.14174 -1.15772 0
M  V30 281 O 28.2227 1.21211 -1.44361 0
M  V30 282 C 25.3497 1.86592 -2.82668 0
M  V30 283 C 24.3957 1.49227 -3.99542 0
M  V30 284 S 25.2287 0.558312 -5.32582 0
M  V30 285 C 26.3847 1.79847 -5.99505 0
M  V30 286 H 26.6177 0.0875416 -2.97171 0
M  V30 287 H 24.1507 -0.0733899 -1.54225 0
M  V30 288 H 26.1087 2.57305 -3.19851 0
M  V30 289 H 24.7697 2.38335 -2.04585 0
M  V30 290 H 23.9627 2.40945 -4.42676 0
M  V30 291 H 23.5647 0.865193 -3.63855 0
M  V30 292 H 25.8567 2.7406 -6.19595 0
M  V30 293 H 26.7997 1.4099 -6.93922 0
M  V30 294 H 27.2077 1.96982 -5.29016 0
M  V30 295 N 26.6058 1.57591 -0.0167156 0
M  V30 296 C 27.8518 1.91567 0.665582 0
M  V30 297 C 28.1848 0.892298 1.72487 0
M  V30 298 O 27.4598 -0.0867127 1.94307 0
M  V30 299 C 27.7428 3.36069 1.29342 0
M  V30 300 C 27.5958 4.49135 0.244541 0
M  V30 301 C 28.9148 3.803 2.21495 0
M  V30 302 H 26.0338 0.69666 0.240488 0
M  V30 303 H 28.6758 1.89866 -0.0714356 0
M  V30 304 H 26.8258 3.3765 1.92158 0
M  V30 305 H 28.4978 4.59689 -0.385228 0
M  V30 306 H 26.7408 4.3165 -0.431379 0
M  V30 307 H 27.4118 5.47242 0.723207 0
M  V30 308 H 29.8878 3.80377 1.68678 0
M  V30 309 H 28.7638 4.82127 2.62382 0
M  V30 310 H 29.0248 3.15104 3.101 0
M  V30 311 N 28.0839 -0.256276 1.55502 0
M  V30 312 C 29.3299 -0.987079 1.77157 0
M  V30 313 C 29.6629 -1.85327 0.580315 0
M  V30 314 O 28.9379 -1.89874 -0.421686 0
M  V30 315 C 29.2209 -1.85553 3.08613 0
M  V30 316 C 29.0739 -1.01816 4.38125 0
M  V30 317 C 30.3929 -2.8397 3.36228 0
M  V30 318 H 27.5119 -0.357428 0.644526 0
M  V30 319 H 30.1539 -0.258239 1.88237 0
M  V30 320 H 28.3039 -2.47695 2.99298 0
M  V30 321 H 29.9759 -0.416159 4.59419 0
M  V30 322 H 28.2189 -0.322178 4.32602 0
M  V30 323 H 28.8899 -1.65939 5.26468 0
M  V30 324 H 31.3659 -2.31964 3.45445 0
M  V30 325 H 30.2419 -3.41864 4.29442 0
M  V30 326 H 30.5029 -3.59955 2.56681 0
M  V30 327 N 29.562 -1.4872 -0.521534 0
M  V30 328 C 30.839 -1.4766 -1.2828 0
M  V30 329 C 31.219 -0.19292 -2.10217 0
M  V30 330 O 30.567 0.825193 -2.13079 0
M  V30 331 C 30.777 -2.74358 -2.15705 0
M  V30 332 C 32.125 -3.23028 -2.75569 0
M  V30 333 O 33.149 -2.75333 -2.25987 0
M  V30 334 O 32.008 -4.0604 -3.65778 0
M  V30 335 H 29.102 -0.590085 -0.579421 0
M  V30 336 H 31.648 -1.60963 -0.537492 0
M  V30 337 H 30.42 -3.59292 -1.54999 0
M  V30 338 H 30.043 -2.63816 -2.97467 0
M  V30 339 N 31.0401 0.771051 -1.3745 0
M  V30 340 C 31.9701 1.89827 -1.3597 0
M  V30 341 C 32.9511 1.68562 -0.228216 0
M  V30 342 O 34.1361 1.8941 -0.428675 0
M  V30 343 C 31.2661 3.2712 -1.16662 0
M  V30 344 C 30.2201 3.6295 -2.2683 0
M  V30 345 C 29.5461 4.98791 -1.92644 0
M  V30 346 C 30.8461 3.69627 -3.69017 0
M  V30 347 H 32.5401 1.91323 -2.30295 0
M  V30 348 H 30.0861 0.919082 -1.10855 0
M  V30 349 H 32.0391 4.05615 -1.14256 0
M  V30 350 H 30.7631 3.26059 -0.187926 0
M  V30 351 H 29.4221 2.86763 -2.28392 0
M  V30 352 H 29.0701 4.94271 -0.933021 0
M  V30 353 H 28.7701 5.23733 -2.66416 0
M  V30 354 H 30.2941 5.79685 -1.91826 0
M  V30 355 H 31.7081 4.38273 -3.69581 0
M  V30 356 H 30.1051 4.06067 -4.41848 0
M  V30 357 H 31.1751 2.70273 -4.02592 0
M  V30 358 N 32.5182 1.22032 0.997298 0
M  V30 359 C 33.4482 1.01065 2.10495 0
M  V30 360 C 34.4292 -0.0669542 1.69968 0
M  V30 361 O 35.6142 0.0943987 1.9397 0
M  V30 362 C 32.7442 0.582874 3.42374 0
M  V30 363 C 31.6982 1.60592 3.96729 0
M  V30 364 C 31.0242 1.03412 5.24605 0
M  V30 365 C 32.3242 2.99478 4.27914 0
M  V30 366 H 34.0182 1.93708 2.28292 0
M  V30 367 H 31.5642 0.932761 1.09707 0
M  V30 368 H 33.5172 0.423332 4.19268 0
M  V30 369 H 32.2412 -0.379213 3.24391 0
M  V30 370 H 30.9002 1.75316 3.21963 0
M  V30 371 H 30.5482 0.063518 5.0296 0
M  V30 372 H 30.2482 1.71754 5.61938 0
M  V30 373 H 31.7722 0.886066 6.04137 0
M  V30 374 H 33.1862 2.88153 4.95622 0
M  V30 375 H 31.5832 3.64903 4.76409 0
M  V30 376 H 32.6532 3.49742 3.3587 0
M  V30 377 N 33.9963 -1.19345 1.0293 0
M  V30 378 C 34.9443 -2.24621 0.604001 0
M  V30 379 C 35.9383 -1.65452 -0.363587 0
M  V30 380 O 37.1443 -1.78497 -0.23212 0
M  V30 381 H 33.5193 -0.730858 0.177061 0
M  V30 382 H 35.4903 -2.5781 1.50255 0
M  V30 383 C 34.2393 -3.47688 -0.0289127 0
M  V30 384 H 33.5623 -3.93505 0.706651 0
M  V30 385 H 35.0023 -4.23011 -0.289432 0
M  V30 386 C 33.4613 -3.11817 -1.2756 0
M  V30 387 O 33.9913 -3.2451 -2.36762 0
M  V30 388 N 32.1973 -2.66246 -1.16453 0
M  V30 389 H 31.7443 -2.56118 -0.275914 0
M  V30 390 H 31.7023 -2.42617 -1.99961 0
M  V30 391 N 35.4744 -0.807222 -1.35358 0
M  V30 392 C 36.7224 -0.387122 -1.98358 0
M  V30 393 C 37.0434 1.04942 -1.64354 0
M  V30 394 O 36.3134 1.72615 -0.926339 0
M  V30 395 H 34.8934 -0.140154 -0.733734 0
M  V30 396 H 37.5554 -1.0332 -1.6526 0
M  V30 397 H 36.6514 -0.493352 -3.08176 0
M  V30 398 N 36.9525 1.47285 -0.560781 0
M  V30 399 C 37.8825 2.32857 0.173105 0
M  V30 400 C 38.8635 1.44009 0.905281 0
M  V30 401 O 40.0485 1.7286 0.885046 0
M  V30 402 C 37.1785 3.25861 1.20133 0
M  V30 403 C 36.1325 4.23978 0.585388 0
M  V30 404 C 35.4585 5.06332 1.7185 0
M  V30 405 C 36.7585 5.20242 -0.463178 0
M  V30 406 H 38.4525 2.94466 -0.541307 0
M  V30 407 H 35.9985 1.41601 -0.261764 0
M  V30 408 H 37.9515 3.84569 1.72293 0
M  V30 409 H 36.6755 2.62315 1.94573 0
M  V30 410 H 35.3345 3.66501 0.085054 0
M  V30 411 H 34.9825 4.39186 2.45203 0
M  V30 412 H 34.6825 5.72762 1.31213 0
M  V30 413 H 36.2065 5.67899 2.24329 0
M  V30 414 H 37.6205 5.73293 -0.027502 0
M  V30 415 H 36.0175 5.94896 -0.788627 0
M  V30 416 H 37.0875 4.65504 -1.35773 0
M  V30 417 N 38.4306 0.297415 1.54768 0
M  V30 418 C 39.3786 -0.596051 2.24833 0
M  V30 419 C 40.3726 -1.13992 1.25308 0
M  V30 420 O 41.5786 -1.09098 1.4317 0
M  V30 421 H 37.9536 -0.210814 0.721846 0
M  V30 422 H 39.9246 0.0174667 2.98395 0
M  V30 423 C 38.6736 -1.75818 2.99972 0
M  V30 424 H 37.9966 -1.3489 3.76357 0
M  V30 425 H 39.4366 -2.35949 3.52284 0
M  V30 426 C 37.8956 -2.66014 2.06732 0
M  V30 427 O 38.4256 -3.67009 1.63302 0
M  V30 428 N 36.6316 -2.33669 1.72763 0
M  V30 429 H 36.1786 -1.51586 2.08277 0
M  V30 430 H 36.1366 -2.94285 1.10652 0
M  V30 431 N 39.9087 -1.5758 0.0250728 0
M  V30 432 C 40.8717 -2.08896 -0.943139 0
M  V30 433 C 41.8717 -1.00321 -1.25668 0
M  V30 434 O 43.0617 -1.26495 -1.19769 0
M  V30 435 C 40.1937 -2.55143 -2.26086 0
M  V30 436 H 41.3867 -2.95723 -0.498775 0
M  V30 437 H 38.9397 -1.54703 -0.222888 0
M  V30 438 H 39.6747 -1.71633 -2.75159 0
M  V30 439 H 39.4597 -3.34461 -2.04641 0
M  V30 440 H 40.9497 -2.95083 -2.95492 0
M  V30 441 N 41.3868 0.248026 -1.55636 0
M  V30 442 C 42.2968 1.32859 -1.93354 0
M  V30 443 C 43.3128 1.52719 -0.833838 0
M  V30 444 O 44.4888 1.66363 -1.13513 0
M  V30 445 C 41.5538 2.66337 -2.21958 0
M  V30 446 C 40.6148 2.55008 -3.45354 0
M  V30 447 C 39.8478 3.82121 -3.72584 0
M  V30 448 O 40.0708 4.83951 -3.01907 0
M  V30 449 O 39.0048 3.80822 -4.6611 0
M  V30 450 H 42.8308 1.03862 -2.85388 0
M  V30 451 H 40.4158 0.448686 -1.42503 0
M  V30 452 H 42.2978 3.45216 -2.4167 0
M  V30 453 H 40.9728 2.95068 -1.33103 0
M  V30 454 H 39.8798 1.7442 -3.30951 0
M  V30 455 H 41.2128 2.31222 -4.34508 0
M  V30 456 N 42.8649 1.48995 0.513639 0
M  V30 457 C 43.7949 1.67636 1.62544 0
M  V30 458 C 44.7759 0.525087 1.61793 0
M  V30 459 O 45.9609 0.759502 1.78732 0
M  V30 460 C 43.0909 1.73114 3.01079 0
M  V30 461 C 42.0449 2.87905 3.16693 0
M  V30 462 C 41.3709 2.78486 4.56453 0
M  V30 463 C 42.6709 4.29005 2.97913 0
M  V30 464 H 44.3649 2.60716 1.47198 0
M  V30 465 H 41.9109 1.25465 0.706714 0
M  V30 466 H 43.8639 1.84742 3.78746 0
M  V30 467 H 42.5879 0.766241 3.17484 0
M  V30 468 H 41.2469 2.75859 2.41448 0
M  V30 469 H 40.8949 1.7993 4.69717 0
M  V30 470 H 40.5949 3.55523 4.67843 0
M  V30 471 H 42.1189 2.92104 5.36197 0
M  V30 472 H 43.5329 4.41798 3.65359 0
M  V30 473 H 41.9299 5.07166 3.20785 0
M  V30 474 H 42.9999 4.44329 1.94165 0
M  V30 475 N 44.343 -0.763751 1.37857 0
M  V30 476 C 45.253 -1.90817 1.36478 0
M  V30 477 C 46.269 -1.71997 0.263248 0
M  V30 478 O 47.445 -1.95095 0.499979 0
M  V30 479 C 44.51 -3.2605 1.17864 0
M  V30 480 C 43.571 -3.57467 2.3773 0
M  V30 481 C 42.804 -4.86249 2.19995 0
M  V30 482 O 43.027 -5.57884 1.18836 0
M  V30 483 O 41.961 -5.16911 3.08361 0
M  V30 484 H 45.787 -1.94933 2.32884 0
M  V30 485 H 43.372 -0.907619 1.1867 0
M  V30 486 H 45.254 -4.06924 1.09504 0
M  V30 487 H 43.929 -3.22769 0.245372 0
M  V30 488 H 42.836 -2.76796 2.51664 0
M  V30 489 H 44.169 -3.655 3.29652 0
M  V30 490 N 45.8211 -1.22559 -0.990812 0
M  V30 491 C 47.0691 -1.04933 -1.72724 0
M  V30 492 C 47.3901 0.416158 -1.90508 0
M  V30 493 O 46.6601 1.29918 -1.46622 0
M  V30 494 H 45.2401 -0.385296 -0.639965 0
M  V30 495 H 47.9021 -1.54105 -1.19322 0
M  V30 496 H 46.9981 -1.52886 -2.72089 0
M  V30 497 N 47.2992 1.18797 -1.03562 0
M  V30 498 C 48.5452 1.8893 -0.737113 0
M  V30 499 C 48.8782 1.79837 0.732956 0
M  V30 500 O 48.1532 1.19525 1.5344 0
M  V30 501 C 48.4362 3.39607 -1.19745 0
M  V30 502 C 48.2892 3.57537 -2.72924 0
M  V30 503 C 49.6082 4.33069 -0.783526 0
M  V30 504 H 46.7272 0.686057 -0.269249 0
M  V30 505 H 49.3692 1.39797 -1.28673 0
M  V30 506 H 47.5192 3.81583 -0.729855 0
M  V30 507 H 49.1912 3.24688 -3.27682 0
M  V30 508 H 47.4342 3.00363 -3.12993 0
M  V30 509 H 48.1052 4.63238 -3.00191 0
M  V30 510 H 50.5812 3.98846 -1.18581 0
M  V30 511 H 49.4572 5.3707 -1.13343 0
M  V30 512 H 49.7182 4.40986 0.313681 0
M  V30 513 N 48.7773 0.814389 1.34928 0
M  V30 514 C 50.0053 0.411136 2.02774 0
M  V30 515 C 50.4203 -0.980316 1.61354 0
M  V30 516 O 49.7773 -1.63299 0.814847 0
M  V30 517 C 49.8283 0.493865 3.58111 0
M  V30 518 O 49.5493 1.83047 3.98027 0
M  V30 519 C 51.0503 0.0844174 4.4322 0
M  V30 520 H 48.2703 0.166037 0.650133 0
M  V30 521 H 50.8143 1.10018 1.72384 0
M  V30 522 H 48.9693 -0.147006 3.87121 0
M  V30 523 H 49.3833 1.79872 4.92693 0
M  V30 524 H 50.8573 0.193404 5.51661 0
M  V30 525 H 51.3343 -0.97113 4.28329 0
M  V30 526 H 51.9403 0.69875 4.19521 0
M  V30 527 N 50.2554 -1.46986 0.568584 0
M  V30 528 C 51.5034 -2.02041 0.0487022 0
M  V30 529 C 51.8244 -1.44408 -1.31039 0
M  V30 530 O 51.0944 -0.623477 -1.85714 0
M  V30 531 H 49.6744 -0.746849 0.015014 0
M  V30 532 H 52.3364 -1.80257 0.741168 0
M  V30 533 H 51.4324 -3.12085 -0.0308961 0
M  V30 534 N 51.7335 -0.305618 -1.54608 0
M  V30 535 C 52.9795 0.302746 -2.00528 0
M  V30 536 C 53.3125 1.53184 -1.19367 0
M  V30 537 O 52.5875 1.92598 -0.271321 0
M  V30 538 C 52.8705 0.654756 -3.54097 0
M  V30 539 C 52.7235 -0.583793 -4.45995 0
M  V30 540 C 54.0425 1.47947 -4.14487 0
M  V30 541 H 51.1615 0.108564 -0.72896 0
M  V30 542 H 53.8035 -0.418634 -1.85331 0
M  V30 543 H 51.9535 1.26935 -3.67178 0
M  V30 544 H 53.6255 -1.22224 -4.44814 0
M  V30 545 H 51.8685 -1.21615 -4.16404 0
M  V30 546 H 52.5395 -0.293287 -5.5122 0
M  V30 547 H 55.0155 0.96013 -4.04871 0
M  V30 548 H 53.8915 1.69454 -5.22088 0
M  V30 549 H 54.1525 2.47011 -3.66658 0
M  V30 550 N 53.2116 1.57565 -0.0334293 0
M  V30 551 C 54.4886 1.83282 0.683163 0
M  V30 552 C 54.8686 0.91823 1.90084 0
M  V30 553 O 54.2166 -0.025113 2.28486 0
M  V30 554 C 54.4266 3.32599 1.0573 0
M  V30 555 C 55.7746 3.99179 1.44711 0
M  V30 556 O 56.7986 3.3712 1.15015 0
M  V30 557 O 55.6576 5.08565 2.0006 0
M  V30 558 H 52.7516 0.755869 0.335546 0
M  V30 559 H 55.2976 1.69589 -0.0614402 0
M  V30 560 H 54.0696 3.90834 0.190828 0
M  V30 561 H 53.6926 3.51415 1.85993 0
M  V30 562 N 54.6897 -0.239769 1.55765 0
M  V30 563 C 55.9357 -0.968234 1.78194 0
M  V30 564 C 56.2687 -1.84701 0.599938 0
M  V30 565 O 55.5437 -1.9031 -0.401524 0
M  V30 566 C 55.8267 -1.8227 3.10564 0
M  V30 567 C 55.6797 -0.971633 4.3918 0
M  V30 568 C 56.9987 -2.80388 3.39221 0
M  V30 569 H 54.1177 -0.350572 0.648281 0
M  V30 570 H 56.7597 -0.238259 1.885 0
M  V30 571 H 54.9097 -2.44507 3.01908 0
M  V30 572 H 56.5817 -0.367408 4.59835 0
M  V30 573 H 54.8247 -0.276276 4.32919 0
M  V30 574 H 55.4957 -1.60346 5.28198 0
M  V30 575 H 57.9717 -2.28287 3.47885 0
M  V30 576 H 56.8477 -3.3729 4.33044 0
M  V30 577 H 57.1087 -3.57212 2.60484 0
M  V30 578 N 56.1678 -1.49265 -0.50573 0
M  V30 579 C 57.1308 -1.65075 -1.59006 0
M  V30 580 C 58.1308 -0.522768 -1.52065 0
M  V30 581 O 59.3208 -0.789117 -1.55302 0
M  V30 582 C 56.4528 -1.64369 -2.98656 0
M  V30 583 H 57.6458 -2.61784 -1.46319 0
M  V30 584 H 55.1988 -1.38226 -0.729616 0
M  V30 585 H 55.9338 -0.692272 -3.16825 0
M  V30 586 H 55.7188 -2.46282 -3.05103 0
M  V30 587 H 57.2088 -1.78674 -3.77446 0
M  V30 588 N 57.6459 0.756429 -1.3826 0
M  V30 589 C 58.8919 1.51772 -1.34511 0
M  V30 590 C 59.2249 1.94089 0.0656691 0
M  V30 591 O 58.4999 1.65221 1.02626 0
M  V30 592 C 58.7829 2.77226 -2.29821 0
M  V30 593 C 58.6359 2.41065 -3.79747 0
M  V30 594 C 59.9549 3.79236 -2.23312 0
M  V30 595 H 57.0739 0.550578 -0.489931 0
M  V30 596 H 59.7159 0.866607 -1.69086 0
M  V30 597 H 57.8659 3.32784 -2.00467 0
M  V30 598 H 59.5379 1.91303 -4.19763 0
M  V30 599 H 57.7809 1.7356 -3.97567 0
M  V30 600 H 58.4519 3.3081 -4.41892 0
M  V30 601 H 60.9279 3.3321 -2.49219 0
M  V30 602 H 59.8039 4.64714 -2.92116 0
M  V30 603 H 60.0649 4.24615 -1.23102 0
M  V30 604 N 59.124 1.23083 0.984299 0
M  V30 605 C 60.087 1.00979 2.05757 0
M  V30 606 C 61.087 -0.0269573 1.60777 0
M  V30 607 O 62.277 0.212403 1.729 0
M  V30 608 C 59.409 0.527072 3.36801 0
M  V30 609 H 60.602 1.9622 2.26799 0
M  V30 610 H 58.155 1.05072 1.15714 0
M  V30 611 H 58.89 -0.429294 3.21446 0
M  V30 612 H 58.675 1.27515 3.70786 0
M  V30 613 H 60.165 0.392942 4.15747 0
M  V30 614 N 60.6021 -1.18246 1.0419 0
M  V30 615 C 62.0131 -1.69914 0.773698 0
M  V30 616 C 62.3641 -1.83085 -0.705297 0
M  V30 617 O 61.4891 -1.51123 -1.5489 0
M  V30 618 C 62.0841 -3.08619 1.39784 0
M  V30 619 C 60.6431 -3.57494 1.17792 0
M  V30 620 C 59.7901 -2.34013 1.48773 0
M  V30 621 H 62.7411 -1.02904 1.20816 0
M  V30 622 H 62.7621 -3.71958 0.801714 0
M  V30 623 H 62.2741 -2.99001 2.47426 0
M  V30 624 H 60.3751 -3.72406 0.120295 0
M  V30 625 H 60.4881 -4.40852 1.87581 0
M  V30 626 H 58.8521 -2.37986 0.907463 0
M  V30 627 H 59.6351 -2.27013 2.57527 0
M  V30 628 N 62.0802 -0.821533 -1.34494 0
M  V30 629 C 63.4912 -0.467956 -1.8074 0
M  V30 630 C 63.8422 1.01151 -1.68116 0
M  V30 631 O 62.9672 1.78707 -1.22036 0
M  V30 632 C 63.5622 -0.842627 -3.28154 0
M  V30 633 C 62.1212 -0.541439 -3.72485 0
M  V30 634 C 61.2682 -1.06028 -2.56229 0
M  V30 635 H 64.2192 -1.01183 -1.22261 0
M  V30 636 H 64.2402 -0.145876 -3.8022 0
M  V30 637 H 63.7522 -1.91945 -3.37311 0
M  V30 638 H 61.8532 0.526034 -3.68868 0
M  V30 639 H 61.9662 -1.08453 -4.66663 0
M  V30 640 H 60.3302 -0.481892 -2.501 0
M  V30 641 H 61.1132 -2.14352 -2.68157 0
M  V30 642 N 63.5583 1.46682 -0.576371 0
M  V30 643 C 64.5213 2.28707 0.150239 0
M  V30 644 C 65.5213 1.38035 0.824794 0
M  V30 645 O 66.7113 1.60476 0.677719 0
M  V30 646 C 63.8433 3.18248 1.22192 0
M  V30 647 H 65.0363 2.94423 -0.570521 0
M  V30 648 H 62.5893 1.52688 -0.334078 0
M  V30 649 H 63.3243 2.57265 1.97447 0
M  V30 650 H 63.1093 3.85 0.742812 0
M  V30 651 H 64.5993 3.80001 1.73172 0
M  V30 652 N 65.0364 0.313813 1.54444 0
M  V30 653 C 65.9664 -0.549454 2.26943 0
M  V30 654 C 66.9474 -1.12741 1.27372 0
M  V30 655 O 68.1324 -1.15436 1.56167 0
M  V30 656 C 65.2624 -1.71523 3.01989 0
M  V30 657 C 64.2164 -1.26703 4.08816 0
M  V30 658 C 63.5424 -2.51898 4.71647 0
M  V30 659 C 64.8424 -0.388962 5.2085 0
M  V30 660 H 66.5364 0.0552661 2.99349 0
M  V30 661 H 64.0824 0.0280207 1.43973 0
M  V30 662 H 66.0354 -2.32535 3.51433 0
M  V30 663 H 64.7594 -2.34639 2.27183 0
M  V30 664 H 63.4184 -0.679896 3.6024 0
M  V30 665 H 63.0664 -3.13356 3.93468 0
M  V30 666 H 62.7664 -2.22605 5.43802 0
M  V30 667 H 64.2904 -3.1369 5.23861 0
M  V30 668 H 65.7044 -0.905107 5.6611 0
M  V30 669 H 64.1014 -0.18924 5.99802 0
M  V30 670 H 65.1714 0.582699 4.81386 0
M  V30 671 N 66.5145 -1.57545 0.0417849 0
M  V30 672 C 67.7615 -1.92317 -0.634082 0
M  V30 673 C 68.0895 -0.919334 -1.71402 0
M  V30 674 O 67.3445 0.0698253 -1.95575 0
M  V30 675 C 67.6435 -3.33794 -1.27735 0
M  V30 676 C 67.3095 -4.49716 -0.326543 0
M  V30 677 C 65.9715 -4.81156 -0.0648814 0
M  V30 678 C 68.3235 -5.20182 0.325623 0
M  V30 679 C 65.6515 -5.80414 0.856539 0
M  V30 680 C 68.0035 -6.20424 1.23518 0
M  V30 681 C 66.6675 -6.50298 1.5056 0
M  V30 682 H 65.9375 -0.703736 -0.232027 0
M  V30 683 H 68.5845 -1.91205 0.106259 0
M  V30 684 H 66.8895 -3.31228 -2.09274 0
M  V30 685 H 68.5865 -3.57975 -1.80707 0
M  V30 686 H 65.1765 -4.25176 -0.540665 0
M  V30 687 H 69.3605 -4.96112 0.136546 0
M  V30 688 H 64.6165 -6.019 1.07363 0
M  V30 689 H 68.7905 -6.74141 1.74664 0
M  V30 690 H 66.4175 -7.27025 2.22123 0
M  V30 691 N 67.9926 0.231505 -1.5589 0
M  V30 692 C 69.2386 0.95877 -1.78705 0
M  V30 693 C 69.5716 1.8438 -0.609725 0
M  V30 694 O 68.8466 1.90521 0.391426 0
M  V30 695 C 69.1296 1.8062 -3.11526 0
M  V30 696 C 68.9826 0.948328 -4.39689 0
M  V30 697 C 70.3016 2.78585 -3.40703 0
M  V30 698 H 67.4206 0.347129 -0.650131 0
M  V30 699 H 70.0626 0.228259 -1.88624 0
M  V30 700 H 68.2126 2.42902 -3.03201 0
M  V30 701 H 69.8846 0.343016 -4.60023 0
M  V30 702 H 68.1276 0.253314 -4.3306 0
M  V30 703 H 68.7986 1.57543 -5.29041 0
M  V30 704 H 71.2746 2.26439 -3.49091 0
M  V30 705 H 70.1506 3.34988 -4.34826 0
M  V30 706 H 70.4116 3.55825 -2.62375 0
M  V30 707 N 69.4707 1.49531 0.497807 0
M  V30 708 C 70.7477 1.49682 1.25915 0
M  V30 709 C 71.1277 0.226339 2.09883 0
M  V30 710 O 70.4757 -0.791189 2.14365 0
M  V30 711 C 70.6857 2.77755 2.11313 0
M  V30 712 C 72.0337 3.27371 2.70395 0
M  V30 713 O 73.0577 2.78894 2.21578 0
M  V30 714 O 71.9167 4.11808 3.59272 0
M  V30 715 H 69.0107 0.599228 0.56996 0
M  V30 716 H 71.5567 1.61798 0.511816 0
M  V30 717 H 70.3287 3.61713 1.49264 0
M  V30 718 H 69.9517 2.68515 2.93233 0
M  V30 719 N 70.9488 -0.749086 1.3866 0
M  V30 720 C 71.8788 -1.8764 1.38973 0
M  V30 721 C 72.8598 -1.68178 0.255004 0
M  V30 722 O 74.0448 -1.88704 0.458754 0
M  V30 723 C 71.1748 -3.25222 1.21851 0
M  V30 724 C 70.1288 -3.59295 2.32575 0
M  V30 725 C 69.4548 -4.95663 2.00555 0
M  V30 726 C 70.7548 -3.63709 3.7485 0
M  V30 727 H 72.4488 -1.87635 2.3331 0
M  V30 728 H 69.9948 -0.901329 1.12303 0
M  V30 729 H 71.9478 -4.03746 1.20695 0
M  V30 730 H 70.6718 -3.25719 0.239775 0
M  V30 731 H 69.3308 -2.83093 2.32925 0
M  V30 732 H 68.9788 -4.92724 1.01154 0
M  V30 733 H 68.6788 -5.19429 2.74714 0
M  V30 734 H 70.2028 -5.7656 2.01024 0
M  V30 735 H 71.6168 -4.32338 3.76506 0
M  V30 736 H 70.0138 -3.98986 4.48252 0
M  V30 737 H 71.0838 -2.63834 4.06841 0
M  V30 738 N 72.4269 -1.23603 -0.977757 0
M  V30 739 C 73.3899 -1.02069 -2.05218 0
M  V30 740 C 74.3899 0.0184305 -1.60789 0
M  V30 741 O 75.5799 -0.221569 -1.72785 0
M  V30 742 C 72.7119 -0.544926 -3.36517 0
M  V30 743 H 73.9049 -1.9742 -2.25755 0
M  V30 744 H 71.4579 -1.05684 -1.15155 0
M  V30 745 H 72.1929 0.412241 -3.21669 0
M  V30 746 H 71.9779 -1.2948 -3.70105 0
M  V30 747 H 73.4679 -0.414985 -4.15533 0
M  V30 748 N 73.905 1.17692 -1.04816 0
M  V30 749 C 74.815 2.25229 -0.65643 0
M  V30 750 C 75.831 1.71018 0.320761 0
M  V30 751 O 77.007 2.00649 0.173805 0
M  V30 752 C 74.072 3.46684 -0.0332629 0
M  V30 753 C 73.133 4.15997 -1.06042 0
M  V30 754 C 72.366 5.31654 -0.466893 0
M  V30 755 O 72.589 5.65777 0.724758 0
M  V30 756 O 71.523 5.89831 -1.1993 0
M  V30 757 H 75.349 2.61016 -1.55255 0
M  V30 758 H 72.934 1.24919 -0.81949 0
M  V30 759 H 74.816 4.20234 0.313256 0
M  V30 760 H 73.491 3.12703 0.836566 0
M  V30 761 H 72.398 3.44482 -1.45886 0
M  V30 762 H 73.731 4.53996 -1.90127 0
M  V30 763 N 75.3831 0.828654 1.34056 0
M  V30 764 C 76.7991 0.515135 1.51058 0
M  V30 765 C 76.9991 -0.959581 1.77184 0
M  V30 766 O 76.0551 -1.74382 1.82612 0
M  V30 767 C 77.3681 1.37963 2.67183 0
M  V30 768 C 78.9161 1.37735 2.81066 0
M  V30 769 C 79.3911 2.22645 4.00241 0
M  V30 770 N 80.8821 2.203 4.07458 0
M  V30 771 C 81.6171 2.82744 4.98842 0
M  V30 772 N 81.1131 3.54201 5.9541 0
M  V30 773 N 82.9061 2.72268 4.91759 0
M  V30 774 H 75.0571 1.78343 1.15358 0
M  V30 775 H 77.3201 0.760304 0.566252 0
M  V30 776 H 77.0261 2.42714 2.54525 0
M  V30 777 H 76.9001 1.0484 3.62338 0
M  V30 778 H 79.2871 0.337593 2.93163 0
M  V30 779 H 79.3681 1.74859 1.86703 0
M  V30 780 H 79.0121 3.26674 3.88905 0
M  V30 781 H 78.9421 1.82869 4.93829 0
M  V30 782 H 81.4331 1.68327 3.38341 0
M  V30 783 H 81.7461 3.9908 6.61782 0
M  V30 784 H 80.0911 3.58308 5.95517 0
M  V30 785 H 83.2821 2.16014 4.15278 0
M  V30 786 H 83.4551 3.21219 5.62781 0
M  V30 787 N 76.8612 -1.46375 0.584142 0
M  V30 788 C 78.0892 -2.06761 0.0759296 0
M  V30 789 C 78.5042 -1.43266 -1.22965 0
M  V30 790 O 77.8612 -0.538458 -1.74376 0
M  V30 791 C 77.9122 -3.61375 -0.0950384 0
M  V30 792 O 77.6332 -4.22495 1.15887 0
M  V30 793 C 79.1342 -4.38693 -0.637434 0
M  V30 794 H 76.3542 -0.668479 0.0581075 0
M  V30 795 H 78.8982 -1.8798 0.805218 0
M  V30 796 H 77.0532 -3.79578 -0.774554 0
M  V30 797 H 77.4672 -5.15385 0.973598 0
M  V30 798 H 78.9412 -5.47464 -0.706237 0
M  V30 799 H 79.4182 -4.06836 -1.65472 0
M  V30 800 H 80.0242 -4.25299 0.00725967 0
M  V30 801 N 78.3393 -0.321999 -1.54275 0
M  V30 802 C 79.2693 0.537411 -2.27231 0
M  V30 803 C 80.2503 1.12064 -1.27968 0
M  V30 804 O 81.4353 1.14606 -1.56777 0
M  V30 805 C 78.5653 1.69919 -3.02894 0
M  V30 806 C 77.5193 1.24534 -4.09482 0
M  V30 807 C 76.8453 2.49394 -4.72977 0
M  V30 808 C 78.1453 0.361335 -5.21049 0
M  V30 809 H 79.8393 -0.0711406 -2.99315 0
M  V30 810 H 77.3853 -0.0356555 -1.43956 0
M  V30 811 H 79.3383 2.30668 -3.52662 0
M  V30 812 H 78.0623 2.33431 -2.28424 0
M  V30 813 H 76.7213 0.660782 -3.60596 0
M  V30 814 H 76.3693 3.11265 -3.95124 0
M  V30 815 H 76.0693 2.19718 -5.44975 0
M  V30 816 H 77.5933 3.10908 -5.25517 0
M  V30 817 H 79.0073 0.875072 -5.66582 0
M  V30 818 H 77.4043 0.157428 -5.99893 0
M  V30 819 H 78.4743 -0.60822 -4.8107 0
M  V30 820 N 79.8174 1.5752 -0.0501392 0
M  V30 821 C 81.0454 1.96963 0.633492 0
M  V30 822 C 81.4604 0.927631 1.6444 0
M  V30 823 O 80.8174 -0.0882665 1.82286 0
M  V30 824 C 80.8684 3.36487 1.32132 0
M  V30 825 O 80.5894 4.36693 0.350894 0
M  V30 826 C 82.0904 3.90682 2.09481 0
M  V30 827 H 79.3104 0.648244 0.173266 0
M  V30 828 H 81.8544 2.0417 -0.116134 0
M  V30 829 H 80.0094 3.30434 2.02218 0
M  V30 830 H 80.4234 5.17702 0.841735 0
M  V30 831 H 81.8974 4.90591 2.5303 0
M  V30 832 H 82.3744 3.26053 2.94255 0
M  V30 833 H 82.9804 4.00069 1.44307 0
M  V30 834 N 81.2955 -0.223234 1.56011 0
M  V30 835 C 82.2055 -1.29766 1.95443 0
M  V30 836 C 83.2215 -1.51373 0.858028 0
M  V30 837 O 84.3975 -1.64536 1.16146 0
M  V30 838 C 81.4625 -2.62772 2.26167 0
M  V30 839 C 80.5235 -2.49482 3.49367 0
M  V30 840 C 79.7565 -3.76145 3.78616 0
M  V30 841 O 79.9795 -4.79087 3.09568 0
M  V30 842 O 78.9135 -3.73358 4.72109 0
M  V30 843 H 82.7395 -0.99309 2.87004 0
M  V30 844 H 80.3245 -0.425958 1.43199 0
M  V30 845 H 82.2065 -3.41327 2.47131 0
M  V30 846 H 80.8815 -2.92913 1.37781 0
M  V30 847 H 79.7885 -1.69133 3.33684 0
M  V30 848 H 81.1215 -2.2428 4.38131 0
M  V30 849 N 82.7736 -1.49793 -0.48987 0
M  V30 850 C 83.7366 -1.66752 -1.57246 0
M  V30 851 C 84.7366 -0.538867 -1.51502 0
M  V30 852 O 85.9266 -0.805545 -1.54456 0
M  V30 853 C 83.0586 -1.67528 -2.96896 0
M  V30 854 H 84.2516 -2.63321 -1.43534 0
M  V30 855 H 81.8046 -1.38992 -0.714914 0
M  V30 856 H 82.5396 -0.725837 -3.16073 0
M  V30 857 H 82.3246 -2.49504 -3.02473 0
M  V30 858 H 83.8146 -1.82667 -3.7553 0
M  V30 859 N 84.2517 0.741722 -1.39055 0
M  V30 860 C 85.4997 1.49818 -1.35643 0
M  V30 861 C 85.8207 1.94938 0.0491642 0
M  V30 862 O 85.0907 1.68505 0.999141 0
M  V30 863 H 83.6707 0.555755 -0.499144 0
M  V30 864 H 86.3327 0.880957 -1.73854 0
M  V30 865 H 85.4287 2.38348 -2.01486 0
M  V30 866 N 85.7298 1.2412 0.971189 0
M  V30 867 C 86.9548 1.10667 1.75407 0
M  V30 868 C 87.3798 -0.337048 1.85056 0
M  V30 869 O 86.7378 -1.24396 1.31892 0
M  V30 870 C 86.7858 1.74726 3.15441 0
M  V30 871 O 85.8898 1.01566 3.99697 0
M  V30 872 H 85.2308 0.387341 0.539317 0
M  V30 873 H 87.7608 1.64358 1.2185 0
M  V30 874 H 87.7708 1.80341 3.6598 0
M  V30 875 H 86.4458 2.79773 3.07734 0
M  V30 876 H 85.0228 1.03713 3.58187 0
M  V30 877 N 87.2079 -1.17134 1.05439 0
M  V30 878 C 88.1709 -2.19439 0.661764 0
M  V30 879 C 89.1709 -1.58199 -0.288042 0
M  V30 880 O 90.3609 -1.74053 -0.0715803 0
M  V30 881 C 87.4929 -3.40889 -0.0276209 0
M  V30 882 H 88.6859 -2.55688 1.56728 0
M  V30 883 H 86.2389 -1.31259 0.848567 0
M  V30 884 H 86.9739 -3.10187 -0.94629 0
M  V30 885 H 86.7589 -3.86586 0.655238 0
M  V30 886 H 88.2489 -4.16603 -0.288342 0
M  V30 887 N 88.686 -0.835752 -1.33615 0
M  V30 888 C 89.935 -0.426289 -1.97144 0
M  V30 889 C 90.248 1.01912 -1.66953 0
M  V30 890 O 91.454 1.53311 -2.24072 0
M  V30 891 C 89.91 -0.711321 -3.52801 0
M  V30 892 C 89.518 -2.1712 -3.91871 0
M  V30 893 C 91.262 -0.368654 -4.22896 0
M  V30 894 C 89.169 -2.40044 -5.40493 0
M  V30 895 H 88.099 -0.15567 -0.737755 0
M  V30 896 H 90.75 -1.0239 -1.52278 0
M  V30 897 H 89.132 -0.0433766 -3.95976 0
M  V30 898 H 90.306 -2.87936 -3.59763 0
M  V30 899 H 88.621 -2.47654 -3.34749 0
M  V30 900 H 91.218 -0.517601 -5.32189 0
M  V30 901 H 91.561 0.688078 -4.10574 0
M  V30 902 H 92.094 -0.991702 -3.8524 0
M  V30 903 H 88.833 -3.44271 -5.57815 0
M  V30 904 H 88.353 -1.73785 -5.74072 0
M  V30 905 H 90.032 -2.23042 -6.0734 0
M  V30 906 N 90.1641 1.46063 -0.591896 0
M  V30 907 C 91.4131 2.01547 -0.0786637 0
M  V30 908 C 91.7261 1.46796 1.29268 0
M  V30 909 O 92.9321 1.94157 1.89777 0
M  V30 910 C 91.3881 3.59787 -0.0900024 0
M  V30 911 C 90.9961 4.23534 -1.46023 0
M  V30 912 C 92.7401 4.22895 0.368806 0
M  V30 913 C 90.6471 5.73881 -1.4288 0
M  V30 914 H 89.5771 0.753564 -0.0256388 0
M  V30 915 H 92.2281 1.677 -0.744905 0
M  V30 916 H 90.6101 3.90752 0.642586 0
M  V30 917 H 91.7841 4.04167 -2.21328 0
M  V30 918 H 90.0991 3.72558 -1.85982 0
M  V30 919 H 92.6961 5.33116 0.411258 0
M  V30 920 H 93.0391 3.9247 1.38827 0
M  V30 921 H 93.5721 3.9659 -0.31001 0
M  V30 922 H 90.3111 6.0898 -2.42536 0
M  V30 923 H 89.8311 5.95486 -0.718095 0
M  V30 924 H 91.5101 6.36776 -1.14565 0
M  V30 925 N 91.6422 0.330177 1.54103 0
M  V30 926 C 92.5722 -0.525353 2.27513 0
M  V30 927 C 93.5532 -1.11383 1.2856 0
M  V30 928 O 94.7382 -1.13773 1.57383 0
M  V30 929 C 91.8682 -1.6831 3.03791 0
M  V30 930 C 90.8222 -1.2236 4.10137 0
M  V30 931 C 90.1482 -2.46882 4.74293 0
M  V30 932 C 91.4482 -0.333697 5.21233 0
M  V30 933 H 93.1422 0.087013 2.99274 0
M  V30 934 H 90.6882 0.0432893 1.43935 0
M  V30 935 H 92.6412 -2.28795 3.5388 0
M  V30 936 H 91.3652 -2.32216 2.29659 0
M  V30 937 H 90.0242 -0.64165 3.60941 0
M  V30 938 H 89.6722 -3.09165 3.96769 0
M  V30 939 H 89.3722 -2.16825 5.46133 0
M  V30 940 H 90.8962 -3.08117 5.27159 0
M  V30 941 H 92.3102 -0.845013 5.67038 0
M  V30 942 H 90.7072 -0.125612 5.99969 0
M  V30 943 H 91.7772 0.633724 4.80741 0
M  V30 944 N 93.1203 -1.57491 0.0584922 0
M  V30 945 C 94.3683 -1.92597 -0.612436 0
M  V30 946 C 94.6893 -0.938162 -1.70949 0
M  V30 947 O 93.9593 0.0158301 -1.95894 0
M  V30 948 H 92.5393 -0.710964 -0.229214 0
M  V30 949 H 95.2013 -1.94571 0.113218 0
M  V30 950 H 94.2973 -2.94038 -1.04633 0
M  V30 951 N 94.5984 0.214957 -1.56127 0
M  V30 952 C 95.5614 1.24997 -1.92116 0
M  V30 953 C 96.5614 1.39467 -0.800344 0
M  V30 954 O 97.7514 1.37619 -1.06802 0
M  V30 955 C 94.8834 2.62271 -2.17777 0
M  V30 956 H 96.0764 0.942875 -2.84693 0
M  V30 957 H 93.6294 0.455654 -1.49511 0
M  V30 958 H 94.3644 2.98068 -1.27773 0
M  V30 959 H 94.1494 2.53143 -2.99434 0
M  V30 960 H 95.6394 3.36946 -2.46693 0
M  V30 961 N 96.0765 1.50051 0.48192 0
M  V30 962 C 97.0085 1.64263 1.59844 0
M  V30 963 C 98.0215 0.52451 1.54119 0
M  V30 964 O 99.2105 0.797293 1.59704 0
M  V30 965 C 96.3105 1.60102 2.98698 0
M  V30 966 C 95.4835 2.87767 3.29407 0
M  V30 967 C 94.5425 2.76397 4.47762 0
M  V30 968 O 93.5685 3.50348 4.48603 0
M  V30 969 N 94.7705 1.89222 5.48794 0
M  V30 970 H 97.5355 2.60566 1.48073 0
M  V30 971 H 95.0965 1.47379 0.670149 0
M  V30 972 H 97.0885 1.50123 3.75826 0
M  V30 973 H 95.6585 0.715798 3.04294 0
M  V30 974 H 94.8785 3.11954 2.40994 0
M  V30 975 H 96.1665 3.72365 3.4673 0
M  V30 976 H 95.5645 1.28434 5.50928 0
M  V30 977 H 94.1215 1.85154 6.24949 0
M  V30 978 N 97.5546 -0.734337 1.39446 0
M  V30 979 C 98.5026 -1.86971 1.38364 0
M  V30 980 C 99.4966 -1.67288 0.266687 0
M  V30 981 O 100.703 -1.74621 0.436755 0
M  V30 982 H 97.0776 -0.615474 0.432082 0
M  V30 983 H 99.0486 -1.85 2.34132 0
M  V30 984 C 97.7976 -3.2466 1.24465 0
M  V30 985 H 97.1206 -3.40402 2.09682 0
M  V30 986 H 98.5606 -4.04292 1.27764 0
M  V30 987 C 97.0196 -3.36867 -0.0468674 0
M  V30 988 O 97.5496 -3.88618 -1.01681 0
M  V30 989 N 95.7556 -2.90391 -0.110145 0
M  V30 990 H 95.3026 -2.48466 0.679868 0
M  V30 991 H 95.2606 -2.98939 -0.973799 0
M  V30 992 N 99.0327 -1.24633 -0.964593 0
M  V30 993 C 100.261 -1.11501 -1.74285 0
M  V30 994 C 100.676 0.332165 -1.85855 0
M  V30 995 O 100.033 1.22903 -1.34911 0
M  V30 996 C 100.084 -1.75258 -3.16175 0
M  V30 997 O 99.8047 -3.14318 -3.05182 0
M  V30 998 C 101.306 -1.67776 -4.10324 0
M  V30 999 H 98.5257 -0.389407 -0.546446 0
M  V30 1000 H 101.07 -1.64801 -1.21083 0
M  V30 1001 H 99.2247 -1.25954 -3.66353 0
M  V30 1002 H 99.6387 -3.4551 -3.94618 0
M  V30 1003 H 101.113 -2.17064 -5.0753 0
M  V30 1004 H 101.59 -0.639584 -4.34518 0
M  V30 1005 H 102.196 -2.16522 -3.66058 0
M  V30 1006 N 100.511 1.16574 -1.06058 0
M  V30 1007 C 101.788 1.83048 -0.689416 0
M  V30 1008 C 102.168 1.94122 0.829443 0
M  V30 1009 O 101.516 1.48249 1.7388 0
M  V30 1010 C 101.726 3.20186 -1.38859 0
M  V30 1011 C 103.074 3.95989 -1.53226 0
M  V30 1012 O 104.098 3.29696 -1.3483 0
M  V30 1013 O 102.957 5.14813 -1.83384 0
M  V30 1014 H 100.051 0.790258 -0.243764 0
M  V30 1015 H 102.597 1.23797 -1.16071 0
M  V30 1016 H 101.369 3.07146 -2.4244 0
M  V30 1017 H 100.992 3.87112 -0.907216 0
M  V30 1018 N 101.989 0.842826 1.3317 0
M  V30 1019 C 102.919 0.294028 2.31641 0
M  V30 1020 C 103.9 -0.600401 1.59151 0
M  V30 1021 O 105.085 -0.523124 1.87022 0
M  V30 1022 C 102.215 -0.528416 3.43257 0
M  V30 1023 C 101.169 0.27056 4.27144 0
M  V30 1024 C 100.495 -0.675881 5.30411 0
M  V30 1025 C 101.795 1.48981 5.00602 0
M  V30 1026 H 103.489 1.11681 2.77791 0
M  V30 1027 H 101.035 0.538478 1.33553 0
M  V30 1028 H 102.988 -0.922674 4.11175 0
M  V30 1029 H 101.712 -1.38445 2.95805 0
M  V30 1030 H 100.371 0.646427 3.60856 0
M  V30 1031 H 100.019 -1.52842 4.79216 0
M  V30 1032 H 99.7189 -0.145374 5.8742 0
M  V30 1033 H 101.243 -1.06757 6.01195 0
M  V30 1034 H 102.657 1.16849 5.61266 0
M  V30 1035 H 101.054 1.95739 5.6728 0
M  V30 1036 H 102.124 2.25746 4.29147 0
M  V30 1037 N 103.467 -1.45747 0.599634 0
M  V30 1038 C 104.415 -2.322 -0.136426 0
M  V30 1039 C 105.409 -1.45497 -0.867583 0
M  V30 1040 O 106.615 -1.62027 -0.78405 0
M  V30 1041 H 102.99 -0.749368 -0.0628588 0
M  V30 1042 H 104.961 -2.92072 0.611281 0
M  V30 1043 C 103.71 -3.28974 -1.12567 0
M  V30 1044 H 103.033 -3.9568 -0.572484 0
M  V30 1045 H 104.473 -3.92212 -1.61077 0
M  V30 1046 C 102.932 -2.55561 -2.19523 0
M  V30 1047 O 103.462 -2.33111 -3.27143 0
M  V30 1048 N 101.668 -2.15832 -1.94589 0
M  V30 1049 H 101.215 -2.3429 -1.07078 0
M  V30 1050 H 101.173 -1.67034 -2.66359 0
M  V30 1051 N 104.945 -0.338344 -1.53925 0
M  V30 1052 C 105.893 0.536231 -2.26335 0
M  V30 1053 C 106.887 1.1063 -1.28286 0
M  V30 1054 O 108.093 1.05264 -1.46012 0
M  V30 1055 H 104.468 0.191602 -0.727181 0
M  V30 1056 H 106.439 -0.0965747 -2.98244 0
M  V30 1057 C 105.188 1.67803 -3.04528 0
M  V30 1058 H 104.511 1.24864 -3.79801 0
M  V30 1059 H 105.951 2.26526 -3.58416 0
M  V30 1060 C 104.41 2.60439 -2.13712 0
M  V30 1061 O 104.94 3.6255 -1.72975 0
M  V30 1062 N 103.146 2.29006 -1.78898 0
M  V30 1063 H 102.693 1.46011 -2.12223 0
M  V30 1064 H 102.651 2.91248 -1.18416 0
M  V30 1065 N 106.423 1.57458 -0.0668435 0
M  V30 1066 C 107.648 1.9804 0.616027 0
M  V30 1067 C 108.073 0.944771 1.62652 0
M  V30 1068 O 107.431 -0.0902094 1.81075 0
M  V30 1069 C 107.479 3.37665 1.26549 0
M  V30 1070 O 106.583 3.36701 2.38131 0
M  V30 1071 H 105.924 0.644719 0.158849 0
M  V30 1072 H 108.454 2.04121 -0.139891 0
M  V30 1073 H 108.464 3.7474 1.6135 0
M  V30 1074 H 107.139 4.12573 0.525016 0
M  V30 1075 H 105.716 3.1139 2.0516 0
M  V30 1076 N 107.901 -0.206675 1.56239 0
M  V30 1077 C 109.149 -0.927007 1.79586 0
M  V30 1078 C 109.47 -1.8427 0.637929 0
M  V30 1079 O 108.74 -1.92849 -0.344398 0
M  V30 1080 H 107.32 -0.345292 0.662407 0
M  V30 1081 H 109.982 -0.21496 1.93711 0
M  V30 1082 H 109.078 -1.52501 2.72305 0
M  V30 1083 N 109.379 -1.50304 -0.473955 0
M  V30 1084 C 110.342 -1.6841 -1.55469 0
M  V30 1085 C 111.342 -0.554905 -1.50922 0
M  V30 1086 O 112.532 -0.821882 -1.53593 0
M  V30 1087 C 109.664 -1.70667 -2.95102 0
M  V30 1088 H 110.857 -2.64828 -1.40733 0
M  V30 1089 H 108.41 -1.39742 -0.700132 0
M  V30 1090 H 109.145 -0.75932 -3.15285 0
M  V30 1091 H 108.93 -2.52698 -2.9981 0
M  V30 1092 H 110.42 -1.8664 -3.73571 0
M  V30 1093 N 110.857 0.726932 -1.39834 0
M  V30 1094 C 112.104 1.48664 -1.37496 0
M  V30 1095 C 112.432 1.94482 0.0264678 0
M  V30 1096 O 111.687 1.67692 1.00886 0
M  V30 1097 C 111.986 2.73495 -2.30077 0
M  V30 1098 C 111.652 2.46502 -3.77555 0
M  V30 1099 C 110.314 2.3885 -4.17737 0
M  V30 1100 C 112.666 2.23604 -4.70798 0
M  V30 1101 C 109.994 2.06352 -5.49214 0
M  V30 1102 C 112.346 1.92622 -6.02561 0
M  V30 1103 C 111.01 1.83444 -6.41798 0
M  V30 1104 H 110.28 0.544001 -0.503135 0
M  V30 1105 H 112.927 0.833657 -1.72402 0
M  V30 1106 H 111.232 3.43575 -1.88317 0
M  V30 1107 H 112.929 3.31549 -2.25558 0
M  V30 1108 H 109.519 2.5334 -3.45712 0
M  V30 1109 H 113.703 2.28479 -4.40581 0
M  V30 1110 H 108.959 1.97776 -5.78528 0
M  V30 1111 H 113.133 1.73914 -6.74334 0
M  V30 1112 H 110.76 1.58029 -7.43593 0
M  V30 1113 N 112.336 1.25143 0.95797 0
M  V30 1114 C 113.564 1.12424 1.73691 0
M  V30 1115 C 113.979 -0.322304 1.86029 0
M  V30 1116 O 113.336 -1.22186 1.35561 0
M  V30 1117 C 113.387 1.76933 3.15241 0
M  V30 1118 O 113.108 3.15932 3.03511 0
M  V30 1119 C 114.609 1.6995 4.09429 0
M  V30 1120 H 111.829 0.3923 0.544373 0
M  V30 1121 H 114.373 1.6544 1.20207 0
M  V30 1122 H 112.528 1.27895 3.6568 0
M  V30 1123 H 112.942 3.47598 3.9278 0
M  V30 1124 H 114.416 2.19753 5.06372 0
M  V30 1125 H 114.893 0.662619 4.34173 0
M  V30 1126 H 115.499 2.18461 3.64904 0
M  V30 1127 N 113.814 -1.1601 1.06675 0
M  V30 1128 C 115.062 -1.86264 0.784229 0
M  V30 1129 C 115.383 -1.82328 -0.691488 0
M  V30 1130 O 114.653 -1.25947 -1.50047 0
M  V30 1131 H 113.233 -0.689621 0.28711 0
M  V30 1132 H 115.895 -1.40664 1.34906 0
M  V30 1133 H 114.991 -2.91595 1.11259 0
M  V30 1134 N 115.292 -0.849877 -1.32721 0
M  V30 1135 C 116.569 -0.372405 -1.92022 0
M  V30 1136 C 116.949 1.1435 -1.77447 0
M  V30 1137 O 116.297 1.96296 -1.16962 0
M  V30 1138 C 116.507 -0.831482 -3.3895 0
M  V30 1139 C 117.855 -0.845882 -4.16089 0
M  V30 1140 O 118.879 -0.775806 -3.47649 0
M  V30 1141 O 117.738 -0.943753 -5.38289 0
M  V30 1142 H 114.832 -0.107667 -0.819961 0
M  V30 1143 H 117.378 -0.93646 -1.41522 0
M  V30 1144 H 116.15 -1.87448 -3.4348 0
M  V30 1145 H 115.773 -0.24461 -3.96847 0
M  V30 1146 N 116.77 1.45427 -0.607355 0
M  V30 1147 C 117.703 2.27635 0.160482 0
M  V30 1148 C 118.681 1.37122 0.873857 0
M  V30 1149 O 119.865 1.66551 0.882775 0
M  V30 1150 C 116.992 3.15486 1.23231 0
M  V30 1151 C 116.038 4.21939 0.622097 0
M  V30 1152 S 116.871 5.32459 -0.569852 0
M  V30 1153 C 118.027 6.23879 0.502577 0
M  V30 1154 H 118.26 2.9241 -0.536983 0
M  V30 1155 H 115.793 1.49265 -0.394868 0
M  V30 1156 H 117.751 3.66659 1.84585 0
M  V30 1157 H 116.412 2.49977 1.90185 0
M  V30 1158 H 115.605 4.8333 1.42856 0
M  V30 1159 H 115.207 3.73906 0.0837063 0
M  V30 1160 H 117.499 6.63261 1.38171 0
M  V30 1161 H 118.442 7.0806 -0.0751759 0
M  V30 1162 H 118.85 5.58545 0.8178 0
M  V30 1163 N 118.248 0.346503 1.53744 0
M  V30 1164 C 119.473 -0.253074 2.0585 0
M  V30 1165 C 119.898 -1.43202 1.21962 0
M  V30 1166 O 119.256 -1.79783 0.234073 0
M  V30 1167 C 119.304 -0.643193 3.54817 0
M  V30 1168 O 118.408 -1.74286 3.73762 0
M  V30 1169 H 117.749 -0.0413583 0.662711 0
M  V30 1170 H 120.279 0.501574 1.98357 0
M  V30 1171 H 120.289 -0.919526 3.97503 0
M  V30 1172 H 118.964 0.218966 4.15323 0
M  V30 1173 H 117.541 -1.46356 3.42979 0
M  V30 1174 N 119.726 -1.57421 0.075193 0
M  V30 1175 C 121.137 -1.81021 -0.456964 0
M  V30 1176 C 121.488 -0.98936 -1.69429 0
M  V30 1177 O 120.613 -0.212865 -2.15351 0
M  V30 1178 C 121.208 -3.28329 -0.83581 0
M  V30 1179 C 119.767 -3.52764 -1.31281 0
M  V30 1180 C 118.914 -2.75676 -0.299648 0
M  V30 1181 H 121.865 -1.55822 0.300856 0
M  V30 1182 H 121.886 -3.40564 -1.69696 0
M  V30 1183 H 121.398 -3.88046 0.0649238 0
M  V30 1184 H 119.499 -2.98355 -2.23193 0
M  V30 1185 H 119.612 -4.61451 -1.28839 0
M  V30 1186 H 117.976 -2.42538 -0.777641 0
M  V30 1187 H 118.759 -3.38132 0.593417 0
M  V30 1188 N 121.204 0.198386 -1.56346 0
M  V30 1189 C 122.167 1.22952 -1.93431 0
M  V30 1190 C 123.167 1.38611 -0.815092 0
M  V30 1191 O 124.357 1.36479 -1.08255 0
M  V30 1192 C 121.489 2.59946 -2.20546 0
M  V30 1193 H 122.682 0.912626 -2.85677 0
M  V30 1194 H 120.235 0.43977 -1.49986 0
M  V30 1195 H 120.97 2.96696 -1.30927 0
M  V30 1196 H 120.755 2.49953 -3.02102 0
M  V30 1197 H 122.245 3.3431 -2.50253 0
M  V30 1198 N 122.682 1.50554 0.465978 0
M  V30 1199 C 123.615 1.64436 1.58227 0
M  V30 1200 C 124.593 0.492367 1.54966 0
M  V30 1201 O 125.777 0.712536 1.74514 0
M  V30 1202 C 122.904 1.63165 2.96808 0
M  V30 1203 C 121.95 2.83987 3.18204 0
M  V30 1204 S 122.783 4.45219 2.97557 0
M  V30 1205 C 123.939 4.46649 4.3847 0
M  V30 1206 H 124.172 2.58861 1.46213 0
M  V30 1207 H 121.705 1.3988 0.653678 0
M  V30 1208 H 123.663 1.63116 3.76701 0
M  V30 1209 H 122.324 0.69967 3.06208 0
M  V30 1210 H 121.517 2.79416 4.19455 0
M  V30 1211 H 121.119 2.81629 2.46092 0
M  V30 1212 H 123.411 4.20526 5.31191 0
M  V30 1213 H 124.354 5.48295 4.48082 0
M  V30 1214 H 124.762 3.76296 4.20787 0
M  V30 1215 N 124.16 -0.719506 1.40217 0
M  V30 1216 C 125.09 -1.8465 1.42922 0
M  V30 1217 C 126.071 -1.67599 0.29062 0
M  V30 1218 O 127.256 -1.87688 0.498677 0
M  V30 1219 C 124.386 -3.22565 1.28722 0
M  V30 1220 C 123.34 -3.54281 2.40144 0
M  V30 1221 C 122.666 -4.91298 2.11023 0
M  V30 1222 C 123.966 -3.55676 3.82481 0
M  V30 1223 H 125.66 -1.82644 2.37237 0
M  V30 1224 H 123.206 -0.877305 1.1419 0
M  V30 1225 H 125.159 -4.01095 1.29232 0
M  V30 1226 H 123.883 -3.25137 0.308811 0
M  V30 1227 H 122.542 -2.78088 2.38877 0
M  V30 1228 H 122.19 -4.90468 1.11582 0
M  V30 1229 H 121.89 -5.13485 2.8567 0
M  V30 1230 H 123.414 -5.72166 2.13209 0
M  V30 1231 H 124.828 -4.24254 3.85592 0
M  V30 1232 H 123.225 -3.89388 4.56614 0
M  V30 1233 H 124.295 -2.55144 4.12346 0
M  V30 1234 N 125.638 -1.25649 -0.95132 0
M  V30 1235 C 126.585 -1.06323 -2.04851 0
M  V30 1236 C 127.555 0.0286491 -1.66075 0
M  V30 1237 O 128.74 -0.12917 -1.90362 0
M  V30 1238 C 125.88 -0.691529 -3.381 0
M  V30 1239 C 124.993 -1.85861 -3.89974 0
M  V30 1240 C 124.128 -1.43096 -5.11563 0
M  V30 1241 C 123.167 -2.56696 -5.55674 0
M  V30 1242 N 122.304 -2.14684 -6.68472 0
M  V30 1243 H 127.144 -2.00222 -2.20715 0
M  V30 1244 H 124.681 -0.997027 -1.08156 0
M  V30 1245 H 126.639 -0.456963 -4.1469 0
M  V30 1246 H 125.269 0.210474 -3.22113 0
M  V30 1247 H 124.321 -2.20639 -3.09875 0
M  V30 1248 H 125.633 -2.71161 -4.18657 0
M  V30 1249 H 124.787 -1.15624 -5.9558 0
M  V30 1250 H 123.526 -0.548722 -4.84603 0
M  V30 1251 H 122.531 -2.84909 -4.7022 0
M  V30 1252 H 123.756 -3.45503 -5.8464 0
M  V30 1253 H 121.702 -1.28881 -6.43215 0
M  V30 1254 H 121.619 -2.9353 -6.96689 0
M  V30 1255 H 122.887 -1.90397 -7.5589 0
M  V30 1256 N 127.117 1.15442 -1.07289 0
M  V30 1257 C 128.027 2.23786 -0.704057 0
M  V30 1258 C 129.043 1.7166 0.284413 0
M  V30 1259 O 130.219 2.00972 0.131205 0
M  V30 1260 C 127.284 3.46535 -0.106792 0
M  V30 1261 C 126.345 4.13654 -1.14842 0
M  V30 1262 C 125.578 5.30544 -0.57956 0
M  V30 1263 O 125.801 5.67187 0.604585 0
M  V30 1264 O 124.735 5.87154 -1.32414 0
M  V30 1265 H 128.561 2.57664 -1.60757 0
M  V30 1266 H 126.146 1.23152 -0.845803 0
M  V30 1267 H 128.028 4.20804 0.224048 0
M  V30 1268 H 126.703 3.14407 0.770049 0
M  V30 1269 H 125.61 3.4131 -1.5316 0
M  V30 1270 H 126.943 4.49861 -1.99714 0
M  V30 1271 N 128.595 0.856903 1.32268 0
M  V30 1272 C 129.842 0.461386 1.97174 0
M  V30 1273 C 130.17 -0.983491 1.67803 0
M  V30 1274 O 129.425 -1.70541 0.959903 0
M  V30 1275 C 129.724 0.649919 3.51441 0
M  V30 1276 C 129.39 2.0656 4.00804 0
M  V30 1277 C 128.052 2.45279 4.13995 0
M  V30 1278 C 130.404 2.98947 4.26943 0
M  V30 1279 C 127.732 3.75653 4.50668 0
M  V30 1280 C 130.084 4.28822 4.65075 0
M  V30 1281 C 128.748 4.67472 4.76472 0
M  V30 1282 H 128.018 0.168833 0.72151 0
M  V30 1283 H 130.665 1.08739 1.57633 0
M  V30 1284 H 128.97 -0.0593018 3.91755 0
M  V30 1285 H 130.667 0.32391 3.9969 0
M  V30 1286 H 127.257 1.75495 3.91024 0
M  V30 1287 H 131.441 2.70265 4.16258 0
M  V30 1288 H 126.697 4.05379 4.57688 0
M  V30 1289 H 130.871 5.0047 4.84255 0
M  V30 1290 H 128.498 5.68539 5.04646 0
M  V30 1291 N 130.073 -1.45103 0.615059 0
M  V30 1292 C 131.321 -2.01784 0.112955 0
M  V30 1293 C 131.642 -1.48504 -1.26378 0
M  V30 1294 O 130.912 -0.682245 -1.83636 0
M  V30 1295 H 129.492 -0.745993 0.0387668 0
M  V30 1296 H 132.154 -1.77808 0.798141 0
M  V30 1297 H 131.25 -3.12025 0.0684069 0
M  V30 1298 N 131.551 -0.354651 -1.53558 0
M  V30 1299 C 132.514 0.484566 -2.24019 0
M  V30 1300 C 133.514 1.01861 -1.24422 0
M  V30 1301 O 134.704 0.906097 -1.4878 0
M  V30 1302 C 131.836 1.67615 -2.96847 0
M  V30 1303 H 133.029 -0.131843 -2.9961 0
M  V30 1304 H 130.582 -0.106165 -1.55939 0
M  V30 1305 H 131.317 2.33095 -2.25471 0
M  V30 1306 H 131.102 1.30029 -3.69912 0
M  V30 1307 H 132.592 2.27114 -3.50441 0
M  V30 1308 N 133.029 1.57378 -0.0835403 0
M  V30 1309 C 134.257 1.98263 0.59157 0
M  V30 1310 C 134.672 0.962302 1.62435 0
M  V30 1311 O 134.029 -0.049581 1.82433 0
M  V30 1312 C 134.08 3.39214 1.24965 0
M  V30 1313 O 133.801 4.37339 0.258186 0
M  V30 1314 C 135.302 3.95038 2.01147 0
M  V30 1315 H 132.522 0.651773 0.159477 0
M  V30 1316 H 135.066 2.03878 -0.159415 0
M  V30 1317 H 133.221 3.34649 1.95164 0
M  V30 1318 H 133.635 5.19371 0.731734 0
M  V30 1319 H 135.109 4.95848 2.42567 0
M  V30 1320 H 135.586 3.32222 2.87272 0
M  V30 1321 H 136.192 4.0304 1.35789 0
M  V30 1322 N 134.507 -0.190092 1.56449 0
M  V30 1323 C 135.457 -1.23977 1.91347 0
M  V30 1324 C 136.441 -1.40747 0.779693 0
M  V30 1325 O 137.633 -1.43033 1.04262 0
M  V30 1326 C 134.762 -2.58347 2.26079 0
M  V30 1327 C 133.848 -2.4535 3.45925 0
M  V30 1328 N 134.239 -2.02039 4.63696 0
M  V30 1329 C 132.537 -2.76229 3.50162 0
M  V30 1330 C 133.238 -2.01053 5.4585 0
M  V30 1331 N 132.214 -2.42747 4.8639 0
M  V30 1332 H 136.016 -0.896318 2.79899 0
M  V30 1333 H 133.53 -0.398496 1.57435 0
M  V30 1334 H 135.527 -3.34173 2.49267 0
M  V30 1335 H 134.187 -2.93512 1.38856 0
M  V30 1336 H 135.198 -1.7267 4.88268 0
M  V30 1337 H 131.875 -3.15556 2.73369 0
M  V30 1338 H 133.265 -1.69426 6.50188 0
M  V30 1339 N 135.985 -1.50799 -0.457987 0
M  V30 1340 C 137.234 -1.6168 -1.20593 0
M  V30 1341 C 137.547 -0.32888 -1.92815 0
M  V30 1342 O 138.753 -0.316773 -2.69646 0
M  V30 1343 C 137.209 -2.8545 -2.19195 0
M  V30 1344 C 136.817 -4.21168 -1.52715 0
M  V30 1345 C 138.561 -3.05681 -2.94549 0
M  V30 1346 C 136.468 -5.3611 -2.4968 0
M  V30 1347 H 135.398 -0.602134 -0.453818 0
M  V30 1348 H 138.049 -1.77245 -0.475031 0
M  V30 1349 H 136.431 -2.63472 -2.95632 0
M  V30 1350 H 137.605 -4.53449 -0.819775 0
M  V30 1351 H 135.92 -4.06648 -0.895922 0
M  V30 1352 H 138.517 -3.88727 -3.67145 0
M  V30 1353 H 138.86 -2.17929 -3.54701 0
M  V30 1354 H 139.393 -3.27901 -2.25223 0
M  V30 1355 H 136.132 -6.26057 -1.94249 0
M  V30 1356 H 135.652 -5.0823 -3.18532 0
M  V30 1357 H 137.331 -5.6722 -3.11241 0
M  V30 1358 N 137.463 0.71206 -1.40597 0
M  V30 1359 C 138.712 1.46754 -1.38369 0
M  V30 1360 C 139.025 1.95598 0.0097839 0
M  V30 1361 O 140.231 2.71059 0.154677 0
M  V30 1362 C 138.687 2.65289 -2.43207 0
M  V30 1363 C 138.295 2.23301 -3.88382 0
M  V30 1364 C 140.039 3.43008 -2.50091 0
M  V30 1365 C 137.946 3.38696 -4.84808 0
M  V30 1366 H 136.876 0.55118 -0.514506 0
M  V30 1367 H 139.527 0.774616 -1.66349 0
M  V30 1368 H 137.909 3.36769 -2.08332 0
M  V30 1369 H 139.083 1.59218 -4.32419 0
M  V30 1370 H 137.398 1.58618 -3.85006 0
M  V30 1371 H 139.995 4.28881 -3.1932 0
M  V30 1372 H 140.338 3.87065 -1.53253 0
M  V30 1373 H 140.871 2.78574 -2.83974 0
M  V30 1374 H 137.61 2.99668 -5.82992 0
M  V30 1375 H 137.13 4.01683 -4.45433 0
M  V30 1376 H 138.809 4.04712 -5.04794 0
M  V30 1377 N 138.941 1.26152 0.944643 0
M  V30 1378 C 140.19 1.10883 1.68487 0
M  V30 1379 C 140.503 -0.348153 1.92477 0
M  V30 1380 O 141.709 -0.621459 2.64292 0
M  V30 1381 C 140.165 1.93624 3.03377 0
M  V30 1382 C 139.773 3.43875 2.87148 0
M  V30 1383 C 141.517 1.86954 3.81115 0
M  V30 1384 C 139.424 4.18875 4.1749 0
M  V30 1385 H 138.354 0.41135 0.631907 0
M  V30 1386 H 141.005 1.50433 1.05082 0
M  V30 1387 H 139.387 1.46904 3.67743 0
M  V30 1388 H 140.561 3.98338 2.31653 0
M  V30 1389 H 138.876 3.51744 2.22856 0
M  V30 1390 H 141.473 2.40275 4.77673 0
M  V30 1391 H 141.816 0.839518 4.07747 0
M  V30 1392 H 142.349 2.31477 3.23517 0
M  V30 1393 H 139.088 5.22332 3.96043 0
M  V30 1394 H 138.608 3.69193 4.72712 0
M  V30 1395 H 140.287 4.27134 4.85968 0
M  V30 1396 N 140.419 -1.14872 1.07899 0
M  V30 1397 C 141.667 -1.85422 0.803941 0
M  V30 1398 C 141.988 -1.83051 -0.67211 0
M  V30 1399 O 141.258 -1.27532 -1.48703 0
M  V30 1400 H 139.838 -0.686537 0.294408 0
M  V30 1401 H 142.5 -1.39226 1.3639 0
M  V30 1402 H 141.596 -2.90399 1.14346 0
M  V30 1403 N 141.898 -0.863906 -1.31812 0
M  V30 1404 C 142.848 -0.286898 -2.26188 0
M  V30 1405 C 143.832 0.572577 -1.50367 0
M  V30 1406 O 145.024 0.420447 -1.71934 0
M  V30 1407 C 142.153 0.515849 -3.39402 0
M  V30 1408 C 141.239 -0.356531 -4.22599 0
M  V30 1409 N 141.63 -1.44716 -4.84656 0
M  V30 1410 C 139.928 -0.147898 -4.45755 0
M  V30 1411 C 140.629 -1.98462 -5.46798 0
M  V30 1412 N 139.605 -1.28247 -5.28255 0
M  V30 1413 H 143.407 -1.12055 -2.717 0
M  V30 1414 H 140.921 -0.711012 -1.46008 0
M  V30 1415 H 142.918 0.945701 -4.06032 0
M  V30 1416 H 141.578 1.34718 -2.95434 0
M  V30 1417 H 142.589 -1.83008 -4.84488 0
M  V30 1418 H 139.266 0.647973 -4.12441 0
M  V30 1419 H 140.656 -2.89932 -6.06126 0
M  V30 1420 N 143.376 1.44774 -0.622745 0
M  V30 1421 C 144.601 2.06999 -0.128968 0
M  V30 1422 C 145.026 1.4617 1.1839 0
M  V30 1423 O 144.384 0.560007 1.72434 0
M  V30 1424 C 144.432 3.60595 -0.0188351 0
M  V30 1425 O 143.536 3.99398 1.02739 0
M  V30 1426 H 142.877 0.659047 -0.0809544 0
M  V30 1427 H 145.407 1.85784 -0.85705 0
M  V30 1428 H 145.417 4.07627 0.174476 0
M  V30 1429 H 144.092 4.04252 -0.977384 0
M  V30 1430 H 142.669 3.64011 0.809326 0
M  V30 1431 N 144.854 0.36279 1.53368 0
M  V30 1432 C 145.764 -0.492994 2.29362 0
M  V30 1433 C 146.78 -1.09507 1.35219 0
M  V30 1434 O 147.956 -1.10662 1.68273 0
M  V30 1435 C 145.021 -1.61855 3.066 0
M  V30 1436 C 144.082 -1.04429 4.16405 0
M  V30 1437 C 143.315 -2.11621 4.89951 0
M  V30 1438 O 143.538 -3.32684 4.63333 0
M  V30 1439 O 142.472 -1.74835 5.75948 0
M  V30 1440 H 146.298 0.125331 3.03441 0
M  V30 1441 H 143.883 0.127253 1.48857 0
M  V30 1442 H 145.765 -2.27302 3.54841 0
M  V30 1443 H 144.44 -2.22233 2.3536 0
M  V30 1444 H 143.347 -0.353819 3.72423 0
M  V30 1445 H 144.68 -0.485113 4.89804 0
M  V30 1446 N 146.332 -1.57332 0.0918853 0
M  V30 1447 C 147.748 -1.57389 -0.264766 0
M  V30 1448 C 147.948 -1.10281 -1.68643 0
M  V30 1449 O 147.004 -0.777801 -2.40222 0
M  V30 1450 C 148.317 -3.00648 -0.0561195 0
M  V30 1451 C 149.865 -3.12754 -0.124116 0
M  V30 1452 C 150.34 -4.57965 0.0564972 0
M  V30 1453 N 151.831 -4.632 0.00155611 0
M  V30 1454 C 152.566 -5.73281 0.116598 0
M  V30 1455 N 152.062 -6.92208 0.286294 0
M  V30 1456 N 153.855 -5.6207 0.0580973 0
M  V30 1457 H 146.006 -1.86262 1.02079 0
M  V30 1458 H 148.269 -0.859579 0.399786 0
M  V30 1459 H 147.975 -3.393 0.925669 0
M  V30 1460 H 147.849 -3.68623 -0.799823 0
M  V30 1461 H 150.236 -2.73976 -1.09641 0
M  V30 1462 H 150.317 -2.47377 0.651024 0
M  V30 1463 H 149.961 -4.97436 1.02564 0
M  V30 1464 H 149.891 -5.21399 -0.738297 0
M  V30 1465 H 152.382 -3.77686 -0.127192 0
M  V30 1466 H 152.695 -7.71934 0.365676 0
M  V30 1467 H 151.04 -6.94254 0.32192 0
M  V30 1468 H 154.231 -4.68043 -0.0733204 0
M  V30 1469 H 154.404 -6.47824 0.151203 0
M  V30 1470 N 147.81 0.181792 -1.56548 0
M  V30 1471 C 149.226 0.53316 -1.50431 0
M  V30 1472 C 149.426 1.85184 -0.794297 0
M  V30 1473 O 148.482 2.50058 -0.350318 0
M  V30 1474 C 149.795 0.575597 -2.9514 0
M  V30 1475 C 151.343 0.663519 -3.05886 0
M  V30 1476 C 151.818 0.736946 -4.52032 0
M  V30 1477 N 153.309 0.800118 -4.56237 0
M  V30 1478 C 154.044 0.877327 -5.66649 0
M  V30 1479 N 153.54 0.916016 -6.86718 0
M  V30 1480 N 155.333 0.915542 -5.54594 0
M  V30 1481 H 147.484 -0.683025 -2.01118 0
M  V30 1482 H 149.747 -0.244988 -0.915797 0
M  V30 1483 H 149.453 -0.324482 -3.502 0
M  V30 1484 H 149.327 1.42572 -3.49218 0
M  V30 1485 H 151.714 1.55403 -2.50867 0
M  V30 1486 H 151.795 -0.21307 -2.54911 0
M  V30 1487 H 151.439 -0.149262 -5.07681 0
M  V30 1488 H 151.369 1.62953 -5.00753 0
M  V30 1489 H 153.86 0.778926 -3.69785 0
M  V30 1490 H 154.173 0.975813 -7.66614 0
M  V30 1491 H 152.518 0.884469 -6.89349 0
M  V30 1492 H 155.709 0.882245 -4.59711 0
M  V30 1493 H 155.882 0.972253 -6.40665 0
M  V30 1494 N 149.288 1.51039 0.449983 0
M  V30 1495 C 150.198 1.74261 1.57067 0
M  V30 1496 C 151.214 0.626363 1.62335 0
M  V30 1497 O 152.39 0.907162 1.79812 0
M  V30 1498 C 149.455 1.85114 2.93144 0
M  V30 1499 C 148.516 3.0893 2.98095 0
M  V30 1500 C 147.749 3.19256 4.27681 0
M  V30 1501 O 147.972 2.35835 5.19363 0
M  V30 1502 O 146.906 4.12144 4.38658 0
M  V30 1503 H 150.732 2.69303 1.40391 0
M  V30 1504 H 148.317 1.35389 0.631688 0
M  V30 1505 H 150.199 1.94311 3.73926 0
M  V30 1506 H 148.874 0.932588 3.09975 0
M  V30 1507 H 147.781 3.0522 2.16314 0
M  V30 1508 H 149.114 4.00433 2.86206 0
M  V30 1509 N 150.766 -0.704594 1.40972 0
M  V30 1510 C 151.996 -1.49138 1.42974 0
M  V30 1511 C 152.404 -1.89175 0.0308406 0
M  V30 1512 O 151.747 -1.56734 -0.958138 0
M  V30 1513 C 151.809 -2.79016 2.26694 0
M  V30 1514 C 151.473 -2.61236 3.74973 0
M  V30 1515 C 152.47 -2.27773 4.67349 0
M  V30 1516 C 150.155 -2.77158 4.18914 0
M  V30 1517 C 152.149 -2.10457 6.01653 0
M  V30 1518 C 149.836 -2.59459 5.53285 0
M  V30 1519 C 150.834 -2.26158 6.4447 0
M  V30 1520 O 150.522 -2.08605 7.76363 0
M  V30 1521 H 150.254 -0.466443 0.489292 0
M  V30 1522 H 152.808 -0.8758 1.85793 0
M  V30 1523 H 151.038 -3.42947 1.78673 0
M  V30 1524 H 152.727 -3.40782 2.20504 0
M  V30 1525 H 153.493 -2.15095 4.34694 0
M  V30 1526 H 149.372 -3.02064 3.48251 0
M  V30 1527 H 152.916 -1.84387 6.72791 0
M  V30 1528 H 148.813 -2.71725 5.85522 0
M  V30 1529 H 149.581 -2.23439 7.87412 0
M  V30 1530 N 152.244 -1.26651 -0.937939 0
M  V30 1531 C 153.194 -1.05156 -2.02302 0
M  V30 1532 C 154.178 0.0171233 -1.60891 0
M  V30 1533 O 155.37 -0.200213 -1.75864 0
M  V30 1534 C 152.499 -0.689962 -3.36295 0
M  V30 1535 C 151.585 -1.79626 -3.84181 0
M  V30 1536 N 151.976 -3.03422 -4.04684 0
M  V30 1537 C 150.274 -1.6806 -4.13124 0
M  V30 1538 C 150.975 -3.75345 -4.444 0
M  V30 1539 N 149.951 -3.03051 -4.51288 0
M  V30 1540 H 153.753 -1.99117 -2.1617 0
M  V30 1541 H 151.267 -1.17216 -1.12402 0
M  V30 1542 H 153.264 -0.517112 -4.13681 0
M  V30 1543 H 151.924 0.242139 -3.23796 0
M  V30 1544 H 152.935 -3.39293 -3.91281 0
M  V30 1545 H 149.612 -0.818629 -4.09396 0
M  V30 1546 H 151.002 -4.81691 -4.68427 0
M  V30 1547 N 153.722 1.14298 -1.08507 0
M  V30 1548 C 154.685 2.17607 -0.719711 0
M  V30 1549 C 155.685 1.58907 0.245997 0
M  V30 1550 O 156.875 1.74181 0.0254081 0
M  V30 1551 C 154.007 3.40842 -0.0627695 0
M  V30 1552 H 155.2 2.51443 -1.63452 0
M  V30 1553 H 152.753 1.28963 -0.88307 0
M  V30 1554 H 153.488 3.12587 0.863716 0
M  V30 1555 H 153.273 3.84713 -0.757504 0
M  V30 1556 H 154.763 4.17221 0.177786 0
M  V30 1557 N 155.201 0.870884 1.31352 0
M  V30 1558 C 156.111 0.330783 2.32256 0
M  V30 1559 C 157.127 -0.559767 1.6475 0
M  V30 1560 O 158.303 -0.456263 1.96164 0
M  V30 1561 C 155.368 -0.458137 3.4366 0
M  V30 1562 C 154.429 0.460482 4.26823 0
M  V30 1563 C 153.662 -0.290881 5.32907 0
M  V30 1564 O 153.885 -1.51885 5.49806 0
M  V30 1565 O 152.819 0.351732 6.00871 0
M  V30 1566 H 156.645 1.16718 2.80376 0
M  V30 1567 H 154.23 0.634285 1.35267 0
M  V30 1568 H 156.112 -0.905343 4.1156 0
M  V30 1569 H 154.787 -1.27106 2.97701 0
M  V30 1570 H 153.694 0.956207 3.61673 0
M  V30 1571 H 155.027 1.23903 4.7635 0
M  V30 1572 N 156.679 -1.44442 0.630414 0
M  V30 1573 C 157.904 -2.06927 0.139944 0
M  V30 1574 C 158.329 -1.46795 -1.17613 0
M  V30 1575 O 157.687 -0.569144 -1.72135 0
M  V30 1576 C 157.735 -3.6058 0.0379581 0
M  V30 1577 O 156.839 -3.99937 -1.0062 0
M  V30 1578 H 156.18 -0.658608 0.0844483 0
M  V30 1579 H 158.71 -1.85327 0.866891 0
M  V30 1580 H 158.72 -4.07714 -0.152856 0
M  V30 1581 H 157.395 -4.03728 0.998809 0
M  V30 1582 H 155.972 -3.64436 -0.79001 0
M  V30 1583 N 158.157 -0.370918 -1.53173 0
M  V30 1584 C 159.434 0.273754 -1.93675 0
M  V30 1585 C 159.814 1.65938 -1.3049 0
M  V30 1586 O 159.162 2.23698 -0.465999 0
M  V30 1587 C 159.372 0.318602 -3.47543 0
M  V30 1588 C 160.72 0.556392 -4.20939 0
M  V30 1589 O 161.744 0.399587 -3.53952 0
M  V30 1590 O 160.603 0.862133 -5.39657 0
M  V30 1591 H 157.697 0.165448 -0.810281 0
M  V30 1592 H 160.243 -0.42409 -1.64315 0
M  V30 1593 H 159.015 -0.652687 -3.85818 0
M  V30 1594 H 158.638 1.06212 -3.83151 0
M  V30 1595 N 159.635 1.57281 -0.100228 0
M  V30 1596 C 160.545 2.17833 0.870965 0
M  V30 1597 C 161.561 1.14921 1.30649 0
M  V30 1598 O 162.737 1.47313 1.37335 0
M  V30 1599 C 159.802 2.75085 2.1102 0
M  V30 1600 C 158.863 3.9297 1.72838 0
M  V30 1601 C 158.096 4.47482 2.90854 0
M  V30 1602 O 158.319 4.00922 4.05731 0
M  V30 1603 O 157.253 5.38433 2.69023 0
M  V30 1604 H 161.079 3.0124 0.38575 0
M  V30 1605 H 158.664 1.48881 0.124397 0
M  V30 1606 H 160.546 3.11656 2.83634 0
M  V30 1607 H 159.221 1.94721 2.58584 0
M  V30 1608 H 158.128 3.61201 0.973883 0
M  V30 1609 H 159.461 4.74713 1.30033 0
M  V30 1610 N 161.113 -0.173488 1.56642 0
M  V30 1611 C 162.36 -0.890465 1.81871 0
M  V30 1612 C 162.688 -1.82339 0.67696 0
M  V30 1613 O 161.943 -1.92795 -0.335926 0
M  V30 1614 C 162.242 -1.72069 3.13252 0
M  V30 1615 C 161.908 -0.936878 4.41059 0
M  V30 1616 C 160.57 -0.720545 4.75775 0
M  V30 1617 C 162.922 -0.386919 5.19762 0
M  V30 1618 C 160.25 0.0568829 5.86672 0
M  V30 1619 C 162.602 0.37741 6.31473 0
M  V30 1620 C 161.266 0.604563 6.64757 0
M  V30 1621 H 160.536 -0.325844 0.665512 0
M  V30 1622 H 163.183 -0.155527 1.90867 0
M  V30 1623 H 161.488 -2.52496 2.99588 0
M  V30 1624 H 163.185 -2.27844 3.29982 0
M  V30 1625 H 159.775 -1.11553 4.13828 0
M  V30 1626 H 163.959 -0.541398 4.93338 0
M  V30 1627 H 159.215 0.242635 6.10918 0
M  V30 1628 H 163.389 0.810825 6.91664 0
M  V30 1629 H 161.016 1.20885 7.50527 0
M  V30 1630 N 162.591 -1.51276 -0.441967 0
M  V30 1631 C 163.837 -1.63958 -1.19355 0
M  V30 1632 C 164.17 -0.352543 -1.90973 0
M  V30 1633 O 163.445 0.647627 -1.83401 0
M  V30 1634 C 163.728 -2.83979 -2.21422 0
M  V30 1635 C 163.581 -4.22646 -1.53918 0
M  V30 1636 C 164.9 -2.99521 -3.22451 0
M  V30 1637 H 162.019 -0.596709 -0.432559 0
M  V30 1638 H 164.661 -1.83748 -0.483398 0
M  V30 1639 H 162.811 -2.67237 -2.81987 0
M  V30 1640 H 164.483 -4.51045 -0.967256 0
M  V30 1641 H 162.726 -4.25558 -0.841615 0
M  V30 1642 H 163.397 -5.02609 -2.28229 0
M  V30 1643 H 165.873 -3.14944 -2.71937 0
M  V30 1644 H 164.749 -3.85072 -3.91166 0
M  V30 1645 H 165.01 -2.11391 -3.88287 0
M  V30 1646 N 164.069 0.697108 -1.41344 0
M  V30 1647 C 165.032 1.79281 -1.42797 0
M  V30 1648 C 166.032 1.57607 -0.318837 0
M  V30 1649 O 167.222 1.64309 -0.578642 0
M  V30 1650 C 164.354 3.17632 -1.23785 0
M  V30 1651 H 165.547 1.79385 -2.40335 0
M  V30 1652 H 163.1 0.904582 -1.27464 0
M  V30 1653 H 163.835 3.23167 -0.270814 0
M  V30 1654 H 163.62 3.34765 -2.04144 0
M  V30 1655 H 165.11 3.97617 -1.27633 0
M  V30 1656 N 165.547 1.27147 0.931209 0
M  V30 1657 C 166.494 1.09568 2.03134 0
M  V30 1658 C 167.464 -0.00222433 1.661 0
M  V30 1659 O 168.649 0.159439 1.90133 0
M  V30 1660 C 165.789 0.745231 3.36957 0
M  V30 1661 C 164.902 1.92041 3.86968 0
M  V30 1662 C 164.037 1.51216 5.09222 0
M  V30 1663 C 163.076 2.65504 5.5152 0
M  V30 1664 N 162.213 2.25291 6.64972 0
M  V30 1665 H 167.053 2.03708 2.17502 0
M  V30 1666 H 164.59 1.01411 1.06556 0
M  V30 1667 H 166.548 0.522878 4.1391 0
M  V30 1668 H 165.178 -0.159202 3.22407 0
M  V30 1669 H 164.23 2.25541 3.06326 0
M  V30 1670 H 165.542 2.77787 4.1429 0
M  V30 1671 H 164.696 1.25084 5.93666 0
M  V30 1672 H 163.435 0.625749 4.83669 0
M  V30 1673 H 162.44 2.92354 4.65628 0
M  V30 1674 H 163.665 3.54761 5.7907 0
M  V30 1675 H 161.611 1.39098 6.41083 0
M  V30 1676 H 161.528 3.04577 6.91931 0
M  V30 1677 H 162.796 2.02398 7.52765 0
M  V30 1678 N 167.025 -1.13721 1.09112 0
M  V30 1679 C 167.972 -2.19031 0.727591 0
M  V30 1680 C 168.942 -1.63555 -0.289656 0
M  V30 1681 O 170.127 -1.90023 -0.172026 0
M  V30 1682 C 167.267 -3.4477 0.15082 0
M  V30 1683 C 166.38 -4.14365 1.22172 0
M  V30 1684 C 165.515 -5.27709 0.608042 0
M  V30 1685 C 164.554 -5.89147 1.66047 0
M  V30 1686 N 163.691 -6.93929 1.06806 0
M  V30 1687 H 168.531 -2.49475 1.62991 0
M  V30 1688 H 166.068 -1.22499 0.81439 0
M  V30 1689 H 168.026 -4.16714 -0.201358 0
M  V30 1690 H 166.656 -3.14787 -0.714783 0
M  V30 1691 H 165.708 -3.40737 1.69122 0
M  V30 1692 H 167.02 -4.56114 2.01895 0
M  V30 1693 H 166.174 -6.06355 0.204523 0
M  V30 1694 H 164.913 -4.872 -0.220769 0
M  V30 1695 H 163.918 -5.09198 2.07357 0
M  V30 1696 H 165.143 -6.31729 2.49189 0
M  V30 1697 H 163.089 -6.55483 0.260476 0
M  V30 1698 H 163.006 -7.34202 1.8023 0
M  V30 1699 H 164.274 -7.76434 0.690644 0
M  V30 1700 N 168.503 -0.877838 -1.30888 0
M  V30 1701 C 169.75 -0.492696 -1.96415 0
M  V30 1702 C 170.078 0.956671 -1.69346 0
M  V30 1703 O 169.333 1.68993 -0.986913 0
M  V30 1704 C 169.632 -0.705748 -3.50363 0
M  V30 1705 C 169.298 -2.1291 -3.97467 0
M  V30 1706 C 167.96 -2.51834 -4.1004 0
M  V30 1707 C 170.312 -3.05702 -4.22132 0
M  V30 1708 C 167.64 -3.82775 -4.44635 0
M  V30 1709 C 169.992 -4.36166 -4.58194 0
M  V30 1710 C 168.656 -4.74993 -4.68975 0
M  V30 1711 H 167.926 -0.18029 -0.718733 0
M  V30 1712 H 170.573 -1.11233 -1.55883 0
M  V30 1713 H 168.878 -0.00303058 -3.918 0
M  V30 1714 H 170.575 -0.387456 -3.99124 0
M  V30 1715 H 167.165 -1.81694 -3.88182 0
M  V30 1716 H 171.349 -2.76853 -4.11906 0
M  V30 1717 H 166.605 -4.12609 -4.51181 0
M  V30 1718 H 170.779 -5.08111 -4.76231 0
M  V30 1719 H 168.406 -5.76495 -4.95537 0
M  V30 1720 N 169.982 1.44106 -0.638065 0
M  V30 1721 C 170.945 2.29138 0.0531013 0
M  V30 1722 C 171.945 1.41409 0.765506 0
M  V30 1723 O 173.135 1.63206 0.609046 0
M  V30 1724 C 170.267 3.23144 1.08584 0
M  V30 1725 H 171.46 2.91739 -0.694883 0
M  V30 1726 H 169.013 1.51134 -0.398538 0
M  V30 1727 H 169.748 2.65408 1.86357 0
M  V30 1728 H 169.533 3.87804 0.578852 0
M  V30 1729 H 171.023 3.87004 1.56899 0
M  V30 1730 N 171.46 0.379036 1.52974 0
M  V30 1731 C 172.707 -0.206421 2.01445 0
M  V30 1732 C 173.035 -1.47668 1.26587 0
M  V30 1733 O 172.29 -1.92514 0.351675 0
M  V30 1734 C 172.589 -0.53096 3.53434 0
M  V30 1735 C 172.255 0.646546 4.46241 0
M  V30 1736 C 170.917 0.969604 4.7133 0
M  V30 1737 C 173.269 1.43479 5.01062 0
M  V30 1738 C 170.597 2.08263 5.48492 0
M  V30 1739 C 172.949 2.53834 5.7944 0
M  V30 1740 C 171.613 2.86659 6.02812 0
M  V30 1741 H 170.883 -0.0755349 0.73714 0
M  V30 1742 H 173.53 0.514271 1.84465 0
M  V30 1743 H 171.835 -1.33285 3.68432 0
M  V30 1744 H 173.532 -0.996417 3.88423 0
M  V30 1745 H 170.122 0.384734 4.2687 0
M  V30 1746 H 174.306 1.19844 4.81613 0
M  V30 1747 H 169.562 2.34078 5.64816 0
M  V30 1748 H 173.736 3.15319 6.20924 0
M  V30 1749 H 171.363 3.73026 6.62387 0
M  V30 1750 N 172.938 -1.57226 0.108567 0
M  V30 1751 C 173.868 -2.17778 -0.84232 0
M  V30 1752 C 174.849 -1.11487 -1.2847 0
M  V30 1753 O 176.034 -1.39681 -1.34918 0
M  V30 1754 C 173.164 -2.76888 -2.09644 0
M  V30 1755 C 172.118 -3.88669 -1.79221 0
M  V30 1756 C 171.444 -4.34541 -3.11574 0
M  V30 1757 C 172.744 -5.11251 -1.06864 0
M  V30 1758 H 174.438 -2.97489 -0.337774 0
M  V30 1759 H 171.984 -1.43097 -0.161025 0
M  V30 1760 H 173.937 -3.17904 -2.76614 0
M  V30 1761 H 172.661 -1.94451 -2.62405 0
M  V30 1762 H 171.32 -3.48213 -1.14644 0
M  V30 1763 H 170.968 -3.48977 -3.62249 0
M  V30 1764 H 170.668 -5.09914 -2.91996 0
M  V30 1765 H 172.192 -4.782 -3.7968 0
M  V30 1766 H 173.606 -5.49352 -1.63968 0
M  V30 1767 H 172.003 -5.9214 -0.974178 0
M  V30 1768 H 173.073 -4.8487 -0.0536168 0
M  V30 1769 N 174.416 0.165178 -1.56732 0
M  V30 1770 C 175.363 1.2044 -1.96883 0
M  V30 1771 C 176.333 1.43664 -0.833657 0
M  V30 1772 O 177.518 1.56302 -1.09427 0
M  V30 1773 C 174.658 2.53727 -2.33916 0
M  V30 1774 C 173.771 2.3783 -3.6064 0
M  V30 1775 C 172.906 3.64026 -3.86857 0
M  V30 1776 C 171.945 3.43088 -5.06909 0
M  V30 1777 N 171.082 4.61369 -5.29229 0
M  V30 1778 H 175.922 0.854996 -2.85471 0
M  V30 1779 H 173.459 0.41076 -1.41249 0
M  V30 1780 H 175.417 3.31419 -2.53411 0
M  V30 1781 H 174.047 2.8665 -1.48431 0
M  V30 1782 H 173.099 1.51282 -3.49024 0
M  V30 1783 H 174.411 2.18308 -4.4849 0
M  V30 1784 H 173.565 4.50152 -4.06753 0
M  V30 1785 H 172.304 3.86533 -2.97394 0
M  V30 1786 H 171.309 2.55349 -4.86906 0
M  V30 1787 H 172.534 3.21997 -5.97909 0
M  V30 1788 H 170.48 4.84084 -4.42718 0
M  V30 1789 H 170.397 4.44783 -6.11313 0
M  V30 1790 H 171.665 5.48761 -5.53608 0
M  V30 1791 N 175.894 1.51508 0.433938 0
M  V30 1792 C 176.804 1.75917 1.5521 0
M  V30 1793 C 177.82 0.643545 1.61662 0
M  V30 1794 O 178.996 0.926183 1.7884 0
M  V30 1795 C 176.061 1.88213 2.91164 0
M  V30 1796 C 175.122 3.12074 2.94802 0
M  V30 1797 C 174.355 3.23774 4.24271 0
M  V30 1798 O 174.578 2.4133 5.16833 0
M  V30 1799 O 173.512 4.16774 4.34262 0
M  V30 1800 H 177.338 2.70777 1.37527 0
M  V30 1801 H 174.923 1.36051 0.617293 0
M  V30 1802 H 176.805 1.98267 3.71845 0
M  V30 1803 H 175.48 0.965413 3.08968 0
M  V30 1804 H 174.387 3.07497 2.13065 0
M  V30 1805 H 175.72 4.03446 2.81943 0
M  V30 1806 N 177.372 -0.689602 1.41712 0
M  V30 1807 C 178.32 -1.82475 1.44242 0
M  V30 1808 C 179.314 -1.66354 0.319774 0
M  V30 1809 O 180.52 -1.73143 0.492089 0
M  V30 1810 H 176.895 -0.601416 0.451445 0
M  V30 1811 H 178.866 -1.77458 2.39899 0
M  V30 1812 C 177.615 -3.20535 1.3473 0
M  V30 1813 H 176.938 -3.33559 2.20405 0
M  V30 1814 H 178.378 -4.00023 1.40562 0
M  V30 1815 C 176.837 -3.36846 0.0603281 0
M  V30 1816 O 177.367 -3.91656 -0.892663 0
M  V30 1817 N 175.573 -2.90595 -0.0177039 0
M  V30 1818 H 175.12 -2.46178 0.758572 0
M  V30 1819 H 175.078 -3.01886 -0.878201 0
M  V30 1820 N 178.85 -1.27639 -0.924453 0
M  V30 1821 C 180.098 -1.13941 -1.66918 0
M  V30 1822 C 180.419 0.314589 -1.92446 0
M  V30 1823 O 179.689 1.21964 -1.53303 0
M  V30 1824 H 178.269 -0.418678 -0.618642 0
M  V30 1825 H 180.931 -1.60213 -1.10985 0
M  V30 1826 H 180.027 -1.67094 -2.63602 0
M  V30 1827 N 180.328 1.1314 -1.09713 0
M  V30 1828 C 181.258 2.20748 -0.761102 0
M  V30 1829 C 182.239 1.68061 0.262566 0
M  V30 1830 O 183.424 1.93765 0.129977 0
M  V30 1831 C 180.554 3.46812 -0.184054 0
M  V30 1832 C 179.508 4.12606 -1.13757 0
M  V30 1833 C 178.834 5.33031 -0.422083 0
M  V30 1834 C 180.134 4.59603 -2.48118 0
M  V30 1835 H 181.828 2.49113 -1.66082 0
M  V30 1836 H 179.374 1.19734 -0.799987 0
M  V30 1837 H 181.327 4.21353 0.0631215 0
M  V30 1838 H 180.051 3.17851 0.750868 0
M  V30 1839 H 178.71 3.40036 -1.37007 0
M  V30 1840 H 178.358 5.00335 0.517072 0
M  V30 1841 H 178.058 5.77999 -1.05788 0
M  V30 1842 H 179.582 6.10325 -0.183277 0
M  V30 1843 H 180.996 5.25552 -2.29059 0
M  V30 1844 H 179.393 5.15321 -3.07514 0
M  V30 1845 H 180.463 3.73971 -3.08665 0
M  V30 1846 N 181.806 0.884767 1.30421 0
M  V30 1847 C 183.034 0.518044 2.0031 0
M  V30 1848 C 183.449 -0.893408 1.66324 0
M  V30 1849 O 182.806 -1.5875 0.900262 0
M  V30 1850 C 182.857 0.682997 3.54989 0
M  V30 1851 O 182.578 2.03888 3.87764 0
M  V30 1852 C 184.079 0.31924 4.42149 0
M  V30 1853 H 181.299 0.200265 0.640418 0
M  V30 1854 H 183.843 1.19001 1.6631 0
M  V30 1855 H 181.998 0.0584052 3.87356 0
M  V30 1856 H 182.412 2.05735 4.82466 0
M  V30 1857 H 183.886 0.485555 5.4986 0
M  V30 1858 H 184.363 -0.742717 4.32875 0
M  V30 1859 H 184.969 0.920147 4.15227 0
M  V30 1860 N 183.284 -1.43765 0.645699 0
M  V30 1861 C 184.695 -1.85193 0.236719 0
M  V30 1862 C 185.046 -1.54045 -1.21509 0
M  V30 1863 O 184.171 -0.985694 -1.92647 0
M  V30 1864 C 184.766 -3.36151 0.422845 0
M  V30 1865 C 183.325 -3.76338 0.0682492 0
M  V30 1866 C 182.472 -2.67538 0.729306 0
M  V30 1867 H 185.423 -1.34025 0.849883 0
M  V30 1868 H 185.444 -3.79032 -0.333904 0
M  V30 1869 H 184.956 -3.5879 1.47958 0
M  V30 1870 H 183.057 -3.59312 -0.986179 0
M  V30 1871 H 183.17 -4.76603 0.488469 0
M  V30 1872 H 181.534 -2.54176 0.163235 0
M  V30 1873 H 182.317 -2.93006 1.78892 0
M  V30 1874 N 184.763 -0.387143 -1.52771 0
M  V30 1875 C 186.009 0.196025 -2.0185 0
M  V30 1876 C 186.342 1.46641 -1.27319 0
M  V30 1877 O 185.617 1.90889 -0.373032 0
M  V30 1878 C 185.9 0.466136 -3.5707 0
M  V30 1879 C 185.753 -0.819385 -4.42274 0
M  V30 1880 C 187.072 1.25768 -4.21747 0
M  V30 1881 H 184.191 0.0697708 -0.73369 0
M  V30 1882 H 186.833 -0.516286 -1.82851 0
M  V30 1883 H 184.983 1.07293 -3.7339 0
M  V30 1884 H 186.655 -1.4563 -4.37709 0
M  V30 1885 H 184.898 -1.43517 -4.09372 0
M  V30 1886 H 185.569 -0.585065 -5.48891 0
M  V30 1887 H 188.045 0.744167 -4.09391 0
M  V30 1888 H 186.921 1.41541 -5.30337 0
M  V30 1889 H 187.182 2.27228 -3.79236 0
M  V30 1890 N 186.241 1.57166 -0.116904 0
M  V30 1891 C 187.171 2.18222 0.830759 0
M  V30 1892 C 188.152 1.12167 1.27877 0
M  V30 1893 O 189.337 1.40394 1.34176 0
M  V30 1894 C 186.467 2.77996 2.08172 0
M  V30 1895 C 185.421 3.89614 1.77157 0
M  V30 1896 C 184.747 4.36187 3.09265 0
M  V30 1897 C 186.047 5.1181 1.04151 0
M  V30 1898 H 187.741 2.97664 0.321992 0
M  V30 1899 H 185.287 1.4318 0.153434 0
M  V30 1900 H 187.24 3.19366 2.74924 0
M  V30 1901 H 185.964 1.9584 2.6137 0
M  V30 1902 H 184.623 3.48816 1.12796 0
M  V30 1903 H 184.271 3.50893 3.60393 0
M  V30 1904 H 183.971 5.11455 2.89288 0
M  V30 1905 H 185.495 4.80207 3.77139 0
M  V30 1906 H 186.909 5.50214 1.61052 0
M  V30 1907 H 185.306 5.92648 0.942762 0
M  V30 1908 H 186.376 4.84892 0.0279022 0
M  V30 1909 N 187.719 -0.156864 1.56817 0
M  V30 1910 C 188.959 -0.877453 1.84608 0
M  V30 1911 C 189.323 -1.78791 0.699845 0
M  V30 1912 O 190.524 -2.5472 0.858553 0
M  V30 1913 C 188.795 -1.63992 3.17555 0
M  V30 1914 S 190.354 -2.40729 3.66872 0
M  V30 1915 H 187.172 -0.293612 0.647544 0
M  V30 1916 H 189.774 -0.138099 1.95012 0
M  V30 1917 H 188.478 -0.962363 3.98957 0
M  V30 1918 H 188.009 -2.42038 3.10131 0
M  V30 1919 H 190.024 -3.65725 3.3535 0
M  V30 1920 N 189.197 -1.51736 -0.425897 0
M  V30 1921 C 190.446 -1.64201 -1.17136 0
M  V30 1922 C 190.759 -0.369705 -1.92074 0
M  V30 1923 O 191.965 -0.373898 -2.68913 0
M  V30 1924 C 190.421 -2.90035 -2.13091 0
M  V30 1925 C 190.029 -4.24312 -1.43747 0
M  V30 1926 C 191.773 -3.1186 -2.87999 0
M  V30 1927 C 189.68 -5.41285 -2.38253 0
M  V30 1928 H 188.61 -0.611624 -0.440944 0
M  V30 1929 H 191.261 -1.78212 -0.437328 0
M  V30 1930 H 189.643 -2.69684 -2.89977 0
M  V30 1931 H 190.817 -4.55086 -0.723408 0
M  V30 1932 H 189.132 -4.08456 -0.809465 0
M  V30 1933 H 191.729 -3.96427 -3.58817 0
M  V30 1934 H 192.072 -2.25403 -3.49999 0
M  V30 1935 H 192.605 -3.32605 -2.18217 0
M  V30 1936 H 189.344 -6.30037 -1.80925 0
M  V30 1937 H 188.864 -5.14872 -3.0768 0
M  V30 1938 H 190.543 -5.73694 -2.99139 0
M  V30 1939 N 190.675 0.682077 -1.42076 0
M  V30 1940 C 191.923 1.4393 -1.41876 0
M  V30 1941 C 192.244 1.94971 -0.0335599 0
M  V30 1942 O 191.514 1.72591 0.926773 0
M  V30 1943 H 190.094 0.534085 -0.522267 0
M  V30 1944 H 192.756 0.806427 -1.77434 0
M  V30 1945 H 191.852 2.29588 -2.11414 0
M  V30 1946 N 192.153 1.28127 0.917671 0
M  V30 1947 C 193.063 1.13556 2.05286 0
M  V30 1948 C 194.079 0.0630914 1.73886 0
M  V30 1949 O 195.255 0.271598 1.9956 0
M  V30 1950 C 192.32 0.794676 3.3747 0
M  V30 1951 C 191.381 1.94909 3.82504 0
M  V30 1952 C 190.614 1.62437 5.0838 0
M  V30 1953 O 190.837 0.536905 5.67867 0
M  V30 1954 O 189.771 2.46677 5.4903 0
M  V30 1955 H 193.597 2.08844 2.20495 0
M  V30 1956 H 191.182 1.07409 1.03845 0
M  V30 1957 H 193.064 0.618344 4.16839 0
M  V30 1958 H 191.739 -0.128581 3.23445 0
M  V30 1959 H 190.646 2.18055 3.03978 0
M  V30 1960 H 191.979 2.85291 4.01086 0
M  V30 1961 N 193.631 -1.12557 1.10312 0
M  V30 1962 C 194.856 -1.88405 0.867085 0
M  V30 1963 C 195.281 -1.79038 -0.576817 0
M  V30 1964 O 194.639 -1.14439 -1.40618 0
M  V30 1965 C 194.687 -3.3563 1.31851 0
M  V30 1966 O 193.791 -4.09565 0.482734 0
M  V30 1967 H 193.132 -0.585455 0.313271 0
M  V30 1968 H 195.662 -1.42352 1.4696 0
M  V30 1969 H 195.672 -3.86469 1.3079 0
M  V30 1970 H 194.347 -3.41765 2.37001 0
M  V30 1971 H 192.924 -3.68695 0.558448 0
M  V30 1972 N 195.109 -0.891671 -1.2995 0
M  V30 1973 C 196.386 -0.433307 -1.9074 0
M  V30 1974 C 196.766 1.08646 -1.80995 0
M  V30 1975 O 196.114 1.92476 -1.23147 0
M  V30 1976 C 196.324 -0.938895 -3.36134 0
M  V30 1977 C 197.672 -0.977829 -4.13187 0
M  V30 1978 O 198.696 -0.886015 -3.45005 0
M  V30 1979 O 197.555 -1.11453 -5.35015 0
M  V30 1980 H 194.649 -0.133699 -0.816121 0
M  V30 1981 H 197.195 -0.981011 -1.38471 0
M  V30 1982 H 195.967 -1.98281 -3.37343 0
M  V30 1983 H 195.59 -0.37074 -3.95868 0
M  V30 1984 N 196.587 1.43421 -0.653314 0
M  V30 1985 C 197.55 2.29182 0.0287951 0
M  V30 1986 C 198.55 1.42213 0.750465 0
M  V30 1987 O 199.74 1.63843 0.591701 0
M  V30 1988 C 196.872 3.24278 1.05151 0
M  V30 1989 H 198.065 2.90985 -0.725786 0
M  V30 1990 H 195.618 1.50702 -0.414545 0
M  V30 1991 H 196.353 2.6737 1.83532 0
M  V30 1992 H 196.138 3.88396 0.537687 0
M  V30 1993 H 197.628 3.88647 1.52786 0
M  V30 1994 N 198.065 0.39524 1.52563 0
M  V30 1995 C 198.997 -0.472201 2.24283 0
M  V30 1996 C 200.01 -1.02178 1.26742 0
M  V30 1997 O 201.199 -0.923097 1.52778 0
M  V30 1998 C 198.299 -1.66775 2.95024 0
M  V30 1999 C 197.472 -1.2445 4.19322 0
M  V30 2000 C 196.531 -2.30539 4.7301 0
M  V30 2001 O 195.557 -1.91702 5.35947 0
M  V30 2002 N 196.759 -3.6253 4.53379 0
M  V30 2003 H 199.524 0.142282 2.99362 0
M  V30 2004 H 197.085 0.2219 1.60372 0
M  V30 2005 H 199.077 -2.37283 3.27839 0
M  V30 2006 H 197.647 -2.18845 2.23217 0
M  V30 2007 H 196.867 -0.368069 3.92478 0
M  V30 2008 H 198.155 -0.938457 5.0007 0
M  V30 2009 H 197.553 -3.96841 4.03154 0
M  V30 2010 H 196.11 -4.29055 4.90668 0
M  V30 2011 N 199.544 -1.57102 0.125237 0
M  V30 2012 C 200.492 -2.16905 -0.839927 0
M  V30 2013 C 201.486 -1.11998 -1.27094 0
M  V30 2014 O 202.692 -1.3029 -1.24195 0
M  V30 2015 H 199.067 -0.694252 -0.288995 0
M  V30 2016 H 201.038 -2.96774 -0.311115 0
M  V30 2017 C 199.787 -2.78795 -2.07771 0
M  V30 2018 H 199.11 -3.59221 -1.755 0
M  V30 2019 H 200.55 -3.2417 -2.73295 0
M  V30 2020 C 199.009 -1.76193 -2.87155 0
M  V30 2021 O 199.539 -1.21909 -3.82755 0
M  V30 2022 N 197.745 -1.45991 -2.51267 0
M  V30 2023 H 197.292 -1.90325 -1.73592 0
M  V30 2024 H 197.25 -0.775844 -3.04677 0
M  V30 2025 N 201.022 0.148545 -1.56898 0
M  V30 2026 C 201.932 1.20293 -2.01412 0
M  V30 2027 C 202.948 1.47107 -0.929273 0
M  V30 2028 O 204.124 1.58807 -1.23863 0
M  V30 2029 C 201.189 2.51682 -2.38447 0
M  V30 2030 C 200.25 2.32529 -3.60872 0
M  V30 2031 C 199.483 3.57653 -3.96132 0
M  V30 2032 O 199.706 4.63771 -3.32073 0
M  V30 2033 O 198.64 3.50408 -4.89385 0
M  V30 2034 H 202.466 0.855025 -2.91416 0
M  V30 2035 H 200.051 0.357151 -1.45068 0
M  V30 2036 H 201.933 3.29147 -2.63135 0
M  V30 2037 H 200.608 2.86006 -1.51599 0
M  V30 2038 H 199.515 1.53019 -3.41373 0
M  V30 2039 H 200.848 2.03121 -4.48333 0
M  V30 2040 N 202.5 1.5196 0.417844 0
M  V30 2041 C 203.463 1.74065 1.49111 0
M  V30 2042 C 204.463 0.610537 1.48758 0
M  V30 2043 O 205.653 0.87832 1.50437 0
M  V30 2044 C 202.785 1.81502 2.88565 0
M  V30 2045 H 203.978 2.69869 1.30807 0
M  V30 2046 H 201.531 1.42244 0.647785 0
M  V30 2047 H 202.266 0.875813 3.1225 0
M  V30 2048 H 202.051 2.63651 2.90225 0
M  V30 2049 H 203.541 2.00376 3.66387 0
M  V30 2050 N 203.978 -0.674533 1.42435 0
M  V30 2051 C 205.226 -1.43175 1.42637 0
M  V30 2052 C 205.547 -1.94951 0.0438992 0
M  V30 2053 O 204.817 -1.7308 -0.917607 0
M  V30 2054 H 203.397 -0.531307 0.525092 0
M  V30 2055 H 206.059 -0.797006 1.77859 0
M  V30 2056 H 205.155 -2.28463 2.12629 0
M  V30 2057 N 205.456 -1.28612 -0.910864 0
M  V30 2058 C 206.366 -1.14643 -2.0468 0
M  V30 2059 C 207.382 -0.0723121 -1.7385 0
M  V30 2060 O 208.558 -0.282178 -1.99413 0
M  V30 2061 C 205.623 -0.812561 -3.37044 0
M  V30 2062 C 204.684 -1.96935 -3.81465 0
M  V30 2063 C 203.917 -1.65131 -5.07511 0
M  V30 2064 O 204.14 -0.567013 -5.67575 0
M  V30 2065 O 203.074 -2.49585 -5.47714 0
M  V30 2066 H 206.9 -2.1001 -2.19384 0
M  V30 2067 H 204.485 -1.07958 -1.03274 0
M  V30 2068 H 206.367 -0.640441 -4.16505 0
M  V30 2069 H 205.042 0.111426 -3.23508 0
M  V30 2070 H 203.949 -2.19664 -3.02818 0
M  V30 2071 H 205.282 -2.87414 -3.99567 0
M  V30 2072 N 206.934 1.1197 -1.10907 0
M  V30 2073 C 208.162 1.87402 -0.876824 0
M  V30 2074 C 208.577 1.79894 0.573025 0
M  V30 2075 O 207.934 1.17629 1.39534 0
M  V30 2076 C 207.985 3.36428 -1.32282 0
M  V30 2077 O 207.706 3.43765 -2.71582 0
M  V30 2078 C 209.207 4.28783 -1.12518 0
M  V30 2079 H 206.427 0.592793 -0.314384 0
M  V30 2080 H 208.971 1.41649 -1.47499 0
M  V30 2081 H 207.126 3.79706 -0.768229 0
M  V30 2082 H 207.54 4.3652 -2.90776 0
M  V30 2083 H 209.014 5.31613 -1.48633 0
M  V30 2084 H 209.491 4.39153 -0.0642394 0
M  V30 2085 H 210.097 3.91291 -1.66648 0
M  V30 2086 N 208.412 0.89855 1.29475 0
M  V30 2087 C 209.345 0.319981 2.25945 0
M  V30 2088 C 210.323 -0.567189 1.52387 0
M  V30 2089 O 211.507 -0.514254 1.8135 0
M  V30 2090 C 208.634 -0.544013 3.34303 0
M  V30 2091 C 207.68 0.275682 4.25608 0
M  V30 2092 S 208.513 1.67272 5.08704 0
M  V30 2093 C 209.669 0.815621 6.20563 0
M  V30 2094 H 209.902 1.13767 2.74671 0
M  V30 2095 H 207.435 0.69882 1.3768 0
M  V30 2096 H 209.393 -1.03673 3.97193 0
M  V30 2097 H 208.054 -1.33593 2.84274 0
M  V30 2098 H 207.247 -0.384263 5.02533 0
M  V30 2099 H 206.849 0.701496 3.67362 0
M  V30 2100 H 209.141 0.0385042 6.77489 0
M  V30 2101 H 210.084 1.55691 6.90772 0
M  V30 2102 H 210.492 0.370516 5.63283 0
M  V30 2103 N 209.89 -1.43072 0.660911 0
M  V30 2104 C 210.853 -2.29194 -0.0166406 0
M  V30 2105 C 211.853 -1.42609 -0.742912 0
M  V30 2106 O 213.043 -1.64155 -0.583004 0
M  V30 2107 C 210.175 -3.24831 -1.0343 0
M  V30 2108 H 211.368 -2.90596 0.741208 0
M  V30 2109 H 208.921 -1.5048 0.422532 0
M  V30 2110 H 209.656 -2.68339 -1.82111 0
M  V30 2111 H 209.441 -3.88676 -0.517082 0
M  V30 2112 H 210.931 -3.89451 -1.50723 0
M  V30 2113 N 211.368 -0.403325 -1.52352 0
M  V30 2114 C 212.614 0.174605 -2.02047 0
M  V30 2115 C 212.947 1.45282 -1.28867 0
M  V30 2116 O 212.222 1.90483 -0.393257 0
M  V30 2117 C 212.505 0.428238 -3.57545 0
M  V30 2118 C 212.358 -0.866248 -4.4138 0
M  V30 2119 C 213.677 1.21287 -4.23057 0
M  V30 2120 H 210.796 0.0619851 -0.734389 0
M  V30 2121 H 213.438 -0.53565 -1.82293 0
M  V30 2122 H 211.588 1.03327 -3.74507 0
M  V30 2123 H 213.26 -1.50265 -4.3614 0
M  V30 2124 H 211.503 -1.47851 -4.07827 0
M  V30 2125 H 212.174 -0.643249 -5.48239 0
M  V30 2126 H 214.65 0.700703 -4.10158 0
M  V30 2127 H 213.526 1.35909 -5.31808 0
M  V30 2128 H 213.787 2.23193 -3.81625 0
M  V30 2129 N 212.846 1.57033 -0.133567 0
M  V30 2130 C 214.086 1.97575 0.523789 0
M  V30 2131 C 214.45 1.01605 1.62912 0
M  V30 2132 O 215.651 1.3114 2.3464 0
M  V30 2133 C 213.922 3.42256 1.02935 0
M  V30 2134 S 215.481 4.04817 1.69319 0
M  V30 2135 H 212.299 0.690427 0.169799 0
M  V30 2136 H 214.901 1.94234 -0.222101 0
M  V30 2137 H 213.605 4.09842 0.213917 0
M  V30 2138 H 213.136 3.4928 1.81017 0
M  V30 2139 H 215.151 3.96767 2.97977 0
M  V30 2140 N 214.325 -0.140222 1.56975 0
M  V30 2141 C 215.288 -1.15689 1.97861 0
M  V30 2142 C 216.288 -1.3549 0.865974 0
M  V30 2143 O 217.478 -1.32367 1.13246 0
M  V30 2144 C 214.61 -2.51582 2.30042 0
M  V30 2145 H 215.803 -0.805971 2.88867 0
M  V30 2146 H 213.356 -0.383801 1.51515 0
M  V30 2147 H 214.091 -2.91632 1.41849 0
M  V30 2148 H 213.876 -2.38569 3.11171 0
M  V30 2149 H 215.366 -3.24792 2.62488 0
M  V30 2150 N 215.803 -1.52179 -0.40978 0
M  V30 2151 C 217.219 -1.40968 -0.74835 0
M  V30 2152 C 217.419 -0.513657 -1.94843 0
M  V30 2153 O 216.475 0.0208026 -2.52491 0
M  V30 2154 C 217.788 -2.83483 -1.0029 0
M  V30 2155 C 219.336 -2.92821 -1.10565 0
M  V30 2156 C 219.811 -4.36303 -1.39296 0
M  V30 2157 N 221.302 -4.39535 -1.46162 0
M  V30 2158 C 222.037 -5.47614 -1.70018 0
M  V30 2159 N 221.533 -6.65812 -1.91483 0
M  V30 2160 N 223.326 -5.35129 -1.72027 0
M  V30 2161 H 215.477 -2.0897 0.380186 0
M  V30 2162 H 217.74 -0.94185 0.107805 0
M  V30 2163 H 217.446 -3.51168 -0.193461 0
M  V30 2164 H 217.32 -3.24487 -1.92323 0
M  V30 2165 H 219.707 -2.25318 -1.90568 0
M  V30 2166 H 219.788 -2.55276 -0.16369 0
M  V30 2167 H 219.432 -5.04366 -0.598109 0
M  V30 2168 H 219.362 -4.71385 -2.34743 0
M  V30 2169 H 221.853 -3.54332 -1.31367 0
M  V30 2170 H 222.166 -7.43964 -2.09134 0
M  V30 2171 H 220.511 -6.68879 -1.88749 0
M  V30 2172 H 223.702 -4.41764 -1.54796 0
M  V30 2173 H 223.875 -6.19433 -1.9028 0
M  V30 2174 N 217.281 0.66697 -1.42791 0
M  V30 2175 C 218.213 1.7925 -1.42836 0
M  V30 2176 C 219.226 1.59496 -0.326333 0
M  V30 2177 O 220.415 1.6847 -0.589916 0
M  V30 2178 C 217.515 3.16476 -1.21229 0
M  V30 2179 C 216.688 3.63011 -2.44013 0
M  V30 2180 C 215.747 4.78993 -2.17834 0
M  V30 2181 O 214.773 4.89137 -2.91091 0
M  V30 2182 N 215.975 5.68248 -1.18635 0
M  V30 2183 H 218.74 1.79695 -2.39854 0
M  V30 2184 H 216.301 0.850338 -1.37771 0
M  V30 2185 H 218.293 3.91734 -1.01621 0
M  V30 2186 H 216.863 3.10884 -0.32706 0
M  V30 2187 H 216.083 2.78346 -2.79137 0
M  V30 2188 H 217.371 3.90845 -3.25757 0
M  V30 2189 H 216.769 5.62712 -0.580615 0
M  V30 2190 H 215.326 6.43285 -1.05013 0
M  V30 2191 N 218.759 1.29093 0.90403 0
M  V30 2192 C 219.689 1.16401 2.02418 0
M  V30 2193 C 220.67 0.0593085 1.69997 0
M  V30 2194 O 221.855 0.238021 1.92736 0
M  V30 2195 C 218.985 0.835233 3.37107 0
M  V30 2196 C 217.939 1.89578 3.83724 0
M  V30 2197 C 217.265 1.42041 5.15489 0
M  V30 2198 C 218.565 3.30394 4.04521 0
M  V30 2199 H 220.259 2.10109 2.13295 0
M  V30 2200 H 217.805 1.01157 1.02486 0
M  V30 2201 H 219.758 0.733169 4.14973 0
M  V30 2202 H 218.482 -0.137543 3.2631 0
M  V30 2203 H 217.141 1.98715 3.08071 0
M  V30 2204 H 216.789 0.436426 5.01103 0
M  V30 2205 H 216.489 2.12964 5.4765 0
M  V30 2206 H 218.013 1.33176 5.959 0
M  V30 2207 H 219.427 3.24123 4.72882 0
M  V30 2208 H 217.824 3.99237 4.48029 0
M  V30 2209 H 218.894 3.73692 3.09002 0
M  V30 2210 N 220.237 -1.11381 1.11499 0
M  V30 2211 C 221.514 -1.7955 0.775965 0
M  V30 2212 C 221.894 -1.97859 -0.73588 0
M  V30 2213 O 221.242 -1.56376 -1.66609 0
M  V30 2214 C 221.452 -3.13196 1.53977 0
M  V30 2215 C 222.8 -3.88227 1.71944 0
M  V30 2216 O 223.824 -3.22887 1.50407 0
M  V30 2217 O 222.683 -5.05477 2.07738 0
M  V30 2218 H 219.777 -0.777728 0.28119 0
M  V30 2219 H 222.323 -1.18118 1.21845 0
M  V30 2220 H 221.095 -2.95229 2.56818 0
M  V30 2221 H 220.718 -3.82342 1.09088 0
M  V30 2222 N 221.715 -0.905404 -1.28997 0
M  V30 2223 C 222.678 -0.392253 -2.25819 0
M  V30 2224 C 223.678 0.476753 -1.5357 0
M  V30 2225 O 224.868 0.280994 -1.71919 0
M  V30 2226 C 222 0.438588 -3.38067 0
M  V30 2227 H 223.193 -1.24743 -2.72725 0
M  V30 2228 H 220.746 -0.684051 -1.40536 0
M  V30 2229 H 221.481 1.31352 -2.96508 0
M  V30 2230 H 221.266 -0.184167 -3.91667 0
M  V30 2231 H 222.756 0.78873 -4.10084 0
M  V30 2232 N 223.193 1.4272 -0.668489 0
M  V30 2233 C 224.439 2.01923 -0.188419 0
M  V30 2234 C 224.772 1.52704 1.19979 0
M  V30 2235 O 224.047 0.726566 1.8042 0
M  V30 2236 C 224.33 3.59451 -0.216085 0
M  V30 2237 C 224.183 4.18864 -1.6393 0
M  V30 2238 C 225.502 4.37903 0.439179 0
M  V30 2239 H 222.621 0.733674 -0.0699412 0
M  V30 2240 H 225.263 1.69822 -0.852076 0
M  V30 2241 H 223.413 3.86929 0.349012 0
M  V30 2242 H 225.085 4.02362 -2.25616 0
M  V30 2243 H 223.328 3.74933 -2.18193 0
M  V30 2244 H 223.999 5.27987 -1.61039 0
M  V30 2245 H 226.475 4.16079 -0.0417878 0
M  V30 2246 H 225.351 5.47519 0.389157 0
M  V30 2247 H 225.612 4.15303 1.51577 0
M  V30 2248 N 224.671 0.411399 1.52136 0
M  V30 2249 C 225.92 -0.165009 2.01024 0
M  V30 2250 C 226.233 -1.4603 1.30133 0
M  V30 2251 O 227.439 -2.1181 1.69849 0
M  V30 2252 C 225.895 -0.344618 3.58246 0
M  V30 2253 C 225.503 0.938716 4.38055 0
M  V30 2254 C 227.247 -0.876195 4.15359 0
M  V30 2255 C 225.154 0.726172 5.86925 0
M  V30 2256 H 224.084 -0.0654407 0.751155 0
M  V30 2257 H 226.735 0.537192 1.75461 0
M  V30 2258 H 225.117 -1.10921 3.80148 0
M  V30 2259 H 226.291 1.70963 4.27912 0
M  V30 2260 H 224.606 1.39688 3.92271 0
M  V30 2261 H 227.203 -1.05128 5.24263 0
M  V30 2262 H 227.546 -1.85152 3.7286 0
M  V30 2263 H 228.079 -0.170607 3.97434 0
M  V30 2264 H 224.818 1.67312 6.33788 0
M  V30 2265 H 224.338 -0.00540283 5.998 0
M  V30 2266 H 226.017 0.369231 6.45946 0
M  V30 2267 N 226.149 -1.5696 0.141893 0
M  V30 2268 C 227.097 -2.17784 -0.816874 0
M  V30 2269 C 228.091 -1.1334 -1.25899 0
M  V30 2270 O 229.297 -1.316 -1.22806 0
M  V30 2271 H 225.672 -0.697278 -0.281615 0
M  V30 2272 H 227.643 -2.97087 -0.279621 0
M  V30 2273 C 226.392 -2.80983 -2.04802 0
M  V30 2274 H 225.715 -3.61062 -1.7168 0
M  V30 2275 H 227.155 -3.2705 -2.69841 0
M  V30 2276 C 225.614 -1.79228 -2.8527 0
M  V30 2277 O 226.144 -1.25962 -3.8144 0
M  V30 2278 N 224.35 -1.48647 -2.49704 0
M  V30 2279 H 223.897 -1.92155 -1.71564 0
M  V30 2280 H 223.855 -0.808115 -3.03837 0
M  V30 2281 N 227.627 0.131896 -1.57047 0
M  V30 2282 C 228.855 0.856461 -1.88341 0
M  V30 2283 C 229.27 1.74042 -0.731757 0
M  V30 2284 O 228.627 1.80051 0.297945 0
M  V30 2285 C 228.678 1.70064 -3.18999 0
M  V30 2286 O 228.399 0.852278 -4.2973 0
M  V30 2287 C 229.9 2.53148 -3.63911 0
M  V30 2288 H 227.12 0.246885 -0.62393 0
M  V30 2289 H 229.664 0.120152 -2.04147 0
M  V30 2290 H 227.819 2.38984 -3.04902 0
M  V30 2291 H 228.233 1.43329 -5.04537 0
M  V30 2292 H 229.707 3.07931 -4.58129 0
M  V30 2293 H 230.184 3.29901 -2.89935 0
M  V30 2294 H 230.79 1.89492 -3.80753 0
M  V30 2295 N 229.106 1.52395 0.401703 0
M  V30 2296 C 230.038 1.72505 1.50912 0
M  V30 2297 C 231.051 0.605468 1.51122 0
M  V30 2298 O 232.24 0.880828 1.55254 0
M  V30 2299 C 229.34 1.75711 2.89791 0
M  V30 2300 C 228.513 3.04824 3.1369 0
M  V30 2301 C 227.572 2.99743 4.32482 0
M  V30 2302 O 226.598 3.73635 4.29402 0
M  V30 2303 N 227.8 2.18047 5.37992 0
M  V30 2304 H 230.565 2.68049 1.34052 0
M  V30 2305 H 228.126 1.50724 0.591084 0
M  V30 2306 H 230.118 1.69834 3.6734 0
M  V30 2307 H 228.688 0.876092 3.00072 0
M  V30 2308 H 227.908 3.2429 2.24119 0
M  V30 2309 H 229.196 3.90221 3.26504 0
M  V30 2310 H 228.594 1.57456 5.43345 0
M  V30 2311 H 227.151 2.18021 6.14256 0
M  V30 2312 N 230.584 -0.659388 1.43143 0
M  V30 2313 C 231.832 -1.41654 1.44147 0
M  V30 2314 C 232.153 -1.94893 0.0645739 0
M  V30 2315 O 231.423 -1.74044 -0.899198 0
M  V30 2316 H 230.003 -0.525708 0.530697 0
M  V30 2317 H 232.665 -0.778097 1.78694 0
M  V30 2318 H 231.761 -2.26195 2.1504 0
M  V30 2319 N 232.062 -1.29571 -0.897171 0
M  V30 2320 C 233.308 -1.17863 -1.65034 0
M  V30 2321 C 233.641 0.268729 -1.92332 0
M  V30 2322 O 232.916 1.19378 -1.53555 0
M  V30 2323 C 233.199 -1.995 -2.99786 0
M  V30 2324 C 233.052 -3.5239 -2.79538 0
M  V30 2325 C 234.371 -1.82335 -4.00552 0
M  V30 2326 H 231.49 -0.429528 -0.598895 0
M  V30 2327 H 234.132 -1.59072 -1.03905 0
M  V30 2328 H 232.282 -1.64485 -3.51962 0
M  V30 2329 H 233.954 -3.97401 -2.34244 0
M  V30 2330 H 232.197 -3.77187 -2.14273 0
M  V30 2331 H 232.868 -4.04787 -3.75302 0
M  V30 2332 H 235.344 -2.12924 -3.57495 0
M  V30 2333 H 234.22 -2.41801 -4.92771 0
M  V30 2334 H 234.481 -0.779209 -4.35179 0
M  V30 2335 N 233.54 1.10788 -1.12088 0
M  V30 2336 C 234.45 2.20599 -0.798338 0
M  V30 2337 C 235.466 1.72712 0.21135 0
M  V30 2338 O 236.642 2.01348 0.0458477 0
M  V30 2339 C 233.707 3.45771 -0.253674 0
M  V30 2340 C 232.768 4.08411 -1.32283 0
M  V30 2341 C 232.001 5.27608 -0.80406 0
M  V30 2342 O 232.224 5.69241 0.363478 0
M  V30 2343 O 231.158 5.8101 -1.57198 0
M  V30 2344 H 234.984 2.50614 -1.7154 0
M  V30 2345 H 232.569 1.19454 -0.897275 0
M  V30 2346 H 234.451 4.21376 0.0453691 0
M  V30 2347 H 233.126 3.1739 0.636005 0
M  V30 2348 H 232.033 3.34507 -1.67499 0
M  V30 2349 H 233.366 4.40986 -2.18614 0
M  V30 2350 N 235.018 0.912232 1.28515 0
M  V30 2351 C 235.981 0.404223 2.25607 0
M  V30 2352 C 236.981 -0.468602 1.53821 0
M  V30 2353 O 238.171 -0.271873 1.72065 0
M  V30 2354 C 235.303 -0.420653 3.38295 0
M  V30 2355 H 236.496 1.26188 2.7206 0
M  V30 2356 H 234.049 0.691495 1.40171 0
M  V30 2357 H 234.784 -1.29777 2.97201 0
M  V30 2358 H 234.569 0.204935 3.91564 0
M  V30 2359 H 236.059 -0.766971 4.10496 0
M  V30 2360 N 236.496 -1.42363 0.676048 0
M  V30 2361 C 237.426 -2.33497 0.0124832 0
M  V30 2362 C 238.407 -1.50748 -0.787981 0
M  V30 2363 O 239.592 -1.79346 -0.744884 0
M  V30 2364 C 236.722 -3.34377 -0.938582 0
M  V30 2365 C 235.676 -4.27289 -0.246622 0
M  V30 2366 C 235.002 -5.18386 -1.31071 0
M  V30 2367 C 236.302 -5.14916 0.875125 0
M  V30 2368 H 237.996 -2.89233 0.773593 0
M  V30 2369 H 235.542 -1.39073 0.37346 0
M  V30 2370 H 237.495 -3.97044 -1.41188 0
M  V30 2371 H 236.219 -2.76947 -1.73113 0
M  V30 2372 H 234.878 -3.66018 0.206456 0
M  V30 2373 H 234.526 -4.57282 -2.09528 0
M  V30 2374 H 234.226 -5.81378 -0.852839 0
M  V30 2375 H 235.75 -5.83929 -1.78492 0
M  V30 2376 H 237.164 -5.71262 0.482983 0
M  V30 2377 H 235.561 -5.86747 1.25887 0
M  V30 2378 H 236.631 -4.53242 1.72335 0
M  V30 2379 N 237.974 -0.419461 -1.51915 0
M  V30 2380 C 238.884 0.407528 -2.31033 0
M  V30 2381 C 239.9 1.04413 -1.3919 0
M  V30 2382 O 241.076 1.0434 -1.72265 0
M  V30 2383 C 238.141 1.50365 -3.12396 0
M  V30 2384 C 237.202 0.889029 -4.19994 0
M  V30 2385 C 236.435 1.93291 -4.97468 0
M  V30 2386 O 236.658 3.15259 -4.75361 0
M  V30 2387 O 235.592 1.53339 -5.8204 0
M  V30 2388 H 239.418 -0.237865 -3.02767 0
M  V30 2389 H 237.003 -0.182413 -1.48282 0
M  V30 2390 H 238.885 2.13975 -3.63032 0
M  V30 2391 H 237.56 2.13345 -2.43445 0
M  V30 2392 H 236.467 0.215353 -3.7348 0
M  V30 2393 H 237.8 0.302991 -4.91267 0
M  V30 2394 N 239.452 1.56882 -0.150215 0
M  V30 2395 C 240.7 1.9584 0.499105 0
M  V30 2396 C 241.021 1.03623 1.65188 0
M  V30 2397 O 240.291 0.0984084 1.95653 0
M  V30 2398 H 238.871 0.723119 0.187373 0
M  V30 2399 H 241.533 1.9358 -0.226466 0
M  V30 2400 H 240.629 2.99638 0.873122 0
M  V30 2401 N 240.93 -0.123565 1.57115 0
M  V30 2402 C 241.893 -1.13583 1.99076 0
M  V30 2403 C 242.893 -1.34564 0.880296 0
M  V30 2404 O 244.083 -1.31158 1.14644 0
M  V30 2405 C 241.215 -2.49128 2.32698 0
M  V30 2406 H 242.408 -0.775287 2.89706 0
M  V30 2407 H 239.961 -0.36771 1.51913 0
M  V30 2408 H 240.696 -2.90111 1.44934 0
M  V30 2409 H 240.481 -2.35255 3.13684 0
M  V30 2410 H 241.971 -3.2199 2.65918 0
M  V30 2411 N 242.408 -1.52605 -0.393616 0
M  V30 2412 C 243.657 -1.66649 -1.13627 0
M  V30 2413 C 243.97 -0.410364 -1.91247 0
M  V30 2414 O 245.176 -0.430854 -2.68059 0
M  V30 2415 C 243.632 -2.9449 -2.06891 0
M  V30 2416 C 243.24 -4.27266 -1.34714 0
M  V30 2417 C 244.984 -3.17899 -2.81319 0
M  V30 2418 C 242.891 -5.46217 -2.26717 0
M  V30 2419 H 241.821 -0.62084 -0.427871 0
M  V30 2420 H 244.472 -1.791 -0.399428 0
M  V30 2421 H 242.854 -2.75774 -2.84191 0
M  V30 2422 H 244.028 -4.56518 -0.626714 0
M  V30 2423 H 242.343 -4.10081 -0.722643 0
M  V30 2424 H 244.94 -4.03949 -3.50328 0
M  V30 2425 H 245.283 -2.32777 -3.45139 0
M  V30 2426 H 245.816 -3.37159 -2.11113 0
M  V30 2427 H 242.555 -6.33733 -1.67521 0
M  V30 2428 H 242.075 -5.21283 -2.96689 0
M  V30 2429 H 243.754 -5.7991 -2.86903 0
M  V30 2430 N 243.887 0.651787 -1.4349 0
M  V30 2431 C 245.136 1.40754 -1.44469 0
M  V30 2432 C 245.449 1.95463 -0.0731845 0
M  V30 2433 O 246.655 2.71471 0.0395721 0
M  V30 2434 C 245.111 2.54735 -2.5424 0
M  V30 2435 C 244.719 2.06628 -3.97504 0
M  V30 2436 C 246.463 3.32092 -2.64414 0
M  V30 2437 C 244.37 3.17829 -4.98737 0
M  V30 2438 H 243.3 0.528862 -0.53742 0
M  V30 2439 H 245.951 0.703365 -1.69485 0
M  V30 2440 H 244.333 3.2763 -2.22428 0
M  V30 2441 H 245.507 1.40734 -4.38783 0
M  V30 2442 H 243.822 1.42146 -3.91387 0
M  V30 2443 H 246.419 4.14952 -3.37223 0
M  V30 2444 H 246.762 3.80217 -1.69532 0
M  V30 2445 H 247.295 2.66279 -2.95534 0
M  V30 2446 H 244.034 2.74671 -5.95177 0
M  V30 2447 H 243.554 3.82429 -4.62069 0
M  V30 2448 H 245.233 3.82937 -5.21505 0
M  V30 2449 N 245.365 1.30045 0.890287 0
M  V30 2450 C 246.328 1.15963 1.977 0
M  V30 2451 C 247.328 0.0923777 1.60534 0
M  V30 2452 O 248.518 0.340071 1.70848 0
M  V30 2453 C 245.65 0.775451 3.31963 0
M  V30 2454 H 246.843 2.12502 2.11619 0
M  V30 2455 H 244.396 1.13366 1.07601 0
M  V30 2456 H 245.131 -0.189671 3.23745 0
M  V30 2457 H 244.916 1.54668 3.60306 0
M  V30 2458 H 246.406 0.700251 4.11687 0
M  V30 2459 N 246.843 -1.10192 1.12674 0
M  V30 2460 C 248.073 -1.85713 0.905213 0
M  V30 2461 C 248.481 -1.81056 -0.549108 0
M  V30 2462 O 247.824 -1.19927 -1.39151 0
M  V30 2463 C 247.886 -3.34972 1.30516 0
M  V30 2464 C 247.55 -3.63385 2.77129 0
M  V30 2465 C 248.547 -3.59772 3.75313 0
M  V30 2466 C 246.232 -3.91981 3.14096 0
M  V30 2467 C 248.226 -3.84354 5.08479 0
M  V30 2468 C 245.913 -4.16218 4.47443 0
M  V30 2469 C 246.911 -4.12395 5.44444 0
M  V30 2470 O 246.599 -4.36014 6.75387 0
M  V30 2471 H 246.331 -0.593719 0.323223 0
M  V30 2472 H 248.885 -1.40198 1.50112 0
M  V30 2473 H 247.115 -3.81156 0.652463 0
M  V30 2474 H 248.804 -3.91886 1.05736 0
M  V30 2475 H 249.57 -3.37716 3.48099 0
M  V30 2476 H 245.449 -3.94085 2.39202 0
M  V30 2477 H 248.993 -3.81285 5.84181 0
M  V30 2478 H 244.89 -4.37754 4.74386 0
M  V30 2479 H 245.658 -4.53516 6.8137 0
M  V30 2480 N 248.321 -0.919034 -1.28029 0
M  V30 2481 C 249.231 -0.416756 -2.30869 0
M  V30 2482 C 250.247 0.498235 -1.66714 0
M  V30 2483 O 251.423 0.383144 -1.97722 0
M  V30 2484 C 248.488 0.330274 -3.45123 0
M  V30 2485 C 247.549 -0.618578 -4.2482 0
M  V30 2486 C 246.782 0.0928959 -5.33619 0
M  V30 2487 O 247.005 1.31375 -5.55065 0
M  V30 2488 O 245.939 -0.574499 -5.99152 0
M  V30 2489 H 249.765 -1.27043 -2.75851 0
M  V30 2490 H 247.35 -0.684052 -1.3282 0
M  V30 2491 H 249.232 0.751972 -4.14636 0
M  V30 2492 H 247.907 1.1597 -3.02213 0
M  V30 2493 H 246.814 -1.08978 -3.57875 0
M  V30 2494 H 248.147 -1.41497 -4.71423 0
M  V30 2495 N 249.799 1.42003 -0.683588 0
M  V30 2496 C 251.21 1.84501 -0.285736 0
M  V30 2497 C 251.561 1.57213 1.17382 0
M  V30 2498 O 250.686 1.03642 1.89966 0
M  V30 2499 C 251.281 3.34912 -0.511821 0
M  V30 2500 C 249.84 3.76025 -0.168005 0
M  V30 2501 C 248.987 2.6551 -0.799983 0
M  V30 2502 H 251.938 1.31724 -0.885119 0
M  V30 2503 H 251.959 3.79784 0.233292 0
M  V30 2504 H 251.471 3.54741 -1.57418 0
M  V30 2505 H 249.572 3.61801 0.890567 0
M  V30 2506 H 249.685 4.75141 -0.614661 0
M  V30 2507 H 248.049 2.53654 -0.230568 0
M  V30 2508 H 248.832 2.8816 -1.86597 0
M  V30 2509 N 251.277 0.427512 1.51691 0
M  V30 2510 C 252.526 -0.143679 2.01188 0
M  V30 2511 C 252.839 -1.44642 1.31674 0
M  V30 2512 O 254.045 -2.09997 1.72086 0
M  V30 2513 C 252.501 -0.306602 3.58592 0
M  V30 2514 C 252.109 0.985125 4.37035 0
M  V30 2515 C 253.853 -0.832091 4.16265 0
M  V30 2516 C 251.76 0.788382 5.86122 0
M  V30 2517 H 250.69 -0.0574701 0.751807 0
M  V30 2518 H 253.341 0.555772 1.74881 0
M  V30 2519 H 251.723 -1.06882 3.81303 0
M  V30 2520 H 252.897 1.75492 4.26074 0
M  V30 2521 H 251.212 1.4384 3.90767 0
M  V30 2522 H 253.809 -0.995617 5.25349 0
M  V30 2523 H 254.152 -1.81186 3.74803 0
M  V30 2524 H 254.685 -0.128444 3.97593 0
M  V30 2525 H 251.424 1.74025 6.31978 0
M  V30 2526 H 250.944 0.0582143 5.99772 0
M  V30 2527 H 252.623 0.437722 6.45518 0
M  V30 2528 N 252.755 -1.56801 0.158532 0
M  V30 2529 C 254.001 -1.97559 -0.483957 0
M  V30 2530 C 254.356 -1.04239 -1.61716 0
M  V30 2531 O 253.649 -0.079603 -1.91435 0
M  V30 2532 C 253.843 -3.4235 -1.02623 0
M  V30 2533 C 253.672 -4.49669 0.0528929 0
M  V30 2534 C 252.442 -5.02838 0.498234 0
M  V30 2535 C 254.64 -5.0725 0.848616 0
M  V30 2536 N 252.622 -5.93775 1.559 0
M  V30 2537 C 253.993 -5.94506 1.7596 0
M  V30 2538 C 256.048 -4.89788 0.895121 0
M  V30 2539 C 254.751 -6.66169 2.71314 0
M  V30 2540 C 256.777 -5.62161 1.83654 0
M  V30 2541 C 256.139 -6.49134 2.73503 0
M  V30 2542 H 252.238 -0.768332 -0.145566 0
M  V30 2543 H 254.822 -1.93012 0.255799 0
M  V30 2544 H 252.993 -3.47467 -1.73555 0
M  V30 2545 H 254.725 -3.70145 -1.63629 0
M  V30 2546 H 251.48 -4.73498 0.0983222 0
M  V30 2547 H 251.904 -6.43948 2.08949 0
M  V30 2548 H 256.546 -4.22255 0.21453 0
M  V30 2549 H 254.264 -7.32923 3.40367 0
M  V30 2550 H 257.85 -5.5064 1.87847 0
M  V30 2551 H 256.73 -7.04153 3.45163 0
M  V30 2552 N 254.233 0.115231 -1.57178 0
M  V30 2553 C 255.196 1.12526 -1.99676 0
M  V30 2554 C 256.196 1.34095 -0.88742 0
M  V30 2555 O 257.386 1.30548 -1.15337 0
M  V30 2556 C 254.518 2.4789 -2.34015 0
M  V30 2557 H 255.711 0.759912 -2.90113 0
M  V30 2558 H 253.264 0.359648 -1.52106 0
M  V30 2559 H 253.999 2.89339 -1.4647 0
M  V30 2560 H 253.784 2.33588 -3.14927 0
M  V30 2561 H 255.274 3.20575 -2.67622 0
M  V30 2562 N 255.711 1.52812 0.385517 0
M  V30 2563 C 256.96 1.67249 1.12741 0
M  V30 2564 C 257.273 0.4205 1.91027 0
M  V30 2565 O 258.479 0.445064 2.67827 0
M  V30 2566 C 256.935 2.95583 2.05326 0
M  V30 2567 C 256.543 4.27974 1.32447 0
M  V30 2568 C 258.287 3.19386 2.7963 0
M  V30 2569 C 256.194 5.47412 2.23818 0
M  V30 2570 H 255.124 0.6231 0.424573 0
M  V30 2571 H 257.775 1.79309 0.389924 0
M  V30 2572 H 256.157 2.77277 2.82725 0
M  V30 2573 H 257.331 4.56844 0.602495 0
M  V30 2574 H 255.646 4.10459 0.700885 0
M  V30 2575 H 258.243 4.05801 3.48181 0
M  V30 2576 H 258.586 2.34604 3.43899 0
M  V30 2577 H 259.119 3.38274 2.09322 0
M  V30 2578 H 255.858 6.34612 1.64157 0
M  V30 2579 H 255.378 5.22849 2.93921 0
M  V30 2580 H 257.057 5.81423 2.83824 0
M  V30 2581 N 257.189 -0.644168 1.43834 0
M  V30 2582 C 258.437 -1.40117 1.45642 0
M  V30 2583 C 258.758 -1.94814 0.0852413 0
M  V30 2584 O 258.028 -1.74988 -0.880688 0
M  V30 2585 H 256.608 -0.52005 0.536243 0
M  V30 2586 H 259.27 -0.7591 1.7951 0
M  V30 2587 H 258.366 -2.23902 2.17427 0
M  V30 2588 N 258.668 -1.30515 -0.883378 0
M  V30 2589 C 259.896 -1.22359 -1.66841 0
M  V30 2590 C 260.311 0.213296 -1.87591 0
M  V30 2591 O 259.668 1.14075 -1.42454 0
M  V30 2592 C 259.719 -1.95011 -3.04389 0
M  V30 2593 O 259.44 -3.3309 -2.84575 0
M  V30 2594 C 260.941 -1.93532 -3.98824 0
M  V30 2595 H 258.161 -0.423371 -0.520575 0
M  V30 2596 H 260.705 -1.72167 -1.10357 0
M  V30 2597 H 258.86 -1.48997 -3.57601 0
M  V30 2598 H 259.274 -3.69907 -3.71846 0
M  V30 2599 H 260.748 -2.48902 -4.92699 0
M  V30 2600 H 261.225 -0.914627 -4.29571 0
M  V30 2601 H 261.831 -2.39364 -3.51547 0
M  V30 2602 N 260.146 1.09593 -1.13257 0
M  V30 2603 C 261.394 1.81375 -0.891492 0
M  V30 2604 C 261.715 1.86049 0.584009 0
M  V30 2605 O 260.985 1.34481 1.42449 0
M  V30 2606 H 259.565 0.671708 -0.326828 0
M  V30 2607 H 262.227 1.3256 -1.42877 0
M  V30 2608 H 261.323 2.84612 -1.28071 0
M  V30 2609 N 261.624 0.925811 1.2754 0
M  V30 2610 C 262.571 0.422045 2.26908 0
M  V30 2611 C 263.541 -0.510029 1.58076 0
M  V30 2612 O 264.726 -0.429599 1.85901 0
M  V30 2613 C 261.866 -0.320837 3.43605 0
M  V30 2614 C 260.979 0.64513 4.27156 0
M  V30 2615 C 260.114 -0.117405 5.3107 0
M  V30 2616 C 259.153 0.841391 6.0629 0
M  V30 2617 N 258.29 0.111604 7.02011 0
M  V30 2618 H 263.13 1.27441 2.69375 0
M  V30 2619 H 260.667 0.639697 1.32462 0
M  V30 2620 H 262.625 -0.76785 4.10073 0
M  V30 2621 H 261.255 -1.13745 3.02096 0
M  V30 2622 H 260.307 1.21067 3.6062 0
M  V30 2623 H 261.619 1.37797 4.79389 0
M  V30 2624 H 260.773 -0.624422 6.03478 0
M  V30 2625 H 259.512 -0.883219 4.79636 0
M  V30 2626 H 258.517 1.35967 5.32722 0
M  V30 2627 H 259.742 1.60696 6.59813 0
M  V30 2628 H 257.688 -0.635999 6.5291 0
M  V30 2629 H 257.605 0.784044 7.51923 0
M  V30 2630 H 258.873 -0.374823 7.78598 0
M  V30 2631 N 263.102 -1.41638 0.69111 0
M  V30 2632 C 264.065 -2.29178 0.0319786 0
M  V30 2633 C 265.065 -1.44153 -0.712496 0
M  V30 2634 O 266.255 -1.65354 -0.548053 0
M  V30 2635 C 263.387 -3.26952 -0.965161 0
M  V30 2636 H 264.58 -2.88959 0.802681 0
M  V30 2637 H 262.133 -1.4955 0.454356 0
M  V30 2638 H 262.868 -2.72142 -1.76378 0
M  V30 2639 H 262.653 -3.89685 -0.434522 0
M  V30 2640 H 264.143 -3.92561 -1.42428 0
M  V30 2641 N 264.58 -0.43555 -1.51462 0
M  V30 2642 C 265.543 0.365137 -2.26273 0
M  V30 2643 C 266.543 0.951227 -1.29647 0
M  V30 2644 O 267.733 0.825958 -1.53374 0
M  V30 2645 C 264.865 1.51645 -3.05314 0
M  V30 2646 H 266.058 -0.290474 -2.9849 0
M  V30 2647 H 263.611 -0.188676 -1.55157 0
M  V30 2648 H 264.346 2.20816 -2.3751 0
M  V30 2649 H 264.131 1.10238 -3.76284 0
M  V30 2650 H 265.621 2.08218 -3.61987 0
M  V30 2651 N 266.058 1.56714 -0.166846 0
M  V30 2652 C 267.286 2.0112 0.485644 0
M  V30 2653 C 267.701 1.04705 1.57106 0
M  V30 2654 O 267.058 0.0471923 1.82439 0
M  V30 2655 C 267.109 3.45361 1.06808 0
M  V30 2656 O 266.83 4.38092 0.0259995 0
M  V30 2657 C 268.331 4.05145 1.79924 0
M  V30 2658 H 265.551 0.65931 0.124704 0
M  V30 2659 H 268.095 2.02746 -0.267262 0
M  V30 2660 H 266.25 3.44524 1.7715 0
M  V30 2661 H 266.664 5.22519 0.455398 0
M  V30 2662 H 268.138 5.08009 2.15942 0
M  V30 2663 H 268.615 3.46982 2.69258 0
M  V30 2664 H 269.221 4.09672 1.14234 0
M  V30 2665 N 267.536 -0.106894 1.57237 0
M  V30 2666 C 268.499 -1.11466 2.0027 0
M  V30 2667 C 269.499 -1.33623 0.894519 0
M  V30 2668 O 270.689 -1.29935 1.16028 0
M  V30 2669 C 267.821 -2.46646 2.35327 0
M  V30 2670 H 269.014 -0.744516 2.90512 0
M  V30 2671 H 266.567 -0.351576 1.52295 0
M  V30 2672 H 267.302 -2.88558 1.48003 0
M  V30 2673 H 267.087 -2.31915 3.16161 0
M  V30 2674 H 268.577 -3.19151 2.69318 0
M  V30 2675 N 269.014 -1.53014 -0.377408 0
M  V30 2676 C 269.924 -1.81557 -1.48574 0
M  V30 2677 C 270.94 -0.703102 -1.59162 0
M  V30 2678 O 272.116 -0.99192 -1.75279 0
M  V30 2679 C 269.181 -1.9889 -2.83978 0
M  V30 2680 C 268.242 -3.22801 -2.83016 0
M  V30 2681 C 267.475 -3.39298 -4.11962 0
M  V30 2682 O 267.698 -2.60345 -5.0752 0
M  V30 2683 O 266.632 -4.32604 -4.18494 0
M  V30 2684 H 270.458 -2.75695 -1.27382 0
M  V30 2685 H 268.043 -1.38248 -0.566373 0
M  V30 2686 H 269.925 -2.11931 -3.6423 0
M  V30 2687 H 268.6 -1.07942 -3.05172 0
M  V30 2688 H 267.507 -3.15193 -2.01505 0
M  V30 2689 H 268.84 -4.13632 -2.66775 0
M  V30 2690 N 270.492 0.636531 -1.44174 0
M  V30 2691 C 271.769 1.39463 -1.37148 0
M  V30 2692 C 272.149 2.11082 -0.027507 0
M  V30 2693 O 271.497 2.05954 0.989716 0
M  V30 2694 C 271.707 2.36552 -2.56601 0
M  V30 2695 C 273.055 3.00048 -3.00427 0
M  V30 2696 O 274.079 2.46878 -2.56767 0
M  V30 2697 O 272.938 3.96488 -3.76111 0
M  V30 2698 H 270.032 0.623903 -0.542839 0
M  V30 2699 H 272.578 0.662039 -1.56253 0
M  V30 2700 H 271.35 1.82692 -3.46034 0
M  V30 2701 H 270.973 3.17236 -2.39681 0
M  V30 2702 N 271.97 1.30982 0.876444 0
M  V30 2703 C 272.933 1.18054 1.96459 0
M  V30 2704 C 273.933 0.109399 1.60427 0
M  V30 2705 O 275.123 0.358173 1.70478 0
M  V30 2706 C 272.255 0.810616 3.31122 0
M  V30 2707 H 273.448 2.14735 2.09354 0
M  V30 2708 H 271.001 1.145 1.06392 0
M  V30 2709 H 271.736 -0.155322 3.23928 0
M  V30 2710 H 271.521 1.58481 3.58645 0
M  V30 2711 H 273.011 0.743876 4.10921 0
M  V30 2712 N 273.449 -1.08991 1.13837 0
M  V30 2713 C 274.381 -2.15606 0.777612 0
M  V30 2714 C 275.394 -1.61533 -0.202739 0
M  V30 2715 O 276.583 -1.78491 0.0181055 0
M  V30 2716 C 273.683 -3.3864 0.132623 0
M  V30 2717 C 272.856 -4.22115 1.1462 0
M  V30 2718 C 271.915 -5.23564 0.526074 0
M  V30 2719 O 270.941 -5.56678 1.18735 0
M  V30 2720 N 272.143 -5.76266 -0.699866 0
M  V30 2721 H 274.908 -2.47159 1.69506 0
M  V30 2722 H 272.469 -1.24747 1.03198 0
M  V30 2723 H 274.461 -4.03626 -0.29459 0
M  V30 2724 H 273.031 -3.04938 -0.687849 0
M  V30 2725 H 272.251 -3.53199 1.75055 0
M  V30 2726 H 273.539 -4.74709 1.83109 0
M  V30 2727 H 272.937 -5.51585 -1.25581 0
M  V30 2728 H 271.494 -6.42963 -1.06968 0
M  V30 2729 N 274.927 -0.932562 -1.27047 0
M  V30 2730 C 276.343 -0.633544 -1.46487 0
M  V30 2731 C 276.543 0.815746 -1.84249 0
M  V30 2732 O 275.599 1.59319 -1.95892 0
M  V30 2733 C 276.912 -1.58758 -2.55375 0
M  V30 2734 C 278.46 -1.59634 -2.69232 0
M  V30 2735 C 278.935 -2.53747 -3.81283 0
M  V30 2736 N 280.426 -2.51982 -3.88664 0
M  V30 2737 C 281.161 -3.21491 -4.74796 0
M  V30 2738 N 280.657 -4.00395 -5.65381 0
M  V30 2739 N 282.45 -3.10485 -4.68568 0
M  V30 2740 H 274.601 -1.86946 -1.00821 0
M  V30 2741 H 276.864 -0.802897 -0.504044 0
M  V30 2742 H 276.57 -2.62172 -2.34432 0
M  V30 2743 H 276.444 -1.33301 -3.52861 0
M  V30 2744 H 278.831 -0.569488 -2.89553 0
M  V30 2745 H 278.912 -1.89142 -1.72218 0
M  V30 2746 H 278.556 -3.56545 -3.61715 0
M  V30 2747 H 278.486 -2.21532 -4.77735 0
M  V30 2748 H 280.977 -1.94681 -3.23895 0
M  V30 2749 H 281.29 -4.50406 -6.27976 0
M  V30 2750 H 279.635 -4.04498 -5.65161 0
M  V30 2751 H 282.826 -2.48331 -3.96799 0
M  V30 2752 H 282.999 -3.64925 -5.35475 0
M  V30 2753 N 276.405 1.4127 -0.698611 0
M  V30 2754 C 277.654 2.00408 -0.227949 0
M  V30 2755 C 277.967 1.55981 1.18023 0
M  V30 2756 O 279.173 2.07699 1.74852 0
M  V30 2757 C 277.629 3.58129 -0.356636 0
M  V30 2758 C 277.237 4.11536 -1.77037 0
M  V30 2759 C 278.981 4.24466 0.0540969 0
M  V30 2760 C 276.888 5.61701 -1.85055 0
M  V30 2761 H 275.818 0.749586 -0.0814657 0
M  V30 2762 H 278.469 1.61713 -0.867249 0
M  V30 2763 H 276.851 3.94442 0.350965 0
M  V30 2764 H 278.025 3.86636 -2.50698 0
M  V30 2765 H 276.34 3.57736 -2.13105 0
M  V30 2766 H 278.937 5.34698 0.0146723 0
M  V30 2767 H 279.28 4.01687 1.09332 0
M  V30 2768 H 279.813 3.93198 -0.603337 0
M  V30 2769 H 276.552 5.89312 -2.8704 0
M  V30 2770 H 276.072 5.88519 -1.15783 0
M  V30 2771 H 277.751 6.26524 -1.61484 0
M  V30 2772 N 277.883 0.443576 1.51229 0
M  V30 2773 C 278.833 -0.382787 2.24764 0
M  V30 2774 C 279.817 -0.984836 1.27239 0
M  V30 2775 O 281.009 -0.901943 1.52296 0
M  V30 2776 C 278.138 -1.47989 3.09765 0
M  V30 2777 C 277.224 -0.886931 4.14722 0
M  V30 2778 N 277.615 -0.0237103 5.05794 0
M  V30 2779 C 275.913 -1.15385 4.30816 0
M  V30 2780 C 276.614 0.309971 5.80874 0
M  V30 2781 N 275.59 -0.307989 5.42727 0
M  V30 2782 H 279.392 0.282624 2.92538 0
M  V30 2783 H 276.906 0.256027 1.60369 0
M  V30 2784 H 278.903 -2.08482 3.61027 0
M  V30 2785 H 277.563 -2.14758 2.43535 0
M  V30 2786 H 278.574 0.34318 5.16762 0
M  V30 2787 H 275.251 -1.81857 3.75812 0
M  V30 2788 H 276.641 1.01279 6.64223 0
M  V30 2789 N 279.361 -1.56624 0.175154 0
M  V30 2790 C 280.324 -2.16934 -0.739738 0
M  V30 2791 C 281.324 -1.11842 -1.15533 0
M  V30 2792 O 282.514 -1.37335 -1.07167 0
M  V30 2793 C 279.646 -2.75531 -2.00738 0
M  V30 2794 H 280.839 -2.99131 -0.214639 0
M  V30 2795 H 278.392 -1.56123 -0.0744197 0
M  V30 2796 H 279.127 -1.97078 -2.57548 0
M  V30 2797 H 278.912 -3.52444 -1.71831 0
M  V30 2798 H 280.402 -3.21904 -2.66021 0
M  V30 2799 N 280.839 0.0985539 -1.57292 0
M  V30 2800 C 281.771 1.14595 -1.98496 0
M  V30 2801 C 282.784 1.36512 -0.887031 0
M  V30 2802 O 283.973 1.35225 -1.16518 0
M  V30 2803 C 281.073 2.50216 -2.28572 0
M  V30 2804 C 280.246 2.48624 -3.59868 0
M  V30 2805 C 279.305 3.66146 -3.7792 0
M  V30 2806 O 278.331 3.48795 -4.49812 0
M  V30 2807 N 279.533 4.85496 -3.18235 0
M  V30 2808 H 282.298 0.795277 -2.88956 0
M  V30 2809 H 279.859 0.287579 -1.59325 0
M  V30 2810 H 281.851 3.27432 -2.37845 0
M  V30 2811 H 280.421 2.77387 -1.44136 0
M  V30 2812 H 279.641 1.56978 -3.61596 0
M  V30 2813 H 280.929 2.44635 -4.46129 0
M  V30 2814 H 280.327 5.02497 -2.59833 0
M  V30 2815 H 278.884 5.60317 -3.32999 0
M  V30 2816 N 282.317 1.53212 0.369288 0
M  V30 2817 C 283.566 1.68436 1.10961 0
M  V30 2818 C 283.879 0.440738 1.9057 0
M  V30 2819 O 285.085 0.473446 2.6734 0
M  V30 2820 C 283.541 2.97744 2.0218 0
M  V30 2821 C 283.149 4.29355 1.279 0
M  V30 2822 C 284.893 3.22334 2.76226 0
M  V30 2823 C 282.8 5.49755 2.17999 0
M  V30 2824 H 281.73 0.627568 0.41794 0
M  V30 2825 H 284.381 1.79713 0.370884 0
M  V30 2826 H 282.763 2.8026 2.79768 0
M  V30 2827 H 283.937 4.57458 0.554007 0
M  V30 2828 H 282.252 4.11179 0.657311 0
M  V30 2829 H 284.849 4.09471 3.43857 0
M  V30 2830 H 285.192 2.38238 3.41392 0
M  V30 2831 H 285.725 3.40475 2.05723 0
M  V30 2832 H 282.464 6.36318 1.57417 0
M  V30 2833 H 281.984 5.25937 2.88359 0
M  V30 2834 H 283.663 5.84401 2.77641 0
M  V30 2835 N 283.795 -0.628877 1.44509 0
M  V30 2836 C 285.211 -0.947305 1.28446 0
M  V30 2837 C 285.411 -2.00275 0.221872 0
M  V30 2838 O 284.467 -2.49447 -0.391471 0
M  V30 2839 C 285.78 -1.40843 2.65676 0
M  V30 2840 C 287.328 -1.52379 2.73404 0
M  V30 2841 C 287.803 -2.01875 4.11109 0
M  V30 2842 N 289.294 -2.09142 4.13296 0
M  V30 2843 C 290.029 -2.48615 5.16699 0
M  V30 2844 N 289.525 -2.87209 6.30462 0
M  V30 2845 N 291.318 -2.48768 5.04054 0
M  V30 2846 H 283.469 0.0690977 2.12288 0
M  V30 2847 H 285.732 -0.0317164 0.947469 0
M  V30 2848 H 285.438 -0.707206 3.44516 0
M  V30 2849 H 285.312 -2.37902 2.92716 0
M  V30 2850 H 287.699 -2.21598 1.9488 0
M  V30 2851 H 287.78 -0.536898 2.50102 0
M  V30 2852 H 287.424 -1.3325 4.90109 0
M  V30 2853 H 287.354 -3.0144 4.31789 0
M  V30 2854 H 289.845 -1.81991 3.31191 0
M  V30 2855 H 290.158 -3.16149 7.05174 0
M  V30 2856 H 288.503 -2.84955 6.33897 0
M  V30 2857 H 291.694 -2.18009 4.14234 0
M  V30 2858 H 291.867 -2.79207 5.84763 0
M  V30 2859 N 285.273 -1.31445 -0.869486 0
M  V30 2860 C 286.236 -1.19094 -1.9583 0
M  V30 2861 C 287.236 -0.117906 -1.60367 0
M  V30 2862 O 288.426 -0.367208 -1.70286 0
M  V30 2863 C 285.558 -0.828165 -3.30688 0
M  V30 2864 H 286.751 -2.15842 -2.08212 0
M  V30 2865 H 284.304 -1.15063 -1.05784 0
M  V30 2866 H 285.039 0.138142 -3.24006 0
M  V30 2867 H 284.824 -1.6038 -3.578 0
M  V30 2868 H 286.314 -0.765658 -4.10521 0
M  V30 2869 N 286.751 1.08385 -1.14413 0
M  V30 2870 C 287.701 2.13509 -0.79987 0
M  V30 2871 C 288.685 1.5951 0.211059 0
M  V30 2872 O 289.877 1.76995 0.0133694 0
M  V30 2873 C 287.006 3.42162 -0.279297 0
M  V30 2874 C 286.092 4.03042 -1.31976 0
M  V30 2875 N 286.483 4.38327 -2.52395 0
M  V30 2876 C 284.781 4.30379 -1.17004 0
M  V30 2877 C 285.482 4.86428 -3.19003 0
M  V30 2878 N 284.458 4.84547 -2.46405 0
M  V30 2879 H 288.26 2.38609 -1.7159 0
M  V30 2880 H 285.774 1.2572 -1.02802 0
M  V30 2881 H 287.771 4.16898 -0.0143688 0
M  V30 2882 H 286.431 3.18511 0.630923 0
M  V30 2883 H 287.442 4.29349 -2.89621 0
M  V30 2884 H 284.119 4.16281 -0.318854 0
M  V30 2885 H 285.509 5.23107 -4.21674 0
M  V30 2886 N 288.23 0.939286 1.26551 0
M  V30 2887 C 289.479 0.581601 1.93133 0
M  V30 2888 C 289.792 -0.883224 1.74524 0
M  V30 2889 O 290.998 -1.3502 2.35546 0
M  V30 2890 C 289.454 0.989425 3.46032 0
M  V30 2891 C 289.062 2.47573 3.73379 0
M  V30 2892 C 290.806 0.703544 4.18629 0
M  V30 2893 C 288.713 2.82235 5.19709 0
M  V30 2894 H 287.643 0.213803 0.723052 0
M  V30 2895 H 290.294 1.14167 1.4366 0
M  V30 2896 H 288.676 0.357902 3.94379 0
M  V30 2897 H 289.85 3.15614 3.35744 0
M  V30 2898 H 288.165 2.73471 3.1401 0
M  V30 2899 H 290.762 0.938869 5.26393 0
M  V30 2900 H 291.105 -0.359639 4.14744 0
M  V30 2901 H 291.638 1.2947 3.76141 0
M  V30 2902 H 288.377 3.87509 5.28694 0
M  V30 2903 H 287.897 2.18854 5.58447 0
M  V30 2904 H 289.576 2.70599 5.87695 0
M  V30 2905 N 289.708 -1.40897 0.706093 0
M  V30 2906 C 290.671 -2.29131 0.0562841 0
M  V30 2907 C 291.671 -1.44901 -0.697166 0
M  V30 2908 O 292.861 -1.65926 -0.530484 0
M  V30 2909 C 289.993 -3.27957 -0.93043 0
M  V30 2910 H 291.186 -2.88091 0.833284 0
M  V30 2911 H 288.739 -1.4906 0.470192 0
M  V30 2912 H 289.474 -2.73997 -1.73482 0
M  V30 2913 H 289.259 -3.90124 -0.393166 0
M  V30 2914 H 290.749 -3.94049 -1.38256 0
M  V30 2915 N 291.186 -0.45159 -1.50991 0
M  V30 2916 C 292.096 0.358431 -2.31846 0
M  V30 2917 C 293.112 1.01438 -1.41373 0
M  V30 2918 O 294.288 1.00663 -1.74439 0
M  V30 2919 C 291.353 1.43704 -3.15515 0
M  V30 2920 C 290.414 0.799742 -4.21785 0
M  V30 2921 C 289.647 1.82696 -5.01456 0
M  V30 2922 O 289.87 3.05105 -4.81941 0
M  V30 2923 O 288.804 1.40958 -5.85162 0
M  V30 2924 H 292.63 -0.302032 -3.02194 0
M  V30 2925 H 290.215 -0.213825 -1.47862 0
M  V30 2926 H 292.097 2.06227 -3.67489 0
M  V30 2927 H 290.772 2.08133 -2.47916 0
M  V30 2928 H 289.679 0.136084 -3.73852 0
M  V30 2929 H 291.012 0.198718 -4.91799 0
M  V30 2930 N 292.664 1.56529 -0.183458 0
M  V30 2931 C 293.611 2.18546 0.742055 0
M  V30 2932 C 294.581 1.12912 1.2182 0
M  V30 2933 O 295.766 1.41115 1.28418 0
M  V30 2934 C 292.906 2.83977 1.96089 0
M  V30 2935 C 292.019 4.04105 1.52719 0
M  V30 2936 C 291.154 4.57427 2.70063 0
M  V30 2937 C 290.193 5.69938 2.23243 0
M  V30 2938 N 289.33 6.17717 3.33722 0
M  V30 2939 H 294.17 2.97284 0.206432 0
M  V30 2940 H 291.707 1.46823 0.0901571 0
M  V30 2941 H 293.665 3.20077 2.67594 0
M  V30 2942 H 292.295 2.07822 2.47002 0
M  V30 2943 H 291.347 3.73745 0.708436 0
M  V30 2944 H 292.659 4.85513 1.1436 0
M  V30 2945 H 291.813 4.95772 3.49708 0
M  V30 2946 H 290.552 3.75101 3.11689 0
M  V30 2947 H 289.557 5.31133 1.42048 0
M  V30 2948 H 290.782 6.54073 1.82661 0
M  V30 2949 H 288.728 5.38317 3.74902 0
M  V30 2950 H 288.645 6.94146 2.99495 0
M  V30 2951 H 289.913 6.60713 4.13616 0
M  V30 2952 N 294.142 -0.090211 1.57342 0
M  V30 2953 C 295.367 -0.810082 1.90925 0
M  V30 2954 C 295.792 -1.71248 0.778187 0
M  V30 2955 O 295.15 -1.79278 -0.269991 0
M  V30 2956 C 295.198 -1.59529 3.23393 0
M  V30 2957 O 294.302 -2.70461 3.11327 0
M  V30 2958 H 293.643 -0.222231 0.625707 0
M  V30 2959 H 296.173 -0.0639716 2.045 0
M  V30 2960 H 296.183 -1.97847 3.5682 0
M  V30 2961 H 294.858 -0.933055 4.05299 0
M  V30 2962 H 293.435 -2.35135 2.89423 0
M  V30 2963 N 295.62 -1.53406 -0.361157 0
M  V30 2964 C 296.53 -1.83122 -1.4664 0
M  V30 2965 C 297.546 -0.719943 -1.58407 0
M  V30 2966 O 298.722 -1.01046 -1.74218 0
M  V30 2967 C 295.787 -2.01891 -2.81853 0
M  V30 2968 C 294.848 -3.25784 -2.79577 0
M  V30 2969 C 294.081 -3.43648 -4.0834 0
M  V30 2970 O 294.304 -2.65714 -5.0473 0
M  V30 2971 O 293.238 -4.37018 -4.13883 0
M  V30 2972 H 297.064 -2.7703 -1.24451 0
M  V30 2973 H 294.649 -1.38841 -0.551678 0
M  V30 2974 H 296.531 -2.15782 -3.61962 0
M  V30 2975 H 295.206 -1.11173 -3.0401 0
M  V30 2976 H 294.113 -3.17312 -1.98151 0
M  V30 2977 H 295.446 -4.16439 -2.62373 0
M  V30 2978 N 297.098 0.621204 -1.44841 0
M  V30 2979 C 298.061 1.71459 -1.521 0
M  V30 2980 C 299.061 1.55696 -0.401933 0
M  V30 2981 O 300.251 1.61011 -0.664925 0
M  V30 2982 C 297.383 3.10624 -1.40447 0
M  V30 2983 H 298.576 1.66394 -2.49506 0
M  V30 2984 H 296.129 0.835745 -1.3208 0
M  V30 2985 H 296.864 3.21277 -0.441737 0
M  V30 2986 H 296.649 3.23473 -2.21602 0
M  V30 2987 H 298.139 3.90293 -1.4853 0
M  V30 2988 N 298.576 1.31904 0.862503 0
M  V30 2989 C 299.822 1.22197 1.61851 0
M  V30 2990 C 300.155 -0.217641 1.92977 0
M  V30 2991 O 299.43 -1.15264 1.56666 0
M  V30 2992 C 299.713 2.07378 2.94391 0
M  V30 2993 C 299.566 3.59678 2.70096 0
M  V30 2994 C 300.885 1.92891 3.95577 0
M  V30 2995 H 298.004 0.445255 0.587296 0
M  V30 2996 H 300.646 1.6177 0.99651 0
M  V30 2997 H 298.796 1.73758 3.47477 0
M  V30 2998 H 300.468 4.03472 2.23625 0
M  V30 2999 H 298.711 3.82735 2.04197 0
M  V30 3000 H 299.382 4.14595 3.64438 0
M  V30 3001 H 301.858 2.22327 3.51724 0
M  V30 3002 H 300.734 2.54781 4.86187 0
M  V30 3003 H 300.995 0.894315 4.3296 0
M  V30 3004 N 300.054 -1.07777 1.14986 0
M  V30 3005 C 301.017 -2.13041 0.845358 0
M  V30 3006 C 302.017 -1.60071 -0.152931 0
M  V30 3007 O 303.207 -1.74033 0.0761879 0
M  V30 3008 C 300.339 -3.39896 0.261383 0
M  V30 3009 H 301.532 -2.41485 1.77834 0
M  V30 3010 H 299.085 -1.23595 0.956757 0
M  V30 3011 H 299.82 -3.17091 -0.68 0
M  V30 3012 H 299.605 -3.79642 0.980514 0
M  V30 3013 H 301.095 -4.17548 0.0657687 0
M  V30 3014 N 301.532 -0.945985 -1.26051 0
M  V30 3015 C 302.479 -0.45809 -2.26208 0
M  V30 3016 C 303.449 0.484816 -1.58867 0
M  V30 3017 O 304.634 0.399969 -1.86561 0
M  V30 3018 C 301.774 0.266131 -3.44072 0
M  V30 3019 C 300.887 -0.713005 -4.26075 0
M  V30 3020 C 300.022 0.0329013 -5.3119 0
M  V30 3021 C 299.061 -0.93774 -6.04874 0
M  V30 3022 N 298.198 -0.223274 -7.01745 0
M  V30 3023 H 303.038 -1.3171 -2.67313 0
M  V30 3024 H 300.575 -0.66069 -1.31428 0
M  V30 3025 H 302.533 0.702514 -4.11243 0
M  V30 3026 H 301.163 1.08925 -3.03867 0
M  V30 3027 H 300.215 -1.26789 -3.58648 0
M  V30 3028 H 301.527 -1.45406 -4.77136 0
M  V30 3029 H 300.681 0.528335 -6.04395 0
M  V30 3030 H 299.42 0.806801 -4.8098 0
M  V30 3031 H 298.425 -1.44425 -5.30492 0
M  V30 3032 H 299.65 -1.71172 -6.57173 0
M  V30 3033 H 297.596 0.532046 -6.53839 0
M  V30 3034 H 297.513 -0.90357 -7.50581 0
M  V30 3035 H 298.781 0.250907 -7.79096 0
M  V30 3036 N 303.011 1.40521 -0.713556 0
M  V30 3037 C 303.959 2.32549 -0.0485227 0
M  V30 3038 C 304.953 1.51931 0.74922 0
M  V30 3039 O 306.159 1.67745 0.652816 0
M  V30 3040 H 302.534 0.751994 0.00311138 0
M  V30 3041 H 304.505 2.86291 -0.841443 0
M  V30 3042 C 303.254 3.36879 0.860687 0
M  V30 3043 H 302.577 3.98978 0.256246 0
M  V30 3044 H 304.017 4.03772 1.294 0
M  V30 3045 C 302.476 2.72197 1.9852 0
M  V30 3046 O 303.006 2.5837 3.07584 0
M  V30 3047 N 301.212 2.30612 1.76823 0
M  V30 3048 H 300.759 2.42059 0.881217 0
M  V30 3049 H 300.717 1.87672 2.52243 0
M  V30 3050 N 304.489 0.459591 1.5075 0
M  V30 3051 C 305.735 -0.0994966 2.02556 0
M  V30 3052 C 306.068 -1.40399 1.3417 0
M  V30 3053 O 305.343 -1.88892 0.463683 0
M  V30 3054 C 305.626 -0.295242 3.58888 0
M  V30 3055 C 305.479 1.02947 4.37861 0
M  V30 3056 C 306.798 -1.05502 4.27267 0
M  V30 3057 H 303.917 -0.034686 0.736183 0
M  V30 3058 H 306.559 0.602938 1.8018 0
M  V30 3059 H 304.709 -0.893563 3.78084 0
M  V30 3060 H 306.381 1.66348 4.30263 0
M  V30 3061 H 304.624 1.62885 4.02058 0
M  V30 3062 H 305.295 0.846281 5.45474 0
M  V30 3063 H 307.771 -0.547993 4.12476 0
M  V30 3064 H 306.647 -1.16077 5.36486 0
M  V30 3065 H 306.908 -2.08875 3.89645 0
M  V30 3066 N 305.967 -1.56429 0.191757 0
M  V30 3067 C 307.213 -1.97777 -0.448554 0
M  V30 3068 C 307.546 -1.07847 -1.61501 0
M  V30 3069 O 306.821 -0.129774 -1.94067 0
M  V30 3070 C 307.104 -3.48362 -0.911906 0
M  V30 3071 C 306.957 -4.4907 0.256136 0
M  V30 3072 C 308.276 -4.02561 -1.77857 0
M  V30 3073 H 305.395 -0.719071 -0.161572 0
M  V30 3074 H 308.037 -1.87896 0.282007 0
M  V30 3075 H 306.187 -3.56914 -1.53442 0
M  V30 3076 H 307.859 -4.5256 0.893733 0
M  V30 3077 H 306.102 -4.24181 0.908436 0
M  V30 3078 H 306.773 -5.51889 -0.11053 0
M  V30 3079 H 309.249 -3.96767 -1.25359 0
M  V30 3080 H 308.125 -5.08301 -2.07174 0
M  V30 3081 H 308.386 -3.47616 -2.73158 0
M  V30 3082 N 307.445 0.0818655 -1.57387 0
M  V30 3083 C 308.694 0.781681 -1.85937 0
M  V30 3084 C 309.007 1.79246 -0.782957 0
M  V30 3085 O 310.213 2.54112 -0.955987 0
M  V30 3086 C 308.669 1.44109 -3.29789 0
M  V30 3087 C 308.277 0.469396 -4.45534 0
M  V30 3088 C 310.021 2.12386 -3.67549 0
M  V30 3089 C 307.928 1.13415 -5.80423 0
M  V30 3090 H 306.858 0.295682 -0.693605 0
M  V30 3091 H 309.509 0.0348051 -1.83467 0
M  V30 3092 H 307.891 2.23588 -3.2684 0
M  V30 3093 H 309.065 -0.294856 -4.59856 0
M  V30 3094 H 307.38 -0.108383 -4.16259 0
M  V30 3095 H 309.977 2.62878 -4.65617 0
M  V30 3096 H 310.32 2.91877 -2.96839 0
M  V30 3097 H 310.853 1.39751 -3.72444 0
M  V30 3098 H 307.592 0.379771 -6.54399 0
M  V30 3099 H 307.112 1.8695 -5.69921 0
M  V30 3100 H 308.791 1.65686 -6.25426 0
M  V30 3101 N 308.923 1.53595 0.353017 0
M  V30 3102 C 309.855 1.77219 1.45348 0
M  V30 3103 C 310.868 0.65324 1.49119 0
M  V30 3104 O 312.057 0.929775 1.52373 0
M  V30 3105 C 309.157 1.84841 2.84055 0
M  V30 3106 C 308.33 3.14649 3.03833 0
M  V30 3107 C 307.389 3.13351 4.22727 0
M  V30 3108 O 306.415 3.87107 4.17297 0
M  V30 3109 N 307.617 2.35052 5.30783 0
M  V30 3110 H 310.382 2.72178 1.25457 0
M  V30 3111 H 307.943 1.52528 0.542833 0
M  V30 3112 H 309.935 1.81435 3.61751 0
M  V30 3113 H 308.505 0.971114 2.97133 0
M  V30 3114 H 307.725 3.31256 2.13689 0
M  V30 3115 H 309.013 4.00411 3.13925 0
M  V30 3116 H 308.411 1.74663 5.38061 0
M  V30 3117 H 306.968 2.37453 6.07009 0
M  V30 3118 N 310.401 -0.613514 1.45168 0
M  V30 3119 C 311.631 -1.39743 1.52169 0
M  V30 3120 C 312.039 -1.88596 0.151086 0
M  V30 3121 O 311.382 -1.6251 -0.856521 0
M  V30 3122 C 311.444 -2.64035 2.43979 0
M  V30 3123 C 311.108 -2.36861 3.90827 0
M  V30 3124 C 312.105 -1.97591 4.80889 0
M  V30 3125 C 309.79 -2.49956 4.35692 0
M  V30 3126 C 311.784 -1.71768 6.1382 0
M  V30 3127 C 309.471 -2.23747 5.68665 0
M  V30 3128 C 310.469 -1.84714 6.57548 0
M  V30 3129 O 310.157 -1.58809 7.88058 0
M  V30 3130 H 309.889 -0.434382 0.517966 0
M  V30 3131 H 312.443 -0.75587 1.90986 0
M  V30 3132 H 310.673 -3.3089 2.00122 0
M  V30 3133 H 312.362 -3.26069 2.41731 0
M  V30 3134 H 313.128 -1.87015 4.47493 0
M  V30 3135 H 309.007 -2.79305 3.66756 0
M  V30 3136 H 312.551 -1.41227 6.83155 0
M  V30 3137 H 308.448 -2.33938 6.01617 0
M  V30 3138 H 309.216 -1.7291 8.00028 0
M  V30 3139 N 311.879 -1.3236 -0.855495 0
M  V30 3140 C 313.127 -1.22629 -1.60644 0
M  V30 3141 C 313.448 0.212136 -1.93843 0
M  V30 3142 O 312.718 1.13666 -1.59552 0
M  V30 3143 H 311.298 -0.450882 -0.595579 0
M  V30 3144 H 313.96 -1.65871 -1.02337 0
M  V30 3145 H 313.056 -1.80832 -2.54374 0
M  V30 3146 N 313.357 1.07166 -1.15556 0
M  V30 3147 C 314.605 1.79443 -0.929764 0
M  V30 3148 C 314.926 1.87246 0.544414 0
M  V30 3149 O 314.196 1.37473 1.39564 0
M  V30 3150 H 312.776 0.664625 -0.341003 0
M  V30 3151 H 315.438 1.29499 -1.45657 0
M  V30 3152 H 314.534 2.81832 -1.34079 0
M  V30 3153 N 314.835 0.952656 1.25548 0
M  V30 3154 C 316.06 0.623025 1.97821 0
M  V30 3155 C 316.485 -0.7976 1.70352 0
M  V30 3156 O 315.843 -1.53905 0.958283 0
M  V30 3157 C 315.891 0.885532 3.49558 0
M  V30 3158 O 314.995 -0.0366641 4.12384 0
M  V30 3159 H 314.336 0.237082 0.620232 0
M  V30 3160 H 316.866 1.27871 1.59719 0
M  V30 3161 H 316.876 0.811009 3.99858 0
M  V30 3162 H 315.551 1.92094 3.6888 0
M  V30 3163 H 314.128 0.0898954 3.72792 0
M  V30 3164 N 316.313 -1.40141 0.720998 0
M  V30 3165 C 317.559 -2.01084 0.263231 0
M  V30 3166 C 317.892 -1.57052 -1.14229 0
M  V30 3167 O 317.167 -0.793027 -1.77599 0
M  V30 3168 C 317.45 -3.58401 0.349344 0
M  V30 3169 C 317.303 -4.12491 1.79363 0
M  V30 3170 C 318.622 -4.39231 -0.276351 0
M  V30 3171 H 315.741 -0.730572 0.0971228 0
M  V30 3172 H 318.383 -1.66543 0.914518 0
M  V30 3173 H 316.533 -3.87958 -0.205165 0
M  V30 3174 H 318.205 -3.93711 2.40394 0
M  V30 3175 H 316.448 -3.66576 2.31958 0
M  V30 3176 H 317.119 -5.21646 1.80524 0
M  V30 3177 H 319.595 -4.15637 0.196184 0
M  V30 3178 H 318.471 -5.48586 -0.185681 0
M  V30 3179 H 318.732 -4.20643 -1.36059 0
M  V30 3180 N 317.792 -0.46758 -1.50504 0
M  V30 3181 C 318.739 0.328413 -2.28452 0
M  V30 3182 C 319.709 0.990313 -1.33349 0
M  V30 3183 O 320.894 1.00343 -1.62284 0
M  V30 3184 C 318.034 1.40648 -3.15138 0
M  V30 3185 C 317.147 0.759709 -4.25267 0
M  V30 3186 C 316.282 1.81537 -4.99217 0
M  V30 3187 C 315.321 1.14866 -6.01226 0
M  V30 3188 N 314.458 2.14702 -6.68467 0
M  V30 3189 H 319.298 -0.342603 -2.96024 0
M  V30 3190 H 316.835 -0.180801 -1.45985 0
M  V30 3191 H 318.793 2.04315 -3.63746 0
M  V30 3192 H 317.423 2.04671 -2.49619 0
M  V30 3193 H 316.475 0.0105671 -3.80399 0
M  V30 3194 H 317.787 0.233243 -4.98254 0
M  V30 3195 H 316.941 2.52793 -5.51526 0
M  V30 3196 H 315.68 2.37564 -4.25928 0
M  V30 3197 H 314.685 0.42171 -5.4818 0
M  V30 3198 H 315.91 0.595334 -6.76485 0
M  V30 3199 H 313.856 2.69752 -5.97972 0
M  V30 3200 H 313.773 1.6703 -7.37317 0
M  V30 3201 H 315.041 2.85348 -7.25394 0
M  V30 3202 N 319.27 1.56325 -0.20005 0
M  V30 3203 C 320.681 1.8408 0.31167 0
M  V30 3204 C 321.032 1.12087 1.61031 0
M  V30 3205 O 320.157 0.38332 2.12978 0
M  V30 3206 C 320.752 3.33932 0.57226 0
M  V30 3207 C 319.311 3.6208 1.02834 0
M  V30 3208 C 318.458 2.77186 0.079634 0
M  V30 3209 H 321.409 1.52939 -0.423729 0
M  V30 3210 H 321.43 3.52971 1.42096 0
M  V30 3211 H 320.942 3.86303 -0.37308 0
M  V30 3212 H 319.043 3.15147 1.98778 0
M  V30 3213 H 319.156 4.7023 0.917624 0
M  V30 3214 H 317.52 2.47951 0.582448 0
M  V30 3215 H 318.303 3.32347 -0.860238 0
M  V30 3216 N 320.748 -0.0735177 1.57428 0
M  V30 3217 C 321.658 -1.10547 2.06922 0
M  V30 3218 C 322.674 -1.42506 0.998402 0
M  V30 3219 O 323.85 -1.52717 1.31299 0
M  V30 3220 C 320.915 -2.40019 2.50184 0
M  V30 3221 C 319.976 -2.15046 3.71556 0
M  V30 3222 C 319.209 -3.38345 4.12745 0
M  V30 3223 O 319.432 -4.47399 3.53822 0
M  V30 3224 O 318.366 -3.2666 5.05546 0
M  V30 3225 H 322.192 -0.715013 2.95163 0
M  V30 3226 H 319.777 -0.287531 1.46607 0
M  V30 3227 H 321.659 -3.16218 2.78539 0
M  V30 3228 H 320.334 -2.78447 1.65072 0
M  V30 3229 H 319.241 -1.36558 3.48285 0
M  V30 3230 H 320.574 -1.81499 4.57514 0
M  V30 3231 N 322.226 -1.5378 -0.344866 0
M  V30 3232 C 323.174 -1.82373 -1.4437 0
M  V30 3233 C 324.168 -0.694128 -1.54526 0
M  V30 3234 O 325.374 -0.877442 -1.57165 0
M  V30 3235 H 321.749 -0.577765 -0.481344 0
M  V30 3236 H 323.72 -2.74306 -1.17468 0
M  V30 3237 C 322.469 -2.04898 -2.80913 0
M  V30 3238 H 321.792 -2.9127 -2.73865 0
M  V30 3239 H 323.232 -2.28871 -3.56923 0
M  V30 3240 C 321.691 -0.834116 -3.26411 0
M  V30 3241 O 322.221 -0.0328885 -4.01687 0
M  V30 3242 N 320.427 -0.65171 -2.83198 0
M  V30 3243 H 319.974 -1.30489 -2.22104 0
M  V30 3244 H 319.932 0.159686 -3.13994 0
M  V30 3245 N 323.704 0.605807 -1.45491 0
M  V30 3246 C 324.667 1.69836 -1.5391 0
M  V30 3247 C 325.667 1.55261 -0.418424 0
M  V30 3248 O 326.857 1.60296 -0.681965 0
M  V30 3249 C 323.989 3.09117 -1.43734 0
M  V30 3250 H 325.182 1.63738 -2.51257 0
M  V30 3251 H 322.735 0.821689 -1.32959 0
M  V30 3252 H 323.47 3.20791 -0.475788 0
M  V30 3253 H 323.255 3.21104 -2.25021 0
M  V30 3254 H 324.745 3.88696 -1.52661 0
M  V30 3255 N 325.182 1.32811 0.848464 0
M  V30 3256 C 326.145 1.22194 1.9391 0
M  V30 3257 C 327.145 0.143404 1.60159 0
M  V30 3258 O 328.335 0.394253 1.6968 0
M  V30 3259 C 325.467 0.88067 3.29328 0
M  V30 3260 H 326.66 2.19127 2.04752 0
M  V30 3261 H 324.213 1.16731 1.0394 0
M  V30 3262 H 324.948 -0.0865776 3.24184 0
M  V30 3263 H 324.733 1.66052 3.55203 0
M  V30 3264 H 326.223 0.830871 4.09251 0
M  V30 3265 N 326.66 -1.06551 1.16123 0
M  V30 3266 C 327.623 -2.12132 0.867906 0
M  V30 3267 C 328.623 -1.60224 -0.135944 0
M  V30 3268 O 329.813 -1.73943 0.0946422 0
M  V30 3269 C 326.945 -3.396 0.297419 0
M  V30 3270 H 328.138 -2.39586 1.80385 0
M  V30 3271 H 325.691 -1.22574 0.969812 0
M  V30 3272 H 326.426 -3.17794 -0.64633 0
M  V30 3273 H 326.211 -3.78581 1.02073 0
M  V30 3274 H 327.701 -4.17455 0.110052 0
M  V30 3275 N 328.138 -0.959301 -1.25041 0
M  V30 3276 C 329.368 -0.63303 -1.96663 0
M  V30 3277 C 329.776 0.800031 -1.71453 0
M  V30 3278 O 329.119 1.54736 -0.99008 0
M  V30 3279 C 329.181 -0.817523 -3.50081 0
M  V30 3280 C 328.845 -2.22863 -3.98975 0
M  V30 3281 C 329.842 -3.20569 -4.09306 0
M  V30 3282 C 327.527 -2.55407 -4.32519 0
M  V30 3283 C 329.521 -4.4891 -4.52503 0
M  V30 3284 C 327.208 -3.83976 -4.754 0
M  V30 3285 C 328.206 -4.8054 -4.85356 0
M  V30 3286 O 327.894 -6.06817 -5.27284 0
M  V30 3287 H 327.626 -0.235866 -0.633516 0
M  V30 3288 H 330.18 -1.2874 -1.60047 0
M  V30 3289 H 328.41 -0.105992 -3.86555 0
M  V30 3290 H 330.099 -0.491604 -4.02912 0
M  V30 3291 H 330.865 -2.96753 -3.83618 0
M  V30 3292 H 326.744 -1.8097 -4.23994 0
M  V30 3293 H 330.288 -5.24283 -4.60188 0
M  V30 3294 H 326.185 -4.07596 -5.00535 0
M  V30 3295 H 326.953 -6.10262 -5.45457 0
M  V30 3296 N 329.616 1.39756 -0.72842 0
M  V30 3297 C 330.863 2.00645 -0.273487 0
M  V30 3298 C 331.191 1.57786 1.13727 0
M  V30 3299 O 330.446 0.794886 1.7883 0
M  V30 3300 C 330.745 3.56002 -0.315776 0
M  V30 3301 C 330.411 4.18489 -1.67863 0
M  V30 3302 C 329.073 4.3527 -2.05166 0
M  V30 3303 C 331.425 4.53219 -2.57375 0
M  V30 3304 C 328.753 4.84069 -3.31503 0
M  V30 3305 C 331.105 5.03423 -3.83077 0
M  V30 3306 C 329.769 5.18413 -4.20481 0
M  V30 3307 H 329.039 0.734211 -0.100076 0
M  V30 3308 H 331.686 1.6718 -0.933972 0
M  V30 3309 H 329.991 3.89452 0.428285 0
M  V30 3310 H 331.688 4.00963 0.0542575 0
M  V30 3311 H 328.278 4.05824 -1.37858 0
M  V30 3312 H 332.462 4.39878 -2.29827 0
M  V30 3313 H 327.718 4.93859 -3.60435 0
M  V30 3314 H 331.892 5.2927 -4.52599 0
M  V30 3315 H 329.519 5.55987 -5.18443 0
M  V30 3316 N 331.094 0.475555 1.50254 0
M  V30 3317 C 332.057 -0.305016 2.27161 0
M  V30 3318 C 333.057 -0.916519 1.32123 0
M  V30 3319 O 334.247 -0.785003 1.5551 0
M  V30 3320 C 331.379 -1.43496 3.09227 0
M  V30 3321 H 332.572 0.369511 2.97615 0
M  V30 3322 H 330.125 0.229747 1.54602 0
M  V30 3323 H 330.86 -2.14441 2.43281 0
M  V30 3324 H 330.645 -1.00223 3.79075 0
M  V30 3325 H 332.135 -1.98548 3.67381 0
M  V30 3326 N 332.573 -1.56217 0.208337 0
M  V30 3327 C 333.505 -2.1695 -0.739276 0
M  V30 3328 C 334.518 -1.13492 -1.1672 0
M  V30 3329 O 335.707 -1.40529 -1.10063 0
M  V30 3330 C 332.807 -2.72755 -2.01142 0
M  V30 3331 C 331.98 -4.0125 -1.74118 0
M  V30 3332 C 331.039 -4.41749 -2.85909 0
M  V30 3333 O 330.065 -5.08912 -2.54946 0
M  V30 3334 N 331.267 -4.06342 -4.14568 0
M  V30 3335 H 334.032 -2.98893 -0.219837 0
M  V30 3336 H 331.593 -1.61878 0.0268445 0
M  V30 3337 H 333.585 -2.96826 -2.75094 0
M  V30 3338 H 332.155 -1.95191 -2.4417 0
M  V30 3339 H 331.375 -3.85173 -0.838775 0
M  V30 3340 H 332.663 -4.851 -1.53477 0
M  V30 3341 H 332.061 -3.52345 -4.42571 0
M  V30 3342 H 330.618 -4.35335 -4.85105 0
M  V30 3343 N 334.051 0.0651679 -1.57465 0
M  V30 3344 C 335.462 0.616213 -1.76238 0
M  V30 3345 C 335.813 1.7756 -0.834689 0
M  V30 3346 O 334.938 2.1639 -0.0204156 0
M  V30 3347 C 335.533 1.12462 -3.1959 0
M  V30 3348 C 334.092 1.62147 -3.39684 0
M  V30 3349 C 333.239 0.543739 -2.71917 0
M  V30 3350 H 336.19 -0.161022 -1.57881 0
M  V30 3351 H 336.211 1.99324 -3.24114 0
M  V30 3352 H 335.723 0.280592 -3.87084 0
M  V30 3353 H 333.824 2.48854 -2.77313 0
M  V30 3354 H 333.937 1.69385 -4.48158 0
M  V30 3355 H 332.301 0.990352 -2.34657 0
M  V30 3356 H 333.084 -0.290216 -3.42071 0
M  V30 3357 N 335.529 1.53961 0.336706 0
M  V30 3358 C 336.806 1.62171 1.09361 0
M  V30 3359 C 337.186 0.447263 2.06307 0
M  V30 3360 O 336.534 -0.559802 2.21537 0
M  V30 3361 C 336.744 2.98565 1.80721 0
M  V30 3362 C 338.092 3.54157 2.34218 0
M  V30 3363 O 339.116 3.00784 1.90807 0
M  V30 3364 O 337.975 4.47528 3.13657 0
M  V30 3365 H 335.069 0.6562 0.503319 0
M  V30 3366 H 337.615 1.66307 0.33765 0
M  V30 3367 H 336.387 3.75482 1.10132 0
M  V30 3368 H 336.01 2.9805 2.63158 0
M  V30 3369 N 337.007 -0.598083 1.45811 0
M  V30 3370 C 338.256 -1.35295 1.49594 0
M  V30 3371 C 338.569 -1.95057 0.145679 0
M  V30 3372 O 339.775 -2.71431 0.0612099 0
M  V30 3373 C 338.231 -2.45124 2.63519 0
M  V30 3374 C 337.839 -1.91732 4.04899 0
M  V30 3375 C 339.583 -3.2205 2.76558 0
M  V30 3376 C 337.49 -2.991 5.1019 0
M  V30 3377 H 336.42 -0.508552 0.556679 0
M  V30 3378 H 339.071 -0.639977 1.71978 0
M  V30 3379 H 337.453 -3.19149 2.34435 0
M  V30 3380 H 338.627 -1.24352 4.43704 0
M  V30 3381 H 336.942 -1.27522 3.96393 0
M  V30 3382 H 339.539 -4.0215 3.52391 0
M  V30 3383 H 339.882 -3.73663 1.83526 0
M  V30 3384 H 340.415 -2.55127 3.05213 0
M  V30 3385 H 337.154 -2.52393 6.04961 0
M  V30 3386 H 336.674 -3.65017 4.75944 0
M  V30 3387 H 338.353 -3.63318 5.35359 0
M  V30 3388 N 338.485 -1.33259 -0.841409 0
M  V30 3389 C 339.762 -1.15174 -1.58096 0
M  V30 3390 C 340.142 0.282858 -2.09196 0
M  V30 3391 O 339.49 1.28151 -1.89181 0
M  V30 3392 C 339.7 -2.1907 -2.71679 0
M  V30 3393 C 341.048 -2.53093 -3.40924 0
M  V30 3394 O 342.072 -2.17717 -2.81918 0
M  V30 3395 O 340.931 -3.1379 -4.47435 0
M  V30 3396 H 338.025 -0.445303 -0.696875 0
M  V30 3397 H 340.571 -1.44833 -0.884385 0
M  V30 3398 H 339.343 -3.15443 -2.31541 0
M  V30 3399 H 338.966 -1.90481 -3.49002 0
M  V30 3400 N 339.963 1.05934 -1.16686 0
M  V30 3401 C 341.211 1.78447 -0.948744 0
M  V30 3402 C 341.532 1.87813 0.524523 0
M  V30 3403 O 340.802 1.38945 1.38098 0
M  V30 3404 H 339.382 0.660971 -0.348033 0
M  V30 3405 H 342.044 1.27947 -1.47022 0
M  V30 3406 H 341.14 2.80394 -1.37061 0
M  V30 3407 N 341.441 0.965919 1.2453 0
M  V30 3408 C 342.404 0.499547 2.2369 0
M  V30 3409 C 343.404 -0.40294 1.5567 0
M  V30 3410 O 344.594 -0.19865 1.73064 0
M  V30 3411 C 341.726 -0.276792 3.39774 0
M  V30 3412 H 342.919 1.37613 2.66463 0
M  V30 3413 H 340.472 0.750324 1.37112 0
M  V30 3414 H 341.207 -1.17055 3.02438 0
M  V30 3415 H 340.992 0.370826 3.90343 0
M  V30 3416 H 342.482 -0.592175 4.1338 0
M  V30 3417 N 342.919 -1.39368 0.735821 0
M  V30 3418 C 343.849 -2.33234 0.111506 0
M  V30 3419 C 344.83 -1.53954 -0.723334 0
M  V30 3420 O 346.015 -1.82344 -0.668147 0
M  V30 3421 C 343.145 -3.38057 -0.795917 0
M  V30 3422 C 342.099 -4.2795 -0.065172 0
M  V30 3423 C 341.425 -5.23479 -1.08967 0
M  V30 3424 C 342.725 -5.10741 1.09273 0
M  V30 3425 H 344.419 -2.85692 0.895571 0
M  V30 3426 H 341.965 -1.37364 0.432109 0
M  V30 3427 H 343.918 -4.02675 -1.24221 0
M  V30 3428 H 342.642 -2.8404 -1.61211 0
M  V30 3429 H 341.301 -3.64813 0.361511 0
M  V30 3430 H 340.949 -4.65758 -1.89944 0
M  V30 3431 H 340.649 -5.84472 -0.605489 0
M  V30 3432 H 342.173 -5.90974 -1.53565 0
M  V30 3433 H 343.587 -5.68699 0.724841 0
M  V30 3434 H 341.984 -5.8088 1.50659 0
M  V30 3435 H 343.054 -4.45525 1.91404 0
M  V30 3436 N 344.397 -0.483516 -1.5 0
M  V30 3437 C 345.643 0.0672592 -2.02688 0
M  V30 3438 C 345.976 1.38247 -1.36387 0
M  V30 3439 O 345.251 1.88131 -0.493675 0
M  V30 3440 C 345.534 0.238109 -3.59312 0
M  V30 3441 C 345.387 -1.099 -4.36168 0
M  V30 3442 C 346.706 0.986916 -4.28892 0
M  V30 3443 H 343.825 0.0229696 -0.736642 0
M  V30 3444 H 346.467 -0.631527 -1.79197 0
M  V30 3445 H 344.617 0.8333 -3.79458 0
M  V30 3446 H 346.289 -1.73172 -4.27562 0
M  V30 3447 H 344.532 -1.69261 -3.99416 0
M  V30 3448 H 345.203 -0.932954 -5.44059 0
M  V30 3449 H 347.679 0.482302 -4.13295 0
M  V30 3450 H 346.555 1.07527 -5.38265 0
M  V30 3451 H 346.816 2.0265 -3.92919 0
M  V30 3452 N 345.875 1.56104 -0.216619 0
M  V30 3453 C 347.123 1.97781 0.415593 0
M  V30 3454 C 347.444 1.10536 1.60645 0
M  V30 3455 O 346.714 0.181303 1.95059 0
M  V30 3456 H 345.294 0.730415 0.156534 0
M  V30 3457 H 347.956 1.92445 -0.308366 0
M  V30 3458 H 347.052 3.03072 0.74525 0
M  V30 3459 N 347.353 -0.0568162 1.57498 0
M  V30 3460 C 348.601 -0.751617 1.87604 0
M  V30 3461 C 348.922 -1.77351 0.81066 0
M  V30 3462 O 348.192 -1.95254 -0.159018 0
M  V30 3463 H 346.772 -0.280583 0.692302 0
M  V30 3464 H 349.434 -0.0293483 1.94878 0
M  V30 3465 H 348.53 -1.25852 2.856 0
M  V30 3466 N 348.832 -1.54138 -0.328536 0
M  V30 3467 C 349.795 -1.82462 -1.38709 0
M  V30 3468 C 350.795 -0.696229 -1.44946 0
M  V30 3469 O 351.985 -0.964535 -1.4506 0
M  V30 3470 C 349.117 -1.98018 -2.77492 0
M  V30 3471 H 350.31 -2.77037 -1.14851 0
M  V30 3472 H 347.863 -1.45779 -0.563751 0
M  V30 3473 H 348.598 -1.05637 -3.06613 0
M  V30 3474 H 348.383 -2.80124 -2.74359 0
M  V30 3475 H 349.873 -2.21396 -3.54081 0
M  V30 3476 N 350.31 0.590341 -1.46126 0
M  V30 3477 C 351.273 1.68194 -1.55703 0
M  V30 3478 C 352.273 1.54808 -0.434868 0
M  V30 3479 O 353.463 1.59564 -0.698928 0
M  V30 3480 C 350.595 3.07575 -1.47005 0
M  V30 3481 H 351.788 1.61064 -2.52979 0
M  V30 3482 H 349.341 0.807541 -1.33823 0
M  V30 3483 H 350.076 3.20268 -0.509785 0
M  V30 3484 H 349.861 3.187 -2.28414 0
M  V30 3485 H 351.351 3.87055 -1.56776 0
M  V30 3486 N 351.788 1.33704 0.83433 0
M  V30 3487 C 352.718 1.26967 1.95963 0
M  V30 3488 C 353.699 0.149337 1.69443 0
M  V30 3489 O 354.884 0.339852 1.91203 0
M  V30 3490 C 352.014 1.01275 3.32206 0
M  V30 3491 C 350.968 2.09652 3.73136 0
M  V30 3492 C 350.294 1.69166 5.07235 0
M  V30 3493 C 351.594 3.51372 3.86439 0
M  V30 3494 H 353.288 2.2112 2.01857 0
M  V30 3495 H 350.834 1.06447 0.969793 0
M  V30 3496 H 352.787 0.952106 4.10503 0
M  V30 3497 H 351.511 0.0356203 3.26581 0
M  V30 3498 H 350.17 2.14766 2.97104 0
M  V30 3499 H 349.818 0.701437 4.98085 0
M  V30 3500 H 349.518 2.41694 5.35591 0
M  V30 3501 H 351.042 1.64576 5.88003 0
M  V30 3502 H 352.456 3.48734 4.55036 0
M  V30 3503 H 350.853 4.22425 4.26236 0
M  V30 3504 H 351.923 3.89546 2.88759 0
M  V30 3505 N 353.266 -1.05314 1.17247 0
M  V30 3506 C 354.543 -1.75184 0.87005 0
M  V30 3507 C 354.923 -2.01481 -0.629965 0
M  V30 3508 O 354.271 -1.64988 -1.58086 0
M  V30 3509 C 354.481 -3.04594 1.70363 0
M  V30 3510 C 355.829 -3.78567 1.92281 0
M  V30 3511 O 356.853 -3.14461 1.67311 0
M  V30 3512 O 355.712 -4.93755 2.3424 0
M  V30 3513 H 352.806 -0.761729 0.322021 0
M  V30 3514 H 355.352 -1.11493 1.27935 0
M  V30 3515 H 354.124 -2.81201 2.72106 0
M  V30 3516 H 353.747 -3.76022 1.29202 0
M  V30 3517 N 354.744 -0.972509 -1.24016 0
M  V30 3518 C 355.707 -0.511403 -2.23422 0
M  V30 3519 C 356.707 0.394679 -1.55881 0
M  V30 3520 O 357.897 0.189469 -1.73167 0
M  V30 3521 C 355.029 0.258769 -3.39916 0
M  V30 3522 H 356.222 -1.39024 -2.6573 0
M  V30 3523 H 353.775 -0.757585 -1.36713 0
M  V30 3524 H 354.51 1.1545 -3.03054 0
M  V30 3525 H 354.295 -0.391522 -3.9014 0
M  V30 3526 H 355.785 0.570244 -4.13688 0
M  V30 3527 N 356.222 1.38976 -0.743202 0
M  V30 3528 C 357.169 2.30544 -0.10861 0
M  V30 3529 C 358.139 1.49642 0.720869 0
M  V30 3530 O 359.324 1.78304 0.679142 0
M  V30 3531 C 356.464 3.36018 0.786496 0
M  V30 3532 C 355.577 4.31963 -0.0564849 0
M  V30 3533 C 354.712 5.24506 0.840657 0
M  V30 3534 C 353.751 6.121 -0.00658363 0
M  V30 3535 N 352.888 6.96973 0.846943 0
M  V30 3536 H 357.728 2.8424 -0.895088 0
M  V30 3537 H 355.265 1.3995 -0.453048 0
M  V30 3538 H 357.223 3.95768 1.31999 0
M  V30 3539 H 355.853 2.83758 1.53887 0
M  V30 3540 H 354.905 3.73763 -0.707492 0
M  V30 3541 H 356.217 4.93703 -0.711229 0
M  V30 3542 H 355.371 5.89322 1.4417 0
M  V30 3543 H 354.11 4.63107 1.52916 0
M  V30 3544 H 353.115 5.46289 -0.620366 0
M  V30 3545 H 354.34 6.75565 -0.691992 0
M  V30 3546 H 352.286 6.38133 1.52059 0
M  V30 3547 H 352.203 7.5559 0.248864 0
M  V30 3548 H 353.471 7.6621 1.43328 0
M  V30 3549 N 357.7 0.491464 1.49741 0
M  V30 3550 C 358.925 -0.0557177 2.07325 0
M  V30 3551 C 359.35 -1.30925 1.35056 0
M  V30 3552 O 358.708 -1.76733 0.404365 0
M  V30 3553 C 358.756 -0.302074 3.59333 0
M  V30 3554 O 357.86 -1.37868 3.88672 0
M  V30 3555 H 357.201 0.0219956 0.663636 0
M  V30 3556 H 359.731 0.688352 1.92673 0
M  V30 3557 H 359.741 -0.536464 4.04458 0
M  V30 3558 H 358.416 0.61383 4.11345 0
M  V30 3559 H 356.993 -1.12999 3.55367 0
M  V30 3560 N 359.178 -1.55987 0.224894 0
M  V30 3561 C 360.425 -1.9839 -0.4059 0
M  V30 3562 C 360.753 -1.11261 -1.59535 0
M  V30 3563 O 360.008 -0.158314 -1.95059 0
M  V30 3564 C 360.307 -3.46394 -0.880106 0
M  V30 3565 C 359.973 -4.5046 0.19918 0
M  V30 3566 C 358.635 -4.7864 0.495661 0
M  V30 3567 C 360.987 -5.12855 0.928939 0
M  V30 3568 C 358.315 -5.66497 1.52636 0
M  V30 3569 C 360.667 -6.01828 1.949 0
M  V30 3570 C 359.331 -6.28351 2.25236 0
M  V30 3571 H 358.601 -0.725961 -0.148529 0
M  V30 3572 H 361.248 -1.88668 0.328113 0
M  V30 3573 H 359.553 -3.53337 -1.69294 0
M  V30 3574 H 361.25 -3.76577 -1.37808 0
M  V30 3575 H 357.84 -4.28579 -0.0420526 0
M  V30 3576 H 362.024 -4.9115 0.713129 0
M  V30 3577 H 357.28 -5.8531 1.76698 0
M  V30 3578 H 361.454 -6.49225 2.51951 0
M  V30 3579 H 359.081 -6.96226 3.05244 0
M  V30 3580 N 360.656 0.0484629 -1.57525 0
M  V30 3581 C 361.619 1.03956 -2.04269 0
M  V30 3582 C 362.619 1.30211 -0.943496 0
M  V30 3583 O 363.809 1.25539 -1.20771 0
M  V30 3584 C 360.941 2.37742 -2.44319 0
M  V30 3585 H 362.134 0.636182 -2.93075 0
M  V30 3586 H 359.687 0.294811 -1.53494 0
M  V30 3587 H 360.422 2.82866 -1.5861 0
M  V30 3588 H 360.207 2.20021 -3.24551 0
M  V30 3589 H 361.697 3.08936 -2.80978 0
M  V30 3590 N 362.134 1.5431 0.320358 0
M  V30 3591 C 363.097 1.83195 1.3774 0
M  V30 3592 C 364.097 0.703906 1.44575 0
M  V30 3593 O 365.287 0.972214 1.44546 0
M  V30 3594 C 362.419 1.99487 2.76438 0
M  V30 3595 H 363.612 2.77642 1.1338 0
M  V30 3596 H 361.165 1.46076 0.556012 0
M  V30 3597 H 361.9 1.07262 3.06048 0
M  V30 3598 H 361.685 2.81575 2.7287 0
M  V30 3599 H 363.175 2.23271 3.52902 0
M  V30 3600 N 363.613 -0.582584 1.46437 0
M  V30 3601 C 364.862 -1.337 1.5102 0
M  V30 3602 C 365.175 -1.94891 0.166359 0
M  V30 3603 O 366.381 -2.71351 0.0899954 0
M  V30 3604 C 364.837 -2.42315 2.66104 0
M  V30 3605 C 364.445 -1.87427 4.06909 0
M  V30 3606 C 366.189 -3.19099 2.79958 0
M  V30 3607 C 364.096 -2.93672 5.13333 0
M  V30 3608 H 363.026 -0.502619 0.562041 0
M  V30 3609 H 365.677 -0.621701 1.72647 0
M  V30 3610 H 364.059 -3.16645 2.37807 0
M  V30 3611 H 365.233 -1.19639 4.44998 0
M  V30 3612 H 363.548 -1.2331 3.97723 0
M  V30 3613 H 366.145 -3.9839 3.56636 0
M  V30 3614 H 366.488 -3.71695 1.87479 0
M  V30 3615 H 367.021 -2.51875 3.07902 0
M  V30 3616 H 363.76 -2.45962 6.07604 0
M  V30 3617 H 363.28 -3.59948 4.79789 0
M  V30 3618 H 364.959 -3.5762 5.39182 0
M  V30 3619 N 365.091 -1.34144 -0.827227 0
M  V30 3620 C 366.054 -1.25264 -1.91942 0
M  V30 3621 C 367.054 -0.168866 -1.59911 0
M  V30 3622 O 368.244 -0.421198 -1.69031 0
M  V30 3623 C 365.376 -0.932952 -3.27885 0
M  V30 3624 H 366.569 -2.22357 -2.0124 0
M  V30 3625 H 364.122 -1.1837 -1.0207 0
M  V30 3626 H 364.857 0.0349917 -3.24281 0
M  V30 3627 H 364.642 -1.71682 -3.52516 0
M  V30 3628 H 366.132 -0.895874 -4.07877 0
M  V30 3629 N 366.569 1.04691 -1.17803 0
M  V30 3630 C 367.516 2.12557 -0.899343 0
M  V30 3631 C 368.486 1.65339 0.158771 0
M  V30 3632 O 369.671 1.90789 0.0204797 0
M  V30 3633 C 366.811 3.42481 -0.424315 0
M  V30 3634 C 365.924 4.03346 -1.54713 0
M  V30 3635 C 365.059 5.21208 -1.02546 0
M  V30 3636 C 364.098 5.74089 -2.12339 0
M  V30 3637 N 363.235 6.83247 -1.61612 0
M  V30 3638 H 368.075 2.35734 -1.823 0
M  V30 3639 H 365.612 1.1564 -0.909159 0
M  V30 3640 H 367.57 4.16996 -0.130421 0
M  V30 3641 H 366.2 3.19471 0.462377 0
M  V30 3642 H 365.252 3.2622 -1.95664 0
M  V30 3643 H 366.564 4.38628 -2.37501 0
M  V30 3644 H 365.718 6.02812 -0.685718 0
M  V30 3645 H 364.457 4.87414 -0.167084 0
M  V30 3646 H 363.462 4.91111 -2.47165 0
M  V30 3647 H 364.687 6.0993 -2.98601 0
M  V30 3648 H 362.633 6.5134 -0.780533 0
M  V30 3649 H 362.55 7.17559 -2.38003 0
M  V30 3650 H 363.818 7.68491 -1.30545 0
M  V30 3651 N 368.047 0.979072 1.23499 0
M  V30 3652 C 369.01 0.523244 2.23147 0
M  V30 3653 C 370.01 -0.386406 1.56088 0
M  V30 3654 O 371.2 -0.180283 1.73265 0
M  V30 3655 C 368.332 -0.240739 3.40049 0
M  V30 3656 H 369.525 1.40432 2.64989 0
M  V30 3657 H 367.078 0.764824 1.36309 0
M  V30 3658 H 367.813 -1.13841 3.03662 0
M  V30 3659 H 367.598 0.412207 3.89927 0
M  V30 3660 H 369.088 -0.548297 4.13985 0
M  V30 3661 N 369.525 -1.3858 0.750561 0
M  V30 3662 C 370.488 -2.28836 0.129152 0
M  V30 3663 C 371.488 -1.47045 -0.650714 0
M  V30 3664 O 372.678 -1.6753 -0.477428 0
M  V30 3665 C 369.81 -3.30751 -0.825622 0
M  V30 3666 H 371.003 -2.85294 0.924516 0
M  V30 3667 H 368.556 -1.47489 0.517376 0
M  V30 3668 H 369.291 -2.79378 -1.64677 0
M  V30 3669 H 369.076 -3.91177 -0.268852 0
M  V30 3670 H 370.566 -3.98249 -1.2565 0
M  V30 3671 N 371.003 -0.499398 -1.49478 0
M  V30 3672 C 371.966 0.268838 -2.27618 0
M  V30 3673 C 372.966 0.895383 -1.33565 0
M  V30 3674 O 374.156 0.760164 -1.56739 0
M  V30 3675 C 371.288 1.38559 -3.11471 0
M  V30 3676 H 372.481 -0.416812 -2.96989 0
M  V30 3677 H 370.034 -0.254313 -1.54217 0
M  V30 3678 H 370.769 2.10544 -2.46661 0
M  V30 3679 H 370.554 0.941797 -3.80621 0
M  V30 3680 H 372.044 1.92678 -3.70493 0
M  V30 3681 N 372.481 1.55866 -0.233164 0
M  V30 3682 C 373.391 2.24431 0.683217 0
M  V30 3683 C 374.407 1.2558 1.2044 0
M  V30 3684 O 375.583 1.58422 1.24356 0
M  V30 3685 C 372.648 2.91979 1.86947 0
M  V30 3686 C 371.709 4.06204 1.38912 0
M  V30 3687 C 370.942 4.70522 2.51883 0
M  V30 3688 O 371.165 4.33865 3.70293 0
M  V30 3689 O 370.099 5.59296 2.22423 0
M  V30 3690 H 373.925 3.03426 0.129059 0
M  V30 3691 H 371.51 1.494 -0.0022283 0
M  V30 3692 H 373.392 3.34573 2.56201 0
M  V30 3693 H 372.067 2.15935 2.41151 0
M  V30 3694 H 370.974 3.68155 0.664259 0
M  V30 3695 H 372.307 4.84025 0.893328 0
M  V30 3696 N 373.959 -0.0401083 1.57549 0
M  V30 3697 C 374.922 -1.02871 2.04817 0
M  V30 3698 C 375.922 -1.29708 0.950388 0
M  V30 3699 O 377.112 -1.24897 1.21435 0
M  V30 3700 C 374.244 -2.36443 2.45576 0
M  V30 3701 H 375.437 -0.620631 2.93408 0
M  V30 3702 H 372.99 -0.286667 1.53649 0
M  V30 3703 H 373.725 -2.82021 1.60108 0
M  V30 3704 H 373.51 -2.18296 3.25713 0
M  V30 3705 H 375 -3.07441 2.82612 0
M  V30 3706 N 375.437 -1.54477 -0.31217 0
M  V30 3707 C 376.384 -1.84655 -1.38461 0
M  V30 3708 C 377.354 -0.694536 -1.50882 0
M  V30 3709 O 378.539 -0.942081 -1.6592 0
M  V30 3710 C 375.679 -2.0896 -2.74645 0
M  V30 3711 C 374.792 -3.36618 -2.70763 0
M  V30 3712 C 373.927 -3.50824 -3.98868 0
M  V30 3713 C 372.966 -4.72315 -3.89339 0
M  V30 3714 N 372.103 -4.83387 -5.09197 0
M  V30 3715 H 376.943 -2.76142 -1.12026 0
M  V30 3716 H 374.48 -1.36748 -0.542065 0
M  V30 3717 H 376.438 -2.21045 -3.53829 0
M  V30 3718 H 375.068 -1.20752 -2.99364 0
M  V30 3719 H 374.12 -3.33211 -1.83506 0
M  V30 3720 H 375.432 -4.25917 -2.59608 0
M  V30 3721 H 374.586 -3.62513 -4.86486 0
M  V30 3722 H 373.325 -2.59638 -4.12843 0
M  V30 3723 H 372.33 -4.6067 -3.00105 0
M  V30 3724 H 373.555 -5.64897 -3.76919 0
M  V30 3725 H 371.501 -3.9512 -5.23657 0
M  V30 3726 H 371.418 -5.66669 -5.00422 0
M  V30 3727 H 372.686 -4.9942 -5.98498 0
M  V30 3728 N 376.915 0.57481 -1.46744 0
M  V30 3729 C 377.878 1.66533 -1.57478 0
M  V30 3730 C 378.878 1.54338 -0.451263 0
M  V30 3731 O 380.068 1.58814 -0.715813 0
M  V30 3732 C 377.2 3.05999 -1.50259 0
M  V30 3733 H 378.393 1.58372 -2.54673 0
M  V30 3734 H 375.946 0.793301 -1.34672 0
M  V30 3735 H 376.681 3.19709 -0.543725 0
M  V30 3736 H 376.466 3.16259 -2.31781 0
M  V30 3737 H 377.956 3.8537 -1.60872 0
M  V30 3738 O 378.432 1.44602 0.719209 0
M  V30 3739 H 379.123 1.36947 1.36986 0
M  V30 END ATOM
M  V30 BEGIN BOND
M  V30 END BOND
M  V30 END CTAB
M  END
$$$$
