drugbank_target|P51151 Ras-related protein Rab-9A (DB04315)
 OpenBabel12092119583D

  0  0  0     0  0            999 V3000
M  V30 BEGIN CTAB
M  V30 COUNTS 3154 3189 0 0 0
M  V30 BEGIN ATOM
M  V30 1 H -0.908 1.98254 -0.117106 0
M  V30 2 N 0 1.576 0 0
M  V30 3 C 0.933 2.03868 1.02534 0
M  V30 4 C 1.911 0.928543 1.3348 0
M  V30 5 O 3.095 1.19667 1.45644 0
M  V30 6 C 0.222 2.43627 2.35294 0
M  V30 7 C -0.732 3.65373 2.2001 0
M  V30 8 S 0.101 5.13292 1.52614 0
M  V30 9 C 1.257 5.56322 2.86805 0
M  V30 10 H 1.49 2.90518 0.631377 0
M  V30 11 H -0.977 1.52953 0.210867 0
M  V30 12 H 0.981 2.67203 3.11629 0
M  V30 13 H -0.358 1.57376 2.7183 0
M  V30 14 H -1.165 3.90944 3.18086 0
M  V30 15 H -1.563 3.418 1.51819 0
M  V30 16 H 0.729 5.58782 3.83104 0
M  V30 17 H 1.672 6.56266 2.65933 0
M  V30 18 H 2.08 4.83886 2.90714 0
M  V30 19 N 1.4781 -0.272755 1.55222 0
M  V30 20 C 2.4411 -1.32041 1.87344 0
M  V30 21 C 3.4411 -1.42342 0.74803 0
M  V30 22 O 4.6311 -1.41488 1.0162 0
M  V30 23 C 1.7631 -2.70173 2.07893 0
M  V30 24 H 2.9561 -1.04789 2.80997 0
M  V30 25 H 0.5091 -0.51083 1.47717 0
M  V30 26 H 1.2441 -3.02605 1.16622 0
M  V30 27 H 1.0291 -2.64082 2.89833 0
M  V30 28 H 2.5191 -3.45869 2.34017 0
M  V30 29 N 2.9562 -1.48159 -0.537278 0
M  V30 30 C 4.2042 -1.55497 -1.29094 0
M  V30 31 C 4.5252 -0.227454 -1.93669 0
M  V30 32 O 3.7952 0.750386 -1.80959 0
M  V30 33 H 2.3752 -0.572832 -0.47945 0
M  V30 34 H 5.0372 -1.84579 -0.625818 0
M  V30 35 H 4.1332 -2.33216 -2.07405 0
M  V30 36 N 4.4343 0.785586 -1.36625 0
M  V30 37 C 5.3813 1.89838 -1.31264 0
M  V30 38 C 6.3513 1.65115 -0.180633 0
M  V30 39 O 7.5363 1.87222 -0.36777 0
M  V30 40 C 4.6763 3.26706 -1.11163 0
M  V30 41 C 3.7893 3.63476 -2.33472 0
M  V30 42 C 2.9243 4.89481 -2.06353 0
M  V30 43 C 1.9633 5.18941 -3.24602 0
M  V30 44 N 1.1003 6.36131 -2.97123 0
M  V30 45 H 5.9403 1.93756 -2.26413 0
M  V30 46 H 3.4773 0.947454 -1.12524 0
M  V30 47 H 5.4353 4.05639 -0.975337 0
M  V30 48 H 4.0653 3.222 -0.196674 0
M  V30 49 H 3.1173 2.79636 -2.57891 0
M  V30 50 H 4.4293 3.81193 -3.21704 0
M  V30 51 H 3.5833 5.76288 -1.89675 0
M  V30 52 H 2.3223 4.73841 -1.15437 0
M  V30 53 H 1.3273 4.30615 -3.41834 0
M  V30 54 H 2.5523 5.36498 -4.16349 0
M  V30 55 H 0.4983 6.21875 -2.08823 0
M  V30 56 H 0.4153 6.54198 -3.78894 0
M  V30 57 H 1.6833 7.2591 -2.84033 0
M  V30 58 N 5.9124 1.20967 1.01018 0
M  V30 59 C 7.1374 1.0503 1.78839 0
M  V30 60 C 7.5624 -0.395752 1.8389 0
M  V30 61 O 6.9204 -1.28529 1.27867 0
M  V30 62 C 6.9684 1.64602 3.2084 0
M  V30 63 O 6.0724 0.887988 4.02726 0
M  V30 64 H 5.4134 0.369987 0.551367 0
M  V30 65 H 7.9434 1.60399 1.27018 0
M  V30 66 H 7.9534 1.68607 3.71532 0
M  V30 67 H 6.6284 2.69841 3.16479 0
M  V30 68 H 5.2054 0.922648 3.61305 0
M  V30 69 N 7.3905 -1.2043 1.01659 0
M  V30 70 C 8.6155 -1.94318 0.724942 0
M  V30 71 C 9.0405 -1.74266 -0.708034 0
M  V30 72 O 8.3985 -1.03694 -1.48719 0
M  V30 73 C 8.4465 -3.44486 1.06591 0
M  V30 74 O 7.5505 -4.12017 0.177599 0
M  V30 75 H 6.8915 -0.60708 0.26898 0
M  V30 76 H 9.4215 -1.52861 1.35995 0
M  V30 77 H 9.4315 -3.95106 1.01762 0
M  V30 78 H 8.1065 -3.58404 2.10997 0
M  V30 79 H 6.6835 -3.71821 0.283421 0
M  V30 80 N 8.8686 -0.792821 -1.36206 0
M  V30 81 C 9.7986 -0.207853 -2.32573 0
M  V30 82 C 10.7796 0.659055 -1.56813 0
M  V30 83 O 11.9646 0.592176 -1.84951 0
M  V30 84 C 9.0946 0.655449 -3.41059 0
M  V30 85 C 8.0486 -0.111842 -4.27854 0
M  V30 86 C 7.3746 0.872274 -5.27537 0
M  V30 87 C 8.6746 -1.30299 -5.05786 0
M  V30 88 H 10.3686 -1.01294 -2.81744 0
M  V30 89 H 7.9146 -0.48854 -1.3546 0
M  V30 90 H 9.8676 1.07464 -4.07467 0
M  V30 91 H 8.5916 1.49328 -2.90463 0
M  V30 92 H 7.2506 -0.512053 -3.63006 0
M  V30 93 H 6.8986 1.70523 -4.73214 0
M  V30 94 H 6.5986 0.363291 -5.86476 0
M  V30 95 H 8.1226 1.28996 -5.96818 0
M  V30 96 H 9.5366 -0.959379 -5.65216 0
M  V30 97 H 7.9336 -1.7455 -5.74154 0
M  V30 98 H 9.0036 -2.09663 -4.37229 0
M  V30 99 N 10.3467 1.47872 -0.545128 0
M  V30 100 C 11.5937 2.02493 -0.0165858 0
M  V30 101 C 11.9217 1.42073 1.32836 0
M  V30 102 O 11.1767 0.561459 1.87473 0
M  V30 103 C 11.4757 3.57131 0.13867 0
M  V30 104 C 11.1417 4.36411 -1.13384 0
M  V30 105 C 9.8037 4.57792 -1.48256 0
M  V30 106 C 12.1557 4.82223 -1.97764 0
M  V30 107 C 9.4837 5.22233 -2.67376 0
M  V30 108 C 11.8357 5.47977 -3.16076 0
M  V30 109 C 10.4997 5.67593 -3.51275 0
M  V30 110 H 9.7697 0.740975 -0.00606918 0
M  V30 111 H 12.4167 1.77683 -0.714207 0
M  V30 112 H 10.7217 3.80865 0.919172 0
M  V30 113 H 12.4187 3.97031 0.562782 0
M  V30 114 H 9.0087 4.2004 -0.852297 0
M  V30 115 H 13.1927 4.65493 -1.72132 0
M  V30 116 H 8.4487 5.35616 -2.94831 0
M  V30 117 H 12.6227 5.8244 -3.81755 0
M  V30 118 H 10.2497 6.17298 -4.43675 0
M  V30 119 N 11.8248 0.280983 1.55075 0
M  V30 120 C 12.7718 -0.603937 2.22758 0
M  V30 121 C 13.7418 -1.1452 1.20309 0
M  V30 122 O 14.9268 -1.19343 1.48869 0
M  V30 123 C 12.0668 -1.77947 2.95684 0
M  V30 124 C 11.1798 -1.2715 4.12864 0
M  V30 125 C 10.3148 -2.4093 4.7342 0
M  V30 126 C 9.3538 -1.87165 5.82783 0
M  V30 127 N 8.4908 -2.94441 6.37377 0
M  V30 128 H 13.3308 -0.020124 2.97993 0
M  V30 129 H 10.8678 0.00183425 1.471 0
M  V30 130 H 12.8258 -2.47055 3.36184 0
M  V30 131 H 11.4558 -2.33522 2.22861 0
M  V30 132 H 10.5078 -0.473331 3.77444 0
M  V30 133 H 11.8198 -0.837751 4.91715 0
M  V30 134 H 10.9738 -3.18021 5.1667 0
M  V30 135 H 9.7128 -2.87623 3.93859 0
M  V30 136 H 8.7178 -1.08556 5.38976 0
M  V30 137 H 9.9428 -1.41401 6.64216 0
M  V30 138 H 7.8888 -3.40505 5.60707 0
M  V30 139 H 7.8058 -2.55501 7.11516 0
M  V30 140 H 9.0738 -3.71489 6.85285 0
M  V30 141 N 13.3029 -1.57598 0.00835791 0
M  V30 142 C 14.5489 -1.91211 -0.675732 0
M  V30 143 C 14.8819 -0.883139 -1.72958 0
M  V30 144 O 14.1569 0.097016 -1.94258 0
M  V30 145 C 14.4399 -3.35379 -1.31123 0
M  V30 146 C 14.2929 -4.48999 -0.268356 0
M  V30 147 C 15.6119 -3.7912 -2.23508 0
M  V30 148 H 12.7309 -0.695374 -0.244179 0
M  V30 149 H 15.3729 -1.89901 0.0613655 0
M  V30 150 H 13.5229 -3.36626 -1.93946 0
M  V30 151 H 15.1949 -4.59887 0.360844 0
M  V30 152 H 13.4379 -4.31873 0.408482 0
M  V30 153 H 14.1089 -5.46851 -0.752218 0
M  V30 154 H 16.5849 -3.79477 -1.70693 0
M  V30 155 H 15.4609 -4.80729 -2.64936 0
M  V30 156 H 15.7219 -3.13455 -3.11766 0
M  V30 157 N 14.781 0.264519 -1.55364 0
M  V30 158 C 16.03 0.992812 -1.75574 0
M  V30 159 C 16.343 1.87142 -0.568979 0
M  V30 160 O 17.549 2.63513 -0.653682 0
M  V30 161 C 16.005 1.81519 -3.10771 0
M  V30 162 C 15.613 0.984839 -4.37041 0
M  V30 163 C 17.357 2.53727 -3.40327 0
M  V30 164 C 15.264 1.80209 -5.63275 0
M  V30 165 H 14.194 0.374412 -0.65447 0
M  V30 166 H 16.845 0.248138 -1.81815 0
M  V30 167 H 15.227 2.60115 -2.98591 0
M  V30 168 H 16.401 0.242455 -4.60162 0
M  V30 169 H 14.716 0.37691 -4.14691 0
M  V30 170 H 17.313 3.15292 -4.3185 0
M  V30 171 H 17.656 3.24447 -2.60845 0
M  V30 172 H 18.189 1.82156 -3.53644 0
M  V30 173 H 14.928 1.13896 -6.45529 0
M  V30 174 H 14.448 2.52022 -5.44284 0
M  V30 175 H 16.127 2.37364 -6.01887 0
M  V30 176 N 16.2591 1.48442 0.529413 0
M  V30 177 C 17.1891 1.65902 1.64313 0
M  V30 178 C 18.1701 0.507897 1.6234 0
M  V30 179 O 19.3551 0.740503 1.79528 0
M  V30 180 C 16.4851 1.69911 3.02898 0
M  V30 181 C 15.4391 2.8453 3.19729 0
M  V30 182 C 14.7651 2.73629 4.59381 0
M  V30 183 C 16.0651 4.25821 3.02447 0
M  V30 184 H 17.7591 2.5914 1.49955 0
M  V30 185 H 15.3051 1.24709 0.719982 0
M  V30 186 H 17.2581 1.80715 3.80684 0
M  V30 187 H 15.9821 0.732524 3.18279 0
M  V30 188 H 14.6411 2.73283 2.44361 0
M  V30 189 H 14.2891 1.74938 4.71599 0
M  V30 190 H 13.9891 3.50541 4.71588 0
M  V30 191 H 15.5131 2.86401 5.39265 0
M  V30 192 H 16.9271 4.37898 3.70024 0
M  V30 193 H 15.3241 5.03735 3.26146 0
M  V30 194 H 16.3941 4.42244 1.98867 0
M  V30 195 N 17.7372 -0.778329 1.37039 0
M  V30 196 C 18.6672 -1.90546 1.34962 0
M  V30 197 C 19.6482 -1.68681 0.219274 0
M  V30 198 O 20.8332 -1.89634 0.418624 0
M  V30 199 C 17.9632 -3.27734 1.14925 0
M  V30 200 C 16.9172 -3.64147 2.24902 0
M  V30 201 C 16.2432 -4.99806 1.89996 0
M  V30 202 C 17.5432 -3.71579 3.67051 0
M  V30 203 H 19.2372 -1.92541 2.29277 0
M  V30 204 H 16.7832 -0.924948 1.10366 0
M  V30 205 H 18.7362 -4.06215 1.12104 0
M  V30 206 H 17.4602 -3.26154 0.170631 0
M  V30 207 H 16.1192 -2.8797 2.26868 0
M  V30 208 H 15.7672 -4.94759 0.906796 0
M  V30 209 H 15.4672 -5.25139 2.63634 0
M  V30 210 H 16.9912 -5.80694 1.88749 0
M  V30 211 H 18.4052 -4.40227 3.67251 0
M  V30 212 H 16.8022 -4.08405 4.39688 0
M  V30 213 H 17.8722 -2.72404 4.01154 0
M  V30 214 N 19.2153 -1.21501 -1.00376 0
M  V30 215 C 20.4633 -1.03095 -1.73827 0
M  V30 216 C 20.7843 0.436341 -1.90055 0
M  V30 217 O 20.0543 1.31466 -1.45236 0
M  V30 218 H 18.6343 -0.378487 -0.644016 0
M  V30 219 H 21.2963 -1.52831 -1.20949 0
M  V30 220 H 20.3923 -1.49991 -2.73695 0
M  V30 221 N 20.6934 1.19889 -1.02296 0
M  V30 222 C 21.9704 1.85148 -0.630832 0
M  V30 223 C 22.3504 1.91385 0.890782 0
M  V30 224 O 21.6984 1.42642 1.78509 0
M  V30 225 C 21.9084 3.24442 -1.28602 0
M  V30 226 C 23.2564 4.00663 -1.4055 0
M  V30 227 O 24.2804 3.33818 -1.24273 0
M  V30 228 O 23.1394 5.20387 -1.66913 0
M  V30 229 H 20.2334 0.797613 -0.218499 0
M  V30 230 H 22.7794 1.27427 -1.12074 0
M  V30 231 H 21.5514 3.14704 -2.32545 0
M  V30 232 H 21.1744 3.89802 -0.7836 0
M  V30 233 N 22.1715 0.800033 1.35784 0
M  V30 234 C 23.4195 0.376597 1.9856 0
M  V30 235 C 23.7405 -1.05812 1.63795 0
M  V30 236 O 23.0105 -1.73103 0.917171 0
M  V30 237 H 21.5905 0.136261 0.734467 0
M  V30 238 H 24.2525 1.02442 1.65806 0
M  V30 239 H 23.3485 0.477002 3.08433 0
M  V30 240 N 23.6496 -1.47581 0.552962 0
M  V30 241 C 24.8976 -2.02082 0.0272703 0
M  V30 242 C 25.2186 -1.4301 -1.32563 0
M  V30 243 O 24.4886 -0.603745 -1.86365 0
M  V30 244 H 23.0686 -0.746966 0.00709182 0
M  V30 245 H 25.7306 -1.81033 0.722008 0
M  V30 246 H 24.8266 -3.12034 -0.0639951 0
M  V30 247 N 25.1277 -0.289203 -1.54924 0
M  V30 248 C 26.3737 0.323998 -2.00195 0
M  V30 249 C 26.7067 1.54441 -1.17735 0
M  V30 250 O 25.9817 1.92875 -0.250878 0
M  V30 251 C 26.2647 0.692276 -3.53383 0
M  V30 252 C 26.1177 -0.536457 -4.46589 0
M  V30 253 C 27.4367 1.52335 -4.12895 0
M  V30 254 H 24.5557 0.116289 -0.727768 0
M  V30 255 H 27.1977 -0.398954 -1.85764 0
M  V30 256 H 25.3477 1.30822 -3.65811 0
M  V30 257 H 27.0197 -1.17499 -4.46085 0
M  V30 258 H 25.2627 -1.17192 -4.1767 0
M  V30 259 H 25.9337 -0.234806 -5.515 0
M  V30 260 H 28.4097 1.00302 -4.0383 0
M  V30 261 H 27.2857 1.74982 -5.20262 0
M  V30 262 H 27.5467 2.50886 -3.64018 0
M  V30 263 N 26.6058 1.57591 -0.0167156 0
M  V30 264 C 27.8538 1.90906 0.663285 0
M  V30 265 C 28.1748 0.892509 1.73376 0
M  V30 266 O 27.4448 -0.0677623 1.95783 0
M  V30 267 H 26.0248 0.704637 0.247983 0
M  V30 268 H 28.6868 1.94803 -0.0615909 0
M  V30 269 H 27.7828 2.9116 1.12393 0
M  V30 270 N 28.0839 -0.256276 1.55502 0
M  V30 271 C 29.0309 -1.31714 1.89526 0
M  V30 272 C 30.0009 -1.4828 0.748479 0
M  V30 273 O 31.1859 -1.62416 1.00128 0
M  V30 274 C 28.3259 -2.66933 2.18725 0
M  V30 275 C 27.4389 -2.58452 3.4616 0
M  V30 276 C 26.5739 -3.85961 3.64976 0
M  V30 277 C 25.6129 -3.72059 4.86044 0
M  V30 278 N 24.7499 -4.9144 5.01429 0
M  V30 279 H 29.5899 -1.01998 2.80001 0
M  V30 280 H 27.1269 -0.492413 1.38613 0
M  V30 281 H 29.0849 -3.4563 2.33657 0
M  V30 282 H 27.7149 -2.94816 1.31466 0
M  V30 283 H 26.7669 -1.71374 3.3961 0
M  V30 284 H 28.0789 -2.44085 4.34999 0
M  V30 285 H 27.2329 -4.73101 3.79816 0
M  V30 286 H 25.9719 -4.03215 2.74353 0
M  V30 287 H 24.9769 -2.83302 4.7119 0
M  V30 288 H 26.2019 -3.56309 5.78118 0
M  V30 289 H 24.1479 -5.09072 4.13741 0
M  V30 290 H 24.0649 -4.79668 5.84341 0
M  V30 291 H 25.3329 -5.80104 5.20672 0
M  V30 292 N 29.562 -1.4872 -0.521534 0
M  V30 293 C 30.787 -1.61101 -1.30618 0
M  V30 294 C 31.212 -0.274611 -1.86085 0
M  V30 295 O 30.57 0.754937 -1.64834 0
M  V30 296 C 30.618 -2.66709 -2.4269 0
M  V30 297 O 29.722 -2.24456 -3.45967 0
M  V30 298 H 29.063 -0.539921 -0.386499 0
M  V30 299 H 31.593 -1.94767 -0.626645 0
M  V30 300 H 31.603 -2.88245 -2.88754 0
M  V30 301 H 30.278 -3.63727 -2.01682 0
M  V30 302 H 28.855 -2.13168 -3.05964 0
M  V30 303 N 31.0401 0.771051 -1.3745 0
M  V30 304 C 32.2651 1.56529 -1.36065 0
M  V30 305 C 32.6901 1.88029 0.0515859 0
M  V30 306 O 32.0481 1.49282 1.02882 0
M  V30 307 C 32.0961 2.85187 -2.20683 0
M  V30 308 O 31.2001 3.79593 -1.61193 0
M  V30 309 H 30.5411 0.47411 -0.464883 0
M  V30 310 H 33.0711 0.954269 -1.80983 0
M  V30 311 H 33.0811 3.34283 -2.33921 0
M  V30 312 H 31.7561 2.61588 -3.23334 0
M  V30 313 H 30.3331 3.38239 -1.56999 0
M  V30 314 N 32.5182 1.22032 0.997298 0
M  V30 315 C 33.4482 1.01065 2.10495 0
M  V30 316 C 34.4292 -0.0669542 1.69968 0
M  V30 317 O 35.6142 0.0943987 1.9397 0
M  V30 318 C 32.7442 0.582874 3.42374 0
M  V30 319 C 31.6982 1.60592 3.96729 0
M  V30 320 C 31.0242 1.03412 5.24605 0
M  V30 321 C 32.3242 2.99478 4.27914 0
M  V30 322 H 34.0182 1.93708 2.28292 0
M  V30 323 H 31.5642 0.932761 1.09707 0
M  V30 324 H 33.5172 0.423332 4.19268 0
M  V30 325 H 32.2412 -0.379213 3.24391 0
M  V30 326 H 30.9002 1.75316 3.21963 0
M  V30 327 H 30.5482 0.063518 5.0296 0
M  V30 328 H 30.2482 1.71754 5.61938 0
M  V30 329 H 31.7722 0.886066 6.04137 0
M  V30 330 H 33.1862 2.88153 4.95622 0
M  V30 331 H 31.5832 3.64903 4.76409 0
M  V30 332 H 32.6532 3.49742 3.3587 0
M  V30 333 N 33.9963 -1.19345 1.0293 0
M  V30 334 C 34.9293 -2.21347 0.555029 0
M  V30 335 C 35.9073 -1.57492 -0.404351 0
M  V30 336 O 37.0913 -1.85741 -0.321352 0
M  V30 337 C 34.2183 -3.38163 -0.19064 0
M  V30 338 C 33.2643 -4.20375 0.720236 0
M  V30 339 S 34.0973 -4.88371 2.19668 0
M  V30 340 C 35.2533 -6.08597 1.46153 0
M  V30 341 H 35.4863 -2.61235 1.41929 0
M  V30 342 H 33.0193 -1.29598 0.839272 0
M  V30 343 H 34.9773 -4.05871 -0.614724 0
M  V30 344 H 33.6383 -2.9671 -1.03063 0
M  V30 345 H 32.8313 -5.03793 0.14455 0
M  V30 346 H 32.4333 -3.57987 1.08266 0
M  V30 347 H 34.7253 -6.73354 0.748357 0
M  V30 348 H 35.6683 -6.7065 2.27233 0
M  V30 349 H 36.0763 -5.56297 0.958842 0
M  V30 350 N 35.4744 -0.807222 -1.35358 0
M  V30 351 C 36.4224 -0.20614 -2.31685 0
M  V30 352 C 37.4164 0.644445 -1.56663 0
M  V30 353 O 38.6224 0.537538 -1.71786 0
M  V30 354 H 34.9974 -0.0479006 -0.750473 0
M  V30 355 H 36.9684 -1.03369 -2.79924 0
M  V30 356 C 35.7174 0.630212 -3.41941 0
M  V30 357 H 35.0404 -0.0149558 -3.99797 0
M  V30 358 H 36.4804 1.01716 -4.11619 0
M  V30 359 C 34.9394 1.79601 -2.85035 0
M  V30 360 O 35.4694 2.89351 -2.78637 0
M  V30 361 N 33.6754 1.60774 -2.42074 0
M  V30 362 H 33.2224 0.715009 -2.47478 0
M  V30 363 H 33.1804 2.38933 -2.04349 0
M  V30 364 N 36.9525 1.47285 -0.560781 0
M  V30 365 C 38.3685 1.58065 -0.22081 0
M  V30 366 C 38.5685 1.55892 1.27671 0
M  V30 367 O 37.6245 1.46422 2.0571 0
M  V30 368 C 38.9375 2.88418 -0.850625 0
M  V30 369 C 40.4855 3.02009 -0.822184 0
M  V30 370 C 40.9605 4.35066 -1.43113 0
M  V30 371 N 42.4515 4.41711 -1.39448 0
M  V30 372 C 43.1865 5.43237 -1.83525 0
M  V30 373 N 42.6825 6.51555 -2.35474 0
M  V30 374 N 44.4755 5.34304 -1.74574 0
M  V30 375 H 36.6265 1.46941 -1.53369 0
M  V30 376 H 38.8895 0.699558 -0.639783 0
M  V30 377 H 38.5955 2.95755 -1.9032 0
M  V30 378 H 38.4695 3.75612 -0.345773 0
M  V30 379 H 40.8565 2.94266 0.221714 0
M  V30 380 H 40.9375 2.16347 -1.36483 0
M  V30 381 H 40.5815 4.43565 -2.47412 0
M  V30 382 H 40.5115 5.19465 -0.863899 0
M  V30 383 H 43.0025 3.64027 -1.01452 0
M  V30 384 H 43.3155 7.25203 -2.67021 0
M  V30 385 H 41.6605 6.52435 -2.39487 0
M  V30 386 H 44.8515 4.48581 -1.33763 0
M  V30 387 H 45.0245 6.13288 -2.09242 0
M  V30 388 N 38.4306 0.297415 1.54768 0
M  V30 389 C 39.6606 -0.315165 2.04182 0
M  V30 390 C 40.0686 -1.4834 1.17439 0
M  V30 391 O 39.4116 -1.82695 0.191891 0
M  V30 392 C 39.4736 -0.837583 3.49607 0
M  V30 393 C 39.1376 0.204912 4.5654 0
M  V30 394 C 40.1346 1.03214 5.09552 0
M  V30 395 C 37.8196 0.345578 5.0111 0
M  V30 396 C 39.8136 1.986 6.05671 0
M  V30 397 C 37.5006 1.30289 5.97049 0
M  V30 398 C 38.4986 2.12159 6.49213 0
M  V30 399 O 38.1866 3.06268 7.43273 0
M  V30 400 H 37.9186 -0.0729646 0.672051 0
M  V30 401 H 40.4726 0.433907 2.00765 0
M  V30 402 H 38.7026 -1.63712 3.50336 0
M  V30 403 H 40.3916 -1.36566 3.82236 0
M  V30 404 H 41.1576 0.934312 4.75916 0
M  V30 405 H 37.0366 -0.28171 4.60138 0
M  V30 406 H 40.5806 2.62542 6.46311 0
M  V30 407 H 36.4776 1.40145 6.30103 0
M  V30 408 H 37.2456 3.01205 7.61064 0
M  V30 409 N 39.9087 -1.5758 0.0250728 0
M  V30 410 C 41.1547 -1.91917 -0.655413 0
M  V30 411 C 41.4877 -0.901433 -1.72011 0
M  V30 412 O 40.7627 0.0764069 -1.9435 0
M  V30 413 C 41.0457 -3.36751 -1.27558 0
M  V30 414 C 40.8987 -4.49258 -0.220719 0
M  V30 415 C 42.2177 -3.81469 -2.19475 0
M  V30 416 H 39.3367 -0.697925 -0.23679 0
M  V30 417 H 41.9787 -1.89825 0.0815036 0
M  V30 418 H 40.1287 -3.38664 -1.90365 0
M  V30 419 H 41.8007 -4.59478 0.409601 0
M  V30 420 H 40.0437 -4.31415 0.454264 0
M  V30 421 H 40.7147 -5.47618 -0.694175 0
M  V30 422 H 43.1907 -3.81266 -1.66659 0
M  V30 423 H 42.0667 -4.83512 -2.59822 0
M  V30 424 H 42.3277 -3.16744 -3.08424 0
M  V30 425 N 41.3868 0.248026 -1.55636 0
M  V30 426 C 42.6148 0.993808 -1.81469 0
M  V30 427 C 43.0298 1.78991 -0.60064 0
M  V30 428 O 42.3868 1.77345 0.430682 0
M  V30 429 C 42.4378 1.93258 -3.05506 0
M  V30 430 O 42.1588 1.16869 -4.22224 0
M  V30 431 C 43.6598 2.79444 -3.4413 0
M  V30 432 H 40.8798 0.292486 -0.603898 0
M  V30 433 H 43.4238 0.271253 -2.02693 0
M  V30 434 H 41.5788 2.60943 -2.86335 0
M  V30 435 H 41.9928 1.80359 -4.92515 0
M  V30 436 H 43.4668 3.41066 -4.34026 0
M  V30 437 H 43.9438 3.50499 -2.64665 0
M  V30 438 H 44.5498 2.17214 -3.65648 0
M  V30 439 N 42.8649 1.48995 0.513639 0
M  V30 440 C 43.8129 1.65199 1.63744 0
M  V30 441 C 44.8069 0.51809 1.61283 0
M  V30 442 O 46.0129 0.697335 1.65943 0
M  V30 443 H 42.3879 0.52069 0.542574 0
M  V30 444 H 44.3589 2.59552 1.47226 0
M  V30 445 C 43.1079 1.72409 3.01945 0
M  V30 446 H 42.4309 2.59029 3.04539 0
M  V30 447 H 43.8709 1.87785 3.80148 0
M  V30 448 C 42.3299 0.46618 3.33659 0
M  V30 449 O 42.8599 -0.413744 3.99564 0
M  V30 450 N 41.0659 0.332931 2.88687 0
M  V30 451 H 40.6129 1.04996 2.35231 0
M  V30 452 H 40.5709 -0.507665 3.10274 0
M  V30 453 N 44.343 -0.763751 1.37857 0
M  V30 454 C 45.29 -1.87726 1.34267 0
M  V30 455 C 46.26 -1.64807 0.206879 0
M  V30 456 O 47.445 -1.86613 0.397508 0
M  V30 457 C 44.585 -3.24896 1.16346 0
M  V30 458 C 43.698 -3.59716 2.39225 0
M  V30 459 C 42.833 -4.86137 2.14114 0
M  V30 460 C 41.872 -5.13711 3.32817 0
M  V30 461 N 41.009 -6.31323 3.07206 0
M  V30 462 H 45.849 -1.90129 2.29466 0
M  V30 463 H 43.386 -0.929433 1.14017 0
M  V30 464 H 45.344 -4.04036 1.03975 0
M  V30 465 H 43.974 -3.21847 0.247909 0
M  V30 466 H 43.026 -2.75498 2.62307 0
M  V30 467 H 44.338 -3.76027 3.27728 0
M  V30 468 H 43.492 -5.73198 1.9882 0
M  V30 469 H 42.231 -4.71945 1.22961 0
M  V30 470 H 41.236 -4.25123 3.48641 0
M  V30 471 H 42.461 -5.29807 4.24832 0
M  V30 472 H 40.407 -6.18474 2.1869 0
M  V30 473 H 40.324 -6.48087 3.89254 0
M  V30 474 H 41.592 -7.213 2.95546 0
M  V30 475 N 45.8211 -1.22559 -0.990812 0
M  V30 476 C 47.0681 -1.05141 -1.73065 0
M  V30 477 C 47.3961 0.413191 -1.9006 0
M  V30 478 O 46.6511 1.32257 -1.44245 0
M  V30 479 C 46.9501 -1.71011 -3.13831 0
M  V30 480 C 46.6161 -3.20911 -3.16745 0
M  V30 481 C 45.2781 -3.61812 -3.17247 0
M  V30 482 C 47.6301 -4.16846 -3.12872 0
M  V30 483 C 44.9581 -4.97127 -3.1158 0
M  V30 484 C 47.3101 -5.5214 -3.08746 0
M  V30 485 C 45.9741 -5.92419 -3.07565 0
M  V30 486 H 45.2441 -0.384738 -0.633291 0
M  V30 487 H 47.8911 -1.5235 -1.16025 0
M  V30 488 H 46.1961 -1.16133 -3.74193 0
M  V30 489 H 47.8931 -1.55023 -3.69823 0
M  V30 490 H 44.4831 -2.88344 -3.17105 0
M  V30 491 H 48.6671 -3.86263 -3.11632 0
M  V30 492 H 43.9231 -5.27562 -3.09012 0
M  V30 493 H 48.0971 -6.26201 -3.04705 0
M  V30 494 H 45.7241 -6.97236 -3.02929 0
M  V30 495 N 47.2992 1.18797 -1.03562 0
M  V30 496 C 48.5762 1.84469 -0.650434 0
M  V30 497 C 48.9562 1.92319 0.870433 0
M  V30 498 O 48.3042 1.44528 1.76986 0
M  V30 499 C 48.5142 3.2306 -1.32036 0
M  V30 500 C 49.8622 3.9915 -1.44792 0
M  V30 501 O 50.8862 3.32481 -1.27806 0
M  V30 502 O 49.7452 5.18587 -1.72423 0
M  V30 503 H 46.8392 0.795251 -0.226946 0
M  V30 504 H 49.3852 1.26231 -1.13419 0
M  V30 505 H 48.1572 3.1222 -2.3587 0
M  V30 506 H 47.7802 3.88949 -0.8249 0
M  V30 507 N 48.7773 0.814389 1.34928 0
M  V30 508 C 50.0053 0.411136 2.02774 0
M  V30 509 C 50.4203 -0.980316 1.61354 0
M  V30 510 O 49.7773 -1.63299 0.814847 0
M  V30 511 C 49.8283 0.493865 3.58111 0
M  V30 512 O 49.5493 1.83047 3.98027 0
M  V30 513 C 51.0503 0.0844174 4.4322 0
M  V30 514 H 48.2703 0.166037 0.650133 0
M  V30 515 H 50.8143 1.10018 1.72384 0
M  V30 516 H 48.9693 -0.147006 3.87121 0
M  V30 517 H 49.3833 1.79872 4.92693 0
M  V30 518 H 50.8573 0.193404 5.51661 0
M  V30 519 H 51.3343 -0.97113 4.28329 0
M  V30 520 H 51.9403 0.69875 4.19521 0
M  V30 521 N 50.2554 -1.46986 0.568584 0
M  V30 522 C 51.1874 -2.28233 -0.210337 0
M  V30 523 C 52.2004 -1.37682 -0.868767 0
M  V30 524 O 53.3894 -1.62406 -0.740705 0
M  V30 525 C 50.4894 -3.12293 -1.3163 0
M  V30 526 C 49.6624 -4.30878 -0.7525 0
M  V30 527 C 48.7214 -4.96445 -1.74439 0
M  V30 528 O 47.7474 -5.54482 -1.286 0
M  V30 529 N 48.9494 -4.92171 -3.07812 0
M  V30 530 H 51.7144 -2.95723 0.486648 0
M  V30 531 H 49.2754 -1.56742 0.405409 0
M  V30 532 H 51.2674 -3.53022 -1.97883 0
M  V30 533 H 49.8374 -2.46971 -1.91636 0
M  V30 534 H 49.0574 -3.94104 0.0871128 0
M  V30 535 H 50.3454 -5.07558 -0.35536 0
M  V30 536 H 49.7434 -4.46239 -3.47688 0
M  V30 537 H 48.3004 -5.36884 -3.69592 0
M  V30 538 N 51.7335 -0.305618 -1.54608 0
M  V30 539 C 52.6635 0.561482 -2.26649 0
M  V30 540 C 53.6445 1.13415 -1.26772 0
M  V30 541 O 54.8295 1.16262 -1.55553 0
M  V30 542 C 51.9595 1.73122 -3.01075 0
M  V30 543 C 50.9135 1.2887 -4.08138 0
M  V30 544 C 50.2395 2.54396 -4.70305 0
M  V30 545 C 51.5395 0.416578 -5.20636 0
M  V30 546 H 53.2335 -0.0393902 -2.99374 0
M  V30 547 H 50.7795 -0.020385 -1.43986 0
M  V30 548 H 52.7325 2.34396 -3.50195 0
M  V30 549 H 51.4565 2.3584 -2.25936 0
M  V30 550 H 50.1155 0.698991 -3.59875 0
M  V30 551 H 49.7635 3.15439 -3.918 0
M  V30 552 H 49.4635 2.25486 -5.42614 0
M  V30 553 H 50.9875 3.16464 -5.2219 0
M  V30 554 H 52.4015 0.935116 -5.65622 0
M  V30 555 H 50.7985 0.221046 -5.99693 0
M  V30 556 H 51.8685 -0.557162 -4.81688 0
M  V30 557 N 53.2116 1.57565 -0.0334293 0
M  V30 558 C 54.4586 1.91978 0.644272 0
M  V30 559 C 54.7866 0.910231 1.71887 0
M  V30 560 O 54.0416 -0.0801961 1.95536 0
M  V30 561 C 54.3406 3.33112 1.29504 0
M  V30 562 C 54.0066 4.49537 0.350388 0
M  V30 563 C 52.6686 4.81115 0.0903974 0
M  V30 564 C 55.0206 5.20347 -0.298032 0
M  V30 565 C 52.3486 5.8086 -0.825746 0
M  V30 566 C 54.7006 6.2107 -1.20226 0
M  V30 567 C 53.3646 6.51088 -1.4711 0
M  V30 568 H 52.6346 0.702496 0.235756 0
M  V30 569 H 55.2816 1.91259 -0.0961176 0
M  V30 570 H 53.5866 3.30113 2.11028 0
M  V30 571 H 55.2836 3.57011 1.82603 0
M  V30 572 H 51.8736 4.24883 0.563205 0
M  V30 573 H 56.0576 4.96178 -0.110234 0
M  V30 574 H 51.3136 6.02461 -1.04169 0
M  V30 575 H 55.4876 6.75057 -1.71086 0
M  V30 576 H 53.1146 7.28193 -2.18264 0
M  V30 577 N 54.6897 -0.239769 1.55765 0
M  V30 578 C 55.6397 -1.30002 1.87306 0
M  V30 579 C 56.6237 -1.43156 0.73452 0
M  V30 580 O 57.8157 -1.46277 0.99659 0
M  V30 581 C 54.9447 -2.65409 2.17745 0
M  V30 582 C 54.0307 -2.56231 3.37945 0
M  V30 583 N 54.4217 -2.16689 4.57033 0
M  V30 584 C 52.7197 -2.87229 3.41197 0
M  V30 585 C 53.4207 -2.18318 5.39177 0
M  V30 586 N 52.3967 -2.58098 4.78421 0
M  V30 587 H 56.1987 -0.984912 2.76906 0
M  V30 588 H 53.7127 -0.448381 1.56087 0
M  V30 589 H 55.7097 -3.41934 2.38509 0
M  V30 590 H 54.3697 -2.97781 1.29448 0
M  V30 591 H 55.3807 -1.88116 4.82528 0
M  V30 592 H 52.0577 -3.24094 2.63191 0
M  V30 593 H 53.4477 -1.90025 6.44469 0
M  V30 594 N 56.1678 -1.49265 -0.50573 0
M  V30 595 C 57.3958 -1.62215 -1.28429 0
M  V30 596 C 57.8108 -0.291697 -1.86533 0
M  V30 597 O 57.1678 0.722233 -1.67601 0
M  V30 598 C 57.2188 -2.68735 -2.41793 0
M  V30 599 O 56.9398 -3.96619 -1.86078 0
M  V30 600 C 58.4408 -2.92346 -3.3324 0
M  V30 601 H 55.6608 -0.546239 -0.389697 0
M  V30 602 H 58.2048 -1.95265 -0.607609 0
M  V30 603 H 56.3598 -2.38476 -3.053 0
M  V30 604 H 56.7738 -4.55256 -2.60465 0
M  V30 605 H 58.2478 -3.70623 -4.09075 0
M  V30 606 H 58.7248 -2.02081 -3.89948 0
M  V30 607 H 59.3308 -3.24003 -2.75503 0
M  V30 608 N 57.6459 0.756429 -1.3826 0
M  V30 609 C 58.8949 1.51082 -1.3363 0
M  V30 610 C 59.2079 1.95467 0.0720068 0
M  V30 611 O 60.4139 2.7043 0.240834 0
M  V30 612 C 58.8699 2.72893 -2.34644 0
M  V30 613 C 58.4779 2.35544 -3.81081 0
M  V30 614 C 60.2219 3.50791 -2.39052 0
M  V30 615 C 58.1289 3.53948 -4.73787 0
M  V30 616 H 57.0589 0.56727 -0.49671 0
M  V30 617 H 59.7099 0.827147 -1.638 0
M  V30 618 H 58.0919 3.43227 -1.97513 0
M  V30 619 H 59.2659 1.72894 -4.27135 0
M  V30 620 H 57.5809 1.70786 -3.79764 0
M  V30 621 H 60.1779 4.38823 -3.05513 0
M  V30 622 H 60.5209 3.91745 -1.40861 0
M  V30 623 H 61.0539 2.87467 -2.74968 0
M  V30 624 H 57.7929 3.18064 -5.73163 0
M  V30 625 H 57.3129 4.15651 -4.32428 0
M  V30 626 H 58.9919 4.20566 -4.91663 0
M  V30 627 N 59.124 1.23083 0.984299 0
M  V30 628 C 60.372 1.05848 1.72165 0
M  V30 629 C 60.693 -0.406049 1.90726 0
M  V30 630 O 59.963 -1.29139 1.47309 0
M  V30 631 H 58.543 0.388685 0.637913 0
M  V30 632 H 61.205 1.54736 1.18503 0
M  V30 633 H 60.301 1.54327 2.71274 0
M  V30 634 N 60.6021 -1.18246 1.0419 0
M  V30 635 C 61.8481 -1.88536 0.747122 0
M  V30 636 C 62.1811 -1.80223 -0.723409 0
M  V30 637 O 61.4561 -1.20337 -1.52804 0
M  V30 638 C 61.7391 -3.38968 1.21544 0
M  V30 639 C 61.5921 -3.56084 2.74816 0
M  V30 640 C 62.9111 -4.32648 0.806482 0
M  V30 641 H 60.0301 -0.684619 0.272883 0
M  V30 642 H 62.6721 -1.39113 1.29413 0
M  V30 643 H 60.8221 -3.8119 0.750081 0
M  V30 644 H 62.4941 -3.22946 3.29399 0
M  V30 645 H 60.7371 -2.98699 3.14582 0
M  V30 646 H 61.4081 -4.61639 3.02644 0
M  V30 647 H 63.8841 -3.98211 1.20695 0
M  V30 648 H 62.7601 -5.36462 1.1619 0
M  V30 649 H 63.0211 -4.41146 -0.29029 0
M  V30 650 N 62.0802 -0.821533 -1.34494 0
M  V30 651 C 62.9902 -0.244355 -2.33324 0
M  V30 652 C 64.0062 0.620527 -1.62559 0
M  V30 653 O 65.1822 0.528754 -1.94335 0
M  V30 654 C 62.2472 0.585368 -3.41723 0
M  V30 655 C 61.3082 -0.301752 -4.28238 0
M  V30 656 C 60.5412 0.488466 -5.3146 0
M  V30 657 O 60.7642 1.72186 -5.4379 0
M  V30 658 O 59.6982 -0.12848 -6.01763 0
M  V30 659 H 63.5242 -1.06231 -2.84515 0
M  V30 660 H 61.1092 -0.583645 -1.37528 0
M  V30 661 H 62.9912 1.05747 -4.07916 0
M  V30 662 H 61.6662 1.38068 -2.92778 0
M  V30 663 H 60.5732 -0.821315 -3.64973 0
M  V30 664 H 61.9062 -1.06138 -4.8062 0
M  V30 665 N 63.5583 1.46682 -0.576371 0
M  V30 666 C 64.8053 2.02412 -0.0595339 0
M  V30 667 C 65.1333 1.44859 1.29793 0
M  V30 668 O 64.3883 0.601099 1.8624 0
M  V30 669 C 64.6873 3.57345 0.062886 0
M  V30 670 C 64.3533 4.33908 -1.22616 0
M  V30 671 C 63.0153 4.54544 -1.57933 0
M  V30 672 C 65.3673 4.77919 -2.07948 0
M  V30 673 C 62.6953 5.16444 -2.78393 0
M  V30 674 C 65.0473 5.41149 -3.27629 0
M  V30 675 C 63.7113 5.60014 -3.63236 0
M  V30 676 H 62.9813 0.74068 -0.021785 0
M  V30 677 H 65.6283 1.76128 -0.751735 0
M  V30 678 H 63.9333 3.82729 0.838178 0
M  V30 679 H 65.6303 3.98136 0.478439 0
M  V30 680 H 62.2203 4.18138 -0.941202 0
M  V30 681 H 66.4043 4.61738 -1.81967 0
M  V30 682 H 61.6603 5.29242 -3.06126 0
M  V30 683 H 65.8343 5.74211 -3.94023 0
M  V30 684 H 63.4613 6.07748 -4.56669 0
M  V30 685 N 65.0364 0.313813 1.54444 0
M  V30 686 C 65.9664 -0.549454 2.26943 0
M  V30 687 C 66.9474 -1.12741 1.27372 0
M  V30 688 O 68.1324 -1.15436 1.56167 0
M  V30 689 C 65.2624 -1.71523 3.01989 0
M  V30 690 C 64.2164 -1.26703 4.08816 0
M  V30 691 C 63.5424 -2.51898 4.71647 0
M  V30 692 C 64.8424 -0.388962 5.2085 0
M  V30 693 H 66.5364 0.0552661 2.99349 0
M  V30 694 H 64.0824 0.0280207 1.43973 0
M  V30 695 H 66.0354 -2.32535 3.51433 0
M  V30 696 H 64.7594 -2.34639 2.27183 0
M  V30 697 H 63.4184 -0.679896 3.6024 0
M  V30 698 H 63.0664 -3.13356 3.93468 0
M  V30 699 H 62.7664 -2.22605 5.43802 0
M  V30 700 H 64.2904 -3.1369 5.23861 0
M  V30 701 H 65.7044 -0.905107 5.6611 0
M  V30 702 H 64.1014 -0.18924 5.99802 0
M  V30 703 H 65.1714 0.582699 4.81386 0
M  V30 704 N 66.5145 -1.57545 0.0417849 0
M  V30 705 C 67.4625 -2.12148 -0.953723 0
M  V30 706 C 68.4565 -1.05104 -1.32852 0
M  V30 707 O 69.6625 -1.23524 -1.30927 0
M  V30 708 H 66.0375 -0.677957 -0.325389 0
M  V30 709 H 68.0085 -2.94707 -0.467991 0
M  V30 710 C 66.7575 -2.6739 -2.22257 0
M  V30 711 H 66.0805 -3.49413 -1.94295 0
M  V30 712 H 67.5205 -3.09227 -2.90094 0
M  V30 713 C 65.9795 -1.60723 -2.96091 0
M  V30 714 O 66.5095 -1.01449 -3.88679 0
M  V30 715 N 64.7155 -1.32466 -2.58652 0
M  V30 716 H 64.2625 -1.80856 -1.83437 0
M  V30 717 H 64.2205 -0.61325 -3.08361 0
M  V30 718 N 67.9926 0.231505 -1.5589 0
M  V30 719 C 68.9396 1.28682 -1.91598 0
M  V30 720 C 69.9096 1.47071 -0.771974 0
M  V30 721 O 71.0946 1.60802 -1.027 0
M  V30 722 C 68.2346 2.6342 -2.22944 0
M  V30 723 C 67.3476 2.52912 -3.50228 0
M  V30 724 C 66.4826 3.80106 -3.7107 0
M  V30 725 C 65.5216 3.64279 -4.91902 0
M  V30 726 N 64.6586 4.834 -5.09184 0
M  V30 727 H 69.4986 0.975305 -2.81588 0
M  V30 728 H 67.0356 0.470299 -1.39379 0
M  V30 729 H 68.9936 3.41869 -2.39126 0
M  V30 730 H 67.6236 2.92687 -1.36139 0
M  V30 731 H 66.6756 1.6595 -3.42294 0
M  V30 732 H 67.9876 2.37133 -4.38827 0
M  V30 733 H 67.1416 4.66999 -3.87295 0
M  V30 734 H 65.8806 3.98799 -2.80733 0
M  V30 735 H 64.8856 2.7577 -4.75637 0
M  V30 736 H 66.1106 3.47067 -5.83714 0
M  V30 737 H 64.0566 5.02425 -4.21788 0
M  V30 738 H 63.9736 4.70311 -5.91898 0
M  V30 739 H 65.2416 5.71747 -5.29835 0
M  V30 740 N 69.4707 1.49531 0.497807 0
M  V30 741 C 70.7477 1.49682 1.25915 0
M  V30 742 C 71.1277 0.226339 2.09883 0
M  V30 743 O 70.4757 -0.791189 2.14365 0
M  V30 744 C 70.6857 2.77755 2.11313 0
M  V30 745 C 72.0337 3.27371 2.70395 0
M  V30 746 O 73.0577 2.78894 2.21578 0
M  V30 747 O 71.9167 4.11808 3.59272 0
M  V30 748 H 69.0107 0.599228 0.56996 0
M  V30 749 H 71.5567 1.61798 0.511816 0
M  V30 750 H 70.3287 3.61713 1.49264 0
M  V30 751 H 69.9517 2.68515 2.93233 0
M  V30 752 N 70.9488 -0.749086 1.3866 0
M  V30 753 C 71.8788 -1.8764 1.38973 0
M  V30 754 C 72.8598 -1.68178 0.255004 0
M  V30 755 O 74.0448 -1.88704 0.458754 0
M  V30 756 C 71.1748 -3.25222 1.21851 0
M  V30 757 C 70.1288 -3.59295 2.32575 0
M  V30 758 C 69.4548 -4.95663 2.00555 0
M  V30 759 C 70.7548 -3.63709 3.7485 0
M  V30 760 H 72.4488 -1.87635 2.3331 0
M  V30 761 H 69.9948 -0.901329 1.12303 0
M  V30 762 H 71.9478 -4.03746 1.20695 0
M  V30 763 H 70.6718 -3.25719 0.239775 0
M  V30 764 H 69.3308 -2.83093 2.32925 0
M  V30 765 H 68.9788 -4.92724 1.01154 0
M  V30 766 H 68.6788 -5.19429 2.74714 0
M  V30 767 H 70.2028 -5.7656 2.01024 0
M  V30 768 H 71.6168 -4.32338 3.76506 0
M  V30 769 H 70.0138 -3.98986 4.48252 0
M  V30 770 H 71.0838 -2.63834 4.06841 0
M  V30 771 N 72.4269 -1.23603 -0.977757 0
M  V30 772 C 73.3369 -1.03632 -2.1047 0
M  V30 773 C 74.3529 0.0199435 -1.73989 0
M  V30 774 O 75.5289 -0.176076 -2.00629 0
M  V30 775 C 72.5939 -0.63276 -3.40877 0
M  V30 776 C 71.6549 -1.76437 -3.91367 0
M  V30 777 C 70.8879 -1.37997 -5.15551 0
M  V30 778 O 71.1109 -0.265357 -5.69782 0
M  V30 779 O 70.0449 -2.20201 -5.60174 0
M  V30 780 H 73.8709 -1.98086 -2.30208 0
M  V30 781 H 71.4559 -1.02332 -1.08851 0
M  V30 782 H 73.3379 -0.418761 -4.19314 0
M  V30 783 H 72.0129 0.282754 -3.22463 0
M  V30 784 H 70.9199 -2.03304 -3.14036 0
M  V30 785 H 72.2529 -2.6583 -4.14241 0
M  V30 786 N 73.905 1.17692 -1.04816 0
M  V30 787 C 75.151 1.88137 -0.75711 0
M  V30 788 C 75.484 1.80604 0.713841 0
M  V30 789 O 74.759 1.21146 1.52164 0
M  V30 790 C 75.042 3.38318 -1.2334 0
M  V30 791 C 74.895 3.54622 -2.76701 0
M  V30 792 C 76.214 4.32214 -0.829415 0
M  V30 793 H 73.333 0.683163 -0.27651 0
M  V30 794 H 75.975 1.38424 -1.30149 0
M  V30 795 H 74.125 3.80787 -0.770286 0
M  V30 796 H 75.797 3.21194 -3.31107 0
M  V30 797 H 74.04 2.97026 -3.16161 0
M  V30 798 H 74.711 4.60028 -3.05088 0
M  V30 799 H 77.187 3.97565 -1.22805 0
M  V30 800 H 76.063 5.35838 -1.19033 0
M  V30 801 H 76.324 4.41294 0.266891 0
M  V30 802 N 75.3831 0.828654 1.34056 0
M  V30 803 C 76.6601 0.341809 1.9259 0
M  V30 804 C 77.0401 -1.17158 1.75605 0
M  V30 805 O 76.3881 -1.98132 1.13824 0
M  V30 806 C 76.5981 0.777453 3.4023 0
M  V30 807 C 77.9461 0.779579 4.17382 0
M  V30 808 O 78.9701 0.7204 3.48839 0
M  V30 809 O 77.8291 0.857996 5.39723 0
M  V30 810 H 74.9231 0.0946085 0.821571 0
M  V30 811 H 77.4691 0.913827 1.42994 0
M  V30 812 H 76.2411 1.8196 3.46419 0
M  V30 813 H 75.8641 0.181444 3.97186 0
M  V30 814 N 76.8612 -1.46375 0.584142 0
M  V30 815 C 78.1092 -2.01978 0.0701287 0
M  V30 816 C 78.4302 -1.4579 -1.295 0
M  V30 817 O 77.7002 -0.64314 -1.85042 0
M  V30 818 H 76.2802 -0.746648 0.0229345 0
M  V30 819 H 78.9422 -1.79461 0.760245 0
M  V30 820 H 78.0382 -3.121 0.0022064 0
M  V30 821 N 78.3393 -0.321999 -1.54275 0
M  V30 822 C 79.2893 0.560185 -2.21011 0
M  V30 823 C 80.2733 1.08283 -1.19011 0
M  V30 824 O 81.4653 1.02011 -1.44647 0
M  V30 825 C 78.5943 1.72137 -2.97025 0
M  V30 826 C 77.6803 1.21369 -4.06363 0
M  V30 827 N 78.0713 0.425566 -5.04007 0
M  V30 828 C 76.3693 1.49255 -4.20284 0
M  V30 829 C 77.0703 0.152601 -5.815 0
M  V30 830 N 76.0463 0.738294 -5.38563 0
M  V30 831 H 79.8483 -0.049265 -2.93859 0
M  V30 832 H 77.3623 -0.127779 -1.61897 0
M  V30 833 H 79.3593 2.36512 -3.43319 0
M  V30 834 H 78.0193 2.33431 -2.25699 0
M  V30 835 H 79.0303 0.068551 -5.17855 0
M  V30 836 H 75.7073 2.11145 -3.60172 0
M  V30 837 H 77.0973 -0.481764 -6.70171 0
M  V30 838 N 79.8174 1.5752 -0.0501392 0
M  V30 839 C 81.0644 1.9265 0.623874 0
M  V30 840 C 81.3924 0.928411 1.70912 0
M  V30 841 O 80.6474 -0.0594525 1.9561 0
M  V30 842 C 80.9464 3.34467 1.25963 0
M  V30 843 C 80.6124 4.49883 0.302689 0
M  V30 844 C 79.2744 4.81184 0.0393636 0
M  V30 845 C 81.6264 5.20002 -0.353205 0
M  V30 846 C 78.9544 5.79951 -0.887308 0
M  V30 847 C 81.3064 6.1976 -1.26806 0
M  V30 848 C 79.9704 6.49491 -1.54007 0
M  V30 849 H 79.2404 0.704957 0.228292 0
M  V30 850 H 81.8874 1.91146 -0.116398 0
M  V30 851 H 80.1924 3.32333 2.07514 0
M  V30 852 H 81.8894 3.58928 1.78806 0
M  V30 853 H 78.4794 4.25457 0.518109 0
M  V30 854 H 82.6634 4.96033 -0.162854 0
M  V30 855 H 77.9194 6.01322 -1.10553 0
M  V30 856 H 82.0934 6.73205 -1.78236 0
M  V30 857 H 79.7204 7.25837 -2.25976 0
M  V30 858 N 81.2955 -0.223234 1.56011 0
M  V30 859 C 82.5415 -0.949279 1.79211 0
M  V30 860 C 82.8745 -1.84054 0.619494 0
M  V30 861 O 82.1495 -1.90726 -0.381317 0
M  V30 862 C 82.4325 -1.78965 3.12479 0
M  V30 863 C 82.2855 -0.924997 4.40186 0
M  V30 864 C 83.6045 -2.76774 3.42175 0
M  V30 865 H 80.7235 -0.343676 0.651963 0
M  V30 866 H 83.3655 -0.218253 1.88742 0
M  V30 867 H 81.5155 -2.41291 3.04485 0
M  V30 868 H 83.1875 -0.318615 4.60198 0
M  V30 869 H 81.4305 -0.230344 4.33188 0
M  V30 870 H 82.1015 -1.54735 5.29869 0
M  V30 871 H 84.5775 -2.24584 3.50287 0
M  V30 872 H 83.4535 -3.32678 4.36597 0
M  V30 873 H 83.7145 -3.54429 2.64258 0
M  V30 874 N 82.7736 -1.49793 -0.48987 0
M  V30 875 C 84.0016 -1.63568 -1.26701 0
M  V30 876 C 84.4166 -0.311465 -1.86213 0
M  V30 877 O 83.7736 0.704416 -1.68357 0
M  V30 878 C 83.8246 -2.71284 -2.38929 0
M  V30 879 O 83.5456 -3.9857 -1.81861 0
M  V30 880 C 85.0466 -2.95864 -3.3012 0
M  V30 881 H 82.2666 -0.550342 -0.383881 0
M  V30 882 H 84.8106 -1.95898 -0.586864 0
M  V30 883 H 82.9656 -2.417 -3.02753 0
M  V30 884 H 83.3796 -4.57993 -2.55622 0
M  V30 885 H 84.8536 -3.74941 -4.05121 0
M  V30 886 H 85.3306 -2.06206 -3.87783 0
M  V30 887 H 85.9366 -3.26907 -2.72051 0
M  V30 888 N 84.2517 0.741722 -1.39055 0
M  V30 889 C 85.1847 1.86416 -1.31622 0
M  V30 890 C 86.1627 1.61473 -0.191076 0
M  V30 891 O 87.3467 1.84825 -0.370399 0
M  V30 892 C 84.4737 3.22266 -1.04221 0
M  V30 893 C 83.5197 3.66079 -2.18834 0
M  V30 894 S 84.3527 3.7623 -3.81066 0
M  V30 895 C 85.5087 5.14881 -3.55877 0
M  V30 896 H 85.7417 1.92437 -2.26617 0
M  V30 897 H 83.2747 0.905907 -1.25031 0
M  V30 898 H 85.2327 4.00714 -0.890964 0
M  V30 899 H 83.8937 3.1391 -0.109237 0
M  V30 900 H 83.0867 4.64648 -1.95238 0
M  V30 901 H 82.6887 2.94817 -2.30128 0
M  V30 902 H 84.9807 6.01006 -3.12726 0
M  V30 903 H 85.9237 5.43503 -4.53884 0
M  V30 904 H 86.3317 4.84239 -2.90126 0
M  V30 905 N 85.7298 1.2412 0.971189 0
M  V30 906 C 86.6618 0.988349 2.06795 0
M  V30 907 C 87.6748 -0.0409541 1.62748 0
M  V30 908 O 88.8638 0.195673 1.77424 0
M  V30 909 C 85.9638 0.469023 3.35639 0
M  V30 910 C 85.1368 1.56065 4.08611 0
M  V30 911 C 84.1958 1.04458 5.15728 0
M  V30 912 O 83.2218 1.73553 5.42096 0
M  V30 913 N 84.4238 -0.122817 5.8037 0
M  V30 914 H 87.1888 1.93265 2.29061 0
M  V30 915 H 84.7498 1.15102 1.13856 0
M  V30 916 H 86.7418 0.108613 4.04554 0
M  V30 917 H 85.3118 -0.380919 3.1027 0
M  V30 918 H 84.5318 2.09341 3.34021 0
M  V30 919 H 85.8198 2.29449 4.54126 0
M  V30 920 H 85.2178 -0.700563 5.61345 0
M  V30 921 H 83.7748 -0.424404 6.50417 0
M  V30 922 N 87.2079 -1.17134 1.05439 0
M  V30 923 C 88.4569 -1.86791 0.761049 0
M  V30 924 C 88.7699 -1.82072 -0.714795 0
M  V30 925 O 89.9759 -2.47223 -1.12218 0
M  V30 926 C 88.4319 -3.35166 1.31117 0
M  V30 927 C 88.0399 -3.48381 2.81664 0
M  V30 928 C 89.7839 -4.10134 1.09499 0
M  V30 929 C 87.6909 -4.90793 3.29964 0
M  V30 930 H 86.6209 -0.699681 0.281002 0
M  V30 931 H 89.2719 -1.3226 1.27199 0
M  V30 932 H 87.6539 -3.8925 0.72803 0
M  V30 933 H 88.8279 -3.04502 3.45855 0
M  V30 934 H 87.1429 -2.86836 3.01851 0
M  V30 935 H 89.7399 -5.152 1.43084 0
M  V30 936 H 90.0829 -4.16287 0.0328772 0
M  V30 937 H 90.6159 -3.62264 1.64346 0
M  V30 938 H 87.3549 -4.89816 4.35616 0
M  V30 939 H 86.8749 -5.35333 2.70516 0
M  V30 940 H 88.5539 -5.59573 3.24787 0
M  V30 941 N 88.686 -0.835752 -1.33615 0
M  V30 942 C 89.932 -0.439817 -1.98588 0
M  V30 943 C 90.287 0.989274 -1.65019 0
M  V30 944 O 89.58 1.68168 -0.918159 0
M  V30 945 C 89.774 -0.593925 -3.52431 0
M  V30 946 C 89.603 -2.03644 -4.00948 0
M  V30 947 C 88.373 -2.67103 -4.28934 0
M  V30 948 C 90.571 -3.00479 -4.17393 0
M  V30 949 N 88.553 -4.02462 -4.6357 0
M  V30 950 C 89.924 -4.20777 -4.55353 0
M  V30 951 C 91.979 -2.96926 -3.99674 0
M  V30 952 C 90.682 -5.37994 -4.77447 0
M  V30 953 C 92.708 -4.1337 -4.22941 0
M  V30 954 C 92.07 -5.32422 -4.61201 0
M  V30 955 H 88.169 -0.209303 -0.75347 0
M  V30 956 H 90.753 -1.08316 -1.61789 0
M  V30 957 H 88.924 0.019599 -3.88395 0
M  V30 958 H 90.656 -0.169738 -4.04344 0
M  V30 959 H 87.411 -2.18259 -4.20309 0
M  V30 960 H 87.835 -4.72232 -4.85104 0
M  V30 961 H 92.477 -2.06015 -3.69212 0
M  V30 962 H 90.195 -6.29451 -5.06771 0
M  V30 963 H 93.781 -4.12034 -4.10754 0
M  V30 964 H 92.661 -6.21027 -4.78848 0
M  V30 965 N 90.1641 1.46063 -0.591896 0
M  V30 966 C 91.4411 1.95595 -0.0137119 0
M  V30 967 C 91.8211 1.5345 1.4497 0
M  V30 968 O 91.1691 0.789543 2.14426 0
M  V30 969 C 91.3791 3.48453 -0.195373 0
M  V30 970 C 92.7271 4.24546 -0.0679765 0
M  V30 971 O 93.7511 3.55982 -0.124681 0
M  V30 972 O 92.6101 5.46467 0.0600579 0
M  V30 973 H 89.7041 0.825795 0.0446279 0
M  V30 974 H 92.2501 1.56303 -0.660859 0
M  V30 975 H 91.0221 3.72045 -1.21235 0
M  V30 976 H 90.6451 3.94597 0.487775 0
M  V30 977 N 91.6422 0.330177 1.54103 0
M  V30 978 C 92.8702 -0.272179 2.05102 0
M  V30 979 C 93.2852 -1.45267 1.20595 0
M  V30 980 O 92.6422 -1.8094 0.238144 0
M  V30 981 C 92.6932 -0.70023 3.54653 0
M  V30 982 O 92.4142 0.433301 4.35952 0
M  V30 983 C 93.9152 -1.3647 4.21771 0
M  V30 984 H 91.1352 -0.0549159 0.668749 0
M  V30 985 H 93.6792 0.478285 1.98828 0
M  V30 986 H 91.8342 -1.40066 3.61193 0
M  V30 987 H 92.2482 0.0947539 5.24414 0
M  V30 988 H 93.7222 -1.61509 5.27843 0
M  V30 989 H 94.1992 -2.31409 3.73292 0
M  V30 990 H 94.8052 -0.706675 4.19388 0
M  V30 991 N 93.1203 -1.57491 0.0584922 0
M  V30 992 C 94.0833 -2.1085 -0.898617 0
M  V30 993 C 95.0833 -1.02964 -1.23511 0
M  V30 994 O 96.2733 -1.29007 -1.17059 0
M  V30 995 C 93.4053 -2.59881 -2.20623 0
M  V30 996 H 94.5983 -2.96715 -0.435936 0
M  V30 997 H 92.1513 -1.55141 -0.190023 0
M  V30 998 H 92.8863 -1.77431 -2.71457 0
M  V30 999 H 92.6713 -3.38727 -1.97501 0
M  V30 1000 H 94.1613 -3.01285 -2.89166 0
M  V30 1001 N 94.5984 0.214957 -1.56127 0
M  V30 1002 C 95.8464 0.936518 -1.79091 0
M  V30 1003 C 96.1674 1.84606 -0.628148 0
M  V30 1004 O 95.4374 1.92664 0.35462 0
M  V30 1005 H 94.0174 0.3488 -0.660566 0
M  V30 1006 H 96.6794 0.22523 -1.93594 0
M  V30 1007 H 95.7754 1.53943 -2.71492 0
M  V30 1008 N 96.0765 1.50051 0.48192 0
M  V30 1009 C 97.0085 1.64263 1.59844 0
M  V30 1010 C 98.0215 0.52451 1.54119 0
M  V30 1011 O 99.2105 0.797293 1.59704 0
M  V30 1012 C 96.3105 1.60102 2.98698 0
M  V30 1013 C 95.4835 2.87767 3.29407 0
M  V30 1014 C 94.5425 2.76397 4.47762 0
M  V30 1015 O 93.5685 3.50348 4.48603 0
M  V30 1016 N 94.7705 1.89222 5.48794 0
M  V30 1017 H 97.5355 2.60566 1.48073 0
M  V30 1018 H 95.0965 1.47379 0.670149 0
M  V30 1019 H 97.0885 1.50123 3.75826 0
M  V30 1020 H 95.6585 0.715798 3.04294 0
M  V30 1021 H 94.8785 3.11954 2.40994 0
M  V30 1022 H 96.1665 3.72365 3.4673 0
M  V30 1023 H 95.5645 1.28434 5.50928 0
M  V30 1024 H 94.1215 1.85154 6.24949 0
M  V30 1025 N 97.5546 -0.734337 1.39446 0
M  V30 1026 C 98.4646 -1.87879 1.40495 0
M  V30 1027 C 99.4806 -1.714 0.299672 0
M  V30 1028 O 100.657 -1.93991 0.541249 0
M  V30 1029 C 97.7216 -3.23477 1.24754 0
M  V30 1030 C 96.7826 -3.52344 2.45259 0
M  V30 1031 C 96.0156 -4.81473 2.30259 0
M  V30 1032 O 96.2386 -5.55237 1.30643 0
M  V30 1033 O 95.1726 -5.10254 3.19256 0
M  V30 1034 H 98.9986 -1.89949 2.36966 0
M  V30 1035 H 96.5836 -0.882243 1.20569 0
M  V30 1036 H 98.4656 -4.04509 1.18111 0
M  V30 1037 H 97.1406 -3.22176 0.313781 0
M  V30 1038 H 96.0476 -2.71396 2.57478 0
M  V30 1039 H 97.3806 -3.58426 3.37331 0
M  V30 1040 N 99.0327 -1.24633 -0.964593 0
M  V30 1041 C 100.449 -1.01239 -1.2338 0
M  V30 1042 C 100.649 0.2769 -1.99588 0
M  V30 1043 O 99.7047 0.992241 -2.32187 0
M  V30 1044 C 101.018 -2.22937 -2.01791 0
M  V30 1045 C 102.566 -2.27594 -2.14872 0
M  V30 1046 C 103.041 -3.48921 -2.96678 0
M  V30 1047 N 104.532 -3.49257 -3.04259 0
M  V30 1048 C 105.267 -4.39795 -3.67924 0
M  V30 1049 N 104.763 -5.40591 -4.33281 0
M  V30 1050 N 106.556 -4.275 -3.64966 0
M  V30 1051 H 98.7067 -2.0748 -0.454502 0
M  V30 1052 H 100.97 -0.910647 -0.26349 0
M  V30 1053 H 100.676 -3.16587 -1.53184 0
M  V30 1054 H 100.55 -2.25306 -3.02518 0
M  V30 1055 H 102.937 -1.34473 -2.6268 0
M  V30 1056 H 103.018 -2.2925 -1.13482 0
M  V30 1057 H 102.662 -4.42359 -2.49562 0
M  V30 1058 H 102.592 -3.4451 -3.98272 0
M  V30 1059 H 105.083 -2.76337 -2.57771 0
M  V30 1060 H 105.396 -6.05904 -4.79687 0
M  V30 1061 H 103.741 -5.44475 -4.3194 0
M  V30 1062 H 106.932 -3.47987 -3.13086 0
M  V30 1063 H 107.105 -4.98258 -4.14298 0
M  V30 1064 N 100.511 1.16574 -1.06058 0
M  V30 1065 C 101.758 1.87047 -0.775873 0
M  V30 1066 C 102.086 1.81562 0.697534 0
M  V30 1067 O 101.341 1.22445 1.52662 0
M  V30 1068 C 101.64 3.36195 -1.21275 0
M  V30 1069 C 101.306 3.6188 -2.68986 0
M  V30 1070 C 99.9678 3.68599 -3.09335 0
M  V30 1071 C 102.32 3.72648 -3.64394 0
M  V30 1072 C 99.6478 3.83584 -4.43937 0
M  V30 1073 C 102 3.89154 -4.98741 0
M  V30 1074 C 100.664 3.94114 -5.3873 0
M  V30 1075 H 99.9338 0.684452 -0.283912 0
M  V30 1076 H 102.581 1.37853 -1.32925 0
M  V30 1077 H 100.886 3.87505 -0.578528 0
M  V30 1078 H 102.583 3.89103 -0.969542 0
M  V30 1079 H 99.1728 3.57281 -2.36744 0
M  V30 1080 H 103.357 3.66769 -3.34356 0
M  V30 1081 H 98.6128 3.85677 -4.74409 0
M  V30 1082 H 102.787 3.96427 -5.72554 0
M  V30 1083 H 100.414 4.05478 -6.43033 0
M  V30 1084 N 101.989 0.842826 1.3317 0
M  V30 1085 C 103.405 0.531128 1.50503 0
M  V30 1086 C 103.605 -0.940734 1.78192 0
M  V30 1087 O 102.661 -1.72436 1.84451 0
M  V30 1088 C 103.974 1.40789 2.65705 0
M  V30 1089 C 105.522 1.40708 2.79589 0
M  V30 1090 C 105.997 2.26878 3.97857 0
M  V30 1091 N 107.488 2.24609 4.05099 0
M  V30 1092 C 108.223 2.88019 4.95815 0
M  V30 1093 N 107.719 3.60496 5.9162 0
M  V30 1094 N 109.512 2.77469 4.88843 0
M  V30 1095 H 101.663 1.79557 1.1346 0
M  V30 1096 H 103.926 0.766267 0.558156 0
M  V30 1097 H 103.632 2.454 2.51936 0
M  V30 1098 H 103.506 1.08677 3.61205 0
M  V30 1099 H 105.893 0.368668 2.92788 0
M  V30 1100 H 105.974 1.76829 1.84838 0
M  V30 1101 H 105.618 3.3078 3.85418 0
M  V30 1102 H 105.548 1.88096 4.91861 0
M  V30 1103 H 108.039 1.71906 3.36536 0
M  V30 1104 H 108.352 4.06076 6.57512 0
M  V30 1105 H 106.697 3.64604 5.91683 0
M  V30 1106 H 109.888 2.20406 4.12963 0
M  V30 1107 H 110.061 3.2717 5.59342 0
M  V30 1108 N 103.467 -1.45747 0.599634 0
M  V30 1109 C 104.692 -2.07178 0.0960198 0
M  V30 1110 C 105.117 -1.44268 -1.207 0
M  V30 1111 O 104.475 -0.532503 -1.73303 0
M  V30 1112 C 104.523 -3.60579 -0.0385348 0
M  V30 1113 O 103.627 -3.97713 -1.0908 0
M  V30 1114 H 102.968 -0.660251 0.0704593 0
M  V30 1115 H 105.498 -1.87124 0.827385 0
M  V30 1116 H 105.508 -4.07298 -0.239304 0
M  V30 1117 H 104.183 -4.05756 0.912947 0
M  V30 1118 H 102.76 -3.62678 -0.867135 0
M  V30 1119 N 104.945 -0.338344 -1.53925 0
M  V30 1120 C 105.875 0.51328 -2.27789 0
M  V30 1121 C 106.856 1.107 -1.29149 0
M  V30 1122 O 108.041 1.12937 -1.57984 0
M  V30 1123 C 105.171 1.66697 -3.04679 0
M  V30 1124 C 104.125 1.20183 -4.1078 0
M  V30 1125 C 103.451 2.44363 -4.75595 0
M  V30 1126 C 104.751 0.30605 -5.21403 0
M  V30 1127 H 106.445 -0.102883 -2.99223 0
M  V30 1128 H 103.991 -0.0509219 -1.4391 0
M  V30 1129 H 105.944 2.26915 -3.55088 0
M  V30 1130 H 104.668 2.30995 -2.30887 0
M  V30 1131 H 103.327 0.622499 -3.61276 0
M  V30 1132 H 102.975 3.07057 -3.98403 0
M  V30 1133 H 102.675 2.13925 -5.47275 0
M  V30 1134 H 104.199 3.05317 -5.28786 0
M  V30 1135 H 105.613 0.814929 -5.67478 0
M  V30 1136 H 104.01 0.0937929 -6.00027 0
M  V30 1137 H 105.08 -0.65921 -4.80398 0
M  V30 1138 N 106.423 1.57458 -0.0668435 0
M  V30 1139 C 107.839 1.56947 0.289772 0
M  V30 1140 C 108.039 1.07584 1.70376 0
M  V30 1141 O 107.095 0.739486 2.41429 0
M  V30 1142 C 108.408 3.0052 0.103943 0
M  V30 1143 C 109.956 3.12517 0.173857 0
M  V30 1144 C 110.431 4.57997 0.0163682 0
M  V30 1145 N 111.922 4.63144 0.0721352 0
M  V30 1146 C 112.657 5.73394 -0.0253794 0
M  V30 1147 N 112.153 6.92576 -0.176133 0
M  V30 1148 N 113.946 5.62091 0.0313305 0
M  V30 1149 H 106.097 1.87863 -0.991027 0
M  V30 1150 H 108.36 0.86583 -0.38606 0
M  V30 1151 H 108.066 3.40729 -0.871572 0
M  V30 1152 H 107.94 3.67304 0.858366 0
M  V30 1153 H 110.327 2.72197 1.13985 0
M  V30 1154 H 110.408 2.48381 -0.611586 0
M  V30 1155 H 110.052 4.99005 -0.946374 0
M  V30 1156 H 109.982 5.20158 0.821153 0
M  V30 1157 H 112.473 3.77436 0.187263 0
M  V30 1158 H 112.786 7.72418 -0.242821 0
M  V30 1159 H 111.131 6.94678 -0.211429 0
M  V30 1160 H 114.322 4.67867 0.147773 0
M  V30 1161 H 114.495 6.47982 -0.048121 0
M  V30 1162 N 107.901 -0.206675 1.56239 0
M  V30 1163 C 109.129 -0.945345 1.8404 0
M  V30 1164 C 109.544 -1.77336 0.647885 0
M  V30 1165 O 108.901 -1.78425 -0.383511 0
M  V30 1166 C 108.952 -1.8509 3.10522 0
M  V30 1167 O 108.673 -1.05634 4.25174 0
M  V30 1168 C 110.174 -2.70222 3.51418 0
M  V30 1169 H 107.394 -0.276372 0.61144 0
M  V30 1170 H 109.938 -0.217417 2.03341 0
M  V30 1171 H 108.093 -2.53259 2.93153 0
M  V30 1172 H 108.507 -1.67238 4.97124 0
M  V30 1173 H 109.981 -3.29438 4.42916 0
M  V30 1174 H 110.458 -3.43358 2.73864 0
M  V30 1175 H 111.064 -2.07443 3.71278 0
M  V30 1176 N 109.379 -1.50304 -0.473955 0
M  V30 1177 C 110.79 -1.54042 -1.0549 0
M  V30 1178 C 111.141 -0.342248 -1.93192 0
M  V30 1179 O 110.266 0.545157 -2.09421 0
M  V30 1180 C 110.861 -2.79152 -1.91989 0
M  V30 1181 C 109.42 -2.8558 -2.45196 0
M  V30 1182 C 108.567 -2.48295 -1.2347 0
M  V30 1183 H 111.518 -1.5661 -0.256693 0
M  V30 1184 H 111.539 -2.60845 -2.7702 0
M  V30 1185 H 111.051 -3.66339 -1.28131 0
M  V30 1186 H 109.152 -2.02738 -3.12615 0
M  V30 1187 H 109.265 -3.88403 -2.80499 0
M  V30 1188 H 107.629 -2.00669 -1.56856 0
M  V30 1189 H 108.412 -3.37787 -0.612789 0
M  V30 1190 N 110.857 0.726932 -1.39834 0
M  V30 1191 C 112.104 1.48664 -1.37496 0
M  V30 1192 C 112.432 1.94482 0.0264678 0
M  V30 1193 O 111.687 1.67692 1.00886 0
M  V30 1194 C 111.986 2.73495 -2.30077 0
M  V30 1195 C 111.652 2.46502 -3.77555 0
M  V30 1196 C 110.314 2.3885 -4.17737 0
M  V30 1197 C 112.666 2.23604 -4.70798 0
M  V30 1198 C 109.994 2.06352 -5.49214 0
M  V30 1199 C 112.346 1.92622 -6.02561 0
M  V30 1200 C 111.01 1.83444 -6.41798 0
M  V30 1201 H 110.28 0.544001 -0.503135 0
M  V30 1202 H 112.927 0.833657 -1.72402 0
M  V30 1203 H 111.232 3.43575 -1.88317 0
M  V30 1204 H 112.929 3.31549 -2.25558 0
M  V30 1205 H 109.519 2.5334 -3.45712 0
M  V30 1206 H 113.703 2.28479 -4.40581 0
M  V30 1207 H 108.959 1.97776 -5.78528 0
M  V30 1208 H 113.133 1.73914 -6.74334 0
M  V30 1209 H 110.76 1.58029 -7.43593 0
M  V30 1210 N 112.336 1.25143 0.95797 0
M  V30 1211 C 113.566 1.12261 1.73439 0
M  V30 1212 C 113.974 -0.326715 1.86358 0
M  V30 1213 O 113.317 -1.2367 1.35836 0
M  V30 1214 C 113.379 1.69966 3.16784 0
M  V30 1215 C 113.043 3.18936 3.27305 0
M  V30 1216 C 114.04 4.15968 3.11877 0
M  V30 1217 C 111.725 3.59083 3.51234 0
M  V30 1218 C 113.719 5.51126 3.20217 0
M  V30 1219 C 111.406 4.9438 3.5921 0
M  V30 1220 C 112.404 5.90211 3.43716 0
M  V30 1221 O 112.092 7.23046 3.51368 0
M  V30 1222 H 111.824 0.392476 0.550399 0
M  V30 1223 H 114.378 1.65927 1.21068 0
M  V30 1224 H 112.608 1.10744 3.70503 0
M  V30 1225 H 114.297 1.52232 3.76272 0
M  V30 1226 H 115.063 3.86292 2.93264 0
M  V30 1227 H 110.942 2.84989 3.62356 0
M  V30 1228 H 114.486 6.25905 3.0804 0
M  V30 1229 H 110.383 5.23723 3.77339 0
M  V30 1230 H 111.151 7.31097 3.6802 0
M  V30 1231 N 113.814 -1.1601 1.06675 0
M  V30 1232 C 115.23 -1.38622 0.790948 0
M  V30 1233 C 115.43 -1.92109 -0.607965 0
M  V30 1234 O 114.486 -2.12239 -1.36787 0
M  V30 1235 C 115.799 -2.36347 1.85905 0
M  V30 1236 C 117.347 -2.50023 1.88301 0
M  V30 1237 C 117.822 -3.51033 2.94176 0
M  V30 1238 N 119.313 -3.58563 2.93235 0
M  V30 1239 C 120.048 -4.36521 3.71803 0
M  V30 1240 N 119.544 -5.17869 4.602 0
M  V30 1241 N 121.337 -4.31541 3.60178 0
M  V30 1242 H 113.488 -0.796294 1.96908 0
M  V30 1243 H 115.751 -0.412597 0.853503 0
M  V30 1244 H 115.457 -2.04147 2.86386 0
M  V30 1245 H 115.331 -3.36042 1.71334 0
M  V30 1246 H 117.718 -2.81524 0.884769 0
M  V30 1247 H 117.799 -1.5035 2.06951 0
M  V30 1248 H 117.443 -3.20268 3.94196 0
M  V30 1249 H 117.373 -4.50445 2.72776 0
M  V30 1250 H 119.864 -3.00496 2.29152 0
M  V30 1251 H 120.177 -5.74578 5.16797 0
M  V30 1252 H 118.522 -5.17199 4.64253 0
M  V30 1253 H 121.713 -3.67051 2.90502 0
M  V30 1254 H 121.886 -4.9205 4.21653 0
M  V30 1255 N 115.292 -0.849877 -1.32721 0
M  V30 1256 C 116.54 -0.450032 -1.97026 0
M  V30 1257 C 116.861 0.996604 -1.67609 0
M  V30 1258 O 116.131 1.6958 -0.980786 0
M  V30 1259 H 114.711 -0.163426 -0.728904 0
M  V30 1260 H 117.373 -1.08526 -1.6189 0
M  V30 1261 H 116.469 -0.591146 -3.0645 0
M  V30 1262 N 116.77 1.45427 -0.607355 0
M  V30 1263 C 117.995 2.07124 -0.107006 0
M  V30 1264 C 118.42 1.44906 1.19933 0
M  V30 1265 O 117.778 0.541687 1.73019 0
M  V30 1266 C 117.826 3.60595 0.0194119 0
M  V30 1267 O 116.93 3.98285 1.0697 0
M  V30 1268 H 116.271 0.659868 -0.0739597 0
M  V30 1269 H 118.801 1.86683 -0.837297 0
M  V30 1270 H 118.811 4.07419 0.2177 0
M  V30 1271 H 117.486 4.05266 -0.934453 0
M  V30 1272 H 116.063 3.63133 0.847889 0
M  V30 1273 N 118.248 0.346503 1.53744 0
M  V30 1274 C 119.525 -0.304532 1.93215 0
M  V30 1275 C 119.905 -1.67993 1.27834 0
M  V30 1276 O 119.253 -2.24411 0.430352 0
M  V30 1277 C 119.463 -0.373852 3.46992 0
M  V30 1278 C 120.811 -0.62329 4.2 0
M  V30 1279 O 121.835 -0.455847 3.53271 0
M  V30 1280 O 120.694 -0.947879 5.38217 0
M  V30 1281 H 117.788 -0.178318 0.807547 0
M  V30 1282 H 120.334 0.397895 1.64969 0
M  V30 1283 H 119.106 0.591224 3.86808 0
M  V30 1284 H 118.729 -1.12294 3.81413 0
M  V30 1285 N 119.726 -1.57421 0.075193 0
M  V30 1286 C 120.966 -1.95495 -0.596757 0
M  V30 1287 C 121.33 -0.954886 -1.66571 0
M  V30 1288 O 122.531 -1.22341 -2.39345 0
M  V30 1289 C 120.802 -3.382 -1.15566 0
M  V30 1290 S 122.361 -3.98254 -1.84226 0
M  V30 1291 H 119.179 -0.683649 -0.195307 0
M  V30 1292 H 121.781 -1.94925 0.149859 0
M  V30 1293 H 120.485 -4.08766 -0.36588 0
M  V30 1294 H 120.016 -3.42321 -1.93856 0
M  V30 1295 H 122.031 -3.85435 -3.12497 0
M  V30 1296 N 121.204 0.198386 -1.56346 0
M  V30 1297 C 122.444 0.92609 -1.82217 0
M  V30 1298 C 122.808 1.80584 -0.652195 0
M  V30 1299 O 124.009 2.56907 -0.790716 0
M  V30 1300 C 122.28 1.72354 -3.13096 0
M  V30 1301 S 123.839 2.50371 -3.6036 0
M  V30 1302 H 120.657 0.310677 -0.639532 0
M  V30 1303 H 123.259 0.189755 -1.94577 0
M  V30 1304 H 121.963 1.0678 -3.96265 0
M  V30 1305 H 121.494 2.50175 -3.03605 0
M  V30 1306 H 123.509 3.74488 -3.25535 0
M  V30 1307 N 122.682 1.50554 0.465978 0
M  V30 1308 C 123.612 1.72722 1.57128 0
M  V30 1309 C 124.593 0.576294 1.6004 0
M  V30 1310 O 125.778 0.81598 1.76225 0
M  V30 1311 C 122.908 1.82605 2.95419 0
M  V30 1312 C 121.862 2.97835 3.07373 0
M  V30 1313 C 121.188 2.92867 4.47363 0
M  V30 1314 C 122.488 4.38265 2.84114 0
M  V30 1315 H 124.182 2.65267 1.38829 0
M  V30 1316 H 121.728 1.2765 0.666441 0
M  V30 1317 H 123.681 1.96698 3.72677 0
M  V30 1318 H 122.405 0.866858 3.14886 0
M  V30 1319 H 121.064 2.83401 2.3255 0
M  V30 1320 H 120.712 1.94783 4.63755 0
M  V30 1321 H 120.412 3.70227 4.56296 0
M  V30 1322 H 121.936 3.09015 5.26633 0
M  V30 1323 H 123.35 4.53198 3.51118 0
M  V30 1324 H 121.747 5.17115 3.04487 0
M  V30 1325 H 122.817 4.50281 1.7993 0
M  V30 1326 N 124.16 -0.719506 1.40217 0
M  V30 1327 C 125.09 -1.8465 1.42922 0
M  V30 1328 C 126.071 -1.67599 0.29062 0
M  V30 1329 O 127.256 -1.87688 0.498677 0
M  V30 1330 C 124.386 -3.22565 1.28722 0
M  V30 1331 C 123.34 -3.54281 2.40144 0
M  V30 1332 C 122.666 -4.91298 2.11023 0
M  V30 1333 C 123.966 -3.55676 3.82481 0
M  V30 1334 H 125.66 -1.82644 2.37237 0
M  V30 1335 H 123.206 -0.877305 1.1419 0
M  V30 1336 H 125.159 -4.01095 1.29232 0
M  V30 1337 H 123.883 -3.25137 0.308811 0
M  V30 1338 H 122.542 -2.78088 2.38877 0
M  V30 1339 H 122.19 -4.90468 1.11582 0
M  V30 1340 H 121.89 -5.13485 2.8567 0
M  V30 1341 H 123.414 -5.72166 2.13209 0
M  V30 1342 H 124.828 -4.24254 3.85592 0
M  V30 1343 H 123.225 -3.89388 4.56614 0
M  V30 1344 H 124.295 -2.55144 4.12346 0
M  V30 1345 N 125.638 -1.25649 -0.95132 0
M  V30 1346 C 126.866 -1.13343 -1.73092 0
M  V30 1347 C 127.281 0.312434 -1.86197 0
M  V30 1348 O 126.638 1.21465 -1.36207 0
M  V30 1349 C 126.689 -1.78602 -3.14299 0
M  V30 1350 O 126.41 -3.17537 -3.01831 0
M  V30 1351 C 127.911 -1.72119 -4.08522 0
M  V30 1352 H 125.131 -0.395181 -0.542285 0
M  V30 1353 H 127.675 -1.66076 -1.19328 0
M  V30 1354 H 125.83 -1.29832 -3.64996 0
M  V30 1355 H 126.244 -3.49676 -3.90931 0
M  V30 1356 H 127.718 -2.22435 -5.052 0
M  V30 1357 H 128.195 -0.685635 -4.33815 0
M  V30 1358 H 128.801 -2.20393 -3.63741 0
M  V30 1359 N 127.117 1.15442 -1.07289 0
M  V30 1360 C 128.364 1.86213 -0.795668 0
M  V30 1361 C 128.692 1.82291 0.678238 0
M  V30 1362 O 127.947 1.24057 1.51355 0
M  V30 1363 C 128.246 3.3489 -1.24834 0
M  V30 1364 C 127.912 3.59007 -2.72809 0
M  V30 1365 C 126.574 3.65298 -3.13227 0
M  V30 1366 C 128.926 3.68762 -3.68326 0
M  V30 1367 C 126.254 3.78854 -4.4798 0
M  V30 1368 C 128.606 3.83842 -5.0284 0
M  V30 1369 C 127.27 3.88378 -5.4288 0
M  V30 1370 H 126.54 0.681403 -0.291155 0
M  V30 1371 H 129.187 1.36435 -1.34379 0
M  V30 1372 H 127.492 3.8687 -0.619595 0
M  V30 1373 H 129.189 3.88052 -1.01076 0
M  V30 1374 H 125.779 3.5475 -2.40521 0
M  V30 1375 H 129.963 3.63202 -3.38227 0
M  V30 1376 H 125.219 3.80623 -4.78472 0
M  V30 1377 H 129.393 3.90332 -5.76727 0
M  V30 1378 H 127.02 3.98635 -6.47298 0
M  V30 1379 N 128.595 0.856903 1.32268 0
M  V30 1380 C 129.82 0.474569 2.01897 0
M  V30 1381 C 130.245 -0.921766 1.63967 0
M  V30 1382 O 129.603 -1.60589 0.84148 0
M  V30 1383 C 129.651 0.623799 3.55164 0
M  V30 1384 O 128.755 -0.342459 4.10976 0
M  V30 1385 H 128.096 0.190422 0.63611 0
M  V30 1386 H 130.626 1.15672 1.68764 0
M  V30 1387 H 130.636 0.512169 4.04773 0
M  V30 1388 H 129.311 1.64202 3.82113 0
M  V30 1389 H 127.888 -0.18688 3.72431 0
M  V30 1390 N 130.073 -1.45103 0.615059 0
M  V30 1391 C 131.319 -2.02483 0.113347 0
M  V30 1392 C 131.652 -1.48146 -1.25564 0
M  V30 1393 O 130.927 -0.659104 -1.82992 0
M  V30 1394 C 131.21 -3.60005 0.0825278 0
M  V30 1395 C 131.063 -4.2466 1.48271 0
M  V30 1396 C 132.382 -4.35972 -0.601401 0
M  V30 1397 H 129.501 -0.735764 0.0426632 0
M  V30 1398 H 132.143 -1.72868 0.788461 0
M  V30 1399 H 130.293 -3.85367 -0.492378 0
M  V30 1400 H 131.965 -4.10458 2.10527 0
M  V30 1401 H 130.208 -3.82772 2.04127 0
M  V30 1402 H 130.879 -5.336 1.41332 0
M  V30 1403 H 133.355 -4.15947 -0.112666 0
M  V30 1404 H 132.231 -5.45697 -0.592097 0
M  V30 1405 H 132.492 -4.09391 -1.66887 0
M  V30 1406 N 131.551 -0.354651 -1.53558 0
M  V30 1407 C 132.828 0.294281 -1.93374 0
M  V30 1408 C 133.208 1.67313 -1.28723 0
M  V30 1409 O 132.556 2.24179 -0.442247 0
M  V30 1410 C 132.766 0.355445 -3.47185 0
M  V30 1411 C 134.114 0.601007 -4.20325 0
M  V30 1412 O 135.138 0.437106 -3.53508 0
M  V30 1413 O 133.997 0.919322 -5.38712 0
M  V30 1414 H 131.091 0.174033 -0.808481 0
M  V30 1415 H 133.637 -0.406638 -1.64756 0
M  V30 1416 H 132.409 -0.611729 -3.86489 0
M  V30 1417 H 132.032 1.1027 -3.82003 0
M  V30 1418 N 133.029 1.57378 -0.0835403 0
M  V30 1419 C 134.306 1.85363 0.624507 0
M  V30 1420 C 134.686 0.978239 1.87066 0
M  V30 1421 O 134.034 0.0475908 2.2845 0
M  V30 1422 C 134.244 3.35795 0.950947 0
M  V30 1423 C 135.592 4.03581 1.31939 0
M  V30 1424 O 136.616 3.40609 1.04232 0
M  V30 1425 O 135.475 5.14672 1.83779 0
M  V30 1426 H 132.569 0.766162 0.311329 0
M  V30 1427 H 135.115 1.69307 -0.115362 0
M  V30 1428 H 133.887 3.91244 0.0663899 0
M  V30 1429 H 133.51 3.57154 1.74719 0
M  V30 1430 N 134.507 -0.190092 1.56449 0
M  V30 1431 C 135.732 -0.929864 1.85387 0
M  V30 1432 C 136.157 -1.7585 0.667704 0
M  V30 1433 O 135.515 -1.77198 -0.383459 0
M  V30 1434 C 135.563 -1.79773 3.12593 0
M  V30 1435 O 134.667 -2.89713 2.93496 0
M  V30 1436 H 134.008 -0.261574 0.610307 0
M  V30 1437 H 136.538 -0.193896 2.03679 0
M  V30 1438 H 136.548 -2.20139 3.43515 0
M  V30 1439 H 135.223 -1.18892 3.98544 0
M  V30 1440 H 133.8 -2.53065 2.73884 0
M  V30 1441 N 135.985 -1.50799 -0.457987 0
M  V30 1442 C 136.917 -1.66786 -1.57211 0
M  V30 1443 C 137.93 -0.548962 -1.53265 0
M  V30 1444 O 139.119 -0.8226 -1.58416 0
M  V30 1445 C 136.219 -1.64834 -2.96113 0
M  V30 1446 C 135.392 -2.92971 -3.24787 0
M  V30 1447 C 134.451 -2.83485 -4.43309 0
M  V30 1448 O 133.477 -3.5744 -4.42973 0
M  V30 1449 N 134.679 -1.97929 -5.45714 0
M  V30 1450 H 137.444 -2.62889 -1.43909 0
M  V30 1451 H 135.005 -1.48427 -0.646617 0
M  V30 1452 H 136.997 -1.56084 -3.7339 0
M  V30 1453 H 135.567 -0.764118 -3.03117 0
M  V30 1454 H 134.787 -3.15749 -2.36 0
M  V30 1455 H 136.075 -3.77834 -3.40762 0
M  V30 1456 H 135.473 -1.37182 -5.48815 0
M  V30 1457 H 134.03 -1.95073 -6.21924 0
M  V30 1458 N 137.463 0.71206 -1.40597 0
M  V30 1459 C 138.688 1.50617 -1.42581 0
M  V30 1460 C 139.113 1.88079 -0.0282102 0
M  V30 1461 O 138.471 1.53511 0.964579 0
M  V30 1462 C 138.519 2.7557 -2.3258 0
M  V30 1463 O 137.623 3.72414 -1.77148 0
M  V30 1464 H 136.964 0.453966 -0.484573 0
M  V30 1465 H 139.494 0.876649 -1.84868 0
M  V30 1466 H 139.504 3.2406 -2.47889 0
M  V30 1467 H 138.179 2.47639 -3.34138 0
M  V30 1468 H 136.756 3.31276 -1.71204 0
M  V30 1469 N 138.941 1.26152 0.944643 0
M  V30 1470 C 140.188 1.11492 1.69044 0
M  V30 1471 C 140.516 -0.342366 1.91463 0
M  V30 1472 O 139.771 -1.26812 1.49054 0
M  V30 1473 C 140.07 1.82541 3.07268 0
M  V30 1474 C 139.736 3.32445 3.04616 0
M  V30 1475 C 138.398 3.73337 3.036 0
M  V30 1476 C 140.75 4.28171 2.97185 0
M  V30 1477 C 138.078 5.08348 2.92915 0
M  V30 1478 C 140.43 5.63218 2.88041 0
M  V30 1479 C 139.094 6.03426 2.85366 0
M  V30 1480 H 138.364 0.407977 0.618576 0
M  V30 1481 H 141.011 1.56551 1.10291 0
M  V30 1482 H 139.316 1.29941 3.69625 0
M  V30 1483 H 141.013 1.68642 3.63815 0
M  V30 1484 H 137.603 2.99915 3.06185 0
M  V30 1485 H 141.787 3.97563 2.97081 0
M  V30 1486 H 137.043 5.38667 2.89219 0
M  V30 1487 H 141.217 6.37078 2.81254 0
M  V30 1488 H 138.844 7.07999 2.76842 0
M  V30 1489 N 140.419 -1.14872 1.07899 0
M  V30 1490 C 141.351 -2.19425 0.662231 0
M  V30 1491 C 142.364 -1.60231 -0.288079 0
M  V30 1492 O 143.553 -1.78336 -0.076534 0
M  V30 1493 C 140.653 -3.38867 -0.0470695 0
M  V30 1494 C 139.826 -4.27597 0.920831 0
M  V30 1495 C 138.885 -5.25616 0.247805 0
M  V30 1496 O 137.911 -5.62189 0.890599 0
M  V30 1497 N 139.113 -5.71746 -1.00435 0
M  V30 1498 H 141.878 -2.55797 1.56166 0
M  V30 1499 H 139.439 -1.30042 0.964404 0
M  V30 1500 H 141.431 -4.01497 -0.50813 0
M  V30 1501 H 140.001 -3.00864 -0.848523 0
M  V30 1502 H 139.221 -3.61982 1.56087 0
M  V30 1503 H 140.509 -4.83748 1.57688 0
M  V30 1504 H 139.907 -5.44153 -1.54642 0
M  V30 1505 H 138.464 -6.36389 -1.40899 0
M  V30 1506 N 141.898 -0.863906 -1.31812 0
M  V30 1507 C 142.846 -0.30422 -2.30602 0
M  V30 1508 C 143.84 0.577419 -1.59255 0
M  V30 1509 O 145.046 0.464194 -1.73912 0
M  V30 1510 H 141.421 -0.0796877 -0.747766 0
M  V30 1511 H 143.392 -1.15148 -2.75288 0
M  V30 1512 C 142.141 0.484617 -3.44306 0
M  V30 1513 H 141.464 -0.18451 -3.99374 0
M  V30 1514 H 142.904 0.841664 -4.15562 0
M  V30 1515 C 141.363 1.6735 -2.92396 0
M  V30 1516 O 141.893 2.77273 -2.90659 0
M  V30 1517 N 140.099 1.50362 -2.48676 0
M  V30 1518 H 139.646 0.609402 -2.50288 0
M  V30 1519 H 139.604 2.30051 -2.14299 0
M  V30 1520 N 143.376 1.44774 -0.622745 0
M  V30 1521 C 144.306 2.33382 0.0741861 0
M  V30 1522 C 145.287 1.47719 0.843387 0
M  V30 1523 O 146.472 1.76458 0.810934 0
M  V30 1524 C 143.602 3.30663 1.06204 0
M  V30 1525 C 142.556 4.26079 0.405037 0
M  V30 1526 C 141.882 5.13165 1.5022 0
M  V30 1527 C 143.182 5.1781 -0.683414 0
M  V30 1528 H 144.876 2.91905 -0.665713 0
M  V30 1529 H 142.422 1.40363 -0.321587 0
M  V30 1530 H 144.375 3.9153 1.55827 0
M  V30 1531 H 143.099 2.70331 1.83272 0
M  V30 1532 H 141.758 3.66532 -0.0704683 0
M  V30 1533 H 141.406 4.49191 2.26355 0
M  V30 1534 H 141.106 5.77812 1.06803 0
M  V30 1535 H 142.63 5.76902 2.00041 0
M  V30 1536 H 144.044 5.72661 -0.270631 0
M  V30 1537 H 142.441 5.91015 -1.04023 0
M  V30 1538 H 143.511 4.59326 -1.55395 0
M  V30 1539 N 144.854 0.36279 1.53368 0
M  V30 1540 C 146.079 -0.231226 2.06107 0
M  V30 1541 C 146.504 -1.419 1.23474 0
M  V30 1542 O 145.862 -1.79524 0.253128 0
M  V30 1543 C 145.91 -0.605523 3.5548 0
M  V30 1544 O 145.014 -1.70312 3.7559 0
M  V30 1545 H 144.355 -0.034327 0.663112 0
M  V30 1546 H 146.885 0.522584 1.97814 0
M  V30 1547 H 146.895 -0.877314 3.98456 0
M  V30 1548 H 145.57 0.263004 4.15068 0
M  V30 1549 H 144.147 -1.4271 3.44512 0
M  V30 1550 N 146.332 -1.57332 0.0918853 0
M  V30 1551 C 147.28 -2.15075 -0.885747 0
M  V30 1552 C 148.274 -1.09277 -1.29441 0
M  V30 1553 O 149.48 -1.27627 -1.26931 0
M  V30 1554 H 145.855 -0.687966 -0.303656 0
M  V30 1555 H 147.826 -2.96047 -0.373995 0
M  V30 1556 C 146.575 -2.74325 -2.13638 0
M  V30 1557 H 145.898 -3.55418 -1.8308 0
M  V30 1558 H 147.338 -3.183 -2.80109 0
M  V30 1559 C 145.797 -1.70062 -2.90827 0
M  V30 1560 O 146.327 -1.13763 -3.85254 0
M  V30 1561 N 144.533 -1.40628 -2.54307 0
M  V30 1562 H 144.08 -1.866 -1.7759 0
M  V30 1563 H 144.038 -0.711043 -3.06254 0
M  V30 1564 N 147.81 0.181792 -1.56548 0
M  V30 1565 C 149.056 0.896803 -1.82562 0
M  V30 1566 C 149.411 1.80324 -0.670908 0
M  V30 1567 O 148.704 1.8868 0.333235 0
M  V30 1568 C 148.898 1.73728 -3.12335 0
M  V30 1569 C 148.727 0.913714 -4.4032 0
M  V30 1570 C 147.497 0.592903 -5.01809 0
M  V30 1571 C 149.695 0.260164 -5.13642 0
M  V30 1572 N 147.677 -0.247901 -6.13399 0
M  V30 1573 C 149.048 -0.442256 -6.18421 0
M  V30 1574 C 151.103 0.177253 -4.97584 0
M  V30 1575 C 149.806 -1.21971 -7.08883 0
M  V30 1576 C 151.832 -0.586839 -5.88481 0
M  V30 1577 C 151.194 -1.27766 -6.92716 0
M  V30 1578 H 147.293 0.307122 -0.719166 0
M  V30 1579 H 149.877 0.164535 -1.94004 0
M  V30 1580 H 148.048 2.44105 -3.02105 0
M  V30 1581 H 149.78 2.39279 -3.26386 0
M  V30 1582 H 146.535 0.920502 -4.64568 0
M  V30 1583 H 146.959 -0.658304 -6.73792 0
M  V30 1584 H 151.601 0.696993 -4.17015 0
M  V30 1585 H 149.319 -1.75083 -7.88905 0
M  V30 1586 H 152.905 -0.652522 -5.78129 0
M  V30 1587 H 151.785 -1.85943 -7.61836 0
M  V30 1588 N 149.288 1.51039 0.449983 0
M  V30 1589 C 150.235 1.71439 1.54523 0
M  V30 1590 C 151.205 0.555871 1.56522 0
M  V30 1591 O 152.39 0.788871 1.73728 0
M  V30 1592 C 149.53 1.83384 2.92343 0
M  V30 1593 C 148.643 3.10873 2.9997 0
M  V30 1594 C 147.778 3.13488 4.28834 0
M  V30 1595 C 146.817 4.35343 4.30282 0
M  V30 1596 N 145.954 4.35579 5.5065 0
M  V30 1597 H 150.794 2.64934 1.36433 0
M  V30 1598 H 148.331 1.31312 0.662982 0
M  V30 1599 H 150.289 1.88291 3.72293 0
M  V30 1600 H 148.919 0.933086 3.0902 0
M  V30 1601 H 147.971 3.15336 2.12761 0
M  V30 1602 H 149.283 4.00814 2.96901 0
M  V30 1603 H 148.437 3.17241 5.17149 0
M  V30 1604 H 147.176 2.21414 4.34543 0
M  V30 1605 H 146.181 4.3178 3.40362 0
M  V30 1606 H 147.406 5.28668 4.26248 0
M  V30 1607 H 145.352 3.46369 5.57104 0
M  V30 1608 H 145.269 5.19313 5.49409 0
M  V30 1609 H 146.537 4.43507 6.41032 0
M  V30 1610 N 150.766 -0.704594 1.40972 0
M  V30 1611 C 151.713 -1.81862 1.42109 0
M  V30 1612 C 152.683 -1.63781 0.276593 0
M  V30 1613 O 153.868 -1.84759 0.4763 0
M  V30 1614 C 151.008 -3.19669 1.30022 0
M  V30 1615 C 150.121 -3.49246 2.54267 0
M  V30 1616 C 149.256 -4.76618 2.3454 0
M  V30 1617 C 148.295 -4.99133 3.54306 0
M  V30 1618 N 147.432 -6.17726 3.33706 0
M  V30 1619 H 152.272 -1.80226 2.37324 0
M  V30 1620 H 149.809 -0.880238 1.17857 0
M  V30 1621 H 151.767 -3.99263 1.21018 0
M  V30 1622 H 150.397 -3.20506 0.384192 0
M  V30 1623 H 149.449 -2.64125 2.73756 0
M  V30 1624 H 150.761 -3.61788 3.43381 0
M  V30 1625 H 149.915 -5.64249 2.22952 0
M  V30 1626 H 148.654 -4.66305 1.42867 0
M  V30 1627 H 147.659 -4.09953 3.66359 0
M  V30 1628 H 148.884 -5.11311 4.4692 0
M  V30 1629 H 146.83 -6.08642 2.44725 0
M  V30 1630 H 146.747 -6.30995 4.16391 0
M  V30 1631 H 148.015 -7.08115 3.25873 0
M  V30 1632 N 152.244 -1.26651 -0.937939 0
M  V30 1633 C 153.154 -1.10276 -2.07066 0
M  V30 1634 C 154.17 -0.0354197 -1.73964 0
M  V30 1635 O 155.346 -0.239816 -1.99967 0
M  V30 1636 C 152.411 -0.740887 -3.38691 0
M  V30 1637 C 151.472 -1.88799 -3.85556 0
M  V30 1638 C 150.705 -1.54329 -5.10899 0
M  V30 1639 O 150.928 -0.446494 -5.6865 0
M  V30 1640 O 149.862 -2.37911 -5.52885 0
M  V30 1641 H 153.688 -2.05309 -2.23789 0
M  V30 1642 H 151.273 -1.05743 -1.0554 0
M  V30 1643 H 153.155 -0.55195 -4.1777 0
M  V30 1644 H 151.83 0.180022 -3.23199 0
M  V30 1645 H 150.737 -2.13191 -3.07409 0
M  V30 1646 H 152.07 -2.78874 -4.05574 0
M  V30 1647 N 153.722 1.14298 -1.08507 0
M  V30 1648 C 154.969 1.85359 -0.815373 0
M  V30 1649 C 155.297 1.83001 0.658865 0
M  V30 1650 O 154.552 1.25655 1.50031 0
M  V30 1651 C 154.851 3.33547 -1.28379 0
M  V30 1652 C 154.517 3.56093 -2.76602 0
M  V30 1653 C 153.179 3.61955 -3.17084 0
M  V30 1654 C 155.531 3.64834 -3.72217 0
M  V30 1655 C 152.859 3.74082 -4.51973 0
M  V30 1656 C 155.211 3.78487 -5.06883 0
M  V30 1657 C 153.875 3.82598 -5.46969 0
M  V30 1658 H 153.145 0.678276 -0.298366 0
M  V30 1659 H 155.792 1.35002 -1.35819 0
M  V30 1660 H 154.097 3.86191 -0.660593 0
M  V30 1661 H 155.794 3.86959 -1.05186 0
M  V30 1662 H 152.384 3.52179 -2.4427 0
M  V30 1663 H 156.568 3.59595 -3.42061 0
M  V30 1664 H 151.824 3.75527 -4.82483 0
M  V30 1665 H 155.998 3.84193 -5.80834 0
M  V30 1666 H 153.625 3.91747 -6.51489 0
M  V30 1667 N 155.201 0.870884 1.31352 0
M  V30 1668 C 156.45 0.478408 1.95944 0
M  V30 1669 C 156.763 -0.974493 1.69597 0
M  V30 1670 O 157.969 -1.47316 2.28058 0
M  V30 1671 C 156.425 0.804609 3.50791 0
M  V30 1672 C 156.033 2.27433 3.85977 0
M  V30 1673 C 157.777 0.480648 4.2177 0
M  V30 1674 C 155.684 2.5429 5.33939 0
M  V30 1675 H 154.614 0.175175 0.733369 0
M  V30 1676 H 157.265 1.06391 1.4951 0
M  V30 1677 H 155.647 0.148347 3.95722 0
M  V30 1678 H 156.821 2.97373 3.52002 0
M  V30 1679 H 155.136 2.56442 3.28065 0
M  V30 1680 H 157.733 0.658519 5.30629 0
M  V30 1681 H 158.076 -0.578979 4.12254 0
M  V30 1682 H 158.609 1.09349 3.82476 0
M  V30 1683 H 155.348 3.58939 5.48491 0
M  V30 1684 H 154.868 1.88945 5.69263 0
M  V30 1685 H 156.547 2.39066 6.01212 0
M  V30 1686 N 156.679 -1.44442 0.630414 0
M  V30 1687 C 157.909 -2.06115 0.141465 0
M  V30 1688 C 158.317 -1.47179 -1.1889 0
M  V30 1689 O 157.66 -0.588873 -1.74006 0
M  V30 1690 C 157.722 -3.59467 -0.0484355 0
M  V30 1691 C 157.386 -4.40864 1.20366 0
M  V30 1692 C 158.383 -4.74391 2.12719 0
M  V30 1693 C 156.068 -4.8125 1.43887 0
M  V30 1694 C 158.062 -5.47186 3.26904 0
M  V30 1695 C 155.749 -5.53795 2.5837 0
M  V30 1696 C 156.747 -5.86682 3.49705 0
M  V30 1697 O 156.435 -6.57749 4.62191 0
M  V30 1698 H 156.167 -0.671648 0.0765792 0
M  V30 1699 H 158.721 -1.86312 0.864695 0
M  V30 1700 H 156.951 -3.77758 -0.826803 0
M  V30 1701 H 158.64 -4.02909 -0.491849 0
M  V30 1702 H 159.406 -4.43728 1.95781 0
M  V30 1703 H 155.285 -4.55073 0.736853 0
M  V30 1704 H 158.829 -5.72773 3.98217 0
M  V30 1705 H 154.726 -5.83872 2.75251 0
M  V30 1706 H 155.494 -6.76217 4.61164 0
M  V30 1707 N 158.157 -0.370918 -1.53173 0
M  V30 1708 C 159.387 0.217389 -2.05453 0
M  V30 1709 C 159.795 1.42568 -1.24382 0
M  V30 1710 O 159.138 1.81571 -0.278839 0
M  V30 1711 C 159.2 0.669827 -3.53205 0
M  V30 1712 C 158.864 -0.4225 -4.55043 0
M  V30 1713 C 159.861 -1.27407 -5.04047 0
M  V30 1714 C 157.546 -0.58427 -4.9889 0
M  V30 1715 C 159.54 -2.27271 -5.95505 0
M  V30 1716 C 157.227 -1.58627 -5.90153 0
M  V30 1717 C 158.225 -2.42892 -6.38351 0
M  V30 1718 O 157.913 -3.41382 -7.27814 0
M  V30 1719 H 157.645 0.0408171 -0.674767 0
M  V30 1720 H 160.199 -0.5292 -1.98466 0
M  V30 1721 H 158.429 1.4681 -3.57748 0
M  V30 1722 H 160.118 1.18173 -3.88317 0
M  V30 1723 H 160.884 -1.16031 -4.70916 0
M  V30 1724 H 156.763 0.061851 -4.60959 0
M  V30 1725 H 160.307 -2.93079 -6.33049 0
M  V30 1726 H 156.204 -1.70048 -6.22699 0
M  V30 1727 H 156.972 -3.37173 -7.45826 0
M  V30 1728 N 159.635 1.57281 -0.100228 0
M  V30 1729 C 160.598 2.13158 0.842398 0
M  V30 1730 C 161.598 1.06202 1.20738 0
M  V30 1731 O 162.788 1.32066 1.13597 0
M  V30 1732 C 159.92 2.65639 2.13655 0
M  V30 1733 H 161.113 2.97766 0.357114 0
M  V30 1734 H 158.666 1.5559 0.148823 0
M  V30 1735 H 159.401 1.84566 2.66657 0
M  V30 1736 H 159.186 3.43844 1.88451 0
M  V30 1737 H 160.676 3.08846 2.81077 0
M  V30 1738 N 161.113 -0.173488 1.56642 0
M  V30 1739 C 162.39 -0.917617 1.7274 0
M  V30 1740 C 162.77 -2.00484 0.661027 0
M  V30 1741 O 162.118 -2.26184 -0.32453 0
M  V30 1742 C 162.328 -1.48433 3.15862 0
M  V30 1743 C 163.676 -1.95809 3.76754 0
M  V30 1744 O 164.7 -1.58231 3.19126 0
M  V30 1745 O 163.559 -2.65024 4.77938 0
M  V30 1746 H 160.653 -0.431772 0.705338 0
M  V30 1747 H 163.199 -0.161487 1.6893 0
M  V30 1748 H 161.971 -0.701715 3.84957 0
M  V30 1749 H 161.594 -2.30471 3.23989 0
M  V30 1750 N 162.591 -1.51276 -0.441967 0
M  V30 1751 C 163.837 -1.63958 -1.19355 0
M  V30 1752 C 164.17 -0.352543 -1.90973 0
M  V30 1753 O 163.445 0.647627 -1.83401 0
M  V30 1754 C 163.728 -2.83979 -2.21422 0
M  V30 1755 C 163.581 -4.22646 -1.53918 0
M  V30 1756 C 164.9 -2.99521 -3.22451 0
M  V30 1757 H 162.019 -0.596709 -0.432559 0
M  V30 1758 H 164.661 -1.83748 -0.483398 0
M  V30 1759 H 162.811 -2.67237 -2.81987 0
M  V30 1760 H 164.483 -4.51045 -0.967256 0
M  V30 1761 H 162.726 -4.25558 -0.841615 0
M  V30 1762 H 163.397 -5.02609 -2.28229 0
M  V30 1763 H 165.873 -3.14944 -2.71937 0
M  V30 1764 H 164.749 -3.85072 -3.91166 0
M  V30 1765 H 165.01 -2.11391 -3.88287 0
M  V30 1766 N 164.069 0.697108 -1.41344 0
M  V30 1767 C 165.016 1.81106 -1.43071 0
M  V30 1768 C 165.986 1.63632 -0.285275 0
M  V30 1769 O 167.171 1.84504 -0.486091 0
M  V30 1770 C 164.311 3.18975 -1.31715 0
M  V30 1771 C 163.424 3.47892 -2.56115 0
M  V30 1772 C 162.559 4.75367 -2.37064 0
M  V30 1773 C 161.598 4.97247 -3.56948 0
M  V30 1774 N 160.735 6.15947 -3.36977 0
M  V30 1775 H 165.575 1.78965 -2.38276 0
M  V30 1776 H 163.112 0.873975 -1.18322 0
M  V30 1777 H 165.07 3.98615 -1.23133 0
M  V30 1778 H 163.7 3.20297 -0.401183 0
M  V30 1779 H 162.752 2.62669 -2.75153 0
M  V30 1780 H 164.064 3.59962 -3.45295 0
M  V30 1781 H 163.218 5.63059 -2.25941 0
M  V30 1782 H 161.957 4.65541 -1.45338 0
M  V30 1783 H 160.962 4.08004 -3.68527 0
M  V30 1784 H 162.187 5.08934 -4.49626 0
M  V30 1785 H 160.133 6.07336 -2.47949 0
M  V30 1786 H 160.05 6.28777 -4.19732 0
M  V30 1787 H 161.318 7.06377 -3.29623 0
M  V30 1788 N 165.547 1.27147 0.931209 0
M  V30 1789 C 166.457 1.11372 2.06478 0
M  V30 1790 C 167.473 0.044645 1.73943 0
M  V30 1791 O 168.649 0.250417 1.99837 0
M  V30 1792 C 165.714 0.758838 3.38294 0
M  V30 1793 C 164.775 1.90841 3.84549 0
M  V30 1794 C 164.008 1.57036 5.10074 0
M  V30 1795 O 164.231 0.476645 5.68405 0
M  V30 1796 O 163.165 2.40839 5.51616 0
M  V30 1797 H 166.991 2.06493 2.22698 0
M  V30 1798 H 164.576 1.06301 1.04978 0
M  V30 1799 H 166.458 0.574098 4.17471 0
M  V30 1800 H 165.133 -0.162879 3.2329 0
M  V30 1801 H 164.04 2.14819 3.06274 0
M  V30 1802 H 165.373 2.81021 4.04089 0
M  V30 1803 N 167.025 -1.13721 1.09112 0
M  V30 1804 C 168.436 -1.6648 0.845068 0
M  V30 1805 C 168.787 -1.85911 -0.62701 0
M  V30 1806 O 167.912 -1.57556 -1.48341 0
M  V30 1807 C 168.507 -3.02413 1.52748 0
M  V30 1808 C 167.066 -3.52176 1.32849 0
M  V30 1809 C 166.213 -2.27492 1.58564 0
M  V30 1810 H 169.164 -0.976872 1.25072 0
M  V30 1811 H 169.185 -3.68223 0.958752 0
M  V30 1812 H 168.697 -2.88238 2.59885 0
M  V30 1813 H 166.798 -3.7156 0.278137 0
M  V30 1814 H 166.911 -4.32499 2.0611 0
M  V30 1815 H 165.275 -2.33923 1.00758 0
M  V30 1816 H 166.058 -2.15886 2.66924 0
M  V30 1817 N 168.503 -0.877838 -1.30888 0
M  V30 1818 C 169.413 -0.343096 -2.32078 0
M  V30 1819 C 170.429 0.551022 -1.65045 0
M  V30 1820 O 171.605 0.445854 -1.96403 0
M  V30 1821 C 168.67 0.439905 -3.43898 0
M  V30 1822 C 167.731 -0.483111 -4.26573 0
M  V30 1823 C 166.964 0.262616 -5.33053 0
M  V30 1824 O 167.187 1.48967 -5.50604 0
M  V30 1825 O 166.121 -0.383593 -6.00676 0
M  V30 1826 H 169.947 -1.18203 -2.79753 0
M  V30 1827 H 167.532 -0.64145 -1.34929 0
M  V30 1828 H 169.414 0.883504 -4.12034 0
M  V30 1829 H 168.089 1.25526 -2.98371 0
M  V30 1830 H 166.996 -0.975374 -3.61161 0
M  V30 1831 H 168.329 -1.26427 -4.75686 0
M  V30 1832 N 169.982 1.44106 -0.638065 0
M  V30 1833 C 171.207 2.0685 -0.150916 0
M  V30 1834 C 171.632 1.47417 1.16833 0
M  V30 1835 O 170.99 0.578264 1.71831 0
M  V30 1836 C 171.038 3.60555 -0.05708 0
M  V30 1837 O 170.142 4.00465 0.984972 0
M  V30 1838 H 169.483 0.658151 -0.0879399 0
M  V30 1839 H 172.013 1.84865 -0.876707 0
M  V30 1840 H 172.023 4.07789 0.131232 0
M  V30 1841 H 170.698 4.03193 -1.02021 0
M  V30 1842 H 169.275 3.64849 0.770672 0
M  V30 1843 N 171.46 0.379036 1.52974 0
M  V30 1844 C 172.707 -0.206421 2.01445 0
M  V30 1845 C 173.035 -1.47668 1.26587 0
M  V30 1846 O 172.29 -1.92514 0.351675 0
M  V30 1847 C 172.589 -0.53096 3.53434 0
M  V30 1848 C 172.255 0.646546 4.46241 0
M  V30 1849 C 170.917 0.969604 4.7133 0
M  V30 1850 C 173.269 1.43479 5.01062 0
M  V30 1851 C 170.597 2.08263 5.48492 0
M  V30 1852 C 172.949 2.53834 5.7944 0
M  V30 1853 C 171.613 2.86659 6.02812 0
M  V30 1854 H 170.883 -0.0755349 0.73714 0
M  V30 1855 H 173.53 0.514271 1.84465 0
M  V30 1856 H 171.835 -1.33285 3.68432 0
M  V30 1857 H 173.532 -0.996417 3.88423 0
M  V30 1858 H 170.122 0.384734 4.2687 0
M  V30 1859 H 174.306 1.19844 4.81613 0
M  V30 1860 H 169.562 2.34078 5.64816 0
M  V30 1861 H 173.736 3.15319 6.20924 0
M  V30 1862 H 171.363 3.73026 6.62387 0
M  V30 1863 N 172.938 -1.57226 0.108567 0
M  V30 1864 C 174.349 -1.8195 -0.418464 0
M  V30 1865 C 174.7 -1.02508 -1.67292 0
M  V30 1866 O 173.825 -0.258496 -2.14851 0
M  V30 1867 C 174.42 -3.30028 -0.765979 0
M  V30 1868 C 172.979 -3.55469 -1.23769 0
M  V30 1869 C 172.126 -2.7625 -0.241106 0
M  V30 1870 H 175.077 -1.55149 0.33384 0
M  V30 1871 H 175.098 -3.44086 -1.62434 0
M  V30 1872 H 174.61 -3.87821 0.147219 0
M  V30 1873 H 172.711 -3.03022 -2.16814 0
M  V30 1874 H 172.824 -4.6408 -1.19022 0
M  V30 1875 H 171.188 -2.44133 -0.72602 0
M  V30 1876 H 171.971 -3.36797 0.665007 0
M  V30 1877 N 174.416 0.165178 -1.56732 0
M  V30 1878 C 175.663 0.880807 -1.8234 0
M  V30 1879 C 175.991 1.81977 -0.686621 0
M  V30 1880 O 175.246 1.92971 0.325697 0
M  V30 1881 C 175.545 1.70405 -3.1416 0
M  V30 1882 C 175.211 0.913475 -4.4155 0
M  V30 1883 C 173.873 0.695303 -4.7615 0
M  V30 1884 C 176.225 0.359349 -5.1996 0
M  V30 1885 C 173.553 -0.0879947 -5.86634 0
M  V30 1886 C 175.905 -0.410893 -6.31264 0
M  V30 1887 C 174.569 -0.639808 -6.64427 0
M  V30 1888 H 173.839 0.32231 -0.667231 0
M  V30 1889 H 176.486 0.145402 -1.90947 0
M  V30 1890 H 174.791 2.50903 -3.00923 0
M  V30 1891 H 176.488 2.26091 -3.31186 0
M  V30 1892 H 173.078 1.09357 -4.14414 0
M  V30 1893 H 177.262 0.515228 -4.93618 0
M  V30 1894 H 172.518 -0.27503 -6.10781 0
M  V30 1895 H 176.692 -0.847494 -6.91224 0
M  V30 1896 H 174.319 -1.24864 -7.49875 0
M  V30 1897 N 175.894 1.51508 0.433938 0
M  V30 1898 C 177.14 1.64588 1.18484 0
M  V30 1899 C 177.473 0.362666 1.90784 0
M  V30 1900 O 176.748 -0.637892 1.83742 0
M  V30 1901 C 177.031 2.85149 2.19913 0
M  V30 1902 C 176.884 4.23456 1.51674 0
M  V30 1903 C 178.203 3.01227 3.20858 0
M  V30 1904 H 175.322 0.598994 0.429389 0
M  V30 1905 H 177.964 1.84002 0.473647 0
M  V30 1906 H 176.114 2.68729 2.80566 0
M  V30 1907 H 177.786 4.51552 0.943322 0
M  V30 1908 H 176.029 4.25998 0.819035 0
M  V30 1909 H 176.7 5.03812 2.2556 0
M  V30 1910 H 179.176 3.16382 2.70263 0
M  V30 1911 H 178.052 3.87141 3.89118 0
M  V30 1912 H 178.313 2.13447 3.8716 0
M  V30 1913 N 177.372 -0.689602 1.41712 0
M  V30 1914 C 178.621 -1.44534 1.40686 0
M  V30 1915 C 178.934 -1.95588 0.0213352 0
M  V30 1916 O 180.14 -2.71271 -0.111534 0
M  V30 1917 C 178.596 -2.61387 2.47396 0
M  V30 1918 C 178.204 -2.17094 3.91885 0
M  V30 1919 C 179.948 -3.38986 2.55517 0
M  V30 1920 C 177.855 -3.3094 4.90135 0
M  V30 1921 H 176.785 -0.542925 0.52321 0
M  V30 1922 H 179.436 -0.748054 1.6756 0
M  V30 1923 H 177.818 -3.33412 2.13664 0
M  V30 1924 H 178.992 -1.52318 4.34897 0
M  V30 1925 H 177.307 -1.52473 3.8748 0
M  V30 1926 H 179.904 -4.23747 3.26102 0
M  V30 1927 H 180.247 -3.84578 1.59391 0
M  V30 1928 H 180.78 -2.74021 2.8837 0
M  V30 1929 H 177.519 -2.90355 5.87685 0
M  V30 1930 H 177.039 -3.94546 4.51767 0
M  V30 1931 H 178.718 -3.9663 5.11169 0
M  V30 1932 N 178.85 -1.27639 -0.924453 0
M  V30 1933 C 179.78 -1.13166 -2.04244 0
M  V30 1934 C 180.761 -0.032256 -1.70069 0
M  V30 1935 O 181.946 -0.207328 -1.9309 0
M  V30 1936 C 179.076 -0.781496 -3.38393 0
M  V30 1937 C 178.03 -1.83449 -3.86692 0
M  V30 1938 C 177.356 -1.33822 -5.17683 0
M  V30 1939 C 178.656 -3.23917 -4.09726 0
M  V30 1940 H 180.35 -2.06689 -2.1661 0
M  V30 1941 H 177.896 -0.995136 -1.04082 0
M  V30 1942 H 179.849 -0.667057 -4.16087 0
M  V30 1943 H 178.573 0.189439 -3.2605 0
M  V30 1944 H 177.232 -1.93789 -3.11193 0
M  V30 1945 H 176.88 -0.35665 -5.01734 0
M  V30 1946 H 176.58 -2.04224 -5.50968 0
M  V30 1947 H 178.104 -1.23679 -5.97943 0
M  V30 1948 H 179.518 -3.16559 -4.77978 0
M  V30 1949 H 177.915 -3.92059 -4.54324 0
M  V30 1950 H 178.985 -3.68729 -3.14908 0
M  V30 1951 N 180.328 1.1314 -1.09713 0
M  V30 1952 C 181.576 1.84119 -0.833338 0
M  V30 1953 C 181.897 1.84097 0.642904 0
M  V30 1954 O 181.167 1.29881 1.46655 0
M  V30 1955 H 179.747 0.681766 -0.305293 0
M  V30 1956 H 182.409 1.37038 -1.38588 0
M  V30 1957 H 181.505 2.88543 -1.18951 0
M  V30 1958 N 181.806 0.884767 1.30421 0
M  V30 1959 C 182.754 0.340869 2.30089 0
M  V30 1960 C 183.748 -0.55201 1.60154 0
M  V30 1961 O 184.954 -0.436467 1.74628 0
M  V30 1962 H 181.329 0.0915739 0.746404 0
M  V30 1963 H 183.3 1.19513 2.73421 0
M  V30 1964 C 182.049 -0.429779 3.45034 0
M  V30 1965 H 181.372 0.248024 3.9903 0
M  V30 1966 H 182.812 -0.775445 4.16849 0
M  V30 1967 C 181.271 -1.62677 2.95022 0
M  V30 1968 O 181.801 -2.72614 2.95033 0
M  V30 1969 N 180.007 -1.46387 2.51036 0
M  V30 1970 H 179.554 -0.569506 2.51226 0
M  V30 1971 H 179.512 -2.26612 2.17932 0
M  V30 1972 N 183.284 -1.43765 0.645699 0
M  V30 1973 C 184.231 -2.30745 -0.0504648 0
M  V30 1974 C 185.201 -1.4432 -0.822241 0
M  V30 1975 O 186.386 -1.73202 -0.800358 0
M  V30 1976 C 183.526 -3.29802 -1.0161 0
M  V30 1977 C 182.639 -4.31326 -0.241219 0
M  V30 1978 C 181.774 -5.17469 -1.19998 0
M  V30 1979 C 180.813 -6.10691 -0.415094 0
M  V30 1980 N 179.95 -6.89483 -1.32506 0
M  V30 1981 H 184.79 -2.8973 0.697155 0
M  V30 1982 H 182.327 -1.42738 0.355563 0
M  V30 1983 H 184.285 -3.85734 -1.58949 0
M  V30 1984 H 182.915 -2.72483 -1.73069 0
M  V30 1985 H 181.967 -3.77749 0.448334 0
M  V30 1986 H 183.279 -4.9743 0.369437 0
M  V30 1987 H 182.433 -5.7799 -1.84424 0
M  V30 1988 H 181.172 -4.51473 -1.84455 0
M  V30 1989 H 180.177 -5.49265 0.242565 0
M  V30 1990 H 181.402 -6.78727 0.224966 0
M  V30 1991 H 179.348 -6.26142 -1.95657 0
M  V30 1992 H 179.265 -7.52081 -0.768783 0
M  V30 1993 H 180.533 -7.54516 -1.9577 0
M  V30 1994 N 184.763 -0.387143 -1.52771 0
M  V30 1995 C 186.012 0.19697 -2.00736 0
M  V30 1996 C 186.325 1.48082 -1.27793 0
M  V30 1997 O 187.531 2.14485 -1.66458 0
M  V30 1998 C 185.987 0.401568 -3.57653 0
M  V30 1999 C 185.595 -0.868907 -4.39493 0
M  V30 2000 C 187.339 0.942164 -4.13912 0
M  V30 2001 C 185.246 -0.632705 -5.88006 0
M  V30 2002 H 184.176 0.0773827 -0.750019 0
M  V30 2003 H 186.827 -0.50921 -1.76293 0
M  V30 2004 H 185.209 1.16954 -3.78335 0
M  V30 2005 H 186.383 -1.64133 -4.30577 0
M  V30 2006 H 184.698 -1.33429 -3.94443 0
M  V30 2007 H 187.295 1.13455 -5.22525 0
M  V30 2008 H 187.638 1.9106 -3.69867 0
M  V30 2009 H 188.171 0.233814 -3.97112 0
M  V30 2010 H 184.91 -1.57208 -6.36369 0
M  V30 2011 H 184.43 0.100825 -5.99715 0
M  V30 2012 H 186.109 -0.26642 -6.46451 0
M  V30 2013 N 186.241 1.57166 -0.116904 0
M  V30 2014 C 187.518 1.86645 0.585049 0
M  V30 2015 C 187.898 1.0177 1.84949 0
M  V30 2016 O 187.246 0.0960379 2.28298 0
M  V30 2017 C 187.456 3.37736 0.879507 0
M  V30 2018 C 188.804 4.06289 1.23348 0
M  V30 2019 O 189.828 3.42743 0.969836 0
M  V30 2020 O 188.687 5.18455 1.7282 0
M  V30 2021 H 185.781 0.772593 0.295007 0
M  V30 2022 H 188.327 1.69025 -0.151249 0
M  V30 2023 H 187.099 3.91296 -0.0166136 0
M  V30 2024 H 186.722 3.6078 1.67103 0
M  V30 2025 N 187.719 -0.156864 1.56817 0
M  V30 2026 C 188.968 -0.869504 1.81996 0
M  V30 2027 C 189.281 -1.82777 0.696545 0
M  V30 2028 O 190.487 -2.58384 0.833658 0
M  V30 2029 C 188.943 -1.59679 3.22538 0
M  V30 2030 C 188.551 -0.681431 4.42787 0
M  V30 2031 C 190.295 -2.2968 3.56997 0
M  V30 2032 C 188.202 -1.40978 5.74351 0
M  V30 2033 H 187.132 -0.328438 0.678708 0
M  V30 2034 H 189.783 -0.1223 1.83092 0
M  V30 2035 H 188.165 -2.38927 3.158 0
M  V30 2036 H 189.339 0.0751166 4.60739 0
M  V30 2037 H 187.654 -0.0903431 4.16302 0
M  V30 2038 H 190.251 -2.84794 4.52544 0
M  V30 2039 H 190.594 -3.05707 2.82576 0
M  V30 2040 H 191.127 -1.57361 3.65352 0
M  V30 2041 H 187.866 -0.691561 6.51842 0
M  V30 2042 H 187.386 -2.13929 5.60352 0
M  V30 2043 H 189.065 -1.95337 6.16808 0
M  V30 2044 N 189.197 -1.51736 -0.425897 0
M  V30 2045 C 190.422 -1.69082 -1.20108 0
M  V30 2046 C 190.847 -0.392398 -1.83962 0
M  V30 2047 O 190.205 0.64858 -1.69302 0
M  V30 2048 C 190.253 -2.81604 -2.25237 0
M  V30 2049 O 189.357 -2.46004 -3.30992 0
M  V30 2050 H 188.698 -0.563408 -0.35138 0
M  V30 2051 H 191.228 -1.98358 -0.501512 0
M  V30 2052 H 191.238 -3.06025 -2.69838 0
M  V30 2053 H 189.913 -3.75817 -1.78142 0
M  V30 2054 H 188.49 -2.32195 -2.91787 0
M  V30 2055 N 190.675 0.682077 -1.42076 0
M  V30 2056 C 191.585 1.82535 -1.47371 0
M  V30 2057 C 192.601 1.7017 -0.363079 0
M  V30 2058 O 193.777 1.91848 -0.612875 0
M  V30 2059 C 190.842 3.18624 -1.36674 0
M  V30 2060 C 189.903 3.42999 -2.58167 0
M  V30 2061 C 189.136 4.72595 -2.4797 0
M  V30 2062 O 189.359 5.50006 -1.5116 0
M  V30 2063 O 188.293 4.98054 -3.37974 0
M  V30 2064 H 192.119 1.81023 -2.43853 0
M  V30 2065 H 189.704 0.836887 -1.2376 0
M  V30 2066 H 191.586 3.99847 -1.33043 0
M  V30 2067 H 190.261 3.20789 -0.433138 0
M  V30 2068 H 189.168 2.61653 -2.67373 0
M  V30 2069 H 190.501 3.45659 -3.50401 0
M  V30 2070 N 192.153 1.28127 0.917671 0
M  V30 2071 C 193.569 1.05749 1.19538 0
M  V30 2072 C 193.769 -0.202633 2.00479 0
M  V30 2073 O 192.825 -0.905382 2.3571 0
M  V30 2074 C 194.138 2.30273 1.93378 0
M  V30 2075 C 195.686 2.35412 2.06277 0
M  V30 2076 C 196.161 3.59692 2.83524 0
M  V30 2077 N 197.652 3.60309 2.91087 0
M  V30 2078 C 198.387 4.53147 3.51348 0
M  V30 2079 N 197.883 5.563 4.12919 0
M  V30 2080 N 199.676 4.40751 3.48849 0
M  V30 2081 H 191.827 2.09024 0.377184 0
M  V30 2082 H 194.09 0.919798 0.22951 0
M  V30 2083 H 193.796 3.22055 1.41328 0
M  V30 2084 H 193.67 2.36378 2.93947 0
M  V30 2085 H 196.057 1.4413 2.57508 0
M  V30 2086 H 196.138 2.33304 1.04895 0
M  V30 2087 H 195.782 4.51316 2.32973 0
M  V30 2088 H 195.712 3.59054 3.85211 0
M  V30 2089 H 198.203 2.85714 2.47338 0
M  V30 2090 H 198.516 6.2329 4.56869 0
M  V30 2091 H 196.861 5.60131 4.11435 0
M  V30 2092 H 200.052 3.59367 2.99955 0
M  V30 2093 H 200.225 5.13291 3.9552 0
M  V30 2094 N 193.631 -1.12557 1.10312 0
M  V30 2095 C 194.563 -2.17971 0.708625 0
M  V30 2096 C 195.576 -1.60806 -0.254027 0
M  V30 2097 O 196.765 -1.78458 -0.0386891 0
M  V30 2098 C 193.865 -3.38891 0.0248198 0
M  V30 2099 C 193.038 -4.25548 1.01132 0
M  V30 2100 C 192.097 -5.24972 0.35924 0
M  V30 2101 O 191.123 -5.60174 1.00965 0
M  V30 2102 N 192.325 -5.73747 -0.882847 0
M  V30 2103 H 195.09 -2.52427 1.61557 0
M  V30 2104 H 192.651 -1.27967 0.991771 0
M  V30 2105 H 194.643 -4.02485 -0.422852 0
M  V30 2106 H 193.213 -3.02596 -0.784514 0
M  V30 2107 H 192.433 -3.58589 1.6373 0
M  V30 2108 H 193.721 -4.80294 1.67914 0
M  V30 2109 H 193.119 -5.4731 -1.43065 0
M  V30 2110 H 191.676 -6.39234 -1.27369 0
M  V30 2111 N 195.109 -0.891671 -1.2995 0
M  V30 2112 C 196.355 -0.514261 -1.96171 0
M  V30 2113 C 196.688 0.935506 -1.70182 0
M  V30 2114 O 195.963 1.66204 -1.01028 0
M  V30 2115 C 196.246 -0.797719 -3.51153 0
M  V30 2116 C 196.099 -2.2986 -3.86632 0
M  V30 2117 C 197.418 -0.278749 -4.39216 0
M  V30 2118 H 194.537 -0.188314 -0.712535 0
M  V30 2119 H 197.179 -1.11689 -1.53706 0
M  V30 2120 H 195.329 -0.284826 -3.87455 0
M  V30 2121 H 197.001 -2.88042 -3.60319 0
M  V30 2122 H 195.244 -2.76257 -3.34462 0
M  V30 2123 H 195.915 -2.44753 -4.94773 0
M  V30 2124 H 198.391 -0.717825 -4.09862 0
M  V30 2125 H 197.267 -0.506353 -5.46559 0
M  V30 2126 H 197.528 0.820266 -4.34424 0
M  V30 2127 N 196.587 1.43421 -0.653314 0
M  V30 2128 C 197.812 2.06678 -0.172846 0
M  V30 2129 C 198.237 1.48648 1.15262 0
M  V30 2130 O 197.595 0.596457 1.71208 0
M  V30 2131 C 197.643 3.60474 -0.0953184 0
M  V30 2132 O 196.747 4.01487 0.942442 0
M  V30 2133 H 196.088 0.657181 -0.0949155 0
M  V30 2134 H 198.618 1.83925 -0.896265 0
M  V30 2135 H 198.628 4.07905 0.0879728 0
M  V30 2136 H 197.303 4.02088 -1.06291 0
M  V30 2137 H 195.88 3.65646 0.731932 0
M  V30 2138 N 198.065 0.39524 1.52563 0
M  V30 2139 C 199.293 -0.184943 2.06072 0
M  V30 2140 C 199.708 -1.40021 1.26647 0
M  V30 2141 O 199.065 -1.79767 0.314672 0
M  V30 2142 C 199.116 -0.549179 3.57304 0
M  V30 2143 O 198.837 0.617813 4.33722 0
M  V30 2144 C 200.338 -1.18459 4.2718 0
M  V30 2145 H 197.558 -0.0265025 0.670476 0
M  V30 2146 H 200.102 0.562184 1.96621 0
M  V30 2147 H 198.257 -1.2462 3.66809 0
M  V30 2148 H 198.671 0.317091 5.23541 0
M  V30 2149 H 200.145 -1.38976 5.34219 0
M  V30 2150 H 200.622 -2.15368 3.82771 0
M  V30 2151 H 201.228 -0.528163 4.22008 0
M  V30 2152 N 199.544 -1.57102 0.125237 0
M  V30 2153 C 200.454 -2.19191 -0.8362 0
M  V30 2154 C 201.47 -1.16985 -1.28805 0
M  V30 2155 O 202.646 -1.49479 -1.34974 0
M  V30 2156 C 199.711 -2.78407 -2.06617 0
M  V30 2157 C 198.772 -3.9567 -1.66565 0
M  V30 2158 C 198.005 -4.52052 -2.83698 0
M  V30 2159 O 198.228 -4.07326 -3.99302 0
M  V30 2160 O 197.162 -5.42645 -2.60423 0
M  V30 2161 H 200.988 -3.01816 -0.337776 0
M  V30 2162 H 198.573 -1.4906 -0.100695 0
M  V30 2163 H 200.455 -3.16129 -2.7864 0
M  V30 2164 H 199.13 -1.9881 -2.55453 0
M  V30 2165 H 198.037 -3.62705 -0.916296 0
M  V30 2166 H 199.37 -4.76722 -1.22464 0
M  V30 2167 N 201.022 0.148545 -1.56898 0
M  V30 2168 C 201.932 1.20293 -2.01412 0
M  V30 2169 C 202.948 1.47107 -0.929273 0
M  V30 2170 O 204.124 1.58807 -1.23863 0
M  V30 2171 C 201.189 2.51682 -2.38447 0
M  V30 2172 C 200.25 2.32529 -3.60872 0
M  V30 2173 C 199.483 3.57653 -3.96132 0
M  V30 2174 O 199.706 4.63771 -3.32073 0
M  V30 2175 O 198.64 3.50408 -4.89385 0
M  V30 2176 H 202.466 0.855025 -2.91416 0
M  V30 2177 H 200.051 0.357151 -1.45068 0
M  V30 2178 H 201.933 3.29147 -2.63135 0
M  V30 2179 H 200.608 2.86006 -1.51599 0
M  V30 2180 H 199.515 1.53019 -3.41373 0
M  V30 2181 H 200.848 2.03121 -4.48333 0
M  V30 2182 N 202.5 1.5196 0.417844 0
M  V30 2183 C 203.463 1.74065 1.49111 0
M  V30 2184 C 204.463 0.610537 1.48758 0
M  V30 2185 O 205.653 0.87832 1.50437 0
M  V30 2186 C 202.785 1.81502 2.88565 0
M  V30 2187 H 203.978 2.69869 1.30807 0
M  V30 2188 H 201.531 1.42244 0.647785 0
M  V30 2189 H 202.266 0.875813 3.1225 0
M  V30 2190 H 202.051 2.63651 2.90225 0
M  V30 2191 H 203.541 2.00376 3.66387 0
M  V30 2192 N 203.978 -0.674533 1.42435 0
M  V30 2193 C 204.91 -1.80005 1.41883 0
M  V30 2194 C 205.923 -1.59667 0.31787 0
M  V30 2195 O 207.112 -1.68781 0.580973 0
M  V30 2196 C 204.212 -3.17114 1.19549 0
M  V30 2197 C 203.385 -3.64299 2.42084 0
M  V30 2198 C 202.444 -4.80142 2.15291 0
M  V30 2199 O 201.47 -4.90673 2.88493 0
M  V30 2200 N 202.672 -5.68869 1.1562 0
M  V30 2201 H 205.437 -1.80964 2.38898 0
M  V30 2202 H 202.998 -0.857633 1.37318 0
M  V30 2203 H 204.99 -3.92267 0.995417 0
M  V30 2204 H 203.56 -3.11053 0.310569 0
M  V30 2205 H 202.78 -2.79822 2.77657 0
M  V30 2206 H 204.068 -3.92567 3.23679 0
M  V30 2207 H 203.466 -5.63012 0.550765 0
M  V30 2208 H 202.023 -6.43833 1.016 0
M  V30 2209 N 205.456 -1.28612 -0.910864 0
M  V30 2210 C 206.419 -1.12803 -1.9952 0
M  V30 2211 C 207.419 -0.0668264 -1.60661 0
M  V30 2212 O 208.609 -0.312847 -1.71368 0
M  V30 2213 C 205.741 -0.72254 -3.33155 0
M  V30 2214 H 206.934 -2.09109 -2.14973 0
M  V30 2215 H 204.487 -1.11639 -1.09391 0
M  V30 2216 H 205.222 0.241152 -3.23402 0
M  V30 2217 H 205.007 -1.48916 -3.62721 0
M  V30 2218 H 206.497 -0.634666 -4.12749 0
M  V30 2219 N 206.934 1.1197 -1.10907 0
M  V30 2220 C 208.18 1.84059 -0.865674 0
M  V30 2221 C 208.535 1.82731 0.602254 0
M  V30 2222 O 207.828 1.26543 1.43866 0
M  V30 2223 C 208.022 3.30749 -1.35425 0
M  V30 2224 C 207.851 3.46363 -2.86815 0
M  V30 2225 C 206.621 3.59712 -3.54874 0
M  V30 2226 C 208.819 3.41116 -3.84895 0
M  V30 2227 N 206.801 3.63741 -4.94536 0
M  V30 2228 C 208.172 3.51698 -5.10596 0
M  V30 2229 C 210.227 3.24612 -3.77533 0
M  V30 2230 C 208.93 3.4748 -6.29802 0
M  V30 2231 C 210.956 3.21708 -4.96244 0
M  V30 2232 C 210.318 3.32856 -6.20795 0
M  V30 2233 H 206.417 0.689015 -0.369841 0
M  V30 2234 H 209.001 1.34016 -1.41237 0
M  V30 2235 H 207.172 3.79322 -0.834814 0
M  V30 2236 H 208.904 3.90718 -1.05458 0
M  V30 2237 H 205.659 3.62038 -3.05329 0
M  V30 2238 H 206.083 3.69408 -5.67333 0
M  V30 2239 H 210.725 3.14883 -2.8215 0
M  V30 2240 H 208.443 3.55978 -7.25469 0
M  V30 2241 H 212.029 3.10113 -4.92261 0
M  V30 2242 H 210.909 3.3059 -7.11112 0
M  V30 2243 N 208.412 0.89855 1.29475 0
M  V30 2244 C 209.652 0.530771 1.97388 0
M  V30 2245 C 210.016 -0.905832 1.69289 0
M  V30 2246 O 211.217 -1.38042 2.30646 0
M  V30 2247 C 209.488 0.81369 3.48014 0
M  V30 2248 S 211.047 0.550048 4.35339 0
M  V30 2249 H 207.865 0.196956 0.683176 0
M  V30 2250 H 210.467 1.16074 1.57312 0
M  V30 2251 H 209.171 1.85749 3.65958 0
M  V30 2252 H 208.702 0.171795 3.93025 0
M  V30 2253 H 210.717 -0.605423 4.92493 0
M  V30 2254 N 209.89 -1.43072 0.660911 0
M  V30 2255 C 211.306 -1.56169 0.329173 0
M  V30 2256 C 211.506 -1.64317 -1.16629 0
M  V30 2257 O 210.562 -1.60245 -1.95135 0
M  V30 2258 C 211.875 -2.81873 1.04729 0
M  V30 2259 C 213.423 -2.95627 1.02828 0
M  V30 2260 C 213.898 -4.24174 1.72744 0
M  V30 2261 N 215.389 -4.31055 1.69545 0
M  V30 2262 C 216.124 -5.29304 2.20511 0
M  V30 2263 N 215.62 -6.33786 2.79799 0
M  V30 2264 N 217.413 -5.21008 2.10966 0
M  V30 2265 H 209.564 -1.36027 1.63127 0
M  V30 2266 H 211.827 -0.653823 0.686454 0
M  V30 2267 H 211.533 -2.81942 2.10242 0
M  V30 2268 H 211.407 -3.72338 0.603702 0
M  V30 2269 H 213.794 -2.95094 -0.0184742 0
M  V30 2270 H 213.875 -2.06431 1.51063 0
M  V30 2271 H 213.519 -4.25467 2.7738 0
M  V30 2272 H 213.449 -5.1228 1.2197 0
M  V30 2273 H 215.94 -3.56174 1.26288 0
M  V30 2274 H 216.253 -7.05086 3.16344 0
M  V30 2275 H 214.598 -6.34387 2.83863 0
M  V30 2276 H 217.789 -4.38301 1.64347 0
M  V30 2277 H 217.962 -5.97416 2.50993 0
M  V30 2278 N 211.368 -0.403325 -1.52352 0
M  V30 2279 C 212.645 0.232611 -1.94212 0
M  V30 2280 C 213.025 1.63133 -1.33981 0
M  V30 2281 O 212.373 2.22659 -0.513344 0
M  V30 2282 C 212.583 0.244811 -3.4814 0
M  V30 2283 C 213.931 0.46698 -4.22024 0
M  V30 2284 O 214.955 0.324419 -3.5472 0
M  V30 2285 O 213.814 0.74747 -5.41364 0
M  V30 2286 H 210.908 0.148223 -0.813609 0
M  V30 2287 H 213.454 -0.458848 -1.63379 0
M  V30 2288 H 212.226 -0.734378 -3.84347 0
M  V30 2289 H 211.849 0.980611 -3.85318 0
M  V30 2290 N 212.846 1.57033 -0.133567 0
M  V30 2291 C 213.794 2.17348 0.828412 0
M  V30 2292 C 214.788 1.12671 1.26498 0
M  V30 2293 O 215.994 1.30947 1.23502 0
M  V30 2294 H 212.369 0.695775 0.285309 0
M  V30 2295 H 214.34 2.96935 0.295372 0
M  V30 2296 C 213.089 2.79893 2.06289 0
M  V30 2297 H 212.412 3.60147 1.73592 0
M  V30 2298 H 213.852 3.25615 2.71572 0
M  V30 2299 C 212.311 1.77713 2.86216 0
M  V30 2300 O 212.841 1.23937 3.82103 0
M  V30 2301 N 211.047 1.47321 2.50489 0
M  V30 2302 H 210.594 1.91243 1.7258 0
M  V30 2303 H 210.552 0.79199 3.04261 0
M  V30 2304 N 214.325 -0.140222 1.56975 0
M  V30 2305 C 215.573 -0.850005 1.83356 0
M  V30 2306 C 215.894 -1.81399 0.71551 0
M  V30 2307 O 215.164 -1.94136 -0.262294 0
M  V30 2308 H 213.744 -0.316886 0.676456 0
M  V30 2309 H 216.406 -0.132608 1.94448 0
M  V30 2310 H 215.502 -1.40814 2.78528 0
M  V30 2311 N 215.803 -1.52179 -0.40978 0
M  V30 2312 C 217.08 -1.56769 -1.16974 0
M  V30 2313 C 217.46 -0.348322 -2.08206 0
M  V30 2314 O 216.808 0.664862 -2.18613 0
M  V30 2315 C 217.018 -2.89603 -1.9476 0
M  V30 2316 C 218.366 -3.42579 -2.50849 0
M  V30 2317 O 219.39 -2.91338 -2.04941 0
M  V30 2318 O 218.249 -4.32054 -3.34652 0
M  V30 2319 H 215.343 -0.631439 -0.534054 0
M  V30 2320 H 217.889 -1.64507 -0.416613 0
M  V30 2321 H 216.661 -3.698 -1.27921 0
M  V30 2322 H 216.284 -2.85155 -2.77079 0
M  V30 2323 N 217.281 0.66697 -1.42791 0
M  V30 2324 C 218.511 1.45294 -1.46878 0
M  V30 2325 C 218.919 1.89027 -0.0809861 0
M  V30 2326 O 218.262 1.59219 0.916246 0
M  V30 2327 C 218.324 2.72908 -2.34012 0
M  V30 2328 C 217.988 2.51203 -3.81767 0
M  V30 2329 C 218.985 2.15302 -4.73224 0
M  V30 2330 C 216.67 2.65954 -4.26115 0
M  V30 2331 C 218.664 1.94431 -6.07022 0
M  V30 2332 C 216.351 2.44699 -5.59969 0
M  V30 2333 C 217.349 2.08992 -6.5024 0
M  V30 2334 O 217.037 1.87948 -7.81621 0
M  V30 2335 H 216.769 0.453306 -0.501487 0
M  V30 2336 H 219.323 0.826232 -1.88049 0
M  V30 2337 H 217.553 3.38089 -1.87703 0
M  V30 2338 H 219.242 3.34816 -2.29462 0
M  V30 2339 H 220.008 2.03495 -4.40244 0
M  V30 2340 H 215.887 2.92724 -3.56137 0
M  V30 2341 H 219.431 1.66484 -6.77443 0
M  V30 2342 H 215.328 2.56105 -5.9252 0
M  V30 2343 H 216.096 2.02483 -7.93059 0
M  V30 2344 N 218.759 1.29093 0.90403 0
M  V30 2345 C 220.17 1.15186 1.46932 0
M  V30 2346 C 220.521 -0.254587 1.94541 0
M  V30 2347 O 219.646 -1.14972 1.83332 0
M  V30 2348 C 220.241 2.08492 2.67051 0
M  V30 2349 C 218.8 1.98621 3.19729 0
M  V30 2350 C 217.947 1.9967 1.92425 0
M  V30 2351 H 220.898 1.41641 0.715789 0
M  V30 2352 H 220.919 1.65461 3.42641 0
M  V30 2353 H 220.431 3.10847 2.3237 0
M  V30 2354 H 218.532 0.993389 3.59114 0
M  V30 2355 H 218.645 2.86068 3.8432 0
M  V30 2356 H 217.009 1.44208 2.09943 0
M  V30 2357 H 217.792 3.03721 1.60026 0
M  V30 2358 N 220.237 -1.11381 1.11499 0
M  V30 2359 C 221.467 -1.86663 0.885464 0
M  V30 2360 C 221.875 -1.80464 -0.568281 0
M  V30 2361 O 221.218 -1.18445 -1.40415 0
M  V30 2362 C 221.28 -3.36337 1.26956 0
M  V30 2363 C 220.944 -3.66304 2.73259 0
M  V30 2364 C 221.941 -3.63733 3.71476 0
M  V30 2365 C 219.626 -3.9529 3.09921 0
M  V30 2366 C 221.62 -3.89725 5.04374 0
M  V30 2367 C 219.307 -4.20941 4.43004 0
M  V30 2368 C 220.305 -4.18147 5.40039 0
M  V30 2369 O 219.993 -4.43153 6.70724 0
M  V30 2370 H 219.725 -0.597114 0.316908 0
M  V30 2371 H 222.279 -1.41782 1.48617 0
M  V30 2372 H 220.509 -3.81826 0.611999 0
M  V30 2373 H 222.198 -3.92986 1.01573 0
M  V30 2374 H 222.964 -3.41389 3.44498 0
M  V30 2375 H 218.843 -3.966 2.35009 0
M  V30 2376 H 222.387 -3.8746 5.80104 0
M  V30 2377 H 218.284 -4.42761 4.69716 0
M  V30 2378 H 219.052 -4.60717 6.76522 0
M  V30 2379 N 221.715 -0.905404 -1.28997 0
M  V30 2380 C 222.962 -0.534248 -1.95325 0
M  V30 2381 C 223.29 0.920535 -1.71337 0
M  V30 2382 O 222.545 1.66861 -1.02254 0
M  V30 2383 C 222.844 -0.779906 -3.48787 0
M  V30 2384 C 222.51 -2.21293 -3.92861 0
M  V30 2385 C 221.172 -2.60475 -4.04606 0
M  V30 2386 C 223.524 -3.14587 -4.15553 0
M  V30 2387 C 220.852 -3.9212 -4.36416 0
M  V30 2388 C 223.204 -4.45787 -4.48839 0
M  V30 2389 C 221.868 -4.84834 -4.58794 0
M  V30 2390 H 221.138 -0.195495 -0.714747 0
M  V30 2391 H 223.785 -1.14514 -1.53488 0
M  V30 2392 H 222.09 -0.0861365 -3.91705 0
M  V30 2393 H 223.787 -0.472029 -3.98212 0
M  V30 2394 H 220.377 -1.89887 -3.84241 0
M  V30 2395 H 224.561 -2.85528 -4.0594 0
M  V30 2396 H 219.817 -4.22086 -4.42327 0
M  V30 2397 H 223.991 -5.18098 -4.65346 0
M  V30 2398 H 221.618 -5.86877 -4.83197 0
M  V30 2399 N 223.193 1.4272 -0.668489 0
M  V30 2400 C 224.103 2.34596 0.0139753 0
M  V30 2401 C 225.119 1.5474 0.795703 0
M  V30 2402 O 226.295 1.87334 0.739466 0
M  V30 2403 C 223.36 3.33202 0.957982 0
M  V30 2404 C 222.421 4.28957 0.17149 0
M  V30 2405 C 221.654 5.22853 1.07053 0
M  V30 2406 O 221.877 5.21531 2.31001 0
M  V30 2407 O 220.811 5.9952 0.534727 0
M  V30 2408 H 224.637 2.9448 -0.742661 0
M  V30 2409 H 222.222 1.43117 -0.428705 0
M  V30 2410 H 224.104 3.93796 1.50008 0
M  V30 2411 H 222.779 2.758 1.69458 0
M  V30 2412 H 221.686 3.71796 -0.414558 0
M  V30 2413 H 223.019 4.89383 -0.52586 0
M  V30 2414 N 224.671 0.411399 1.52136 0
M  V30 2415 C 225.899 -0.163076 2.06256 0
M  V30 2416 C 226.314 -1.3867 1.28125 0
M  V30 2417 O 225.671 -1.79423 0.333721 0
M  V30 2418 C 225.722 -0.511252 3.57867 0
M  V30 2419 O 225.443 0.66378 4.33042 0
M  V30 2420 C 226.944 -1.13921 4.28412 0
M  V30 2421 H 224.164 -0.0193897 0.67072 0
M  V30 2422 H 226.708 0.583007 1.96013 0
M  V30 2423 H 224.863 -1.20723 3.6811 0
M  V30 2424 H 225.277 0.372601 5.23175 0
M  V30 2425 H 226.751 -1.33302 5.35663 0
M  V30 2426 H 227.228 -2.11296 3.85033 0
M  V30 2427 H 227.834 -0.483373 4.22544 0
M  V30 2428 N 226.149 -1.5696 0.141893 0
M  V30 2429 C 227.374 -2.00754 -0.520838 0
M  V30 2430 C 227.799 -1.0213 -1.57959 0
M  V30 2431 O 227.157 0.00371324 -1.813 0
M  V30 2432 C 227.205 -3.43318 -1.10294 0
M  V30 2433 O 226.309 -3.47679 -2.21795 0
M  V30 2434 H 225.65 -0.651564 -0.127908 0
M  V30 2435 H 228.18 -2.03221 0.23712 0
M  V30 2436 H 228.19 -3.82012 -1.43287 0
M  V30 2437 H 226.865 -4.14608 -0.327574 0
M  V30 2438 H 225.442 -3.20824 -1.9007 0
M  V30 2439 N 227.627 0.131896 -1.57047 0
M  V30 2440 C 228.59 1.14638 -1.98471 0
M  V30 2441 C 229.59 1.35029 -0.873148 0
M  V30 2442 O 230.78 1.31764 -1.13946 0
M  V30 2443 C 227.912 2.50358 -2.31373 0
M  V30 2444 H 229.105 0.79064 -2.8929 0
M  V30 2445 H 226.658 0.375761 -1.51716 0
M  V30 2446 H 227.393 2.90876 -1.43393 0
M  V30 2447 H 227.178 2.36915 -3.12432 0
M  V30 2448 H 228.668 3.23395 -2.64207 0
M  V30 2449 N 229.106 1.52395 0.401703 0
M  V30 2450 C 230.053 1.76268 1.48991 0
M  V30 2451 C 231.023 0.605386 1.54675 0
M  V30 2452 O 232.208 0.843742 1.7113 0
M  V30 2453 C 229.348 1.92592 2.86361 0
M  V30 2454 C 228.461 3.20259 2.89928 0
M  V30 2455 C 227.596 3.26972 4.18644 0
M  V30 2456 C 226.635 4.48812 4.16214 0
M  V30 2457 N 225.772 4.52877 5.36514 0
M  V30 2458 H 230.612 2.6914 1.27935 0
M  V30 2459 H 228.149 1.33355 0.620871 0
M  V30 2460 H 230.107 2.0004 3.66115 0
M  V30 2461 H 228.737 1.03093 3.05895 0
M  V30 2462 H 227.789 3.21945 2.02621 0
M  V30 2463 H 229.101 4.10056 2.83999 0
M  V30 2464 H 228.255 3.33533 5.06794 0
M  V30 2465 H 226.994 2.35126 4.27278 0
M  V30 2466 H 225.999 4.4239 3.26453 0
M  V30 2467 H 227.224 5.41961 4.09213 0
M  V30 2468 H 225.17 3.63917 5.45802 0
M  V30 2469 H 225.087 5.36529 5.32609 0
M  V30 2470 H 226.355 4.63676 6.26597 0
M  V30 2471 N 230.584 -0.659388 1.43143 0
M  V30 2472 C 231.861 -1.41627 1.34912 0
M  V30 2473 C 232.241 -2.11099 -0.00607785 0
M  V30 2474 O 231.589 -2.04353 -1.02236 0
M  V30 2475 C 231.799 -2.40604 2.52805 0
M  V30 2476 C 233.147 -3.04789 2.95616 0
M  V30 2477 O 234.171 -2.50932 2.52807 0
M  V30 2478 O 233.03 -4.02421 3.69756 0
M  V30 2479 H 230.124 -0.63246 0.532844 0
M  V30 2480 H 232.67 -0.686814 1.5518 0
M  V30 2481 H 231.442 -1.88174 3.43083 0
M  V30 2482 H 231.065 -3.21009 2.34604 0
M  V30 2483 N 232.062 -1.29571 -0.897171 0
M  V30 2484 C 233.025 -1.14913 -1.98312 0
M  V30 2485 C 234.025 -0.0838629 -1.60581 0
M  V30 2486 O 235.215 -0.331006 -1.71026 0
M  V30 2487 C 232.347 -0.757835 -3.3237 0
M  V30 2488 H 233.54 -2.11377 -2.12743 0
M  V30 2489 H 231.093 -1.12793 -1.08201 0
M  V30 2490 H 231.828 0.206837 -3.2364 0
M  V30 2491 H 231.613 -1.52755 -3.61121 0
M  V30 2492 H 233.103 -0.678408 -4.12053 0
M  V30 2493 N 233.54 1.10788 -1.12088 0
M  V30 2494 C 234.768 1.86461 -0.896651 0
M  V30 2495 C 235.183 1.80492 0.553912 0
M  V30 2496 O 234.54 1.19102 1.38278 0
M  V30 2497 C 234.591 3.35006 -1.35843 0
M  V30 2498 O 234.312 3.40866 -2.75213 0
M  V30 2499 C 235.813 4.27565 -1.1706 0
M  V30 2500 H 233.033 0.589425 -0.320654 0
M  V30 2501 H 235.577 1.40076 -1.48993 0
M  V30 2502 H 233.732 3.7887 -0.808458 0
M  V30 2503 H 234.146 4.33411 -2.9539 0
M  V30 2504 H 235.62 5.30007 -1.54263 0
M  V30 2505 H 236.097 4.3906 -0.110814 0
M  V30 2506 H 236.703 3.89501 -1.70789 0
M  V30 2507 N 235.018 0.912232 1.28515 0
M  V30 2508 C 235.966 0.389597 2.29314 0
M  V30 2509 C 236.96 -0.517915 1.61289 0
M  V30 2510 O 238.166 -0.399328 1.75515 0
M  V30 2511 H 234.541 0.107386 0.744293 0
M  V30 2512 H 236.512 1.25286 2.70825 0
M  V30 2513 C 235.261 -0.356496 3.45868 0
M  V30 2514 H 234.584 0.332608 3.98414 0
M  V30 2515 H 236.024 -0.686851 4.184 0
M  V30 2516 C 234.483 -1.56383 2.98406 0
M  V30 2517 O 235.013 -2.66294 3.00749 0
M  V30 2518 N 233.219 -1.41029 2.54085 0
M  V30 2519 H 232.766 -0.516089 2.52377 0
M  V30 2520 H 232.724 -2.21939 2.22689 0
M  V30 2521 N 236.496 -1.42363 0.676048 0
M  V30 2522 C 237.742 -2.0182 0.199125 0
M  V30 2523 C 238.075 -1.53339 -1.19168 0
M  V30 2524 O 237.35 -0.736124 -1.80032 0
M  V30 2525 C 237.633 -3.59331 0.235144 0
M  V30 2526 C 237.486 -4.17989 1.66149 0
M  V30 2527 C 238.805 -4.3813 -0.41595 0
M  V30 2528 H 235.924 -0.733293 0.0738311 0
M  V30 2529 H 238.566 -1.69368 0.86107 0
M  V30 2530 H 236.716 -3.87109 -0.328487 0
M  V30 2531 H 238.388 -4.0116 2.27747 0
M  V30 2532 H 236.631 -3.7377 2.20178 0
M  V30 2533 H 237.302 -5.27126 1.63837 0
M  V30 2534 H 239.778 -4.16051 0.0638529 0
M  V30 2535 H 238.654 -5.47717 -0.360115 0
M  V30 2536 H 238.915 -4.16101 -1.49373 0
M  V30 2537 N 237.974 -0.419461 -1.51915 0
M  V30 2538 C 238.937 0.389116 -2.25873 0
M  V30 2539 C 239.937 0.964924 -1.28631 0
M  V30 2540 O 241.127 0.842179 -1.52489 0
M  V30 2541 C 238.259 1.54874 -3.03689 0
M  V30 2542 H 239.452 -0.258799 -2.98781 0
M  V30 2543 H 237.005 -0.172209 -1.55348 0
M  V30 2544 H 237.74 2.23323 -2.35154 0
M  V30 2545 H 237.525 1.14223 -3.75094 0
M  V30 2546 H 239.015 2.12046 -3.59759 0
M  V30 2547 N 239.452 1.56882 -0.150215 0
M  V30 2548 C 240.415 2.1573 0.774157 0
M  V30 2549 C 241.415 1.0999 1.17298 0
M  V30 2550 O 242.605 1.35613 1.09338 0
M  V30 2551 C 239.737 2.72302 2.05096 0
M  V30 2552 H 240.93 2.98752 0.262201 0
M  V30 2553 H 238.483 1.55985 0.099248 0
M  V30 2554 H 239.218 1.92956 2.6065 0
M  V30 2555 H 239.003 3.49665 1.77416 0
M  V30 2556 H 240.493 3.17632 2.71109 0
M  V30 2557 N 240.93 -0.123565 1.57115 0
M  V30 2558 C 241.893 -1.13583 1.99076 0
M  V30 2559 C 242.893 -1.34564 0.880296 0
M  V30 2560 O 244.083 -1.31158 1.14644 0
M  V30 2561 C 241.215 -2.49128 2.32698 0
M  V30 2562 H 242.408 -0.775287 2.89706 0
M  V30 2563 H 239.961 -0.36771 1.51913 0
M  V30 2564 H 240.696 -2.90111 1.44934 0
M  V30 2565 H 240.481 -2.35255 3.13684 0
M  V30 2566 H 241.971 -3.2199 2.65918 0
M  V30 2567 N 242.408 -1.52605 -0.393616 0
M  V30 2568 C 243.655 -1.67424 -1.1391 0
M  V30 2569 C 243.983 -0.411859 -1.90089 0
M  V30 2570 O 243.238 0.605626 -1.86093 0
M  V30 2571 C 243.537 -2.85721 -2.14705 0
M  V30 2572 C 243.203 -4.23342 -1.55218 0
M  V30 2573 C 241.865 -4.60771 -1.3872 0
M  V30 2574 C 244.217 -5.09041 -1.11924 0
M  V30 2575 C 241.545 -5.81563 -0.774689 0
M  V30 2576 C 243.897 -6.30452 -0.520853 0
M  V30 2577 C 242.561 -6.66617 -0.343134 0
M  V30 2578 H 241.831 -0.612648 -0.416826 0
M  V30 2579 H 244.478 -1.8674 -0.424315 0
M  V30 2580 H 242.783 -2.60803 -2.92385 0
M  V30 2581 H 244.48 -2.94382 -2.72288 0
M  V30 2582 H 241.07 -3.93855 -1.69045 0
M  V30 2583 H 245.254 -4.80695 -1.23473 0
M  V30 2584 H 240.51 -6.08196 -0.625154 0
M  V30 2585 H 244.684 -6.96175 -0.177065 0
M  V30 2586 H 242.311 -7.60083 0.133571 0
M  V30 2587 N 243.887 0.651787 -1.4349 0
M  V30 2588 C 244.797 1.79368 -1.5121 0
M  V30 2589 C 245.813 1.69361 -0.399093 0
M  V30 2590 O 246.989 1.90505 -0.653431 0
M  V30 2591 C 244.054 3.15653 -1.43401 0
M  V30 2592 C 243.115 3.37446 -2.65384 0
M  V30 2593 C 242.348 4.67229 -2.57939 0
M  V30 2594 O 242.571 5.46676 -1.62792 0
M  V30 2595 O 241.505 4.90773 -3.48462 0
M  V30 2596 H 245.331 1.7581 -2.47638 0
M  V30 2597 H 242.916 0.810447 -1.25507 0
M  V30 2598 H 244.798 3.96935 -1.41494 0
M  V30 2599 H 243.473 3.19798 -0.501085 0
M  V30 2600 H 242.38 2.55923 -2.72863 0
M  V30 2601 H 243.713 3.38148 -3.57654 0
M  V30 2602 N 245.365 1.30045 0.890287 0
M  V30 2603 C 246.275 1.17885 2.02831 0
M  V30 2604 C 247.291 0.0999609 1.73713 0
M  V30 2605 O 248.467 0.313867 1.98939 0
M  V30 2606 C 245.532 0.866079 3.35708 0
M  V30 2607 C 244.593 2.02979 3.78283 0
M  V30 2608 C 243.826 1.73184 5.0482 0
M  V30 2609 O 244.049 0.657237 5.66601 0
M  V30 2610 O 242.983 2.58267 5.43674 0
M  V30 2611 H 246.809 2.13474 2.16015 0
M  V30 2612 H 244.394 1.09587 1.01543 0
M  V30 2613 H 246.276 0.706623 4.15433 0
M  V30 2614 H 244.951 -0.0599443 3.23644 0
M  V30 2615 H 243.858 2.24454 2.99285 0
M  V30 2616 H 245.191 2.93734 3.94944 0
M  V30 2617 N 246.843 -1.10192 1.12674 0
M  V30 2618 C 247.806 -2.14786 0.799979 0
M  V30 2619 C 248.806 -1.59711 -0.18685 0
M  V30 2620 O 249.996 -1.74156 0.0392558 0
M  V30 2621 C 247.128 -3.40374 0.189228 0
M  V30 2622 H 248.321 -2.45203 1.72671 0
M  V30 2623 H 245.874 -1.25597 0.930326 0
M  V30 2624 H 246.609 -3.15577 -0.747107 0
M  V30 2625 H 246.394 -3.81637 0.899766 0
M  V30 2626 H 247.884 -4.17594 -0.0228143 0
M  V30 2627 N 248.321 -0.919034 -1.28029 0
M  V30 2628 C 249.567 -0.555757 -1.95036 0
M  V30 2629 C 249.9 0.899198 -1.72128 0
M  V30 2630 O 249.175 1.64023 -1.04531 0
M  V30 2631 C 249.458 -0.872024 -3.49382 0
M  V30 2632 C 249.311 -2.3801 -3.81669 0
M  V30 2633 C 250.63 -0.37185 -4.38526 0
M  V30 2634 H 247.749 -0.203386 -0.708381 0
M  V30 2635 H 250.391 -1.14924 -1.51303 0
M  V30 2636 H 248.541 -0.366946 -3.86763 0
M  V30 2637 H 250.213 -2.9562 -3.54128 0
M  V30 2638 H 248.456 -2.83289 -3.28526 0
M  V30 2639 H 249.127 -2.55192 -4.8947 0
M  V30 2640 H 251.603 -0.804602 -4.08247 0
M  V30 2641 H 250.479 -0.622173 -5.45362 0
M  V30 2642 H 250.74 0.727934 -4.36066 0
M  V30 2643 N 249.799 1.42003 -0.683588 0
M  V30 2644 C 251.215 1.55625 -0.353976 0
M  V30 2645 C 251.415 1.66151 1.14 0
M  V30 2646 O 250.471 1.63329 1.92561 0
M  V30 2647 C 251.784 2.80171 -1.092 0
M  V30 2648 C 253.332 2.93954 -1.07518 0
M  V30 2649 C 253.807 4.21372 -1.79471 0
M  V30 2650 N 255.298 4.28303 -1.76381 0
M  V30 2651 C 256.033 5.25729 -2.28904 0
M  V30 2652 N 255.529 6.29254 -2.89846 0
M  V30 2653 N 257.322 5.17586 -2.19228 0
M  V30 2654 H 249.473 1.33415 -1.6527 0
M  V30 2655 H 251.736 0.64282 -0.696769 0
M  V30 2656 H 251.442 2.78561 -2.14701 0
M  V30 2657 H 251.316 3.7133 -0.662862 0
M  V30 2658 H 253.703 2.95086 -0.028475 0
M  V30 2659 H 253.784 2.04002 -1.54328 0
M  V30 2660 H 253.428 4.21001 -2.84114 0
M  V30 2661 H 253.358 5.10275 -1.30104 0
M  V30 2662 H 255.849 3.54119 -1.31939 0
M  V30 2663 H 256.162 6.99964 -3.27522 0
M  V30 2664 H 254.507 6.29791 -2.93919 0
M  V30 2665 H 257.698 4.35631 -1.71299 0
M  V30 2666 H 257.871 5.93348 -2.60466 0
M  V30 2667 N 251.277 0.427512 1.51691 0
M  V30 2668 C 252.693 0.0792977 1.59403 0
M  V30 2669 C 252.893 -1.41035 1.43914 0
M  V30 2670 O 251.949 -2.17922 1.27539 0
M  V30 2671 C 253.262 0.590636 2.94842 0
M  V30 2672 C 254.81 0.550215 3.08126 0
M  V30 2673 C 255.285 1.03836 4.46074 0
M  V30 2674 N 256.776 0.995943 4.52366 0
M  V30 2675 C 257.511 1.34463 5.57411 0
M  V30 2676 N 257.007 1.76569 6.69922 0
M  V30 2677 N 258.8 1.26343 5.47717 0
M  V30 2678 H 250.951 1.39687 1.60004 0
M  V30 2679 H 253.214 0.575003 0.753708 0
M  V30 2680 H 252.92 1.63251 3.11516 0
M  V30 2681 H 252.794 0.0102061 3.77199 0
M  V30 2682 H 255.181 -0.482654 2.91126 0
M  V30 2683 H 255.262 1.16693 2.27632 0
M  V30 2684 H 254.906 2.06965 4.63819 0
M  V30 2685 H 254.836 0.398286 5.25092 0
M  V30 2686 H 257.327 0.68661 3.7161 0
M  V30 2687 H 257.64 2.01438 7.46085 0
M  V30 2688 H 255.985 1.80488 6.71155 0
M  V30 2689 H 259.176 0.933209 4.58703 0
M  V30 2690 H 259.349 1.53846 6.29472 0
M  V30 2691 N 252.755 -1.56801 0.158532 0
M  V30 2692 C 254.001 -1.96781 -0.490405 0
M  V30 2693 C 254.334 -1.04397 -1.63753 0
M  V30 2694 O 253.609 -0.0885805 -1.94298 0
M  V30 2695 C 253.892 -3.4635 -0.985594 0
M  V30 2696 C 253.745 -4.49512 0.160824 0
M  V30 2697 C 255.064 -3.98697 -1.86355 0
M  V30 2698 H 252.183 -0.715482 -0.176788 0
M  V30 2699 H 254.825 -1.88451 0.242088 0
M  V30 2700 H 252.975 -3.53579 -1.60978 0
M  V30 2701 H 254.647 -4.54353 0.797537 0
M  V30 2702 H 252.89 -4.26013 0.818256 0
M  V30 2703 H 253.561 -5.51531 -0.227569 0
M  V30 2704 H 256.037 -3.94019 -1.33746 0
M  V30 2705 H 254.913 -5.03792 -2.17909 0
M  V30 2706 H 255.174 -3.41744 -2.8047 0
M  V30 2707 N 254.233 0.115231 -1.57178 0
M  V30 2708 C 255.163 1.1423 -2.03651 0
M  V30 2709 C 256.144 1.42967 -0.921655 0
M  V30 2710 O 257.329 1.53343 -1.19162 0
M  V30 2711 C 254.459 2.4675 -2.44401 0
M  V30 2712 C 253.413 2.32467 -3.59365 0
M  V30 2713 C 252.739 3.69984 -3.86026 0
M  V30 2714 C 254.039 1.78203 -4.90959 0
M  V30 2715 H 255.733 0.755749 -2.89705 0
M  V30 2716 H 253.279 0.362093 -1.39373 0
M  V30 2717 H 255.232 3.18854 -2.75517 0
M  V30 2718 H 253.956 2.87302 -1.55322 0
M  V30 2719 H 252.615 1.62811 -3.28463 0
M  V30 2720 H 252.263 4.08028 -2.94147 0
M  V30 2721 H 251.963 3.61279 -4.63412 0
M  V30 2722 H 253.487 4.43587 -4.19599 0
M  V30 2723 H 254.901 2.40128 -5.20587 0
M  V30 2724 H 253.298 1.8031 -5.72371 0
M  V30 2725 H 254.368 0.739876 -4.79222 0
M  V30 2726 N 255.711 1.52812 0.385517 0
M  V30 2727 C 256.674 1.77188 1.45386 0
M  V30 2728 C 257.674 0.641953 1.4743 0
M  V30 2729 O 258.864 0.910033 1.4854 0
M  V30 2730 C 255.996 1.87582 2.8465 0
M  V30 2731 H 257.189 2.72583 1.25054 0
M  V30 2732 H 254.742 1.43586 0.617467 0
M  V30 2733 H 255.477 0.941849 3.10322 0
M  V30 2734 H 255.262 2.69748 2.84567 0
M  V30 2735 H 256.752 2.08102 3.62054 0
M  V30 2736 N 257.189 -0.644168 1.43834 0
M  V30 2737 C 258.417 -1.43147 1.49387 0
M  V30 2738 C 258.832 -1.88452 0.114583 0
M  V30 2739 O 258.189 -1.60047 -0.876989 0
M  V30 2740 C 258.24 -2.66046 2.44748 0
M  V30 2741 O 257.961 -2.22633 3.77314 0
M  V30 2742 C 259.462 -3.59311 2.59635 0
M  V30 2743 H 256.682 -0.439447 0.507077 0
M  V30 2744 H 259.226 -0.78895 1.88669 0
M  V30 2745 H 257.381 -3.26418 2.08638 0
M  V30 2746 H 257.795 -3.02216 4.28679 0
M  V30 2747 H 259.269 -4.42187 3.30416 0
M  V30 2748 H 259.746 -4.07259 1.64427 0
M  V30 2749 H 260.352 -3.04816 2.96593 0
M  V30 2750 N 258.668 -1.30515 -0.883378 0
M  V30 2751 C 259.578 -1.18959 -2.02203 0
M  V30 2752 C 260.594 -0.109172 -1.73657 0
M  V30 2753 O 261.77 -0.324413 -1.9877 0
M  V30 2754 C 258.835 -0.883871 -3.35244 0
M  V30 2755 C 257.896 -2.04982 -3.77201 0
M  V30 2756 C 257.129 -1.75859 -5.03894 0
M  V30 2757 O 257.352 -0.687276 -5.66244 0
M  V30 2758 O 256.286 -2.61146 -5.42297 0
M  V30 2759 H 260.112 -2.14616 -2.1488 0
M  V30 2760 H 257.697 -1.10124 -1.0096 0
M  V30 2761 H 259.579 -0.728644 -4.15053 0
M  V30 2762 H 258.254 0.0427798 -3.23672 0
M  V30 2763 H 257.161 -2.26038 -2.9809 0
M  V30 2764 H 258.494 -2.95825 -3.93381 0
M  V30 2765 N 260.146 1.09593 -1.13257 0
M  V30 2766 C 261.423 1.78293 -0.804432 0
M  V30 2767 C 261.803 1.99004 0.70431 0
M  V30 2768 O 261.151 1.59007 1.641 0
M  V30 2769 C 261.361 3.10707 -1.5894 0
M  V30 2770 C 262.709 3.85443 -1.78099 0
M  V30 2771 O 263.733 3.20454 -1.55525 0
M  V30 2772 O 262.592 5.02108 -2.15753 0
M  V30 2773 H 259.686 0.773156 -0.293528 0
M  V30 2774 H 262.232 1.16164 -1.23709 0
M  V30 2775 H 261.004 2.91106 -2.61482 0
M  V30 2776 H 260.627 3.80558 -1.15157 0
M  V30 2777 N 261.624 0.925811 1.2754 0
M  V30 2778 C 263.04 0.625767 1.46821 0
M  V30 2779 C 263.24 -0.825506 1.83814 0
M  V30 2780 O 262.296 -1.60356 1.95044 0
M  V30 2781 C 263.609 1.57402 2.56213 0
M  V30 2782 C 265.157 1.58204 2.70075 0
M  V30 2783 C 265.632 2.51721 3.82623 0
M  V30 2784 N 267.123 2.49917 3.89994 0
M  V30 2785 C 267.858 3.18968 4.76494 0
M  V30 2786 N 267.354 3.97391 5.67496 0
M  V30 2787 N 269.147 3.07996 4.70208 0
M  V30 2788 H 261.298 1.86409 1.01811 0
M  V30 2789 H 263.561 0.800213 0.508295 0
M  V30 2790 H 263.267 2.60925 2.35819 0
M  V30 2791 H 263.141 1.31428 3.53563 0
M  V30 2792 H 265.528 0.554124 2.89851 0
M  V30 2793 H 265.609 1.88226 1.73218 0
M  V30 2794 H 265.253 3.54622 3.63601 0
M  V30 2795 H 265.183 2.18996 4.78903 0
M  V30 2796 H 267.674 1.9296 3.24923 0
M  V30 2797 H 267.987 4.4707 6.30356 0
M  V30 2798 H 266.332 4.01495 5.67298 0
M  V30 2799 H 269.523 2.46223 3.9811 0
M  V30 2800 H 269.696 3.6208 5.37403 0
M  V30 2801 N 263.102 -1.41638 0.69111 0
M  V30 2802 C 264.327 -2.06148 0.227583 0
M  V30 2803 C 264.752 -1.51652 -1.11281 0
M  V30 2804 O 264.11 -0.64164 -1.69566 0
M  V30 2805 C 264.158 -3.60095 0.190858 0
M  V30 2806 O 263.262 -4.03845 -0.835664 0
M  V30 2807 H 262.603 -0.654434 0.112306 0
M  V30 2808 H 265.133 -1.81484 0.944714 0
M  V30 2809 H 265.143 -4.07995 0.020207 0
M  V30 2810 H 263.818 -3.99129 1.16915 0
M  V30 2811 H 262.395 -3.67458 -0.63473 0
M  V30 2812 N 264.58 -0.43555 -1.51462 0
M  V30 2813 C 265.857 0.191364 -1.94662 0
M  V30 2814 C 266.237 1.60254 -1.37411 0
M  V30 2815 O 265.585 2.2152 -0.560458 0
M  V30 2816 C 265.795 0.17091 -3.48581 0
M  V30 2817 C 267.143 0.377357 -4.2292 0
M  V30 2818 O 268.167 0.249104 -3.55328 0
M  V30 2819 O 267.026 0.63247 -5.42828 0
M  V30 2820 H 264.12 0.130932 -0.816569 0
M  V30 2821 H 266.666 -0.4934 -1.62369 0
M  V30 2822 H 265.438 -0.815738 -3.82703 0
M  V30 2823 H 265.061 0.898659 -3.87311 0
M  V30 2824 N 266.058 1.56714 -0.166846 0
M  V30 2825 C 267.008 2.14338 0.777382 0
M  V30 2826 C 267.992 1.07642 1.19591 0
M  V30 2827 O 269.184 1.33775 1.15902 0
M  V30 2828 C 266.313 2.78417 2.00846 0
M  V30 2829 C 265.399 3.92264 1.61212 0
M  V30 2830 N 265.79 4.97268 0.925104 0
M  V30 2831 C 264.088 4.03342 1.90346 0
M  V30 2832 C 264.789 5.77093 0.730627 0
M  V30 2833 N 263.765 5.2854 1.27067 0
M  V30 2834 H 267.567 2.9289 0.243466 0
M  V30 2835 H 265.081 1.62364 0.0339954 0
M  V30 2836 H 267.078 3.18073 2.69509 0
M  V30 2837 H 265.738 2.01344 2.54736 0
M  V30 2838 H 266.749 5.14601 0.583646 0
M  V30 2839 H 263.426 3.37368 2.45946 0
M  V30 2840 H 264.816 6.71638 0.187668 0
M  V30 2841 N 267.536 -0.106894 1.57237 0
M  V30 2842 C 268.466 -1.13148 2.04254 0
M  V30 2843 C 269.447 -1.42476 0.929224 0
M  V30 2844 O 270.632 -1.52709 1.19973 0
M  V30 2845 C 267.762 -2.4545 2.45706 0
M  V30 2846 C 266.716 -2.30558 3.60592 0
M  V30 2847 C 266.042 -3.67931 3.87983 0
M  V30 2848 C 267.342 -1.75597 4.91897 0
M  V30 2849 H 269.036 -0.740374 2.90101 0
M  V30 2850 H 266.582 -0.354696 1.39563 0
M  V30 2851 H 268.535 -3.17389 2.77205 0
M  V30 2852 H 267.259 -2.86475 1.56843 0
M  V30 2853 H 265.918 -1.61067 3.29322 0
M  V30 2854 H 265.566 -4.06462 2.96306 0
M  V30 2855 H 265.266 -3.58817 4.65322 0
M  V30 2856 H 266.79 -4.41356 4.21945 0
M  V30 2857 H 268.204 -2.37364 5.21854 0
M  V30 2858 H 266.601 -1.77272 5.73319 0
M  V30 2859 H 267.671 -0.714451 4.79608 0
M  V30 2860 N 269.014 -1.53014 -0.377408 0
M  V30 2861 C 270.263 -1.67845 -1.11853 0
M  V30 2862 C 270.576 -0.430625 -1.90801 0
M  V30 2863 O 271.782 -0.459261 -2.67587 0
M  V30 2864 C 270.238 -2.96668 -2.03756 0
M  V30 2865 C 269.846 -4.28671 -1.30175 0
M  V30 2866 C 271.59 -3.20865 -2.77932 0
M  V30 2867 C 269.497 -5.48591 -2.20911 0
M  V30 2868 H 268.427 -0.625343 -0.421263 0
M  V30 2869 H 271.078 -1.79514 -0.380409 0
M  V30 2870 H 269.46 -2.78773 -2.8125 0
M  V30 2871 H 270.634 -4.57157 -0.578259 0
M  V30 2872 H 268.949 -4.10825 -0.679108 0
M  V30 2873 H 271.546 -4.07642 -3.46024 0
M  V30 2874 H 271.889 -2.36424 -3.4265 0
M  V30 2875 H 272.422 -3.39379 -2.07525 0
M  V30 2876 H 269.161 -6.35474 -1.6079 0
M  V30 2877 H 268.681 -5.244 -2.91144 0
M  V30 2878 H 270.36 -5.8292 -2.80736 0
M  V30 2879 N 270.492 0.636531 -1.44174 0
M  V30 2880 C 271.424 1.7618 -1.46606 0
M  V30 2881 C 272.437 1.58768 -0.360091 0
M  V30 2882 O 273.626 1.67181 -0.625518 0
M  V30 2883 C 270.726 3.13833 -1.27915 0
M  V30 2884 C 269.899 3.57753 -2.51658 0
M  V30 2885 C 268.958 4.74265 -2.27945 0
M  V30 2886 O 267.984 4.82852 -3.01401 0
M  V30 2887 N 269.186 5.65604 -1.30662 0
M  V30 2888 H 271.951 1.74567 -2.43612 0
M  V30 2889 H 269.512 0.820924 -1.39544 0
M  V30 2890 H 271.504 3.8949 -1.09907 0
M  V30 2891 H 270.074 3.10121 -0.39293 0
M  V30 2892 H 269.294 2.72362 -2.84978 0
M  V30 2893 H 270.582 3.83847 -3.33974 0
M  V30 2894 H 269.98 5.61354 -0.699844 0
M  V30 2895 H 268.537 6.40913 -1.18634 0
M  V30 2896 N 271.97 1.30982 0.876444 0
M  V30 2897 C 273.198 1.23242 1.6619 0
M  V30 2898 C 273.613 -0.203345 1.87702 0
M  V30 2899 O 272.97 -1.13317 1.43057 0
M  V30 2900 C 273.021 1.96623 3.03351 0
M  V30 2901 O 272.742 3.34594 2.82804 0
M  V30 2902 C 274.243 1.95644 3.97792 0
M  V30 2903 H 271.463 0.426126 0.518322 0
M  V30 2904 H 274.007 1.7275 1.09442 0
M  V30 2905 H 272.162 1.50892 3.56806 0
M  V30 2906 H 272.576 3.71873 3.69879 0
M  V30 2907 H 274.05 2.51511 4.91372 0
M  V30 2908 H 274.527 0.937395 4.2908 0
M  V30 2909 H 275.133 2.41225 3.50272 0
M  V30 2910 N 273.449 -1.08991 1.13837 0
M  V30 2911 C 274.726 -1.77863 0.813876 0
M  V30 2912 C 275.106 -1.99375 -0.693746 0
M  V30 2913 O 274.454 -1.59875 -1.63255 0
M  V30 2914 C 274.664 -3.0986 1.60586 0
M  V30 2915 C 276.012 -3.84493 1.8014 0
M  V30 2916 O 277.036 -3.19624 1.57222 0
M  V30 2917 O 275.895 -5.00957 2.18413 0
M  V30 2918 H 272.989 -0.771589 0.297624 0
M  V30 2919 H 275.535 -1.15507 1.24323 0
M  V30 2920 H 274.307 -2.89715 2.63022 0
M  V30 2921 H 273.93 -3.79942 1.17173 0
M  V30 2922 N 274.927 -0.932562 -1.27047 0
M  V30 2923 C 276.155 -0.592031 -1.98249 0
M  V30 2924 C 276.57 0.831062 -1.69525 0
M  V30 2925 O 275.927 1.55299 -0.958561 0
M  V30 2926 C 275.978 -0.814279 -3.5221 0
M  V30 2927 O 275.699 -2.18139 -3.7993 0
M  V30 2928 C 277.2 -0.483121 -4.4066 0
M  V30 2929 H 274.42 -0.223896 -0.632544 0
M  V30 2930 H 276.964 -1.25091 -1.61779 0
M  V30 2931 H 275.119 -0.20213 -3.86872 0
M  V30 2932 H 275.533 -2.235 -4.74498 0
M  V30 2933 H 277.007 -0.689298 -5.47679 0
M  V30 2934 H 277.484 0.581546 -4.35333 0
M  V30 2935 H 278.09 -1.07362 -4.11526 0
M  V30 2936 N 276.405 1.4127 -0.698611 0
M  V30 2937 C 277.651 2.01478 -0.231207 0
M  V30 2938 C 277.984 1.55215 1.16713 0
M  V30 2939 O 277.259 0.764672 1.78838 0
M  V30 2940 C 277.542 3.58912 -0.292281 0
M  V30 2941 C 277.395 4.15293 -1.72778 0
M  V30 2942 C 278.714 4.38736 0.346194 0
M  V30 2943 H 275.833 0.732025 -0.0854878 0
M  V30 2944 H 278.475 1.67977 -0.887906 0
M  V30 2945 H 276.625 3.87582 0.26686 0
M  V30 2946 H 278.297 3.97486 -2.341 0
M  V30 2947 H 276.54 3.7022 -2.26096 0
M  V30 2948 H 277.211 5.24452 -1.72202 0
M  V30 2949 H 279.687 4.15897 -0.130035 0
M  V30 2950 H 278.563 5.48221 0.272932 0
M  V30 2951 H 278.824 4.18425 1.42734 0
M  V30 2952 N 277.883 0.443576 1.51229 0
M  V30 2953 C 278.831 -0.37904 2.29491 0
M  V30 2954 C 279.825 -1.0153 1.35603 0
M  V30 2955 O 281.031 -0.94955 1.52917 0
M  V30 2956 H 277.406 -0.141053 0.738653 0
M  V30 2957 H 279.377 0.301799 2.9687 0
M  V30 2958 C 278.126 -1.46426 3.15364 0
M  V30 2959 H 277.449 -0.984037 3.87501 0
M  V30 2960 H 278.889 -2.01297 3.7317 0
M  V30 2961 C 277.348 -2.45099 2.31146 0
M  V30 2962 O 277.878 -3.49773 1.9754 0
M  V30 2963 N 276.084 -2.16139 1.94249 0
M  V30 2964 H 275.631 -1.31044 2.21777 0
M  V30 2965 H 275.589 -2.82398 1.38198 0
M  V30 2966 N 279.361 -1.56624 0.175154 0
M  V30 2967 C 280.291 -2.21155 -0.749195 0
M  V30 2968 C 281.272 -1.16836 -1.23626 0
M  V30 2969 O 282.457 -1.45277 -1.28873 0
M  V30 2970 C 279.587 -2.8553 -1.97711 0
M  V30 2971 C 278.541 -3.95921 -1.62575 0
M  V30 2972 C 277.867 -4.47365 -2.92864 0
M  V30 2973 C 279.167 -5.15323 -0.850838 0
M  V30 2974 H 280.861 -2.98653 -0.211295 0
M  V30 2975 H 278.407 -1.43651 -0.100188 0
M  V30 2976 H 280.36 -3.2935 -2.62881 0
M  V30 2977 H 279.084 -2.05406 -2.53921 0
M  V30 2978 H 277.743 -3.52762 -0.997719 0
M  V30 2979 H 277.391 -3.64027 -3.47122 0
M  V30 2980 H 277.091 -5.21839 -2.70106 0
M  V30 2981 H 278.615 -4.93873 -3.59056 0
M  V30 2982 H 280.029 -5.55812 -1.40521 0
M  V30 2983 H 278.426 -5.95739 -0.722154 0
M  V30 2984 H 279.496 -4.84661 0.152082 0
M  V30 2985 N 280.839 0.0985539 -1.57292 0
M  V30 2986 C 281.789 1.1261 -1.9825 0
M  V30 2987 C 282.773 1.35961 -0.860426 0
M  V30 2988 O 283.965 1.36711 -1.12424 0
M  V30 2989 C 281.094 2.44727 -2.40757 0
M  V30 2990 C 280.18 2.24764 -3.59642 0
M  V30 2991 N 280.571 1.74661 -4.74687 0
M  V30 2992 C 278.869 2.55344 -3.65672 0
M  V30 2993 C 279.57 1.68887 -5.56644 0
M  V30 2994 N 278.546 2.13976 -4.99715 0
M  V30 2995 H 282.348 0.731604 -2.84648 0
M  V30 2996 H 279.862 0.306029 -1.59491 0
M  V30 2997 H 281.859 3.19072 -2.68326 0
M  V30 2998 H 280.519 2.84917 -1.55733 0
M  V30 2999 H 281.53 1.43908 -4.97505 0
M  V30 3000 H 278.207 2.99081 -2.91302 0
M  V30 3001 H 279.597 1.3123 -6.5896 0
M  V30 3002 N 282.317 1.53212 0.369288 0
M  V30 3003 C 283.733 1.42902 0.710712 0
M  V30 3004 C 283.933 0.565135 1.93413 0
M  V30 3005 O 282.989 0.0461484 2.52458 0
M  V30 3006 C 284.302 2.86042 0.927382 0
M  V30 3007 C 285.85 2.9565 1.02762 0
M  V30 3008 C 286.325 4.39843 1.27679 0
M  V30 3009 N 287.816 4.43256 1.34457 0
M  V30 3010 C 288.551 5.51929 1.55439 0
M  V30 3011 N 288.047 6.70655 1.73762 0
M  V30 3012 N 289.84 5.39502 1.57779 0
M  V30 3013 H 281.991 2.07888 -0.435457 0
M  V30 3014 H 284.254 0.938661 -0.132739 0
M  V30 3015 H 283.96 3.51557 0.100287 0
M  V30 3016 H 283.834 3.29472 1.83653 0
M  V30 3017 H 286.221 2.30291 1.84527 0
M  V30 3018 H 286.302 2.5562 0.0959504 0
M  V30 3019 H 285.946 5.05774 0.464175 0
M  V30 3020 H 285.876 4.77443 2.22162 0
M  V30 3021 H 288.367 3.5769 1.21926 0
M  V30 3022 H 288.68 7.49248 1.89335 0
M  V30 3023 H 287.025 6.73648 1.70948 0
M  V30 3024 H 290.216 4.45713 1.43029 0
M  V30 3025 H 290.389 6.2426 1.7379 0
M  V30 3026 N 283.795 -0.628877 1.44509 0
M  V30 3027 C 284.742 -1.74074 1.51549 0
M  V30 3028 C 285.712 -1.62084 0.363021 0
M  V30 3029 O 286.897 -1.81975 0.573567 0
M  V30 3030 C 284.037 -3.12328 1.46784 0
M  V30 3031 C 283.15 -3.35277 2.72422 0
M  V30 3032 C 282.285 -4.63515 2.59475 0
M  V30 3033 C 281.324 -4.7965 3.80266 0
M  V30 3034 N 280.461 -5.99168 3.65981 0
M  V30 3035 H 285.301 -1.67392 2.46544 0
M  V30 3036 H 282.838 -0.816527 1.22357 0
M  V30 3037 H 284.796 -3.92286 1.42012 0
M  V30 3038 H 283.426 -3.18018 0.553544 0
M  V30 3039 H 282.478 -2.49242 2.87372 0
M  V30 3040 H 283.79 -3.43078 3.62076 0
M  V30 3041 H 282.944 -5.51638 2.52548 0
M  V30 3042 H 281.683 -4.58076 1.67384 0
M  V30 3043 H 280.688 -3.89957 3.87574 0
M  V30 3044 H 281.913 -4.86902 4.73395 0
M  V30 3045 H 279.859 -5.94814 2.76644 0
M  V30 3046 H 279.776 -6.08035 4.49254 0
M  V30 3047 H 281.044 -6.89846 3.6295 0
M  V30 3048 N 285.273 -1.31445 -0.869486 0
M  V30 3049 C 286.684 -1.19042 -1.43826 0
M  V30 3050 C 287.035 0.202919 -1.95148 0
M  V30 3051 O 286.16 1.10071 -1.86315 0
M  V30 3052 C 286.755 -2.15499 -2.6143 0
M  V30 3053 C 285.314 -2.07028 -3.14351 0
M  V30 3054 C 284.461 -2.04701 -1.87063 0
M  V30 3055 H 287.412 -1.43489 -0.677984 0
M  V30 3056 H 287.433 -1.74488 -3.38134 0
M  V30 3057 H 286.945 -3.16899 -2.24046 0
M  V30 3058 H 285.046 -1.08825 -3.56354 0
M  V30 3059 H 285.159 -2.96157 -3.766 0
M  V30 3060 H 283.523 -1.49724 -2.06046 0
M  V30 3061 H 284.306 -3.07857 -1.51917 0
M  V30 3062 N 286.751 1.08385 -1.14413 0
M  V30 3063 C 287.698 2.15311 -0.831265 0
M  V30 3064 C 288.668 1.64751 0.211292 0
M  V30 3065 O 289.853 1.90627 0.0811674 0
M  V30 3066 C 286.993 3.43658 -0.315143 0
M  V30 3067 C 286.106 4.08064 -1.41802 0
M  V30 3068 C 285.241 5.24207 -0.859126 0
M  V30 3069 C 284.28 5.80554 -1.93967 0
M  V30 3070 N 283.417 6.88042 -1.39793 0
M  V30 3071 H 288.257 2.41415 -1.74708 0
M  V30 3072 H 285.794 1.18474 -0.871909 0
M  V30 3073 H 287.752 4.172 0.00230884 0
M  V30 3074 H 286.382 3.17839 0.56378 0
M  V30 3075 H 285.434 3.3228 -1.85187 0
M  V30 3076 H 286.746 4.45962 -2.23427 0
M  V30 3077 H 285.9 6.04689 -0.49359 0
M  V30 3078 H 284.639 4.87699 -0.011932 0
M  V30 3079 H 283.644 4.98725 -2.31415 0
M  V30 3080 H 284.869 6.19121 -2.79046 0
M  V30 3081 H 282.815 6.53493 -0.572919 0
M  V30 3082 H 282.732 7.24767 -2.15054 0
M  V30 3083 H 284 7.72255 -1.0603 0
M  V30 3084 N 288.23 0.939286 1.26551 0
M  V30 3085 C 289.641 0.628782 1.75793 0
M  V30 3086 C 289.992 -0.856046 1.7654 0
M  V30 3087 O 289.117 -1.66994 1.3763 0
M  V30 3088 C 289.712 1.13465 3.19235 0
M  V30 3089 C 288.271 0.874601 3.66098 0
M  V30 3090 C 287.418 1.28667 2.45642 0
M  V30 3091 H 290.369 1.1178 1.12654 0
M  V30 3092 H 290.39 0.487609 3.77363 0
M  V30 3093 H 289.902 2.21535 3.1866 0
M  V30 3094 H 288.003 -0.191793 3.72106 0
M  V30 3095 H 288.116 1.50028 4.55004 0
M  V30 3096 H 286.48 0.705109 2.44745 0
M  V30 3097 H 287.263 2.37625 2.47769 0
M  V30 3098 N 289.708 -1.40897 0.706093 0
M  V30 3099 C 290.933 -2.05895 0.249435 0
M  V30 3100 C 291.358 -1.52823 -1.09666 0
M  V30 3101 O 290.716 -0.659589 -1.68876 0
M  V30 3102 C 290.764 -3.59872 0.22904 0
M  V30 3103 O 289.868 -4.04708 -0.792784 0
M  V30 3104 H 289.209 -0.653206 0.119241 0
M  V30 3105 H 291.739 -1.80471 0.96391 0
M  V30 3106 H 291.749 -4.07951 0.0634791 0
M  V30 3107 H 290.424 -3.97866 1.21141 0
M  V30 3108 H 289.001 -3.68111 -0.59572 0
M  V30 3109 N 291.186 -0.45159 -1.50991 0
M  V30 3110 C 292.411 0.110667 -2.07105 0
M  V30 3111 C 292.836 1.3446 -1.31538 0
M  V30 3112 O 292.194 1.77743 -0.357365 0
M  V30 3113 C 292.242 0.397238 -3.58405 0
M  V30 3114 O 291.346 1.48124 -3.84881 0
M  V30 3115 H 290.687 -0.00439271 -0.663985 0
M  V30 3116 H 293.217 -0.637026 -1.9443 0
M  V30 3117 H 293.227 0.64351 -4.02893 0
M  V30 3118 H 291.902 -0.504553 -4.12828 0
M  V30 3119 H 290.479 1.22381 -3.52246 0
M  V30 3120 N 292.664 1.56529 -0.183458 0
M  V30 3121 C 293.889 2.02064 0.467428 0
M  V30 3122 C 294.314 1.06282 1.55196 0
M  V30 3123 O 293.672 0.0443565 1.81246 0
M  V30 3124 C 293.72 3.46122 1.01153 0
M  V30 3125 O 292.824 3.53437 2.12499 0
M  V30 3126 H 292.165 0.654726 0.110588 0
M  V30 3127 H 294.695 2.02521 -0.290917 0
M  V30 3128 H 294.705 3.85676 1.33108 0
M  V30 3129 H 293.38 4.15331 0.217533 0
M  V30 3130 H 291.957 3.2575 1.81497 0
M  V30 3131 N 294.142 -0.090211 1.57342 0
M  V30 3132 C 295.382 -0.798365 1.88163 0
M  V30 3133 C 295.746 -1.75662 0.775046 0
M  V30 3134 O 296.947 -2.50849 0.965816 0
M  V30 3135 C 295.218 -1.50376 3.24225 0
M  V30 3136 S 296.777 -2.24952 3.76752 0
M  V30 3137 H 293.595 -0.265883 0.659414 0
M  V30 3138 H 296.197 -0.055264 1.95422 0
M  V30 3139 H 294.901 -0.792286 4.0268 0
M  V30 3140 H 294.432 -2.28666 3.20118 0
M  V30 3141 H 296.447 -3.51173 3.5056 0
M  V30 3142 N 295.62 -1.53406 -0.361157 0
M  V30 3143 C 296.86 -1.71507 -1.11197 0
M  V30 3144 C 297.224 -0.459337 -1.86425 0
M  V30 3145 O 298.425 -0.517102 -2.63779 0
M  V30 3146 C 296.696 -2.93307 -2.0422 0
M  V30 3147 S 298.255 -3.32135 -2.86761 0
M  V30 3148 H 295.073 -0.603448 -0.375995 0
M  V30 3149 H 297.675 -1.91516 -0.392642 0
M  V30 3150 H 296.379 -3.82891 -1.47724 0
M  V30 3151 H 295.91 -2.75712 -2.80618 0
M  V30 3152 H 297.925 -2.84493 -4.06544 0
M  V30 3153 O 297.137 0.507134 -1.53331 0
M  V30 3154 H 297.828 1.16207 -1.5497 0
M  V30 END ATOM
M  V30 BEGIN BOND
M  V30 END BOND
M  V30 END CTAB
M  END
$$$$
