drugbank_target|P51553 Isocitrate dehydrogenase [NAD] subunit gamma, mitochondrial (DB00157; DB06757)
 OpenBabel12092119393D

  0  0  0     0  0            999 V3000
M  V30 BEGIN CTAB
M  V30 COUNTS 6046 6097 0 0 0
M  V30 BEGIN ATOM
M  V30 1 H -0.908 1.98254 -0.117106 0
M  V30 2 N 0 1.576 0 0
M  V30 3 C 0.933 2.03868 1.02534 0
M  V30 4 C 1.911 0.928543 1.3348 0
M  V30 5 O 3.095 1.19667 1.45644 0
M  V30 6 C 0.222 2.43627 2.35294 0
M  V30 7 C -0.732 3.65373 2.2001 0
M  V30 8 S 0.101 5.13292 1.52614 0
M  V30 9 C 1.257 5.56322 2.86805 0
M  V30 10 H 1.49 2.90518 0.631377 0
M  V30 11 H -0.977 1.52953 0.210867 0
M  V30 12 H 0.981 2.67203 3.11629 0
M  V30 13 H -0.358 1.57376 2.7183 0
M  V30 14 H -1.165 3.90944 3.18086 0
M  V30 15 H -1.563 3.418 1.51819 0
M  V30 16 H 0.729 5.58782 3.83104 0
M  V30 17 H 1.672 6.56266 2.65933 0
M  V30 18 H 2.08 4.83886 2.90714 0
M  V30 19 N 1.4781 -0.272755 1.55222 0
M  V30 20 C 2.4411 -1.32041 1.87344 0
M  V30 21 C 3.4411 -1.42342 0.74803 0
M  V30 22 O 4.6311 -1.41488 1.0162 0
M  V30 23 C 1.7631 -2.70173 2.07893 0
M  V30 24 H 2.9561 -1.04789 2.80997 0
M  V30 25 H 0.5091 -0.51083 1.47717 0
M  V30 26 H 1.2441 -3.02605 1.16622 0
M  V30 27 H 1.0291 -2.64082 2.89833 0
M  V30 28 H 2.5191 -3.45869 2.34017 0
M  V30 29 N 2.9562 -1.48159 -0.537278 0
M  V30 30 C 3.8862 -1.65029 -1.6519 0
M  V30 31 C 4.8672 -0.499281 -1.62607 0
M  V30 32 O 6.0522 -0.730972 -1.79918 0
M  V30 33 C 3.1822 -1.68303 -3.03795 0
M  V30 34 C 2.1362 -2.8283 -3.21234 0
M  V30 35 C 1.4622 -2.71189 -4.60826 0
M  V30 36 C 2.7622 -4.24211 -3.04701 0
M  V30 37 H 4.4562 -2.58341 -1.51328 0
M  V30 38 H 2.0022 -1.24325 -0.726585 0
M  V30 39 H 3.9552 -1.78693 -3.81637 0
M  V30 40 H 2.6792 -0.715635 -3.18663 0
M  V30 41 H 1.3382 -2.71983 -2.45807 0
M  V30 42 H 0.9862 -1.72435 -4.7252 0
M  V30 43 H 0.6862 -3.48035 -4.7344 0
M  V30 44 H 2.2102 -2.83537 -5.40777 0
M  V30 45 H 3.6242 -4.3593 -3.72341 0
M  V30 46 H 2.0212 -5.01998 -3.28813 0
M  V30 47 H 3.0912 -4.41184 -2.01209 0
M  V30 48 N 4.4343 0.785586 -1.36625 0
M  V30 49 C 5.3813 1.89838 -1.31264 0
M  V30 50 C 6.3513 1.65115 -0.180633 0
M  V30 51 O 7.5363 1.87222 -0.36777 0
M  V30 52 C 4.6763 3.26706 -1.11163 0
M  V30 53 C 3.7893 3.63476 -2.33472 0
M  V30 54 C 2.9243 4.89481 -2.06353 0
M  V30 55 C 1.9633 5.18941 -3.24602 0
M  V30 56 N 1.1003 6.36131 -2.97123 0
M  V30 57 H 5.9403 1.93756 -2.26413 0
M  V30 58 H 3.4773 0.947454 -1.12524 0
M  V30 59 H 5.4353 4.05639 -0.975337 0
M  V30 60 H 4.0653 3.222 -0.196674 0
M  V30 61 H 3.1173 2.79636 -2.57891 0
M  V30 62 H 4.4293 3.81193 -3.21704 0
M  V30 63 H 3.5833 5.76288 -1.89675 0
M  V30 64 H 2.3223 4.73841 -1.15437 0
M  V30 65 H 1.3273 4.30615 -3.41834 0
M  V30 66 H 2.5523 5.36498 -4.16349 0
M  V30 67 H 0.4983 6.21875 -2.08823 0
M  V30 68 H 0.4153 6.54198 -3.78894 0
M  V30 69 H 1.6833 7.2591 -2.84033 0
M  V30 70 N 5.9124 1.20967 1.01018 0
M  V30 71 C 7.1584 1.02526 1.74975 0
M  V30 72 C 7.4914 -0.4408 1.89131 0
M  V30 73 O 6.7664 -1.32718 1.42184 0
M  V30 74 C 7.0494 1.71699 3.1653 0
M  V30 75 C 6.9024 3.25791 3.10129 0
M  V30 76 C 8.2214 1.45531 4.15342 0
M  V30 77 H 5.3404 0.373863 0.635134 0
M  V30 78 H 7.9824 1.49071 1.17805 0
M  V30 79 H 6.1324 1.32128 3.65341 0
M  V30 80 H 7.8044 3.74697 2.69072 0
M  V30 81 H 6.0474 3.56363 2.47362 0
M  V30 82 H 6.7184 3.69353 4.10222 0
M  V30 83 H 9.1944 1.79872 3.75213 0
M  V30 84 H 8.0704 1.96453 5.1254 0
M  V30 85 H 8.3314 0.384237 4.40427 0
M  V30 86 N 7.3905 -1.2043 1.01659 0
M  V30 87 C 8.3535 -2.21433 0.591616 0
M  V30 88 C 9.3535 -1.57203 -0.338226 0
M  V30 89 O 10.5435 -1.73737 -0.126918 0
M  V30 90 C 7.6755 -3.40628 -0.136058 0
M  V30 91 H 8.8685 -2.60545 1.48514 0
M  V30 92 H 6.4215 -1.33893 0.806379 0
M  V30 93 H 7.1565 -3.07019 -1.04449 0
M  V30 94 H 6.9415 -3.88475 0.531917 0
M  V30 95 H 8.4315 -4.15475 -0.420735 0
M  V30 96 N 8.8686 -0.792821 -1.36206 0
M  V30 97 C 10.0966 -0.378825 -2.03402 0
M  V30 98 C 10.5116 1.00586 -1.59774 0
M  V30 99 O 9.8686 1.64574 -0.788764 0
M  V30 100 C 9.9196 -0.43683 -3.58851 0
M  V30 101 O 9.6406 -1.76691 -4.00889 0
M  V30 102 C 11.1416 -0.0138943 -4.43298 0
M  V30 103 H 8.3616 -0.155673 -0.652692 0
M  V30 104 H 10.9056 -1.07261 -1.74113 0
M  V30 105 H 9.0606 0.208575 -3.86838 0
M  V30 106 H 9.4746 -1.72011 -4.95492 0
M  V30 107 H 10.9486 -0.105615 -5.51899 0
M  V30 108 H 11.4256 1.03915 -4.2673 0
M  V30 109 H 12.0316 -0.63192 -4.20579 0
M  V30 110 N 10.3467 1.47872 -0.545128 0
M  V30 111 C 11.5927 2.02793 -0.0166104 0
M  V30 112 C 11.9257 1.41987 1.32489 0
M  V30 113 O 11.2007 0.571045 1.85928 0
M  V30 114 C 11.4837 3.59989 0.0893294 0
M  V30 115 C 11.3367 4.3125 -1.27841 0
M  V30 116 C 12.6557 4.32606 0.808724 0
M  V30 117 H 9.7747 0.736962 -0.00751035 0
M  V30 118 H 12.4167 1.76433 -0.705085 0
M  V30 119 H 10.5667 3.82579 0.675681 0
M  V30 120 H 12.2387 4.20035 -1.90704 0
M  V30 121 H 10.4817 3.92076 -1.85632 0
M  V30 122 H 11.1527 5.39736 -1.15713 0
M  V30 123 H 13.6287 4.14936 0.310992 0
M  V30 124 H 12.5047 5.42251 0.851782 0
M  V30 125 H 12.7657 4.00963 1.86229 0
M  V30 126 N 11.8248 0.280983 1.55075 0
M  V30 127 C 12.7878 -0.590896 2.21452 0
M  V30 128 C 13.7878 -1.07682 1.19421 0
M  V30 129 O 14.9778 -0.97605 1.44288 0
M  V30 130 C 12.1098 -1.81587 2.88511 0
M  V30 131 H 13.3028 -0.0112554 2.99898 0
M  V30 132 H 10.8558 0.0316438 1.56268 0
M  V30 133 H 11.5908 -2.43587 2.14093 0
M  V30 134 H 11.3758 -1.4753 3.63287 0
M  V30 135 H 12.8658 -2.43575 3.39206 0
M  V30 136 N 13.3029 -1.57598 0.00835791 0
M  V30 137 C 14.5509 -1.90551 -0.6734 0
M  V30 138 C 14.8719 -0.883301 -1.73847 0
M  V30 139 O 14.1419 0.0781442 -1.95744 0
M  V30 140 H 12.7219 -0.703312 -0.251717 0
M  V30 141 H 15.3839 -1.94833 0.0512592 0
M  V30 142 H 14.4799 -2.9056 -1.13935 0
M  V30 143 N 14.781 0.264519 -1.55364 0
M  V30 144 C 16.006 1.01726 -1.80739 0
M  V30 145 C 16.431 1.78836 -0.583044 0
M  V30 146 O 15.789 1.75167 0.467566 0
M  V30 147 C 15.837 1.94482 -3.03659 0
M  V30 148 O 14.941 3.03386 -2.7934 0
M  V30 149 H 14.282 0.290395 -0.597132 0
M  V30 150 H 16.812 0.290854 -2.02522 0
M  V30 151 H 16.822 2.36278 -3.32621 0
M  V30 152 H 15.497 1.37772 -3.92418 0
M  V30 153 H 14.074 2.65844 -2.61498 0
M  V30 154 N 16.2591 1.48442 0.529413 0
M  V30 155 C 17.2221 1.62524 1.61612 0
M  V30 156 C 18.2221 0.498509 1.52877 0
M  V30 157 O 19.4121 0.76431 1.56537 0
M  V30 158 C 16.5441 1.59597 3.01233 0
M  V30 159 H 17.7371 2.59423 1.50465 0
M  V30 160 H 15.2901 1.37047 0.751514 0
M  V30 161 H 16.0251 0.641781 3.17886 0
M  V30 162 H 15.8101 2.41397 3.08982 0
M  V30 163 H 17.3001 1.72646 3.80241 0
M  V30 164 N 17.7372 -0.778329 1.37039 0
M  V30 165 C 18.7002 -1.87301 1.32102 0
M  V30 166 C 19.7002 -1.59198 0.226405 0
M  V30 167 O 20.8902 -1.67403 0.481861 0
M  V30 168 C 18.0222 -3.24309 1.05055 0
M  V30 169 H 19.2152 -1.93093 2.29467 0
M  V30 170 H 16.7682 -0.977358 1.21973 0
M  V30 171 H 17.5032 -3.24196 0.0819373 0
M  V30 172 H 17.2882 -3.46098 1.84279 0
M  V30 173 H 18.7782 -4.04382 1.04234 0
M  V30 174 N 19.2153 -1.21501 -1.00376 0
M  V30 175 C 20.1623 -0.975387 -2.09177 0
M  V30 176 C 21.1323 0.0990615 -1.65804 0
M  V30 177 O 22.3173 -0.0483147 -1.90739 0
M  V30 178 C 19.4573 -0.547507 -3.40729 0
M  V30 179 C 18.5703 -1.69153 -3.97506 0
M  V30 180 C 17.7053 -1.2127 -5.17172 0
M  V30 181 C 16.7443 -2.32897 -5.66061 0
M  V30 182 N 15.8813 -1.86138 -6.76976 0
M  V30 183 H 20.7213 -1.9068 -2.29009 0
M  V30 184 H 18.2583 -0.950257 -1.12288 0
M  V30 185 H 20.2163 -0.280667 -4.16255 0
M  V30 186 H 18.8463 0.346904 -3.20931 0
M  V30 187 H 17.8983 -2.07298 -3.18954 0
M  V30 188 H 19.2103 -2.5316 -4.29781 0
M  V30 189 H 18.3643 -0.902591 -5.99948 0
M  V30 190 H 17.1033 -0.342692 -4.86495 0
M  V30 191 H 16.1083 -2.64709 -4.81881 0
M  V30 192 H 17.3333 -3.20396 -5.98768 0
M  V30 193 H 15.2793 -1.01484 -6.48103 0
M  V30 194 H 15.1963 -2.63717 -7.08512 0
M  V30 195 H 16.4643 -1.58165 -7.63285 0
M  V30 196 N 20.6934 1.19889 -1.02296 0
M  V30 197 C 21.6564 2.21116 -0.603351 0
M  V30 198 C 22.6564 1.5738 0.329884 0
M  V30 199 O 23.8464 1.73802 0.117702 0
M  V30 200 C 20.9784 3.40696 0.117992 0
M  V30 201 H 22.1714 2.59754 -1.49893 0
M  V30 202 H 19.7244 1.33463 -0.813468 0
M  V30 203 H 20.4594 3.07569 1.0282 0
M  V30 204 H 20.2444 3.88188 -0.552511 0
M  V30 205 H 21.7344 4.15692 0.398696 0
M  V30 206 N 22.1715 0.800033 1.35784 0
M  V30 207 C 23.4175 0.377901 1.99248 0
M  V30 208 C 23.7505 -1.05052 1.63333 0
M  V30 209 O 23.0255 -1.72768 0.893385 0
M  V30 210 C 23.3085 0.553922 3.55814 0
M  V30 211 C 23.1615 2.0268 4.01548 0
M  V30 212 C 24.4805 -0.0244802 4.40093 0
M  V30 213 H 21.5995 0.138782 0.723815 0
M  V30 214 H 24.2415 1.00835 1.61035 0
M  V30 215 H 22.3915 0.0172398 3.88496 0
M  V30 216 H 24.0635 2.62536 3.79305 0
M  V30 217 H 22.3065 2.5256 3.52698 0
M  V30 218 H 22.9775 2.10087 5.10458 0
M  V30 219 H 25.4535 0.433775 4.13833 0
M  V30 220 H 24.3295 0.128637 5.48749 0
M  V30 221 H 24.5905 -1.11758 4.27741 0
M  V30 222 N 23.6496 -1.47581 0.552962 0
M  V30 223 C 24.5796 -2.32762 -0.185451 0
M  V30 224 C 25.5606 -1.43527 -0.912905 0
M  V30 225 O 26.7456 -1.72388 -0.894201 0
M  V30 226 C 23.8756 -3.25219 -1.21859 0
M  V30 227 C 22.8296 -4.23661 -0.607864 0
M  V30 228 C 22.1556 -5.05413 -1.74533 0
M  V30 229 C 23.4556 -5.20481 0.435582 0
M  V30 230 H 25.1496 -2.94749 0.525684 0
M  V30 231 H 22.6956 -1.41738 0.254251 0
M  V30 232 H 24.6486 -3.8365 -1.7433 0
M  V30 233 H 23.3726 -2.61279 -1.95961 0
M  V30 234 H 22.0316 -3.66451 -0.104489 0
M  V30 235 H 21.6796 -4.3788 -2.47529 0
M  V30 236 H 21.3796 -5.72059 -1.34249 0
M  V30 237 H 22.9036 -5.66701 -2.27338 0
M  V30 238 H 24.3176 -5.733 -0.00290157 0
M  V30 239 H 22.7146 -5.95305 0.757067 0
M  V30 240 H 23.7846 -4.66217 1.33303 0
M  V30 241 N 25.1277 -0.289203 -1.54924 0
M  V30 242 C 26.3757 0.322879 -1.99504 0
M  V30 243 C 26.6967 1.55313 -1.1791 0
M  V30 244 O 25.9667 1.94001 -0.272097 0
M  V30 245 H 24.5467 0.122291 -0.736922 0
M  V30 246 H 27.2087 -0.397802 -1.90797 0
M  V30 247 H 26.3047 0.603061 -3.06218 0
M  V30 248 N 26.6058 1.57591 -0.0167156 0
M  V30 249 C 28.0168 1.79201 0.523834 0
M  V30 250 C 28.3678 0.925796 1.72984 0
M  V30 251 O 27.4928 0.132792 2.15992 0
M  V30 252 C 28.0878 3.25 0.957091 0
M  V30 253 C 26.6468 3.47648 1.44283 0
M  V30 254 C 25.7938 2.74374 0.401757 0
M  V30 255 H 28.7448 1.56831 -0.242816 0
M  V30 256 H 28.7658 3.34031 1.82219 0
M  V30 257 H 28.2778 3.88019 0.0791415 0
M  V30 258 H 26.3788 2.89866 2.34113 0
M  V30 259 H 26.4918 4.56352 1.45877 0
M  V30 260 H 24.8558 2.39485 0.867121 0
M  V30 261 H 25.6388 3.40102 -0.467513 0
M  V30 262 N 28.0839 -0.256276 1.55502 0
M  V30 263 C 29.0469 -1.30047 1.88734 0
M  V30 264 C 30.0469 -1.4154 0.763086 0
M  V30 265 O 31.2369 -1.40403 1.03115 0
M  V30 266 C 28.3689 -2.67953 2.10747 0
M  V30 267 H 29.5619 -1.01802 2.82093 0
M  V30 268 H 27.1149 -0.495134 1.4825 0
M  V30 269 H 27.8499 -3.01351 1.19825 0
M  V30 270 H 27.6349 -2.60993 2.92617 0
M  V30 271 H 29.1249 -3.43368 2.37673 0
M  V30 272 N 29.562 -1.4872 -0.521534 0
M  V30 273 C 30.492 -1.66771 -1.63431 0
M  V30 274 C 31.473 -0.516499 -1.62069 0
M  V30 275 O 32.658 -0.750013 -1.79132 0
M  V30 276 C 29.788 -1.71515 -3.01993 0
M  V30 277 C 28.742 -2.86222 -3.18216 0
M  V30 278 C 28.068 -2.76061 -4.57924 0
M  V30 279 C 29.368 -4.27419 -3.00184 0
M  V30 280 H 31.062 -2.59932 -1.48579 0
M  V30 281 H 28.608 -1.25089 -0.713358 0
M  V30 282 H 30.561 -1.82731 -3.7972 0
M  V30 283 H 29.285 -0.749393 -3.17886 0
M  V30 284 H 27.944 -2.74575 -2.42908 0
M  V30 285 H 27.592 -1.77437 -4.70665 0
M  V30 286 H 27.292 -3.53037 -4.69722 0
M  V30 287 H 28.816 -2.89256 -5.37739 0
M  V30 288 H 30.23 -4.39855 -3.67697 0
M  V30 289 H 28.627 -5.05458 -3.2347 0
M  V30 290 H 29.697 -4.43293 -1.96518 0
M  V30 291 N 31.0401 0.771051 -1.3745 0
M  V30 292 C 31.9701 1.89827 -1.3597 0
M  V30 293 C 32.9511 1.68562 -0.228216 0
M  V30 294 O 34.1361 1.8941 -0.428675 0
M  V30 295 C 31.2661 3.2712 -1.16662 0
M  V30 296 C 30.2201 3.6295 -2.2683 0
M  V30 297 C 29.5461 4.98791 -1.92644 0
M  V30 298 C 30.8461 3.69627 -3.69017 0
M  V30 299 H 32.5401 1.91323 -2.30295 0
M  V30 300 H 30.0861 0.919082 -1.10855 0
M  V30 301 H 32.0391 4.05615 -1.14256 0
M  V30 302 H 30.7631 3.26059 -0.187926 0
M  V30 303 H 29.4221 2.86763 -2.28392 0
M  V30 304 H 29.0701 4.94271 -0.933021 0
M  V30 305 H 28.7701 5.23733 -2.66416 0
M  V30 306 H 30.2941 5.79685 -1.91826 0
M  V30 307 H 31.7081 4.38273 -3.69581 0
M  V30 308 H 30.1051 4.06067 -4.41848 0
M  V30 309 H 31.1751 2.70273 -4.02592 0
M  V30 310 N 32.5182 1.22032 0.997298 0
M  V30 311 C 33.7582 1.05375 1.75144 0
M  V30 312 C 34.1222 -0.404696 1.87686 0
M  V30 313 O 35.3232 -0.691998 2.5974 0
M  V30 314 C 33.5942 1.74046 3.12158 0
M  V30 315 S 35.1532 1.72745 4.03366 0
M  V30 316 H 31.9712 0.377449 0.602539 0
M  V30 317 H 34.5732 1.54902 1.19272 0
M  V30 318 H 33.2772 2.79332 3.00669 0
M  V30 319 H 32.8082 1.24731 3.73103 0
M  V30 320 H 34.8232 0.774015 4.90126 0
M  V30 321 N 33.9963 -1.19345 1.0293 0
M  V30 322 C 35.4123 -1.41069 0.746446 0
M  V30 323 C 35.6123 -1.90078 -0.668776 0
M  V30 324 O 34.6683 -2.0778 -1.4347 0
M  V30 325 C 35.9813 -2.42141 1.78292 0
M  V30 326 C 37.5293 -2.55887 1.80252 0
M  V30 327 C 38.0043 -3.60214 2.8286 0
M  V30 328 N 39.4953 -3.67711 2.81679 0
M  V30 329 C 40.2303 -4.48128 3.57727 0
M  V30 330 N 39.7263 -5.32248 4.43491 0
M  V30 331 N 41.5193 -4.42782 3.46267 0
M  V30 332 H 33.6703 -0.858536 1.94275 0
M  V30 333 H 35.9333 -0.439541 0.839945 0
M  V30 334 H 35.6393 -2.13155 2.79746 0
M  V30 335 H 35.5133 -3.41323 1.60557 0
M  V30 336 H 37.9003 -2.84196 0.794757 0
M  V30 337 H 37.9813 -1.56858 2.02062 0
M  V30 338 H 37.6253 -3.32647 3.83807 0
M  V30 339 H 37.5553 -4.58895 2.58307 0
M  V30 340 H 40.0463 -3.07634 2.19476 0
M  V30 341 H 40.3593 -5.90729 4.98256 0
M  V30 342 H 38.7043 -5.31707 4.47564 0
M  V30 343 H 41.8953 -3.76107 2.78677 0
M  V30 344 H 42.0683 -5.05215 4.05785 0
M  V30 345 N 35.4744 -0.807222 -1.35358 0
M  V30 346 C 36.8854 -0.44876 -1.81226 0
M  V30 347 C 37.2364 1.02929 -1.67033 0
M  V30 348 O 36.3614 1.79991 -1.20133 0
M  V30 349 C 36.9564 -0.807774 -3.2903 0
M  V30 350 C 35.5154 -0.501901 -3.73039 0
M  V30 351 C 34.6624 -1.03304 -2.57339 0
M  V30 352 H 37.6134 -0.998808 -1.23327 0
M  V30 353 H 37.6344 -0.10554 -3.80354 0
M  V30 354 H 37.1464 -1.88357 -3.39328 0
M  V30 355 H 35.2474 0.565128 -3.68289 0
M  V30 356 H 35.3604 -1.03497 -4.67787 0
M  V30 357 H 33.7244 -0.455339 -2.50597 0
M  V30 358 H 34.5074 -2.11496 -2.70415 0
M  V30 359 N 36.9525 1.47285 -0.560781 0
M  V30 360 C 38.1985 2.03347 -0.0463654 0
M  V30 361 C 38.5535 1.42702 1.2905 0
M  V30 362 O 37.8465 0.574619 1.8278 0
M  V30 363 C 38.0405 3.57258 0.100784 0
M  V30 364 C 37.8695 4.32827 -1.22027 0
M  V30 365 C 36.6395 4.72588 -1.78854 0
M  V30 366 C 38.8375 4.67739 -2.13834 0
M  V30 367 N 36.8195 5.32816 -3.04927 0
M  V30 368 C 38.1905 5.28307 -3.24487 0
M  V30 369 C 40.2455 4.49667 -2.13784 0
M  V30 370 C 38.9485 5.72711 -4.35194 0
M  V30 371 C 40.9745 4.95073 -3.23506 0
M  V30 372 C 40.3365 5.55693 -4.32879 0
M  V30 373 H 36.4355 0.779755 -0.0592166 0
M  V30 374 H 39.0195 1.79723 -0.748857 0
M  V30 375 H 37.1905 3.80642 0.772404 0
M  V30 376 H 38.9225 3.9996 0.617589 0
M  V30 377 H 35.6775 4.54656 -1.32609 0
M  V30 378 H 36.1015 5.67471 -3.69197 0
M  V30 379 H 40.7435 4.02154 -1.30507 0
M  V30 380 H 38.4615 6.19214 -5.1923 0
M  V30 381 H 42.0475 4.82859 -3.24559 0
M  V30 382 H 40.9275 5.90188 -5.1638 0
M  V30 383 N 38.4306 0.297415 1.54768 0
M  V30 384 C 39.3406 -0.58983 2.27064 0
M  V30 385 C 40.3566 -1.15144 1.30453 0
M  V30 386 O 41.5326 -1.17699 1.63428 0
M  V30 387 C 38.5976 -1.74714 2.9946 0
M  V30 388 C 37.6586 -1.21997 4.11601 0
M  V30 389 C 36.8916 -2.32212 4.80535 0
M  V30 390 O 37.1146 -3.52036 4.48806 0
M  V30 391 O 36.0486 -1.99106 5.68014 0
M  V30 392 H 39.8746 -0.00348199 3.037 0
M  V30 393 H 37.4596 0.0640035 1.49263 0
M  V30 394 H 39.3416 -2.42147 3.44881 0
M  V30 395 H 38.0166 -2.32016 2.25722 0
M  V30 396 H 36.9236 -0.511458 3.70587 0
M  V30 397 H 38.2566 -0.692419 4.87305 0
M  V30 398 N 39.9087 -1.5758 0.0250728 0
M  V30 399 C 41.1547 -1.91917 -0.655413 0
M  V30 400 C 41.4877 -0.901433 -1.72011 0
M  V30 401 O 40.7627 0.0764069 -1.9435 0
M  V30 402 C 41.0457 -3.36751 -1.27558 0
M  V30 403 C 40.8987 -4.49258 -0.220719 0
M  V30 404 C 42.2177 -3.81469 -2.19475 0
M  V30 405 H 39.3367 -0.697925 -0.23679 0
M  V30 406 H 41.9787 -1.89825 0.0815036 0
M  V30 407 H 40.1287 -3.38664 -1.90365 0
M  V30 408 H 41.8007 -4.59478 0.409601 0
M  V30 409 H 40.0437 -4.31415 0.454264 0
M  V30 410 H 40.7147 -5.47618 -0.694175 0
M  V30 411 H 43.1907 -3.81266 -1.66659 0
M  V30 412 H 42.0667 -4.83512 -2.59822 0
M  V30 413 H 42.3277 -3.16744 -3.08424 0
M  V30 414 N 41.3868 0.248026 -1.55636 0
M  V30 415 C 42.3168 1.31079 -1.93237 0
M  V30 416 C 43.2978 1.50264 -0.797174 0
M  V30 417 O 44.4828 1.62891 -1.05737 0
M  V30 418 C 41.6128 2.66575 -2.22609 0
M  V30 419 C 40.5668 2.62087 -3.3837 0
M  V30 420 C 39.8928 4.01369 -3.53281 0
M  V30 421 C 41.1928 2.19171 -4.7409 0
M  V30 422 H 42.8868 0.998556 -2.82257 0
M  V30 423 H 40.4328 0.47891 -1.35803 0
M  V30 424 H 42.3858 3.41057 -2.47503 0
M  V30 425 H 41.1098 2.99432 -1.30414 0
M  V30 426 H 39.7688 1.90063 -3.13483 0
M  V30 427 H 39.4168 4.31489 -2.58508 0
M  V30 428 H 39.1168 3.99254 -4.31127 0
M  V30 429 H 40.6408 4.77552 -3.80495 0
M  V30 430 H 42.0548 2.83384 -4.98363 0
M  V30 431 H 40.4518 2.2817 -5.5503 0
M  V30 432 H 41.5218 1.14336 -4.71227 0
M  V30 433 N 42.8649 1.48995 0.513639 0
M  V30 434 C 44.1129 1.57531 1.26604 0
M  V30 435 C 44.4339 0.258236 1.93283 0
M  V30 436 O 43.7039 -0.721502 1.8213 0
M  V30 437 H 42.2839 0.580387 0.470276 0
M  V30 438 H 44.9459 1.85552 0.596373 0
M  V30 439 H 44.0419 2.36486 2.03669 0
M  V30 440 N 44.343 -0.763751 1.37857 0
M  V30 441 C 45.306 -1.85889 1.34081 0
M  V30 442 C 46.306 -1.58949 0.243277 0
M  V30 443 O 47.496 -1.66882 0.499589 0
M  V30 444 C 44.628 -3.23176 1.08489 0
M  V30 445 H 45.821 -1.90648 2.31502 0
M  V30 446 H 43.374 -0.964367 1.23003 0
M  V30 447 H 44.109 -3.24091 0.116318 0
M  V30 448 H 43.894 -3.44124 1.8794 0
M  V30 449 H 45.384 -4.03254 1.08517 0
M  V30 450 N 45.8211 -1.22559 -0.990812 0
M  V30 451 C 46.7711 -0.964807 -2.0658 0
M  V30 452 C 47.7551 0.0853472 -1.60673 0
M  V30 453 O 48.9471 -0.125443 -1.76555 0
M  V30 454 C 46.0761 -0.546707 -3.38919 0
M  V30 455 C 45.1621 -1.6317 -3.91454 0
M  V30 456 N 45.5531 -2.85985 -4.17189 0
M  V30 457 C 43.8511 -1.50387 -4.19881 0
M  V30 458 C 44.5521 -3.56159 -4.59919 0
M  V30 459 N 43.5281 -2.83637 -4.63736 0
M  V30 460 H 47.3301 -1.89769 -2.24421 0
M  V30 461 H 44.8441 -1.12343 -1.17273 0
M  V30 462 H 46.8411 -0.34119 -4.15502 0
M  V30 463 H 45.5011 0.379254 -3.22478 0
M  V30 464 H 46.5121 -3.22392 -4.05319 0
M  V30 465 H 43.1891 -0.644254 -4.12499 0
M  V30 466 H 44.5791 -4.6139 -4.88435 0
M  V30 467 N 47.2992 1.18797 -1.03562 0
M  V30 468 C 48.2092 2.25913 -0.632505 0
M  V30 469 C 49.2252 1.70668 0.338882 0
M  V30 470 O 50.4012 2.00453 0.195076 0
M  V30 471 C 47.4662 3.467 0.00350942 0
M  V30 472 C 46.5272 4.17098 -1.01624 0
M  V30 473 C 45.7602 5.32119 -0.410478 0
M  V30 474 O 45.9832 5.64976 0.784725 0
M  V30 475 O 44.9172 5.9107 -1.13667 0
M  V30 476 H 48.7432 2.62648 -1.52478 0
M  V30 477 H 46.3282 1.25781 -0.806195 0
M  V30 478 H 48.2102 4.19878 0.35781 0
M  V30 479 H 46.8852 3.11798 0.869686 0
M  V30 480 H 45.7922 3.4601 -1.42224 0
M  V30 481 H 47.1252 4.55987 -1.85301 0
M  V30 482 N 48.7773 0.814389 1.34928 0
M  V30 483 C 50.0233 0.399013 1.98836 0
M  V30 484 C 50.3563 -1.03314 1.64438 0
M  V30 485 O 49.6313 -1.71811 0.911659 0
M  V30 486 C 49.9143 0.591629 3.55207 0
M  V30 487 C 49.7673 2.06928 3.99376 0
M  V30 488 C 51.0863 0.022199 4.40094 0
M  V30 489 H 48.2053 0.146451 0.722303 0
M  V30 490 H 50.8473 1.02537 1.59957 0
M  V30 491 H 48.9973 0.0584441 3.88456 0
M  V30 492 H 50.6693 2.66544 3.76499 0
M  V30 493 H 48.9123 2.56287 3.49999 0
M  V30 494 H 49.5833 2.1549 5.08201 0
M  V30 495 H 52.0593 0.477643 4.13349 0
M  V30 496 H 50.9353 0.186832 5.48582 0
M  V30 497 H 51.1963 -1.07215 4.28902 0
M  V30 498 N 50.2554 -1.46986 0.568584 0
M  V30 499 C 51.6664 -1.86188 0.138219 0
M  V30 500 C 52.0174 -1.47388 -1.29504 0
M  V30 501 O 51.1424 -0.88219 -1.97602 0
M  V30 502 C 51.7374 -3.3792 0.244065 0
M  V30 503 C 50.2964 -3.76171 -0.131335 0
M  V30 504 C 49.4434 -2.71027 0.586465 0
M  V30 505 H 52.3944 -1.38342 0.777645 0
M  V30 506 H 52.4154 -3.76729 -0.534351 0
M  V30 507 H 51.9274 -3.66128 1.28731 0
M  V30 508 H 50.0284 -3.5358 -1.17526 0
M  V30 509 H 50.1414 -4.78523 0.235146 0
M  V30 510 H 48.5054 -2.54684 0.0282722 0
M  V30 511 H 49.2884 -3.02077 1.63109 0
M  V30 512 N 51.7335 -0.305618 -1.54608 0
M  V30 513 C 52.9585 0.307562 -2.05107 0
M  V30 514 C 53.3835 1.46385 -1.18123 0
M  V30 515 O 52.7415 1.8034 -0.186324 0
M  V30 516 C 52.7895 0.73704 -3.52987 0
M  V30 517 O 51.8935 1.84134 -3.6901 0
M  V30 518 H 51.2345 0.0589143 -0.661381 0
M  V30 519 H 53.7645 -0.448807 -1.99617 0
M  V30 520 H 53.7745 1.02459 -3.94925 0
M  V30 521 H 52.4495 -0.108773 -4.15758 0
M  V30 522 H 51.0265 1.55398 -3.38978 0
M  V30 523 N 53.2116 1.57565 -0.0334293 0
M  V30 524 C 54.6276 1.56297 0.322997 0
M  V30 525 C 54.8276 1.03945 1.7262 0
M  V30 526 O 53.8836 0.688109 2.42943 0
M  V30 527 C 55.1966 3.00232 0.167664 0
M  V30 528 C 56.7446 3.12078 0.240107 0
M  V30 529 C 57.2196 4.57859 0.113513 0
M  V30 530 N 58.7106 4.62887 0.170359 0
M  V30 531 C 59.4456 5.73319 0.0962517 0
M  V30 532 N 58.9416 6.92794 -0.0291881 0
M  V30 533 N 60.7346 5.61898 0.150551 0
M  V30 534 H 52.8856 1.89923 -0.950956 0
M  V30 535 H 55.1486 0.873824 -0.367608 0
M  V30 536 H 54.8546 3.42501 -0.799102 0
M  V30 537 H 54.7286 3.654 0.936083 0
M  V30 538 H 57.1156 2.69718 1.19733 0
M  V30 539 H 57.1966 2.49623 -0.558763 0
M  V30 540 H 56.8406 5.009 -0.840314 0
M  V30 541 H 56.7706 5.18299 0.931302 0
M  V30 542 H 59.2616 3.76954 0.26728 0
M  V30 543 H 59.5746 7.7276 -0.0789252 0
M  V30 544 H 57.9196 6.94971 -0.0640299 0
M  V30 545 H 61.1106 4.67448 0.246981 0
M  V30 546 H 61.2836 6.47938 0.0893365 0
M  V30 547 N 54.6897 -0.239769 1.55765 0
M  V30 548 C 55.6377 -1.31668 1.91745 0
M  V30 549 C 56.6317 -1.49462 0.797338 0
M  V30 550 O 57.8377 -1.50852 0.982021 0
M  V30 551 H 54.2127 -0.441048 0.609082 0
M  V30 552 H 56.1837 -0.985923 2.81642 0
M  V30 553 C 54.9327 -2.66368 2.2348 0
M  V30 554 H 54.2557 -2.53478 3.09175 0
M  V30 555 H 55.6957 -3.40578 2.52553 0
M  V30 556 C 54.1547 -3.20002 1.05359 0
M  V30 557 O 54.6847 -4.00538 0.305261 0
M  V30 558 N 52.8907 -2.78126 0.842292 0
M  V30 559 H 52.4377 -2.12742 1.45253 0
M  V30 560 H 52.3957 -3.14354 0.053652 0
M  V30 561 N 56.1678 -1.49265 -0.50573 0
M  V30 562 C 57.4168 -1.57761 -1.25675 0
M  V30 563 C 57.7298 -0.267371 -1.93764 0
M  V30 564 O 58.9358 -0.230827 -2.70517 0
M  V30 565 C 57.3918 -2.78332 -2.28165 0
M  V30 566 C 56.9998 -4.16096 -1.66037 0
M  V30 567 C 58.7438 -2.96155 -3.04125 0
M  V30 568 C 56.6508 -5.27895 -2.6661 0
M  V30 569 H 55.5808 -0.587391 -0.472745 0
M  V30 570 H 58.2318 -1.75644 -0.53118 0
M  V30 571 H 56.6138 -2.53934 -3.03865 0
M  V30 572 H 57.7878 -4.50612 -0.963622 0
M  V30 573 H 56.1028 -4.03591 -1.02484 0
M  V30 574 H 58.6998 -3.76849 -3.79327 0
M  V30 575 H 59.0428 -2.06534 -3.61455 0
M  V30 576 H 59.5758 -3.2057 -2.35541 0
M  V30 577 H 56.3148 -6.1956 -2.14068 0
M  V30 578 H 55.8348 -4.97839 -3.34539 0
M  V30 579 H 57.5138 -5.57031 -3.29129 0
M  V30 580 N 57.6459 0.756429 -1.3826 0
M  V30 581 C 58.8929 1.51547 -1.34312 0
M  V30 582 C 59.2209 1.94382 0.0677144 0
M  V30 583 O 58.4759 1.65514 1.04421 0
M  V30 584 C 58.7749 2.78313 -2.24224 0
M  V30 585 C 58.4409 2.54455 -3.72241 0
M  V30 586 C 57.1029 2.47657 -4.12576 0
M  V30 587 C 59.4549 2.3354 -4.65949 0
M  V30 588 C 56.7829 2.17956 -5.44713 0
M  V30 589 C 59.1349 2.05359 -5.9834 0
M  V30 590 C 57.7989 1.97016 -6.37762 0
M  V30 591 H 57.0689 0.55455 -0.491482 0
M  V30 592 H 59.7159 0.870039 -1.70595 0
M  V30 593 H 58.0209 3.47492 -1.80987 0
M  V30 594 H 59.7179 3.36259 -2.18474 0
M  V30 595 H 56.3079 2.60616 -3.40261 0
M  V30 596 H 60.4919 2.37772 -4.35635 0
M  V30 597 H 55.7479 2.10003 -5.74203 0
M  V30 598 H 59.9219 1.88179 -6.70494 0
M  V30 599 H 57.5489 1.73766 -7.40074 0
M  V30 600 N 59.124 1.23083 0.984299 0
M  V30 601 C 60.349 1.088 1.76571 0
M  V30 602 C 60.774 -0.356657 1.84688 0
M  V30 603 O 60.132 -1.25788 1.30565 0
M  V30 604 C 60.18 1.71371 3.17277 0
M  V30 605 O 59.284 0.973213 4.00752 0
M  V30 606 H 58.625 0.381599 0.543395 0
M  V30 607 H 61.155 1.63057 1.23587 0
M  V30 608 H 61.165 1.76449 3.67872 0
M  V30 609 H 59.84 2.76493 3.10684 0
M  V30 610 H 58.417 0.999078 3.59267 0
M  V30 611 N 60.6021 -1.18246 1.0419 0
M  V30 612 C 61.5121 -2.25574 0.644476 0
M  V30 613 C 62.5281 -1.70845 -0.329826 0
M  V30 614 O 63.7041 -2.00554 -0.184443 0
M  V30 615 C 60.7691 -3.46697 0.014877 0
M  V30 616 C 59.8301 -4.16554 1.03834 0
M  V30 617 C 59.0631 -5.31894 0.438692 0
M  V30 618 O 59.2861 -5.65385 -0.754752 0
M  V30 619 O 58.2201 -5.90459 1.168 0
M  V30 620 H 62.0461 -2.61836 1.53869 0
M  V30 621 H 59.6311 -1.25352 0.812854 0
M  V30 622 H 61.5131 -4.20062 -0.335538 0
M  V30 623 H 60.1881 -3.12255 -0.853138 0
M  V30 624 H 59.0951 -3.45251 1.44057 0
M  V30 625 H 60.4281 -4.54998 1.87716 0
M  V30 626 N 62.0802 -0.821533 -1.34494 0
M  V30 627 C 63.0122 -0.199946 -2.28326 0
M  V30 628 C 64.0252 0.609377 -1.50965 0
M  V30 629 O 65.2142 0.439285 -1.7301 0
M  V30 630 C 62.3142 0.738431 -3.30757 0
M  V30 631 C 61.4872 -0.0277632 -4.37391 0
M  V30 632 C 60.5462 0.831332 -5.19591 0
M  V30 633 O 59.5722 0.276822 -5.68526 0
M  V30 634 N 60.7742 2.15132 -5.39165 0
M  V30 635 H 63.5392 -1.00609 -2.82308 0
M  V30 636 H 61.1002 -0.678366 -1.47003 0
M  V30 637 H 63.0922 1.31773 -3.82646 0
M  V30 638 H 61.6622 1.44533 -2.7718 0
M  V30 639 H 60.8822 -0.788359 -3.86236 0
M  V30 640 H 62.1702 -0.555251 -5.05761 0
M  V30 641 H 61.5682 2.62559 -5.01078 0
M  V30 642 H 60.1252 2.6795 -5.94177 0
M  V30 643 N 63.5583 1.46682 -0.576371 0
M  V30 644 C 64.7863 2.06798 -0.0649635 0
M  V30 645 C 65.2013 1.42612 1.23723 0
M  V30 646 O 64.5583 0.529203 1.74659 0
M  V30 647 C 64.6093 3.6132 0.114202 0
M  V30 648 O 64.3303 4.23104 -1.13644 0
M  V30 649 C 65.8313 4.38349 0.66069 0
M  V30 650 H 63.0513 0.668778 -0.0545616 0
M  V30 651 H 65.5953 1.88404 -0.795237 0
M  V30 652 H 63.7503 3.79162 0.794673 0
M  V30 653 H 64.1643 5.15894 -0.946253 0
M  V30 654 H 65.6383 5.47081 0.73526 0
M  V30 655 H 66.1153 4.05953 1.67627 0
M  V30 656 H 66.7213 4.25297 0.0152951 0
M  V30 657 N 65.0364 0.313813 1.54444 0
M  V30 658 C 66.2854 -0.292519 1.99568 0
M  V30 659 C 66.5984 -1.54011 1.20582 0
M  V30 660 O 67.8044 -2.22183 1.56035 0
M  V30 661 C 66.2604 -0.571752 3.55329 0
M  V30 662 C 65.8684 0.658229 4.43138 0
M  V30 663 C 67.6124 -1.13857 4.08946 0
M  V30 664 C 65.5194 0.351439 5.90355 0
M  V30 665 H 64.4494 -0.113079 0.745472 0
M  V30 666 H 67.1004 0.424518 1.78522 0
M  V30 667 H 65.4824 -1.34872 3.72325 0
M  V30 668 H 66.6564 1.43403 4.37918 0
M  V30 669 H 64.9714 1.14458 4.0036 0
M  V30 670 H 67.5684 -1.38257 5.16516 0
M  V30 671 H 67.9114 -2.08489 3.6033 0
M  V30 672 H 68.4444 -0.423015 3.95544 0
M  V30 673 H 65.1834 1.26667 6.43145 0
M  V30 674 H 64.7034 -0.386842 5.98551 0
M  V30 675 H 66.3824 -0.0423134 6.46986 0
M  V30 676 N 66.5145 -1.57545 0.0417849 0
M  V30 677 C 67.9255 -1.80011 -0.495259 0
M  V30 678 C 68.2765 -0.953199 -1.71489 0
M  V30 679 O 67.4015 -0.167138 -2.15754 0
M  V30 680 C 67.9965 -3.26482 -0.905265 0
M  V30 681 C 66.5555 -3.499 -1.38734 0
M  V30 682 C 65.7025 -2.74979 -0.358056 0
M  V30 683 H 68.6535 -1.56425 0.267736 0
M  V30 684 H 68.6745 -3.36887 -1.76882 0
M  V30 685 H 68.1865 -3.88096 -0.017401 0
M  V30 686 H 66.2875 -2.93553 -2.29471 0
M  V30 687 H 66.4005 -4.58615 -1.38598 0
M  V30 688 H 64.7645 -2.40834 -0.828912 0
M  V30 689 H 65.5475 -3.39315 0.521561 0
M  V30 690 N 67.9926 0.231505 -1.5589 0
M  V30 691 C 69.4036 0.799327 -1.68724 0
M  V30 692 C 69.7546 1.85398 -0.642022 0
M  V30 693 O 68.8796 2.1539 0.208784 0
M  V30 694 C 69.4746 1.45664 -3.05888 0
M  V30 695 C 68.0336 1.97197 -3.20609 0
M  V30 696 C 67.1806 0.828552 -2.64632 0
M  V30 697 H 70.1316 0.00702616 -1.58698 0
M  V30 698 H 70.1526 2.32517 -3.01191 0
M  V30 699 H 69.6646 0.688808 -3.81939 0
M  V30 700 H 67.7656 2.76813 -2.4941 0
M  V30 701 H 67.8786 2.15878 -4.27707 0
M  V30 702 H 66.2426 1.23321 -2.22854 0
M  V30 703 H 67.0256 0.0735544 -3.43221 0
M  V30 704 N 69.4707 1.49531 0.497807 0
M  V30 705 C 70.6957 1.63159 1.28039 0
M  V30 706 C 71.1207 0.30418 1.85624 0
M  V30 707 O 70.4787 -0.728618 1.66015 0
M  V30 708 C 70.5267 2.70537 2.38416 0
M  V30 709 O 69.6307 2.29931 3.42353 0
M  V30 710 H 68.9717 0.546001 0.377861 0
M  V30 711 H 71.5017 1.9574 0.59558 0
M  V30 712 H 71.5117 2.92802 2.84132 0
M  V30 713 H 70.1867 3.6689 1.95869 0
M  V30 714 H 68.7637 2.18009 3.02533 0
M  V30 715 N 70.9488 -0.749086 1.3866 0
M  V30 716 C 71.9118 -1.84457 1.36045 0
M  V30 717 C 72.9118 -1.58682 0.260122 0
M  V30 718 O 74.1018 -1.66343 0.517261 0
M  V30 719 C 71.2338 -3.22008 1.11911 0
M  V30 720 H 72.4268 -1.88182 2.33512 0
M  V30 721 H 69.9798 -0.951266 1.24019 0
M  V30 722 H 70.7148 -3.2395 0.150686 0
M  V30 723 H 70.4998 -3.42111 1.91579 0
M  V30 724 H 71.9898 -4.0208 1.12788 0
M  V30 725 N 72.4269 -1.23603 -0.977757 0
M  V30 726 C 73.3739 -1.01954 -2.07061 0
M  V30 727 C 74.3439 0.0638697 -1.65977 0
M  V30 728 O 75.5289 -0.0887624 -1.90593 0
M  V30 729 C 72.6689 -0.619658 -3.39491 0
M  V30 730 C 71.7819 -1.77547 -3.93829 0
M  V30 731 C 70.9169 -1.32212 -5.14484 0
M  V30 732 C 69.9559 -2.44852 -5.60994 0
M  V30 733 N 69.0929 -2.00456 -6.72876 0
M  V30 734 H 73.9329 -1.95495 -2.24913 0
M  V30 735 H 71.4699 -0.973861 -1.10247 0
M  V30 736 H 73.4279 -0.368898 -4.15566 0
M  V30 737 H 72.0579 0.278752 -3.21594 0
M  V30 738 H 71.1099 -2.14016 -3.14486 0
M  V30 739 H 72.4219 -2.62219 -4.24314 0
M  V30 740 H 71.5759 -1.02965 -5.97899 0
M  V30 741 H 70.3149 -0.445808 -4.85658 0
M  V30 742 H 69.3199 -2.74871 -4.76157 0
M  V30 743 H 70.5449 -3.33024 -5.91837 0
M  V30 744 H 68.4909 -1.15208 -6.45804 0
M  V30 745 H 68.4079 -2.78687 -7.02759 0
M  V30 746 H 69.6759 -1.7432 -7.59758 0
M  V30 747 N 73.905 1.17692 -1.04816 0
M  V30 748 C 75.135 1.91508 -0.775128 0
M  V30 749 C 75.543 1.76844 0.67253 0
M  V30 750 O 74.886 1.10057 1.47082 0
M  V30 751 C 74.948 3.43167 -1.0713 0
M  V30 752 C 74.612 3.81612 -2.51438 0
M  V30 753 C 75.609 3.84772 -3.49638 0
M  V30 754 C 73.294 4.12687 -2.86348 0
M  V30 755 C 75.288 4.18469 -4.80794 0
M  V30 756 C 72.975 4.46053 -4.17708 0
M  V30 757 C 73.973 4.48921 -5.14741 0
M  V30 758 O 73.661 4.81504 -6.43746 0
M  V30 759 H 73.393 0.614575 -0.281555 0
M  V30 760 H 75.947 1.50206 -1.40098 0
M  V30 761 H 74.177 3.84745 -0.388342 0
M  V30 762 H 75.866 3.98239 -0.784883 0
M  V30 763 H 76.632 3.60893 -3.24008 0
M  V30 764 H 72.511 4.09627 -2.11486 0
M  V30 765 H 76.055 4.20623 -5.56527 0
M  V30 766 H 71.952 4.69393 -4.43103 0
M  V30 767 H 72.72 4.99377 -6.4851 0
M  V30 768 N 75.3831 0.828654 1.34056 0
M  V30 769 C 76.6311 0.41863 1.97717 0
M  V30 770 C 76.9521 -1.02314 1.66002 0
M  V30 771 O 76.2221 -1.71119 0.953683 0
M  V30 772 H 74.8021 0.151809 0.731412 0
M  V30 773 H 77.4641 1.05936 1.63596 0
M  V30 774 H 76.5601 0.542318 3.07352 0
M  V30 775 N 76.8612 -1.46375 0.584142 0
M  V30 776 C 78.1092 -2.01978 0.0701287 0
M  V30 777 C 78.4302 -1.4579 -1.295 0
M  V30 778 O 77.7002 -0.64314 -1.85042 0
M  V30 779 H 76.2802 -0.746648 0.0229345 0
M  V30 780 H 78.9422 -1.79461 0.760245 0
M  V30 781 H 78.0382 -3.121 0.0022064 0
M  V30 782 N 78.3393 -0.321999 -1.54275 0
M  V30 783 C 79.7553 0.0306999 -1.5957 0
M  V30 784 C 79.9553 1.50614 -1.33857 0
M  V30 785 O 79.0113 2.2619 -1.12223 0
M  V30 786 C 80.3243 -0.386122 -2.98211 0
M  V30 787 C 81.8723 -0.336647 -3.11184 0
M  V30 788 C 82.3473 -0.728607 -4.52167 0
M  V30 789 N 83.8383 -0.681952 -4.58152 0
M  V30 790 C 84.5733 -0.957449 -5.6535 0
M  V30 791 N 84.0693 -1.3 -6.80494 0
M  V30 792 N 85.8623 -0.883113 -5.55119 0
M  V30 793 H 78.0133 -1.28332 -1.69247 0
M  V30 794 H 80.2763 -0.521716 -0.791528 0
M  V30 795 H 79.9823 -1.41404 -3.22022 0
M  V30 796 H 79.8563 0.249662 -3.76373 0
M  V30 797 H 82.2433 0.682058 -2.8711 0
M  V30 798 H 82.3243 -1.00734 -2.3513 0
M  V30 799 H 81.9683 -1.74522 -4.76974 0
M  V30 800 H 81.8983 -0.0356152 -5.26588 0
M  V30 801 H 84.3893 -0.428985 -3.75457 0
M  V30 802 H 84.7023 -1.49563 -7.58189 0
M  V30 803 H 83.0473 -1.33824 -6.81994 0
M  V30 804 H 86.2383 -0.615001 -4.64042 0
M  V30 805 H 86.4113 -1.10118 -6.38575 0
M  V30 806 N 79.8174 1.5752 -0.0501392 0
M  V30 807 C 80.7674 2.07981 0.934231 0
M  V30 808 C 81.7514 0.984745 1.27246 0
M  V30 809 O 82.9434 1.24809 1.25506 0
M  V30 810 C 80.0724 2.62751 2.20945 0
M  V30 811 C 79.1584 3.79225 1.89865 0
M  V30 812 N 79.5494 4.89036 1.29142 0
M  V30 813 C 77.8474 3.88111 2.19741 0
M  V30 814 C 78.5484 5.70084 1.15669 0
M  V30 815 N 77.5244 5.17659 1.65923 0
M  V30 816 H 81.3264 2.90277 0.460053 0
M  V30 817 H 78.8404 1.61665 0.15434 0
M  V30 818 H 80.8374 2.97205 2.9236 0
M  V30 819 H 79.4974 1.81894 2.6897 0
M  V30 820 H 80.5084 5.08854 0.963756 0
M  V30 821 H 77.1854 3.18194 2.70293 0
M  V30 822 H 78.5754 6.68395 0.685356 0
M  V30 823 N 81.2955 -0.223234 1.56011 0
M  V30 824 C 82.5235 -0.964812 1.83027 0
M  V30 825 C 82.9385 -1.78013 0.62904 0
M  V30 826 O 82.2955 -1.78008 -0.402414 0
M  V30 827 C 82.3465 -1.88373 3.08542 0
M  V30 828 O 82.0675 -1.10137 4.2403 0
M  V30 829 C 83.5685 -2.73934 3.48533 0
M  V30 830 H 80.7885 -0.282842 0.608475 0
M  V30 831 H 83.3325 -0.238971 2.03099 0
M  V30 832 H 81.4875 -2.56354 2.9045 0
M  V30 833 H 81.9015 -1.72501 4.95322 0
M  V30 834 H 83.3755 -3.34117 4.39397 0
M  V30 835 H 83.8525 -3.46244 2.70207 0
M  V30 836 H 84.4585 -2.11369 3.69057 0
M  V30 837 N 82.7736 -1.49793 -0.48987 0
M  V30 838 C 84.0196 -1.60078 -1.24511 0
M  V30 839 C 84.3526 -0.291608 -1.91998 0
M  V30 840 O 83.6276 0.705647 -1.81248 0
M  V30 841 C 83.9106 -2.76791 -2.30345 0
M  V30 842 C 83.7636 -4.17535 -1.67286 0
M  V30 843 C 85.0826 -2.89111 -3.31817 0
M  V30 844 H 82.2016 -0.582645 -0.451324 0
M  V30 845 H 84.8436 -1.82117 -0.541612 0
M  V30 846 H 82.9936 -2.5813 -2.90346 0
M  V30 847 H 84.6656 -4.4774 -1.11026 0
M  V30 848 H 82.9086 -4.22665 -0.976577 0
M  V30 849 H 83.5796 -4.95094 -2.44103 0
M  V30 850 H 86.0556 -3.06133 -2.81819 0
M  V30 851 H 84.9316 -3.72433 -4.03219 0
M  V30 852 H 85.1926 -1.9893 -3.94815 0
M  V30 853 N 84.2517 0.741722 -1.39055 0
M  V30 854 C 85.4797 1.53098 -1.39171 0
M  V30 855 C 85.8947 1.88794 0.0155099 0
M  V30 856 O 85.2517 1.53626 0.985159 0
M  V30 857 C 85.3027 2.82274 -2.2584 0
M  V30 858 O 85.0237 2.48097 -3.61081 0
M  V30 859 C 86.5247 3.76343 -2.34266 0
M  V30 860 H 83.7447 0.473335 -0.4756 0
M  V30 861 H 86.2887 0.917045 -1.82785 0
M  V30 862 H 84.4437 3.40015 -1.85656 0
M  V30 863 H 84.8577 3.31029 -4.06842 0
M  V30 864 H 86.3317 4.63898 -2.9917 0
M  V30 865 H 86.8087 4.17619 -1.35982 0
M  V30 866 H 87.4147 3.24523 -2.74891 0
M  V30 867 N 85.7298 1.2412 0.971189 0
M  V30 868 C 86.6628 0.97373 2.06382 0
M  V30 869 C 87.6408 -0.0912662 1.62344 0
M  V30 870 O 88.8248 0.0449365 1.88446 0
M  V30 871 C 85.9518 0.468746 3.35441 0
M  V30 872 C 84.9978 1.52176 3.98428 0
M  V30 873 S 85.8308 3.10203 4.36503 0
M  V30 874 C 86.9868 2.61398 5.68702 0
M  V30 875 H 87.2198 1.89893 2.28753 0
M  V30 876 H 84.7528 1.07466 1.10862 0
M  V30 877 H 86.7108 0.184012 4.10087 0
M  V30 878 H 85.3718 -0.435688 3.11064 0
M  V30 879 H 84.5648 1.11876 4.91426 0
M  V30 880 H 84.1668 1.75632 3.30196 0
M  V30 881 H 86.4588 2.03992 6.4606 0
M  V30 882 H 87.4018 3.52972 6.13854 0
M  V30 883 H 87.8098 2.01941 5.27143 0
M  V30 884 N 87.2079 -1.17134 1.05439 0
M  V30 885 C 88.4569 -1.86791 0.761049 0
M  V30 886 C 88.7699 -1.82072 -0.714795 0
M  V30 887 O 89.9759 -2.47223 -1.12218 0
M  V30 888 C 88.4319 -3.35166 1.31117 0
M  V30 889 C 88.0399 -3.48381 2.81664 0
M  V30 890 C 89.7839 -4.10134 1.09499 0
M  V30 891 C 87.6909 -4.90793 3.29964 0
M  V30 892 H 86.6209 -0.699681 0.281002 0
M  V30 893 H 89.2719 -1.3226 1.27199 0
M  V30 894 H 87.6539 -3.8925 0.72803 0
M  V30 895 H 88.8279 -3.04502 3.45855 0
M  V30 896 H 87.1429 -2.86836 3.01851 0
M  V30 897 H 89.7399 -5.152 1.43084 0
M  V30 898 H 90.0829 -4.16287 0.0328772 0
M  V30 899 H 90.6159 -3.62264 1.64346 0
M  V30 900 H 87.3549 -4.89816 4.35616 0
M  V30 901 H 86.8749 -5.35333 2.70516 0
M  V30 902 H 88.5539 -5.59573 3.24787 0
M  V30 903 N 88.686 -0.835752 -1.33615 0
M  V30 904 C 90.097 -0.487099 -1.80234 0
M  V30 905 C 90.448 0.993627 -1.69179 0
M  V30 906 O 89.573 1.77403 -1.23924 0
M  V30 907 C 90.168 -0.877385 -3.27242 0
M  V30 908 C 88.727 -0.580915 -3.7189 0
M  V30 909 C 87.874 -1.0874 -2.5509 0
M  V30 910 H 90.825 -1.02474 -1.2118 0
M  V30 911 H 90.846 -0.186195 -3.80044 0
M  V30 912 H 90.358 -1.95512 -3.35256 0
M  V30 913 H 88.459 0.486881 -3.69405 0
M  V30 914 H 88.572 -1.13396 -4.65487 0
M  V30 915 H 86.936 -0.508392 -2.49575 0
M  V30 916 H 87.719 -2.17184 -2.65868 0
M  V30 917 N 90.1641 1.46063 -0.591896 0
M  V30 918 C 91.4121 2.01938 -0.0808391 0
M  V30 919 C 91.7331 1.46475 1.28725 0
M  V30 920 O 91.0031 0.652944 1.84698 0
M  V30 921 H 89.5831 0.746516 -0.0268938 0
M  V30 922 H 92.2451 1.79055 -0.769752 0
M  V30 923 H 91.3411 3.12094 -0.0187578 0
M  V30 924 N 91.6422 0.330177 1.54103 0
M  V30 925 C 92.9192 -0.325007 1.92881 0
M  V30 926 C 93.2992 -1.6934 1.26045 0
M  V30 927 O 92.6472 -2.24855 0.406526 0
M  V30 928 C 92.8572 -0.410634 3.46576 0
M  V30 929 C 94.2052 -0.667801 4.19316 0
M  V30 930 O 95.2292 -0.49329 3.52768 0
M  V30 931 O 94.0882 -1.00491 5.37181 0
M  V30 932 H 91.1822 -0.186873 0.80561 0
M  V30 933 H 93.7282 0.380376 1.65382 0
M  V30 934 H 92.5002 0.550164 3.87413 0
M  V30 935 H 92.1232 -1.16333 3.802 0
M  V30 936 N 93.1203 -1.57491 0.0584922 0
M  V30 937 C 94.3683 -1.92597 -0.612436 0
M  V30 938 C 94.6893 -0.938162 -1.70949 0
M  V30 939 O 93.9593 0.0158301 -1.95894 0
M  V30 940 H 92.5393 -0.710964 -0.229214 0
M  V30 941 H 95.2013 -1.94571 0.113218 0
M  V30 942 H 94.2973 -2.94038 -1.04633 0
M  V30 943 N 94.5984 0.214957 -1.56127 0
M  V30 944 C 95.8474 0.936451 -1.78643 0
M  V30 945 C 96.1604 1.85237 -0.628229 0
M  V30 946 O 97.3664 2.613 -0.737186 0
M  V30 947 C 95.8224 1.7154 -3.16389 0
M  V30 948 C 95.4304 0.845299 -4.39953 0
M  V30 949 C 97.1744 2.42772 -3.48227 0
M  V30 950 C 95.0814 1.62198 -5.68723 0
M  V30 951 H 94.0114 0.353401 -0.666051 0
M  V30 952 H 96.6624 0.190169 -1.82512 0
M  V30 953 H 95.0444 2.50484 -3.06715 0
M  V30 954 H 96.2184 0.0959353 -4.607 0
M  V30 955 H 94.5334 0.244789 -4.1568 0
M  V30 956 H 97.1304 3.01394 -4.41663 0
M  V30 957 H 97.4734 3.15984 -2.71035 0
M  V30 958 H 98.0064 1.70813 -3.5926 0
M  V30 959 H 94.7454 0.933011 -6.48826 0
M  V30 960 H 94.2654 2.34579 -5.52026 0
M  V30 961 H 95.9444 2.18095 -6.09133 0
M  V30 962 N 96.0765 1.50051 0.48192 0
M  V30 963 C 97.3245 1.60181 1.23234 0
M  V30 964 C 97.6455 0.299176 1.92691 0
M  V30 965 O 96.9155 -0.682708 1.83619 0
M  V30 966 H 95.4955 0.590232 0.457859 0
M  V30 967 H 98.1575 1.86775 0.556881 0
M  V30 968 H 97.2535 2.40753 1.98607 0
M  V30 969 N 97.5546 -0.734337 1.39446 0
M  V30 970 C 98.9656 -1.31264 1.32766 0
M  V30 971 C 99.3166 -1.96198 -0.00767497 0
M  V30 972 O 98.4416 -1.96346 -0.909796 0
M  V30 973 C 99.0366 -2.38682 2.4045 0
M  V30 974 C 97.5956 -2.92184 2.37288 0
M  V30 975 C 96.7426 -1.6576 2.22304 0
M  V30 976 H 99.6936 -0.531799 1.49525 0
M  V30 977 H 99.7146 -3.19087 2.07276 0
M  V30 978 H 99.2266 -1.91392 3.37625 0
M  V30 979 H 97.3276 -3.43752 1.43754 0
M  V30 980 H 97.4406 -3.45253 3.3217 0
M  V30 981 H 95.8046 -1.9012 1.69489 0
M  V30 982 H 96.5876 -1.20521 3.21449 0
M  V30 983 N 99.0327 -1.24633 -0.964593 0
M  V30 984 C 99.9427 -1.05859 -2.09359 0
M  V30 985 C 100.959 0.00148855 -1.74 0
M  V30 986 O 102.135 -0.197346 -2.00431 0
M  V30 987 C 99.1997 -0.668879 -3.40187 0
M  V30 988 C 98.2607 -1.80578 -3.89474 0
M  V30 989 C 97.4937 -1.43457 -5.14058 0
M  V30 990 O 97.7167 -0.325775 -5.69469 0
M  V30 991 O 96.6507 -2.2613 -5.57807 0
M  V30 992 H 100.477 -2.00516 -2.28094 0
M  V30 993 H 98.0617 -1.03481 -1.0776 0
M  V30 994 H 99.9437 -0.463211 -4.18846 0
M  V30 995 H 98.6187 0.248536 -3.22744 0
M  V30 996 H 97.5257 -2.06623 -3.11862 0
M  V30 997 H 98.8587 -2.70208 -4.11398 0
M  V30 998 N 100.511 1.16574 -1.06058 0
M  V30 999 C 101.441 2.23057 -0.690488 0
M  V30 1000 C 102.422 1.67141 0.315901 0
M  V30 1001 O 103.607 1.93253 0.191556 0
M  V30 1002 C 100.737 3.47222 -0.073625 0
M  V30 1003 C 99.6908 4.16016 -1.00573 0
M  V30 1004 C 99.0168 5.34104 -0.252289 0
M  V30 1005 C 100.317 4.67264 -2.33371 0
M  V30 1006 H 102.011 2.54271 -1.58072 0
M  V30 1007 H 99.5568 1.22218 -0.76149 0
M  V30 1008 H 101.51 4.20939 0.19714 0
M  V30 1009 H 100.234 3.15302 0.85161 0
M  V30 1010 H 98.8928 3.44223 -1.2612 0
M  V30 1011 H 98.5408 4.98437 0.675988 0
M  V30 1012 H 98.2408 5.81072 -0.873455 0
M  V30 1013 H 99.7648 6.10599 0.0109857 0
M  V30 1014 H 101.179 5.32573 -2.12223 0
M  V30 1015 H 99.5758 5.24843 -2.90963 0
M  V30 1016 H 100.646 3.83602 -2.96611 0
M  V30 1017 N 101.989 0.842826 1.3317 0
M  V30 1018 C 102.922 0.223862 2.27099 0
M  V30 1019 C 103.9 -0.631311 1.49844 0
M  V30 1020 O 105.084 -0.590708 1.79005 0
M  V30 1021 C 102.211 -0.685313 3.31694 0
M  V30 1022 C 101.257 0.094919 4.26394 0
M  V30 1023 S 102.09 1.45546 5.15341 0
M  V30 1024 C 103.246 0.551685 6.23464 0
M  V30 1025 H 103.479 1.02015 2.79249 0
M  V30 1026 H 101.012 0.639797 1.4052 0
M  V30 1027 H 102.97 -1.20426 3.92438 0
M  V30 1028 H 101.631 -1.4553 2.78352 0
M  V30 1029 H 100.824 -0.597059 5.00451 0
M  V30 1030 H 100.426 0.545054 3.70007 0
M  V30 1031 H 102.718 -0.248877 6.77043 0
M  V30 1032 H 103.661 1.26253 6.96754 0
M  V30 1033 H 104.069 0.131275 5.64347 0
M  V30 1034 N 103.467 -1.45747 0.599634 0
M  V30 1035 C 104.397 -2.33235 -0.111306 0
M  V30 1036 C 105.378 -1.46359 -0.866781 0
M  V30 1037 O 106.563 -1.75146 -0.838904 0
M  V30 1038 C 103.693 -3.28932 -1.11451 0
M  V30 1039 C 102.647 -4.25381 -0.472772 0
M  V30 1040 C 101.973 -5.1071 -1.58365 0
M  V30 1041 C 103.273 -5.18831 0.600948 0
M  V30 1042 H 104.967 -2.92927 0.61919 0
M  V30 1043 H 102.513 -1.40857 0.299215 0
M  V30 1044 H 104.466 -3.89002 -1.62036 0
M  V30 1045 H 103.19 -2.67381 -1.8755 0
M  V30 1046 H 101.849 -3.66598 0.0121472 0
M  V30 1047 H 101.497 -4.45533 -2.33473 0
M  V30 1048 H 101.197 -5.7604 -1.15982 0
M  V30 1049 H 102.721 -5.73647 -2.09194 0
M  V30 1050 H 104.135 -5.73019 0.179491 0
M  V30 1051 H 102.532 -5.92595 0.946076 0
M  V30 1052 H 103.602 -4.6174 1.48068 0
M  V30 1053 N 104.945 -0.338344 -1.53925 0
M  V30 1054 C 105.895 0.536712 -2.21593 0
M  V30 1055 C 106.879 1.07015 -1.20153 0
M  V30 1056 O 108.071 1.00471 -1.45721 0
M  V30 1057 C 105.2 1.68977 -2.98834 0
M  V30 1058 C 104.286 1.17052 -4.07627 0
M  V30 1059 N 104.677 0.372085 -5.0443 0
M  V30 1060 C 102.975 1.44789 -4.21844 0
M  V30 1061 C 103.676 0.0909171 -5.81629 0
M  V30 1062 N 102.652 0.681131 -5.39316 0
M  V30 1063 H 106.454 -0.0804298 -2.9379 0
M  V30 1064 H 103.968 -0.144943 -1.61752 0
M  V30 1065 H 105.965 2.32857 -3.45808 0
M  V30 1066 H 104.625 2.31024 -2.28162 0
M  V30 1067 H 105.636 0.0136217 -5.17898 0
M  V30 1068 H 102.313 2.07313 -3.62391 0
M  V30 1069 H 103.703 -0.552817 -6.69622 0
M  V30 1070 N 106.423 1.57458 -0.0668435 0
M  V30 1071 C 107.669 1.93587 0.6043 0
M  V30 1072 C 108.002 0.946722 1.69561 0
M  V30 1073 O 107.277 -0.0248516 1.94484 0
M  V30 1074 C 107.56 3.40014 1.18585 0
M  V30 1075 C 107.413 4.49685 0.101529 0
M  V30 1076 C 108.732 3.87154 2.09284 0
M  V30 1077 H 105.851 0.703958 0.218202 0
M  V30 1078 H 108.493 1.89542 -0.131804 0
M  V30 1079 H 106.643 3.43592 1.81319 0
M  V30 1080 H 108.315 4.5823 -0.531279 0
M  V30 1081 H 106.558 4.30059 -0.568487 0
M  V30 1082 H 107.229 5.49266 0.54874 0
M  V30 1083 H 109.705 3.85551 1.56491 0
M  V30 1084 H 108.581 4.90231 2.46911 0
M  V30 1085 H 108.842 3.2481 2.99918 0
M  V30 1086 N 107.901 -0.206675 1.56239 0
M  V30 1087 C 108.848 -1.25617 1.93621 0
M  V30 1088 C 109.818 -1.45824 0.795274 0
M  V30 1089 O 111.003 -1.59148 1.05245 0
M  V30 1090 C 108.143 -2.59839 2.27107 0
M  V30 1091 C 107.256 -2.47308 3.54207 0
M  V30 1092 C 106.391 -3.74155 3.7707 0
M  V30 1093 C 105.43 -3.56407 4.97635 0
M  V30 1094 N 104.567 -4.75238 5.1681 0
M  V30 1095 H 109.407 -0.930383 2.83104 0
M  V30 1096 H 106.944 -0.448065 1.4011 0
M  V30 1097 H 108.902 -3.38021 2.44535 0
M  V30 1098 H 107.532 -2.90485 1.40778 0
M  V30 1099 H 106.584 -1.60483 3.4489 0
M  V30 1100 H 107.896 -2.30122 4.42544 0
M  V30 1101 H 107.05 -4.60778 3.94675 0
M  V30 1102 H 105.789 -3.94282 2.87042 0
M  V30 1103 H 104.794 -2.68168 4.79964 0
M  V30 1104 H 106.019 -3.37736 5.89161 0
M  V30 1105 H 103.965 -4.95651 4.29728 0
M  V30 1106 H 103.882 -4.60835 5.99306 0
M  V30 1107 H 105.15 -5.63246 5.38864 0
M  V30 1108 N 109.379 -1.50304 -0.473955 0
M  V30 1109 C 110.604 -1.65175 -1.25427 0
M  V30 1110 C 111.029 -0.333673 -1.85117 0
M  V30 1111 O 110.387 0.702114 -1.67153 0
M  V30 1112 C 110.435 -2.74295 -2.34082 0
M  V30 1113 O 109.539 -2.35349 -3.38651 0
M  V30 1114 H 108.88 -0.551944 -0.369126 0
M  V30 1115 H 111.41 -1.96662 -0.564364 0
M  V30 1116 H 111.42 -2.97285 -2.79438 0
M  V30 1117 H 110.095 -3.69959 -1.90008 0
M  V30 1118 H 108.672 -2.22794 -2.99027 0
M  V30 1119 N 110.857 0.726932 -1.39834 0
M  V30 1120 C 112.103 1.48884 -1.377 0
M  V30 1121 C 112.436 1.94185 0.0244852 0
M  V30 1122 O 111.711 1.67361 0.990986 0
M  V30 1123 C 111.994 2.72288 -2.3565 0
M  V30 1124 C 111.847 2.32956 -3.84775 0
M  V30 1125 C 113.166 3.74414 -2.31306 0
M  V30 1126 H 110.285 0.540062 -0.5015 0
M  V30 1127 H 112.927 0.830547 -1.70886 0
M  V30 1128 H 111.077 3.28457 -2.07481 0
M  V30 1129 H 112.749 1.82356 -4.23726 0
M  V30 1130 H 110.992 1.65088 -4.01159 0
M  V30 1131 H 111.663 3.21362 -4.4881 0
M  V30 1132 H 114.139 3.27849 -2.56231 0
M  V30 1133 H 113.015 4.58414 -3.01907 0
M  V30 1134 H 113.276 4.21909 -1.32081 0
M  V30 1135 N 112.336 1.25143 0.95797 0
M  V30 1136 C 113.583 1.09692 1.70217 0
M  V30 1137 C 113.911 -0.362654 1.91089 0
M  V30 1138 O 113.166 -1.28386 1.47701 0
M  V30 1139 C 113.465 1.79272 3.09187 0
M  V30 1140 C 113.131 3.29196 3.08125 0
M  V30 1141 C 111.793 3.70096 3.07543 0
M  V30 1142 C 114.145 4.24995 3.0171 0
M  V30 1143 C 111.473 5.05213 2.9829 0
M  V30 1144 C 113.825 5.60132 2.93999 0
M  V30 1145 C 112.489 6.00365 2.9175 0
M  V30 1146 H 111.759 0.401393 0.622868 0
M  V30 1147 H 114.406 1.55372 1.11945 0
M  V30 1148 H 112.711 1.26014 3.70982 0
M  V30 1149 H 114.408 1.64773 3.65583 0
M  V30 1150 H 110.998 2.96651 3.09348 0
M  V30 1151 H 115.182 3.9439 3.01281 0
M  V30 1152 H 110.438 5.35569 2.94916 0
M  V30 1153 H 114.612 6.3406 2.87996 0
M  V30 1154 H 112.239 7.05023 2.84336 0
M  V30 1155 N 113.814 -1.1601 1.06675 0
M  V30 1156 C 115.23 -1.38622 0.790948 0
M  V30 1157 C 115.43 -1.92109 -0.607965 0
M  V30 1158 O 114.486 -2.12239 -1.36787 0
M  V30 1159 C 115.799 -2.36347 1.85905 0
M  V30 1160 C 117.347 -2.50023 1.88301 0
M  V30 1161 C 117.822 -3.51033 2.94176 0
M  V30 1162 N 119.313 -3.58563 2.93235 0
M  V30 1163 C 120.048 -4.36521 3.71803 0
M  V30 1164 N 119.544 -5.17869 4.602 0
M  V30 1165 N 121.337 -4.31541 3.60178 0
M  V30 1166 H 113.488 -0.796294 1.96908 0
M  V30 1167 H 115.751 -0.412597 0.853503 0
M  V30 1168 H 115.457 -2.04147 2.86386 0
M  V30 1169 H 115.331 -3.36042 1.71334 0
M  V30 1170 H 117.718 -2.81524 0.884769 0
M  V30 1171 H 117.799 -1.5035 2.06951 0
M  V30 1172 H 117.443 -3.20268 3.94196 0
M  V30 1173 H 117.373 -4.50445 2.72776 0
M  V30 1174 H 119.864 -3.00496 2.29152 0
M  V30 1175 H 120.177 -5.74578 5.16797 0
M  V30 1176 H 118.522 -5.17199 4.64253 0
M  V30 1177 H 121.713 -3.67051 2.90502 0
M  V30 1178 H 121.886 -4.9205 4.21653 0
M  V30 1179 N 115.292 -0.849877 -1.32721 0
M  V30 1180 C 116.242 -0.262892 -2.26479 0
M  V30 1181 C 117.226 0.588493 -1.49752 0
M  V30 1182 O 118.418 0.438659 -1.71478 0
M  V30 1183 C 115.547 0.551818 -3.38836 0
M  V30 1184 C 114.633 -0.311689 -4.22953 0
M  V30 1185 N 115.024 -1.39567 -4.86163 0
M  V30 1186 C 113.322 -0.100611 -4.45887 0
M  V30 1187 C 114.023 -1.92651 -5.48872 0
M  V30 1188 N 112.999 -1.22637 -5.29586 0
M  V30 1189 H 116.801 -1.09166 -2.72873 0
M  V30 1190 H 114.315 -0.695486 -1.46754 0
M  V30 1191 H 116.312 0.988713 -4.05006 0
M  V30 1192 H 114.972 1.37844 -2.93988 0
M  V30 1193 H 115.983 -1.77859 -4.86402 0
M  V30 1194 H 112.66 0.691681 -4.11731 0
M  V30 1195 H 114.05 -2.83487 -6.09167 0
M  V30 1196 N 116.77 1.45427 -0.607355 0
M  V30 1197 C 117.733 2.28974 0.101693 0
M  V30 1198 C 118.733 1.39754 0.795329 0
M  V30 1199 O 119.923 1.61878 0.643527 0
M  V30 1200 C 117.055 3.20768 1.15414 0
M  V30 1201 H 118.248 2.93147 -0.632844 0
M  V30 1202 H 115.801 1.51945 -0.366391 0
M  V30 1203 H 116.536 2.61395 1.91945 0
M  V30 1204 H 116.321 3.86489 0.66098 0
M  V30 1205 H 117.811 3.83589 1.65073 0
M  V30 1206 N 118.248 0.346503 1.53744 0
M  V30 1207 C 119.488 -0.249413 2.02873 0
M  V30 1208 C 119.852 -1.47532 1.22876 0
M  V30 1209 O 121.053 -2.1456 1.61918 0
M  V30 1210 C 119.324 -0.552909 3.53097 0
M  V30 1211 S 120.883 -1.12521 4.24128 0
M  V30 1212 H 117.701 -0.074042 0.707134 0
M  V30 1213 H 120.303 0.48495 1.8939 0
M  V30 1214 H 119.007 0.347083 4.0893 0
M  V30 1215 H 118.538 -1.31686 3.70705 0
M  V30 1216 H 120.553 -2.41075 4.33702 0
M  V30 1217 N 119.726 -1.57421 0.075193 0
M  V30 1218 C 120.972 -1.93905 -0.594025 0
M  V30 1219 C 121.305 -0.955701 -1.69056 0
M  V30 1220 O 120.58 0.0145373 -1.94495 0
M  V30 1221 C 120.863 -3.40638 -1.1678 0
M  V30 1222 C 120.716 -4.49733 -0.0776792 0
M  V30 1223 C 122.035 -3.88259 -2.07228 0
M  V30 1224 H 119.154 -0.705105 -0.214466 0
M  V30 1225 H 121.796 -1.8947 0.141854 0
M  V30 1226 H 119.946 -3.44549 -1.79494 0
M  V30 1227 H 121.618 -4.57942 0.555573 0
M  V30 1228 H 119.861 -4.29751 0.591286 0
M  V30 1229 H 120.532 -5.49549 -0.519603 0
M  V30 1230 H 123.008 -3.86376 -1.54445 0
M  V30 1231 H 121.884 -4.91533 -2.44308 0
M  V30 1232 H 122.145 -3.26396 -2.98191 0
M  V30 1233 N 121.204 0.198386 -1.56346 0
M  V30 1234 C 122.615 0.763358 -1.70381 0
M  V30 1235 C 122.966 1.83995 -0.681203 0
M  V30 1236 O 122.091 2.15785 0.16305 0
M  V30 1237 C 122.686 1.39143 -3.08909 0
M  V30 1238 C 121.245 1.90352 -3.2472 0
M  V30 1239 C 120.392 0.772233 -2.6633 0
M  V30 1240 H 123.343 -0.0266377 -1.58678 0
M  V30 1241 H 123.364 2.26076 -3.06055 0
M  V30 1242 H 122.876 0.607638 -3.83314 0
M  V30 1243 H 120.977 2.71461 -2.55225 0
M  V30 1244 H 121.09 2.06757 -4.3219 0
M  V30 1245 H 119.454 1.18566 -2.2542 0
M  V30 1246 H 120.237 0.00073556 -3.433 0
M  V30 1247 N 122.682 1.50554 0.465978 0
M  V30 1248 C 123.928 1.62038 1.21949 0
M  V30 1249 C 124.261 0.322116 1.9151 0
M  V30 1250 O 123.536 -0.676723 1.82348 0
M  V30 1251 C 123.819 2.80421 2.25912 0
M  V30 1252 C 123.672 4.20144 1.60622 0
M  V30 1253 C 124.991 2.94354 3.27176 0
M  V30 1254 H 122.11 0.589752 0.441998 0
M  V30 1255 H 124.752 1.82956 0.51257 0
M  V30 1256 H 122.902 2.62717 2.86203 0
M  V30 1257 H 124.574 4.49449 1.03889 0
M  V30 1258 H 122.817 4.24165 0.909211 0
M  V30 1259 H 123.488 4.98914 2.36196 0
M  V30 1260 H 125.964 3.10578 2.76913 0
M  V30 1261 H 124.84 3.788 3.97242 0
M  V30 1262 H 125.101 2.05186 3.916 0
M  V30 1263 N 124.16 -0.719506 1.40217 0
M  V30 1264 C 125.437 -1.47221 1.28784 0
M  V30 1265 C 125.817 -2.10883 -0.0956067 0
M  V30 1266 O 125.165 -1.99833 -1.10811 0
M  V30 1267 C 125.375 -2.5111 2.42373 0
M  V30 1268 C 126.723 -3.17053 2.82423 0
M  V30 1269 O 127.747 -2.61429 2.41937 0
M  V30 1270 O 126.606 -4.17742 3.52355 0
M  V30 1271 H 123.7 -0.654491 0.50554 0
M  V30 1272 H 126.246 -0.752014 1.52128 0
M  V30 1273 H 125.018 -2.02556 3.34793 0
M  V30 1274 H 124.641 -3.3067 2.20778 0
M  V30 1275 N 125.638 -1.25649 -0.95132 0
M  V30 1276 C 126.885 -1.10594 -1.69633 0
M  V30 1277 C 127.213 0.352515 -1.91279 0
M  V30 1278 O 126.468 1.27601 -1.4838 0
M  V30 1279 C 126.767 -1.80909 -3.08231 0
M  V30 1280 C 126.433 -3.30825 -3.06375 0
M  V30 1281 C 125.095 -3.71722 -3.05576 0
M  V30 1282 C 127.447 -4.26589 -2.99452 0
M  V30 1283 C 124.775 -5.06788 -2.95606 0
M  V30 1284 C 127.127 -5.61683 -2.91024 0
M  V30 1285 C 125.791 -6.01904 -2.88562 0
M  V30 1286 H 125.061 -0.404691 -0.620731 0
M  V30 1287 H 127.708 -1.55964 -1.11119 0
M  V30 1288 H 126.013 -1.27979 -3.70309 0
M  V30 1289 H 127.71 -1.6671 -3.64704 0
M  V30 1290 H 124.3 -2.98287 -3.07771 0
M  V30 1291 H 128.484 -3.95982 -2.99185 0
M  V30 1292 H 123.74 -5.37126 -2.92071 0
M  V30 1293 H 127.914 -6.35578 -2.84629 0
M  V30 1294 H 125.541 -7.06521 -2.80593 0
M  V30 1295 N 127.117 1.15442 -1.07289 0
M  V30 1296 C 128.027 2.23786 -0.704057 0
M  V30 1297 C 129.043 1.7166 0.284413 0
M  V30 1298 O 130.219 2.00972 0.131205 0
M  V30 1299 C 127.284 3.46535 -0.106792 0
M  V30 1300 C 126.345 4.13654 -1.14842 0
M  V30 1301 C 125.578 5.30544 -0.57956 0
M  V30 1302 O 125.801 5.67187 0.604585 0
M  V30 1303 O 124.735 5.87154 -1.32414 0
M  V30 1304 H 128.561 2.57664 -1.60757 0
M  V30 1305 H 126.146 1.23152 -0.845803 0
M  V30 1306 H 128.028 4.20804 0.224048 0
M  V30 1307 H 126.703 3.14407 0.770049 0
M  V30 1308 H 125.61 3.4131 -1.5316 0
M  V30 1309 H 126.943 4.49861 -1.99714 0
M  V30 1310 N 128.595 0.856903 1.32268 0
M  V30 1311 C 129.505 0.306131 2.32594 0
M  V30 1312 C 130.521 -0.577209 1.64147 0
M  V30 1313 O 131.697 -0.477043 1.95669 0
M  V30 1314 C 128.762 -0.494561 3.43154 0
M  V30 1315 C 127.823 0.415186 4.27288 0
M  V30 1316 C 127.056 -0.347387 5.32568 0
M  V30 1317 O 127.279 -1.57708 5.48165 0
M  V30 1318 O 126.213 0.287982 6.01211 0
M  V30 1319 H 130.039 1.13737 2.81598 0
M  V30 1320 H 127.624 0.619902 1.35932 0
M  V30 1321 H 129.506 -0.948944 4.10576 0
M  V30 1322 H 128.181 -1.30257 2.96336 0
M  V30 1323 H 127.088 0.917793 3.62667 0
M  V30 1324 H 128.421 1.18844 4.77637 0
M  V30 1325 N 130.073 -1.45103 0.615059 0
M  V30 1326 C 131.319 -2.02483 0.113347 0
M  V30 1327 C 131.652 -1.48146 -1.25564 0
M  V30 1328 O 130.927 -0.659104 -1.82992 0
M  V30 1329 C 131.21 -3.60005 0.0825278 0
M  V30 1330 C 131.063 -4.2466 1.48271 0
M  V30 1331 C 132.382 -4.35972 -0.601401 0
M  V30 1332 H 129.501 -0.735764 0.0426632 0
M  V30 1333 H 132.143 -1.72868 0.788461 0
M  V30 1334 H 130.293 -3.85367 -0.492378 0
M  V30 1335 H 131.965 -4.10458 2.10527 0
M  V30 1336 H 130.208 -3.82772 2.04127 0
M  V30 1337 H 130.879 -5.336 1.41332 0
M  V30 1338 H 133.355 -4.15947 -0.112666 0
M  V30 1339 H 132.231 -5.45697 -0.592097 0
M  V30 1340 H 132.492 -4.09391 -1.66887 0
M  V30 1341 N 131.551 -0.354651 -1.53558 0
M  V30 1342 C 132.501 0.513179 -2.2215 0
M  V30 1343 C 133.485 1.05734 -1.21281 0
M  V30 1344 O 134.677 0.989202 -1.46778 0
M  V30 1345 C 131.806 1.65798 -3.00609 0
M  V30 1346 C 130.892 1.12722 -4.08845 0
M  V30 1347 N 131.283 0.318563 -5.04796 0
M  V30 1348 C 129.581 1.40307 -4.23356 0
M  V30 1349 C 130.282 0.0292224 -5.81693 0
M  V30 1350 N 129.258 0.623891 -5.40008 0
M  V30 1351 H 133.06 -0.111586 -2.93688 0
M  V30 1352 H 130.574 -0.162091 -1.61589 0
M  V30 1353 H 132.571 2.29176 -3.48258 0
M  V30 1354 H 131.231 2.28591 -2.306 0
M  V30 1355 H 132.242 -0.0413091 -5.17884 0
M  V30 1356 H 128.919 2.03458 -3.6457 0
M  V30 1357 H 130.309 -0.623808 -6.68998 0
M  V30 1358 N 133.029 1.57378 -0.0835403 0
M  V30 1359 C 134.275 1.94217 0.583733 0
M  V30 1360 C 134.608 0.964653 1.68547 0
M  V30 1361 O 133.883 -0.00422258 1.945 0
M  V30 1362 C 134.166 3.41253 1.14972 0
M  V30 1363 C 134.019 4.49768 0.0538277 0
M  V30 1364 C 135.338 3.89352 2.05166 0
M  V30 1365 H 132.457 0.706233 0.210724 0
M  V30 1366 H 135.099 1.89392 -0.1519 0
M  V30 1367 H 133.249 3.45496 1.77665 0
M  V30 1368 H 134.921 4.57641 -0.579851 0
M  V30 1369 H 133.164 4.29432 -0.614068 0
M  V30 1370 H 133.835 5.49817 0.490452 0
M  V30 1371 H 136.311 3.87189 1.52393 0
M  V30 1372 H 135.187 4.92822 2.41698 0
M  V30 1373 H 135.448 3.27973 2.96456 0
M  V30 1374 N 134.507 -0.190092 1.56449 0
M  V30 1375 C 135.732 -0.929864 1.85387 0
M  V30 1376 C 136.157 -1.7585 0.667704 0
M  V30 1377 O 135.515 -1.77198 -0.383459 0
M  V30 1378 C 135.563 -1.79773 3.12593 0
M  V30 1379 O 134.667 -2.89713 2.93496 0
M  V30 1380 H 134.008 -0.261574 0.610307 0
M  V30 1381 H 136.538 -0.193896 2.03679 0
M  V30 1382 H 136.548 -2.20139 3.43515 0
M  V30 1383 H 135.223 -1.18892 3.98544 0
M  V30 1384 H 133.8 -2.53065 2.73884 0
M  V30 1385 N 135.985 -1.50799 -0.457987 0
M  V30 1386 C 137.21 -1.66496 -1.23668 0
M  V30 1387 C 137.635 -0.353288 -1.84752 0
M  V30 1388 O 136.993 0.684346 -1.67888 0
M  V30 1389 C 137.041 -2.76763 -2.3116 0
M  V30 1390 O 136.145 -2.38928 -3.36136 0
M  V30 1391 H 135.486 -0.555828 -0.363252 0
M  V30 1392 H 138.016 -1.9725 -0.543474 0
M  V30 1393 H 138.026 -3.00232 -2.76269 0
M  V30 1394 H 136.701 -3.71954 -1.86073 0
M  V30 1395 H 135.278 -2.25953 -2.96647 0
M  V30 1396 N 137.463 0.71206 -1.40597 0
M  V30 1397 C 138.411 1.84746 -1.41321 0
M  V30 1398 C 139.405 1.66842 -0.293268 0
M  V30 1399 O 140.611 1.73904 -0.464481 0
M  V30 1400 H 136.986 0.608522 -0.441819 0
M  V30 1401 H 138.957 1.81252 -2.37045 0
M  V30 1402 C 137.706 3.22638 -1.29614 0
M  V30 1403 H 137.029 3.37023 -2.15071 0
M  V30 1404 H 138.469 4.02209 -1.3418 0
M  V30 1405 C 136.928 3.36899 -0.00673121 0
M  V30 1406 O 137.458 3.90186 0.954859 0
M  V30 1407 N 135.664 2.9053 0.0639327 0
M  V30 1408 H 135.211 2.47353 -0.719311 0
M  V30 1409 H 135.169 3.0045 0.926118 0
M  V30 1410 N 138.941 1.26152 0.944643 0
M  V30 1411 C 139.904 1.07474 2.0244 0
M  V30 1412 C 140.904 0.0242064 1.60782 0
M  V30 1413 O 142.094 0.267302 1.72137 0
M  V30 1414 C 139.226 0.633956 3.34953 0
M  V30 1415 H 140.419 2.03336 2.20442 0
M  V30 1416 H 137.972 1.087 1.12312 0
M  V30 1417 H 138.707 -0.326811 3.22649 0
M  V30 1418 H 138.492 1.39247 3.66542 0
M  V30 1419 H 139.982 0.52501 4.14287 0
M  V30 1420 N 140.419 -1.14872 1.07899 0
M  V30 1421 C 141.696 -1.81928 0.71845 0
M  V30 1422 C 142.076 -1.95417 -0.798455 0
M  V30 1423 O 141.424 -1.50997 -1.715 0
M  V30 1424 C 141.634 -3.17937 1.43935 0
M  V30 1425 C 142.982 -3.93501 1.59506 0
M  V30 1426 O 144.006 -3.27509 1.40058 0
M  V30 1427 O 142.865 -5.1183 1.91551 0
M  V30 1428 H 139.959 -0.78628 0.256305 0
M  V30 1429 H 142.505 -1.21934 1.18026 0
M  V30 1430 H 141.277 -3.0325 2.47295 0
M  V30 1431 H 140.9 -3.85619 0.968687 0
M  V30 1432 N 141.898 -0.863906 -1.31812 0
M  V30 1433 C 142.808 -0.318461 -2.32428 0
M  V30 1434 C 143.824 0.568496 -1.64451 0
M  V30 1435 O 145 0.46666 -1.95919 0
M  V30 1436 C 142.065 0.476355 -3.43412 0
M  V30 1437 C 141.126 -0.43784 -4.27061 0
M  V30 1438 C 140.359 0.319138 -5.32745 0
M  V30 1439 O 140.582 1.54799 -5.48993 0
M  V30 1440 O 139.516 -0.319861 -6.01049 0
M  V30 1441 H 143.342 -1.15229 -2.80991 0
M  V30 1442 H 140.927 -0.627103 -1.35602 0
M  V30 1443 H 142.809 0.927156 -4.11074 0
M  V30 1444 H 141.484 1.28683 -2.97022 0
M  V30 1445 H 140.391 -0.937013 -3.62175 0
M  V30 1446 H 141.724 -1.21375 -4.77 0
M  V30 1447 N 143.376 1.44774 -0.622745 0
M  V30 1448 C 144.286 2.34433 0.0886031 0
M  V30 1449 C 145.302 1.52131 0.844529 0
M  V30 1450 O 146.478 1.84886 0.798691 0
M  V30 1451 C 143.543 3.29986 1.0635 0
M  V30 1452 C 142.604 4.28195 0.307873 0
M  V30 1453 C 141.837 5.19183 1.23633 0
M  V30 1454 O 142.06 5.13918 2.47476 0
M  V30 1455 O 140.994 5.97515 0.725189 0
M  V30 1456 H 144.82 2.96693 -0.648599 0
M  V30 1457 H 142.405 1.44408 -0.382957 0
M  V30 1458 H 144.287 3.88825 1.6246 0
M  V30 1459 H 142.962 2.70269 1.78146 0
M  V30 1460 H 141.869 3.72927 -0.296064 0
M  V30 1461 H 143.202 4.90808 -0.3699 0
M  V30 1462 N 144.854 0.36279 1.53368 0
M  V30 1463 C 146.131 -0.284021 1.93527 0
M  V30 1464 C 146.511 -1.66628 1.29608 0
M  V30 1465 O 145.859 -2.23942 0.45413 0
M  V30 1466 C 146.069 -0.337028 3.47369 0
M  V30 1467 C 147.417 -0.578708 4.20638 0
M  V30 1468 O 148.441 -0.418352 3.53735 0
M  V30 1469 O 147.3 -0.89074 5.39192 0
M  V30 1470 H 144.394 -0.169743 0.809393 0
M  V30 1471 H 146.94 0.41537 1.64538 0
M  V30 1472 H 145.712 0.632217 3.86159 0
M  V30 1473 H 145.335 -1.08243 3.82582 0
M  V30 1474 N 146.332 -1.57332 0.0918853 0
M  V30 1475 C 147.581 -1.93412 -0.572249 0
M  V30 1476 C 147.894 -0.975515 -1.69538 0
M  V30 1477 O 149.1 -1.22991 -2.42045 0
M  V30 1478 C 147.556 -3.43648 -1.0693 0
M  V30 1479 C 147.164 -4.47994 0.0239049 0
M  V30 1480 C 148.908 -3.88695 -1.70635 0
M  V30 1481 C 146.815 -5.89381 -0.488319 0
M  V30 1482 H 145.745 -0.721939 -0.217532 0
M  V30 1483 H 148.396 -1.82735 0.167369 0
M  V30 1484 H 146.778 -3.49466 -1.8625 0
M  V30 1485 H 147.952 -4.53815 0.799277 0
M  V30 1486 H 146.267 -4.12536 0.565946 0
M  V30 1487 H 148.864 -4.91725 -2.10025 0
M  V30 1488 H 149.207 -3.27166 -2.57426 0
M  V30 1489 H 149.74 -3.85564 -0.979023 0
M  V30 1490 H 146.479 -6.54602 0.342906 0
M  V30 1491 H 145.999 -5.87037 -1.23077 0
M  V30 1492 H 147.678 -6.39863 -0.958317 0
M  V30 1493 N 147.81 0.181792 -1.56548 0
M  V30 1494 C 149.226 0.53316 -1.50431 0
M  V30 1495 C 149.426 1.85184 -0.794297 0
M  V30 1496 O 148.482 2.50058 -0.350318 0
M  V30 1497 C 149.795 0.575597 -2.9514 0
M  V30 1498 C 151.343 0.663519 -3.05886 0
M  V30 1499 C 151.818 0.736946 -4.52032 0
M  V30 1500 N 153.309 0.800118 -4.56237 0
M  V30 1501 C 154.044 0.877327 -5.66649 0
M  V30 1502 N 153.54 0.916016 -6.86718 0
M  V30 1503 N 155.333 0.915542 -5.54594 0
M  V30 1504 H 147.484 -0.683025 -2.01118 0
M  V30 1505 H 149.747 -0.244988 -0.915797 0
M  V30 1506 H 149.453 -0.324482 -3.502 0
M  V30 1507 H 149.327 1.42572 -3.49218 0
M  V30 1508 H 151.714 1.55403 -2.50867 0
M  V30 1509 H 151.795 -0.21307 -2.54911 0
M  V30 1510 H 151.439 -0.149262 -5.07681 0
M  V30 1511 H 151.369 1.62953 -5.00753 0
M  V30 1512 H 153.86 0.778926 -3.69785 0
M  V30 1513 H 154.173 0.975813 -7.66614 0
M  V30 1514 H 152.518 0.884469 -6.89349 0
M  V30 1515 H 155.709 0.882245 -4.59711 0
M  V30 1516 H 155.882 0.972253 -6.40665 0
M  V30 1517 N 149.288 1.51039 0.449983 0
M  V30 1518 C 150.236 1.71995 1.5659 0
M  V30 1519 C 151.23 0.586029 1.5894 0
M  V30 1520 O 152.436 0.76709 1.62837 0
M  V30 1521 H 148.811 0.543233 0.520001 0
M  V30 1522 H 150.782 2.65562 1.36085 0
M  V30 1523 C 149.531 1.8506 2.9436 0
M  V30 1524 H 148.854 2.71712 2.93279 0
M  V30 1525 H 150.294 2.0374 3.71842 0
M  V30 1526 C 148.753 0.607277 3.31382 0
M  V30 1527 O 149.283 -0.243903 4.00959 0
M  V30 1528 N 147.489 0.455073 2.87015 0
M  V30 1529 H 147.036 1.14879 2.30566 0
M  V30 1530 H 146.994 -0.375611 3.12148 0
M  V30 1531 N 150.766 -0.704594 1.40972 0
M  V30 1532 C 151.729 -1.80035 1.41845 0
M  V30 1533 C 152.729 -1.57774 0.310474 0
M  V30 1534 O 153.919 -1.64613 0.56992 0
M  V30 1535 C 151.051 -3.18284 1.22098 0
M  V30 1536 H 152.244 -1.80658 2.3938 0
M  V30 1537 H 149.797 -0.911329 1.26982 0
M  V30 1538 H 150.532 -3.23306 0.253672 0
M  V30 1539 H 150.317 -3.35843 2.02366 0
M  V30 1540 H 151.807 -3.98289 1.25522 0
M  V30 1541 N 152.244 -1.26651 -0.937939 0
M  V30 1542 C 153.493 -1.11775 -1.67897 0
M  V30 1543 C 153.806 0.33794 -1.92659 0
M  V30 1544 O 155.012 0.607434 -2.64618 0
M  V30 1545 C 153.468 -1.9523 -3.02346 0
M  V30 1546 C 153.076 -3.45393 -2.8532 0
M  V30 1547 C 154.82 -1.88972 -3.80118 0
M  V30 1548 C 152.727 -4.21083 -4.15263 0
M  V30 1549 H 151.657 -0.414696 -0.629717 0
M  V30 1550 H 154.308 -1.50988 -1.04283 0
M  V30 1551 H 152.69 -1.48853 -3.66959 0
M  V30 1552 H 153.864 -3.99561 -2.29537 0
M  V30 1553 H 152.179 -3.52921 -2.20988 0
M  V30 1554 H 154.776 -2.42805 -4.76392 0
M  V30 1555 H 155.119 -0.86113 -4.07296 0
M  V30 1556 H 155.652 -2.33189 -3.22285 0
M  V30 1557 H 152.391 -5.24425 -3.93267 0
M  V30 1558 H 151.911 -3.71695 -4.70747 0
M  V30 1559 H 153.59 -4.29706 -4.83696 0
M  V30 1560 N 153.722 1.14298 -1.08507 0
M  V30 1561 C 154.655 2.18447 -0.660004 0
M  V30 1562 C 155.633 1.59242 0.328749 0
M  V30 1563 O 156.817 1.87062 0.232367 0
M  V30 1564 C 153.944 3.38688 0.0290807 0
M  V30 1565 C 152.99 4.1646 -0.919982 0
M  V30 1566 S 153.823 4.77334 -2.42718 0
M  V30 1567 C 154.979 6.00931 -1.75024 0
M  V30 1568 H 155.212 2.54166 -1.54231 0
M  V30 1569 H 152.745 1.25446 -0.900149 0
M  V30 1570 H 154.703 4.08342 0.420378 0
M  V30 1571 H 153.364 3.01289 0.887895 0
M  V30 1572 H 152.557 5.02529 -0.384751 0
M  V30 1573 H 152.159 3.52414 -1.25223 0
M  V30 1574 H 154.451 6.69017 -1.06877 0
M  V30 1575 H 155.394 6.59044 -2.58971 0
M  V30 1576 H 155.802 5.51089 -1.22317 0
M  V30 1577 N 155.201 0.870884 1.31352 0
M  V30 1578 C 156.164 0.332243 2.26779 0
M  V30 1579 C 157.164 -0.517302 1.52252 0
M  V30 1580 O 158.354 -0.326477 1.71113 0
M  V30 1581 C 155.486 -0.528066 3.36785 0
M  V30 1582 H 156.679 1.17469 2.75937 0
M  V30 1583 H 154.232 0.64655 1.423 0
M  V30 1584 H 154.967 -1.39167 2.92922 0
M  V30 1585 H 154.752 0.0802582 3.92018 0
M  V30 1586 H 156.242 -0.897179 4.07849 0
M  V30 1587 N 156.679 -1.44442 0.630414 0
M  V30 1588 C 157.928 -2.01267 0.132073 0
M  V30 1589 C 158.241 -1.50172 -1.25331 0
M  V30 1590 O 159.447 -1.9912 -1.84562 0
M  V30 1591 C 157.903 -3.59422 0.185362 0
M  V30 1592 C 157.511 -4.19514 1.57201 0
M  V30 1593 C 159.255 -4.23724 -0.256553 0
M  V30 1594 C 157.162 -5.69891 1.58045 0
M  V30 1595 H 156.092 -0.752619 0.0456092 0
M  V30 1596 H 158.743 -1.65666 0.789106 0
M  V30 1597 H 157.125 -3.92318 -0.538759 0
M  V30 1598 H 158.299 -3.98156 2.31966 0
M  V30 1599 H 156.614 -3.67496 1.95795 0
M  V30 1600 H 159.211 -5.34019 -0.269767 0
M  V30 1601 H 159.554 -3.96013 -1.28372 0
M  V30 1602 H 160.087 -3.95629 0.41505 0
M  V30 1603 H 156.826 -6.02336 2.58597 0
M  V30 1604 H 156.346 -5.93373 0.875725 0
M  V30 1605 H 158.025 -6.33515 1.31408 0
M  V30 1606 N 158.157 -0.370918 -1.53173 0
M  V30 1607 C 159.573 -0.0200818 -1.59587 0
M  V30 1608 C 159.773 1.46279 -1.38581 0
M  V30 1609 O 158.829 2.22506 -1.19363 0
M  V30 1610 C 160.142 -0.4808 -2.96831 0
M  V30 1611 C 161.69 -0.435477 -3.09956 0
M  V30 1612 C 162.165 -0.872092 -4.4962 0
M  V30 1613 N 163.656 -0.827364 -4.55751 0
M  V30 1614 C 164.391 -1.13683 -5.62018 0
M  V30 1615 N 163.887 -1.51584 -6.76014 0
M  V30 1616 N 165.68 -1.05927 -5.52029 0
M  V30 1617 H 157.831 -1.33652 -1.65079 0
M  V30 1618 H 160.094 -0.546634 -0.774529 0
M  V30 1619 H 159.8 -1.51577 -3.1736 0
M  V30 1620 H 159.674 0.129796 -3.76977 0
M  V30 1621 H 162.061 0.590371 -2.89134 0
M  V30 1622 H 162.142 -1.08164 -2.31806 0
M  V30 1623 H 161.786 -1.89608 -4.71181 0
M  V30 1624 H 161.716 -0.203127 -5.26208 0
M  V30 1625 H 164.207 -0.548216 -3.73902 0
M  V30 1626 H 164.52 -1.73609 -7.53047 0
M  V30 1627 H 162.865 -1.55454 -6.77391 0
M  V30 1628 H 166.056 -0.762321 -4.61851 0
M  V30 1629 H 166.229 -1.30378 -6.34749 0
M  V30 1630 N 159.635 1.57281 -0.100228 0
M  V30 1631 C 161.051 1.57527 0.256416 0
M  V30 1632 C 161.251 1.11173 1.68056 0
M  V30 1633 O 160.307 0.79053 2.39806 0
M  V30 1634 C 161.62 3.00673 0.0401747 0
M  V30 1635 C 163.168 3.12815 0.107528 0
M  V30 1636 C 163.643 4.57929 -0.0807834 0
M  V30 1637 N 165.134 4.63193 -0.0261207 0
M  V30 1638 C 165.869 5.73212 -0.146999 0
M  V30 1639 N 165.365 6.92047 -0.322999 0
M  V30 1640 N 167.158 5.62031 -0.0879044 0
M  V30 1641 H 159.309 1.85718 -1.03065 0
M  V30 1642 H 161.572 0.857446 -0.404339 0
M  V30 1643 H 161.278 3.38804 -0.943649 0
M  V30 1644 H 161.152 3.69042 0.780262 0
M  V30 1645 H 163.539 2.74554 1.08186 0
M  V30 1646 H 163.62 2.47028 -0.664134 0
M  V30 1647 H 163.264 4.96886 -1.05201 0
M  V30 1648 H 163.194 5.21783 0.710635 0
M  V30 1649 H 165.685 3.77748 0.107161 0
M  V30 1650 H 165.998 7.7173 -0.406608 0
M  V30 1651 H 164.343 6.94074 -0.358733 0
M  V30 1652 H 167.534 4.68075 0.048498 0
M  V30 1653 H 167.707 6.47734 -0.185557 0
M  V30 1654 N 161.113 -0.173488 1.56642 0
M  V30 1655 C 162.061 -1.23417 1.97157 0
M  V30 1656 C 163.055 -1.45946 0.860013 0
M  V30 1657 O 164.261 -1.46551 1.04512 0
M  V30 1658 H 160.636 -0.414818 0.62724 0
M  V30 1659 H 162.607 -0.865582 2.8557 0
M  V30 1660 C 161.356 -2.5665 2.34576 0
M  V30 1661 H 160.679 -2.40137 3.19647 0
M  V30 1662 H 162.119 -3.2956 2.6677 0
M  V30 1663 C 160.578 -3.15245 1.18836 0
M  V30 1664 O 161.108 -3.98883 0.474869 0
M  V30 1665 N 159.314 -2.74303 0.959497 0
M  V30 1666 H 158.861 -2.0639 1.54146 0
M  V30 1667 H 158.819 -3.13844 0.186932 0
M  V30 1668 N 162.591 -1.51276 -0.441967 0
M  V30 1669 C 164.007 -1.39349 -0.778083 0
M  V30 1670 C 164.207 -0.472212 -1.95889 0
M  V30 1671 O 163.263 0.0743551 -2.5239 0
M  V30 1672 C 164.576 -2.81292 -1.0628 0
M  V30 1673 C 166.124 -2.9041 -1.16751 0
M  V30 1674 C 166.599 -4.33251 -1.48519 0
M  V30 1675 N 168.09 -4.36336 -1.55453 0
M  V30 1676 C 168.825 -5.43885 -1.81596 0
M  V30 1677 N 168.321 -6.61601 -2.05562 0
M  V30 1678 N 170.114 -5.3136 -1.8334 0
M  V30 1679 H 162.265 -2.09729 0.335774 0
M  V30 1680 H 164.528 -0.943925 0.0878028 0
M  V30 1681 H 164.234 -3.50678 -0.267905 0
M  V30 1682 H 164.108 -3.20334 -1.99163 0
M  V30 1683 H 166.495 -2.21225 -1.95304 0
M  V30 1684 H 166.576 -2.54871 -0.217801 0
M  V30 1685 H 166.22 -5.02984 -0.704958 0
M  V30 1686 H 166.15 -4.66299 -2.44689 0
M  V30 1687 H 168.641 -3.51466 -1.38853 0
M  V30 1688 H 168.954 -7.39361 -2.24867 0
M  V30 1689 H 167.299 -6.64725 -2.02894 0
M  V30 1690 H 170.49 -4.38382 -1.64132 0
M  V30 1691 H 170.663 -6.15258 -2.03377 0
M  V30 1692 N 164.069 0.697108 -1.41344 0
M  V30 1693 C 165.315 1.4593 -1.40827 0
M  V30 1694 C 165.648 1.94193 -0.0167098 0
M  V30 1695 O 164.923 1.69425 0.955263 0
M  V30 1696 C 165.206 2.67229 -2.41373 0
M  V30 1697 C 165.059 2.24741 -3.8963 0
M  V30 1698 C 166.378 3.69423 -2.39196 0
M  V30 1699 H 163.497 0.529303 -0.512842 0
M  V30 1700 H 166.139 0.794112 -1.72609 0
M  V30 1701 H 164.289 3.23982 -2.14401 0
M  V30 1702 H 165.961 1.73327 -4.27499 0
M  V30 1703 H 164.204 1.56542 -4.0457 0
M  V30 1704 H 164.875 3.1177 -4.55525 0
M  V30 1705 H 167.351 3.2234 -2.63128 0
M  V30 1706 H 166.227 4.51907 -3.11563 0
M  V30 1707 H 166.488 4.19012 -1.41001 0
M  V30 1708 N 165.547 1.27147 0.931209 0
M  V30 1709 C 166.51 1.09615 2.01289 0
M  V30 1710 C 167.51 0.0412581 1.60747 0
M  V30 1711 O 168.7 0.285545 1.71844 0
M  V30 1712 C 165.832 0.669447 3.34262 0
M  V30 1713 H 167.025 2.05662 2.18273 0
M  V30 1714 H 164.578 1.09885 1.11153 0
M  V30 1715 H 165.313 -0.292572 3.22978 0
M  V30 1716 H 165.098 1.43127 3.65044 0
M  V30 1717 H 166.588 0.568921 4.13706 0
M  V30 1718 N 167.025 -1.13721 1.09112 0
M  V30 1719 C 167.955 -2.21148 0.749385 0
M  V30 1720 C 168.936 -1.6792 -0.271475 0
M  V30 1721 O 170.121 -1.93693 -0.140251 0
M  V30 1722 C 167.251 -3.46905 0.165659 0
M  V30 1723 C 166.205 -4.13203 1.11567 0
M  V30 1724 C 165.531 -5.33248 0.393809 0
M  V30 1725 C 166.831 -4.60912 2.45678 0
M  V30 1726 H 168.525 -2.4999 1.64758 0
M  V30 1727 H 166.071 -1.20156 0.793626 0
M  V30 1728 H 168.024 -4.21313 -0.085466 0
M  V30 1729 H 166.748 -3.17449 -0.767714 0
M  V30 1730 H 165.407 -3.40758 1.35202 0
M  V30 1731 H 165.055 -5.00054 -0.543599 0
M  V30 1732 H 164.755 -5.78552 1.02721 0
M  V30 1733 H 166.279 -6.10413 0.150908 0
M  V30 1734 H 167.693 -5.26759 2.26269 0
M  V30 1735 H 166.09 -5.16944 3.04776 0
M  V30 1736 H 167.16 -3.75603 3.06677 0
M  V30 1737 N 168.503 -0.877838 -1.30888 0
M  V30 1738 C 169.45 -0.337538 -2.28318 0
M  V30 1739 C 170.42 0.568346 -1.56074 0
M  V30 1740 O 171.605 0.498298 -1.84178 0
M  V30 1741 C 168.745 0.448142 -3.42178 0
M  V30 1742 C 167.858 -0.48615 -4.29256 0
M  V30 1743 C 166.993 0.314427 -5.30269 0
M  V30 1744 C 166.032 -0.615791 -6.08995 0
M  V30 1745 N 165.169 0.14902 -7.01942 0
M  V30 1746 H 170.009 -1.17356 -2.73919 0
M  V30 1747 H 167.546 -0.590094 -1.34745 0
M  V30 1748 H 169.504 0.919517 -4.06941 0
M  V30 1749 H 168.134 1.24879 -2.97666 0
M  V30 1750 H 167.186 -1.076 -3.64865 0
M  V30 1751 H 168.498 -1.19909 -4.84173 0
M  V30 1752 H 167.652 0.847969 -6.00745 0
M  V30 1753 H 166.391 1.06062 -4.76027 0
M  V30 1754 H 165.396 -1.16102 -5.37401 0
M  V30 1755 H 166.621 -1.36097 -6.65323 0
M  V30 1756 H 164.567 0.877884 -6.50099 0
M  V30 1757 H 164.484 -0.504433 -7.54315 0
M  V30 1758 H 165.752 0.663537 -7.76671 0
M  V30 1759 N 169.982 1.44106 -0.638065 0
M  V30 1760 C 171.23 2.01579 -0.145043 0
M  V30 1761 C 171.551 1.50496 1.24 0
M  V30 1762 O 170.821 0.711374 1.82527 0
M  V30 1763 H 169.401 0.745282 -0.05063 0
M  V30 1764 H 172.063 1.76516 -0.826327 0
M  V30 1765 H 171.159 3.11877 -0.118039 0
M  V30 1766 N 171.46 0.379036 1.52974 0
M  V30 1767 C 172.408 -0.476033 2.27677 0
M  V30 1768 C 173.402 -1.0719 1.31174 0
M  V30 1769 O 174.608 -1.01355 1.48752 0
M  V30 1770 H 170.983 -0.172255 0.732006 0
M  V30 1771 H 172.954 0.175615 2.97883 0
M  V30 1772 C 171.703 -1.5967 3.0887 0
M  V30 1773 H 171.026 -1.1475 3.82978 0
M  V30 1774 H 172.466 -2.16943 3.64296 0
M  V30 1775 C 170.925 -2.54682 2.20542 0
M  V30 1776 O 171.455 -3.57836 1.82527 0
M  V30 1777 N 169.661 -2.24183 1.84907 0
M  V30 1778 H 169.208 -1.40333 2.1602 0
M  V30 1779 H 169.166 -2.88006 1.26096 0
M  V30 1780 N 172.938 -1.57226 0.108567 0
M  V30 1781 C 174.187 -1.94008 -0.551703 0
M  V30 1782 C 174.5 -0.993442 -1.68494 0
M  V30 1783 O 175.706 -1.25551 -2.40726 0
M  V30 1784 C 174.162 -3.44763 -1.03279 0
M  V30 1785 C 173.77 -4.47943 0.0714193 0
M  V30 1786 C 175.514 -3.90483 -1.66503 0
M  V30 1787 C 173.421 -5.89865 -0.425779 0
M  V30 1788 H 172.351 -0.724206 -0.209863 0
M  V30 1789 H 175.002 -1.82547 0.186741 0
M  V30 1790 H 173.384 -3.51422 -1.82533 0
M  V30 1791 H 174.558 -4.52942 0.847365 0
M  V30 1792 H 172.873 -4.11913 0.609669 0
M  V30 1793 H 175.47 -4.93925 -2.04798 0
M  V30 1794 H 175.813 -3.29877 -2.53942 0
M  V30 1795 H 176.346 -3.86581 -0.938074 0
M  V30 1796 H 173.085 -6.54202 0.412316 0
M  V30 1797 H 172.605 -5.88309 -1.16843 0
M  V30 1798 H 174.284 -6.40844 -0.890397 0
M  V30 1799 N 174.416 0.165178 -1.56732 0
M  V30 1800 C 175.326 1.22423 -2.00125 0
M  V30 1801 C 176.342 1.48084 -0.913619 0
M  V30 1802 O 177.518 1.60112 -1.22172 0
M  V30 1803 C 174.583 2.54197 -2.35764 0
M  V30 1804 C 173.644 2.36343 -3.58386 0
M  V30 1805 C 172.877 3.61834 -3.92316 0
M  V30 1806 O 173.1 4.67267 -3.27135 0
M  V30 1807 O 172.034 3.55579 -4.85641 0
M  V30 1808 H 175.86 0.885886 -2.90492 0
M  V30 1809 H 173.445 0.372518 -1.44681 0
M  V30 1810 H 175.327 3.3192 -2.59629 0
M  V30 1811 H 174.002 2.87598 -1.48557 0
M  V30 1812 H 172.909 1.56632 -3.39731 0
M  V30 1813 H 174.242 2.07865 -4.46154 0
M  V30 1814 N 175.894 1.51508 0.433938 0
M  V30 1815 C 177.122 1.68157 1.20543 0
M  V30 1816 C 177.537 0.380362 1.84929 0
M  V30 1817 O 176.894 -0.641446 1.70856 0
M  V30 1818 C 176.945 2.79965 2.28696 0
M  V30 1819 O 176.666 4.05045 1.66943 0
M  V30 1820 C 178.167 3.07912 3.18912 0
M  V30 1821 H 175.387 0.56421 0.363191 0
M  V30 1822 H 177.931 1.97941 0.513754 0
M  V30 1823 H 176.086 2.5277 2.93574 0
M  V30 1824 H 176.5 4.67165 2.38448 0
M  V30 1825 H 177.974 3.89719 3.90926 0
M  V30 1826 H 178.451 2.20456 3.79863 0
M  V30 1827 H 179.057 3.36779 2.59731 0
M  V30 1828 N 177.372 -0.689602 1.41712 0
M  V30 1829 C 178.32 -1.82475 1.44242 0
M  V30 1830 C 179.314 -1.66354 0.319774 0
M  V30 1831 O 180.52 -1.73143 0.492089 0
M  V30 1832 H 176.895 -0.601416 0.451445 0
M  V30 1833 H 178.866 -1.77458 2.39899 0
M  V30 1834 C 177.615 -3.20535 1.3473 0
M  V30 1835 H 176.938 -3.33559 2.20405 0
M  V30 1836 H 178.378 -4.00023 1.40562 0
M  V30 1837 C 176.837 -3.36846 0.0603281 0
M  V30 1838 O 177.367 -3.91656 -0.892663 0
M  V30 1839 N 175.573 -2.90595 -0.0177039 0
M  V30 1840 H 175.12 -2.46178 0.758572 0
M  V30 1841 H 175.078 -3.01886 -0.878201 0
M  V30 1842 N 178.85 -1.27639 -0.924453 0
M  V30 1843 C 179.8 -1.07295 -2.01176 0
M  V30 1844 C 180.784 5.77352e-05 -1.609 0
M  V30 1845 O 181.976 -0.218855 -1.75642 0
M  V30 1846 C 179.105 -0.725592 -3.35544 0
M  V30 1847 C 178.191 -1.83691 -3.82254 0
M  V30 1848 N 178.582 -3.07697 -4.01443 0
M  V30 1849 C 176.88 -1.72433 -4.11319 0
M  V30 1850 C 177.581 -3.80037 -4.40394 0
M  V30 1851 N 176.557 -3.0782 -4.48049 0
M  V30 1852 H 180.359 -2.01399 -2.14046 0
M  V30 1853 H 177.873 -1.18401 -1.11153 0
M  V30 1854 H 179.87 -0.560959 -4.13109 0
M  V30 1855 H 178.53 0.207782 -3.24034 0
M  V30 1856 H 179.541 -3.43424 -3.8766 0
M  V30 1857 H 176.218 -0.862005 -4.08504 0
M  V30 1858 H 177.608 -4.86632 -4.63291 0
M  V30 1859 N 180.328 1.1314 -1.09713 0
M  V30 1860 C 181.276 2.20717 -0.733934 0
M  V30 1861 C 182.27 1.6729 0.266506 0
M  V30 1862 O 183.476 1.79547 0.127656 0
M  V30 1863 H 179.851 0.719292 -0.21937 0
M  V30 1864 H 181.822 2.48611 -1.6503 0
M  V30 1865 C 180.571 3.47265 -0.173849 0
M  V30 1866 H 179.894 3.88716 -0.934873 0
M  V30 1867 H 181.334 4.23979 0.0423126 0
M  V30 1868 C 179.793 3.18724 1.09164 0
M  V30 1869 O 180.323 3.37762 2.17439 0
M  V30 1870 N 178.529 2.72583 1.00732 0
M  V30 1871 H 178.076 2.57291 0.126121 0
M  V30 1872 H 178.034 2.53862 1.85476 0
M  V30 1873 N 181.806 0.884767 1.30421 0
M  V30 1874 C 182.736 0.367574 2.30589 0
M  V30 1875 C 183.717 -0.549464 1.60981 0
M  V30 1876 O 184.902 -0.46336 1.88591 0
M  V30 1877 C 182.032 -0.418944 3.44764 0
M  V30 1878 C 180.986 0.406316 4.26067 0
M  V30 1879 C 180.312 -0.506793 5.32293 0
M  V30 1880 C 181.612 1.64832 4.95608 0
M  V30 1881 H 183.306 1.20462 2.74097 0
M  V30 1882 H 180.852 0.580695 1.31772 0
M  V30 1883 H 182.805 -0.791395 4.13902 0
M  V30 1884 H 181.529 -1.28964 3.0006 0
M  V30 1885 H 180.188 0.760903 3.58617 0
M  V30 1886 H 179.836 -1.37519 4.83836 0
M  V30 1887 H 179.536 0.0415828 5.87585 0
M  V30 1888 H 181.06 -0.875764 6.04287 0
M  V30 1889 H 182.474 1.34646 5.57264 0
M  V30 1890 H 180.871 2.13688 5.60765 0
M  V30 1891 H 181.941 2.39284 4.21748 0
M  V30 1892 N 183.284 -1.43765 0.645699 0
M  V30 1893 C 184.695 -1.85193 0.236719 0
M  V30 1894 C 185.046 -1.54045 -1.21509 0
M  V30 1895 O 184.171 -0.985694 -1.92647 0
M  V30 1896 C 184.766 -3.36151 0.422845 0
M  V30 1897 C 183.325 -3.76338 0.0682492 0
M  V30 1898 C 182.472 -2.67538 0.729306 0
M  V30 1899 H 185.423 -1.34025 0.849883 0
M  V30 1900 H 185.444 -3.79032 -0.333904 0
M  V30 1901 H 184.956 -3.5879 1.47958 0
M  V30 1902 H 183.057 -3.59312 -0.986179 0
M  V30 1903 H 183.17 -4.76603 0.488469 0
M  V30 1904 H 181.534 -2.54176 0.163235 0
M  V30 1905 H 182.317 -2.93006 1.78892 0
M  V30 1906 N 184.763 -0.387143 -1.52771 0
M  V30 1907 C 186.174 0.0873634 -1.86495 0
M  V30 1908 C 186.525 1.46336 -1.30691 0
M  V30 1909 O 185.65 2.068 -0.637409 0
M  V30 1910 C 186.245 0.165305 -3.38396 0
M  V30 1911 C 184.804 0.584101 -3.7184 0
M  V30 1912 C 183.951 -0.255279 -2.76122 0
M  V30 1913 H 186.902 -0.605104 -1.46711 0
M  V30 1914 H 186.923 0.984848 -3.67534 0
M  V30 1915 H 186.435 -0.836301 -3.78982 0
M  V30 1916 H 184.536 1.59315 -3.36823 0
M  V30 1917 H 184.649 0.343749 -4.77865 0
M  V30 1918 H 183.013 0.279126 -2.53166 0
M  V30 1919 H 183.796 -1.25482 -3.19545 0
M  V30 1920 N 186.241 1.57166 -0.116904 0
M  V30 1921 C 187.466 1.999 0.55271 0
M  V30 1922 C 187.891 0.996039 1.59564 0
M  V30 1923 O 187.249 -0.032556 1.81271 0
M  V30 1924 C 187.297 3.4152 1.15742 0
M  V30 1925 O 186.401 3.44106 2.27299 0
M  V30 1926 H 185.742 0.649447 0.138258 0
M  V30 1927 H 188.272 2.03573 -0.204759 0
M  V30 1928 H 188.282 3.79684 1.49346 0
M  V30 1929 H 186.957 4.14034 0.393493 0
M  V30 1930 H 185.534 3.17759 1.9515 0
M  V30 1931 N 187.719 -0.156864 1.56817 0
M  V30 1932 C 188.669 -1.19891 1.93934 0
M  V30 1933 C 189.653 -1.39061 0.809372 0
M  V30 1934 O 190.845 -1.40789 1.07273 0
M  V30 1935 C 187.974 -2.53493 2.31508 0
M  V30 1936 C 187.06 -2.37957 3.51052 0
M  V30 1937 N 187.451 -1.92158 4.67877 0
M  V30 1938 C 185.749 -2.68739 3.55943 0
M  V30 1939 C 186.45 -1.8943 5.49992 0
M  V30 1940 N 185.426 -2.32375 4.91429 0
M  V30 1941 H 189.228 -0.836746 2.81737 0
M  V30 1942 H 186.742 -0.365012 1.58245 0
M  V30 1943 H 188.739 -3.28811 2.56299 0
M  V30 1944 H 187.399 -2.905 1.45051 0
M  V30 1945 H 188.41 -1.62274 4.91821 0
M  V30 1946 H 185.087 -3.09687 2.80001 0
M  V30 1947 H 186.477 -1.55596 6.53636 0
M  V30 1948 N 189.197 -1.51736 -0.425897 0
M  V30 1949 C 190.144 -1.73875 -1.51776 0
M  V30 1950 C 191.114 -0.580702 -1.55618 0
M  V30 1951 O 192.299 -0.81641 -1.72451 0
M  V30 1952 C 189.439 -1.88012 -2.89388 0
M  V30 1953 C 188.552 -3.15606 -2.94986 0
M  V30 1954 C 187.687 -3.20271 -4.23793 0
M  V30 1955 C 186.726 -4.42134 -4.23302 0
M  V30 1956 N 185.863 -4.44284 -5.43651 0
M  V30 1957 H 190.703 -2.67071 -1.32201 0
M  V30 1958 H 188.24 -1.32351 -0.642008 0
M  V30 1959 H 190.198 -1.9419 -3.69251 0
M  V30 1960 H 188.828 -0.98213 -3.07496 0
M  V30 1961 H 187.88 -3.18681 -2.07717 0
M  V30 1962 H 189.192 -4.05486 -2.90486 0
M  V30 1963 H 188.346 -3.25428 -5.12036 0
M  V30 1964 H 187.085 -2.28299 -4.30965 0
M  V30 1965 H 186.09 -4.3714 -3.3345 0
M  V30 1966 H 187.315 -5.35382 -4.17783 0
M  V30 1967 H 185.261 -3.55188 -5.51523 0
M  V30 1968 H 185.178 -5.27988 -5.41078 0
M  V30 1969 H 186.446 -4.53649 -6.33895 0
M  V30 1970 N 190.675 0.682077 -1.42076 0
M  V30 1971 C 191.9 1.47558 -1.45744 0
M  V30 1972 C 192.325 1.87977 -0.0680981 0
M  V30 1973 O 191.683 1.55522 0.9318 0
M  V30 1974 C 191.731 2.70575 -2.38373 0
M  V30 1975 O 190.835 3.68573 -1.85007 0
M  V30 1976 H 190.176 0.443585 -0.494093 0
M  V30 1977 H 192.706 0.837238 -1.86686 0
M  V30 1978 H 192.716 3.18729 -2.54707 0
M  V30 1979 H 191.391 2.40495 -3.39315 0
M  V30 1980 H 189.968 3.2757 -1.78192 0
M  V30 1981 N 192.153 1.28127 0.917671 0
M  V30 1982 C 193.569 1.05749 1.19538 0
M  V30 1983 C 193.769 -0.202633 2.00479 0
M  V30 1984 O 192.825 -0.905382 2.3571 0
M  V30 1985 C 194.138 2.30273 1.93378 0
M  V30 1986 C 195.686 2.35412 2.06277 0
M  V30 1987 C 196.161 3.59692 2.83524 0
M  V30 1988 N 197.652 3.60309 2.91087 0
M  V30 1989 C 198.387 4.53147 3.51348 0
M  V30 1990 N 197.883 5.563 4.12919 0
M  V30 1991 N 199.676 4.40751 3.48849 0
M  V30 1992 H 191.827 2.09024 0.377184 0
M  V30 1993 H 194.09 0.919798 0.22951 0
M  V30 1994 H 193.796 3.22055 1.41328 0
M  V30 1995 H 193.67 2.36378 2.93947 0
M  V30 1996 H 196.057 1.4413 2.57508 0
M  V30 1997 H 196.138 2.33304 1.04895 0
M  V30 1998 H 195.782 4.51316 2.32973 0
M  V30 1999 H 195.712 3.59054 3.85211 0
M  V30 2000 H 198.203 2.85714 2.47338 0
M  V30 2001 H 198.516 6.2329 4.56869 0
M  V30 2002 H 196.861 5.60131 4.11435 0
M  V30 2003 H 200.052 3.59367 2.99955 0
M  V30 2004 H 200.225 5.13291 3.9552 0
M  V30 2005 N 193.631 -1.12557 1.10312 0
M  V30 2006 C 194.579 -2.20325 0.745629 0
M  V30 2007 C 195.573 -1.67429 -0.25763 0
M  V30 2008 O 196.779 -1.79612 -0.118132 0
M  V30 2009 H 193.154 -0.718118 0.223182 0
M  V30 2010 H 195.125 -2.47733 1.66346 0
M  V30 2011 C 193.874 -3.47168 0.192262 0
M  V30 2012 H 193.197 -3.88215 0.955475 0
M  V30 2013 H 194.637 -4.23995 -0.0198274 0
M  V30 2014 C 193.096 -3.19298 -1.07472 0
M  V30 2015 O 193.626 -3.3891 -2.15645 0
M  V30 2016 N 191.832 -2.73113 -0.992847 0
M  V30 2017 H 191.379 -2.57354 -0.112474 0
M  V30 2018 H 191.337 -2.54842 -1.84127 0
M  V30 2019 N 195.109 -0.891671 -1.2995 0
M  V30 2020 C 196.057 -0.353066 -2.29905 0
M  V30 2021 C 197.051 0.543509 -1.60444 0
M  V30 2022 O 198.257 0.4272 -1.74857 0
M  V30 2023 H 194.632 -0.095531 -0.745907 0
M  V30 2024 H 196.603 -1.20961 -2.72784 0
M  V30 2025 C 195.352 0.411475 -3.45257 0
M  V30 2026 H 194.675 -0.269182 -3.98893 0
M  V30 2027 H 196.115 0.753328 -4.17254 0
M  V30 2028 C 194.574 1.6111 -2.9588 0
M  V30 2029 O 195.104 2.71045 -2.96475 0
M  V30 2030 N 193.31 1.45054 -2.51809 0
M  V30 2031 H 192.857 0.556175 -2.51524 0
M  V30 2032 H 192.815 2.25453 -2.1913 0
M  V30 2033 N 196.587 1.43421 -0.653314 0
M  V30 2034 C 197.836 2.01032 -0.164076 0
M  V30 2035 C 198.149 1.52147 1.22926 0
M  V30 2036 O 199.355 2.02031 1.81371 0
M  V30 2037 C 197.811 3.59082 -0.24252 0
M  V30 2038 C 197.419 4.1696 -1.63855 0
M  V30 2039 C 199.163 4.24079 0.18911 0
M  V30 2040 C 197.07 5.67304 -1.67092 0
M  V30 2041 H 196 0.751798 -0.0575769 0
M  V30 2042 H 198.651 1.6439 -0.815362 0
M  V30 2043 H 197.033 3.93125 0.476276 0
M  V30 2044 H 198.207 3.94416 -2.38271 0
M  V30 2045 H 196.522 3.64335 -2.01616 0
M  V30 2046 H 199.119 5.34381 0.184775 0
M  V30 2047 H 199.462 3.98005 1.22056 0
M  V30 2048 H 199.995 3.94918 -0.477938 0
M  V30 2049 H 196.734 5.98145 -2.68146 0
M  V30 2050 H 196.254 5.91904 -0.970014 0
M  V30 2051 H 197.933 6.31344 -1.4147 0
M  V30 2052 N 198.065 0.39524 1.52563 0
M  V30 2053 C 198.995 -0.428384 2.29537 0
M  V30 2054 C 199.976 -1.05831 1.33169 0
M  V30 2055 O 201.161 -1.06995 1.62067 0
M  V30 2056 C 198.291 -1.55274 3.10656 0
M  V30 2057 C 197.245 -1.04855 4.14957 0
M  V30 2058 C 196.571 -2.26543 4.84337 0
M  V30 2059 C 197.871 -0.112324 5.22179 0
M  V30 2060 H 199.565 0.213867 2.98635 0
M  V30 2061 H 197.111 0.104298 1.43622 0
M  V30 2062 H 199.064 -2.1358 3.63265 0
M  V30 2063 H 197.788 -2.22266 2.39302 0
M  V30 2064 H 196.447 -0.487985 3.63338 0
M  V30 2065 H 196.095 -2.92059 4.09525 0
M  V30 2066 H 195.795 -1.93466 5.54837 0
M  V30 2067 H 197.319 -2.85481 5.39753 0
M  V30 2068 H 198.733 -0.603752 5.70112 0
M  V30 2069 H 197.13 0.128968 5.99961 0
M  V30 2070 H 198.2 0.837052 4.77621 0
M  V30 2071 N 199.544 -1.57102 0.125237 0
M  V30 2072 C 200.96 -1.57915 -0.231322 0
M  V30 2073 C 201.16 -1.13833 -1.66266 0
M  V30 2074 O 200.216 -0.828581 -2.38518 0
M  V30 2075 C 201.529 -3.00699 0.00766489 0
M  V30 2076 C 203.077 -3.12947 -0.0577483 0
M  V30 2077 C 203.552 -4.57742 0.153626 0
M  V30 2078 N 205.043 -4.63092 0.0998073 0
M  V30 2079 C 205.778 -5.72905 0.238174 0
M  V30 2080 N 205.274 -6.91445 0.433057 0
M  V30 2081 N 207.067 -5.6182 0.177308 0
M  V30 2082 H 199.218 -1.84055 1.06007 0
M  V30 2083 H 201.481 -0.850905 0.417929 0
M  V30 2084 H 201.187 -3.3726 0.997431 0
M  V30 2085 H 201.061 -3.70236 -0.721452 0
M  V30 2086 H 203.448 -2.7624 -1.03804 0
M  V30 2087 H 203.529 -2.4594 0.70335 0
M  V30 2088 H 203.173 -4.95149 1.13092 0
M  V30 2089 H 203.103 -5.22848 -0.627534 0
M  V30 2090 H 205.594 -3.77871 -0.047051 0
M  V30 2091 H 205.907 -7.70985 0.529332 0
M  V30 2092 H 204.252 -6.93415 0.469109 0
M  V30 2093 H 207.443 -4.68093 0.0259748 0
M  V30 2094 H 207.616 -6.47357 0.288582 0
M  V30 2095 N 201.022 0.148545 -1.56898 0
M  V30 2096 C 202.25 0.876389 -1.87422 0
M  V30 2097 C 202.665 1.74809 -0.713256 0
M  V30 2098 O 202.022 1.79725 0.317025 0
M  V30 2099 C 202.073 1.73438 -3.17178 0
M  V30 2100 O 201.794 0.897809 -4.28802 0
M  V30 2101 C 203.295 2.56993 -3.61205 0
M  V30 2102 H 200.515 0.253489 -0.621277 0
M  V30 2103 H 203.059 0.141798 -2.04008 0
M  V30 2104 H 201.214 2.42205 -3.0235 0
M  V30 2105 H 201.628 1.48672 -5.02988 0
M  V30 2106 H 203.102 3.12773 -4.54838 0
M  V30 2107 H 203.579 3.32958 -2.86419 0
M  V30 2108 H 204.185 1.9352 -3.78722 0
M  V30 2109 N 202.5 1.5196 0.417844 0
M  V30 2110 C 203.725 1.69717 1.1921 0
M  V30 2111 C 204.15 0.402148 1.83751 0
M  V30 2112 O 203.508 -0.639593 1.69643 0
M  V30 2113 C 203.556 2.82794 2.2374 0
M  V30 2114 O 202.66 2.47756 3.29683 0
M  V30 2115 H 202.001 0.565263 0.348387 0
M  V30 2116 H 204.531 1.98621 0.490985 0
M  V30 2117 H 204.541 3.07452 2.68212 0
M  V30 2118 H 203.216 3.76756 1.76146 0
M  V30 2119 H 201.793 2.33739 2.90552 0
M  V30 2120 N 203.978 -0.674533 1.42435 0
M  V30 2121 C 204.908 -1.80009 1.48724 0
M  V30 2122 C 205.889 -1.6659 0.343793 0
M  V30 2123 O 207.074 -1.86007 0.558137 0
M  V30 2124 C 204.204 -3.18306 1.38919 0
M  V30 2125 C 203.158 -3.46461 2.51294 0
M  V30 2126 C 202.484 -4.84335 2.26547 0
M  V30 2127 C 203.784 -3.43328 3.93603 0
M  V30 2128 H 205.478 -1.75004 2.42928 0
M  V30 2129 H 203.024 -0.840533 1.16923 0
M  V30 2130 H 204.977 -3.9678 1.41927 0
M  V30 2131 H 203.701 -3.2399 0.412094 0
M  V30 2132 H 202.36 -2.70348 2.47604 0
M  V30 2133 H 202.008 -4.86669 1.2713 0
M  V30 2134 H 201.708 -5.04136 3.01861 0
M  V30 2135 H 203.232 -5.65094 2.31304 0
M  V30 2136 H 204.646 -4.11772 3.98894 0
M  V30 2137 H 203.043 -3.74664 4.68771 0
M  V30 2138 H 204.113 -2.41897 4.20255 0
M  V30 2139 N 205.456 -1.28612 -0.910864 0
M  V30 2140 C 206.733 -1.06632 -1.63979 0
M  V30 2141 C 207.113 0.393351 -2.07403 0
M  V30 2142 O 206.461 1.37999 -1.82122 0
M  V30 2143 C 206.671 -2.0436 -2.8291 0
M  V30 2144 C 208.019 -2.34666 -3.5386 0
M  V30 2145 O 209.043 -2.02467 -2.93062 0
M  V30 2146 O 207.902 -2.89631 -4.63439 0
M  V30 2147 H 204.996 -0.407737 -0.7195 0
M  V30 2148 H 207.542 -1.39942 -0.959914 0
M  V30 2149 H 206.314 -3.02727 -2.47936 0
M  V30 2150 H 205.937 -1.71714 -3.58609 0
M  V30 2151 N 206.934 1.1197 -1.10907 0
M  V30 2152 C 207.864 2.19928 -0.784473 0
M  V30 2153 C 208.845 1.6833 0.244726 0
M  V30 2154 O 210.03 1.93892 0.109418 0
M  V30 2155 C 207.16 3.46597 -0.220827 0
M  V30 2156 C 206.114 4.11376 -1.18127 0
M  V30 2157 C 205.44 5.32554 -0.478594 0
M  V30 2158 C 206.74 4.56945 -2.52979 0
M  V30 2159 H 208.434 2.47337 -1.68715 0
M  V30 2160 H 205.98 1.18879 -0.812642 0
M  V30 2161 H 207.933 4.21396 0.0184278 0
M  V30 2162 H 206.657 3.1863 0.717113 0
M  V30 2163 H 205.316 3.38564 -1.40606 0
M  V30 2164 H 204.964 5.00856 0.463976 0
M  V30 2165 H 204.664 5.76844 -1.11912 0
M  V30 2166 H 206.188 6.10096 -0.248 0
M  V30 2167 H 207.602 5.23093 -2.3462 0
M  V30 2168 H 205.999 5.1203 -3.12962 0
M  V30 2169 H 207.069 3.70676 -3.12614 0
M  V30 2170 N 208.412 0.89855 1.29475 0
M  V30 2171 C 209.642 0.538479 1.99459 0
M  V30 2172 C 210.05 -0.880922 1.67441 0
M  V30 2173 O 209.393 -1.59283 0.915127 0
M  V30 2174 C 209.455 0.649564 3.53583 0
M  V30 2175 C 209.119 2.03573 4.09154 0
M  V30 2176 C 210.116 3.00675 4.24135 0
M  V30 2177 C 207.801 2.3448 4.44212 0
M  V30 2178 C 209.795 4.26809 4.73405 0
M  V30 2179 C 207.482 3.60857 4.93179 0
M  V30 2180 C 208.48 4.56836 5.0773 0
M  V30 2181 O 208.168 5.80969 5.55635 0
M  V30 2182 H 207.9 0.205372 0.644048 0
M  V30 2183 H 210.454 1.20958 1.66007 0
M  V30 2184 H 208.684 -0.0785592 3.8662 0
M  V30 2185 H 210.373 0.29881 4.04799 0
M  V30 2186 H 211.139 2.78112 3.97339 0
M  V30 2187 H 207.018 1.60534 4.32145 0
M  V30 2188 H 210.562 5.0173 4.84678 0
M  V30 2189 H 206.459 3.83251 5.19412 0
M  V30 2190 H 207.227 5.83542 5.73952 0
M  V30 2191 N 209.89 -1.43072 0.660911 0
M  V30 2192 C 210.853 -2.29194 -0.0166406 0
M  V30 2193 C 211.853 -1.42609 -0.742912 0
M  V30 2194 O 213.043 -1.64155 -0.583004 0
M  V30 2195 C 210.175 -3.24831 -1.0343 0
M  V30 2196 H 211.368 -2.90596 0.741208 0
M  V30 2197 H 208.921 -1.5048 0.422532 0
M  V30 2198 H 209.656 -2.68339 -1.82111 0
M  V30 2199 H 209.441 -3.88676 -0.517082 0
M  V30 2200 H 210.931 -3.89451 -1.50723 0
M  V30 2201 N 211.368 -0.403325 -1.52352 0
M  V30 2202 C 212.316 0.439752 -2.28405 0
M  V30 2203 C 213.31 1.05089 -1.32863 0
M  V30 2204 O 214.516 0.989759 -1.50345 0
M  V30 2205 H 210.891 0.160587 -0.734653 0
M  V30 2206 H 212.862 -0.222983 -2.97566 0
M  V30 2207 C 211.611 1.54736 -3.11371 0
M  V30 2208 H 210.934 1.08643 -3.84755 0
M  V30 2209 H 212.374 2.1112 -3.67701 0
M  V30 2210 C 210.833 2.51141 -2.24566 0
M  V30 2211 O 211.363 3.54887 -1.88196 0
M  V30 2212 N 209.569 2.21213 -1.8845 0
M  V30 2213 H 209.116 1.36878 -2.18225 0
M  V30 2214 H 209.074 2.85963 -1.30662 0
M  V30 2215 N 212.846 1.57033 -0.133567 0
M  V30 2216 C 214.092 1.95976 0.521649 0
M  V30 2217 C 214.425 1.01779 1.65393 0
M  V30 2218 O 213.7 0.0576581 1.94415 0
M  V30 2219 C 213.983 3.44738 1.04057 0
M  V30 2220 C 213.836 4.49711 -0.0892897 0
M  V30 2221 C 215.155 3.95682 1.92675 0
M  V30 2222 H 212.274 0.712579 0.188149 0
M  V30 2223 H 214.916 1.88813 -0.212076 0
M  V30 2224 H 213.066 3.50973 1.66583 0
M  V30 2225 H 214.738 4.55565 -0.725152 0
M  V30 2226 H 212.981 4.27261 -0.750378 0
M  V30 2227 H 213.652 5.51099 0.315284 0
M  V30 2228 H 216.128 3.91841 1.39998 0
M  V30 2229 H 215.004 5.00262 2.25897 0
M  V30 2230 H 215.265 3.37239 2.85872 0
M  V30 2231 N 214.325 -0.140222 1.56975 0
M  V30 2232 C 215.574 -0.850152 1.82908 0
M  V30 2233 C 215.887 -1.82028 0.715892 0
M  V30 2234 O 217.093 -2.57485 0.861016 0
M  V30 2235 C 215.549 -1.5625 3.24213 0
M  V30 2236 C 215.157 -0.63443 4.43485 0
M  V30 2237 C 216.901 -2.25881 3.59413 0
M  V30 2238 C 214.808 -1.34879 5.75814 0
M  V30 2239 H 213.738 -0.321221 0.682153 0
M  V30 2240 H 216.389 -0.102874 1.83211 0
M  V30 2241 H 214.771 -2.35565 3.18316 0
M  V30 2242 H 215.945 0.12398 4.60633 0
M  V30 2243 H 214.26 -0.0461836 4.16374 0
M  V30 2244 H 216.857 -2.79978 4.5554 0
M  V30 2245 H 217.2 -3.02693 2.85802 0
M  V30 2246 H 217.733 -1.53477 3.67001 0
M  V30 2247 H 214.472 -0.622385 6.52539 0
M  V30 2248 H 213.992 -2.07974 5.6259 0
M  V30 2249 H 215.671 -1.88784 6.18845 0
M  V30 2250 N 215.803 -1.52179 -0.40978 0
M  V30 2251 C 216.753 -1.71857 -1.49831 0
M  V30 2252 C 217.737 -0.572469 -1.50372 0
M  V30 2253 O 218.929 -0.829509 -1.56359 0
M  V30 2254 C 216.058 -1.87206 -2.87765 0
M  V30 2255 C 215.144 -3.07685 -2.91875 0
M  V30 2256 N 215.535 -4.30403 -2.65683 0
M  V30 2257 C 213.833 -3.07505 -3.23043 0
M  V30 2258 C 214.534 -5.11868 -2.76344 0
M  V30 2259 N 213.51 -4.47101 -3.09195 0
M  V30 2260 H 217.312 -2.64381 -1.28375 0
M  V30 2261 H 214.826 -1.50203 -0.617479 0
M  V30 2262 H 216.823 -1.99419 -3.66111 0
M  V30 2263 H 215.483 -0.958814 -3.10221 0
M  V30 2264 H 216.494 -4.58887 -2.4009 0
M  V30 2265 H 213.171 -2.25915 -3.51096 0
M  V30 2266 H 214.561 -6.19634 -2.59814 0
M  V30 2267 N 217.281 0.66697 -1.42791 0
M  V30 2268 C 218.521 1.43892 -1.4517 0
M  V30 2269 C 218.885 1.91877 -0.0687551 0
M  V30 2270 O 220.086 2.6878 0.0327455 0
M  V30 2271 C 218.357 2.59839 -2.45395 0
M  V30 2272 S 219.916 3.48572 -2.66539 0
M  V30 2273 H 216.734 0.491356 -0.513897 0
M  V30 2274 H 219.336 0.775656 -1.79454 0
M  V30 2275 H 218.04 2.22838 -3.44632 0
M  V30 2276 H 217.571 3.3103 -2.12562 0
M  V30 2277 H 219.586 4.56094 -1.95429 0
M  V30 2278 N 218.759 1.29093 0.90403 0
M  V30 2279 C 219.706 1.13853 2.00764 0
M  V30 2280 C 220.676 0.0330084 1.66067 0
M  V30 2281 O 221.861 0.199733 1.89752 0
M  V30 2282 C 219.001 0.816537 3.35301 0
M  V30 2283 C 218.114 2.00206 3.82807 0
M  V30 2284 C 217.249 1.61983 5.059 0
M  V30 2285 C 216.288 2.77143 5.45764 0
M  V30 2286 N 215.425 2.39346 6.60044 0
M  V30 2287 H 220.265 2.08276 2.13132 0
M  V30 2288 H 217.802 1.03648 1.04381 0
M  V30 2289 H 219.76 0.610557 4.12708 0
M  V30 2290 H 218.39 -0.090779 3.22672 0
M  V30 2291 H 217.442 2.31988 3.01473 0
M  V30 2292 H 218.754 2.86512 4.08304 0
M  V30 2293 H 217.908 1.37649 5.90879 0
M  V30 2294 H 216.647 0.728202 4.82233 0
M  V30 2295 H 215.652 3.02165 4.59322 0
M  V30 2296 H 216.877 3.66964 5.71414 0
M  V30 2297 H 214.823 1.52665 6.37989 0
M  V30 2298 H 214.74 3.19185 6.85315 0
M  V30 2299 H 216.008 2.1832 7.48303 0
M  V30 2300 N 220.237 -1.11381 1.11499 0
M  V30 2301 C 221.462 -1.87475 0.887019 0
M  V30 2302 C 221.887 -1.79639 -0.557796 0
M  V30 2303 O 221.245 -1.15924 -1.39396 0
M  V30 2304 C 221.293 -3.34213 1.35403 0
M  V30 2305 O 220.397 -4.0903 0.526146 0
M  V30 2306 H 219.738 -0.582099 0.319463 0
M  V30 2307 H 222.268 -1.40785 1.48461 0
M  V30 2308 H 222.278 -3.8506 1.34881 0
M  V30 2309 H 220.953 -3.39232 2.40612 0
M  V30 2310 H 219.53 -3.68082 0.597522 0
M  V30 2311 N 221.715 -0.905404 -1.28997 0
M  V30 2312 C 222.645 -0.404212 -2.29975 0
M  V30 2313 C 223.626 0.523784 -1.61835 0
M  V30 2314 O 224.811 0.433298 -1.89304 0
M  V30 2315 C 221.941 0.364042 -3.45387 0
M  V30 2316 C 220.895 -0.474048 -4.25367 0
M  V30 2317 C 220.221 0.422045 -5.33032 0
M  V30 2318 C 221.521 -1.72696 -4.92923 0
M  V30 2319 H 223.215 -1.24807 -2.72146 0
M  V30 2320 H 220.761 -0.601585 -1.30832 0
M  V30 2321 H 222.714 0.725447 -4.15109 0
M  V30 2322 H 221.438 1.24174 -3.02074 0
M  V30 2323 H 220.097 -0.81786 -3.57361 0
M  V30 2324 H 219.745 1.29804 -4.85963 0
M  V30 2325 H 219.445 -0.135057 -5.87445 0
M  V30 2326 H 220.969 0.779517 -6.05604 0
M  V30 2327 H 222.383 -1.43495 -5.55051 0
M  V30 2328 H 220.78 -2.22582 -5.57295 0
M  V30 2329 H 221.85 -2.45964 -4.17887 0
M  V30 2330 N 223.193 1.4272 -0.668489 0
M  V30 2331 C 224.604 1.84793 -0.266151 0
M  V30 2332 C 224.955 1.55959 1.19043 0
M  V30 2333 O 224.08 1.01622 1.91055 0
M  V30 2334 C 224.675 3.35436 -0.476271 0
M  V30 2335 C 223.234 3.76182 -0.128113 0
M  V30 2336 C 222.381 2.66344 -0.771777 0
M  V30 2337 H 225.332 1.32656 -0.871098 0
M  V30 2338 H 225.353 3.79515 0.273561 0
M  V30 2339 H 224.865 3.5639 -1.53647 0
M  V30 2340 H 222.966 3.60836 0.928891 0
M  V30 2341 H 223.079 4.75766 -0.564231 0
M  V30 2342 H 221.443 2.53885 -0.203652 0
M  V30 2343 H 222.226 2.90123 -1.83531 0
M  V30 2344 N 224.671 0.411399 1.52136 0
M  V30 2345 C 225.919 -0.163322 2.01439 0
M  V30 2346 C 226.24 -1.45453 1.29879 0
M  V30 2347 O 225.51 -1.91225 0.4254 0
M  V30 2348 H 224.09 -0.0633447 0.744309 0
M  V30 2349 H 226.752 0.548161 1.87033 0
M  V30 2350 H 225.848 -0.357817 3.10042 0
M  V30 2351 N 226.149 -1.5696 0.141893 0
M  V30 2352 C 227.395 -1.9625 -0.511248 0
M  V30 2353 C 227.728 -1.02654 -1.64851 0
M  V30 2354 O 227.003 -0.0679676 -1.94381 0
M  V30 2355 C 227.286 -3.45285 -1.02227 0
M  V30 2356 C 227.139 -4.49658 0.113138 0
M  V30 2357 C 228.458 -3.96698 -1.90574 0
M  V30 2358 H 225.577 -0.713567 -0.184367 0
M  V30 2359 H 228.219 -1.88698 0.222087 0
M  V30 2360 H 226.369 -3.51852 -1.64719 0
M  V30 2361 H 228.041 -4.55174 0.749302 0
M  V30 2362 H 226.284 -4.26857 0.773026 0
M  V30 2363 H 226.955 -5.51258 -0.286053 0
M  V30 2364 H 229.431 -3.92578 -1.37918 0
M  V30 2365 H 228.307 -5.01453 -2.2324 0
M  V30 2366 H 228.568 -3.3875 -2.84079 0
M  V30 2367 N 227.627 0.131896 -1.57047 0
M  V30 2368 C 228.873 0.843179 -1.84441 0
M  V30 2369 C 229.206 1.80129 -0.725749 0
M  V30 2370 O 228.481 1.92624 0.269469 0
M  V30 2371 C 228.764 1.60442 -3.22382 0
M  V30 2372 C 228.617 0.666782 -4.4483 0
M  V30 2373 C 229.936 2.56354 -3.5773 0
M  V30 2374 H 227.055 0.305081 -0.670891 0
M  V30 2375 H 229.697 0.107839 -1.89694 0
M  V30 2376 H 227.847 2.23128 -3.18035 0
M  V30 2377 H 229.519 0.0497646 -4.61273 0
M  V30 2378 H 227.762 -0.022609 -4.33794 0
M  V30 2379 H 228.433 1.23579 -5.37989 0
M  V30 2380 H 230.909 2.0378 -3.62785 0
M  V30 2381 H 229.785 3.06657 -4.5525 0
M  V30 2382 H 230.046 3.38419 -2.84473 0
M  V30 2383 N 229.106 1.52395 0.401703 0
M  V30 2384 C 230.334 1.70676 1.16949 0
M  V30 2385 C 230.749 0.419503 1.8408 0
M  V30 2386 O 230.106 -0.605061 1.72178 0
M  V30 2387 C 230.157 2.84753 2.22706 0
M  V30 2388 O 229.878 4.08495 1.58314 0
M  V30 2389 C 231.379 3.14608 3.12309 0
M  V30 2390 H 228.599 0.571787 0.351142 0
M  V30 2391 H 231.143 1.98987 0.471652 0
M  V30 2392 H 229.298 2.58941 2.88147 0
M  V30 2393 H 229.712 4.72117 2.28485 0
M  V30 2394 H 231.186 3.97923 3.82572 0
M  V30 2395 H 231.663 2.28464 3.75101 0
M  V30 2396 H 232.269 3.42212 2.52529 0
M  V30 2397 N 230.584 -0.659388 1.43143 0
M  V30 2398 C 232 -0.974337 1.26407 0
M  V30 2399 C 232.2 -2.007 0.179341 0
M  V30 2400 O 231.256 -2.4856 -0.444295 0
M  V30 2401 C 232.569 -1.46447 2.62628 0
M  V30 2402 C 234.117 -1.58144 2.7011 0
M  V30 2403 C 234.592 -2.1055 4.06734 0
M  V30 2404 N 236.083 -2.17861 4.08767 0
M  V30 2405 C 236.818 -2.59519 5.1131 0
M  V30 2406 N 236.314 -3.00518 6.24228 0
M  V30 2407 N 238.107 -2.59404 4.98664 0
M  V30 2408 H 230.258 0.0240528 2.12386 0
M  V30 2409 H 232.521 -0.0518065 0.946583 0
M  V30 2410 H 232.227 -0.780123 3.42939 0
M  V30 2411 H 232.101 -2.44058 2.87603 0
M  V30 2412 H 234.488 -2.25682 1.90136 0
M  V30 2413 H 234.569 -0.589828 2.48907 0
M  V30 2414 H 234.213 -1.43616 4.87172 0
M  V30 2415 H 234.143 -3.10531 4.25298 0
M  V30 2416 H 236.634 -1.88975 3.27257 0
M  V30 2417 H 236.947 -3.31036 6.98309 0
M  V30 2418 H 235.292 -2.98337 6.2771 0
M  V30 2419 H 238.483 -2.26747 4.09516 0
M  V30 2420 H 238.656 -2.91548 5.78709 0
M  V30 2421 N 232.062 -1.29571 -0.897171 0
M  V30 2422 C 233.012 -1.11539 -1.98855 0
M  V30 2423 C 233.996 -0.0340716 -1.60864 0
M  V30 2424 O 235.188 -0.256062 -1.75138 0
M  V30 2425 C 232.317 -0.796603 -3.3393 0
M  V30 2426 C 231.403 -1.91758 -3.78272 0
M  V30 2427 N 231.794 -3.16143 -3.94826 0
M  V30 2428 C 230.092 -1.81119 -4.07568 0
M  V30 2429 C 230.793 -3.89293 -4.32233 0
M  V30 2430 N 229.769 -3.17255 -4.41419 0
M  V30 2431 H 233.571 -2.05894 -2.09726 0
M  V30 2432 H 231.085 -1.20732 -1.08616 0
M  V30 2433 H 233.082 -0.648459 -4.11826 0
M  V30 2434 H 231.742 0.139003 -3.24402 0
M  V30 2435 H 232.753 -3.5157 -3.80288 0
M  V30 2436 H 229.43 -0.948461 -4.06584 0
M  V30 2437 H 230.82 -4.9635 -4.52865 0
M  V30 2438 N 233.54 1.10788 -1.12088 0
M  V30 2439 C 234.487 2.17025 -0.785407 0
M  V30 2440 C 235.457 1.64265 0.246191 0
M  V30 2441 O 236.642 1.90412 0.121584 0
M  V30 2442 C 233.782 3.44249 -0.242177 0
M  V30 2443 C 232.895 4.1098 -1.33115 0
M  V30 2444 C 232.03 5.25911 -0.747741 0
M  V30 2445 C 231.069 5.84538 -1.81609 0
M  V30 2446 N 230.206 6.90853 -1.25167 0
M  V30 2447 H 235.046 2.45066 -1.69548 0
M  V30 2448 H 232.583 1.20297 -0.846582 0
M  V30 2449 H 234.541 4.17101 0.0908026 0
M  V30 2450 H 233.171 3.16571 0.631072 0
M  V30 2451 H 232.223 3.36133 -1.78097 0
M  V30 2452 H 233.535 4.50601 -2.13917 0
M  V30 2453 H 232.689 6.056 -0.365216 0
M  V30 2454 H 231.428 4.87614 0.0915188 0
M  V30 2455 H 230.433 5.03522 -2.20785 0
M  V30 2456 H 231.658 6.249 -2.6585 0
M  V30 2457 H 229.604 6.54562 -0.434174 0
M  V30 2458 H 229.521 7.29166 -1.99633 0
M  V30 2459 H 230.789 7.7433 -0.896259 0
M  V30 2460 N 235.018 0.912232 1.28515 0
M  V30 2461 C 236.295 0.463597 1.90027 0
M  V30 2462 C 236.675 -1.05753 1.82701 0
M  V30 2463 O 236.023 -1.90492 1.26194 0
M  V30 2464 C 236.233 0.992253 3.34597 0
M  V30 2465 C 237.581 1.04344 4.11579 0
M  V30 2466 O 238.605 0.94079 3.43551 0
M  V30 2467 O 237.464 1.1995 5.33174 0
M  V30 2468 H 234.558 0.146666 0.813891 0
M  V30 2469 H 237.104 1.00292 1.36893 0
M  V30 2470 H 235.876 2.03623 3.34146 0
M  V30 2471 H 235.499 0.433672 3.95228 0
M  V30 2472 N 236.496 -1.42363 0.676048 0
M  V30 2473 C 237.745 -2.00745 0.196037 0
M  V30 2474 C 238.058 -1.54083 -1.20489 0
M  V30 2475 O 239.264 -2.04891 -1.78134 0
M  V30 2476 C 237.72 -3.58651 0.299616 0
M  V30 2477 C 237.328 -4.143 1.70468 0
M  V30 2478 C 239.072 -4.24326 -0.121619 0
M  V30 2479 C 236.979 -5.64574 1.76096 0
M  V30 2480 H 235.909 -0.750787 0.0695301 0
M  V30 2481 H 238.56 -1.63072 0.841412 0
M  V30 2482 H 236.942 -3.93833 -0.413673 0
M  V30 2483 H 238.116 -3.90575 2.44515 0
M  V30 2484 H 236.431 -3.61081 2.07387 0
M  V30 2485 H 239.028 -5.34607 -0.0997362 0
M  V30 2486 H 239.371 -3.99897 -1.15708 0
M  V30 2487 H 239.904 -3.94108 0.540706 0
M  V30 2488 H 236.643 -5.93804 2.77628 0
M  V30 2489 H 236.163 -5.90286 1.06406 0
M  V30 2490 H 237.842 -6.29013 1.51496 0
M  V30 2491 N 237.974 -0.419461 -1.51915 0
M  V30 2492 C 239.251 0.211999 -1.94448 0
M  V30 2493 C 239.631 1.61703 -1.35703 0
M  V30 2494 O 238.979 2.22102 -0.536931 0
M  V30 2495 C 239.189 0.207872 -3.4838 0
M  V30 2496 C 240.537 0.422192 -4.22496 0
M  V30 2497 O 241.561 0.286778 -3.55044 0
M  V30 2498 O 240.42 0.690009 -5.42126 0
M  V30 2499 H 237.514 0.139586 -0.815135 0
M  V30 2500 H 240.06 -0.476151 -1.62883 0
M  V30 2501 H 238.832 -0.775102 -3.83546 0
M  V30 2502 H 238.455 0.939688 -3.86336 0
M  V30 2503 N 239.452 1.56882 -0.150215 0
M  V30 2504 C 240.701 1.95403 0.500071 0
M  V30 2505 C 241.014 1.03777 1.658 0
M  V30 2506 O 242.22 1.31889 2.37313 0
M  V30 2507 C 240.676 3.4738 0.941018 0
M  V30 2508 C 240.284 4.47596 -0.190158 0
M  V30 2509 C 242.028 3.9476 1.56091 0
M  V30 2510 C 239.935 5.90787 0.269237 0
M  V30 2511 H 238.865 0.729515 0.190588 0
M  V30 2512 H 241.516 1.81988 -0.235074 0
M  V30 2513 H 239.898 3.56138 1.73152 0
M  V30 2514 H 241.072 4.50536 -0.967157 0
M  V30 2515 H 239.387 4.10151 -0.718666 0
M  V30 2516 H 241.984 4.99181 1.9163 0
M  V30 2517 H 242.327 3.36494 2.45107 0
M  V30 2518 H 242.86 3.88932 0.835249 0
M  V30 2519 H 239.599 6.52879 -0.585621 0
M  V30 2520 H 239.119 5.912 1.01204 0
M  V30 2521 H 240.798 6.42979 0.720176 0
M  V30 2522 N 240.93 -0.123565 1.57115 0
M  V30 2523 C 241.86 -1.15309 2.03042 0
M  V30 2524 C 242.841 -1.43454 0.914061 0
M  V30 2525 O 244.026 -1.53973 1.18347 0
M  V30 2526 C 241.156 -2.48043 2.43089 0
M  V30 2527 C 240.11 -2.3437 3.58127 0
M  V30 2528 C 239.436 -3.72026 3.84059 0
M  V30 2529 C 240.736 -1.80804 4.90007 0
M  V30 2530 H 242.43 -0.771102 2.893 0
M  V30 2531 H 239.976 -0.369479 1.39179 0
M  V30 2532 H 241.929 -3.20311 2.73823 0
M  V30 2533 H 240.653 -2.88122 1.53796 0
M  V30 2534 H 239.312 -1.64551 3.27595 0
M  V30 2535 H 238.96 -4.09582 2.91979 0
M  V30 2536 H 238.66 -3.63732 4.6149 0
M  V30 2537 H 240.184 -4.45806 4.1724 0
M  V30 2538 H 241.598 -2.42886 5.19307 0
M  V30 2539 H 239.995 -1.83343 5.71407 0
M  V30 2540 H 241.065 -0.76528 4.78823 0
M  V30 2541 N 242.408 -1.52605 -0.393616 0
M  V30 2542 C 243.657 -1.66649 -1.13627 0
M  V30 2543 C 243.97 -0.410364 -1.91247 0
M  V30 2544 O 245.176 -0.430854 -2.68059 0
M  V30 2545 C 243.632 -2.9449 -2.06891 0
M  V30 2546 C 243.24 -4.27266 -1.34714 0
M  V30 2547 C 244.984 -3.17899 -2.81319 0
M  V30 2548 C 242.891 -5.46217 -2.26717 0
M  V30 2549 H 241.821 -0.62084 -0.427871 0
M  V30 2550 H 244.472 -1.791 -0.399428 0
M  V30 2551 H 242.854 -2.75774 -2.84191 0
M  V30 2552 H 244.028 -4.56518 -0.626714 0
M  V30 2553 H 242.343 -4.10081 -0.722643 0
M  V30 2554 H 244.94 -4.03949 -3.50328 0
M  V30 2555 H 245.283 -2.32777 -3.45139 0
M  V30 2556 H 245.816 -3.37159 -2.11113 0
M  V30 2557 H 242.555 -6.33733 -1.67521 0
M  V30 2558 H 242.075 -5.21283 -2.96689 0
M  V30 2559 H 243.754 -5.7991 -2.86903 0
M  V30 2560 N 243.887 0.651787 -1.4349 0
M  V30 2561 C 245.133 1.41376 -1.45398 0
M  V30 2562 C 245.466 1.94041 -0.0784823 0
M  V30 2563 O 244.741 1.72379 0.900878 0
M  V30 2564 C 245.024 2.59414 -2.49752 0
M  V30 2565 C 244.877 2.12232 -3.96582 0
M  V30 2566 C 246.196 3.61626 -2.50827 0
M  V30 2567 H 243.315 0.512719 -0.529422 0
M  V30 2568 H 245.957 0.738796 -1.75048 0
M  V30 2569 H 244.107 3.16997 -2.246 0
M  V30 2570 H 245.779 1.59639 -4.32797 0
M  V30 2571 H 244.022 1.43592 -4.09346 0
M  V30 2572 H 244.693 2.9712 -4.65214 0
M  V30 2573 H 247.169 3.13805 -2.7325 0
M  V30 2574 H 246.045 4.41766 -3.25783 0
M  V30 2575 H 246.306 4.14314 -1.5426 0
M  V30 2576 N 245.365 1.30045 0.890287 0
M  V30 2577 C 246.781 1.08261 1.17268 0
M  V30 2578 C 246.981 -0.160063 2.00863 0
M  V30 2579 O 246.037 -0.855181 2.37577 0
M  V30 2580 C 247.35 2.34323 1.8845 0
M  V30 2581 C 248.898 2.39735 2.01237 0
M  V30 2582 C 249.373 3.65625 2.7583 0
M  V30 2583 N 250.864 3.66402 2.83379 0
M  V30 2584 C 251.599 4.60498 3.41657 0
M  V30 2585 N 251.095 5.64933 4.01026 0
M  V30 2586 N 252.888 4.48051 3.39421 0
M  V30 2587 H 245.039 2.09777 0.332762 0
M  V30 2588 H 247.302 0.92446 0.209948 0
M  V30 2589 H 247.008 3.2498 1.34465 0
M  V30 2590 H 246.882 2.4256 2.88867 0
M  V30 2591 H 249.269 1.4956 2.54393 0
M  V30 2592 H 249.35 2.35476 0.999232 0
M  V30 2593 H 248.994 4.56156 2.23347 0
M  V30 2594 H 248.924 3.67144 3.77509 0
M  V30 2595 H 251.415 2.90896 2.41222 0
M  V30 2596 H 251.728 6.32841 4.43545 0
M  V30 2597 H 250.073 5.68732 3.99461 0
M  V30 2598 H 253.264 3.65649 2.92264 0
M  V30 2599 H 253.437 5.21565 3.84544 0
M  V30 2600 N 246.843 -1.10192 1.12674 0
M  V30 2601 C 247.753 -2.20172 0.810026 0
M  V30 2602 C 248.769 -1.72821 -0.202188 0
M  V30 2603 O 249.945 -2.01369 -0.0351691 0
M  V30 2604 C 247.01 -3.45631 0.272007 0
M  V30 2605 C 246.071 -4.07704 1.34447 0
M  V30 2606 C 245.304 -5.27175 0.832029 0
M  V30 2607 O 245.527 -5.69425 -0.333284 0
M  V30 2608 O 244.461 -5.80168 1.60277 0
M  V30 2609 H 248.287 -2.49701 1.72867 0
M  V30 2610 H 245.872 -1.18977 0.903597 0
M  V30 2611 H 247.754 -4.21394 -0.0230219 0
M  V30 2612 H 246.429 -3.17723 -0.619164 0
M  V30 2613 H 245.336 -3.33614 1.6927 0
M  V30 2614 H 246.669 -4.3982 2.2095 0
M  V30 2615 N 248.321 -0.919034 -1.28029 0
M  V30 2616 C 249.269 -0.401753 -2.29104 0
M  V30 2617 C 250.263 0.509354 -1.61561 0
M  V30 2618 O 251.469 0.390014 -1.75724 0
M  V30 2619 H 247.844 -0.111331 -0.743713 0
M  V30 2620 H 249.815 -1.2672 -2.70156 0
M  V30 2621 C 248.564 0.338148 -3.46052 0
M  V30 2622 H 247.887 -0.353732 -3.98232 0
M  V30 2623 H 249.327 0.664653 -4.18758 0
M  V30 2624 C 247.786 1.54798 -2.99231 0
M  V30 2625 O 248.316 2.64696 -3.02157 0
M  V30 2626 N 246.522 1.3968 -2.54829 0
M  V30 2627 H 246.069 0.502698 -2.52647 0
M  V30 2628 H 246.027 2.20755 -2.23863 0
M  V30 2629 N 249.799 1.42003 -0.683588 0
M  V30 2630 C 251.027 2.05746 -0.218182 0
M  V30 2631 C 251.442 1.51396 1.12804 0
M  V30 2632 O 250.799 0.657303 1.70252 0
M  V30 2633 C 250.85 3.61171 -0.154131 0
M  V30 2634 O 250.571 4.13508 -1.44716 0
M  V30 2635 C 252.072 4.42042 0.333713 0
M  V30 2636 H 249.292 0.662888 -0.10402 0
M  V30 2637 H 251.836 1.81987 -0.9328 0
M  V30 2638 H 249.991 3.84012 0.511231 0
M  V30 2639 H 250.405 5.07453 -1.32632 0
M  V30 2640 H 251.879 5.51028 0.327423 0
M  V30 2641 H 252.356 4.17269 1.37053 0
M  V30 2642 H 252.962 4.24239 -0.300222 0
M  V30 2643 N 251.277 0.427512 1.51691 0
M  V30 2644 C 252.187 -0.39527 2.31246 0
M  V30 2645 C 253.203 -1.03674 1.39742 0
M  V30 2646 O 254.379 -1.03425 1.72816 0
M  V30 2647 C 251.444 -1.48706 3.13189 0
M  V30 2648 C 250.505 -0.866743 4.20459 0
M  V30 2649 C 249.738 -1.90651 4.98486 0
M  V30 2650 O 249.961 -3.12733 4.77026 0
M  V30 2651 O 248.895 -1.5025 5.82845 0
M  V30 2652 H 252.721 0.253918 3.02637 0
M  V30 2653 H 250.306 0.190274 1.48183 0
M  V30 2654 H 252.188 -2.12047 3.64162 0
M  V30 2655 H 250.863 -2.12051 2.44573 0
M  V30 2656 H 249.77 -0.195544 3.73589 0
M  V30 2657 H 251.103 -0.276934 4.9142 0
M  V30 2658 N 252.755 -1.56801 0.158532 0
M  V30 2659 C 254.003 -1.96102 -0.488712 0
M  V30 2660 C 254.324 -1.04498 -1.64636 0
M  V30 2661 O 253.594 -0.108783 -1.95598 0
M  V30 2662 H 252.174 -0.724102 -0.183535 0
M  V30 2663 H 254.836 -1.93457 0.236728 0
M  V30 2664 H 253.932 -3.00097 -0.857219 0
M  V30 2665 N 254.233 0.115231 -1.57178 0
M  V30 2666 C 255.143 1.15994 -2.03918 0
M  V30 2667 C 256.159 1.45103 -0.960268 0
M  V30 2668 O 257.335 1.56144 -1.27204 0
M  V30 2669 C 254.4 2.46568 -2.43732 0
M  V30 2670 C 253.461 2.24822 -3.65723 0
M  V30 2671 C 252.694 3.4917 -4.03629 0
M  V30 2672 O 252.917 4.56623 -3.41835 0
M  V30 2673 O 251.851 3.39949 -4.96708 0
M  V30 2674 H 255.677 0.793019 -2.93164 0
M  V30 2675 H 253.262 0.3263 -1.45793 0
M  V30 2676 H 255.144 3.23492 -2.70057 0
M  V30 2677 H 253.819 2.82726 -1.57631 0
M  V30 2678 H 252.726 1.45744 -3.44542 0
M  V30 2679 H 254.059 1.93566 -4.52541 0
M  V30 2680 N 255.711 1.52812 0.385517 0
M  V30 2681 C 256.941 1.71658 1.14966 0
M  V30 2682 C 257.349 0.436253 1.84102 0
M  V30 2683 O 256.692 -0.599313 1.73649 0
M  V30 2684 C 256.754 2.81309 2.23843 0
M  V30 2685 C 256.418 4.22313 1.74644 0
M  V30 2686 C 257.415 5.05352 1.22129 0
M  V30 2687 C 255.1 4.68648 1.80761 0
M  V30 2688 C 257.094 6.32807 0.763838 0
M  V30 2689 C 254.781 5.96086 1.34627 0
M  V30 2690 C 255.779 6.77996 0.825264 0
M  V30 2691 O 255.467 8.03045 0.370669 0
M  V30 2692 H 255.199 0.578022 0.350523 0
M  V30 2693 H 257.753 2.00263 0.456509 0
M  V30 2694 H 255.983 2.48133 2.96592 0
M  V30 2695 H 257.672 2.88524 2.85497 0
M  V30 2696 H 258.438 4.70736 1.16758 0
M  V30 2697 H 254.317 4.04979 2.20256 0
M  V30 2698 H 257.861 6.96689 0.356494 0
M  V30 2699 H 253.758 6.30205 1.39686 0
M  V30 2700 H 254.526 8.17021 0.491829 0
M  V30 2701 N 257.189 -0.644168 1.43834 0
M  V30 2702 C 258.414 -1.43642 1.49605 0
M  V30 2703 C 258.839 -1.8773 0.117913 0
M  V30 2704 O 258.197 -1.57938 -0.890239 0
M  V30 2705 C 258.245 -2.6416 2.45463 0
M  V30 2706 O 257.349 -3.63538 1.94714 0
M  V30 2707 H 256.69 -0.430329 0.50568 0
M  V30 2708 H 259.22 -0.787448 1.8884 0
M  V30 2709 H 259.23 -3.11864 2.63068 0
M  V30 2710 H 257.905 -2.31414 3.45572 0
M  V30 2711 H 256.482 -3.2273 1.86814 0
M  V30 2712 N 258.668 -1.30515 -0.883378 0
M  V30 2713 C 259.893 -1.22487 -1.67367 0
M  V30 2714 C 260.318 0.208767 -1.86938 0
M  V30 2715 O 259.676 1.15015 -1.40148 0
M  V30 2716 C 259.724 -1.96041 -3.02655 0
M  V30 2717 O 258.828 -1.28859 -3.91751 0
M  V30 2718 H 258.169 -0.423573 -0.511353 0
M  V30 2719 H 260.699 -1.72362 -1.10239 0
M  V30 2720 H 260.709 -2.05124 -3.52687 0
M  V30 2721 H 259.384 -3.00307 -2.8773 0
M  V30 2722 H 257.961 -1.28141 -3.50192 0
M  V30 2723 N 260.146 1.09593 -1.13257 0
M  V30 2724 C 261.076 2.18214 -0.830946 0
M  V30 2725 C 262.057 1.68812 0.208966 0
M  V30 2726 O 263.242 1.9408 0.0682666 0
M  V30 2727 C 260.372 3.46051 -0.294296 0
M  V30 2728 C 259.326 4.08778 -1.26826 0
M  V30 2729 C 258.652 5.31419 -0.591449 0
M  V30 2730 C 259.952 4.51476 -2.62615 0
M  V30 2731 H 261.646 2.43703 -1.73923 0
M  V30 2732 H 259.192 1.17128 -0.837675 0
M  V30 2733 H 261.145 4.2134 -0.0709606 0
M  V30 2734 H 259.869 3.20079 0.649366 0
M  V30 2735 H 258.528 3.35505 -1.47756 0
M  V30 2736 H 258.176 5.01727 0.357633 0
M  V30 2737 H 257.876 5.74341 -1.24123 0
M  V30 2738 H 259.4 6.09433 -0.377355 0
M  V30 2739 H 260.814 5.17999 -2.45663 0
M  V30 2740 H 259.211 5.05277 -3.23752 0
M  V30 2741 H 260.281 3.63962 -3.20406 0
M  V30 2742 N 261.624 0.925811 1.2754 0
M  V30 2743 C 262.534 0.428993 2.30644 0
M  V30 2744 C 263.55 -0.489387 1.66976 0
M  V30 2745 O 264.726 -0.372653 1.97922 0
M  V30 2746 C 261.791 -0.311967 3.45294 0
M  V30 2747 C 260.852 0.641098 4.24486 0
M  V30 2748 C 260.085 -0.0645955 5.33661 0
M  V30 2749 O 260.308 -1.28429 5.55754 0
M  V30 2750 O 259.242 0.606265 5.98839 0
M  V30 2751 H 263.068 1.28504 2.75173 0
M  V30 2752 H 260.653 0.691086 1.32455 0
M  V30 2753 H 262.535 -0.729972 4.15029 0
M  V30 2754 H 261.21 -1.14365 3.02824 0
M  V30 2755 H 260.117 1.10874 3.57292 0
M  V30 2756 H 261.45 1.43995 4.70666 0
M  V30 2757 N 263.102 -1.41638 0.69111 0
M  V30 2758 C 264.052 -2.28 -0.000107832 0
M  V30 2759 C 265.036 -1.41964 -0.757304 0
M  V30 2760 O 266.228 -1.65274 -0.633532 0
M  V30 2761 C 263.357 -3.30209 -0.938983 0
M  V30 2762 C 262.443 -4.23725 -0.17827 0
M  V30 2763 N 262.834 -4.99017 0.825563 0
M  V30 2764 C 261.132 -4.44071 -0.414392 0
M  V30 2765 C 261.833 -5.67431 1.28052 0
M  V30 2766 N 260.809 -5.40197 0.607304 0
M  V30 2767 H 264.611 -2.83644 0.769617 0
M  V30 2768 H 262.125 -1.53797 0.521562 0
M  V30 2769 H 264.122 -3.90898 -1.44929 0
M  V30 2770 H 262.782 -2.76126 -1.70836 0
M  V30 2771 H 263.793 -5.03671 1.20566 0
M  V30 2772 H 260.47 -4.01004 -1.162 0
M  V30 2773 H 261.86 -6.37801 2.11327 0
M  V30 2774 N 264.58 -0.43555 -1.51462 0
M  V30 2775 C 265.49 0.383001 -2.31453 0
M  V30 2776 C 266.506 1.02931 -1.4029 0
M  V30 2777 O 267.682 1.02507 -1.73362 0
M  V30 2778 C 264.747 1.47043 -3.13973 0
M  V30 2779 C 263.808 0.844433 -4.20913 0
M  V30 2780 C 263.041 1.88004 -4.9949 0
M  V30 2781 O 263.264 3.10199 -4.78678 0
M  V30 2782 O 262.198 1.47157 -5.83634 0
M  V30 2783 H 266.024 -0.269964 -3.02498 0
M  V30 2784 H 263.609 -0.19813 -1.4808 0
M  V30 2785 H 265.491 2.10113 -3.65281 0
M  V30 2786 H 264.166 2.10751 -2.45695 0
M  V30 2787 H 263.073 0.175729 -3.73687 0
M  V30 2788 H 264.406 0.250869 -4.9156 0
M  V30 2789 N 266.058 1.56714 -0.166846 0
M  V30 2790 C 267.283 2.01557 0.488833 0
M  V30 2791 C 267.708 1.0463 1.56314 0
M  V30 2792 O 267.066 0.0251304 1.81283 0
M  V30 2793 C 267.114 3.4503 1.04818 0
M  V30 2794 O 266.218 3.51163 2.16236 0
M  V30 2795 H 265.559 0.653516 0.117526 0
M  V30 2796 H 268.089 2.02818 -0.269421 0
M  V30 2797 H 268.099 3.84243 1.37191 0
M  V30 2798 H 266.774 4.15077 0.261572 0
M  V30 2799 H 265.351 3.23807 1.84942 0
M  V30 2800 N 267.536 -0.106894 1.57237 0
M  V30 2801 C 268.782 -0.81373 1.85759 0
M  V30 2802 C 269.115 -1.78952 0.754315 0
M  V30 2803 O 268.39 -1.93029 -0.23879 0
M  V30 2804 C 268.673 -1.55293 3.24894 0
M  V30 2805 C 268.526 -0.595929 4.45835 0
M  V30 2806 C 269.845 -2.5063 3.61763 0
M  V30 2807 H 266.964 -0.294369 0.67566 0
M  V30 2808 H 269.606 -0.0776472 1.89841 0
M  V30 2809 H 267.756 -2.1804 3.21544 0
M  V30 2810 H 269.428 0.0236262 4.61294 0
M  V30 2811 H 267.671 0.0916191 4.33703 0
M  V30 2812 H 268.342 -1.15004 5.39887 0
M  V30 2813 H 270.818 -1.97982 3.65981 0
M  V30 2814 H 269.694 -2.99376 4.60071 0
M  V30 2815 H 269.955 -3.3385 2.89821 0
M  V30 2816 N 269.014 -1.53014 -0.377408 0
M  V30 2817 C 269.977 -1.77957 -1.44444 0
M  V30 2818 C 270.977 -0.649763 -1.47087 0
M  V30 2819 O 272.167 -0.917897 -1.48055 0
M  V30 2820 C 269.299 -1.89089 -2.83651 0
M  V30 2821 H 270.492 -2.73243 -1.23606 0
M  V30 2822 H 268.045 -1.43912 -0.609844 0
M  V30 2823 H 268.78 -0.958293 -3.09818 0
M  V30 2824 H 268.565 -2.71254 -2.83132 0
M  V30 2825 H 270.055 -2.1002 -3.60945 0
M  V30 2826 N 270.492 0.636531 -1.44174 0
M  V30 2827 C 271.74 1.39343 -1.46383 0
M  V30 2828 C 272.061 1.94766 -0.0955715 0
M  V30 2829 O 271.331 1.75452 0.871395 0
M  V30 2830 H 269.911 0.517199 -0.538994 0
M  V30 2831 H 272.573 0.74957 -1.7991 0
M  V30 2832 H 271.669 2.22746 -2.18611 0
M  V30 2833 N 271.97 1.30982 0.876444 0
M  V30 2834 C 273.216 1.20474 1.63138 0
M  V30 2835 C 273.549 -0.238096 1.92735 0
M  V30 2836 O 272.824 -1.1692 1.55435 0
M  V30 2837 C 273.107 2.04244 2.96574 0
M  V30 2838 C 272.96 3.56793 2.73896 0
M  V30 2839 C 274.279 1.88684 3.97601 0
M  V30 2840 H 271.398 0.439001 0.591985 0
M  V30 2841 H 274.04 1.60704 1.01361 0
M  V30 2842 H 272.19 1.70063 3.493 0
M  V30 2843 H 273.862 4.01077 2.27892 0
M  V30 2844 H 272.105 3.80548 2.08245 0
M  V30 2845 H 272.776 4.10706 3.68815 0
M  V30 2846 H 275.252 2.18584 3.54062 0
M  V30 2847 H 274.128 2.4961 4.88862 0
M  V30 2848 H 274.389 0.848343 4.33884 0
M  V30 2849 N 273.449 -1.08991 1.13837 0
M  V30 2850 C 274.695 -1.81526 0.90422 0
M  V30 2851 C 275.028 -1.85706 -0.568066 0
M  V30 2852 O 274.303 -1.32855 -1.42056 0
M  V30 2853 C 274.586 -3.27447 1.49835 0
M  V30 2854 C 274.439 -3.31512 3.04006 0
M  V30 2855 C 275.758 -4.24256 1.17025 0
M  V30 2856 H 272.877 -0.659029 0.329923 0
M  V30 2857 H 275.519 -1.27644 1.40737 0
M  V30 2858 H 273.669 -3.73462 1.07044 0
M  V30 2859 H 275.341 -2.93867 3.55584 0
M  V30 2860 H 273.584 -2.70963 3.38765 0
M  V30 2861 H 274.255 -4.34329 3.40679 0
M  V30 2862 H 276.731 -3.86549 1.54009 0
M  V30 2863 H 275.607 -5.24684 1.61237 0
M  V30 2864 H 275.868 -4.42019 0.0846274 0
M  V30 2865 N 274.927 -0.932562 -1.27047 0
M  V30 2866 C 275.837 -0.441219 -2.30414 0
M  V30 2867 C 276.853 0.480525 -1.67233 0
M  V30 2868 O 278.029 0.362151 -1.98117 0
M  V30 2869 C 275.094 0.293651 -3.45454 0
M  V30 2870 C 274.155 -0.663601 -4.2414 0
M  V30 2871 C 273.388 0.0362932 -5.33688 0
M  V30 2872 O 273.611 1.2548 -5.56427 0
M  V30 2873 O 272.545 -0.638015 -5.98509 0
M  V30 2874 H 276.371 -1.29962 -2.74488 0
M  V30 2875 H 273.956 -0.6981 -1.32087 0
M  V30 2876 H 275.838 0.707951 -4.15411 0
M  V30 2877 H 274.513 1.12758 -3.03426 0
M  V30 2878 H 273.42 -1.12768 -3.56699 0
M  V30 2879 H 274.753 -1.46489 -4.69896 0
M  V30 2880 N 276.405 1.4127 -0.698611 0
M  V30 2881 C 277.63 2.06024 -0.238512 0
M  V30 2882 C 278.055 1.5224 1.10475 0
M  V30 2883 O 277.413 0.650623 1.69223 0
M  V30 2884 C 277.461 3.59988 -0.209952 0
M  V30 2885 O 276.565 4.04282 0.814235 0
M  V30 2886 H 275.906 0.653829 -0.115775 0
M  V30 2887 H 278.436 1.8098 -0.954326 0
M  V30 2888 H 278.446 4.07979 -0.0418436 0
M  V30 2889 H 277.121 3.98503 -1.1903 0
M  V30 2890 H 275.698 3.6779 0.615234 0
M  V30 2891 N 277.883 0.443576 1.51229 0
M  V30 2892 C 278.813 -0.355142 2.30783 0
M  V30 2893 C 279.794 -1.0154 1.36468 0
M  V30 2894 O 280.979 -1.01785 1.65389 0
M  V30 2895 C 278.109 -1.45312 3.15439 0
M  V30 2896 C 277.063 -0.916002 4.18083 0
M  V30 2897 C 276.389 -2.1102 4.91299 0
M  V30 2898 C 277.689 0.0538602 5.22272 0
M  V30 2899 H 279.383 0.308767 2.97804 0
M  V30 2900 H 276.929 0.149937 1.43217 0
M  V30 2901 H 278.882 -2.01914 3.69876 0
M  V30 2902 H 277.606 -2.14541 2.46252 0
M  V30 2903 H 276.265 -0.372145 3.64706 0
M  V30 2904 H 275.913 -2.78882 4.18609 0
M  V30 2905 H 275.613 -1.75717 5.60712 0
M  V30 2906 H 277.137 -2.68164 5.48562 0
M  V30 2907 H 278.551 -0.422069 5.71744 0
M  V30 2908 H 276.948 0.319776 5.99247 0
M  V30 2909 H 278.018 0.98858 4.74716 0
M  V30 2910 N 279.361 -1.56624 0.175154 0
M  V30 2911 C 280.308 -2.18149 -0.753634 0
M  V30 2912 C 281.278 -1.12265 -1.22417 0
M  V30 2913 O 282.463 -1.40432 -1.29165 0
M  V30 2914 C 279.603 -2.82933 -1.97592 0
M  V30 2915 C 278.716 -4.03289 -1.5486 0
M  V30 2916 C 277.851 -4.55988 -2.72485 0
M  V30 2917 C 276.89 -5.68746 -2.26262 0
M  V30 2918 N 276.027 -6.15938 -3.36994 0
M  V30 2919 H 280.867 -2.9717 -0.222195 0
M  V30 2920 H 278.404 -1.46774 -0.0979422 0
M  V30 2921 H 280.362 -3.18653 -2.69288 0
M  V30 2922 H 278.992 -2.06509 -2.481 0
M  V30 2923 H 278.044 -3.73364 -0.728246 0
M  V30 2924 H 279.356 -4.849 -1.16933 0
M  V30 2925 H 278.51 -4.9391 -3.52332 0
M  V30 2926 H 277.249 -3.73443 -3.13674 0
M  V30 2927 H 276.254 -5.30372 -1.44863 0
M  V30 2928 H 277.479 -6.53095 -1.86127 0
M  V30 2929 H 275.425 -5.36321 -3.77751 0
M  V30 2930 H 275.342 -6.92548 -3.03172 0
M  V30 2931 H 276.61 -6.58511 -4.17114 0
M  V30 2932 N 280.839 0.0985539 -1.57292 0
M  V30 2933 C 282.088 0.801358 -1.85098 0
M  V30 2934 C 282.401 1.80066 -0.763902 0
M  V30 2935 O 283.607 2.55112 -0.928981 0
M  V30 2936 C 282.063 1.47599 -3.28242 0
M  V30 2937 C 281.671 0.516624 -4.45011 0
M  V30 2938 C 283.415 2.16272 -3.65276 0
M  V30 2939 C 281.322 1.19564 -5.79188 0
M  V30 2940 H 280.252 0.303022 -0.69043 0
M  V30 2941 H 282.903 0.0542623 -1.8342 0
M  V30 2942 H 281.285 2.27042 -3.2445 0
M  V30 2943 H 282.459 -0.246065 -4.60143 0
M  V30 2944 H 280.774 -0.064227 -4.1635 0
M  V30 2945 H 283.371 2.67802 -4.62803 0
M  V30 2946 H 283.714 2.95009 -2.93727 0
M  V30 2947 H 284.247 1.43693 -3.70941 0
M  V30 2948 H 280.986 0.449157 -6.53959 0
M  V30 2949 H 280.506 1.92984 -5.67906 0
M  V30 2950 H 282.185 1.7231 -6.23633 0
M  V30 2951 N 282.317 1.53212 0.369288 0
M  V30 2952 C 283.566 1.68436 1.10961 0
M  V30 2953 C 283.879 0.440738 1.9057 0
M  V30 2954 O 285.085 0.473446 2.6734 0
M  V30 2955 C 283.541 2.97744 2.0218 0
M  V30 2956 C 283.149 4.29355 1.279 0
M  V30 2957 C 284.893 3.22334 2.76226 0
M  V30 2958 C 282.8 5.49755 2.17999 0
M  V30 2959 H 281.73 0.627568 0.41794 0
M  V30 2960 H 284.381 1.79713 0.370884 0
M  V30 2961 H 282.763 2.8026 2.79768 0
M  V30 2962 H 283.937 4.57458 0.554007 0
M  V30 2963 H 282.252 4.11179 0.657311 0
M  V30 2964 H 284.849 4.09471 3.43857 0
M  V30 2965 H 285.192 2.38238 3.41392 0
M  V30 2966 H 285.725 3.40475 2.05723 0
M  V30 2967 H 282.464 6.36318 1.57417 0
M  V30 2968 H 281.984 5.25937 2.88359 0
M  V30 2969 H 283.663 5.84401 2.77641 0
M  V30 2970 N 283.795 -0.628877 1.44509 0
M  V30 2971 C 285.023 -1.41554 1.50897 0
M  V30 2972 C 285.438 -1.8832 0.134564 0
M  V30 2973 O 284.795 -1.60969 -0.859965 0
M  V30 2974 C 284.846 -2.63435 2.47556 0
M  V30 2975 O 284.567 -2.18619 3.79654 0
M  V30 2976 C 286.068 -3.56537 2.63431 0
M  V30 2977 H 283.288 -0.434044 0.511709 0
M  V30 2978 H 285.832 -0.768895 1.89495 0
M  V30 2979 H 283.987 -3.24187 2.12089 0
M  V30 2980 H 284.401 -2.97652 4.31861 0
M  V30 2981 H 285.875 -4.38657 3.35088 0
M  V30 2982 H 286.352 -4.05493 1.68738 0
M  V30 2983 H 286.958 -3.01653 2.9981 0
M  V30 2984 N 285.273 -1.31445 -0.869486 0
M  V30 2985 C 286.22 -1.19135 -1.97675 0
M  V30 2986 C 287.19 -0.0770266 -1.65921 0
M  V30 2987 O 288.375 -0.249972 -1.89155 0
M  V30 2988 C 285.515 -0.905149 -3.33018 0
M  V30 2989 C 284.628 -2.10285 -3.77365 0
M  V30 2990 C 283.763 -1.75339 -5.01427 0
M  V30 2991 C 282.802 -2.91515 -5.38224 0
M  V30 2992 N 281.939 -2.56762 -6.53466 0
M  V30 2993 H 286.779 -2.13853 -2.07535 0
M  V30 2994 H 284.316 -1.06379 -1.01597 0
M  V30 2995 H 286.274 -0.719765 -4.10944 0
M  V30 2996 H 284.904 0.00519624 -3.228 0
M  V30 2997 H 283.956 -2.39899 -2.95216 0
M  V30 2998 H 285.268 -2.97237 -4.00564 0
M  V30 2999 H 284.422 -1.53266 -5.87022 0
M  V30 3000 H 283.161 -0.855801 -4.80133 0
M  V30 3001 H 282.166 -3.14237 -4.51149 0
M  V30 3002 H 283.391 -3.81985 -5.61484 0
M  V30 3003 H 281.337 -1.69526 -6.33717 0
M  V30 3004 H 281.254 -3.37243 -6.76612 0
M  V30 3005 H 282.522 -2.38083 -7.42251 0
M  V30 3006 N 286.751 1.08385 -1.14413 0
M  V30 3007 C 287.714 2.13486 -0.834048 0
M  V30 3008 C 288.714 1.59988 0.161418 0
M  V30 3009 O 289.904 1.74071 -0.0669575 0
M  V30 3010 C 287.036 3.4003 -0.243354 0
M  V30 3011 H 288.229 2.42425 -1.7655 0
M  V30 3012 H 285.782 1.24101 -0.950189 0
M  V30 3013 H 286.517 3.16726 0.696807 0
M  V30 3014 H 286.302 3.80157 -0.960367 0
M  V30 3015 H 287.792 4.17577 -0.0436242 0
M  V30 3016 N 288.23 0.939286 1.26551 0
M  V30 3017 C 289.177 0.446088 2.26448 0
M  V30 3018 C 290.147 -0.493234 1.58608 0
M  V30 3019 O 291.332 -0.409857 1.86346 0
M  V30 3020 C 288.472 -0.284375 3.43926 0
M  V30 3021 C 287.585 0.690399 4.26448 0
M  V30 3022 C 286.72 -0.0610712 5.31165 0
M  V30 3023 C 285.759 0.905649 6.05363 0
M  V30 3024 N 284.896 0.186055 7.01853 0
M  V30 3025 H 289.736 1.30291 2.68008 0
M  V30 3026 H 287.273 0.65371 1.31776 0
M  V30 3027 H 289.231 -0.724313 4.10864 0
M  V30 3028 H 287.861 -1.10535 3.03285 0
M  V30 3029 H 286.913 1.24885 3.59316 0
M  V30 3030 H 288.225 1.42873 4.779 0
M  V30 3031 H 287.379 -0.56038 6.04106 0
M  V30 3032 H 286.118 -0.832297 4.80546 0
M  V30 3033 H 285.123 1.4161 5.3125 0
M  V30 3034 H 286.348 1.67685 6.58072 0
M  V30 3035 H 284.294 -0.566714 6.53548 0
M  V30 3036 H 284.211 0.863752 7.51049 0
M  V30 3037 H 285.479 -0.292221 7.78952 0
M  V30 3038 N 289.708 -1.40897 0.706093 0
M  V30 3039 C 290.933 -2.05895 0.249435 0
M  V30 3040 C 291.358 -1.52823 -1.09666 0
M  V30 3041 O 290.716 -0.659589 -1.68876 0
M  V30 3042 C 290.764 -3.59872 0.22904 0
M  V30 3043 O 289.868 -4.04708 -0.792784 0
M  V30 3044 H 289.209 -0.653206 0.119241 0
M  V30 3045 H 291.739 -1.80471 0.96391 0
M  V30 3046 H 291.749 -4.07951 0.0634791 0
M  V30 3047 H 290.424 -3.97866 1.21141 0
M  V30 3048 H 289.001 -3.68111 -0.59572 0
M  V30 3049 N 291.186 -0.45159 -1.50991 0
M  V30 3050 C 292.116 0.342898 -2.30969 0
M  V30 3051 C 293.097 1.00815 -1.37005 0
M  V30 3052 O 294.282 1.00907 -1.65926 0
M  V30 3053 C 291.412 1.43637 -3.16205 0
M  V30 3054 C 290.366 0.893818 -4.18563 0
M  V30 3055 C 289.692 2.08411 -4.92411 0
M  V30 3056 C 290.992 -0.0815568 -5.22236 0
M  V30 3057 H 292.686 -0.324556 -2.97636 0
M  V30 3058 H 290.232 -0.157531 -1.43136 0
M  V30 3059 H 292.185 1.9995 -3.70942 0
M  V30 3060 H 290.909 2.13232 -2.47386 0
M  V30 3061 H 289.568 0.352798 -3.64898 0
M  V30 3062 H 289.216 2.76658 -4.20082 0
M  V30 3063 H 288.916 1.72741 -5.61636 0
M  V30 3064 H 290.44 2.65251 -5.49976 0
M  V30 3065 H 291.854 0.391742 -5.7196 0
M  V30 3066 H 290.251 -0.351551 -5.99069 0
M  V30 3067 H 291.321 -1.01374 -4.74185 0
M  V30 3068 N 292.664 1.56529 -0.183458 0
M  V30 3069 C 294.08 1.58664 0.172554 0
M  V30 3070 C 294.28 1.19925 1.61926 0
M  V30 3071 O 293.336 0.916534 2.35278 0
M  V30 3072 C 294.649 3.00463 -0.119262 0
M  V30 3073 C 296.197 3.12945 -0.0584396 0
M  V30 3074 C 296.672 4.56857 -0.323408 0
M  V30 3075 N 298.163 4.62403 -0.271612 0
M  V30 3076 C 298.898 5.71626 -0.450639 0
M  V30 3077 N 298.394 6.89362 -0.689384 0
M  V30 3078 N 300.187 5.60775 -0.385701 0
M  V30 3079 H 292.338 1.79994 -1.12765 0
M  V30 3080 H 294.601 0.834808 -0.449222 0
M  V30 3081 H 294.307 3.33326 -1.12192 0
M  V30 3082 H 294.181 3.72659 0.583544 0
M  V30 3083 H 296.568 2.79902 0.934805 0
M  V30 3084 H 296.649 2.4316 -0.794144 0
M  V30 3085 H 296.293 4.9061 -1.31392 0
M  V30 3086 H 296.223 5.24816 0.43305 0
M  V30 3087 H 298.714 3.77785 -0.0932256 0
M  V30 3088 H 299.027 7.68489 -0.815113 0
M  V30 3089 H 297.372 6.91196 -0.726142 0
M  V30 3090 H 300.563 4.67674 -0.199687 0
M  V30 3091 H 300.736 6.4584 -0.528646 0
M  V30 3092 N 294.142 -0.090211 1.57342 0
M  V30 3093 C 295.391 -0.791531 1.8552 0
M  V30 3094 C 295.704 -1.79659 0.773441 0
M  V30 3095 O 296.91 -2.54616 0.942497 0
M  V30 3096 C 295.366 -1.45856 3.2902 0
M  V30 3097 C 294.974 -0.493017 4.45279 0
M  V30 3098 C 296.718 -2.14332 3.66418 0
M  V30 3099 C 294.625 -1.16491 5.79814 0
M  V30 3100 H 293.555 -0.299356 0.692027 0
M  V30 3101 H 296.206 -0.0445343 1.83446 0
M  V30 3102 H 294.588 -2.25318 3.2565 0
M  V30 3103 H 295.762 0.270464 4.60006 0
M  V30 3104 H 294.077 0.0863061 4.16311 0
M  V30 3105 H 296.674 -2.65344 4.64216 0
M  V30 3106 H 297.017 -2.93447 2.95287 0
M  V30 3107 H 297.55 -1.41724 3.71698 0
M  V30 3108 H 294.289 -0.41447 6.54188 0
M  V30 3109 H 293.809 -1.8997 5.68921 0
M  V30 3110 H 295.488 -1.69001 6.24538 0
M  V30 3111 N 295.62 -1.53406 -0.361157 0
M  V30 3112 C 296.583 -1.79479 -1.42548 0
M  V30 3113 C 297.583 -0.665327 -1.4639 0
M  V30 3114 O 298.773 -0.933549 -1.47073 0
M  V30 3115 C 295.905 -1.92087 -2.8163 0
M  V30 3116 H 297.098 -2.74538 -1.20701 0
M  V30 3117 H 294.651 -1.4455 -0.594546 0
M  V30 3118 H 295.386 -0.991099 -3.08784 0
M  V30 3119 H 295.171 -2.74241 -2.80239 0
M  V30 3120 H 296.661 -2.13836 -3.58697 0
M  V30 3121 N 297.098 0.621204 -1.44841 0
M  V30 3122 C 298.008 1.7612 -1.5498 0
M  V30 3123 C 299.024 1.68477 -0.434927 0
M  V30 3124 O 300.2 1.89076 -0.693693 0
M  V30 3125 C 297.265 3.1254 -1.50065 0
M  V30 3126 C 296.326 3.31741 -2.72482 0
M  V30 3127 C 295.559 4.61653 -2.67792 0
M  V30 3128 O 295.782 5.431 -1.74352 0
M  V30 3129 O 294.716 4.83271 -3.58794 0
M  V30 3130 H 298.542 1.70518 -2.51311 0
M  V30 3131 H 296.127 0.783643 -1.27198 0
M  V30 3132 H 298.009 3.93844 -1.49882 0
M  V30 3133 H 296.684 3.18663 -0.568806 0
M  V30 3134 H 295.591 2.50077 -2.7823 0
M  V30 3135 H 296.924 3.30486 -3.64746 0
M  V30 3136 N 298.576 1.31904 0.862503 0
M  V30 3137 C 299.806 1.24817 1.64634 0
M  V30 3138 C 300.214 -0.187579 1.88268 0
M  V30 3139 O 299.557 -1.13253 1.44635 0
M  V30 3140 C 299.619 1.92996 3.03303 0
M  V30 3141 C 299.283 3.42336 3.02746 0
M  V30 3142 C 300.28 4.37956 2.80162 0
M  V30 3143 C 297.965 3.84147 3.2363 0
M  V30 3144 C 299.959 5.73361 2.78453 0
M  V30 3145 C 297.646 5.19663 3.21549 0
M  V30 3146 C 298.644 6.14081 2.98988 0
M  V30 3147 O 298.332 7.47118 2.96766 0
M  V30 3148 H 298.064 0.432222 0.519769 0
M  V30 3149 H 300.618 1.7445 1.08427 0
M  V30 3150 H 298.848 1.37922 3.61268 0
M  V30 3151 H 300.537 1.79723 3.63943 0
M  V30 3152 H 301.303 4.06981 2.63802 0
M  V30 3153 H 297.182 3.11083 3.40218 0
M  V30 3154 H 300.726 6.4703 2.60763 0
M  V30 3155 H 296.623 5.5027 3.37451 0
M  V30 3156 H 297.391 7.56382 3.12775 0
M  V30 3157 N 300.054 -1.07777 1.14986 0
M  V30 3158 C 301.017 -2.13041 0.845358 0
M  V30 3159 C 302.017 -1.60071 -0.152931 0
M  V30 3160 O 303.207 -1.74033 0.0761879 0
M  V30 3161 C 300.339 -3.39896 0.261383 0
M  V30 3162 H 301.532 -2.41485 1.77834 0
M  V30 3163 H 299.085 -1.23595 0.956757 0
M  V30 3164 H 299.82 -3.17091 -0.68 0
M  V30 3165 H 299.605 -3.79642 0.980514 0
M  V30 3166 H 301.095 -4.17548 0.0657687 0
M  V30 3167 N 301.532 -0.945985 -1.26051 0
M  V30 3168 C 302.779 -0.596118 -1.93527 0
M  V30 3169 C 303.107 0.865559 -1.74179 0
M  V30 3170 O 302.362 1.63524 -1.0751 0
M  V30 3171 C 302.661 -0.890475 -3.46129 0
M  V30 3172 C 302.327 -2.3368 -3.85622 0
M  V30 3173 C 300.989 -2.73216 -3.96114 0
M  V30 3174 C 303.341 -3.27648 -4.05334 0
M  V30 3175 C 300.669 -4.05806 -4.2372 0
M  V30 3176 C 303.021 -4.59841 -4.3443 0
M  V30 3177 C 301.685 -4.99185 -4.43137 0
M  V30 3178 H 300.955 -0.218135 -0.708165 0
M  V30 3179 H 303.602 -1.1934 -1.49768 0
M  V30 3180 H 301.907 -0.210711 -3.91233 0
M  V30 3181 H 303.604 -0.598478 -3.96509 0
M  V30 3182 H 300.194 -2.02015 -3.78005 0
M  V30 3183 H 304.378 -2.98298 -3.96651 0
M  V30 3184 H 299.634 -4.35945 -4.28675 0
M  V30 3185 H 303.808 -5.32641 -4.48628 0
M  V30 3186 H 301.435 -6.01952 -4.64282 0
M  V30 3187 N 303.011 1.40521 -0.713556 0
M  V30 3188 C 303.958 2.30723 -0.059684 0
M  V30 3189 C 304.928 1.48079 0.752448 0
M  V30 3190 O 306.113 1.76823 0.71681 0
M  V30 3191 C 303.253 3.34274 0.857594 0
M  V30 3192 C 302.366 4.31986 0.0351536 0
M  V30 3193 C 301.501 5.22605 0.951724 0
M  V30 3194 C 300.54 6.11976 0.123253 0
M  V30 3195 N 299.677 6.9502 0.99459 0
M  V30 3196 H 304.517 2.86074 -0.834596 0
M  V30 3197 H 302.054 1.40879 -0.42326 0
M  V30 3198 H 304.012 3.92879 1.40364 0
M  V30 3199 H 302.642 2.8043 1.59871 0
M  V30 3200 H 301.694 3.7518 -0.628052 0
M  V30 3201 H 303.006 4.95101 -0.606347 0
M  V30 3202 H 302.16 5.86131 1.56638 0
M  V30 3203 H 300.899 4.59759 1.62705 0
M  V30 3204 H 299.904 5.47482 -0.50435 0
M  V30 3205 H 301.129 6.76881 -0.548539 0
M  V30 3206 H 299.075 6.34764 1.6556 0
M  V30 3207 H 298.992 7.54892 0.40908 0
M  V30 3208 H 300.26 7.62997 1.59549 0
M  V30 3209 N 304.489 0.459591 1.5075 0
M  V30 3210 C 305.419 -0.330644 2.31147 0
M  V30 3211 C 306.4 -1.00087 1.37538 0
M  V30 3212 O 307.585 -1.00025 1.66459 0
M  V30 3213 C 304.715 -1.41958 3.16962 0
M  V30 3214 C 303.669 -0.871608 4.19031 0
M  V30 3215 C 302.995 -2.05797 4.9351 0
M  V30 3216 C 304.295 0.109251 5.22186 0
M  V30 3217 H 305.989 0.340336 2.97459 0
M  V30 3218 H 303.535 0.165119 1.4305 0
M  V30 3219 H 305.488 -1.9798 3.71997 0
M  V30 3220 H 304.212 -2.11917 2.48513 0
M  V30 3221 H 302.871 -0.333442 3.6508 0
M  V30 3222 H 302.519 -2.74427 4.21544 0
M  V30 3223 H 302.219 -1.6976 5.62544 0
M  V30 3224 H 303.743 -2.62331 5.51375 0
M  V30 3225 H 305.157 -0.361405 5.7216 0
M  V30 3226 H 303.554 0.383316 5.98875 0
M  V30 3227 H 304.624 1.03887 4.73641 0
M  V30 3228 N 305.967 -1.56429 0.191757 0
M  V30 3229 C 306.93 -2.17707 -0.716688 0
M  V30 3230 C 307.93 -1.13061 -1.14341 0
M  V30 3231 O 309.12 -1.38464 -1.05704 0
M  V30 3232 C 306.252 -2.77644 -1.97804 0
M  V30 3233 H 307.445 -2.99342 -0.1829 0
M  V30 3234 H 304.998 -1.56193 -0.0578566 0
M  V30 3235 H 305.733 -1.99799 -2.55443 0
M  V30 3236 H 305.518 -3.54246 -1.68083 0
M  V30 3237 H 307.008 -3.24708 -2.62592 0
M  V30 3238 N 307.445 0.0818655 -1.57387 0
M  V30 3239 C 308.377 1.12484 -1.997 0
M  V30 3240 C 309.39 1.35564 -0.90146 0
M  V30 3241 O 310.579 1.33982 -1.17945 0
M  V30 3242 C 307.679 2.47778 -2.31213 0
M  V30 3243 C 306.852 2.44793 -3.62485 0
M  V30 3244 C 305.911 3.62117 -3.81782 0
M  V30 3245 O 304.937 3.44005 -4.53486 0
M  V30 3246 N 306.139 4.82094 -3.23367 0
M  V30 3247 H 308.904 0.764585 -2.89783 0
M  V30 3248 H 306.465 0.270664 -1.59621 0
M  V30 3249 H 308.457 3.24891 -2.41304 0
M  V30 3250 H 307.027 2.75843 -1.4707 0
M  V30 3251 H 306.247 1.53134 -3.6324 0
M  V30 3252 H 307.535 2.39889 -4.48699 0
M  V30 3253 H 306.933 4.99713 -2.65148 0
M  V30 3254 H 305.49 5.56753 -3.38923 0
M  V30 3255 N 308.923 1.53595 0.353017 0
M  V30 3256 C 309.833 1.83897 1.45667 0
M  V30 3257 C 310.849 0.728334 1.58023 0
M  V30 3258 O 312.025 1.01968 1.73679 0
M  V30 3259 C 309.09 2.03383 2.80778 0
M  V30 3260 C 308.151 3.27262 2.77845 0
M  V30 3261 C 307.384 3.45809 4.06512 0
M  V30 3262 O 307.607 2.68387 5.03314 0
M  V30 3263 O 306.541 4.39207 4.11559 0
M  V30 3264 H 310.367 2.77686 1.2298 0
M  V30 3265 H 307.952 1.39132 0.544308 0
M  V30 3266 H 309.834 2.17698 3.60812 0
M  V30 3267 H 308.509 1.12783 3.03417 0
M  V30 3268 H 307.416 3.18359 1.96465 0
M  V30 3269 H 308.749 4.17824 2.60161 0
M  V30 3270 N 310.401 -0.613514 1.45168 0
M  V30 3271 C 311.626 -1.40437 1.52618 0
M  V30 3272 C 312.051 -1.87438 0.157707 0
M  V30 3273 O 311.409 -1.59791 -0.856537 0
M  V30 3274 C 311.457 -2.58894 2.51011 0
M  V30 3275 O 310.561 -3.59326 2.02382 0
M  V30 3276 H 309.902 -0.419506 0.514695 0
M  V30 3277 H 312.432 -0.747215 1.90467 0
M  V30 3278 H 312.442 -3.06214 2.69624 0
M  V30 3279 H 311.117 -2.24032 3.50403 0
M  V30 3280 H 309.694 -3.18695 1.93618 0
M  V30 3281 N 311.879 -1.3236 -0.855495 0
M  V30 3282 C 313.127 -1.22629 -1.60644 0
M  V30 3283 C 313.448 0.212136 -1.93843 0
M  V30 3284 O 312.718 1.13666 -1.59552 0
M  V30 3285 H 311.298 -0.450882 -0.595579 0
M  V30 3286 H 313.96 -1.65871 -1.02337 0
M  V30 3287 H 313.056 -1.80832 -2.54374 0
M  V30 3288 N 313.357 1.07166 -1.15556 0
M  V30 3289 C 314.773 1.31899 -0.898603 0
M  V30 3290 C 314.973 1.96333 0.453383 0
M  V30 3291 O 314.029 2.22438 1.19489 0
M  V30 3292 C 315.342 2.20826 -2.04099 0
M  V30 3293 C 316.89 2.34269 -2.07574 0
M  V30 3294 C 317.365 3.26546 -3.21141 0
M  V30 3295 N 318.856 3.34127 -3.20801 0
M  V30 3296 C 319.591 4.05595 -4.05315 0
M  V30 3297 N 319.087 4.79661 -4.99897 0
M  V30 3298 N 320.88 4.01555 -3.93332 0
M  V30 3299 H 313.031 0.637302 -2.02613 0
M  V30 3300 H 315.294 0.343468 -0.883591 0
M  V30 3301 H 315 1.80744 -3.01703 0
M  V30 3302 H 314.874 3.21364 -1.97496 0
M  V30 3303 H 317.261 2.73603 -1.10568 0
M  V30 3304 H 317.342 1.33429 -2.18244 0
M  V30 3305 H 316.986 2.87931 -4.184 0
M  V30 3306 H 316.916 4.27345 -3.07708 0
M  V30 3307 H 319.407 2.81336 -2.52306 0
M  V30 3308 H 319.72 5.31694 -5.60822 0
M  V30 3309 H 318.065 4.78671 -5.03884 0
M  V30 3310 H 321.256 3.42806 -3.18751 0
M  V30 3311 H 321.429 4.56987 -4.5942 0
M  V30 3312 N 314.835 0.952656 1.25548 0
M  V30 3313 C 315.782 0.47008 2.25962 0
M  V30 3314 C 316.752 -0.476384 1.59122 0
M  V30 3315 O 317.937 -0.39007 1.8677 0
M  V30 3316 C 315.077 -0.247881 3.44209 0
M  V30 3317 C 314.19 0.735591 4.25691 0
M  V30 3318 C 313.325 -0.0047306 5.312 0
M  V30 3319 C 312.364 0.969805 6.04368 0
M  V30 3320 N 311.501 0.260486 7.01617 0
M  V30 3321 H 316.341 1.33126 2.66611 0
M  V30 3322 H 313.878 0.66765 1.31076 0
M  V30 3323 H 315.836 -0.680695 4.1161 0
M  V30 3324 H 314.466 -1.07312 3.0444 0
M  V30 3325 H 313.518 1.28689 3.57971 0
M  V30 3326 H 314.83 1.47934 4.76358 0
M  V30 3327 H 313.984 -0.496275 6.04667 0
M  V30 3328 H 312.723 -0.781282 4.81401 0
M  V30 3329 H 311.728 1.47237 5.29718 0
M  V30 3330 H 312.953 1.74655 6.56256 0
M  V30 3331 H 310.899 -0.497364 6.54112 0
M  V30 3332 H 310.816 0.943362 7.50091 0
M  V30 3333 H 312.084 -0.209587 7.79218 0
M  V30 3334 N 316.313 -1.40141 0.720998 0
M  V30 3335 C 317.26 -2.30688 0.071919 0
M  V30 3336 C 318.23 -1.48476 -0.744584 0
M  V30 3337 O 319.415 -1.77201 -0.707423 0
M  V30 3338 C 316.555 -3.34724 -0.839855 0
M  V30 3339 C 315.668 -4.31998 -0.0122438 0
M  V30 3340 C 314.803 -5.23102 -0.923995 0
M  V30 3341 C 313.842 -6.12033 -0.0907969 0
M  V30 3342 N 312.979 -6.95537 -0.957718 0
M  V30 3343 H 317.819 -2.85628 0.849755 0
M  V30 3344 H 315.356 -1.40653 0.430726 0
M  V30 3345 H 317.314 -3.93618 -1.38279 0
M  V30 3346 H 315.944 -2.81274 -1.58381 0
M  V30 3347 H 314.996 -3.74841 0.64794 0
M  V30 3348 H 316.308 -4.94772 0.632595 0
M  V30 3349 H 315.462 -5.86953 -1.53527 0
M  V30 3350 H 314.201 -4.60615 -1.60264 0
M  V30 3351 H 313.206 -5.47207 0.533377 0
M  V30 3352 H 314.431 -6.76581 0.584428 0
M  V30 3353 H 312.377 -6.35633 -1.62192 0
M  V30 3354 H 312.294 -7.55099 -0.36904 0
M  V30 3355 H 313.562 -7.63832 -1.555 0
M  V30 3356 N 317.792 -0.46758 -1.50504 0
M  V30 3357 C 319.038 0.0887532 -2.02606 0
M  V30 3358 C 319.371 1.39686 -1.34913 0
M  V30 3359 O 318.646 1.88644 -0.473694 0
M  V30 3360 C 318.929 0.276206 -3.59039 0
M  V30 3361 C 318.782 -1.05267 -4.37309 0
M  V30 3362 C 320.101 1.03235 -4.27821 0
M  V30 3363 H 317.22 0.0307814 -0.736357 0
M  V30 3364 H 319.862 -0.612485 -1.79857 0
M  V30 3365 H 318.012 0.8735 -3.78553 0
M  V30 3366 H 319.684 -1.68628 -4.29374 0
M  V30 3367 H 317.927 -1.65015 -4.01189 0
M  V30 3368 H 318.598 -0.875197 -5.45018 0
M  V30 3369 H 321.074 0.526111 -4.12761 0
M  V30 3370 H 319.95 1.1323 -5.37094 0
M  V30 3371 H 320.211 2.06806 -3.90748 0
M  V30 3372 N 319.27 1.56325 -0.20005 0
M  V30 3373 C 320.498 2.02105 0.442874 0
M  V30 3374 C 320.913 1.08014 1.5485 0
M  V30 3375 O 320.27 0.0858797 1.82298 0
M  V30 3376 C 320.321 3.47549 0.994583 0
M  V30 3377 O 320.042 4.38049 -0.0669322 0
M  V30 3378 C 321.543 4.0887 1.7129 0
M  V30 3379 H 318.763 0.661807 0.110691 0
M  V30 3380 H 321.307 2.02134 -0.310207 0
M  V30 3381 H 319.462 3.48204 1.69803 0
M  V30 3382 H 319.876 5.23368 0.344462 0
M  V30 3383 H 321.35 5.12475 2.05118 0
M  V30 3384 H 321.827 3.52615 2.61838 0
M  V30 3385 H 322.433 4.12002 1.05518 0
M  V30 3386 N 320.748 -0.0735177 1.57428 0
M  V30 3387 C 321.711 -1.07192 2.02589 0
M  V30 3388 C 322.711 -1.31695 0.922661 0
M  V30 3389 O 323.901 -1.27445 1.18758 0
M  V30 3390 C 321.033 -2.41599 2.40506 0
M  V30 3391 H 322.226 -0.682727 2.92025 0
M  V30 3392 H 319.779 -0.319193 1.53006 0
M  V30 3393 H 320.514 -2.85354 1.5409 0
M  V30 3394 H 320.299 -2.25156 3.21009 0
M  V30 3395 H 321.789 -3.13367 2.76027 0
M  V30 3396 N 322.226 -1.5378 -0.344866 0
M  V30 3397 C 323.472 -1.71216 -1.08687 0
M  V30 3398 C 323.805 -0.473281 -1.88345 0
M  V30 3399 O 323.08 0.52968 -1.87149 0
M  V30 3400 C 323.363 -2.97486 -2.02914 0
M  V30 3401 C 323.216 -4.31579 -1.26727 0
M  V30 3402 C 324.535 -3.19422 -3.0275 0
M  V30 3403 H 321.654 -0.62301 -0.393735 0
M  V30 3404 H 324.296 -1.8645 -0.365563 0
M  V30 3405 H 322.446 -2.84629 -2.64421 0
M  V30 3406 H 324.118 -4.56284 -0.67845 0
M  V30 3407 H 322.361 -4.30049 -0.569273 0
M  V30 3408 H 323.032 -5.16106 -1.95803 0
M  V30 3409 H 325.508 -3.316 -2.51357 0
M  V30 3410 H 324.384 -4.09169 -3.65885 0
M  V30 3411 H 324.645 -2.35656 -3.74057 0
M  V30 3412 N 323.704 0.605807 -1.45491 0
M  V30 3413 C 324.654 1.71074 -1.50724 0
M  V30 3414 C 325.638 1.5658 -0.37033 0
M  V30 3415 O 326.83 1.65887 -0.617299 0
M  V30 3416 C 323.959 3.0983 -1.47852 0
M  V30 3417 C 323.045 3.29704 -2.66751 0
M  V30 3418 N 323.436 3.19831 -3.91844 0
M  V30 3419 C 321.734 3.60579 -2.62486 0
M  V30 3420 C 322.435 3.41083 -4.71208 0
M  V30 3421 N 321.411 3.65157 -4.02693 0
M  V30 3422 H 325.213 1.61937 -2.45263 0
M  V30 3423 H 322.727 0.80912 -1.40808 0
M  V30 3424 H 324.724 3.89101 -1.49686 0
M  V30 3425 H 323.384 3.20115 -0.543714 0
M  V30 3426 H 324.395 2.98194 -4.23439 0
M  V30 3427 H 321.072 3.7769 -1.77922 0
M  V30 3428 H 322.462 3.38828 -5.80211 0
M  V30 3429 N 325.182 1.32811 0.848464 0
M  V30 3430 C 326.129 1.22265 1.95755 0
M  V30 3431 C 327.099 0.103413 1.65778 0
M  V30 3432 O 328.284 0.280033 1.88734 0
M  V30 3433 C 325.424 0.958014 3.31536 0
M  V30 3434 C 324.537 2.16262 3.73971 0
M  V30 3435 C 323.672 1.83295 4.98575 0
M  V30 3436 C 322.711 3.00041 5.33518 0
M  V30 3437 N 321.848 2.67125 6.49299 0
M  V30 3438 H 326.688 2.17128 2.04107 0
M  V30 3439 H 324.225 1.07982 0.998913 0
M  V30 3440 H 326.183 0.785052 4.09747 0
M  V30 3441 H 324.813 0.046159 3.22767 0
M  V30 3442 H 323.865 2.44565 2.91362 0
M  V30 3443 H 325.177 3.03572 3.95785 0
M  V30 3444 H 324.331 1.62586 5.84509 0
M  V30 3445 H 323.07 0.932078 4.7871 0
M  V30 3446 H 322.075 3.21374 4.46093 0
M  V30 3447 H 323.3 3.90869 5.55336 0
M  V30 3448 H 321.246 1.79586 6.3094 0
M  V30 3449 H 321.163 3.47965 6.71161 0
M  V30 3450 H 322.431 2.49861 7.3837 0
M  V30 3451 N 326.66 -1.06551 1.16123 0
M  V30 3452 C 327.623 -2.12132 0.867906 0
M  V30 3453 C 328.623 -1.60224 -0.135944 0
M  V30 3454 O 329.813 -1.73943 0.0946422 0
M  V30 3455 C 326.945 -3.396 0.297419 0
M  V30 3456 H 328.138 -2.39586 1.80385 0
M  V30 3457 H 325.691 -1.22574 0.969812 0
M  V30 3458 H 326.426 -3.17794 -0.64633 0
M  V30 3459 H 326.211 -3.78581 1.02073 0
M  V30 3460 H 327.701 -4.17455 0.110052 0
M  V30 3461 N 328.138 -0.959301 -1.25041 0
M  V30 3462 C 329.086 -0.474437 -2.2771 0
M  V30 3463 C 330.08 0.457697 -1.631 0
M  V30 3464 O 331.286 0.333912 -1.76876 0
M  V30 3465 H 327.661 -0.134936 -0.739795 0
M  V30 3466 H 329.632 -1.35251 -2.65988 0
M  V30 3467 C 328.381 0.227884 -3.46952 0
M  V30 3468 H 327.704 -0.480248 -3.96905 0
M  V30 3469 H 329.144 0.531091 -4.20661 0
M  V30 3470 C 327.603 1.452 -3.04004 0
M  V30 3471 O 328.133 2.54949 -3.10426 0
M  V30 3472 N 326.339 1.31502 -2.59144 0
M  V30 3473 H 325.886 0.422065 -2.54119 0
M  V30 3474 H 325.844 2.13521 -2.30773 0
M  V30 3475 N 329.616 1.39756 -0.72842 0
M  V30 3476 C 330.865 1.99879 -0.270407 0
M  V30 3477 C 331.178 1.58449 1.14688 0
M  V30 3478 O 332.384 2.11362 1.70407 0
M  V30 3479 C 330.84 3.57292 -0.43252 0
M  V30 3480 C 330.448 4.07688 -1.85727 0
M  V30 3481 C 332.192 4.24485 -0.0359507 0
M  V30 3482 C 330.099 5.5765 -1.96928 0
M  V30 3483 H 329.029 0.747689 -0.0973472 0
M  V30 3484 H 331.68 1.59837 -0.901355 0
M  V30 3485 H 330.062 3.95097 0.267219 0
M  V30 3486 H 331.236 3.81231 -2.58843 0
M  V30 3487 H 329.551 3.53135 -2.20646 0
M  V30 3488 H 332.148 5.34609 -0.0987484 0
M  V30 3489 H 332.491 4.03915 1.00787 0
M  V30 3490 H 333.024 3.9183 -0.686604 0
M  V30 3491 H 329.763 5.8309 -2.99476 0
M  V30 3492 H 329.283 5.8593 -1.28241 0
M  V30 3493 H 330.962 6.22957 -1.74737 0
M  V30 3494 N 331.094 0.475555 1.50254 0
M  V30 3495 C 332.027 -0.362381 2.25304 0
M  V30 3496 C 333.005 -0.992393 1.28803 0
M  V30 3497 O 334.189 -1.02746 1.58036 0
M  V30 3498 C 331.316 -1.50813 3.03271 0
M  V30 3499 C 330.362 -0.995044 4.1473 0
M  V30 3500 S 331.195 0.0938436 5.35418 0
M  V30 3501 C 332.351 -1.05567 6.16933 0
M  V30 3502 H 332.584 0.274686 2.96028 0
M  V30 3503 H 330.117 0.260495 1.52187 0
M  V30 3504 H 332.075 -2.16476 3.48781 0
M  V30 3505 H 330.736 -2.11672 2.32064 0
M  V30 3506 H 329.929 -1.85293 4.68703 0
M  V30 3507 H 329.531 -0.416052 3.71679 0
M  V30 3508 H 331.823 -1.96636 6.48337 0
M  V30 3509 H 332.766 -0.555109 7.05921 0
M  V30 3510 H 333.174 -1.31151 5.49053 0
M  V30 3511 N 332.573 -1.56217 0.208337 0
M  V30 3512 C 333.52 -2.19699 -0.707192 0
M  V30 3513 C 334.49 -1.14836 -1.20008 0
M  V30 3514 O 335.675 -1.4314 -1.26157 0
M  V30 3515 C 332.815 -2.87061 -1.91546 0
M  V30 3516 C 331.928 -4.06483 -1.46271 0
M  V30 3517 C 331.063 -4.61665 -2.62752 0
M  V30 3518 C 330.102 -5.73417 -2.14147 0
M  V30 3519 N 329.239 -6.22948 -3.23853 0
M  V30 3520 H 334.079 -2.97575 -0.159111 0
M  V30 3521 H 331.616 -1.46948 -0.0667874 0
M  V30 3522 H 333.574 -3.24294 -2.62468 0
M  V30 3523 H 332.204 -2.11725 -2.43664 0
M  V30 3524 H 331.256 -3.74825 -0.648886 0
M  V30 3525 H 332.568 -4.87271 -1.06622 0
M  V30 3526 H 331.722 -5.01272 -3.41776 0
M  V30 3527 H 330.461 -3.80013 -3.05682 0
M  V30 3528 H 329.466 -5.33326 -1.33581 0
M  V30 3529 H 330.691 -6.56897 -1.72232 0
M  V30 3530 H 328.637 -5.44213 -3.6629 0
M  V30 3531 H 328.554 -6.98823 -2.88414 0
M  V30 3532 H 329.822 -6.6721 -4.03052 0
M  V30 3533 N 334.051 0.0651679 -1.57465 0
M  V30 3534 C 334.981 1.07693 -2.07182 0
M  V30 3535 C 335.962 1.39962 -0.966673 0
M  V30 3536 O 337.147 1.49475 -1.2398 0
M  V30 3537 C 334.277 2.3885 -2.52127 0
M  V30 3538 C 333.231 2.20917 -3.66579 0
M  V30 3539 C 332.557 3.57515 -3.97601 0
M  V30 3540 C 333.857 1.62493 -4.9638 0
M  V30 3541 H 335.551 0.663199 -2.91962 0
M  V30 3542 H 333.097 0.317569 -1.40455 0
M  V30 3543 H 335.05 3.09928 -2.85522 0
M  V30 3544 H 333.774 2.82215 -1.64384 0
M  V30 3545 H 332.433 1.52279 -3.33477 0
M  V30 3546 H 332.081 3.98463 -3.06979 0
M  V30 3547 H 331.781 3.46353 -4.74672 0
M  V30 3548 H 333.305 4.30013 -4.33499 0
M  V30 3549 H 334.719 2.23445 -5.27963 0
M  V30 3550 H 333.116 1.62009 -5.77818 0
M  V30 3551 H 334.186 0.587041 -4.81333 0
M  V30 3552 N 335.529 1.53961 0.336706 0
M  V30 3553 C 336.777 1.71197 1.07405 0
M  V30 3554 C 337.098 0.481475 1.88962 0
M  V30 3555 O 336.368 -0.504585 1.8929 0
M  V30 3556 H 334.948 0.631185 0.399517 0
M  V30 3557 H 337.61 1.91232 0.376323 0
M  V30 3558 H 336.706 2.58587 1.74755 0
M  V30 3559 N 337.007 -0.598083 1.45811 0
M  V30 3560 C 338.284 -1.35777 1.40797 0
M  V30 3561 C 338.664 -2.10935 0.083462 0
M  V30 3562 O 338.012 -2.08505 -0.934763 0
M  V30 3563 C 338.222 -2.29666 2.62783 0
M  V30 3564 C 339.57 -2.91977 3.08277 0
M  V30 3565 O 340.594 -2.39984 2.63223 0
M  V30 3566 O 339.453 -3.86376 3.86491 0
M  V30 3567 H 336.547 -0.609291 0.55919 0
M  V30 3568 H 339.093 -0.620379 1.57954 0
M  V30 3569 H 337.865 -1.73454 3.50756 0
M  V30 3570 H 337.488 -3.1077 2.48008 0
M  V30 3571 N 338.485 -1.33259 -0.841409 0
M  V30 3572 C 339.733 -1.24326 -1.59334 0
M  V30 3573 C 340.054 0.191564 -1.94057 0
M  V30 3574 O 339.324 1.11967 -1.60749 0
M  V30 3575 H 337.904 -0.457174 -0.590763 0
M  V30 3576 H 340.566 -1.66947 -1.00571 0
M  V30 3577 H 339.662 -1.8352 -2.52442 0
M  V30 3578 N 339.963 1.05934 -1.16686 0
M  V30 3579 C 340.893 2.1546 -0.899949 0
M  V30 3580 C 341.874 1.69391 0.155154 0
M  V30 3581 O 343.059 1.94199 0.00648693 0
M  V30 3582 C 340.189 3.44939 -0.404241 0
M  V30 3583 C 339.143 4.04536 -1.39767 0
M  V30 3584 C 338.469 5.29268 -0.760216 0
M  V30 3585 C 339.769 4.42893 -2.76845 0
M  V30 3586 H 341.463 2.38046 -1.81588 0
M  V30 3587 H 339.009 1.14404 -0.874514 0
M  V30 3588 H 340.962 4.20901 -0.204971 0
M  V30 3589 H 339.686 3.21983 0.547206 0
M  V30 3590 H 338.345 3.30635 -1.58355 0
M  V30 3591 H 337.993 5.02611 0.197831 0
M  V30 3592 H 337.693 5.70101 -1.42332 0
M  V30 3593 H 339.217 6.07924 -0.57105 0
M  V30 3594 H 340.631 5.09921 -2.62019 0
M  V30 3595 H 339.028 4.94721 -3.39663 0
M  V30 3596 H 340.098 3.53584 -3.31823 0
M  V30 3597 N 341.441 0.965919 1.2453 0
M  V30 3598 C 342.688 0.626831 1.92554 0
M  V30 3599 C 343.016 -0.837739 1.75534 0
M  V30 3600 O 342.271 -1.61793 1.10098 0
M  V30 3601 C 342.57 0.945428 3.44669 0
M  V30 3602 C 342.236 2.39785 3.81856 0
M  V30 3603 C 340.898 2.79483 3.91718 0
M  V30 3604 C 343.25 3.34055 4.00071 0
M  V30 3605 C 340.578 4.12496 4.1721 0
M  V30 3606 C 342.93 4.66694 4.27059 0
M  V30 3607 C 341.594 5.06172 4.3514 0
M  V30 3608 H 340.864 0.229374 0.704605 0
M  V30 3609 H 343.511 1.21707 1.4785 0
M  V30 3610 H 341.816 0.272926 3.90848 0
M  V30 3611 H 343.513 0.661484 3.95507 0
M  V30 3612 H 340.103 2.08003 3.74743 0
M  V30 3613 H 344.287 3.04571 3.91855 0
M  V30 3614 H 339.543 4.42709 4.21685 0
M  V30 3615 H 343.717 5.3971 4.40097 0
M  V30 3616 H 341.344 6.09262 4.54646 0
M  V30 3617 N 342.919 -1.39368 0.735821 0
M  V30 3618 C 343.849 -2.33234 0.111506 0
M  V30 3619 C 344.83 -1.53954 -0.723334 0
M  V30 3620 O 346.015 -1.82344 -0.668147 0
M  V30 3621 C 343.145 -3.38057 -0.795917 0
M  V30 3622 C 342.099 -4.2795 -0.065172 0
M  V30 3623 C 341.425 -5.23479 -1.08967 0
M  V30 3624 C 342.725 -5.10741 1.09273 0
M  V30 3625 H 344.419 -2.85692 0.895571 0
M  V30 3626 H 341.965 -1.37364 0.432109 0
M  V30 3627 H 343.918 -4.02675 -1.24221 0
M  V30 3628 H 342.642 -2.8404 -1.61211 0
M  V30 3629 H 341.301 -3.64813 0.361511 0
M  V30 3630 H 340.949 -4.65758 -1.89944 0
M  V30 3631 H 340.649 -5.84472 -0.605489 0
M  V30 3632 H 342.173 -5.90974 -1.53565 0
M  V30 3633 H 343.587 -5.68699 0.724841 0
M  V30 3634 H 341.984 -5.8088 1.50659 0
M  V30 3635 H 343.054 -4.45525 1.91404 0
M  V30 3636 N 344.397 -0.483516 -1.5 0
M  V30 3637 C 345.329 0.340634 -2.26655 0
M  V30 3638 C 346.342 0.946152 -1.32483 0
M  V30 3639 O 347.531 0.832453 -1.579 0
M  V30 3640 C 344.631 1.4929 -3.04246 0
M  V30 3641 C 343.804 0.997903 -4.25865 0
M  V30 3642 C 342.863 2.02569 -4.85646 0
M  V30 3643 O 341.889 1.60128 -5.46212 0
M  V30 3644 N 343.091 3.3548 -4.73744 0
M  V30 3645 H 345.856 -0.316577 -2.98023 0
M  V30 3646 H 343.417 -0.315024 -1.58806 0
M  V30 3647 H 345.409 2.17766 -3.41116 0
M  V30 3648 H 343.979 2.05458 -2.35597 0
M  V30 3649 H 343.199 0.138617 -3.93956 0
M  V30 3650 H 344.487 0.645305 -5.04691 0
M  V30 3651 H 343.885 3.72661 -4.25605 0
M  V30 3652 H 342.442 3.99718 -5.14848 0
M  V30 3653 N 345.875 1.56104 -0.216619 0
M  V30 3654 C 347.115 2.00074 0.418322 0
M  V30 3655 C 347.479 1.10098 1.57297 0
M  V30 3656 O 348.68 1.43393 2.27359 0
M  V30 3657 C 346.951 3.47231 0.846477 0
M  V30 3658 S 348.51 4.13223 1.47622 0
M  V30 3659 H 345.328 0.698457 0.132962 0
M  V30 3660 H 347.93 1.92784 -0.324748 0
M  V30 3661 H 346.634 4.104 -0.0036319 0
M  V30 3662 H 346.165 3.58384 1.62248 0
M  V30 3663 H 348.18 4.12005 2.76526 0
M  V30 3664 N 347.353 -0.0568162 1.57498 0
M  V30 3665 C 348.593 -0.758273 1.89815 0
M  V30 3666 C 348.957 -1.73978 0.812132 0
M  V30 3667 O 350.158 -2.48744 1.01881 0
M  V30 3668 C 348.429 -1.43465 3.27342 0
M  V30 3669 S 349.988 -2.1691 3.81439 0
M  V30 3670 H 346.806 -0.251836 0.664906 0
M  V30 3671 H 349.408 -0.0137997 1.95495 0
M  V30 3672 H 348.112 -0.706693 4.0427 0
M  V30 3673 H 347.643 -2.21825 3.24896 0
M  V30 3674 H 349.658 -3.43658 3.5793 0
M  V30 3675 N 348.832 -1.54138 -0.328536 0
M  V30 3676 C 350.248 -1.44736 -0.672574 0
M  V30 3677 C 350.448 -0.616217 -1.91846 0
M  V30 3678 O 349.504 -0.113067 -2.52247 0
M  V30 3679 C 350.817 -2.884 -0.851217 0
M  V30 3680 C 352.365 -2.98271 -0.948877 0
M  V30 3681 C 352.84 -4.43074 -1.15973 0
M  V30 3682 N 354.331 -4.46665 -1.22658 0
M  V30 3683 C 355.066 -5.55857 -1.40751 0
M  V30 3684 N 354.562 -6.75026 -1.5592 0
M  V30 3685 N 356.355 -5.43495 -1.4342 0
M  V30 3686 H 348.506 -2.06661 0.490421 0
M  V30 3687 H 350.769 -0.934812 0.157579 0
M  V30 3688 H 350.475 -3.51699 -0.00704236 0
M  V30 3689 H 350.349 -3.34225 -1.74853 0
M  V30 3690 H 352.736 -2.35102 -1.78356 0
M  V30 3691 H 352.817 -2.55785 -0.0281435 0
M  V30 3692 H 352.461 -5.06827 -0.329915 0
M  V30 3693 H 352.391 -4.83165 -2.09426 0
M  V30 3694 H 354.882 -3.60797 -1.124 0
M  V30 3695 H 355.195 -7.54004 -1.69404 0
M  V30 3696 H 353.54 -6.77944 -1.53027 0
M  V30 3697 H 356.731 -4.49349 -1.31162 0
M  V30 3698 H 356.904 -6.28649 -1.57178 0
M  V30 3699 N 350.31 0.590341 -1.46126 0
M  V30 3700 C 351.22 1.72793 -1.58681 0
M  V30 3701 C 352.236 1.67516 -0.470566 0
M  V30 3702 O 353.412 1.87562 -0.733642 0
M  V30 3703 C 350.477 3.09287 -1.5666 0
M  V30 3704 C 349.538 3.25886 -2.79458 0
M  V30 3705 C 348.771 4.55869 -2.77524 0
M  V30 3706 O 348.994 5.3928 -1.85832 0
M  V30 3707 O 347.928 4.75552 -3.68964 0
M  V30 3708 H 351.754 1.65149 -2.54872 0
M  V30 3709 H 349.339 0.756486 -1.28832 0
M  V30 3710 H 351.221 3.90577 -1.58202 0
M  V30 3711 H 349.896 3.17385 -0.636271 0
M  V30 3712 H 348.803 2.44119 -2.83472 0
M  V30 3713 H 350.136 3.22675 -3.71674 0
M  V30 3714 N 351.788 1.33704 0.83433 0
M  V30 3715 C 353.034 1.25603 1.59222 0
M  V30 3716 C 353.367 -0.176659 1.93395 0
M  V30 3717 O 352.642 -1.11915 1.59076 0
M  V30 3718 C 352.925 2.13576 2.89926 0
M  V30 3719 C 352.778 3.65326 2.62406 0
M  V30 3720 C 354.097 2.01238 3.91397 0
M  V30 3721 H 351.216 0.457613 0.577719 0
M  V30 3722 H 353.858 1.63848 0.961972 0
M  V30 3723 H 352.008 1.8109 3.43713 0
M  V30 3724 H 353.68 4.08124 2.15017 0
M  V30 3725 H 351.923 3.8698 1.96033 0
M  V30 3726 H 352.594 4.22232 3.55562 0
M  V30 3727 H 355.07 2.29738 3.46929 0
M  V30 3728 H 353.946 2.65036 4.80673 0
M  V30 3729 H 354.207 0.985951 4.30966 0
M  V30 3730 N 353.266 -1.05314 1.17247 0
M  V30 3731 C 354.229 -2.112 0.890357 0
M  V30 3732 C 355.229 -1.60359 -0.118943 0
M  V30 3733 O 356.419 -1.73833 0.113086 0
M  V30 3734 C 353.551 -3.39266 0.333422 0
M  V30 3735 H 354.744 -2.37659 1.82916 0
M  V30 3736 H 352.297 -1.21538 0.982758 0
M  V30 3737 H 353.032 -3.18462 -0.612587 0
M  V30 3738 H 352.817 -3.77477 1.06082 0
M  V30 3739 H 354.307 -4.17315 0.154322 0
M  V30 3740 N 354.744 -0.972509 -1.24016 0
M  V30 3741 C 355.707 -0.511403 -2.23422 0
M  V30 3742 C 356.707 0.394679 -1.55881 0
M  V30 3743 O 357.897 0.189469 -1.73167 0
M  V30 3744 C 355.029 0.258769 -3.39916 0
M  V30 3745 H 356.222 -1.39024 -2.6573 0
M  V30 3746 H 353.775 -0.757585 -1.36713 0
M  V30 3747 H 354.51 1.1545 -3.03054 0
M  V30 3748 H 354.295 -0.391522 -3.9014 0
M  V30 3749 H 355.785 0.570244 -4.13688 0
M  V30 3750 N 356.222 1.38976 -0.743202 0
M  V30 3751 C 357.638 1.53984 -0.419664 0
M  V30 3752 C 357.838 1.70837 1.0685 0
M  V30 3753 O 356.894 1.7135 1.8546 0
M  V30 3754 C 358.207 2.75287 -1.20985 0
M  V30 3755 C 359.755 2.89129 -1.19889 0
M  V30 3756 C 360.23 4.13381 -1.97181 0
M  V30 3757 N 361.721 4.20437 -1.94389 0
M  V30 3758 C 362.456 5.15547 -2.50996 0
M  V30 3759 N 361.952 6.16395 -3.16274 0
M  V30 3760 N 363.745 5.07822 -2.40984 0
M  V30 3761 H 355.896 1.26285 -1.7078 0
M  V30 3762 H 358.159 0.612689 -0.723406 0
M  V30 3763 H 357.865 2.69204 -2.26323 0
M  V30 3764 H 357.739 3.68184 -0.819759 0
M  V30 3765 H 360.126 2.947 -0.153606 0
M  V30 3766 H 360.207 1.97272 -1.62841 0
M  V30 3767 H 359.851 4.08572 -3.01714 0
M  V30 3768 H 359.781 5.04298 -1.51629 0
M  V30 3769 H 362.272 3.48205 -1.46839 0
M  V30 3770 H 362.585 6.85443 -3.56915 0
M  V30 3771 H 360.93 6.16758 -3.20367 0
M  V30 3772 H 364.121 4.27973 -1.89622 0
M  V30 3773 H 364.294 5.81767 -2.85397 0
M  V30 3774 N 357.7 0.491464 1.49741 0
M  V30 3775 C 358.93 -0.0534375 2.06531 0
M  V30 3776 C 359.338 -1.32233 1.35318 0
M  V30 3777 O 358.681 -1.78781 0.422243 0
M  V30 3778 C 358.743 -0.387034 3.57411 0
M  V30 3779 C 358.407 0.782764 4.50246 0
M  V30 3780 C 359.404 1.67059 4.92329 0
M  V30 3781 C 357.089 0.978866 4.9267 0
M  V30 3782 C 359.083 2.73874 5.75562 0
M  V30 3783 C 356.77 2.05022 5.75682 0
M  V30 3784 C 357.768 2.92851 6.17031 0
M  V30 3785 O 357.456 3.98138 6.98385 0
M  V30 3786 H 357.188 0.0129324 0.675876 0
M  V30 3787 H 359.742 0.685238 1.93633 0
M  V30 3788 H 357.972 -1.17918 3.68283 0
M  V30 3789 H 359.661 -0.869419 3.96479 0
M  V30 3790 H 360.427 1.53086 4.60206 0
M  V30 3791 H 356.306 0.304646 4.59992 0
M  V30 3792 H 359.85 3.42458 6.07757 0
M  V30 3793 H 355.747 2.18993 6.07217 0
M  V30 3794 H 356.515 3.95374 7.16674 0
M  V30 3795 N 359.178 -1.55987 0.224894 0
M  V30 3796 C 360.589 -1.84553 -0.282345 0
M  V30 3797 C 360.94 -1.14634 -1.59227 0
M  V30 3798 O 360.065 -0.417155 -2.12341 0
M  V30 3799 C 360.66 -3.348 -0.519062 0
M  V30 3800 C 359.219 -3.63671 -0.970604 0
M  V30 3801 C 358.366 -2.77277 -0.0355261 0
M  V30 3802 H 361.317 -1.52245 0.448006 0
M  V30 3803 H 361.338 -3.55187 -1.36463 0
M  V30 3804 H 360.85 -3.8566 0.43449 0
M  V30 3805 H 358.951 -3.1827 -1.9374 0
M  V30 3806 H 359.064 -4.71631 -0.842698 0
M  V30 3807 H 357.428 -2.48846 -0.542927 0
M  V30 3808 H 358.211 -3.30937 0.913003 0
M  V30 3809 N 360.656 0.0484629 -1.57525 0
M  V30 3810 C 361.588 1.08222 -2.02041 0
M  V30 3811 C 362.601 1.33621 -0.930012 0
M  V30 3812 O 363.79 1.3145 -1.20761 0
M  V30 3813 C 360.89 2.42818 -2.36416 0
M  V30 3814 C 360.063 2.37049 -3.67596 0
M  V30 3815 C 359.122 3.53937 -3.89378 0
M  V30 3816 O 358.148 3.34308 -4.60681 0
M  V30 3817 N 359.35 4.75126 -3.3352 0
M  V30 3818 H 362.115 0.702946 -2.9134 0
M  V30 3819 H 359.676 0.236745 -1.6016 0
M  V30 3820 H 361.668 3.197 -2.48141 0
M  V30 3821 H 360.238 2.72661 -1.52888 0
M  V30 3822 H 359.458 1.45395 -3.66407 0
M  V30 3823 H 360.746 2.30318 -4.53686 0
M  V30 3824 H 360.144 4.93976 -2.75688 0
M  V30 3825 H 358.701 5.49439 -3.50656 0
M  V30 3826 N 362.134 1.5431 0.320358 0
M  V30 3827 C 363.383 1.7188 1.05546 0
M  V30 3828 C 363.696 0.501143 1.89071 0
M  V30 3829 O 364.902 0.558258 2.65699 0
M  V30 3830 C 363.358 3.04025 1.92605 0
M  V30 3831 C 362.966 4.33207 1.14176 0
M  V30 3832 C 364.71 3.30959 2.65832 0
M  V30 3833 C 362.617 5.56412 2.00399 0
M  V30 3834 H 361.547 0.640547 0.397763 0
M  V30 3835 H 364.198 1.80802 0.313522 0
M  V30 3836 H 362.58 2.89019 2.7071 0
M  V30 3837 H 363.754 4.58989 0.40819 0
M  V30 3838 H 362.069 4.13062 0.526165 0
M  V30 3839 H 364.666 4.20203 3.30656 0
M  V30 3840 H 365.009 2.48979 3.33639 0
M  V30 3841 H 365.542 3.46847 1.94787 0
M  V30 3842 H 362.281 6.41004 1.37094 0
M  V30 3843 H 361.801 5.34844 2.7148 0
M  V30 3844 H 363.48 5.92938 2.58908 0
M  V30 3845 N 363.613 -0.582584 1.46437 0
M  V30 3846 C 364.841 -1.36682 1.55324 0
M  V30 3847 C 365.256 -1.87796 0.194409 0
M  V30 3848 O 364.613 -1.63623 -0.808318 0
M  V30 3849 C 364.664 -2.55426 2.55812 0
M  V30 3850 O 364.385 -2.0643 3.86417 0
M  V30 3851 C 365.886 -3.47976 2.74641 0
M  V30 3852 H 363.106 -0.417545 0.525259 0
M  V30 3853 H 365.65 -0.708219 1.91845 0
M  V30 3854 H 363.805 -3.17275 2.22295 0
M  V30 3855 H 364.219 -2.83762 4.41111 0
M  V30 3856 H 365.693 -4.27775 3.48874 0
M  V30 3857 H 366.17 -3.99919 1.81553 0
M  V30 3858 H 366.776 -2.91962 3.09255 0
M  V30 3859 N 365.091 -1.34144 -0.827227 0
M  V30 3860 C 366.338 -1.26258 -1.58319 0
M  V30 3861 C 366.666 0.168595 -1.93768 0
M  V30 3862 O 365.921 1.12877 -1.59866 0
M  V30 3863 C 366.22 -2.09464 -2.89585 0
M  V30 3864 C 365.886 -3.58521 -2.73448 0
M  V30 3865 C 364.548 -3.99155 -2.68754 0
M  V30 3866 C 366.9 -4.53189 -2.57428 0
M  V30 3867 C 364.228 -5.32656 -2.45957 0
M  V30 3868 C 366.58 -5.86864 -2.36163 0
M  V30 3869 C 365.244 -6.26667 -2.29879 0
M  V30 3870 H 364.514 -0.462013 -0.579332 0
M  V30 3871 H 367.161 -1.65845 -0.95748 0
M  V30 3872 H 365.466 -1.62692 -3.56425 0
M  V30 3873 H 367.163 -2.00712 -3.47154 0
M  V30 3874 H 363.753 -3.26264 -2.77939 0
M  V30 3875 H 367.937 -4.22696 -2.60081 0
M  V30 3876 H 363.193 -5.62519 -2.39546 0
M  V30 3877 H 367.367 -6.59813 -2.22754 0
M  V30 3878 H 364.994 -7.30049 -2.11975 0
M  V30 3879 N 366.569 1.04691 -1.17803 0
M  V30 3880 C 367.479 2.16057 -0.914151 0
M  V30 3881 C 368.495 1.73589 0.119503 0
M  V30 3882 O 369.671 2.01308 -0.0609468 0
M  V30 3883 C 366.736 3.4394 -0.436603 0
M  V30 3884 C 365.797 4.00825 -1.53746 0
M  V30 3885 C 365.03 5.22604 -1.0826 0
M  V30 3886 O 365.253 5.70367 0.0612244 0
M  V30 3887 O 364.187 5.7186 -1.87775 0
M  V30 3888 H 368.013 2.41169 -1.84584 0
M  V30 3889 H 365.598 1.1453 -0.959334 0
M  V30 3890 H 367.48 4.21024 -0.178057 0
M  V30 3891 H 366.155 3.20316 0.466869 0
M  V30 3892 H 365.062 3.25158 -1.84995 0
M  V30 3893 H 366.395 4.28778 -2.41683 0
M  V30 3894 N 368.047 0.979072 1.23499 0
M  V30 3895 C 368.995 0.510604 2.26926 0
M  V30 3896 C 369.989 -0.431691 1.63807 0
M  V30 3897 O 371.195 -0.30573 1.77385 0
M  V30 3898 H 367.57 0.146688 0.737554 0
M  V30 3899 H 369.541 1.39466 2.63803 0
M  V30 3900 C 368.29 -0.172658 3.47271 0
M  V30 3901 H 367.613 0.543331 3.96091 0
M  V30 3902 H 369.053 -0.464101 4.21452 0
M  V30 3903 C 367.512 -1.40345 3.06276 0
M  V30 3904 O 368.042 -2.49978 3.14442 0
M  V30 3905 N 366.248 -1.27362 2.61203 0
M  V30 3906 H 365.795 -0.381584 2.54758 0
M  V30 3907 H 365.753 -2.09822 2.34141 0
M  V30 3908 N 369.525 -1.3858 0.750561 0
M  V30 3909 C 370.458 -2.28095 0.0693139 0
M  V30 3910 C 371.436 -1.45217 -0.731491 0
M  V30 3911 O 372.62 -1.74587 -0.71076 0
M  V30 3912 C 369.747 -3.26282 -0.90871 0
M  V30 3913 C 368.793 -4.26056 -0.194507 0
M  V30 3914 S 369.626 -5.24026 1.10257 0
M  V30 3915 C 370.782 -6.2577 0.127542 0
M  V30 3916 H 371.015 -2.85526 0.8284 0
M  V30 3917 H 368.548 -1.44536 0.543014 0
M  V30 3918 H 370.506 -3.83367 -1.46766 0
M  V30 3919 H 369.167 -2.6784 -1.64075 0
M  V30 3920 H 368.36 -4.95249 -0.93512 0
M  V30 3921 H 367.962 -3.72852 0.292837 0
M  V30 3922 H 370.254 -6.73796 -0.707516 0
M  V30 3923 H 371.197 -7.03712 0.787044 0
M  V30 3924 H 371.605 -5.63938 -0.251803 0
M  V30 3925 N 371.003 -0.499398 -1.49478 0
M  V30 3926 C 372.252 0.0475259 -2.01644 0
M  V30 3927 C 372.565 1.38195 -1.38425 0
M  V30 3928 O 373.771 2.01547 -1.8191 0
M  V30 3929 C 372.227 0.135164 -3.59646 0
M  V30 3930 C 371.835 -1.19252 -4.31837 0
M  V30 3931 C 373.579 0.632538 -4.19761 0
M  V30 3932 C 371.486 -1.06713 -5.81693 0
M  V30 3933 H 370.416 0.0215349 -0.753692 0
M  V30 3934 H 373.067 -0.638577 -1.7203 0
M  V30 3935 H 371.449 0.885681 -3.85969 0
M  V30 3936 H 372.623 -1.9562 -4.17216 0
M  V30 3937 H 370.938 -1.62321 -3.83459 0
M  V30 3938 H 373.535 0.743833 -5.29501 0
M  V30 3939 H 373.878 1.63098 -3.83021 0
M  V30 3940 H 374.411 -0.0613987 -3.97753 0
M  V30 3941 H 371.15 -2.03979 -6.22955 0
M  V30 3942 H 370.67 -0.344307 -5.98811 0
M  V30 3943 H 372.349 -0.745208 -6.42694 0
M  V30 3944 N 372.481 1.55866 -0.233164 0
M  V30 3945 C 373.727 1.98897 0.395959 0
M  V30 3946 C 374.06 1.12091 1.58585 0
M  V30 3947 O 373.335 0.181182 1.93654 0
M  V30 3948 C 373.618 3.50658 0.819224 0
M  V30 3949 C 373.471 4.48233 -0.375109 0
M  V30 3950 C 374.79 4.07135 1.67121 0
M  V30 3951 H 371.909 0.723102 0.142451 0
M  V30 3952 H 374.551 1.87082 -0.331725 0
M  V30 3953 H 372.701 3.60857 1.43925 0
M  V30 3954 H 374.373 4.50031 -1.01341 0
M  V30 3955 H 372.616 4.21624 -1.02058 0
M  V30 3956 H 373.287 5.51988 -0.0358328 0
M  V30 3957 H 375.763 3.99952 1.14795 0
M  V30 3958 H 374.639 5.13615 1.93625 0
M  V30 3959 H 374.9 3.54736 2.63846 0
M  V30 3960 N 373.959 -0.0401083 1.57549 0
M  V30 3961 C 375.236 -0.767917 1.79896 0
M  V30 3962 C 375.616 -1.9416 0.82856 0
M  V30 3963 O 374.964 -2.2812 -0.131671 0
M  V30 3964 C 375.174 -1.2113 3.27305 0
M  V30 3965 C 376.522 -1.63175 3.91994 0
M  V30 3966 O 377.546 -1.30616 3.31388 0
M  V30 3967 O 376.405 -2.23565 4.98679 0
M  V30 3968 H 373.499 -0.370441 0.739393 0
M  V30 3969 H 376.045 -0.017737 1.69691 0
M  V30 3970 H 374.817 -0.372937 3.89519 0
M  V30 3971 H 374.44 -2.02183 3.42356 0
M  V30 3972 N 375.437 -1.54477 -0.31217 0
M  V30 3973 C 376.385 -1.85395 -1.40469 0
M  V30 3974 C 377.379 -0.726749 -1.53019 0
M  V30 3975 O 378.585 -0.910582 -1.55269 0
M  V30 3976 H 374.96 -0.587845 -0.46898 0
M  V30 3977 H 376.931 -2.76736 -1.11623 0
M  V30 3978 C 375.68 -2.10811 -2.76503 0
M  V30 3979 H 375.003 -2.97014 -2.67625 0
M  V30 3980 H 376.443 -2.3639 -3.51988 0
M  V30 3981 C 374.902 -0.903165 -3.24568 0
M  V30 3982 O 375.432 -0.118085 -4.01526 0
M  V30 3983 N 373.638 -0.711634 -2.81752 0
M  V30 3984 H 373.185 -1.35171 -2.19286 0
M  V30 3985 H 373.143 0.0930473 -3.14262 0
M  V30 3986 N 376.915 0.57481 -1.46744 0
M  V30 3987 C 378.143 1.35856 -1.56047 0
M  V30 3988 C 378.558 1.87691 -0.204365 0
M  V30 3989 O 377.915 1.64049 0.79963 0
M  V30 3990 C 377.966 2.54066 -2.57163 0
M  V30 3991 O 377.687 2.04377 -3.87507 0
M  V30 3992 C 379.188 3.46514 -2.76483 0
M  V30 3993 H 376.408 0.414754 -0.527466 0
M  V30 3994 H 378.952 0.698035 -1.92218 0
M  V30 3995 H 377.107 3.16092 -2.23974 0
M  V30 3996 H 377.521 2.81419 -4.4261 0
M  V30 3997 H 378.995 4.25919 -3.51137 0
M  V30 3998 H 379.472 3.98951 -1.83671 0
M  V30 3999 H 380.078 2.90318 -3.10799 0
M  V30 4000 N 378.394 1.34581 0.820102 0
M  V30 4001 C 379.622 1.3018 1.60813 0
M  V30 4002 C 380.037 -0.123551 1.88395 0
M  V30 4003 O 379.394 -1.07148 1.47735 0
M  V30 4004 C 379.445 2.09312 2.94739 0
M  V30 4005 O 379.166 3.46288 2.68358 0
M  V30 4006 C 380.667 2.1234 3.89136 0
M  V30 4007 H 377.887 0.447726 0.499782 0
M  V30 4008 H 380.431 1.77237 1.02017 0
M  V30 4009 H 378.586 1.65889 3.50085 0
M  V30 4010 H 379 3.87227 3.53774 0
M  V30 4011 H 380.474 2.72126 4.80262 0
M  V30 4012 H 380.951 1.11854 4.24718 0
M  V30 4013 H 381.557 2.55864 3.39726 0
M  V30 4014 N 379.872 -1.04064 1.18357 0
M  V30 4015 C 380.805 -2.11618 0.854 0
M  V30 4016 C 381.783 -1.61555 -0.184043 0
M  V30 4017 O 382.967 -1.88395 -0.0630048 0
M  V30 4018 C 380.094 -3.37574 0.27597 0
M  V30 4019 C 379.14 -4.06485 1.2912 0
M  V30 4020 S 379.973 -4.53543 2.84709 0
M  V30 4021 C 381.129 -5.82732 2.28417 0
M  V30 4022 H 381.362 -2.39247 1.76488 0
M  V30 4023 H 378.895 -1.16832 1.00944 0
M  V30 4024 H 380.853 -4.10468 -0.051026 0
M  V30 4025 H 379.514 -3.0806 -0.613028 0
M  V30 4026 H 378.707 -4.97024 0.835633 0
M  V30 4027 H 378.309 -3.39708 1.56443 0
M  V30 4028 H 380.601 -6.56677 1.66677 0
M  V30 4029 H 381.544 -6.33052 3.17256 0
M  V30 4030 H 381.952 -5.37838 1.71436 0
M  V30 4031 N 381.35 -0.985608 -1.22978 0
M  V30 4032 C 382.282 -0.488154 -2.23941 0
M  V30 4033 C 383.295 0.41282 -1.57479 0
M  V30 4034 O 384.484 0.216121 -1.77187 0
M  V30 4035 C 381.584 0.312611 -3.37455 0
M  V30 4036 C 380.757 -0.582741 -4.33501 0
M  V30 4037 C 379.816 0.165064 -5.25941 0
M  V30 4038 O 378.842 -0.447077 -5.67442 0
M  V30 4039 N 380.044 1.44953 -5.62111 0
M  V30 4040 H 382.809 -1.3563 -2.67254 0
M  V30 4041 H 380.37 -0.859477 -1.37203 0
M  V30 4042 H 382.362 0.821357 -3.96277 0
M  V30 4043 H 380.932 1.0818 -2.93285 0
M  V30 4044 H 380.152 -1.27225 -3.73105 0
M  V30 4045 H 381.44 -1.19275 -4.94622 0
M  V30 4046 H 380.838 1.9683 -5.30353 0
M  V30 4047 H 379.395 1.90361 -6.23383 0
M  V30 4048 N 382.828 1.3818 -0.7579 0
M  V30 4049 C 383.758 2.33027 -0.148597 0
M  V30 4050 C 384.739 1.55085 0.69875 0
M  V30 4051 O 385.924 1.83384 0.639053 0
M  V30 4052 C 383.054 3.3928 0.742034 0
M  V30 4053 C 382.008 4.28 -0.00291946 0
M  V30 4054 C 381.334 5.25146 1.00625 0
M  V30 4055 C 382.634 5.08938 -1.17385 0
M  V30 4056 H 384.328 2.84231 -0.940909 0
M  V30 4057 H 381.874 1.36659 -0.453908 0
M  V30 4058 H 383.827 4.046 1.17799 0
M  V30 4059 H 382.551 2.86569 1.56671 0
M  V30 4060 H 381.21 3.64192 -0.419504 0
M  V30 4061 H 380.858 4.68721 1.8251 0
M  V30 4062 H 380.558 5.85361 0.512428 0
M  V30 4063 H 382.082 5.93342 1.44143 0
M  V30 4064 H 383.496 5.67474 -0.815224 0
M  V30 4065 H 381.893 5.7841 -1.59882 0
M  V30 4066 H 382.963 4.42424 -1.98468 0
M  V30 4067 N 384.306 0.507319 1.49211 0
M  V30 4068 C 385.552 -0.0350047 2.0277 0
M  V30 4069 C 385.885 -1.3606 1.38569 0
M  V30 4070 O 385.16 -1.87321 0.523542 0
M  V30 4071 C 385.443 -0.180916 3.59645 0
M  V30 4072 C 385.296 1.16825 4.34364 0
M  V30 4073 C 386.615 -0.918558 4.30407 0
M  V30 4074 H 383.734 -0.0112473 0.736914 0
M  V30 4075 H 386.376 0.659956 1.7817 0
M  V30 4076 H 384.526 -0.772826 3.80736 0
M  V30 4077 H 386.198 1.79952 4.24753 0
M  V30 4078 H 384.441 1.75594 3.96673 0
M  V30 4079 H 385.112 1.01939 5.42506 0
M  V30 4080 H 387.588 -0.41649 4.1401 0
M  V30 4081 H 386.464 -0.989505 5.39907 0
M  V30 4082 H 386.725 -1.96373 3.96093 0
M  V30 4083 N 385.784 -1.5574 0.241426 0
M  V30 4084 C 387.009 -2.0366 -0.392111 0
M  V30 4085 C 387.434 -1.11969 -1.51144 0
M  V30 4086 O 386.792 -0.111594 -1.80956 0
M  V30 4087 C 386.84 -3.49638 -0.882371 0
M  V30 4088 O 385.944 -3.6108 -1.99235 0
M  V30 4089 H 385.285 -0.658379 -0.0862122 0
M  V30 4090 H 387.815 -2.01302 0.365881 0
M  V30 4091 H 387.825 -3.90351 -1.18702 0
M  V30 4092 H 386.5 -4.15852 -0.0632361 0
M  V30 4093 H 385.077 -3.32262 -1.69282 0
M  V30 4094 N 387.262 0.0317525 -1.57568 0
M  V30 4095 C 388.678 0.38735 -1.54828 0
M  V30 4096 C 388.878 1.7677 -0.967187 0
M  V30 4097 O 387.934 2.45581 -0.587063 0
M  V30 4098 C 389.247 0.291667 -2.99282 0
M  V30 4099 C 390.795 0.368946 -3.10818 0
M  V30 4100 C 391.27 0.302741 -4.56998 0
M  V30 4101 N 392.761 0.361617 -4.61786 0
M  V30 4102 C 393.496 0.333238 -5.72431 0
M  V30 4103 N 392.992 0.257308 -6.92322 0
M  V30 4104 N 394.785 0.382769 -5.60795 0
M  V30 4105 H 386.936 -0.871609 -1.93692 0
M  V30 4106 H 389.199 -0.331161 -0.888277 0
M  V30 4107 H 388.905 -0.656794 -3.45513 0
M  V30 4108 H 388.779 1.08638 -3.61217 0
M  V30 4109 H 391.166 1.30784 -2.64536 0
M  V30 4110 H 391.247 -0.455066 -2.5172 0
M  V30 4111 H 390.891 -0.632473 -5.03947 0
M  V30 4112 H 390.821 1.14482 -5.14005 0
M  V30 4113 H 393.312 0.422923 -3.75526 0
M  V30 4114 H 393.625 0.24068 -7.72425 0
M  V30 4115 H 391.97 0.223396 -6.94641 0
M  V30 4116 H 395.161 0.44006 -4.66027 0
M  V30 4117 H 395.334 0.357184 -6.47015 0
M  V30 4118 N 388.74 1.54641 0.303973 0
M  V30 4119 C 390.151 1.64811 0.877163 0
M  V30 4120 C 390.502 0.554838 1.88191 0
M  V30 4121 O 389.627 -0.309033 2.14182 0
M  V30 4122 C 390.222 2.9876 1.59775 0
M  V30 4123 C 388.781 3.11061 2.11938 0
M  V30 4124 C 387.928 2.60479 0.951097 0
M  V30 4125 H 390.879 1.58493 0.0810486 0
M  V30 4126 H 390.9 2.90017 2.46314 0
M  V30 4127 H 390.412 3.7831 0.866226 0
M  V30 4128 H 388.513 2.36225 2.88146 0
M  V30 4129 H 388.626 4.17171 2.35595 0
M  V30 4130 H 386.99 2.16859 1.33583 0
M  V30 4131 H 387.773 3.42504 0.233581 0
M  V30 4132 N 390.218 -0.567019 1.47046 0
M  V30 4133 C 391.15 -1.68985 1.54844 0
M  V30 4134 C 392.163 -1.56869 0.435431 0
M  V30 4135 O 393.352 -1.64006 0.70457 0
M  V30 4136 C 390.452 -3.07373 1.42742 0
M  V30 4137 C 389.625 -3.45339 2.6844 0
M  V30 4138 C 388.684 -4.62849 2.50314 0
M  V30 4139 O 387.71 -4.67922 3.24095 0
M  V30 4140 N 388.912 -5.58726 1.57499 0
M  V30 4141 H 391.677 -1.62745 2.51663 0
M  V30 4142 H 389.238 -0.753411 1.43302 0
M  V30 4143 H 391.23 -3.83803 1.28365 0
M  V30 4144 H 389.8 -3.07893 0.540445 0
M  V30 4145 H 389.02 -2.58455 2.97648 0
M  V30 4146 H 390.308 -3.67476 3.51907 0
M  V30 4147 H 389.706 -5.57376 0.966876 0
M  V30 4148 H 388.263 -6.34523 1.49078 0
M  V30 4149 N 391.696 -1.35014 -0.812953 0
M  V30 4150 C 392.628 -1.23262 -1.93233 0
M  V30 4151 C 393.641 -0.157371 -1.62038 0
M  V30 4152 O 394.83 -0.410096 -1.73725 0
M  V30 4153 C 391.93 -0.87392 -3.27438 0
M  V30 4154 C 391.103 -2.04622 -3.86586 0
M  V30 4155 C 390.162 -1.66432 -4.99186 0
M  V30 4156 O 389.188 -2.38222 -5.16951 0
M  V30 4157 N 390.39 -0.584248 -5.77552 0
M  V30 4158 H 393.155 -2.19699 -2.03844 0
M  V30 4159 H 390.716 -1.281 -0.99005 0
M  V30 4160 H 392.708 -0.600039 -4.00227 0
M  V30 4161 H 391.278 0.00057392 -3.126 0
M  V30 4162 H 390.498 -2.48427 -3.06068 0
M  V30 4163 H 391.786 -2.82999 -4.22835 0
M  V30 4164 H 391.184 0.0123526 -5.65699 0
M  V30 4165 H 389.741 -0.37013 -6.50748 0
M  V30 4166 N 393.175 1.03435 -1.18907 0
M  V30 4167 C 394.422 1.76743 -0.988334 0
M  V30 4168 C 394.75 1.88447 0.481441 0
M  V30 4169 O 394.005 1.39383 1.37371 0
M  V30 4170 C 394.304 3.19792 -1.59586 0
M  V30 4171 C 393.97 3.28108 -3.09283 0
M  V30 4172 C 392.632 3.30084 -3.5014 0
M  V30 4173 C 394.984 3.27696 -4.05296 0
M  V30 4174 C 392.312 3.29299 -4.85571 0
M  V30 4175 C 394.664 3.28451 -5.4065 0
M  V30 4176 C 393.328 3.28723 -5.80946 0
M  V30 4177 H 392.598 0.64675 -0.361657 0
M  V30 4178 H 395.245 1.21442 -1.48068 0
M  V30 4179 H 393.55 3.78136 -1.02568 0
M  V30 4180 H 395.247 3.75171 -1.41589 0
M  V30 4181 H 391.837 3.27294 -2.76725 0
M  V30 4182 H 396.021 3.25354 -3.74778 0
M  V30 4183 H 391.277 3.2783 -5.16079 0
M  V30 4184 H 395.451 3.27082 -6.14809 0
M  V30 4185 H 393.078 3.27868 -6.85862 0
M  V30 4186 N 394.653 0.992116 1.22453 0
M  V30 4187 C 395.93 0.583508 1.86694 0
M  V30 4188 C 396.31 -0.9392 1.89056 0
M  V30 4189 O 395.658 -1.82081 1.38053 0
M  V30 4190 C 395.868 1.20304 3.2761 0
M  V30 4191 C 397.216 1.30308 4.0411 0
M  V30 4192 O 398.24 1.15737 3.36873 0
M  V30 4193 O 397.099 1.53615 5.24466 0
M  V30 4194 H 394.193 0.198129 0.802916 0
M  V30 4195 H 396.739 1.08794 1.30238 0
M  V30 4196 H 395.511 2.24461 3.2052 0
M  V30 4197 H 395.134 0.684144 3.9167 0
M  V30 4198 N 396.131 -1.37776 0.765217 0
M  V30 4199 C 397.377 -2.00145 0.327072 0
M  V30 4200 C 397.71 -1.60607 -1.09175 0
M  V30 4201 O 396.985 -0.849127 -1.74986 0
M  V30 4202 C 397.268 -3.57109 0.46319 0
M  V30 4203 C 397.121 -4.06576 1.92395 0
M  V30 4204 C 398.44 -4.39888 -0.136473 0
M  V30 4205 H 395.559 -0.727113 0.120316 0
M  V30 4206 H 398.201 -1.63549 0.967039 0
M  V30 4207 H 396.351 -3.88414 -0.0816358 0
M  V30 4208 H 398.023 -3.85864 2.52798 0
M  V30 4209 H 396.266 -3.59011 2.43503 0
M  V30 4210 H 396.937 -5.15639 1.97028 0
M  V30 4211 H 399.413 -4.14803 0.328317 0
M  V30 4212 H 398.289 -5.48899 -0.0110582 0
M  V30 4213 H 398.55 -4.24758 -1.22608 0
M  V30 4214 N 397.609 -0.515225 -1.4894 0
M  V30 4215 C 398.542 0.302518 -2.26186 0
M  V30 4216 C 399.52 0.957895 -1.31389 0
M  V30 4217 O 400.704 0.985198 -1.60705 0
M  V30 4218 C 397.831 1.42719 -3.07163 0
M  V30 4219 C 396.877 0.884736 -4.17223 0
M  V30 4220 S 397.71 -0.235767 -5.34981 0
M  V30 4221 C 398.866 0.891731 -6.19515 0
M  V30 4222 H 399.099 -0.353076 -2.95196 0
M  V30 4223 H 396.632 -0.300753 -1.51443 0
M  V30 4224 H 398.59 2.07152 -3.54398 0
M  V30 4225 H 397.251 2.05445 -2.37595 0
M  V30 4226 H 396.444 1.72801 -4.73451 0
M  V30 4227 H 396.046 0.317362 -3.72651 0
M  V30 4228 H 398.338 1.79377 -6.53322 0
M  V30 4229 H 399.281 0.367751 -7.07144 0
M  V30 4230 H 399.689 1.16548 -5.52338 0
M  V30 4231 N 399.087 1.5561 -0.249682 0
M  V30 4232 C 400.333 1.99306 0.374841 0
M  V30 4233 C 400.666 1.13767 1.57387 0
M  V30 4234 O 399.941 0.201711 1.93451 0
M  V30 4235 C 400.224 3.51507 0.781986 0
M  V30 4236 C 400.077 4.4781 -0.422629 0
M  V30 4237 C 401.396 4.08884 1.62793 0
M  V30 4238 H 398.515 0.724572 0.134773 0
M  V30 4239 H 401.157 1.86719 -0.351549 0
M  V30 4240 H 399.307 3.62363 1.4009 0
M  V30 4241 H 400.979 4.48931 -1.06108 0
M  V30 4242 H 399.222 4.20518 -1.06524 0
M  V30 4243 H 399.893 5.51919 -0.0943766 0
M  V30 4244 H 402.369 4.01147 1.10547 0
M  V30 4245 H 401.245 5.1564 1.88166 0
M  V30 4246 H 401.506 3.57515 2.60068 0
M  V30 4247 N 400.565 -0.0233959 1.57583 0
M  V30 4248 C 401.498 -1.05549 2.02323 0
M  V30 4249 C 402.476 -1.34843 0.908626 0
M  V30 4250 O 403.66 -1.47404 1.17491 0
M  V30 4251 C 400.787 -2.38885 2.40108 0
M  V30 4252 C 399.833 -2.2541 3.62067 0
M  V30 4253 S 400.666 -1.60217 5.1097 0
M  V30 4254 C 401.822 -2.95032 5.52003 0
M  V30 4255 H 402.055 -0.674435 2.89549 0
M  V30 4256 H 399.588 -0.23355 1.52623 0
M  V30 4257 H 401.546 -3.15562 2.62547 0
M  V30 4258 H 400.207 -2.74137 1.53323 0
M  V30 4259 H 399.4 -3.23854 3.86179 0
M  V30 4260 H 399.002 -1.56876 3.39508 0
M  V30 4261 H 401.294 -3.91357 5.53033 0
M  V30 4262 H 402.237 -2.75646 6.52246 0
M  V30 4263 H 402.645 -2.97865 4.79517 0
M  V30 4264 N 402.043 -1.548 -0.295768 0
M  V30 4265 C 403.454 -1.65274 -0.868411 0
M  V30 4266 C 403.805 -0.56481 -1.87894 0
M  V30 4267 O 402.93 0.29767 -2.14343 0
M  V30 4268 C 403.525 -2.99603 -1.58188 0
M  V30 4269 C 402.084 -3.12181 -2.10286 0
M  V30 4270 C 401.231 -2.6098 -0.93727 0
M  V30 4271 H 404.182 -1.58534 -0.0726422 0
M  V30 4272 H 404.203 -2.91319 -2.44772 0
M  V30 4273 H 403.715 -3.78764 -0.846151 0
M  V30 4274 H 401.816 -2.3775 -2.8689 0
M  V30 4275 H 401.929 -4.18415 -2.33379 0
M  V30 4276 H 400.293 -2.17564 -1.32431 0
M  V30 4277 H 401.076 -3.42623 -0.215414 0
M  V30 4278 N 403.521 0.559213 -1.47345 0
M  V30 4279 C 404.469 1.68747 -1.60085 0
M  V30 4280 C 405.463 1.628 -0.46825 0
M  V30 4281 O 406.669 1.68009 -0.645977 0
M  V30 4282 H 403.044 0.558329 -0.503759 0
M  V30 4283 H 405.015 1.55138 -2.54902 0
M  V30 4284 C 403.764 3.07103 -1.63042 0
M  V30 4285 H 403.087 3.12361 -2.49541 0
M  V30 4286 H 404.527 3.85743 -1.76006 0
M  V30 4287 C 402.986 3.34935 -0.363357 0
M  V30 4288 O 403.516 3.98102 0.536416 0
M  V30 4289 N 401.722 2.89574 -0.244 0
M  V30 4290 H 401.269 2.38348 -0.977133 0
M  V30 4291 H 401.227 3.08566 0.602836 0
M  V30 4292 N 404.999 1.35443 0.805782 0
M  V30 4293 C 405.929 1.31095 1.93226 0
M  V30 4294 C 406.91 0.185244 1.69088 0
M  V30 4295 O 408.095 0.380332 1.90439 0
M  V30 4296 C 405.225 1.08299 3.29983 0
M  V30 4297 C 404.179 2.17519 3.68605 0
M  V30 4298 C 403.505 1.79887 5.03532 0
M  V30 4299 C 404.805 3.5949 3.78898 0
M  V30 4300 H 406.499 2.25352 1.97122 0
M  V30 4301 H 404.045 1.0848 0.946996 0
M  V30 4302 H 405.998 1.03897 4.08391 0
M  V30 4303 H 404.722 0.104885 3.26432 0
M  V30 4304 H 403.381 2.2102 2.92482 0
M  V30 4305 H 403.029 0.80693 4.96485 0
M  V30 4306 H 402.729 2.53001 5.30344 0
M  V30 4307 H 404.253 1.77011 5.84379 0
M  V30 4308 H 405.667 3.58307 4.47536 0
M  V30 4309 H 404.064 4.31371 4.1718 0
M  V30 4310 H 405.134 3.95584 2.80431 0
M  V30 4311 N 406.477 -1.02803 1.19454 0
M  V30 4312 C 407.707 -1.79581 1.02149 0
M  V30 4313 C 408.115 -1.84182 -0.432851 0
M  V30 4314 O 407.458 -1.28534 -1.31243 0
M  V30 4315 C 407.52 -3.25993 1.51554 0
M  V30 4316 C 407.184 -3.45025 2.99678 0
M  V30 4317 C 408.181 -3.35175 3.97434 0
M  V30 4318 C 405.866 -3.71212 3.38389 0
M  V30 4319 C 407.86 -3.51238 5.31893 0
M  V30 4320 C 405.547 -3.8692 4.73008 0
M  V30 4321 C 406.545 -3.76936 5.69569 0
M  V30 4322 O 406.233 -3.92179 7.01748 0
M  V30 4323 H 405.965 -0.571962 0.360327 0
M  V30 4324 H 408.519 -1.30367 1.58725 0
M  V30 4325 H 406.749 -3.76235 0.893543 0
M  V30 4326 H 408.438 -3.84368 1.30444 0
M  V30 4327 H 409.204 -3.14895 3.68872 0
M  V30 4328 H 405.083 -3.78075 2.6378 0
M  V30 4329 H 408.627 -3.43362 6.07247 0
M  V30 4330 H 404.524 -4.06699 5.01265 0
M  V30 4331 H 405.292 -4.09265 7.08833 0
M  V30 4332 N 407.956 -0.998596 -1.21925 0
M  V30 4333 C 409.204 -0.676325 -1.90448 0
M  V30 4334 C 409.525 0.794719 -1.78071 0
M  V30 4335 O 408.795 1.5701 -1.17152 0
M  V30 4336 H 407.375 -0.247165 -0.704925 0
M  V30 4337 H 410.037 -1.26633 -1.48156 0
M  V30 4338 H 409.133 -0.943858 -2.97486 0
M  V30 4339 N 409.434 1.37368 -0.772513 0
M  V30 4340 C 410.382 2.32134 -0.147111 0
M  V30 4341 C 411.376 1.54972 0.684106 0
M  V30 4342 O 412.582 1.70363 0.581083 0
M  V30 4343 H 408.957 0.751449 -0.028786 0
M  V30 4344 H 410.928 2.82464 -0.962112 0
M  V30 4345 C 409.677 3.40226 0.71703 0
M  V30 4346 H 409 3.99706 0.0867951 0
M  V30 4347 H 410.44 4.08897 1.12159 0
M  V30 4348 C 408.899 2.80372 1.86797 0
M  V30 4349 O 409.429 2.71183 2.96349 0
M  V30 4350 N 407.635 2.37904 1.66883 0
M  V30 4351 H 407.182 2.45578 0.777759 0
M  V30 4352 H 407.14 1.98202 2.44056 0
M  V30 4353 N 410.912 0.523116 1.48665 0
M  V30 4354 C 412.161 -0.01544 2.01694 0
M  V30 4355 C 412.474 -1.35975 1.40606 0
M  V30 4356 O 413.68 -1.98627 1.85093 0
M  V30 4357 C 412.136 -0.0779303 3.59816 0
M  V30 4358 C 411.744 1.26107 4.29885 0
M  V30 4359 C 413.488 -0.565678 4.20714 0
M  V30 4360 C 411.395 1.15954 5.79921 0
M  V30 4361 H 410.325 -0.00954163 0.75394 0
M  V30 4362 H 412.976 0.665865 1.70993 0
M  V30 4363 H 411.358 -0.824165 3.87329 0
M  V30 4364 H 412.532 2.02233 4.14051 0
M  V30 4365 H 410.847 1.68401 3.80828 0
M  V30 4366 H 413.444 -0.6595 5.30617 0
M  V30 4367 H 413.787 -1.56984 3.85567 0
M  V30 4368 H 414.32 0.12467 3.97605 0
M  V30 4369 H 411.059 2.13864 6.19631 0
M  V30 4370 H 410.579 0.439529 5.98187 0
M  V30 4371 H 412.258 0.847361 6.41427 0
M  V30 4372 N 412.39 -1.55475 0.257931 0
M  V30 4373 C 413.636 -1.99502 -0.364266 0
M  V30 4374 C 413.969 -1.146 -1.56782 0
M  V30 4375 O 413.244 -0.211968 -1.93342 0
M  V30 4376 C 413.527 -3.51917 -0.763333 0
M  V30 4377 C 413.38 -4.4758 0.446371 0
M  V30 4378 C 414.699 -4.09742 -1.60623 0
M  V30 4379 H 411.818 -0.725277 -0.130929 0
M  V30 4380 H 414.46 -1.8653 0.361446 0
M  V30 4381 H 412.61 -3.63101 -1.38166 0
M  V30 4382 H 414.282 -4.48362 1.08487 0
M  V30 4383 H 412.525 -4.19947 1.08753 0
M  V30 4384 H 413.196 -5.51862 0.123645 0
M  V30 4385 H 415.672 -4.01727 -1.08418 0
M  V30 4386 H 414.548 -5.16631 -1.85429 0
M  V30 4387 H 414.809 -3.58889 -2.58169 0
M  V30 4388 N 413.868 0.0150385 -1.57593 0
M  V30 4389 C 414.816 1.02958 -2.08572 0
M  V30 4390 C 415.81 1.36554 -1.00246 0
M  V30 4391 O 417.016 1.35295 -1.18724 0
M  V30 4392 H 413.391 0.349619 -0.665786 0
M  V30 4393 H 415.362 0.573932 -2.92829 0
M  V30 4394 C 414.111 2.31752 -2.59203 0
M  V30 4395 H 413.434 2.06765 -3.42182 0
M  V30 4396 H 414.874 3.01053 -2.98568 0
M  V30 4397 C 413.333 3.01692 -1.49945 0
M  V30 4398 O 413.863 3.92083 -0.873704 0
M  V30 4399 N 412.069 2.6326 -1.23056 0
M  V30 4400 H 411.616 1.89838 -1.74125 0
M  V30 4401 H 411.574 3.10372 -0.501685 0
M  V30 4402 N 415.346 1.54954 0.287554 0
M  V30 4403 C 416.294 1.87606 1.37502 0
M  V30 4404 C 417.288 0.751001 1.51843 0
M  V30 4405 O 418.494 0.935169 1.53801 0
M  V30 4406 H 414.869 0.595231 0.459569 0
M  V30 4407 H 416.84 2.78477 1.07206 0
M  V30 4408 C 415.589 2.15183 2.73115 0
M  V30 4409 H 414.912 3.01234 2.62866 0
M  V30 4410 H 416.352 2.4196 3.48183 0
M  V30 4411 C 414.811 0.954686 3.2309 0
M  V30 4412 O 415.341 0.181949 4.01288 0
M  V30 4413 N 413.547 0.756368 2.80584 0
M  V30 4414 H 413.094 1.38643 2.17108 0
M  V30 4415 H 413.052 -0.0430391 3.14371 0
M  V30 4416 N 416.824 -0.551391 1.4764 0
M  V30 4417 C 418.07 -1.31024 1.54792 0
M  V30 4418 C 418.403 -1.9304 0.211967 0
M  V30 4419 O 417.678 -1.78175 -0.77999 0
M  V30 4420 C 417.961 -2.41593 2.67029 0
M  V30 4421 C 417.814 -1.84408 4.10261 0
M  V30 4422 C 419.133 -3.43488 2.75143 0
M  V30 4423 H 416.252 -0.475031 0.563485 0
M  V30 4424 H 418.894 -0.616454 1.79722 0
M  V30 4425 H 417.044 -3.00772 2.45904 0
M  V30 4426 H 418.716 -1.29445 4.42766 0
M  V30 4427 H 416.959 -1.15051 4.18265 0
M  V30 4428 H 417.63 -2.64367 4.84576 0
M  V30 4429 H 420.106 -2.94236 2.94218 0
M  V30 4430 H 418.982 -4.18274 3.55441 0
M  V30 4431 H 419.243 -4.02703 1.82435 0
M  V30 4432 N 418.302 -1.35869 -0.798587 0
M  V30 4433 C 419.542 -1.30961 -1.56935 0
M  V30 4434 C 419.906 0.112404 -1.91671 0
M  V30 4435 O 421.107 0.285937 -2.67275 0
M  V30 4436 C 419.378 -2.19811 -2.81811 0
M  V30 4437 S 420.937 -2.32498 -3.72143 0
M  V30 4438 H 417.755 -0.465297 -0.537606 0
M  V30 4439 H 420.357 -1.71344 -0.941346 0
M  V30 4440 H 419.061 -3.22095 -2.54329 0
M  V30 4441 H 418.592 -1.80415 -3.49591 0
M  V30 4442 H 420.607 -1.5157 -4.72484 0
M  V30 4443 N 419.78 1.02168 -1.19998 0
M  V30 4444 C 420.743 2.08765 -0.94604 0
M  V30 4445 C 421.743 1.60618 0.0763846 0
M  V30 4446 O 422.933 1.73472 -0.159135 0
M  V30 4447 C 420.065 3.38262 -0.423255 0
M  V30 4448 H 421.258 2.32726 -1.89153 0
M  V30 4449 H 418.811 1.1889 -1.01464 0
M  V30 4450 H 419.546 3.19974 0.527938 0
M  V30 4451 H 419.331 3.74532 -1.16053 0
M  V30 4452 H 420.821 4.16759 -0.264911 0
M  V30 4453 N 421.258 1.00505 1.21394 0
M  V30 4454 C 422.506 0.686415 1.90086 0
M  V30 4455 C 422.827 -0.785264 1.7849 0
M  V30 4456 O 422.097 -1.56387 1.17983 0
M  V30 4457 H 420.677 0.2509 0.703604 0
M  V30 4458 H 423.339 1.27417 1.47482 0
M  V30 4459 H 422.435 0.959621 2.96981 0
M  V30 4460 N 422.737 -1.36956 0.779787 0
M  V30 4461 C 423.667 -2.32761 0.185651 0
M  V30 4462 C 424.648 -1.56177 -0.673989 0
M  V30 4463 O 425.833 -1.84378 -0.609797 0
M  V30 4464 C 422.963 -3.40418 -0.687964 0
M  V30 4465 C 421.917 -4.27941 0.0710102 0
M  V30 4466 C 421.243 -5.26681 -0.922573 0
M  V30 4467 C 422.543 -5.07006 1.25467 0
M  V30 4468 H 424.237 -2.82698 0.986008 0
M  V30 4469 H 421.783 -1.3592 0.475592 0
M  V30 4470 H 423.736 -4.06423 -1.11348 0
M  V30 4471 H 422.46 -2.89025 -1.52093 0
M  V30 4472 H 421.119 -3.63478 0.47739 0
M  V30 4473 H 420.767 -4.71565 -1.7503 0
M  V30 4474 H 420.467 -5.86103 -0.419237 0
M  V30 4475 H 421.991 -5.9556 -1.34686 0
M  V30 4476 H 423.405 -5.66105 0.905401 0
M  V30 4477 H 421.802 -5.75793 1.69063 0
M  V30 4478 H 422.872 -4.3921 2.05481 0
M  V30 4479 N 424.215 -0.530993 -1.48385 0
M  V30 4480 C 425.461 0.00274135 -2.028 0
M  V30 4481 C 425.794 1.33838 -1.40716 0
M  V30 4482 O 425.069 1.86465 -0.553277 0
M  V30 4483 C 425.352 0.123676 -3.59888 0
M  V30 4484 C 425.205 -1.2372 -4.3245 0
M  V30 4485 C 426.524 0.849967 -4.31814 0
M  V30 4486 H 423.643 -0.000477758 -0.737 0
M  V30 4487 H 426.285 -0.688217 -1.77098 0
M  V30 4488 H 424.435 0.712157 -3.81917 0
M  V30 4489 H 426.107 -1.86687 -4.21836 0
M  V30 4490 H 424.35 -1.81882 -3.93829 0
M  V30 4491 H 425.021 -1.10557 -5.40815 0
M  V30 4492 H 427.497 0.350572 -4.14621 0
M  V30 4493 H 426.373 0.903486 -5.41413 0
M  V30 4494 H 426.634 1.90047 -3.99167 0
M  V30 4495 N 425.693 1.55336 -0.266172 0
M  V30 4496 C 426.941 1.99003 0.35246 0
M  V30 4497 C 427.262 1.15591 1.57047 0
M  V30 4498 O 426.532 0.243268 1.94384 0
M  V30 4499 H 425.112 0.735025 0.133217 0
M  V30 4500 H 427.774 1.91367 -0.369434 0
M  V30 4501 H 426.87 3.05289 0.648453 0
M  V30 4502 N 427.171 -0.0066808 1.57599 0
M  V30 4503 C 428.419 -0.691552 1.899 0
M  V30 4504 C 428.74 -1.74682 0.866672 0
M  V30 4505 O 428.01 -1.95661 -0.0968189 0
M  V30 4506 H 426.59 -0.258416 0.700878 0
M  V30 4507 H 429.252 0.0326655 1.94873 0
M  V30 4508 H 428.348 -1.16702 2.8946 0
M  V30 4509 N 428.649 -1.55105 -0.279332 0
M  V30 4510 C 430.06 -1.66186 -0.850832 0
M  V30 4511 C 430.411 -0.584707 -1.87285 0
M  V30 4512 O 429.536 0.274919 -2.14647 0
M  V30 4513 C 430.131 -3.01264 -1.55001 0
M  V30 4514 C 428.69 -3.14394 -2.06963 0
M  V30 4515 C 427.837 -2.61959 -0.909536 0
M  V30 4516 H 430.788 -1.58602 -0.0558235 0
M  V30 4517 H 430.809 -2.93899 -2.41669 0
M  V30 4518 H 430.321 -3.7964 -0.805931 0
M  V30 4519 H 428.422 -2.4078 -2.84352 0
M  V30 4520 H 428.535 -4.20867 -2.28928 0
M  V30 4521 H 426.899 -2.18957 -1.30116 0
M  V30 4522 H 427.682 -3.42833 -0.179062 0
M  V30 4523 N 430.127 0.543554 -1.4793 0
M  V30 4524 C 431.375 1.29752 -1.54948 0
M  V30 4525 C 431.696 1.93764 -0.219242 0
M  V30 4526 O 430.966 1.80639 0.75805 0
M  V30 4527 H 429.546 0.481874 -0.570795 0
M  V30 4528 H 432.208 0.633636 -1.84312 0
M  V30 4529 H 431.304 2.08392 -2.32334 0
M  V30 4530 N 431.605 1.3629 0.791371 0
M  V30 4531 C 432.535 1.33137 1.91825 0
M  V30 4532 C 433.516 0.203168 1.68882 0
M  V30 4533 O 434.701 0.400509 1.90025 0
M  V30 4534 C 431.831 1.11793 3.28816 0
M  V30 4535 C 430.785 2.21417 3.66277 0
M  V30 4536 C 430.111 1.85218 5.01596 0
M  V30 4537 C 431.411 3.63489 3.75064 0
M  V30 4538 H 433.105 2.2743 1.9472 0
M  V30 4539 H 430.651 1.09479 0.935437 0
M  V30 4540 H 432.604 1.08222 4.07266 0
M  V30 4541 H 431.328 0.139501 3.26302 0
M  V30 4542 H 429.987 2.2411 2.90121 0
M  V30 4543 H 429.635 0.859544 4.95602 0
M  V30 4544 H 429.335 2.58611 5.27631 0
M  V30 4545 H 430.859 1.832 5.82469 0
M  V30 4546 H 432.273 3.63034 4.43711 0
M  V30 4547 H 430.67 4.35771 4.12582 0
M  V30 4548 H 431.74 3.98536 2.76219 0
M  V30 4549 N 433.083 -1.0153 1.20538 0
M  V30 4550 C 434.329 -1.75408 1.01783 0
M  V30 4551 C 434.662 -1.88943 -0.448814 0
M  V30 4552 O 433.937 -1.4162 -1.33319 0
M  V30 4553 C 434.22 -3.17255 1.70356 0
M  V30 4554 C 434.073 -3.11508 3.24473 0
M  V30 4555 C 435.392 -4.15955 1.43769 0
M  V30 4556 H 432.511 -0.636713 0.371167 0
M  V30 4557 H 435.153 -1.18436 1.4857 0
M  V30 4558 H 433.303 -3.65898 1.30578 0
M  V30 4559 H 434.975 -2.70658 3.73553 0
M  V30 4560 H 433.218 -2.4887 3.55311 0
M  V30 4561 H 433.889 -4.11784 3.67611 0
M  V30 4562 H 436.365 -3.75973 1.7828 0
M  V30 4563 H 435.241 -5.13368 1.94279 0
M  V30 4564 H 435.502 -4.40586 0.365564 0
M  V30 4565 N 434.561 -1.01147 -1.20859 0
M  V30 4566 C 435.524 -0.582224 -2.21682 0
M  V30 4567 C 436.524 0.344887 -1.57058 0
M  V30 4568 O 437.714 0.134281 -1.73682 0
M  V30 4569 C 434.846 0.150496 -3.40568 0
M  V30 4570 H 436.039 -1.47408 -2.61172 0
M  V30 4571 H 433.592 -0.800695 -1.34233 0
M  V30 4572 H 434.327 1.0575 -3.06574 0
M  V30 4573 H 434.112 -0.515444 -3.88697 0
M  V30 4574 H 435.602 0.438344 -4.15293 0
M  V30 4575 N 436.039 1.36541 -0.78704 0
M  V30 4576 C 437.287 1.98911 -0.357633 0
M  V30 4577 C 437.608 1.62778 1.07371 0
M  V30 4578 O 436.878 0.900612 1.73971 0
M  V30 4579 H 435.458 0.735734 -0.129246 0
M  V30 4580 H 438.12 1.66776 -1.00855 0
M  V30 4581 H 437.216 3.08874 -0.447549 0
M  V30 4582 N 437.518 0.538854 1.48102 0
M  V30 4583 C 438.481 -0.208395 2.28251 0
M  V30 4584 C 439.481 -0.859656 1.35892 0
M  V30 4585 O 440.671 -0.71834 1.58699 0
M  V30 4586 C 437.803 -1.30252 3.15035 0
M  V30 4587 H 438.996 0.495407 2.9578 0
M  V30 4588 H 436.549 0.295112 1.53489 0
M  V30 4589 H 437.284 -2.0393 2.52157 0
M  V30 4590 H 437.069 -0.840551 3.82985 0
M  V30 4591 H 438.559 -1.82787 3.75471 0
M  V30 4592 N 438.996 -1.55193 0.274407 0
M  V30 4593 C 439.944 -2.23924 -0.629362 0
M  V30 4594 C 440.938 -1.23602 -1.1584 0
M  V30 4595 O 442.144 -1.41535 -1.11211 0
M  V30 4596 H 438.519 -0.718637 -0.221507 0
M  V30 4597 H 440.49 -2.98388 -0.0268322 0
M  V30 4598 C 439.239 -2.97329 -1.80252 0
M  V30 4599 H 438.562 -3.74313 -1.40462 0
M  V30 4600 H 440.002 -3.48743 -2.41152 0
M  V30 4601 C 438.461 -2.0276 -2.69054 0
M  V30 4602 O 438.991 -1.57836 -3.69392 0
M  V30 4603 N 437.197 -1.69275 -2.36208 0
M  V30 4604 H 436.744 -2.06004 -1.54661 0
M  V30 4605 H 436.702 -1.06271 -2.95895 0
M  V30 4606 N 440.474 -0.00167713 -1.576 0
M  V30 4607 C 441.704 0.692754 -1.94639 0
M  V30 4608 C 442.112 1.67744 -0.87513 0
M  V30 4609 O 441.455 1.8305 0.154382 0
M  V30 4610 C 441.517 1.47881 -3.27676 0
M  V30 4611 C 441.181 0.655518 -4.52274 0
M  V30 4612 C 442.178 -0.0575214 -5.19868 0
M  V30 4613 C 439.863 0.600994 -4.98692 0
M  V30 4614 C 441.857 -0.814052 -6.3218 0
M  V30 4615 C 439.544 -0.15926 -6.10892 0
M  V30 4616 C 440.542 -0.865515 -6.77494 0
M  V30 4617 O 440.23 -1.61336 -7.87544 0
M  V30 4618 H 439.962 0.197792 -0.646417 0
M  V30 4619 H 442.516 -0.049423 -2.05341 0
M  V30 4620 H 440.746 2.2655 -3.13388 0
M  V30 4621 H 442.435 2.05874 -3.49816 0
M  V30 4622 H 443.201 -0.0245611 -4.84994 0
M  V30 4623 H 439.08 1.14025 -4.46676 0
M  V30 4624 H 442.624 -1.36584 -6.84098 0
M  V30 4625 H 438.521 -0.194035 -6.45208 0
M  V30 4626 H 439.289 -1.53025 -8.04068 0
M  V30 4627 N 441.952 1.55251 0.271103 0
M  V30 4628 C 443.2 1.75599 1.00047 0
M  V30 4629 C 443.521 0.561188 1.8675 0
M  V30 4630 O 442.791 -0.423846 1.9126 0
M  V30 4631 H 441.371 0.647562 0.372387 0
M  V30 4632 H 444.033 1.92656 0.294876 0
M  V30 4633 H 443.129 2.65766 1.6363 0
M  V30 4634 N 443.43 -0.535701 1.48216 0
M  V30 4635 C 444.38 -1.63688 1.58714 0
M  V30 4636 C 445.364 -1.54635 0.444615 0
M  V30 4637 O 446.556 -1.62753 0.695742 0
M  V30 4638 C 443.685 -3.02423 1.62466 0
M  V30 4639 C 442.771 -3.16601 2.82178 0
M  V30 4640 N 443.162 -3.00771 4.06658 0
M  V30 4641 C 441.46 -3.47645 2.79391 0
M  V30 4642 C 442.161 -3.18213 4.86945 0
M  V30 4643 N 441.137 -3.45528 4.19656 0
M  V30 4644 H 444.939 -1.5005 2.5271 0
M  V30 4645 H 442.453 -0.741018 1.44508 0
M  V30 4646 H 444.45 -3.81517 1.6808 0
M  V30 4647 H 443.11 -3.17157 0.695826 0
M  V30 4648 H 444.121 -2.77652 4.37184 0
M  V30 4649 H 440.798 -3.68771 1.95739 0
M  V30 4650 H 442.188 -3.1076 5.95716 0
M  V30 4651 N 444.908 -1.36708 -0.784132 0
M  V30 4652 C 446.154 -1.31426 -1.54451 0
M  V30 4653 C 446.487 0.10476 -1.93917 0
M  V30 4654 O 445.762 1.05934 -1.6312 0
M  V30 4655 C 446.045 -2.24189 -2.818 0
M  V30 4656 C 445.898 -3.74813 -2.48667 0
M  V30 4657 C 447.217 -2.15626 -3.83658 0
M  V30 4658 H 444.336 -0.478739 -0.560337 0
M  V30 4659 H 446.978 -1.67305 -0.900498 0
M  V30 4660 H 445.128 -1.93722 -3.36755 0
M  V30 4661 H 446.8 -4.15823 -1.99722 0
M  V30 4662 H 445.043 -3.93989 -1.81535 0
M  V30 4663 H 445.714 -4.35138 -3.39646 0
M  V30 4664 H 448.19 -2.42456 -3.38163 0
M  V30 4665 H 447.066 -2.82694 -4.70506 0
M  V30 4666 H 447.327 -1.14522 -4.27009 0
M  V30 4667 N 446.386 1.0089 -1.21074 0
M  V30 4668 C 447.616 1.77933 -1.04993 0
M  V30 4669 C 448.024 1.84847 0.403495 0
M  V30 4670 O 447.367 1.30606 1.29181 0
M  V30 4671 C 447.429 3.23541 -1.56722 0
M  V30 4672 C 447.093 3.40214 -3.05129 0
M  V30 4673 C 448.09 3.2881 -4.02716 0
M  V30 4674 C 445.775 3.65781 -3.44252 0
M  V30 4675 C 447.769 3.42732 -5.37414 0
M  V30 4676 C 445.456 3.79346 -4.79103 0
M  V30 4677 C 446.454 3.67827 -5.75493 0
M  V30 4678 O 446.142 3.80965 -7.07899 0
M  V30 4679 H 445.874 0.566157 -0.369381 0
M  V30 4680 H 448.428 1.27826 -1.60779 0
M  V30 4681 H 446.658 3.74766 -0.953285 0
M  V30 4682 H 448.347 3.82245 -1.36543 0
M  V30 4683 H 449.113 3.08986 -3.73835 0
M  V30 4684 H 444.992 3.73831 -2.69762 0
M  V30 4685 H 448.536 3.33658 -6.12632 0
M  V30 4686 H 444.433 3.98672 -5.07672 0
M  V30 4687 H 445.201 3.97937 -7.15254 0
M  V30 4688 N 447.864 1.01787 1.20321 0
M  V30 4689 C 448.827 0.593972 2.2137 0
M  V30 4690 C 449.827 -0.336553 1.57239 0
M  V30 4691 O 451.017 -0.125069 1.7375 0
M  V30 4692 C 448.149 -0.132433 3.40643 0
M  V30 4693 H 449.342 1.48791 2.60387 0
M  V30 4694 H 446.895 0.807803 1.33807 0
M  V30 4695 H 447.63 -1.04123 3.0713 0
M  V30 4696 H 447.415 0.53605 3.88418 0
M  V30 4697 H 448.905 -0.416314 4.1552 0
M  V30 4698 N 449.342 -1.36122 0.79427 0
M  V30 4699 C 450.588 -1.99406 0.369452 0
M  V30 4700 C 450.921 -1.62886 -1.05743 0
M  V30 4701 O 450.196 -0.886053 -1.73145 0
M  V30 4702 C 450.479 -3.56046 0.538833 0
M  V30 4703 C 450.332 -4.02404 2.00976 0
M  V30 4704 C 451.651 -4.40079 -0.0431359 0
M  V30 4705 H 448.77 -0.724397 0.135712 0
M  V30 4706 H 451.412 -1.61461 1.00151 0
M  V30 4707 H 449.562 -3.885 0.000771004 0
M  V30 4708 H 451.234 -3.80415 2.60926 0
M  V30 4709 H 449.477 -3.53765 2.51063 0
M  V30 4710 H 450.148 -5.11344 2.07922 0
M  V30 4711 H 452.624 -4.14013 0.416228 0
M  V30 4712 H 451.5 -5.48799 0.105374 0
M  V30 4713 H 451.761 -4.27264 -1.13571 0
M  V30 4714 N 450.82 -0.546701 -1.47814 0
M  V30 4715 C 452.067 -0.0187407 -2.02491 0
M  V30 4716 C 452.395 1.32685 -1.42215 0
M  V30 4717 O 451.65 1.87413 -0.563454 0
M  V30 4718 C 451.949 0.134869 -3.57145 0
M  V30 4719 C 451.615 -1.13849 -4.3629 0
M  V30 4720 C 450.277 -1.48743 -4.57634 0
M  V30 4721 C 452.629 -1.98277 -4.82012 0
M  V30 4722 C 449.957 -2.67932 -5.21948 0
M  V30 4723 C 452.309 -3.16659 -5.4764 0
M  V30 4724 C 450.973 -3.51879 -5.67219 0
M  V30 4725 H 450.243 -0.0068577 -0.740968 0
M  V30 4726 H 452.89 -0.716097 -1.77607 0
M  V30 4727 H 451.195 0.915118 -3.80963 0
M  V30 4728 H 452.892 0.558556 -3.97091 0
M  V30 4729 H 449.482 -0.856767 -4.19949 0
M  V30 4730 H 453.666 -1.72628 -4.6531 0
M  V30 4731 H 448.922 -2.95401 -5.35302 0
M  V30 4732 H 453.096 -3.82374 -5.82033 0
M  V30 4733 H 450.723 -4.44331 -6.16825 0
M  V30 4734 N 452.299 1.55045 -0.282633 0
M  V30 4735 C 453.209 2.26491 0.61147 0
M  V30 4736 C 454.225 1.29348 1.16384 0
M  V30 4737 O 455.401 1.62298 1.19253 0
M  V30 4738 C 452.466 2.97779 1.77563 0
M  V30 4739 C 451.527 4.10418 1.25919 0
M  V30 4740 C 450.76 4.78297 2.36786 0
M  V30 4741 O 450.983 4.45426 3.56303 0
M  V30 4742 O 449.917 5.66089 2.04517 0
M  V30 4743 H 453.743 3.03683 0.0324615 0
M  V30 4744 H 451.328 1.49317 -0.0497576 0
M  V30 4745 H 453.21 3.42554 2.45427 0
M  V30 4746 H 451.885 2.23498 2.34159 0
M  V30 4747 H 450.792 3.70082 0.546797 0
M  V30 4748 H 452.125 4.86622 0.738887 0
M  V30 4749 N 453.777 0.010035 1.57597 0
M  V30 4750 C 455.005 -0.683413 1.95287 0
M  V30 4751 C 455.42 -1.66747 0.885481 0
M  V30 4752 O 454.777 -1.82003 -0.134629 0
M  V30 4753 C 454.828 -1.40652 3.33015 0
M  V30 4754 O 454.549 -0.461916 4.35658 0
M  V30 4755 C 456.05 -2.19356 3.85225 0
M  V30 4756 H 453.27 -0.189708 0.643624 0
M  V30 4757 H 455.814 0.0641359 2.04399 0
M  V30 4758 H 453.969 -2.10562 3.2518 0
M  V30 4759 H 454.383 -0.973215 5.15392 0
M  V30 4760 H 455.857 -2.65433 4.83993 0
M  V30 4761 H 456.334 -3.02457 3.18459 0
M  V30 4762 H 456.94 -1.54442 3.96267 0
M  V30 4763 N 455.255 -1.55392 -0.262866 0
M  V30 4764 C 456.218 -1.88181 -1.30846 0
M  V30 4765 C 457.218 -0.757079 -1.41862 0
M  V30 4766 O 458.408 -1.02519 -1.40838 0
M  V30 4767 C 455.54 -2.09609 -2.68844 0
M  V30 4768 H 456.733 -2.81659 -1.02997 0
M  V30 4769 H 454.286 -1.48039 -0.501414 0
M  V30 4770 H 455.021 -1.18547 -3.01856 0
M  V30 4771 H 454.806 -2.91508 -2.62231 0
M  V30 4772 H 456.296 -2.36215 -3.44372 0
M  V30 4773 N 456.733 0.527833 -1.48498 0
M  V30 4774 C 457.961 1.30823 -1.6029 0
M  V30 4775 C 458.376 1.86945 -0.263974 0
M  V30 4776 O 457.733 1.6651 0.747034 0
M  V30 4777 C 457.784 2.45756 -2.65116 0
M  V30 4778 O 457.505 1.91946 -3.93813 0
M  V30 4779 C 459.006 3.37543 -2.87367 0
M  V30 4780 H 456.226 0.397763 -0.540394 0
M  V30 4781 H 458.77 0.636529 -1.94341 0
M  V30 4782 H 456.925 3.08806 -2.33917 0
M  V30 4783 H 457.339 2.67195 -4.51339 0
M  V30 4784 H 458.813 4.14532 -3.6451 0
M  V30 4785 H 459.29 3.92905 -1.9627 0
M  V30 4786 H 459.896 2.80283 -3.19878 0
M  V30 4787 N 458.211 1.37122 0.776871 0
M  V30 4788 C 459.627 1.1781 1.07671 0
M  V30 4789 C 459.827 0.0107454 2.01497 0
M  V30 4790 O 458.883 -0.650756 2.4397 0
M  V30 4791 C 460.196 2.49451 1.67913 0
M  V30 4792 C 461.744 2.55927 1.80195 0
M  V30 4793 C 462.219 3.87686 2.43851 0
M  V30 4794 N 463.71 3.891 2.51307 0
M  V30 4795 C 464.445 4.87797 3.014 0
M  V30 4796 N 463.941 5.96888 3.51705 0
M  V30 4797 N 465.734 4.75205 3.00227 0
M  V30 4798 H 457.885 2.11843 0.153778 0
M  V30 4799 H 460.148 0.938927 0.130844 0
M  V30 4800 H 459.854 3.35207 1.06439 0
M  V30 4801 H 459.728 2.66169 2.67271 0
M  V30 4802 H 462.115 1.70582 2.40803 0
M  V30 4803 H 462.196 2.43097 0.796069 0
M  V30 4804 H 461.84 4.73444 1.83884 0
M  V30 4805 H 461.77 3.97817 3.45035 0
M  V30 4806 H 464.261 3.10293 2.157 0
M  V30 4807 H 464.574 6.68155 3.88316 0
M  V30 4808 H 462.919 6.0054 3.49824 0
M  V30 4809 H 466.11 3.89103 2.60224 0
M  V30 4810 H 466.283 5.52279 3.38957 0
M  V30 4811 N 459.689 -1.00246 1.21608 0
M  V30 4812 C 460.637 -2.11193 0.97469 0
M  V30 4813 C 461.631 -1.69216 -0.0789303 0
M  V30 4814 O 462.837 -1.79853 0.0726806 0
M  V30 4815 H 459.212 -0.690455 0.297953 0
M  V30 4816 H 461.183 -2.2873 1.91638 0
M  V30 4817 C 459.932 -3.43182 0.558717 0
M  V30 4818 H 459.255 -3.75918 1.3611 0
M  V30 4819 H 460.695 -4.21823 0.429154 0
M  V30 4820 C 459.154 -3.28882 -0.730648 0
M  V30 4821 O 459.684 -3.59835 -1.78554 0
M  V30 4822 N 457.89 -2.8209 -0.698131 0
M  V30 4823 H 457.437 -2.57099 0.16061 0
M  V30 4824 H 457.395 -2.72903 -1.56113 0
M  V30 4825 N 461.167 -1.02423 -1.1978 0
M  V30 4826 C 462.395 -0.737456 -1.93311 0
M  V30 4827 C 462.81 0.703023 -1.75223 0
M  V30 4828 O 462.167 1.47761 -1.07112 0
M  V30 4829 C 462.218 -1.0733 -3.45199 0
M  V30 4830 O 461.939 -2.4572 -3.62702 0
M  V30 4831 C 463.44 -0.80866 -4.35862 0
M  V30 4832 H 460.66 -0.2702 -0.614193 0
M  V30 4833 H 463.204 -1.36747 -1.52054 0
M  V30 4834 H 461.359 -0.488545 -3.84307 0
M  V30 4835 H 461.773 -2.58081 -4.56612 0
M  V30 4836 H 463.247 -1.09365 -5.41057 0
M  V30 4837 H 463.724 0.257025 -4.38447 0
M  V30 4838 H 464.33 -1.37592 -4.02428 0
M  V30 4839 N 462.645 1.35699 -0.801477 0
M  V30 4840 C 463.893 1.9852 -0.37871 0
M  V30 4841 C 464.214 1.63907 1.05638 0
M  V30 4842 O 463.484 0.919013 1.73006 0
M  V30 4843 H 462.064 0.734322 -0.137042 0
M  V30 4844 H 464.726 1.65697 -1.02619 0
M  V30 4845 H 463.822 3.08382 -0.480284 0
M  V30 4846 N 464.123 0.554532 1.47522 0
M  V30 4847 C 465.07 -0.19466 2.29978 0
M  V30 4848 C 466.04 -0.910882 1.38896 0
M  V30 4849 O 467.225 -0.907102 1.67858 0
M  V30 4850 C 464.365 -1.22035 3.22802 0
M  V30 4851 C 463.478 -0.510474 4.28973 0
M  V30 4852 C 462.613 -1.52123 5.08952 0
M  V30 4853 C 461.652 -0.796173 6.069 0
M  V30 4854 N 460.789 -1.75363 6.79847 0
M  V30 4855 H 465.629 0.51461 2.93523 0
M  V30 4856 H 463.166 0.265607 1.44682 0
M  V30 4857 H 465.124 -1.8276 3.7504 0
M  V30 4858 H 463.754 -1.89769 2.61127 0
M  V30 4859 H 462.806 0.211234 3.79813 0
M  V30 4860 H 464.118 0.0576503 4.98767 0
M  V30 4861 H 463.272 -2.20207 5.65326 0
M  V30 4862 H 462.011 -2.12327 4.39054 0
M  V30 4863 H 461.016 -0.101388 5.49707 0
M  V30 4864 H 462.241 -0.199911 6.78806 0
M  V30 4865 H 460.187 -2.3443 6.12682 0
M  V30 4866 H 460.104 -1.23759 7.45801 0
M  V30 4867 H 461.372 -2.4257 7.40797 0
M  V30 4868 N 465.601 -1.54893 0.290851 0
M  V30 4869 C 466.826 -2.04804 -0.32712 0
M  V30 4870 C 467.251 -1.16721 -1.47506 0
M  V30 4871 O 466.609 -0.169107 -1.8051 0
M  V30 4872 C 466.657 -3.52268 -0.770689 0
M  V30 4873 O 465.761 -3.67236 -1.87647 0
M  V30 4874 H 465.102 -0.660789 -0.0652227 0
M  V30 4875 H 467.632 -2.00036 0.429739 0
M  V30 4876 H 467.642 -3.9393 -1.06223 0
M  V30 4877 H 466.317 -4.15843 0.069096 0
M  V30 4878 H 464.894 -3.37479 -1.58626 0
M  V30 4879 N 467.08 -0.0183926 -1.57589 0
M  V30 4880 C 468.329 0.66185 -1.90532 0
M  V30 4881 C 468.642 1.73904 -0.895366 0
M  V30 4882 O 469.848 2.47518 -1.11566 0
M  V30 4883 C 468.304 1.22844 -3.38286 0
M  V30 4884 C 467.912 0.185103 -4.47617 0
M  V30 4885 C 469.656 1.88581 -3.80312 0
M  V30 4886 C 467.563 0.762723 -5.86461 0
M  V30 4887 H 466.493 0.250972 -0.711006 0
M  V30 4888 H 469.144 -0.0819435 -1.83317 0
M  V30 4889 H 467.526 2.0235 -3.40398 0
M  V30 4890 H 468.7 -0.58671 -4.5705 0
M  V30 4891 H 467.015 -0.372889 -4.14727 0
M  V30 4892 H 469.612 2.32735 -4.81392 0
M  V30 4893 H 469.955 2.72408 -3.14801 0
M  V30 4894 H 470.488 1.15782 -3.80578 0
M  V30 4895 H 467.227 -0.0371713 -6.55489 0
M  V30 4896 H 466.747 1.50327 -5.80656 0
M  V30 4897 H 468.426 1.25576 -6.34697 0
M  V30 4898 N 468.558 1.5553 0.254621 0
M  V30 4899 C 469.521 1.88872 1.29846 0
M  V30 4900 C 470.521 0.764591 1.41459 0
M  V30 4901 O 471.711 1.03265 1.40293 0
M  V30 4902 C 468.843 2.11032 2.67728 0
M  V30 4903 H 470.036 2.82201 1.01502 0
M  V30 4904 H 467.589 1.48303 0.493556 0
M  V30 4905 H 468.324 1.20146 3.01223 0
M  V30 4906 H 468.109 2.92895 2.60682 0
M  V30 4907 H 469.599 2.38038 3.43115 0
M  V30 4908 N 470.036 -0.519951 1.48776 0
M  V30 4909 C 470.984 -1.64443 1.64503 0
M  V30 4910 C 471.978 -1.61501 0.511248 0
M  V30 4911 O 473.184 -1.66238 0.690294 0
M  V30 4912 H 469.559 -0.544776 0.518385 0
M  V30 4913 H 471.53 -1.48325 2.58925 0
M  V30 4914 C 470.279 -3.02673 1.71127 0
M  V30 4915 H 469.602 -3.05635 2.57735 0
M  V30 4916 H 471.042 -3.80941 1.86172 0
M  V30 4917 C 469.501 -3.33854 0.452032 0
M  V30 4918 O 470.031 -3.99385 -0.430678 0
M  V30 4919 N 468.237 -2.88825 0.32069 0
M  V30 4920 H 467.784 -2.35674 1.03998 0
M  V30 4921 H 467.742 -3.10056 -0.520814 0
M  V30 4922 N 471.514 -1.37532 -0.769588 0
M  V30 4923 C 472.461 -1.3347 -1.88293 0
M  V30 4924 C 473.431 -0.199891 -1.64893 0
M  V30 4925 O 474.616 -0.389594 -1.8678 0
M  V30 4926 C 471.756 -1.14968 -3.25387 0
M  V30 4927 C 470.869 -2.37698 -3.60727 0
M  V30 4928 C 470.004 -2.12051 -4.8704 0
M  V30 4929 C 469.043 -3.30636 -5.15117 0
M  V30 4930 N 468.18 -3.04527 -6.3262 0
M  V30 4931 H 473.02 -2.28658 -1.911 0
M  V30 4932 H 470.557 -1.13622 -0.934257 0
M  V30 4933 H 472.515 -1.02261 -4.04473 0
M  V30 4934 H 471.145 -0.234263 -3.21949 0
M  V30 4935 H 470.197 -2.61137 -2.76608 0
M  V30 4936 H 471.509 -3.26131 -3.77413 0
M  V30 4937 H 470.663 -1.96388 -5.74035 0
M  V30 4938 H 469.402 -1.20959 -4.72462 0
M  V30 4939 H 468.407 -3.46836 -4.26597 0
M  V30 4940 H 469.632 -4.22582 -5.31603 0
M  V30 4941 H 467.578 -2.16067 -6.19396 0
M  V30 4942 H 467.495 -3.86503 -6.49732 0
M  V30 4943 H 468.763 -2.92485 -7.22546 0
M  V30 4944 N 472.992 0.995999 -1.22138 0
M  V30 4945 C 473.94 2.10673 -0.985876 0
M  V30 4946 C 474.934 1.69255 0.0699553 0
M  V30 4947 O 476.14 1.79812 -0.0822176 0
M  V30 4948 H 472.515 0.688865 -0.30161 0
M  V30 4949 H 474.486 2.27711 -1.92848 0
M  V30 4950 C 473.235 3.42881 -0.576909 0
M  V30 4951 H 472.558 3.75191 -1.38101 0
M  V30 4952 H 473.998 4.21589 -0.451518 0
M  V30 4953 C 472.457 3.29265 0.713196 0
M  V30 4954 O 472.987 3.60777 1.76643 0
M  V30 4955 N 471.193 2.82456 0.683162 0
M  V30 4956 H 470.74 2.5701 -0.174242 0
M  V30 4957 H 470.698 2.73727 1.54663 0
M  V30 4958 N 474.47 1.03057 1.19235 0
M  V30 4959 C 475.719 0.72326 1.88287 0
M  V30 4960 C 476.032 -0.751333 1.80594 0
M  V30 4961 O 477.238 -1.17176 2.44912 0
M  V30 4962 C 475.694 1.24338 3.3774 0
M  V30 4963 C 475.302 2.74587 3.53986 0
M  V30 4964 C 477.046 1.01213 4.12257 0
M  V30 4965 C 474.953 3.20009 4.97341 0
M  V30 4966 H 473.883 0.266848 0.705201 0
M  V30 4967 H 476.534 1.24509 1.34795 0
M  V30 4968 H 474.916 0.649457 3.90638 0
M  V30 4969 H 476.09 3.39649 3.11408 0
M  V30 4970 H 474.405 2.9601 2.9286 0
M  V30 4971 H 477.002 1.32675 5.17978 0
M  V30 4972 H 477.345 -0.051001 4.16269 0
M  V30 4973 H 477.878 1.57014 3.65501 0
M  V30 4974 H 474.617 4.25659 4.98493 0
M  V30 4975 H 474.137 2.59676 5.40674 0
M  V30 4976 H 475.816 3.13447 5.66003 0
M  V30 4977 N 475.948 -1.35272 0.808662 0
M  V30 4978 C 476.911 -2.28082 0.226093 0
M  V30 4979 C 477.911 -1.49673 -0.587762 0
M  V30 4980 O 479.101 -1.69404 -0.405943 0
M  V30 4981 C 476.233 -3.33955 -0.684596 0
M  V30 4982 H 477.426 -2.81116 1.04469 0
M  V30 4983 H 474.979 -1.45162 0.579466 0
M  V30 4984 H 475.714 -2.86111 -1.5268 0
M  V30 4985 H 475.499 -3.91965 -0.102699 0
M  V30 4986 H 476.989 -4.03219 -1.08646 0
M  V30 4987 N 477.426 -0.562348 -1.47226 0
M  V30 4988 C 478.374 0.195476 -2.31777 0
M  V30 4989 C 479.368 0.90433 -1.43242 0
M  V30 4990 O 480.574 0.825031 -1.59979 0
M  V30 4991 H 476.949 0.0819095 -0.747526 0
M  V30 4992 H 478.92 -0.536753 -2.93533 0
M  V30 4993 C 477.669 1.20902 -3.26003 0
M  V30 4994 H 476.992 0.672997 -3.94095 0
M  V30 4995 H 478.432 1.71006 -3.87986 0
M  V30 4996 C 476.891 2.25955 -2.49891 0
M  V30 4997 O 477.421 3.32969 -2.2471 0
M  V30 4998 N 475.627 2.00019 -2.1081 0
M  V30 4999 H 475.174 1.13006 -2.31489 0
M  V30 5000 H 475.132 2.70523 -1.60201 0
M  V30 5001 N 478.904 1.54736 -0.299062 0
M  V30 5002 C 480.315 1.8569 0.193971 0
M  V30 5003 C 480.666 1.22101 1.53577 0
M  V30 5004 O 479.791 0.51799 2.10109 0
M  V30 5005 C 480.386 3.36895 0.358733 0
M  V30 5006 C 478.945 3.67887 0.795986 0
M  V30 5007 C 478.092 2.77131 -0.096807 0
M  V30 5008 H 481.043 1.49934 -0.520134 0
M  V30 5009 H 481.064 3.61294 1.19361 0
M  V30 5010 H 480.576 3.83148 -0.617998 0
M  V30 5011 H 478.677 3.27151 1.78334 0
M  V30 5012 H 478.79 4.75114 0.616718 0
M  V30 5013 H 477.154 2.51153 0.423581 0
M  V30 5014 H 477.937 3.26204 -1.06986 0
M  V30 5015 N 480.382 0.0267497 1.57577 0
M  V30 5016 C 481.61 -0.662661 1.96001 0
M  V30 5017 C 482.025 -1.65799 0.903117 0
M  V30 5018 O 481.382 -1.82135 -0.115317 0
M  V30 5019 C 481.433 -1.37112 3.34488 0
M  V30 5020 O 481.154 -0.415683 4.36123 0
M  V30 5021 C 482.655 -2.15257 3.8753 0
M  V30 5022 H 479.875 -0.18287 0.6456 0
M  V30 5023 H 482.419 0.0858116 2.0432 0
M  V30 5024 H 480.574 -2.07101 3.27395 0
M  V30 5025 H 480.988 -0.918496 5.16395 0
M  V30 5026 H 482.462 -2.60285 4.86781 0
M  V30 5027 H 482.939 -2.99063 3.21649 0
M  V30 5028 H 483.545 -1.50231 3.97883 0
M  V30 5029 N 481.861 -1.55662 -0.24637 0
M  V30 5030 C 482.824 -1.89558 -1.28842 0
M  V30 5031 C 483.824 -0.772082 -1.41052 0
M  V30 5032 O 485.014 -1.04007 -1.39743 0
M  V30 5033 C 482.146 -2.12449 -2.66605 0
M  V30 5034 H 483.339 -2.82735 -1.00004 0
M  V30 5035 H 480.892 -1.48562 -0.485684 0
M  V30 5036 H 481.627 -1.21742 -3.00582 0
M  V30 5037 H 481.412 -2.94273 -2.59125 0
M  V30 5038 H 482.902 -2.39854 -3.41847 0
M  V30 5039 N 483.339 0.512053 -1.4905 0
M  V30 5040 C 484.567 1.29116 -1.61669 0
M  V30 5041 C 484.982 1.86655 -0.283787 0
M  V30 5042 O 484.339 1.67293 0.729331 0
M  V30 5043 C 484.39 2.4293 -2.67707 0
M  V30 5044 O 484.111 1.87758 -3.95826 0
M  V30 5045 C 485.612 3.34476 -2.90931 0
M  V30 5046 H 482.832 0.392009 -0.544583 0
M  V30 5047 H 485.376 0.615881 -1.95006 0
M  V30 5048 H 483.531 3.06308 -2.37179 0
M  V30 5049 H 483.945 2.62393 -4.54148 0
M  V30 5050 H 485.419 4.10642 -3.68886 0
M  V30 5051 H 485.896 3.90801 -2.00427 0
M  V30 5052 H 486.502 2.76874 -3.22832 0
M  V30 5053 N 484.817 1.37938 0.762283 0
M  V30 5054 C 485.747 1.37176 1.88958 0
M  V30 5055 C 486.728 0.238945 1.68413 0
M  V30 5056 O 487.913 0.440726 1.89133 0
M  V30 5057 C 485.043 1.18742 3.2637 0
M  V30 5058 C 483.997 2.29136 3.61498 0
M  V30 5059 C 483.323 1.95816 4.97554 0
M  V30 5060 C 484.623 3.71363 3.6727 0
M  V30 5061 H 486.317 2.31509 1.89853 0
M  V30 5062 H 483.863 1.11438 0.912005 0
M  V30 5063 H 485.816 1.16837 4.04879 0
M  V30 5064 H 484.54 0.208683 3.25933 0
M  V30 5065 H 483.199 2.30213 2.85303 0
M  V30 5066 H 482.847 0.964475 4.93667 0
M  V30 5067 H 482.547 2.69745 5.22026 0
M  V30 5068 H 484.071 1.95513 5.78452 0
M  V30 5069 H 485.485 3.72364 4.35911 0
M  V30 5070 H 483.882 4.44425 4.03245 0
M  V30 5071 H 484.952 4.04305 2.67704 0
M  V30 5072 N 486.295 -0.989507 1.22664 0
M  V30 5073 C 487.225 -2.09847 1.02404 0
M  V30 5074 C 488.206 -1.70007 -0.0561303 0
M  V30 5075 O 489.391 -1.93906 0.106748 0
M  V30 5076 C 486.521 -3.41996 0.604663 0
M  V30 5077 C 485.475 -3.95699 1.63115 0
M  V30 5078 C 484.801 -5.23936 1.0675 0
M  V30 5079 C 486.101 -4.25999 3.02196 0
M  V30 5080 H 487.795 -2.27054 1.95158 0
M  V30 5081 H 485.341 -1.09111 0.939727 0
M  V30 5082 H 487.294 -4.1899 0.45002 0
M  V30 5083 H 486.018 -3.24626 -0.35855 0
M  V30 5084 H 484.677 -3.2084 1.77362 0
M  V30 5085 H 484.325 -5.02909 0.0955422 0
M  V30 5086 H 484.025 -5.60833 1.75328 0
M  V30 5087 H 485.549 -6.0356 0.924516 0
M  V30 5088 H 486.963 -4.93777 2.91303 0
M  V30 5089 H 485.36 -4.74076 3.67929 0
M  V30 5090 H 486.43 -3.33636 3.51873 0
M  V30 5091 N 487.773 -1.03688 -1.18687 0
M  V30 5092 C 488.736 -0.629115 -2.20397 0
M  V30 5093 C 489.736 0.311495 -1.57754 0
M  V30 5094 O 490.926 0.0974107 -1.73927 0
M  V30 5095 C 488.058 0.0782231 -3.4081 0
M  V30 5096 H 489.251 -1.52915 -2.57987 0
M  V30 5097 H 486.804 -0.828988 -1.32505 0
M  V30 5098 H 487.539 0.992233 -3.08748 0
M  V30 5099 H 487.324 -0.597776 -3.87517 0
M  V30 5100 H 488.814 0.350156 -4.16129 0
M  V30 5101 N 489.251 1.34841 -0.815825 0
M  V30 5102 C 490.476 2.03261 -0.41226 0
M  V30 5103 C 490.901 1.61055 0.971751 0
M  V30 5104 O 490.259 0.7917 1.63101 0
M  V30 5105 C 490.307 3.56914 -0.514289 0
M  V30 5106 O 489.411 4.09728 0.468675 0
M  V30 5107 H 488.752 0.641664 -0.170771 0
M  V30 5108 H 491.282 1.72241 -1.10427 0
M  V30 5109 H 491.292 4.06156 -0.387457 0
M  V30 5110 H 489.967 3.86982 -1.52375 0
M  V30 5111 H 488.544 3.71681 0.301316 0
M  V30 5112 N 490.729 0.570148 1.46925 0
M  V30 5113 C 491.969 0.0534743 2.0433 0
M  V30 5114 C 492.333 -1.27729 1.4335 0
M  V30 5115 O 493.534 -1.88244 1.91879 0
M  V30 5116 C 491.805 -0.0244296 3.57392 0
M  V30 5117 S 493.364 -0.485351 4.36108 0
M  V30 5118 H 490.182 0.0313908 0.710307 0
M  V30 5119 H 492.784 0.759808 1.80131 0
M  V30 5120 H 491.488 0.948261 3.99295 0
M  V30 5121 H 491.019 -0.753922 3.86108 0
M  V30 5122 H 493.034 -1.74258 4.64595 0
M  V30 5123 N 492.207 -1.54576 0.307264 0
M  V30 5124 C 493.14 -2.19946 -0.608195 0
M  V30 5125 C 494.118 -1.17096 -1.12815 0
M  V30 5126 O 495.302 -1.45766 -1.19518 0
M  V30 5127 C 492.429 -2.84826 -1.8328 0
M  V30 5128 C 491.475 -4.01256 -1.44554 0
M  V30 5129 S 492.308 -5.33197 -0.49612 0
M  V30 5130 C 493.464 -6.01563 -1.72838 0
M  V30 5131 H 493.697 -2.97253 -0.0528544 0
M  V30 5132 H 491.23 -1.54129 0.0913837 0
M  V30 5133 H 493.188 -3.22832 -2.53554 0
M  V30 5134 H 491.849 -2.07353 -2.35931 0
M  V30 5135 H 491.042 -4.45457 -2.35762 0
M  V30 5136 H 490.644 -3.6484 -0.822671 0
M  V30 5137 H 492.936 -6.22751 -2.6681 0
M  V30 5138 H 493.879 -6.9552 -1.32882 0
M  V30 5139 H 494.287 -5.31279 -1.90795 0
M  V30 5140 N 493.685 -0.035106 -1.57561 0
M  V30 5141 C 494.618 0.979673 -2.06101 0
M  V30 5142 C 495.596 1.31378 -0.958046 0
M  V30 5143 O 496.78 1.42942 -1.22881 0
M  V30 5144 C 493.907 2.29809 -2.48808 0
M  V30 5145 C 492.953 2.11817 -3.70184 0
M  V30 5146 S 493.786 1.41143 -5.16565 0
M  V30 5147 C 494.942 2.74341 -5.62572 0
M  V30 5148 H 495.175 0.566506 -2.91853 0
M  V30 5149 H 492.708 0.176744 -1.53385 0
M  V30 5150 H 494.666 3.056 -2.74078 0
M  V30 5151 H 493.327 2.68257 -1.63392 0
M  V30 5152 H 492.52 3.09299 -3.97933 0
M  V30 5153 H 492.122 1.44168 -3.45097 0
M  V30 5154 H 494.414 3.70562 -5.67177 0
M  V30 5155 H 495.357 2.51249 -6.62027 0
M  V30 5156 H 495.765 2.79863 -4.90242 0
M  V30 5157 N 495.163 1.55791 0.238111 0
M  V30 5158 C 496.093 1.94068 1.29846 0
M  V30 5159 C 497.074 0.806726 1.49753 0
M  V30 5160 O 498.259 1.06772 1.62214 0
M  V30 5161 C 495.389 2.24302 2.65153 0
M  V30 5162 C 494.343 3.40032 2.59927 0
M  V30 5163 C 493.669 3.55829 3.99111 0
M  V30 5164 C 494.969 4.75476 2.16148 0
M  V30 5165 H 496.663 2.82887 0.980563 0
M  V30 5166 H 494.209 1.36105 0.470253 0
M  V30 5167 H 496.162 2.4967 3.39475 0
M  V30 5168 H 494.886 1.32318 2.98596 0
M  V30 5169 H 493.545 3.14687 1.88063 0
M  V30 5170 H 493.193 2.6125 4.29834 0
M  V30 5171 H 492.893 4.3366 3.96501 0
M  V30 5172 H 494.417 3.83528 4.7512 0
M  V30 5173 H 495.831 5.00158 2.80205 0
M  V30 5174 H 494.228 5.56472 2.24631 0
M  V30 5175 H 495.298 4.71946 1.11333 0
M  V30 5176 N 496.642 -0.504142 1.49319 0
M  V30 5177 C 497.919 -1.26548 1.49147 0
M  V30 5178 C 498.299 -2.09977 0.21744 0
M  V30 5179 O 497.647 -2.14028 -0.800269 0
M  V30 5180 C 497.857 -2.12489 2.76857 0
M  V30 5181 C 499.205 -2.7178 3.26222 0
M  V30 5182 O 500.229 -2.22758 2.77952 0
M  V30 5183 O 499.088 -3.61015 4.10281 0
M  V30 5184 H 496.182 -0.572495 0.596806 0
M  V30 5185 H 498.728 -0.51867 1.61579 0
M  V30 5186 H 497.5 -1.50796 3.61077 0
M  V30 5187 H 497.123 -2.94368 2.6727 0
M  V30 5188 N 498.12 -1.38341 -0.754957 0
M  V30 5189 C 499.07 -1.31964 -1.85929 0
M  V30 5190 C 500.054 -0.204181 -1.59599 0
M  V30 5191 O 501.246 -0.440036 -1.71443 0
M  V30 5192 C 498.375 -1.14565 -3.2362 0
M  V30 5193 C 497.461 -2.30727 -3.55846 0
M  V30 5194 N 497.852 -3.56165 -3.59138 0
M  V30 5195 C 496.15 -2.23249 -3.86104 0
M  V30 5196 C 496.851 -4.32865 -3.88591 0
M  V30 5197 N 495.827 -3.62203 -4.05351 0
M  V30 5198 H 499.629 -2.2694 -1.8675 0
M  V30 5199 H 497.143 -1.31553 -0.952243 0
M  V30 5200 H 499.14 -1.0808 -4.02647 0
M  V30 5201 H 497.8 -0.205212 -3.24051 0
M  V30 5202 H 498.811 -3.89854 -3.40932 0
M  V30 5203 H 495.488 -1.37357 -3.94258 0
M  V30 5204 H 496.878 -5.41504 -3.97773 0
M  V30 5205 N 499.598 0.982988 -1.23187 0
M  V30 5206 C 500.528 2.09301 -1.03515 0
M  V30 5207 C 501.509 1.70035 0.0471136 0
M  V30 5208 O 502.694 1.93847 -0.117029 0
M  V30 5209 C 499.824 3.4167 -0.622791 0
M  V30 5210 C 498.778 3.94828 -1.65211 0
M  V30 5211 C 498.104 5.23362 -1.09527 0
M  V30 5212 C 499.404 4.2439 -3.04451 0
M  V30 5213 H 501.098 2.26016 -1.96359 0
M  V30 5214 H 498.644 1.08611 -0.945501 0
M  V30 5215 H 500.597 4.18746 -0.472233 0
M  V30 5216 H 499.321 3.24811 0.341329 0
M  V30 5217 H 497.98 3.19895 -1.79061 0
M  V30 5218 H 497.628 5.02852 -0.122211 0
M  V30 5219 H 497.328 5.59895 -1.783 0
M  V30 5220 H 498.852 6.03062 -0.956511 0
M  V30 5221 H 500.266 4.92225 -2.93917 0
M  V30 5222 H 498.663 4.72118 -3.70438 0
M  V30 5223 H 499.733 3.31765 -3.53638 0
M  V30 5224 N 501.076 1.04316 1.18135 0
M  V30 5225 C 502.023 0.636398 2.21853 0
M  V30 5226 C 502.993 -0.357039 1.62217 0
M  V30 5227 O 504.178 -0.250453 1.89149 0
M  V30 5228 C 501.318 0.00812779 3.45099 0
M  V30 5229 C 500.431 1.04933 4.19062 0
M  V30 5230 C 499.566 0.389313 5.29771 0
M  V30 5231 C 498.605 1.41544 5.9551 0
M  V30 5232 N 497.742 0.78021 6.97751 0
M  V30 5233 H 502.582 1.52536 2.56002 0
M  V30 5234 H 500.119 0.76304 1.25762 0
M  V30 5235 H 502.077 -0.373497 4.15525 0
M  V30 5236 H 500.707 -0.844336 3.11562 0
M  V30 5237 H 499.759 1.54888 3.47439 0
M  V30 5238 H 501.071 1.82862 4.64072 0
M  V30 5239 H 500.225 -0.0463805 6.06682 0
M  V30 5240 H 498.964 -0.422038 4.8587 0
M  V30 5241 H 497.969 1.86124 5.17337 0
M  V30 5242 H 499.194 2.22854 6.41493 0
M  V30 5243 H 497.14 -0.0107899 6.55999 0
M  V30 5244 H 497.057 1.49716 7.41027 0
M  V30 5245 H 498.325 0.368996 7.78626 0
M  V30 5246 N 502.554 -1.34406 0.822964 0
M  V30 5247 C 503.484 -2.32052 0.259608 0
M  V30 5248 C 504.465 -1.58243 -0.623961 0
M  V30 5249 O 505.65 -1.86224 -0.55083 0
M  V30 5250 C 502.78 -3.42434 -0.579314 0
M  V30 5251 C 501.734 -4.27499 0.20712 0
M  V30 5252 C 501.06 -5.29349 -0.754547 0
M  V30 5253 C 502.36 -5.02758 1.41533 0
M  V30 5254 H 504.054 -2.79418 1.07545 0
M  V30 5255 H 501.6 -1.34338 0.518593 0
M  V30 5256 H 503.553 -4.0976 -0.983612 0
M  V30 5257 H 502.277 -2.93717 -1.4282 0
M  V30 5258 H 500.936 -3.61776 0.592787 0
M  V30 5259 H 500.584 -4.76895 -1.59939 0
M  V30 5260 H 500.284 -5.8714 -0.232561 0
M  V30 5261 H 501.808 -5.99544 -1.1567 0
M  V30 5262 H 503.222 -5.62938 1.08504 0
M  V30 5263 H 501.619 -5.70123 1.87296 0
M  V30 5264 H 502.689 -4.32451 2.1935 0
M  V30 5265 N 504.032 -0.577932 -1.46621 0
M  V30 5266 C 504.982 0.178869 -2.27297 0
M  V30 5267 C 505.966 0.866279 -1.35589 0
M  V30 5268 O 507.158 0.761163 -1.59798 0
M  V30 5269 C 504.287 1.19499 -3.2183 0
M  V30 5270 C 503.373 0.50994 -4.21023 0
M  V30 5271 N 503.764 -0.43177 -5.03954 0
M  V30 5272 C 502.062 0.761287 -4.39455 0
M  V30 5273 C 502.763 -0.831693 -5.75724 0
M  V30 5274 N 501.739 -0.181897 -5.43296 0
M  V30 5275 H 505.541 -0.544859 -2.88805 0
M  V30 5276 H 503.055 -0.399373 -1.57413 0
M  V30 5277 H 505.052 1.75131 -3.78332 0
M  V30 5278 H 503.712 1.91959 -2.61881 0
M  V30 5279 H 504.723 -0.807045 -5.11573 0
M  V30 5280 H 501.4 1.47282 -3.90659 0
M  V30 5281 H 502.79 -1.6067 -6.52407 0
M  V30 5282 N 505.51 1.54411 -0.315457 0
M  V30 5283 C 506.735 2.05299 0.294496 0
M  V30 5284 C 507.16 1.19052 1.4563 0
M  V30 5285 O 506.518 0.197804 1.80218 0
M  V30 5286 C 506.566 3.5345 0.714549 0
M  V30 5287 O 505.67 3.70175 1.81781 0
M  V30 5288 H 505.011 0.661743 0.0547019 0
M  V30 5289 H 507.541 1.99327 -0.461508 0
M  V30 5290 H 507.551 3.9557 0.999426 0
M  V30 5291 H 506.226 4.1568 -0.135244 0
M  V30 5292 H 504.803 3.3996 1.53236 0
M  V30 5293 N 506.988 0.0434614 1.5754 0
M  V30 5294 C 508.218 -0.640905 1.96408 0
M  V30 5295 C 508.626 -1.65365 0.919297 0
M  V30 5296 O 507.969 -1.83395 -0.105795 0
M  V30 5297 C 508.031 -1.39141 3.31482 0
M  V30 5298 C 507.695 -0.535375 4.53853 0
M  V30 5299 C 508.692 0.195335 5.19533 0
M  V30 5300 C 506.377 -0.468564 5.0011 0
M  V30 5301 C 508.371 0.981377 6.298 0
M  V30 5302 C 506.058 0.321171 6.10255 0
M  V30 5303 C 507.056 1.04484 6.74961 0
M  V30 5304 O 506.744 1.8216 7.8299 0
M  V30 5305 H 506.476 -0.180584 0.651433 0
M  V30 5306 H 509.03 0.103848 2.05137 0
M  V30 5307 H 507.26 -2.18162 3.19284 0
M  V30 5308 H 508.949 -1.96526 3.55151 0
M  V30 5309 H 509.715 0.15314 4.84758 0
M  V30 5310 H 505.594 -1.02142 4.49542 0
M  V30 5311 H 509.138 1.54674 6.80237 0
M  V30 5312 H 505.035 0.365032 6.44467 0
M  V30 5313 H 505.803 1.74289 7.99728 0
M  V30 5314 N 508.466 -1.55915 -0.229846 0
M  V30 5315 C 509.429 -1.90914 -1.26824 0
M  V30 5316 C 510.429 -0.786999 -1.40225 0
M  V30 5317 O 511.619 -1.05484 -1.38632 0
M  V30 5318 C 508.751 -2.15264 -2.64337 0
M  V30 5319 H 509.944 -2.8378 -0.969998 0
M  V30 5320 H 507.497 -1.49069 -0.4699 0
M  V30 5321 H 508.232 -1.24923 -2.99274 0
M  V30 5322 H 508.017 -2.97005 -2.55989 0
M  V30 5323 H 509.507 -2.43467 -3.39284 0
M  V30 5324 N 509.944 0.496216 -1.49584 0
M  V30 5325 C 511.172 1.27394 -1.63029 0
M  V30 5326 C 511.587 1.86344 -0.303569 0
M  V30 5327 O 510.944 1.68057 0.711547 0
M  V30 5328 C 510.995 2.40077 -2.70269 0
M  V30 5329 O 510.716 1.83549 -3.97796 0
M  V30 5330 C 512.217 3.31372 -2.94462 0
M  V30 5331 H 509.437 0.386211 -0.54871 0
M  V30 5332 H 511.981 0.595163 -1.95648 0
M  V30 5333 H 510.136 3.03775 -2.40415 0
M  V30 5334 H 510.55 2.57561 -4.56905 0
M  V30 5335 H 512.024 4.06707 -3.73221 0
M  V30 5336 H 512.501 3.88654 -2.0456 0
M  V30 5337 H 513.107 2.73435 -3.25751 0
M  V30 5338 N 511.423 1.38739 0.74761 0
M  V30 5339 C 512.648 1.38702 1.54197 0
M  V30 5340 C 513.073 -0.019664 1.8809 0
M  V30 5341 O 512.431 -1.00333 1.51006 0
M  V30 5342 C 512.479 2.25492 2.814 0
M  V30 5343 O 511.583 1.67613 3.76802 0
M  V30 5344 H 510.924 0.472863 0.466151 0
M  V30 5345 H 513.454 1.82577 0.923413 0
M  V30 5346 H 513.464 2.39561 3.30264 0
M  V30 5347 H 512.139 3.27727 2.56062 0
M  V30 5348 H 510.716 1.62718 3.35526 0
M  V30 5349 N 512.901 -0.976442 1.23707 0
M  V30 5350 C 514.15 -1.71254 1.06559 0
M  V30 5351 C 514.463 -1.91528 -0.397024 0
M  V30 5352 O 515.669 -2.62625 -0.688518 0
M  V30 5353 C 514.125 -3.08207 1.8584 0
M  V30 5354 C 513.733 -2.95806 3.36456 0
M  V30 5355 C 515.477 -3.85749 1.77194 0
M  V30 5356 C 513.384 -4.28015 4.08114 0
M  V30 5357 H 512.314 -0.642171 0.395136 0
M  V30 5358 H 514.965 -1.08877 1.4771 0
M  V30 5359 H 513.347 -3.71363 1.37498 0
M  V30 5360 H 514.521 -2.41716 3.92314 0
M  V30 5361 H 512.836 -2.31736 3.45959 0
M  V30 5362 H 515.433 -4.83633 2.28041 0
M  V30 5363 H 515.776 -4.09752 0.735477 0
M  V30 5364 H 516.309 -3.29303 2.23169 0
M  V30 5365 H 513.048 -4.09208 5.12083 0
M  V30 5366 H 512.568 -4.81955 3.57043 0
M  V30 5367 H 514.247 -4.96681 4.14629 0
M  V30 5368 N 514.379 -1.04941 -1.1758 0
M  V30 5369 C 515.795 -0.770282 -1.39781 0
M  V30 5370 C 515.995 0.636417 -1.91186 0
M  V30 5371 O 515.051 1.39923 -2.10185 0
M  V30 5372 C 516.364 -1.82376 -2.3908 0
M  V30 5373 C 517.912 -1.84569 -2.52791 0
M  V30 5374 C 518.387 -2.88933 -3.55361 0
M  V30 5375 N 519.878 -2.8788 -3.62877 0
M  V30 5376 C 520.613 -3.65282 -4.41992 0
M  V30 5377 N 520.109 -4.52461 -5.24643 0
M  V30 5378 N 521.902 -3.53732 -4.36841 0
M  V30 5379 H 514.053 -1.95705 -0.825438 0
M  V30 5380 H 516.316 -0.847284 -0.425222 0
M  V30 5381 H 516.022 -2.83323 -2.08376 0
M  V30 5382 H 515.896 -1.66327 -3.38549 0
M  V30 5383 H 518.283 -0.842879 -2.82807 0
M  V30 5384 H 518.364 -2.04696 -1.53406 0
M  V30 5385 H 518.008 -3.89398 -3.26085 0
M  V30 5386 H 517.938 -2.66059 -4.54445 0
M  V30 5387 H 520.429 -2.24666 -3.03864 0
M  V30 5388 H 520.742 -5.08211 -5.82187 0
M  V30 5389 H 519.087 -4.56524 -5.24033 0
M  V30 5390 H 522.278 -2.85021 -3.71323 0
M  V30 5391 H 522.451 -4.14302 -4.98255 0
M  V30 5392 N 515.857 1.33968 -0.830081 0
M  V30 5393 C 516.804 2.29387 -0.255008 0
M  V30 5394 C 517.774 1.53923 0.624243 0
M  V30 5395 O 518.959 1.82262 0.564372 0
M  V30 5396 C 516.099 3.4034 0.571209 0
M  V30 5397 C 515.212 4.30729 -0.331083 0
M  V30 5398 C 514.347 5.2879 0.505389 0
M  V30 5399 C 513.386 6.10819 -0.395843 0
M  V30 5400 N 512.523 7.00948 0.401979 0
M  V30 5401 H 517.363 2.77972 -1.07404 0
M  V30 5402 H 514.9 1.36785 -0.541133 0
M  V30 5403 H 516.858 4.03361 1.06562 0
M  V30 5404 H 515.488 2.9297 1.35529 0
M  V30 5405 H 514.54 3.68507 -0.943759 0
M  V30 5406 H 515.852 4.88181 -1.02377 0
M  V30 5407 H 515.006 5.97297 1.06399 0
M  V30 5408 H 513.745 4.71894 1.23155 0
M  V30 5409 H 512.75 5.41238 -0.966529 0
M  V30 5410 H 513.975 6.69797 -1.12023 0
M  V30 5411 H 511.921 6.46512 1.11168 0
M  V30 5412 H 511.838 7.55643 -0.232167 0
M  V30 5413 H 513.106 7.73774 0.943102 0
M  V30 5414 N 517.335 0.585699 1.46312 0
M  V30 5415 C 518.298 -0.135673 2.28798 0
M  V30 5416 C 519.298 -0.815988 1.38558 0
M  V30 5417 O 520.488 -0.667487 1.60904 0
M  V30 5418 C 517.62 -1.20163 3.1902 0
M  V30 5419 H 518.813 0.589257 2.94054 0
M  V30 5420 H 516.366 0.343794 1.52472 0
M  V30 5421 H 517.101 -1.95804 2.58517 0
M  V30 5422 H 516.886 -0.718282 3.85465 0
M  V30 5423 H 518.376 -1.70749 3.81096 0
M  V30 5424 N 518.813 -1.54241 0.323641 0
M  V30 5425 C 520.059 -2.00867 -0.279323 0
M  V30 5426 C 520.392 -1.21146 -1.5178 0
M  V30 5427 O 519.667 -0.29378 -1.92269 0
M  V30 5428 C 519.95 -3.54837 -0.613387 0
M  V30 5429 C 519.803 -4.45284 0.635803 0
M  V30 5430 C 521.122 -4.16186 -1.43099 0
M  V30 5431 H 518.241 -0.730177 -0.100049 0
M  V30 5432 H 520.883 -1.84829 0.440235 0
M  V30 5433 H 519.033 -3.68634 -1.22641 0
M  V30 5434 H 520.705 -4.43357 1.27406 0
M  V30 5435 H 518.948 -4.14956 1.26466 0
M  V30 5436 H 519.619 -5.5084 0.357597 0
M  V30 5437 H 522.095 -4.05964 -0.912814 0
M  V30 5438 H 520.971 -5.24031 -1.6335 0
M  V30 5439 H 521.232 -3.69516 -2.42715 0
M  V30 5440 N 520.291 -0.0518155 -1.57515 0
M  V30 5441 C 521.221 0.920283 -2.146 0
M  V30 5442 C 522.202 1.32406 -1.06783 0
M  V30 5443 O 523.387 1.39866 -1.34726 0
M  V30 5444 C 520.517 2.1949 -2.6915 0
M  V30 5445 C 519.471 1.93116 -3.81956 0
M  V30 5446 C 518.797 3.27037 -4.23026 0
M  V30 5447 C 520.097 1.25225 -5.07066 0
M  V30 5448 H 521.791 0.444801 -2.96077 0
M  V30 5449 H 519.337 0.212508 -1.42423 0
M  V30 5450 H 521.29 2.87894 -3.07725 0
M  V30 5451 H 520.014 2.69244 -1.84865 0
M  V30 5452 H 518.673 1.27123 -3.43854 0
M  V30 5453 H 518.321 3.74595 -3.3569 0
M  V30 5454 H 518.021 3.10189 -4.99056 0
M  V30 5455 H 519.545 3.96673 -4.64202 0
M  V30 5456 H 520.959 1.83666 -5.43083 0
M  V30 5457 H 519.356 1.18702 -5.88243 0
M  V30 5458 H 520.426 0.228382 -4.84362 0
M  V30 5459 N 521.769 1.56035 0.221574 0
M  V30 5460 C 522.732 1.91584 1.2581 0
M  V30 5461 C 523.732 0.794425 1.39805 0
M  V30 5462 O 524.922 1.06217 1.38071 0
M  V30 5463 C 522.054 2.16663 2.63192 0
M  V30 5464 H 523.247 2.8429 0.954935 0
M  V30 5465 H 520.8 1.49316 0.461988 0
M  V30 5466 H 521.535 1.26508 2.98607 0
M  V30 5467 H 521.32 2.98358 2.5441 0
M  V30 5468 H 522.81 2.45262 3.37988 0
M  V30 5469 N 523.247 -0.488276 1.49845 0
M  V30 5470 C 524.472 -1.26997 1.63971 0
M  V30 5471 C 524.897 -1.85427 0.315994 0
M  V30 5472 O 524.255 -1.66475 -0.718032 0
M  V30 5473 C 524.303 -2.36689 2.72049 0
M  V30 5474 O 523.407 -3.40882 2.32107 0
M  V30 5475 H 522.748 -0.374376 0.548396 0
M  V30 5476 H 525.278 -0.583104 1.96115 0
M  V30 5477 H 525.288 -2.82262 2.94605 0
M  V30 5478 H 523.963 -1.93529 3.68129 0
M  V30 5479 H 522.54 -3.01139 2.19931 0
M  V30 5480 N 524.725 -1.39134 -0.740242 0
M  V30 5481 C 525.658 -1.3182 -1.86276 0
M  V30 5482 C 526.636 -0.192794 -1.61453 0
M  V30 5483 O 527.82 -0.372365 -1.84786 0
M  V30 5484 C 524.947 -1.04564 -3.22155 0
M  V30 5485 C 523.993 -2.19224 -3.65846 0
M  V30 5486 S 524.826 -3.81466 -3.75824 0
M  V30 5487 C 525.982 -3.56425 -5.14502 0
M  V30 5488 H 526.215 -2.26822 -1.92195 0
M  V30 5489 H 523.748 -1.25127 -0.904576 0
M  V30 5490 H 525.706 -0.895228 -4.00619 0
M  V30 5491 H 524.367 -0.112578 -3.13898 0
M  V30 5492 H 523.56 -1.95732 -4.6444 0
M  V30 5493 H 523.162 -2.30441 -2.94572 0
M  V30 5494 H 525.454 -3.13366 -6.00673 0
M  V30 5495 H 526.397 -4.54462 -5.43019 0
M  V30 5496 H 526.805 -2.90641 -4.8393 0
M  V30 5497 N 526.204 0.969867 -1.24223 0
M  V30 5498 C 527.481 1.68774 -0.988664 0
M  V30 5499 C 527.861 2.05342 0.489673 0
M  V30 5500 O 527.209 1.75486 1.46345 0
M  V30 5501 C 527.419 2.92135 -1.90941 0
M  V30 5502 C 528.767 3.64422 -2.17903 0
M  V30 5503 O 529.791 3.02188 -1.88576 0
M  V30 5504 O 528.65 4.76446 -2.67697 0
M  V30 5505 H 525.744 0.737736 -0.37373 0
M  V30 5506 H 528.29 1.02415 -1.35312 0
M  V30 5507 H 527.062 2.61788 -2.90831 0
M  V30 5508 H 526.685 3.66228 -1.54798 0
M  V30 5509 N 527.682 1.05563 1.17022 0
M  V30 5510 C 528.63 0.653887 2.2322 0
M  V30 5511 C 529.624 -0.326642 1.66221 0
M  V30 5512 O 530.83 -0.192301 1.7897 0
M  V30 5513 H 527.205 0.193297 0.726733 0
M  V30 5514 H 529.176 1.5596 2.54399 0
M  V30 5515 C 527.925 0.0485434 3.47666 0
M  V30 5516 H 527.248 0.79413 3.91834 0
M  V30 5517 H 528.688 -0.195133 4.23551 0
M  V30 5518 C 527.147 -1.20583 3.14581 0
M  V30 5519 O 527.677 -2.29475 3.29703 0
M  V30 5520 N 525.883 -1.10493 2.68774 0
M  V30 5521 H 525.43 -0.218795 2.56669 0
M  V30 5522 H 525.388 -1.94507 2.47011 0
M  V30 5523 N 529.16 -1.33526 0.837174 0
M  V30 5524 C 530.07 -2.33023 0.271568 0
M  V30 5525 C 531.086 -1.63272 -0.601514 0
M  V30 5526 O 532.262 -1.94939 -0.506038 0
M  V30 5527 C 529.327 -3.42382 -0.545448 0
M  V30 5528 C 528.388 -4.27857 0.351709 0
M  V30 5529 C 527.621 -5.31994 -0.426409 0
M  V30 5530 O 527.844 -5.45763 -1.65828 0
M  V30 5531 O 526.778 -6.01572 0.1987 0
M  V30 5532 H 530.604 -2.83256 1.09545 0
M  V30 5533 H 528.189 -1.36837 0.599655 0
M  V30 5534 H 530.071 -4.09122 -1.00979 0
M  V30 5535 H 528.746 -2.94369 -1.34641 0
M  V30 5536 H 527.653 -3.6399 0.863853 0
M  V30 5537 H 528.986 -4.79349 1.1174 0
M  V30 5538 N 530.638 -0.59345 -1.46 0
M  V30 5539 C 531.586 0.146268 -2.3214 0
M  V30 5540 C 532.58 0.873743 -1.45128 0
M  V30 5541 O 533.786 0.790912 -1.61693 0
M  V30 5542 H 530.161 0.0660349 -0.749095 0
M  V30 5543 H 532.132 -0.598895 -2.92328 0
M  V30 5544 C 530.881 1.1396 -3.28494 0
M  V30 5545 H 530.204 0.589252 -3.95434 0
M  V30 5546 H 531.644 1.62738 -3.91526 0
M  V30 5547 C 530.103 2.20604 -2.54628 0
M  V30 5548 O 530.633 3.28128 -2.31722 0
M  V30 5549 N 528.839 1.95502 -2.15005 0
M  V30 5550 H 528.386 1.0807 -2.33834 0
M  V30 5551 H 528.344 2.67064 -1.65904 0
M  V30 5552 N 532.116 1.54067 -0.331816 0
M  V30 5553 C 533.049 2.20886 0.573127 0
M  V30 5554 C 534.027 1.18876 1.10938 0
M  V30 5555 O 535.211 1.47649 1.17184 0
M  V30 5556 C 532.338 2.87706 1.78726 0
M  V30 5557 C 531.384 4.03505 1.38152 0
M  V30 5558 S 532.217 5.33919 0.41123 0
M  V30 5559 C 533.373 6.04236 1.63246 0
M  V30 5560 H 533.606 2.97299 0.00555737 0
M  V30 5561 H 531.139 1.53964 -0.115893 0
M  V30 5562 H 533.097 3.26825 2.48386 0
M  V30 5563 H 531.758 2.1108 2.32603 0
M  V30 5564 H 530.951 4.49152 2.28645 0
M  V30 5565 H 530.553 3.66102 0.764524 0
M  V30 5566 H 532.845 6.26917 2.56869 0
M  V30 5567 H 533.788 6.97546 1.218 0
M  V30 5568 H 534.196 5.34247 1.82318 0
M  V30 5569 N 533.594 0.0601682 1.57485 0
M  V30 5570 C 534.544 -0.920969 2.08572 0
M  V30 5571 C 535.528 -1.26617 0.992827 0
M  V30 5572 O 536.72 -1.24708 1.25606 0
M  V30 5573 C 533.849 -2.19267 2.64153 0
M  V30 5574 C 532.935 -1.87447 3.80427 0
M  V30 5575 N 533.326 -1.26025 4.89848 0
M  V30 5576 C 531.624 -2.17265 3.89502 0
M  V30 5577 C 532.325 -1.12036 5.70809 0
M  V30 5578 N 531.301 -1.62624 5.18705 0
M  V30 5579 H 535.103 -0.441561 2.90564 0
M  V30 5580 H 532.617 -0.144043 1.6176 0
M  V30 5581 H 534.614 -2.90462 2.99061 0
M  V30 5582 H 533.274 -2.67806 1.83603 0
M  V30 5583 H 534.285 -0.931336 5.09457 0
M  V30 5584 H 530.962 -2.68262 3.19909 0
M  V30 5585 H 532.352 -0.642783 6.68818 0
M  V30 5586 N 535.072 -1.5615 -0.213296 0
M  V30 5587 C 536.3 -1.83638 -0.953139 0
M  V30 5588 C 536.715 -0.640362 -1.77609 0
M  V30 5589 O 536.072 0.391071 -1.78261 0
M  V30 5590 C 536.123 -3.09735 -1.86405 0
M  V30 5591 O 535.844 -4.24723 -1.07435 0
M  V30 5592 C 537.345 -3.5027 -2.71709 0
M  V30 5593 H 534.565 -0.610263 -0.278962 0
M  V30 5594 H 537.109 -2.03247 -0.226035 0
M  V30 5595 H 535.264 -2.92077 -2.545 0
M  V30 5596 H 535.678 -4.9641 -1.69343 0
M  V30 5597 H 537.152 -4.41515 -3.31313 0
M  V30 5598 H 537.629 -2.72406 -3.44516 0
M  V30 5599 H 538.235 -3.70396 -2.09015 0
M  V30 5600 N 536.55 0.480323 -1.50102 0
M  V30 5601 C 537.961 1.06142 -1.53593 0
M  V30 5602 C 538.312 1.93335 -0.334055 0
M  V30 5603 O 537.437 2.09188 0.55403 0
M  V30 5604 C 538.032 1.9317 -2.78336 0
M  V30 5605 C 536.591 2.46405 -2.84538 0
M  V30 5606 C 535.738 1.24521 -2.4777 0
M  V30 5607 H 538.689 0.26333 -1.565 0
M  V30 5608 H 538.71 2.78123 -2.59669 0
M  V30 5609 H 538.222 1.29683 -3.65792 0
M  V30 5610 H 536.323 3.13472 -2.01411 0
M  V30 5611 H 536.436 2.82143 -3.87211 0
M  V30 5612 H 534.8 1.57706 -2.00003 0
M  V30 5613 H 535.583 0.627102 -3.37524 0
M  V30 5614 N 538.028 1.39524 0.732853 0
M  V30 5615 C 539.305 1.27373 1.48444 0
M  V30 5616 C 539.685 -0.115725 2.10783 0
M  V30 5617 O 539.033 -1.12713 1.98766 0
M  V30 5618 C 539.243 2.39966 2.53412 0
M  V30 5619 C 540.591 2.79384 3.19733 0
M  V30 5620 O 541.615 2.39431 2.63725 0
M  V30 5621 O 540.474 3.48353 4.21085 0
M  V30 5622 H 537.568 0.499272 0.659285 0
M  V30 5623 H 540.114 1.51403 0.766496 0
M  V30 5624 H 538.886 3.32845 2.05742 0
M  V30 5625 H 538.509 2.17612 3.32762 0
M  V30 5626 N 539.506 -0.963266 1.24736 0
M  V30 5627 C 540.755 -1.70115 1.08369 0
M  V30 5628 C 541.068 -1.91939 -0.376688 0
M  V30 5629 O 542.274 -2.6334 -0.660624 0
M  V30 5630 C 540.73 -3.06218 1.89099 0
M  V30 5631 C 540.338 -2.92221 3.39574 0
M  V30 5632 C 542.082 -3.83848 1.81275 0
M  V30 5633 C 539.989 -4.23662 4.12631 0
M  V30 5634 H 538.919 -0.637944 0.401924 0
M  V30 5635 H 541.57 -1.07304 1.48856 0
M  V30 5636 H 539.952 -3.69884 1.41429 0
M  V30 5637 H 541.126 -2.37541 3.94856 0
M  V30 5638 H 539.441 -2.28054 3.48397 0
M  V30 5639 H 542.038 -4.81188 2.33158 0
M  V30 5640 H 542.381 -4.08949 0.778895 0
M  V30 5641 H 542.914 -3.26918 2.26649 0
M  V30 5642 H 539.653 -4.03753 5.16395 0
M  V30 5643 H 539.173 -4.78141 3.62135 0
M  V30 5644 H 540.852 -4.92256 4.19873 0
M  V30 5645 N 540.985 -1.06182 -1.16461 0
M  V30 5646 C 542.233 -0.776326 -1.86595 0
M  V30 5647 C 542.554 0.69921 -1.82033 0
M  V30 5648 O 541.824 1.50579 -1.2531 0
M  V30 5649 H 540.404 -0.284184 -0.690832 0
M  V30 5650 H 543.066 -1.34308 -1.41235 0
M  V30 5651 H 542.162 -1.10022 -2.92064 0
M  V30 5652 N 542.463 1.3308 -0.844243 0
M  V30 5653 C 543.711 1.97215 -0.441676 0
M  V30 5654 C 544.032 1.67185 1.0037 0
M  V30 5655 O 543.302 0.973588 1.69994 0
M  V30 5656 H 541.882 0.72959 -0.160335 0
M  V30 5657 H 544.544 1.62348 -1.07838 0
M  V30 5658 H 543.64 3.06698 -0.57815 0
M  V30 5659 N 543.941 0.601185 1.45683 0
M  V30 5660 C 544.873 -0.159446 2.28645 0
M  V30 5661 C 545.886 -0.837882 1.39583 0
M  V30 5662 O 547.075 -0.704344 1.64016 0
M  V30 5663 C 544.175 -1.24641 3.15147 0
M  V30 5664 C 543.348 -0.656334 4.32448 0
M  V30 5665 C 542.407 -1.63337 5.00208 0
M  V30 5666 O 541.433 -1.16217 5.57209 0
M  V30 5667 N 542.635 -2.96773 4.98905 0
M  V30 5668 H 545.4 0.5524 2.94565 0
M  V30 5669 H 542.961 0.440223 1.558 0
M  V30 5670 H 544.953 -1.8997 3.57342 0
M  V30 5671 H 543.523 -1.86087 2.51178 0
M  V30 5672 H 542.743 0.174879 3.93812 0
M  V30 5673 H 544.031 -0.242211 5.08223 0
M  V30 5674 H 543.429 -3.37662 4.53873 0
M  V30 5675 H 541.986 -3.57541 5.44984 0
M  V30 5676 N 545.419 -1.53889 0.339982 0
M  V30 5677 C 546.667 -2.00458 -0.257112 0
M  V30 5678 C 546.988 -1.22953 -1.51353 0
M  V30 5679 O 546.258 -0.335734 -1.93002 0
M  V30 5680 H 544.838 -0.740544 -0.0979965 0
M  V30 5681 H 547.5 -1.89386 0.460317 0
M  V30 5682 H 546.596 -3.08035 -0.502057 0
M  V30 5683 N 546.897 -0.0685191 -1.57451 0
M  V30 5684 C 548.125 0.610462 -1.97689 0
M  V30 5685 C 548.54 1.63346 -0.946758 0
M  V30 5686 O 547.897 1.82377 0.0669868 0
M  V30 5687 C 547.948 1.28196 -3.38006 0
M  V30 5688 O 547.669 0.299906 -4.37072 0
M  V30 5689 C 549.17 2.04907 -3.931 0
M  V30 5690 H 546.39 0.165689 -0.650222 0
M  V30 5691 H 548.934 -0.139953 -2.04021 0
M  V30 5692 H 547.089 1.98348 -3.32771 0
M  V30 5693 H 547.503 0.78126 -5.18649 0
M  V30 5694 H 548.977 2.47287 -4.93511 0
M  V30 5695 H 549.454 2.9043 -3.29465 0
M  V30 5696 H 550.06 1.39629 -4.01726 0
M  V30 5697 N 548.375 1.56261 0.205012 0
M  V30 5698 C 549.603 1.84141 0.943386 0
M  V30 5699 C 550.018 0.649772 1.77266 0
M  V30 5700 O 549.375 -0.381612 1.78466 0
M  V30 5701 C 549.426 3.10719 1.84759 0
M  V30 5702 O 549.147 4.25286 1.05181 0
M  V30 5703 C 550.648 3.51706 2.69848 0
M  V30 5704 H 547.868 0.611734 0.275721 0
M  V30 5705 H 550.412 2.03364 0.215253 0
M  V30 5706 H 548.567 2.93422 2.52947 0
M  V30 5707 H 548.981 4.97301 1.66709 0
M  V30 5708 H 550.455 4.43266 3.28967 0
M  V30 5709 H 550.932 2.7423 3.43067 0
M  V30 5710 H 551.538 3.71499 2.07047 0
M  V30 5711 N 549.853 -0.472356 1.50355 0
M  V30 5712 C 551.078 -1.25251 1.65309 0
M  V30 5713 C 551.503 -1.85081 0.335643 0
M  V30 5714 O 550.861 -1.67227 -0.700335 0
M  V30 5715 C 550.909 -2.3379 2.74544 0
M  V30 5716 O 550.013 -3.38401 2.35709 0
M  V30 5717 H 549.354 -0.368539 0.552336 0
M  V30 5718 H 551.884 -0.562271 1.96722 0
M  V30 5719 H 551.894 -2.79121 2.97583 0
M  V30 5720 H 550.569 -1.89614 3.70161 0
M  V30 5721 H 549.146 -2.9879 2.23112 0
M  V30 5722 N 551.331 -1.39911 -0.725443 0
M  V30 5723 C 552.241 -1.41688 -1.8698 0
M  V30 5724 C 553.257 -0.310579 -1.71206 0
M  V30 5725 O 554.433 -0.55359 -1.93642 0
M  V30 5726 C 551.498 -1.26811 -3.22676 0
M  V30 5727 C 550.559 -2.47497 -3.50776 0
M  V30 5728 C 549.792 -2.3332 -4.79997 0
M  V30 5729 O 550.015 -1.34175 -5.54394 0
M  V30 5730 O 548.949 -3.22498 -5.08211 0
M  V30 5731 H 552.775 -2.38171 -1.88436 0
M  V30 5732 H 550.36 -1.21128 -0.874548 0
M  V30 5733 H 552.242 -1.20684 -4.03749 0
M  V30 5734 H 550.917 -0.334289 -3.21969 0
M  V30 5735 H 549.824 -2.59201 -2.69751 0
M  V30 5736 H 551.157 -3.39606 -3.5627 0
M  V30 5737 N 552.809 0.956637 -1.25245 0
M  V30 5738 C 553.772 2.03457 -1.05537 0
M  V30 5739 C 554.772 1.60798 -0.00886317 0
M  V30 5740 O 555.962 1.72384 -0.250865 0
M  V30 5741 C 553.094 3.35543 -0.601965 0
M  V30 5742 H 554.287 2.22372 -2.01223 0
M  V30 5743 H 551.84 1.13344 -1.07623 0
M  V30 5744 H 552.575 3.22323 0.357584 0
M  V30 5745 H 552.36 3.67854 -1.35743 0
M  V30 5746 H 553.85 4.14769 -0.485454 0
M  V30 5747 N 554.287 1.06798 1.15896 0
M  V30 5748 C 555.536 0.782796 1.8589 0
M  V30 5749 C 555.849 -0.693498 1.82893 0
M  V30 5750 O 557.055 -1.09325 2.48516 0
M  V30 5751 C 555.511 1.3502 3.33613 0
M  V30 5752 C 555.119 2.8571 3.45071 0
M  V30 5753 C 556.863 1.14278 4.08829 0
M  V30 5754 C 554.77 3.35669 4.86909 0
M  V30 5755 H 553.7 0.289149 0.696354 0
M  V30 5756 H 556.351 1.28734 1.30766 0
M  V30 5757 H 554.733 0.773407 3.88374 0
M  V30 5758 H 555.907 3.49385 3.00445 0
M  V30 5759 H 554.222 3.05178 2.83294 0
M  V30 5760 H 556.819 1.49087 5.13495 0
M  V30 5761 H 557.162 0.0814575 4.1622 0
M  V30 5762 H 557.695 1.68563 3.60321 0
M  V30 5763 H 554.434 4.41302 4.84698 0
M  V30 5764 H 553.954 2.76745 5.32139 0
M  V30 5765 H 555.633 3.31296 5.55745 0
M  V30 5766 N 555.766 -1.3263 0.851289 0
M  V30 5767 C 556.698 -2.27824 0.250757 0
M  V30 5768 C 557.711 -1.52285 -0.575598 0
M  V30 5769 O 558.9 -1.73946 -0.400638 0
M  V30 5770 C 556 -3.3232 -0.664571 0
M  V30 5771 C 555.173 -4.37221 0.125187 0
M  V30 5772 C 554.232 -5.21314 -0.715385 0
M  V30 5773 O 553.258 -5.69002 -0.150111 0
M  V30 5774 N 554.46 -5.43823 -2.03069 0
M  V30 5775 H 557.225 -2.79997 1.06873 0
M  V30 5776 H 554.786 -1.45455 0.710943 0
M  V30 5777 H 556.778 -3.85486 -1.23216 0
M  V30 5778 H 555.348 -2.80331 -1.38323 0
M  V30 5779 H 554.568 -3.84384 0.874199 0
M  V30 5780 H 555.856 -5.04399 0.667774 0
M  V30 5781 H 555.254 -5.06803 -2.51332 0
M  V30 5782 H 553.811 -5.99998 -2.54648 0
M  V30 5783 N 557.244 -0.608902 -1.45362 0
M  V30 5784 C 558.521 -0.0365378 -1.95566 0
M  V30 5785 C 558.901 1.43169 -1.55131 0
M  V30 5786 O 558.249 2.1349 -0.814513 0
M  V30 5787 C 558.459 -0.236026 -3.48201 0
M  V30 5788 C 559.807 -0.117518 -4.24437 0
M  V30 5789 O 560.831 -0.166217 -3.55812 0
M  V30 5790 O 559.69 -0.00372127 -5.465 0
M  V30 5791 H 556.784 0.0349874 -0.82626 0
M  V30 5792 H 559.33 -0.679055 -1.55521 0
M  V30 5793 H 558.102 -1.25569 -3.70605 0
M  V30 5794 H 557.725 0.441691 -3.95139 0
M  V30 5795 N 558.722 1.53707 -0.348139 0
M  V30 5796 C 559.968 2.01286 0.247332 0
M  V30 5797 C 560.301 1.23546 1.49834 0
M  V30 5798 O 559.576 0.324331 1.91777 0
M  V30 5799 C 559.859 3.55768 0.556858 0
M  V30 5800 C 559.712 4.44216 -0.706564 0
M  V30 5801 C 561.031 4.1841 1.3646 0
M  V30 5802 H 558.15 0.731677 0.0884201 0
M  V30 5803 H 560.792 1.84106 -0.469584 0
M  V30 5804 H 558.942 3.70539 1.16761 0
M  V30 5805 H 560.614 4.41274 -1.34444 0
M  V30 5806 H 558.857 4.12892 -1.33052 0
M  V30 5807 H 559.528 5.50202 -0.445186 0
M  V30 5808 H 562.004 4.07365 0.848113 0
M  V30 5809 H 560.88 5.26563 1.54992 0
M  V30 5810 H 561.141 3.7333 2.36805 0
M  V30 5811 N 560.2 0.0768682 1.57412 0
M  V30 5812 C 561.449 -0.590679 1.92857 0
M  V30 5813 C 561.762 -1.70461 0.959293 0
M  V30 5814 O 562.968 -2.43207 1.20675 0
M  V30 5815 C 561.424 -1.10204 3.42612 0
M  V30 5816 C 561.032 -0.0188447 4.47996 0
M  V30 5817 C 562.776 -1.74336 3.87049 0
M  V30 5818 C 560.683 -0.544536 5.88888 0
M  V30 5819 H 559.613 -0.224411 0.71983 0
M  V30 5820 H 562.264 0.149924 1.82887 0
M  V30 5821 H 560.646 -1.89577 3.47673 0
M  V30 5822 H 561.82 0.755936 4.54557 0
M  V30 5823 H 560.135 0.526555 4.13057 0
M  V30 5824 H 562.732 -2.14708 4.89699 0
M  V30 5825 H 563.075 -2.60537 3.24694 0
M  V30 5826 H 563.608 -1.01577 3.84613 0
M  V30 5827 H 560.347 0.280426 6.549 0
M  V30 5828 H 559.867 -1.28673 5.85836 0
M  V30 5829 H 561.546 -1.01933 6.3892 0
M  V30 5830 N 561.678 -1.56367 -0.196722 0
M  V30 5831 C 563.094 -1.49916 -0.54749 0
M  V30 5832 C 563.294 -0.77659 -1.85934 0
M  V30 5833 O 562.35 -0.32644 -2.50381 0
M  V30 5834 C 563.663 -2.94577 -0.603734 0
M  V30 5835 C 565.211 -3.05239 -0.692677 0
M  V30 5836 C 565.686 -4.51308 -0.780046 0
M  V30 5837 N 567.177 -4.55453 -0.843616 0
M  V30 5838 C 567.912 -5.65786 -0.931358 0
M  V30 5839 N 567.408 -6.85812 -0.981503 0
M  V30 5840 N 569.201 -5.53695 -0.968421 0
M  V30 5841 H 561.352 -2.01761 0.663803 0
M  V30 5842 H 563.615 -0.918094 0.236238 0
M  V30 5843 H 563.321 -3.50494 0.29105 0
M  V30 5844 H 563.195 -3.47841 -1.45898 0
M  V30 5845 H 565.582 -2.49372 -1.57789 0
M  V30 5846 H 565.663 -2.55103 0.188736 0
M  V30 5847 H 565.307 -5.078 0.100811 0
M  V30 5848 H 565.237 -4.99176 -1.67724 0
M  V30 5849 H 567.728 -3.69025 -0.814176 0
M  V30 5850 H 568.041 -7.65648 -1.04892 0
M  V30 5851 H 566.386 -6.88474 -0.950208 0
M  V30 5852 H 569.577 -4.58848 -0.926072 0
M  V30 5853 H 569.75 -6.39708 -1.03334 0
M  V30 5854 N 563.156 0.464375 -1.50603 0
M  V30 5855 C 564.106 1.55929 -1.66343 0
M  V30 5856 C 565.09 1.52338 -0.517887 0
M  V30 5857 O 566.282 1.59248 -0.772601 0
M  V30 5858 C 563.411 2.94327 -1.7671 0
M  V30 5859 C 562.497 3.02777 -2.96962 0
M  V30 5860 N 562.888 2.81026 -4.20545 0
M  V30 5861 C 561.186 3.33919 -2.95659 0
M  V30 5862 C 561.887 2.94618 -5.01573 0
M  V30 5863 N 560.863 3.25112 -4.35664 0
M  V30 5864 H 564.665 1.37822 -2.59581 0
M  V30 5865 H 562.179 0.671227 -1.47879 0
M  V30 5866 H 564.176 3.73063 -1.86091 0
M  V30 5867 H 562.836 3.13476 -0.846353 0
M  V30 5868 H 563.847 2.56477 -4.49933 0
M  V30 5869 H 560.524 3.59013 -2.13111 0
M  V30 5870 H 561.914 2.81984 -6.09865 0
M  V30 5871 N 564.634 1.40294 0.718013 0
M  V30 5872 C 565.883 1.37746 1.4734 0
M  V30 5873 C 566.196 -0.0180754 1.95592 0
M  V30 5874 O 567.402 -0.166166 2.70991 0
M  V30 5875 C 565.858 2.4208 2.66318 0
M  V30 5876 C 565.466 3.87432 2.24945 0
M  V30 5877 C 567.21 2.48635 3.44065 0
M  V30 5878 C 565.117 4.83368 3.40748 0
M  V30 5879 H 564.047 0.512165 0.553356 0
M  V30 5880 H 566.698 1.66019 0.781661 0
M  V30 5881 H 565.08 2.06903 3.3765 0
M  V30 5882 H 566.254 4.3174 1.6105 0
M  V30 5883 H 564.569 3.8433 1.60249 0
M  V30 5884 H 567.166 3.17499 4.30231 0
M  V30 5885 H 567.509 1.51611 3.87711 0
M  V30 5886 H 568.042 2.82791 2.79775 0
M  V30 5887 H 564.781 5.81716 3.02136 0
M  V30 5888 H 564.301 4.43726 4.03568 0
M  V30 5889 H 565.98 5.03074 4.06848 0
M  V30 5890 N 566.112 -0.949982 1.2575 0
M  V30 5891 C 567.528 -1.22191 1.02672 0
M  V30 5892 C 567.728 -1.99898 -0.253588 0
M  V30 5893 O 566.784 -2.33329 -0.965076 0
M  V30 5894 C 568.097 -1.99175 2.25277 0
M  V30 5895 C 569.645 -2.12201 2.30087 0
M  V30 5896 C 570.12 -2.92586 3.5236 0
M  V30 5897 N 571.611 -3.00163 3.52784 0
M  V30 5898 C 572.346 -3.62766 4.44059 0
M  V30 5899 N 571.842 -4.26943 5.45611 0
M  V30 5900 N 573.635 -3.59953 4.3173 0
M  V30 5901 H 565.786 -0.430258 2.07996 0
M  V30 5902 H 568.049 -0.252844 0.91366 0
M  V30 5903 H 567.755 -1.49479 3.18354 0
M  V30 5904 H 567.629 -2.99868 2.28821 0
M  V30 5905 H 570.016 -2.61093 1.3753 0
M  V30 5906 H 570.097 -1.10799 2.30559 0
M  V30 5907 H 569.741 -2.44383 4.45241 0
M  V30 5908 H 569.671 -3.94224 3.49134 0
M  V30 5909 H 572.162 -2.54529 2.79327 0
M  V30 5910 H 572.475 -4.72583 6.11461 0
M  V30 5911 H 570.82 -4.25557 5.49478 0
M  V30 5912 H 574.011 -3.09003 3.51617 0
M  V30 5913 H 574.184 -4.08455 5.03059 0
M  V30 5914 N 567.59 -1.07411 -1.15328 0
M  V30 5915 C 568.836 -0.798831 -1.86404 0
M  V30 5916 C 569.169 0.673433 -1.8215 0
M  V30 5917 O 568.444 1.49428 -1.24505 0
M  V30 5918 C 568.727 -1.30846 -3.35487 0
M  V30 5919 C 568.58 -2.84532 -3.4837 0
M  V30 5920 C 569.899 -0.925486 -4.30259 0
M  V30 5921 H 567.018 -0.291659 -0.676834 0
M  V30 5922 H 569.66 -1.332 -1.35491 0
M  V30 5923 H 567.81 -0.854916 -3.78977 0
M  V30 5924 H 569.482 -3.3818 -3.13739 0
M  V30 5925 H 567.725 -3.22699 -2.8991 0
M  V30 5926 H 568.396 -3.15259 -4.53118 0
M  V30 5927 H 570.872 -1.3163 -3.94731 0
M  V30 5928 H 569.748 -1.3094 -5.33053 0
M  V30 5929 H 570.009 0.168525 -4.41779 0
M  V30 5930 N 569.068 1.32177 -0.85831 0
M  V30 5931 C 570.317 1.96392 -0.459689 0
M  V30 5932 C 570.63 1.68659 0.990632 0
M  V30 5933 O 571.836 2.26641 1.49485 0
M  V30 5934 C 570.292 3.51542 -0.7711 0
M  V30 5935 C 569.9 3.8813 -2.2374 0
M  V30 5936 C 571.644 4.2221 -0.44038 0
M  V30 5937 C 569.551 5.36341 -2.49183 0
M  V30 5938 H 568.481 0.735007 -0.168169 0
M  V30 5939 H 571.132 1.50518 -1.0496 0
M  V30 5940 H 569.514 3.95846 -0.11058 0
M  V30 5941 H 570.688 3.54824 -2.94001 0
M  V30 5942 H 569.003 3.30497 -2.533 0
M  V30 5943 H 571.6 5.31234 -0.607855 0
M  V30 5944 H 571.943 4.11683 0.618291 0
M  V30 5945 H 572.476 3.83502 -1.05695 0
M  V30 5946 H 569.215 5.51892 -3.53689 0
M  V30 5947 H 568.735 5.7104 -1.83504 0
M  V30 5948 H 570.414 6.03466 -2.33318 0
M  V30 5949 N 570.547 0.616602 1.45037 0
M  V30 5950 C 571.495 -0.109318 2.32343 0
M  V30 5951 C 572.489 -0.850543 1.465 0
M  V30 5952 O 573.695 -0.765088 1.62931 0
M  V30 5953 H 570.07 -0.0541091 0.750051 0
M  V30 5954 H 572.041 0.645326 2.91338 0
M  V30 5955 C 570.79 -1.0872 3.30266 0
M  V30 5956 H 570.113 -0.526267 3.96321 0
M  V30 5957 H 571.553 -1.56489 3.94065 0
M  V30 5958 C 570.012 -2.16525 2.58105 0
M  V30 5959 O 570.542 -3.244 2.36913 0
M  V30 5960 N 568.748 -1.92057 2.18088 0
M  V30 5961 H 568.295 -1.04337 2.35524 0
M  V30 5962 H 568.253 -2.64391 1.70131 0
M  V30 5963 N 572.025 -1.5352 0.356285 0
M  V30 5964 C 573.273 -2.00719 -0.235837 0
M  V30 5965 C 573.594 -1.24551 -1.5004 0
M  V30 5966 O 572.864 -0.356185 -1.92635 0
M  V30 5967 H 571.444 -0.741542 -0.0901366 0
M  V30 5968 H 574.106 -1.88887 0.480378 0
M  V30 5969 H 573.202 -3.08551 -0.469357 0
M  V30 5970 N 573.503 -0.0852151 -1.57369 0
M  V30 5971 C 574.919 0.271436 -1.57275 0
M  V30 5972 C 575.119 1.69109 -1.09565 0
M  V30 5973 O 574.175 2.40549 -0.767611 0
M  V30 5974 C 575.488 0.0688638 -3.00621 0
M  V30 5975 C 577.036 0.137373 -3.12698 0
M  V30 5976 C 577.511 -0.0370832 -4.57985 0
M  V30 5977 N 579.002 0.0180794 -4.63196 0
M  V30 5978 C 579.737 -0.0922953 -5.73326 0
M  V30 5979 N 579.233 -0.256948 -6.92323 0
M  V30 5980 N 581.026 -0.0342702 -5.6209 0
M  V30 5981 H 573.177 -1.01288 -1.86693 0
M  V30 5982 H 575.44 -0.396138 -0.861266 0
M  V30 5983 H 575.146 -0.911277 -3.39689 0
M  V30 5984 H 575.02 0.815442 -3.6828 0
M  V30 5985 H 577.407 1.10801 -2.73509 0
M  V30 5986 H 577.488 -0.640532 -2.47651 0
M  V30 5987 H 577.132 -1.00455 -4.97867 0
M  V30 5988 H 577.062 0.760392 -5.21081 0
M  V30 5989 H 579.553 0.143202 -3.77629 0
M  V30 5990 H 579.866 -0.332949 -7.72082 0
M  V30 5991 H 578.211 -0.292487 -6.94384 0
M  V30 5992 H 581.402 0.0931605 -4.68007 0
M  V30 5993 H 581.575 -0.12374 -6.47882 0
M  V30 5994 N 574.981 1.5647 0.188427 0
M  V30 5995 C 575.944 1.9421 1.21718 0
M  V30 5996 C 576.944 0.823901 1.38089 0
M  V30 5997 O 578.134 1.09122 1.35787 0
M  V30 5998 C 575.266 2.22197 2.58537 0
M  V30 5999 H 576.459 2.86252 0.894418 0
M  V30 6000 H 574.012 1.50263 0.430211 0
M  V30 6001 H 574.747 1.32814 2.95856 0
M  V30 6002 H 574.532 3.03688 2.48025 0
M  V30 6003 H 576.022 2.52376 3.3271 0
M  V30 6004 N 576.459 -0.456382 1.50847 0
M  V30 6005 C 577.705 -1.20914 1.62811 0
M  V30 6006 C 578.038 -1.91301 0.334304 0
M  V30 6007 O 577.313 -1.82775 -0.665098 0
M  V30 6008 C 577.596 -2.24122 2.81853 0
M  V30 6009 C 577.449 -1.57944 4.21158 0
M  V30 6010 C 578.768 -3.25295 2.96431 0
M  V30 6011 H 575.887 -0.438233 0.592554 0
M  V30 6012 H 578.529 -0.50091 1.83278 0
M  V30 6013 H 576.679 -2.84524 2.64534 0
M  V30 6014 H 578.351 -1.01025 4.50102 0
M  V30 6015 H 576.594 -0.882185 4.24735 0
M  V30 6016 H 577.265 -2.33014 5.00408 0
M  V30 6017 H 579.741 -2.7493 3.12335 0
M  V30 6018 H 578.617 -3.94822 3.81322 0
M  V30 6019 H 578.878 -3.90286 2.07676 0
M  V30 6020 N 577.937 -1.40673 -0.710563 0
M  V30 6021 C 578.847 -1.43663 -1.85467 0
M  V30 6022 C 579.863 -0.328721 -1.70867 0
M  V30 6023 O 581.039 -0.574098 -1.93044 0
M  V30 6024 C 578.104 -1.30226 -3.21313 0
M  V30 6025 C 577.165 -2.51204 -3.48131 0
M  V30 6026 C 576.398 -2.38398 -4.77495 0
M  V30 6027 O 576.621 -1.40048 -5.5294 0
M  V30 6028 O 575.555 -3.2787 -5.04762 0
M  V30 6029 H 579.381 -2.40156 -1.859 0
M  V30 6030 H 576.966 -1.22049 -0.861652 0
M  V30 6031 H 578.848 -1.2496 -4.02446 0
M  V30 6032 H 577.523 -0.368419 -3.21597 0
M  V30 6033 H 576.43 -2.62048 -2.66987 0
M  V30 6034 H 577.763 -3.43366 -3.52648 0
M  V30 6035 N 579.415 0.9433 -1.26252 0
M  V30 6036 C 580.378 2.02326 -1.07689 0
M  V30 6037 C 581.378 1.60779 -0.0259174 0
M  V30 6038 O 582.568 1.72108 -0.269134 0
M  V30 6039 C 579.7 3.34886 -0.63752 0
M  V30 6040 H 580.893 2.20225 -2.0357 0
M  V30 6041 H 578.446 1.12197 -1.08819 0
M  V30 6042 H 579.181 3.22684 0.323377 0
M  V30 6043 H 578.966 3.66393 -1.39637 0
M  V30 6044 H 580.456 4.14231 -0.529418 0
M  V30 6045 O 580.932 1.20358 1.07685 0
M  V30 6046 H 581.623 0.957266 1.68393 0
M  V30 END ATOM
M  V30 BEGIN BOND
M  V30 END BOND
M  V30 END CTAB
M  END
$$$$
