drugbank_target|P51580 Thiopurine S-methyltransferase (DB01250)
 OpenBabel12092119453D

  0  0  0     0  0            999 V3000
M  V30 BEGIN CTAB
M  V30 COUNTS 3940 3990 0 0 0
M  V30 BEGIN ATOM
M  V30 1 H -0.908 1.98254 -0.117106 0
M  V30 2 N 0 1.576 0 0
M  V30 3 C 0.933 2.03868 1.02534 0
M  V30 4 C 1.911 0.928543 1.3348 0
M  V30 5 O 3.095 1.19667 1.45644 0
M  V30 6 C 0.222 2.43627 2.35294 0
M  V30 7 C -0.732 3.65373 2.2001 0
M  V30 8 S 0.101 5.13292 1.52614 0
M  V30 9 C 1.257 5.56322 2.86805 0
M  V30 10 H 1.49 2.90518 0.631377 0
M  V30 11 H -0.977 1.52953 0.210867 0
M  V30 12 H 0.981 2.67203 3.11629 0
M  V30 13 H -0.358 1.57376 2.7183 0
M  V30 14 H -1.165 3.90944 3.18086 0
M  V30 15 H -1.563 3.418 1.51819 0
M  V30 16 H 0.729 5.58782 3.83104 0
M  V30 17 H 1.672 6.56266 2.65933 0
M  V30 18 H 2.08 4.83886 2.90714 0
M  V30 19 N 1.4781 -0.272755 1.55222 0
M  V30 20 C 2.7551 -1.02562 1.66555 0
M  V30 21 C 3.1351 -2.04282 0.532189 0
M  V30 22 O 2.4831 -2.23662 -0.467717 0
M  V30 23 C 2.6931 -1.6822 3.05782 0
M  V30 24 C 4.0411 -2.19373 3.63539 0
M  V30 25 O 5.0651 -1.78206 3.08417 0
M  V30 26 O 3.9241 -2.94883 4.60115 0
M  V30 27 H 1.0181 -0.475755 0.676451 0
M  V30 28 H 3.5641 -0.268593 1.67561 0
M  V30 29 H 2.3361 -0.945112 3.79715 0
M  V30 30 H 1.9591 -2.50609 3.08676 0
M  V30 31 N 2.9562 -1.48159 -0.537278 0
M  V30 32 C 4.2042 -1.55497 -1.29094 0
M  V30 33 C 4.5252 -0.227454 -1.93669 0
M  V30 34 O 3.7952 0.750386 -1.80959 0
M  V30 35 H 2.3752 -0.572832 -0.47945 0
M  V30 36 H 5.0372 -1.84579 -0.625818 0
M  V30 37 H 4.1332 -2.33216 -2.07405 0
M  V30 38 N 4.4343 0.785586 -1.36625 0
M  V30 39 C 5.6623 1.57448 -1.3423 0
M  V30 40 C 6.0773 1.88649 0.0755653 0
M  V30 41 O 5.4343 1.50414 1.03354 0
M  V30 42 C 5.4853 2.89316 -2.16745 0
M  V30 43 O 5.2063 2.59459 -3.53005 0
M  V30 44 C 6.7073 3.83606 -2.22174 0
M  V30 45 H 3.9273 0.488226 -0.4603 0
M  V30 46 H 6.4713 0.974733 -1.79775 0
M  V30 47 H 4.6263 3.4575 -1.74745 0
M  V30 48 H 5.0403 3.43804 -3.96105 0
M  V30 49 H 6.5143 4.73181 -2.8426 0
M  V30 50 H 6.9913 4.21734 -1.22627 0
M  V30 51 H 7.5973 3.33104 -2.64427 0
M  V30 52 N 5.9124 1.20967 1.01018 0
M  V30 53 C 7.3284 0.965905 1.27053 0
M  V30 54 C 7.5284 -0.350785 1.98423 0
M  V30 55 O 6.5844 -1.07773 2.28344 0
M  V30 56 C 7.8974 2.15294 2.09926 0
M  V30 57 C 9.4454 2.19463 2.23171 0
M  V30 58 C 9.9204 3.3767 3.09424 0
M  V30 59 N 11.4114 3.37724 3.17012 0
M  V30 60 C 12.1464 4.25837 3.83993 0
M  V30 61 N 11.6424 5.24138 4.53047 0
M  V30 62 N 13.4354 4.1366 3.80581 0
M  V30 63 H 5.5864 2.0565 0.531194 0
M  V30 64 H 7.8494 0.90024 0.297106 0
M  V30 65 H 7.5554 3.10684 1.64828 0
M  V30 66 H 7.4294 2.13923 3.10672 0
M  V30 67 H 9.8164 1.24632 2.6749 0
M  V30 68 H 9.8974 2.2488 1.21912 0
M  V30 69 H 9.5414 4.32791 2.65808 0
M  V30 70 H 9.4714 3.29491 4.10784 0
M  V30 71 H 11.9624 2.6658 2.6785 0
M  V30 72 H 12.2754 5.87684 5.01844 0
M  V30 73 H 10.6204 5.28068 4.5185 0
M  V30 74 H 13.8114 3.36127 3.25785 0
M  V30 75 H 13.9844 4.82538 4.32505 0
M  V30 76 N 7.3905 -1.2043 1.01659 0
M  V30 77 C 8.6185 -1.93777 0.725132 0
M  V30 78 C 9.0335 -1.74772 -0.714166 0
M  V30 79 O 8.3905 -1.06169 -1.4844 0
M  V30 80 C 8.4415 -3.45876 1.05129 0
M  V30 81 O 8.1625 -3.6426 2.43406 0
M  V30 82 C 9.6635 -4.36368 0.780891 0
M  V30 83 H 6.8835 -0.615901 0.266284 0
M  V30 84 H 9.4275 -1.52922 1.35776 0
M  V30 85 H 7.5825 -3.8461 0.464065 0
M  V30 86 H 7.9965 -4.58246 2.55169 0
M  V30 87 H 9.4705 -5.41743 1.05918 0
M  V30 88 H 9.9475 -4.38275 -0.284937 0
M  V30 89 H 10.5535 -4.03296 1.35027 0
M  V30 90 N 8.8686 -0.792821 -1.36206 0
M  V30 91 C 10.0936 -0.377701 -2.03932 0
M  V30 92 C 10.5186 0.998947 -1.59382 0
M  V30 93 O 9.8766 1.64421 -0.763903 0
M  V30 94 C 9.9246 -0.453635 -3.57735 0
M  V30 95 O 9.0286 0.538151 -4.08874 0
M  V30 96 H 8.3696 -0.159855 -0.644471 0
M  V30 97 H 10.8996 -1.07488 -1.7409 0
M  V30 98 H 10.9096 -0.318464 -4.06755 0
M  V30 99 H 9.5846 -1.45784 -3.89512 0
M  V30 100 H 8.1616 0.364359 -3.71116 0
M  V30 101 N 10.3467 1.47872 -0.545128 0
M  V30 102 C 11.2767 2.32661 0.197793 0
M  V30 103 C 12.2577 1.43041 0.920504 0
M  V30 104 O 13.4427 1.71912 0.90333 0
M  V30 105 C 10.5727 3.24569 1.23582 0
M  V30 106 C 9.5267 4.23333 0.630323 0
M  V30 107 C 8.8527 5.0448 1.77211 0
M  V30 108 C 10.1527 5.20704 -0.407974 0
M  V30 109 H 11.8467 2.95024 -0.510045 0
M  V30 110 H 9.3927 1.4187 -0.246731 0
M  V30 111 H 11.3457 3.8272 1.76362 0
M  V30 112 H 10.0697 2.60236 1.97344 0
M  V30 113 H 8.7287 3.6639 0.123922 0
M  V30 114 H 8.3767 4.36561 2.49847 0
M  V30 115 H 8.0767 5.71339 1.37281 0
M  V30 116 H 9.6007 5.65487 2.3034 0
M  V30 117 H 11.0147 5.7329 0.033305 0
M  V30 118 H 9.4117 5.95699 -0.725486 0
M  V30 119 H 10.4817 4.66917 -1.30828 0
M  V30 120 N 11.8248 0.280983 1.55075 0
M  V30 121 C 13.1018 -0.386207 1.91749 0
M  V30 122 C 13.4818 -1.73264 1.20594 0
M  V30 123 O 12.8298 -2.26034 0.334784 0
M  V30 124 C 13.0398 -0.520687 3.45094 0
M  V30 125 C 14.3878 -0.800865 4.16979 0
M  V30 126 O 15.4118 -0.605271 3.5102 0
M  V30 127 O 14.2708 -1.1753 5.33712 0
M  V30 128 H 11.3648 -0.212408 0.799257 0
M  V30 129 H 13.9108 0.327568 1.66509 0
M  V30 130 H 12.6828 0.426633 3.88967 0
M  V30 131 H 12.3058 -1.2837 3.76307 0
M  V30 132 N 13.3029 -1.57598 0.00835791 0
M  V30 133 C 14.5519 -1.90107 -0.673968 0
M  V30 134 C 14.8649 -0.884275 -1.7447 0
M  V30 135 O 16.0709 -1.09987 -2.48224 0
M  V30 136 C 14.5269 -3.37497 -1.24995 0
M  V30 137 C 14.1349 -4.47491 -0.2136 0
M  V30 138 C 15.8789 -3.79104 -1.90999 0
M  V30 139 C 13.7859 -5.85963 -0.80005 0
M  V30 140 H 12.7159 -0.709393 -0.255495 0
M  V30 141 H 15.3669 -1.83365 0.0702693 0
M  V30 142 H 13.7489 -3.39102 -2.04513 0
M  V30 143 H 14.9229 -4.57414 0.557596 0
M  V30 144 H 13.2379 -4.14956 0.346474 0
M  V30 145 H 15.8349 -4.79901 -2.35795 0
M  V30 146 H 16.1779 -3.1306 -2.74407 0
M  V30 147 H 16.7109 -3.79833 -1.18203 0
M  V30 148 H 13.4499 -6.555 -0.00456708 0
M  V30 149 H 12.9699 -5.79687 -1.54021 0
M  V30 150 H 14.6489 -6.33884 -1.29615 0
M  V30 151 N 14.781 0.264519 -1.55364 0
M  V30 152 C 15.691 1.34902 -1.91934 0
M  V30 153 C 16.707 1.53595 -0.817593 0
M  V30 154 O 17.883 1.67558 -1.11742 0
M  V30 155 C 14.948 2.68676 -2.19121 0
M  V30 156 C 14.009 2.58657 -3.4263 0
M  V30 157 C 13.242 3.86051 -3.68511 0
M  V30 158 O 13.465 4.87126 -2.96757 0
M  V30 159 O 12.399 3.85744 -4.62045 0
M  V30 160 H 16.225 1.06883 -2.8427 0
M  V30 161 H 13.81 0.463775 -1.42019 0
M  V30 162 H 15.692 3.47759 -2.37995 0
M  V30 163 H 14.367 2.96463 -1.29966 0
M  V30 164 H 13.274 1.7792 -3.29082 0
M  V30 165 H 14.607 2.35818 -4.32031 0
M  V30 166 N 16.2591 1.48442 0.529413 0
M  V30 167 C 17.1691 1.6569 1.66084 0
M  V30 168 C 18.1851 0.539432 1.65427 0
M  V30 169 O 19.3611 0.810572 1.84368 0
M  V30 170 C 16.4261 1.69315 3.02545 0
M  V30 171 C 15.4871 2.92694 3.14052 0
M  V30 172 C 14.7201 2.96137 4.44003 0
M  V30 173 O 14.9431 2.07973 5.31134 0
M  V30 174 O 13.8771 3.88312 4.59888 0
M  V30 175 H 17.7031 2.61483 1.54469 0
M  V30 176 H 15.2881 1.3185 0.702567 0
M  V30 177 H 17.1701 1.74217 3.83701 0
M  V30 178 H 15.8451 0.766966 3.14483 0
M  V30 179 H 14.7521 2.93324 2.32189 0
M  V30 180 H 16.0851 3.84699 3.0703 0
M  V30 181 N 17.7372 -0.778329 1.37039 0
M  V30 182 C 18.9672 -1.56507 1.34868 0
M  V30 183 C 19.3752 -1.89072 -0.0694802 0
M  V30 184 O 18.7182 -1.51434 -1.03987 0
M  V30 185 C 18.7802 -2.90641 2.11585 0
M  V30 186 C 18.4442 -2.80746 3.60598 0
M  V30 187 C 19.4412 -2.52226 4.54618 0
M  V30 188 C 17.1262 -2.98974 4.03633 0
M  V30 189 C 19.1202 -2.42054 5.89651 0
M  V30 190 C 16.8072 -2.88423 5.38754 0
M  V30 191 C 17.8052 -2.60002 6.31576 0
M  V30 192 O 17.4932 -2.49465 7.64214 0
M  V30 193 H 17.2252 -0.491723 0.463879 0
M  V30 194 H 19.7792 -0.973053 1.80889 0
M  V30 195 H 18.0092 -3.51936 1.60243 0
M  V30 196 H 19.6982 -3.51992 2.0213 0
M  V30 197 H 20.4642 -2.37835 4.22681 0
M  V30 198 H 16.3432 -3.20099 3.31749 0
M  V30 199 H 19.8872 -2.19791 6.62071 0
M  V30 200 H 15.7842 -3.0238 5.70295 0
M  V30 201 H 16.5522 -2.64864 7.74461 0
M  V30 202 N 19.2153 -1.21501 -1.00376 0
M  V30 203 C 20.4403 -1.05977 -1.78279 0
M  V30 204 C 20.8653 0.385994 -1.84097 0
M  V30 205 O 20.2233 1.27849 -1.28547 0
M  V30 206 C 20.2713 -1.66302 -3.19963 0
M  V30 207 O 19.3753 -0.909333 -4.0225 0
M  V30 208 H 18.7163 -0.372906 -0.549397 0
M  V30 209 H 21.2463 -1.6107 -1.26165 0
M  V30 210 H 21.2563 -1.70574 -3.70632 0
M  V30 211 H 19.9313 -2.71515 -3.15043 0
M  V30 212 H 18.5083 -0.941795 -3.60811 0
M  V30 213 N 20.6934 1.19889 -1.02296 0
M  V30 214 C 21.9704 1.85148 -0.630832 0
M  V30 215 C 22.3504 1.91385 0.890782 0
M  V30 216 O 21.6984 1.42642 1.78509 0
M  V30 217 C 21.9084 3.24442 -1.28602 0
M  V30 218 C 23.2564 4.00663 -1.4055 0
M  V30 219 O 24.2804 3.33818 -1.24273 0
M  V30 220 O 23.1394 5.20387 -1.66913 0
M  V30 221 H 20.2334 0.797613 -0.218499 0
M  V30 222 H 22.7794 1.27427 -1.12074 0
M  V30 223 H 21.5514 3.14704 -2.32545 0
M  V30 224 H 21.1744 3.89802 -0.7836 0
M  V30 225 N 22.1715 0.800033 1.35784 0
M  V30 226 C 23.3995 0.389606 2.03199 0
M  V30 227 C 23.8145 -0.997375 1.60306 0
M  V30 228 O 23.1715 -1.64154 0.797481 0
M  V30 229 C 23.2225 0.455855 3.58614 0
M  V30 230 O 22.9435 1.78815 3.99946 0
M  V30 231 C 24.4445 0.0374032 4.43284 0
M  V30 232 H 21.6645 0.159132 0.651857 0
M  V30 233 H 24.2085 1.08183 1.73541 0
M  V30 234 H 22.3635 -0.188057 3.86943 0
M  V30 235 H 22.7775 1.74636 4.94573 0
M  V30 236 H 24.2515 0.134882 5.51835 0
M  V30 237 H 24.7285 -1.01651 4.27275 0
M  V30 238 H 25.3345 0.654215 4.20238 0
M  V30 239 N 23.6496 -1.47581 0.552962 0
M  V30 240 C 24.5596 -2.33743 -0.200353 0
M  V30 241 C 25.5756 -1.47928 -0.916151 0
M  V30 242 O 26.7516 -1.80865 -0.885993 0
M  V30 243 C 23.8166 -3.24536 -1.21973 0
M  V30 244 C 22.8776 -4.26238 -0.511819 0
M  V30 245 C 22.1106 -5.12693 -1.48263 0
M  V30 246 O 22.3336 -5.01525 -2.71714 0
M  V30 247 O 21.2676 -5.93375 -1.00945 0
M  V30 248 H 25.0936 -2.9945 0.506304 0
M  V30 249 H 22.6786 -1.46071 0.313622 0
M  V30 250 H 24.5606 -3.80631 -1.80827 0
M  V30 251 H 23.2356 -2.61462 -1.90839 0
M  V30 252 H 22.1426 -3.73914 0.117799 0
M  V30 253 H 23.4756 -4.92014 0.135308 0
M  V30 254 N 25.1277 -0.289203 -1.54924 0
M  V30 255 C 26.3737 0.323998 -2.00195 0
M  V30 256 C 26.7067 1.54441 -1.17735 0
M  V30 257 O 25.9817 1.92875 -0.250878 0
M  V30 258 C 26.2647 0.692276 -3.53383 0
M  V30 259 C 26.1177 -0.536457 -4.46589 0
M  V30 260 C 27.4367 1.52335 -4.12895 0
M  V30 261 H 24.5557 0.116289 -0.727768 0
M  V30 262 H 27.1977 -0.398954 -1.85764 0
M  V30 263 H 25.3477 1.30822 -3.65811 0
M  V30 264 H 27.0197 -1.17499 -4.46085 0
M  V30 265 H 25.2627 -1.17192 -4.1767 0
M  V30 266 H 25.9337 -0.234806 -5.515 0
M  V30 267 H 28.4097 1.00302 -4.0383 0
M  V30 268 H 27.2857 1.74982 -5.20262 0
M  V30 269 H 27.5467 2.50886 -3.64018 0
M  V30 270 N 26.6058 1.57591 -0.0167156 0
M  V30 271 C 27.5378 2.06343 0.997753 0
M  V30 272 C 28.5508 0.984469 1.29661 0
M  V30 273 O 29.7398 1.26093 1.26344 0
M  V30 274 C 26.8398 2.46255 2.32834 0
M  V30 275 C 26.0128 3.77083 2.21646 0
M  V30 276 C 25.0718 4.0368 3.37534 0
M  V30 277 O 24.0978 4.7411 3.14973 0
M  V30 278 N 25.2998 3.52881 4.60929 0
M  V30 279 H 28.0648 2.93997 0.581875 0
M  V30 280 H 25.6258 1.61002 0.170316 0
M  V30 281 H 27.6178 2.61149 3.09166 0
M  V30 282 H 26.1878 1.64032 2.66106 0
M  V30 283 H 25.4078 3.72106 1.30119 0
M  V30 284 H 26.6958 4.62822 2.11361 0
M  V30 285 H 26.0938 2.95878 4.82154 0
M  V30 286 H 24.6508 3.73076 5.34469 0
M  V30 287 N 28.0839 -0.256276 1.55502 0
M  V30 288 C 29.0309 -1.31714 1.89526 0
M  V30 289 C 30.0009 -1.4828 0.748479 0
M  V30 290 O 31.1859 -1.62416 1.00128 0
M  V30 291 C 28.3259 -2.66933 2.18725 0
M  V30 292 C 27.4389 -2.58452 3.4616 0
M  V30 293 C 26.5739 -3.85961 3.64976 0
M  V30 294 C 25.6129 -3.72059 4.86044 0
M  V30 295 N 24.7499 -4.9144 5.01429 0
M  V30 296 H 29.5899 -1.01998 2.80001 0
M  V30 297 H 27.1269 -0.492413 1.38613 0
M  V30 298 H 29.0849 -3.4563 2.33657 0
M  V30 299 H 27.7149 -2.94816 1.31466 0
M  V30 300 H 26.7669 -1.71374 3.3961 0
M  V30 301 H 28.0789 -2.44085 4.34999 0
M  V30 302 H 27.2329 -4.73101 3.79816 0
M  V30 303 H 25.9719 -4.03215 2.74353 0
M  V30 304 H 24.9769 -2.83302 4.7119 0
M  V30 305 H 26.2019 -3.56309 5.78118 0
M  V30 306 H 24.1479 -5.09072 4.13741 0
M  V30 307 H 24.0649 -4.79668 5.84341 0
M  V30 308 H 25.3329 -5.80104 5.20672 0
M  V30 309 N 29.562 -1.4872 -0.521534 0
M  V30 310 C 30.51 -1.64328 -1.64618 0
M  V30 311 C 31.504 -0.50953 -1.61555 0
M  V30 312 O 32.71 -0.688525 -1.66311 0
M  V30 313 H 29.085 -0.517805 -0.545328 0
M  V30 314 H 31.056 -2.58767 -1.48601 0
M  V30 315 C 29.805 -1.70805 -3.02855 0
M  V30 316 H 29.128 -2.5741 -3.05909 0
M  V30 317 H 30.568 -1.85766 -3.81139 0
M  V30 318 C 29.027 -0.448479 -3.33902 0
M  V30 319 O 29.557 0.434928 -3.99339 0
M  V30 320 N 27.763 -0.317616 -2.88859 0
M  V30 321 H 27.31 -1.03748 -2.35784 0
M  V30 322 H 27.268 0.524113 -3.10001 0
M  V30 323 N 31.0401 0.771051 -1.3745 0
M  V30 324 C 31.9721 1.89352 -1.29146 0
M  V30 325 C 32.9851 1.61477 -0.207124 0
M  V30 326 O 34.1741 1.72382 -0.463324 0
M  V30 327 C 31.2741 3.24596 -0.974195 0
M  V30 328 C 30.4471 3.80111 -2.16413 0
M  V30 329 C 29.5061 4.93832 -1.81703 0
M  V30 330 O 28.5321 5.09382 -2.54006 0
M  V30 331 N 29.7341 5.75483 -0.761573 0
M  V30 332 H 32.4991 1.96991 -2.25864 0
M  V30 333 H 30.0601 0.950191 -1.31084 0
M  V30 334 H 32.0521 3.98193 -0.722828 0
M  V30 335 H 30.6221 3.12454 -0.0955527 0
M  V30 336 H 29.8421 2.98284 -2.57721 0
M  V30 337 H 31.1301 4.13932 -2.95867 0
M  V30 338 H 30.5281 5.65469 -0.161609 0
M  V30 339 H 29.0851 6.49302 -0.570064 0
M  V30 340 N 32.5182 1.22032 0.997298 0
M  V30 341 C 33.7642 1.04376 1.73878 0
M  V30 342 C 34.0972 -0.420716 1.89588 0
M  V30 343 O 33.3722 -1.31202 1.43583 0
M  V30 344 C 33.6552 1.75047 3.14691 0
M  V30 345 C 33.5082 3.29062 3.06656 0
M  V30 346 C 34.8272 1.49928 4.13775 0
M  V30 347 H 31.9462 0.380578 0.631133 0
M  V30 348 H 34.5882 1.50312 1.16217 0
M  V30 349 H 32.7382 1.35996 3.63919 0
M  V30 350 H 34.4102 3.7753 2.65083 0
M  V30 351 H 32.6532 3.58967 2.43568 0
M  V30 352 H 33.3242 3.73683 4.06282 0
M  V30 353 H 35.8002 1.83842 3.73285 0
M  V30 354 H 34.6762 2.01878 5.10428 0
M  V30 355 H 34.9372 0.430929 4.39995 0
M  V30 356 N 33.9963 -1.19345 1.0293 0
M  V30 357 C 34.9263 -2.2481 0.631105 0
M  V30 358 C 35.9073 -1.66245 -0.360104 0
M  V30 359 O 37.0923 -1.92677 -0.242726 0
M  V30 360 C 34.2223 -3.47295 -0.0184607 0
M  V30 361 C 33.1763 -4.18536 0.895073 0
M  V30 362 C 32.5023 -5.34586 0.110592 0
M  V30 363 C 33.8023 -4.73287 2.209 0
M  V30 364 H 35.4963 -2.58372 1.51275 0
M  V30 365 H 33.0423 -1.24194 0.728818 0
M  V30 366 H 34.9953 -4.20268 -0.308675 0
M  V30 367 H 33.7193 -3.12933 -0.934907 0
M  V30 368 H 32.3783 -3.47446 1.16949 0
M  V30 369 H 32.0263 -4.96469 -0.807902 0
M  V30 370 H 31.7263 -5.83183 0.719087 0
M  V30 371 H 33.2503 -6.10355 -0.172871 0
M  V30 372 H 34.6643 -5.38013 1.98028 0
M  V30 373 H 33.0613 -5.32373 2.76946 0
M  V30 374 H 34.1313 -3.91331 2.86336 0
M  V30 375 N 35.4744 -0.807222 -1.35358 0
M  V30 376 C 36.7024 -0.400377 -2.02989 0
M  V30 377 C 37.1174 0.988859 -1.60832 0
M  V30 378 O 36.4744 1.63729 -0.806175 0
M  V30 379 C 36.5254 -0.474867 -3.58368 0
M  V30 380 O 36.2464 -1.80933 -3.98992 0
M  V30 381 C 37.7474 -0.0609112 -4.43258 0
M  V30 382 H 34.9674 -0.162587 -0.651004 0
M  V30 383 H 37.5114 -1.09102 -1.72965 0
M  V30 384 H 35.6664 0.167534 -3.87038 0
M  V30 385 H 36.0804 -1.77256 -4.9364 0
M  V30 386 H 37.5544 -0.164145 -5.51756 0
M  V30 387 H 38.0314 0.993831 -4.27808 0
M  V30 388 H 38.6374 -0.676492 -4.19885 0
M  V30 389 N 36.9525 1.47285 -0.560781 0
M  V30 390 C 37.8825 2.32857 0.173105 0
M  V30 391 C 38.8635 1.44009 0.905281 0
M  V30 392 O 40.0485 1.7286 0.885046 0
M  V30 393 C 37.1785 3.25861 1.20133 0
M  V30 394 C 36.1325 4.23978 0.585388 0
M  V30 395 C 35.4585 5.06332 1.7185 0
M  V30 396 C 36.7585 5.20242 -0.463178 0
M  V30 397 H 38.4525 2.94466 -0.541307 0
M  V30 398 H 35.9985 1.41601 -0.261764 0
M  V30 399 H 37.9515 3.84569 1.72293 0
M  V30 400 H 36.6755 2.62315 1.94573 0
M  V30 401 H 35.3345 3.66501 0.085054 0
M  V30 402 H 34.9825 4.39186 2.45203 0
M  V30 403 H 34.6825 5.72762 1.31213 0
M  V30 404 H 36.2065 5.67899 2.24329 0
M  V30 405 H 37.6205 5.73293 -0.027502 0
M  V30 406 H 36.0175 5.94896 -0.788627 0
M  V30 407 H 37.0875 4.65504 -1.35773 0
M  V30 408 N 38.4306 0.297415 1.54768 0
M  V30 409 C 39.3406 -0.58983 2.27064 0
M  V30 410 C 40.3566 -1.15144 1.30453 0
M  V30 411 O 41.5326 -1.17699 1.63428 0
M  V30 412 C 38.5976 -1.74714 2.9946 0
M  V30 413 C 37.6586 -1.21997 4.11601 0
M  V30 414 C 36.8916 -2.32212 4.80535 0
M  V30 415 O 37.1146 -3.52036 4.48806 0
M  V30 416 O 36.0486 -1.99106 5.68014 0
M  V30 417 H 39.8746 -0.00348199 3.037 0
M  V30 418 H 37.4596 0.0640035 1.49263 0
M  V30 419 H 39.3416 -2.42147 3.44881 0
M  V30 420 H 38.0166 -2.32016 2.25722 0
M  V30 421 H 36.9236 -0.511458 3.70587 0
M  V30 422 H 38.2566 -0.692419 4.87305 0
M  V30 423 N 39.9087 -1.5758 0.0250728 0
M  V30 424 C 40.8187 -2.1343 -0.973905 0
M  V30 425 C 41.8347 -1.08556 -1.35984 0
M  V30 426 O 43.0107 -1.40592 -1.44207 0
M  V30 427 C 40.0757 -2.64703 -2.23904 0
M  V30 428 C 39.1367 -3.84276 -1.91391 0
M  V30 429 C 38.3697 -4.33095 -3.11873 0
M  V30 430 O 38.5927 -3.81107 -4.24398 0
M  V30 431 O 37.5267 -5.24984 -2.94406 0
M  V30 432 H 41.3527 -2.99057 -0.529036 0
M  V30 433 H 38.9377 -1.48118 -0.195288 0
M  V30 434 H 40.8197 -2.97769 -2.98181 0
M  V30 435 H 39.4947 -1.82161 -2.6758 0
M  V30 436 H 38.4017 -3.56143 -1.14511 0
M  V30 437 H 39.7347 -4.67968 -1.52534 0
M  V30 438 N 41.3868 0.248026 -1.55636 0
M  V30 439 C 42.6328 0.973427 -1.78594 0
M  V30 440 C 42.9878 1.83007 -0.593823 0
M  V30 441 O 42.2808 1.87097 0.412961 0
M  V30 442 C 42.4748 1.86819 -3.04686 0
M  V30 443 C 42.3038 1.09965 -4.36048 0
M  V30 444 C 41.0738 0.805204 -4.98843 0
M  V30 445 C 43.2718 0.477783 -5.12076 0
M  V30 446 N 41.2538 0.0124859 -6.13899 0
M  V30 447 C 42.6248 -0.179565 -6.1974 0
M  V30 448 C 44.6798 0.388136 -4.96385 0
M  V30 449 C 43.3828 -0.91795 -7.13419 0
M  V30 450 C 45.4088 -0.336716 -5.90441 0
M  V30 451 C 44.7708 -0.982705 -6.97511 0
M  V30 452 H 40.8698 0.337348 -0.705493 0
M  V30 453 H 43.4538 0.24667 -1.93131 0
M  V30 454 H 41.6248 2.56698 -2.9148 0
M  V30 455 H 43.3568 2.52907 -3.15944 0
M  V30 456 H 40.1118 1.11671 -4.60246 0
M  V30 457 H 40.5358 -0.371933 -6.75978 0
M  V30 458 H 45.1778 0.873237 -4.13684 0
M  V30 459 H 42.8958 -1.41466 -7.95621 0
M  V30 460 H 46.4818 -0.406731 -5.80377 0
M  V30 461 H 45.3618 -1.53464 -7.69037 0
M  V30 462 N 42.8649 1.48995 0.513639 0
M  V30 463 C 43.7969 1.60836 1.63293 0
M  V30 464 C 44.8099 0.491701 1.55197 0
M  V30 465 O 45.9989 0.763238 1.6136 0
M  V30 466 C 43.0989 1.53731 3.02027 0
M  V30 467 C 42.2719 2.80715 3.35437 0
M  V30 468 C 41.3309 2.66837 4.53525 0
M  V30 469 O 40.3569 3.40753 4.55934 0
M  V30 470 N 41.5589 1.77539 5.52684 0
M  V30 471 H 44.3239 2.57366 1.53566 0
M  V30 472 H 41.8849 1.45925 0.701259 0
M  V30 473 H 43.8769 1.42118 3.78926 0
M  V30 474 H 42.4469 0.651092 3.05744 0
M  V30 475 H 41.6669 3.06772 2.47557 0
M  V30 476 H 42.9549 3.64927 3.54551 0
M  V30 477 H 42.3529 1.16719 5.53528 0
M  V30 478 H 40.9099 1.71856 6.28736 0
M  V30 479 N 44.343 -0.763751 1.37857 0
M  V30 480 C 45.62 -1.51244 1.24035 0
M  V30 481 C 46 -2.10472 -0.162649 0
M  V30 482 O 45.348 -1.96206 -1.17112 0
M  V30 483 C 45.558 -2.58694 2.34261 0
M  V30 484 C 46.906 -3.25878 2.72193 0
M  V30 485 O 47.93 -2.68993 2.33497 0
M  V30 486 O 46.789 -4.2874 3.38887 0
M  V30 487 H 43.883 -0.670243 0.484462 0
M  V30 488 H 46.429 -0.800031 1.49658 0
M  V30 489 H 45.201 -2.13105 3.2818 0
M  V30 490 H 44.824 -3.37527 2.10146 0
M  V30 491 N 45.8211 -1.22559 -0.990812 0
M  V30 492 C 46.7681 -0.997519 -2.0813 0
M  V30 493 C 47.7381 0.0814702 -1.659 0
M  V30 494 O 48.9231 -0.0685424 -1.90677 0
M  V30 495 C 46.0631 -0.583615 -3.40129 0
M  V30 496 C 45.1761 -1.7336 -3.9569 0
M  V30 497 C 44.3111 -1.26748 -5.15857 0
M  V30 498 C 43.3501 -2.38888 -5.63559 0
M  V30 499 N 42.4871 -1.93308 -6.74964 0
M  V30 500 H 47.3271 -1.93099 -2.26973 0
M  V30 501 H 44.8641 -0.962114 -1.11273 0
M  V30 502 H 46.8221 -0.324801 -4.15934 0
M  V30 503 H 45.4521 0.312845 -3.2128 0
M  V30 504 H 44.5041 -2.10669 -3.16738 0
M  V30 505 H 45.8161 -2.57704 -4.27071 0
M  V30 506 H 44.9701 -0.966173 -5.98957 0
M  V30 507 H 43.7091 -0.394272 -4.86104 0
M  V30 508 H 42.7141 -2.69805 -4.79046 0
M  V30 509 H 43.9391 -3.26728 -5.95336 0
M  V30 510 H 41.8851 -1.08352 -6.4699 0
M  V30 511 H 41.8021 -2.71217 -7.05675 0
M  V30 512 H 43.0701 -1.66252 -7.61564 0
M  V30 513 N 47.2992 1.18797 -1.03562 0
M  V30 514 C 48.5452 1.89192 -0.746867 0
M  V30 515 C 48.9002 1.78531 0.717245 0
M  V30 516 O 48.1932 1.17137 1.51622 0
M  V30 517 C 48.3872 3.38692 -1.14117 0
M  V30 518 C 48.2162 3.63902 -2.64207 0
M  V30 519 C 46.9862 3.81553 -3.31279 0
M  V30 520 C 49.1842 3.64903 -3.62423 0
M  V30 521 N 47.1662 3.94455 -4.70402 0
M  V30 522 C 48.5372 3.83458 -4.87196 0
M  V30 523 C 50.5922 3.47965 -3.56125 0
M  V30 524 C 49.2952 3.86829 -6.06429 0
M  V30 525 C 51.3212 3.52616 -4.7478 0
M  V30 526 C 50.6832 3.71663 -5.9837 0
M  V30 527 H 46.7822 0.711141 -0.325273 0
M  V30 528 H 49.3662 1.42727 -1.32428 0
M  V30 529 H 47.5372 3.83864 -0.591889 0
M  V30 530 H 49.2692 3.96634 -0.803966 0
M  V30 531 H 46.0242 3.80723 -2.81686 0
M  V30 532 H 46.4482 4.0474 -5.42692 0
M  V30 533 H 51.0902 3.32189 -2.61553 0
M  V30 534 H 48.8082 4.01395 -7.01362 0
M  V30 535 H 52.3942 3.40791 -4.71543 0
M  V30 536 H 51.2742 3.75145 -6.88648 0
M  V30 537 N 48.7773 0.814389 1.34928 0
M  V30 538 C 50.0233 0.399013 1.98836 0
M  V30 539 C 50.3563 -1.03314 1.64438 0
M  V30 540 O 49.6313 -1.71811 0.911659 0
M  V30 541 C 49.9143 0.591629 3.55207 0
M  V30 542 C 49.7673 2.06928 3.99376 0
M  V30 543 C 51.0863 0.022199 4.40094 0
M  V30 544 H 48.2053 0.146451 0.722303 0
M  V30 545 H 50.8473 1.02537 1.59957 0
M  V30 546 H 48.9973 0.0584441 3.88456 0
M  V30 547 H 50.6693 2.66544 3.76499 0
M  V30 548 H 48.9123 2.56287 3.49999 0
M  V30 549 H 49.5833 2.1549 5.08201 0
M  V30 550 H 52.0593 0.477643 4.13349 0
M  V30 551 H 50.9353 0.186832 5.48582 0
M  V30 552 H 51.1963 -1.07215 4.28902 0
M  V30 553 N 50.2554 -1.46986 0.568584 0
M  V30 554 C 51.2034 -2.31858 -0.185649 0
M  V30 555 C 52.1974 -1.43624 -0.898249 0
M  V30 556 O 53.4034 -1.60327 -0.818242 0
M  V30 557 H 49.7784 -0.747866 -0.0787399 0
M  V30 558 H 51.7494 -2.93303 0.549191 0
M  V30 559 C 50.4984 -3.26513 -1.19519 0
M  V30 560 H 49.8214 -3.94377 -0.656285 0
M  V30 561 H 51.2614 -3.88707 -1.6936 0
M  V30 562 C 49.7204 -2.50847 -2.24894 0
M  V30 563 O 50.2504 -2.26119 -3.32014 0
M  V30 564 N 48.4564 -2.11656 -1.99124 0
M  V30 565 H 48.0034 -2.31966 -1.12024 0
M  V30 566 H 47.9614 -1.61347 -2.69842 0
M  V30 567 N 51.7335 -0.305618 -1.54608 0
M  V30 568 C 52.9815 0.301701 -1.99835 0
M  V30 569 C 53.3025 1.54054 -1.19551 0
M  V30 570 O 52.5725 1.93702 -0.292658 0
M  V30 571 H 51.1525 0.114468 -0.738178 0
M  V30 572 H 53.8145 -0.418016 -1.90364 0
M  V30 573 H 52.9105 0.570548 -3.06841 0
M  V30 574 N 53.2116 1.57565 -0.0334293 0
M  V30 575 C 54.1586 2.10478 0.946981 0
M  V30 576 C 55.1286 1.00787 1.32027 0
M  V30 577 O 56.3136 1.28232 1.41284 0
M  V30 578 C 53.4536 2.63994 2.22263 0
M  V30 579 C 52.5666 3.87709 1.90541 0
M  V30 580 C 51.7016 4.29604 3.12433 0
M  V30 581 C 50.7406 5.46065 2.76549 0
M  V30 582 N 49.8776 5.83096 3.9108 0
M  V30 583 H 54.7176 2.93963 0.488846 0
M  V30 584 H 52.2546 1.45296 0.22969 0
M  V30 585 H 54.2126 2.93114 2.96884 0
M  V30 586 H 52.8426 1.83333 2.65685 0
M  V30 587 H 51.8946 3.65291 1.06144 0
M  V30 588 H 53.2066 4.72403 1.60116 0
M  V30 589 H 52.3606 4.60182 3.9537 0
M  V30 590 H 51.0996 3.43685 3.46023 0
M  V30 591 H 50.1046 5.15176 1.92026 0
M  V30 592 H 51.3296 6.33685 2.44171 0
M  V30 593 H 49.2756 5.00132 4.24504 0
M  V30 594 H 49.1926 6.6244 3.64293 0
M  V30 595 H 50.4606 6.18282 4.74708 0
M  V30 596 N 54.6897 -0.239769 1.55765 0
M  V30 597 C 55.9177 -0.98417 1.81994 0
M  V30 598 C 56.3327 -1.7867 0.610124 0
M  V30 599 O 55.6897 -1.77571 -0.421271 0
M  V30 600 C 55.7407 -1.91635 3.06526 0
M  V30 601 O 55.4617 -1.14629 4.22838 0
M  V30 602 C 56.9627 -2.77616 3.45607 0
M  V30 603 H 54.1827 -0.28928 0.605441 0
M  V30 604 H 56.7267 -0.260499 2.02834 0
M  V30 605 H 54.8817 -2.5942 2.87715 0
M  V30 606 H 55.2957 -1.77745 4.93464 0
M  V30 607 H 56.7697 -3.38759 4.35828 0
M  V30 608 H 57.2467 -3.4909 2.6652 0
M  V30 609 H 57.8527 -2.15271 3.66795 0
M  V30 610 N 56.1678 -1.49265 -0.50573 0
M  V30 611 C 57.1308 -1.65075 -1.59006 0
M  V30 612 C 58.1308 -0.522768 -1.52065 0
M  V30 613 O 59.3208 -0.789117 -1.55302 0
M  V30 614 C 56.4528 -1.64369 -2.98656 0
M  V30 615 H 57.6458 -2.61784 -1.46319 0
M  V30 616 H 55.1988 -1.38226 -0.729616 0
M  V30 617 H 55.9338 -0.692272 -3.16825 0
M  V30 618 H 55.7188 -2.46282 -3.05103 0
M  V30 619 H 57.2088 -1.78674 -3.77446 0
M  V30 620 N 57.6459 0.756429 -1.3826 0
M  V30 621 C 58.8929 1.51547 -1.34312 0
M  V30 622 C 59.2209 1.94382 0.0677144 0
M  V30 623 O 58.4759 1.65514 1.04421 0
M  V30 624 C 58.7749 2.78313 -2.24224 0
M  V30 625 C 58.4409 2.54455 -3.72241 0
M  V30 626 C 57.1029 2.47657 -4.12576 0
M  V30 627 C 59.4549 2.3354 -4.65949 0
M  V30 628 C 56.7829 2.17956 -5.44713 0
M  V30 629 C 59.1349 2.05359 -5.9834 0
M  V30 630 C 57.7989 1.97016 -6.37762 0
M  V30 631 H 57.0689 0.55455 -0.491482 0
M  V30 632 H 59.7159 0.870039 -1.70595 0
M  V30 633 H 58.0209 3.47492 -1.80987 0
M  V30 634 H 59.7179 3.36259 -2.18474 0
M  V30 635 H 56.3079 2.60616 -3.40261 0
M  V30 636 H 60.4919 2.37772 -4.35635 0
M  V30 637 H 55.7479 2.10003 -5.74203 0
M  V30 638 H 59.9219 1.88179 -6.70494 0
M  V30 639 H 57.5489 1.73766 -7.40074 0
M  V30 640 N 59.124 1.23083 0.984299 0
M  V30 641 C 60.074 0.975749 2.06066 0
M  V30 642 C 61.058 -0.0768251 1.60716 0
M  V30 643 O 62.25 0.134805 1.76486 0
M  V30 644 C 59.379 0.564673 3.38624 0
M  V30 645 C 58.465 1.65244 3.90583 0
M  V30 646 N 58.856 2.88193 4.15666 0
M  V30 647 C 57.154 1.52612 4.19077 0
M  V30 648 C 57.855 3.58593 4.58024 0
M  V30 649 N 56.831 2.86093 4.62225 0
M  V30 650 H 60.633 1.90957 2.23411 0
M  V30 651 H 58.147 1.12963 1.16675 0
M  V30 652 H 60.144 0.36322 4.15315 0
M  V30 653 H 58.804 -0.362147 3.22674 0
M  V30 654 H 59.815 3.24537 4.03604 0
M  V30 655 H 56.492 0.666121 4.12152 0
M  V30 656 H 57.882 4.63974 4.85982 0
M  V30 657 N 60.6021 -1.18246 1.0419 0
M  V30 658 C 61.5341 -2.2142 0.592088 0
M  V30 659 C 62.5471 -1.59233 -0.338909 0
M  V30 660 O 63.7361 -1.78002 -0.133231 0
M  V30 661 C 60.8361 -3.38546 -0.154854 0
M  V30 662 C 60.0091 -4.3031 0.784328 0
M  V30 663 C 59.0681 -5.26138 0.0804583 0
M  V30 664 O 58.0941 -5.64738 0.711292 0
M  V30 665 N 59.2961 -5.68261 -1.18574 0
M  V30 666 H 62.0611 -2.60636 1.47949 0
M  V30 667 H 59.6221 -1.33044 0.922544 0
M  V30 668 H 61.6141 -3.99678 -0.635606 0
M  V30 669 H 60.1841 -2.98012 -0.943811 0
M  V30 670 H 59.4041 -3.66764 1.44491 0
M  V30 671 H 60.6921 -4.8852 1.42218 0
M  V30 672 H 60.0901 -5.38957 -1.71876 0
M  V30 673 H 58.6471 -6.31584 -1.61074 0
M  V30 674 N 62.0802 -0.821533 -1.34494 0
M  V30 675 C 62.9902 -0.244355 -2.33324 0
M  V30 676 C 64.0062 0.620527 -1.62559 0
M  V30 677 O 65.1822 0.528754 -1.94335 0
M  V30 678 C 62.2472 0.585368 -3.41723 0
M  V30 679 C 61.3082 -0.301752 -4.28238 0
M  V30 680 C 60.5412 0.488466 -5.3146 0
M  V30 681 O 60.7642 1.72186 -5.4379 0
M  V30 682 O 59.6982 -0.12848 -6.01763 0
M  V30 683 H 63.5242 -1.06231 -2.84515 0
M  V30 684 H 61.1092 -0.583645 -1.37528 0
M  V30 685 H 62.9912 1.05747 -4.07916 0
M  V30 686 H 61.6662 1.38068 -2.92778 0
M  V30 687 H 60.5732 -0.821315 -3.64973 0
M  V30 688 H 61.9062 -1.06138 -4.8062 0
M  V30 689 N 63.5583 1.46682 -0.576371 0
M  V30 690 C 64.4903 2.28341 0.198231 0
M  V30 691 C 65.5033 1.38141 0.861453 0
M  V30 692 O 66.6923 1.62797 0.732082 0
M  V30 693 C 63.7923 3.12986 1.29972 0
M  V30 694 C 62.9653 4.31271 0.729639 0
M  V30 695 C 62.0243 4.97363 1.71803 0
M  V30 696 O 61.0503 5.55156 1.25658 0
M  V30 697 N 62.2523 4.93796 3.05198 0
M  V30 698 H 65.0173 2.9546 -0.502324 0
M  V30 699 H 62.5783 1.56525 -0.413715 0
M  V30 700 H 64.5703 3.54066 1.96008 0
M  V30 701 H 63.1403 2.47984 1.90323 0
M  V30 702 H 62.3603 3.94052 -0.108012 0
M  V30 703 H 63.6483 5.07739 0.328438 0
M  V30 704 H 63.0463 4.48077 3.45317 0
M  V30 705 H 61.6033 5.38837 3.6674 0
M  V30 706 N 65.0364 0.313813 1.54444 0
M  V30 707 C 66.2844 -0.291099 1.99993 0
M  V30 708 C 66.6054 -1.53418 1.20366 0
M  V30 709 O 65.8754 -1.93544 0.302927 0
M  V30 710 H 64.4554 -0.110552 0.738774 0
M  V30 711 H 67.1174 0.428106 1.9014 0
M  V30 712 H 66.2134 -0.554268 3.07139 0
M  V30 713 N 66.5145 -1.57545 0.0417849 0
M  V30 714 C 67.4645 -2.07483 -0.945247 0
M  V30 715 C 68.4485 -0.977983 -1.27767 0
M  V30 716 O 69.6405 -1.24142 -1.26166 0
M  V30 717 C 66.7695 -2.61576 -2.22335 0
M  V30 718 C 65.8555 -3.78213 -1.91874 0
M  V30 719 N 66.2465 -4.88344 -1.31733 0
M  V30 720 C 64.5445 -3.8694 -2.21796 0
M  V30 721 C 65.2455 -5.69462 -1.1869 0
M  V30 722 N 64.2215 -5.16771 -1.68666 0
M  V30 723 H 68.0235 -2.90029 -0.475441 0
M  V30 724 H 65.5375 -1.61581 -0.162911 0
M  V30 725 H 67.5345 -2.95651 -2.93932 0
M  V30 726 H 66.1945 -1.80465 -2.69931 0
M  V30 727 H 67.2055 -5.08335 -0.990729 0
M  V30 728 H 63.8825 -3.16757 -2.71977 0
M  V30 729 H 65.2725 -6.68023 -0.720793 0
M  V30 730 N 67.9926 0.231505 -1.5589 0
M  V30 731 C 68.9246 1.31006 -1.8807 0
M  V30 732 C 69.9376 1.43539 -0.768145 0
M  V30 733 O 71.1266 1.44614 -1.04638 0
M  V30 734 C 68.2266 2.68688 -2.06543 0
M  V30 735 C 67.3996 2.78228 -3.37502 0
M  V30 736 C 66.4586 3.96857 -3.4553 0
M  V30 737 O 65.4846 3.85662 -4.18633 0
M  V30 738 N 66.6866 5.1072 -2.75944 0
M  V30 739 H 69.4516 1.03731 -2.81176 0
M  V30 740 H 67.0126 0.421573 -1.56315 0
M  V30 741 H 69.0046 3.46412 -2.09239 0
M  V30 742 H 67.5746 2.88605 -1.20109 0
M  V30 743 H 66.7946 1.87059 -3.46991 0
M  V30 744 H 68.0826 2.81564 -4.23791 0
M  V30 745 H 67.4806 5.2271 -2.16311 0
M  V30 746 H 66.0376 5.86523 -2.84314 0
M  V30 747 N 69.4707 1.49531 0.497807 0
M  V30 748 C 70.4007 1.6935 1.60757 0
M  V30 749 C 71.3817 0.542218 1.61227 0
M  V30 750 O 72.5667 0.778417 1.77917 0
M  V30 751 C 69.6967 1.76298 2.99226 0
M  V30 752 C 68.6507 2.91248 3.13622 0
M  V30 753 C 67.9767 2.83312 4.53474 0
M  V30 754 C 69.2767 4.3214 2.93346 0
M  V30 755 H 70.9707 2.62263 1.44425 0
M  V30 756 H 68.5167 1.26208 0.693367 0
M  V30 757 H 70.4697 1.88749 3.76765 0
M  V30 758 H 69.1937 0.799871 3.16654 0
M  V30 759 H 67.8527 2.78404 2.38509 0
M  V30 760 H 67.5007 1.84902 4.67782 0
M  V30 761 H 67.2007 3.60465 4.64046 0
M  V30 762 H 68.7247 2.97775 5.33069 0
M  V30 763 H 70.1387 4.45649 3.60652 0
M  V30 764 H 68.5357 5.1054 3.15387 0
M  V30 765 H 69.6057 4.46363 1.89441 0
M  V30 766 N 70.9488 -0.749086 1.3866 0
M  V30 767 C 71.8788 -1.8764 1.38973 0
M  V30 768 C 72.8598 -1.68178 0.255004 0
M  V30 769 O 74.0448 -1.88704 0.458754 0
M  V30 770 C 71.1748 -3.25222 1.21851 0
M  V30 771 C 70.1288 -3.59295 2.32575 0
M  V30 772 C 69.4548 -4.95663 2.00555 0
M  V30 773 C 70.7548 -3.63709 3.7485 0
M  V30 774 H 72.4488 -1.87635 2.3331 0
M  V30 775 H 69.9948 -0.901329 1.12303 0
M  V30 776 H 71.9478 -4.03746 1.20695 0
M  V30 777 H 70.6718 -3.25719 0.239775 0
M  V30 778 H 69.3308 -2.83093 2.32925 0
M  V30 779 H 68.9788 -4.92724 1.01154 0
M  V30 780 H 68.6788 -5.19429 2.74714 0
M  V30 781 H 70.2028 -5.7656 2.01024 0
M  V30 782 H 71.6168 -4.32338 3.76506 0
M  V30 783 H 70.0138 -3.98986 4.48252 0
M  V30 784 H 71.0838 -2.63834 4.06841 0
M  V30 785 N 72.4269 -1.23603 -0.977757 0
M  V30 786 C 73.3739 -1.01954 -2.07061 0
M  V30 787 C 74.3439 0.0638697 -1.65977 0
M  V30 788 O 75.5289 -0.0887624 -1.90593 0
M  V30 789 C 72.6689 -0.619658 -3.39491 0
M  V30 790 C 71.7819 -1.77547 -3.93829 0
M  V30 791 C 70.9169 -1.32212 -5.14484 0
M  V30 792 C 69.9559 -2.44852 -5.60994 0
M  V30 793 N 69.0929 -2.00456 -6.72876 0
M  V30 794 H 73.9329 -1.95495 -2.24913 0
M  V30 795 H 71.4699 -0.973861 -1.10247 0
M  V30 796 H 73.4279 -0.368898 -4.15566 0
M  V30 797 H 72.0579 0.278752 -3.21594 0
M  V30 798 H 71.1099 -2.14016 -3.14486 0
M  V30 799 H 72.4219 -2.62219 -4.24314 0
M  V30 800 H 71.5759 -1.02965 -5.97899 0
M  V30 801 H 70.3149 -0.445808 -4.85658 0
M  V30 802 H 69.3199 -2.74871 -4.76157 0
M  V30 803 H 70.5449 -3.33024 -5.91837 0
M  V30 804 H 68.4909 -1.15208 -6.45804 0
M  V30 805 H 68.4079 -2.78687 -7.02759 0
M  V30 806 H 69.6759 -1.7432 -7.59758 0
M  V30 807 N 73.905 1.17692 -1.04816 0
M  V30 808 C 74.852 2.21581 -0.645797 0
M  V30 809 C 75.822 1.62367 0.350159 0
M  V30 810 O 77.007 1.89254 0.242433 0
M  V30 811 C 74.147 3.45092 -0.0227568 0
M  V30 812 C 73.26 4.18613 -1.06709 0
M  V30 813 C 72.395 5.29602 -0.411767 0
M  V30 814 C 71.434 5.94904 -1.44067 0
M  V30 815 N 70.571 6.97414 -0.809781 0
M  V30 816 H 75.411 2.55353 -1.5362 0
M  V30 817 H 72.948 1.25438 -0.768364 0
M  V30 818 H 74.906 4.15679 0.35588 0
M  V30 819 H 73.536 3.11917 0.831122 0
M  V30 820 H 72.588 3.46779 -1.5636 0
M  V30 821 H 73.9 4.63293 -1.84827 0
M  V30 822 H 73.054 6.06696 0.0206623 0
M  V30 823 H 71.793 4.86045 0.401438 0
M  V30 824 H 70.798 5.16544 -1.88316 0
M  V30 825 H 72.023 6.40542 -2.25571 0
M  V30 826 H 69.969 6.55998 -0.0170186 0
M  V30 827 H 69.886 7.40386 -1.52856 0
M  V30 828 H 71.154 7.78463 -0.401999 0
M  V30 829 N 75.3831 0.828654 1.34056 0
M  V30 830 C 76.3331 0.226828 2.26869 0
M  V30 831 C 77.3171 -0.612243 1.48796 0
M  V30 832 O 78.5091 -0.465884 1.70759 0
M  V30 833 C 75.6381 -0.605654 3.37915 0
M  V30 834 C 74.7241 0.244361 4.23395 0
M  V30 835 N 75.1151 1.31815 4.88322 0
M  V30 836 C 73.4131 0.0296616 4.4599 0
M  V30 837 C 74.1141 1.83895 5.51867 0
M  V30 838 N 73.0901 1.14196 5.3147 0
M  V30 839 H 76.8921 1.04811 2.74576 0
M  V30 840 H 74.4061 0.67205 1.47842 0
M  V30 841 H 76.4031 -1.05302 4.03382 0
M  V30 842 H 75.0631 -1.42504 2.91758 0
M  V30 843 H 76.0741 1.70099 4.8917 0
M  V30 844 H 72.7511 -0.757097 4.10578 0
M  V30 845 H 74.1411 2.7376 6.136 0
M  V30 846 N 76.8612 -1.46375 0.584142 0
M  V30 847 C 77.7912 -2.33103 -0.136037 0
M  V30 848 C 78.7722 -1.45431 -0.882255 0
M  V30 849 O 79.9572 -1.74246 -0.857434 0
M  V30 850 C 77.0872 -3.27731 -1.14933 0
M  V30 851 C 76.0412 -4.24855 -0.517862 0
M  V30 852 C 75.3672 -5.09001 -1.63773 0
M  V30 853 C 76.6672 -5.19439 0.545886 0
M  V30 854 H 78.3612 -2.93568 0.588086 0
M  V30 855 H 75.9072 -1.41166 0.284259 0
M  V30 856 H 77.8602 -3.87261 -1.66153 0
M  V30 857 H 76.5842 -2.65377 -1.90375 0
M  V30 858 H 75.2432 -3.6659 -0.0267361 0
M  V30 859 H 74.8912 -4.43031 -2.38185 0
M  V30 860 H 74.5912 -5.74777 -1.22085 0
M  V30 861 H 76.1152 -5.71396 -2.15266 0
M  V30 862 H 77.5292 -5.73177 0.118704 0
M  V30 863 H 75.9262 -5.93566 0.88317 0
M  V30 864 H 76.9962 -4.63285 1.43162 0
M  V30 865 N 78.3393 -0.321999 -1.54275 0
M  V30 866 C 79.6163 0.335232 -1.92706 0
M  V30 867 C 79.9963 1.70006 -1.25145 0
M  V30 868 O 79.3443 2.25067 -0.394596 0
M  V30 869 C 79.5543 0.429008 -3.46353 0
M  V30 870 C 80.9023 0.690029 -4.18956 0
M  V30 871 O 81.9263 0.511992 -3.52501 0
M  V30 872 O 80.7853 1.03338 -5.36641 0
M  V30 873 H 77.8793 0.191143 -0.804608 0
M  V30 874 H 80.4253 -0.3716 -1.65581 0
M  V30 875 H 79.1973 -0.529611 -3.87699 0
M  V30 876 H 78.8203 1.18348 -3.79578 0
M  V30 877 N 79.8174 1.5752 -0.0501392 0
M  V30 878 C 81.0454 1.96963 0.633492 0
M  V30 879 C 81.4604 0.927631 1.6444 0
M  V30 880 O 80.8174 -0.0882665 1.82286 0
M  V30 881 C 80.8684 3.36487 1.32132 0
M  V30 882 O 80.5894 4.36693 0.350894 0
M  V30 883 C 82.0904 3.90682 2.09481 0
M  V30 884 H 79.3104 0.648244 0.173266 0
M  V30 885 H 81.8544 2.0417 -0.116134 0
M  V30 886 H 80.0094 3.30434 2.02218 0
M  V30 887 H 80.4234 5.17702 0.841735 0
M  V30 888 H 81.8974 4.90591 2.5303 0
M  V30 889 H 82.3744 3.26053 2.94255 0
M  V30 890 H 82.9804 4.00069 1.44307 0
M  V30 891 N 81.2955 -0.223234 1.56011 0
M  V30 892 C 82.5425 -0.947875 1.78946 0
M  V30 893 C 82.8705 -1.844 0.618608 0
M  V30 894 O 82.1255 -1.91629 -0.397093 0
M  V30 895 C 82.4245 -1.81948 3.0762 0
M  V30 896 C 82.0905 -1.07672 4.37856 0
M  V30 897 C 80.7525 -0.871544 4.73242 0
M  V30 898 C 83.1045 -0.552081 5.18268 0
M  V30 899 C 80.4325 -0.129791 5.86556 0
M  V30 900 C 82.7845 0.17632 6.32354 0
M  V30 901 C 81.4485 0.39277 6.66343 0
M  V30 902 H 80.7185 -0.346852 0.654809 0
M  V30 903 H 83.3655 -0.216171 1.90276 0
M  V30 904 H 81.6705 -2.61899 2.91404 0
M  V30 905 H 83.3675 -2.38227 3.22566 0
M  V30 906 H 79.9575 -1.24662 4.1007 0
M  V30 907 H 84.1415 -0.698076 4.91366 0
M  V30 908 H 79.3975 0.048153 6.11381 0
M  V30 909 H 83.5715 0.590367 6.93893 0
M  V30 910 H 81.1985 0.969466 7.53993 0
M  V30 911 N 82.7736 -1.49793 -0.48987 0
M  V30 912 C 83.7036 -1.70201 -1.59856 0
M  V30 913 C 84.6846 -0.55076 -1.60937 0
M  V30 914 O 85.8696 -0.787841 -1.77501 0
M  V30 915 C 82.9996 -1.77882 -2.98287 0
M  V30 916 C 81.9536 -2.92907 -3.12073 0
M  V30 917 C 81.2796 -2.85712 -4.51965 0
M  V30 918 C 82.5796 -4.3369 -2.91051 0
M  V30 919 H 84.2736 -2.63025 -1.43032 0
M  V30 920 H 81.8196 -1.26574 -0.686664 0
M  V30 921 H 83.7726 -1.90744 -3.75759 0
M  V30 922 H 82.4966 -0.816653 -3.16225 0
M  V30 923 H 81.1556 -2.79665 -2.37029 0
M  V30 924 H 80.8036 -1.8738 -4.66795 0
M  V30 925 H 80.5036 -3.62921 -4.62128 0
M  V30 926 H 82.0276 -3.00598 -5.31482 0
M  V30 927 H 83.4416 -4.47555 -3.58284 0
M  V30 928 H 81.8386 -5.12205 -3.12675 0
M  V30 929 H 82.9086 -4.47362 -1.87071 0
M  V30 930 N 84.2517 0.741722 -1.39055 0
M  V30 931 C 85.1987 1.85566 -1.37237 0
M  V30 932 C 86.1687 1.64457 -0.233072 0
M  V30 933 O 87.3537 1.85957 -0.427147 0
M  V30 934 C 84.4937 3.23004 -1.215 0
M  V30 935 C 83.6067 3.55864 -2.44918 0
M  V30 936 C 82.7417 4.82669 -2.21821 0
M  V30 937 C 81.7807 5.08351 -3.40948 0
M  V30 938 N 80.9177 6.26356 -3.17211 0
M  V30 939 H 85.7577 1.86455 -2.32462 0
M  V30 940 H 83.2947 0.911176 -1.15482 0
M  V30 941 H 85.2527 4.02331 -1.10389 0
M  V30 942 H 83.8827 3.21411 -0.29908 0
M  V30 943 H 82.9347 2.7129 -2.66657 0
M  V30 944 H 84.2467 3.70765 -3.33668 0
M  V30 945 H 83.4007 5.69962 -2.07914 0
M  V30 946 H 82.1397 4.69929 -1.30454 0
M  V30 947 H 81.1447 4.19522 -3.55361 0
M  V30 948 H 82.3697 5.22981 -4.33207 0
M  V30 949 H 80.3157 6.14917 -2.28502 0
M  V30 950 H 80.2327 6.41813 -3.99515 0
M  V30 951 H 81.5007 7.16506 -3.06984 0
M  V30 952 N 85.7298 1.2412 0.971189 0
M  V30 953 C 86.9778 1.07668 1.71032 0
M  V30 954 C 87.2988 -0.385797 1.91146 0
M  V30 955 O 86.5688 -1.27569 1.4867 0
M  V30 956 H 85.1488 0.395429 0.633755 0
M  V30 957 H 87.8108 1.55984 1.16855 0
M  V30 958 H 86.9068 1.57195 2.69622 0
M  V30 959 N 87.2079 -1.17134 1.05439 0
M  V30 960 C 88.1549 -2.21235 0.657539 0
M  V30 961 C 89.1249 -1.62551 -0.341543 0
M  V30 962 O 90.3099 -1.89379 -0.232393 0
M  V30 963 C 87.4499 -3.45076 0.0410575 0
M  V30 964 C 86.5629 -4.18042 1.08927 0
M  V30 965 C 85.6979 -5.29376 0.439848 0
M  V30 966 C 84.7369 -5.94132 1.4722 0
M  V30 967 N 83.8739 -6.96975 0.846756 0
M  V30 968 H 88.7139 -2.54534 1.54972 0
M  V30 969 H 86.2509 -1.25028 0.775006 0
M  V30 970 H 88.2089 -4.15862 -0.33383 0
M  V30 971 H 86.8389 -3.12353 -0.814568 0
M  V30 972 H 85.8909 -3.45945 1.58196 0
M  V30 973 H 87.2029 -4.62306 1.87282 0
M  V30 974 H 86.3569 -6.06699 0.0115125 0
M  V30 975 H 85.0959 -4.86251 -0.375656 0
M  V30 976 H 84.1009 -5.15538 1.91052 0
M  V30 977 H 85.3259 -6.39337 2.28965 0
M  V30 978 H 83.2719 -6.5598 0.0518075 0
M  V30 979 H 83.1889 -7.39565 1.5678 0
M  V30 980 H 84.4569 -7.78239 0.443277 0
M  V30 981 N 88.686 -0.835752 -1.33615 0
M  V30 982 C 89.911 -0.442389 -2.02627 0
M  V30 983 C 90.336 0.947735 -1.62479 0
M  V30 984 O 89.694 1.61907 -0.815826 0
M  V30 985 C 89.742 -0.567216 -3.56111 0
M  V30 986 O 88.846 0.407799 -4.10379 0
M  V30 987 H 88.187 -0.180278 -0.639059 0
M  V30 988 H 90.717 -1.12972 -1.70583 0
M  V30 989 H 90.727 -0.447708 -4.05536 0
M  V30 990 H 89.402 -1.58103 -3.84677 0
M  V30 991 H 87.979 0.246107 -3.72087 0
M  V30 992 N 90.1641 1.46063 -0.591896 0
M  V30 993 C 91.4121 2.01938 -0.0808391 0
M  V30 994 C 91.7331 1.46475 1.28725 0
M  V30 995 O 91.0031 0.652944 1.84698 0
M  V30 996 H 89.5831 0.746516 -0.0268938 0
M  V30 997 H 92.2451 1.79055 -0.769752 0
M  V30 998 H 91.3411 3.12094 -0.0187578 0
M  V30 999 N 91.6422 0.330177 1.54103 0
M  V30 1000 C 92.5722 -0.525353 2.27513 0
M  V30 1001 C 93.5532 -1.11383 1.2856 0
M  V30 1002 O 94.7382 -1.13773 1.57383 0
M  V30 1003 C 91.8682 -1.6831 3.03791 0
M  V30 1004 C 90.8222 -1.2236 4.10137 0
M  V30 1005 C 90.1482 -2.46882 4.74293 0
M  V30 1006 C 91.4482 -0.333697 5.21233 0
M  V30 1007 H 93.1422 0.087013 2.99274 0
M  V30 1008 H 90.6882 0.0432893 1.43935 0
M  V30 1009 H 92.6412 -2.28795 3.5388 0
M  V30 1010 H 91.3652 -2.32216 2.29659 0
M  V30 1011 H 90.0242 -0.64165 3.60941 0
M  V30 1012 H 89.6722 -3.09165 3.96769 0
M  V30 1013 H 89.3722 -2.16825 5.46133 0
M  V30 1014 H 90.8962 -3.08117 5.27159 0
M  V30 1015 H 92.3102 -0.845013 5.67038 0
M  V30 1016 H 90.7072 -0.125612 5.99969 0
M  V30 1017 H 91.7772 0.633724 4.80741 0
M  V30 1018 N 93.1203 -1.57491 0.0584922 0
M  V30 1019 C 94.5363 -1.56792 -0.298091 0
M  V30 1020 C 94.7363 -1.06679 -1.70944 0
M  V30 1021 O 93.7923 -0.726672 -2.41818 0
M  V30 1022 C 95.1053 -3.00461 -0.119879 0
M  V30 1023 C 96.6533 -3.1242 -0.190428 0
M  V30 1024 C 97.1283 -4.57982 -0.0406567 0
M  V30 1025 N 98.6193 -4.63099 -0.0966958 0
M  V30 1026 C 99.3543 -5.734 -0.00502943 0
M  V30 1027 N 98.8503 -6.9266 0.139402 0
M  V30 1028 N 100.643 -5.62067 -0.0611391 0
M  V30 1029 H 92.7943 -1.88386 0.98105 0
M  V30 1030 H 95.0573 -0.867865 0.381463 0
M  V30 1031 H 94.7633 -3.41187 0.85349 0
M  V30 1032 H 94.6373 -3.66843 -0.877833 0
M  V30 1033 H 97.0243 -2.71589 -1.15427 0
M  V30 1034 H 97.1053 -2.48702 0.598405 0
M  V30 1035 H 96.7493 -4.995 0.919897 0
M  V30 1036 H 96.6793 -5.19715 -0.848727 0
M  V30 1037 H 99.1703 -3.77331 -0.207277 0
M  V30 1038 H 99.4833 -7.72536 0.201855 0
M  V30 1039 H 97.8283 -6.94781 0.174586 0
M  V30 1040 H 101.019 -4.67782 -0.172583 0
M  V30 1041 H 101.192 -6.47999 0.0137562 0
M  V30 1042 N 94.5984 0.214957 -1.56127 0
M  V30 1043 C 95.8444 0.939762 -1.79712 0
M  V30 1044 C 96.1774 1.83723 -0.629247 0
M  V30 1045 O 95.4524 1.90925 0.371197 0
M  V30 1046 C 95.7354 1.77306 -3.13424 0
M  V30 1047 C 95.5884 0.90164 -4.40671 0
M  V30 1048 C 96.9074 2.74956 -3.43638 0
M  V30 1049 H 94.0264 0.340214 -0.653776 0
M  V30 1050 H 96.6684 0.20824 -1.88855 0
M  V30 1051 H 94.8184 2.39673 -3.0576 0
M  V30 1052 H 96.4904 0.294206 -4.60361 0
M  V30 1053 H 94.7334 0.207368 -4.33304 0
M  V30 1054 H 95.4044 1.51923 -5.30682 0
M  V30 1055 H 97.8804 2.22724 -3.51473 0
M  V30 1056 H 96.7564 3.30358 -4.38355 0
M  V30 1057 H 97.0174 3.53023 -2.66134 0
M  V30 1058 N 96.0765 1.50051 0.48192 0
M  V30 1059 C 97.3235 1.60498 1.23477 0
M  V30 1060 C 97.6515 0.300331 1.92167 0
M  V30 1061 O 96.9065 -0.713094 1.82246 0
M  V30 1062 C 97.2055 2.72717 2.30998 0
M  V30 1063 C 96.8715 4.13572 1.79636 0
M  V30 1064 C 95.5335 4.519 1.65348 0
M  V30 1065 C 97.8855 5.01649 1.41412 0
M  V30 1066 C 95.2135 5.76057 1.11244 0
M  V30 1067 C 97.5655 6.26343 0.887538 0
M  V30 1068 C 96.2295 6.63483 0.731207 0
M  V30 1069 H 95.4995 0.587303 0.451836 0
M  V30 1070 H 98.1465 1.83948 0.532468 0
M  V30 1071 H 96.4515 2.43312 3.07094 0
M  V30 1072 H 98.1485 2.78006 2.88988 0
M  V30 1073 H 94.7385 3.83329 1.91721 0
M  V30 1074 H 98.9225 4.72679 1.51289 0
M  V30 1075 H 94.1785 6.03516 0.978686 0
M  V30 1076 H 98.3525 6.93958 0.582654 0
M  V30 1077 H 95.9795 7.59568 0.309806 0
M  V30 1078 N 97.5546 -0.734337 1.39446 0
M  V30 1079 C 98.8016 -1.49391 1.36706 0
M  V30 1080 C 99.1296 -1.94465 -0.0367813 0
M  V30 1081 O 98.3846 -1.67154 -1.01774 0
M  V30 1082 C 98.6836 -2.74711 2.28623 0
M  V30 1083 C 98.3496 -2.48501 3.76242 0
M  V30 1084 C 97.0116 -2.41062 4.16464 0
M  V30 1085 C 99.3636 -2.26098 4.69606 0
M  V30 1086 C 96.6916 -2.09262 5.48112 0
M  V30 1087 C 99.0436 -1.95814 6.01531 0
M  V30 1088 C 97.7076 -1.86845 6.40816 0
M  V30 1089 H 96.9776 -0.546661 0.500243 0
M  V30 1090 H 99.6246 -0.842788 1.71957 0
M  V30 1091 H 97.9296 -3.44569 1.86492 0
M  V30 1092 H 99.6266 -3.32741 2.23796 0
M  V30 1093 H 96.2166 -2.55169 3.44364 0
M  V30 1094 H 100.401 -2.30812 4.39363 0
M  V30 1095 H 95.6566 -2.00841 5.77471 0
M  V30 1096 H 99.8306 -1.77488 6.73403 0
M  V30 1097 H 97.4576 -1.6197 7.42745 0
M  V30 1098 N 99.0327 -1.24633 -0.964593 0
M  V30 1099 C 100.444 -1.08045 -1.5226 0
M  V30 1100 C 100.795 0.347116 -1.93105 0
M  V30 1101 O 99.9197 1.23588 -1.77637 0
M  V30 1102 C 100.515 -1.95514 -2.76695 0
M  V30 1103 C 99.0737 -1.8314 -3.28841 0
M  V30 1104 C 98.2207 -1.90262 -2.01732 0
M  V30 1105 H 101.172 -1.38064 -0.782553 0
M  V30 1106 H 101.193 -1.48925 -3.50145 0
M  V30 1107 H 100.705 -2.99407 -2.46936 0
M  V30 1108 H 98.8057 -0.82092 -3.63444 0
M  V30 1109 H 98.9187 -2.67406 -3.97531 0
M  V30 1110 H 97.2827 -1.34027 -2.16584 0
M  V30 1111 H 98.0657 -2.9574 -1.74334 0
M  V30 1112 N 100.511 1.16574 -1.06058 0
M  V30 1113 C 101.441 2.23057 -0.690488 0
M  V30 1114 C 102.422 1.67141 0.315901 0
M  V30 1115 O 103.607 1.93253 0.191556 0
M  V30 1116 C 100.737 3.47222 -0.073625 0
M  V30 1117 C 99.6908 4.16016 -1.00573 0
M  V30 1118 C 99.0168 5.34104 -0.252289 0
M  V30 1119 C 100.317 4.67264 -2.33371 0
M  V30 1120 H 102.011 2.54271 -1.58072 0
M  V30 1121 H 99.5568 1.22218 -0.76149 0
M  V30 1122 H 101.51 4.20939 0.19714 0
M  V30 1123 H 100.234 3.15302 0.85161 0
M  V30 1124 H 98.8928 3.44223 -1.2612 0
M  V30 1125 H 98.5408 4.98437 0.675988 0
M  V30 1126 H 98.2408 5.81072 -0.873455 0
M  V30 1127 H 99.7648 6.10599 0.0109857 0
M  V30 1128 H 101.179 5.32573 -2.12223 0
M  V30 1129 H 99.5758 5.24843 -2.90963 0
M  V30 1130 H 100.646 3.83602 -2.96611 0
M  V30 1131 N 101.989 0.842826 1.3317 0
M  V30 1132 C 103.229 0.446574 1.99462 0
M  V30 1133 C 103.593 -0.976818 1.65295 0
M  V30 1134 O 104.794 -1.477 2.24584 0
M  V30 1135 C 103.065 0.665353 3.51152 0
M  V30 1136 S 104.624 0.364911 4.3728 0
M  V30 1137 H 101.442 0.167803 0.690915 0
M  V30 1138 H 104.044 1.09297 1.62094 0
M  V30 1139 H 102.748 1.7006 3.73507 0
M  V30 1140 H 102.279 0.00494568 3.934 0
M  V30 1141 H 104.294 -0.813761 4.89482 0
M  V30 1142 N 103.467 -1.45747 0.599634 0
M  V30 1143 C 104.715 -2.01893 0.0915472 0
M  V30 1144 C 105.036 -1.47155 -1.27946 0
M  V30 1145 O 104.306 -0.66273 -1.84349 0
M  V30 1146 H 102.886 -0.746363 0.0308524 0
M  V30 1147 H 105.548 -1.78645 0.779237 0
M  V30 1148 H 104.644 -3.1208 0.0353086 0
M  V30 1149 N 104.945 -0.338344 -1.53925 0
M  V30 1150 C 105.892 0.520845 -2.24846 0
M  V30 1151 C 106.862 1.09976 -1.24477 0
M  V30 1152 O 108.047 1.13735 -1.53196 0
M  V30 1153 C 105.187 1.6685 -3.02084 0
M  V30 1154 C 104.3 1.11739 -4.17299 0
M  V30 1155 C 103.435 2.23193 -4.82036 0
M  V30 1156 C 102.474 1.65407 -5.89328 0
M  V30 1157 N 101.611 2.70582 -6.47866 0
M  V30 1158 H 106.451 -0.0904881 -2.97863 0
M  V30 1159 H 103.988 -0.0564282 -1.46992 0
M  V30 1160 H 105.946 2.34407 -3.45122 0
M  V30 1161 H 104.576 2.2509 -2.31375 0
M  V30 1162 H 103.628 0.332919 -3.7894 0
M  V30 1163 H 104.94 0.654677 -4.94485 0
M  V30 1164 H 104.094 2.98626 -5.28117 0
M  V30 1165 H 102.833 2.72807 -4.04262 0
M  V30 1166 H 101.838 0.884779 -5.42634 0
M  V30 1167 H 103.063 1.16652 -6.69006 0
M  V30 1168 H 101.009 3.1946 -5.72959 0
M  V30 1169 H 100.926 2.28917 -7.20509 0
M  V30 1170 H 102.194 3.45799 -6.98601 0
M  V30 1171 N 106.423 1.57458 -0.0668435 0
M  V30 1172 C 107.386 2.11323 0.887422 0
M  V30 1173 C 108.386 1.03618 1.22964 0
M  V30 1174 O 109.576 1.29626 1.16373 0
M  V30 1175 C 106.708 2.61048 2.19242 0
M  V30 1176 H 107.901 2.96942 0.420194 0
M  V30 1177 H 105.454 1.55239 0.181793 0
M  V30 1178 H 106.189 1.78868 2.70512 0
M  V30 1179 H 105.974 3.39769 1.95702 0
M  V30 1180 H 107.464 3.02814 2.87565 0
M  V30 1181 N 107.901 -0.206675 1.56239 0
M  V30 1182 C 109.147 -0.930218 1.80208 0
M  V30 1183 C 109.48 -1.83387 0.638981 0
M  V30 1184 O 108.755 -1.91119 -0.361066 0
M  V30 1185 C 109.038 -1.75641 3.1436 0
M  V30 1186 C 108.891 -0.878257 4.41142 0
M  V30 1187 C 110.21 -2.73129 3.45092 0
M  V30 1188 H 107.329 -0.336742 0.655571 0
M  V30 1189 H 109.971 -0.198222 1.88963 0
M  V30 1190 H 108.121 -2.38048 3.07027 0
M  V30 1191 H 109.793 -0.269787 4.6051 0
M  V30 1192 H 108.036 -0.184385 4.33408 0
M  V30 1193 H 108.707 -1.49106 5.3148 0
M  V30 1194 H 111.183 -2.20856 3.52649 0
M  V30 1195 H 110.059 -3.28028 4.40101 0
M  V30 1196 H 110.32 -3.51606 2.68003 0
M  V30 1197 N 109.379 -1.50304 -0.473955 0
M  V30 1198 C 110.289 -1.7174 -1.5982 0
M  V30 1199 C 111.305 -0.600457 -1.63311 0
M  V30 1200 O 112.481 -0.878441 -1.81233 0
M  V30 1201 C 109.546 -1.80427 -2.96052 0
M  V30 1202 C 108.607 -3.04148 -3.02972 0
M  V30 1203 C 107.84 -3.12411 -4.32706 0
M  V30 1204 O 108.063 -2.27542 -5.23049 0
M  V30 1205 O 106.997 -4.05113 -4.45159 0
M  V30 1206 H 110.823 -2.67035 -1.44657 0
M  V30 1207 H 108.408 -1.34366 -0.653148 0
M  V30 1208 H 110.29 -1.88338 -3.7697 0
M  V30 1209 H 108.965 -0.883156 -3.11419 0
M  V30 1210 H 107.872 -3.0174 -2.21142 0
M  V30 1211 H 109.205 -3.95829 -2.92541 0
M  V30 1212 N 110.857 0.726932 -1.39834 0
M  V30 1213 C 111.79 1.8501 -1.33592 0
M  V30 1214 C 112.768 1.61262 -0.208191 0
M  V30 1215 O 113.952 1.84422 -0.389981 0
M  V30 1216 C 111.079 3.21143 -1.07633 0
M  V30 1217 C 110.125 3.63737 -2.22705 0
M  V30 1218 S 110.958 3.72167 -3.85035 0
M  V30 1219 C 112.114 5.11077 -3.61318 0
M  V30 1220 H 112.347 1.90022 -2.28646 0
M  V30 1221 H 109.88 0.892595 -1.25985 0
M  V30 1222 H 111.838 3.99747 -0.933415 0
M  V30 1223 H 110.499 3.13776 -0.142526 0
M  V30 1224 H 109.692 4.62551 -2.00155 0
M  V30 1225 H 109.294 2.9236 -2.33242 0
M  V30 1226 H 111.586 5.97656 -3.19083 0
M  V30 1227 H 112.529 5.38658 -4.59623 0
M  V30 1228 H 112.937 4.81135 -2.95245 0
M  V30 1229 N 112.336 1.25143 0.95797 0
M  V30 1230 C 113.283 1.05235 2.05412 0
M  V30 1231 C 114.253 -0.0374561 1.66058 0
M  V30 1232 O 115.438 0.119073 1.90428 0
M  V30 1233 C 112.578 0.673589 3.38462 0
M  V30 1234 C 111.691 1.8379 3.90954 0
M  V30 1235 C 110.826 1.40381 5.12315 0
M  V30 1236 C 109.865 2.53746 5.57027 0
M  V30 1237 N 109.002 2.11136 6.69601 0
M  V30 1238 H 113.842 1.99048 2.21774 0
M  V30 1239 H 111.379 0.991277 1.08683 0
M  V30 1240 H 113.337 0.434964 4.14926 0
M  V30 1241 H 111.967 -0.227554 3.21997 0
M  V30 1242 H 111.019 2.18992 3.11041 0
M  V30 1243 H 112.331 2.68937 4.20089 0
M  V30 1244 H 111.485 1.12464 5.96185 0
M  V30 1245 H 110.224 0.523015 4.84887 0
M  V30 1246 H 109.229 2.82412 4.71724 0
M  V30 1247 H 110.454 3.42398 5.86464 0
M  V30 1248 H 108.4 1.25468 6.4389 0
M  V30 1249 H 108.317 2.89832 6.98236 0
M  V30 1250 H 109.585 1.86385 7.56889 0
M  V30 1251 N 113.814 -1.1601 1.06675 0
M  V30 1252 C 115.06 -1.87145 0.796766 0
M  V30 1253 C 115.415 -1.8037 -0.669658 0
M  V30 1254 O 114.708 -1.21116 -1.48463 0
M  V30 1255 C 114.902 -3.35547 1.23057 0
M  V30 1256 C 114.731 -3.56769 2.73762 0
M  V30 1257 C 113.501 -3.72635 3.41279 0
M  V30 1258 C 115.699 -3.55166 3.7197 0
M  V30 1259 N 113.681 -3.81845 4.80695 0
M  V30 1260 C 115.052 -3.70406 4.97191 0
M  V30 1261 C 117.107 -3.384 3.65226 0
M  V30 1262 C 115.81 -3.70615 6.16471 0
M  V30 1263 C 117.836 -3.39904 4.83962 0
M  V30 1264 C 117.198 -3.55667 6.08013 0
M  V30 1265 H 113.297 -0.702267 0.344014 0
M  V30 1266 H 115.881 -1.39165 1.36166 0
M  V30 1267 H 114.052 -3.82159 0.693456 0
M  V30 1268 H 115.784 -3.94363 0.908844 0
M  V30 1269 H 112.539 -3.73121 2.91681 0
M  V30 1270 H 112.963 -3.90209 5.53232 0
M  V30 1271 H 117.605 -3.25138 2.70269 0
M  V30 1272 H 115.323 -3.82658 7.11757 0
M  V30 1273 H 118.909 -3.28169 4.80413 0
M  V30 1274 H 117.789 -3.56755 6.98352 0
M  V30 1275 N 115.292 -0.849877 -1.32721 0
M  V30 1276 C 116.539 -0.450923 -1.97416 0
M  V30 1277 C 116.867 0.992376 -1.67279 0
M  V30 1278 O 116.122 1.71048 -0.950845 0
M  V30 1279 C 116.421 -0.631272 -3.51781 0
M  V30 1280 C 116.087 -2.04432 -4.01894 0
M  V30 1281 C 114.749 -2.4308 -4.1529 0
M  V30 1282 C 117.101 -2.96679 -4.28522 0
M  V30 1283 C 114.429 -3.73257 -4.52654 0
M  V30 1284 C 116.781 -4.26349 -4.67343 0
M  V30 1285 C 115.445 -4.64939 -4.78945 0
M  V30 1286 H 114.715 -0.165004 -0.722395 0
M  V30 1287 H 117.362 -1.07901 -1.58207 0
M  V30 1288 H 115.667 0.0800767 -3.91718 0
M  V30 1289 H 117.364 -0.302709 -3.99856 0
M  V30 1290 H 113.954 -1.73419 -3.91949 0
M  V30 1291 H 118.138 -2.68054 -4.17685 0
M  V30 1292 H 113.394 -4.02946 -4.59831 0
M  V30 1293 H 117.568 -4.97895 -4.86902 0
M  V30 1294 H 115.195 -5.65855 -5.07654 0
M  V30 1295 N 116.77 1.45427 -0.607355 0
M  V30 1296 C 117.733 2.28974 0.101693 0
M  V30 1297 C 118.733 1.39754 0.795329 0
M  V30 1298 O 119.923 1.61878 0.643527 0
M  V30 1299 C 117.055 3.20768 1.15414 0
M  V30 1300 H 118.248 2.93147 -0.632844 0
M  V30 1301 H 115.801 1.51945 -0.366391 0
M  V30 1302 H 116.536 2.61395 1.91945 0
M  V30 1303 H 116.321 3.86489 0.66098 0
M  V30 1304 H 117.811 3.83589 1.65073 0
M  V30 1305 N 118.248 0.346503 1.53744 0
M  V30 1306 C 119.525 -0.304532 1.93215 0
M  V30 1307 C 119.905 -1.67993 1.27834 0
M  V30 1308 O 119.253 -2.24411 0.430352 0
M  V30 1309 C 119.463 -0.373852 3.46992 0
M  V30 1310 C 120.811 -0.62329 4.2 0
M  V30 1311 O 121.835 -0.455847 3.53271 0
M  V30 1312 O 120.694 -0.947879 5.38217 0
M  V30 1313 H 117.788 -0.178318 0.807547 0
M  V30 1314 H 120.334 0.397895 1.64969 0
M  V30 1315 H 119.106 0.591224 3.86808 0
M  V30 1316 H 118.729 -1.12294 3.81413 0
M  V30 1317 N 119.726 -1.57421 0.075193 0
M  V30 1318 C 121.142 -1.57099 -0.281444 0
M  V30 1319 C 121.342 -1.08486 -1.69803 0
M  V30 1320 O 120.398 -0.752279 -2.41033 0
M  V30 1321 C 121.711 -3.00571 -0.0880041 0
M  V30 1322 C 123.259 -3.12605 -0.157281 0
M  V30 1323 C 123.734 -4.57999 0.0079207 0
M  V30 1324 N 125.225 -4.63176 -0.0475725 0
M  V30 1325 C 125.96 -5.73373 0.0557876 0
M  V30 1326 N 125.456 -6.92473 0.21286 0
M  V30 1327 N 127.249 -5.621 -0.00152098 0
M  V30 1328 H 119.4 -1.87335 1.00098 0
M  V30 1329 H 121.663 -0.86377 0.390646 0
M  V30 1330 H 121.369 -3.40262 0.889629 0
M  V30 1331 H 121.243 -3.67754 -0.838875 0
M  V30 1332 H 123.63 -2.72798 -1.1254 0
M  V30 1333 H 123.711 -2.48053 0.62475 0
M  V30 1334 H 123.355 -4.98496 0.972824 0
M  V30 1335 H 123.285 -5.20586 -0.793556 0
M  V30 1336 H 125.776 -3.7753 -0.167244 0
M  V30 1337 H 126.089 -7.72279 0.283781 0
M  V30 1338 H 124.434 -6.94556 0.248267 0
M  V30 1339 H 127.625 -4.67938 -0.122958 0
M  V30 1340 H 127.798 -6.47948 0.0824844 0
M  V30 1341 N 121.204 0.198386 -1.56346 0
M  V30 1342 C 122.452 0.91747 -1.80075 0
M  V30 1343 C 122.773 1.83929 -0.647692 0
M  V30 1344 O 122.043 1.93029 0.334166 0
M  V30 1345 H 120.623 0.341774 -0.664228 0
M  V30 1346 H 123.285 0.204684 -1.93822 0
M  V30 1347 H 122.381 1.51055 -2.7311 0
M  V30 1348 N 122.682 1.50554 0.465978 0
M  V30 1349 C 123.632 1.66177 1.56106 0
M  V30 1350 C 124.616 0.516265 1.52393 0
M  V30 1351 O 125.808 0.770906 1.5933 0
M  V30 1352 C 122.937 1.76396 2.94515 0
M  V30 1353 C 122.023 2.9664 3.03093 0
M  V30 1354 N 122.414 4.20245 2.81474 0
M  V30 1355 C 120.712 2.95304 3.34233 0
M  V30 1356 C 121.413 5.01259 2.95151 0
M  V30 1357 N 120.389 4.35318 3.25576 0
M  V30 1358 H 124.191 2.59434 1.38099 0
M  V30 1359 H 121.705 1.47808 0.6728 0
M  V30 1360 H 123.702 1.85694 3.73261 0
M  V30 1361 H 122.362 0.843017 3.13565 0
M  V30 1362 H 123.373 4.4966 2.56956 0
M  V30 1363 H 120.05 2.12729 3.59239 0
M  V30 1364 H 121.44 6.09564 2.82632 0
M  V30 1365 N 124.16 -0.719506 1.40217 0
M  V30 1366 C 125.385 -1.51371 1.4178 0
M  V30 1367 C 125.81 -1.88091 0.0182355 0
M  V30 1368 O 125.168 -1.52997 -0.972707 0
M  V30 1369 C 125.216 -2.768 2.31115 0
M  V30 1370 O 124.32 -3.73349 1.7517 0
M  V30 1371 H 123.661 -0.456529 0.482159 0
M  V30 1372 H 126.191 -0.88644 1.844 0
M  V30 1373 H 126.201 -3.25371 2.46167 0
M  V30 1374 H 124.876 -2.49407 3.3282 0
M  V30 1375 H 123.453 -3.32179 1.69444 0
M  V30 1376 N 125.638 -1.25649 -0.95132 0
M  V30 1377 C 126.884 -1.10757 -1.69884 0
M  V30 1378 C 127.217 0.350061 -1.91019 0
M  V30 1379 O 126.492 1.25783 -1.48354 0
M  V30 1380 C 126.775 -1.86606 -3.07978 0
M  V30 1381 C 126.628 -3.40217 -2.94232 0
M  V30 1382 C 127.947 -1.65182 -4.07925 0
M  V30 1383 H 125.066 -0.40374 -0.616574 0
M  V30 1384 H 127.708 -1.54521 -1.10558 0
M  V30 1385 H 125.858 -1.49409 -3.58621 0
M  V30 1386 H 127.53 -3.87108 -2.50889 0
M  V30 1387 H 125.773 -3.67759 -2.30078 0
M  V30 1388 H 126.444 -3.88505 -3.92133 0
M  V30 1389 H 128.92 -1.9757 -3.66204 0
M  V30 1390 H 127.796 -2.20683 -5.02583 0
M  V30 1391 H 128.057 -0.593933 -4.38092 0
M  V30 1392 N 127.117 1.15442 -1.07289 0
M  V30 1393 C 128.363 1.86489 -0.796846 0
M  V30 1394 C 128.696 1.82078 0.675371 0
M  V30 1395 O 127.971 1.24346 1.4956 0
M  V30 1396 C 128.254 3.35626 -1.30489 0
M  V30 1397 C 128.107 3.48673 -2.84161 0
M  V30 1398 C 129.426 4.30357 -0.920907 0
M  V30 1399 H 126.545 0.677144 -0.290939 0
M  V30 1400 H 129.187 1.35633 -1.33056 0
M  V30 1401 H 127.337 3.79068 -0.850883 0
M  V30 1402 H 129.009 3.14099 -3.37846 0
M  V30 1403 H 127.252 2.90253 -3.22391 0
M  V30 1404 H 127.923 4.53453 -3.14777 0
M  V30 1405 H 130.399 3.94871 -1.3121 0
M  V30 1406 H 129.275 5.33193 -1.30372 0
M  V30 1407 H 129.536 4.4176 0.173226 0
M  V30 1408 N 128.595 0.856903 1.32268 0
M  V30 1409 C 129.843 0.460474 1.96784 0
M  V30 1410 C 130.164 -0.987701 1.68135 0
M  V30 1411 O 129.434 -1.69058 0.989765 0
M  V30 1412 H 128.014 0.167289 0.728027 0
M  V30 1413 H 130.676 1.09383 1.61312 0
M  V30 1414 H 129.772 0.60739 3.06133 0
M  V30 1415 N 130.073 -1.45103 0.615059 0
M  V30 1416 C 131.319 -2.02483 0.113347 0
M  V30 1417 C 131.652 -1.48146 -1.25564 0
M  V30 1418 O 130.927 -0.659104 -1.82992 0
M  V30 1419 C 131.21 -3.60005 0.0825278 0
M  V30 1420 C 131.063 -4.2466 1.48271 0
M  V30 1421 C 132.382 -4.35972 -0.601401 0
M  V30 1422 H 129.501 -0.735764 0.0426632 0
M  V30 1423 H 132.143 -1.72868 0.788461 0
M  V30 1424 H 130.293 -3.85367 -0.492378 0
M  V30 1425 H 131.965 -4.10458 2.10527 0
M  V30 1426 H 130.208 -3.82772 2.04127 0
M  V30 1427 H 130.879 -5.336 1.41332 0
M  V30 1428 H 133.355 -4.15947 -0.112666 0
M  V30 1429 H 132.231 -5.45697 -0.592097 0
M  V30 1430 H 132.492 -4.09391 -1.66887 0
M  V30 1431 N 131.551 -0.354651 -1.53558 0
M  V30 1432 C 132.461 0.50515 -2.29097 0
M  V30 1433 C 133.477 1.10223 -1.34636 0
M  V30 1434 O 134.653 1.11553 -1.67684 0
M  V30 1435 C 131.718 1.63479 -3.05738 0
M  V30 1436 C 130.779 1.06636 -4.15845 0
M  V30 1437 C 130.012 2.14217 -4.88822 0
M  V30 1438 O 130.235 3.35137 -4.61562 0
M  V30 1439 O 129.169 1.77887 -5.75013 0
M  V30 1440 H 132.995 -0.109237 -3.03503 0
M  V30 1441 H 130.58 -0.119357 -1.48922 0
M  V30 1442 H 132.462 2.2918 -3.5363 0
M  V30 1443 H 131.137 2.23478 -2.34178 0
M  V30 1444 H 130.044 0.373565 -3.7223 0
M  V30 1445 H 131.377 0.511081 -4.89539 0
M  V30 1446 N 133.029 1.57378 -0.0835403 0
M  V30 1447 C 134.278 1.93106 0.582498 0
M  V30 1448 C 134.591 0.96651 1.70053 0
M  V30 1449 O 135.797 1.21705 2.42693 0
M  V30 1450 C 134.253 3.43076 1.08751 0
M  V30 1451 C 133.861 4.48 -0.000146404 0
M  V30 1452 C 135.605 3.87785 1.72694 0
M  V30 1453 C 133.512 5.89113 0.519568 0
M  V30 1454 H 132.442 0.720775 0.221358 0
M  V30 1455 H 135.093 1.82821 -0.157675 0
M  V30 1456 H 133.475 3.48474 1.88101 0
M  V30 1457 H 134.649 4.54233 -0.775199 0
M  V30 1458 H 132.964 4.1283 -0.54406 0
M  V30 1459 H 135.561 4.90604 2.1263 0
M  V30 1460 H 135.904 3.25796 2.59158 0
M  V30 1461 H 136.437 3.8504 0.999457 0
M  V30 1462 H 133.176 6.54775 -0.308186 0
M  V30 1463 H 132.696 5.86376 1.26188 0
M  V30 1464 H 134.375 6.39346 0.992237 0
M  V30 1465 N 134.507 -0.190092 1.56449 0
M  V30 1466 C 135.732 -0.929864 1.85387 0
M  V30 1467 C 136.157 -1.7585 0.667704 0
M  V30 1468 O 135.515 -1.77198 -0.383459 0
M  V30 1469 C 135.563 -1.79773 3.12593 0
M  V30 1470 O 134.667 -2.89713 2.93496 0
M  V30 1471 H 134.008 -0.261574 0.610307 0
M  V30 1472 H 136.538 -0.193896 2.03679 0
M  V30 1473 H 136.548 -2.20139 3.43515 0
M  V30 1474 H 135.223 -1.18892 3.98544 0
M  V30 1475 H 133.8 -2.53065 2.73884 0
M  V30 1476 N 135.985 -1.50799 -0.457987 0
M  V30 1477 C 136.895 -1.73426 -1.57989 0
M  V30 1478 C 137.911 -0.617745 -1.62665 0
M  V30 1479 O 139.087 -0.897614 -1.80291 0
M  V30 1480 C 136.152 -1.83557 -2.94122 0
M  V30 1481 C 135.213 -3.07345 -2.99729 0
M  V30 1482 C 134.446 -3.16983 -4.29368 0
M  V30 1483 O 134.669 -2.33077 -5.20607 0
M  V30 1484 O 133.603 -4.09812 -4.40837 0
M  V30 1485 H 137.429 -2.68555 -1.41817 0
M  V30 1486 H 135.014 -1.35052 -0.638859 0
M  V30 1487 H 136.896 -1.92326 -3.74952 0
M  V30 1488 H 135.571 -0.916137 -3.10465 0
M  V30 1489 H 134.478 -3.04068 -2.1793 0
M  V30 1490 H 135.811 -3.9891 -2.88326 0
M  V30 1491 N 137.463 0.71206 -1.40597 0
M  V30 1492 C 138.393 1.83889 -1.43899 0
M  V30 1493 C 139.374 1.67442 -0.299504 0
M  V30 1494 O 140.559 1.87421 -0.508624 0
M  V30 1495 C 137.689 3.21877 -1.30431 0
M  V30 1496 C 136.643 3.53002 -2.42019 0
M  V30 1497 C 135.969 4.90172 -2.13626 0
M  V30 1498 C 137.269 3.53643 -3.84362 0
M  V30 1499 H 138.963 1.81383 -2.38203 0
M  V30 1500 H 136.509 0.871237 -1.14654 0
M  V30 1501 H 138.462 4.00404 -1.31357 0
M  V30 1502 H 137.186 3.24968 -0.326049 0
M  V30 1503 H 135.845 2.76818 -2.40349 0
M  V30 1504 H 135.493 4.89869 -1.14182 0
M  V30 1505 H 135.193 5.11962 -2.88389 0
M  V30 1506 H 136.717 5.71028 -2.1624 0
M  V30 1507 H 138.131 4.22203 -3.87837 0
M  V30 1508 H 136.528 3.86961 -4.58673 0
M  V30 1509 H 137.598 2.52954 -4.13693 0
M  V30 1510 N 138.941 1.26152 0.944643 0
M  V30 1511 C 140.189 1.11271 1.6871 0
M  V30 1512 C 140.51 -0.345166 1.91921 0
M  V30 1513 O 139.78 -1.24387 1.51343 0
M  V30 1514 H 138.36 0.408783 0.625224 0
M  V30 1515 H 141.022 1.58427 1.1352 0
M  V30 1516 H 140.118 1.62879 2.66227 0
M  V30 1517 N 140.419 -1.14872 1.07899 0
M  V30 1518 C 141.668 -1.85135 0.800499 0
M  V30 1519 C 141.981 -1.83547 -0.676014 0
M  V30 1520 O 143.187 -2.49548 -1.06948 0
M  V30 1521 C 141.643 -3.3231 1.38197 0
M  V30 1522 C 141.251 -3.42329 2.8899 0
M  V30 1523 C 142.995 -4.0772 1.18174 0
M  V30 1524 C 140.902 -4.83684 3.403 0
M  V30 1525 H 139.832 -0.693563 0.29578 0
M  V30 1526 H 142.483 -1.29532 1.29976 0
M  V30 1527 H 140.865 -3.87618 0.810431 0
M  V30 1528 H 142.039 -2.97097 3.52236 0
M  V30 1529 H 140.354 -2.80369 3.07867 0
M  V30 1530 H 142.951 -5.12049 1.5398 0
M  V30 1531 H 143.294 -4.16124 0.12117 0
M  V30 1532 H 143.827 -3.58696 1.71994 0
M  V30 1533 H 140.566 -4.80465 4.45907 0
M  V30 1534 H 140.086 -5.29474 2.81811 0
M  V30 1535 H 141.765 -5.52558 3.36584 0
M  V30 1536 N 141.898 -0.863906 -1.31812 0
M  V30 1537 C 142.83 -0.272485 -2.27575 0
M  V30 1538 C 143.843 0.56104 -1.52827 0
M  V30 1539 O 145.032 0.384021 -1.7432 0
M  V30 1540 C 142.132 0.63283 -3.32939 0
M  V30 1541 C 141.305 -0.166902 -4.37081 0
M  V30 1542 C 140.364 0.665608 -5.21973 0
M  V30 1543 O 139.39 0.0958091 -5.69119 0
M  V30 1544 N 140.592 1.9787 -5.45736 0
M  V30 1545 H 143.357 -1.0954 -2.78964 0
M  V30 1546 H 140.918 -0.724791 -1.4477 0
M  V30 1547 H 142.91 1.19532 -3.86645 0
M  V30 1548 H 141.48 1.35642 -2.81638 0
M  V30 1549 H 140.7 -0.910838 -3.83533 0
M  V30 1550 H 141.988 -0.715874 -5.03739 0
M  V30 1551 H 141.386 2.46484 -5.09178 0
M  V30 1552 H 139.943 2.48911 -6.024 0
M  V30 1553 N 143.376 1.44774 -0.622745 0
M  V30 1554 C 144.286 2.34433 0.0886031 0
M  V30 1555 C 145.302 1.52131 0.844529 0
M  V30 1556 O 146.478 1.84886 0.798691 0
M  V30 1557 C 143.543 3.29986 1.0635 0
M  V30 1558 C 142.604 4.28195 0.307873 0
M  V30 1559 C 141.837 5.19183 1.23633 0
M  V30 1560 O 142.06 5.13918 2.47476 0
M  V30 1561 O 140.994 5.97515 0.725189 0
M  V30 1562 H 144.82 2.96693 -0.648599 0
M  V30 1563 H 142.405 1.44408 -0.382957 0
M  V30 1564 H 144.287 3.88825 1.6246 0
M  V30 1565 H 142.962 2.70269 1.78146 0
M  V30 1566 H 141.869 3.72927 -0.296064 0
M  V30 1567 H 143.202 4.90808 -0.3699 0
M  V30 1568 N 144.854 0.36279 1.53368 0
M  V30 1569 C 146.101 -0.227776 2.01215 0
M  V30 1570 C 146.429 -1.49003 1.25014 0
M  V30 1571 O 145.684 -1.92876 0.331236 0
M  V30 1572 C 145.983 -0.568417 3.52851 0
M  V30 1573 C 145.649 0.59918 4.46901 0
M  V30 1574 C 144.311 0.919559 4.72332 0
M  V30 1575 C 146.663 1.38156 5.02556 0
M  V30 1576 C 143.991 2.02434 5.5067 0
M  V30 1577 C 146.343 2.47674 5.821 0
M  V30 1578 C 145.007 2.8025 6.05819 0
M  V30 1579 H 144.277 -0.083349 0.736297 0
M  V30 1580 H 146.924 0.494677 1.85001 0
M  V30 1581 H 145.229 -1.37185 3.66998 0
M  V30 1582 H 146.926 -1.03756 3.87344 0
M  V30 1583 H 143.516 0.339437 4.27254 0
M  V30 1584 H 147.7 1.14729 4.82857 0
M  V30 1585 H 142.956 2.28075 5.67267 0
M  V30 1586 H 147.13 3.08716 6.24234 0
M  V30 1587 H 144.757 3.65979 6.66306 0
M  V30 1588 N 146.332 -1.57332 0.0918853 0
M  V30 1589 C 147.579 -1.94236 -0.572577 0
M  V30 1590 C 147.907 -0.973398 -1.6839 0
M  V30 1591 O 147.162 0.00756912 -1.95699 0
M  V30 1592 C 147.461 -3.37689 -1.17051 0
M  V30 1593 C 147.127 -4.50527 -0.183304 0
M  V30 1594 C 145.789 -4.81119 0.0882276 0
M  V30 1595 C 148.141 -5.18883 0.49095 0
M  V30 1596 C 145.469 -5.77395 1.04076 0
M  V30 1597 C 147.821 -6.1618 1.43193 0
M  V30 1598 C 146.485 -6.45179 1.71173 0
M  V30 1599 H 145.755 -0.710762 -0.209521 0
M  V30 1600 H 148.402 -1.9077 0.167036 0
M  V30 1601 H 146.707 -3.37718 -1.9863 0
M  V30 1602 H 148.404 -3.63543 -1.69227 0
M  V30 1603 H 144.994 -4.26681 -0.405124 0
M  V30 1604 H 149.178 -4.95427 0.294312 0
M  V30 1605 H 144.434 -5.98179 1.26457 0
M  V30 1606 H 148.608 -6.68243 1.96023 0
M  V30 1607 H 146.235 -7.1959 2.4514 0
M  V30 1608 N 147.81 0.181792 -1.56548 0
M  V30 1609 C 149.038 0.915947 -1.85521 0
M  V30 1610 C 149.453 1.76282 -0.676016 0
M  V30 1611 O 148.81 1.79012 0.355077 0
M  V30 1612 C 148.861 1.80126 -3.13427 0
M  V30 1613 O 148.582 0.988562 -4.26801 0
M  V30 1614 C 150.083 2.64597 -3.55673 0
M  V30 1615 H 147.303 0.26661 -0.61576 0
M  V30 1616 H 149.847 0.185039 -2.03661 0
M  V30 1617 H 148.002 2.48563 -2.97145 0
M  V30 1618 H 148.416 1.59308 -4.99721 0
M  V30 1619 H 149.89 3.2235 -4.48101 0
M  V30 1620 H 150.367 3.38958 -2.79292 0
M  V30 1621 H 150.973 2.0151 -3.74532 0
M  V30 1622 N 149.288 1.51039 0.449983 0
M  V30 1623 C 150.198 1.74261 1.57067 0
M  V30 1624 C 151.214 0.626363 1.62335 0
M  V30 1625 O 152.39 0.907162 1.79812 0
M  V30 1626 C 149.455 1.85114 2.93144 0
M  V30 1627 C 148.516 3.0893 2.98095 0
M  V30 1628 C 147.749 3.19256 4.27681 0
M  V30 1629 O 147.972 2.35835 5.19363 0
M  V30 1630 O 146.906 4.12144 4.38658 0
M  V30 1631 H 150.732 2.69303 1.40391 0
M  V30 1632 H 148.317 1.35389 0.631688 0
M  V30 1633 H 150.199 1.94311 3.73926 0
M  V30 1634 H 148.874 0.932588 3.09975 0
M  V30 1635 H 147.781 3.0522 2.16314 0
M  V30 1636 H 149.114 4.00433 2.86206 0
M  V30 1637 N 150.766 -0.704594 1.40972 0
M  V30 1638 C 151.698 -1.82974 1.38033 0
M  V30 1639 C 152.711 -1.60305 0.283931 0
M  V30 1640 O 153.9 -1.69975 0.545042 0
M  V30 1641 C 151 -3.19578 1.12795 0
M  V30 1642 C 150.173 -3.69352 2.34302 0
M  V30 1643 C 149.232 -4.84601 2.05058 0
M  V30 1644 O 148.258 -4.96682 2.7802 0
M  V30 1645 N 149.46 -5.71194 1.03528 0
M  V30 1646 H 152.225 -1.85991 2.35005 0
M  V30 1647 H 149.786 -0.886567 1.35468 0
M  V30 1648 H 151.778 -3.9429 0.911987 0
M  V30 1649 H 150.348 -3.11642 0.24452 0
M  V30 1650 H 149.568 -2.85649 2.71659 0
M  V30 1651 H 150.856 -3.99345 3.1528 0
M  V30 1652 H 150.254 -5.64054 0.431217 0
M  V30 1653 H 148.811 -6.45843 0.879205 0
M  V30 1654 N 152.244 -1.26651 -0.937939 0
M  V30 1655 C 153.192 -1.08308 -2.05845 0
M  V30 1656 C 154.186 -0.0090757 -1.69398 0
M  V30 1657 O 155.392 -0.166007 -1.79233 0
M  V30 1658 H 151.767 -0.333416 -0.674046 0
M  V30 1659 H 153.738 -2.03261 -2.18467 0
M  V30 1660 C 152.487 -0.736229 -3.39816 0
M  V30 1661 H 151.81 -1.55453 -3.6834 0
M  V30 1662 H 153.25 -0.64769 -4.19024 0
M  V30 1663 C 151.709 0.558824 -3.32233 0
M  V30 1664 O 152.239 1.59621 -3.68624 0
M  V30 1665 N 150.445 0.550657 -2.85335 0
M  V30 1666 H 149.992 -0.293943 -2.55917 0
M  V30 1667 H 149.95 1.41726 -2.80644 0
M  V30 1668 N 153.722 1.14298 -1.08507 0
M  V30 1669 C 154.652 2.21542 -0.737646 0
M  V30 1670 C 155.633 1.67773 0.280377 0
M  V30 1671 O 156.818 1.93616 0.150521 0
M  V30 1672 C 153.948 3.46988 -0.147259 0
M  V30 1673 C 152.902 4.13789 -1.09374 0
M  V30 1674 C 152.228 5.33449 -0.365524 0
M  V30 1675 C 153.528 4.62208 -2.4323 0
M  V30 1676 H 155.222 2.5086 -1.6343 0
M  V30 1677 H 152.768 1.20576 -0.787243 0
M  V30 1678 H 154.721 4.21262 0.107808 0
M  V30 1679 H 153.445 3.17037 0.784538 0
M  V30 1680 H 152.104 3.4147 -1.33393 0
M  V30 1681 H 151.752 4.99759 0.57011 0
M  V30 1682 H 151.452 5.79088 -0.996512 0
M  V30 1683 H 152.976 6.10485 -0.118534 0
M  V30 1684 H 154.39 5.27952 -2.23472 0
M  V30 1685 H 152.787 5.18553 -3.02031 0
M  V30 1686 H 153.857 3.77224 -3.04681 0
M  V30 1687 N 155.201 0.870884 1.31352 0
M  V30 1688 C 156.426 0.495957 2.01383 0
M  V30 1689 C 156.851 -0.904324 1.64935 0
M  V30 1690 O 156.209 -1.59687 0.858466 0
M  V30 1691 C 156.257 0.661433 3.54482 0
M  V30 1692 O 155.361 -0.298851 4.11316 0
M  V30 1693 H 154.702 0.197158 0.634054 0
M  V30 1694 H 157.232 1.17455 1.67527 0
M  V30 1695 H 157.242 0.555072 4.04207 0
M  V30 1696 H 155.917 1.68246 3.8035 0
M  V30 1697 H 154.494 -0.147368 3.72609 0
M  V30 1698 N 156.679 -1.44442 0.630414 0
M  V30 1699 C 157.909 -2.06115 0.141465 0
M  V30 1700 C 158.317 -1.47179 -1.1889 0
M  V30 1701 O 157.66 -0.588873 -1.74006 0
M  V30 1702 C 157.722 -3.59467 -0.0484355 0
M  V30 1703 C 157.386 -4.40864 1.20366 0
M  V30 1704 C 158.383 -4.74391 2.12719 0
M  V30 1705 C 156.068 -4.8125 1.43887 0
M  V30 1706 C 158.062 -5.47186 3.26904 0
M  V30 1707 C 155.749 -5.53795 2.5837 0
M  V30 1708 C 156.747 -5.86682 3.49705 0
M  V30 1709 O 156.435 -6.57749 4.62191 0
M  V30 1710 H 156.167 -0.671648 0.0765792 0
M  V30 1711 H 158.721 -1.86312 0.864695 0
M  V30 1712 H 156.951 -3.77758 -0.826803 0
M  V30 1713 H 158.64 -4.02909 -0.491849 0
M  V30 1714 H 159.406 -4.43728 1.95781 0
M  V30 1715 H 155.285 -4.55073 0.736853 0
M  V30 1716 H 158.829 -5.72773 3.98217 0
M  V30 1717 H 154.726 -5.83872 2.75251 0
M  V30 1718 H 155.494 -6.76217 4.61164 0
M  V30 1719 N 158.157 -0.370918 -1.53173 0
M  V30 1720 C 159.382 0.220293 -2.06227 0
M  V30 1721 C 159.807 1.41243 -1.24225 0
M  V30 1722 O 159.165 1.79387 -0.262645 0
M  V30 1723 C 159.213 0.586663 -3.55796 0
M  V30 1724 O 158.317 1.68317 -3.76488 0
M  V30 1725 H 157.658 0.0308099 -0.663285 0
M  V30 1726 H 160.188 -0.533068 -1.97534 0
M  V30 1727 H 160.198 0.85617 -3.98916 0
M  V30 1728 H 158.873 -0.285013 -4.14922 0
M  V30 1729 H 157.45 1.40881 -3.45264 0
M  V30 1730 N 159.635 1.57281 -0.100228 0
M  V30 1731 C 160.545 2.17833 0.870965 0
M  V30 1732 C 161.561 1.14921 1.30649 0
M  V30 1733 O 162.737 1.47313 1.37335 0
M  V30 1734 C 159.802 2.75085 2.1102 0
M  V30 1735 C 158.863 3.9297 1.72838 0
M  V30 1736 C 158.096 4.47482 2.90854 0
M  V30 1737 O 158.319 4.00922 4.05731 0
M  V30 1738 O 157.253 5.38433 2.69023 0
M  V30 1739 H 161.079 3.0124 0.38575 0
M  V30 1740 H 158.664 1.48881 0.124397 0
M  V30 1741 H 160.546 3.11656 2.83634 0
M  V30 1742 H 159.221 1.94721 2.58584 0
M  V30 1743 H 158.128 3.61201 0.973883 0
M  V30 1744 H 159.461 4.74713 1.30033 0
M  V30 1745 N 161.113 -0.173488 1.56642 0
M  V30 1746 C 162.023 -1.23482 1.99473 0
M  V30 1747 C 163.039 -1.48567 0.905752 0
M  V30 1748 O 164.215 -1.60758 1.21321 0
M  V30 1749 C 161.28 -2.55444 2.34413 0
M  V30 1750 C 160.341 -2.38241 3.57127 0
M  V30 1751 C 159.574 -3.63909 3.90392 0
M  V30 1752 O 159.797 -4.68996 3.24653 0
M  V30 1753 O 158.731 -3.58149 4.83749 0
M  V30 1754 H 162.557 -0.901279 2.90018 0
M  V30 1755 H 160.142 -0.380185 1.44482 0
M  V30 1756 H 162.024 -3.33292 2.57865 0
M  V30 1757 H 160.699 -2.88382 1.4703 0
M  V30 1758 H 159.606 -1.58431 3.38896 0
M  V30 1759 H 160.939 -2.10228 4.45045 0
M  V30 1760 N 162.591 -1.51276 -0.441967 0
M  V30 1761 C 164.002 -1.56244 -1.02199 0
M  V30 1762 C 164.353 -0.383149 -1.92422 0
M  V30 1763 O 163.478 0.500613 -2.1053 0
M  V30 1764 C 164.073 -2.83162 -1.86024 0
M  V30 1765 C 162.632 -2.90716 -2.39084 0
M  V30 1766 C 161.779 -2.50858 -1.18175 0
M  V30 1767 H 164.73 -1.5712 -0.223416 0
M  V30 1768 H 164.751 -2.66663 -2.71425 0
M  V30 1769 H 164.263 -3.68974 -1.20331 0
M  V30 1770 H 162.364 -2.09323 -3.08244 0
M  V30 1771 H 162.477 -3.94266 -2.72198 0
M  V30 1772 H 160.841 -2.03951 -1.52565 0
M  V30 1773 H 161.624 -3.3901 -0.541001 0
M  V30 1774 N 164.069 0.697108 -1.41344 0
M  V30 1775 C 165.318 1.45279 -1.39918 0
M  V30 1776 C 165.631 1.95597 -0.0109624 0
M  V30 1777 O 166.837 2.71208 0.125919 0
M  V30 1778 C 165.293 2.62695 -2.46007 0
M  V30 1779 C 164.901 2.19169 -3.90729 0
M  V30 1780 C 166.645 3.40336 -2.53715 0
M  V30 1781 C 164.552 3.33535 -4.88373 0
M  V30 1782 H 163.482 0.545692 -0.520323 0
M  V30 1783 H 166.133 0.756929 -1.67161 0
M  V30 1784 H 164.515 3.34541 -2.11892 0
M  V30 1785 H 165.689 1.54623 -4.34083 0
M  V30 1786 H 164.004 1.54525 -3.86666 0
M  V30 1787 H 166.601 4.2547 -3.2385 0
M  V30 1788 H 166.944 3.85418 -1.5735 0
M  V30 1789 H 167.477 2.75546 -2.86913 0
M  V30 1790 H 164.216 2.93468 -5.86137 0
M  V30 1791 H 163.736 3.96936 -4.49668 0
M  V30 1792 H 165.415 3.99335 -5.09059 0
M  V30 1793 N 165.547 1.27147 0.931209 0
M  V30 1794 C 166.775 1.16082 1.71267 0
M  V30 1795 C 167.19 -0.282772 1.8667 0
M  V30 1796 O 166.547 -1.19283 1.38122 0
M  V30 1797 C 166.598 1.8358 3.11417 0
M  V30 1798 O 166.319 3.22299 2.96741 0
M  V30 1799 C 167.82 1.78597 4.05732 0
M  V30 1800 H 165.04 0.403758 0.535929 0
M  V30 1801 H 167.584 1.67953 1.16671 0
M  V30 1802 H 165.739 1.35623 3.62885 0
M  V30 1803 H 166.153 3.55851 3.85319 0
M  V30 1804 H 167.627 2.30444 5.01597 0
M  V30 1805 H 168.104 0.754564 4.3267 0
M  V30 1806 H 168.71 2.26152 3.60188 0
M  V30 1807 N 167.025 -1.13721 1.09112 0
M  V30 1808 C 167.935 -2.22638 0.73957 0
M  V30 1809 C 168.951 -1.72091 -0.257068 0
M  V30 1810 O 170.127 -2.01155 -0.0992154 0
M  V30 1811 C 167.192 -3.46322 0.16191 0
M  V30 1812 C 166.253 -4.11775 1.21408 0
M  V30 1813 C 165.486 -5.29555 0.663891 0
M  V30 1814 O 165.709 -5.68077 -0.514274 0
M  V30 1815 O 164.643 -5.84973 1.41738 0
M  V30 1816 H 168.469 -2.55074 1.64836 0
M  V30 1817 H 166.054 -1.21791 0.865289 0
M  V30 1818 H 167.936 -4.21107 -0.157073 0
M  V30 1819 H 166.611 -3.15593 -0.719932 0
M  V30 1820 H 165.518 -3.3883 1.58571 0
M  V30 1821 H 166.851 -4.46627 2.06845 0
M  V30 1822 N 168.503 -0.877838 -1.30888 0
M  V30 1823 C 169.752 -0.488793 -1.95688 0
M  V30 1824 C 170.065 0.965485 -1.70111 0
M  V30 1825 O 171.271 1.46104 -2.28836 0
M  V30 1826 C 169.727 -0.823201 -3.50359 0
M  V30 1827 C 169.335 -2.29477 -3.84765 0
M  V30 1828 C 171.079 -0.503009 -4.21509 0
M  V30 1829 C 168.986 -2.57118 -5.32583 0
M  V30 1830 H 167.916 -0.179062 -0.732429 0
M  V30 1831 H 170.567 -1.07183 -1.48943 0
M  V30 1832 H 168.949 -0.169331 -3.95638 0
M  V30 1833 H 170.123 -2.99236 -3.5042 0
M  V30 1834 H 168.438 -2.58178 -3.267 0
M  V30 1835 H 171.035 -0.68665 -5.30273 0
M  V30 1836 H 171.378 0.557109 -4.12555 0
M  V30 1837 H 171.911 -1.11376 -3.8189 0
M  V30 1838 H 168.65 -3.61843 -5.4658 0
M  V30 1839 H 168.17 -1.91961 -5.68253 0
M  V30 1840 H 169.849 -2.42251 -5.99936 0
M  V30 1841 N 169.982 1.44106 -0.638065 0
M  V30 1842 C 171.393 1.85316 -0.226894 0
M  V30 1843 C 171.744 1.53399 1.22324 0
M  V30 1844 O 170.869 0.975463 1.93167 0
M  V30 1845 C 171.464 3.3637 -0.405013 0
M  V30 1846 C 170.023 3.76369 -0.0482902 0
M  V30 1847 C 169.17 2.67921 -0.715108 0
M  V30 1848 H 172.121 1.34474 -0.842764 0
M  V30 1849 H 172.142 3.7885 0.354 0
M  V30 1850 H 171.654 3.59569 -1.46053 0
M  V30 1851 H 169.755 3.58784 1.00522 0
M  V30 1852 H 169.868 4.76856 -0.463187 0
M  V30 1853 H 168.232 2.54259 -0.149753 0
M  V30 1854 H 169.015 2.93951 -1.77335 0
M  V30 1855 N 171.46 0.379036 1.52974 0
M  V30 1856 C 172.708 -0.206014 2.01047 0
M  V30 1857 C 173.029 -1.48175 1.26765 0
M  V30 1858 O 172.299 -1.92085 0.384743 0
M  V30 1859 H 170.879 -0.0791184 0.742798 0
M  V30 1860 H 173.541 0.508366 1.88153 0
M  V30 1861 H 172.637 -0.423501 3.09213 0
M  V30 1862 N 172.938 -1.57226 0.108567 0
M  V30 1863 C 174.166 -1.99179 -0.559954 0
M  V30 1864 C 174.581 -0.988022 -1.60884 0
M  V30 1865 O 173.938 0.0205512 -1.82488 0
M  V30 1866 C 173.989 -3.41159 -1.19552 0
M  V30 1867 O 173.71 -4.37694 -0.188577 0
M  V30 1868 C 175.211 -3.98188 -1.94837 0
M  V30 1869 H 172.431 -0.654228 -0.149088 0
M  V30 1870 H 174.975 -2.03598 0.19183 0
M  V30 1871 H 173.13 -3.37711 -1.89815 0
M  V30 1872 H 173.544 -5.20469 -0.649014 0
M  V30 1873 H 175.018 -4.99644 -2.34648 0
M  V30 1874 H 175.495 -3.3675 -2.81951 0
M  V30 1875 H 176.101 -4.0515 -1.2936 0
M  V30 1876 N 174.416 0.165178 -1.56732 0
M  V30 1877 C 175.363 1.2044 -1.96883 0
M  V30 1878 C 176.333 1.43664 -0.833657 0
M  V30 1879 O 177.518 1.56302 -1.09427 0
M  V30 1880 C 174.658 2.53727 -2.33916 0
M  V30 1881 C 173.771 2.3783 -3.6064 0
M  V30 1882 C 172.906 3.64026 -3.86857 0
M  V30 1883 C 171.945 3.43088 -5.06909 0
M  V30 1884 N 171.082 4.61369 -5.29229 0
M  V30 1885 H 175.922 0.854996 -2.85471 0
M  V30 1886 H 173.459 0.41076 -1.41249 0
M  V30 1887 H 175.417 3.31419 -2.53411 0
M  V30 1888 H 174.047 2.8665 -1.48431 0
M  V30 1889 H 173.099 1.51282 -3.49024 0
M  V30 1890 H 174.411 2.18308 -4.4849 0
M  V30 1891 H 173.565 4.50152 -4.06753 0
M  V30 1892 H 172.304 3.86533 -2.97394 0
M  V30 1893 H 171.309 2.55349 -4.86906 0
M  V30 1894 H 172.534 3.21997 -5.97909 0
M  V30 1895 H 170.48 4.84084 -4.42718 0
M  V30 1896 H 170.397 4.44783 -6.11313 0
M  V30 1897 H 171.665 5.48761 -5.53608 0
M  V30 1898 N 175.894 1.51508 0.433938 0
M  V30 1899 C 177.14 1.64588 1.18484 0
M  V30 1900 C 177.473 0.362666 1.90784 0
M  V30 1901 O 176.748 -0.637892 1.83742 0
M  V30 1902 C 177.031 2.85149 2.19913 0
M  V30 1903 C 176.884 4.23456 1.51674 0
M  V30 1904 C 178.203 3.01227 3.20858 0
M  V30 1905 H 175.322 0.598994 0.429389 0
M  V30 1906 H 177.964 1.84002 0.473647 0
M  V30 1907 H 176.114 2.68729 2.80566 0
M  V30 1908 H 177.786 4.51552 0.943322 0
M  V30 1909 H 176.029 4.25998 0.819035 0
M  V30 1910 H 176.7 5.03812 2.2556 0
M  V30 1911 H 179.176 3.16382 2.70263 0
M  V30 1912 H 178.052 3.87141 3.89118 0
M  V30 1913 H 178.313 2.13447 3.8716 0
M  V30 1914 N 177.372 -0.689602 1.41712 0
M  V30 1915 C 178.619 -1.44966 1.4139 0
M  V30 1916 C 178.947 -1.94484 0.025105 0
M  V30 1917 O 178.202 -1.70307 -0.964048 0
M  V30 1918 C 178.501 -2.67298 2.37247 0
M  V30 1919 C 178.167 -2.36405 3.83958 0
M  V30 1920 C 176.829 -2.27691 4.23923 0
M  V30 1921 C 179.181 -2.11043 4.76561 0
M  V30 1922 C 176.509 -1.91719 5.54492 0
M  V30 1923 C 178.861 -1.76578 6.07456 0
M  V30 1924 C 177.525 -1.66363 6.46436 0
M  V30 1925 H 176.795 -0.53047 0.517381 0
M  V30 1926 H 179.442 -0.787655 1.74552 0
M  V30 1927 H 177.747 -3.38461 1.9736 0
M  V30 1928 H 179.444 -3.25452 2.34269 0
M  V30 1929 H 176.034 -2.44085 3.52308 0
M  V30 1930 H 180.218 -2.16717 4.46483 0
M  V30 1931 H 175.474 -1.82367 5.83568 0
M  V30 1932 H 179.648 -1.55974 6.78708 0
M  V30 1933 H 177.275 -1.38258 7.47522 0
M  V30 1934 N 178.85 -1.27639 -0.924453 0
M  V30 1935 C 179.797 -1.10644 -2.0255 0
M  V30 1936 C 180.767 -0.00658438 -1.66099 0
M  V30 1937 O 181.952 -0.16952 -1.90045 0
M  V30 1938 C 179.092 -0.76309 -3.36557 0
M  V30 1939 C 178.205 -1.94091 -3.85944 0
M  V30 1940 C 177.34 -1.53914 -5.08413 0
M  V30 1941 C 176.379 -2.68425 -5.50104 0
M  V30 1942 N 175.516 -2.28815 -6.63768 0
M  V30 1943 H 180.356 -2.04858 -2.16419 0
M  V30 1944 H 177.893 -1.01974 -1.06017 0
M  V30 1945 H 179.851 -0.544822 -4.13627 0
M  V30 1946 H 178.481 0.142102 -3.22487 0
M  V30 1947 H 177.533 -2.27162 -3.05125 0
M  V30 1948 H 178.845 -2.7998 -4.12811 0
M  V30 1949 H 177.999 -1.28231 -5.92994 0
M  V30 1950 H 176.738 -0.651391 -4.8333 0
M  V30 1951 H 175.743 -2.94819 -4.64071 0
M  V30 1952 H 176.968 -3.57826 -5.7718 0
M  V30 1953 H 174.914 -1.42495 -6.40337 0
M  V30 1954 H 174.831 -3.08242 -6.90306 0
M  V30 1955 H 176.099 -2.06387 -7.51681 0
M  V30 1956 N 180.328 1.1314 -1.09713 0
M  V30 1957 C 181.553 1.88862 -0.857081 0
M  V30 1958 C 181.978 1.78729 0.586304 0
M  V30 1959 O 181.336 1.13692 1.41222 0
M  V30 1960 C 181.384 3.36325 -1.30069 0
M  V30 1961 O 180.488 4.09815 -0.461007 0
M  V30 1962 H 179.829 0.587108 -0.310162 0
M  V30 1963 H 182.359 1.43129 -1.46203 0
M  V30 1964 H 182.369 3.87157 -1.28738 0
M  V30 1965 H 181.044 3.43017 -2.35185 0
M  V30 1966 H 179.621 3.68986 -0.538888 0
M  V30 1967 N 181.806 0.884767 1.30421 0
M  V30 1968 C 183.031 0.517288 2.00845 0
M  V30 1969 C 183.456 -0.886779 1.65885 0
M  V30 1970 O 182.814 -1.58768 0.875354 0
M  V30 1971 C 182.862 0.698994 3.5376 0
M  V30 1972 O 181.966 -0.255208 4.1161 0
M  V30 1973 H 181.307 0.203872 0.631927 0
M  V30 1974 H 183.837 1.19225 1.66272 0
M  V30 1975 H 183.847 0.597912 4.03595 0
M  V30 1976 H 182.522 1.72271 3.78544 0
M  V30 1977 H 181.099 -0.10784 3.72744 0
M  V30 1978 N 183.284 -1.43765 0.645699 0
M  V30 1979 C 184.509 -2.06767 0.161883 0
M  V30 1980 C 184.934 -1.48034 -1.16049 0
M  V30 1981 O 184.292 -0.587369 -1.71522 0
M  V30 1982 C 184.34 -3.60519 0.0762003 0
M  V30 1983 O 183.444 -4.00982 -0.963721 0
M  V30 1984 H 182.785 -0.657675 0.091429 0
M  V30 1985 H 185.315 -1.84397 0.886499 0
M  V30 1986 H 185.325 -4.07853 -0.109604 0
M  V30 1987 H 184 -4.02646 1.04157 0
M  V30 1988 H 182.577 -3.65253 -0.751312 0
M  V30 1989 N 184.763 -0.387143 -1.52771 0
M  V30 1990 C 186.011 0.195349 -2.01154 0
M  V30 1991 C 186.332 1.475 -1.27549 0
M  V30 1992 O 185.602 1.91878 -0.394924 0
M  V30 1993 H 184.182 0.075178 -0.743207 0
M  V30 1994 H 186.844 -0.518337 -1.87881 0
M  V30 1995 H 185.94 0.407096 -3.09434 0
M  V30 1996 N 186.241 1.57166 -0.116904 0
M  V30 1997 C 187.189 2.16457 0.851418 0
M  V30 1998 C 188.183 1.11323 1.27686 0
M  V30 1999 O 189.389 1.2963 1.24884 0
M  V30 2000 H 185.764 0.69271 0.292672 0
M  V30 2001 H 187.735 2.96605 0.32685 0
M  V30 2002 C 186.484 2.77689 2.09246 0
M  V30 2003 H 185.807 3.58285 1.77402 0
M  V30 2004 H 187.247 3.22716 2.7501 0
M  V30 2005 C 185.706 1.74667 2.88085 0
M  V30 2006 O 186.236 1.19877 3.83396 0
M  V30 2007 N 184.442 1.44656 2.52038 0
M  V30 2008 H 183.989 1.89402 1.74599 0
M  V30 2009 H 183.947 0.759675 3.05084 0
M  V30 2010 N 187.719 -0.156864 1.56817 0
M  V30 2011 C 188.968 -0.869504 1.81996 0
M  V30 2012 C 189.281 -1.82777 0.696545 0
M  V30 2013 O 190.487 -2.58384 0.833658 0
M  V30 2014 C 188.943 -1.59679 3.22538 0
M  V30 2015 C 188.551 -0.681431 4.42787 0
M  V30 2016 C 190.295 -2.2968 3.56997 0
M  V30 2017 C 188.202 -1.40978 5.74351 0
M  V30 2018 H 187.132 -0.328438 0.678708 0
M  V30 2019 H 189.783 -0.1223 1.83092 0
M  V30 2020 H 188.165 -2.38927 3.158 0
M  V30 2021 H 189.339 0.0751166 4.60739 0
M  V30 2022 H 187.654 -0.0903431 4.16302 0
M  V30 2023 H 190.251 -2.84794 4.52544 0
M  V30 2024 H 190.594 -3.05707 2.82576 0
M  V30 2025 H 191.127 -1.57361 3.65352 0
M  V30 2026 H 187.866 -0.691561 6.51842 0
M  V30 2027 H 187.386 -2.13929 5.60352 0
M  V30 2028 H 189.065 -1.95337 6.16808 0
M  V30 2029 N 189.197 -1.51736 -0.425897 0
M  V30 2030 C 190.422 -1.69082 -1.20108 0
M  V30 2031 C 190.847 -0.392398 -1.83962 0
M  V30 2032 O 190.205 0.64858 -1.69302 0
M  V30 2033 C 190.253 -2.81604 -2.25237 0
M  V30 2034 O 189.357 -2.46004 -3.30992 0
M  V30 2035 H 188.698 -0.563408 -0.35138 0
M  V30 2036 H 191.228 -1.98358 -0.501512 0
M  V30 2037 H 191.238 -3.06025 -2.69838 0
M  V30 2038 H 189.913 -3.75817 -1.78142 0
M  V30 2039 H 188.49 -2.32195 -2.91787 0
M  V30 2040 N 190.675 0.682077 -1.42076 0
M  V30 2041 C 191.605 1.80796 -1.47767 0
M  V30 2042 C 192.586 1.6677 -0.334954 0
M  V30 2043 O 193.771 1.863 -0.548264 0
M  V30 2044 C 190.901 3.19038 -1.37229 0
M  V30 2045 C 189.855 3.47789 -2.49453 0
M  V30 2046 C 189.181 4.8553 -2.23975 0
M  V30 2047 C 190.481 3.45411 -3.91776 0
M  V30 2048 H 192.175 1.7629 -2.41997 0
M  V30 2049 H 189.721 0.846721 -1.16476 0
M  V30 2050 H 191.674 3.97528 -1.39821 0
M  V30 2051 H 190.398 3.24204 -0.394907 0
M  V30 2052 H 189.057 2.71657 -2.46166 0
M  V30 2053 H 188.705 4.87337 -1.24547 0
M  V30 2054 H 188.405 5.0573 -2.99184 0
M  V30 2055 H 189.929 5.66312 -2.28304 0
M  V30 2056 H 191.343 4.13882 -3.96705 0
M  V30 2057 H 189.74 3.77145 -4.66778 0
M  V30 2058 H 190.81 2.44122 -4.18966 0
M  V30 2059 N 192.153 1.28127 0.917671 0
M  V30 2060 C 193.383 1.17722 1.6978 0
M  V30 2061 C 193.791 -0.267261 1.87303 0
M  V30 2062 O 193.134 -1.19286 1.39702 0
M  V30 2063 C 193.196 1.79958 3.11216 0
M  V30 2064 C 192.86 3.29187 3.16993 0
M  V30 2065 C 193.857 4.25679 2.98485 0
M  V30 2066 C 191.542 3.70075 3.39632 0
M  V30 2067 C 193.536 5.61035 3.02521 0
M  V30 2068 C 191.223 5.05557 3.433 0
M  V30 2069 C 192.221 6.00847 3.24764 0
M  V30 2070 O 191.909 7.33859 3.28187 0
M  V30 2071 H 191.641 0.409788 0.537634 0
M  V30 2072 H 194.195 1.69694 1.15728 0
M  V30 2073 H 192.425 1.22475 3.66793 0
M  V30 2074 H 194.114 1.64125 3.71238 0
M  V30 2075 H 194.88 3.95426 2.80826 0
M  V30 2076 H 190.759 2.96373 3.53106 0
M  V30 2077 H 194.303 6.35388 2.87971 0
M  V30 2078 H 190.2 5.35462 3.60486 0
M  V30 2079 H 190.968 7.42436 3.44575 0
M  V30 2080 N 193.631 -1.12557 1.10312 0
M  V30 2081 C 194.871 -1.8568 0.854543 0
M  V30 2082 C 195.235 -1.82091 -0.608843 0
M  V30 2083 O 196.436 -2.50544 -0.973717 0
M  V30 2084 C 194.707 -3.2942 1.38626 0
M  V30 2085 S 196.266 -4.19931 1.27293 0
M  V30 2086 H 193.084 -0.640427 0.308827 0
M  V30 2087 H 195.686 -1.35599 1.40831 0
M  V30 2088 H 194.39 -3.2959 2.44537 0
M  V30 2089 H 193.921 -3.84566 0.82902 0
M  V30 2090 H 195.936 -4.95668 0.229776 0
M  V30 2091 N 195.109 -0.891671 -1.2995 0
M  V30 2092 C 196.349 -0.520296 -1.97667 0
M  V30 2093 C 196.713 0.914797 -1.68806 0
M  V30 2094 O 197.914 1.39263 -2.29911 0
M  V30 2095 C 196.185 -0.795222 -3.48441 0
M  V30 2096 S 197.744 -0.526953 -4.35624 0
M  V30 2097 H 194.562 -0.19333 -0.684211 0
M  V30 2098 H 197.164 -1.15238 -1.57926 0
M  V30 2099 H 195.868 -1.83805 -3.66938 0
M  V30 2100 H 195.399 -0.15095 -3.9311 0
M  V30 2101 H 197.414 0.631533 -4.92165 0
M  V30 2102 N 196.587 1.43421 -0.653314 0
M  V30 2103 C 197.812 2.06678 -0.172846 0
M  V30 2104 C 198.237 1.48648 1.15262 0
M  V30 2105 O 197.595 0.596457 1.71208 0
M  V30 2106 C 197.643 3.60474 -0.0953184 0
M  V30 2107 O 196.747 4.01487 0.942442 0
M  V30 2108 H 196.088 0.657181 -0.0949155 0
M  V30 2109 H 198.618 1.83925 -0.896265 0
M  V30 2110 H 198.628 4.07905 0.0879728 0
M  V30 2111 H 197.303 4.02088 -1.06291 0
M  V30 2112 H 195.88 3.65646 0.731932 0
M  V30 2113 N 198.065 0.39524 1.52563 0
M  V30 2114 C 199.314 -0.186321 2.00838 0
M  V30 2115 C 199.627 -1.47402 1.28577 0
M  V30 2116 O 200.833 -2.13599 1.67593 0
M  V30 2117 C 199.289 -0.382595 3.57861 0
M  V30 2118 C 198.897 0.892202 4.39026 0
M  V30 2119 C 200.641 -0.9202 4.14406 0
M  V30 2120 C 198.548 0.66388 5.87662 0
M  V30 2121 H 197.478 -0.0734041 0.750418 0
M  V30 2122 H 200.129 0.518552 1.76021 0
M  V30 2123 H 198.511 -1.14946 3.7895 0
M  V30 2124 H 199.685 1.66414 4.29701 0
M  V30 2125 H 198 1.35519 3.9373 0
M  V30 2126 H 200.597 -1.10683 5.23119 0
M  V30 2127 H 200.94 -1.89096 3.70875 0
M  V30 2128 H 201.473 -0.212751 3.97231 0
M  V30 2129 H 198.212 1.6058 6.35527 0
M  V30 2130 H 197.732 -0.0690193 5.9976 0
M  V30 2131 H 199.411 0.300699 6.46301 0
M  V30 2132 N 199.544 -1.57102 0.125237 0
M  V30 2133 C 200.791 -1.95407 -0.531248 0
M  V30 2134 C 201.119 -1.0089 -1.66287 0
M  V30 2135 O 200.374 -0.0339431 -1.95671 0
M  V30 2136 C 200.673 -3.40096 -1.09862 0
M  V30 2137 C 200.339 -4.50815 -0.0876989 0
M  V30 2138 C 199.001 -4.80824 0.19026 0
M  V30 2139 C 201.353 -5.17724 0.600902 0
M  V30 2140 C 198.681 -5.75058 1.163 0
M  V30 2141 C 201.033 -6.13005 1.56231 0
M  V30 2142 C 199.697 -6.41403 1.8482 0
M  V30 2143 H 198.967 -0.715046 -0.194397 0
M  V30 2144 H 201.614 -1.90373 0.207463 0
M  V30 2145 H 199.919 -3.41855 -1.91422 0
M  V30 2146 H 201.616 -3.6705 -1.61478 0
M  V30 2147 H 198.206 -4.27444 -0.314528 0
M  V30 2148 H 202.39 -4.94691 0.399333 0
M  V30 2149 H 197.646 -5.95362 1.39117 0
M  V30 2150 H 201.82 -6.63934 2.10153 0
M  V30 2151 H 199.447 -7.14229 2.60349 0
M  V30 2152 N 201.022 0.148545 -1.56898 0
M  V30 2153 C 202.299 0.890019 -1.74178 0
M  V30 2154 C 202.679 1.99407 -0.692839 0
M  V30 2155 O 202.027 2.26671 0.288505 0
M  V30 2156 C 202.237 1.43389 -3.18183 0
M  V30 2157 C 203.585 1.89791 -3.79822 0
M  V30 2158 O 204.609 1.53134 -3.21603 0
M  V30 2159 O 203.468 2.57387 -4.82093 0
M  V30 2160 H 200.562 0.420496 -0.712118 0
M  V30 2161 H 203.108 0.134591 -1.69165 0
M  V30 2162 H 201.88 0.640383 -3.86024 0
M  V30 2163 H 201.503 2.25287 -3.27615 0
M  V30 2164 N 202.5 1.5196 0.417844 0
M  V30 2165 C 203.43 1.77634 1.51554 0
M  V30 2166 C 204.411 0.626918 1.58126 0
M  V30 2167 O 205.596 0.871632 1.7354 0
M  V30 2168 C 202.726 1.91911 2.8946 0
M  V30 2169 C 201.68 3.07463 2.97743 0
M  V30 2170 C 201.006 3.06951 4.37819 0
M  V30 2171 C 202.306 4.47082 2.70027 0
M  V30 2172 H 204 2.6955 1.3032 0
M  V30 2173 H 201.546 1.29706 0.625492 0
M  V30 2174 H 203.499 2.08455 3.6623 0
M  V30 2175 H 202.223 0.966598 3.11969 0
M  V30 2176 H 200.882 2.90656 2.23416 0
M  V30 2177 H 200.53 2.09438 4.57323 0
M  V30 2178 H 200.23 3.84556 4.44286 0
M  V30 2179 H 201.754 3.25613 5.16535 0
M  V30 2180 H 203.168 4.6414 3.36522 0
M  V30 2181 H 201.565 5.2654 2.87881 0
M  V30 2182 H 202.635 4.55777 1.65514 0
M  V30 2183 N 203.978 -0.674533 1.42435 0
M  V30 2184 C 205.389 -1.25514 1.38214 0
M  V30 2185 C 205.74 -1.96055 0.0755464 0
M  V30 2186 O 204.865 -2.00028 -0.8257 0
M  V30 2187 C 205.46 -2.28269 2.50357 0
M  V30 2188 C 204.019 -2.81856 2.49467 0
M  V30 2189 C 203.166 -1.56182 2.29134 0
M  V30 2190 H 206.117 -0.467902 1.51646 0
M  V30 2191 H 206.138 -3.10009 2.20624 0
M  V30 2192 H 205.65 -1.769 3.45439 0
M  V30 2193 H 203.751 -3.37346 1.58204 0
M  V30 2194 H 203.864 -3.30854 3.46515 0
M  V30 2195 H 202.228 -1.82761 1.774 0
M  V30 2196 H 203.011 -1.06778 3.26272 0
M  V30 2197 N 205.456 -1.28612 -0.910864 0
M  V30 2198 C 206.872 -1.06381 -1.18976 0
M  V30 2199 C 207.072 0.191998 -2.00583 0
M  V30 2200 O 206.128 0.892869 -2.36187 0
M  V30 2201 C 207.441 -2.31295 -1.92154 0
M  V30 2202 C 208.989 -2.36503 -2.05025 0
M  V30 2203 C 209.464 -3.61191 -2.81612 0
M  V30 2204 N 210.955 -3.61847 -2.89172 0
M  V30 2205 C 211.69 -4.55004 -3.4894 0
M  V30 2206 N 211.186 -5.58482 -4.09963 0
M  V30 2207 N 212.979 -4.42594 -3.46506 0
M  V30 2208 H 205.13 -2.09221 -0.366094 0
M  V30 2209 H 207.393 -0.921003 -0.224629 0
M  V30 2210 H 207.099 -3.228 -1.39618 0
M  V30 2211 H 206.973 -2.37934 -2.9269 0
M  V30 2212 H 209.36 -1.45494 -2.5674 0
M  V30 2213 H 209.441 -2.33857 -1.03657 0
M  V30 2214 H 209.085 -4.52545 -2.30576 0
M  V30 2215 H 209.015 -3.61092 -3.83302 0
M  V30 2216 H 211.506 -2.87022 -2.45819 0
M  V30 2217 H 211.819 -6.25704 -4.53557 0
M  V30 2218 H 210.164 -5.62305 -4.08459 0
M  V30 2219 H 213.355 -3.60953 -2.98045 0
M  V30 2220 H 213.528 -5.15381 -3.92793 0
M  V30 2221 N 206.934 1.1197 -1.10907 0
M  V30 2222 C 208.162 1.87402 -0.876824 0
M  V30 2223 C 208.577 1.79894 0.573025 0
M  V30 2224 O 207.934 1.17629 1.39534 0
M  V30 2225 C 207.985 3.36428 -1.32282 0
M  V30 2226 O 207.706 3.43765 -2.71582 0
M  V30 2227 C 209.207 4.28783 -1.12518 0
M  V30 2228 H 206.427 0.592793 -0.314384 0
M  V30 2229 H 208.971 1.41649 -1.47499 0
M  V30 2230 H 207.126 3.79706 -0.768229 0
M  V30 2231 H 207.54 4.3652 -2.90776 0
M  V30 2232 H 209.014 5.31613 -1.48633 0
M  V30 2233 H 209.491 4.39153 -0.0642394 0
M  V30 2234 H 210.097 3.91291 -1.66648 0
M  V30 2235 N 208.412 0.89855 1.29475 0
M  V30 2236 C 209.36 0.365253 2.29714 0
M  V30 2237 C 210.354 -0.534993 1.6073 0
M  V30 2238 O 211.56 -0.417921 1.75081 0
M  V30 2239 H 207.935 0.0994853 0.74539 0
M  V30 2240 H 209.906 1.22406 2.72138 0
M  V30 2241 C 208.655 -0.393159 3.4547 0
M  V30 2242 H 207.978 0.290332 3.98744 0
M  V30 2243 H 209.418 -0.731189 4.17648 0
M  V30 2244 C 207.877 -1.59539 2.9673 0
M  V30 2245 O 208.407 -2.69469 2.97908 0
M  V30 2246 N 206.613 -1.43716 2.52575 0
M  V30 2247 H 206.16 -0.542828 2.51816 0
M  V30 2248 H 206.118 -2.24288 2.20323 0
M  V30 2249 N 209.89 -1.43072 0.660911 0
M  V30 2250 C 211.139 -2.00942 0.174735 0
M  V30 2251 C 211.452 -1.52797 -1.22117 0
M  V30 2252 O 212.658 -2.02991 -1.80297 0
M  V30 2253 C 211.114 -3.58948 0.261559 0
M  V30 2254 C 210.722 -4.16085 1.66064 0
M  V30 2255 C 212.466 -4.24173 -0.166617 0
M  V30 2256 C 210.373 -5.6641 1.70098 0
M  V30 2257 H 209.303 -0.751483 0.0615631 0
M  V30 2258 H 211.954 -1.63955 0.824069 0
M  V30 2259 H 210.336 -3.93372 -0.455421 0
M  V30 2260 H 211.51 -3.93147 2.40359 0
M  V30 2261 H 209.825 -3.6326 2.03546 0
M  V30 2262 H 212.422 -5.34471 -0.156433 0
M  V30 2263 H 212.765 -3.98647 -1.19943 0
M  V30 2264 H 213.298 -3.94659 0.498875 0
M  V30 2265 H 210.037 -5.96715 2.71315 0
M  V30 2266 H 209.557 -5.91382 1.00139 0
M  V30 2267 H 211.236 -6.30585 1.44816 0
M  V30 2268 N 211.368 -0.403325 -1.52352 0
M  V30 2269 C 212.616 0.174003 -2.0135 0
M  V30 2270 C 212.937 1.46139 -1.29106 0
M  V30 2271 O 212.207 1.91448 -0.415253 0
M  V30 2272 H 210.787 0.0672911 -0.743963 0
M  V30 2273 H 213.449 -0.538235 -1.87321 0
M  V30 2274 H 212.545 0.374254 -3.09848 0
M  V30 2275 N 212.846 1.57033 -0.133567 0
M  V30 2276 C 213.793 2.16074 0.811208 0
M  V30 2277 C 214.763 1.08979 1.2535 0
M  V30 2278 O 215.948 1.36958 1.32843 0
M  V30 2279 C 213.088 2.77595 2.05024 0
M  V30 2280 C 212.201 3.99042 1.65498 0
M  V30 2281 C 211.336 4.48603 2.84479 0
M  V30 2282 C 210.375 5.62547 2.41262 0
M  V30 2283 N 209.512 6.06787 3.53206 0
M  V30 2284 H 214.352 2.96477 0.300906 0
M  V30 2285 H 211.889 1.46462 0.136822 0
M  V30 2286 H 213.847 3.11402 2.77642 0
M  V30 2287 H 212.477 1.99859 2.53488 0
M  V30 2288 H 211.529 3.71302 0.826981 0
M  V30 2289 H 212.841 4.81629 1.29748 0
M  V30 2290 H 211.995 4.84395 3.65303 0
M  V30 2291 H 210.734 3.64995 3.23465 0
M  V30 2292 H 209.739 5.26345 1.58874 0
M  V30 2293 H 210.964 6.47931 2.03377 0
M  V30 2294 H 208.91 5.26117 3.91838 0
M  V30 2295 H 208.827 6.84266 3.21427 0
M  V30 2296 H 210.095 6.4722 4.34427 0
M  V30 2297 N 214.325 -0.140222 1.56975 0
M  V30 2298 C 215.572 -0.851687 1.83719 0
M  V30 2299 C 215.9 -1.80862 0.715485 0
M  V30 2300 O 215.155 -1.93464 -0.294956 0
M  V30 2301 C 215.454 -1.65386 3.16832 0
M  V30 2302 C 215.12 -0.843112 4.42947 0
M  V30 2303 C 213.782 -0.619464 4.77196 0
M  V30 2304 C 216.134 -0.276582 5.20466 0
M  V30 2305 C 213.462 0.181312 5.8642 0
M  V30 2306 C 215.814 0.51127 6.30531 0
M  V30 2307 C 214.478 0.745432 6.63325 0
M  V30 2308 H 213.748 -0.311654 0.672274 0
M  V30 2309 H 216.395 -0.115006 1.91154 0
M  V30 2310 H 214.7 -2.46084 3.04877 0
M  V30 2311 H 216.397 -2.20793 3.34741 0
M  V30 2312 H 212.987 -1.0275 4.16101 0
M  V30 2313 H 217.171 -0.436632 4.94376 0
M  V30 2314 H 212.427 0.372165 6.10266 0
M  V30 2315 H 216.601 0.957354 6.89788 0
M  V30 2316 H 214.228 1.36778 7.47794 0
M  V30 2317 N 215.803 -1.52179 -0.40978 0
M  V30 2318 C 217.08 -1.56769 -1.16974 0
M  V30 2319 C 217.46 -0.348322 -2.08206 0
M  V30 2320 O 216.808 0.664862 -2.18613 0
M  V30 2321 C 217.018 -2.89603 -1.9476 0
M  V30 2322 C 218.366 -3.42579 -2.50849 0
M  V30 2323 O 219.39 -2.91338 -2.04941 0
M  V30 2324 O 218.249 -4.32054 -3.34652 0
M  V30 2325 H 215.343 -0.631439 -0.534054 0
M  V30 2326 H 217.889 -1.64507 -0.416613 0
M  V30 2327 H 216.661 -3.698 -1.27921 0
M  V30 2328 H 216.284 -2.85155 -2.77079 0
M  V30 2329 N 217.281 0.66697 -1.42791 0
M  V30 2330 C 218.214 1.79177 -1.41318 0
M  V30 2331 C 219.192 1.60234 -0.276401 0
M  V30 2332 O 220.376 1.82602 -0.46785 0
M  V30 2333 C 217.503 3.16289 -1.21157 0
M  V30 2334 C 216.549 3.53964 -2.37932 0
M  V30 2335 S 217.382 3.55501 -4.00474 0
M  V30 2336 C 218.538 4.95292 -3.8267 0
M  V30 2337 H 218.771 1.80153 -2.365 0
M  V30 2338 H 216.304 0.838357 -1.29657 0
M  V30 2339 H 218.262 3.95428 -1.10212 0
M  V30 2340 H 216.923 3.1289 -0.275481 0
M  V30 2341 H 216.116 4.53646 -2.19594 0
M  V30 2342 H 215.718 2.82204 -2.45432 0
M  V30 2343 H 218.01 5.83584 -3.44145 0
M  V30 2344 H 218.953 5.18679 -4.82055 0
M  V30 2345 H 219.361 4.68179 -3.15386 0
M  V30 2346 N 218.759 1.29093 0.90403 0
M  V30 2347 C 220.008 1.16187 1.64874 0
M  V30 2348 C 220.321 -0.286742 1.93487 0
M  V30 2349 O 221.527 -0.537062 2.66135 0
M  V30 2350 C 219.983 2.03177 2.97064 0
M  V30 2351 C 219.591 3.52836 2.76062 0
M  V30 2352 C 221.335 1.98984 3.74974 0
M  V30 2353 C 219.242 4.31945 4.03952 0
M  V30 2354 H 218.172 0.431246 0.618501 0
M  V30 2355 H 220.823 1.53699 1.00243 0
M  V30 2356 H 219.205 1.5853 3.62883 0
M  V30 2357 H 220.379 4.05507 2.18863 0
M  V30 2358 H 218.694 3.58656 2.11553 0
M  V30 2359 H 221.291 2.55351 4.69787 0
M  V30 2360 H 221.634 0.968815 4.0487 0
M  V30 2361 H 222.167 2.41652 3.15989 0
M  V30 2362 H 218.906 5.34667 3.79225 0
M  V30 2363 H 218.426 3.84045 4.60727 0
M  V30 2364 H 220.105 4.42379 4.72133 0
M  V30 2365 N 220.237 -1.11381 1.11499 0
M  V30 2366 C 221.483 -1.83597 0.875423 0
M  V30 2367 C 221.838 -1.83048 -0.592555 0
M  V30 2368 O 221.131 -1.27304 -1.43193 0
M  V30 2369 C 221.325 -3.30026 1.37177 0
M  V30 2370 C 221.154 -3.44837 2.88647 0
M  V30 2371 C 219.924 -3.57825 3.56776 0
M  V30 2372 C 222.122 -3.3907 3.86699 0
M  V30 2373 N 220.104 -3.61113 4.96458 0
M  V30 2374 C 221.475 -3.48986 5.12454 0
M  V30 2375 C 223.53 -3.22605 3.7925 0
M  V30 2376 C 222.233 -3.44135 6.31636 0
M  V30 2377 C 224.259 -3.19072 4.97943 0
M  V30 2378 C 223.621 -3.29559 6.22551 0
M  V30 2379 H 219.72 -0.687044 0.37349 0
M  V30 2380 H 222.304 -1.33265 1.41946 0
M  V30 2381 H 220.475 -3.78874 0.854919 0
M  V30 2382 H 222.207 -3.90153 1.07529 0
M  V30 2383 H 218.962 -3.60414 3.07244 0
M  V30 2384 H 219.386 -3.66394 5.69284 0
M  V30 2385 H 224.028 -3.13382 2.83816 0
M  V30 2386 H 221.746 -3.52126 7.27347 0
M  V30 2387 H 225.332 -3.07498 4.93899 0
M  V30 2388 H 224.212 -3.26815 7.12855 0
M  V30 2389 N 221.715 -0.905404 -1.28997 0
M  V30 2390 C 222.992 -0.453513 -1.9027 0
M  V30 2391 C 223.372 1.06721 -1.82137 0
M  V30 2392 O 222.72 1.91159 -1.25182 0
M  V30 2393 C 222.93 -0.974494 -3.35119 0
M  V30 2394 C 224.278 -1.0216 -4.12127 0
M  V30 2395 O 225.302 -0.922557 -3.44046 0
M  V30 2396 O 224.161 -1.17121 -5.33802 0
M  V30 2397 H 221.255 -0.142347 -0.814657 0
M  V30 2398 H 223.801 -0.995642 -1.37423 0
M  V30 2399 H 222.573 -2.01848 -3.35221 0
M  V30 2400 H 222.196 -0.412706 -3.95452 0
M  V30 2401 N 223.193 1.4272 -0.668489 0
M  V30 2402 C 224.609 1.55992 -0.33745 0
M  V30 2403 C 224.809 1.64933 1.15756 0
M  V30 2404 O 223.865 1.61278 1.94282 0
M  V30 2405 C 225.178 2.81314 -1.06222 0
M  V30 2406 C 226.726 2.95078 -1.04394 0
M  V30 2407 C 227.201 4.23252 -1.74991 0
M  V30 2408 N 228.692 4.3015 -1.71829 0
M  V30 2409 C 229.427 5.28127 -2.23315 0
M  V30 2410 N 228.923 6.32293 -2.83156 0
M  V30 2411 N 230.716 5.19882 -2.13726 0
M  V30 2412 H 222.867 1.3516 -1.63846 0
M  V30 2413 H 225.13 0.650174 -0.689912 0
M  V30 2414 H 224.836 2.80823 -2.11734 0
M  V30 2415 H 224.71 3.72012 -0.62344 0
M  V30 2416 H 227.097 2.951 0.0028244 0
M  V30 2417 H 227.178 2.05627 -1.52155 0
M  V30 2418 H 226.822 4.2399 -2.79633 0
M  V30 2419 H 226.752 5.11626 -1.24685 0
M  V30 2420 H 229.243 3.55499 -1.28175 0
M  V30 2421 H 229.556 7.03398 -3.20079 0
M  V30 2422 H 227.901 6.32873 -2.87223 0
M  V30 2423 H 231.092 4.37423 -1.66669 0
M  V30 2424 H 231.265 5.96077 -2.54158 0
M  V30 2425 N 224.671 0.411399 1.52136 0
M  V30 2426 C 225.919 -0.163322 2.01439 0
M  V30 2427 C 226.24 -1.45453 1.29879 0
M  V30 2428 O 225.51 -1.91225 0.4254 0
M  V30 2429 H 224.09 -0.0633447 0.744309 0
M  V30 2430 H 226.752 0.548161 1.87033 0
M  V30 2431 H 225.848 -0.357817 3.10042 0
M  V30 2432 N 226.149 -1.5696 0.141893 0
M  V30 2433 C 227.112 -2.15316 -0.785587 0
M  V30 2434 C 228.112 -1.09366 -1.1788 0
M  V30 2435 O 229.302 -1.35031 -1.10056 0
M  V30 2436 C 226.434 -2.71211 -2.06537 0
M  V30 2437 H 227.627 -2.98608 -0.278041 0
M  V30 2438 H 225.18 -1.5593 -0.107519 0
M  V30 2439 H 225.915 -1.91571 -2.6167 0
M  V30 2440 H 225.7 -3.4872 -1.79268 0
M  V30 2441 H 227.19 -3.16189 -2.72789 0
M  V30 2442 N 227.627 0.131896 -1.57047 0
M  V30 2443 C 228.557 1.16384 -2.02428 0
M  V30 2444 C 229.538 1.43936 -0.90644 0
M  V30 2445 O 230.723 1.54599 -1.17528 0
M  V30 2446 C 227.853 2.49328 -2.4177 0
M  V30 2447 C 226.807 2.36266 -3.56879 0
M  V30 2448 C 226.133 3.74057 -3.8208 0
M  V30 2449 C 227.433 1.834 -4.89042 0
M  V30 2450 H 229.127 0.786433 -2.88887 0
M  V30 2451 H 226.673 0.376855 -1.38981 0
M  V30 2452 H 228.626 3.21759 -2.7212 0
M  V30 2453 H 227.35 2.88934 -1.52266 0
M  V30 2454 H 226.009 1.66286 -3.26718 0
M  V30 2455 H 225.657 4.11125 -2.89803 0
M  V30 2456 H 225.357 3.66174 -4.59554 0
M  V30 2457 H 226.881 4.48012 -4.1487 0
M  V30 2458 H 228.295 2.45636 -5.18011 0
M  V30 2459 H 226.692 1.8637 -5.70426 0
M  V30 2460 H 227.762 0.790662 -4.7841 0
M  V30 2461 N 229.106 1.52395 0.401703 0
M  V30 2462 C 230.352 1.67065 1.14966 0
M  V30 2463 C 230.685 0.403052 1.89971 0
M  V30 2464 O 229.96 -0.598774 1.85054 0
M  V30 2465 C 230.243 2.8975 2.13815 0
M  V30 2466 C 230.096 4.26578 1.42658 0
M  V30 2467 C 231.415 3.07965 3.14397 0
M  V30 2468 H 228.534 0.607968 0.416587 0
M  V30 2469 H 231.176 1.84965 0.434511 0
M  V30 2470 H 229.326 2.74619 2.74803 0
M  V30 2471 H 230.998 4.53451 0.847329 0
M  V30 2472 H 229.241 4.27639 0.72849 0
M  V30 2473 H 229.912 5.08483 2.14823 0
M  V30 2474 H 232.388 3.22043 2.63491 0
M  V30 2475 H 231.264 3.95308 3.80819 0
M  V30 2476 H 231.525 2.21611 3.82545 0
M  V30 2477 N 230.584 -0.659388 1.43143 0
M  V30 2478 C 231.547 -1.75432 1.47501 0
M  V30 2479 C 232.547 -1.56707 0.360512 0
M  V30 2480 O 233.737 -1.62717 0.622002 0
M  V30 2481 C 230.869 -3.14239 1.32162 0
M  V30 2482 H 232.062 -1.7295 2.45006 0
M  V30 2483 H 229.615 -0.870469 1.29817 0
M  V30 2484 H 230.35 -3.22336 0.356401 0
M  V30 2485 H 230.135 -3.29235 2.12948 0
M  V30 2486 H 231.625 -3.94094 1.3813 0
M  V30 2487 N 232.062 -1.29571 -0.897171 0
M  V30 2488 C 233.311 -1.1706 -1.64256 0
M  V30 2489 C 233.624 0.276476 -1.93636 0
M  V30 2490 O 234.83 0.52294 -2.66416 0
M  V30 2491 C 233.286 -2.0475 -2.95982 0
M  V30 2492 C 232.894 -3.54295 -2.74187 0
M  V30 2493 C 234.638 -2.0097 -3.73914 0
M  V30 2494 C 232.545 -4.34081 -4.01656 0
M  V30 2495 H 231.475 -0.43452 -0.616205 0
M  V30 2496 H 234.126 -1.54229 -0.994268 0
M  V30 2497 H 232.508 -1.60452 -3.62038 0
M  V30 2498 H 233.682 -4.06662 -2.1671 0
M  V30 2499 H 231.997 -3.59773 -2.09648 0
M  V30 2500 H 234.594 -2.57838 -4.68427 0
M  V30 2501 H 234.937 -0.990273 -4.0435 0
M  V30 2502 H 235.47 -2.43325 -3.14703 0
M  V30 2503 H 232.209 -5.36671 -3.76384 0
M  V30 2504 H 231.729 -3.86483 -4.58684 0
M  V30 2505 H 233.408 -4.44877 -4.69781 0
M  V30 2506 N 233.54 1.10788 -1.12088 0
M  V30 2507 C 234.488 2.19111 -0.780587 0
M  V30 2508 C 235.482 1.67818 0.230961 0
M  V30 2509 O 236.688 1.79777 0.0895427 0
M  V30 2510 H 233.063 0.714477 -0.234578 0
M  V30 2511 H 235.034 2.45055 -1.70266 0
M  V30 2512 C 233.783 3.46818 -0.24747 0
M  V30 2513 H 233.106 3.86646 -1.01712 0
M  V30 2514 H 234.546 4.23973 -0.0476291 0
M  V30 2515 C 233.005 3.20968 1.02378 0
M  V30 2516 O 233.535 3.42298 2.10226 0
M  V30 2517 N 231.741 2.74658 0.949271 0
M  V30 2518 H 231.288 2.57501 0.0715173 0
M  V30 2519 H 231.246 2.57739 1.80049 0
M  V30 2520 N 235.018 0.912232 1.28515 0
M  V30 2521 C 236.429 0.591352 1.77087 0
M  V30 2522 C 236.78 -0.8933 1.74684 0
M  V30 2523 O 235.905 -1.69876 1.34056 0
M  V30 2524 C 236.5 1.06668 3.2157 0
M  V30 2525 C 235.059 0.79675 3.67871 0
M  V30 2526 C 234.206 1.23427 2.48316 0
M  V30 2527 H 237.157 1.09365 1.15 0
M  V30 2528 H 237.178 0.407455 3.78312 0
M  V30 2529 H 236.69 2.14726 3.23287 0
M  V30 2530 H 234.791 -0.270679 3.71616 0
M  V30 2531 H 234.904 1.40343 4.58084 0
M  V30 2532 H 233.268 0.653036 2.46186 0
M  V30 2533 H 234.051 2.32316 2.52753 0
M  V30 2534 N 236.496 -1.42363 0.676048 0
M  V30 2535 C 237.744 -2.01123 0.198437 0
M  V30 2536 C 238.065 -1.53731 -1.19966 0
M  V30 2537 O 237.335 -0.759518 -1.80577 0
M  V30 2538 H 235.915 -0.743678 0.0703721 0
M  V30 2539 H 238.577 -1.74263 0.872837 0
M  V30 2540 H 237.673 -3.11454 0.200686 0
M  V30 2541 N 237.974 -0.419461 -1.51915 0
M  V30 2542 C 239.251 0.211999 -1.94448 0
M  V30 2543 C 239.631 1.61703 -1.35703 0
M  V30 2544 O 238.979 2.22102 -0.536931 0
M  V30 2545 C 239.189 0.207872 -3.4838 0
M  V30 2546 C 240.537 0.422192 -4.22496 0
M  V30 2547 O 241.561 0.286778 -3.55044 0
M  V30 2548 O 240.42 0.690009 -5.42126 0
M  V30 2549 H 237.514 0.139586 -0.815135 0
M  V30 2550 H 240.06 -0.476151 -1.62883 0
M  V30 2551 H 238.832 -0.775102 -3.83546 0
M  V30 2552 H 238.455 0.939688 -3.86336 0
M  V30 2553 N 239.452 1.56882 -0.150215 0
M  V30 2554 C 240.868 1.58263 0.20617 0
M  V30 2555 C 241.068 1.16464 1.64434 0
M  V30 2556 O 240.124 0.866422 2.3717 0
M  V30 2557 C 241.437 3.00649 -0.0555025 0
M  V30 2558 C 242.985 3.12999 0.00795388 0
M  V30 2559 C 243.46 4.5744 -0.226429 0
M  V30 2560 N 244.951 4.62875 -0.173469 0
M  V30 2561 C 245.686 5.72454 -0.329288 0
M  V30 2562 N 245.182 6.90669 -0.543005 0
M  V30 2563 N 246.975 5.61467 -0.266666 0
M  V30 2564 H 239.126 1.82345 -1.08922 0
M  V30 2565 H 241.389 0.844149 -0.431413 0
M  V30 2566 H 241.095 3.3563 -1.05096 0
M  V30 2567 H 240.969 3.71337 0.66246 0
M  V30 2568 H 243.356 2.77857 0.993966 0
M  V30 2569 H 243.437 2.4479 -0.742388 0
M  V30 2570 H 243.081 4.93287 -1.20956 0
M  V30 2571 H 243.011 5.2378 0.544274 0
M  V30 2572 H 245.502 3.77898 -0.0130709 0
M  V30 2573 H 245.815 7.70045 -0.651922 0
M  V30 2574 H 244.16 6.92581 -0.579366 0
M  V30 2575 H 247.351 4.67992 -0.100441 0
M  V30 2576 H 247.524 6.46816 -0.391535 0
M  V30 2577 N 240.93 -0.123565 1.57115 0
M  V30 2578 C 241.877 -1.15177 2.00007 0
M  V30 2579 C 242.847 -1.41403 0.871454 0
M  V30 2580 O 244.032 -1.53346 1.13533 0
M  V30 2581 C 241.172 -2.47436 2.40561 0
M  V30 2582 C 240.285 -2.28184 3.66819 0
M  V30 2583 C 239.42 -3.53641 3.96373 0
M  V30 2584 C 238.459 -3.29528 5.15827 0
M  V30 2585 N 237.596 -4.47175 5.41275 0
M  V30 2586 H 242.436 -0.779008 2.87638 0
M  V30 2587 H 239.973 -0.373166 1.42288 0
M  V30 2588 H 241.931 -3.24584 2.62109 0
M  V30 2589 H 240.561 -2.82614 1.55978 0
M  V30 2590 H 239.613 -1.41976 3.52912 0
M  V30 2591 H 240.925 -2.0634 4.5412 0
M  V30 2592 H 240.079 -4.39209 4.18545 0
M  V30 2593 H 238.818 -3.78512 3.07538 0
M  V30 2594 H 237.823 -2.42349 4.93505 0
M  V30 2595 H 239.048 -3.06031 6.06236 0
M  V30 2596 H 236.994 -4.72175 4.55397 0
M  V30 2597 H 236.911 -4.28419 6.22891 0
M  V30 2598 H 238.179 -5.3389 5.67963 0
M  V30 2599 N 242.408 -1.52605 -0.393616 0
M  V30 2600 C 243.648 -1.6911 -1.1481 0
M  V30 2601 C 244.012 -0.41969 -1.87357 0
M  V30 2602 O 245.213 -0.461034 -2.64817 0
M  V30 2603 C 243.484 -2.88909 -2.10395 0
M  V30 2604 S 245.043 -3.25977 -2.93742 0
M  V30 2605 H 241.861 -0.595337 -0.38871 0
M  V30 2606 H 244.463 -1.90641 -0.433178 0
M  V30 2607 H 243.167 -3.79672 -1.55812 0
M  V30 2608 H 242.698 -2.69698 -2.86403 0
M  V30 2609 H 244.713 -2.75806 -4.12487 0
M  V30 2610 N 243.887 0.651787 -1.4349 0
M  V30 2611 C 245.117 1.43728 -1.48411 0
M  V30 2612 C 245.525 1.8893 -0.10103 0
M  V30 2613 O 244.868 1.60182 0.899307 0
M  V30 2614 C 244.93 2.70411 -2.36893 0
M  V30 2615 C 244.594 2.4714 -3.8441 0
M  V30 2616 C 245.591 2.10271 -4.75481 0
M  V30 2617 C 243.276 2.6142 -4.28912 0
M  V30 2618 C 245.27 1.87982 -6.0905 0
M  V30 2619 C 242.957 2.38746 -5.62533 0
M  V30 2620 C 243.955 2.02083 -6.5242 0
M  V30 2621 O 243.643 1.79647 -7.8357 0
M  V30 2622 H 243.375 0.447962 -0.506267 0
M  V30 2623 H 245.929 0.80624 -1.88915 0
M  V30 2624 H 244.159 3.36079 -1.91278 0
M  V30 2625 H 245.848 3.32364 -2.33 0
M  V30 2626 H 246.614 1.98814 -4.42378 0
M  V30 2627 H 242.493 2.88931 -3.59222 0
M  V30 2628 H 246.037 1.5929 -6.7917 0
M  V30 2629 H 241.934 2.49806 -5.95203 0
M  V30 2630 H 242.702 1.9406 -7.95162 0
M  V30 2631 N 245.365 1.30045 0.890287 0
M  V30 2632 C 246.328 1.15963 1.977 0
M  V30 2633 C 247.328 0.0923777 1.60534 0
M  V30 2634 O 248.518 0.340071 1.70848 0
M  V30 2635 C 245.65 0.775451 3.31963 0
M  V30 2636 H 246.843 2.12502 2.11619 0
M  V30 2637 H 244.396 1.13366 1.07601 0
M  V30 2638 H 245.131 -0.189671 3.23745 0
M  V30 2639 H 244.916 1.54668 3.60306 0
M  V30 2640 H 246.406 0.700251 4.11687 0
M  V30 2641 N 246.843 -1.10192 1.12674 0
M  V30 2642 C 248.12 -1.78717 0.794965 0
M  V30 2643 C 248.5 -1.98628 -0.714853 0
M  V30 2644 O 247.848 -1.58135 -1.64941 0
M  V30 2645 C 248.058 -3.11546 1.5729 0
M  V30 2646 C 249.406 -3.86382 1.76052 0
M  V30 2647 O 250.43 -3.21274 1.53823 0
M  V30 2648 O 249.289 -5.03246 2.13087 0
M  V30 2649 H 246.383 -0.774702 0.289423 0
M  V30 2650 H 248.929 -1.16819 1.23091 0
M  V30 2651 H 247.701 -2.92489 2.59935 0
M  V30 2652 H 247.324 -3.81164 1.13137 0
M  V30 2653 N 248.321 -0.919034 -1.28029 0
M  V30 2654 C 249.549 -0.570971 -1.98866 0
M  V30 2655 C 249.964 0.848996 -1.68634 0
M  V30 2656 O 249.321 1.56307 -0.942036 0
M  V30 2657 C 249.372 -0.776876 -3.53054 0
M  V30 2658 O 249.093 -2.14097 -3.82222 0
M  V30 2659 C 250.594 -0.436356 -4.41147 0
M  V30 2660 H 247.814 -0.217175 -0.634883 0
M  V30 2661 H 250.358 -1.23368 -1.63097 0
M  V30 2662 H 248.513 -0.161085 -3.87065 0
M  V30 2663 H 248.927 -2.18455 -4.76841 0
M  V30 2664 H 250.401 -0.63117 -5.4838 0
M  V30 2665 H 250.878 0.627686 -4.34692 0
M  V30 2666 H 251.484 -1.02991 -4.12641 0
M  V30 2667 N 249.799 1.42003 -0.683588 0
M  V30 2668 C 250.732 2.28166 0.039592 0
M  V30 2669 C 251.71 1.41562 0.799942 0
M  V30 2670 O 252.894 1.70997 0.793248 0
M  V30 2671 C 250.021 3.21575 1.06335 0
M  V30 2672 C 249.067 4.24643 0.397562 0
M  V30 2673 S 249.9 5.2869 -0.851296 0
M  V30 2674 C 251.056 6.25666 0.171166 0
M  V30 2675 H 251.289 2.89153 -0.691229 0
M  V30 2676 H 248.822 1.46962 -0.473435 0
M  V30 2677 H 250.78 3.75928 1.6489 0
M  V30 2678 H 249.441 2.59707 1.76667 0
M  V30 2679 H 248.634 4.90223 1.17035 0
M  V30 2680 H 248.236 3.73824 -0.114611 0
M  V30 2681 H 250.528 6.69653 1.02819 0
M  V30 2682 H 251.471 7.06666 -0.450397 0
M  V30 2683 H 251.879 5.62095 0.520578 0
M  V30 2684 N 251.277 0.427512 1.51691 0
M  V30 2685 C 252.524 -0.142229 2.02 0
M  V30 2686 C 252.852 -1.43566 1.31221 0
M  V30 2687 O 252.107 -1.91298 0.412744 0
M  V30 2688 C 252.406 -0.418249 3.54944 0
M  V30 2689 C 252.072 0.788187 4.43958 0
M  V30 2690 C 250.734 1.11906 4.68007 0
M  V30 2691 C 253.086 1.59347 4.96244 0
M  V30 2692 C 250.414 2.25608 5.41588 0
M  V30 2693 C 252.766 2.7214 5.71072 0
M  V30 2694 C 251.43 3.05692 5.93387 0
M  V30 2695 H 250.7 -0.0520451 0.73917 0
M  V30 2696 H 253.347 0.572697 1.82736 0
M  V30 2697 H 251.652 -1.21496 3.72486 0
M  V30 2698 H 253.349 -0.872339 3.91397 0
M  V30 2699 H 249.939 0.520344 4.2543 0
M  V30 2700 H 254.123 1.35106 4.77556 0
M  V30 2701 H 249.379 2.51929 5.57083 0
M  V30 2702 H 253.553 3.34914 6.10578 0
M  V30 2703 H 251.18 3.9391 6.50184 0
M  V30 2704 N 252.755 -1.56801 0.158532 0
M  V30 2705 C 253.98 -2.01295 -0.499516 0
M  V30 2706 C 254.405 -1.03799 -1.56867 0
M  V30 2707 O 253.763 -0.0155162 -1.81293 0
M  V30 2708 C 253.811 -3.44469 -1.06647 0
M  V30 2709 O 252.915 -3.50012 -2.18095 0
M  V30 2710 H 252.256 -0.652884 -0.12099 0
M  V30 2711 H 254.786 -2.02958 0.258661 0
M  V30 2712 H 254.796 -3.8351 -1.39227 0
M  V30 2713 H 253.471 -4.14932 -0.283581 0
M  V30 2714 H 252.048 -3.22822 -1.86656 0
M  V30 2715 N 254.233 0.115231 -1.57178 0
M  V30 2716 C 255.163 1.1423 -2.03651 0
M  V30 2717 C 256.144 1.42967 -0.921655 0
M  V30 2718 O 257.329 1.53343 -1.19162 0
M  V30 2719 C 254.459 2.4675 -2.44401 0
M  V30 2720 C 253.413 2.32467 -3.59365 0
M  V30 2721 C 252.739 3.69984 -3.86026 0
M  V30 2722 C 254.039 1.78203 -4.90959 0
M  V30 2723 H 255.733 0.755749 -2.89705 0
M  V30 2724 H 253.279 0.362093 -1.39373 0
M  V30 2725 H 255.232 3.18854 -2.75517 0
M  V30 2726 H 253.956 2.87302 -1.55322 0
M  V30 2727 H 252.615 1.62811 -3.28463 0
M  V30 2728 H 252.263 4.08028 -2.94147 0
M  V30 2729 H 251.963 3.61279 -4.63412 0
M  V30 2730 H 253.487 4.43587 -4.19599 0
M  V30 2731 H 254.901 2.40128 -5.20587 0
M  V30 2732 H 253.298 1.8031 -5.72371 0
M  V30 2733 H 254.368 0.739876 -4.79222 0
M  V30 2734 N 255.711 1.52812 0.385517 0
M  V30 2735 C 256.641 1.80808 1.47752 0
M  V30 2736 C 257.622 0.660318 1.5676 0
M  V30 2737 O 258.807 0.908246 1.71652 0
M  V30 2738 C 255.937 1.98008 2.85324 0
M  V30 2739 C 254.891 3.13709 2.91154 0
M  V30 2740 C 254.217 3.16169 4.31209 0
M  V30 2741 C 255.517 4.52709 2.60483 0
M  V30 2742 H 257.211 2.72253 1.24573 0
M  V30 2743 H 254.757 1.31003 0.597839 0
M  V30 2744 H 256.71 2.16176 3.61726 0
M  V30 2745 H 255.434 1.03255 3.09848 0
M  V30 2746 H 254.093 2.95329 2.17201 0
M  V30 2747 H 253.741 2.19092 4.52778 0
M  V30 2748 H 253.441 3.93894 4.36029 0
M  V30 2749 H 254.965 3.36496 5.09512 0
M  V30 2750 H 256.379 4.71173 3.26602 0
M  V30 2751 H 254.776 5.32528 2.76648 0
M  V30 2752 H 255.846 4.59186 1.55809 0
M  V30 2753 N 257.189 -0.644168 1.43834 0
M  V30 2754 C 258.437 -1.40117 1.45642 0
M  V30 2755 C 258.758 -1.94814 0.0852413 0
M  V30 2756 O 258.028 -1.74988 -0.880688 0
M  V30 2757 H 256.608 -0.52005 0.536243 0
M  V30 2758 H 259.27 -0.7591 1.7951 0
M  V30 2759 H 258.366 -2.23902 2.17427 0
M  V30 2760 N 258.668 -1.30515 -0.883378 0
M  V30 2761 C 259.615 -1.17032 -1.98927 0
M  V30 2762 C 260.585 -0.0594241 -1.65994 0
M  V30 2763 O 261.77 -0.229895 -1.8941 0
M  V30 2764 C 258.91 -0.869777 -3.33959 0
M  V30 2765 C 258.023 -2.06271 -3.79574 0
M  V30 2766 C 257.158 -1.70011 -5.03259 0
M  V30 2767 C 256.197 -2.8579 -5.41286 0
M  V30 2768 N 255.334 -2.49816 -6.56153 0
M  V30 2769 H 260.174 -2.1164 -2.09792 0
M  V30 2770 H 257.711 -1.05296 -1.02719 0
M  V30 2771 H 259.669 -0.676138 -4.11685 0
M  V30 2772 H 258.299 0.0394332 -3.22776 0
M  V30 2773 H 257.351 -2.36755 -2.97744 0
M  V30 2774 H 258.663 -2.92971 -4.03694 0
M  V30 2775 H 257.817 -1.47032 -5.88614 0
M  V30 2776 H 256.556 -0.804829 -4.81013 0
M  V30 2777 H 255.561 -3.09434 -4.54456 0
M  V30 2778 H 256.786 -3.76008 -5.65504 0
M  V30 2779 H 254.732 -1.62795 -6.35479 0
M  V30 2780 H 254.649 -3.30048 -6.8015 0
M  V30 2781 H 255.917 -2.30197 -7.44735 0
M  V30 2782 N 260.146 1.09593 -1.13257 0
M  V30 2783 C 261.093 2.1618 -0.808381 0
M  V30 2784 C 262.063 1.64517 0.228754 0
M  V30 2785 O 263.248 1.9053 0.101381 0
M  V30 2786 C 260.388 3.43973 -0.278675 0
M  V30 2787 C 259.501 4.09545 -1.37466 0
M  V30 2788 C 258.636 5.25088 -0.803479 0
M  V30 2789 C 257.675 5.82579 -1.87799 0
M  V30 2790 N 256.812 6.89486 -1.32488 0
M  V30 2791 H 261.652 2.43254 -1.72138 0
M  V30 2792 H 259.189 1.19392 -0.859294 0
M  V30 2793 H 261.147 4.17174 0.0465583 0
M  V30 2794 H 259.777 3.17223 0.597459 0
M  V30 2795 H 258.829 3.34226 -1.81652 0
M  V30 2796 H 260.141 4.48307 -2.18684 0
M  V30 2797 H 259.295 6.05178 -0.429427 0
M  V30 2798 H 258.034 4.87684 0.0397956 0
M  V30 2799 H 257.039 5.01152 -2.26113 0
M  V30 2800 H 258.264 6.22045 -2.72463 0
M  V30 2801 H 256.21 6.54064 -0.503575 0
M  V30 2802 H 256.127 7.27007 -2.07355 0
M  V30 2803 H 257.395 7.73336 -0.978336 0
M  V30 2804 N 261.624 0.925811 1.2754 0
M  V30 2805 C 262.871 0.565255 1.94451 0
M  V30 2806 C 263.199 -0.89316 1.7278 0
M  V30 2807 O 262.454 -1.65213 1.04895 0
M  V30 2808 C 262.753 0.835296 3.47502 0
M  V30 2809 C 262.419 2.27515 3.89291 0
M  V30 2810 C 261.081 2.66879 4.00411 0
M  V30 2811 C 263.433 3.21158 4.10496 0
M  V30 2812 C 260.761 3.99014 4.30122 0
M  V30 2813 C 263.113 4.52871 4.4169 0
M  V30 2814 C 261.777 4.92072 4.51023 0
M  V30 2815 H 261.047 0.206841 0.711546 0
M  V30 2816 H 263.694 1.16942 1.51647 0
M  V30 2817 H 261.999 0.148442 3.91519 0
M  V30 2818 H 263.696 0.535322 3.97411 0
M  V30 2819 H 260.286 1.95976 3.81171 0
M  V30 2820 H 264.47 2.9195 4.01346 0
M  V30 2821 H 259.726 4.2907 4.35556 0
M  V30 2822 H 263.9 5.25436 4.57045 0
M  V30 2823 H 261.527 5.9449 4.738 0
M  V30 2824 N 263.102 -1.41638 0.69111 0
M  V30 2825 C 264.034 -2.29194 -0.0161523 0
M  V30 2826 C 265.047 -1.44549 -0.748955 0
M  V30 2827 O 266.236 -1.681 -0.6004 0
M  V30 2828 C 263.336 -3.22325 -1.0469 0
M  V30 2829 C 262.509 -4.35706 -0.384621 0
M  V30 2830 C 261.568 -5.09443 -1.31737 0
M  V30 2831 O 260.594 -5.63386 -0.811451 0
M  V30 2832 N 261.796 -5.16487 -2.64993 0
M  V30 2833 H 264.561 -2.90534 0.735523 0
M  V30 2834 H 262.122 -1.52742 0.53679 0
M  V30 2835 H 264.114 -3.68522 -1.67252 0
M  V30 2836 H 262.684 -2.62323 -1.70015 0
M  V30 2837 H 261.904 -3.91948 0.420804 0
M  V30 2838 H 263.192 -5.08743 0.0760765 0
M  V30 2839 H 262.59 -4.741 -3.08619 0
M  V30 2840 H 261.147 -5.66276 -3.22761 0
M  V30 2841 N 264.58 -0.43555 -1.51462 0
M  V30 2842 C 265.81 0.130053 -2.0619 0
M  V30 2843 C 266.218 1.37164 -1.30317 0
M  V30 2844 O 265.561 1.80225 -0.355598 0
M  V30 2845 C 265.623 0.519418 -3.55728 0
M  V30 2846 C 265.287 -0.615119 -4.52841 0
M  V30 2847 C 266.284 -1.48671 -4.9819 0
M  V30 2848 C 263.969 -0.795341 -4.95963 0
M  V30 2849 C 265.963 -2.52324 -5.8533 0
M  V30 2850 C 263.65 -1.83514 -5.82894 0
M  V30 2851 C 264.648 -2.69748 -6.27475 0
M  V30 2852 O 264.336 -3.71944 -7.1268 0
M  V30 2853 H 264.068 0.0121612 -0.675891 0
M  V30 2854 H 266.622 -0.6129 -1.96043 0
M  V30 2855 H 264.852 1.31505 -3.63653 0
M  V30 2856 H 266.541 1.01597 -3.92979 0
M  V30 2857 H 267.307 -1.359 -4.65571 0
M  V30 2858 H 263.186 -0.133713 -4.60806 0
M  V30 2859 H 266.73 -3.19665 -6.20048 0
M  V30 2860 H 262.627 -1.96306 -6.14926 0
M  V30 2861 H 263.395 -3.68503 -7.30854 0
M  V30 2862 N 266.058 1.56714 -0.166846 0
M  V30 2863 C 266.988 2.20754 0.760913 0
M  V30 2864 C 267.969 1.16178 1.24244 0
M  V30 2865 O 269.154 1.44592 1.29641 0
M  V30 2866 C 266.284 2.84478 1.99223 0
M  V30 2867 C 265.238 3.95053 1.64672 0
M  V30 2868 C 264.564 4.45805 2.95232 0
M  V30 2869 C 265.864 5.14865 0.878155 0
M  V30 2870 H 267.558 2.98537 0.22713 0
M  V30 2871 H 265.104 1.43596 0.107805 0
M  V30 2872 H 267.057 3.27951 2.64624 0
M  V30 2873 H 265.781 2.04056 2.55007 0
M  V30 2874 H 264.44 3.52228 1.01641 0
M  V30 2875 H 264.088 3.62181 3.49047 0
M  V30 2876 H 263.788 5.204 2.7287 0
M  V30 2877 H 265.312 4.91962 3.6167 0
M  V30 2878 H 266.726 5.55059 1.43466 0
M  V30 2879 H 265.123 5.95348 0.753738 0
M  V30 2880 H 266.193 4.84735 -0.126377 0
M  V30 2881 N 267.536 -0.106894 1.57237 0
M  V30 2882 C 268.466 -1.13148 2.04254 0
M  V30 2883 C 269.447 -1.42476 0.929224 0
M  V30 2884 O 270.632 -1.52709 1.19973 0
M  V30 2885 C 267.762 -2.4545 2.45706 0
M  V30 2886 C 266.716 -2.30558 3.60592 0
M  V30 2887 C 266.042 -3.67931 3.87983 0
M  V30 2888 C 267.342 -1.75597 4.91897 0
M  V30 2889 H 269.036 -0.740374 2.90101 0
M  V30 2890 H 266.582 -0.354696 1.39563 0
M  V30 2891 H 268.535 -3.17389 2.77205 0
M  V30 2892 H 267.259 -2.86475 1.56843 0
M  V30 2893 H 265.918 -1.61067 3.29322 0
M  V30 2894 H 265.566 -4.06462 2.96306 0
M  V30 2895 H 265.266 -3.58817 4.65322 0
M  V30 2896 H 266.79 -4.41356 4.21945 0
M  V30 2897 H 268.204 -2.37364 5.21854 0
M  V30 2898 H 266.601 -1.77272 5.73319 0
M  V30 2899 H 267.671 -0.714451 4.79608 0
M  V30 2900 N 269.014 -1.53014 -0.377408 0
M  V30 2901 C 270.254 -1.70318 -1.1301 0
M  V30 2902 C 270.618 -0.439538 -1.86901 0
M  V30 2903 O 271.819 -0.489095 -2.64313 0
M  V30 2904 C 270.09 -2.91125 -2.07319 0
M  V30 2905 S 271.649 -3.29075 -2.90268 0
M  V30 2906 H 268.467 -0.599426 -0.382374 0
M  V30 2907 H 271.069 -1.91089 -0.412933 0
M  V30 2908 H 269.773 -3.81303 -1.51777 0
M  V30 2909 H 269.304 -2.7272 -2.83526 0
M  V30 2910 H 271.319 -2.80165 -4.09539 0
M  V30 2911 N 270.492 0.636531 -1.44174 0
M  V30 2912 C 271.738 1.39826 -1.4689 0
M  V30 2913 C 272.071 1.93947 -0.0990585 0
M  V30 2914 O 271.346 1.73325 0.882544 0
M  V30 2915 C 271.629 2.56751 -2.5249 0
M  V30 2916 C 271.482 2.08014 -3.98811 0
M  V30 2917 C 272.801 3.58946 -2.54649 0
M  V30 2918 H 269.92 0.507075 -0.53483 0
M  V30 2919 H 272.562 0.720188 -1.75822 0
M  V30 2920 H 270.712 3.14597 -2.2795 0
M  V30 2921 H 272.384 1.5504 -4.34466 0
M  V30 2922 H 270.627 1.39242 -4.10846 0
M  V30 2923 H 271.298 2.92169 -4.68339 0
M  V30 2924 H 273.774 3.1089 -2.76563 0
M  V30 2925 H 272.65 4.38286 -3.3045 0
M  V30 2926 H 272.911 4.12655 -1.58646 0
M  V30 2927 N 271.97 1.30982 0.876444 0
M  V30 2928 C 272.9 1.20668 1.99903 0
M  V30 2929 C 273.881 0.095354 1.69833 0
M  V30 2930 O 275.066 0.27885 1.92188 0
M  V30 2931 C 272.196 0.90655 3.3526 0
M  V30 2932 C 271.15 1.97675 3.79617 0
M  V30 2933 C 270.476 1.52943 5.1236 0
M  V30 2934 C 271.776 3.389 3.97422 0
M  V30 2935 H 273.47 2.14586 2.0879 0
M  V30 2936 H 271.016 1.03308 1.00317 0
M  V30 2937 H 272.969 0.821025 4.13324 0
M  V30 2938 H 271.693 -0.0682969 3.26529 0
M  V30 2939 H 270.352 2.05205 3.03787 0
M  V30 2940 H 270 0.54262 5.00065 0
M  V30 2941 H 269.7 2.24532 5.43009 0
M  V30 2942 H 271.224 1.45786 5.92941 0
M  V30 2943 H 272.638 3.34081 4.659 0
M  V30 2944 H 271.035 4.0865 4.3946 0
M  V30 2945 H 272.105 3.80163 3.01006 0
M  V30 2946 N 273.449 -1.08991 1.13837 0
M  V30 2947 C 274.674 -1.85551 0.926585 0
M  V30 2948 C 275.099 -1.80782 -0.519566 0
M  V30 2949 O 274.457 -1.18855 -1.36906 0
M  V30 2950 C 274.505 -3.31266 1.42462 0
M  V30 2951 O 273.609 -4.07822 0.612789 0
M  V30 2952 H 272.95 -0.575192 0.331738 0
M  V30 2953 H 275.48 -1.37604 1.51414 0
M  V30 2954 H 275.49 -3.82112 1.43019 0
M  V30 2955 H 274.165 -3.34052 2.47754 0
M  V30 2956 H 272.742 -3.66731 0.675463 0
M  V30 2957 N 274.927 -0.932562 -1.27047 0
M  V30 2958 C 276.157 -0.591173 -1.97961 0
M  V30 2959 C 276.565 0.836219 -1.69717 0
M  V30 2960 O 275.908 1.56801 -0.957036 0
M  V30 2961 C 275.97 -0.743082 -3.51736 0
M  V30 2962 C 275.634 -2.1435 -4.03613 0
M  V30 2963 C 276.631 -3.11815 -4.16014 0
M  V30 2964 C 274.316 -2.46175 -4.37839 0
M  V30 2965 C 276.31 -4.39211 -4.61923 0
M  V30 2966 C 273.997 -3.73806 -4.83438 0
M  V30 2967 C 274.995 -4.70137 -4.95439 0
M  V30 2968 O 274.683 -5.95496 -5.40037 0
M  V30 2969 H 274.415 -0.222375 -0.638377 0
M  V30 2970 H 276.969 -1.25317 -1.62742 0
M  V30 2971 H 275.199 -0.0239739 -3.86693 0
M  V30 2972 H 276.888 -0.40603 -4.03864 0
M  V30 2973 H 277.654 -2.88549 -3.89826 0
M  V30 2974 H 273.533 -1.71936 -4.27737 0
M  V30 2975 H 277.077 -5.14404 -4.71205 0
M  V30 2976 H 272.974 -3.96888 -5.09068 0
M  V30 2977 H 273.742 -5.98554 -5.58279 0
M  V30 2978 N 276.405 1.4127 -0.698611 0
M  V30 2979 C 277.682 1.94955 -0.158762 0
M  V30 2980 C 278.062 1.63781 1.33188 0
M  V30 2981 O 277.41 0.946423 2.07979 0
M  V30 2982 C 277.62 3.46044 -0.453309 0
M  V30 2983 C 278.968 4.22872 -0.382707 0
M  V30 2984 O 279.992 3.54076 -0.388396 0
M  V30 2985 O 278.851 5.45407 -0.345463 0
M  V30 2986 H 275.945 0.82683 -0.0167505 0
M  V30 2987 H 278.491 1.50971 -0.77498 0
M  V30 2988 H 277.263 3.62028 -1.48498 0
M  V30 2989 H 276.886 3.97128 0.19373 0
M  V30 2990 N 277.883 0.443576 1.51229 0
M  V30 2991 C 279.294 -0.0180867 1.86691 0
M  V30 2992 C 279.645 -1.41384 1.36033 0
M  V30 2993 O 278.77 -2.04291 0.713722 0
M  V30 2994 C 279.365 -0.039597 3.38777 0
M  V30 2995 C 277.924 -0.445692 3.73752 0
M  V30 2996 C 277.071 0.357584 2.74985 0
M  V30 2997 H 280.022 0.659138 1.44364 0
M  V30 2998 H 280.043 -0.847761 3.70936 0
M  V30 2999 H 279.555 0.976382 3.75617 0
M  V30 3000 H 277.656 -1.46704 3.42503 0
M  V30 3001 H 277.769 -0.166155 4.78812 0
M  V30 3002 H 276.133 -0.184973 2.54027 0
M  V30 3003 H 276.916 1.37256 3.14668 0
M  V30 3004 N 279.361 -1.56624 0.175154 0
M  V30 3005 C 280.589 -2.01374 -0.474971 0
M  V30 3006 C 281.004 -1.05537 -1.56548 0
M  V30 3007 O 280.361 -0.0568668 -1.82411 0
M  V30 3008 C 280.412 -3.45923 -1.04975 0
M  V30 3009 O 280.133 -4.381 -0.00276605 0
M  V30 3010 C 281.634 -4.06093 -1.77773 0
M  V30 3011 H 278.854 -0.659962 -0.121206 0
M  V30 3012 H 281.398 -2.02601 0.27801 0
M  V30 3013 H 279.553 -3.45458 -1.75321 0
M  V30 3014 H 279.967 -5.22753 -0.427681 0
M  V30 3015 H 281.441 -5.09147 -2.13245 0
M  V30 3016 H 281.918 -3.48405 -2.67414 0
M  V30 3017 H 282.524 -4.10272 -1.12059 0
M  V30 3018 N 280.839 0.0985539 -1.57292 0
M  V30 3019 C 281.786 1.11981 -2.01814 0
M  V30 3020 C 282.756 1.39999 -0.89384 0
M  V30 3021 O 283.941 1.5152 -1.15958 0
M  V30 3022 C 281.081 2.43577 -2.44467 0
M  V30 3023 C 280.194 2.2232 -3.70402 0
M  V30 3024 C 279.329 3.4729 -4.01949 0
M  V30 3025 C 278.368 3.2128 -5.21005 0
M  V30 3026 N 277.505 4.38507 -5.48321 0
M  V30 3027 H 282.345 0.733149 -2.88841 0
M  V30 3028 H 279.882 0.350482 -1.42864 0
M  V30 3029 H 281.84 3.20373 -2.6724 0
M  V30 3030 H 280.47 2.80097 -1.60455 0
M  V30 3031 H 279.522 1.36343 -3.55126 0
M  V30 3032 H 280.834 1.99089 -4.57345 0
M  V30 3033 H 279.988 4.32495 -4.25479 0
M  V30 3034 H 278.727 3.73572 -3.13521 0
M  V30 3035 H 277.732 2.34468 -4.97298 0
M  V30 3036 H 278.957 2.96348 -6.11028 0
M  V30 3037 H 276.903 4.64871 -4.62851 0
M  V30 3038 H 276.82 4.18455 -6.29628 0
M  V30 3039 H 278.088 5.24787 -5.76385 0
M  V30 3040 N 282.317 1.53212 0.369288 0
M  V30 3041 C 283.267 1.75769 1.45222 0
M  V30 3042 C 284.251 0.612136 1.48801 0
M  V30 3043 O 285.443 0.870674 1.54105 0
M  V30 3044 C 282.572 1.94769 2.82701 0
M  V30 3045 C 281.658 3.15315 2.83615 0
M  V30 3046 N 282.049 4.37295 2.54178 0
M  V30 3047 C 280.347 3.15962 3.14776 0
M  V30 3048 C 281.048 5.19015 2.62675 0
M  V30 3049 N 280.024 4.55142 2.97232 0
M  V30 3050 H 283.826 2.67691 1.2132 0
M  V30 3051 H 281.34 1.51787 0.577438 0
M  V30 3052 H 283.337 2.09056 3.60696 0
M  V30 3053 H 281.997 1.04073 3.07569 0
M  V30 3054 H 283.008 4.65091 2.27839 0
M  V30 3055 H 279.685 2.35144 3.44983 0
M  V30 3056 H 281.075 6.26305 2.43294 0
M  V30 3057 N 283.795 -0.628877 1.44509 0
M  V30 3058 C 285.206 -1.21054 1.42137 0
M  V30 3059 C 285.557 -1.95715 0.137881 0
M  V30 3060 O 284.682 -2.02554 -0.761645 0
M  V30 3061 C 285.277 -2.20189 2.57493 0
M  V30 3062 C 283.836 -2.73777 2.58308 0
M  V30 3063 C 282.983 -1.48813 2.33987 0
M  V30 3064 H 285.934 -0.41942 1.53057 0
M  V30 3065 H 285.955 -3.02833 2.30375 0
M  V30 3066 H 285.467 -1.6582 3.50892 0
M  V30 3067 H 283.568 -3.32142 1.68856 0
M  V30 3068 H 283.681 -3.19662 3.56865 0
M  V30 3069 H 282.045 -1.77024 1.83124 0
M  V30 3070 H 282.828 -0.963442 3.29504 0
M  V30 3071 N 285.273 -1.31445 -0.869486 0
M  V30 3072 C 286.521 -1.20918 -1.61936 0
M  V30 3073 C 286.842 0.232683 -1.93607 0
M  V30 3074 O 286.112 1.15352 -1.58338 0
M  V30 3075 H 284.692 -0.44454 -0.600328 0
M  V30 3076 H 287.354 -1.64776 -1.0409 0
M  V30 3077 H 286.45 -1.78124 -2.56278 0
M  V30 3078 N 286.751 1.08385 -1.14413 0
M  V30 3079 C 288.162 1.62258 -0.923535 0
M  V30 3080 C 288.513 1.88691 0.537595 0
M  V30 3081 O 287.638 1.64454 1.40655 0
M  V30 3082 C 288.233 2.94781 -1.67002 0
M  V30 3083 C 286.792 3.45437 -1.495 0
M  V30 3084 C 285.939 2.19668 -1.69238 0
M  V30 3085 H 288.89 0.916086 -1.2959 0
M  V30 3086 H 288.911 3.63229 -1.13334 0
M  V30 3087 H 288.423 2.7551 -2.73342 0
M  V30 3088 H 286.524 3.6981 -0.455097 0
M  V30 3089 H 286.637 4.22173 -2.2651 0
M  V30 3090 H 285.001 2.28849 -1.11804 0
M  V30 3091 H 285.784 2.02905 -2.7692 0
M  V30 3092 N 288.23 0.939286 1.26551 0
M  V30 3093 C 289.641 0.628782 1.75793 0
M  V30 3094 C 289.992 -0.856046 1.7654 0
M  V30 3095 O 289.117 -1.66994 1.3763 0
M  V30 3096 C 289.712 1.13465 3.19235 0
M  V30 3097 C 288.271 0.874601 3.66098 0
M  V30 3098 C 287.418 1.28667 2.45642 0
M  V30 3099 H 290.369 1.1178 1.12654 0
M  V30 3100 H 290.39 0.487609 3.77363 0
M  V30 3101 H 289.902 2.21535 3.1866 0
M  V30 3102 H 288.003 -0.191793 3.72106 0
M  V30 3103 H 288.116 1.50028 4.55004 0
M  V30 3104 H 286.48 0.705109 2.44745 0
M  V30 3105 H 287.263 2.37625 2.47769 0
M  V30 3106 N 289.708 -1.40897 0.706093 0
M  V30 3107 C 290.955 -2.01054 0.241531 0
M  V30 3108 C 291.283 -1.55956 -1.16223 0
M  V30 3109 O 290.538 -0.766336 -1.80072 0
M  V30 3110 C 290.837 -3.5646 0.259099 0
M  V30 3111 C 290.503 -4.21106 1.61184 0
M  V30 3112 C 289.165 -4.38479 1.98216 0
M  V30 3113 C 291.517 -4.57256 2.50132 0
M  V30 3114 C 288.845 -4.89282 3.2376 0
M  V30 3115 C 291.197 -5.09454 3.7502 0
M  V30 3116 C 289.861 -5.25037 4.12181 0
M  V30 3117 H 289.131 -0.73571 0.0883825 0
M  V30 3118 H 291.778 -1.68645 0.907257 0
M  V30 3119 H 290.083 -3.88721 -0.490189 0
M  V30 3120 H 291.78 -4.00826 -0.11804 0
M  V30 3121 H 288.37 -4.07966 1.31384 0
M  V30 3122 H 292.554 -4.43479 2.228 0
M  V30 3123 H 287.81 -4.99531 3.52532 0
M  V30 3124 H 291.984 -5.36404 4.44121 0
M  V30 3125 H 289.611 -5.64164 5.09532 0
M  V30 3126 N 291.186 -0.45159 -1.50991 0
M  V30 3127 C 292.416 0.108177 -2.06317 0
M  V30 3128 C 292.824 1.35774 -1.31765 0
M  V30 3129 O 292.167 1.79838 -0.374694 0
M  V30 3130 C 292.229 0.481659 -3.56259 0
M  V30 3131 C 291.893 -0.663114 -4.52163 0
M  V30 3132 C 292.89 -1.53947 -4.96585 0
M  V30 3133 C 290.575 -0.8479 -4.95092 0
M  V30 3134 C 292.569 -2.58518 -5.82621 0
M  V30 3135 C 290.256 -1.89686 -5.80915 0
M  V30 3136 C 291.254 -2.76388 -6.24579 0
M  V30 3137 O 290.942 -3.79482 -7.08695 0
M  V30 3138 H 290.674 0.00499183 -0.675982 0
M  V30 3139 H 293.228 -0.633659 -1.95381 0
M  V30 3140 H 291.458 1.27641 -3.65027 0
M  V30 3141 H 293.147 0.974233 -3.94035 0
M  V30 3142 H 293.913 -1.4083 -4.64103 0
M  V30 3143 H 289.792 -0.18258 -4.60638 0
M  V30 3144 H 293.336 -3.26224 -6.16623 0
M  V30 3145 H 289.233 -2.02817 -6.12809 0
M  V30 3146 H 290.001 -3.76234 -7.26905 0
M  V30 3147 N 292.664 1.56529 -0.183458 0
M  V30 3148 C 293.91 1.97537 0.459036 0
M  V30 3149 C 294.243 1.06989 1.62071 0
M  V30 3150 O 293.518 0.11948 1.94133 0
M  V30 3151 C 293.801 3.47874 0.930368 0
M  V30 3152 C 293.654 4.492 -0.232317 0
M  V30 3153 C 294.973 4.01612 1.79989 0
M  V30 3154 H 292.092 0.718204 0.165383 0
M  V30 3155 H 294.734 1.88042 -0.272038 0
M  V30 3156 H 292.884 3.56095 1.55333 0
M  V30 3157 H 294.556 4.53027 -0.86972 0
M  V30 3158 H 292.799 4.24657 -0.885928 0
M  V30 3159 H 293.47 5.51823 0.139796 0
M  V30 3160 H 295.946 3.96097 1.27461 0
M  V30 3161 H 294.822 5.07195 2.09867 0
M  V30 3162 H 295.083 3.46163 2.74998 0
M  V30 3163 N 294.142 -0.090211 1.57342 0
M  V30 3164 C 295.553 -0.644173 1.75235 0
M  V30 3165 C 295.904 -1.78865 0.806335 0
M  V30 3166 O 295.029 -2.16395 -0.0140128 0
M  V30 3167 C 295.624 -1.17532 3.1776 0
M  V30 3168 C 294.183 -1.67531 3.37061 0
M  V30 3169 C 293.33 -0.58693 2.71017 0
M  V30 3170 H 296.281 0.135884 1.58117 0
M  V30 3171 H 296.302 -2.04455 3.20902 0
M  V30 3172 H 295.814 -0.342138 3.86589 0
M  V30 3173 H 293.915 -2.53234 2.73319 0
M  V30 3174 H 294.028 -1.76493 4.45406 0
M  V30 3175 H 292.392 -1.02756 2.33052 0
M  V30 3176 H 293.175 0.235758 3.4249 0
M  V30 3177 N 295.62 -1.53406 -0.361157 0
M  V30 3178 C 296.57 -1.76536 -1.44287 0
M  V30 3179 C 297.554 -0.620019 -1.48474 0
M  V30 3180 O 298.746 -0.878834 -1.53641 0
M  V30 3181 C 295.875 -1.96266 -2.81664 0
M  V30 3182 C 294.961 -3.16815 -2.81938 0
M  V30 3183 N 295.352 -4.38637 -2.51855 0
M  V30 3184 C 293.65 -3.17627 -3.13096 0
M  V30 3185 C 294.351 -5.20401 -2.59919 0
M  V30 3186 N 293.327 -4.56712 -2.94814 0
M  V30 3187 H 297.129 -2.68331 -1.19899 0
M  V30 3188 H 294.643 -1.52091 -0.56938 0
M  V30 3189 H 296.64 -2.10966 -3.59582 0
M  V30 3190 H 295.3 -1.05702 -3.07013 0
M  V30 3191 H 296.311 -4.66293 -2.25369 0
M  V30 3192 H 292.988 -2.36971 -3.43731 0
M  V30 3193 H 294.378 -6.27586 -2.39969 0
M  V30 3194 N 297.098 0.621204 -1.44841 0
M  V30 3195 C 298.061 1.71459 -1.521 0
M  V30 3196 C 299.061 1.55696 -0.401933 0
M  V30 3197 O 300.251 1.61011 -0.664925 0
M  V30 3198 C 297.383 3.10624 -1.40447 0
M  V30 3199 H 298.576 1.66394 -2.49506 0
M  V30 3200 H 296.129 0.835745 -1.3208 0
M  V30 3201 H 296.864 3.21277 -0.441737 0
M  V30 3202 H 296.649 3.23473 -2.21602 0
M  V30 3203 H 298.139 3.90293 -1.4853 0
M  V30 3204 N 298.576 1.31904 0.862503 0
M  V30 3205 C 299.486 1.22161 2.00285 0
M  V30 3206 C 300.502 0.136785 1.73462 0
M  V30 3207 O 301.678 0.355994 1.98229 0
M  V30 3208 C 298.743 0.937093 3.33796 0
M  V30 3209 C 297.804 2.10957 3.73893 0
M  V30 3210 C 297.037 1.83853 5.01033 0
M  V30 3211 O 297.26 0.777274 5.65079 0
M  V30 3212 O 296.194 2.69741 5.38074 0
M  V30 3213 H 300.02 2.18008 2.11439 0
M  V30 3214 H 297.605 1.11716 0.991957 0
M  V30 3215 H 299.487 0.794583 4.13841 0
M  V30 3216 H 298.162 0.00871894 3.23699 0
M  V30 3217 H 297.069 2.30752 2.94456 0
M  V30 3218 H 298.402 3.02046 3.88625 0
M  V30 3219 N 300.054 -1.07777 1.14986 0
M  V30 3220 C 301.303 -1.79669 0.916617 0
M  V30 3221 C 301.616 -1.87474 -0.557917 0
M  V30 3222 O 302.822 -2.55845 -0.908617 0
M  V30 3223 C 301.278 -3.22848 1.59051 0
M  V30 3224 C 300.886 -3.23257 3.10176 0
M  V30 3225 C 302.63 -3.99379 1.43864 0
M  V30 3226 C 300.537 -4.61063 3.70372 0
M  V30 3227 H 299.467 -0.673349 0.33929 0
M  V30 3228 H 302.118 -1.21003 1.37951 0
M  V30 3229 H 300.5 -3.8168 1.0553 0
M  V30 3230 H 301.674 -2.74095 3.70417 0
M  V30 3231 H 299.989 -2.60222 3.25074 0
M  V30 3232 H 302.586 -5.0122 1.86232 0
M  V30 3233 H 302.929 -4.14511 0.385564 0
M  V30 3234 H 303.462 -3.47032 1.94457 0
M  V30 3235 H 300.201 -4.51135 4.7556 0
M  V30 3236 H 299.721 -5.1048 3.14913 0
M  V30 3237 H 301.4 -5.30034 3.71043 0
M  V30 3238 N 301.532 -0.945985 -1.26051 0
M  V30 3239 C 302.442 -0.465633 -2.29933 0
M  V30 3240 C 303.458 0.462761 -1.67733 0
M  V30 3241 O 304.634 0.341118 -1.9849 0
M  V30 3242 C 301.699 0.256994 -3.45746 0
M  V30 3243 C 300.76 -0.708549 -4.23412 0
M  V30 3244 C 299.993 -0.0203135 -5.33696 0
M  V30 3245 O 300.216 1.19571 -5.57726 0
M  V30 3246 O 299.15 -0.701459 -5.97799 0
M  V30 3247 H 302.976 -1.32866 -2.73094 0
M  V30 3248 H 300.561 -0.712071 -1.31339 0
M  V30 3249 H 302.443 0.663852 -4.16138 0
M  V30 3250 H 301.118 1.09533 -3.04605 0
M  V30 3251 H 300.025 -1.16545 -3.55483 0
M  V30 3252 H 301.358 -1.51465 -4.68315 0
M  V30 3253 N 303.011 1.40521 -0.713556 0
M  V30 3254 C 304.427 1.54839 -0.386907 0
M  V30 3255 C 304.627 1.68532 1.1045 0
M  V30 3256 O 303.683 1.67377 1.89053 0
M  V30 3257 C 304.996 2.77792 -1.15118 0
M  V30 3258 C 306.544 2.91607 -1.13729 0
M  V30 3259 C 307.019 4.1747 -1.88368 0
M  V30 3260 N 308.51 4.24466 -1.85427 0
M  V30 3261 C 309.245 5.20755 -2.40004 0
M  V30 3262 N 308.741 6.22965 -3.03129 0
M  V30 3263 N 310.534 5.1282 -2.30158 0
M  V30 3264 H 302.685 1.29879 -1.68063 0
M  V30 3265 H 304.948 0.627896 -0.710247 0
M  V30 3266 H 304.654 2.73944 -2.20561 0
M  V30 3267 H 304.528 3.6984 -0.741477 0
M  V30 3268 H 306.915 2.94959 -0.0910608 0
M  V30 3269 H 306.996 2.00682 -1.5862 0
M  V30 3270 H 306.64 4.1488 -2.9298 0
M  V30 3271 H 306.57 5.074 -1.40898 0
M  V30 3272 H 309.061 3.51241 -1.3942 0
M  V30 3273 H 309.374 6.92859 -3.42295 0
M  V30 3274 H 307.719 6.23415 -3.07212 0
M  V30 3275 H 310.91 4.31899 -1.80501 0
M  V30 3276 H 311.083 5.87689 -2.72993 0
M  V30 3277 N 304.489 0.459591 1.5075 0
M  V30 3278 C 305.419 -0.330644 2.31147 0
M  V30 3279 C 306.4 -1.00087 1.37538 0
M  V30 3280 O 307.585 -1.00025 1.66459 0
M  V30 3281 C 304.715 -1.41958 3.16962 0
M  V30 3282 C 303.669 -0.871608 4.19031 0
M  V30 3283 C 302.995 -2.05797 4.9351 0
M  V30 3284 C 304.295 0.109251 5.22186 0
M  V30 3285 H 305.989 0.340336 2.97459 0
M  V30 3286 H 303.535 0.165119 1.4305 0
M  V30 3287 H 305.488 -1.9798 3.71997 0
M  V30 3288 H 304.212 -2.11917 2.48513 0
M  V30 3289 H 302.871 -0.333442 3.6508 0
M  V30 3290 H 302.519 -2.74427 4.21544 0
M  V30 3291 H 302.219 -1.6976 5.62544 0
M  V30 3292 H 303.743 -2.62331 5.51375 0
M  V30 3293 H 305.157 -0.361405 5.7216 0
M  V30 3294 H 303.554 0.383316 5.98875 0
M  V30 3295 H 304.624 1.03887 4.73641 0
M  V30 3296 N 305.967 -1.56429 0.191757 0
M  V30 3297 C 307.214 -1.97485 -0.447891 0
M  V30 3298 C 307.542 -1.07852 -1.61859 0
M  V30 3299 O 306.797 -0.116903 -1.95351 0
M  V30 3300 C 307.096 -3.44449 -0.953384 0
M  V30 3301 C 306.762 -4.50781 0.103586 0
M  V30 3302 C 305.424 -4.79584 0.394023 0
M  V30 3303 C 307.776 -5.1471 0.819946 0
M  V30 3304 C 305.104 -5.69607 1.40585 0
M  V30 3305 C 307.456 -6.05827 1.8209 0
M  V30 3306 C 306.12 -6.32987 2.11857 0
M  V30 3307 H 305.39 -0.722648 -0.163895 0
M  V30 3308 H 308.037 -1.89322 0.28802 0
M  V30 3309 H 306.342 -3.49666 -1.76751 0
M  V30 3310 H 308.039 -3.73569 -1.45765 0
M  V30 3311 H 304.629 -4.28394 -0.132951 0
M  V30 3312 H 308.813 -4.92552 0.608789 0
M  V30 3313 H 304.069 -5.88926 1.64243 0
M  V30 3314 H 308.243 -6.54424 2.38123 0
M  V30 3315 H 305.87 -7.02544 2.90407 0
M  V30 3316 N 307.445 0.0818655 -1.57387 0
M  V30 3317 C 308.693 0.781368 -1.86384 0
M  V30 3318 C 309.014 1.78618 -0.782342 0
M  V30 3319 O 308.284 1.94976 0.190061 0
M  V30 3320 H 306.864 0.291562 -0.687751 0
M  V30 3321 H 309.526 0.060348 -1.94807 0
M  V30 3322 H 308.622 1.3038 -2.83562 0
M  V30 3323 N 308.923 1.53595 0.353017 0
M  V30 3324 C 309.87 1.80919 1.43308 0
M  V30 3325 C 310.84 0.654288 1.5267 0
M  V30 3326 O 312.025 0.897759 1.6836 0
M  V30 3327 C 309.165 2.01605 2.80089 0
M  V30 3328 C 308.278 3.29321 2.79593 0
M  V30 3329 C 307.413 3.40125 4.0803 0
M  V30 3330 C 306.452 4.61826 4.01725 0
M  V30 3331 N 305.589 4.69716 5.21834 0
M  V30 3332 H 310.429 2.73074 1.19308 0
M  V30 3333 H 307.966 1.35263 0.578131 0
M  V30 3334 H 309.924 2.11586 3.59565 0
M  V30 3335 H 308.554 1.12772 3.0246 0
M  V30 3336 H 307.606 3.28229 1.92276 0
M  V30 3337 H 308.918 4.18884 2.70809 0
M  V30 3338 H 308.072 3.49488 4.95927 0
M  V30 3339 H 306.811 2.48601 4.19582 0
M  V30 3340 H 305.816 4.52552 3.12213 0
M  V30 3341 H 307.041 5.54705 3.91764 0
M  V30 3342 H 304.987 3.81097 5.33948 0
M  V30 3343 H 304.904 5.53202 5.1527 0
M  V30 3344 H 306.172 4.83376 6.11529 0
M  V30 3345 N 310.401 -0.613514 1.45168 0
M  V30 3346 C 311.65 -1.36874 1.4815 0
M  V30 3347 C 311.963 -1.952 0.124982 0
M  V30 3348 O 313.169 -2.71481 0.0324176 0
M  V30 3349 C 311.625 -2.47905 2.60904 0
M  V30 3350 C 311.233 -1.96016 4.02842 0
M  V30 3351 C 312.977 -3.24965 2.73126 0
M  V30 3352 C 310.884 -3.04494 5.06988 0
M  V30 3353 H 309.814 -0.514428 0.551253 0
M  V30 3354 H 312.465 -0.658182 1.7129 0
M  V30 3355 H 310.847 -3.21618 2.31037 0
M  V30 3356 H 312.021 -1.29051 4.4236 0
M  V30 3357 H 310.336 -1.31719 3.95018 0
M  V30 3358 H 312.933 -4.05865 3.48106 0
M  V30 3359 H 313.276 -3.75588 1.79553 0
M  V30 3360 H 313.809 -2.5835 3.0249 0
M  V30 3361 H 310.548 -2.58795 6.0225 0
M  V30 3362 H 310.068 -3.70044 4.72046 0
M  V30 3363 H 311.747 -3.68976 5.31475 0
M  V30 3364 N 311.879 -1.3236 -0.855495 0
M  V30 3365 C 313.119 -1.24187 -1.62348 0
M  V30 3366 C 313.483 0.193597 -1.91021 0
M  V30 3367 O 314.684 0.39904 -2.65822 0
M  V30 3368 C 312.955 -2.07661 -2.90881 0
M  V30 3369 S 314.514 -2.16505 -3.81669 0
M  V30 3370 H 311.332 -0.442076 -0.556857 0
M  V30 3371 H 313.934 -1.67198 -1.01317 0
M  V30 3372 H 312.638 -3.11018 -2.67761 0
M  V30 3373 H 312.169 -1.65425 -3.56929 0
M  V30 3374 H 314.184 -1.31394 -4.78487 0
M  V30 3375 N 313.357 1.07166 -1.15556 0
M  V30 3376 C 314.305 2.16517 -0.8499 0
M  V30 3377 C 315.299 1.68468 0.177454 0
M  V30 3378 O 316.505 1.79971 0.0323026 0
M  V30 3379 H 312.88 0.706652 -0.25719 0
M  V30 3380 H 314.851 2.39514 -1.77976 0
M  V30 3381 C 313.6 3.45855 -0.357682 0
M  V30 3382 H 312.923 3.83214 -1.13961 0
M  V30 3383 H 314.363 4.23607 -0.182489 0
M  V30 3384 C 312.822 3.24062 0.921152 0
M  V30 3385 O 313.352 3.48813 1.9923 0
M  V30 3386 N 311.558 2.77539 0.86141 0
M  V30 3387 H 311.105 2.57598 -0.0104408 0
M  V30 3388 H 311.063 2.63337 1.71758 0
M  V30 3389 N 314.835 0.952656 1.25548 0
M  V30 3390 C 316.084 0.602053 1.92505 0
M  V30 3391 C 316.397 -0.864663 1.75451 0
M  V30 3392 O 317.603 -1.32514 2.36965 0
M  V30 3393 C 316.059 1.02607 3.44963 0
M  V30 3394 C 315.667 2.51519 3.70732 0
M  V30 3395 C 317.411 0.747905 4.1786 0
M  V30 3396 C 315.318 2.87732 5.16686 0
M  V30 3397 H 314.248 0.22146 0.720744 0
M  V30 3398 H 316.899 1.15684 1.42441 0
M  V30 3399 H 315.281 0.399712 3.93978 0
M  V30 3400 H 316.455 3.19157 3.32378 0
M  V30 3401 H 314.77 2.76786 3.11092 0
M  V30 3402 H 317.367 0.994647 5.25367 0
M  V30 3403 H 317.71 -0.315629 4.15102 0
M  V30 3404 H 318.243 1.33452 3.74747 0
M  V30 3405 H 314.982 3.93095 5.24554 0
M  V30 3406 H 314.502 2.24765 5.56094 0
M  V30 3407 H 316.181 2.76817 5.84792 0
M  V30 3408 N 316.313 -1.40141 0.720998 0
M  V30 3409 C 317.729 -1.54632 0.395113 0
M  V30 3410 C 317.929 -1.69115 -1.09555 0
M  V30 3411 O 316.985 -1.68377 -1.88163 0
M  V30 3412 C 318.298 -2.77177 1.1659 0
M  V30 3413 C 319.846 -2.91 1.15274 0
M  V30 3414 C 320.321 -4.16465 1.90579 0
M  V30 3415 N 321.812 -4.23476 1.87675 0
M  V30 3416 C 322.547 -5.19475 2.42762 0
M  V30 3417 N 322.043 -6.21348 3.06428 0
M  V30 3418 N 323.836 -5.11592 2.32874 0
M  V30 3419 H 315.987 -1.28986 1.68749 0
M  V30 3420 H 318.25 -0.62412 0.713567 0
M  V30 3421 H 317.956 -2.72771 2.22011 0
M  V30 3422 H 317.83 -3.69442 0.76108 0
M  V30 3423 H 320.217 -2.94907 0.106702 0
M  V30 3424 H 320.298 -1.99838 1.59682 0
M  V30 3425 H 319.942 -4.1332 2.95176 0
M  V30 3426 H 319.872 -5.06646 1.43587 0
M  V30 3427 H 322.363 -3.50497 1.41281 0
M  V30 3428 H 322.676 -6.91034 3.45965 0
M  V30 3429 H 321.021 -6.21777 3.10514 0
M  V30 3430 H 324.212 -4.30936 1.82789 0
M  V30 3431 H 324.385 -5.86233 2.76106 0
M  V30 3432 N 317.792 -0.46758 -1.50504 0
M  V30 3433 C 319.032 0.0874114 -2.04213 0
M  V30 3434 C 319.396 1.37301 -1.34211 0
M  V30 3435 O 320.597 2.01015 -1.78456 0
M  V30 3436 C 318.868 0.270571 -3.56374 0
M  V30 3437 S 320.427 0.784623 -4.31728 0
M  V30 3438 H 317.245 0.0176153 -0.710782 0
M  V30 3439 H 319.847 -0.633915 -1.84937 0
M  V30 3440 H 318.551 -0.670942 -4.04878 0
M  V30 3441 H 318.082 1.01811 -3.79997 0
M  V30 3442 H 320.097 2.05849 -4.51487 0
M  V30 3443 N 319.27 1.56325 -0.20005 0
M  V30 3444 C 320.2 2.22318 0.713916 0
M  V30 3445 C 321.181 1.18788 1.21752 0
M  V30 3446 O 322.366 1.47309 1.26545 0
M  V30 3447 C 319.496 2.88639 1.93144 0
M  V30 3448 C 318.45 3.98457 1.56255 0
M  V30 3449 C 317.776 4.51967 2.85709 0
M  V30 3450 C 319.076 5.16612 0.768747 0
M  V30 3451 H 320.77 2.98952 0.163755 0
M  V30 3452 H 318.316 1.43792 0.0773219 0
M  V30 3453 H 320.269 3.33491 2.57608 0
M  V30 3454 H 318.993 2.09419 2.50621 0
M  V30 3455 H 317.652 3.54305 0.941471 0
M  V30 3456 H 317.3 3.69503 3.41287 0
M  V30 3457 H 317 5.26071 2.6177 0
M  V30 3458 H 318.524 4.99523 3.51154 0
M  V30 3459 H 319.938 5.57977 1.3166 0
M  V30 3460 H 318.335 5.96812 0.627286 0
M  V30 3461 H 319.405 4.84358 -0.229168 0
M  V30 3462 N 320.748 -0.0735177 1.57428 0
M  V30 3463 C 321.658 -1.10547 2.06922 0
M  V30 3464 C 322.674 -1.42506 0.998402 0
M  V30 3465 O 323.85 -1.52717 1.31299 0
M  V30 3466 C 320.915 -2.40019 2.50184 0
M  V30 3467 C 319.976 -2.15046 3.71556 0
M  V30 3468 C 319.209 -3.38345 4.12745 0
M  V30 3469 O 319.432 -4.47399 3.53822 0
M  V30 3470 O 318.366 -3.2666 5.05546 0
M  V30 3471 H 322.192 -0.715013 2.95163 0
M  V30 3472 H 319.777 -0.287531 1.46607 0
M  V30 3473 H 321.659 -3.16218 2.78539 0
M  V30 3474 H 320.334 -2.78447 1.65072 0
M  V30 3475 H 319.241 -1.36558 3.48285 0
M  V30 3476 H 320.574 -1.81499 4.57514 0
M  V30 3477 N 322.226 -1.5378 -0.344866 0
M  V30 3478 C 323.173 -1.81676 -1.42346 0
M  V30 3479 C 324.143 -0.662376 -1.52321 0
M  V30 3480 O 325.328 -0.906675 -1.67881 0
M  V30 3481 C 322.468 -2.03087 -2.79015 0
M  V30 3482 C 321.581 -3.30799 -2.77842 0
M  V30 3483 C 320.716 -3.42285 -4.0622 0
M  V30 3484 C 319.755 -4.6395 -3.9927 0
M  V30 3485 N 318.892 -4.72477 -5.19336 0
M  V30 3486 H 323.732 -2.73703 -1.17858 0
M  V30 3487 H 321.269 -1.35568 -0.570949 0
M  V30 3488 H 323.227 -2.1349 -3.58438 0
M  V30 3489 H 321.857 -1.14375 -3.01858 0
M  V30 3490 H 320.909 -3.29244 -1.90533 0
M  V30 3491 H 322.221 -4.20314 -2.68584 0
M  V30 3492 H 321.375 -3.52113 -4.94066 0
M  V30 3493 H 320.114 -2.50823 -4.18258 0
M  V30 3494 H 319.119 -4.54201 -3.09809 0
M  V30 3495 H 320.344 -5.56775 -3.88817 0
M  V30 3496 H 318.29 -3.83924 -5.3192 0
M  V30 3497 H 318.207 -5.55927 -5.12329 0
M  V30 3498 H 319.475 -4.86613 -6.08957 0
M  V30 3499 N 323.704 0.605807 -1.45491 0
M  V30 3500 C 324.95 1.36679 -1.49823 0
M  V30 3501 C 325.283 1.93693 -0.140175 0
M  V30 3502 O 324.558 1.75158 0.845581 0
M  V30 3503 C 324.841 2.51337 -2.57879 0
M  V30 3504 C 324.694 1.99508 -4.03134 0
M  V30 3505 C 326.013 3.53463 -2.62205 0
M  V30 3506 H 323.132 0.495617 -0.545466 0
M  V30 3507 H 325.774 0.682732 -1.7731 0
M  V30 3508 H 323.924 3.09691 -2.34571 0
M  V30 3509 H 325.596 1.45789 -4.37656 0
M  V30 3510 H 323.839 1.30496 -4.13707 0
M  V30 3511 H 324.51 2.82169 -4.74431 0
M  V30 3512 H 326.986 3.04953 -2.83095 0
M  V30 3513 H 325.862 4.31178 -3.39672 0
M  V30 3514 H 326.123 4.09197 -1.67363 0
M  V30 3515 N 325.182 1.32811 0.848464 0
M  V30 3516 C 326.459 1.14334 1.58704 0
M  V30 3517 C 326.839 -0.293948 2.09043 0
M  V30 3518 O 326.187 -1.29153 1.88499 0
M  V30 3519 C 326.397 2.17626 2.72837 0
M  V30 3520 C 327.745 2.51282 3.42261 0
M  V30 3521 O 328.769 2.16219 2.83068 0
M  V30 3522 O 327.628 3.11413 4.49093 0
M  V30 3523 H 324.722 0.441601 0.699226 0
M  V30 3524 H 327.268 1.44362 0.892053 0
M  V30 3525 H 326.04 3.14211 2.3321 0
M  V30 3526 H 325.663 1.88628 3.50008 0
M  V30 3527 N 326.66 -1.06551 1.16123 0
M  V30 3528 C 327.623 -2.12132 0.867906 0
M  V30 3529 C 328.623 -1.60224 -0.135944 0
M  V30 3530 O 329.813 -1.73943 0.0946422 0
M  V30 3531 C 326.945 -3.396 0.297419 0
M  V30 3532 H 328.138 -2.39586 1.80385 0
M  V30 3533 H 325.691 -1.22574 0.969812 0
M  V30 3534 H 326.426 -3.17794 -0.64633 0
M  V30 3535 H 326.211 -3.78581 1.02073 0
M  V30 3536 H 327.701 -4.17455 0.110052 0
M  V30 3537 N 328.138 -0.959301 -1.25041 0
M  V30 3538 C 329.385 -0.616611 -1.92884 0
M  V30 3539 C 329.713 0.847036 -1.75087 0
M  V30 3540 O 328.968 1.62374 -1.09239 0
M  V30 3541 C 329.267 -0.927136 -3.45165 0
M  V30 3542 C 328.933 -2.37757 -3.83122 0
M  V30 3543 C 327.595 -2.77402 -3.93194 0
M  V30 3544 C 329.947 -3.31929 -4.01836 0
M  V30 3545 C 327.275 -4.10277 -4.19392 0
M  V30 3546 C 329.627 -4.64423 -4.29528 0
M  V30 3547 C 328.291 -5.03857 -4.37818 0
M  V30 3548 H 327.561 -0.225634 -0.705812 0
M  V30 3549 H 330.208 -1.20921 -1.48493 0
M  V30 3550 H 328.513 -0.252195 -3.90987 0
M  V30 3551 H 330.21 -0.6405 -3.95852 0
M  V30 3552 H 326.8 -2.06013 -3.75841 0
M  V30 3553 H 330.984 -3.02488 -3.93465 0
M  V30 3554 H 326.24 -4.40467 -4.24027 0
M  V30 3555 H 330.414 -5.37369 -4.42953 0
M  V30 3556 H 328.041 -6.06843 -4.57871 0
M  V30 3557 N 329.616 1.39756 -0.72842 0
M  V30 3558 C 330.526 2.34444 -0.0855374 0
M  V30 3559 C 331.542 1.57976 0.729356 0
M  V30 3560 O 332.718 1.90301 0.659346 0
M  V30 3561 C 329.783 3.36965 0.815798 0
M  V30 3562 C 328.844 4.29299 -0.0105996 0
M  V30 3563 C 328.077 5.26923 0.84781 0
M  V30 3564 O 328.3 5.30859 2.08673 0
M  V30 3565 O 327.234 6.01249 0.279969 0
M  V30 3566 H 331.06 2.91065 -0.866892 0
M  V30 3567 H 328.645 1.4117 -0.48902 0
M  V30 3568 H 330.527 3.99804 1.33171 0
M  V30 3569 H 329.202 2.82739 1.57608 0
M  V30 3570 H 328.109 3.69703 -0.571877 0
M  V30 3571 H 329.442 4.86712 -0.73295 0
M  V30 3572 N 331.094 0.475555 1.50254 0
M  V30 3573 C 332.004 -0.321501 2.32387 0
M  V30 3574 C 333.02 -0.991755 1.42969 0
M  V30 3575 O 334.196 -0.978747 1.76018 0
M  V30 3576 C 331.261 -1.38667 3.17762 0
M  V30 3577 C 330.322 -0.732538 4.23004 0
M  V30 3578 C 329.555 -1.74695 5.04299 0
M  V30 3579 O 329.778 -2.97399 4.86734 0
M  V30 3580 O 328.712 -1.31631 5.8733 0
M  V30 3581 H 332.538 0.350071 3.01676 0
M  V30 3582 H 330.123 0.237321 1.47503 0
M  V30 3583 H 332.005 -2.00354 3.70724 0
M  V30 3584 H 330.68 -2.04163 2.51196 0
M  V30 3585 H 329.587 -0.0765902 3.74022 0
M  V30 3586 H 330.92 -0.120452 4.92053 0
M  V30 3587 N 332.573 -1.56217 0.208337 0
M  V30 3588 C 333.989 -1.58919 -0.14729 0
M  V30 3589 C 334.189 -1.22486 -1.59998 0
M  V30 3590 O 333.245 -0.953849 -2.3379 0
M  V30 3591 C 334.558 -3.00236 0.167048 0
M  V30 3592 C 336.106 -3.12813 0.108219 0
M  V30 3593 C 336.581 -4.56284 0.396049 0
M  V30 3594 N 338.072 -4.61912 0.345142 0
M  V30 3595 C 338.807 -5.70837 0.541523 0
M  V30 3596 N 338.303 -6.88178 0.798968 0
M  V30 3597 N 340.096 -5.60091 0.474867 0
M  V30 3598 H 332.247 -1.78177 1.15614 0
M  V30 3599 H 334.51 -0.827555 0.462446 0
M  V30 3600 H 334.216 -3.31499 1.1748 0
M  V30 3601 H 334.09 -3.7354 -0.524184 0
M  V30 3602 H 336.477 -2.81354 -0.890157 0
M  V30 3603 H 336.558 -2.41866 0.832729 0
M  V30 3604 H 336.202 -4.88458 1.3918 0
M  V30 3605 H 336.132 -5.25439 -0.349502 0
M  V30 3606 H 338.623 -3.77589 0.153316 0
M  V30 3607 H 338.936 -7.67095 0.93727 0
M  V30 3608 H 337.281 -6.89953 0.836013 0
M  V30 3609 H 340.472 -4.67297 0.274064 0
M  V30 3610 H 340.645 -6.44917 0.631326 0
M  V30 3611 N 334.051 0.0651679 -1.57465 0
M  V30 3612 C 335.001 1.0838 -2.00594 0
M  V30 3613 C 335.985 1.34106 -0.889071 0
M  V30 3614 O 337.177 1.34295 -1.15299 0
M  V30 3615 C 334.306 2.39565 -2.45894 0
M  V30 3616 C 333.392 2.17085 -3.64328 0
M  V30 3617 N 333.783 1.64553 -4.78285 0
M  V30 3618 C 332.081 2.4753 -3.71006 0
M  V30 3619 C 332.782 1.57042 -5.60101 0
M  V30 3620 N 331.758 2.03328 -5.04141 0
M  V30 3621 H 335.56 0.671062 -2.86136 0
M  V30 3622 H 333.074 0.27213 -1.60104 0
M  V30 3623 H 335.071 3.13308 -2.75034 0
M  V30 3624 H 333.731 2.81549 -1.61741 0
M  V30 3625 H 334.742 1.33323 -5.00445 0
M  V30 3626 H 331.419 2.92835 -2.9758 0
M  V30 3627 H 332.809 1.17223 -6.61595 0
M  V30 3628 N 335.529 1.53961 0.336706 0
M  V30 3629 C 336.476 1.82428 1.41381 0
M  V30 3630 C 337.446 0.670444 1.51968 0
M  V30 3631 O 338.631 0.915565 1.67398 0
M  V30 3632 C 335.771 2.04564 2.77934 0
M  V30 3633 C 334.884 3.32267 2.76084 0
M  V30 3634 C 334.019 3.44434 4.04399 0
M  V30 3635 C 333.058 4.66061 3.96804 0
M  V30 3636 N 332.195 4.75224 5.16823 0
M  V30 3637 H 337.035 2.74324 1.16405 0
M  V30 3638 H 334.572 1.35869 0.563752 0
M  V30 3639 H 336.53 2.15388 3.57301 0
M  V30 3640 H 335.16 1.15974 3.01247 0
M  V30 3641 H 334.212 3.3025 1.88784 0
M  V30 3642 H 335.524 4.21733 2.66351 0
M  V30 3643 H 334.678 3.54728 4.92192 0
M  V30 3644 H 333.417 2.53037 4.16921 0
M  V30 3645 H 332.422 4.55838 3.07396 0
M  V30 3646 H 333.647 5.58829 3.85858 0
M  V30 3647 H 331.593 3.86739 5.29876 0
M  V30 3648 H 331.51 5.58636 5.09374 0
M  V30 3649 H 332.778 4.89835 6.06367 0
M  V30 3650 N 337.007 -0.598083 1.45811 0
M  V30 3651 C 338.232 -1.3881 1.54099 0
M  V30 3652 C 338.657 -1.8726 0.177578 0
M  V30 3653 O 338.015 -1.6069 -0.839541 0
M  V30 3654 C 338.063 -2.56217 2.53743 0
M  V30 3655 O 337.167 -3.5716 2.06182 0
M  V30 3656 H 336.508 -0.414024 0.519115 0
M  V30 3657 H 339.038 -0.726971 1.91249 0
M  V30 3658 H 339.048 -3.03337 2.72856 0
M  V30 3659 H 337.723 -2.20303 3.5276 0
M  V30 3660 H 336.3 -3.16624 1.96987 0
M  V30 3661 N 338.485 -1.33259 -0.841409 0
M  V30 3662 C 339.731 -1.25766 -1.59857 0
M  V30 3663 C 340.086 0.175602 -1.91597 0
M  V30 3664 O 339.379 1.117 -1.55672 0
M  V30 3665 C 339.573 -2.06381 -2.9179 0
M  V30 3666 C 339.402 -3.57401 -2.72937 0
M  V30 3667 C 338.172 -4.26718 -2.70628 0
M  V30 3668 C 340.37 -4.51786 -2.45753 0
M  V30 3669 N 338.352 -5.63705 -2.43125 0
M  V30 3670 C 339.723 -5.76643 -2.27777 0
M  V30 3671 C 341.778 -4.40898 -2.31329 0
M  V30 3672 C 340.481 -6.91842 -1.96841 0
M  V30 3673 C 342.507 -5.55911 -2.01786 0
M  V30 3674 C 341.869 -6.79776 -1.8462 0
M  V30 3675 H 337.968 -0.515406 -0.588117 0
M  V30 3676 H 340.552 -1.67772 -0.987955 0
M  V30 3677 H 338.723 -1.667 -3.50807 0
M  V30 3678 H 340.455 -1.90678 -3.56965 0
M  V30 3679 H 337.21 -3.78968 -2.84043 0
M  V30 3680 H 337.634 -6.35911 -2.32265 0
M  V30 3681 H 342.276 -3.45772 -2.43314 0
M  V30 3682 H 339.994 -7.86968 -1.83594 0
M  V30 3683 H 343.58 -5.49421 -1.91384 0
M  V30 3684 H 342.46 -7.67266 -1.62088 0
M  V30 3685 N 339.963 1.05934 -1.16686 0
M  V30 3686 C 341.211 1.78447 -0.948744 0
M  V30 3687 C 341.532 1.87813 0.524523 0
M  V30 3688 O 340.802 1.38945 1.38098 0
M  V30 3689 H 339.382 0.660971 -0.348033 0
M  V30 3690 H 342.044 1.27947 -1.47022 0
M  V30 3691 H 341.14 2.80394 -1.37061 0
M  V30 3692 N 341.441 0.965919 1.2453 0
M  V30 3693 C 342.69 0.622437 1.91856 0
M  V30 3694 C 343.003 -0.846006 1.76358 0
M  V30 3695 O 344.209 -1.29993 2.38357 0
M  V30 3696 C 342.665 1.0626 3.43856 0
M  V30 3697 C 342.273 2.55437 3.68043 0
M  V30 3698 C 344.017 0.792183 4.17043 0
M  V30 3699 C 341.924 2.93196 5.13605 0
M  V30 3700 H 340.854 0.229092 0.718354 0
M  V30 3701 H 343.505 1.17189 1.41206 0
M  V30 3702 H 341.887 0.441476 3.93531 0
M  V30 3703 H 343.061 3.22665 3.28974 0
M  V30 3704 H 341.376 2.8007 3.08139 0
M  V30 3705 H 343.973 1.05031 5.24283 0
M  V30 3706 H 344.316 -0.271584 4.15413 0
M  V30 3707 H 344.849 1.37419 3.73311 0
M  V30 3708 H 341.588 3.98636 5.20355 0
M  V30 3709 H 341.108 2.30651 5.53679 0
M  V30 3710 H 342.787 2.83004 5.81823 0
M  V30 3711 N 342.919 -1.39368 0.735821 0
M  V30 3712 C 344.196 -1.94465 0.210395 0
M  V30 3713 C 344.576 -1.67254 -1.28799 0
M  V30 3714 O 343.924 -1.00123 -2.05396 0
M  V30 3715 C 344.134 -3.4472 0.544897 0
M  V30 3716 C 345.482 -4.21708 0.494689 0
M  V30 3717 O 346.506 -3.52922 0.482136 0
M  V30 3718 O 345.365 -5.44299 0.489947 0
M  V30 3719 H 342.459 -0.826096 0.0386666 0
M  V30 3720 H 345.005 -1.48863 0.814735 0
M  V30 3721 H 343.777 -3.57963 1.58045 0
M  V30 3722 H 343.4 -3.97502 -0.08837 0
M  V30 3723 N 344.397 -0.483516 -1.5 0
M  V30 3724 C 345.637 0.0657469 -2.04294 0
M  V30 3725 C 346.001 1.35869 -1.35659 0
M  V30 3726 O 347.202 1.99111 -1.80578 0
M  V30 3727 C 345.473 0.232758 -3.56641 0
M  V30 3728 S 347.032 0.738788 -4.32536 0
M  V30 3729 H 343.85 0.0100755 -0.710929 0
M  V30 3730 H 346.452 -0.653494 -1.84254 0
M  V30 3731 H 345.156 -0.713847 -4.04144 0
M  V30 3732 H 344.687 0.977751 -3.81056 0
M  V30 3733 H 346.702 2.01048 -4.53645 0
M  V30 3734 N 345.875 1.56104 -0.216619 0
M  V30 3735 C 346.805 2.23063 0.690296 0
M  V30 3736 C 347.786 1.20072 1.20485 0
M  V30 3737 O 348.971 1.48643 1.24976 0
M  V30 3738 C 346.101 2.90672 1.90072 0
M  V30 3739 C 345.055 4.00092 1.5202 0
M  V30 3740 C 344.381 4.54972 2.80899 0
M  V30 3741 C 345.681 5.17398 0.71391 0
M  V30 3742 H 347.375 2.99109 0.132038 0
M  V30 3743 H 344.921 1.43866 0.0620664 0
M  V30 3744 H 346.874 3.36204 2.54057 0
M  V30 3745 H 345.598 2.12066 2.48386 0
M  V30 3746 H 344.257 3.55283 0.903839 0
M  V30 3747 H 343.905 3.73102 3.37348 0
M  V30 3748 H 343.605 5.28817 2.56176 0
M  V30 3749 H 345.129 5.0322 3.45836 0
M  V30 3750 H 346.543 5.59342 1.25735 0
M  V30 3751 H 344.94 5.97444 0.563951 0
M  V30 3752 H 346.01 4.84088 -0.280527 0
M  V30 3753 N 347.353 -0.0568162 1.57498 0
M  V30 3754 C 348.6 -0.753104 1.87975 0
M  V30 3755 C 348.928 -1.76815 0.81035 0
M  V30 3756 O 348.183 -1.94756 -0.19199 0
M  V30 3757 C 348.482 -1.48359 3.25153 0
M  V30 3758 C 348.148 -0.60713 4.46794 0
M  V30 3759 C 346.81 -0.365642 4.79809 0
M  V30 3760 C 349.162 -0.000305978 5.212 0
M  V30 3761 C 346.49 0.491905 5.84634 0
M  V30 3762 C 348.842 0.844781 6.26934 0
M  V30 3763 C 347.506 1.096 6.58441 0
M  V30 3764 H 346.776 -0.27558 0.687849 0
M  V30 3765 H 349.423 -0.0135173 1.91495 0
M  V30 3766 H 347.728 -2.29577 3.17492 0
M  V30 3767 H 349.425 -2.02739 3.45974 0
M  V30 3768 H 346.015 -0.805487 4.20963 0
M  V30 3769 H 350.199 -0.173961 4.95995 0
M  V30 3770 H 345.455 0.695131 6.07436 0
M  V30 3771 H 349.629 1.32165 6.83744 0
M  V30 3772 H 347.256 1.76224 7.39492 0
M  V30 3773 N 348.832 -1.54138 -0.328536 0
M  V30 3774 C 349.742 -1.86192 -1.42723 0
M  V30 3775 C 350.758 -0.753382 -1.56844 0
M  V30 3776 O 351.934 -1.04718 -1.72035 0
M  V30 3777 C 348.999 -2.07824 -2.77507 0
M  V30 3778 C 348.06 -3.31641 -2.72603 0
M  V30 3779 C 347.293 -3.52232 -4.00959 0
M  V30 3780 O 347.516 -2.7636 -4.9898 0
M  V30 3781 O 346.45 -4.45699 -4.0452 0
M  V30 3782 H 350.276 -2.79608 -1.18547 0
M  V30 3783 H 347.861 -1.3998 -0.522104 0
M  V30 3784 H 349.743 -2.23411 -3.57303 0
M  V30 3785 H 348.418 -1.17596 -3.01584 0
M  V30 3786 H 347.325 -3.21444 -1.91376 0
M  V30 3787 H 348.658 -4.2191 -2.53481 0
M  V30 3788 N 350.31 0.590341 -1.46126 0
M  V30 3789 C 351.257 1.69994 -1.56111 0
M  V30 3790 C 352.227 1.61065 -0.405867 0
M  V30 3791 O 353.412 1.8039 -0.621613 0
M  V30 3792 C 350.552 3.08326 -1.55013 0
M  V30 3793 C 349.665 3.27936 -2.81215 0
M  V30 3794 C 348.8 4.56473 -2.71673 0
M  V30 3795 C 347.839 4.694 -3.92849 0
M  V30 3796 N 346.976 5.89254 -3.81738 0
M  V30 3797 H 351.816 1.60797 -2.50895 0
M  V30 3798 H 349.353 0.783799 -1.24479 0
M  V30 3799 H 351.311 3.88383 -1.52362 0
M  V30 3800 H 349.941 3.16439 -0.637667 0
M  V30 3801 H 348.993 2.41536 -2.93879 0
M  V30 3802 H 350.305 3.33357 -3.71045 0
M  V30 3803 H 349.459 5.44748 -2.67085 0
M  V30 3804 H 348.198 4.53477 -1.7947 0
M  V30 3805 H 347.203 3.79544 -3.97777 0
M  V30 3806 H 348.428 4.7418 -4.86138 0
M  V30 3807 H 346.374 5.87271 -2.92317 0
M  V30 3808 H 346.291 5.95911 -4.65217 0
M  V30 3809 H 347.559 6.79981 -3.81112 0
M  V30 3810 N 351.788 1.33704 0.83433 0
M  V30 3811 C 352.718 1.26967 1.95963 0
M  V30 3812 C 353.699 0.149337 1.69443 0
M  V30 3813 O 354.884 0.339852 1.91203 0
M  V30 3814 C 352.014 1.01275 3.32206 0
M  V30 3815 C 350.968 2.09652 3.73136 0
M  V30 3816 C 350.294 1.69166 5.07235 0
M  V30 3817 C 351.594 3.51372 3.86439 0
M  V30 3818 H 353.288 2.2112 2.01857 0
M  V30 3819 H 350.834 1.06447 0.969793 0
M  V30 3820 H 352.787 0.952106 4.10503 0
M  V30 3821 H 351.511 0.0356203 3.26581 0
M  V30 3822 H 350.17 2.14766 2.97104 0
M  V30 3823 H 349.818 0.701437 4.98085 0
M  V30 3824 H 349.518 2.41694 5.35591 0
M  V30 3825 H 351.042 1.64576 5.88003 0
M  V30 3826 H 352.456 3.48734 4.55036 0
M  V30 3827 H 350.853 4.22425 4.26236 0
M  V30 3828 H 351.923 3.89546 2.88759 0
M  V30 3829 N 353.266 -1.05314 1.17247 0
M  V30 3830 C 354.496 -1.81707 0.983166 0
M  V30 3831 C 354.904 -1.83222 -0.471822 0
M  V30 3832 O 354.247 -1.25721 -1.3394 0
M  V30 3833 C 354.309 -3.29134 1.44606 0
M  V30 3834 C 353.973 -3.51304 2.92292 0
M  V30 3835 C 354.97 -3.4353 3.90235 0
M  V30 3836 C 352.655 -3.78306 3.30439 0
M  V30 3837 C 354.649 -3.62442 5.24323 0
M  V30 3838 C 352.336 -3.96866 4.64694 0
M  V30 3839 C 353.334 -3.88933 5.61445 0
M  V30 3840 O 353.022 -4.06976 6.93272 0
M  V30 3841 H 352.754 -0.579476 0.348114 0
M  V30 3842 H 355.308 -1.33705 1.55924 0
M  V30 3843 H 353.538 -3.78046 0.813537 0
M  V30 3844 H 355.227 -3.87049 1.22262 0
M  V30 3845 H 355.993 -3.22648 3.62109 0
M  V30 3846 H 351.872 -3.83585 2.55702 0
M  V30 3847 H 355.416 -3.56165 5.99827 0
M  V30 3848 H 351.313 -4.1724 4.92525 0
M  V30 3849 H 352.081 -4.24209 6.99992 0
M  V30 3850 N 354.744 -0.972509 -1.24016 0
M  V30 3851 C 355.674 -0.525548 -2.27509 0
M  V30 3852 C 356.655 0.437262 -1.64384 0
M  V30 3853 O 357.84 0.332343 -1.91335 0
M  V30 3854 C 354.97 0.180448 -3.46831 0
M  V30 3855 C 353.924 -0.698859 -4.22256 0
M  V30 3856 C 353.25 0.138903 -5.3452 0
M  V30 3857 C 354.55 -1.98582 -4.83076 0
M  V30 3858 H 356.244 -1.39058 -2.65148 0
M  V30 3859 H 353.79 -0.67009 -1.27459 0
M  V30 3860 H 355.743 0.504387 -4.18371 0
M  V30 3861 H 354.467 1.07987 -3.08231 0
M  V30 3862 H 353.126 -1.00614 -3.52523 0
M  V30 3863 H 352.774 1.03862 -4.9216 0
M  V30 3864 H 352.474 -0.446259 -5.85903 0
M  V30 3865 H 353.998 0.457404 -6.08884 0
M  V30 3866 H 355.412 -1.72715 -5.46665 0
M  V30 3867 H 353.809 -2.5181 -5.44713 0
M  V30 3868 H 354.879 -2.67769 -4.04262 0
M  V30 3869 N 356.222 1.38976 -0.743202 0
M  V30 3870 C 357.152 2.33171 -0.123873 0
M  V30 3871 C 358.133 1.54336 0.71516 0
M  V30 3872 O 359.318 1.82696 0.658467 0
M  V30 3873 C 356.448 3.38474 0.777978 0
M  V30 3874 C 355.402 4.27979 0.0424758 0
M  V30 3875 C 354.728 5.2405 1.06189 0
M  V30 3876 C 356.028 5.10155 -1.1198 0
M  V30 3877 H 357.722 2.85213 -0.910709 0
M  V30 3878 H 355.268 1.37133 -0.439388 0
M  V30 3879 H 357.221 4.03328 1.22084 0
M  V30 3880 H 355.945 2.84891 1.59702 0
M  V30 3881 H 354.604 3.64616 -0.380853 0
M  V30 3882 H 354.252 4.66758 1.87472 0
M  V30 3883 H 353.952 5.84785 0.574485 0
M  V30 3884 H 355.476 5.9178 1.50428 0
M  V30 3885 H 356.89 5.68307 -0.75499 0
M  V30 3886 H 355.287 5.80073 -1.53738 0
M  V30 3887 H 356.357 4.44504 -1.93764 0
M  V30 3888 N 357.7 0.491464 1.49741 0
M  V30 3889 C 358.928 -0.0535151 2.06831 0
M  V30 3890 C 359.343 -1.31683 1.35296 0
M  V30 3891 O 358.7 -1.77402 0.42836 0
M  V30 3892 C 358.751 -0.320835 3.60073 0
M  V30 3893 O 358.472 0.892394 4.28915 0
M  V30 3894 C 359.973 -0.910519 4.33848 0
M  V30 3895 H 357.193 0.0161909 0.670805 0
M  V30 3896 H 359.737 0.68609 1.92647 0
M  V30 3897 H 357.892 -1.0104 3.73991 0
M  V30 3898 H 358.306 0.649401 5.20464 0
M  V30 3899 H 359.78 -1.04721 5.41976 0
M  V30 3900 H 360.257 -1.90589 3.95692 0
M  V30 3901 H 360.863 -0.258712 4.24512 0
M  V30 3902 N 359.178 -1.55987 0.224894 0
M  V30 3903 C 360.088 -2.24066 -0.69511 0
M  V30 3904 C 361.104 -1.24939 -1.21104 0
M  V30 3905 O 362.28 -1.5776 -1.25195 0
M  V30 3906 C 359.345 -2.90983 -1.88493 0
M  V30 3907 C 358.406 -4.05462 -1.41064 0
M  V30 3908 C 357.639 -4.69179 -2.54375 0
M  V30 3909 O 357.862 -4.31895 -3.72589 0
M  V30 3910 O 356.796 -5.58108 -2.25386 0
M  V30 3911 H 360.622 -3.03353 -0.145149 0
M  V30 3912 H 358.207 -1.49399 -0.00569476 0
M  V30 3913 H 360.089 -3.33209 -2.57972 0
M  V30 3914 H 358.764 -2.14653 -2.42293 0
M  V30 3915 H 357.671 -3.67798 -0.683774 0
M  V30 3916 H 359.004 -4.83545 -0.918985 0
M  V30 3917 N 360.656 0.0484629 -1.57525 0
M  V30 3918 C 361.603 1.05504 -2.05275 0
M  V30 3919 C 362.573 1.37084 -0.937927 0
M  V30 3920 O 363.758 1.47754 -1.2072 0
M  V30 3921 C 360.898 2.35676 -2.52093 0
M  V30 3922 C 360.011 2.10423 -3.77288 0
M  V30 3923 C 359.146 3.34327 -4.12794 0
M  V30 3924 C 358.185 3.04542 -5.30962 0
M  V30 3925 N 357.322 4.20841 -5.61994 0
M  V30 3926 H 362.162 0.640885 -2.91027 0
M  V30 3927 H 359.699 0.304854 -1.43906 0
M  V30 3928 H 361.657 3.11709 -2.77297 0
M  V30 3929 H 360.287 2.7485 -1.69285 0
M  V30 3930 H 359.339 1.24976 -3.59284 0
M  V30 3931 H 360.651 1.84438 -4.63448 0
M  V30 3932 H 359.805 4.1874 -4.39024 0
M  V30 3933 H 358.544 3.63408 -3.25247 0
M  V30 3934 H 357.549 2.18528 -5.04505 0
M  V30 3935 H 358.774 2.76758 -6.20146 0
M  V30 3936 H 356.72 4.4991 -4.77406 0
M  V30 3937 H 356.637 3.98212 -6.42622 0
M  V30 3938 H 357.905 5.06184 -5.92789 0
M  V30 3939 O 362.173 1.60359 0.191666 0
M  V30 3940 H 362.864 1.75005 0.830227 0
M  V30 END ATOM
M  V30 BEGIN BOND
M  V30 END BOND
M  V30 END CTAB
M  END
$$$$
