drugbank_target|P51575 P2X purinoceptor 1 (DB01069)
 OpenBabel12092121213D

  0  0  0     0  0            999 V3000
M  V30 BEGIN CTAB
M  V30 COUNTS 6347 6427 0 0 0
M  V30 BEGIN ATOM
M  V30 1 H -0.908 1.98254 -0.117106 0
M  V30 2 N 0 1.576 0 0
M  V30 3 C 0.933 2.03868 1.02534 0
M  V30 4 C 1.911 0.928543 1.3348 0
M  V30 5 O 3.095 1.19667 1.45644 0
M  V30 6 C 0.222 2.43627 2.35294 0
M  V30 7 C -0.732 3.65373 2.2001 0
M  V30 8 S 0.101 5.13292 1.52614 0
M  V30 9 C 1.257 5.56322 2.86805 0
M  V30 10 H 1.49 2.90518 0.631377 0
M  V30 11 H -0.977 1.52953 0.210867 0
M  V30 12 H 0.981 2.67203 3.11629 0
M  V30 13 H -0.358 1.57376 2.7183 0
M  V30 14 H -1.165 3.90944 3.18086 0
M  V30 15 H -1.563 3.418 1.51819 0
M  V30 16 H 0.729 5.58782 3.83104 0
M  V30 17 H 1.672 6.56266 2.65933 0
M  V30 18 H 2.08 4.83886 2.90714 0
M  V30 19 N 1.4781 -0.272755 1.55222 0
M  V30 20 C 2.4411 -1.32041 1.87344 0
M  V30 21 C 3.4411 -1.42342 0.74803 0
M  V30 22 O 4.6311 -1.41488 1.0162 0
M  V30 23 C 1.7631 -2.70173 2.07893 0
M  V30 24 H 2.9561 -1.04789 2.80997 0
M  V30 25 H 0.5091 -0.51083 1.47717 0
M  V30 26 H 1.2441 -3.02605 1.16622 0
M  V30 27 H 1.0291 -2.64082 2.89833 0
M  V30 28 H 2.5191 -3.45869 2.34017 0
M  V30 29 N 2.9562 -1.48159 -0.537278 0
M  V30 30 C 4.3722 -1.34118 -0.865129 0
M  V30 31 C 4.5722 -0.346678 -1.98495 0
M  V30 32 O 3.6282 0.234715 -2.51407 0
M  V30 33 C 4.9412 -2.73963 -1.23954 0
M  V30 34 C 6.4892 -2.82397 -1.34984 0
M  V30 35 C 6.9642 -4.22928 -1.75772 0
M  V30 36 N 8.4552 -4.25566 -1.82887 0
M  V30 37 C 9.1902 -5.31235 -2.15817 0
M  V30 38 N 8.6862 -6.47189 -2.47222 0
M  V30 39 N 10.4792 -5.18624 -2.16761 0
M  V30 40 H 2.6302 -2.1144 0.201715 0
M  V30 41 H 4.8932 -0.947598 0.0275949 0
M  V30 42 H 4.5992 -3.48264 -0.490381 0
M  V30 43 H 4.4732 -3.0702 -2.19132 0
M  V30 44 H 6.8602 -2.08356 -2.08978 0
M  V30 45 H 6.9412 -2.5297 -0.379448 0
M  V30 46 H 6.5852 -4.97482 -1.02341 0
M  V30 47 H 6.5152 -4.49794 -2.73848 0
M  V30 48 H 9.0062 -3.41924 -1.60924 0
M  V30 49 H 9.3192 -7.23564 -2.71433 0
M  V30 50 H 7.6642 -6.50476 -2.44757 0
M  V30 51 H 10.8552 -4.27056 -1.91679 0
M  V30 52 H 11.0282 -6.01078 -2.42093 0
M  V30 53 N 4.4343 0.785586 -1.36625 0
M  V30 54 C 5.8503 1.08419 -1.17122 0
M  V30 55 C 6.0503 2.015 0.00208491 0
M  V30 56 O 5.1063 2.43551 0.666278 0
M  V30 57 C 6.4193 1.69498 -2.48377 0
M  V30 58 C 7.9673 1.81821 -2.54775 0
M  V30 59 C 8.4423 2.46315 -3.86126 0
M  V30 60 N 9.9333 2.53779 -3.87492 0
M  V30 61 C 10.6683 3.045 -4.85868 0
M  V30 62 N 10.1643 3.55499 -5.94637 0
M  V30 63 N 11.9573 3.03247 -4.73284 0
M  V30 64 H 4.1083 0.167264 -2.1174 0
M  V30 65 H 6.3713 0.13682 -0.938075 0
M  V30 66 H 6.0773 1.08571 -3.34522 0
M  V30 67 H 5.9513 2.6896 -2.64462 0
M  V30 68 H 8.3383 2.41884 -1.69045 0
M  V30 69 H 8.4193 0.811532 -2.42586 0
M  V30 70 H 8.0633 1.86895 -4.72263 0
M  V30 71 H 7.9933 3.47561 -3.95612 0
M  V30 72 H 10.4843 2.17672 -3.08913 0
M  V30 73 H 10.7973 3.92562 -6.65669 0
M  V30 74 H 9.1423 3.5364 -5.98301 0
M  V30 75 H 12.3333 2.62696 -3.87438 0
M  V30 76 H 12.5063 3.42467 -5.50109 0
M  V30 77 N 5.9124 1.20967 1.01018 0
M  V30 78 C 7.1594 1.02374 1.74716 0
M  V30 79 C 7.4874 -0.443375 1.89379 0
M  V30 80 O 6.7424 -1.34535 1.42123 0
M  V30 81 C 7.0414 1.65997 3.16512 0
M  V30 82 C 6.7074 3.15831 3.2181 0
M  V30 83 C 5.3694 3.56719 3.22963 0
M  V30 84 C 7.7214 4.11816 3.19464 0
M  V30 85 C 5.0494 4.92107 3.19449 0
M  V30 86 C 7.4014 5.47158 3.17491 0
M  V30 87 C 6.0654 5.87451 3.16951 0
M  V30 88 H 5.3354 0.374614 0.639332 0
M  V30 89 H 7.9824 1.50485 1.18434 0
M  V30 90 H 6.2874 1.10166 3.75993 0
M  V30 91 H 7.9844 1.49119 3.72242 0
M  V30 92 H 4.5744 2.83263 3.21652 0
M  V30 93 H 8.7584 3.81257 3.17737 0
M  V30 94 H 4.0144 5.22579 3.17366 0
M  V30 95 H 8.1884 6.21274 3.14629 0
M  V30 96 H 5.8154 6.92329 3.13983 0
M  V30 97 N 7.3905 -1.2043 1.01659 0
M  V30 98 C 8.3225 -2.22626 0.544988 0
M  V30 99 C 9.3355 -1.58479 -0.372609 0
M  V30 100 O 10.5245 -1.77679 -0.170958 0
M  V30 101 C 7.6245 -3.38141 -0.22663 0
M  V30 102 C 6.7975 -4.31877 0.692876 0
M  V30 103 C 5.8565 -5.26191 -0.0311616 0
M  V30 104 O 4.8825 -5.6612 0.591343 0
M  V30 105 N 6.0845 -5.65618 -1.30601 0
M  V30 106 H 8.8495 -2.63716 1.42388 0
M  V30 107 H 6.4105 -1.34971 0.894116 0
M  V30 108 H 8.4025 -3.98239 -0.72024 0
M  V30 109 H 6.9725 -2.95943 -1.00681 0
M  V30 110 H 6.1925 -3.69746 1.36679 0
M  V30 111 H 7.4805 -4.91426 1.31824 0
M  V30 112 H 6.8785 -5.3519 -1.83269 0
M  V30 113 H 5.4355 -6.28025 -1.74435 0
M  V30 114 N 8.8686 -0.792821 -1.36206 0
M  V30 115 C 9.7786 -0.194808 -2.3379 0
M  V30 116 C 10.7946 0.654869 -1.61206 0
M  V30 117 O 11.9706 0.569856 -1.9317 0
M  V30 118 C 9.0356 0.657721 -3.40404 0
M  V30 119 C 8.0966 -0.210849 -4.28782 0
M  V30 120 C 7.3296 0.601086 -5.30304 0
M  V30 121 O 7.5526 1.83682 -5.40016 0
M  V30 122 O 6.4866 -0.000808277 -6.019 0
M  V30 123 H 10.3126 -1.00172 -2.86704 0
M  V30 124 H 7.8976 -0.554341 -1.38735 0
M  V30 125 H 9.7796 1.14375 -4.05581 0
M  V30 126 H 8.4546 1.44247 -2.89784 0
M  V30 127 H 7.3616 -0.743714 -3.66633 0
M  V30 128 H 8.6946 -0.959195 -4.82763 0
M  V30 129 N 10.3467 1.47872 -0.545128 0
M  V30 130 C 11.2567 2.33633 0.212746 0
M  V30 131 C 12.2727 1.4744 0.923983 0
M  V30 132 O 13.4487 1.80393 0.895572 0
M  V30 133 C 10.5137 3.23884 1.23693 0
M  V30 134 C 9.5747 4.25961 0.534417 0
M  V30 135 C 8.8077 5.11899 1.5098 0
M  V30 136 O 9.0307 5.00077 2.7437 0
M  V30 137 O 7.9647 5.92831 1.0409 0
M  V30 138 H 11.7907 2.99714 -0.490416 0
M  V30 139 H 9.3757 1.46235 -0.305871 0
M  V30 140 H 11.2577 3.79666 1.82843 0
M  V30 141 H 9.9327 2.60446 1.92222 0
M  V30 142 H 8.8397 3.73972 -0.0979679 0
M  V30 143 H 10.1727 4.92079 -0.109213 0
M  V30 144 N 11.8248 0.280983 1.55075 0
M  V30 145 C 12.7548 -0.597469 2.25727 0
M  V30 146 C 13.7358 -1.15417 1.24952 0
M  V30 147 O 14.9208 -1.18722 1.53684 0
M  V30 148 C 12.0508 -1.7789 2.98283 0
M  V30 149 C 11.0048 -1.35347 4.06036 0
M  V30 150 C 10.3308 -2.61846 4.66198 0
M  V30 151 C 11.6308 -0.499354 5.19907 0
M  V30 152 H 13.3248 -0.00824265 2.99399 0
M  V30 153 H 10.8708 -0.0025244 1.44 0
M  V30 154 H 12.8238 -2.39937 3.46422 0
M  V30 155 H 11.5478 -2.39405 2.22155 0
M  V30 156 H 10.2068 -0.756156 3.58717 0
M  V30 157 H 9.8548 -3.21632 3.86732 0
M  V30 158 H 9.5548 -2.3409 5.38958 0
M  V30 159 H 11.0788 -3.24732 5.1709 0
M  V30 160 H 12.4928 -1.02498 5.64063 0
M  V30 161 H 10.8898 -0.316424 5.99265 0
M  V30 162 H 11.9598 0.480459 4.82514 0
M  V30 163 N 13.3029 -1.57598 0.00835791 0
M  V30 164 C 14.2659 -2.07884 -0.965242 0
M  V30 165 C 15.2659 -0.989825 -1.26725 0
M  V30 166 O 16.4559 -1.25218 -1.21104 0
M  V30 167 C 13.5879 -2.52731 -2.28779 0
M  V30 168 H 14.7809 -2.95178 -0.530112 0
M  V30 169 H 12.3339 -1.54458 -0.239283 0
M  V30 170 H 13.0689 -1.68705 -2.76964 0
M  V30 171 H 12.8539 -3.32272 -2.08177 0
M  V30 172 H 14.3439 -2.91933 -2.98605 0
M  V30 173 N 14.781 0.264519 -1.55364 0
M  V30 174 C 15.744 1.31046 -1.88042 0
M  V30 175 C 16.744 1.41943 -0.755569 0
M  V30 176 O 17.934 1.40947 -1.02369 0
M  V30 177 C 15.066 2.69067 -2.09323 0
M  V30 178 H 16.259 1.03297 -2.81549 0
M  V30 179 H 13.812 0.502989 -1.47986 0
M  V30 180 H 14.547 3.01982 -1.18226 0
M  V30 181 H 14.332 2.62542 -2.91229 0
M  V30 182 H 15.822 3.44623 -2.35848 0
M  V30 183 N 16.2591 1.48442 0.529413 0
M  V30 184 C 17.5061 1.56488 1.28521 0
M  V30 185 C 17.8341 0.239042 1.93025 0
M  V30 186 O 17.0891 -0.770713 1.79885 0
M  V30 187 C 17.3881 2.6523 2.39558 0
M  V30 188 C 17.0541 4.07648 1.92702 0
M  V30 189 C 15.7161 4.46411 1.79641 0
M  V30 190 C 18.0681 4.96896 1.573 0
M  V30 191 C 15.3961 5.72226 1.29514 0
M  V30 192 C 17.7481 6.23202 1.08636 0
M  V30 193 C 16.4121 6.60821 0.941919 0
M  V30 194 H 15.6821 0.572631 0.470292 0
M  V30 195 H 18.3291 1.82161 0.59072 0
M  V30 196 H 16.6341 2.33419 3.14679 0
M  V30 197 H 18.3311 2.68671 2.97686 0
M  V30 198 H 14.9211 3.77036 2.03819 0
M  V30 199 H 19.1051 4.67626 1.66251 0
M  V30 200 H 14.3611 6.00097 1.17019 0
M  V30 201 H 18.5351 6.91753 0.803136 0
M  V30 202 H 16.1621 7.58198 0.5513 0
M  V30 203 N 17.7372 -0.778329 1.37039 0
M  V30 204 C 18.6672 -1.90546 1.34962 0
M  V30 205 C 19.6482 -1.68681 0.219274 0
M  V30 206 O 20.8332 -1.89634 0.418624 0
M  V30 207 C 17.9632 -3.27734 1.14925 0
M  V30 208 C 16.9172 -3.64147 2.24902 0
M  V30 209 C 16.2432 -4.99806 1.89996 0
M  V30 210 C 17.5432 -3.71579 3.67051 0
M  V30 211 H 19.2372 -1.92541 2.29277 0
M  V30 212 H 16.7832 -0.924948 1.10366 0
M  V30 213 H 18.7362 -4.06215 1.12104 0
M  V30 214 H 17.4602 -3.26154 0.170631 0
M  V30 215 H 16.1192 -2.8797 2.26868 0
M  V30 216 H 15.7672 -4.94759 0.906796 0
M  V30 217 H 15.4672 -5.25139 2.63634 0
M  V30 218 H 16.9912 -5.80694 1.88749 0
M  V30 219 H 18.4052 -4.40227 3.67251 0
M  V30 220 H 16.8022 -4.08405 4.39688 0
M  V30 221 H 17.8722 -2.72404 4.01154 0
M  V30 222 N 19.2153 -1.21501 -1.00376 0
M  V30 223 C 20.4623 -1.03299 -1.74171 0
M  V30 224 C 20.7903 0.433326 -1.89612 0
M  V30 225 O 20.0453 1.33779 -1.42834 0
M  V30 226 C 20.3443 -1.67673 -3.15627 0
M  V30 227 C 20.0103 -3.17533 -3.2013 0
M  V30 228 C 18.6723 -3.58427 -3.21067 0
M  V30 229 C 21.0243 -4.13504 -3.17275 0
M  V30 230 C 18.3523 -4.93794 -3.16835 0
M  V30 231 C 20.7043 -5.48834 -3.14585 0
M  V30 232 C 19.3683 -5.89123 -3.13831 0
M  V30 233 H 18.6383 -0.377999 -0.637336 0
M  V30 234 H 21.2853 -1.51111 -1.17634 0
M  V30 235 H 19.5903 -1.12158 -3.75404 0
M  V30 236 H 21.2873 -1.51091 -3.71446 0
M  V30 237 H 17.8773 -2.84965 -3.20145 0
M  V30 238 H 22.0613 -3.82936 -3.15711 0
M  V30 239 H 17.3173 -5.24255 -3.1459 0
M  V30 240 H 21.4913 -6.22934 -3.1133 0
M  V30 241 H 19.1183 -6.93984 -3.10307 0
M  V30 242 N 20.6934 1.19889 -1.02296 0
M  V30 243 C 21.6034 2.26571 -0.608508 0
M  V30 244 C 22.6194 1.70299 0.356964 0
M  V30 245 O 23.7954 2.00235 0.216326 0
M  V30 246 C 20.8604 3.46677 0.0402814 0
M  V30 247 C 19.9214 4.18153 -0.97194 0
M  V30 248 C 19.1544 5.32525 -0.354016 0
M  V30 249 O 19.3774 5.64112 0.844604 0
M  V30 250 O 18.3114 5.92242 -1.07391 0
M  V30 251 H 22.1374 2.64251 -1.49684 0
M  V30 252 H 19.7224 1.26629 -0.792809 0
M  V30 253 H 21.6044 4.19475 0.402324 0
M  V30 254 H 20.2794 3.10858 0.902707 0
M  V30 255 H 19.1864 3.47499 -1.38546 0
M  V30 256 H 20.5194 4.57927 -1.80454 0
M  V30 257 N 22.1715 0.800033 1.35784 0
M  V30 258 C 23.4015 0.389041 2.02904 0
M  V30 259 C 23.8095 -1.0027 1.60445 0
M  V30 260 O 23.1525 -1.65633 0.794453 0
M  V30 261 C 23.2145 0.385495 3.57427 0
M  V30 262 C 22.8785 1.72662 4.23127 0
M  V30 263 C 23.8755 2.68385 4.4527 0
M  V30 264 C 21.5605 2.00883 4.60381 0
M  V30 265 C 23.5545 3.90517 5.03761 0
M  V30 266 C 21.2415 3.2328 5.18588 0
M  V30 267 C 22.2395 4.17915 5.40218 0
M  V30 268 O 21.9275 5.38153 5.97199 0
M  V30 269 H 21.6595 0.157032 0.657508 0
M  V30 270 H 24.2135 1.08311 1.74522 0
M  V30 271 H 22.4435 -0.365128 3.84972 0
M  V30 272 H 24.1325 -0.00228296 4.059 0
M  V30 273 H 24.8985 2.47872 4.16874 0
M  V30 274 H 20.7775 1.28037 4.42863 0
M  V30 275 H 24.3215 4.64395 5.2056 0
M  V30 276 H 20.2185 3.43667 5.4641 0
M  V30 277 H 20.9865 5.3936 6.15656 0
M  V30 278 N 23.6496 -1.47581 0.552962 0
M  V30 279 C 24.9266 -1.95563 -0.0381515 0
M  V30 280 C 25.3066 -1.49552 -1.48988 0
M  V30 281 O 24.6546 -0.732414 -2.16444 0
M  V30 282 C 24.8646 -3.48848 0.102919 0
M  V30 283 C 26.2126 -4.24577 -0.0446082 0
M  V30 284 O 27.2366 -3.56187 0.0302548 0
M  V30 285 O 26.0956 -5.46116 -0.204923 0
M  V30 286 H 23.1896 -0.824321 -0.0665067 0
M  V30 287 H 25.7356 -1.58001 0.619186 0
M  V30 288 H 24.5076 -3.75129 1.11328 0
M  V30 289 H 24.1306 -3.93165 -0.592224 0
M  V30 290 N 25.1277 -0.289203 -1.54924 0
M  V30 291 C 26.3557 0.326463 -2.04308 0
M  V30 292 C 26.7707 1.48413 -1.16701 0
M  V30 293 O 26.1277 1.81507 -0.190087 0
M  V30 294 C 26.1787 0.794014 -3.52672 0
M  V30 295 O 25.8997 -0.317564 -4.36948 0
M  V30 296 C 27.4007 1.47605 -4.18004 0
M  V30 297 H 24.6207 0.0726272 -0.667058 0
M  V30 298 H 27.1647 -0.425401 -2.00026 0
M  V30 299 H 25.3197 1.49593 -3.57352 0
M  V30 300 H 25.7337 0.0443186 -5.24481 0
M  V30 301 H 27.2077 1.75447 -5.23376 0
M  V30 302 H 27.6847 2.41224 -3.67025 0
M  V30 303 H 28.2907 0.81762 -4.17367 0
M  V30 304 N 26.6058 1.57591 -0.0167156 0
M  V30 305 C 28.0168 1.79201 0.523834 0
M  V30 306 C 28.3678 0.925796 1.72984 0
M  V30 307 O 27.4928 0.132792 2.15992 0
M  V30 308 C 28.0878 3.25 0.957091 0
M  V30 309 C 26.6468 3.47648 1.44283 0
M  V30 310 C 25.7938 2.74374 0.401757 0
M  V30 311 H 28.7448 1.56831 -0.242816 0
M  V30 312 H 28.7658 3.34031 1.82219 0
M  V30 313 H 28.2778 3.88019 0.0791415 0
M  V30 314 H 26.3788 2.89866 2.34113 0
M  V30 315 H 26.4918 4.56352 1.45877 0
M  V30 316 H 24.8558 2.39485 0.867121 0
M  V30 317 H 25.6388 3.40102 -0.467513 0
M  V30 318 N 28.0839 -0.256276 1.55502 0
M  V30 319 C 29.4999 -0.604325 1.47716 0
M  V30 320 C 29.6999 -1.88763 0.705039 0
M  V30 321 O 28.7559 -2.51445 0.230613 0
M  V30 322 C 30.0689 -0.715756 2.92057 0
M  V30 323 C 31.6169 -0.808706 3.02372 0
M  V30 324 C 32.0919 -0.951777 4.48001 0
M  V30 325 N 33.5829 -1.01688 4.519 0
M  V30 326 C 34.3179 -1.14668 5.61817 0
M  V30 327 N 33.8139 -1.24261 6.81565 0
M  V30 328 N 35.6069 -1.1791 5.49594 0
M  V30 329 H 27.7579 0.586291 2.04148 0
M  V30 330 H 30.0209 0.201015 0.926443 0
M  V30 331 H 29.7269 0.157027 3.51349 0
M  V30 332 H 29.6009 -1.59071 3.42018 0
M  V30 333 H 31.9879 -1.67195 2.43166 0
M  V30 334 H 32.0689 0.0912063 2.55637 0
M  V30 335 H 31.7129 -0.0931291 5.07815 0
M  V30 336 H 31.6429 -1.86659 4.92408 0
M  V30 337 H 34.1339 -0.954468 3.65648 0
M  V30 338 H 34.4469 -1.34046 7.61086 0
M  V30 339 H 32.7919 -1.21236 6.84344 0
M  V30 340 H 35.9829 -1.10057 4.54978 0
M  V30 341 H 36.1559 -1.27681 6.35296 0
M  V30 342 N 29.562 -1.4872 -0.521534 0
M  V30 343 C 30.495 -1.58451 -1.64221 0
M  V30 344 C 31.473 -0.434513 -1.56687 0
M  V30 345 O 32.657 -0.647275 -1.77038 0
M  V30 346 C 29.784 -1.52037 -3.02659 0
M  V30 347 C 28.83 -2.71981 -3.28525 0
M  V30 348 S 29.663 -4.33869 -3.13876 0
M  V30 349 C 30.819 -4.30067 -4.54745 0
M  V30 350 H 31.052 -2.53256 -1.55719 0
M  V30 351 H 28.585 -1.37358 -0.705143 0
M  V30 352 H 30.543 -1.49023 -3.82495 0
M  V30 353 H 29.204 -0.585541 -3.08594 0
M  V30 354 H 28.397 -2.63656 -4.29536 0
M  V30 355 H 27.999 -2.72302 -2.56374 0
M  V30 356 H 30.291 -4.00521 -5.46433 0
M  V30 357 H 31.234 -5.31287 -4.68123 0
M  V30 358 H 31.642 -3.60419 -4.34463 0
M  V30 359 N 31.0401 0.771051 -1.3745 0
M  V30 360 C 32.2861 1.5319 -1.32894 0
M  V30 361 C 32.6191 1.94008 0.0862511 0
M  V30 362 O 31.8941 1.64124 1.04373 0
M  V30 363 C 32.1771 2.79648 -2.26868 0
M  V30 364 C 32.0301 2.45079 -3.77169 0
M  V30 365 C 33.3491 3.81583 -2.19277 0
M  V30 366 H 30.4681 0.555744 -0.484064 0
M  V30 367 H 33.1101 0.884492 -1.68157 0
M  V30 368 H 31.2601 3.34891 -1.96926 0
M  V30 369 H 32.9321 1.95745 -4.1771 0
M  V30 370 H 31.1751 1.77767 -3.95704 0
M  V30 371 H 31.8461 3.35478 -4.38359 0
M  V30 372 H 34.3221 3.35835 -2.45671 0
M  V30 373 H 33.1981 4.67787 -2.87171 0
M  V30 374 H 33.4591 4.25897 -1.18592 0
M  V30 375 N 32.5182 1.22032 0.997298 0
M  V30 376 C 33.4482 1.01065 2.10495 0
M  V30 377 C 34.4292 -0.0669542 1.69968 0
M  V30 378 O 35.6142 0.0943987 1.9397 0
M  V30 379 C 32.7442 0.582874 3.42374 0
M  V30 380 C 31.6982 1.60592 3.96729 0
M  V30 381 C 31.0242 1.03412 5.24605 0
M  V30 382 C 32.3242 2.99478 4.27914 0
M  V30 383 H 34.0182 1.93708 2.28292 0
M  V30 384 H 31.5642 0.932761 1.09707 0
M  V30 385 H 33.5172 0.423332 4.19268 0
M  V30 386 H 32.2412 -0.379213 3.24391 0
M  V30 387 H 30.9002 1.75316 3.21963 0
M  V30 388 H 30.5482 0.063518 5.0296 0
M  V30 389 H 30.2482 1.71754 5.61938 0
M  V30 390 H 31.7722 0.886066 6.04137 0
M  V30 391 H 33.1862 2.88153 4.95622 0
M  V30 392 H 31.5832 3.64903 4.76409 0
M  V30 393 H 32.6532 3.49742 3.3587 0
M  V30 394 N 33.9963 -1.19345 1.0293 0
M  V30 395 C 35.2423 -1.89318 0.727083 0
M  V30 396 C 35.5753 -1.79446 -0.742483 0
M  V30 397 O 34.8503 -1.1871 -1.54072 0
M  V30 398 C 35.1333 -3.40238 1.17942 0
M  V30 399 C 34.9863 -3.58979 2.71024 0
M  V30 400 C 36.3053 -4.33479 0.760548 0
M  V30 401 H 33.4243 -0.687475 0.265606 0
M  V30 402 H 36.0663 -1.40477 1.2793 0
M  V30 403 H 34.2163 -3.81964 0.709608 0
M  V30 404 H 35.8883 -3.26421 3.25955 0
M  V30 405 H 34.1313 -3.02018 3.11396 0
M  V30 406 H 34.8023 -4.64823 2.9773 0
M  V30 407 H 37.2783 -3.99469 1.16464 0
M  V30 408 H 36.1543 -5.37664 1.10493 0
M  V30 409 H 36.4153 -4.40813 -0.337063 0
M  V30 410 N 35.4744 -0.807222 -1.35358 0
M  V30 411 C 36.8904 -0.491038 -1.51858 0
M  V30 412 C 37.0904 0.987648 -1.75635 0
M  V30 413 O 36.1464 1.77265 -1.79815 0
M  V30 414 C 37.4594 -1.33695 -2.69344 0
M  V30 415 C 39.0074 -1.33246 -2.83222 0
M  V30 416 C 39.4824 -2.1625 -4.03733 0
M  V30 417 N 40.9734 -2.1379 -4.10911 0
M  V30 418 C 41.7084 -2.74772 -5.03277 0
M  V30 419 N 41.2044 -3.44684 -6.0097 0
M  V30 420 N 42.9974 -2.6441 -4.96028 0
M  V30 421 H 35.1484 -1.76485 -1.18181 0
M  V30 422 H 37.4114 -0.751199 -0.578276 0
M  V30 423 H 37.1174 -2.38634 -2.58354 0
M  V30 424 H 36.9914 -0.990618 -3.6396 0
M  V30 425 H 39.3784 -0.290911 -2.93663 0
M  V30 426 H 39.4594 -1.71866 -1.89461 0
M  V30 427 H 39.1034 -3.20445 -3.94052 0
M  V30 428 H 39.0334 -1.74989 -4.96675 0
M  V30 429 H 41.5244 -1.62923 -3.40976 0
M  V30 430 H 41.8374 -3.88501 -6.68047 0
M  V30 431 H 40.1824 -3.48788 -6.01142 0
M  V30 432 H 43.3734 -2.0938 -4.18662 0
M  V30 433 H 43.5464 -3.12225 -5.6782 0
M  V30 434 N 36.9525 1.47285 -0.560781 0
M  V30 435 C 37.9005 2.31756 0.197942 0
M  V30 436 C 38.8945 1.43146 0.905854 0
M  V30 437 O 40.1005 1.59891 0.826733 0
M  V30 438 H 36.4755 0.747438 0.0827049 0
M  V30 439 H 38.4465 2.9359 -0.533629 0
M  V30 440 C 37.1955 3.25874 1.21249 0
M  V30 441 H 36.5185 3.94023 0.67719 0
M  V30 442 H 37.9585 3.87803 1.71419 0
M  V30 443 C 36.4175 2.49651 2.26221 0
M  V30 444 O 36.9475 2.24355 3.33208 0
M  V30 445 N 35.1535 2.10597 2.00243 0
M  V30 446 H 34.7005 2.31369 1.13252 0
M  V30 447 H 34.6585 1.59913 2.70694 0
M  V30 448 N 38.4306 0.297415 1.54768 0
M  V30 449 C 39.3776 -0.580276 2.23386 0
M  V30 450 C 40.3476 -1.13238 1.21517 0
M  V30 451 O 41.5326 -1.17757 1.50126 0
M  V30 452 C 38.6726 -1.74801 2.97555 0
M  V30 453 C 37.7856 -1.22764 4.1419 0
M  V30 454 C 36.9206 -2.35895 4.75949 0
M  V30 455 C 35.9596 -1.80974 5.84735 0
M  V30 456 N 35.0966 -2.87664 6.40464 0
M  V30 457 H 39.9366 0.0114833 2.97998 0
M  V30 458 H 37.4736 0.0174361 1.4709 0
M  V30 459 H 39.4316 -2.43475 3.38786 0
M  V30 460 H 38.0616 -2.31145 2.25326 0
M  V30 461 H 37.1136 -0.433271 3.77924 0
M  V30 462 H 38.4256 -0.785551 4.92575 0
M  V30 463 H 37.5796 -3.12523 5.20014 0
M  V30 464 H 36.3186 -2.83429 3.96887 0
M  V30 465 H 35.3236 -1.02834 5.40097 0
M  V30 466 H 36.5486 -1.34348 6.65678 0
M  V30 467 H 34.4946 -3.34538 5.64287 0
M  V30 468 H 34.4116 -2.4794 7.14186 0
M  V30 469 H 35.6796 -3.642 6.89187 0
M  V30 470 N 39.9087 -1.5758 0.0250728 0
M  V30 471 C 40.8557 -2.09973 -0.958129 0
M  V30 472 C 41.8257 -1.00085 -1.3256 0
M  V30 473 O 43.0107 -1.27481 -1.41962 0
M  V30 474 C 40.1507 -2.62812 -2.2366 0
M  V30 475 C 39.2637 -3.86693 -1.92594 0
M  V30 476 C 38.3987 -4.27941 -3.14707 0
M  V30 477 C 37.4377 -5.44591 -2.79442 0
M  V30 478 N 36.5747 -5.81014 -3.94167 0
M  V30 479 H 41.4147 -2.937 -0.504428 0
M  V30 480 H 38.9517 -1.45172 -0.237392 0
M  V30 481 H 40.9097 -2.91536 -2.98434 0
M  V30 482 H 39.5397 -1.81922 -2.66654 0
M  V30 483 H 38.5917 -3.64723 -1.0808 0
M  V30 484 H 39.9037 -4.71547 -1.62619 0
M  V30 485 H 39.0577 -4.58079 -3.97804 0
M  V30 486 H 37.7967 -3.41845 -3.4784 0
M  V30 487 H 36.8017 -5.1415 -1.94755 0
M  V30 488 H 38.0267 -6.32382 -2.47528 0
M  V30 489 H 35.9727 -4.97874 -4.2715 0
M  V30 490 H 35.8897 -6.60498 -3.67801 0
M  V30 491 H 37.1577 -6.15756 -4.7798 0
M  V30 492 N 41.3868 0.248026 -1.55636 0
M  V30 493 C 42.6328 0.97767 -1.77678 0
M  V30 494 C 42.9658 1.85016 -0.590135 0
M  V30 495 O 42.2408 1.90095 0.411611 0
M  V30 496 C 42.5238 1.83914 -3.09593 0
M  V30 497 C 42.3768 0.99491 -4.38659 0
M  V30 498 C 43.6958 2.82183 -3.37729 0
M  V30 499 H 40.8148 0.354005 -0.646413 0
M  V30 500 H 43.4568 0.248253 -1.88371 0
M  V30 501 H 41.6068 2.46104 -3.00608 0
M  V30 502 H 43.2788 0.391789 -4.59633 0
M  V30 503 H 41.5218 0.299231 -4.32767 0
M  V30 504 H 42.1928 1.63145 -5.2734 0
M  V30 505 H 44.6688 2.30129 -3.4667 0
M  V30 506 H 43.5448 3.39582 -4.31249 0
M  V30 507 H 43.8058 3.58588 -2.58586 0
M  V30 508 N 42.8649 1.48995 0.513639 0
M  V30 509 C 44.1129 1.57531 1.26604 0
M  V30 510 C 44.4339 0.258236 1.93283 0
M  V30 511 O 43.7039 -0.721502 1.8213 0
M  V30 512 H 42.2839 0.580387 0.470276 0
M  V30 513 H 44.9459 1.85552 0.596373 0
M  V30 514 H 44.0419 2.36486 2.03669 0
M  V30 515 N 44.343 -0.763751 1.37857 0
M  V30 516 C 45.589 -1.52483 1.33704 0
M  V30 517 C 45.922 -1.94051 -0.0759612 0
M  V30 518 O 45.197 -1.64675 -1.03501 0
M  V30 519 C 45.48 -2.78441 2.28348 0
M  V30 520 C 45.333 -2.43075 3.78463 0
M  V30 521 C 46.652 -3.80415 2.21298 0
M  V30 522 H 43.771 -0.553169 0.487005 0
M  V30 523 H 46.413 -0.875562 1.68624 0
M  V30 524 H 44.563 -3.33842 1.987 0
M  V30 525 H 46.235 -1.93527 4.18742 0
M  V30 526 H 44.478 -1.75666 3.96641 0
M  V30 527 H 45.149 -3.33149 4.40132 0
M  V30 528 H 47.625 -3.34527 2.47449 0
M  V30 529 H 46.501 -4.66257 2.89647 0
M  V30 530 H 46.762 -4.25262 1.20849 0
M  V30 531 N 45.8211 -1.22559 -0.990812 0
M  V30 532 C 47.0701 -1.04553 -1.72486 0
M  V30 533 C 47.3831 0.419349 -1.91052 0
M  V30 534 O 48.5891 0.719121 -2.61803 0
M  V30 535 C 47.0451 -1.82231 -3.10355 0
M  V30 536 C 46.6531 -3.32981 -2.99713 0
M  V30 537 C 48.3971 -1.7268 -3.87791 0
M  V30 538 C 46.3041 -4.03091 -4.32748 0
M  V30 539 H 45.2341 -0.387614 -0.646739 0
M  V30 540 H 47.8851 -1.46429 -1.10593 0
M  V30 541 H 46.2671 -1.33155 -3.72942 0
M  V30 542 H 47.4411 -3.89466 -2.46278 0
M  V30 543 H 45.7561 -3.43231 -2.35758 0
M  V30 544 H 48.3531 -2.22381 -4.86262 0
M  V30 545 H 48.6961 -0.687607 -4.10582 0
M  V30 546 H 49.2291 -2.1931 -3.31885 0
M  V30 547 H 45.9681 -5.07273 -4.15156 0
M  V30 548 H 45.4881 -3.51394 -4.86089 0
M  V30 549 H 47.1671 -4.08804 -5.01486 0
M  V30 550 N 47.2992 1.18797 -1.03562 0
M  V30 551 C 48.5462 1.8865 -0.736023 0
M  V30 552 C 48.8742 1.80041 0.735889 0
M  V30 553 O 48.1292 1.19179 1.55225 0
M  V30 554 C 48.4282 3.38692 -1.14117 0
M  V30 555 C 48.0942 3.67504 -2.6125 0
M  V30 556 C 46.7562 3.75078 -3.01447 0
M  V30 557 C 49.1082 3.80293 -3.56408 0
M  V30 558 C 46.4362 3.92915 -4.35701 0
M  V30 559 C 48.7882 3.99645 -4.90374 0
M  V30 560 C 47.4522 4.05453 -5.30249 0
M  V30 561 H 46.7222 0.690321 -0.26933 0
M  V30 562 H 49.3692 1.40641 -1.29971 0
M  V30 563 H 47.6742 3.88645 -0.496202 0
M  V30 564 H 49.3712 3.91072 -0.886789 0
M  V30 565 H 45.9612 3.62223 -2.29113 0
M  V30 566 H 50.1452 3.73779 -3.26501 0
M  V30 567 H 45.4012 3.95653 -4.66121 0
M  V30 568 H 49.5752 4.08482 -5.64017 0
M  V30 569 H 47.2022 4.19027 -6.34288 0
M  V30 570 N 48.7773 0.814389 1.34928 0
M  V30 571 C 50.1933 0.499084 1.51596 0
M  V30 572 C 50.3933 -0.978319 1.76157 0
M  V30 573 O 49.4493 -1.76309 1.80752 0
M  V30 574 C 50.7623 1.35121 2.68631 0
M  V30 575 C 52.3103 1.34746 2.82511 0
M  V30 576 C 52.7853 2.18388 4.0258 0
M  V30 577 N 54.2763 2.15966 4.09772 0
M  V30 578 C 55.0113 2.77437 5.01813 0
M  V30 579 N 54.5073 3.47866 5.99134 0
M  V30 580 N 56.3003 2.67037 4.94619 0
M  V30 581 H 48.4513 1.7711 1.17243 0
M  V30 582 H 50.7143 0.754256 0.574284 0
M  V30 583 H 50.4203 2.40001 2.57085 0
M  V30 584 H 50.2943 1.00991 3.63429 0
M  V30 585 H 52.6813 0.30648 2.93504 0
M  V30 586 H 52.7623 1.72869 1.88547 0
M  V30 587 H 52.4063 3.2253 3.92347 0
M  V30 588 H 52.3363 1.77621 4.9574 0
M  V30 589 H 54.8273 1.64729 3.40107 0
M  V30 590 H 55.1403 3.92038 6.65977 0
M  V30 591 H 53.4853 3.51972 5.99284 0
M  V30 592 H 56.6763 2.11597 4.17546 0
M  V30 593 H 56.8493 3.15232 5.66156 0
M  V30 594 N 50.2554 -1.46986 0.568584 0
M  V30 595 C 51.1854 -2.32946 -0.160753 0
M  V30 596 C 52.1664 -1.44487 -0.897631 0
M  V30 597 O 53.3514 -1.73327 -0.875867 0
M  V30 598 C 50.4814 -3.26494 -1.18403 0
M  V30 599 C 49.4354 -4.24282 -0.562895 0
M  V30 600 C 48.7614 -5.07236 -1.69163 0
M  V30 601 C 50.0614 -5.19989 0.490761 0
M  V30 602 H 51.7554 -2.94175 0.556916 0
M  V30 603 H 49.3014 -1.4146 0.26927 0
M  V30 604 H 51.2544 -3.85477 -1.70251 0
M  V30 605 H 49.9784 -2.63343 -1.93179 0
M  V30 606 H 48.6374 -3.66541 -0.0656164 0
M  V30 607 H 48.2854 -4.4048 -2.42871 0
M  V30 608 H 47.9854 -5.7345 -1.28174 0
M  V30 609 H 49.5094 -5.6908 -2.21314 0
M  V30 610 H 50.9234 -5.73271 0.0579047 0
M  V30 611 H 49.3204 -5.94469 0.820165 0
M  V30 612 H 50.3904 -4.64777 1.3824 0
M  V30 613 N 51.7335 -0.305618 -1.54608 0
M  V30 614 C 52.9825 0.303098 -1.9941 0
M  V30 615 C 53.2955 1.54648 -1.19764 0
M  V30 616 O 54.5015 2.23007 -1.54855 0
M  V30 617 C 52.9575 0.590588 -3.55021 0
M  V30 618 C 52.5655 -0.634719 -4.43481 0
M  V30 619 C 54.3095 1.16025 -4.08336 0
M  V30 620 C 52.2165 -0.320126 -5.90533 0
M  V30 621 H 51.1465 0.117031 -0.744862 0
M  V30 622 H 53.7975 -0.415045 -1.78745 0
M  V30 623 H 52.1795 1.36845 -3.71604 0
M  V30 624 H 53.3535 -1.41079 -4.38672 0
M  V30 625 H 51.6685 -1.12333 -4.00962 0
M  V30 626 H 54.2655 1.40994 -5.15776 0
M  V30 627 H 54.6085 2.10397 -3.5922 0
M  V30 628 H 55.1415 0.443985 -3.95315 0
M  V30 629 H 51.8805 -1.23254 -6.43808 0
M  V30 630 H 51.4005 0.418579 -5.98338 0
M  V30 631 H 53.0795 0.0766241 -6.46955 0
M  V30 632 N 53.2116 1.57565 -0.0334293 0
M  V30 633 C 54.1436 2.0739 0.975811 0
M  V30 634 C 55.1566 0.998166 1.2861 0
M  V30 635 O 56.3456 1.27426 1.25 0
M  V30 636 C 53.4456 2.4871 2.30209 0
M  V30 637 C 52.6186 3.79413 2.17634 0
M  V30 638 C 51.6776 4.07237 3.33233 0
M  V30 639 O 50.7036 4.77425 3.09927 0
M  V30 640 N 51.9056 3.5775 4.5716 0
M  V30 641 H 54.6706 2.94598 0.55066 0
M  V30 642 H 52.2316 1.61173 0.15323 0
M  V30 643 H 54.2236 2.64413 3.06378 0
M  V30 644 H 52.7936 1.66845 2.64351 0
M  V30 645 H 52.0136 3.73465 1.26165 0
M  V30 646 H 53.3016 4.65038 2.0644 0
M  V30 647 H 52.6996 3.00976 4.78989 0
M  V30 648 H 51.2566 3.78724 5.30482 0
M  V30 649 N 54.6897 -0.239769 1.55765 0
M  V30 650 C 55.6197 -1.30052 1.9393 0
M  V30 651 C 56.6007 -1.49839 0.805132 0
M  V30 652 O 57.7857 -1.62328 1.06599 0
M  V30 653 C 54.9157 -2.65391 2.2402 0
M  V30 654 C 53.8697 -2.60289 3.39755 0
M  V30 655 C 53.1957 -3.99489 3.55405 0
M  V30 656 C 54.4957 -2.16654 4.75246 0
M  V30 657 H 56.1897 -0.983573 2.82783 0
M  V30 658 H 53.7357 -0.471701 1.36055 0
M  V30 659 H 55.6887 -3.3974 2.49308 0
M  V30 660 H 54.4127 -2.98736 1.32 0
M  V30 661 H 53.0717 -1.88398 3.14487 0
M  V30 662 H 52.7197 -4.30112 2.60793 0
M  V30 663 H 52.4197 -3.96962 4.33238 0
M  V30 664 H 53.9437 -4.75528 3.83022 0
M  V30 665 H 55.3577 -2.80737 4.99859 0
M  V30 666 H 53.7547 -2.25223 5.56232 0
M  V30 667 H 54.8247 -1.11835 4.71827 0
M  V30 668 N 56.1678 -1.49265 -0.50573 0
M  V30 669 C 57.4138 -1.58748 -1.26202 0
M  V30 670 C 57.7468 -0.271227 -1.92297 0
M  V30 671 O 57.0218 0.724831 -1.80489 0
M  V30 672 C 57.3048 -2.74332 -2.33268 0
M  V30 673 C 57.1578 -4.15737 -1.71705 0
M  V30 674 C 58.4768 -2.85576 -3.34865 0
M  V30 675 H 55.5958 -0.577826 -0.457478 0
M  V30 676 H 58.2378 -1.81532 -0.560897 0
M  V30 677 H 56.3878 -2.55036 -2.93068 0
M  V30 678 H 58.0598 -4.46537 -1.15769 0
M  V30 679 H 56.3028 -4.21605 -1.02135 0
M  V30 680 H 56.9738 -4.92477 -2.49341 0
M  V30 681 H 59.4498 -3.03127 -2.8505 0
M  V30 682 H 58.3258 -3.68135 -4.07146 0
M  V30 683 H 58.5868 -1.94732 -3.96903 0
M  V30 684 N 57.6459 0.756429 -1.3826 0
M  V30 685 C 58.8919 1.51772 -1.34511 0
M  V30 686 C 59.2249 1.94089 0.0656691 0
M  V30 687 O 58.4999 1.65221 1.02626 0
M  V30 688 C 58.7829 2.77226 -2.29821 0
M  V30 689 C 58.6359 2.41065 -3.79747 0
M  V30 690 C 59.9549 3.79236 -2.23312 0
M  V30 691 H 57.0739 0.550578 -0.489931 0
M  V30 692 H 59.7159 0.866607 -1.69086 0
M  V30 693 H 57.8659 3.32784 -2.00467 0
M  V30 694 H 59.5379 1.91303 -4.19763 0
M  V30 695 H 57.7809 1.7356 -3.97567 0
M  V30 696 H 58.4519 3.3081 -4.41892 0
M  V30 697 H 60.9279 3.3321 -2.49219 0
M  V30 698 H 59.8039 4.64714 -2.92116 0
M  V30 699 H 60.0649 4.24615 -1.23102 0
M  V30 700 N 59.124 1.23083 0.984299 0
M  V30 701 C 60.054 1.03292 2.09411 0
M  V30 702 C 61.035 -0.048923 1.7003 0
M  V30 703 O 62.22 0.114967 1.93859 0
M  V30 704 C 59.35 0.619155 3.41736 0
M  V30 705 C 58.304 1.64791 3.95004 0
M  V30 706 C 57.63 1.0897 5.23478 0
M  V30 707 C 58.93 3.03999 4.24714 0
M  V30 708 H 60.624 1.96119 2.26225 0
M  V30 709 H 58.17 0.944344 1.08711 0
M  V30 710 H 60.123 0.467777 4.18796 0
M  V30 711 H 58.847 -0.344786 3.24775 0
M  V30 712 H 57.506 1.78721 3.20085 0
M  V30 713 H 57.154 0.11686 5.02864 0
M  V30 714 H 56.854 1.77704 5.60085 0
M  V30 715 H 58.378 0.950093 6.03163 0
M  V30 716 H 59.792 2.93393 4.92538 0
M  V30 717 H 58.189 3.69936 4.72512 0
M  V30 718 H 59.259 3.53285 3.32142 0
M  V30 719 N 60.6021 -1.18246 1.0419 0
M  V30 720 C 61.8481 -1.88536 0.747122 0
M  V30 721 C 62.1811 -1.80223 -0.723409 0
M  V30 722 O 61.4561 -1.20337 -1.52804 0
M  V30 723 C 61.7391 -3.38968 1.21544 0
M  V30 724 C 61.5921 -3.56084 2.74816 0
M  V30 725 C 62.9111 -4.32648 0.806482 0
M  V30 726 H 60.0301 -0.684619 0.272883 0
M  V30 727 H 62.6721 -1.39113 1.29413 0
M  V30 728 H 60.8221 -3.8119 0.750081 0
M  V30 729 H 62.4941 -3.22946 3.29399 0
M  V30 730 H 60.7371 -2.98699 3.14582 0
M  V30 731 H 61.4081 -4.61639 3.02644 0
M  V30 732 H 63.8841 -3.98211 1.20695 0
M  V30 733 H 62.7601 -5.36462 1.1619 0
M  V30 734 H 63.0211 -4.41146 -0.29029 0
M  V30 735 N 62.0802 -0.821533 -1.34494 0
M  V30 736 C 63.3102 -0.421272 -2.02259 0
M  V30 737 C 63.7182 0.977047 -1.6202 0
M  V30 738 O 63.0612 1.64348 -0.820703 0
M  V30 739 C 63.1232 -0.44231 -3.56769 0
M  V30 740 C 62.7872 -1.79372 -4.20327 0
M  V30 741 C 63.7842 -2.75435 -4.40944 0
M  V30 742 C 61.4692 -2.08182 -4.57127 0
M  V30 743 C 63.4632 -3.98482 -4.97484 0
M  V30 744 C 61.1502 -3.31489 -5.13379 0
M  V30 745 C 62.1482 -4.26457 -5.33501 0
M  V30 746 O 61.8362 -5.47585 -5.88562 0
M  V30 747 H 61.5682 -0.167473 -0.654927 0
M  V30 748 H 64.1222 -1.11073 -1.72777 0
M  V30 749 H 62.3522 0.303836 -3.85505 0
M  V30 750 H 64.0412 -0.0622925 -4.05852 0
M  V30 751 H 64.8072 -2.54473 -4.12878 0
M  V30 752 H 60.6862 -1.35066 -4.4077 0
M  V30 753 H 64.2302 -4.72618 -5.13106 0
M  V30 754 H 60.1272 -3.52316 -5.40873 0
M  V30 755 H 60.8952 -5.49086 -6.06998 0
M  V30 756 N 63.5583 1.46682 -0.576371 0
M  V30 757 C 64.8043 2.02712 -0.0596221 0
M  V30 758 C 65.1373 1.44765 1.29448 0
M  V30 759 O 64.4123 0.610355 1.84675 0
M  V30 760 C 64.6953 3.60098 0.0129503 0
M  V30 761 C 64.5483 4.28441 -1.3696 0
M  V30 762 C 65.8673 4.34224 0.71678 0
M  V30 763 H 62.9863 0.736637 -0.0231407 0
M  V30 764 H 65.6283 1.74898 -0.742351 0
M  V30 765 H 63.7783 3.83926 0.594378 0
M  V30 766 H 65.4503 4.15896 -1.9957 0
M  V30 767 H 63.6933 3.8805 -1.93907 0
M  V30 768 H 64.3643 5.3716 -1.27135 0
M  V30 769 H 66.8403 4.15503 0.222908 0
M  V30 770 H 65.7163 5.43936 0.73657 0
M  V30 771 H 65.9773 4.04823 1.77682 0
M  V30 772 N 65.0364 0.313813 1.54444 0
M  V30 773 C 66.2854 -0.292519 1.99568 0
M  V30 774 C 66.5984 -1.54011 1.20582 0
M  V30 775 O 67.8044 -2.22183 1.56035 0
M  V30 776 C 66.2604 -0.571752 3.55329 0
M  V30 777 C 65.8684 0.658229 4.43138 0
M  V30 778 C 67.6124 -1.13857 4.08946 0
M  V30 779 C 65.5194 0.351439 5.90355 0
M  V30 780 H 64.4494 -0.113079 0.745472 0
M  V30 781 H 67.1004 0.424518 1.78522 0
M  V30 782 H 65.4824 -1.34872 3.72325 0
M  V30 783 H 66.6564 1.43403 4.37918 0
M  V30 784 H 64.9714 1.14458 4.0036 0
M  V30 785 H 67.5684 -1.38257 5.16516 0
M  V30 786 H 67.9114 -2.08489 3.6033 0
M  V30 787 H 68.4444 -0.423015 3.95544 0
M  V30 788 H 65.1834 1.26667 6.43145 0
M  V30 789 H 64.7034 -0.386842 5.98551 0
M  V30 790 H 66.3824 -0.0423134 6.46986 0
M  V30 791 N 66.5145 -1.57545 0.0417849 0
M  V30 792 C 67.7625 -1.91937 -0.632829 0
M  V30 793 C 68.0835 -0.919978 -1.71934 0
M  V30 794 O 67.3535 0.0366064 -1.95866 0
M  V30 795 H 65.9335 -0.708493 -0.236742 0
M  V30 796 H 68.5955 -1.9468 0.0925745 0
M  V30 797 H 67.6915 -2.92912 -1.07746 0
M  V30 798 N 67.9926 0.231505 -1.5589 0
M  V30 799 C 69.2386 0.954429 -1.79617 0
M  V30 800 C 69.5936 1.82367 -0.613199 0
M  V30 801 O 68.8866 1.87524 0.393094 0
M  V30 802 C 69.0806 1.83577 -3.0665 0
M  V30 803 C 68.9096 1.05334 -4.3719 0
M  V30 804 C 67.6796 0.75225 -4.99669 0
M  V30 805 C 69.8776 0.423444 -5.12554 0
M  V30 806 N 67.8596 -0.052627 -6.13877 0
M  V30 807 C 69.2306 -0.245287 -6.19515 0
M  V30 808 C 71.2856 0.335466 -4.96769 0
M  V30 809 C 69.9886 -0.993566 -7.12405 0
M  V30 810 C 72.0146 -0.399321 -5.9005 0
M  V30 811 C 71.3766 -1.05663 -6.9643 0
M  V30 812 H 67.4756 0.329846 -0.709031 0
M  V30 813 H 70.0596 0.226172 -1.93382 0
M  V30 814 H 68.2306 2.53592 -2.94186 0
M  V30 815 H 69.9626 2.49541 -3.18608 0
M  V30 816 H 66.7176 1.06783 -4.61405 0
M  V30 817 H 67.1416 -0.443609 -6.75545 0
M  V30 818 H 71.7836 0.829311 -4.14587 0
M  V30 819 H 69.5016 -1.49896 -7.94076 0
M  V30 820 H 73.0876 -0.468265 -5.79913 0
M  V30 821 H 71.9676 -1.61612 -7.67366 0
M  V30 822 N 69.4707 1.49531 0.497807 0
M  V30 823 C 70.7167 1.59415 1.25358 0
M  V30 824 C 71.0497 0.281422 1.9215 0
M  V30 825 O 70.3247 -0.715249 1.80871 0
M  V30 826 C 70.6077 2.75566 2.3181 0
M  V30 827 C 70.4607 4.16642 1.69498 0
M  V30 828 C 71.7797 2.87347 3.33346 0
M  V30 829 H 68.8987 0.580244 0.454408 0
M  V30 830 H 71.5407 1.81827 0.551262 0
M  V30 831 H 69.6907 2.56587 2.91711 0
M  V30 832 H 71.3627 4.47145 1.13399 0
M  V30 833 H 69.6057 4.22141 0.998978 0
M  V30 834 H 70.2767 4.93792 2.46725 0
M  V30 835 H 72.7527 3.04634 2.83438 0
M  V30 836 H 71.6287 3.70289 4.05188 0
M  V30 837 H 71.8897 1.96834 3.95865 0
M  V30 838 N 70.9488 -0.749086 1.3866 0
M  V30 839 C 72.1958 -1.50833 1.35114 0
M  V30 840 C 72.5238 -1.94415 -0.0574049 0
M  V30 841 O 71.7788 -1.66065 -1.03541 0
M  V30 842 C 72.0778 -2.7712 2.25697 0
M  V30 843 C 71.7438 -2.52477 3.73585 0
M  V30 844 C 70.4058 -2.45466 4.13884 0
M  V30 845 C 72.7578 -2.31066 4.67181 0
M  V30 846 C 70.0858 -2.15064 5.45861 0
M  V30 847 C 72.4378 -2.02183 5.9942 0
M  V30 848 C 71.1018 -1.93631 6.38798 0
M  V30 849 H 70.3718 -0.551936 0.494416 0
M  V30 850 H 73.0188 -0.860979 1.71054 0
M  V30 851 H 71.3238 -3.46528 1.82827 0
M  V30 852 H 73.0208 -3.35096 2.20254 0
M  V30 853 H 69.6108 -2.58807 3.41638 0
M  V30 854 H 73.7948 -2.35459 4.3689 0
M  V30 855 H 69.0508 -2.06954 5.75308 0
M  V30 856 H 73.2248 -1.8462 6.71482 0
M  V30 857 H 70.8518 -1.69839 7.40985 0
M  V30 858 N 72.4269 -1.23603 -0.977757 0
M  V30 859 C 73.3569 -1.04401 -2.0886 0
M  V30 860 C 74.3379 0.0399052 -1.70053 0
M  V30 861 O 75.5229 -0.125246 -1.93796 0
M  V30 862 C 72.6529 -0.637269 -3.41403 0
M  V30 863 C 71.6069 -1.66883 -3.94124 0
M  V30 864 C 70.9329 -1.11745 -5.22893 0
M  V30 865 C 72.2329 -3.06247 -4.23096 0
M  V30 866 H 73.9269 -1.97316 -2.25182 0
M  V30 867 H 71.4729 -0.950096 -1.08209 0
M  V30 868 H 73.4259 -0.48998 -4.18542 0
M  V30 869 H 72.1499 0.327557 -3.24953 0
M  V30 870 H 70.8089 -1.80416 -3.19133 0
M  V30 871 H 70.4569 -0.143527 -5.02795 0
M  V30 872 H 70.1569 -1.80672 -5.59134 0
M  V30 873 H 71.6809 -0.982067 -6.02651 0
M  V30 874 H 73.0949 -2.96001 -4.90975 0
M  V30 875 H 71.4919 -3.72436 -4.70544 0
M  V30 876 H 72.5619 -3.55041 -3.30263 0
M  V30 877 N 73.905 1.17692 -1.04816 0
M  V30 878 C 75.135 1.91508 -0.775128 0
M  V30 879 C 75.543 1.76844 0.67253 0
M  V30 880 O 74.886 1.10057 1.47082 0
M  V30 881 C 74.948 3.43167 -1.0713 0
M  V30 882 C 74.612 3.81612 -2.51438 0
M  V30 883 C 75.609 3.84772 -3.49638 0
M  V30 884 C 73.294 4.12687 -2.86348 0
M  V30 885 C 75.288 4.18469 -4.80794 0
M  V30 886 C 72.975 4.46053 -4.17708 0
M  V30 887 C 73.973 4.48921 -5.14741 0
M  V30 888 O 73.661 4.81504 -6.43746 0
M  V30 889 H 73.393 0.614575 -0.281555 0
M  V30 890 H 75.947 1.50206 -1.40098 0
M  V30 891 H 74.177 3.84745 -0.388342 0
M  V30 892 H 75.866 3.98239 -0.784883 0
M  V30 893 H 76.632 3.60893 -3.24008 0
M  V30 894 H 72.511 4.09627 -2.11486 0
M  V30 895 H 76.055 4.20623 -5.56527 0
M  V30 896 H 71.952 4.69393 -4.43103 0
M  V30 897 H 72.72 4.99377 -6.4851 0
M  V30 898 N 75.3831 0.828654 1.34056 0
M  V30 899 C 76.2931 0.256725 2.33191 0
M  V30 900 C 77.3091 -0.611898 1.62886 0
M  V30 901 O 78.4851 -0.51844 1.94613 0
M  V30 902 C 75.5501 -0.567238 3.42028 0
M  V30 903 C 74.6111 0.324458 4.28072 0
M  V30 904 C 73.8441 -0.460274 5.31712 0
M  V30 905 O 74.0671 -1.693 5.44696 0
M  V30 906 O 73.0011 0.160391 6.01686 0
M  V30 907 H 76.8271 1.07739 2.83947 0
M  V30 908 H 74.4121 0.59093 1.37217 0
M  V30 909 H 76.2941 -1.03582 4.08471 0
M  V30 910 H 74.9691 -1.36513 2.93506 0
M  V30 911 H 73.8761 0.840659 3.64532 0
M  V30 912 H 75.2091 1.08685 4.8005 0
M  V30 913 N 76.8612 -1.46375 0.584142 0
M  V30 914 C 77.8082 -2.30323 -0.148286 0
M  V30 915 C 78.7782 -1.40703 -0.882713 0
M  V30 916 O 79.9632 -1.69651 -0.873099 0
M  V30 917 C 77.1032 -3.25196 -1.15507 0
M  V30 918 C 76.2162 -4.29915 -0.423943 0
M  V30 919 C 75.3512 -5.11914 -1.41838 0
M  V30 920 C 74.3902 -6.08381 -0.673736 0
M  V30 921 N 73.5272 -6.83242 -1.6163 0
M  V30 922 H 78.3672 -2.92427 0.573644 0
M  V30 923 H 75.9042 -1.44118 0.294703 0
M  V30 924 H 77.8622 -3.78646 -1.75166 0
M  V30 925 H 76.4922 -2.64898 -1.8447 0
M  V30 926 H 75.5442 -3.7931 0.287714 0
M  V30 927 H 76.8562 -4.98549 0.158128 0
M  V30 928 H 76.0102 -5.69648 -2.08773 0
M  V30 929 H 74.7492 -4.43243 -2.03438 0
M  V30 930 H 73.7542 -5.49799 0.00938483 0
M  V30 931 H 74.9792 -6.79071 -0.0631082 0
M  V30 932 H 72.9252 -6.1728 -2.22038 0
M  V30 933 H 72.8422 -7.48144 -1.08707 0
M  V30 934 H 74.1102 -7.45534 -2.27596 0
M  V30 935 N 78.3393 -0.321999 -1.54275 0
M  V30 936 C 79.5873 0.280489 -2.00144 0
M  V30 937 C 79.9083 1.52777 -1.21178 0
M  V30 938 O 79.1783 1.9338 -0.313187 0
M  V30 939 H 77.7583 0.106632 -0.73935 0
M  V30 940 H 80.4203 -0.438184 -1.8991 0
M  V30 941 H 79.5163 0.537972 -3.07428 0
M  V30 942 N 79.8174 1.5752 -0.0501392 0
M  V30 943 C 81.0474 1.96678 0.632573 0
M  V30 944 C 81.4554 0.926298 1.64974 0
M  V30 945 O 80.7984 -0.09802 1.83438 0
M  V30 946 C 80.8604 3.32068 1.37735 0
M  V30 947 C 80.5244 4.54076 0.516131 0
M  V30 948 C 81.5214 5.19445 -0.217357 0
M  V30 949 C 79.2064 5.00304 0.44736 0
M  V30 950 C 81.2004 6.29378 -1.00807 0
M  V30 951 C 78.8874 6.10114 -0.347038 0
M  V30 952 C 79.8854 6.74512 -1.07344 0
M  V30 953 O 79.5734 7.82211 -1.85477 0
M  V30 954 H 79.3054 0.652193 0.177821 0
M  V30 955 H 81.8594 2.05091 -0.112543 0
M  V30 956 H 80.0894 3.20206 2.16807 0
M  V30 957 H 81.7784 3.55981 1.95019 0
M  V30 958 H 82.5444 4.84689 -0.173688 0
M  V30 959 H 78.4234 4.49971 1.00235 0
M  V30 960 H 81.9674 6.79575 -1.57556 0
M  V30 961 H 77.8644 6.44307 -0.392349 0
M  V30 962 H 78.6324 7.98982 -1.77678 0
M  V30 963 N 81.2955 -0.223234 1.56011 0
M  V30 964 C 82.2275 -1.30006 1.88762 0
M  V30 965 C 83.2405 -1.43129 0.775746 0
M  V30 966 O 84.4295 -1.44057 1.05403 0
M  V30 967 C 81.5295 -2.67589 2.07965 0
M  V30 968 C 80.7025 -2.76434 3.38973 0
M  V30 969 C 79.7615 -3.95019 3.47629 0
M  V30 970 O 78.7875 -3.83436 4.20672 0
M  V30 971 N 79.9895 -5.09249 2.78649 0
M  V30 972 H 82.7545 -1.02238 2.81722 0
M  V30 973 H 80.3155 -0.413278 1.56536 0
M  V30 974 H 82.3075 -3.45297 2.11073 0
M  V30 975 H 80.8775 -2.87964 1.21638 0
M  V30 976 H 80.0975 -1.85216 3.47978 0
M  V30 977 H 81.3855 -2.79313 4.25278 0
M  V30 978 H 80.7835 -5.21556 2.19081 0
M  V30 979 H 79.3405 -5.85007 2.8742 0
M  V30 980 N 82.7736 -1.49793 -0.48987 0
M  V30 981 C 84.0016 -1.63568 -1.26701 0
M  V30 982 C 84.4166 -0.311465 -1.86213 0
M  V30 983 O 83.7736 0.704416 -1.68357 0
M  V30 984 C 83.8246 -2.71284 -2.38929 0
M  V30 985 O 83.5456 -3.9857 -1.81861 0
M  V30 986 C 85.0466 -2.95864 -3.3012 0
M  V30 987 H 82.2666 -0.550342 -0.383881 0
M  V30 988 H 84.8106 -1.95898 -0.586864 0
M  V30 989 H 82.9656 -2.417 -3.02753 0
M  V30 990 H 83.3796 -4.57993 -2.55622 0
M  V30 991 H 84.8536 -3.74941 -4.05121 0
M  V30 992 H 85.3306 -2.06206 -3.87783 0
M  V30 993 H 85.9366 -3.26907 -2.72051 0
M  V30 994 N 84.2517 0.741722 -1.39055 0
M  V30 995 C 85.4767 1.53607 -1.39354 0
M  V30 996 C 85.9017 1.88096 0.0116905 0
M  V30 997 O 85.2597 1.5143 0.996924 0
M  V30 998 C 85.3077 2.80441 -2.26682 0
M  V30 999 O 84.4117 3.76088 -1.69208 0
M  V30 1000 H 83.7527 0.464142 -0.474835 0
M  V30 1001 H 86.2827 0.915665 -1.82967 0
M  V30 1002 H 86.2927 3.29246 -2.40959 0
M  V30 1003 H 84.9677 2.5467 -3.2881 0
M  V30 1004 H 83.5447 3.34833 -1.64138 0
M  V30 1005 N 85.7298 1.2412 0.971189 0
M  V30 1006 C 86.9548 1.10667 1.75407 0
M  V30 1007 C 87.3798 -0.337048 1.85056 0
M  V30 1008 O 86.7378 -1.24396 1.31892 0
M  V30 1009 C 86.7858 1.74726 3.15441 0
M  V30 1010 O 85.8898 1.01566 3.99697 0
M  V30 1011 H 85.2308 0.387341 0.539317 0
M  V30 1012 H 87.7608 1.64358 1.2185 0
M  V30 1013 H 87.7708 1.80341 3.6598 0
M  V30 1014 H 86.4458 2.79773 3.07734 0
M  V30 1015 H 85.0228 1.03713 3.58187 0
M  V30 1016 N 87.2079 -1.17134 1.05439 0
M  V30 1017 C 88.4559 -1.87085 0.764429 0
M  V30 1018 C 88.7769 -1.81584 -0.710787 0
M  V30 1019 O 88.0469 -1.24349 -1.51374 0
M  V30 1020 H 86.6269 -0.692627 0.279779 0
M  V30 1021 H 89.2889 -1.42087 1.33406 0
M  V30 1022 H 88.3849 -2.92759 1.0816 0
M  V30 1023 N 88.686 -0.835752 -1.33615 0
M  V30 1024 C 89.616 -0.281739 -2.31794 0
M  V30 1025 C 90.597 0.608833 -1.58831 0
M  V30 1026 O 91.782 0.533035 -1.86741 0
M  V30 1027 C 88.912 0.546612 -3.42971 0
M  V30 1028 C 87.866 -0.247904 -4.27281 0
M  V30 1029 C 87.192 0.704001 -5.30045 0
M  V30 1030 C 88.492 -1.46324 -5.01385 0
M  V30 1031 H 90.186 -1.10206 -2.78379 0
M  V30 1032 H 87.732 -0.531388 -1.33837 0
M  V30 1033 H 89.685 0.944467 -4.1068 0
M  V30 1034 H 88.409 1.40011 -2.95067 0
M  V30 1035 H 87.068 -0.627281 -3.61194 0
M  V30 1036 H 86.716 1.55381 -4.78399 0
M  V30 1037 H 86.416 0.176524 -5.87335 0
M  V30 1038 H 87.94 1.09944 -6.0062 0
M  V30 1039 H 89.354 -1.13871 -5.61877 0
M  V30 1040 H 87.751 -1.92728 -5.6831 0
M  V30 1041 H 88.821 -2.23467 -4.30338 0
M  V30 1042 N 90.1641 1.46063 -0.591896 0
M  V30 1043 C 91.4131 2.01547 -0.0786637 0
M  V30 1044 C 91.7261 1.46796 1.29268 0
M  V30 1045 O 92.9321 1.94157 1.89777 0
M  V30 1046 C 91.3881 3.59787 -0.0900024 0
M  V30 1047 C 90.9961 4.23534 -1.46023 0
M  V30 1048 C 92.7401 4.22895 0.368806 0
M  V30 1049 C 90.6471 5.73881 -1.4288 0
M  V30 1050 H 89.5771 0.753564 -0.0256388 0
M  V30 1051 H 92.2281 1.677 -0.744905 0
M  V30 1052 H 90.6101 3.90752 0.642586 0
M  V30 1053 H 91.7841 4.04167 -2.21328 0
M  V30 1054 H 90.0991 3.72558 -1.85982 0
M  V30 1055 H 92.6961 5.33116 0.411258 0
M  V30 1056 H 93.0391 3.9247 1.38827 0
M  V30 1057 H 93.5721 3.9659 -0.31001 0
M  V30 1058 H 90.3111 6.0898 -2.42536 0
M  V30 1059 H 89.8311 5.95486 -0.718095 0
M  V30 1060 H 91.5101 6.36776 -1.14565 0
M  V30 1061 N 91.6422 0.330177 1.54103 0
M  V30 1062 C 92.8672 -0.274893 2.0557 0
M  V30 1063 C 93.2922 -1.44487 1.20437 0
M  V30 1064 O 92.6502 -1.80021 0.214991 0
M  V30 1065 C 92.6982 -0.68079 3.54115 0
M  V30 1066 O 91.8022 -1.7824 3.71893 0
M  V30 1067 H 91.1432 -0.0483849 0.662235 0
M  V30 1068 H 93.6732 0.480508 1.98878 0
M  V30 1069 H 93.6832 -0.961635 3.96505 0
M  V30 1070 H 92.3582 0.174903 4.15532 0
M  V30 1071 H 90.9352 -1.49985 3.41407 0
M  V30 1072 N 93.1203 -1.57491 0.0584922 0
M  V30 1073 C 94.3453 -1.97711 -0.62652 0
M  V30 1074 C 94.7703 -0.936132 -1.63151 0
M  V30 1075 O 94.1283 0.099811 -1.81025 0
M  V30 1076 C 94.1763 -3.36989 -1.28338 0
M  V30 1077 O 93.2803 -3.35433 -2.39913 0
M  V30 1078 H 92.6213 -0.643868 -0.162266 0
M  V30 1079 H 95.1513 -2.04193 0.129064 0
M  V30 1080 H 95.1613 -3.73879 -1.63335 0
M  V30 1081 H 93.8363 -4.12289 -0.546889 0
M  V30 1082 H 92.4133 -3.10298 -2.06809 0
M  V30 1083 N 94.5984 0.214957 -1.56127 0
M  V30 1084 C 95.8444 0.939762 -1.79712 0
M  V30 1085 C 96.1774 1.83723 -0.629247 0
M  V30 1086 O 95.4524 1.90925 0.371197 0
M  V30 1087 C 95.7354 1.77306 -3.13424 0
M  V30 1088 C 95.5884 0.90164 -4.40671 0
M  V30 1089 C 96.9074 2.74956 -3.43638 0
M  V30 1090 H 94.0264 0.340214 -0.653776 0
M  V30 1091 H 96.6684 0.20824 -1.88855 0
M  V30 1092 H 94.8184 2.39673 -3.0576 0
M  V30 1093 H 96.4904 0.294206 -4.60361 0
M  V30 1094 H 94.7334 0.207368 -4.33304 0
M  V30 1095 H 95.4044 1.51923 -5.30682 0
M  V30 1096 H 97.8804 2.22724 -3.51473 0
M  V30 1097 H 96.7564 3.30358 -4.38355 0
M  V30 1098 H 97.0174 3.53023 -2.66134 0
M  V30 1099 N 96.0765 1.50051 0.48192 0
M  V30 1100 C 97.3015 1.64508 1.26301 0
M  V30 1101 C 97.7265 0.323851 1.85291 0
M  V30 1102 O 97.0845 -0.710969 1.66778 0
M  V30 1103 C 97.1325 2.7305 2.35533 0
M  V30 1104 O 96.2365 2.3355 3.39895 0
M  V30 1105 H 95.5775 0.549978 0.372048 0
M  V30 1106 H 98.1075 1.9636 0.574786 0
M  V30 1107 H 98.1175 2.95799 2.8101 0
M  V30 1108 H 96.7925 3.68946 1.91967 0
M  V30 1109 H 95.3695 2.21205 3.00204 0
M  V30 1110 N 97.5546 -0.734337 1.39446 0
M  V30 1111 C 98.8006 -1.49613 1.36908 0
M  V30 1112 C 99.1336 -1.94169 -0.0347829 0
M  V30 1113 O 98.4086 -1.66833 -0.999847 0
M  V30 1114 C 98.6916 -2.73534 2.34203 0
M  V30 1115 C 98.5446 -2.34993 3.83534 0
M  V30 1116 C 99.8636 -3.75635 2.29317 0
M  V30 1117 H 96.9826 -0.542714 0.498629 0
M  V30 1118 H 99.6246 -0.839597 1.70443 0
M  V30 1119 H 97.7746 -3.29553 2.05736 0
M  V30 1120 H 99.4466 -1.84601 4.22753 0
M  V30 1121 H 97.6896 -1.67213 4.00278 0
M  V30 1122 H 98.3606 -3.23738 4.47099 0
M  V30 1123 H 100.837 -3.29203 2.54489 0
M  V30 1124 H 99.7126 -4.60008 2.99472 0
M  V30 1125 H 99.9736 -4.22603 1.29842 0
M  V30 1126 N 99.0327 -1.24633 -0.964593 0
M  V30 1127 C 99.9797 -1.04144 -2.05968 0
M  V30 1128 C 100.95 0.046262 -1.66036 0
M  V30 1129 O 102.135 -0.108972 -1.90489 0
M  V30 1130 C 99.2747 -0.65563 -3.38815 0
M  V30 1131 C 98.3877 -1.81714 -3.91923 0
M  V30 1132 C 97.5227 -1.37662 -5.13052 0
M  V30 1133 C 96.5617 -2.50788 -5.58365 0
M  V30 1134 N 95.6987 -2.07582 -6.70712 0
M  V30 1135 H 100.539 -1.9787 -2.22827 0
M  V30 1136 H 98.0757 -0.9855 -1.09208 0
M  V30 1137 H 100.034 -0.412954 -4.15151 0
M  V30 1138 H 98.6637 0.244627 -3.21872 0
M  V30 1139 H 97.7157 -2.1734 -3.12198 0
M  V30 1140 H 99.0277 -2.66705 -4.21509 0
M  V30 1141 H 98.1817 -1.093 -5.96773 0
M  V30 1142 H 96.9207 -0.497293 -4.85158 0
M  V30 1143 H 95.9257 -2.79906 -4.73215 0
M  V30 1144 H 97.1507 -3.39283 -5.88272 0
M  V30 1145 H 95.0967 -1.22051 -6.44546 0
M  V30 1146 H 95.0137 -2.86125 -6.99763 0
M  V30 1147 H 96.2817 -1.82369 -7.57867 0
M  V30 1148 N 100.511 1.16574 -1.06058 0
M  V30 1149 C 101.441 2.23057 -0.690488 0
M  V30 1150 C 102.422 1.67141 0.315901 0
M  V30 1151 O 103.607 1.93253 0.191556 0
M  V30 1152 C 100.737 3.47222 -0.073625 0
M  V30 1153 C 99.6908 4.16016 -1.00573 0
M  V30 1154 C 99.0168 5.34104 -0.252289 0
M  V30 1155 C 100.317 4.67264 -2.33371 0
M  V30 1156 H 102.011 2.54271 -1.58072 0
M  V30 1157 H 99.5568 1.22218 -0.76149 0
M  V30 1158 H 101.51 4.20939 0.19714 0
M  V30 1159 H 100.234 3.15302 0.85161 0
M  V30 1160 H 98.8928 3.44223 -1.2612 0
M  V30 1161 H 98.5408 4.98437 0.675988 0
M  V30 1162 H 98.2408 5.81072 -0.873455 0
M  V30 1163 H 99.7648 6.10599 0.0109857 0
M  V30 1164 H 101.179 5.32573 -2.12223 0
M  V30 1165 H 99.5758 5.24843 -2.90963 0
M  V30 1166 H 100.646 3.83602 -2.96611 0
M  V30 1167 N 101.989 0.842826 1.3317 0
M  V30 1168 C 102.936 0.276885 2.29133 0
M  V30 1169 C 103.906 -0.609527 1.54512 0
M  V30 1170 O 105.091 -0.546955 1.82792 0
M  V30 1171 C 102.231 -0.538707 3.40869 0
M  V30 1172 C 101.344 0.372169 4.30394 0
M  V30 1173 C 100.479 -0.454908 5.29249 0
M  V30 1174 C 99.5179 0.45411 6.10413 0
M  V30 1175 N 98.6549 -0.335075 7.013 0
M  V30 1176 H 103.495 1.10052 2.76934 0
M  V30 1177 H 101.032 0.554161 1.36262 0
M  V30 1178 H 102.99 -1.02709 4.0436 0
M  V30 1179 H 101.62 -1.32727 2.9425 0
M  V30 1180 H 100.672 0.97888 3.6759 0
M  V30 1181 H 101.984 1.0703 4.87182 0
M  V30 1182 H 101.138 -1.00695 5.98285 0
M  V30 1183 H 99.8769 -1.18646 4.73048 0
M  V30 1184 H 98.8819 1.01813 5.40291 0
M  V30 1185 H 100.107 1.18409 6.68697 0
M  V30 1186 H 98.0529 -1.04994 6.47543 0
M  V30 1187 H 97.9699 0.304262 7.55387 0
M  V30 1188 H 99.2379 -0.869224 7.74638 0
M  V30 1189 N 103.467 -1.45747 0.599634 0
M  V30 1190 C 104.715 -2.01893 0.0915472 0
M  V30 1191 C 105.036 -1.47155 -1.27946 0
M  V30 1192 O 104.306 -0.66273 -1.84349 0
M  V30 1193 H 102.886 -0.746363 0.0308524 0
M  V30 1194 H 105.548 -1.78645 0.779237 0
M  V30 1195 H 104.644 -3.1208 0.0353086 0
M  V30 1196 N 104.945 -0.338344 -1.53925 0
M  V30 1197 C 105.875 0.51328 -2.27789 0
M  V30 1198 C 106.856 1.107 -1.29149 0
M  V30 1199 O 108.041 1.12937 -1.57984 0
M  V30 1200 C 105.171 1.66697 -3.04679 0
M  V30 1201 C 104.125 1.20183 -4.1078 0
M  V30 1202 C 103.451 2.44363 -4.75595 0
M  V30 1203 C 104.751 0.30605 -5.21403 0
M  V30 1204 H 106.445 -0.102883 -2.99223 0
M  V30 1205 H 103.991 -0.0509219 -1.4391 0
M  V30 1206 H 105.944 2.26915 -3.55088 0
M  V30 1207 H 104.668 2.30995 -2.30887 0
M  V30 1208 H 103.327 0.622499 -3.61276 0
M  V30 1209 H 102.975 3.07057 -3.98403 0
M  V30 1210 H 102.675 2.13925 -5.47275 0
M  V30 1211 H 104.199 3.05317 -5.28786 0
M  V30 1212 H 105.613 0.814929 -5.67478 0
M  V30 1213 H 104.01 0.0937929 -6.00027 0
M  V30 1214 H 105.08 -0.65921 -4.80398 0
M  V30 1215 N 106.423 1.57458 -0.0668435 0
M  V30 1216 C 107.386 2.11323 0.887422 0
M  V30 1217 C 108.386 1.03618 1.22964 0
M  V30 1218 O 109.576 1.29626 1.16373 0
M  V30 1219 C 106.708 2.61048 2.19242 0
M  V30 1220 H 107.901 2.96942 0.420194 0
M  V30 1221 H 105.454 1.55239 0.181793 0
M  V30 1222 H 106.189 1.78868 2.70512 0
M  V30 1223 H 105.974 3.39769 1.95702 0
M  V30 1224 H 107.464 3.02814 2.87565 0
M  V30 1225 N 107.901 -0.206675 1.56239 0
M  V30 1226 C 109.147 -0.930218 1.80208 0
M  V30 1227 C 109.48 -1.83387 0.638981 0
M  V30 1228 O 108.755 -1.91119 -0.361066 0
M  V30 1229 C 109.038 -1.75641 3.1436 0
M  V30 1230 C 108.891 -0.878257 4.41142 0
M  V30 1231 C 110.21 -2.73129 3.45092 0
M  V30 1232 H 107.329 -0.336742 0.655571 0
M  V30 1233 H 109.971 -0.198222 1.88963 0
M  V30 1234 H 108.121 -2.38048 3.07027 0
M  V30 1235 H 109.793 -0.269787 4.6051 0
M  V30 1236 H 108.036 -0.184385 4.33408 0
M  V30 1237 H 108.707 -1.49106 5.3148 0
M  V30 1238 H 111.183 -2.20856 3.52649 0
M  V30 1239 H 110.059 -3.28028 4.40101 0
M  V30 1240 H 110.32 -3.51606 2.68003 0
M  V30 1241 N 109.379 -1.50304 -0.473955 0
M  V30 1242 C 110.607 -1.64902 -1.24959 0
M  V30 1243 C 111.022 -0.331198 -1.85872 0
M  V30 1244 O 110.379 0.68652 -1.69095 0
M  V30 1245 C 110.43 -2.73803 -2.36038 0
M  V30 1246 O 110.151 -4.00477 -1.77624 0
M  V30 1247 C 111.652 -2.99349 -3.26964 0
M  V30 1248 H 108.872 -0.554383 -0.378022 0
M  V30 1249 H 111.416 -1.9651 -0.566054 0
M  V30 1250 H 109.571 -2.44898 -3.00173 0
M  V30 1251 H 109.985 -4.60678 -2.5075 0
M  V30 1252 H 111.459 -3.79217 -4.01121 0
M  V30 1253 H 111.936 -2.10307 -3.85574 0
M  V30 1254 H 112.542 -3.29774 -2.68569 0
M  V30 1255 N 110.857 0.726932 -1.39834 0
M  V30 1256 C 111.789 1.85147 -1.35104 0
M  V30 1257 C 112.802 1.60736 -0.258392 0
M  V30 1258 O 113.991 1.70821 -0.517931 0
M  V30 1259 C 111.091 3.21332 -1.07697 0
M  V30 1260 C 110.264 3.73033 -2.28396 0
M  V30 1261 C 109.323 4.87802 -1.97322 0
M  V30 1262 O 108.349 5.01043 -2.70083 0
M  V30 1263 N 109.551 5.72768 -0.944273 0
M  V30 1264 H 112.316 1.89706 -2.32017 0
M  V30 1265 H 109.877 0.908006 -1.3404 0
M  V30 1266 H 111.869 3.95691 -0.849144 0
M  V30 1267 H 110.439 3.11992 -0.194909 0
M  V30 1268 H 109.659 2.89934 -2.6708 0
M  V30 1269 H 110.947 4.0431 -3.08887 0
M  V30 1270 H 110.345 5.64669 -0.341427 0
M  V30 1271 H 108.902 6.4716 -0.776346 0
M  V30 1272 N 112.336 1.25143 0.95797 0
M  V30 1273 C 113.266 1.07711 2.07173 0
M  V30 1274 C 114.247 -0.0128462 1.70095 0
M  V30 1275 O 115.432 0.156061 1.93572 0
M  V30 1276 C 112.562 0.691503 3.40346 0
M  V30 1277 C 111.516 1.73132 3.9142 0
M  V30 1278 C 110.842 1.20049 5.21049 0
M  V30 1279 C 112.142 3.1294 4.1817 0
M  V30 1280 H 113.836 2.00873 2.22014 0
M  V30 1281 H 111.382 0.967191 1.06684 0
M  V30 1282 H 113.335 0.556505 4.17709 0
M  V30 1283 H 112.059 -0.275819 3.25433 0
M  V30 1284 H 110.718 1.8547 3.16222 0
M  V30 1285 H 110.366 0.223499 5.02503 0
M  V30 1286 H 110.066 1.89545 5.56189 0
M  V30 1287 H 111.59 1.07782 6.01012 0
M  V30 1288 H 113.004 3.03775 4.86203 0
M  V30 1289 H 111.401 3.79875 4.64559 0
M  V30 1290 H 112.471 3.6025 3.24573 0
M  V30 1291 N 113.814 -1.1601 1.06675 0
M  V30 1292 C 115.225 -1.68235 0.809565 0
M  V30 1293 C 115.576 -1.8454 -0.666303 0
M  V30 1294 O 114.701 -1.54374 -1.5165 0
M  V30 1295 C 115.296 -3.05585 1.46299 0
M  V30 1296 C 113.855 -3.54915 1.25349 0
M  V30 1297 C 113.002 -2.30804 1.53703 0
M  V30 1298 H 115.953 -1.00318 1.22971 0
M  V30 1299 H 115.974 -3.70174 0.880431 0
M  V30 1300 H 115.486 -2.93686 2.53713 0
M  V30 1301 H 113.587 -3.72067 0.199261 0
M  V30 1302 H 113.7 -4.36774 1.9689 0
M  V30 1303 H 112.064 -2.36007 0.957739 0
M  V30 1304 H 112.847 -2.21499 2.62284 0
M  V30 1305 N 115.292 -0.849877 -1.32721 0
M  V30 1306 C 116.54 -0.450032 -1.97026 0
M  V30 1307 C 116.861 0.996604 -1.67609 0
M  V30 1308 O 116.131 1.6958 -0.980786 0
M  V30 1309 H 114.711 -0.163426 -0.728904 0
M  V30 1310 H 117.373 -1.08526 -1.6189 0
M  V30 1311 H 116.469 -0.591146 -3.0645 0
M  V30 1312 N 116.77 1.45427 -0.607355 0
M  V30 1313 C 117.7 2.3329 0.0989352 0
M  V30 1314 C 118.681 1.46816 0.859007 0
M  V30 1315 O 119.866 1.75588 0.829604 0
M  V30 1316 C 116.996 3.29518 1.09705 0
M  V30 1317 C 115.95 4.25626 0.450206 0
M  V30 1318 C 115.276 5.11542 1.55655 0
M  V30 1319 C 116.576 5.18505 -0.628455 0
M  V30 1320 H 118.27 2.92595 -0.634716 0
M  V30 1321 H 115.816 1.40696 -0.306681 0
M  V30 1322 H 117.769 3.89855 1.59971 0
M  V30 1323 H 116.493 2.68372 1.86129 0
M  V30 1324 H 115.152 3.66586 -0.0315886 0
M  V30 1325 H 114.8 4.46765 2.31107 0
M  V30 1326 H 114.5 5.76647 1.12925 0
M  V30 1327 H 116.024 5.74748 2.06148 0
M  V30 1328 H 117.438 5.72916 -0.209877 0
M  V30 1329 H 115.835 5.92085 -0.977489 0
M  V30 1330 H 116.905 4.60948 -1.50514 0
M  V30 1331 N 118.248 0.346503 1.53744 0
M  V30 1332 C 119.496 -0.248612 2.00565 0
M  V30 1333 C 119.817 -1.5083 1.23593 0
M  V30 1334 O 119.087 -1.92858 0.343912 0
M  V30 1335 H 117.667 -0.0948564 0.740953 0
M  V30 1336 H 120.329 0.468341 1.89189 0
M  V30 1337 H 119.425 -0.488994 3.08245 0
M  V30 1338 N 119.726 -1.57421 0.075193 0
M  V30 1339 C 121.137 -1.81021 -0.456964 0
M  V30 1340 C 121.488 -0.98936 -1.69429 0
M  V30 1341 O 120.613 -0.212865 -2.15351 0
M  V30 1342 C 121.208 -3.28329 -0.83581 0
M  V30 1343 C 119.767 -3.52764 -1.31281 0
M  V30 1344 C 118.914 -2.75676 -0.299648 0
M  V30 1345 H 121.865 -1.55822 0.300856 0
M  V30 1346 H 121.886 -3.40564 -1.69696 0
M  V30 1347 H 121.398 -3.88046 0.0649238 0
M  V30 1348 H 119.499 -2.98355 -2.23193 0
M  V30 1349 H 119.612 -4.61451 -1.28839 0
M  V30 1350 H 117.976 -2.42538 -0.777641 0
M  V30 1351 H 118.759 -3.38132 0.593417 0
M  V30 1352 N 121.204 0.198386 -1.56346 0
M  V30 1353 C 122.136 1.26987 -1.90806 0
M  V30 1354 C 123.149 1.41877 -0.798419 0
M  V30 1355 O 124.338 1.42362 -1.07682 0
M  V30 1356 C 121.438 2.64246 -2.12196 0
M  V30 1357 C 120.611 2.71007 -3.43328 0
M  V30 1358 C 119.67 3.89439 -3.5387 0
M  V30 1359 O 118.696 3.76695 -4.26719 0
M  V30 1360 N 119.898 5.04752 -2.86715 0
M  V30 1361 H 122.663 0.977433 -2.83313 0
M  V30 1362 H 120.224 0.388322 -1.57174 0
M  V30 1363 H 122.216 3.41896 -2.1654 0
M  V30 1364 H 120.786 2.85992 -1.26204 0
M  V30 1365 H 120.006 1.79657 -3.50881 0
M  V30 1366 H 121.294 2.72512 -4.29668 0
M  V30 1367 H 120.692 5.18004 -2.2735 0
M  V30 1368 H 119.249 5.8036 -2.96691 0
M  V30 1369 N 122.682 1.50554 0.465978 0
M  V30 1370 C 123.928 1.62038 1.21949 0
M  V30 1371 C 124.261 0.322116 1.9151 0
M  V30 1372 O 123.536 -0.676723 1.82348 0
M  V30 1373 C 123.819 2.80421 2.25912 0
M  V30 1374 C 123.672 4.20144 1.60622 0
M  V30 1375 C 124.991 2.94354 3.27176 0
M  V30 1376 H 122.11 0.589752 0.441998 0
M  V30 1377 H 124.752 1.82956 0.51257 0
M  V30 1378 H 122.902 2.62717 2.86203 0
M  V30 1379 H 124.574 4.49449 1.03889 0
M  V30 1380 H 122.817 4.24165 0.909211 0
M  V30 1381 H 123.488 4.98914 2.36196 0
M  V30 1382 H 125.964 3.10578 2.76913 0
M  V30 1383 H 124.84 3.788 3.97242 0
M  V30 1384 H 125.101 2.05186 3.916 0
M  V30 1385 N 124.16 -0.719506 1.40217 0
M  V30 1386 C 125.406 -1.48034 1.39491 0
M  V30 1387 C 125.761 -1.92399 -0.00443536 0
M  V30 1388 O 125.054 -1.64993 -0.974061 0
M  V30 1389 C 125.248 -2.72271 2.31524 0
M  V30 1390 C 125.077 -2.40055 3.80268 0
M  V30 1391 C 123.847 -2.31588 4.49105 0
M  V30 1392 C 126.045 -2.04581 4.71859 0
M  V30 1393 N 124.027 -1.92006 5.83101 0
M  V30 1394 C 125.398 -1.75568 5.94623 0
M  V30 1395 C 127.453 -1.91183 4.59732 0
M  V30 1396 C 126.156 -1.34505 7.06612 0
M  V30 1397 C 128.182 -1.51524 5.71659 0
M  V30 1398 C 127.544 -1.23406 6.93506 0
M  V30 1399 H 123.643 -0.539927 0.565688 0
M  V30 1400 H 126.227 -0.834764 1.75897 0
M  V30 1401 H 124.398 -3.34584 1.97251 0
M  V30 1402 H 126.13 -3.38584 2.21682 0
M  V30 1403 H 122.885 -2.49199 4.02737 0
M  V30 1404 H 123.309 -1.74764 6.54054 0
M  V30 1405 H 127.951 -2.11584 3.66049 0
M  V30 1406 H 125.669 -1.12846 8.00182 0
M  V30 1407 H 129.255 -1.41741 5.6427 0
M  V30 1408 H 128.135 -0.931788 7.78645 0
M  V30 1409 N 125.638 -1.25649 -0.95132 0
M  V30 1410 C 126.915 -1.01361 -1.67288 0
M  V30 1411 C 127.295 0.459135 -2.06046 0
M  V30 1412 O 126.643 1.43723 -1.7764 0
M  V30 1413 C 126.853 -1.95256 -2.89268 0
M  V30 1414 C 128.201 -2.23289 -3.61147 0
M  V30 1415 O 129.225 -1.93041 -2.99355 0
M  V30 1416 O 128.084 -2.74741 -4.72419 0
M  V30 1417 H 125.178 -0.38464 -0.732107 0
M  V30 1418 H 127.724 -1.36817 -1.00395 0
M  V30 1419 H 126.496 -2.94685 -2.57442 0
M  V30 1420 H 126.119 -1.60218 -3.6389 0
M  V30 1421 N 127.117 1.15442 -1.07289 0
M  V30 1422 C 128.363 1.86489 -0.796846 0
M  V30 1423 C 128.696 1.82078 0.675371 0
M  V30 1424 O 127.971 1.24346 1.4956 0
M  V30 1425 C 128.254 3.35626 -1.30489 0
M  V30 1426 C 128.107 3.48673 -2.84161 0
M  V30 1427 C 129.426 4.30357 -0.920907 0
M  V30 1428 H 126.545 0.677144 -0.290939 0
M  V30 1429 H 129.187 1.35633 -1.33056 0
M  V30 1430 H 127.337 3.79068 -0.850883 0
M  V30 1431 H 129.009 3.14099 -3.37846 0
M  V30 1432 H 127.252 2.90253 -3.22391 0
M  V30 1433 H 127.923 4.53453 -3.14777 0
M  V30 1434 H 130.399 3.94871 -1.3121 0
M  V30 1435 H 129.275 5.33193 -1.30372 0
M  V30 1436 H 129.536 4.4176 0.173226 0
M  V30 1437 N 128.595 0.856903 1.32268 0
M  V30 1438 C 129.558 0.308171 2.27119 0
M  V30 1439 C 130.558 -0.533421 1.51695 0
M  V30 1440 O 131.748 -0.344607 1.70757 0
M  V30 1441 C 128.88 -0.563757 3.36206 0
M  V30 1442 H 130.073 1.14535 2.77167 0
M  V30 1443 H 127.626 0.631421 1.42978 0
M  V30 1444 H 128.361 -1.42266 2.91429 0
M  V30 1445 H 128.146 0.0386749 3.92081 0
M  V30 1446 H 129.636 -0.940386 4.06874 0
M  V30 1447 N 130.073 -1.45103 0.615059 0
M  V30 1448 C 131.35 -1.95549 0.0448276 0
M  V30 1449 C 131.73 -1.55737 -1.4251 0
M  V30 1450 O 131.078 -0.823556 -2.13143 0
M  V30 1451 C 131.288 -3.48098 0.250785 0
M  V30 1452 C 132.636 -4.24384 0.135509 0
M  V30 1453 O 133.66 -3.55738 0.181299 0
M  V30 1454 O 132.519 -5.46493 0.0268878 0
M  V30 1455 H 129.613 -0.8264 -0.0314845 0
M  V30 1456 H 132.159 -1.55232 0.685642 0
M  V30 1457 H 130.931 -3.7007 1.27139 0
M  V30 1458 H 130.554 -3.95323 -0.424937 0
M  V30 1459 N 131.551 -0.354651 -1.53558 0
M  V30 1460 C 132.781 0.239167 -2.05211 0
M  V30 1461 C 133.189 1.43879 -1.22863 0
M  V30 1462 O 132.532 1.81857 -0.259565 0
M  V30 1463 C 132.594 0.707251 -3.52474 0
M  V30 1464 C 132.258 -0.374212 -4.55465 0
M  V30 1465 C 133.255 -1.22054 -5.0537 0
M  V30 1466 C 130.94 -0.531323 -4.99482 0
M  V30 1467 C 132.934 -2.20942 -5.97882 0
M  V30 1468 C 130.621 -1.52358 -5.91802 0
M  V30 1469 C 131.619 -2.36108 -6.40892 0
M  V30 1470 O 131.307 -3.33643 -7.31394 0
M  V30 1471 H 131.039 0.0479716 -0.674296 0
M  V30 1472 H 133.593 -0.508121 -1.99016 0
M  V30 1473 H 131.823 1.50596 -3.56171 0
M  V30 1474 H 133.512 1.22285 -3.87042 0
M  V30 1475 H 134.278 -1.1103 -4.7212 0
M  V30 1476 H 130.157 0.110738 -4.60867 0
M  V30 1477 H 133.701 -2.86348 -6.36121 0
M  V30 1478 H 129.598 -1.63434 -6.24467 0
M  V30 1479 H 130.366 -3.29244 -7.4936 0
M  V30 1480 N 133.029 1.57378 -0.0835403 0
M  V30 1481 C 134.275 1.94217 0.583733 0
M  V30 1482 C 134.608 0.964653 1.68547 0
M  V30 1483 O 133.883 -0.00422258 1.945 0
M  V30 1484 C 134.166 3.41253 1.14972 0
M  V30 1485 C 134.019 4.49768 0.0538277 0
M  V30 1486 C 135.338 3.89352 2.05166 0
M  V30 1487 H 132.457 0.706233 0.210724 0
M  V30 1488 H 135.099 1.89392 -0.1519 0
M  V30 1489 H 133.249 3.45496 1.77665 0
M  V30 1490 H 134.921 4.57641 -0.579851 0
M  V30 1491 H 133.164 4.29432 -0.614068 0
M  V30 1492 H 133.835 5.49817 0.490452 0
M  V30 1493 H 136.311 3.87189 1.52393 0
M  V30 1494 H 135.187 4.92822 2.41698 0
M  V30 1495 H 135.448 3.27973 2.96456 0
M  V30 1496 N 134.507 -0.190092 1.56449 0
M  V30 1497 C 135.754 -0.909705 1.80916 0
M  V30 1498 C 136.082 -1.83047 0.657583 0
M  V30 1499 O 135.337 -1.92428 -0.356356 0
M  V30 1500 C 135.636 -1.75382 3.1141 0
M  V30 1501 C 135.302 -0.983606 4.40041 0
M  V30 1502 C 133.964 -0.770967 4.74984 0
M  V30 1503 C 136.316 -0.442024 5.19322 0
M  V30 1504 C 133.644 -0.0053448 5.867 0
M  V30 1505 C 135.996 0.310412 6.31838 0
M  V30 1506 C 134.66 0.534023 6.6536 0
M  V30 1507 H 133.93 -0.332885 0.662019 0
M  V30 1508 H 136.577 -0.175762 1.90692 0
M  V30 1509 H 134.882 -2.55659 2.96893 0
M  V30 1510 H 136.579 -2.31331 3.27547 0
M  V30 1511 H 133.169 -1.15936 4.12622 0
M  V30 1512 H 137.353 -0.593693 4.92736 0
M  V30 1513 H 132.609 0.177825 6.11141 0
M  V30 1514 H 136.783 0.737419 6.92485 0
M  V30 1515 H 134.41 1.12918 7.51767 0
M  V30 1516 N 135.985 -1.50799 -0.457987 0
M  V30 1517 C 137.396 -1.55152 -1.0385 0
M  V30 1518 C 137.747 -0.362719 -1.92818 0
M  V30 1519 O 136.872 0.522915 -2.09987 0
M  V30 1520 C 137.467 -2.81173 -1.89017 0
M  V30 1521 C 136.026 -2.88164 -2.42154 0
M  V30 1522 C 135.173 -2.49591 -1.20829 0
M  V30 1523 H 138.124 -1.56874 -0.240068 0
M  V30 1524 H 138.145 -2.63769 -2.74238 0
M  V30 1525 H 137.657 -3.67677 -1.24238 0
M  V30 1526 H 135.758 -2.06042 -3.10447 0
M  V30 1527 H 135.871 -3.91356 -2.76364 0
M  V30 1528 H 134.235 -2.02322 -1.54719 0
M  V30 1529 H 135.018 -3.38418 -0.576927 0
M  V30 1530 N 137.463 0.71206 -1.40597 0
M  V30 1531 C 138.426 1.80785 -1.40888 0
M  V30 1532 C 139.426 1.57937 -0.302103 0
M  V30 1533 O 140.616 1.64913 -0.561182 0
M  V30 1534 C 137.748 3.18927 -1.20409 0
M  V30 1535 H 138.941 1.81924 -2.38419 0
M  V30 1536 H 136.494 0.91805 -1.26497 0
M  V30 1537 H 137.229 3.23436 -0.236522 0
M  V30 1538 H 137.014 3.36911 -2.00582 0
M  V30 1539 H 138.504 3.98949 -1.23408 0
M  V30 1540 N 138.941 1.26152 0.944643 0
M  V30 1541 C 139.873 1.03199 2.04652 0
M  V30 1542 C 140.886 -0.00642356 1.62799 0
M  V30 1543 O 142.075 0.233263 1.76969 0
M  V30 1544 C 139.175 0.540111 3.34568 0
M  V30 1545 C 138.348 1.64697 4.05208 0
M  V30 1546 C 137.407 1.15374 5.13396 0
M  V30 1547 O 136.433 1.85013 5.38293 0
M  V30 1548 N 137.635 0.00031529 5.805 0
M  V30 1549 H 140.4 1.9808 2.2491 0
M  V30 1550 H 137.961 1.17491 1.11389 0
M  V30 1551 H 139.953 0.194401 4.04233 0
M  V30 1552 H 138.523 -0.315021 3.11009 0
M  V30 1553 H 137.743 2.16379 3.29506 0
M  V30 1554 H 139.031 2.3903 4.49157 0
M  V30 1555 H 138.429 -0.581336 5.62705 0
M  V30 1556 H 136.986 -0.286346 6.51171 0
M  V30 1557 N 140.419 -1.14872 1.07899 0
M  V30 1558 C 141.667 -1.85422 0.803941 0
M  V30 1559 C 141.988 -1.83051 -0.67211 0
M  V30 1560 O 141.258 -1.27532 -1.48703 0
M  V30 1561 H 139.838 -0.686537 0.294408 0
M  V30 1562 H 142.5 -1.39226 1.3639 0
M  V30 1563 H 141.596 -2.90399 1.14346 0
M  V30 1564 N 141.898 -0.863906 -1.31812 0
M  V30 1565 C 143.175 -0.39275 -1.91616 0
M  V30 1566 C 143.555 1.12461 -1.7865 0
M  V30 1567 O 142.903 1.95045 -1.19037 0
M  V30 1568 C 143.113 -0.867385 -3.38049 0
M  V30 1569 C 144.461 -0.889966 -4.15168 0
M  V30 1570 O 145.485 -0.812635 -3.46806 0
M  V30 1571 O 144.344 -1.00079 -5.37258 0
M  V30 1572 H 141.438 -0.116358 -0.818773 0
M  V30 1573 H 143.984 -0.951418 -1.40521 0
M  V30 1574 H 142.756 -1.91081 -3.41473 0
M  V30 1575 H 142.379 -0.286687 -3.96565 0
M  V30 1576 N 143.376 1.44774 -0.622745 0
M  V30 1577 C 144.324 2.32387 0.0994683 0
M  V30 1578 C 145.318 1.46859 0.844326 0
M  V30 1579 O 146.524 1.63254 0.758174 0
M  V30 1580 H 142.899 0.750273 0.0509291 0
M  V30 1581 H 144.87 2.91062 -0.65767 0
M  V30 1582 C 143.619 3.30723 1.07319 0
M  V30 1583 H 142.942 3.96541 0.509462 0
M  V30 1584 H 144.382 3.94725 1.54817 0
M  V30 1585 C 142.841 2.59021 2.15429 0
M  V30 1586 O 143.371 2.38286 3.23393 0
M  V30 1587 N 141.577 2.189 1.91131 0
M  V30 1588 H 141.124 2.35964 1.03337 0
M  V30 1589 H 141.082 1.71251 2.63668 0
M  V30 1590 N 144.854 0.36279 1.53368 0
M  V30 1591 C 146.079 -0.231226 2.06107 0
M  V30 1592 C 146.504 -1.419 1.23474 0
M  V30 1593 O 145.862 -1.79524 0.253128 0
M  V30 1594 C 145.91 -0.605523 3.5548 0
M  V30 1595 O 145.014 -1.70312 3.7559 0
M  V30 1596 H 144.355 -0.034327 0.663112 0
M  V30 1597 H 146.885 0.522584 1.97814 0
M  V30 1598 H 146.895 -0.877314 3.98456 0
M  V30 1599 H 145.57 0.263004 4.15068 0
M  V30 1600 H 144.147 -1.4271 3.44512 0
M  V30 1601 N 146.332 -1.57332 0.0918853 0
M  V30 1602 C 147.579 -1.94236 -0.572577 0
M  V30 1603 C 147.907 -0.973398 -1.6839 0
M  V30 1604 O 147.162 0.00756912 -1.95699 0
M  V30 1605 C 147.461 -3.37689 -1.17051 0
M  V30 1606 C 147.127 -4.50527 -0.183304 0
M  V30 1607 C 145.789 -4.81119 0.0882276 0
M  V30 1608 C 148.141 -5.18883 0.49095 0
M  V30 1609 C 145.469 -5.77395 1.04076 0
M  V30 1610 C 147.821 -6.1618 1.43193 0
M  V30 1611 C 146.485 -6.45179 1.71173 0
M  V30 1612 H 145.755 -0.710762 -0.209521 0
M  V30 1613 H 148.402 -1.9077 0.167036 0
M  V30 1614 H 146.707 -3.37718 -1.9863 0
M  V30 1615 H 148.404 -3.63543 -1.69227 0
M  V30 1616 H 144.994 -4.26681 -0.405124 0
M  V30 1617 H 149.178 -4.95427 0.294312 0
M  V30 1618 H 144.434 -5.98179 1.26457 0
M  V30 1619 H 148.608 -6.68243 1.96023 0
M  V30 1620 H 146.235 -7.1959 2.4514 0
M  V30 1621 N 147.81 0.181792 -1.56548 0
M  V30 1622 C 149.056 0.901431 -1.81665 0
M  V30 1623 C 149.389 1.82347 -0.668075 0
M  V30 1624 O 148.664 1.91669 0.330615 0
M  V30 1625 C 148.947 1.70618 -3.17115 0
M  V30 1626 C 148.8 0.807964 -4.42484 0
M  V30 1627 C 150.119 2.67605 -3.49393 0
M  V30 1628 H 147.238 0.32627 -0.660846 0
M  V30 1629 H 149.88 0.168134 -1.89255 0
M  V30 1630 H 148.03 2.33133 -3.10775 0
M  V30 1631 H 149.702 0.19649 -4.60881 0
M  V30 1632 H 147.945 0.115411 -4.33646 0
M  V30 1633 H 148.616 1.40632 -5.33785 0
M  V30 1634 H 151.092 2.15218 -3.56118 0
M  V30 1635 H 149.968 3.20985 -4.45264 0
M  V30 1636 H 150.229 3.47298 -2.73563 0
M  V30 1637 N 149.288 1.51039 0.449983 0
M  V30 1638 C 150.534 1.63322 1.20223 0
M  V30 1639 C 150.867 0.34241 1.91158 0
M  V30 1640 O 150.142 -0.657344 1.83055 0
M  V30 1641 C 150.425 2.82801 2.22925 0
M  V30 1642 C 150.278 4.21823 1.56157 0
M  V30 1643 C 151.597 2.97807 3.24035 0
M  V30 1644 H 148.716 0.594407 0.435718 0
M  V30 1645 H 151.358 1.83489 0.493136 0
M  V30 1646 H 149.508 2.65738 2.834 0
M  V30 1647 H 151.18 4.50526 0.991162 0
M  V30 1648 H 149.423 4.25105 0.864172 0
M  V30 1649 H 150.094 5.01391 2.30891 0
M  V30 1650 H 152.57 3.13497 2.73603 0
M  V30 1651 H 151.446 3.82992 3.93202 0
M  V30 1652 H 151.707 2.09328 3.89402 0
M  V30 1653 N 150.766 -0.704594 1.40972 0
M  V30 1654 C 151.699 -1.82861 1.36518 0
M  V30 1655 C 152.677 -1.6091 0.23382 0
M  V30 1656 O 153.861 -1.83778 0.419271 0
M  V30 1657 C 150.988 -3.1939 1.12729 0
M  V30 1658 C 150.034 -3.60148 2.28463 0
M  V30 1659 S 150.867 -3.65994 3.90907 0
M  V30 1660 C 152.023 -5.05264 3.69403 0
M  V30 1661 H 152.256 -1.86361 2.3164 0
M  V30 1662 H 149.789 -0.872439 1.27389 0
M  V30 1663 H 151.747 -3.98211 0.996893 0
M  V30 1664 H 150.408 -3.1351 0.192427 0
M  V30 1665 H 149.601 -4.59309 2.07489 0
M  V30 1666 H 149.203 -2.88612 2.37863 0
M  V30 1667 H 151.495 -5.92504 3.28551 0
M  V30 1668 H 152.438 -5.31278 4.68134 0
M  V30 1669 H 152.846 -4.76377 3.02862 0
M  V30 1670 N 152.244 -1.26651 -0.937939 0
M  V30 1671 C 153.472 -1.15173 -1.7188 0
M  V30 1672 C 153.887 0.292668 -1.86518 0
M  V30 1673 O 153.244 1.20014 -1.37488 0
M  V30 1674 C 153.295 -1.81925 -3.12387 0
M  V30 1675 O 153.016 -3.2072 -2.98446 0
M  V30 1676 C 154.517 -1.76442 -4.06673 0
M  V30 1677 H 151.737 -0.400911 -0.538063 0
M  V30 1678 H 154.281 -1.67332 -1.1756 0
M  V30 1679 H 152.436 -1.33696 -3.63599 0
M  V30 1680 H 152.85 -3.53802 -3.872 0
M  V30 1681 H 154.324 -2.27781 -5.02812 0
M  V30 1682 H 154.801 -0.731608 -4.33064 0
M  V30 1683 H 155.407 -2.24238 -3.61382 0
M  V30 1684 N 153.722 1.14298 -1.08507 0
M  V30 1685 C 154.67 2.21483 -0.710483 0
M  V30 1686 C 155.664 1.66998 0.284234 0
M  V30 1687 O 156.87 1.79401 0.146692 0
M  V30 1688 H 153.245 0.721578 -0.211729 0
M  V30 1689 H 155.216 2.50348 -1.62384 0
M  V30 1690 C 153.965 3.4743 -0.137007 0
M  V30 1691 H 153.288 3.89686 -0.893592 0
M  V30 1692 H 154.728 4.2391 0.0872789 0
M  V30 1693 C 153.187 3.17548 1.12538 0
M  V30 1694 O 153.717 3.35437 2.21009 0
M  V30 1695 N 151.923 2.71499 1.03617 0
M  V30 1696 H 151.47 2.57143 0.153403 0
M  V30 1697 H 151.428 2.51881 1.88158 0
M  V30 1698 N 155.201 0.870884 1.31352 0
M  V30 1699 C 156.448 0.482273 1.96673 0
M  V30 1700 C 156.776 -0.965638 1.68836 0
M  V30 1701 O 156.031 -1.69514 0.977937 0
M  V30 1702 C 156.33 0.687157 3.50732 0
M  V30 1703 C 155.996 2.108 3.9859 0
M  V30 1704 C 154.658 2.49656 4.1137 0
M  V30 1705 C 157.01 3.03459 4.23748 0
M  V30 1706 C 154.338 3.80412 4.46659 0
M  V30 1707 C 156.69 4.3373 4.60501 0
M  V30 1708 C 155.354 4.725 4.71487 0
M  V30 1709 H 154.624 0.176476 0.719679 0
M  V30 1710 H 157.271 1.10405 1.56471 0
M  V30 1711 H 155.576 -0.0177476 3.91796 0
M  V30 1712 H 157.273 0.366284 3.99324 0
M  V30 1713 H 153.863 1.79633 3.8914 0
M  V30 1714 H 158.047 2.74665 4.13368 0
M  V30 1715 H 153.303 4.1021 4.53362 0
M  V30 1716 H 157.477 5.05578 4.78919 0
M  V30 1717 H 155.104 5.73859 4.98588 0
M  V30 1718 N 156.679 -1.44442 0.630414 0
M  V30 1719 C 157.928 -2.01267 0.132073 0
M  V30 1720 C 158.241 -1.50172 -1.25331 0
M  V30 1721 O 159.447 -1.9912 -1.84562 0
M  V30 1722 C 157.903 -3.59422 0.185362 0
M  V30 1723 C 157.511 -4.19514 1.57201 0
M  V30 1724 C 159.255 -4.23724 -0.256553 0
M  V30 1725 C 157.162 -5.69891 1.58045 0
M  V30 1726 H 156.092 -0.752619 0.0456092 0
M  V30 1727 H 158.743 -1.65666 0.789106 0
M  V30 1728 H 157.125 -3.92318 -0.538759 0
M  V30 1729 H 158.299 -3.98156 2.31966 0
M  V30 1730 H 156.614 -3.67496 1.95795 0
M  V30 1731 H 159.211 -5.34019 -0.269767 0
M  V30 1732 H 159.554 -3.96013 -1.28372 0
M  V30 1733 H 160.087 -3.95629 0.41505 0
M  V30 1734 H 156.826 -6.02336 2.58597 0
M  V30 1735 H 156.346 -5.93373 0.875725 0
M  V30 1736 H 158.025 -6.33515 1.31408 0
M  V30 1737 N 158.157 -0.370918 -1.53173 0
M  V30 1738 C 159.403 0.217423 -2.01631 0
M  V30 1739 C 159.736 1.47983 -1.25756 0
M  V30 1740 O 159.011 1.91274 -0.352764 0
M  V30 1741 C 159.294 0.503982 -3.56556 0
M  V30 1742 C 159.147 -0.77243 -4.43118 0
M  V30 1743 C 160.466 1.30234 -4.20389 0
M  V30 1744 H 157.585 0.0775486 -0.732909 0
M  V30 1745 H 160.227 -0.496863 -1.83388 0
M  V30 1746 H 158.377 1.11248 -3.72231 0
M  V30 1747 H 160.049 -1.4098 -4.39229 0
M  V30 1748 H 158.292 -1.39167 -4.10871 0
M  V30 1749 H 158.963 -0.526815 -5.4948 0
M  V30 1750 H 161.439 0.787546 -4.08579 0
M  V30 1751 H 160.315 1.47158 -5.28806 0
M  V30 1752 H 160.576 2.31237 -3.76805 0
M  V30 1753 N 159.635 1.57281 -0.100228 0
M  V30 1754 C 160.863 1.98879 0.570509 0
M  V30 1755 C 161.278 0.979476 1.61405 0
M  V30 1756 O 160.635 -0.0302288 1.82475 0
M  V30 1757 C 160.686 3.4052 1.2136 0
M  V30 1758 O 160.407 4.37588 0.211786 0
M  V30 1759 C 161.908 3.97149 1.96945 0
M  V30 1760 H 159.128 0.653428 0.152555 0
M  V30 1761 H 161.672 2.03697 -0.18103 0
M  V30 1762 H 159.827 3.367 1.91603 0
M  V30 1763 H 160.241 5.20118 0.676607 0
M  V30 1764 H 161.715 4.98393 2.37294 0
M  V30 1765 H 162.192 3.3525 2.83733 0
M  V30 1766 H 162.798 4.04458 1.31506 0
M  V30 1767 N 161.113 -0.173488 1.56642 0
M  V30 1768 C 162.524 -0.736155 1.71574 0
M  V30 1769 C 162.875 -1.82888 0.710389 0
M  V30 1770 O 162 -2.16017 -0.1287 0
M  V30 1771 C 162.595 -1.34211 3.11083 0
M  V30 1772 C 161.154 -1.85162 3.27707 0
M  V30 1773 C 160.301 -0.729765 2.67525 0
M  V30 1774 H 163.252 0.0518786 1.58615 0
M  V30 1775 H 163.273 -2.21178 3.09613 0
M  V30 1776 H 162.785 -0.546579 3.84232 0
M  V30 1777 H 160.886 -2.67366 2.59512 0
M  V30 1778 H 160.999 -1.99855 4.35425 0
M  V30 1779 H 159.363 -1.14965 2.27278 0
M  V30 1780 H 160.146 0.0538806 3.43258 0
M  V30 1781 N 162.591 -1.51276 -0.441967 0
M  V30 1782 C 163.538 -1.72256 -1.53612 0
M  V30 1783 C 164.508 -0.564164 -1.56225 0
M  V30 1784 O 165.693 -0.798074 -1.73307 0
M  V30 1785 C 162.833 -1.84932 -2.91366 0
M  V30 1786 C 161.946 -3.12459 -2.98317 0
M  V30 1787 C 161.081 -3.15758 -4.27166 0
M  V30 1788 C 160.12 -4.37619 -4.27967 0
M  V30 1789 N 159.257 -4.38493 -5.48333 0
M  V30 1790 H 164.097 -2.65654 -1.35026 0
M  V30 1791 H 161.634 -1.31662 -0.656009 0
M  V30 1792 H 163.592 -1.90263 -3.7129 0
M  V30 1793 H 162.222 -0.949461 -3.08521 0
M  V30 1794 H 161.274 -3.1646 -2.11086 0
M  V30 1795 H 162.586 -4.02382 -2.94771 0
M  V30 1796 H 161.74 -3.19979 -5.15459 0
M  V30 1797 H 160.479 -2.23715 -4.33362 0
M  V30 1798 H 159.484 -4.33579 -3.38067 0
M  V30 1799 H 160.709 -5.30921 -4.23438 0
M  V30 1800 H 158.655 -3.49318 -5.55259 0
M  V30 1801 H 158.572 -5.22219 -5.46647 0
M  V30 1802 H 159.84 -4.469 -6.38671 0
M  V30 1803 N 164.069 0.697108 -1.41344 0
M  V30 1804 C 165.001 1.8224 -1.39001 0
M  V30 1805 C 166.014 1.60152 -0.292428 0
M  V30 1806 O 167.203 1.69684 -0.554048 0
M  V30 1807 C 164.303 3.18976 -1.14489 0
M  V30 1808 C 163.476 3.68105 -2.36258 0
M  V30 1809 C 162.535 4.83506 -2.07625 0
M  V30 1810 O 161.561 4.95201 -2.8065 0
M  V30 1811 N 162.763 5.70637 -1.06555 0
M  V30 1812 H 165.528 1.84742 -2.35988 0
M  V30 1813 H 163.089 0.87937 -1.35936 0
M  V30 1814 H 165.081 3.93801 -0.932885 0
M  V30 1815 H 163.651 3.11508 -0.261043 0
M  V30 1816 H 162.871 2.84204 -2.7317 0
M  V30 1817 H 164.159 3.97667 -3.17393 0
M  V30 1818 H 163.557 5.63817 -0.461125 0
M  V30 1819 H 162.114 6.45368 -0.913444 0
M  V30 1820 N 165.547 1.27147 0.931209 0
M  V30 1821 C 166.775 1.16082 1.71267 0
M  V30 1822 C 167.19 -0.282772 1.8667 0
M  V30 1823 O 166.547 -1.19283 1.38122 0
M  V30 1824 C 166.598 1.8358 3.11417 0
M  V30 1825 O 166.319 3.22299 2.96741 0
M  V30 1826 C 167.82 1.78597 4.05732 0
M  V30 1827 H 165.04 0.403758 0.535929 0
M  V30 1828 H 167.584 1.67953 1.16671 0
M  V30 1829 H 165.739 1.35623 3.62885 0
M  V30 1830 H 166.153 3.55851 3.85319 0
M  V30 1831 H 167.627 2.30444 5.01597 0
M  V30 1832 H 168.104 0.754564 4.3267 0
M  V30 1833 H 168.71 2.26152 3.60188 0
M  V30 1834 N 167.025 -1.13721 1.09112 0
M  V30 1835 C 167.957 -2.1871 0.685467 0
M  V30 1836 C 168.97 -1.60527 -0.271068 0
M  V30 1837 O 170.159 -1.78407 -0.0576148 0
M  V30 1838 C 167.259 -3.38898 -0.0111255 0
M  V30 1839 C 166.432 -4.26597 0.966131 0
M  V30 1840 C 165.491 -5.25324 0.303539 0
M  V30 1841 O 164.517 -5.61213 0.950177 0
M  V30 1842 N 165.719 -5.72779 -0.943651 0
M  V30 1843 H 168.484 -2.54126 1.58871 0
M  V30 1844 H 166.045 -1.29012 0.978143 0
M  V30 1845 H 168.037 -4.02014 -0.465517 0
M  V30 1846 H 166.607 -3.01747 -0.816565 0
M  V30 1847 H 165.827 -3.60306 1.59917 0
M  V30 1848 H 167.115 -4.82048 1.6281 0
M  V30 1849 H 166.513 -5.45762 -1.48862 0
M  V30 1850 H 165.07 -6.37847 -1.34142 0
M  V30 1851 N 168.503 -0.877838 -1.30888 0
M  V30 1852 C 169.751 -0.491723 -1.96027 0
M  V30 1853 C 170.072 0.960827 -1.69685 0
M  V30 1854 O 169.342 1.67462 -1.01654 0
M  V30 1855 H 167.922 -0.17885 -0.725273 0
M  V30 1856 H 170.584 -1.11935 -1.59551 0
M  V30 1857 H 169.68 -0.656016 -3.05128 0
M  V30 1858 N 169.982 1.44106 -0.638065 0
M  V30 1859 C 171.212 2.06037 -0.152394 0
M  V30 1860 C 171.62 1.47808 1.18108 0
M  V30 1861 O 170.963 0.598092 1.73691 0
M  V30 1862 C 171.025 3.59488 0.0293714 0
M  V30 1863 C 170.689 4.4022 -1.22702 0
M  V30 1864 C 171.686 4.73256 -2.15232 0
M  V30 1865 C 169.371 4.8048 -1.46437 0
M  V30 1866 C 171.365 5.45444 -3.29802 0
M  V30 1867 C 169.052 5.52417 -2.61303 0
M  V30 1868 C 170.05 5.84819 -3.52811 0
M  V30 1869 O 169.738 6.55289 -4.65673 0
M  V30 1870 H 169.47 0.671233 -0.0801401 0
M  V30 1871 H 172.024 1.85851 -0.874563 0
M  V30 1872 H 170.254 3.78191 0.806758 0
M  V30 1873 H 171.943 4.03164 0.470475 0
M  V30 1874 H 172.709 4.42684 -1.98131 0
M  V30 1875 H 168.588 4.54676 -0.760977 0
M  V30 1876 H 172.132 5.70653 -4.01249 0
M  V30 1877 H 168.029 5.82404 -2.78344 0
M  V30 1878 H 168.797 6.73762 -4.64744 0
M  V30 1879 N 171.46 0.379036 1.52974 0
M  V30 1880 C 172.7 -0.206325 2.03356 0
M  V30 1881 C 173.064 -1.44892 1.25977 0
M  V30 1882 O 174.265 -2.11078 1.66432 0
M  V30 1883 C 172.536 -0.477887 3.54191 0
M  V30 1884 S 174.095 -1.035 4.26419 0
M  V30 1885 H 170.913 -0.0590259 0.708546 0
M  V30 1886 H 173.515 0.525013 1.88319 0
M  V30 1887 H 172.219 0.433745 4.08101 0
M  V30 1888 H 171.75 -1.23793 3.73415 0
M  V30 1889 H 173.765 -2.31821 4.38718 0
M  V30 1890 N 172.938 -1.57226 0.108567 0
M  V30 1891 C 173.901 -2.13602 -0.831082 0
M  V30 1892 C 174.901 -1.06841 -1.20173 0
M  V30 1893 O 176.091 -1.32666 -1.12895 0
M  V30 1894 C 173.223 -2.66769 -2.12243 0
M  V30 1895 H 174.416 -2.97951 -0.341317 0
M  V30 1896 H 171.969 -1.55667 -0.14057 0
M  V30 1897 H 172.704 -1.85977 -2.65675 0
M  V30 1898 H 172.489 -3.44839 -1.86625 0
M  V30 1899 H 173.979 -3.10332 -2.79435 0
M  V30 1900 N 174.416 0.165178 -1.56732 0
M  V30 1901 C 175.326 1.22423 -2.00125 0
M  V30 1902 C 176.342 1.48084 -0.913619 0
M  V30 1903 O 177.518 1.60112 -1.22172 0
M  V30 1904 C 174.583 2.54197 -2.35764 0
M  V30 1905 C 173.644 2.36343 -3.58386 0
M  V30 1906 C 172.877 3.61834 -3.92316 0
M  V30 1907 O 173.1 4.67267 -3.27135 0
M  V30 1908 O 172.034 3.55579 -4.85641 0
M  V30 1909 H 175.86 0.885886 -2.90492 0
M  V30 1910 H 173.445 0.372518 -1.44681 0
M  V30 1911 H 175.327 3.3192 -2.59629 0
M  V30 1912 H 174.002 2.87598 -1.48557 0
M  V30 1913 H 172.909 1.56632 -3.39731 0
M  V30 1914 H 174.242 2.07865 -4.46154 0
M  V30 1915 N 175.894 1.51508 0.433938 0
M  V30 1916 C 176.844 1.69451 1.52546 0
M  V30 1917 C 177.828 0.548474 1.51263 0
M  V30 1918 O 179.02 0.804529 1.57659 0
M  V30 1919 C 176.149 1.82604 2.90707 0
M  V30 1920 C 175.235 3.03002 2.96733 0
M  V30 1921 N 175.626 4.26121 2.72496 0
M  V30 1922 C 173.924 3.02327 3.27894 0
M  V30 1923 C 174.625 5.07407 2.84452 0
M  V30 1924 N 173.601 4.42126 3.16269 0
M  V30 1925 H 177.403 2.62305 1.32564 0
M  V30 1926 H 174.917 1.49202 0.641297 0
M  V30 1927 H 176.914 1.93569 3.69238 0
M  V30 1928 H 175.574 0.909339 3.11707 0
M  V30 1929 H 176.585 4.55009 2.4736 0
M  V30 1930 H 173.262 2.20301 3.54646 0
M  V30 1931 H 174.652 6.15422 2.69639 0
M  V30 1932 N 177.372 -0.689602 1.41712 0
M  V30 1933 C 178.783 -1.26973 1.36875 0
M  V30 1934 C 179.134 -1.96124 0.054748 0
M  V30 1935 O 178.259 -1.99141 -0.84687 0
M  V30 1936 C 178.854 -2.30912 2.47922 0
M  V30 1937 C 177.413 -2.84486 2.46464 0
M  V30 1938 C 176.56 -1.58603 2.27465 0
M  V30 1939 H 179.511 -0.48396 1.51141 0
M  V30 1940 H 179.532 -3.12331 2.17323 0
M  V30 1941 H 179.044 -1.80554 3.43543 0
M  V30 1942 H 177.145 -3.39005 1.54617 0
M  V30 1943 H 177.258 -3.34511 3.42986 0
M  V30 1944 H 175.622 -1.84632 1.75451 0
M  V30 1945 H 176.405 -1.10233 3.25121 0
M  V30 1946 N 178.85 -1.27639 -0.924453 0
M  V30 1947 C 179.76 -1.12466 -2.05885 0
M  V30 1948 C 180.776 -0.053869 -1.73917 0
M  V30 1949 O 181.952 -0.261012 -1.99702 0
M  V30 1950 C 179.017 -0.776768 -3.37886 0
M  V30 1951 C 178.078 -1.92878 -3.83532 0
M  V30 1952 C 177.311 -1.59739 -5.09234 0
M  V30 1953 O 177.534 -0.506782 -5.68144 0
M  V30 1954 O 176.468 -2.43761 -5.50331 0
M  V30 1955 H 180.294 -2.07671 -2.21599 0
M  V30 1956 H 177.879 -1.06857 -1.04413 0
M  V30 1957 H 179.761 -0.596229 -4.17161 0
M  V30 1958 H 178.436 0.145732 -3.23372 0
M  V30 1959 H 177.343 -2.1644 -3.0513 0
M  V30 1960 H 178.676 -2.8316 -4.02593 0
M  V30 1961 N 180.328 1.1314 -1.09713 0
M  V30 1962 C 181.576 1.84119 -0.833338 0
M  V30 1963 C 181.897 1.84097 0.642904 0
M  V30 1964 O 181.167 1.29881 1.46655 0
M  V30 1965 H 179.747 0.681766 -0.305293 0
M  V30 1966 H 182.409 1.37038 -1.38588 0
M  V30 1967 H 181.505 2.88543 -1.18951 0
M  V30 1968 N 181.806 0.884767 1.30421 0
M  V30 1969 C 183.054 0.502112 1.95763 0
M  V30 1970 C 183.375 -0.951815 1.70192 0
M  V30 1971 O 182.645 -1.6692 1.0254 0
M  V30 1972 H 181.225 0.182694 0.724315 0
M  V30 1973 H 183.887 1.1278 1.58955 0
M  V30 1974 H 182.983 0.672188 3.04775 0
M  V30 1975 N 183.284 -1.43765 0.645699 0
M  V30 1976 C 184.533 -2.01116 0.153412 0
M  V30 1977 C 184.846 -1.51493 -1.23731 0
M  V30 1978 O 186.052 -2.01067 -1.8244 0
M  V30 1979 C 184.508 -3.59206 0.223473 0
M  V30 1980 C 184.116 -4.17823 1.61642 0
M  V30 1981 C 185.86 -4.23972 -0.211597 0
M  V30 1982 C 183.767 -5.68183 1.64081 0
M  V30 1983 H 182.697 -0.752093 0.0535891 0
M  V30 1984 H 185.348 -1.6482 0.806633 0
M  V30 1985 H 183.73 -3.92867 -0.497118 0
M  V30 1986 H 184.904 -3.95674 2.36176 0
M  V30 1987 H 183.219 -3.65399 1.99681 0
M  V30 1988 H 185.816 -5.34275 -0.213112 0
M  V30 1989 H 186.159 -3.97352 -1.24165 0
M  V30 1990 H 186.692 -3.95166 0.456988 0
M  V30 1991 H 183.431 -5.99559 2.64971 0
M  V30 1992 H 182.951 -5.9241 0.938611 0
M  V30 1993 H 184.63 -6.32085 1.3812 0
M  V30 1994 N 184.763 -0.387143 -1.52771 0
M  V30 1995 C 186.003 0.195537 -2.03463 0
M  V30 1996 C 186.367 1.44222 -1.26744 0
M  V30 1997 O 187.568 2.10192 -1.67549 0
M  V30 1998 C 185.839 0.459097 -3.54439 0
M  V30 1999 S 187.398 1.01237 -4.26962 0
M  V30 2000 H 184.216 0.0552675 -0.708849 0
M  V30 2001 H 186.818 -0.534992 -1.88037 0
M  V30 2002 H 185.522 -0.455382 -4.07866 0
M  V30 2003 H 185.053 1.21811 -3.74066 0
M  V30 2004 H 187.068 2.29492 -4.39941 0
M  V30 2005 N 186.241 1.57166 -0.116904 0
M  V30 2006 C 187.188 2.15202 0.83408 0
M  V30 2007 C 188.158 1.07644 1.26499 0
M  V30 2008 O 189.343 1.35541 1.34288 0
M  V30 2009 C 186.483 2.75405 2.07957 0
M  V30 2010 C 185.596 3.97264 1.69721 0
M  V30 2011 C 184.731 4.45561 2.89221 0
M  V30 2012 C 183.77 5.59956 2.47215 0
M  V30 2013 N 182.907 6.03006 3.59622 0
M  V30 2014 H 187.747 2.96141 0.332335 0
M  V30 2015 H 185.284 1.46309 0.152349 0
M  V30 2016 H 187.242 3.08439 2.80929 0
M  V30 2017 H 185.872 1.97159 2.55594 0
M  V30 2018 H 184.924 3.70404 0.866316 0
M  V30 2019 H 186.236 4.80226 1.34849 0
M  V30 2020 H 185.39 4.80493 3.7042 0
M  V30 2021 H 184.129 3.61544 3.27318 0
M  V30 2022 H 183.134 5.2463 1.64448 0
M  V30 2023 H 184.359 6.45738 2.10238 0
M  V30 2024 H 182.305 5.21931 3.97396 0
M  V30 2025 H 182.222 6.80819 3.28667 0
M  V30 2026 H 183.49 6.42576 4.41267 0
M  V30 2027 N 187.719 -0.156864 1.56817 0
M  V30 2028 C 188.629 -1.2136 2.00771 0
M  V30 2029 C 189.645 -1.47598 0.921459 0
M  V30 2030 O 190.821 -1.59462 1.2302 0
M  V30 2031 C 187.886 -2.52943 2.37109 0
M  V30 2032 C 186.947 -2.34439 3.59634 0
M  V30 2033 C 186.18 -3.59748 3.94229 0
M  V30 2034 O 186.403 -4.65526 3.29609 0
M  V30 2035 O 185.337 -3.52998 4.8752 0
M  V30 2036 H 189.163 -0.870468 2.90958 0
M  V30 2037 H 186.748 -0.36484 1.44877 0
M  V30 2038 H 188.63 -3.30538 2.61386 0
M  V30 2039 H 187.305 -2.86806 1.5008 0
M  V30 2040 H 186.212 -1.54828 3.40557 0
M  V30 2041 H 187.545 -2.05496 4.4725 0
M  V30 2042 N 189.197 -1.51736 -0.425897 0
M  V30 2043 C 190.474 -1.55519 -1.1863 0
M  V30 2044 C 190.854 -0.326219 -2.08564 0
M  V30 2045 O 190.202 0.688012 -2.17896 0
M  V30 2046 C 190.412 -2.87521 -1.9782 0
M  V30 2047 C 191.76 -3.39899 -2.54468 0
M  V30 2048 O 192.784 -2.89148 -2.08019 0
M  V30 2049 O 191.643 -4.2848 -3.39215 0
M  V30 2050 H 188.737 -0.625739 -0.540721 0
M  V30 2051 H 191.283 -1.64055 -0.434038 0
M  V30 2052 H 190.055 -3.68422 -1.31836 0
M  V30 2053 H 189.678 -2.822 -2.80088 0
M  V30 2054 N 190.675 0.682077 -1.42076 0
M  V30 2055 C 191.9 1.47558 -1.45744 0
M  V30 2056 C 192.325 1.87977 -0.0680981 0
M  V30 2057 O 191.683 1.55522 0.9318 0
M  V30 2058 C 191.731 2.70575 -2.38373 0
M  V30 2059 O 190.835 3.68573 -1.85007 0
M  V30 2060 H 190.176 0.443585 -0.494093 0
M  V30 2061 H 192.706 0.837238 -1.86686 0
M  V30 2062 H 192.716 3.18729 -2.54707 0
M  V30 2063 H 191.391 2.40495 -3.39315 0
M  V30 2064 H 189.968 3.2757 -1.78192 0
M  V30 2065 N 192.153 1.28127 0.917671 0
M  V30 2066 C 193.401 1.14825 1.66312 0
M  V30 2067 C 193.722 -0.304379 1.9261 0
M  V30 2068 O 192.992 -1.21149 1.53947 0
M  V30 2069 H 191.572 0.421953 0.616413 0
M  V30 2070 H 194.234 1.608 1.10134 0
M  V30 2071 H 193.33 1.68489 2.62712 0
M  V30 2072 N 193.631 -1.12557 1.10312 0
M  V30 2073 C 194.871 -1.8568 0.854543 0
M  V30 2074 C 195.235 -1.82091 -0.608843 0
M  V30 2075 O 196.436 -2.50544 -0.973717 0
M  V30 2076 C 194.707 -3.2942 1.38626 0
M  V30 2077 S 196.266 -4.19931 1.27293 0
M  V30 2078 H 193.084 -0.640427 0.308827 0
M  V30 2079 H 195.686 -1.35599 1.40831 0
M  V30 2080 H 194.39 -3.2959 2.44537 0
M  V30 2081 H 193.921 -3.84566 0.82902 0
M  V30 2082 H 195.936 -4.95668 0.229776 0
M  V30 2083 N 195.109 -0.891671 -1.2995 0
M  V30 2084 C 196.337 -0.52866 -2.00032 0
M  V30 2085 C 196.752 0.884574 -1.66795 0
M  V30 2086 O 196.109 1.5827 -0.908669 0
M  V30 2087 C 196.16 -0.701814 -3.54622 0
M  V30 2088 O 195.881 -2.05942 -3.86678 0
M  V30 2089 C 197.382 -0.342683 -4.41973 0
M  V30 2090 H 194.602 -0.203659 -0.639347 0
M  V30 2091 H 197.146 -1.19881 -1.65677 0
M  V30 2092 H 195.301 -0.0789468 -3.8732 0
M  V30 2093 H 195.715 -2.08291 -4.81368 0
M  V30 2094 H 197.189 -0.514709 -5.49595 0
M  V30 2095 H 197.666 0.71975 -4.33262 0
M  V30 2096 H 198.272 -0.942154 -4.14733 0
M  V30 2097 N 196.587 1.43421 -0.653314 0
M  V30 2098 C 197.998 1.85065 -0.246537 0
M  V30 2099 C 198.349 1.54688 1.2069 0
M  V30 2100 O 197.474 0.995896 1.92122 0
M  V30 2101 C 198.069 3.35922 -0.440666 0
M  V30 2102 C 196.628 3.76297 -0.0882064 0
M  V30 2103 C 195.775 2.67147 -0.743484 0
M  V30 2104 H 198.726 1.33572 -0.856979 0
M  V30 2105 H 198.747 3.79204 0.313798 0
M  V30 2106 H 198.259 3.58 -1.49858 0
M  V30 2107 H 196.36 3.5983 0.96711 0
M  V30 2108 H 196.473 4.76338 -0.513738 0
M  V30 2109 H 194.837 2.54086 -0.176712 0
M  V30 2110 H 195.62 2.92053 -1.80443 0
M  V30 2111 N 198.065 0.39524 1.52563 0
M  V30 2112 C 199.313 -0.184678 2.01254 0
M  V30 2113 C 199.634 -1.46822 1.28329 0
M  V30 2114 O 198.904 -1.91666 0.405094 0
M  V30 2115 H 197.484 -0.0712355 0.743596 0
M  V30 2116 H 200.146 0.528293 1.87603 0
M  V30 2117 H 199.242 -0.390681 3.09645 0
M  V30 2118 N 199.544 -1.57102 0.125237 0
M  V30 2119 C 200.491 -2.15641 -0.822655 0
M  V30 2120 C 201.461 -1.08313 -1.25927 0
M  V30 2121 O 202.646 -1.36251 -1.33567 0
M  V30 2122 C 199.786 -2.76504 -2.06494 0
M  V30 2123 C 198.899 -3.98158 -1.67612 0
M  V30 2124 C 198.034 -4.47088 -2.86854 0
M  V30 2125 C 197.073 -5.6126 -2.44242 0
M  V30 2126 N 196.21 -6.04905 -3.56419 0
M  V30 2127 H 201.05 -2.96313 -0.316625 0
M  V30 2128 H 198.587 -1.46388 -0.144588 0
M  V30 2129 H 200.545 -3.09925 -2.79289 0
M  V30 2130 H 199.175 -1.98512 -2.54545 0
M  V30 2131 H 198.227 -3.70858 -0.846661 0
M  V30 2132 H 199.539 -4.80934 -1.32301 0
M  V30 2133 H 198.693 -4.82451 -3.67867 0
M  V30 2134 H 197.432 -3.63275 -3.25396 0
M  V30 2135 H 196.437 -5.25495 -1.61663 0
M  V30 2136 H 197.662 -6.46843 -2.0681 0
M  V30 2137 H 195.608 -5.24032 -3.94623 0
M  V30 2138 H 195.525 -6.82552 -3.25051 0
M  V30 2139 H 196.793 -6.44907 -4.37853 0
M  V30 2140 N 201.022 0.148545 -1.56898 0
M  V30 2141 C 201.985 1.16736 -1.97244 0
M  V30 2142 C 202.985 1.35947 -0.858777 0
M  V30 2143 O 204.175 1.32966 -1.12542 0
M  V30 2144 C 201.307 2.52798 -2.28705 0
M  V30 2145 H 202.5 0.821279 -2.88435 0
M  V30 2146 H 200.053 0.391831 -1.51309 0
M  V30 2147 H 200.788 2.92381 -1.403 0
M  V30 2148 H 200.573 2.40216 -3.09901 0
M  V30 2149 H 202.063 3.26179 -2.60762 0
M  V30 2150 N 202.5 1.5196 0.417844 0
M  V30 2151 C 203.447 1.74678 1.50852 0
M  V30 2152 C 204.417 0.588947 1.55308 0
M  V30 2153 O 205.602 0.825544 1.72016 0
M  V30 2154 C 202.742 1.89544 2.88387 0
M  V30 2155 C 201.855 3.17166 2.93309 0
M  V30 2156 C 200.99 3.22513 4.22088 0
M  V30 2157 C 200.029 4.44372 4.20951 0
M  V30 2158 N 199.166 4.47161 5.41287 0
M  V30 2159 H 204.006 2.67768 1.30783 0
M  V30 2160 H 201.543 1.32689 0.63498 0
M  V30 2161 H 203.501 1.96146 3.68216 0
M  V30 2162 H 202.131 0.998424 3.06971 0
M  V30 2163 H 201.183 3.19778 2.06024 0
M  V30 2164 H 202.495 4.07021 2.88332 0
M  V30 2165 H 201.649 3.28139 5.10303 0
M  V30 2166 H 200.388 2.30581 4.29748 0
M  V30 2167 H 199.393 4.38902 3.31127 0
M  V30 2168 H 200.618 5.3759 4.14938 0
M  V30 2169 H 198.564 3.58108 5.49632 0
M  V30 2170 H 198.481 5.3085 5.3827 0
M  V30 2171 H 199.749 4.57005 6.3148 0
M  V30 2172 N 203.978 -0.674533 1.42435 0
M  V30 2173 C 205.394 -0.98769 1.25367 0
M  V30 2174 C 205.594 -2.00879 0.158044 0
M  V30 2175 O 204.65 -2.48075 -0.470633 0
M  V30 2176 C 205.963 -1.49224 2.6106 0
M  V30 2177 C 207.511 -1.61 2.68417 0
M  V30 2178 C 207.986 -2.14852 4.04478 0
M  V30 2179 N 209.477 -2.22185 4.06434 0
M  V30 2180 C 210.212 -2.64928 5.08528 0
M  V30 2181 N 209.708 -3.07121 6.21006 0
M  V30 2182 N 211.501 -2.64679 4.95885 0
M  V30 2183 H 203.652 0.00152503 2.124 0
M  V30 2184 H 205.915 -0.0618434 0.945981 0
M  V30 2185 H 205.621 -0.816453 3.42092 0
M  V30 2186 H 205.495 -2.47094 2.84999 0
M  V30 2187 H 207.882 -2.27686 1.87732 0
M  V30 2188 H 207.963 -0.616195 2.48267 0
M  V30 2189 H 207.607 -1.48775 4.85622 0
M  V30 2190 H 207.537 -3.15024 4.2198 0
M  V30 2191 H 210.028 -1.92435 3.25234 0
M  V30 2192 H 210.341 -3.38423 6.94759 0
M  V30 2193 H 208.686 -3.04978 6.24511 0
M  V30 2194 H 211.877 -2.31078 4.07088 0
M  V30 2195 H 212.05 -2.9767 5.75584 0
M  V30 2196 N 205.456 -1.28612 -0.910864 0
M  V30 2197 C 206.403 -1.12786 -2.01365 0
M  V30 2198 C 207.373 -0.024201 -1.66082 0
M  V30 2199 O 208.558 -0.189667 -1.89855 0
M  V30 2200 C 205.698 -0.798743 -3.35729 0
M  V30 2201 C 204.811 -1.98173 -3.83864 0
M  V30 2202 C 203.946 -1.59298 -5.06752 0
M  V30 2203 C 202.985 -2.74245 -5.47226 0
M  V30 2204 N 202.122 -2.35842 -6.61304 0
M  V30 2205 H 206.962 -2.07142 -2.14234 0
M  V30 2206 H 204.499 -1.03093 -1.0493 0
M  V30 2207 H 206.457 -0.588662 -4.13026 0
M  V30 2208 H 205.087 0.10789 -3.2262 0
M  V30 2209 H 204.139 -2.30386 -3.02699 0
M  V30 2210 H 205.451 -2.84343 -4.09818 0
M  V30 2211 H 204.605 -1.34513 -5.916 0
M  V30 2212 H 203.344 -0.702618 -4.82612 0
M  V30 2213 H 202.349 -2.99725 -4.60918 0
M  V30 2214 H 203.574 -3.63928 -5.73353 0
M  V30 2215 H 201.52 -1.49279 -6.38789 0
M  V30 2216 H 201.437 -3.15546 -6.86998 0
M  V30 2217 H 202.705 -2.14348 -7.4945 0
M  V30 2218 N 206.934 1.1197 -1.10907 0
M  V30 2219 C 207.897 2.16031 -0.765707 0
M  V30 2220 C 208.897 1.59393 0.212235 0
M  V30 2221 O 210.087 1.74196 -0.0115441 0
M  V30 2222 C 207.219 3.40632 -0.135053 0
M  V30 2223 H 208.412 2.47919 -1.68748 0
M  V30 2224 H 205.965 1.27061 -0.910226 0
M  V30 2225 H 206.7 3.14348 0.797218 0
M  V30 2226 H 206.485 3.8302 -0.838937 0
M  V30 2227 H 207.975 4.17505 0.0892469 0
M  V30 2228 N 208.412 0.89855 1.29475 0
M  V30 2229 C 209.344 0.332726 2.26772 0
M  V30 2230 C 210.357 -0.520323 1.54261 0
M  V30 2231 O 211.546 -0.337668 1.75277 0
M  V30 2232 C 208.646 -0.544334 3.345 0
M  V30 2233 C 207.819 0.282728 4.36485 0
M  V30 2234 C 206.878 -0.526982 5.23555 0
M  V30 2235 O 205.904 0.0551165 5.69173 0
M  V30 2236 N 207.106 -1.83331 5.5079 0
M  V30 2237 H 209.871 1.16897 2.75962 0
M  V30 2238 H 207.432 0.762919 1.42798 0
M  V30 2239 H 209.424 -1.09239 3.89678 0
M  V30 2240 H 207.994 -1.28127 2.85136 0
M  V30 2241 H 207.214 1.01221 3.80983 0
M  V30 2242 H 208.502 0.84918 5.01664 0
M  V30 2243 H 207.9 -2.32898 5.15534 0
M  V30 2244 H 206.457 -2.32852 6.08788 0
M  V30 2245 N 209.89 -1.43072 0.660911 0
M  V30 2246 C 211.138 -2.01323 0.177094 0
M  V30 2247 C 211.459 -1.5245 -1.2159 0
M  V30 2248 O 210.729 -0.740322 -1.81373 0
M  V30 2249 H 209.309 -0.744382 0.0624804 0
M  V30 2250 H 211.971 -1.75179 0.854305 0
M  V30 2251 H 211.067 -3.11649 0.167641 0
M  V30 2252 N 211.368 -0.403325 -1.52352 0
M  V30 2253 C 212.617 0.175668 -2.00934 0
M  V30 2254 C 212.93 1.46718 -1.29356 0
M  V30 2255 O 214.136 2.12708 -1.68724 0
M  V30 2256 C 212.592 0.363612 -3.58058 0
M  V30 2257 C 212.2 -0.915472 -4.38547 0
M  V30 2258 C 213.944 0.89821 -4.14888 0
M  V30 2259 C 211.851 -0.695035 -5.87302 0
M  V30 2260 H 210.781 0.0694234 -0.750797 0
M  V30 2261 H 213.432 -0.527879 -1.75743 0
M  V30 2262 H 211.814 1.12935 -3.79555 0
M  V30 2263 H 212.988 -1.68691 -4.28812 0
M  V30 2264 H 211.303 -1.37606 -3.93006 0
M  V30 2265 H 213.9 1.07907 -5.23699 0
M  V30 2266 H 214.243 1.87126 -3.71873 0
M  V30 2267 H 214.776 0.191681 -3.97338 0
M  V30 2268 H 211.515 -1.63948 -6.34666 0
M  V30 2269 H 211.035 0.0372116 -5.99788 0
M  V30 2270 H 212.714 -0.33497 -6.46132 0
M  V30 2271 N 212.846 1.57033 -0.133567 0
M  V30 2272 C 214.262 1.58035 0.222944 0
M  V30 2273 C 214.462 1.14713 1.6566 0
M  V30 2274 O 213.518 0.841218 2.38075 0
M  V30 2275 C 214.831 3.00691 -0.0236116 0
M  V30 2276 C 216.379 3.12973 0.0411512 0
M  V30 2277 C 216.854 4.57654 -0.177899 0
M  V30 2278 N 218.345 4.63033 -0.124365 0
M  V30 2279 C 219.08 5.72771 -0.268553 0
M  V30 2280 N 218.576 6.91206 -0.46972 0
M  V30 2281 N 220.369 5.61718 -0.2071 0
M  V30 2282 H 212.52 1.8349 -1.06981 0
M  V30 2283 H 214.783 0.848677 -0.422436 0
M  V30 2284 H 214.489 3.36726 -1.0153 0
M  V30 2285 H 214.363 3.70614 0.701808 0
M  V30 2286 H 216.75 2.76787 1.02338 0
M  V30 2287 H 216.831 2.45564 -0.716383 0
M  V30 2288 H 216.475 4.94542 -1.15717 0
M  V30 2289 H 216.405 5.23173 0.599797 0
M  V30 2290 H 218.896 3.7789 0.027011 0
M  V30 2291 H 219.209 7.70693 -0.570212 0
M  V30 2292 H 217.554 6.93156 -0.505876 0
M  V30 2293 H 220.745 4.68072 -0.0507986 0
M  V30 2294 H 220.918 6.47195 -0.322909 0
M  V30 2295 N 214.325 -0.140222 1.56975 0
M  V30 2296 C 215.553 -0.866437 1.87884 0
M  V30 2297 C 215.968 -1.74428 0.722517 0
M  V30 2298 O 215.325 -1.79891 -0.30749 0
M  V30 2299 C 215.376 -1.71753 3.18093 0
M  V30 2300 O 215.097 -0.875056 4.29272 0
M  V30 2301 C 216.598 -2.55074 3.62563 0
M  V30 2302 H 213.818 -0.25019 0.622612 0
M  V30 2303 H 216.362 -0.130977 2.0408 0
M  V30 2304 H 214.517 -2.40598 3.03631 0
M  V30 2305 H 214.931 -1.46002 5.03769 0
M  V30 2306 H 216.405 -3.10356 4.5649 0
M  V30 2307 H 216.882 -3.31434 2.88181 0
M  V30 2308 H 217.488 -1.91509 3.79743 0
M  V30 2309 N 215.803 -1.52179 -0.40978 0
M  V30 2310 C 217.051 -1.65878 -1.15451 0
M  V30 2311 C 217.372 -0.390771 -1.91044 0
M  V30 2312 O 216.642 0.594323 -1.86667 0
M  V30 2313 H 215.222 -0.611405 -0.429177 0
M  V30 2314 H 217.884 -1.89219 -0.467134 0
M  V30 2315 H 216.98 -2.49954 -1.86894 0
M  V30 2316 N 217.281 0.66697 -1.42791 0
M  V30 2317 C 218.228 1.7803 -1.4688 0
M  V30 2318 C 219.198 1.6299 -0.319919 0
M  V30 2319 O 220.383 1.83432 -0.525118 0
M  V30 2320 C 217.523 3.1611 -1.38451 0
M  V30 2321 C 216.636 3.42381 -2.63437 0
M  V30 2322 C 215.771 4.70232 -2.47094 0
M  V30 2323 C 214.81 4.89564 -3.67415 0
M  V30 2324 N 213.947 6.08661 -3.49966 0
M  V30 2325 H 218.787 1.7387 -2.42019 0
M  V30 2326 H 216.324 0.84868 -1.20149 0
M  V30 2327 H 218.282 3.95914 -1.31561 0
M  V30 2328 H 216.912 3.19374 -0.469033 0
M  V30 2329 H 215.964 2.56774 -2.80662 0
M  V30 2330 H 217.276 3.52557 -3.52853 0
M  V30 2331 H 216.43 5.5814 -2.37834 0
M  V30 2332 H 215.169 4.62353 -1.5518 0
M  V30 2333 H 214.174 4.00096 -3.77099 0
M  V30 2334 H 215.399 4.99282 -4.6032 0
M  V30 2335 H 213.345 6.0194 -2.60776 0
M  V30 2336 H 213.262 6.19733 -4.32975 0
M  V30 2337 H 214.53 6.99226 -3.44532 0
M  V30 2338 N 218.759 1.29093 0.90403 0
M  V30 2339 C 219.999 1.18076 1.66845 0
M  V30 2340 C 220.363 -0.26436 1.90171 0
M  V30 2341 O 221.564 -0.497423 2.64157 0
M  V30 2342 C 219.835 1.96722 2.98388 0
M  V30 2343 S 221.394 2.0219 3.89441 0
M  V30 2344 H 218.212 0.421104 0.572881 0
M  V30 2345 H 220.814 1.63322 1.07453 0
M  V30 2346 H 219.518 3.00866 2.7912 0
M  V30 2347 H 219.049 1.52064 3.62823 0
M  V30 2348 H 221.064 1.13545 4.83034 0
M  V30 2349 N 220.237 -1.11381 1.11499 0
M  V30 2350 C 221.483 -1.83403 0.865512 0
M  V30 2351 C 221.816 -1.84459 -0.607329 0
M  V30 2352 O 221.091 -1.29811 -1.44842 0
M  V30 2353 C 221.374 -3.30552 1.42855 0
M  V30 2354 C 221.227 -3.37886 2.96906 0
M  V30 2355 C 222.546 -4.26643 1.08 0
M  V30 2356 H 219.665 -0.665879 0.31587 0
M  V30 2357 H 222.307 -1.30601 1.37998 0
M  V30 2358 H 220.457 -3.75648 0.990985 0
M  V30 2359 H 222.129 -3.01343 3.49271 0
M  V30 2360 H 220.372 -2.78088 3.32941 0
M  V30 2361 H 221.043 -4.41458 3.31389 0
M  V30 2362 H 223.519 -3.89729 1.45775 0
M  V30 2363 H 222.395 -5.27986 1.50072 0
M  V30 2364 H 222.656 -4.42099 -0.00915037 0
M  V30 2365 N 221.715 -0.905404 -1.28997 0
M  V30 2366 C 222.678 -0.392253 -2.25819 0
M  V30 2367 C 223.678 0.476753 -1.5357 0
M  V30 2368 O 224.868 0.280994 -1.71919 0
M  V30 2369 C 222 0.438588 -3.38067 0
M  V30 2370 H 223.193 -1.24743 -2.72725 0
M  V30 2371 H 220.746 -0.684051 -1.40536 0
M  V30 2372 H 221.481 1.31352 -2.96508 0
M  V30 2373 H 221.266 -0.184167 -3.91667 0
M  V30 2374 H 222.756 0.78873 -4.10084 0
M  V30 2375 N 223.193 1.4272 -0.668489 0
M  V30 2376 C 224.44 2.01624 -0.18814 0
M  V30 2377 C 224.768 1.5282 1.20317 0
M  V30 2378 O 224.023 0.718323 1.8204 0
M  V30 2379 C 224.322 3.57021 -0.164499 0
M  V30 2380 C 223.988 4.25232 -1.49962 0
M  V30 2381 C 222.65 4.4358 -1.8652 0
M  V30 2382 C 225.002 4.63727 -2.37921 0
M  V30 2383 C 222.33 4.97694 -3.10674 0
M  V30 2384 C 224.682 5.19218 -3.6138 0
M  V30 2385 C 223.346 5.3578 -3.98115 0
M  V30 2386 H 222.616 0.737795 -0.0688454 0
M  V30 2387 H 225.263 1.70991 -0.862225 0
M  V30 2388 H 223.568 3.87285 0.593079 0
M  V30 2389 H 225.265 4.00372 0.224271 0
M  V30 2390 H 221.855 4.11306 -1.20522 0
M  V30 2391 H 226.039 4.4923 -2.10964 0
M  V30 2392 H 221.295 5.08702 -3.39164 0
M  V30 2393 H 225.469 5.4799 -4.29743 0
M  V30 2394 H 223.096 5.77475 -4.94395 0
M  V30 2395 N 224.671 0.411399 1.52136 0
M  V30 2396 C 225.619 -0.427633 2.28635 0
M  V30 2397 C 226.613 -1.04383 1.33419 0
M  V30 2398 O 227.819 -0.981772 1.50868 0
M  V30 2399 H 224.194 -0.156689 0.735495 0
M  V30 2400 H 226.165 0.238761 2.97443 0
M  V30 2401 C 224.914 -1.53082 3.12188 0
M  V30 2402 H 224.237 -1.06601 3.85326 0
M  V30 2403 H 225.677 -2.09167 3.68816 0
M  V30 2404 C 224.136 -2.49946 2.25895 0
M  V30 2405 O 224.666 -3.53884 1.90076 0
M  V30 2406 N 222.872 -2.2021 1.8962 0
M  V30 2407 H 222.419 -1.35719 2.18948 0
M  V30 2408 H 222.377 -2.85266 1.32176 0
M  V30 2409 N 226.149 -1.5696 0.141893 0
M  V30 2410 C 227.426 -1.87553 -0.555281 0
M  V30 2411 C 227.806 -1.04699 -1.83306 0
M  V30 2412 O 227.154 -0.132346 -2.28116 0
M  V30 2413 C 227.364 -3.39093 -0.825664 0
M  V30 2414 C 228.712 -4.08199 -1.16869 0
M  V30 2415 O 229.736 -3.44242 -0.915185 0
M  V30 2416 O 228.595 -5.21139 -1.6455 0
M  V30 2417 H 225.689 -0.777188 -0.282679 0
M  V30 2418 H 228.235 -1.68763 0.17812 0
M  V30 2419 H 227.007 -3.91221 0.0788633 0
M  V30 2420 H 226.63 -3.63393 -1.61343 0
M  V30 2421 N 227.627 0.131896 -1.57047 0
M  V30 2422 C 228.855 0.856461 -1.88341 0
M  V30 2423 C 229.27 1.74042 -0.731757 0
M  V30 2424 O 228.627 1.80051 0.297945 0
M  V30 2425 C 228.678 1.70064 -3.18999 0
M  V30 2426 O 228.399 0.852278 -4.2973 0
M  V30 2427 C 229.9 2.53148 -3.63911 0
M  V30 2428 H 227.12 0.246885 -0.62393 0
M  V30 2429 H 229.664 0.120152 -2.04147 0
M  V30 2430 H 227.819 2.38984 -3.04902 0
M  V30 2431 H 228.233 1.43329 -5.04537 0
M  V30 2432 H 229.707 3.07931 -4.58129 0
M  V30 2433 H 230.184 3.29901 -2.89935 0
M  V30 2434 H 230.79 1.89492 -3.80753 0
M  V30 2435 N 229.106 1.52395 0.401703 0
M  V30 2436 C 230.352 1.67065 1.14966 0
M  V30 2437 C 230.685 0.403052 1.89971 0
M  V30 2438 O 229.96 -0.598774 1.85054 0
M  V30 2439 C 230.243 2.8975 2.13815 0
M  V30 2440 C 230.096 4.26578 1.42658 0
M  V30 2441 C 231.415 3.07965 3.14397 0
M  V30 2442 H 228.534 0.607968 0.416587 0
M  V30 2443 H 231.176 1.84965 0.434511 0
M  V30 2444 H 229.326 2.74619 2.74803 0
M  V30 2445 H 230.998 4.53451 0.847329 0
M  V30 2446 H 229.241 4.27639 0.72849 0
M  V30 2447 H 229.912 5.08483 2.14823 0
M  V30 2448 H 232.388 3.22043 2.63491 0
M  V30 2449 H 231.264 3.95308 3.80819 0
M  V30 2450 H 231.525 2.21611 3.82545 0
M  V30 2451 N 230.584 -0.659388 1.43143 0
M  V30 2452 C 231.531 -1.77249 1.47822 0
M  V30 2453 C 232.501 -1.62818 0.328558 0
M  V30 2454 O 233.686 -1.83151 0.534838 0
M  V30 2455 C 230.826 -3.15371 1.40126 0
M  V30 2456 C 229.939 -3.4098 2.65249 0
M  V30 2457 C 229.074 -4.68915 2.49584 0
M  V30 2458 C 228.113 -4.87608 3.70006 0
M  V30 2459 N 227.25 -6.06796 3.53189 0
M  V30 2460 H 232.09 -1.72584 2.42938 0
M  V30 2461 H 229.627 -0.842297 1.20598 0
M  V30 2462 H 231.585 -3.9521 1.33659 0
M  V30 2463 H 230.215 -3.19121 0.485964 0
M  V30 2464 H 229.267 -2.55282 2.8202 0
M  V30 2465 H 230.579 -3.50681 3.54717 0
M  V30 2466 H 229.733 -5.56871 2.4079 0
M  V30 2467 H 228.472 -4.61524 1.5763 0
M  V30 2468 H 227.477 -3.9809 3.79215 0
M  V30 2469 H 228.702 -4.96834 4.62961 0
M  V30 2470 H 226.648 -6.00549 2.63965 0
M  V30 2471 H 226.565 -6.17428 4.36255 0
M  V30 2472 H 227.833 -6.9739 3.48236 0
M  V30 2473 N 232.062 -1.29571 -0.897171 0
M  V30 2474 C 233.29 -1.20583 -1.68129 0
M  V30 2475 C 233.705 0.233181 -1.87354 0
M  V30 2476 O 233.062 1.15579 -1.41236 0
M  V30 2477 C 233.113 -1.91772 -3.06441 0
M  V30 2478 O 232.834 -3.30053 -2.88091 0
M  V30 2479 C 234.335 -1.89291 -4.00854 0
M  V30 2480 H 231.555 -0.417826 -0.525036 0
M  V30 2481 H 234.099 -1.70987 -1.12177 0
M  V30 2482 H 232.254 -1.45196 -3.59161 0
M  V30 2483 H 232.668 -3.65942 -3.75748 0
M  V30 2484 H 234.142 -2.43662 -4.95311 0
M  V30 2485 H 234.619 -0.869014 -4.30517 0
M  V30 2486 H 235.225 -2.35622 -3.54066 0
M  V30 2487 N 233.54 1.10788 -1.12088 0
M  V30 2488 C 234.78 1.84297 -0.883974 0
M  V30 2489 C 235.144 1.83036 0.579797 0
M  V30 2490 O 236.345 2.52061 0.933734 0
M  V30 2491 C 234.616 3.27173 -1.43849 0
M  V30 2492 S 236.175 4.17853 -1.33957 0
M  V30 2493 H 232.993 0.635433 -0.318977 0
M  V30 2494 H 235.595 1.33341 -1.4297 0
M  V30 2495 H 234.299 3.25658 -2.49749 0
M  V30 2496 H 233.83 3.83198 -0.890096 0
M  V30 2497 H 235.845 4.95239 -0.308603 0
M  V30 2498 N 235.018 0.912232 1.28515 0
M  V30 2499 C 235.928 0.404506 2.31086 0
M  V30 2500 C 236.944 -0.50707 1.66448 0
M  V30 2501 O 238.12 -0.393624 1.97516 0
M  V30 2502 C 235.185 -0.348572 3.44943 0
M  V30 2503 C 234.246 0.59604 4.25142 0
M  V30 2504 C 233.479 -0.121194 5.33562 0
M  V30 2505 O 233.702 -1.34317 5.5436 0
M  V30 2506 O 232.636 0.542716 5.99448 0
M  V30 2507 H 236.462 1.25579 2.76521 0
M  V30 2508 H 234.047 0.676998 1.33181 0
M  V30 2509 H 235.929 -0.77395 4.14232 0
M  V30 2510 H 234.604 -1.17571 3.01594 0
M  V30 2511 H 233.511 1.07079 3.58448 0
M  V30 2512 H 234.844 1.38995 4.72167 0
M  V30 2513 N 236.496 -1.42363 0.676048 0
M  V30 2514 C 237.745 -2.00745 0.196037 0
M  V30 2515 C 238.058 -1.54083 -1.20489 0
M  V30 2516 O 239.264 -2.04891 -1.78134 0
M  V30 2517 C 237.72 -3.58651 0.299616 0
M  V30 2518 C 237.328 -4.143 1.70468 0
M  V30 2519 C 239.072 -4.24326 -0.121619 0
M  V30 2520 C 236.979 -5.64574 1.76096 0
M  V30 2521 H 235.909 -0.750787 0.0695301 0
M  V30 2522 H 238.56 -1.63072 0.841412 0
M  V30 2523 H 236.942 -3.93833 -0.413673 0
M  V30 2524 H 238.116 -3.90575 2.44515 0
M  V30 2525 H 236.431 -3.61081 2.07387 0
M  V30 2526 H 239.028 -5.34607 -0.0997362 0
M  V30 2527 H 239.371 -3.99897 -1.15708 0
M  V30 2528 H 239.904 -3.94108 0.540706 0
M  V30 2529 H 236.643 -5.93804 2.77628 0
M  V30 2530 H 236.163 -5.90286 1.06406 0
M  V30 2531 H 237.842 -6.29013 1.51496 0
M  V30 2532 N 237.974 -0.419461 -1.51915 0
M  V30 2533 C 239.221 0.152939 -2.01922 0
M  V30 2534 C 239.549 1.4426 -1.30458 0
M  V30 2535 O 238.804 1.91514 -0.402593 0
M  V30 2536 C 239.103 0.437067 -3.54717 0
M  V30 2537 C 238.769 -0.764632 -4.44369 0
M  V30 2538 C 237.431 -1.09423 -4.68594 0
M  V30 2539 C 239.783 -1.56713 -4.97082 0
M  V30 2540 C 237.111 -2.22732 -5.42777 0
M  V30 2541 C 239.463 -2.69107 -5.72507 0
M  V30 2542 C 238.127 -3.02541 -5.95 0
M  V30 2543 H 237.397 0.0559644 -0.738884 0
M  V30 2544 H 240.044 -0.562998 -1.83037 0
M  V30 2545 H 238.349 1.23469 -3.71837 0
M  V30 2546 H 240.046 0.893083 -3.90928 0
M  V30 2547 H 236.636 -0.497775 -4.257 0
M  V30 2548 H 240.82 -1.32571 -4.78266 0
M  V30 2549 H 236.076 -2.48971 -5.58411 0
M  V30 2550 H 240.25 -3.31671 -6.12346 0
M  V30 2551 H 237.877 -3.90457 -6.52264 0
M  V30 2552 N 239.452 1.56882 -0.150215 0
M  V30 2553 C 240.7 1.9584 0.499105 0
M  V30 2554 C 241.021 1.03623 1.65188 0
M  V30 2555 O 240.291 0.0984084 1.95653 0
M  V30 2556 H 238.871 0.723119 0.187373 0
M  V30 2557 H 241.533 1.9358 -0.226466 0
M  V30 2558 H 240.629 2.99638 0.873122 0
M  V30 2559 N 240.93 -0.123565 1.57115 0
M  V30 2560 C 242.176 -0.828428 1.85765 0
M  V30 2561 C 242.531 -1.77709 0.737371 0
M  V30 2562 O 241.824 -1.89787 -0.262978 0
M  V30 2563 C 242.018 -1.62016 3.18568 0
M  V30 2564 C 241.847 -0.749663 4.43407 0
M  V30 2565 C 240.617 -0.406251 5.03664 0
M  V30 2566 C 242.815 -0.0693505 5.14253 0
M  V30 2567 N 240.797 0.475389 6.12057 0
M  V30 2568 C 242.168 0.671474 6.16353 0
M  V30 2569 C 244.223 0.00754393 4.97899 0
M  V30 2570 C 242.926 1.48197 7.03868 0
M  V30 2571 C 244.952 0.804845 5.85898 0
M  V30 2572 C 244.314 1.53388 6.87497 0
M  V30 2573 H 240.413 -0.280219 0.73007 0
M  V30 2574 H 242.997 -0.0924183 1.94481 0
M  V30 2575 H 241.168 -2.32724 3.10957 0
M  V30 2576 H 242.9 -2.27 3.35042 0
M  V30 2577 H 239.655 -0.747446 4.67665 0
M  V30 2578 H 240.079 0.907924 6.70884 0
M  V30 2579 H 244.721 -0.541741 4.19315 0
M  V30 2580 H 242.439 2.04242 7.81864 0
M  V30 2581 H 246.025 0.866642 5.75309 0
M  V30 2582 H 244.905 2.1409 7.5441 0
M  V30 2583 N 242.408 -1.52605 -0.393616 0
M  V30 2584 C 243.648 -1.6911 -1.1481 0
M  V30 2585 C 244.012 -0.41969 -1.87357 0
M  V30 2586 O 245.213 -0.461034 -2.64817 0
M  V30 2587 C 243.484 -2.88909 -2.10395 0
M  V30 2588 S 245.043 -3.25977 -2.93742 0
M  V30 2589 H 241.861 -0.595337 -0.38871 0
M  V30 2590 H 244.463 -1.90641 -0.433178 0
M  V30 2591 H 243.167 -3.79672 -1.55812 0
M  V30 2592 H 242.698 -2.69698 -2.86403 0
M  V30 2593 H 244.713 -2.75806 -4.12487 0
M  V30 2594 N 243.887 0.651787 -1.4349 0
M  V30 2595 C 245.298 1.233 -1.40193 0
M  V30 2596 C 245.649 1.9591 -0.106727 0
M  V30 2597 O 244.774 2.01316 0.793773 0
M  V30 2598 C 245.369 2.24257 -2.53957 0
M  V30 2599 C 243.928 2.77852 -2.5392 0
M  V30 2600 C 243.075 1.52517 -2.3159 0
M  V30 2601 H 246.026 0.443717 -1.52371 0
M  V30 2602 H 246.047 3.0646 -2.25528 0
M  V30 2603 H 245.559 1.71382 -3.4821 0
M  V30 2604 H 243.66 3.34786 -1.63551 0
M  V30 2605 H 243.773 3.25299 -3.51735 0
M  V30 2606 H 242.137 1.79915 -1.80285 0
M  V30 2607 H 242.92 1.01574 -3.27929 0
M  V30 2608 N 245.365 1.30045 0.890287 0
M  V30 2609 C 246.611 1.18737 1.64406 0
M  V30 2610 C 246.944 -0.258525 1.92472 0
M  V30 2611 O 246.219 -1.18562 1.54186 0
M  V30 2612 C 246.502 2.01087 2.98724 0
M  V30 2613 C 246.355 3.53867 2.77665 0
M  V30 2614 C 247.674 1.84457 3.9958 0
M  V30 2615 H 244.793 0.432698 0.596608 0
M  V30 2616 H 247.435 1.5962 1.0306 0
M  V30 2617 H 245.585 1.66349 3.51084 0
M  V30 2618 H 247.257 3.98637 2.32133 0
M  V30 2619 H 245.5 3.78318 2.12269 0
M  V30 2620 H 246.171 4.06772 3.7315 0
M  V30 2621 H 248.647 2.14817 3.56361 0
M  V30 2622 H 247.523 2.44411 4.91482 0
M  V30 2623 H 247.784 0.802276 4.3476 0
M  V30 2624 N 246.843 -1.10192 1.12674 0
M  V30 2625 C 247.753 -2.20172 0.810026 0
M  V30 2626 C 248.769 -1.72821 -0.202188 0
M  V30 2627 O 249.945 -2.01369 -0.0351691 0
M  V30 2628 C 247.01 -3.45631 0.272007 0
M  V30 2629 C 246.071 -4.07704 1.34447 0
M  V30 2630 C 245.304 -5.27175 0.832029 0
M  V30 2631 O 245.527 -5.69425 -0.333284 0
M  V30 2632 O 244.461 -5.80168 1.60277 0
M  V30 2633 H 248.287 -2.49701 1.72867 0
M  V30 2634 H 245.872 -1.18977 0.903597 0
M  V30 2635 H 247.754 -4.21394 -0.0230219 0
M  V30 2636 H 246.429 -3.17723 -0.619164 0
M  V30 2637 H 245.336 -3.33614 1.6927 0
M  V30 2638 H 246.669 -4.3982 2.2095 0
M  V30 2639 N 248.321 -0.919034 -1.28029 0
M  V30 2640 C 249.567 -0.555757 -1.95036 0
M  V30 2641 C 249.9 0.899198 -1.72128 0
M  V30 2642 O 249.175 1.64023 -1.04531 0
M  V30 2643 C 249.458 -0.872024 -3.49382 0
M  V30 2644 C 249.311 -2.3801 -3.81669 0
M  V30 2645 C 250.63 -0.37185 -4.38526 0
M  V30 2646 H 247.749 -0.203386 -0.708381 0
M  V30 2647 H 250.391 -1.14924 -1.51303 0
M  V30 2648 H 248.541 -0.366946 -3.86763 0
M  V30 2649 H 250.213 -2.9562 -3.54128 0
M  V30 2650 H 248.456 -2.83289 -3.28526 0
M  V30 2651 H 249.127 -2.55192 -4.8947 0
M  V30 2652 H 251.603 -0.804602 -4.08247 0
M  V30 2653 H 250.479 -0.622173 -5.45362 0
M  V30 2654 H 250.74 0.727934 -4.36066 0
M  V30 2655 N 249.799 1.42003 -0.683588 0
M  V30 2656 C 251.076 1.95112 -0.138075 0
M  V30 2657 C 251.456 1.62359 1.34918 0
M  V30 2658 O 250.804 0.924311 2.08971 0
M  V30 2659 C 251.014 3.46505 -0.416581 0
M  V30 2660 C 252.362 4.23254 -0.337834 0
M  V30 2661 O 253.386 3.54468 -0.35082 0
M  V30 2662 O 252.245 5.45743 -0.287596 0
M  V30 2663 H 249.339 0.826961 -0.00797996 0
M  V30 2664 H 251.885 1.51784 -0.758924 0
M  V30 2665 H 250.657 3.63582 -1.4465 0
M  V30 2666 H 250.28 3.969 0.235839 0
M  V30 2667 N 251.277 0.427512 1.51691 0
M  V30 2668 C 252.554 -0.201684 1.94557 0
M  V30 2669 C 252.934 -1.60981 1.36559 0
M  V30 2670 O 252.282 -2.21814 0.548702 0
M  V30 2671 C 252.492 -0.189394 3.48486 0
M  V30 2672 C 253.84 -0.39978 4.22714 0
M  V30 2673 O 254.864 -0.267945 3.55191 0
M  V30 2674 O 253.723 -0.661249 5.42485 0
M  V30 2675 H 250.817 -0.135261 0.815864 0
M  V30 2676 H 253.363 0.484782 1.62628 0
M  V30 2677 H 252.135 0.795431 3.8313 0
M  V30 2678 H 251.758 -0.919187 3.86829 0
M  V30 2679 N 252.755 -1.56801 0.158532 0
M  V30 2680 C 254.032 -1.88131 -0.535357 0
M  V30 2681 C 254.412 -1.06638 -1.82186 0
M  V30 2682 O 253.76 -0.156533 -2.27963 0
M  V30 2683 C 253.97 -3.39949 -0.789653 0
M  V30 2684 C 255.318 -4.09416 -1.12533 0
M  V30 2685 O 256.342 -3.45194 -0.878622 0
M  V30 2686 O 255.201 -5.22855 -1.59014 0
M  V30 2687 H 252.295 -0.780143 -0.27442 0
M  V30 2688 H 254.841 -1.68564 0.19601 0
M  V30 2689 H 253.613 -3.91115 0.120353 0
M  V30 2690 H 253.236 -3.65084 -1.57479 0
M  V30 2691 N 254.233 0.115231 -1.57178 0
M  V30 2692 C 255.482 0.820945 -1.84237 0
M  V30 2693 C 255.795 1.80866 -0.744761 0
M  V30 2694 O 257.001 2.56083 -0.901871 0
M  V30 2695 C 255.457 1.51072 -3.26658 0
M  V30 2696 C 255.065 0.563795 -4.44438 0
M  V30 2697 C 256.809 2.20134 -3.62962 0
M  V30 2698 C 254.716 1.25701 -5.77887 0
M  V30 2699 H 253.646 0.310328 -0.687177 0
M  V30 2700 H 256.297 0.0737134 -1.83352 0
M  V30 2701 H 254.679 2.30471 -3.22024 0
M  V30 2702 H 255.853 -0.197247 -4.60378 0
M  V30 2703 H 254.168 -0.0200638 -4.16395 0
M  V30 2704 H 256.765 2.72696 -4.59936 0
M  V30 2705 H 257.108 2.98107 -2.90582 0
M  V30 2706 H 257.641 1.47619 -3.69396 0
M  V30 2707 H 254.38 0.518493 -6.53446 0
M  V30 2708 H 253.9 1.98997 -5.65827 0
M  V30 2709 H 255.579 1.78915 -6.2177 0
M  V30 2710 N 255.711 1.52812 0.385517 0
M  V30 2711 C 257.122 1.5993 0.963293 0
M  V30 2712 C 257.473 0.454302 1.90868 0
M  V30 2713 O 256.598 -0.422132 2.12243 0
M  V30 2714 C 257.193 2.89871 1.75387 0
M  V30 2715 C 255.752 2.99389 2.28129 0
M  V30 2716 C 254.899 2.55071 1.08783 0
M  V30 2717 H 257.85 1.5784 0.164948 0
M  V30 2718 H 257.871 2.76553 2.61341 0
M  V30 2719 H 257.383 3.73186 1.06554 0
M  V30 2720 H 255.484 2.20619 3.00263 0
M  V30 2721 H 255.597 4.04096 2.57377 0
M  V30 2722 H 253.961 2.09473 1.4489 0
M  V30 2723 H 254.744 3.40785 0.414807 0
M  V30 2724 N 257.189 -0.644168 1.43834 0
M  V30 2725 C 258.605 -0.960875 1.27434 0
M  V30 2726 C 258.805 -2.00499 0.200618 0
M  V30 2727 O 257.861 -2.49018 -0.417906 0
M  V30 2728 C 259.174 -1.43653 2.64167 0
M  V30 2729 C 260.722 -1.55271 2.71772 0
M  V30 2730 C 261.197 -2.06224 4.08944 0
M  V30 2731 N 262.688 -2.13513 4.11055 0
M  V30 2732 C 263.423 -2.54081 5.14033 0
M  V30 2733 N 262.919 -2.9388 6.27381 0
M  V30 2734 N 264.712 -2.54101 5.01387 0
M  V30 2735 H 256.863 0.0465779 2.12349 0
M  V30 2736 H 259.126 -0.0417638 0.94708 0
M  V30 2737 H 258.832 -0.743706 3.43747 0
M  V30 2738 H 258.706 -2.40993 2.90176 0
M  V30 2739 H 261.093 -2.23653 1.92519 0
M  V30 2740 H 261.174 -0.563395 2.49519 0
M  V30 2741 H 260.818 -1.38441 4.88668 0
M  V30 2742 H 260.748 -3.06003 4.28567 0
M  V30 2743 H 263.239 -1.85493 3.29242 0
M  V30 2744 H 263.552 -3.2361 7.01781 0
M  V30 2745 H 261.897 -2.91663 6.30839 0
M  V30 2746 H 265.088 -2.22391 4.11898 0
M  V30 2747 H 265.261 -2.85394 5.81768 0
M  V30 2748 N 258.668 -1.30515 -0.883378 0
M  V30 2749 C 260.079 -1.17509 -1.45081 0
M  V30 2750 C 260.43 0.223605 -1.94922 0
M  V30 2751 O 259.555 1.12041 -1.85137 0
M  V30 2752 C 260.15 -2.12715 -2.63701 0
M  V30 2753 C 258.709 -2.03682 -3.16529 0
M  V30 2754 C 257.856 -2.02706 -1.89224 0
M  V30 2755 H 260.807 -1.42762 -0.693165 0
M  V30 2756 H 260.828 -1.70891 -3.39965 0
M  V30 2757 H 260.34 -3.14505 -2.27395 0
M  V30 2758 H 258.441 -1.05039 -3.57488 0
M  V30 2759 H 258.554 -2.92146 -3.7972 0
M  V30 2760 H 256.918 -1.4753 -2.07622 0
M  V30 2761 H 257.701 -3.06229 -1.55174 0
M  V30 2762 N 260.146 1.09593 -1.13257 0
M  V30 2763 C 261.109 2.14359 -0.811358 0
M  V30 2764 C 262.109 1.59808 0.178377 0
M  V30 2765 O 263.299 1.74132 -0.0484911 0
M  V30 2766 C 260.431 3.40269 -0.207276 0
M  V30 2767 H 261.624 2.44284 -1.73969 0
M  V30 2768 H 259.177 1.25102 -0.936973 0
M  V30 2769 H 259.912 3.15969 0.73036 0
M  V30 2770 H 259.697 3.81154 -0.919992 0
M  V30 2771 H 261.187 4.176 0.000667944 0
M  V30 2772 N 261.624 0.925811 1.2754 0
M  V30 2773 C 262.554 0.440748 2.29303 0
M  V30 2774 C 263.535 -0.497971 1.62648 0
M  V30 2775 O 264.72 -0.403126 1.8997 0
M  V30 2776 C 261.85 -0.309048 3.45922 0
M  V30 2777 C 260.804 0.54166 4.24559 0
M  V30 2778 C 260.13 -0.337191 5.33636 0
M  V30 2779 C 261.43 1.80516 4.90114 0
M  V30 2780 H 263.124 1.29121 2.70126 0
M  V30 2781 H 260.67 0.622323 1.29858 0
M  V30 2782 H 262.623 -0.659315 4.1621 0
M  V30 2783 H 261.347 -1.19352 3.04011 0
M  V30 2784 H 260.006 0.874609 3.56014 0
M  V30 2785 H 259.654 -1.22056 4.87966 0
M  V30 2786 H 259.354 0.228497 5.87156 0
M  V30 2787 H 260.878 -0.683072 6.06767 0
M  V30 2788 H 262.292 1.52307 5.52698 0
M  V30 2789 H 260.689 2.3142 5.53683 0
M  V30 2790 H 261.759 2.52581 4.13921 0
M  V30 2791 N 263.102 -1.41638 0.69111 0
M  V30 2792 C 264.032 -2.3347 0.037248 0
M  V30 2793 C 265.013 -1.51575 -0.771947 0
M  V30 2794 O 266.198 -1.80126 -0.72582 0
M  V30 2795 C 263.328 -3.35354 -0.903064 0
M  V30 2796 C 262.282 -4.27526 -0.201288 0
M  V30 2797 C 261.608 -5.19747 -1.25565 0
M  V30 2798 C 262.908 -5.13959 0.929689 0
M  V30 2799 H 264.602 -2.88397 0.804227 0
M  V30 2800 H 262.148 -1.38669 0.388189 0
M  V30 2801 H 264.101 -3.98519 -1.36969 0
M  V30 2802 H 262.825 -2.78767 -1.70166 0
M  V30 2803 H 261.484 -3.65779 0.245265 0
M  V30 2804 H 261.132 -4.59479 -2.04666 0
M  V30 2805 H 260.832 -5.8225 -0.791128 0
M  V30 2806 H 262.356 -5.85789 -1.72288 0
M  V30 2807 H 263.77 -5.70718 0.543546 0
M  V30 2808 H 262.167 -5.85379 1.32103 0
M  V30 2809 H 263.237 -4.51389 1.77133 0
M  V30 2810 N 264.58 -0.43555 -1.51462 0
M  V30 2811 C 265.996 -0.0877501 -1.59359 0
M  V30 2812 C 266.196 1.4027 -1.4466 0
M  V30 2813 O 265.252 2.17243 -1.28693 0
M  V30 2814 C 266.565 -0.606264 -2.94525 0
M  V30 2815 C 268.113 -0.566548 -3.0783 0
M  V30 2816 C 268.588 -1.06201 -4.45517 0
M  V30 2817 N 270.079 -1.01992 -4.51832 0
M  V30 2818 C 270.814 -1.37417 -5.5669 0
M  V30 2819 N 270.31 -1.80119 -6.68976 0
M  V30 2820 N 272.103 -1.29245 -5.47039 0
M  V30 2821 H 264.254 -1.40533 -1.59261 0
M  V30 2822 H 266.517 -0.578992 -0.750648 0
M  V30 2823 H 266.223 -1.64901 -3.10645 0
M  V30 2824 H 266.097 -0.0302097 -3.77188 0
M  V30 2825 H 268.484 0.467208 -2.91378 0
M  V30 2826 H 268.565 -1.17898 -2.2701 0
M  V30 2827 H 268.209 -2.09422 -4.62715 0
M  V30 2828 H 268.139 -0.426127 -5.24873 0
M  V30 2829 H 270.63 -0.706308 -3.71241 0
M  V30 2830 H 270.943 -2.05392 -7.45006 0
M  V30 2831 H 269.288 -1.84044 -6.70189 0
M  V30 2832 H 272.479 -0.957522 -4.58202 0
M  V30 2833 H 272.652 -1.57182 -6.28648 0
M  V30 2834 N 266.058 1.56714 -0.166846 0
M  V30 2835 C 266.968 2.21331 0.777791 0
M  V30 2836 C 267.984 1.20358 1.25658 0
M  V30 2837 O 269.16 1.53005 1.30964 0
M  V30 2838 C 266.225 2.83787 1.99163 0
M  V30 2839 C 265.286 3.99947 1.56016 0
M  V30 2840 C 264.519 4.59415 2.71613 0
M  V30 2841 O 264.742 4.17769 3.88362 0
M  V30 2842 O 263.676 5.49359 2.45945 0
M  V30 2843 H 267.502 3.02605 0.257636 0
M  V30 2844 H 265.087 1.49275 0.0611393 0
M  V30 2845 H 266.969 3.23405 2.70161 0
M  V30 2846 H 265.644 2.05513 2.50092 0
M  V30 2847 H 264.551 3.65007 0.819809 0
M  V30 2848 H 265.884 4.79801 1.09782 0
M  V30 2849 N 267.536 -0.106894 1.57237 0
M  V30 2850 C 268.499 -1.11466 2.0027 0
M  V30 2851 C 269.499 -1.33623 0.894519 0
M  V30 2852 O 270.689 -1.29935 1.16028 0
M  V30 2853 C 267.821 -2.46646 2.35327 0
M  V30 2854 H 269.014 -0.744516 2.90512 0
M  V30 2855 H 266.567 -0.351576 1.52295 0
M  V30 2856 H 267.302 -2.88558 1.48003 0
M  V30 2857 H 267.087 -2.31915 3.16161 0
M  V30 2858 H 268.577 -3.19151 2.69318 0
M  V30 2859 N 269.014 -1.53014 -0.377408 0
M  V30 2860 C 269.924 -1.81557 -1.48574 0
M  V30 2861 C 270.94 -0.703102 -1.59162 0
M  V30 2862 O 272.116 -0.99192 -1.75279 0
M  V30 2863 C 269.181 -1.9889 -2.83978 0
M  V30 2864 C 268.242 -3.22801 -2.83016 0
M  V30 2865 C 267.475 -3.39298 -4.11962 0
M  V30 2866 O 267.698 -2.60345 -5.0752 0
M  V30 2867 O 266.632 -4.32604 -4.18494 0
M  V30 2868 H 270.458 -2.75695 -1.27382 0
M  V30 2869 H 268.043 -1.38248 -0.566373 0
M  V30 2870 H 269.925 -2.11931 -3.6423 0
M  V30 2871 H 268.6 -1.07942 -3.05172 0
M  V30 2872 H 267.507 -3.15193 -2.01505 0
M  V30 2873 H 268.84 -4.13632 -2.66775 0
M  V30 2874 N 270.492 0.636531 -1.44174 0
M  V30 2875 C 271.44 1.76995 -1.50915 0
M  V30 2876 C 272.434 1.65053 -0.381295 0
M  V30 2877 O 273.64 1.71197 -0.55601 0
M  V30 2878 H 270.015 0.584247 -0.473455 0
M  V30 2879 H 271.986 1.68432 -2.4632 0
M  V30 2880 C 270.735 3.15314 -1.46534 0
M  V30 2881 H 270.058 3.25149 -2.32633 0
M  V30 2882 H 271.498 3.9453 -1.55312 0
M  V30 2883 C 269.957 3.3639 -0.185305 0
M  V30 2884 O 270.487 3.94699 0.746688 0
M  V30 2885 N 268.693 2.9046 -0.0901606 0
M  V30 2886 H 268.24 2.43193 -0.849416 0
M  V30 2887 H 268.198 3.04937 0.765553 0
M  V30 2888 N 271.97 1.30982 0.876444 0
M  V30 2889 C 273.217 1.20296 1.62896 0
M  V30 2890 C 273.545 -0.240395 1.93009 0
M  V30 2891 O 272.8 -1.18733 1.55567 0
M  V30 2892 C 273.099 1.98572 2.9716 0
M  V30 2893 C 272.765 3.48125 2.86566 0
M  V30 2894 C 271.427 3.88905 2.83383 0
M  V30 2895 C 273.779 4.43322 2.74071 0
M  V30 2896 C 271.107 5.2316 2.65556 0
M  V30 2897 C 273.459 5.77695 2.57781 0
M  V30 2898 C 272.123 6.17704 2.52979 0
M  V30 2899 H 271.393 0.440193 0.59608 0
M  V30 2900 H 274.04 1.62177 1.01837 0
M  V30 2901 H 272.345 1.49352 3.62217 0
M  V30 2902 H 274.042 1.8769 3.54364 0
M  V30 2903 H 270.632 3.15723 2.89856 0
M  V30 2904 H 274.816 4.12752 2.75589 0
M  V30 2905 H 270.072 5.53241 2.60259 0
M  V30 2906 H 274.246 6.51091 2.47089 0
M  V30 2907 H 271.873 7.21678 2.38924 0
M  V30 2908 N 273.449 -1.08991 1.13837 0
M  V30 2909 C 274.677 -1.85011 0.926202 0
M  V30 2910 C 275.092 -1.8135 -0.525127 0
M  V30 2911 O 274.449 -1.21287 -1.36366 0
M  V30 2912 C 274.5 -3.32802 1.41155 0
M  V30 2913 O 274.221 -3.36444 2.80601 0
M  V30 2914 C 275.722 -4.25649 1.23847 0
M  V30 2915 H 272.942 -0.584249 0.32999 0
M  V30 2916 H 275.486 -1.37688 1.51202 0
M  V30 2917 H 273.641 -3.77536 0.868631 0
M  V30 2918 H 274.055 -4.28657 3.02248 0
M  V30 2919 H 275.529 -5.27485 1.62675 0
M  V30 2920 H 276.006 -4.38828 0.18065 0
M  V30 2921 H 276.612 -3.86735 1.76964 0
M  V30 2922 N 274.927 -0.932562 -1.27047 0
M  V30 2923 C 275.857 -0.452902 -2.29066 0
M  V30 2924 C 276.838 0.489338 -1.62909 0
M  V30 2925 O 278.023 0.393046 -1.90181 0
M  V30 2926 C 275.153 0.290698 -3.46081 0
M  V30 2927 C 274.107 -0.564168 -4.24265 0
M  V30 2928 C 273.433 0.308886 -5.33807 0
M  V30 2929 C 274.733 -1.83112 -4.89149 0
M  V30 2930 H 276.427 -1.30552 -2.69437 0
M  V30 2931 H 273.973 -0.629201 -1.29526 0
M  V30 2932 H 275.926 0.637233 -4.16554 0
M  V30 2933 H 274.65 1.17738 -3.0464 0
M  V30 2934 H 273.309 -0.893477 -3.55545 0
M  V30 2935 H 272.957 1.19467 -4.88607 0
M  V30 2936 H 272.657 -0.259633 -5.87026 0
M  V30 2937 H 274.181 0.650884 -6.07121 0
M  V30 2938 H 275.595 -1.55236 -5.51883 0
M  V30 2939 H 273.992 -2.34353 -5.52448 0
M  V30 2940 H 275.062 -2.54772 -4.12576 0
M  V30 2941 N 276.405 1.4127 -0.698611 0
M  V30 2942 C 277.652 2.0118 -0.230865 0
M  V30 2943 C 277.98 1.55338 1.17049 0
M  V30 2944 O 277.235 0.756775 1.80475 0
M  V30 2945 C 277.534 3.56592 -0.240192 0
M  V30 2946 C 277.2 4.21955 -1.58948 0
M  V30 2947 C 275.862 4.39524 -1.95887 0
M  V30 2948 C 278.214 4.58576 -2.47704 0
M  V30 2949 C 275.542 4.90992 -3.2116 0
M  V30 2950 C 277.894 5.11435 -3.72313 0
M  V30 2951 C 276.558 5.27215 -4.0939 0
M  V30 2952 H 275.828 0.736169 -0.0844796 0
M  V30 2953 H 278.475 1.69124 -0.8983 0
M  V30 2954 H 276.78 3.88456 0.510797 0
M  V30 2955 H 278.477 4.00758 0.139296 0
M  V30 2956 H 275.067 4.08657 -1.29219 0
M  V30 2957 H 279.251 4.44654 -2.20445 0
M  V30 2958 H 274.507 5.01393 -3.49878 0
M  V30 2959 H 278.681 5.38752 -4.4127 0
M  V30 2960 H 276.308 5.66859 -5.06533 0
M  V30 2961 N 277.883 0.443576 1.51229 0
M  V30 2962 C 279.132 -0.122332 2.01329 0
M  V30 2963 C 279.445 -1.43237 1.33201 0
M  V30 2964 O 280.651 -2.0816 1.74304 0
M  V30 2965 C 279.107 -0.268551 3.58897 0
M  V30 2966 C 278.715 1.03142 4.35965 0
M  V30 2967 C 280.459 -0.787894 4.17124 0
M  V30 2968 C 278.366 0.850504 5.85252 0
M  V30 2969 H 277.296 -0.0494929 0.752374 0
M  V30 2970 H 279.947 0.574289 1.74282 0
M  V30 2971 H 278.329 -1.02832 3.82415 0
M  V30 2972 H 279.503 1.80001 4.24189 0
M  V30 2973 H 277.818 1.47977 3.89219 0
M  V30 2974 H 280.415 -0.939841 5.26375 0
M  V30 2975 H 280.758 -1.77201 3.76703 0
M  V30 2976 H 281.291 -0.0862669 3.97706 0
M  V30 2977 H 278.03 1.80718 6.30096 0
M  V30 2978 H 277.55 0.121825 5.99676 0
M  V30 2979 H 279.229 0.506163 6.45017 0
M  V30 2980 N 279.361 -1.56624 0.175154 0
M  V30 2981 C 280.308 -2.18149 -0.753634 0
M  V30 2982 C 281.278 -1.12265 -1.22417 0
M  V30 2983 O 282.463 -1.40432 -1.29165 0
M  V30 2984 C 279.603 -2.82933 -1.97592 0
M  V30 2985 C 278.716 -4.03289 -1.5486 0
M  V30 2986 C 277.851 -4.55988 -2.72485 0
M  V30 2987 C 276.89 -5.68746 -2.26262 0
M  V30 2988 N 276.027 -6.15938 -3.36994 0
M  V30 2989 H 280.867 -2.9717 -0.222195 0
M  V30 2990 H 278.404 -1.46774 -0.0979422 0
M  V30 2991 H 280.362 -3.18653 -2.69288 0
M  V30 2992 H 278.992 -2.06509 -2.481 0
M  V30 2993 H 278.044 -3.73364 -0.728246 0
M  V30 2994 H 279.356 -4.849 -1.16933 0
M  V30 2995 H 278.51 -4.9391 -3.52332 0
M  V30 2996 H 277.249 -3.73443 -3.13674 0
M  V30 2997 H 276.254 -5.30372 -1.44863 0
M  V30 2998 H 277.479 -6.53095 -1.86127 0
M  V30 2999 H 275.425 -5.36321 -3.77751 0
M  V30 3000 H 275.342 -6.92548 -3.03172 0
M  V30 3001 H 276.61 -6.58511 -4.17114 0
M  V30 3002 N 280.839 0.0985539 -1.57292 0
M  V30 3003 C 281.787 1.1387 -2.02821 0
M  V30 3004 C 282.781 1.41676 -0.928666 0
M  V30 3005 O 283.987 1.41398 -1.11385 0
M  V30 3006 H 280.362 0.384419 -0.646317 0
M  V30 3007 H 282.333 0.728347 -2.89375 0
M  V30 3008 C 281.082 2.45166 -2.46554 0
M  V30 3009 H 280.405 2.24613 -3.3074 0
M  V30 3010 H 281.845 3.16456 -2.8219 0
M  V30 3011 C 280.304 3.09216 -1.33742 0
M  V30 3012 O 280.834 3.96163 -0.66464 0
M  V30 3013 N 279.04 2.69413 -1.08928 0
M  V30 3014 H 278.587 1.98801 -1.63817 0
M  V30 3015 H 278.545 3.12594 -0.336458 0
M  V30 3016 N 282.317 1.53212 0.369288 0
M  V30 3017 C 283.542 1.73423 1.1375 0
M  V30 3018 C 283.967 0.460404 1.82378 0
M  V30 3019 O 283.325 -0.585298 1.71592 0
M  V30 3020 C 283.373 2.89769 2.1463 0
M  V30 3021 O 282.477 2.58119 3.21634 0
M  V30 3022 H 281.818 0.576061 0.330227 0
M  V30 3023 H 284.348 2.00083 0.427547 0
M  V30 3024 H 284.358 3.15829 2.58294 0
M  V30 3025 H 283.033 3.8217 1.64071 0
M  V30 3026 H 281.61 2.42864 2.82969 0
M  V30 3027 N 283.795 -0.628877 1.44509 0
M  V30 3028 C 285.044 -1.38437 1.4669 0
M  V30 3029 C 285.357 -1.95322 0.104272 0
M  V30 3030 O 286.563 -2.715 0.00362163 0
M  V30 3031 C 285.019 -2.50659 2.5826 0
M  V30 3032 C 284.627 -2.00277 4.0074 0
M  V30 3033 C 286.371 -3.27844 2.69664 0
M  V30 3034 C 284.278 -3.09854 5.0373 0
M  V30 3035 H 283.208 -0.520245 0.545766 0
M  V30 3036 H 285.859 -0.676313 1.70582 0
M  V30 3037 H 284.241 -3.2405 2.27612 0
M  V30 3038 H 285.415 -1.33736 4.40966 0
M  V30 3039 H 283.73 -1.35901 3.93599 0
M  V30 3040 H 286.327 -4.09534 3.43781 0
M  V30 3041 H 286.67 -3.77471 1.75559 0
M  V30 3042 H 287.203 -2.61543 2.99733 0
M  V30 3043 H 283.942 -2.65168 5.99472 0
M  V30 3044 H 283.462 -3.7503 4.68095 0
M  V30 3045 H 285.141 -3.74592 5.27532 0
M  V30 3046 N 285.273 -1.31445 -0.869486 0
M  V30 3047 C 286.498 -1.24256 -1.66058 0
M  V30 3048 C 286.923 0.188928 -1.87149 0
M  V30 3049 O 286.281 1.13522 -1.4136 0
M  V30 3050 C 286.329 -1.9924 -3.00559 0
M  V30 3051 O 285.433 -1.33007 -3.90362 0
M  V30 3052 H 284.774 -0.428973 -0.506831 0
M  V30 3053 H 287.304 -1.73521 -1.08404 0
M  V30 3054 H 287.314 -2.08854 -3.50491 0
M  V30 3055 H 285.989 -3.03342 -2.84528 0
M  V30 3056 H 284.566 -1.31848 -3.48813 0
M  V30 3057 N 286.751 1.08385 -1.14413 0
M  V30 3058 C 287.998 1.80776 -0.912482 0
M  V30 3059 C 288.326 1.86236 0.560934 0
M  V30 3060 O 287.581 1.33431 1.43159 0
M  V30 3061 C 287.88 3.26273 -1.45879 0
M  V30 3062 C 287.546 3.4093 -2.95089 0
M  V30 3063 C 286.208 3.44638 -3.35824 0
M  V30 3064 C 288.56 3.44591 -3.91033 0
M  V30 3065 C 285.888 3.49597 -4.71167 0
M  V30 3066 C 288.24 3.51086 -5.26233 0
M  V30 3067 C 286.904 3.53067 -5.6648 0
M  V30 3068 H 286.174 0.661507 -0.333901 0
M  V30 3069 H 288.821 1.27613 -1.42784 0
M  V30 3070 H 287.126 3.82146 -0.864376 0
M  V30 3071 H 288.823 3.80839 -1.2555 0
M  V30 3072 H 285.413 3.38736 -2.62594 0
M  V30 3073 H 289.597 3.40957 -3.60641 0
M  V30 3074 H 284.853 3.49424 -5.0171 0
M  V30 3075 H 289.027 3.52864 -6.00383 0
M  V30 3076 H 286.654 3.56662 -6.71339 0
M  V30 3077 N 288.23 0.939286 1.26551 0
M  V30 3078 C 289.641 0.628782 1.75793 0
M  V30 3079 C 289.992 -0.856046 1.7654 0
M  V30 3080 O 289.117 -1.66994 1.3763 0
M  V30 3081 C 289.712 1.13465 3.19235 0
M  V30 3082 C 288.271 0.874601 3.66098 0
M  V30 3083 C 287.418 1.28667 2.45642 0
M  V30 3084 H 290.369 1.1178 1.12654 0
M  V30 3085 H 290.39 0.487609 3.77363 0
M  V30 3086 H 289.902 2.21535 3.1866 0
M  V30 3087 H 288.003 -0.191793 3.72106 0
M  V30 3088 H 288.116 1.50028 4.55004 0
M  V30 3089 H 286.48 0.705109 2.44745 0
M  V30 3090 H 287.263 2.37625 2.47769 0
M  V30 3091 N 289.708 -1.40897 0.706093 0
M  V30 3092 C 291.124 -1.55042 0.37869 0
M  V30 3093 C 291.324 -1.67944 -1.11342 0
M  V30 3094 O 290.38 -1.66372 -1.89938 0
M  V30 3095 C 291.693 -2.78398 1.13643 0
M  V30 3096 C 293.241 -2.92206 1.12181 0
M  V30 3097 C 293.716 -4.18463 1.86152 0
M  V30 3098 N 295.207 -4.25443 1.83173 0
M  V30 3099 C 295.942 -5.2202 2.37239 0
M  V30 3100 N 295.438 -6.24563 2.99821 0
M  V30 3101 N 297.231 -5.14033 2.27435 0
M  V30 3102 H 289.382 -1.30769 1.67372 0
M  V30 3103 H 291.645 -0.631653 0.706907 0
M  V30 3104 H 291.351 -2.7511 2.19106 0
M  V30 3105 H 291.225 -3.70228 0.721853 0
M  V30 3106 H 293.612 -2.95004 0.0754171 0
M  V30 3107 H 293.693 -2.01521 1.57554 0
M  V30 3108 H 293.337 -4.16427 2.90776 0
M  V30 3109 H 293.267 -5.08141 1.38206 0
M  V30 3110 H 295.758 -3.51976 1.37556 0
M  V30 3111 H 296.071 -6.94665 3.38616 0
M  V30 3112 H 294.416 -6.25035 3.03902 0
M  V30 3113 H 297.607 -4.3285 1.78208 0
M  V30 3114 H 297.78 -5.89129 2.69873 0
M  V30 3115 N 291.186 -0.45159 -1.50991 0
M  V30 3116 C 292.433 0.110074 -2.02201 0
M  V30 3117 C 292.761 1.4146 -1.33489 0
M  V30 3118 O 292.016 1.90617 -0.443125 0
M  V30 3119 C 292.315 0.361728 -3.55565 0
M  V30 3120 C 291.981 -0.858717 -4.42648 0
M  V30 3121 C 290.643 -1.19338 -4.66167 0
M  V30 3122 C 292.995 -1.67221 -4.93646 0
M  V30 3123 C 290.323 -2.34195 -5.37931 0
M  V30 3124 C 292.675 -2.8119 -5.6667 0
M  V30 3125 C 291.339 -3.15094 -5.88449 0
M  V30 3126 H 290.609 0.040279 -0.739904 0
M  V30 3127 H 293.256 -0.601696 -1.81802 0
M  V30 3128 H 291.561 1.15554 -3.74372 0
M  V30 3129 H 293.258 0.80996 -3.92735 0
M  V30 3130 H 289.848 -0.58796 -4.24548 0
M  V30 3131 H 294.032 -1.42686 -4.75347 0
M  V30 3132 H 289.288 -2.6076 -5.53005 0
M  V30 3133 H 293.462 -3.44585 -6.05173 0
M  V30 3134 H 291.089 -4.04204 -6.43835 0
M  V30 3135 N 292.664 1.56529 -0.183458 0
M  V30 3136 C 293.611 2.18546 0.742055 0
M  V30 3137 C 294.581 1.12912 1.2182 0
M  V30 3138 O 295.766 1.41115 1.28418 0
M  V30 3139 C 292.906 2.83977 1.96089 0
M  V30 3140 C 292.019 4.04105 1.52719 0
M  V30 3141 C 291.154 4.57427 2.70063 0
M  V30 3142 C 290.193 5.69938 2.23243 0
M  V30 3143 N 289.33 6.17717 3.33722 0
M  V30 3144 H 294.17 2.97284 0.206432 0
M  V30 3145 H 291.707 1.46823 0.0901571 0
M  V30 3146 H 293.665 3.20077 2.67594 0
M  V30 3147 H 292.295 2.07822 2.47002 0
M  V30 3148 H 291.347 3.73745 0.708436 0
M  V30 3149 H 292.659 4.85513 1.1436 0
M  V30 3150 H 291.813 4.95772 3.49708 0
M  V30 3151 H 290.552 3.75101 3.11689 0
M  V30 3152 H 289.557 5.31133 1.42048 0
M  V30 3153 H 290.782 6.54073 1.82661 0
M  V30 3154 H 288.728 5.38317 3.74902 0
M  V30 3155 H 288.645 6.94146 2.99495 0
M  V30 3156 H 289.913 6.60713 4.13616 0
M  V30 3157 N 294.142 -0.090211 1.57342 0
M  V30 3158 C 295.388 -0.793982 1.86611 0
M  V30 3159 C 295.721 -1.78142 0.773252 0
M  V30 3160 O 294.996 -1.93271 -0.218304 0
M  V30 3161 C 295.279 -1.51839 3.26523 0
M  V30 3162 C 295.132 -0.548609 4.46442 0
M  V30 3163 C 296.451 -2.46779 3.64401 0
M  V30 3164 H 293.57 -0.287186 0.678744 0
M  V30 3165 H 296.212 -0.0575076 1.89913 0
M  V30 3166 H 294.362 -2.14617 3.23839 0
M  V30 3167 H 296.034 0.0725513 4.61243 0
M  V30 3168 H 294.277 0.137614 4.33582 0
M  V30 3169 H 294.948 -1.09271 5.41076 0
M  V30 3170 H 297.424 -1.94089 3.68061 0
M  V30 3171 H 296.3 -2.94479 4.63221 0
M  V30 3172 H 296.561 -3.30758 2.93346 0
M  V30 3173 N 295.62 -1.53406 -0.361157 0
M  V30 3174 C 296.568 -1.80832 -1.46296 0
M  V30 3175 C 297.562 -0.677699 -1.55253 0
M  V30 3176 O 298.768 -0.860723 -1.58087 0
M  V30 3177 H 295.143 -0.572627 -0.487445 0
M  V30 3178 H 297.114 -2.73045 -1.20371 0
M  V30 3179 C 295.863 -2.01907 -2.8307 0
M  V30 3180 H 295.186 -2.88349 -2.76938 0
M  V30 3181 H 296.626 -2.25072 -3.59331 0
M  V30 3182 C 295.085 -0.799449 -3.27277 0
M  V30 3183 O 295.615 0.00971761 -4.01699 0
M  V30 3184 N 293.821 -0.621637 -2.83873 0
M  V30 3185 H 293.368 -1.28126 -2.23476 0
M  V30 3186 H 293.326 0.19298 -3.13807 0
M  V30 3187 N 297.098 0.621204 -1.44841 0
M  V30 3188 C 298.514 0.94048 -1.28946 0
M  V30 3189 C 298.714 2.00154 -0.23249 0
M  V30 3190 O 297.77 2.49651 0.378237 0
M  V30 3191 C 299.083 1.39433 -2.66419 0
M  V30 3192 C 300.631 1.50927 -2.74208 0
M  V30 3193 C 301.106 1.99692 -4.12174 0
M  V30 3194 N 302.597 2.06947 -4.144 0
M  V30 3195 C 303.332 2.45871 -5.1801 0
M  V30 3196 N 302.828 2.83862 -6.31977 0
M  V30 3197 N 304.621 2.46092 -5.05366 0
M  V30 3198 H 296.772 -0.0803548 -2.12248 0
M  V30 3199 H 299.035 0.0266913 -0.947624 0
M  V30 3200 H 298.741 0.688925 -3.44887 0
M  V30 3201 H 298.615 2.36347 -2.93973 0
M  V30 3202 H 301.002 2.20561 -1.96053 0
M  V30 3203 H 301.083 0.523627 -2.50383 0
M  V30 3204 H 300.727 1.30649 -4.90809 0
M  V30 3205 H 300.657 2.99146 -4.33381 0
M  V30 3206 H 303.148 1.80232 -3.32152 0
M  V30 3207 H 303.461 3.12405 -7.0684 0
M  V30 3208 H 301.806 2.8159 -6.35399 0
M  V30 3209 H 304.997 2.1581 -4.15384 0
M  V30 3210 H 305.17 2.76102 -5.86235 0
M  V30 3211 N 298.576 1.31904 0.862503 0
M  V30 3212 C 299.992 1.10724 1.14945 0
M  V30 3213 C 300.192 -0.117421 2.01158 0
M  V30 3214 O 299.248 -0.804595 2.39338 0
M  V30 3215 C 300.561 2.38267 1.83437 0
M  V30 3216 C 302.109 2.43949 1.96106 0
M  V30 3217 C 302.584 3.71394 2.68013 0
M  V30 3218 N 304.075 3.72331 2.75543 0
M  V30 3219 C 304.81 4.67641 3.31812 0
M  V30 3220 N 304.306 5.73313 3.88953 0
M  V30 3221 N 306.099 4.5515 3.29841 0
M  V30 3222 H 298.25 2.10436 0.288191 0
M  V30 3223 H 300.513 0.928705 0.190292 0
M  V30 3224 H 300.219 3.27759 1.27542 0
M  V30 3225 H 300.093 2.48633 2.83657 0
M  V30 3226 H 302.48 1.54922 2.51164 0
M  V30 3227 H 302.561 2.37543 0.949059 0
M  V30 3228 H 302.205 4.60791 2.13621 0
M  V30 3229 H 302.135 3.75069 3.69636 0
M  V30 3230 H 304.626 2.95947 2.34997 0
M  V30 3231 H 304.939 6.42107 4.30022 0
M  V30 3232 H 303.284 5.77077 3.87308 0
M  V30 3233 H 306.475 3.71766 2.84443 0
M  V30 3234 H 306.648 5.29604 3.73394 0
M  V30 3235 N 300.054 -1.07777 1.14986 0
M  V30 3236 C 301.002 -2.16964 0.838406 0
M  V30 3237 C 301.996 -1.68372 -0.186386 0
M  V30 3238 O 303.202 -1.79951 -0.0418465 0
M  V30 3239 H 299.577 -0.708006 0.253439 0
M  V30 3240 H 301.548 -2.40454 1.76704 0
M  V30 3241 C 300.297 -3.4604 0.339335 0
M  V30 3242 H 299.62 -3.83813 1.11927 0
M  V30 3243 H 301.06 -4.23698 0.160021 0
M  V30 3244 C 299.519 -3.23569 -0.938325 0
M  V30 3245 O 300.049 -3.47752 -2.01077 0
M  V30 3246 N 298.255 -2.77079 -0.876117 0
M  V30 3247 H 297.802 -2.576 -0.00322037 0
M  V30 3248 H 297.76 -2.62422 -1.73153 0
M  V30 3249 N 301.532 -0.945985 -1.26051 0
M  V30 3250 C 302.462 -0.477172 -2.28572 0
M  V30 3251 C 303.443 0.472032 -1.63419 0
M  V30 3252 O 304.628 0.372853 -1.90587 0
M  V30 3253 C 301.758 0.253975 -3.4637 0
M  V30 3254 C 300.712 -0.609135 -4.23643 0
M  V30 3255 C 300.038 0.252252 -5.34105 0
M  V30 3256 C 301.338 -1.8829 -4.8718 0
M  V30 3257 H 303.032 -1.33402 -2.68038 0
M  V30 3258 H 300.578 -0.642904 -1.28852 0
M  V30 3259 H 302.531 0.593016 -4.17207 0
M  V30 3260 H 301.255 1.145 -3.05871 0
M  V30 3261 H 299.914 -0.931138 -3.54578 0
M  V30 3262 H 299.562 1.14278 -4.89846 0
M  V30 3263 H 299.262 -0.32188 -5.86718 0
M  V30 3264 H 300.786 0.586454 -6.07777 0
M  V30 3265 H 302.2 -1.61081 -5.50205 0
M  V30 3266 H 300.597 -2.40199 -5.49931 0
M  V30 3267 H 301.667 -2.59134 -4.09851 0
M  V30 3268 N 303.011 1.40521 -0.713556 0
M  V30 3269 C 304.257 2.01221 -0.252564 0
M  V30 3270 C 304.59 1.56444 1.1506 0
M  V30 3271 O 303.865 0.783597 1.78017 0
M  V30 3272 C 304.148 3.58582 -0.330332 0
M  V30 3273 C 304.001 4.13437 -1.77173 0
M  V30 3274 C 305.32 4.39079 0.299641 0
M  V30 3275 H 302.439 0.731077 -0.0932471 0
M  V30 3276 H 305.081 1.67026 -0.905673 0
M  V30 3277 H 303.231 3.87844 0.225737 0
M  V30 3278 H 304.903 3.9498 -2.38303 0
M  V30 3279 H 303.146 3.67801 -2.3001 0
M  V30 3280 H 303.817 5.22597 -1.77755 0
M  V30 3281 H 306.293 4.15735 -0.174139 0
M  V30 3282 H 305.169 5.4848 0.214771 0
M  V30 3283 H 305.43 4.19915 1.38288 0
M  V30 3284 N 304.489 0.459591 1.5075 0
M  V30 3285 C 305.399 -0.34613 2.32033 0
M  V30 3286 C 306.415 -1.00686 1.41909 0
M  V30 3287 O 307.591 -0.997361 1.7497 0
M  V30 3288 C 304.656 -1.42029 3.16273 0
M  V30 3289 C 303.717 -0.777362 4.22203 0
M  V30 3290 C 302.95 -1.80034 5.02418 0
M  V30 3291 O 303.173 -3.02544 4.83553 0
M  V30 3292 O 302.107 -1.37853 5.85901 0
M  V30 3293 H 305.933 0.318054 3.0203 0
M  V30 3294 H 303.518 0.221663 1.47746 0
M  V30 3295 H 305.4 -2.04275 3.68578 0
M  V30 3296 H 304.075 -2.06815 2.49016 0
M  V30 3297 H 302.982 -0.116256 3.73919 0
M  V30 3298 H 304.315 -0.172634 4.91897 0
M  V30 3299 N 305.967 -1.56429 0.191757 0
M  V30 3300 C 306.877 -2.22541 -0.742481 0
M  V30 3301 C 307.893 -1.22342 -1.23727 0
M  V30 3302 O 309.069 -1.55069 -1.28513 0
M  V30 3303 C 306.134 -2.8692 -1.94623 0
M  V30 3304 C 305.195 -4.02378 -1.49633 0
M  V30 3305 C 304.428 -4.63678 -2.6427 0
M  V30 3306 O 304.651 -4.23895 -3.81666 0
M  V30 3307 O 303.585 -5.53202 -2.37174 0
M  V30 3308 H 307.411 -3.02977 -0.209462 0
M  V30 3309 H 304.996 -1.49353 -0.0373832 0
M  V30 3310 H 306.878 -3.27663 -2.64982 0
M  V30 3311 H 305.553 -2.09466 -2.46791 0
M  V30 3312 H 304.46 -3.66265 -0.761636 0
M  V30 3313 H 305.793 -4.81487 -1.02134 0
M  V30 3314 N 307.445 0.0818655 -1.57387 0
M  V30 3315 C 308.691 0.784074 -1.8703 0
M  V30 3316 C 309.024 1.77729 -0.782689 0
M  V30 3317 O 308.299 1.93384 0.208051 0
M  V30 3318 C 308.582 1.50105 -3.27323 0
M  V30 3319 C 308.435 0.524925 -4.46727 0
M  V30 3320 C 309.754 2.44843 -3.65705 0
M  V30 3321 H 306.873 0.283582 -0.680257 0
M  V30 3322 H 309.515 0.0474352 -1.89941 0
M  V30 3323 H 307.665 2.12897 -3.24972 0
M  V30 3324 H 309.337 -0.0970111 -4.61198 0
M  V30 3325 H 307.58 -0.160606 -4.33503 0
M  V30 3326 H 308.251 1.064 -5.41648 0
M  V30 3327 H 310.727 1.92135 -3.69085 0
M  V30 3328 H 309.603 2.92018 -4.64776 0
M  V30 3329 H 309.864 3.29197 -2.95096 0
M  V30 3330 N 308.923 1.53595 0.353017 0
M  V30 3331 C 309.871 1.81605 1.45335 0
M  V30 3332 C 310.865 0.685923 1.54892 0
M  V30 3333 O 312.071 0.869095 1.57628 0
M  V30 3334 H 308.446 0.575204 0.484401 0
M  V30 3335 H 310.417 2.73679 1.18921 0
M  V30 3336 C 309.166 2.03406 2.81995 0
M  V30 3337 H 308.489 2.89814 2.75405 0
M  V30 3338 H 309.929 2.26975 3.58132 0
M  V30 3339 C 308.388 0.816794 3.26849 0
M  V30 3340 O 308.918 0.0115856 4.01698 0
M  V30 3341 N 307.124 0.636682 2.8354 0
M  V30 3342 H 306.671 1.2931 2.22793 0
M  V30 3343 H 306.629 -0.176336 3.13905 0
M  V30 3344 N 310.401 -0.613514 1.45168 0
M  V30 3345 C 311.364 -1.7065 1.53007 0
M  V30 3346 C 312.364 -1.5548 0.410184 0
M  V30 3347 O 313.554 -1.60656 0.673455 0
M  V30 3348 C 310.686 -3.09875 1.42093 0
M  V30 3349 H 311.879 -1.65068 2.50385 0
M  V30 3350 H 309.432 -0.828728 1.32521 0
M  V30 3351 H 310.167 -3.21039 0.458769 0
M  V30 3352 H 309.952 -3.22293 2.23315 0
M  V30 3353 H 311.442 -3.895 1.50598 0
M  V30 3354 N 311.879 -1.3236 -0.855495 0
M  V30 3355 C 312.842 -1.21164 -1.94556 0
M  V30 3356 C 313.842 -0.134908 -1.60233 0
M  V30 3357 O 315.032 -0.385249 -1.69887 0
M  V30 3358 C 312.164 -0.863192 -3.29791 0
M  V30 3359 H 313.357 -2.18038 -2.05911 0
M  V30 3360 H 310.91 -1.16179 -1.04557 0
M  V30 3361 H 311.645 0.103769 -3.24134 0
M  V30 3362 H 311.43 -1.64166 -3.56078 0
M  V30 3363 H 312.92 -0.809156 -4.09686 0
M  V30 3364 N 313.357 1.07166 -1.15556 0
M  V30 3365 C 314.307 2.12649 -0.82247 0
M  V30 3366 C 315.291 1.59725 0.194129 0
M  V30 3367 O 316.483 1.76999 -0.00540402 0
M  V30 3368 C 313.612 3.41847 -0.315572 0
M  V30 3369 C 312.698 4.0162 -1.36244 0
M  V30 3370 N 313.089 4.35625 -2.5703 0
M  V30 3371 C 311.387 4.29114 -1.21562 0
M  V30 3372 C 312.088 4.83017 -3.24144 0
M  V30 3373 N 311.064 4.81906 -2.51531 0
M  V30 3374 H 314.866 2.36776 -1.74111 0
M  V30 3375 H 312.38 1.24622 -1.0413 0
M  V30 3376 H 314.377 4.16859 -0.0585855 0
M  V30 3377 H 313.037 3.19163 0.597105 0
M  V30 3378 H 314.048 4.26253 -2.94158 0
M  V30 3379 H 310.725 4.15919 -0.362988 0
M  V30 3380 H 312.115 5.18605 -4.27198 0
M  V30 3381 N 314.835 0.952656 1.25548 0
M  V30 3382 C 315.768 0.415525 2.24385 0
M  V30 3383 C 316.746 -0.502046 1.54655 0
M  V30 3384 O 317.93 -0.436875 1.83368 0
M  V30 3385 C 315.057 -0.401734 3.36309 0
M  V30 3386 C 314.103 0.455949 4.24056 0
M  V30 3387 S 314.936 1.88698 5.01152 0
M  V30 3388 C 316.092 1.07809 6.16545 0
M  V30 3389 H 316.325 1.25315 2.69599 0
M  V30 3390 H 313.858 0.756587 1.34592 0
M  V30 3391 H 315.816 -0.867329 4.01233 0
M  V30 3392 H 314.477 -1.21416 2.89684 0
M  V30 3393 H 313.67 -0.170776 5.03711 0
M  V30 3394 H 313.272 0.856675 3.64056 0
M  V30 3395 H 315.564 0.325816 6.76716 0
M  V30 3396 H 316.507 1.84849 6.83547 0
M  V30 3397 H 316.915 0.60909 5.61204 0
M  V30 3398 N 316.313 -1.40141 0.720998 0
M  V30 3399 C 317.26 -2.30688 0.071919 0
M  V30 3400 C 318.23 -1.48476 -0.744584 0
M  V30 3401 O 319.415 -1.77201 -0.707423 0
M  V30 3402 C 316.555 -3.34724 -0.839855 0
M  V30 3403 C 315.668 -4.31998 -0.0122438 0
M  V30 3404 C 314.803 -5.23102 -0.923995 0
M  V30 3405 C 313.842 -6.12033 -0.0907969 0
M  V30 3406 N 312.979 -6.95537 -0.957718 0
M  V30 3407 H 317.819 -2.85628 0.849755 0
M  V30 3408 H 315.356 -1.40653 0.430726 0
M  V30 3409 H 317.314 -3.93618 -1.38279 0
M  V30 3410 H 315.944 -2.81274 -1.58381 0
M  V30 3411 H 314.996 -3.74841 0.64794 0
M  V30 3412 H 316.308 -4.94772 0.632595 0
M  V30 3413 H 315.462 -5.86953 -1.53527 0
M  V30 3414 H 314.201 -4.60615 -1.60264 0
M  V30 3415 H 313.206 -5.47207 0.533377 0
M  V30 3416 H 314.431 -6.76581 0.584428 0
M  V30 3417 H 312.377 -6.35633 -1.62192 0
M  V30 3418 H 312.294 -7.55099 -0.36904 0
M  V30 3419 H 313.562 -7.63832 -1.555 0
M  V30 3420 N 317.792 -0.46758 -1.50504 0
M  V30 3421 C 319.02 0.0864133 -2.06719 0
M  V30 3422 C 319.435 1.33819 -1.33184 0
M  V30 3423 O 318.792 1.78061 -0.400083 0
M  V30 3424 C 318.843 0.378079 -3.59517 0
M  V30 3425 O 318.564 -0.824044 -4.3028 0
M  V30 3426 C 320.065 0.979426 -4.32345 0
M  V30 3427 H 317.285 -0.00551697 -0.670977 0
M  V30 3428 H 319.829 -0.655354 -1.93715 0
M  V30 3429 H 317.984 1.06977 -3.72337 0
M  V30 3430 H 318.398 -0.566518 -5.21432 0
M  V30 3431 H 319.872 1.1333 -5.40241 0
M  V30 3432 H 320.349 1.9686 -3.9261 0
M  V30 3433 H 320.955 0.326216 -4.24047 0
M  V30 3434 N 319.27 1.56325 -0.20005 0
M  V30 3435 C 320.51 1.99619 0.439519 0
M  V30 3436 C 320.874 1.08423 1.58456 0
M  V30 3437 O 322.075 1.40973 2.28867 0
M  V30 3438 C 320.346 3.46314 0.883258 0
M  V30 3439 S 321.905 4.11634 1.51997 0
M  V30 3440 H 318.723 0.697007 0.140363 0
M  V30 3441 H 321.325 1.93118 -0.304282 0
M  V30 3442 H 320.029 4.10381 0.0398967 0
M  V30 3443 H 319.56 3.56643 1.6604 0
M  V30 3444 H 321.575 4.09049 2.8088 0
M  V30 3445 N 320.748 -0.0735177 1.57428 0
M  V30 3446 C 321.678 -1.0879 2.06608 0
M  V30 3447 C 322.659 -1.40473 0.959237 0
M  V30 3448 O 323.844 -1.5013 1.23185 0
M  V30 3449 C 320.974 -2.40183 2.50857 0
M  V30 3450 C 319.928 -2.22858 3.65402 0
M  V30 3451 C 319.254 -3.59619 3.957 0
M  V30 3452 C 320.554 -1.65123 4.95511 0
M  V30 3453 H 322.248 -0.678673 2.91607 0
M  V30 3454 H 319.794 -0.325013 1.40284 0
M  V30 3455 H 321.747 -3.11437 2.83874 0
M  V30 3456 H 320.471 -2.83083 1.62885 0
M  V30 3457 H 319.13 -1.54045 3.32664 0
M  V30 3458 H 318.778 -4.00086 3.04861 0
M  V30 3459 H 318.478 -3.48866 4.72828 0
M  V30 3460 H 320.002 -4.32306 4.31212 0
M  V30 3461 H 321.416 -2.26241 5.26771 0
M  V30 3462 H 319.813 -1.65071 5.7695 0
M  V30 3463 H 320.883 -0.612559 4.81015 0
M  V30 3464 N 322.226 -1.5378 -0.344866 0
M  V30 3465 C 323.473 -1.70963 -1.08526 0
M  V30 3466 C 323.801 -0.472126 -1.88683 0
M  V30 3467 O 323.056 0.546116 -1.87926 0
M  V30 3468 C 323.355 -2.92407 -2.05506 0
M  V30 3469 C 323.021 -4.28066 -1.41671 0
M  V30 3470 C 321.683 -4.64951 -1.2399 0
M  V30 3471 C 324.035 -5.12344 -0.956726 0
M  V30 3472 C 321.363 -5.83733 -0.589277 0
M  V30 3473 C 323.715 -6.3179 -0.320015 0
M  V30 3474 C 322.379 -6.67372 -0.130881 0
M  V30 3475 H 321.649 -0.625598 -0.397124 0
M  V30 3476 H 324.296 -1.87995 -0.36469 0
M  V30 3477 H 322.601 -2.69973 -2.8394 0
M  V30 3478 H 324.298 -3.02895 -2.62784 0
M  V30 3479 H 320.888 -3.99034 -1.56429 0
M  V30 3480 H 325.072 -4.8438 -1.08118 0
M  V30 3481 H 320.328 -6.09877 -0.431344 0
M  V30 3482 H 324.502 -6.96386 0.0445072 0
M  V30 3483 H 322.129 -7.59273 0.375318 0
M  V30 3484 N 323.704 0.605807 -1.45491 0
M  V30 3485 C 324.654 1.71074 -1.50724 0
M  V30 3486 C 325.638 1.5658 -0.37033 0
M  V30 3487 O 326.83 1.65887 -0.617299 0
M  V30 3488 C 323.959 3.0983 -1.47852 0
M  V30 3489 C 323.045 3.29704 -2.66751 0
M  V30 3490 N 323.436 3.19831 -3.91844 0
M  V30 3491 C 321.734 3.60579 -2.62486 0
M  V30 3492 C 322.435 3.41083 -4.71208 0
M  V30 3493 N 321.411 3.65157 -4.02693 0
M  V30 3494 H 325.213 1.61937 -2.45263 0
M  V30 3495 H 322.727 0.80912 -1.40808 0
M  V30 3496 H 324.724 3.89101 -1.49686 0
M  V30 3497 H 323.384 3.20115 -0.543714 0
M  V30 3498 H 324.395 2.98194 -4.23439 0
M  V30 3499 H 321.072 3.7769 -1.77922 0
M  V30 3500 H 322.462 3.38828 -5.80211 0
M  V30 3501 N 325.182 1.32811 0.848464 0
M  V30 3502 C 326.129 1.22265 1.95755 0
M  V30 3503 C 327.099 0.103413 1.65778 0
M  V30 3504 O 328.284 0.280033 1.88734 0
M  V30 3505 C 325.424 0.958014 3.31536 0
M  V30 3506 C 324.537 2.16262 3.73971 0
M  V30 3507 C 323.672 1.83295 4.98575 0
M  V30 3508 C 322.711 3.00041 5.33518 0
M  V30 3509 N 321.848 2.67125 6.49299 0
M  V30 3510 H 326.688 2.17128 2.04107 0
M  V30 3511 H 324.225 1.07982 0.998913 0
M  V30 3512 H 326.183 0.785052 4.09747 0
M  V30 3513 H 324.813 0.046159 3.22767 0
M  V30 3514 H 323.865 2.44565 2.91362 0
M  V30 3515 H 325.177 3.03572 3.95785 0
M  V30 3516 H 324.331 1.62586 5.84509 0
M  V30 3517 H 323.07 0.932078 4.7871 0
M  V30 3518 H 322.075 3.21374 4.46093 0
M  V30 3519 H 323.3 3.90869 5.55336 0
M  V30 3520 H 321.246 1.79586 6.3094 0
M  V30 3521 H 321.163 3.47965 6.71161 0
M  V30 3522 H 322.431 2.49861 7.3837 0
M  V30 3523 N 326.66 -1.06551 1.16123 0
M  V30 3524 C 327.888 -1.83005 0.965237 0
M  V30 3525 C 328.303 -1.82423 -0.486542 0
M  V30 3526 O 327.66 -1.24152 -1.33763 0
M  V30 3527 C 327.711 -3.29733 1.48183 0
M  V30 3528 O 327.432 -3.30416 2.87674 0
M  V30 3529 C 328.933 -4.22926 1.32848 0
M  V30 3530 H 326.153 -0.577118 0.342309 0
M  V30 3531 H 328.697 -1.3445 1.54089 0
M  V30 3532 H 326.852 -3.75609 0.948517 0
M  V30 3533 H 327.266 -4.22149 3.11272 0
M  V30 3534 H 328.74 -5.23916 1.73827 0
M  V30 3535 H 329.217 -4.38346 0.273692 0
M  V30 3536 H 329.823 -3.82894 1.85127 0
M  V30 3537 N 328.138 -0.959301 -1.25041 0
M  V30 3538 C 329.068 -0.501388 -2.28053 0
M  V30 3539 C 330.049 0.454673 -1.63911 0
M  V30 3540 O 331.234 0.352618 -1.90972 0
M  V30 3541 C 328.364 0.217224 -3.4662 0
M  V30 3542 C 327.318 -0.654034 -4.22973 0
M  V30 3543 C 326.644 0.195589 -5.34342 0
M  V30 3544 C 327.944 -1.93447 -4.85155 0
M  V30 3545 H 329.638 -1.36238 -2.66608 0
M  V30 3546 H 327.184 -0.656534 -1.28163 0
M  V30 3547 H 329.137 0.548732 -4.17812 0
M  V30 3548 H 327.861 1.1125 -3.07068 0
M  V30 3549 H 326.52 -0.968693 -3.5357 0
M  V30 3550 H 326.168 1.09076 -4.91031 0
M  V30 3551 H 325.868 -0.384091 -5.86343 0
M  V30 3552 H 327.392 0.521958 -6.08365 0
M  V30 3553 H 328.806 -1.66908 -5.48466 0
M  V30 3554 H 327.203 -2.46018 -5.47353 0
M  V30 3555 H 328.273 -2.63466 -4.07079 0
M  V30 3556 N 329.616 1.39756 -0.72842 0
M  V30 3557 C 330.566 2.2792 -0.0603424 0
M  V30 3558 C 331.55 1.43922 0.719399 0
M  V30 3559 O 332.742 1.66895 0.589489 0
M  V30 3560 C 329.871 3.32582 0.851104 0
M  V30 3561 C 328.957 4.24049 0.0658641 0
M  V30 3562 N 329.348 4.96653 -0.957578 0
M  V30 3563 C 327.646 4.45013 0.296509 0
M  V30 3564 C 328.347 5.63836 -1.43052 0
M  V30 3565 N 327.323 5.38397 -0.750315 0
M  V30 3566 H 331.125 2.81504 -0.84455 0
M  V30 3567 H 328.639 1.5236 -0.562155 0
M  V30 3568 H 330.636 3.94603 1.34514 0
M  V30 3569 H 329.296 2.80558 1.63454 0
M  V30 3570 H 330.307 5.00297 -1.33877 0
M  V30 3571 H 326.984 4.03943 1.05527 0
M  V30 3572 H 328.374 6.31974 -2.28163 0
M  V30 3573 N 331.094 0.475555 1.50254 0
M  V30 3574 C 332.505 0.0215174 1.86688 0
M  V30 3575 C 332.856 -1.38467 1.39001 0
M  V30 3576 O 331.981 -2.02732 0.756894 0
M  V30 3577 C 332.576 0.0322715 3.38785 0
M  V30 3578 C 331.135 -0.366314 3.74613 0
M  V30 3579 C 330.282 0.415832 2.74164 0
M  V30 3580 H 333.233 0.689612 1.42934 0
M  V30 3581 H 333.254 -0.76889 3.7265 0
M  V30 3582 H 332.766 1.05584 3.73462 0
M  V30 3583 H 330.867 -1.39406 3.45538 0
M  V30 3584 H 330.98 -0.064555 4.79057 0
M  V30 3585 H 329.344 -0.131048 2.54363 0
M  V30 3586 H 330.127 1.43899 3.11686 0
M  V30 3587 N 332.573 -1.56217 0.208337 0
M  V30 3588 C 333.503 -2.22694 -0.702116 0
M  V30 3589 C 334.484 -1.19432 -1.2112 0
M  V30 3590 O 335.669 -1.47978 -1.25762 0
M  V30 3591 C 332.799 -2.8966 -1.9161 0
M  V30 3592 C 331.753 -3.9928 -1.5414 0
M  V30 3593 C 331.079 -4.53476 -2.83308 0
M  V30 3594 C 332.379 -5.17012 -0.741339 0
M  V30 3595 H 334.073 -2.99034 -0.147898 0
M  V30 3596 H 331.619 -1.43831 -0.0696951 0
M  V30 3597 H 333.572 -3.34852 -2.55836 0
M  V30 3598 H 332.296 -2.10746 -2.49507 0
M  V30 3599 H 330.955 -3.54799 -0.922668 0
M  V30 3600 H 330.603 -3.71308 -3.39322 0
M  V30 3601 H 330.303 -5.27451 -2.58976 0
M  V30 3602 H 331.827 -5.01378 -3.485 0
M  V30 3603 H 333.241 -5.58667 -1.28699 0
M  V30 3604 H 331.638 -5.97137 -0.595627 0
M  V30 3605 H 332.708 -4.8423 0.254851 0
M  V30 3606 N 334.051 0.0651679 -1.57465 0
M  V30 3607 C 335.291 0.768329 -1.8941 0
M  V30 3608 C 335.655 1.74406 -0.802894 0
M  V30 3609 O 336.856 2.49281 -1.0056 0
M  V30 3610 C 335.127 1.45199 -3.26576 0
M  V30 3611 S 336.686 2.1893 -3.80283 0
M  V30 3612 H 333.504 0.255359 -0.663561 0
M  V30 3613 H 336.106 0.024167 -1.95485 0
M  V30 3614 H 334.81 0.728123 -4.03889 0
M  V30 3615 H 334.341 2.23545 -3.23715 0
M  V30 3616 H 336.356 3.45551 -3.56102 0
M  V30 3617 N 335.529 1.53961 0.336706 0
M  V30 3618 C 336.94 1.62914 0.911925 0
M  V30 3619 C 337.291 0.514795 1.89326 0
M  V30 3620 O 336.416 -0.354395 2.13478 0
M  V30 3621 C 337.011 2.95304 1.66076 0
M  V30 3622 C 335.57 3.06496 2.18489 0
M  V30 3623 C 334.717 2.58403 1.00613 0
M  V30 3624 H 337.668 1.58285 0.114649 0
M  V30 3625 H 337.689 2.84727 2.5241 0
M  V30 3626 H 337.201 3.76387 0.946276 0
M  V30 3627 H 335.302 2.3006 2.93092 0
M  V30 3628 H 335.415 4.1208 2.44391 0
M  V30 3629 H 333.779 2.13977 1.38152 0
M  V30 3630 H 334.562 3.41932 0.306179 0
M  V30 3631 N 337.007 -0.598083 1.45811 0
M  V30 3632 C 338.253 -1.35882 1.50545 0
M  V30 3633 C 338.586 -1.93616 0.150445 0
M  V30 3634 O 337.861 -1.75604 -0.83628 0
M  V30 3635 C 338.144 -2.49966 2.59208 0
M  V30 3636 C 337.997 -1.97367 4.04186 0
M  V30 3637 C 339.316 -3.52068 2.64076 0
M  V30 3638 H 336.435 -0.492717 0.548087 0
M  V30 3639 H 339.077 -0.673319 1.77669 0
M  V30 3640 H 337.227 -3.08443 2.3621 0
M  V30 3641 H 338.899 -1.43466 4.38423 0
M  V30 3642 H 337.142 -1.283 4.14393 0
M  V30 3643 H 337.813 -2.79649 4.75921 0
M  V30 3644 H 340.289 -3.03448 2.84708 0
M  V30 3645 H 339.165 -4.2937 3.41954 0
M  V30 3646 H 339.426 -4.08304 1.69531 0
M  V30 3647 N 338.485 -1.33259 -0.841409 0
M  V30 3648 C 339.732 -1.24572 -1.5965 0
M  V30 3649 C 340.06 0.189137 -1.93578 0
M  V30 3650 O 339.315 1.14566 -1.5866 0
M  V30 3651 C 339.614 -2.06381 -2.9179 0
M  V30 3652 C 339.28 -3.556 -2.77235 0
M  V30 3653 C 337.942 -3.96282 -2.72973 0
M  V30 3654 C 340.294 -4.50433 -2.62221 0
M  V30 3655 C 337.622 -5.30017 -2.51592 0
M  V30 3656 C 339.974 -5.84327 -2.42374 0
M  V30 3657 C 338.638 -6.24194 -2.36512 0
M  V30 3658 H 337.908 -0.455842 -0.5842 0
M  V30 3659 H 340.555 -1.6482 -0.975016 0
M  V30 3660 H 338.86 -1.58903 -3.5813 0
M  V30 3661 H 340.557 -1.97019 -3.49263 0
M  V30 3662 H 337.147 -3.23298 -2.81384 0
M  V30 3663 H 341.331 -4.19914 -2.64549 0
M  V30 3664 H 336.587 -5.59947 -2.45499 0
M  V30 3665 H 340.761 -6.57414 -2.29739 0
M  V30 3666 H 338.388 -7.27759 -2.19706 0
M  V30 3667 N 339.963 1.05934 -1.16686 0
M  V30 3668 C 340.895 2.13468 -0.834503 0
M  V30 3669 C 341.908 1.62013 0.15984 0
M  V30 3670 O 343.097 1.7838 -0.0654228 0
M  V30 3671 C 340.197 3.3817 -0.222361 0
M  V30 3672 C 339.37 4.18928 -1.25771 0
M  V30 3673 C 338.429 5.21985 -0.664703 0
M  V30 3674 O 337.455 5.53334 -1.33453 0
M  V30 3675 N 338.657 5.77919 0.546834 0
M  V30 3676 H 341.422 2.42578 -1.75999 0
M  V30 3677 H 338.983 1.21967 -1.06469 0
M  V30 3678 H 340.975 4.04266 0.187472 0
M  V30 3679 H 339.545 3.06655 0.606758 0
M  V30 3680 H 338.765 3.48433 -1.84358 0
M  V30 3681 H 340.053 4.69687 -1.95631 0
M  V30 3682 H 339.451 5.54721 1.10912 0
M  V30 3683 H 338.008 6.45573 0.898829 0
M  V30 3684 N 341.441 0.965919 1.2453 0
M  V30 3685 C 342.371 0.513476 2.27784 0
M  V30 3686 C 343.352 -0.445974 1.6415 0
M  V30 3687 O 344.537 -0.342485 1.91156 0
M  V30 3688 C 341.667 -0.198839 3.4673 0
M  V30 3689 C 340.621 0.676456 4.2262 0
M  V30 3690 C 339.947 -0.167248 5.34438 0
M  V30 3691 C 341.247 1.96017 4.84123 0
M  V30 3692 H 342.941 1.3765 2.65881 0
M  V30 3693 H 340.487 0.663321 1.27813 0
M  V30 3694 H 342.44 -0.526567 4.18097 0
M  V30 3695 H 341.164 -1.0962 3.07654 0
M  V30 3696 H 339.823 0.98743 3.53052 0
M  V30 3697 H 339.471 -1.0647 4.91603 0
M  V30 3698 H 339.171 0.415181 5.86131 0
M  V30 3699 H 340.695 -0.489688 6.08633 0
M  V30 3700 H 342.109 1.69814 5.47573 0
M  V30 3701 H 340.506 2.48918 5.4604 0
M  V30 3702 H 341.576 2.65622 4.05676 0
M  V30 3703 N 342.919 -1.39368 0.735821 0
M  V30 3704 C 344.167 -2.00101 0.283562 0
M  V30 3705 C 344.488 -1.5868 -1.13338 0
M  V30 3706 O 343.758 -0.835423 -1.77193 0
M  V30 3707 H 342.338 -0.740024 0.101851 0
M  V30 3708 H 345 -1.70404 0.945962 0
M  V30 3709 H 344.096 -3.10323 0.332604 0
M  V30 3710 N 344.397 -0.483516 -1.5 0
M  V30 3711 C 345.627 0.0643896 -2.065 0
M  V30 3712 C 346.035 1.32949 -1.34615 0
M  V30 3713 O 345.378 1.79003 -0.412756 0
M  V30 3714 C 345.44 0.405983 -3.572 0
M  V30 3715 C 345.104 -0.758875 -4.50655 0
M  V30 3716 C 346.101 -1.64445 -4.93208 0
M  V30 3717 C 343.786 -0.952725 -4.93182 0
M  V30 3718 C 345.78 -2.70818 -5.77006 0
M  V30 3719 C 343.467 -2.01966 -5.76761 0
M  V30 3720 C 344.465 -2.89574 -6.18576 0
M  V30 3721 O 344.153 -3.94429 -7.00486 0
M  V30 3722 H 343.885 -0.00934786 -0.675935 0
M  V30 3723 H 346.439 -0.674959 -1.93993 0
M  V30 3724 H 344.669 1.19869 -3.67652 0
M  V30 3725 H 346.358 0.890433 -3.96013 0
M  V30 3726 H 347.124 -1.50643 -4.61012 0
M  V30 3727 H 343.003 -0.280247 -4.60147 0
M  V30 3728 H 346.547 -3.3923 -6.09565 0
M  V30 3729 H 342.444 -2.1577 -6.0837 0
M  V30 3730 H 343.212 -3.91568 -7.1876 0
M  V30 3731 N 345.875 1.56104 -0.216619 0
M  V30 3732 C 347.121 1.98466 0.417033 0
M  V30 3733 C 347.454 1.10403 1.59765 0
M  V30 3734 O 346.729 0.160632 1.93836 0
M  V30 3735 C 347.012 3.49769 0.85637 0
M  V30 3736 C 346.865 4.48606 -0.327546 0
M  V30 3737 C 348.184 4.05339 1.7143 0
M  V30 3738 H 345.303 0.721551 0.150112 0
M  V30 3739 H 347.945 1.87423 -0.311864 0
M  V30 3740 H 346.095 3.5931 1.47745 0
M  V30 3741 H 347.767 4.5108 -0.965618 0
M  V30 3742 H 346.01 4.22682 -0.975805 0
M  V30 3743 H 346.681 5.51995 0.0227149 0
M  V30 3744 H 349.157 3.98712 1.19031 0
M  V30 3745 H 348.033 5.11533 1.99061 0
M  V30 3746 H 348.294 3.51918 2.67593 0
M  V30 3747 N 347.353 -0.0568162 1.57498 0
M  V30 3748 C 348.599 -0.75422 1.88253 0
M  V30 3749 C 348.932 -1.76461 0.810865 0
M  V30 3750 O 348.207 -1.93691 -0.177259 0
M  V30 3751 C 348.49 -1.44878 3.2967 0
M  V30 3752 C 348.343 -0.453789 4.47505 0
M  V30 3753 C 349.662 -2.38994 3.69554 0
M  V30 3754 H 346.781 -0.272724 0.684683 0
M  V30 3755 H 349.423 -0.0172113 1.89992 0
M  V30 3756 H 347.573 -2.077 3.28318 0
M  V30 3757 H 349.245 0.170371 4.60985 0
M  V30 3758 H 347.488 0.229552 4.33192 0
M  V30 3759 H 348.159 -0.977699 5.43273 0
M  V30 3760 H 350.635 -1.86239 3.72095 0
M  V30 3761 H 349.511 -2.84587 4.69363 0
M  V30 3762 H 349.772 -3.24461 3.00296 0
M  V30 3763 N 348.832 -1.54138 -0.328536 0
M  V30 3764 C 349.764 -1.79509 -1.4251 0
M  V30 3765 C 350.777 -0.67688 -1.48061 0
M  V30 3766 O 351.966 -0.953898 -1.50874 0
M  V30 3767 C 349.066 -1.89337 -2.81078 0
M  V30 3768 C 348.239 -3.19443 -2.98789 0
M  V30 3769 C 347.298 -3.20036 -4.17688 0
M  V30 3770 O 346.324 -3.93697 -4.11086 0
M  V30 3771 N 347.526 -2.43467 -5.26976 0
M  V30 3772 H 350.291 -2.74139 -1.21111 0
M  V30 3773 H 347.852 -1.53373 -0.518499 0
M  V30 3774 H 349.844 -1.87167 -3.58818 0
M  V30 3775 H 348.414 -1.01826 -2.95551 0
M  V30 3776 H 347.634 -3.34614 -2.08391 0
M  V30 3777 H 348.922 -4.05354 -3.07515 0
M  V30 3778 H 348.32 -1.83201 -5.35214 0
M  V30 3779 H 346.877 -2.4708 -6.03154 0
M  V30 3780 N 350.31 0.590341 -1.46126 0
M  V30 3781 C 351.22 1.72793 -1.58681 0
M  V30 3782 C 352.236 1.67516 -0.470566 0
M  V30 3783 O 353.412 1.87562 -0.733642 0
M  V30 3784 C 350.477 3.09287 -1.5666 0
M  V30 3785 C 349.538 3.25886 -2.79458 0
M  V30 3786 C 348.771 4.55869 -2.77524 0
M  V30 3787 O 348.994 5.3928 -1.85832 0
M  V30 3788 O 347.928 4.75552 -3.68964 0
M  V30 3789 H 351.754 1.65149 -2.54872 0
M  V30 3790 H 349.339 0.756486 -1.28832 0
M  V30 3791 H 351.221 3.90577 -1.58202 0
M  V30 3792 H 349.896 3.17385 -0.636271 0
M  V30 3793 H 348.803 2.44119 -2.83472 0
M  V30 3794 H 350.136 3.22675 -3.71674 0
M  V30 3795 N 351.788 1.33704 0.83433 0
M  V30 3796 C 353.013 1.28615 1.62705 0
M  V30 3797 C 353.438 -0.139242 1.87584 0
M  V30 3798 O 352.796 -1.09734 1.4432 0
M  V30 3799 C 352.844 2.07139 2.95171 0
M  V30 3800 O 351.948 1.4331 3.86699 0
M  V30 3801 H 351.289 0.44226 0.49528 0
M  V30 3802 H 353.819 1.76335 1.03766 0
M  V30 3803 H 353.829 2.18073 3.44831 0
M  V30 3804 H 352.504 3.10779 2.76386 0
M  V30 3805 H 351.081 1.4105 3.45195 0
M  V30 3806 N 353.266 -1.05314 1.17247 0
M  V30 3807 C 354.514 -1.77941 0.958194 0
M  V30 3808 C 354.835 -1.88089 -0.514556 0
M  V30 3809 O 354.105 -1.39676 -1.37359 0
M  V30 3810 H 352.685 -0.659116 0.351533 0
M  V30 3811 H 355.347 -1.27166 1.47699 0
M  V30 3812 H 354.443 -2.79663 1.38546 0
M  V30 3813 N 354.744 -0.972509 -1.24016 0
M  V30 3814 C 355.676 -0.464375 -2.24446 0
M  V30 3815 C 356.689 0.4295 -1.57032 0
M  V30 3816 O 357.878 0.234902 -1.76948 0
M  V30 3817 C 354.978 0.348385 -3.37105 0
M  V30 3818 C 354.151 -0.53673 -4.34094 0
M  V30 3819 C 353.21 0.220838 -5.25736 0
M  V30 3820 O 352.236 -0.386867 -5.67884 0
M  V30 3821 N 353.438 1.50907 -5.60542 0
M  V30 3822 H 356.203 -1.32788 -2.68677 0
M  V30 3823 H 353.764 -0.844877 -1.38107 0
M  V30 3824 H 355.756 0.863341 -3.95384 0
M  V30 3825 H 354.326 1.11285 -2.92121 0
M  V30 3826 H 353.546 -1.23261 -3.74433 0
M  V30 3827 H 354.834 -1.14022 -4.95859 0
M  V30 3828 H 354.232 2.02444 -5.28236 0
M  V30 3829 H 352.789 1.96962 -6.21329 0
M  V30 3830 N 356.222 1.38976 -0.743202 0
M  V30 3831 C 357.17 2.32394 -0.0978389 0
M  V30 3832 C 358.164 1.53486 0.716824 0
M  V30 3833 O 359.37 1.69092 0.617088 0
M  V30 3834 H 355.745 0.75189 -0.0128402 0
M  V30 3835 H 357.716 2.84441 -0.901981 0
M  V30 3836 C 356.465 3.38629 0.789036 0
M  V30 3837 H 355.788 3.99432 0.171559 0
M  V30 3838 H 357.228 4.06426 1.20807 0
M  V30 3839 C 355.687 2.76347 1.92702 0
M  V30 3840 O 356.217 2.64836 3.02034 0
M  V30 3841 N 354.423 2.34311 1.71891 0
M  V30 3842 H 353.97 2.43873 0.829675 0
M  V30 3843 H 353.928 1.9298 2.48205 0
M  V30 3844 N 357.7 0.491464 1.49741 0
M  V30 3845 C 358.947 -0.0564256 2.02421 0
M  V30 3846 C 359.275 -1.37872 1.37192 0
M  V30 3847 O 358.53 -1.89375 0.493508 0
M  V30 3848 C 358.829 -0.267329 3.56399 0
M  V30 3849 C 358.495 0.975775 4.40215 0
M  V30 3850 C 357.157 1.31655 4.62839 0
M  V30 3851 C 359.509 1.80251 4.89039 0
M  V30 3852 C 356.837 2.48375 5.31532 0
M  V30 3853 C 359.189 2.96116 5.59015 0
M  V30 3854 C 357.853 3.30585 5.79888 0
M  V30 3855 H 357.123 -0.0206476 0.740712 0
M  V30 3856 H 359.77 0.649686 1.80143 0
M  V30 3857 H 358.075 -1.05588 3.77304 0
M  V30 3858 H 359.772 -0.705549 3.94744 0
M  V30 3859 H 356.362 0.700315 4.2284 0
M  V30 3860 H 360.546 1.55239 4.71396 0
M  V30 3861 H 355.802 2.7533 5.45897 0
M  V30 3862 H 359.976 3.60509 5.95824 0
M  V30 3863 H 357.603 4.21132 6.32892 0
M  V30 3864 N 359.178 -1.55987 0.224894 0
M  V30 3865 C 360.403 -2.03232 -0.41369 0
M  V30 3866 C 360.828 -1.10359 -1.52323 0
M  V30 3867 O 360.186 -0.092395 -1.81064 0
M  V30 3868 C 360.234 -3.48682 -0.919405 0
M  V30 3869 O 359.338 -3.58947 -2.03054 0
M  V30 3870 H 358.679 -0.657428 -0.0931903 0
M  V30 3871 H 361.209 -2.01679 0.34451 0
M  V30 3872 H 361.219 -3.8907 -1.22835 0
M  V30 3873 H 359.894 -4.15761 -0.107339 0
M  V30 3874 H 358.471 -3.30448 -1.72796 0
M  V30 3875 N 360.656 0.0484629 -1.57525 0
M  V30 3876 C 361.884 0.755421 -1.92616 0
M  V30 3877 C 362.299 1.69919 -0.822984 0
M  V30 3878 O 361.656 1.81378 0.202085 0
M  V30 3879 C 361.707 1.52915 -3.27566 0
M  V30 3880 O 361.428 0.62329 -4.33644 0
M  V30 3881 C 362.929 2.33502 -3.76818 0
M  V30 3882 H 360.149 0.213465 -0.63614 0
M  V30 3883 H 362.693 0.0117698 -2.04497 0
M  V30 3884 H 360.848 2.22486 -3.17142 0
M  V30 3885 H 361.262 1.16383 -5.11425 0
M  V30 3886 H 362.736 2.83214 -4.73808 0
M  V30 3887 H 363.213 3.14068 -3.07014 0
M  V30 3888 H 363.819 1.69043 -3.90262 0
M  V30 3889 N 362.134 1.5431 0.320358 0
M  V30 3890 C 363.064 1.86912 1.3995 0
M  V30 3891 C 364.045 0.726211 1.53819 0
M  V30 3892 O 365.23 0.980233 1.67646 0
M  V30 3893 C 362.36 2.09932 2.7667 0
M  V30 3894 C 361.314 3.25776 2.77586 0
M  V30 3895 C 360.64 3.34173 4.17412 0
M  V30 3896 C 361.94 4.6335 2.41048 0
M  V30 3897 H 363.634 2.77292 1.12914 0
M  V30 3898 H 361.18 1.33421 0.541738 0
M  V30 3899 H 363.133 2.31324 3.52232 0
M  V30 3900 H 361.857 1.16304 3.0519 0
M  V30 3901 H 360.516 3.04276 2.04479 0
M  V30 3902 H 360.164 2.38098 4.43078 0
M  V30 3903 H 359.864 4.12033 4.18931 0
M  V30 3904 H 361.388 3.57803 4.94782 0
M  V30 3905 H 362.802 4.84602 3.06324 0
M  V30 3906 H 361.199 5.43782 2.53813 0
M  V30 3907 H 362.269 4.65381 1.36193 0
M  V30 3908 N 363.613 -0.582584 1.46437 0
M  V30 3909 C 364.576 -1.67366 1.56592 0
M  V30 3910 C 365.576 -1.54575 0.443072 0
M  V30 3911 O 366.766 -1.59191 0.707381 0
M  V30 3912 C 363.898 -3.06791 1.48634 0
M  V30 3913 H 365.091 -1.5972 2.5383 0
M  V30 3914 H 362.644 -0.800432 1.34249 0
M  V30 3915 H 363.379 -3.19993 0.526763 0
M  V30 3916 H 363.164 -3.17484 2.30101 0
M  V30 3917 H 364.654 -3.86218 1.58826 0
M  V30 3918 N 365.091 -1.34144 -0.827227 0
M  V30 3919 C 366.001 -1.27428 -1.96975 0
M  V30 3920 C 367.017 -0.182728 -1.73038 0
M  V30 3921 O 368.193 -0.408426 -1.97215 0
M  V30 3922 C 365.258 -1.02526 -3.31194 0
M  V30 3923 C 364.319 -2.20796 -3.68168 0
M  V30 3924 C 363.552 -1.97073 -4.95982 0
M  V30 3925 O 363.775 -0.926822 -5.6282 0
M  V30 3926 O 362.709 -2.83912 -5.30733 0
M  V30 3927 H 366.535 -2.23537 -2.05584 0
M  V30 3928 H 364.12 -1.14307 -0.961989 0
M  V30 3929 H 366.002 -0.904026 -4.11589 0
M  V30 3930 H 364.677 -0.0945389 -3.23562 0
M  V30 3931 H 363.584 -2.38477 -2.88235 0
M  V30 3932 H 364.917 -3.12243 -3.8048 0
M  V30 3933 N 366.569 1.04691 -1.17803 0
M  V30 3934 C 367.516 2.12557 -0.899343 0
M  V30 3935 C 368.486 1.65339 0.158771 0
M  V30 3936 O 369.671 1.90789 0.0204797 0
M  V30 3937 C 366.811 3.42481 -0.424315 0
M  V30 3938 C 365.924 4.03346 -1.54713 0
M  V30 3939 C 365.059 5.21208 -1.02546 0
M  V30 3940 C 364.098 5.74089 -2.12339 0
M  V30 3941 N 363.235 6.83247 -1.61612 0
M  V30 3942 H 368.075 2.35734 -1.823 0
M  V30 3943 H 365.612 1.1564 -0.909159 0
M  V30 3944 H 367.57 4.16996 -0.130421 0
M  V30 3945 H 366.2 3.19471 0.462377 0
M  V30 3946 H 365.252 3.2622 -1.95664 0
M  V30 3947 H 366.564 4.38628 -2.37501 0
M  V30 3948 H 365.718 6.02812 -0.685718 0
M  V30 3949 H 364.457 4.87414 -0.167084 0
M  V30 3950 H 363.462 4.91111 -2.47165 0
M  V30 3951 H 364.687 6.0993 -2.98601 0
M  V30 3952 H 362.633 6.5134 -0.780533 0
M  V30 3953 H 362.55 7.17559 -2.38003 0
M  V30 3954 H 363.818 7.68491 -1.30545 0
M  V30 3955 N 368.047 0.979072 1.23499 0
M  V30 3956 C 369.295 0.645941 1.91499 0
M  V30 3957 C 369.616 -0.822948 1.76784 0
M  V30 3958 O 368.886 -1.58854 1.14639 0
M  V30 3959 H 367.466 0.235919 0.708767 0
M  V30 3960 H 370.128 1.2426 1.50152 0
M  V30 3961 H 369.224 0.896411 2.9895 0
M  V30 3962 N 369.525 -1.3858 0.750561 0
M  V30 3963 C 370.773 -1.99789 0.30477 0
M  V30 3964 C 371.094 -1.59874 -1.11649 0
M  V30 3965 O 370.364 -0.85417 -1.76297 0
M  V30 3966 H 368.944 -0.738902 0.109694 0
M  V30 3967 H 371.606 -1.69391 0.963983 0
M  V30 3968 H 370.702 -3.09952 0.365499 0
M  V30 3969 N 371.003 -0.499398 -1.49478 0
M  V30 3970 C 372.249 0.0457576 -2.02748 0
M  V30 3971 C 372.582 1.36793 -1.37846 0
M  V30 3972 O 371.857 1.87596 -0.513601 0
M  V30 3973 C 372.14 0.199986 -3.59544 0
M  V30 3974 C 371.993 -1.1452 -4.34977 0
M  V30 3975 C 373.312 0.94137 -4.29914 0
M  V30 3976 H 370.431 0.0151552 -0.736844 0
M  V30 3977 H 373.073 -0.650498 -1.78518 0
M  V30 3978 H 371.223 0.793007 -3.8032 0
M  V30 3979 H 372.895 -1.77697 -4.25701 0
M  V30 3980 H 371.138 -1.73488 -3.97598 0
M  V30 3981 H 371.809 -0.990607 -5.43039 0
M  V30 3982 H 374.285 0.43844 -4.13784 0
M  V30 3983 H 373.161 1.01812 -5.39375 0
M  V30 3984 H 373.422 1.98471 -3.95046 0
M  V30 3985 N 372.481 1.55866 -0.233164 0
M  V30 3986 C 373.727 1.98897 0.395959 0
M  V30 3987 C 374.06 1.12091 1.58585 0
M  V30 3988 O 373.335 0.181182 1.93654 0
M  V30 3989 C 373.618 3.50658 0.819224 0
M  V30 3990 C 373.471 4.48233 -0.375109 0
M  V30 3991 C 374.79 4.07135 1.67121 0
M  V30 3992 H 371.909 0.723102 0.142451 0
M  V30 3993 H 374.551 1.87082 -0.331725 0
M  V30 3994 H 372.701 3.60857 1.43925 0
M  V30 3995 H 374.373 4.50031 -1.01341 0
M  V30 3996 H 372.616 4.21624 -1.02058 0
M  V30 3997 H 373.287 5.51988 -0.0358328 0
M  V30 3998 H 375.763 3.99952 1.14795 0
M  V30 3999 H 374.639 5.13615 1.93625 0
M  V30 4000 H 374.9 3.54736 2.63846 0
M  V30 4001 N 373.959 -0.0401083 1.57549 0
M  V30 4002 C 375.207 -0.731677 1.8839 0
M  V30 4003 C 375.528 -1.76481 0.829425 0
M  V30 4004 O 374.798 -1.95411 -0.1383 0
M  V30 4005 H 373.378 -0.273225 0.695239 0
M  V30 4006 H 376.04 -0.00867725 1.94898 0
M  V30 4007 H 375.136 -1.22816 2.86919 0
M  V30 4008 N 375.437 -1.54477 -0.31217 0
M  V30 4009 C 376.686 -1.72438 -1.04633 0
M  V30 4010 C 376.999 -0.511163 -1.88803 0
M  V30 4011 O 378.205 -0.572341 -2.65399 0
M  V30 4012 C 376.661 -3.05043 -1.9099 0
M  V30 4013 C 376.269 -4.33806 -1.11877 0
M  V30 4014 C 378.013 -3.32364 -2.64073 0
M  V30 4015 C 375.92 -5.57467 -1.97445 0
M  V30 4016 H 374.85 -0.642647 -0.394361 0
M  V30 4017 H 377.501 -1.80966 -0.303929 0
M  V30 4018 H 375.883 -2.90451 -2.69173 0
M  V30 4019 H 377.057 -4.59199 -0.383843 0
M  V30 4020 H 375.372 -4.13336 -0.504252 0
M  V30 4021 H 377.969 -4.21951 -3.28423 0
M  V30 4022 H 378.312 -2.50745 -3.32314 0
M  V30 4023 H 378.845 -3.47875 -1.92944 0
M  V30 4024 H 375.584 -6.41722 -1.33692 0
M  V30 4025 H 375.104 -5.36277 -2.6864 0
M  V30 4026 H 376.783 -5.94303 -2.5576 0
M  V30 4027 N 376.915 0.57481 -1.46744 0
M  V30 4028 C 378.143 1.35856 -1.56047 0
M  V30 4029 C 378.558 1.87691 -0.204365 0
M  V30 4030 O 377.915 1.64049 0.79963 0
M  V30 4031 C 377.966 2.54066 -2.57163 0
M  V30 4032 O 377.687 2.04377 -3.87507 0
M  V30 4033 C 379.188 3.46514 -2.76483 0
M  V30 4034 H 376.408 0.414754 -0.527466 0
M  V30 4035 H 378.952 0.698035 -1.92218 0
M  V30 4036 H 377.107 3.16092 -2.23974 0
M  V30 4037 H 377.521 2.81419 -4.4261 0
M  V30 4038 H 378.995 4.25919 -3.51137 0
M  V30 4039 H 379.472 3.98951 -1.83671 0
M  V30 4040 H 380.078 2.90318 -3.10799 0
M  V30 4041 N 378.394 1.34581 0.820102 0
M  V30 4042 C 379.643 1.26437 1.57151 0
M  V30 4043 C 379.956 -0.163111 1.94919 0
M  V30 4044 O 381.162 -0.366722 2.69012 0
M  V30 4045 C 379.618 2.21658 2.83541 0
M  V30 4046 C 379.226 3.69679 2.53065 0
M  V30 4047 C 380.97 2.22428 3.61561 0
M  V30 4048 C 378.877 4.56761 3.75664 0
M  V30 4049 H 377.807 0.469707 0.589823 0
M  V30 4050 H 380.458 1.59763 0.902656 0
M  V30 4051 H 378.84 1.81287 3.52067 0
M  V30 4052 H 380.014 4.18605 1.92631 0
M  V30 4053 H 378.329 3.71384 1.88316 0
M  V30 4054 H 380.926 2.8471 4.52597 0
M  V30 4055 H 381.269 1.22434 3.97889 0
M  V30 4056 H 381.802 2.61259 2.99981 0
M  V30 4057 H 378.541 5.57702 3.44454 0
M  V30 4058 H 378.061 4.12568 4.35371 0
M  V30 4059 H 379.74 4.71509 4.43044 0
M  V30 4060 N 379.872 -1.04064 1.18357 0
M  V30 4061 C 381.149 -1.74252 0.888581 0
M  V30 4062 C 381.529 -2.02138 -0.60856 0
M  V30 4063 O 380.877 -1.66656 -1.56327 0
M  V30 4064 C 381.087 -3.0277 1.73584 0
M  V30 4065 C 382.435 -3.76506 1.96286 0
M  V30 4066 O 383.459 -3.12668 1.70637 0
M  V30 4067 O 382.318 -4.91243 2.39464 0
M  V30 4068 H 379.412 -0.758271 0.330082 0
M  V30 4069 H 381.958 -1.1013 1.2911 0
M  V30 4070 H 380.73 -2.78299 2.75073 0
M  V30 4071 H 380.353 -3.74631 1.33183 0
M  V30 4072 N 381.35 -0.985608 -1.22978 0
M  V30 4073 C 382.596 -0.667998 -1.92118 0
M  V30 4074 C 382.951 0.790454 -1.75413 0
M  V30 4075 O 382.244 1.56336 -1.10768 0
M  V30 4076 C 382.438 -1.00014 -3.43121 0
M  V30 4077 C 382.267 -2.48933 -3.74516 0
M  V30 4078 C 381.037 -3.15218 -3.94925 0
M  V30 4079 C 383.235 -3.47024 -3.79577 0
M  V30 4080 N 381.217 -4.53689 -4.13569 0
M  V30 4081 C 382.588 -4.70923 -4.03276 0
M  V30 4082 C 384.643 -3.41432 -3.62393 0
M  V30 4083 C 383.346 -5.89914 -4.11574 0
M  V30 4084 C 385.372 -4.59793 -3.71947 0
M  V30 4085 C 384.734 -5.82489 -3.96088 0
M  V30 4086 H 380.833 -0.295589 -0.723983 0
M  V30 4087 H 383.417 -1.26413 -1.4808 0
M  V30 4088 H 381.588 -0.432655 -3.85983 0
M  V30 4089 H 383.32 -0.63927 -3.99619 0
M  V30 4090 H 380.075 -2.65702 -3.92045 0
M  V30 4091 H 380.499 -5.25492 -4.26834 0
M  V30 4092 H 385.141 -2.47594 -3.4272 0
M  V30 4093 H 382.859 -6.84164 -4.30053 0
M  V30 4094 H 386.445 -4.57048 -3.59998 0
M  V30 4095 H 385.325 -6.72546 -4.033 0
M  V30 4096 N 382.828 1.3818 -0.7579 0
M  V30 4097 C 383.778 2.27741 -0.108674 0
M  V30 4098 C 384.762 1.45415 0.688709 0
M  V30 4099 O 385.954 1.68108 0.553956 0
M  V30 4100 C 383.083 3.34313 0.780367 0
M  V30 4101 C 382.169 4.24093 -0.0240977 0
M  V30 4102 N 382.56 4.9451 -1.06271 0
M  V30 4103 C 380.858 4.45542 0.202049 0
M  V30 4104 C 381.559 5.60675 -1.54979 0
M  V30 4105 N 380.535 5.36684 -0.864348 0
M  V30 4106 H 384.337 2.79649 -0.904071 0
M  V30 4107 H 381.851 1.51133 -0.594346 0
M  V30 4108 H 383.848 3.97368 1.26114 0
M  V30 4109 H 382.508 2.83962 1.57467 0
M  V30 4110 H 383.519 4.97345 -1.44459 0
M  V30 4111 H 380.196 4.06091 0.96935 0
M  V30 4112 H 381.586 6.26992 -2.41517 0
M  V30 4113 N 384.306 0.507319 1.49211 0
M  V30 4114 C 385.546 -0.0332372 2.04373 0
M  V30 4115 C 385.91 -1.33694 1.37804 0
M  V30 4116 O 387.111 -1.96213 1.83722 0
M  V30 4117 C 385.382 -0.17599 3.56966 0
M  V30 4118 S 386.941 -0.669882 4.33657 0
M  V30 4119 H 383.759 0.00123603 0.710999 0
M  V30 4120 H 386.361 0.682725 1.83191 0
M  V30 4121 H 385.065 0.778053 4.02957 0
M  V30 4122 H 384.596 -0.917005 3.82563 0
M  V30 4123 H 386.611 -1.93806 4.56786 0
M  V30 4124 N 385.784 -1.5574 0.241426 0
M  V30 4125 C 387.061 -1.90704 -0.434881 0
M  V30 4126 C 387.441 -1.16145 -1.76277 0
M  V30 4127 O 386.789 -0.277152 -2.26813 0
M  V30 4128 C 386.999 -3.43657 -0.608343 0
M  V30 4129 C 388.347 -4.14806 -0.906725 0
M  V30 4130 O 389.371 -3.49366 -0.694408 0
M  V30 4131 O 388.23 -5.30548 -1.31075 0
M  V30 4132 H 385.324 -0.793592 -0.23268 0
M  V30 4133 H 387.87 -1.67288 0.285086 0
M  V30 4134 H 386.642 -3.89927 0.327505 0
M  V30 4135 H 386.265 -3.72918 -1.37906 0
M  V30 4136 N 387.262 0.0317525 -1.57568 0
M  V30 4137 C 388.192 1.03274 -2.0942 0
M  V30 4138 C 389.173 1.3788 -0.996143 0
M  V30 4139 O 390.358 1.46811 -1.27122 0
M  V30 4140 C 387.488 2.33448 -2.57137 0
M  V30 4141 C 386.442 2.13091 -3.71182 0
M  V30 4142 C 385.768 3.49001 -4.05095 0
M  V30 4143 C 387.068 1.51928 -4.99715 0
M  V30 4144 H 388.762 0.60112 -2.93303 0
M  V30 4145 H 386.308 0.287705 -1.41097 0
M  V30 4146 H 388.261 3.03802 -2.92032 0
M  V30 4147 H 386.985 2.78665 -1.70333 0
M  V30 4148 H 385.644 1.45171 -3.36632 0
M  V30 4149 H 385.292 3.91862 -3.15362 0
M  V30 4150 H 384.992 3.36207 -4.81911 0
M  V30 4151 H 386.516 4.20721 -4.42522 0
M  V30 4152 H 387.93 2.12196 -5.32584 0
M  V30 4153 H 386.327 1.49716 -5.81124 0
M  V30 4154 H 387.397 0.484811 -4.8247 0
M  V30 4155 N 388.74 1.54641 0.303973 0
M  V30 4156 C 390.017 1.64455 1.05896 0
M  V30 4157 C 390.397 0.490923 2.05312 0
M  V30 4158 O 389.745 -0.512685 2.22674 0
M  V30 4159 C 389.955 3.02331 1.74347 0
M  V30 4160 C 391.303 3.59045 2.26653 0
M  V30 4161 O 392.327 3.04764 1.84384 0
M  V30 4162 O 391.186 4.54081 3.04093 0
M  V30 4163 H 388.28 0.666729 0.489287 0
M  V30 4164 H 390.826 1.66986 0.302298 0
M  V30 4165 H 389.598 3.77734 1.02142 0
M  V30 4166 H 389.221 3.03565 2.56777 0
M  V30 4167 N 390.218 -0.567019 1.47046 0
M  V30 4168 C 391.464 -1.32434 1.54379 0
M  V30 4169 C 391.819 -1.91365 0.199276 0
M  V30 4170 O 391.112 -1.74378 -0.793915 0
M  V30 4171 C 391.306 -2.4623 2.59047 0
M  V30 4172 C 391.135 -1.98448 4.03545 0
M  V30 4173 C 389.905 -1.82741 4.71098 0
M  V30 4174 C 392.103 -1.53477 4.90866 0
M  V30 4175 N 390.085 -1.29196 6.00151 0
M  V30 4176 C 391.456 -1.1163 6.09868 0
M  V30 4177 C 393.511 -1.41438 4.77388 0
M  V30 4178 C 392.214 -0.589425 7.16881 0
M  V30 4179 C 394.24 -0.901528 5.84488 0
M  V30 4180 C 393.602 -0.492932 7.02673 0
M  V30 4181 H 389.701 -0.477005 0.61967 0
M  V30 4182 H 392.285 -0.643856 1.83746 0
M  V30 4183 H 390.456 -3.11821 2.31564 0
M  V30 4184 H 392.188 -3.13213 2.56281 0
M  V30 4185 H 388.943 -2.05162 4.26855 0
M  V30 4186 H 389.367 -1.0454 6.6888 0
M  V30 4187 H 394.009 -1.71643 3.86392 0
M  V30 4188 H 391.727 -0.274994 8.07632 0
M  V30 4189 H 395.313 -0.812071 5.76105 0
M  V30 4190 H 394.193 -0.102227 7.84133 0
M  V30 4191 N 391.696 -1.35014 -0.812953 0
M  V30 4192 C 392.646 -1.23959 -1.91359 0
M  V30 4193 C 393.63 -0.136306 -1.60322 0
M  V30 4194 O 394.822 -0.366925 -1.73155 0
M  V30 4195 C 391.951 -1.00736 -3.28188 0
M  V30 4196 C 391.037 -2.15426 -3.65311 0
M  V30 4197 N 391.428 -3.40612 -3.73921 0
M  V30 4198 C 389.726 -2.06672 -3.95225 0
M  V30 4199 C 390.427 -4.15994 -4.06601 0
M  V30 4200 N 389.403 -3.44685 -4.20349 0
M  V30 4201 H 393.205 -2.18815 -1.96208 0
M  V30 4202 H 390.719 -1.27395 -1.00718 0
M  V30 4203 H 392.716 -0.909052 -4.06868 0
M  V30 4204 H 391.376 -0.067586 -3.2463 0
M  V30 4205 H 392.387 -3.75043 -3.5716 0
M  V30 4206 H 389.064 -1.20511 -3.99729 0
M  V30 4207 H 390.454 -5.24145 -4.20382 0
M  V30 4208 N 393.175 1.03435 -1.18907 0
M  V30 4209 C 394.421 1.77005 -0.989798 0
M  V30 4210 C 394.754 1.88205 0.478816 0
M  V30 4211 O 394.029 1.39481 1.35556 0
M  V30 4212 C 394.312 3.19925 -1.65287 0
M  V30 4213 C 394.165 3.1663 -3.19477 0
M  V30 4214 C 395.484 4.18189 -1.37134 0
M  V30 4215 H 392.603 0.642538 -0.360991 0
M  V30 4216 H 395.245 1.20784 -1.46667 0
M  V30 4217 H 393.395 3.67929 -1.24741 0
M  V30 4218 H 395.067 2.76567 -3.692 0
M  V30 4219 H 393.31 2.54491 -3.51307 0
M  V30 4220 H 393.981 4.1758 -3.61013 0
M  V30 4221 H 396.457 3.78761 -1.72276 0
M  V30 4222 H 395.333 5.16394 -1.86087 0
M  V30 4223 H 395.594 4.41112 -0.295424 0
M  V30 4224 N 394.653 0.992116 1.22453 0
M  V30 4225 C 396.069 0.702713 1.43297 0
M  V30 4226 C 396.269 -0.726909 1.87932 0
M  V30 4227 O 395.325 -1.49792 2.0327 0
M  V30 4228 C 396.638 1.70762 2.47509 0
M  V30 4229 C 398.186 1.72298 2.61309 0
M  V30 4230 C 398.661 2.71649 3.68742 0
M  V30 4231 N 400.152 2.70239 3.76199 0
M  V30 4232 C 400.887 3.43778 4.58917 0
M  V30 4233 N 400.383 4.26914 5.45633 0
M  V30 4234 N 402.176 3.32487 4.5322 0
M  V30 4235 H 394.327 1.91543 0.917871 0
M  V30 4236 H 396.59 0.826031 0.465162 0
M  V30 4237 H 396.296 2.73059 2.21657 0
M  V30 4238 H 396.17 1.49985 3.46099 0
M  V30 4239 H 398.557 0.706989 2.86506 0
M  V30 4240 H 398.638 1.97143 1.62997 0
M  V30 4241 H 398.282 3.73397 3.44292 0
M  V30 4242 H 398.212 2.44074 4.66622 0
M  V30 4243 H 400.703 2.09912 3.14237 0
M  V30 4244 H 401.016 4.79855 6.05771 0
M  V30 4245 H 399.361 4.31002 5.45218 0
M  V30 4246 H 402.552 2.6698 3.84499 0
M  V30 4247 H 402.725 3.90058 5.17454 0
M  V30 4248 N 396.131 -1.37776 0.765217 0
M  V30 4249 C 397.081 -2.2768 0.12075 0
M  V30 4250 C 398.065 -1.45778 -0.680988 0
M  V30 4251 O 399.257 -1.684 -0.545033 0
M  V30 4252 C 396.386 -3.34722 -0.762626 0
M  V30 4253 C 395.472 -4.24074 0.0465881 0
M  V30 4254 N 395.863 -4.93939 1.08892 0
M  V30 4255 C 394.161 -4.45643 -0.178418 0
M  V30 4256 C 394.862 -5.59845 1.57951 0
M  V30 4257 N 393.838 -5.36218 0.892797 0
M  V30 4258 H 397.64 -2.79166 0.918889 0
M  V30 4259 H 395.154 -1.50816 0.602353 0
M  V30 4260 H 397.151 -3.98031 -1.24005 0
M  V30 4261 H 395.811 -2.84793 -1.55959 0
M  V30 4262 H 396.822 -4.96572 1.47095 0
M  V30 4263 H 393.499 -4.06599 -0.9478 0
M  V30 4264 H 394.889 -6.25703 2.44838 0
M  V30 4265 N 397.609 -0.515225 -1.4894 0
M  V30 4266 C 398.849 0.0223983 -2.04388 0
M  V30 4267 C 399.213 1.32961 -1.38511 0
M  V30 4268 O 400.414 1.95236 -1.8476 0
M  V30 4269 C 398.685 0.157056 -3.57055 0
M  V30 4270 S 400.244 0.646875 -4.34006 0
M  V30 4271 H 397.062 -0.00500662 -0.710982 0
M  V30 4272 H 399.664 -0.69243 -1.82827 0
M  V30 4273 H 398.368 -0.799412 -4.02539 0
M  V30 4274 H 397.899 0.896704 -3.83044 0
M  V30 4275 H 399.914 1.91381 -4.57808 0
M  V30 4276 N 399.087 1.5561 -0.249682 0
M  V30 4277 C 400.503 1.59254 0.105103 0
M  V30 4278 C 400.703 1.26685 1.56694 0
M  V30 4279 O 399.759 1.0155 2.31179 0
M  V30 4280 C 401.072 2.99687 -0.246592 0
M  V30 4281 C 402.62 3.12416 -0.191118 0
M  V30 4282 C 403.095 4.55074 -0.516885 0
M  V30 4283 N 404.586 4.60835 -0.467489 0
M  V30 4284 C 405.321 5.69201 -0.69268 0
M  V30 4285 N 404.817 6.85817 -0.981146 0
M  V30 4286 N 406.61 5.58635 -0.623198 0
M  V30 4287 H 398.761 1.75049 -1.20298 0
M  V30 4288 H 401.024 0.815003 -0.484225 0
M  V30 4289 H 400.73 3.28267 -1.26228 0
M  V30 4290 H 400.604 3.74798 0.424962 0
M  V30 4291 H 402.991 2.83615 0.815247 0
M  V30 4292 H 403.072 2.39573 -0.896563 0
M  V30 4293 H 402.716 4.84596 -1.52082 0
M  V30 4294 H 402.646 5.26181 0.210068 0
M  V30 4295 H 405.137 3.7705 -0.253373 0
M  V30 4296 H 405.45 7.64341 -1.14032 0
M  V30 4297 H 403.795 6.87494 -1.01865 0
M  V30 4298 H 406.986 4.66406 -0.397863 0
M  V30 4299 H 407.159 6.43017 -0.802093 0
M  V30 4300 N 400.565 -0.0233959 1.57583 0
M  V30 4301 C 401.976 -0.56927 1.77809 0
M  V30 4302 C 402.327 -1.75284 0.881472 0
M  V30 4303 O 401.452 -2.1626 0.0777805 0
M  V30 4304 C 402.047 -1.03949 3.22459 0
M  V30 4305 C 400.606 -1.53084 3.43864 0
M  V30 4306 C 399.753 -0.471454 2.73263 0
M  V30 4307 H 402.704 0.202825 1.57399 0
M  V30 4308 H 402.725 -1.90661 3.29285 0
M  V30 4309 H 402.237 -0.177865 3.87692 0
M  V30 4310 H 400.338 -2.41414 2.83814 0
M  V30 4311 H 400.451 -1.57443 4.52491 0
M  V30 4312 H 398.815 -0.927788 2.37201 0
M  V30 4313 H 399.598 0.380808 3.41181 0
M  V30 4314 N 402.043 -1.548 -0.295768 0
M  V30 4315 C 403.292 -1.73538 -1.02798 0
M  V30 4316 C 403.605 -0.531159 -1.8825 0
M  V30 4317 O 404.811 -0.600458 -2.64777 0
M  V30 4318 C 403.267 -3.07051 -1.87744 0
M  V30 4319 C 402.875 -4.34968 -1.07269 0
M  V30 4320 C 404.619 -3.35146 -2.60533 0
M  V30 4321 C 402.526 -5.5953 -1.91521 0
M  V30 4322 H 401.456 -0.646794 -0.387522 0
M  V30 4323 H 404.107 -1.81278 -0.284718 0
M  V30 4324 H 402.489 -2.93289 -2.66078 0
M  V30 4325 H 403.663 -4.5958 -0.335117 0
M  V30 4326 H 401.978 -4.13847 -0.460384 0
M  V30 4327 H 404.575 -4.2541 -3.23929 0
M  V30 4328 H 404.918 -2.54255 -3.29636 0
M  V30 4329 H 405.451 -3.49902 -1.89244 0
M  V30 4330 H 402.19 -6.43103 -1.26878 0
M  V30 4331 H 401.71 -5.39096 -2.62937 0
M  V30 4332 H 403.389 -5.96982 -2.49442 0
M  V30 4333 N 403.521 0.559213 -1.47345 0
M  V30 4334 C 404.751 1.33999 -1.57251 0
M  V30 4335 C 405.159 1.87905 -0.220978 0
M  V30 4336 O 404.502 1.65577 0.795617 0
M  V30 4337 C 404.564 2.54798 -2.53611 0
M  V30 4338 C 404.228 2.22192 -3.99349 0
M  V30 4339 C 405.225 1.79607 -4.87891 0
M  V30 4340 C 402.91 2.33613 -4.44669 0
M  V30 4341 C 404.904 1.48868 -6.19772 0
M  V30 4342 C 402.591 2.02487 -5.76578 0
M  V30 4343 C 403.589 1.60183 -6.63951 0
M  V30 4344 O 403.277 1.29451 -7.93409 0
M  V30 4345 H 403.009 0.414858 -0.533731 0
M  V30 4346 H 405.563 0.684465 -1.9366 0
M  V30 4347 H 403.793 3.23235 -2.12265 0
M  V30 4348 H 405.482 3.16873 -2.53666 0
M  V30 4349 H 406.248 1.70278 -4.54126 0
M  V30 4350 H 402.127 2.65501 -3.76869 0
M  V30 4351 H 405.671 1.15775 -6.87926 0
M  V30 4352 H 401.568 2.11448 -6.09885 0
M  V30 4353 H 402.336 1.43098 -8.05894 0
M  V30 4354 N 404.999 1.35443 0.805782 0
M  V30 4355 C 405.909 1.30546 1.94923 0
M  V30 4356 C 406.925 0.210233 1.72725 0
M  V30 4357 O 408.101 0.43975 1.9654 0
M  V30 4358 C 405.166 1.07782 3.29521 0
M  V30 4359 C 404.227 2.26625 3.64609 0
M  V30 4360 C 403.46 2.04938 4.92784 0
M  V30 4361 O 403.683 1.01624 5.61274 0
M  V30 4362 O 402.617 2.9232 5.26149 0
M  V30 4363 H 406.443 2.26779 2.02002 0
M  V30 4364 H 404.028 1.15823 0.943682 0
M  V30 4365 H 405.91 0.969392 4.10098 0
M  V30 4366 H 404.585 0.146003 3.23371 0
M  V30 4367 H 403.492 2.43033 2.84404 0
M  V30 4368 H 404.825 3.18257 3.75464 0
M  V30 4369 N 406.477 -1.02803 1.19454 0
M  V30 4370 C 407.724 -1.76217 0.997693 0
M  V30 4371 C 408.052 -1.887 -0.47144 0
M  V30 4372 O 407.307 -1.4011 -1.3663 0
M  V30 4373 C 407.606 -3.18941 1.6128 0
M  V30 4374 C 407.272 -3.26463 3.11019 0
M  V30 4375 C 405.934 -3.28223 3.51885 0
M  V30 4376 C 408.286 -3.25542 4.07028 0
M  V30 4377 C 405.614 -3.26719 4.8731 0
M  V30 4378 C 407.966 -3.25579 5.42385 0
M  V30 4379 C 406.63 -3.25637 5.82681 0
M  V30 4380 H 405.9 -0.644823 0.365082 0
M  V30 4381 H 408.547 -1.20655 1.4871 0
M  V30 4382 H 406.852 -3.77587 1.04572 0
M  V30 4383 H 408.549 -3.74415 1.43577 0
M  V30 4384 H 405.139 -3.25822 2.78457 0
M  V30 4385 H 409.323 -3.23362 3.76498 0
M  V30 4386 H 404.579 -3.25089 5.1781 0
M  V30 4387 H 408.753 -3.23817 6.16535 0
M  V30 4388 H 406.38 -3.24226 6.87591 0
M  V30 4389 N 407.956 -0.998596 -1.21925 0
M  V30 4390 C 408.906 -0.524743 -2.21879 0
M  V30 4391 C 409.89 0.41017 -1.55584 0
M  V30 4392 O 411.082 0.236063 -1.75419 0
M  V30 4393 C 408.211 0.153636 -3.42956 0
M  V30 4394 C 407.297 -0.801918 -4.16449 0
M  V30 4395 N 407.688 -1.95211 -4.66611 0
M  V30 4396 C 405.986 -0.618972 -4.41684 0
M  V30 4397 C 406.687 -2.55234 -5.22715 0
M  V30 4398 N 405.663 -1.83451 -5.1171 0
M  V30 4399 H 409.465 -1.40189 -2.58311 0
M  V30 4400 H 406.979 -0.86159 -1.3766 0
M  V30 4401 H 408.976 0.510534 -4.13762 0
M  V30 4402 H 407.636 1.02684 -3.08036 0
M  V30 4403 H 408.647 -2.33271 -4.62391 0
M  V30 4404 H 405.324 0.207694 -4.16983 0
M  V30 4405 H 406.714 -3.52471 -5.72026 0
M  V30 4406 N 409.434 1.37368 -0.772513 0
M  V30 4407 C 410.682 1.99279 -0.336516 0
M  V30 4408 C 411.003 1.6163 1.09091 0
M  V30 4409 O 410.273 0.882109 1.74916 0
M  V30 4410 H 408.853 0.737063 -0.121435 0
M  V30 4411 H 411.515 1.67836 -0.990809 0
M  V30 4412 H 410.611 3.09332 -0.414763 0
M  V30 4413 N 410.912 0.523116 1.48665 0
M  V30 4414 C 411.842 -0.23231 2.32342 0
M  V30 4415 C 412.823 -0.941637 1.41659 0
M  V30 4416 O 414.008 -0.928751 1.70552 0
M  V30 4417 C 411.138 -1.28387 3.22698 0
M  V30 4418 C 410.092 -0.693098 4.22351 0
M  V30 4419 C 409.418 -1.8468 5.01794 0
M  V30 4420 C 410.718 0.33063 5.21252 0
M  V30 4421 H 412.412 0.466192 2.95748 0
M  V30 4422 H 409.958 0.225643 1.42221 0
M  V30 4423 H 411.911 -1.82024 3.80059 0
M  V30 4424 H 410.635 -2.01186 2.57278 0
M  V30 4425 H 409.294 -0.178299 3.66166 0
M  V30 4426 H 408.942 -2.56301 4.32804 0
M  V30 4427 H 408.642 -1.45747 5.69238 0
M  V30 4428 H 410.166 -2.38709 5.62006 0
M  V30 4429 H 411.58 -0.118407 5.73178 0
M  V30 4430 H 409.977 0.636974 5.9671 0
M  V30 4431 H 411.047 1.23883 4.68808 0
M  V30 4432 N 412.39 -1.55475 0.257931 0
M  V30 4433 C 413.62 -2.03314 -0.367026 0
M  V30 4434 C 414.028 -1.13625 -1.51281 0
M  V30 4435 O 413.371 -0.145334 -1.83124 0
M  V30 4436 C 413.433 -3.47362 -0.926284 0
M  V30 4437 C 413.097 -4.56914 0.0886584 0
M  V30 4438 C 414.094 -5.12013 0.902123 0
M  V30 4439 C 411.779 -5.01827 0.217936 0
M  V30 4440 C 413.773 -6.10529 1.83122 0
M  V30 4441 C 411.46 -6.00172 1.15052 0
M  V30 4442 C 412.458 -6.54402 1.95568 0
M  V30 4443 O 412.146 -7.50827 2.87253 0
M  V30 4444 H 411.878 -0.669976 -0.0900443 0
M  V30 4445 H 414.432 -2.01804 0.382673 0
M  V30 4446 H 412.662 -3.46056 -1.72575 0
M  V30 4447 H 414.351 -3.78637 -1.46249 0
M  V30 4448 H 415.117 -4.78139 0.812891 0
M  V30 4449 H 410.996 -4.59272 -0.398721 0
M  V30 4450 H 414.54 -6.52783 2.46008 0
M  V30 4451 H 410.437 -6.33465 1.24064 0
M  V30 4452 H 411.205 -7.68483 2.81739 0
M  V30 4453 N 413.868 0.0150385 -1.57593 0
M  V30 4454 C 414.778 1.02791 -2.10882 0
M  V30 4455 C 415.794 1.38702 -1.0506 0
M  V30 4456 O 416.97 1.47739 -1.36877 0
M  V30 4457 C 414.035 2.30568 -2.58919 0
M  V30 4458 C 413.096 2.01108 -3.79281 0
M  V30 4459 C 412.329 3.22794 -4.25018 0
M  V30 4460 O 412.552 4.33959 -3.70183 0
M  V30 4461 O 411.486 3.07672 -5.17322 0
M  V30 4462 H 415.312 0.604973 -2.97613 0
M  V30 4463 H 412.897 0.23292 -1.47573 0
M  V30 4464 H 414.779 3.05662 -2.90084 0
M  V30 4465 H 413.454 2.72129 -1.75293 0
M  V30 4466 H 412.361 1.23537 -3.53114 0
M  V30 4467 H 413.694 1.64394 -4.63935 0
M  V30 4468 N 415.346 1.54954 0.287554 0
M  V30 4469 C 416.256 1.8991 1.37736 0
M  V30 4470 C 417.272 0.794701 1.54792 0
M  V30 4471 O 418.448 1.09243 1.69198 0
M  V30 4472 C 415.513 2.15108 2.71899 0
M  V30 4473 C 414.574 3.38752 2.63715 0
M  V30 4474 C 413.807 3.62739 3.91479 0
M  V30 4475 O 414.03 2.89492 4.91478 0
M  V30 4476 O 412.964 4.56267 3.92561 0
M  V30 4477 H 416.79 2.82652 1.11092 0
M  V30 4478 H 414.375 1.41315 0.484807 0
M  V30 4479 H 416.257 2.32806 3.51254 0
M  V30 4480 H 414.932 1.25551 2.9836 0
M  V30 4481 H 413.839 3.26405 1.82786 0
M  V30 4482 H 415.172 4.28483 2.42205 0
M  V30 4483 N 416.824 -0.551391 1.4764 0
M  V30 4484 C 417.771 -1.65796 1.60563 0
M  V30 4485 C 418.741 -1.59932 0.448428 0
M  V30 4486 O 419.926 -1.78679 0.669222 0
M  V30 4487 C 417.066 -3.04108 1.63133 0
M  V30 4488 C 416.179 -3.20365 2.89811 0
M  V30 4489 C 415.314 -4.49109 2.8368 0
M  V30 4490 C 414.353 -4.58819 4.05156 0
M  V30 4491 N 413.49 -5.78926 3.97227 0
M  V30 4492 H 418.33 -1.54088 2.5507 0
M  V30 4493 H 415.867 -0.75052 1.26513 0
M  V30 4494 H 417.825 -3.84207 1.62606 0
M  V30 4495 H 416.455 -3.14637 0.721341 0
M  V30 4496 H 415.507 -2.33659 3.00179 0
M  V30 4497 H 416.819 -3.23402 3.79753 0
M  V30 4498 H 415.973 -5.37475 2.81434 0
M  V30 4499 H 414.712 -4.4856 1.91431 0
M  V30 4500 H 413.717 -3.68864 4.077 0
M  V30 4501 H 414.942 -4.61124 4.98539 0
M  V30 4502 H 412.888 -5.79314 3.07785 0
M  V30 4503 H 412.805 -5.83367 4.80853 0
M  V30 4504 H 414.073 -6.69637 3.99007 0
M  V30 4505 N 418.302 -1.35869 -0.798587 0
M  V30 4506 C 419.25 -1.29491 -1.93222 0
M  V30 4507 C 420.244 -0.18836 -1.6835 0
M  V30 4508 O 421.45 -0.354822 -1.76468 0
M  V30 4509 H 417.825 -0.402901 -0.63496 0
M  V30 4510 H 419.796 -2.25247 -1.9572 0
M  V30 4511 C 418.545 -1.09184 -3.30112 0
M  V30 4512 H 417.868 -1.93574 -3.49813 0
M  V30 4513 H 419.308 -1.08766 -4.09812 0
M  V30 4514 C 417.767 0.203959 -3.36282 0
M  V30 4515 O 418.297 1.19699 -3.83451 0
M  V30 4516 N 416.503 0.245488 -2.89561 0
M  V30 4517 H 416.05 -0.563223 -2.51367 0
M  V30 4518 H 416.008 1.11219 -2.94071 0
M  V30 4519 N 419.78 1.02168 -1.19998 0
M  V30 4520 C 420.71 2.12488 -0.96804 0
M  V30 4521 C 421.691 1.69799 0.101185 0
M  V30 4522 O 422.876 1.94121 -0.0552993 0
M  V30 4523 C 420.006 3.43479 -0.513776 0
M  V30 4524 C 418.96 3.99884 -1.52566 0
M  V30 4525 C 418.286 5.26582 -0.928214 0
M  V30 4526 C 419.586 4.33861 -2.90795 0
M  V30 4527 H 421.28 2.32149 -1.89069 0
M  V30 4528 H 418.826 1.11564 -0.910468 0
M  V30 4529 H 420.779 4.20036 -0.338774 0
M  V30 4530 H 419.503 3.23561 0.444493 0
M  V30 4531 H 418.162 3.25429 -1.68794 0
M  V30 4532 H 417.81 5.02986 0.0378289 0
M  V30 4533 H 417.51 5.65284 -1.60397 0
M  V30 4534 H 419.034 6.05799 -0.764167 0
M  V30 4535 H 420.448 5.01327 -2.78109 0
M  V30 4536 H 418.845 4.83664 -3.55231 0
M  V30 4537 H 419.915 3.42848 -3.42904 0
M  V30 4538 N 421.258 1.00505 1.21394 0
M  V30 4539 C 422.483 0.706367 1.95001 0
M  V30 4540 C 422.908 -0.72463 1.73582 0
M  V30 4541 O 422.266 -1.49702 1.0227 0
M  V30 4542 C 422.314 1.03299 3.45487 0
M  V30 4543 O 421.418 0.138275 4.12168 0
M  V30 4544 H 420.759 0.263175 0.609619 0
M  V30 4545 H 423.289 1.34531 1.54151 0
M  V30 4546 H 423.299 0.979872 3.96059 0
M  V30 4547 H 421.974 2.07567 3.60401 0
M  V30 4548 H 420.551 0.247928 3.72075 0
M  V30 4549 N 422.737 -1.36956 0.779787 0
M  V30 4550 C 424.148 -1.82094 0.412156 0
M  V30 4551 C 424.499 -1.64926 -1.06273 0
M  V30 4552 O 423.624 -1.16483 -1.82375 0
M  V30 4553 C 424.219 -3.3059 0.741319 0
M  V30 4554 C 422.778 -3.73974 0.426641 0
M  V30 4555 C 421.925 -2.59368 0.980987 0
M  V30 4556 H 424.876 -1.25314 0.973758 0
M  V30 4557 H 424.897 -3.80489 0.028887 0
M  V30 4558 H 424.409 -3.43054 1.81482 0
M  V30 4559 H 422.51 -3.67076 -0.639215 0
M  V30 4560 H 422.623 -4.69778 0.940515 0
M  V30 4561 H 420.987 -2.51463 0.404757 0
M  V30 4562 H 421.77 -2.74621 2.06005 0
M  V30 4563 N 424.215 -0.530993 -1.48385 0
M  V30 4564 C 425.463 0.00273189 -2.021 0
M  V30 4565 C 425.784 1.34672 -1.41027 0
M  V30 4566 O 425.054 1.8724 -0.576012 0
M  V30 4567 H 423.634 0.00399774 -0.746989 0
M  V30 4568 H 426.296 -0.695054 -1.82085 0
M  V30 4569 H 425.392 0.11031 -3.11905 0
M  V30 4570 N 425.693 1.55336 -0.266172 0
M  V30 4571 C 426.94 1.99397 0.353158 0
M  V30 4572 C 427.268 1.15451 1.56529 0
M  V30 4573 O 426.523 0.209974 1.9457 0
M  V30 4574 C 426.822 3.48606 0.787957 0
M  V30 4575 C 426.488 4.49773 -0.318541 0
M  V30 4576 C 425.15 4.77158 -0.62239 0
M  V30 4577 C 427.502 5.10212 -1.06459 0
M  V30 4578 C 424.83 5.62251 -1.67602 0
M  V30 4579 C 427.182 5.96449 -2.10788 0
M  V30 4580 C 425.846 6.22158 -2.41817 0
M  V30 4581 H 425.116 0.729644 0.12923 0
M  V30 4582 H 427.763 1.87732 -0.37802 0
M  V30 4583 H 426.068 3.57701 1.59866 0
M  V30 4584 H 427.765 3.80098 1.27775 0
M  V30 4585 H 424.355 4.2854 -0.0715925 0
M  V30 4586 H 428.539 4.89086 -0.843098 0
M  V30 4587 H 423.795 5.80419 -1.92155 0
M  V30 4588 H 427.969 6.42317 -2.69076 0
M  V30 4589 H 425.596 6.87888 -3.23596 0
M  V30 4590 N 427.171 -0.0066808 1.57599 0
M  V30 4591 C 428.119 -1.01851 2.09115 0
M  V30 4592 C 429.113 -1.36021 1.00969 0
M  V30 4593 O 430.319 -1.34663 1.19439 0
M  V30 4594 H 426.694 -0.346083 0.667631 0
M  V30 4595 H 428.665 -0.558394 2.93129 0
M  V30 4596 C 427.414 -2.30374 2.60429 0
M  V30 4597 H 426.737 -2.04947 3.43273 0
M  V30 4598 H 428.177 -2.99466 3.00161 0
M  V30 4599 C 426.636 -3.00893 1.51542 0
M  V30 4600 O 427.166 -3.91614 0.894484 0
M  V30 4601 N 425.372 -2.62603 1.2445 0
M  V30 4602 H 424.919 -1.88911 1.75129 0
M  V30 4603 H 424.877 -3.10101 0.518137 0
M  V30 4604 N 428.649 -1.55105 -0.279332 0
M  V30 4605 C 429.896 -1.75412 -1.01177 0
M  V30 4606 C 430.224 -0.551728 -1.86511 0
M  V30 4607 O 429.479 0.465919 -1.90073 0
M  V30 4608 C 429.778 -3.0086 -1.92919 0
M  V30 4609 C 429.444 -4.33689 -1.23387 0
M  V30 4610 C 428.106 -4.69792 -1.04159 0
M  V30 4611 C 430.458 -5.15941 -0.738562 0
M  V30 4612 C 427.786 -5.85707 -0.341166 0
M  V30 4613 C 430.138 -6.32579 -0.0517636 0
M  V30 4614 C 428.802 -6.67326 0.152292 0
M  V30 4615 H 428.072 -0.641879 -0.370233 0
M  V30 4616 H 430.719 -1.89373 -0.284627 0
M  V30 4617 H 429.024 -2.81773 -2.72234 0
M  V30 4618 H 430.721 -3.13768 -2.49701 0
M  V30 4619 H 427.311 -4.05309 -1.39364 0
M  V30 4620 H 431.495 -4.8853 -0.874764 0
M  V30 4621 H 426.751 -6.11157 -0.172287 0
M  V30 4622 H 430.925 -6.9557 0.339828 0
M  V30 4623 H 428.552 -7.56998 0.697014 0
M  V30 4624 N 430.127 0.543554 -1.4793 0
M  V30 4625 C 431.543 0.870806 -1.3375 0
M  V30 4626 C 431.743 1.9864 -0.338261 0
M  V30 4627 O 430.799 2.51305 0.245371 0
M  V30 4628 C 432.112 1.25114 -2.73435 0
M  V30 4629 C 433.66 1.3618 -2.81823 0
M  V30 4630 C 434.135 1.77563 -4.22179 0
M  V30 4631 N 435.626 1.8469 -4.24787 0
M  V30 4632 C 436.361 2.18067 -5.30315 0
M  V30 4633 N 435.857 2.49963 -6.46135 0
M  V30 4634 N 437.65 2.18958 -5.17701 0
M  V30 4635 H 429.801 -0.19275 -2.11524 0
M  V30 4636 H 432.064 -0.0235777 -0.947707 0
M  V30 4637 H 431.77 0.50514 -3.48053 0
M  V30 4638 H 431.644 2.20431 -3.06088 0
M  V30 4639 H 434.031 2.09859 -2.07468 0
M  V30 4640 H 434.112 0.390169 -2.52807 0
M  V30 4641 H 433.756 1.04449 -4.97044 0
M  V30 4642 H 433.686 2.75753 -4.48629 0
M  V30 4643 H 436.177 1.62372 -3.41239 0
M  V30 4644 H 436.49 2.74497 -7.22406 0
M  V30 4645 H 434.835 2.47513 -6.49432 0
M  V30 4646 H 438.026 1.93488 -4.2624 0
M  V30 4647 H 438.199 2.44639 -6.00047 0
M  V30 4648 N 431.605 1.3629 0.791371 0
M  V30 4649 C 432.852 1.30412 1.54916 0
M  V30 4650 C 433.18 -0.117162 1.94147 0
M  V30 4651 O 432.435 -1.08599 1.62803 0
M  V30 4652 C 432.734 2.17068 2.8393 0
M  V30 4653 C 432.4 3.65645 2.63846 0
M  V30 4654 C 431.062 4.0614 2.58077 0
M  V30 4655 C 433.414 4.59855 2.45322 0
M  V30 4656 C 430.742 5.3899 2.31748 0
M  V30 4657 C 433.094 5.9292 2.2052 0
M  V30 4658 C 431.758 6.32542 2.13183 0
M  V30 4659 H 431.028 0.47721 0.566879 0
M  V30 4660 H 433.675 1.68325 0.913172 0
M  V30 4661 H 431.98 1.72085 3.51986 0
M  V30 4662 H 433.677 2.09846 3.4171 0
M  V30 4663 H 430.267 3.33518 2.69191 0
M  V30 4664 H 434.451 4.29443 2.48782 0
M  V30 4665 H 429.707 5.68672 2.24548 0
M  V30 4666 H 433.881 6.65487 2.05182 0
M  V30 4667 H 431.508 7.35412 1.92544 0
M  V30 4668 N 433.083 -1.0153 1.20538 0
M  V30 4669 C 434.046 -2.0826 0.957098 0
M  V30 4670 C 435.046 -1.60657 -0.0678655 0
M  V30 4671 O 436.236 -1.73385 0.168332 0
M  V30 4672 C 433.368 -3.38033 0.441188 0
M  V30 4673 H 434.561 -2.31719 1.90384 0
M  V30 4674 H 432.114 -1.1835 1.02093 0
M  V30 4675 H 432.849 -3.20249 -0.510961 0
M  V30 4676 H 432.634 -3.73911 1.18038 0
M  V30 4677 H 434.124 -4.16613 0.287009 0
M  V30 4678 N 434.561 -1.01147 -1.20859 0
M  V30 4679 C 435.977 -0.725422 -1.42161 0
M  V30 4680 C 436.177 0.696919 -1.89064 0
M  V30 4681 O 435.233 1.46539 -2.05627 0
M  V30 4682 C 436.546 -1.74678 -2.44761 0
M  V30 4683 C 438.094 -1.76433 -2.58535 0
M  V30 4684 C 438.569 -2.77481 -3.64374 0
M  V30 4685 N 440.06 -2.76189 -3.71852 0
M  V30 4686 C 440.795 -3.51035 -4.53389 0
M  V30 4687 N 440.291 -4.35541 -5.38773 0
M  V30 4688 N 442.084 -3.39655 -4.47873 0
M  V30 4689 H 434.235 -1.92979 -0.887282 0
M  V30 4690 H 436.498 -0.833327 -0.451962 0
M  V30 4691 H 436.204 -2.76551 -2.17285 0
M  V30 4692 H 436.078 -1.55472 -3.43669 0
M  V30 4693 H 438.465 -0.75248 -2.85345 0
M  V30 4694 H 438.546 -1.99712 -1.5984 0
M  V30 4695 H 438.19 -3.78827 -3.38308 0
M  V30 4696 H 438.12 -2.51466 -4.6268 0
M  V30 4697 H 440.611 -2.14885 -3.10858 0
M  V30 4698 H 440.924 -4.89432 -5.98061 0
M  V30 4699 H 439.269 -4.39621 -5.38292 0
M  V30 4700 H 442.46 -2.73063 -3.80203 0
M  V30 4701 H 442.633 -3.9824 -5.11184 0
M  V30 4702 N 436.039 1.36541 -0.78704 0
M  V30 4703 C 436.989 2.27459 -0.156957 0
M  V30 4704 C 437.973 1.46843 0.657709 0
M  V30 4705 O 439.165 1.69245 0.518173 0
M  V30 4706 C 436.294 3.35893 0.709278 0
M  V30 4707 C 435.38 4.23947 -0.114049 0
M  V30 4708 N 435.771 4.92145 -1.16736 0
M  V30 4709 C 434.069 4.4587 0.107497 0
M  V30 4710 C 434.77 5.57261 -1.66837 0
M  V30 4711 N 433.746 5.3473 -0.977992 0
M  V30 4712 H 437.548 2.77669 -0.963185 0
M  V30 4713 H 435.062 1.49839 -0.62627 0
M  V30 4714 H 437.059 3.99953 1.17656 0
M  V30 4715 H 435.719 2.87238 1.51408 0
M  V30 4716 H 436.73 4.94169 -1.54976 0
M  V30 4717 H 433.407 4.08056 0.882994 0
M  V30 4718 H 434.797 6.21728 -2.54762 0
M  V30 4719 N 437.518 0.538854 1.48102 0
M  V30 4720 C 438.765 0.0080018 2.02498 0
M  V30 4721 C 439.093 -1.33437 1.41509 0
M  V30 4722 O 438.348 -1.87709 0.553507 0
M  V30 4723 C 438.647 -0.153808 3.57069 0
M  V30 4724 C 438.313 1.11533 4.36888 0
M  V30 4725 C 436.975 1.46314 4.58417 0
M  V30 4726 C 439.327 1.95718 4.83057 0
M  V30 4727 C 436.655 2.6516 5.23361 0
M  V30 4728 C 439.007 3.13751 5.49312 0
M  V30 4729 C 437.671 3.48866 5.69077 0
M  V30 4730 H 436.941 0.00292807 0.740994 0
M  V30 4731 H 439.588 0.706668 1.77984 0
M  V30 4732 H 437.893 -0.935309 3.80472 0
M  V30 4733 H 439.59 -0.579607 3.96789 0
M  V30 4734 H 436.18 0.834484 4.20398 0
M  V30 4735 H 440.364 1.70158 4.66219 0
M  V30 4736 H 435.62 2.92558 5.36861 0
M  V30 4737 H 439.794 3.79282 5.84053 0
M  V30 4738 H 437.421 4.41054 6.19173 0
M  V30 4739 N 438.996 -1.55193 0.274407 0
M  V30 4740 C 440.242 -1.99877 -0.343086 0
M  V30 4741 C 440.575 -1.16256 -1.55558 0
M  V30 4742 O 439.85 -0.232462 -1.93106 0
M  V30 4743 C 440.133 -3.52706 -0.725965 0
M  V30 4744 C 439.986 -4.47081 0.493818 0
M  V30 4745 C 441.305 -4.11422 -1.56268 0
M  V30 4746 H 438.424 -0.726625 -0.123229 0
M  V30 4747 H 441.066 -1.86136 0.38121 0
M  V30 4748 H 439.216 -3.64546 -1.34307 0
M  V30 4749 H 440.888 -4.47186 1.13237 0
M  V30 4750 H 439.131 -4.1877 1.13201 0
M  V30 4751 H 439.802 -5.51699 0.18217 0
M  V30 4752 H 442.278 -4.02855 -1.04151 0
M  V30 4753 H 441.154 -5.18568 -1.79939 0
M  V30 4754 H 441.415 -3.61607 -2.54348 0
M  V30 4755 N 440.474 -0.00167713 -1.576 0
M  V30 4756 C 441.384 1.00548 -2.1196 0
M  V30 4757 C 442.4 1.3758 -1.06526 0
M  V30 4758 O 443.576 1.46278 -1.38436 0
M  V30 4759 C 440.641 2.27809 -2.6135 0
M  V30 4760 C 439.702 1.97074 -3.81393 0
M  V30 4761 C 438.935 3.18267 -4.28417 0
M  V30 4762 O 439.158 4.30009 -3.74765 0
M  V30 4763 O 438.092 3.02167 -5.20556 0
M  V30 4764 H 441.918 0.573373 -2.98238 0
M  V30 4765 H 439.503 0.217255 -1.47812 0
M  V30 4766 H 441.385 3.02568 -2.93309 0
M  V30 4767 H 440.06 2.70254 -1.78169 0
M  V30 4768 H 438.967 1.19785 -3.54404 0
M  V30 4769 H 440.3 1.59464 -4.65652 0
M  V30 4770 N 441.952 1.55251 0.271103 0
M  V30 4771 C 442.9 1.89054 1.35504 0
M  V30 4772 C 443.894 0.767064 1.51038 0
M  V30 4773 O 445.1 0.951429 1.528 0
M  V30 4774 H 441.475 0.600072 0.45323 0
M  V30 4775 H 443.446 2.79598 1.04247 0
M  V30 4776 C 442.195 2.18068 2.70817 0
M  V30 4777 H 441.518 3.04005 2.59656 0
M  V30 4778 H 442.958 2.4564 3.45597 0
M  V30 4779 C 441.417 0.988901 3.2206 0
M  V30 4780 O 441.947 0.224501 4.01072 0
M  V30 4781 N 440.153 0.786085 2.79766 0
M  V30 4782 H 439.7 1.40937 2.15626 0
M  V30 4783 H 439.658 -0.00969349 3.14399 0
M  V30 4784 N 443.43 -0.535701 1.48216 0
M  V30 4785 C 444.678 -1.28928 1.55634 0
M  V30 4786 C 444.999 -1.93645 0.229514 0
M  V30 4787 O 444.269 -1.81038 -0.74846 0
M  V30 4788 H 442.849 -0.47884 0.573342 0
M  V30 4789 H 445.511 -0.623853 1.84646 0
M  V30 4790 H 444.607 -2.07157 2.33436 0
M  V30 4791 N 444.908 -1.36708 -0.784132 0
M  V30 4792 C 446.136 -1.34398 -1.57305 0
M  V30 4793 C 446.551 0.0735577 -1.88657 0
M  V30 4794 O 445.908 1.03193 -1.50524 0
M  V30 4795 C 445.959 -2.17053 -2.89085 0
M  V30 4796 O 445.68 -3.53281 -2.59083 0
M  V30 4797 C 447.181 -2.22583 -3.83369 0
M  V30 4798 H 444.401 -0.460819 -0.487736 0
M  V30 4799 H 446.945 -1.79879 -0.972819 0
M  V30 4800 H 445.1 -1.75113 -3.45564 0
M  V30 4801 H 445.514 -3.9647 -3.43383 0
M  V30 4802 H 446.988 -2.84763 -4.72878 0
M  V30 4803 H 447.465 -1.23075 -4.21603 0
M  V30 4804 H 448.071 -2.64781 -3.32823 0
M  V30 4805 N 446.386 1.0089 -1.21074 0
M  V30 4806 C 447.334 2.11707 -0.963476 0
M  V30 4807 C 448.328 1.69172 0.0879032 0
M  V30 4808 O 449.534 1.79889 -0.0631415 0
M  V30 4809 H 445.909 0.692026 -0.294287 0
M  V30 4810 H 447.88 2.29743 -1.90422 0
M  V30 4811 C 446.629 3.43473 -0.540509 0
M  V30 4812 H 445.952 3.76634 -1.34114 0
M  V30 4813 H 447.392 4.22044 -0.406777 0
M  V30 4814 C 445.851 3.2849 0.748079 0
M  V30 4815 O 446.381 3.58883 1.8046 0
M  V30 4816 N 444.587 2.81715 0.713081 0
M  V30 4817 H 444.134 2.5718 -0.146973 0
M  V30 4818 H 444.092 2.72071 1.57558 0
M  V30 4819 N 447.864 1.01787 1.20321 0
M  V30 4820 C 449.094 0.72614 1.93419 0
M  V30 4821 C 449.502 -0.717317 1.75075 0
M  V30 4822 O 448.845 -1.49836 1.06278 0
M  V30 4823 C 448.907 0.983621 3.45782 0
M  V30 4824 C 448.571 2.41645 3.87888 0
M  V30 4825 C 449.568 3.39732 3.93545 0
M  V30 4826 C 447.253 2.75752 4.19841 0
M  V30 4827 C 449.247 4.69988 4.30569 0
M  V30 4828 C 446.934 4.06221 4.56539 0
M  V30 4829 C 447.932 5.0315 4.61876 0
M  V30 4830 O 447.62 6.31284 4.97731 0
M  V30 4831 H 447.352 0.265824 0.621541 0
M  V30 4832 H 449.906 1.3623 1.53722 0
M  V30 4833 H 448.136 0.290301 3.85609 0
M  V30 4834 H 449.825 0.683279 4.00108 0
M  V30 4835 H 450.591 3.14718 3.69022 0
M  V30 4836 H 446.47 2.00993 4.14877 0
M  V30 4837 H 450.014 5.45642 4.3465 0
M  V30 4838 H 445.911 4.31013 4.80518 0
M  V30 4839 H 446.679 6.35591 5.15719 0
M  V30 4840 N 449.342 -1.36122 0.79427 0
M  V30 4841 C 450.758 -1.5232 0.476525 0
M  V30 4842 C 450.958 -1.74685 -1.00436 0
M  V30 4843 O 450.014 -1.78115 -1.78973 0
M  V30 4844 C 451.327 -2.70607 1.31119 0
M  V30 4845 C 452.875 -2.8448 1.30537 0
M  V30 4846 C 453.35 -4.05778 2.12387 0
M  V30 4847 N 454.841 -4.12933 2.09859 0
M  V30 4848 C 455.576 -5.05876 2.69957 0
M  V30 4849 N 455.072 -6.04232 3.38934 0
M  V30 4850 N 456.865 -4.98528 2.59665 0
M  V30 4851 H 449.016 -1.1986 1.75349 0
M  V30 4852 H 451.279 -0.585418 0.745647 0
M  V30 4853 H 450.985 -2.60619 2.36158 0
M  V30 4854 H 450.859 -3.64888 0.955843 0
M  V30 4855 H 453.246 -2.93927 0.262876 0
M  V30 4856 H 453.327 -1.91093 1.70051 0
M  V30 4857 H 452.971 -3.97092 3.1667 0
M  V30 4858 H 452.901 -4.98323 1.70242 0
M  V30 4859 H 455.392 -3.42515 1.59662 0
M  V30 4860 H 455.705 -6.71724 3.82109 0
M  V30 4861 H 454.05 -6.04443 3.43036 0
M  V30 4862 H 457.241 -4.20641 2.05375 0
M  V30 4863 H 457.414 -5.70773 3.06793 0
M  V30 4864 N 450.82 -0.546701 -1.47814 0
M  V30 4865 C 451.77 0.227042 -2.26867 0
M  V30 4866 C 452.754 0.894844 -1.33721 0
M  V30 4867 O 453.946 0.794887 -1.58147 0
M  V30 4868 C 451.075 1.26299 -3.19223 0
M  V30 4869 C 450.161 0.59913 -4.19847 0
M  V30 4870 N 450.552 -0.324777 -5.04756 0
M  V30 4871 C 448.85 0.854331 -4.37741 0
M  V30 4872 C 449.551 -0.709386 -5.77358 0
M  V30 4873 N 448.527 -0.0666153 -5.43559 0
M  V30 4874 H 452.329 -0.483476 -2.89896 0
M  V30 4875 H 449.843 -0.365893 -1.58224 0
M  V30 4876 H 451.84 1.83116 -3.74532 0
M  V30 4877 H 450.5 1.97471 -2.57751 0
M  V30 4878 H 451.511 -0.698351 -5.1317 0
M  V30 4879 H 448.188 1.55536 -3.87447 0
M  V30 4880 H 449.578 -1.46796 -6.55668 0
M  V30 4881 N 452.299 1.55045 -0.282633 0
M  V30 4882 C 453.229 2.2579 0.595066 0
M  V30 4883 C 454.21 1.25074 1.15284 0
M  V30 4884 O 455.395 1.5381 1.18559 0
M  V30 4885 C 452.525 2.98472 1.77572 0
M  V30 4886 C 451.479 4.0618 1.34914 0
M  V30 4887 C 450.805 4.66477 2.6135 0
M  V30 4888 C 452.105 5.1996 0.493821 0
M  V30 4889 H 453.799 2.994 0.00505653 0
M  V30 4890 H 451.345 1.44 0.000992001 0
M  V30 4891 H 453.298 3.46677 2.39568 0
M  V30 4892 H 452.022 2.2241 2.39168 0
M  V30 4893 H 450.681 3.58797 0.752338 0
M  V30 4894 H 450.329 3.87074 3.2122 0
M  V30 4895 H 450.029 5.39207 2.33516 0
M  V30 4896 H 451.553 5.17435 3.24181 0
M  V30 4897 H 452.967 5.64172 1.01898 0
M  V30 4898 H 451.364 5.99299 0.310047 0
M  V30 4899 H 452.434 4.82462 -0.485593 0
M  V30 4900 N 453.777 0.010035 1.57597 0
M  V30 4901 C 455.024 -0.6727 1.91 0
M  V30 4902 C 455.352 -1.73219 0.884614 0
M  V30 4903 O 454.607 -1.95395 -0.109215 0
M  V30 4904 C 454.906 -1.34434 3.31153 0
M  V30 4905 C 454.572 -0.417083 4.48967 0
M  V30 4906 C 453.234 -0.161809 4.80928 0
M  V30 4907 C 455.586 0.220753 5.20732 0
M  V30 4908 C 452.914 0.739426 5.82022 0
M  V30 4909 C 455.266 1.10993 6.22787 0
M  V30 4910 C 453.93 1.37428 6.532 0
M  V30 4911 H 453.2 -0.246158 0.698918 0
M  V30 4912 H 455.847 0.0677145 1.9138 0
M  V30 4913 H 454.152 -2.15905 3.26944 0
M  V30 4914 H 455.849 -1.87883 3.54261 0
M  V30 4915 H 452.439 -0.626217 4.24001 0
M  V30 4916 H 456.623 0.0365643 4.96287 0
M  V30 4917 H 451.879 0.952139 6.03941 0
M  V30 4918 H 456.053 1.61046 6.77523 0
M  V30 4919 H 453.68 2.0743 7.31353 0
M  V30 4920 N 455.255 -1.55392 -0.262866 0
M  V30 4921 C 456.202 -1.88966 -1.32516 0
M  V30 4922 C 457.172 -0.742187 -1.48596 0
M  V30 4923 O 458.357 -0.99439 -1.62839 0
M  V30 4924 C 455.497 -2.17592 -2.67858 0
M  V30 4925 C 454.61 -3.45061 -2.59917 0
M  V30 4926 C 453.745 -3.63336 -3.87505 0
M  V30 4927 C 452.784 -4.84462 -3.74116 0
M  V30 4928 N 451.921 -4.99342 -4.93561 0
M  V30 4929 H 456.761 -2.79566 -1.03184 0
M  V30 4930 H 454.298 -1.38404 -0.498285 0
M  V30 4931 H 456.256 -2.3219 -3.46617 0
M  V30 4932 H 454.886 -1.30215 -2.95371 0
M  V30 4933 H 453.938 -3.38881 -1.72812 0
M  V30 4934 H 455.25 -4.3396 -2.45926 0
M  V30 4935 H 454.404 -3.77807 -4.74707 0
M  V30 4936 H 453.143 -2.72641 -4.04374 0
M  V30 4937 H 452.148 -4.69985 -2.85297 0
M  V30 4938 H 453.373 -5.76603 -3.58757 0
M  V30 4939 H 451.319 -4.1158 -5.10821 0
M  V30 4940 H 451.236 -5.82303 -4.82141 0
M  V30 4941 H 452.504 -5.18208 -5.82306 0
M  V30 4942 N 456.733 0.527833 -1.48498 0
M  V30 4943 C 457.979 1.28545 -1.56857 0
M  V30 4944 C 458.312 1.92678 -0.242651 0
M  V30 4945 O 457.587 1.79394 0.751545 0
M  V30 4946 C 457.87 2.37314 -2.70839 0
M  V30 4947 C 457.723 1.77858 -4.13142 0
M  V30 4948 C 459.042 3.39068 -2.80573 0
M  V30 4949 H 456.161 0.466006 -0.570971 0
M  V30 4950 H 458.803 0.587784 -1.8068 0
M  V30 4951 H 456.953 2.96821 -2.50658 0
M  V30 4952 H 458.625 1.22385 -4.44769 0
M  V30 4953 H 456.868 1.08383 -4.20042 0
M  V30 4954 H 457.539 2.56624 -4.88721 0
M  V30 4955 H 460.015 2.89518 -2.98862 0
M  V30 4956 H 458.891 4.12566 -3.6205 0
M  V30 4957 H 459.152 3.9975 -1.88818 0
M  V30 4958 N 458.211 1.37122 0.776871 0
M  V30 4959 C 459.458 1.32047 1.53524 0
M  V30 4960 C 459.786 -0.0965631 1.9426 0
M  V30 4961 O 459.041 -1.06866 1.63945 0
M  V30 4962 C 459.34 2.20068 2.81611 0
M  V30 4963 C 459.006 3.68423 2.59953 0
M  V30 4964 C 457.668 4.08854 2.53755 0
M  V30 4965 C 460.02 4.62431 2.40431 0
M  V30 4966 C 457.348 5.41417 2.26018 0
M  V30 4967 C 459.7 5.95225 2.14219 0
M  V30 4968 C 458.364 6.34767 2.06462 0
M  V30 4969 H 457.634 0.483196 0.561785 0
M  V30 4970 H 460.281 1.69284 0.895268 0
M  V30 4971 H 458.586 1.75809 3.50141 0
M  V30 4972 H 460.283 2.13458 3.39465 0
M  V30 4973 H 456.873 3.36354 2.65638 0
M  V30 4974 H 461.057 4.32057 2.44213 0
M  V30 4975 H 456.313 5.71022 2.18504 0
M  V30 4976 H 460.487 6.67626 1.98112 0
M  V30 4977 H 458.114 7.37413 1.84733 0
M  V30 4978 N 459.689 -1.00246 1.21608 0
M  V30 4979 C 460.937 -1.73717 1.0328 0
M  V30 4980 C 461.258 -1.90102 -0.434318 0
M  V30 4981 O 460.528 -1.45376 -1.31311 0
M  V30 4982 H 459.108 -0.643613 0.379172 0
M  V30 4983 H 461.77 -1.20787 1.52959 0
M  V30 4984 H 460.866 -2.73535 1.50283 0
M  V30 4985 N 461.167 -1.02423 -1.1978 0
M  V30 4986 C 462.416 -0.713265 -1.88667 0
M  V30 4987 C 462.729 0.7609 -1.80193 0
M  V30 4988 O 463.935 1.18473 -2.44288 0
M  V30 4989 C 462.391 -1.22545 -3.38394 0
M  V30 4990 C 461.999 -2.72706 -3.55437 0
M  V30 4991 C 463.743 -0.990257 -4.12788 0
M  V30 4992 C 461.65 -3.17367 -4.99031 0
M  V30 4993 H 460.58 -0.263105 -0.706606 0
M  V30 4994 H 463.231 -1.23792 -1.35454 0
M  V30 4995 H 461.613 -0.628732 -3.90977 0
M  V30 4996 H 462.787 -3.37993 -3.13205 0
M  V30 4997 H 461.102 -2.94453 -2.94425 0
M  V30 4998 H 463.699 -1.29926 -5.18675 0
M  V30 4999 H 464.042 0.0730761 -4.16236 0
M  V30 5000 H 464.575 -1.55074 -3.66329 0
M  V30 5001 H 461.314 -4.23009 -5.00743 0
M  V30 5002 H 460.834 -2.56805 -5.42044 0
M  V30 5003 H 462.513 -3.10441 -5.67658 0
M  V30 5004 N 462.645 1.35699 -0.801477 0
M  V30 5005 C 464.061 1.52065 -0.484596 0
M  V30 5006 C 464.261 1.75215 0.995084 0
M  V30 5007 O 463.317 1.79061 1.78026 0
M  V30 5008 C 464.63 2.69908 -1.32552 0
M  V30 5009 C 466.178 2.83784 -1.32044 0
M  V30 5010 C 466.653 4.04646 -2.14536 0
M  V30 5011 N 468.144 4.11814 -2.12046 0
M  V30 5012 C 468.879 5.04437 -2.72636 0
M  V30 5013 N 468.375 6.02426 -3.42133 0
M  V30 5014 N 470.168 4.97144 -2.62305 0
M  V30 5015 H 462.319 1.18928 -1.75983 0
M  V30 5016 H 464.582 0.581455 -0.748741 0
M  V30 5017 H 464.288 2.59363 -2.37537 0
M  V30 5018 H 464.162 3.64376 -0.975181 0
M  V30 5019 H 466.549 2.93783 -0.27846 0
M  V30 5020 H 466.63 1.90188 -1.71062 0
M  V30 5021 H 466.274 3.95407 -3.18772 0
M  V30 5022 H 466.204 4.97413 -1.72882 0
M  V30 5023 H 468.695 3.41664 -1.61476 0
M  V30 5024 H 469.008 6.69688 -3.85666 0
M  V30 5025 H 467.353 6.02615 -3.46237 0
M  V30 5026 H 470.544 4.19546 -2.07603 0
M  V30 5027 H 470.717 5.69138 -3.09815 0
M  V30 5028 N 464.123 0.554532 1.47522 0
M  V30 5029 C 465.37 0.029479 2.02479 0
M  V30 5030 C 465.698 -1.31929 1.42916 0
M  V30 5031 O 464.953 -1.87112 0.573385 0
M  V30 5032 C 465.252 -0.115927 3.57212 0
M  V30 5033 C 464.918 1.16161 4.3568 0
M  V30 5034 C 463.58 1.51168 4.56839 0
M  V30 5035 C 465.932 2.0083 4.80954 0
M  V30 5036 C 463.26 2.70696 5.2052 0
M  V30 5037 C 465.612 3.19559 5.45953 0
M  V30 5038 C 464.276 3.54882 5.65345 0
M  V30 5039 H 463.546 0.0107871 0.740921 0
M  V30 5040 H 466.193 0.725506 1.77225 0
M  V30 5041 H 464.498 -0.894902 3.81443 0
M  V30 5042 H 466.195 -0.53749 3.97381 0
M  V30 5043 H 462.785 0.879026 4.19489 0
M  V30 5044 H 466.969 1.75093 4.64388 0
M  V30 5045 H 462.225 2.98236 5.33728 0
M  V30 5046 H 466.399 3.85456 5.79997 0
M  V30 5047 H 464.026 4.47596 6.1446 0
M  V30 5048 N 465.601 -1.54893 0.290851 0
M  V30 5049 C 466.878 -1.91991 -0.373989 0
M  V30 5050 C 467.258 -1.21694 -1.72493 0
M  V30 5051 O 466.606 -0.34917 -2.25816 0
M  V30 5052 C 466.816 -3.45419 -0.498703 0
M  V30 5053 C 468.164 -4.1748 -0.774298 0
M  V30 5054 O 469.188 -3.51398 -0.582908 0
M  V30 5055 O 468.047 -5.3445 -1.14129 0
M  V30 5056 H 465.141 -0.800593 -0.207315 0
M  V30 5057 H 467.687 -1.66297 0.338164 0
M  V30 5058 H 466.459 -3.88688 0.451392 0
M  V30 5059 H 466.082 -3.77117 -1.25972 0
M  V30 5060 N 467.08 -0.0183926 -1.57589 0
M  V30 5061 C 468.329 0.66185 -1.90532 0
M  V30 5062 C 468.642 1.73904 -0.895366 0
M  V30 5063 O 469.848 2.47518 -1.11566 0
M  V30 5064 C 468.304 1.22844 -3.38286 0
M  V30 5065 C 467.912 0.185103 -4.47617 0
M  V30 5066 C 469.656 1.88581 -3.80312 0
M  V30 5067 C 467.563 0.762723 -5.86461 0
M  V30 5068 H 466.493 0.250972 -0.711006 0
M  V30 5069 H 469.144 -0.0819435 -1.83317 0
M  V30 5070 H 467.526 2.0235 -3.40398 0
M  V30 5071 H 468.7 -0.58671 -4.5705 0
M  V30 5072 H 467.015 -0.372889 -4.14727 0
M  V30 5073 H 469.612 2.32735 -4.81392 0
M  V30 5074 H 469.955 2.72408 -3.14801 0
M  V30 5075 H 470.488 1.15782 -3.80578 0
M  V30 5076 H 467.227 -0.0371713 -6.55489 0
M  V30 5077 H 466.747 1.50327 -5.80656 0
M  V30 5078 H 468.426 1.25576 -6.34697 0
M  V30 5079 N 468.558 1.5553 0.254621 0
M  V30 5080 C 469.488 1.9268 1.31897 0
M  V30 5081 C 470.469 0.790797 1.506 0
M  V30 5082 O 471.654 1.05045 1.63337 0
M  V30 5083 C 468.784 2.21477 2.67517 0
M  V30 5084 C 467.738 3.37256 2.63519 0
M  V30 5085 C 467.064 3.51576 4.02862 0
M  V30 5086 C 468.364 4.73157 2.21179 0
M  V30 5087 H 470.058 2.81832 1.01051 0
M  V30 5088 H 467.604 1.35599 0.484662 0
M  V30 5089 H 469.557 2.46055 3.42104 0
M  V30 5090 H 468.281 1.29144 2.99982 0
M  V30 5091 H 466.94 3.12675 1.9139 0
M  V30 5092 H 466.588 2.56676 4.32581 0
M  V30 5093 H 466.288 4.2943 4.01078 0
M  V30 5094 H 467.812 3.78467 4.79161 0
M  V30 5095 H 469.226 4.97158 2.85494 0
M  V30 5096 H 467.623 5.54058 2.30521 0
M  V30 5097 H 468.693 4.70739 1.16332 0
M  V30 5098 N 470.036 -0.519951 1.48776 0
M  V30 5099 C 471.282 -1.27711 1.57536 0
M  V30 5100 C 471.615 -1.92547 0.252866 0
M  V30 5101 O 470.89 -1.7979 -0.742021 0
M  V30 5102 C 471.173 -2.35875 2.72094 0
M  V30 5103 C 471.026 -1.75664 4.1408 0
M  V30 5104 C 472.345 -3.37575 2.82367 0
M  V30 5105 H 469.464 -0.462971 0.573434 0
M  V30 5106 H 472.106 -0.578194 1.80989 0
M  V30 5107 H 470.256 -2.95488 2.52228 0
M  V30 5108 H 471.928 -1.20025 4.45412 0
M  V30 5109 H 470.171 -1.06154 4.20611 0
M  V30 5110 H 470.842 -2.54029 4.90075 0
M  V30 5111 H 473.318 -2.87929 3.00393 0
M  V30 5112 H 472.194 -4.1064 3.64233 0
M  V30 5113 H 472.455 -3.98743 1.90936 0
M  V30 5114 N 471.514 -1.37532 -0.769588 0
M  V30 5115 C 472.791 -1.23392 -1.51768 0
M  V30 5116 C 473.171 0.17157 -2.10402 0
M  V30 5117 O 472.519 1.17943 -1.95708 0
M  V30 5118 C 472.729 -2.33163 -2.59685 0
M  V30 5119 C 474.077 -2.70809 -3.27028 0
M  V30 5120 O 475.101 -2.32355 -2.69981 0
M  V30 5121 O 473.96 -3.37066 -4.30173 0
M  V30 5122 H 471.054 -0.481617 -0.67229 0
M  V30 5123 H 473.6 -1.49318 -0.806368 0
M  V30 5124 H 472.372 -3.27273 -2.14494 0
M  V30 5125 H 471.995 -2.08713 -3.38415 0
M  V30 5126 N 472.992 0.995999 -1.22138 0
M  V30 5127 C 474.24 1.73167 -1.042 0
M  V30 5128 C 474.561 1.90329 0.42423 0
M  V30 5129 O 473.831 1.4607 1.30539 0
M  V30 5130 H 472.411 0.641593 -0.38258 0
M  V30 5131 H 475.073 1.19974 -1.53598 0
M  V30 5132 H 474.169 2.72734 -1.51731 0
M  V30 5133 N 474.47 1.03057 1.19235 0
M  V30 5134 C 475.417 0.612832 2.22515 0
M  V30 5135 C 476.387 -0.374224 1.61829 0
M  V30 5136 O 477.572 -0.270501 1.88873 0
M  V30 5137 C 474.712 -0.028475 3.45088 0
M  V30 5138 C 473.825 1.00483 4.20151 0
M  V30 5139 C 472.96 0.333102 5.30155 0
M  V30 5140 C 471.999 1.3522 5.96977 0
M  V30 5141 N 471.136 0.70616 6.9854 0
M  V30 5142 H 475.976 1.49812 2.57605 0
M  V30 5143 H 473.513 0.749658 1.26564 0
M  V30 5144 H 475.471 -0.417548 4.15105 0
M  V30 5145 H 474.101 -0.877334 3.10649 0
M  V30 5146 H 473.153 1.51194 3.49062 0
M  V30 5147 H 474.465 1.77929 4.65986 0
M  V30 5148 H 473.619 -0.110725 6.06599 0
M  V30 5149 H 472.358 -0.473547 4.85396 0
M  V30 5150 H 471.363 1.80627 5.19282 0
M  V30 5151 H 472.588 2.16037 6.4382 0
M  V30 5152 H 470.534 -0.0803667 6.55951 0
M  V30 5153 H 470.451 1.41848 7.42573 0
M  V30 5154 H 471.719 0.286391 7.78974 0
M  V30 5155 N 475.948 -1.35272 0.808662 0
M  V30 5156 C 476.911 -2.28082 0.226093 0
M  V30 5157 C 477.911 -1.49673 -0.587762 0
M  V30 5158 O 479.101 -1.69404 -0.405943 0
M  V30 5159 C 476.233 -3.33955 -0.684596 0
M  V30 5160 H 477.426 -2.81116 1.04469 0
M  V30 5161 H 474.979 -1.45162 0.579466 0
M  V30 5162 H 475.714 -2.86111 -1.5268 0
M  V30 5163 H 475.499 -3.91965 -0.102699 0
M  V30 5164 H 476.989 -4.03219 -1.08646 0
M  V30 5165 N 477.426 -0.562348 -1.47226 0
M  V30 5166 C 478.674 -0.0401371 -2.0206 0
M  V30 5167 C 478.995 1.3165 -1.43852 0
M  V30 5168 O 478.265 1.85976 -0.615599 0
M  V30 5169 H 476.845 -0.0118479 -0.746906 0
M  V30 5170 H 479.507 -0.73352 -1.8057 0
M  V30 5171 H 478.603 0.0441254 -3.12069 0
M  V30 5172 N 478.904 1.54736 -0.299062 0
M  V30 5173 C 479.851 2.23448 0.577899 0
M  V30 5174 C 480.821 1.21637 1.13109 0
M  V30 5175 O 482.006 1.50252 1.17597 0
M  V30 5176 C 479.146 2.9774 1.74484 0
M  V30 5177 C 478.259 4.1432 1.22323 0
M  V30 5178 C 477.394 4.76199 2.35388 0
M  V30 5179 C 476.433 5.84927 1.80351 0
M  V30 5180 N 475.57 6.4077 2.86982 0
M  V30 5181 H 480.41 2.97996 -0.0146545 0
M  V30 5182 H 477.947 1.47088 -0.0190013 0
M  V30 5183 H 479.905 3.39045 2.43114 0
M  V30 5184 H 478.535 2.25572 2.30905 0
M  V30 5185 H 477.587 3.7797 0.429249 0
M  V30 5186 H 478.899 4.92659 0.780309 0
M  V30 5187 H 478.053 5.20346 3.11969 0
M  V30 5188 H 476.792 3.97188 2.83006 0
M  V30 5189 H 475.797 5.40207 1.02259 0
M  V30 5190 H 477.022 6.65821 1.3364 0
M  V30 5191 H 474.968 5.64643 3.33938 0
M  V30 5192 H 474.885 7.1445 2.4718 0
M  V30 5193 H 476.153 6.89574 3.63466 0
M  V30 5194 N 480.382 0.0267497 1.57577 0
M  V30 5195 C 481.629 -0.652404 1.91703 0
M  V30 5196 C 481.957 -1.72271 0.902936 0
M  V30 5197 O 481.212 -1.955 -0.0884843 0
M  V30 5198 C 481.511 -1.30914 3.3256 0
M  V30 5199 C 481.177 -0.369441 4.49384 0
M  V30 5200 C 479.839 -0.110791 4.81072 0
M  V30 5201 C 482.191 0.275971 5.20469 0
M  V30 5202 C 479.519 0.801116 5.81205 0
M  V30 5203 C 481.871 1.17592 6.21575 0
M  V30 5204 C 480.535 1.44348 6.51705 0
M  V30 5205 H 479.805 -0.238732 0.70149 0
M  V30 5206 H 482.452 0.0880091 1.91298 0
M  V30 5207 H 480.757 -2.12425 3.29216 0
M  V30 5208 H 482.454 -1.84115 3.56234 0
M  V30 5209 H 479.044 -0.581211 4.24641 0
M  V30 5210 H 483.228 0.0892 4.9622 0
M  V30 5211 H 478.484 1.01614 6.02897 0
M  V30 5212 H 482.658 1.68223 6.75777 0
M  V30 5213 H 480.285 2.15176 7.29111 0
M  V30 5214 N 481.861 -1.55662 -0.24637 0
M  V30 5215 C 483.138 -1.68272 -0.997198 0
M  V30 5216 C 483.518 -0.566785 -2.03349 0
M  V30 5217 O 482.866 0.429688 -2.24424 0
M  V30 5218 C 483.076 -3.08594 -1.63006 0
M  V30 5219 C 484.424 -3.6721 -2.13171 0
M  V30 5220 O 485.448 -3.11397 -1.72946 0
M  V30 5221 O 484.307 -4.65054 -2.87031 0
M  V30 5222 H 481.401 -0.684429 -0.464205 0
M  V30 5223 H 483.947 -1.67993 -0.240114 0
M  V30 5224 H 482.719 -3.81264 -0.880527 0
M  V30 5225 H 482.342 -3.12886 -2.45333 0
M  V30 5226 N 483.339 0.512053 -1.4905 0
M  V30 5227 C 484.588 1.26343 -1.57227 0
M  V30 5228 C 484.901 1.93876 -0.259155 0
M  V30 5229 O 486.107 2.70612 -0.219358 0
M  V30 5230 C 484.563 2.29343 -2.77362 0
M  V30 5231 C 484.171 1.67799 -4.15388 0
M  V30 5232 C 485.915 3.05378 -2.94864 0
M  V30 5233 C 483.822 2.68845 -5.2676 0
M  V30 5234 H 482.752 0.475231 -0.585382 0
M  V30 5235 H 485.403 0.53862 -1.75417 0
M  V30 5236 H 483.785 3.04938 -2.52643 0
M  V30 5237 H 484.959 0.982715 -4.50199 0
M  V30 5238 H 483.274 1.04194 -4.03153 0
M  V30 5239 H 485.871 3.80921 -3.75238 0
M  V30 5240 H 486.214 3.62327 -2.05 0
M  V30 5241 H 486.747 2.36898 -3.19569 0
M  V30 5242 H 483.486 2.16692 -6.18647 0
M  V30 5243 H 483.006 3.36647 -4.96416 0
M  V30 5244 H 484.685 3.31487 -5.5563 0
M  V30 5245 N 484.817 1.37938 0.762283 0
M  V30 5246 C 486.066 1.32989 1.51647 0
M  V30 5247 C 486.379 -0.0802922 1.95435 0
M  V30 5248 O 487.585 -0.252295 2.70325 0
M  V30 5249 C 486.041 2.33485 2.73885 0
M  V30 5250 C 485.649 3.80079 2.37157 0
M  V30 5251 C 487.393 2.37563 3.51801 0
M  V30 5252 C 485.3 4.72283 3.55954 0
M  V30 5253 H 484.23 0.494301 0.56937 0
M  V30 5254 H 486.881 1.63448 0.834083 0
M  V30 5255 H 485.263 1.96056 3.44061 0
M  V30 5256 H 486.437 4.26398 1.74704 0
M  V30 5257 H 484.752 3.79037 1.72395 0
M  V30 5258 H 487.349 3.0365 4.40114 0
M  V30 5259 H 487.692 1.39199 3.92338 0
M  V30 5260 H 488.225 2.73747 2.8863 0
M  V30 5261 H 484.964 5.7181 3.2049 0
M  V30 5262 H 484.484 4.30663 4.1748 0
M  V30 5263 H 486.163 4.89876 4.22647 0
M  V30 5264 N 486.295 -0.989507 1.22664 0
M  V30 5265 C 487.706 -1.54406 1.04955 0
M  V30 5266 C 488.057 -1.92366 -0.385951 0
M  V30 5267 O 487.182 -1.75111 -1.27142 0
M  V30 5268 C 487.777 -2.80578 1.89899 0
M  V30 5269 C 486.336 -3.32464 1.76478 0
M  V30 5270 C 485.483 -2.05524 1.86159 0
M  V30 5271 H 488.434 -0.810211 1.3646 0
M  V30 5272 H 488.455 -3.53075 1.4184 0
M  V30 5273 H 487.967 -2.52918 2.94371 0
M  V30 5274 H 486.068 -3.65024 0.747528 0
M  V30 5275 H 486.181 -4.02838 2.59342 0
M  V30 5276 H 484.545 -2.19241 1.29636 0
M  V30 5277 H 485.328 -1.80258 2.92168 0
M  V30 5278 N 487.773 -1.03688 -1.18687 0
M  V30 5279 C 489.001 -0.757918 -1.92518 0
M  V30 5280 C 489.416 0.684398 -1.75959 0
M  V30 5281 O 488.773 1.46617 -1.08673 0
M  V30 5282 C 488.824 -1.10985 -3.44042 0
M  V30 5283 O 488.545 -2.49554 -3.60076 0
M  V30 5284 C 490.046 -0.854844 -4.3498 0
M  V30 5285 H 487.266 -0.276699 -0.611293 0
M  V30 5286 H 489.81 -1.38352 -1.50595 0
M  V30 5287 H 487.965 -0.529279 -3.83767 0
M  V30 5288 H 488.379 -2.6291 -4.53849 0
M  V30 5289 H 489.853 -1.15098 -5.39867 0
M  V30 5290 H 490.33 0.210507 -4.38695 0
M  V30 5291 H 490.936 -1.41853 -4.00946 0
M  V30 5292 N 489.251 1.34841 -0.815825 0
M  V30 5293 C 490.184 2.27504 -0.178062 0
M  V30 5294 C 491.162 1.48542 0.661373 0
M  V30 5295 O 492.346 1.77779 0.626653 0
M  V30 5296 C 489.473 3.30246 0.752002 0
M  V30 5297 C 488.519 4.26499 -0.00899172 0
M  V30 5298 S 489.352 5.18169 -1.35134 0
M  V30 5299 C 490.508 6.24449 -0.42596 0
M  V30 5300 H 490.741 2.81248 -0.963684 0
M  V30 5301 H 488.274 1.41781 -0.611355 0
M  V30 5302 H 490.232 3.89933 1.28308 0
M  V30 5303 H 488.893 2.75363 1.51109 0
M  V30 5304 H 488.086 4.99146 0.697766 0
M  V30 5305 H 487.688 3.7103 -0.470396 0
M  V30 5306 H 489.98 6.76404 0.385234 0
M  V30 5307 H 490.923 6.99156 -1.1219 0
M  V30 5308 H 491.331 5.64497 -0.0175461 0
M  V30 5309 N 490.729 0.570148 1.46925 0
M  V30 5310 C 491.957 0.0561966 2.06824 0
M  V30 5311 C 492.372 -1.24326 1.42086 0
M  V30 5312 O 491.729 -1.74882 0.521794 0
M  V30 5313 C 491.78 -0.129517 3.61268 0
M  V30 5314 O 491.501 1.1185 4.23581 0
M  V30 5315 C 493.002 -0.679266 4.38065 0
M  V30 5316 H 490.222 0.0517261 0.669003 0
M  V30 5317 H 492.766 0.787243 1.8874 0
M  V30 5318 H 490.921 -0.810739 3.78822 0
M  V30 5319 H 491.335 0.924375 5.1629 0
M  V30 5320 H 492.809 -0.758445 5.46765 0
M  V30 5321 H 493.286 -1.69346 4.05239 0
M  V30 5322 H 493.892 -0.0333237 4.25287 0
M  V30 5323 N 492.207 -1.54576 0.307264 0
M  V30 5324 C 493.435 -2.04675 -0.302597 0
M  V30 5325 C 493.85 -1.18425 -1.47041 0
M  V30 5326 O 493.207 -0.211257 -1.81273 0
M  V30 5327 C 493.258 -3.53575 -0.752801 0
M  V30 5328 O 492.979 -4.36547 0.368536 0
M  V30 5329 C 494.48 -4.19699 -1.42717 0
M  V30 5330 H 491.7 -0.66786 -0.0648374 0
M  V30 5331 H 494.244 -1.99516 0.448716 0
M  V30 5332 H 492.399 -3.59074 -1.45412 0
M  V30 5333 H 492.813 -5.24497 0.0168937 0
M  V30 5334 H 494.287 -5.25388 -1.69327 0
M  V30 5335 H 494.764 -3.69815 -2.36925 0
M  V30 5336 H 495.37 -4.18293 -0.768856 0
M  V30 5337 N 493.685 -0.035106 -1.57561 0
M  V30 5338 C 494.934 0.641604 -1.91223 0
M  V30 5339 C 495.247 1.72944 -0.913761 0
M  V30 5340 O 496.453 2.46321 -1.14185 0
M  V30 5341 C 494.909 1.19249 -3.3957 0
M  V30 5342 C 494.517 0.137616 -4.47789 0
M  V30 5343 C 496.261 1.84537 -3.82291 0
M  V30 5344 C 494.168 0.700478 -5.87237 0
M  V30 5345 H 493.098 0.243417 -0.713627 0
M  V30 5346 H 495.749 -0.101382 -1.8322 0
M  V30 5347 H 494.131 1.98728 -3.42525 0
M  V30 5348 H 495.305 -0.635153 -4.56402 0
M  V30 5349 H 493.62 -0.416855 -4.14308 0
M  V30 5350 H 496.217 2.27616 -4.83834 0
M  V30 5351 H 496.56 2.69054 -3.17672 0
M  V30 5352 H 497.093 1.11739 -3.81784 0
M  V30 5353 H 493.832 -0.106693 -6.55413 0
M  V30 5354 H 493.352 1.4416 -5.82218 0
M  V30 5355 H 495.031 1.18837 -6.35993 0
M  V30 5356 N 495.163 1.55791 0.238111 0
M  V30 5357 C 496.411 1.77681 0.963001 0
M  V30 5358 C 496.732 0.600674 1.85518 0
M  V30 5359 O 496.002 -0.383182 1.92116 0
M  V30 5360 H 494.582 0.655315 0.358568 0
M  V30 5361 H 497.244 1.93239 0.253945 0
M  V30 5362 H 496.34 2.69177 1.57956 0
M  V30 5363 N 496.642 -0.504142 1.49319 0
M  V30 5364 C 497.867 -1.28729 1.62615 0
M  V30 5365 C 498.292 -1.85752 0.296309 0
M  V30 5366 O 497.65 -1.65704 -0.735649 0
M  V30 5367 C 497.698 -2.39561 2.69524 0
M  V30 5368 O 496.802 -3.43324 2.28478 0
M  V30 5369 H 496.143 -0.380172 0.544395 0
M  V30 5370 H 498.673 -0.603872 1.95485 0
M  V30 5371 H 498.683 -2.8537 2.91595 0
M  V30 5372 H 497.358 -1.97423 3.66056 0
M  V30 5373 H 495.935 -3.03455 2.16725 0
M  V30 5374 N 498.12 -1.38341 -0.754957 0
M  V30 5375 C 499.368 -1.34208 -1.51105 0
M  V30 5376 C 499.689 0.0677634 -1.94882 0
M  V30 5377 O 498.959 1.01517 -1.67544 0
M  V30 5378 H 497.539 -0.493819 -0.560493 0
M  V30 5379 H 500.201 -1.73005 -0.897507 0
M  V30 5380 H 499.297 -1.99203 -2.4026 0
M  V30 5381 N 499.598 0.982988 -1.23187 0
M  V30 5382 C 500.847 1.71817 -1.05649 0
M  V30 5383 C 501.16 1.91315 0.407176 0
M  V30 5384 O 502.366 2.62256 0.702436 0
M  V30 5385 C 500.822 3.09188 -1.84203 0
M  V30 5386 C 500.43 2.97586 -3.34882 0
M  V30 5387 C 502.174 3.86684 -1.75146 0
M  V30 5388 C 500.081 4.30173 -4.05839 0
M  V30 5389 H 499.011 0.644258 -0.391724 0
M  V30 5390 H 501.662 1.09659 -1.4713 0
M  V30 5391 H 500.044 3.72087 -1.35527 0
M  V30 5392 H 501.218 2.43793 -3.91026 0
M  V30 5393 H 499.533 2.33567 -3.44725 0
M  V30 5394 H 502.13 4.84836 -2.25473 0
M  V30 5395 H 502.473 4.10136 -0.713737 0
M  V30 5396 H 503.006 3.30482 -2.21419 0
M  V30 5397 H 499.745 4.11918 -5.09906 0
M  V30 5398 H 499.265 4.83841 -3.54482 0
M  V30 5399 H 500.944 4.98873 -4.11989 0
M  V30 5400 N 501.076 1.04316 1.18135 0
M  V30 5401 C 502.324 0.746542 1.87806 0
M  V30 5402 C 502.645 -0.728082 1.80898 0
M  V30 5403 O 501.915 -1.52554 1.22899 0
M  V30 5404 H 500.495 0.273157 0.695265 0
M  V30 5405 H 503.157 1.32044 1.43354 0
M  V30 5406 H 502.253 1.05362 2.93778 0
M  V30 5407 N 502.554 -1.34406 0.822964 0
M  V30 5408 C 503.803 -1.97542 0.407458 0
M  V30 5409 C 504.116 -1.65973 -1.035 0
M  V30 5410 O 505.322 -2.22598 -1.55442 0
M  V30 5411 C 503.778 -3.53463 0.677623 0
M  V30 5412 C 503.386 -3.93925 2.1337 0
M  V30 5413 C 505.13 -4.23229 0.328284 0
M  V30 5414 C 503.037 -5.42759 2.34876 0
M  V30 5415 H 501.967 -0.739207 0.148623 0
M  V30 5416 H 504.618 -1.53248 1.00932 0
M  V30 5417 H 503 -3.96 0.00558965 0
M  V30 5418 H 504.174 -3.62494 2.8449 0
M  V30 5419 H 502.489 -3.37097 2.44448 0
M  V30 5420 H 505.086 -5.32659 0.466794 0
M  V30 5421 H 505.429 -4.09899 -0.727224 0
M  V30 5422 H 505.962 -3.86169 0.954896 0
M  V30 5423 H 502.701 -5.61075 3.38932 0
M  V30 5424 H 502.221 -5.75704 1.68299 0
M  V30 5425 H 503.9 -6.0944 2.17236 0
M  V30 5426 N 504.032 -0.577932 -1.46621 0
M  V30 5427 C 505.279 -0.0616879 -2.02406 0
M  V30 5428 C 505.607 1.29638 -1.44997 0
M  V30 5429 O 504.862 1.86176 -0.60308 0
M  V30 5430 C 505.161 0.0590832 -3.57351 0
M  V30 5431 C 504.827 -1.23077 -4.33777 0
M  V30 5432 C 503.489 -1.58416 -4.54376 0
M  V30 5433 C 505.841 -2.08457 -4.77698 0
M  V30 5434 C 503.169 -2.78943 -5.16147 0
M  V30 5435 C 505.521 -3.28204 -5.408 0
M  V30 5436 C 504.185 -3.63832 -5.59627 0
M  V30 5437 H 503.455 -0.0225732 -0.740656 0
M  V30 5438 H 506.102 -0.753609 -1.76048 0
M  V30 5439 H 504.407 0.834104 -3.82818 0
M  V30 5440 H 506.104 0.474202 -3.98186 0
M  V30 5441 H 502.694 -0.945652 -4.18038 0
M  V30 5442 H 506.878 -1.82459 -4.61544 0
M  V30 5443 H 502.134 -3.06689 -5.28916 0
M  V30 5444 H 506.308 -3.94634 -5.73792 0
M  V30 5445 H 503.935 -4.57315 -6.07262 0
M  V30 5446 N 505.51 1.54411 -0.315457 0
M  V30 5447 C 506.758 2.00023 0.288971 0
M  V30 5448 C 507.079 1.20529 1.5329 0
M  V30 5449 O 506.349 0.304986 1.93511 0
M  V30 5450 H 504.929 0.738891 0.109766 0
M  V30 5451 H 507.591 1.90094 -0.430129 0
M  V30 5452 H 506.687 3.07198 0.550999 0
M  V30 5453 N 506.988 0.0434614 1.5754 0
M  V30 5454 C 508.234 -0.632971 1.92669 0
M  V30 5455 C 508.567 -1.70947 0.921446 0
M  V30 5456 O 507.842 -1.94426 -0.0537202 0
M  V30 5457 C 508.125 -1.23619 3.38216 0
M  V30 5458 C 507.978 -0.168274 4.49485 0
M  V30 5459 C 509.297 -2.15008 3.84005 0
M  V30 5460 H 506.416 -0.228629 0.700641 0
M  V30 5461 H 509.058 0.103651 1.89717 0
M  V30 5462 H 507.208 -1.864 3.40863 0
M  V30 5463 H 508.88 0.463196 4.58969 0
M  V30 5464 H 507.123 0.504581 4.30855 0
M  V30 5465 H 507.794 -0.630218 5.48391 0
M  V30 5466 H 510.27 -1.62198 3.83185 0
M  V30 5467 H 509.146 -2.54161 4.86511 0
M  V30 5468 H 509.407 -3.04707 3.20322 0
M  V30 5469 N 508.466 -1.55915 -0.229846 0
M  V30 5470 C 509.429 -1.90914 -1.26824 0
M  V30 5471 C 510.429 -0.786999 -1.40225 0
M  V30 5472 O 511.619 -1.05484 -1.38632 0
M  V30 5473 C 508.751 -2.15264 -2.64337 0
M  V30 5474 H 509.944 -2.8378 -0.969998 0
M  V30 5475 H 507.497 -1.49069 -0.4699 0
M  V30 5476 H 508.232 -1.24923 -2.99274 0
M  V30 5477 H 508.017 -2.97005 -2.55989 0
M  V30 5478 H 509.507 -2.43467 -3.39284 0
M  V30 5479 N 509.944 0.496216 -1.49584 0
M  V30 5480 C 511.172 1.27394 -1.63029 0
M  V30 5481 C 511.587 1.86344 -0.303569 0
M  V30 5482 O 510.944 1.68057 0.711547 0
M  V30 5483 C 510.995 2.40077 -2.70269 0
M  V30 5484 O 510.716 1.83549 -3.97796 0
M  V30 5485 C 512.217 3.31372 -2.94462 0
M  V30 5486 H 509.437 0.386211 -0.54871 0
M  V30 5487 H 511.981 0.595163 -1.95648 0
M  V30 5488 H 510.136 3.03775 -2.40415 0
M  V30 5489 H 510.55 2.57561 -4.56905 0
M  V30 5490 H 512.024 4.06707 -3.73221 0
M  V30 5491 H 512.501 3.88654 -2.0456 0
M  V30 5492 H 513.107 2.73435 -3.25751 0
M  V30 5493 N 511.423 1.38739 0.74761 0
M  V30 5494 C 512.669 1.35475 1.50912 0
M  V30 5495 C 513.002 -0.0533093 1.94127 0
M  V30 5496 O 512.277 -1.01572 1.65871 0
M  V30 5497 C 512.56 2.31582 2.75757 0
M  V30 5498 C 512.413 3.81274 2.38642 0
M  V30 5499 C 513.732 2.25722 3.77806 0
M  V30 5500 H 510.851 0.493427 0.547447 0
M  V30 5501 H 513.493 1.69634 0.855823 0
M  V30 5502 H 511.643 2.02582 3.31501 0
M  V30 5503 H 513.315 4.20972 1.88626 0
M  V30 5504 H 511.558 3.98664 1.71025 0
M  V30 5505 H 512.229 4.4399 3.27989 0
M  V30 5506 H 514.705 2.51336 3.31616 0
M  V30 5507 H 513.581 2.95069 4.62845 0
M  V30 5508 H 513.842 1.25803 4.23823 0
M  V30 5509 N 512.901 -0.976442 1.23707 0
M  V30 5510 C 513.831 -2.08749 1.04624 0
M  V30 5511 C 514.812 -1.70057 -0.0380956 0
M  V30 5512 O 515.997 -1.93782 0.127308 0
M  V30 5513 C 513.127 -3.41335 0.640902 0
M  V30 5514 C 512.081 -3.93947 1.67302 0
M  V30 5515 C 511.407 -5.22774 1.12301 0
M  V30 5516 C 512.707 -4.22769 3.06697 0
M  V30 5517 H 514.401 -2.24972 1.97555 0
M  V30 5518 H 511.947 -1.08108 0.951247 0
M  V30 5519 H 513.9 -4.18489 0.494434 0
M  V30 5520 H 512.624 -3.24988 -0.324099 0
M  V30 5521 H 511.283 -3.18941 1.80755 0
M  V30 5522 H 510.931 -5.0278 0.148877 0
M  V30 5523 H 510.631 -5.58942 1.81267 0
M  V30 5524 H 512.155 -6.02546 0.988479 0
M  V30 5525 H 513.569 -4.90659 2.96524 0
M  V30 5526 H 511.966 -4.70147 3.72937 0
M  V30 5527 H 513.036 -3.29885 3.55392 0
M  V30 5528 N 514.379 -1.04941 -1.1758 0
M  V30 5529 C 515.619 -0.766996 -1.89464 0
M  V30 5530 C 515.983 0.693123 -1.79053 0
M  V30 5531 O 517.184 1.08953 -2.45729 0
M  V30 5532 C 515.455 -1.23108 -3.35528 0
M  V30 5533 S 517.014 -1.07565 -4.25412 0
M  V30 5534 H 513.832 -0.278616 -0.654136 0
M  V30 5535 H 516.434 -1.34352 -1.4202 0
M  V30 5536 H 515.138 -2.28896 -3.40639 0
M  V30 5537 H 514.669 -0.648724 -3.88014 0
M  V30 5538 H 516.684 0.00169467 -4.962 0
M  V30 5539 N 515.857 1.33968 -0.830081 0
M  V30 5540 C 517.134 1.92554 -0.343858 0
M  V30 5541 C 517.514 1.7573 1.16971 0
M  V30 5542 O 516.862 1.14035 1.98011 0
M  V30 5543 C 517.072 3.40147 -0.781073 0
M  V30 5544 C 518.42 4.17299 -0.78402 0
M  V30 5545 O 519.444 3.48762 -0.724112 0
M  V30 5546 O 518.303 5.39631 -0.863739 0
M  V30 5547 H 515.397 0.821469 -0.0954827 0
M  V30 5548 H 517.943 1.42897 -0.915348 0
M  V30 5549 H 516.715 3.46225 -1.82329 0
M  V30 5550 H 516.338 3.97166 -0.18567 0
M  V30 5551 N 517.335 0.585699 1.46312 0
M  V30 5552 C 518.265 -0.133556 2.33118 0
M  V30 5553 C 519.246 -0.880707 1.45525 0
M  V30 5554 O 520.431 -0.855579 1.74337 0
M  V30 5555 C 517.561 -1.14585 3.27853 0
M  V30 5556 C 516.515 -0.513341 4.2491 0
M  V30 5557 C 515.841 -1.63231 5.09175 0
M  V30 5558 C 517.141 0.551413 5.19381 0
M  V30 5559 H 518.835 0.59121 2.93505 0
M  V30 5560 H 516.381 0.285761 1.41136 0
M  V30 5561 H 518.334 -1.65741 3.87438 0
M  V30 5562 H 517.058 -1.90093 2.65579 0
M  V30 5563 H 515.717 -0.0228349 3.66593 0
M  V30 5564 H 515.365 -2.37713 4.43285 0
M  V30 5565 H 515.065 -1.21473 5.74907 0
M  V30 5566 H 516.589 -2.14658 5.71624 0
M  V30 5567 H 518.003 0.124804 5.73164 0
M  V30 5568 H 516.4 0.889486 5.93471 0
M  V30 5569 H 517.47 1.43655 4.63132 0
M  V30 5570 N 518.813 -1.54241 0.323641 0
M  V30 5571 C 519.743 -2.27289 -0.534993 0
M  V30 5572 C 520.724 -1.28087 -1.11927 0
M  V30 5573 O 521.909 -1.56899 -1.14439 0
M  V30 5574 C 519.039 -3.03075 -1.69596 0
M  V30 5575 C 517.993 -4.09614 -1.24098 0
M  V30 5576 C 517.319 -4.73242 -2.4889 0
M  V30 5577 C 518.619 -5.21087 -0.355789 0
M  V30 5578 H 520.313 -2.99308 0.0743257 0
M  V30 5579 H 517.859 -1.43952 0.0371874 0
M  V30 5580 H 519.812 -3.52907 -2.30293 0
M  V30 5581 H 518.536 -2.28673 -2.33187 0
M  V30 5582 H 517.195 -3.60666 -0.656945 0
M  V30 5583 H 516.843 -3.95455 -3.10845 0
M  V30 5584 H 516.543 -5.45209 -2.19138 0
M  V30 5585 H 518.067 -5.25848 -3.10348 0
M  V30 5586 H 519.481 -5.66675 -0.869042 0
M  V30 5587 H 517.878 -5.9991 -0.151045 0
M  V30 5588 H 518.948 -4.81005 0.613339 0
M  V30 5589 N 520.291 -0.0518155 -1.57515 0
M  V30 5590 C 521.221 0.920283 -2.146 0
M  V30 5591 C 522.202 1.32406 -1.06783 0
M  V30 5592 O 523.387 1.39866 -1.34726 0
M  V30 5593 C 520.517 2.1949 -2.6915 0
M  V30 5594 C 519.471 1.93116 -3.81956 0
M  V30 5595 C 518.797 3.27037 -4.23026 0
M  V30 5596 C 520.097 1.25225 -5.07066 0
M  V30 5597 H 521.791 0.444801 -2.96077 0
M  V30 5598 H 519.337 0.212508 -1.42423 0
M  V30 5599 H 521.29 2.87894 -3.07725 0
M  V30 5600 H 520.014 2.69244 -1.84865 0
M  V30 5601 H 518.673 1.27123 -3.43854 0
M  V30 5602 H 518.321 3.74595 -3.3569 0
M  V30 5603 H 518.021 3.10189 -4.99056 0
M  V30 5604 H 519.545 3.96673 -4.64202 0
M  V30 5605 H 520.959 1.83666 -5.43083 0
M  V30 5606 H 519.356 1.18702 -5.88243 0
M  V30 5607 H 520.426 0.228382 -4.84362 0
M  V30 5608 N 521.769 1.56035 0.221574 0
M  V30 5609 C 522.699 1.95434 1.2778 0
M  V30 5610 C 523.68 0.822564 1.48889 0
M  V30 5611 O 524.865 1.08486 1.61072 0
M  V30 5612 C 521.995 2.27102 2.62759 0
M  V30 5613 C 520.949 3.4277 2.56306 0
M  V30 5614 C 520.275 3.60043 3.95314 0
M  V30 5615 C 521.575 4.77742 2.11093 0
M  V30 5616 H 523.269 2.83912 0.950504 0
M  V30 5617 H 520.815 1.36596 0.455791 0
M  V30 5618 H 522.768 2.53256 3.36807 0
M  V30 5619 H 521.492 1.35478 2.97176 0
M  V30 5620 H 520.151 3.16664 1.84715 0
M  V30 5621 H 519.799 2.65794 4.27039 0
M  V30 5622 H 519.499 4.37841 3.91879 0
M  V30 5623 H 521.023 3.88545 4.71025 0
M  V30 5624 H 522.437 5.03102 2.74885 0
M  V30 5625 H 520.834 5.58823 2.18716 0
M  V30 5626 H 521.904 4.731 1.06321 0
M  V30 5627 N 523.247 -0.488276 1.49845 0
M  V30 5628 C 524.197 -1.58556 1.63842 0
M  V30 5629 C 525.181 -1.53142 0.493586 0
M  V30 5630 O 526.373 -1.60457 0.747169 0
M  V30 5631 C 523.502 -2.97101 1.72005 0
M  V30 5632 C 522.588 -3.07463 2.92108 0
M  V30 5633 N 522.979 -2.87681 4.16021 0
M  V30 5634 C 521.277 -3.3858 2.90309 0
M  V30 5635 C 521.978 -3.0256 4.96822 0
M  V30 5636 N 520.954 -3.32002 4.30437 0
M  V30 5637 H 524.756 -1.41935 2.57355 0
M  V30 5638 H 522.27 -0.694668 1.46793 0
M  V30 5639 H 524.267 -3.75976 1.80132 0
M  V30 5640 H 522.927 -3.14782 0.796375 0
M  V30 5641 H 523.938 -2.63603 4.45796 0
M  V30 5642 H 520.615 -3.62357 2.07372 0
M  V30 5643 H 522.005 -2.9165 6.05301 0
M  V30 5644 N 524.725 -1.39134 -0.740242 0
M  V30 5645 C 525.974 -1.35384 -1.49512 0
M  V30 5646 C 526.287 0.04919 -1.95538 0
M  V30 5647 O 527.493 0.209257 -2.70692 0
M  V30 5648 C 525.949 -2.37812 -2.70136 0
M  V30 5649 C 525.557 -3.83804 -2.31081 0
M  V30 5650 C 527.301 -2.4313 -3.47977 0
M  V30 5651 C 525.208 -4.77886 -3.48395 0
M  V30 5652 H 524.138 -0.503297 -0.561434 0
M  V30 5653 H 526.789 -1.64754 -0.807974 0
M  V30 5654 H 525.171 -2.01505 -3.40899 0
M  V30 5655 H 526.345 -4.29123 -1.67898 0
M  V30 5656 H 524.66 -3.81732 -1.66343 0
M  V30 5657 H 527.257 -3.10614 -4.35228 0
M  V30 5658 H 527.6 -1.45423 -3.90074 0
M  V30 5659 H 528.133 -2.78304 -2.84239 0
M  V30 5660 H 524.872 -5.76836 -3.11353 0
M  V30 5661 H 524.392 -4.3725 -4.10576 0
M  V30 5662 H 526.071 -4.96538 -4.148 0
M  V30 5663 N 526.204 0.969867 -1.24223 0
M  V30 5664 C 527.134 2.08191 -1.05729 0
M  V30 5665 C 528.115 1.70075 0.0290765 0
M  V30 5666 O 529.3 1.93712 -0.137583 0
M  V30 5667 C 526.43 3.40991 -0.658995 0
M  V30 5668 C 525.384 3.93054 -1.69389 0
M  V30 5669 C 524.71 5.22171 -1.15072 0
M  V30 5670 C 526.01 4.21137 -3.08935 0
M  V30 5671 H 527.704 2.23921 -1.98746 0
M  V30 5672 H 525.25 1.07602 -0.956967 0
M  V30 5673 H 527.203 4.18221 -0.51662 0
M  V30 5674 H 525.927 3.25155 0.30686 0
M  V30 5675 H 524.586 3.17977 -1.82444 0
M  V30 5676 H 524.234 5.02694 -0.175539 0
M  V30 5677 H 523.934 5.57973 -1.84229 0
M  V30 5678 H 525.458 6.02013 -1.02042 0
M  V30 5679 H 526.872 4.8908 -2.99121 0
M  V30 5680 H 525.269 4.68163 -3.75425 0
M  V30 5681 H 526.339 3.27996 -3.57137 0
M  V30 5682 N 527.682 1.05563 1.17022 0
M  V30 5683 C 529.093 0.793475 1.69 0
M  V30 5684 C 529.444 -0.683882 1.83895 0
M  V30 5685 O 528.569 -1.53116 1.5292 0
M  V30 5686 C 529.164 1.43376 3.06967 0
M  V30 5687 C 527.723 1.21956 3.56095 0
M  V30 5688 C 526.87 1.51494 2.3226 0
M  V30 5689 H 529.821 1.22008 1.01487 0
M  V30 5690 H 529.842 0.845068 3.70997 0
M  V30 5691 H 529.354 2.50899 2.96093 0
M  V30 5692 H 527.455 0.163749 3.7224 0
M  V30 5693 H 527.568 1.92713 4.38633 0
M  V30 5694 H 525.932 0.935175 2.3691 0
M  V30 5695 H 526.715 2.60159 2.23992 0
M  V30 5696 N 529.16 -1.33526 0.837174 0
M  V30 5697 C 530.107 -2.29248 0.267169 0
M  V30 5698 C 531.077 -1.54252 -0.616071 0
M  V30 5699 O 532.262 -1.82559 -0.554699 0
M  V30 5700 C 529.402 -3.40638 -0.553152 0
M  V30 5701 C 528.515 -4.30548 0.353921 0
M  V30 5702 C 527.65 -5.29051 -0.477339 0
M  V30 5703 C 526.689 -6.106 0.42823 0
M  V30 5704 N 525.826 -7.01152 -0.364801 0
M  V30 5705 H 530.666 -2.77398 1.08877 0
M  V30 5706 H 528.203 -1.36496 0.54838 0
M  V30 5707 H 530.161 -4.03921 -1.04422 0
M  V30 5708 H 528.791 -2.93685 -1.33973 0
M  V30 5709 H 527.843 -3.68001 0.963289 0
M  V30 5710 H 529.155 -4.87631 1.04964 0
M  V30 5711 H 528.309 -5.97853 -1.0323 0
M  V30 5712 H 527.048 -4.72541 -1.2065 0
M  V30 5713 H 526.053 -5.40718 0.995219 0
M  V30 5714 H 527.278 -6.69193 1.15573 0
M  V30 5715 H 525.224 -6.47092 -1.07738 0
M  V30 5716 H 525.141 -7.5551 0.272238 0
M  V30 5717 H 526.409 -7.74263 -0.902054 0
M  V30 5718 N 530.638 -0.59345 -1.46 0
M  V30 5719 C 532.054 -0.255965 -1.57534 0
M  V30 5720 C 532.254 1.24167 -1.58697 0
M  V30 5721 O 531.31 2.02398 -1.50968 0
M  V30 5722 C 532.623 -0.91466 -2.86451 0
M  V30 5723 C 534.171 -0.889253 -3.00102 0
M  V30 5724 C 534.646 -1.52769 -4.3177 0
M  V30 5725 N 536.137 -1.49253 -4.38495 0
M  V30 5726 C 536.872 -1.9558 -5.39014 0
M  V30 5727 N 536.368 -2.49929 -6.46148 0
M  V30 5728 N 538.161 -1.86432 -5.30282 0
M  V30 5729 H 530.312 -1.56604 -1.43489 0
M  V30 5730 H 532.575 -0.655207 -0.685133 0
M  V30 5731 H 532.281 -1.96861 -2.91442 0
M  V30 5732 H 532.155 -0.429356 -3.74748 0
M  V30 5733 H 534.542 0.156111 -2.94687 0
M  V30 5734 H 534.623 -1.41268 -2.13253 0
M  V30 5735 H 534.267 -2.57231 -4.37944 0
M  V30 5736 H 534.197 -0.979398 -5.17412 0
M  V30 5737 H 536.688 -1.09536 -3.61677 0
M  V30 5738 H 537.001 -2.83109 -7.19075 0
M  V30 5739 H 535.346 -2.53961 -6.46938 0
M  V30 5740 H 538.537 -1.43722 -4.4549 0
M  V30 5741 H 538.71 -2.22852 -6.08474 0
M  V30 5742 N 532.116 1.54067 -0.331816 0
M  V30 5743 C 533.066 2.21363 0.546101 0
M  V30 5744 C 534.05 1.19698 1.07523 0
M  V30 5745 O 535.242 1.45293 1.01088 0
M  V30 5746 C 532.371 2.98115 1.70242 0
M  V30 5747 C 531.457 4.07127 1.18779 0
M  V30 5748 N 531.848 5.04267 0.393465 0
M  V30 5749 C 530.146 4.21226 1.46576 0
M  V30 5750 C 530.847 5.81585 0.115572 0
M  V30 5751 N 529.823 5.39022 0.703987 0
M  V30 5752 H 533.625 2.93821 -0.0679751 0
M  V30 5753 H 531.139 1.61812 -0.138085 0
M  V30 5754 H 533.136 3.44818 2.34321 0
M  V30 5755 H 531.796 2.27181 2.31989 0
M  V30 5756 H 532.807 5.17888 0.0355757 0
M  V30 5757 H 529.484 3.61509 2.08848 0
M  V30 5758 H 530.874 6.6985 -0.524426 0
M  V30 5759 N 533.594 0.0601682 1.57485 0
M  V30 5760 C 534.824 -0.620037 1.97076 0
M  V30 5761 C 535.232 -1.64381 0.936784 0
M  V30 5762 O 534.575 -1.83497 -0.0863377 0
M  V30 5763 C 534.637 -1.35617 3.32939 0
M  V30 5764 C 534.301 -0.487208 4.54396 0
M  V30 5765 C 535.298 0.250428 5.19297 0
M  V30 5766 C 532.983 -0.415494 5.00579 0
M  V30 5767 C 534.977 1.04812 6.28723 0
M  V30 5768 C 532.664 0.385879 6.0988 0
M  V30 5769 C 533.662 1.11637 6.73815 0
M  V30 5770 O 533.35 1.90454 7.81014 0
M  V30 5771 H 533.082 -0.173664 0.653312 0
M  V30 5772 H 535.636 0.1256 2.05016 0
M  V30 5773 H 533.866 -2.14763 3.2158 0
M  V30 5774 H 535.555 -1.92749 3.57215 0
M  V30 5775 H 536.321 0.204546 4.84568 0
M  V30 5776 H 532.2 -0.973679 4.506 0
M  V30 5777 H 535.744 1.6188 6.78558 0
M  V30 5778 H 531.641 0.433366 6.44044 0
M  V30 5779 H 532.409 1.82762 7.97835 0
M  V30 5780 N 535.072 -1.5615 -0.213296 0
M  V30 5781 C 536.302 -1.83372 -0.951757 0
M  V30 5782 C 536.71 -0.638158 -1.78113 0
M  V30 5783 O 536.053 0.402609 -1.79234 0
M  V30 5784 C 536.115 -3.04444 -1.91192 0
M  V30 5785 C 535.779 -4.39107 -1.26627 0
M  V30 5786 C 536.776 -5.15794 -0.652087 0
M  V30 5787 C 534.461 -4.85834 -1.27556 0
M  V30 5788 C 536.455 -6.37376 -0.055814 0
M  V30 5789 C 534.142 -6.07356 -0.675451 0
M  V30 5790 C 535.14 -6.82967 -0.0666367 0
M  V30 5791 O 534.828 -8.0219 0.524119 0
M  V30 5792 H 534.56 -0.613398 -0.284111 0
M  V30 5793 H 537.114 -2.04096 -0.231112 0
M  V30 5794 H 535.344 -2.79559 -2.67178 0
M  V30 5795 H 537.033 -3.18466 -2.51662 0
M  V30 5796 H 537.799 -4.80796 -0.637172 0
M  V30 5797 H 533.678 -4.26949 -1.73883 0
M  V30 5798 H 537.222 -6.96334 0.420004 0
M  V30 5799 H 533.119 -6.41825 -0.687806 0
M  V30 5800 H 533.887 -8.17426 0.419243 0
M  V30 5801 N 536.55 0.480323 -1.50102 0
M  V30 5802 C 537.497 1.57946 -1.6829 0
M  V30 5803 C 538.467 1.57611 -0.524223 0
M  V30 5804 O 539.652 1.75282 -0.753709 0
M  V30 5805 C 536.792 2.95978 -1.77457 0
M  V30 5806 C 535.905 3.06173 -3.04766 0
M  V30 5807 C 535.04 4.35063 -3.04784 0
M  V30 5808 C 534.079 4.38966 -4.26586 0
M  V30 5809 N 533.216 5.59314 -4.24396 0
M  V30 5810 H 538.056 1.41743 -2.62131 0
M  V30 5811 H 535.593 0.689304 -1.2995 0
M  V30 5812 H 537.551 3.76011 -1.80752 0
M  V30 5813 H 536.181 3.10837 -0.870637 0
M  V30 5814 H 535.233 2.19071 -3.10986 0
M  V30 5815 H 536.545 3.04916 -3.9475 0
M  V30 5816 H 535.699 5.23436 -3.06757 0
M  V30 5817 H 534.438 4.38915 -2.12614 0
M  V30 5818 H 533.443 3.48992 -4.24835 0
M  V30 5819 H 534.668 4.36813 -5.19972 0
M  V30 5820 H 532.614 5.63969 -3.35074 0
M  V30 5821 H 532.531 5.5976 -5.08138 0
M  V30 5822 H 533.799 6.49837 -4.30502 0
M  V30 5823 N 538.028 1.39524 0.732853 0
M  V30 5824 C 538.96 1.34318 1.85718 0
M  V30 5825 C 539.973 0.251576 1.60844 0
M  V30 5826 O 541.162 0.510685 1.71039 0
M  V30 5827 C 538.262 1.06334 3.21786 0
M  V30 5828 C 537.435 2.26813 3.73998 0
M  V30 5829 C 536.494 1.95253 4.88634 0
M  V30 5830 O 535.52 2.67957 5.02183 0
M  V30 5831 N 536.722 0.919984 5.73164 0
M  V30 5832 H 539.487 2.3121 1.90688 0
M  V30 5833 H 537.048 1.33654 0.91368 0
M  V30 5834 H 539.04 0.832363 3.96048 0
M  V30 5835 H 537.61 0.181682 3.12072 0
M  V30 5836 H 536.83 2.65849 2.91064 0
M  V30 5837 H 538.118 3.0717 4.05616 0
M  V30 5838 H 537.516 0.317487 5.64808 0
M  V30 5839 H 536.073 0.748905 6.47483 0
M  V30 5840 N 539.506 -0.963266 1.24736 0
M  V30 5841 C 540.453 -2.05857 1.04363 0
M  V30 5842 C 541.423 -1.6604 -0.0444951 0
M  V30 5843 O 542.608 -1.90477 0.110999 0
M  V30 5844 C 539.748 -3.38745 0.659235 0
M  V30 5845 C 538.861 -3.9173 1.82131 0
M  V30 5846 C 537.996 -5.12906 1.38208 0
M  V30 5847 C 537.035 -5.58098 2.51382 0
M  V30 5848 N 536.172 -6.7049 2.08295 0
M  V30 5849 H 541.012 -2.22616 1.98107 0
M  V30 5850 H 538.549 -1.09103 0.986661 0
M  V30 5851 H 540.507 -4.15107 0.417371 0
M  V30 5852 H 539.137 -3.21898 -0.241201 0
M  V30 5853 H 538.189 -3.11966 2.17672 0
M  V30 5854 H 539.501 -4.21225 2.67153 0
M  V30 5855 H 538.655 -5.96657 1.09935 0
M  V30 5856 H 537.394 -4.85105 0.502456 0
M  V30 5857 H 536.399 -4.72917 2.80409 0
M  V30 5858 H 537.624 -5.87911 3.39909 0
M  V30 5859 H 535.57 -6.44416 1.22737 0
M  V30 5860 H 535.487 -6.99458 2.86869 0
M  V30 5861 H 536.755 -7.57672 1.83175 0
M  V30 5862 N 540.985 -1.06182 -1.16461 0
M  V30 5863 C 541.932 -0.671613 -2.20812 0
M  V30 5864 C 542.902 0.331186 -1.62765 0
M  V30 5865 O 544.087 0.22033 -1.89524 0
M  V30 5866 C 541.227 -0.063029 -3.45042 0
M  V30 5867 C 540.34 -1.11587 -4.1734 0
M  V30 5868 C 539.475 -0.473546 -5.29085 0
M  V30 5869 C 538.514 -1.51 -5.93182 0
M  V30 5870 N 537.651 -0.891118 -6.96422 0
M  V30 5871 H 542.491 -1.56589 -2.53542 0
M  V30 5872 H 540.028 -0.782951 -1.24532 0
M  V30 5873 H 541.986 0.307344 -4.16066 0
M  V30 5874 H 540.616 0.794663 -3.12866 0
M  V30 5875 H 539.668 -1.60396 -3.44931 0
M  V30 5876 H 540.98 -1.90221 -4.61104 0
M  V30 5877 H 540.134 -0.0501432 -6.06679 0
M  V30 5878 H 538.873 0.344687 -4.8648 0
M  V30 5879 H 537.878 -1.94331 -5.14311 0
M  V30 5880 H 539.103 -2.33031 -6.37866 0
M  V30 5881 H 537.049 -0.0935753 -6.55933 0
M  V30 5882 H 536.966 -1.61486 -7.38551 0
M  V30 5883 H 538.234 -0.492822 -7.77941 0
M  V30 5884 N 542.463 1.3308 -0.844243 0
M  V30 5885 C 543.71 1.97605 -0.44255 0
M  V30 5886 C 544.038 1.66856 0.999458 0
M  V30 5887 O 543.293 0.943586 1.7145 0
M  V30 5888 C 543.592 3.52045 -0.616354 0
M  V30 5889 C 543.258 4.02757 -2.02726 0
M  V30 5890 C 541.92 4.16316 -2.41317 0
M  V30 5891 C 544.272 4.29776 -2.9486 0
M  V30 5892 C 541.6 4.54232 -3.71335 0
M  V30 5893 C 543.952 4.69146 -4.24364 0
M  V30 5894 C 542.616 4.80911 -4.62904 0
M  V30 5895 H 541.886 0.723088 -0.161941 0
M  V30 5896 H 544.533 1.58663 -1.0723 0
M  V30 5897 H 542.838 3.91681 0.0966812 0
M  V30 5898 H 544.535 3.99981 -0.285756 0
M  V30 5899 H 541.125 3.9268 -1.71756 0
M  V30 5900 H 545.309 4.18818 -2.6628 0
M  V30 5901 H 540.565 4.61535 -4.00993 0
M  V30 5902 H 544.739 4.89008 -4.95827 0
M  V30 5903 H 542.366 5.10048 -5.63698 0
M  V30 5904 N 543.941 0.601185 1.45683 0
M  V30 5905 C 544.888 -0.121396 2.30481 0
M  V30 5906 C 545.858 -0.866232 1.41724 0
M  V30 5907 O 547.043 -0.85324 1.70659 0
M  V30 5908 C 544.183 -1.11704 3.26521 0
M  V30 5909 C 543.296 -0.373741 4.3038 0
M  V30 5910 C 542.431 -1.35854 5.13534 0
M  V30 5911 C 541.47 -0.602689 6.09126 0
M  V30 5912 N 540.607 -1.53645 6.85082 0
M  V30 5913 H 545.447 0.607732 2.91737 0
M  V30 5914 H 542.984 0.311502 1.43764 0
M  V30 5915 H 544.942 -1.70735 3.80664 0
M  V30 5916 H 543.572 -1.81366 2.67032 0
M  V30 5917 H 542.624 0.331962 3.78949 0
M  V30 5918 H 543.936 0.2163 4.98331 0
M  V30 5919 H 543.09 -2.02111 5.72046 0
M  V30 5920 H 541.829 -1.98251 4.45587 0
M  V30 5921 H 540.834 0.0735482 5.49751 0
M  V30 5922 H 542.059 0.0161467 6.79098 0
M  V30 5923 H 540.005 -2.14819 6.1983 0
M  V30 5924 H 539.922 -0.999688 7.49361 0
M  V30 5925 H 541.19 -2.1888 7.48139 0
M  V30 5926 N 545.419 -1.53889 0.339982 0
M  V30 5927 C 546.649 -2.04973 -0.258738 0
M  V30 5928 C 547.057 -1.21485 -1.45045 0
M  V30 5929 O 546.4 -0.2422 -1.82096 0
M  V30 5930 C 546.462 -3.51783 -0.740853 0
M  V30 5931 C 546.126 -4.55802 0.330734 0
M  V30 5932 C 547.123 -5.06512 1.17226 0
M  V30 5933 C 544.808 -4.99966 0.483637 0
M  V30 5934 C 546.802 -5.99963 2.15227 0
M  V30 5935 C 544.489 -5.93229 1.46704 0
M  V30 5936 C 545.487 -6.43115 2.29981 0
M  V30 5937 O 545.175 -7.34545 3.26649 0
M  V30 5938 H 544.907 -0.673807 -0.0544037 0
M  V30 5939 H 547.461 -1.99492 0.489107 0
M  V30 5940 H 545.691 -3.54717 -1.53988 0
M  V30 5941 H 547.38 -3.85857 -1.25973 0
M  V30 5942 H 548.146 -4.73158 1.0652 0
M  V30 5943 H 544.025 -4.6074 -0.15471 0
M  V30 5944 H 547.569 -6.38825 2.80265 0
M  V30 5945 H 543.466 -6.25998 1.57468 0
M  V30 5946 H 544.234 -7.52468 3.22078 0
M  V30 5947 N 546.897 -0.0685191 -1.57451 0
M  V30 5948 C 547.86 0.885173 -2.11417 0
M  V30 5949 C 548.86 1.22853 -1.03748 0
M  V30 5950 O 550.05 1.16235 -1.2975 0
M  V30 5951 C 547.182 2.18964 -2.61281 0
M  V30 5952 H 548.375 0.417034 -2.96986 0
M  V30 5953 H 545.928 0.18014 -1.55258 0
M  V30 5954 H 546.663 2.70321 -1.79156 0
M  V30 5955 H 546.448 1.9534 -3.39977 0
M  V30 5956 H 547.938 2.87242 -3.0312 0
M  V30 5957 N 548.375 1.56261 0.205012 0
M  V30 5958 C 549.285 1.96944 1.27476 0
M  V30 5959 C 550.301 0.875636 1.50362 0
M  V30 5960 O 551.477 1.18058 1.6317 0
M  V30 5961 C 548.542 2.29219 2.60115 0
M  V30 5962 C 547.603 3.52255 2.45387 0
M  V30 5963 C 546.836 3.8298 3.71701 0
M  V30 5964 O 547.059 3.15138 4.75441 0
M  V30 5965 O 545.993 4.76435 3.67823 0
M  V30 5966 H 549.819 2.88144 0.959527 0
M  V30 5967 H 547.404 1.43686 0.409217 0
M  V30 5968 H 549.286 2.51098 3.3842 0
M  V30 5969 H 547.961 1.4119 2.91285 0
M  V30 5970 H 546.868 3.35635 1.65227 0
M  V30 5971 H 548.201 4.40719 2.19152 0
M  V30 5972 N 549.853 -0.472356 1.50355 0
M  V30 5973 C 551.13 -1.23356 1.51798 0
M  V30 5974 C 551.51 -2.09469 0.26193 0
M  V30 5975 O 550.858 -2.15677 -0.754691 0
M  V30 5976 C 551.068 -2.06568 2.81302 0
M  V30 5977 C 552.416 -2.648 3.31913 0
M  V30 5978 O 553.44 -2.16812 2.82614 0
M  V30 5979 O 552.299 -3.52231 4.17846 0
M  V30 5980 H 549.393 -0.559707 0.608816 0
M  V30 5981 H 551.939 -0.48428 1.62643 0
M  V30 5982 H 550.711 -1.43103 3.64194 0
M  V30 5983 H 550.334 -2.88633 2.73454 0
M  V30 5984 N 551.331 -1.39911 -0.725443 0
M  V30 5985 C 552.264 -1.33788 -1.84867 0
M  V30 5986 C 553.242 -0.209907 -1.61239 0
M  V30 5987 O 554.426 -0.391943 -1.8438 0
M  V30 5988 C 551.553 -1.07975 -3.21028 0
M  V30 5989 C 550.599 -2.23092 -3.635 0
M  V30 5990 S 551.432 -3.85431 -3.71757 0
M  V30 5991 C 552.588 -3.61862 -5.10692 0
M  V30 5992 H 552.821 -2.28848 -1.89779 0
M  V30 5993 H 550.354 -1.26079 -0.891254 0
M  V30 5994 H 552.312 -0.937669 -3.99647 0
M  V30 5995 H 550.973 -0.145865 -3.13761 0
M  V30 5996 H 550.166 -2.00647 -4.62338 0
M  V30 5997 H 549.768 -2.33553 -2.92112 0
M  V30 5998 H 552.06 -3.19719 -5.97316 0
M  V30 5999 H 553.003 -4.60196 -5.38169 0
M  V30 6000 H 553.411 -2.95757 -4.8082 0
M  V30 6001 N 552.809 0.956637 -1.25245 0
M  V30 6002 C 554.057 1.69764 -1.09657 0
M  V30 6003 C 554.378 1.91583 0.363464 0
M  V30 6004 O 553.648 1.50149 1.25825 0
M  V30 6005 H 552.228 0.629097 -0.402798 0
M  V30 6006 H 554.89 1.15026 -1.57337 0
M  V30 6007 H 553.986 2.67769 -1.60331 0
M  V30 6008 N 554.287 1.06798 1.15896 0
M  V30 6009 C 555.698 0.811355 1.68149 0
M  V30 6010 C 556.049 -0.664339 1.8461 0
M  V30 6011 O 555.174 -1.51485 1.54535 0
M  V30 6012 C 555.769 1.46624 3.05429 0
M  V30 6013 C 554.328 1.25726 3.54781 0
M  V30 6014 C 553.475 1.53949 2.3064 0
M  V30 6015 H 556.426 1.23078 1.00187 0
M  V30 6016 H 556.447 0.88437 3.7008 0
M  V30 6017 H 555.959 2.54025 2.93416 0
M  V30 6018 H 554.06 0.20322 3.72045 0
M  V30 6019 H 554.173 1.97354 4.36564 0
M  V30 6020 H 552.537 0.96025 2.35905 0
M  V30 6021 H 553.32 2.6252 2.2122 0
M  V30 6022 N 555.766 -1.3263 0.851289 0
M  V30 6023 C 557.014 -1.96978 0.452128 0
M  V30 6024 C 557.335 -1.67715 -0.99482 0
M  V30 6025 O 556.605 -0.98259 -1.69476 0
M  V30 6026 H 555.185 -0.72873 0.164202 0
M  V30 6027 H 557.847 -1.61774 1.08698 0
M  V30 6028 H 556.943 -3.06387 0.594407 0
M  V30 6029 N 557.244 -0.608902 -1.45362 0
M  V30 6030 C 558.207 0.0992563 -2.28985 0
M  V30 6031 C 559.207 0.793841 -1.39838 0
M  V30 6032 O 560.397 0.641804 -1.61946 0
M  V30 6033 C 557.529 1.15073 -3.20891 0
M  V30 6034 H 558.722 -0.635964 -2.93079 0
M  V30 6035 H 556.275 -0.368007 -1.51906 0
M  V30 6036 H 557.01 1.91667 -2.616 0
M  V30 6037 H 556.795 0.656867 -3.86559 0
M  V30 6038 H 558.285 1.64665 -3.83765 0
M  V30 6039 N 558.722 1.53707 -0.348139 0
M  V30 6040 C 559.685 2.23812 0.494058 0
M  V30 6041 C 560.685 1.23989 1.02388 0
M  V30 6042 O 561.875 1.48395 0.912396 0
M  V30 6043 C 559.007 2.96133 1.68872 0
M  V30 6044 H 560.2 2.99663 -0.119141 0
M  V30 6045 H 557.753 1.55983 -0.0995539 0
M  V30 6046 H 558.488 2.24481 2.34049 0
M  V30 6047 H 558.273 3.69357 1.31596 0
M  V30 6048 H 559.763 3.49475 2.28597 0
M  V30 6049 N 560.2 0.0768682 1.57412 0
M  V30 6050 C 561.11 -0.903207 2.16516 0
M  V30 6051 C 562.126 -1.32341 1.12968 0
M  V30 6052 O 563.302 -1.39507 1.45258 0
M  V30 6053 C 560.367 -2.1508 2.71922 0
M  V30 6054 C 559.428 -1.78653 3.90361 0
M  V30 6055 C 558.661 -2.97465 4.43114 0
M  V30 6056 O 558.884 -4.11638 3.94854 0
M  V30 6057 O 557.818 -2.76987 5.3438 0
M  V30 6058 H 561.644 -0.430427 3.00634 0
M  V30 6059 H 559.229 -0.146485 1.4868 0
M  V30 6060 H 561.111 -2.8823 3.07411 0
M  V30 6061 H 559.786 -2.61446 1.9086 0
M  V30 6062 H 558.693 -1.0274 3.59716 0
M  V30 6063 H 560.026 -1.37066 4.7273 0
M  V30 6064 N 561.678 -1.56367 -0.196722 0
M  V30 6065 C 563.094 -1.49916 -0.54749 0
M  V30 6066 C 563.294 -0.77659 -1.85934 0
M  V30 6067 O 562.35 -0.32644 -2.50381 0
M  V30 6068 C 563.663 -2.94577 -0.603734 0
M  V30 6069 C 565.211 -3.05239 -0.692677 0
M  V30 6070 C 565.686 -4.51308 -0.780046 0
M  V30 6071 N 567.177 -4.55453 -0.843616 0
M  V30 6072 C 567.912 -5.65786 -0.931358 0
M  V30 6073 N 567.408 -6.85812 -0.981503 0
M  V30 6074 N 569.201 -5.53695 -0.968421 0
M  V30 6075 H 561.352 -2.01761 0.663803 0
M  V30 6076 H 563.615 -0.918094 0.236238 0
M  V30 6077 H 563.321 -3.50494 0.29105 0
M  V30 6078 H 563.195 -3.47841 -1.45898 0
M  V30 6079 H 565.582 -2.49372 -1.57789 0
M  V30 6080 H 565.663 -2.55103 0.188736 0
M  V30 6081 H 565.307 -5.078 0.100811 0
M  V30 6082 H 565.237 -4.99176 -1.67724 0
M  V30 6083 H 567.728 -3.69025 -0.814176 0
M  V30 6084 H 568.041 -7.65648 -1.04892 0
M  V30 6085 H 566.386 -6.88474 -0.950208 0
M  V30 6086 H 569.577 -4.58848 -0.926072 0
M  V30 6087 H 569.75 -6.39708 -1.03334 0
M  V30 6088 N 563.156 0.464375 -1.50603 0
M  V30 6089 C 564.433 1.22549 -1.5245 0
M  V30 6090 C 564.813 2.09327 -0.273035 0
M  V30 6091 O 564.161 2.16074 0.743242 0
M  V30 6092 C 564.371 2.05074 -2.82393 0
M  V30 6093 C 565.719 2.63036 -3.33313 0
M  V30 6094 O 566.743 2.1531 -2.8376 0
M  V30 6095 O 565.602 3.5001 -4.19709 0
M  V30 6096 H 562.696 0.556471 -0.611775 0
M  V30 6097 H 565.242 0.475648 -1.62898 0
M  V30 6098 H 564.014 1.41169 -3.64948 0
M  V30 6099 H 563.637 2.87179 -2.7498 0
M  V30 6100 N 564.634 1.40294 0.718013 0
M  V30 6101 C 565.564 1.43118 1.84498 0
M  V30 6102 C 566.545 0.292403 1.67568 0
M  V30 6103 O 567.73 0.500675 1.87635 0
M  V30 6104 C 564.86 1.29065 3.22427 0
M  V30 6105 C 563.814 2.40521 3.54025 0
M  V30 6106 C 563.14 2.11546 4.91073 0
M  V30 6107 C 564.44 3.82859 3.55269 0
M  V30 6108 H 566.134 2.37432 1.82391 0
M  V30 6109 H 563.68 1.14283 0.87609 0
M  V30 6110 H 565.633 1.29658 4.00957 0
M  V30 6111 H 564.357 0.312271 3.25104 0
M  V30 6112 H 563.016 2.39173 2.77834 0
M  V30 6113 H 562.664 1.12104 4.90348 0
M  V30 6114 H 562.364 2.86216 5.1318 0
M  V30 6115 H 563.888 2.13817 5.71939 0
M  V30 6116 H 565.302 3.86044 4.23843 0
M  V30 6117 H 563.699 4.57029 3.88902 0
M  V30 6118 H 564.769 4.12617 2.54706 0
M  V30 6119 N 566.112 -0.949982 1.2575 0
M  V30 6120 C 567.075 -2.02894 1.06615 0
M  V30 6121 C 568.075 -1.60791 0.0173905 0
M  V30 6122 O 569.265 -1.72249 0.260003 0
M  V30 6123 C 566.397 -3.35219 0.619751 0
M  V30 6124 H 567.59 -2.21302 2.02399 0
M  V30 6125 H 565.143 -1.12772 1.08223 0
M  V30 6126 H 565.878 -3.22508 -0.340486 0
M  V30 6127 H 565.663 -3.67129 1.37692 0
M  V30 6128 H 567.153 -4.14505 0.507443 0
M  V30 6129 N 567.59 -1.07411 -1.15328 0
M  V30 6130 C 568.553 -0.698914 -2.18284 0
M  V30 6131 C 569.553 0.261149 -1.58665 0
M  V30 6132 O 570.743 0.0420277 -1.74149 0
M  V30 6133 C 567.875 -0.0302427 -3.40887 0
M  V30 6134 H 569.068 -1.61045 -2.52991 0
M  V30 6135 H 566.621 -0.870724 -1.298 0
M  V30 6136 H 567.356 0.893505 -3.11748 0
M  V30 6137 H 567.141 -0.720759 -3.85419 0
M  V30 6138 H 568.631 0.21759 -4.17033 0
M  V30 6139 N 569.068 1.32177 -0.85831 0
M  V30 6140 C 570.296 2.01313 -0.477582 0
M  V30 6141 C 570.711 1.6449 0.926736 0
M  V30 6142 O 570.068 0.868096 1.60531 0
M  V30 6143 C 570.119 3.56293 -0.611337 0
M  V30 6144 O 569.84 3.91794 -1.96034 0
M  V30 6145 C 571.341 4.42702 -0.230093 0
M  V30 6146 H 568.561 0.644323 -0.187322 0
M  V30 6147 H 571.105 1.68674 -1.15626 0
M  V30 6148 H 569.26 3.87395 0.0196494 0
M  V30 6149 H 569.674 4.86513 -1.95973 0
M  V30 6150 H 571.148 5.50727 -0.374674 0
M  V30 6151 H 571.625 4.3129 0.829779 0
M  V30 6152 H 572.231 4.16997 -0.836302 0
M  V30 6153 N 570.547 0.616602 1.45037 0
M  V30 6154 C 571.772 0.120192 2.07051 0
M  V30 6155 C 572.197 -1.19008 1.45666 0
M  V30 6156 O 571.555 -1.7267 0.552692 0
M  V30 6157 C 571.603 0.00354901 3.606 0
M  V30 6158 O 570.707 -1.04431 3.98958 0
M  V30 6159 H 570.048 0.0781599 0.659384 0
M  V30 6160 H 572.578 0.849167 1.86146 0
M  V30 6161 H 572.588 -0.191754 4.07549 0
M  V30 6162 H 571.263 0.960239 4.04663 0
M  V30 6163 H 569.84 -0.824749 3.63665 0
M  V30 6164 N 572.025 -1.5352 0.356285 0
M  V30 6165 C 573.25 -2.06007 -0.239961 0
M  V30 6166 C 573.675 -1.22872 -1.42422 0
M  V30 6167 O 573.033 -0.245516 -1.7963 0
M  V30 6168 C 573.081 -3.5522 -0.620587 0
M  V30 6169 O 572.185 -3.74864 -1.71902 0
M  V30 6170 H 571.526 -0.662961 -0.0371377 0
M  V30 6171 H 574.056 -1.98033 0.514194 0
M  V30 6172 H 574.066 -3.98081 -0.894197 0
M  V30 6173 H 572.741 -4.15175 0.245407 0
M  V30 6174 H 571.318 -3.43904 -1.44169 0
M  V30 6175 N 573.503 -0.0852151 -1.57369 0
M  V30 6176 C 574.731 0.58946 -1.98325 0
M  V30 6177 C 575.146 1.62333 -0.96403 0
M  V30 6178 O 574.503 1.82438 0.0476395 0
M  V30 6179 C 574.554 1.24604 -3.39347 0
M  V30 6180 O 574.275 0.253532 -4.37366 0
M  V30 6181 C 575.776 2.00726 -3.95252 0
M  V30 6182 H 572.996 0.158783 -0.651942 0
M  V30 6183 H 575.54 -0.161584 -2.03861 0
M  V30 6184 H 573.695 1.94808 -3.34856 0
M  V30 6185 H 574.109 0.726207 -5.19448 0
M  V30 6186 H 575.583 2.42039 -4.96106 0
M  V30 6187 H 576.06 2.86919 -3.32527 0
M  V30 6188 H 576.666 1.3536 -4.03185 0
M  V30 6189 N 574.981 1.5647 0.188427 0
M  V30 6190 C 575.911 1.98101 1.23606 0
M  V30 6191 C 576.892 0.853961 1.47111 0
M  V30 6192 O 578.077 1.11879 1.58735 0
M  V30 6193 C 575.207 2.32624 2.57882 0
M  V30 6194 C 574.161 3.48129 2.48978 0
M  V30 6195 C 573.487 3.68347 3.87588 0
M  V30 6196 C 574.787 4.82112 2.00911 0
M  V30 6197 H 576.481 2.85864 0.890068 0
M  V30 6198 H 574.027 1.37532 0.426714 0
M  V30 6199 H 575.98 2.60343 3.3136 0
M  V30 6200 H 574.704 1.41751 2.94235 0
M  V30 6201 H 573.363 3.20511 1.77956 0
M  V30 6202 H 573.011 2.74793 4.21305 0
M  V30 6203 H 572.711 4.46055 3.82503 0
M  V30 6204 H 574.235 3.98449 4.62678 0
M  V30 6205 H 575.649 5.08819 2.64151 0
M  V30 6206 H 574.046 5.63337 2.06814 0
M  V30 6207 H 575.116 4.75249 0.96262 0
M  V30 6208 N 576.459 -0.456382 1.50847 0
M  V30 6209 C 577.707 -1.20497 1.62249 0
M  V30 6210 C 578.028 -1.92156 0.331839 0
M  V30 6211 O 577.298 -1.84751 -0.651443 0
M  V30 6212 H 575.878 -0.447775 0.597918 0
M  V30 6213 H 578.54 -0.525099 1.87693 0
M  V30 6214 H 577.636 -1.94492 2.44089 0
M  V30 6215 N 577.937 -1.40673 -0.710563 0
M  V30 6216 C 578.867 -1.44095 -1.83736 0
M  V30 6217 C 579.848 -0.301286 -1.67411 0
M  V30 6218 O 581.033 -0.510618 -1.87367 0
M  V30 6219 C 578.163 -1.30773 -3.21738 0
M  V30 6220 C 577.117 -2.42395 -3.52745 0
M  V30 6221 C 576.443 -2.14147 -4.89944 0
M  V30 6222 C 577.743 -3.84738 -3.53234 0
M  V30 6223 H 579.437 -2.38396 -1.81129 0
M  V30 6224 H 576.983 -1.14746 -0.870017 0
M  V30 6225 H 578.936 -1.31783 -4.00264 0
M  V30 6226 H 577.66 -0.329507 -3.24934 0
M  V30 6227 H 576.319 -2.40643 -2.76562 0
M  V30 6228 H 575.967 -1.14703 -4.89747 0
M  V30 6229 H 575.667 -2.88934 -5.11655 0
M  V30 6230 H 577.191 -2.16848 -5.70797 0
M  V30 6231 H 578.605 -3.88286 -4.2179 0
M  V30 6232 H 577.002 -4.59085 -3.86473 0
M  V30 6233 H 578.072 -4.13962 -2.52514 0
M  V30 6234 N 579.415 0.9433 -1.26252 0
M  V30 6235 C 580.347 2.04542 -1.03417 0
M  V30 6236 C 581.36 1.62799 0.0046911 0
M  V30 6237 O 582.549 1.76944 -0.235146 0
M  V30 6238 C 579.649 3.34511 -0.543671 0
M  V30 6239 C 578.822 4.05033 -1.65128 0
M  V30 6240 C 577.881 5.13273 -1.1592 0
M  V30 6241 O 576.907 5.38095 -1.85586 0
M  V30 6242 N 578.109 5.805 -0.00649279 0
M  V30 6243 H 580.874 2.24699 -1.98319 0
M  V30 6244 H 578.435 1.11264 -1.1761 0
M  V30 6245 H 580.427 4.04212 -0.198703 0
M  V30 6246 H 578.997 3.11042 0.311711 0
M  V30 6247 H 578.217 3.29275 -2.16729 0
M  V30 6248 H 579.505 4.48903 -2.39508 0
M  V30 6249 H 578.903 5.62767 0.575347 0
M  V30 6250 H 577.46 6.51201 0.279416 0
M  V30 6251 N 580.893 1.08022 1.14757 0
M  V30 6252 C 581.803 0.718292 2.23333 0
M  V30 6253 C 582.819 -0.273477 1.71837 0
M  V30 6254 O 583.995 -0.118406 2.01052 0
M  V30 6255 C 581.06 0.128855 3.4646 0
M  V30 6256 C 580.121 1.17473 4.12915 0
M  V30 6257 C 579.354 0.61333 5.30164 0
M  V30 6258 O 579.577 -0.568458 5.6756 0
M  V30 6259 O 578.511 1.3615 5.86299 0
M  V30 6260 H 582.337 1.62394 2.56636 0
M  V30 6261 H 579.922 0.853628 1.22611 0
M  V30 6262 H 581.804 -0.197249 4.20938 0
M  V30 6263 H 580.479 -0.750014 3.14891 0
M  V30 6264 H 579.386 1.5533 3.40328 0
M  V30 6265 H 580.719 2.02574 4.48581 0
M  V30 6266 N 582.371 -1.3172 0.865308 0
M  V30 6267 C 583.319 -2.30569 0.306674 0
M  V30 6268 C 584.313 -1.59317 -0.575724 0
M  V30 6269 O 585.519 -1.73961 -0.462343 0
M  V30 6270 H 581.894 -0.747681 0.0804834 0
M  V30 6271 H 583.865 -2.75165 1.15441 0
M  V30 6272 C 582.614 -3.44358 -0.480952 0
M  V30 6273 H 581.937 -3.99354 0.18876 0
M  V30 6274 H 583.377 -4.15652 -0.837241 0
M  V30 6275 C 581.836 -2.92574 -1.67039 0
M  V30 6276 O 582.366 -2.90954 -2.76964 0
M  V30 6277 N 580.572 -2.48835 -1.50097 0
M  V30 6278 H 580.119 -2.50353 -0.606738 0
M  V30 6279 H 580.077 -2.14543 -2.29823 0
M  V30 6280 N 583.85 -0.624285 -1.44708 0
M  V30 6281 C 584.783 0.133905 -2.27807 0
M  V30 6282 C 585.76 0.857794 -1.38133 0
M  V30 6283 O 586.945 0.863277 -1.6757 0
M  V30 6284 C 584.072 1.19541 -3.16903 0
M  V30 6285 C 583.118 0.572813 -4.22636 0
M  V30 6286 S 583.951 -0.631953 -5.31758 0
M  V30 6287 C 585.106 0.429733 -6.24423 0
M  V30 6288 H 585.34 -0.571072 -2.91764 0
M  V30 6289 H 582.873 -0.412261 -1.48794 0
M  V30 6290 H 584.831 1.80293 -3.68788 0
M  V30 6291 H 583.492 1.87255 -2.5218 0
M  V30 6292 H 582.685 1.37205 -4.84965 0
M  V30 6293 H 582.287 0.0400641 -3.73979 0
M  V30 6294 H 584.579 1.30421 -6.64828 0
M  V30 6295 H 585.522 -0.157804 -7.07924 0
M  V30 6296 H 585.93 0.75256 -5.59461 0
M  V30 6297 N 585.328 1.53329 -0.364422 0
M  V30 6298 C 586.744 1.59594 -0.0133165 0
M  V30 6299 C 586.944 1.37959 1.46865 0
M  V30 6300 O 586 1.18418 2.2301 0
M  V30 6301 C 587.313 2.97032 -0.468213 0
M  V30 6302 C 588.861 3.10138 -0.422334 0
M  V30 6303 C 589.336 4.49986 -0.853024 0
M  V30 6304 N 590.827 4.56098 -0.808037 0
M  V30 6305 C 591.562 5.62495 -1.11299 0
M  V30 6306 N 591.058 6.7665 -1.48717 0
M  V30 6307 N 592.851 5.52473 -1.03586 0
M  V30 6308 H 585.002 1.65644 -1.32951 0
M  V30 6309 H 587.265 0.77684 -0.543345 0
M  V30 6310 H 586.971 3.18 -1.5023 0
M  V30 6311 H 586.845 3.76918 0.145775 0
M  V30 6312 H 589.232 2.88881 0.602622 0
M  V30 6313 H 589.313 2.32263 -1.0718 0
M  V30 6314 H 588.957 4.7198 -1.87609 0
M  V30 6315 H 588.887 5.26289 -0.180819 0
M  V30 6316 H 591.378 3.74131 -0.532361 0
M  V30 6317 H 591.691 7.53776 -1.70415 0
M  V30 6318 H 590.036 6.78044 -1.52581 0
M  V30 6319 H 593.227 4.6217 -0.742736 0
M  V30 6320 H 593.4 6.35295 -1.27686 0
M  V30 6321 N 586.806 0.0935595 1.57322 0
M  V30 6322 C 588.034 -0.578934 1.98635 0
M  V30 6323 C 588.449 -1.61819 0.972626 0
M  V30 6324 O 587.806 -1.82461 -0.0379638 0
M  V30 6325 C 587.857 -1.22802 3.40003 0
M  V30 6326 O 587.578 -0.230334 4.37494 0
M  V30 6327 C 589.079 -1.98627 3.96311 0
M  V30 6328 H 586.299 -0.155324 0.652775 0
M  V30 6329 H 588.843 0.172393 2.03772 0
M  V30 6330 H 586.998 -1.93029 3.35885 0
M  V30 6331 H 587.412 -0.698649 5.19826 0
M  V30 6332 H 588.886 -2.39405 4.97382 0
M  V30 6333 H 589.363 -2.85151 3.34044 0
M  V30 6334 H 589.969 -1.3322 4.03897 0
M  V30 6335 N 588.284 -1.56567 -0.180126 0
M  V30 6336 C 589.509 -1.85975 -0.918041 0
M  V30 6337 C 589.934 -0.678888 -1.75422 0
M  V30 6338 O 589.292 0.372168 -1.77439 0
M  V30 6339 C 589.34 -3.13731 -1.77779 0
M  V30 6340 O 588.444 -2.95335 -2.87838 0
M  V30 6341 H 587.785 -0.61196 -0.257683 0
M  V30 6342 H 590.315 -2.03798 -0.180923 0
M  V30 6343 H 590.325 -3.4491 -2.17948 0
M  V30 6344 H 589 -3.99293 -1.16352 0
M  V30 6345 H 587.577 -2.7549 -2.51316 0
M  V30 6346 O 589.801 0.325198 -1.58192 0
M  V30 6347 H 590.492 0.973777 -1.67443 0
M  V30 END ATOM
M  V30 BEGIN BOND
M  V30 END BOND
M  V30 END CTAB
M  END
$$$$
