drugbank_target|P51511 Matrix metalloproteinase-15 (DB00786)
 OpenBabel12092120363D

  0  0  0     0  0            999 V3000
M  V30 BEGIN CTAB
M  V30 COUNTS 10531 10714 0 0 0
M  V30 BEGIN ATOM
M  V30 1 H -0.908 1.98254 -0.117106 0
M  V30 2 N 0 1.576 0 0
M  V30 3 C 0.933 2.03868 1.02534 0
M  V30 4 C 1.911 0.928543 1.3348 0
M  V30 5 O 3.095 1.19667 1.45644 0
M  V30 6 C 0.222 2.43627 2.35294 0
M  V30 7 C -0.732 3.65373 2.2001 0
M  V30 8 S 0.101 5.13292 1.52614 0
M  V30 9 C 1.257 5.56322 2.86805 0
M  V30 10 H 1.49 2.90518 0.631377 0
M  V30 11 H -0.977 1.52953 0.210867 0
M  V30 12 H 0.981 2.67203 3.11629 0
M  V30 13 H -0.358 1.57376 2.7183 0
M  V30 14 H -1.165 3.90944 3.18086 0
M  V30 15 H -1.563 3.418 1.51819 0
M  V30 16 H 0.729 5.58782 3.83104 0
M  V30 17 H 1.672 6.56266 2.65933 0
M  V30 18 H 2.08 4.83886 2.90714 0
M  V30 19 N 1.4781 -0.272755 1.55222 0
M  V30 20 C 2.7261 -1.00234 1.75492 0
M  V30 21 C 3.0471 -1.8681 0.5592 0
M  V30 22 O 2.3171 -1.91215 -0.425882 0
M  V30 23 H 0.8971 -0.373076 0.647166 0
M  V30 24 H 3.5591 -0.296926 1.92625 0
M  V30 25 H 2.6551 -1.63913 2.65592 0
M  V30 26 N 2.9562 -1.48159 -0.537278 0
M  V30 27 C 4.1812 -1.59707 -1.32319 0
M  V30 28 C 4.6062 -0.254859 -1.86365 0
M  V30 29 O 3.9642 0.772378 -1.64024 0
M  V30 30 C 4.0122 -2.6412 -2.45505 0
M  V30 31 O 3.1162 -2.20774 -3.48328 0
M  V30 32 H 2.4572 -0.535791 -0.392204 0
M  V30 33 H 4.9872 -1.94092 -0.647268 0
M  V30 34 H 4.9972 -2.85166 -2.91795 0
M  V30 35 H 3.6722 -3.61567 -2.05528 0
M  V30 36 H 2.2492 -2.09911 -3.08207 0
M  V30 37 N 4.4343 0.785586 -1.36625 0
M  V30 38 C 5.7113 1.53198 -1.21613 0
M  V30 39 C 6.0913 2.10187 0.196113 0
M  V30 40 O 5.4393 1.94318 1.20219 0
M  V30 41 C 5.6493 2.62388 -2.30116 0
M  V30 42 C 6.9973 3.30167 -2.66974 0
M  V30 43 O 8.0213 2.72674 -2.29188 0
M  V30 44 O 6.8803 4.34077 -3.32023 0
M  V30 45 H 3.9743 0.677865 -0.473738 0
M  V30 46 H 6.5203 0.823739 -1.48367 0
M  V30 47 H 5.2923 2.18299 -3.24748 0
M  V30 48 H 4.9153 3.40827 -2.0475 0
M  V30 49 N 5.9124 1.20967 1.01018 0
M  V30 50 C 7.3234 1.02319 1.56165 0
M  V30 51 C 7.6744 -0.418546 1.91684 0
M  V30 52 O 6.7994 -1.30096 1.72928 0
M  V30 53 C 7.3944 1.85109 2.8376 0
M  V30 54 C 5.9534 1.70809 3.35412 0
M  V30 55 C 5.1004 1.82643 2.08655 0
M  V30 56 H 8.0514 1.35065 0.833255 0
M  V30 57 H 8.0724 1.35827 3.55431 0
M  V30 58 H 7.5844 2.90035 2.57878 0
M  V30 59 H 5.6854 0.685464 3.66241 0
M  V30 60 H 5.7984 2.52467 4.07182 0
M  V30 61 H 4.1624 1.25896 2.21409 0
M  V30 62 H 4.9454 2.89066 1.85191 0
M  V30 63 N 7.3905 -1.2043 1.01659 0
M  V30 64 C 8.6155 -1.94318 0.724942 0
M  V30 65 C 9.0405 -1.74266 -0.708034 0
M  V30 66 O 8.3985 -1.03694 -1.48719 0
M  V30 67 C 8.4465 -3.44486 1.06591 0
M  V30 68 O 7.5505 -4.12017 0.177599 0
M  V30 69 H 6.8915 -0.60708 0.26898 0
M  V30 70 H 9.4215 -1.52861 1.35995 0
M  V30 71 H 9.4315 -3.95106 1.01762 0
M  V30 72 H 8.1065 -3.58404 2.10997 0
M  V30 73 H 6.6835 -3.71821 0.283421 0
M  V30 74 N 8.8686 -0.792821 -1.36206 0
M  V30 75 C 9.8316 -0.199459 -2.2833 0
M  V30 76 C 10.8316 0.605189 -1.48977 0
M  V30 77 O 12.0216 0.425685 -1.68919 0
M  V30 78 C 9.1536 0.723523 -3.33134 0
M  V30 79 H 10.3466 -1.01181 -2.82316 0
M  V30 80 H 7.8996 -0.562485 -1.45828 0
M  V30 81 H 8.6346 1.56008 -2.84309 0
M  V30 82 H 8.4196 0.148436 -3.91819 0
M  V30 83 H 9.9096 1.13344 -4.01924 0
M  V30 84 N 10.3467 1.47872 -0.545128 0
M  V30 85 C 11.7577 1.86384 -0.108581 0
M  V30 86 C 12.1087 1.45309 1.31832 0
M  V30 87 O 11.2337 0.850641 1.9898 0
M  V30 88 C 11.8287 3.38265 -0.190274 0
M  V30 89 C 10.3877 3.75914 0.191164 0
M  V30 90 C 9.5347 2.71926 -0.543273 0
M  V30 91 H 12.4857 1.39561 -0.755537 0
M  V30 92 H 12.5067 3.75831 0.594217 0
M  V30 93 H 12.0187 3.6813 -1.2289 0
M  V30 94 H 10.1197 3.51665 1.23136 0
M  V30 95 H 10.2327 4.78836 -0.158987 0
M  V30 96 H 8.5967 2.54697 0.0122495 0
M  V30 97 H 9.3797 3.04634 -1.58282 0
M  V30 98 N 11.8248 0.280983 1.55075 0
M  V30 99 C 13.0728 -0.333455 1.9933 0
M  V30 100 C 13.3938 -1.55937 1.17085 0
M  V30 101 O 12.6638 -1.94143 0.261805 0
M  V30 102 H 11.2438 -0.126197 0.736263 0
M  V30 103 H 13.9058 0.387678 1.91005 0
M  V30 104 H 13.0018 -0.619292 3.05894 0
M  V30 105 N 13.3029 -1.57598 0.00835791 0
M  V30 106 C 14.7189 -1.55764 -0.347822 0
M  V30 107 C 14.9189 -1.01186 -1.74252 0
M  V30 108 O 13.9749 -0.649371 -2.44007 0
M  V30 109 C 15.2879 -2.99927 -0.215407 0
M  V30 110 C 16.8359 -3.11656 -0.289725 0
M  V30 111 C 17.3109 -4.57621 -0.18634 0
M  V30 112 N 18.8019 -4.62557 -0.243978 0
M  V30 113 C 19.5369 -5.73094 -0.18745 0
M  V30 114 N 19.0329 -6.92753 -0.0810331 0
M  V30 115 N 20.8259 -5.61588 -0.239925 0
M  V30 116 H 12.9769 -1.91411 0.92062 0
M  V30 117 H 15.2399 -0.879562 0.353659 0
M  V30 118 H 14.9459 -3.43729 0.744512 0
M  V30 119 H 14.8199 -3.63865 -0.994097 0
M  V30 120 H 17.2069 -2.67779 -1.24009 0
M  V30 121 H 17.2879 -2.5048 0.51898 0
M  V30 122 H 16.9319 -5.02174 0.760519 0
M  V30 123 H 16.8619 -5.16752 -1.01364 0
M  V30 124 H 19.3529 -3.76481 -0.327217 0
M  V30 125 H 19.6659 -7.72787 -0.0440241 0
M  V30 126 H 18.0109 -6.94984 -0.0465419 0
M  V30 127 H 21.2019 -4.66996 -0.321317 0
M  V30 128 H 21.3749 -6.47714 -0.192407 0
M  V30 129 N 14.781 0.264519 -1.55364 0
M  V30 130 C 16.192 0.834936 -1.6699 0
M  V30 131 C 16.543 1.86718 -0.602552 0
M  V30 132 O 15.668 2.14899 0.254425 0
M  V30 133 C 16.263 1.5212 -3.02729 0
M  V30 134 C 14.822 2.03954 -3.16354 0
M  V30 135 C 13.969 0.884498 -2.62815 0
M  V30 136 H 16.92 0.0406869 -1.58648 0
M  V30 137 H 16.941 2.38853 -2.96191 0
M  V30 138 H 16.453 0.769668 -3.80392 0
M  V30 139 H 14.554 2.82041 -2.43482 0
M  V30 140 H 14.667 2.24902 -4.23032 0
M  V30 141 H 13.031 1.2802 -2.20188 0
M  V30 142 H 13.814 0.14634 -3.42988 0
M  V30 143 N 16.2591 1.48442 0.529413 0
M  V30 144 C 17.5071 1.56179 1.28267 0
M  V30 145 C 17.8281 0.237721 1.93546 0
M  V30 146 O 17.0981 -0.740779 1.81354 0
M  V30 147 H 15.6781 0.575367 0.476405 0
M  V30 148 H 18.3401 1.84909 0.61602 0
M  V30 149 H 17.4361 2.34312 2.06165 0
M  V30 150 N 17.7372 -0.778329 1.37039 0
M  V30 151 C 18.9832 -1.53817 1.33086 0
M  V30 152 C 19.3382 -1.92208 -0.0860346 0
M  V30 153 O 18.6312 -1.60713 -1.04316 0
M  V30 154 C 18.8252 -2.81845 2.19768 0
M  V30 155 C 18.6542 -2.55967 3.69744 0
M  V30 156 C 17.4242 -2.50428 4.38878 0
M  V30 157 C 19.6222 -2.2441 4.62758 0
M  V30 158 N 17.6042 -2.16564 5.74433 0
M  V30 159 C 18.9752 -2.0063 5.86641 0
M  V30 160 C 21.0302 -2.1051 4.5121 0
M  V30 161 C 19.7332 -1.64354 7.00272 0
M  V30 162 C 21.7592 -1.75634 5.64718 0
M  V30 163 C 21.1212 -1.52709 6.87648 0
M  V30 164 H 17.2202 -0.563434 0.542279 0
M  V30 165 H 19.8042 -0.908617 1.72198 0
M  V30 166 H 17.9752 -3.42649 1.82883 0
M  V30 167 H 19.7072 -3.47682 2.07122 0
M  V30 168 H 16.4622 -2.66056 3.91805 0
M  V30 169 H 16.8862 -2.02348 6.46053 0
M  V30 170 H 21.5282 -2.26919 3.56746 0
M  V30 171 H 19.2462 -1.46683 7.94676 0
M  V30 172 H 22.8322 -1.65546 5.57751 0
M  V30 173 H 21.7122 -1.2612 7.73992 0
M  V30 174 N 19.2153 -1.21501 -1.00376 0
M  V30 175 C 20.4433 -1.059 -1.77744 0
M  V30 176 C 20.8583 0.391125 -1.84704 0
M  V30 177 O 20.2153 1.27133 -1.30933 0
M  V30 178 C 20.2663 -1.65111 -3.21591 0
M  V30 179 O 19.9873 -3.0445 -3.15027 0
M  V30 180 C 21.4883 -1.54637 -4.15454 0
M  V30 181 H 18.7083 -0.371825 -0.558558 0
M  V30 182 H 21.2523 -1.60865 -1.26264 0
M  V30 183 H 19.4073 -1.14235 -3.70175 0
M  V30 184 H 19.8213 -3.3278 -4.0541 0
M  V30 185 H 21.2953 -2.00808 -5.14179 0
M  V30 186 H 21.7723 -0.501022 -4.36333 0
M  V30 187 H 22.3783 -2.04767 -3.72761 0
M  V30 188 N 20.6934 1.19889 -1.02296 0
M  V30 189 C 21.9414 1.89046 -0.714558 0
M  V30 190 C 22.2624 1.79636 0.758681 0
M  V30 191 O 21.5324 1.20292 1.54618 0
M  V30 192 H 20.1124 0.699802 -0.261317 0
M  V30 193 H 22.7744 1.45574 -1.29592 0
M  V30 194 H 21.8704 2.95524 -1.0036 0
M  V30 195 N 22.1715 0.800033 1.35784 0
M  V30 196 C 23.3965 0.388511 2.03729 0
M  V30 197 C 23.8215 -0.990481 1.5991 0
M  V30 198 O 23.1795 -1.64013 0.772612 0
M  V30 199 C 23.2275 0.4726 3.5749 0
M  V30 200 O 22.3315 -0.51646 4.09153 0
M  V30 201 H 21.6725 0.163271 0.643614 0
M  V30 202 H 24.2025 1.0841 1.73518 0
M  V30 203 H 24.2125 0.34003 4.06581 0
M  V30 204 H 22.8875 1.47848 3.88734 0
M  V30 205 H 21.4645 -0.344673 3.71304 0
M  V30 206 N 23.6496 -1.47581 0.552962 0
M  V30 207 C 24.5796 -2.32762 -0.185451 0
M  V30 208 C 25.5606 -1.43527 -0.912905 0
M  V30 209 O 26.7456 -1.72388 -0.894201 0
M  V30 210 C 23.8756 -3.25219 -1.21859 0
M  V30 211 C 22.8296 -4.23661 -0.607864 0
M  V30 212 C 22.1556 -5.05413 -1.74533 0
M  V30 213 C 23.4556 -5.20481 0.435582 0
M  V30 214 H 25.1496 -2.94749 0.525684 0
M  V30 215 H 22.6956 -1.41738 0.254251 0
M  V30 216 H 24.6486 -3.8365 -1.7433 0
M  V30 217 H 23.3726 -2.61279 -1.95961 0
M  V30 218 H 22.0316 -3.66451 -0.104489 0
M  V30 219 H 21.6796 -4.3788 -2.47529 0
M  V30 220 H 21.3796 -5.72059 -1.34249 0
M  V30 221 H 22.9036 -5.66701 -2.27338 0
M  V30 222 H 24.3176 -5.733 -0.00290157 0
M  V30 223 H 22.7146 -5.95305 0.757067 0
M  V30 224 H 23.7846 -4.66217 1.33303 0
M  V30 225 N 25.1277 -0.289203 -1.54924 0
M  V30 226 C 26.0577 0.58549 -2.2604 0
M  V30 227 C 27.0387 1.14753 -1.25562 0
M  V30 228 O 28.2237 1.17906 -1.54311 0
M  V30 229 C 25.3537 1.76305 -2.99222 0
M  V30 230 C 24.3077 1.33191 -4.06748 0
M  V30 231 C 23.6337 2.5937 -4.6758 0
M  V30 232 C 24.9337 0.471775 -5.20165 0
M  V30 233 H 26.6277 -0.00763532 -2.99399 0
M  V30 234 H 24.1737 -0.00511229 -1.43999 0
M  V30 235 H 26.1267 2.38097 -3.47689 0
M  V30 236 H 24.8507 2.38223 -2.23422 0
M  V30 237 H 23.5097 0.737121 -3.59113 0
M  V30 238 H 23.1577 3.19576 -3.88433 0
M  V30 239 H 22.8577 2.31228 -5.40192 0
M  V30 240 H 24.3817 3.21985 -5.18804 0
M  V30 241 H 25.7957 0.995056 -5.64599 0
M  V30 242 H 24.1927 0.284639 -5.99425 0
M  V30 243 H 25.2627 -0.506041 -4.82252 0
M  V30 244 N 26.6058 1.57591 -0.0167156 0
M  V30 245 C 27.8538 1.90906 0.663285 0
M  V30 246 C 28.1748 0.892509 1.73376 0
M  V30 247 O 27.4448 -0.0677623 1.95783 0
M  V30 248 H 26.0248 0.704637 0.247983 0
M  V30 249 H 28.6868 1.94803 -0.0615909 0
M  V30 250 H 27.7828 2.9116 1.12393 0
M  V30 251 N 28.0839 -0.256276 1.55502 0
M  V30 252 C 29.3609 -1.00789 1.67633 0
M  V30 253 C 29.7409 -2.03706 0.553826 0
M  V30 254 O 29.0889 -2.24145 -0.443969 0
M  V30 255 C 29.2989 -1.64968 3.07549 0
M  V30 256 C 30.6469 -2.15505 3.65845 0
M  V30 257 O 31.6709 -1.74925 3.1029 0
M  V30 258 O 30.5299 -2.89986 4.63217 0
M  V30 259 H 27.6239 -0.468553 0.681459 0
M  V30 260 H 30.1699 -0.250806 1.67836 0
M  V30 261 H 28.9419 -0.904785 3.80696 0
M  V30 262 H 28.5649 -2.47321 3.11317 0
M  V30 263 N 29.562 -1.4872 -0.521534 0
M  V30 264 C 30.978 -1.35028 -0.850855 0
M  V30 265 C 31.178 -0.367712 -1.98116 0
M  V30 266 O 30.234 0.208037 -2.51642 0
M  V30 267 C 31.547 -2.75263 -1.21041 0
M  V30 268 C 33.095 -2.83813 -1.31981 0
M  V30 269 C 33.57 -4.24769 -1.71276 0
M  V30 270 N 35.061 -4.27482 -1.78363 0
M  V30 271 C 35.796 -5.33494 -2.1017 0
M  V30 272 N 35.292 -6.49775 -2.40343 0
M  V30 273 N 37.085 -5.20894 -2.11248 0
M  V30 274 H 29.236 -2.11214 0.22413 0
M  V30 275 H 31.499 -0.947252 0.0376439 0
M  V30 276 H 31.205 -3.48765 -0.453415 0
M  V30 277 H 31.079 -3.09327 -2.15863 0
M  V30 278 H 33.466 -2.10561 -2.06756 0
M  V30 279 H 33.547 -2.53358 -0.352596 0
M  V30 280 H 33.191 -4.9854 -0.970588 0
M  V30 281 H 33.121 -4.52673 -2.69062 0
M  V30 282 H 35.612 -3.43611 -1.57288 0
M  V30 283 H 35.925 -7.26402 -2.63743 0
M  V30 284 H 34.27 -6.53035 -2.37844 0
M  V30 285 H 37.461 -4.29065 -1.87139 0
M  V30 286 H 37.634 -6.03612 -2.35704 0
M  V30 287 N 31.0401 0.771051 -1.3745 0
M  V30 288 C 31.9501 1.91538 -1.35464 0
M  V30 289 C 32.9661 1.72134 -0.254123 0
M  V30 290 O 34.1421 1.95358 -0.489626 0
M  V30 291 C 31.2071 3.26671 -1.16134 0
M  V30 292 C 30.2681 3.58723 -2.35831 0
M  V30 293 C 29.5011 4.87409 -2.17413 0
M  V30 294 O 29.7241 5.58506 -1.15876 0
M  V30 295 O 28.6581 5.18539 -3.05615 0
M  V30 296 H 32.4841 1.96165 -2.31847 0
M  V30 297 H 30.0691 0.9139 -1.18187 0
M  V30 298 H 31.9511 4.07499 -1.07345 0
M  V30 299 H 30.6261 3.22894 -0.228251 0
M  V30 300 H 29.5331 2.78127 -2.50192 0
M  V30 301 H 30.8661 3.67243 -3.27709 0
M  V30 302 N 32.5182 1.22032 0.997298 0
M  V30 303 C 33.4282 1.00271 2.12092 0
M  V30 304 C 34.4442 -0.047621 1.73935 0
M  V30 305 O 35.6202 0.144136 2.00884 0
M  V30 306 C 32.6852 0.578449 3.4184 0
M  V30 307 C 31.7462 1.70189 3.94125 0
M  V30 308 C 30.9792 1.29778 5.17681 0
M  V30 309 O 31.2022 0.174676 5.70132 0
M  V30 310 O 30.1362 2.11261 5.63607 0
M  V30 311 H 33.9622 1.94398 2.3333 0
M  V30 312 H 31.5472 1.00587 1.10465 0
M  V30 313 H 33.4292 0.351998 4.19927 0
M  V30 314 H 32.1042 -0.334019 3.21972 0
M  V30 315 H 31.0112 1.98282 3.1723 0
M  V30 316 H 32.3442 2.59206 4.18417 0
M  V30 317 N 33.9963 -1.19345 1.0293 0
M  V30 318 C 34.9593 -2.20793 0.615069 0
M  V30 319 C 35.9593 -1.57553 -0.321533 0
M  V30 320 O 37.1493 -1.73862 -0.108483 0
M  V30 321 C 34.2813 -3.40754 -0.0999222 0
M  V30 322 H 35.4743 -2.58955 1.51269 0
M  V30 323 H 33.0273 -1.3303 0.820534 0
M  V30 324 H 33.7623 -3.0811 -1.01187 0
M  V30 325 H 33.5473 -3.87889 0.57309 0
M  V30 326 H 35.0373 -4.15898 -0.376645 0
M  V30 327 N 35.4744 -0.807222 -1.35358 0
M  V30 328 C 36.4374 -0.223665 -2.28106 0
M  V30 329 C 37.4374 0.589354 -1.4961 0
M  V30 330 O 38.6274 0.407745 -1.69361 0
M  V30 331 C 35.7594 0.688149 -3.33882 0
M  V30 332 H 36.9524 -1.04169 -2.81227 0
M  V30 333 H 34.5054 -0.577921 -1.45223 0
M  V30 334 H 35.2404 1.52984 -2.85948 0
M  V30 335 H 35.0254 0.10687 -3.91954 0
M  V30 336 H 36.5154 1.09075 -4.03104 0
M  V30 337 N 36.9525 1.47285 -0.560781 0
M  V30 338 C 38.3685 1.58065 -0.22081 0
M  V30 339 C 38.5685 1.55892 1.27671 0
M  V30 340 O 37.6245 1.46422 2.0571 0
M  V30 341 C 38.9375 2.88418 -0.850625 0
M  V30 342 C 40.4855 3.02009 -0.822184 0
M  V30 343 C 40.9605 4.35066 -1.43113 0
M  V30 344 N 42.4515 4.41711 -1.39448 0
M  V30 345 C 43.1865 5.43237 -1.83525 0
M  V30 346 N 42.6825 6.51555 -2.35474 0
M  V30 347 N 44.4755 5.34304 -1.74574 0
M  V30 348 H 36.6265 1.46941 -1.53369 0
M  V30 349 H 38.8895 0.699558 -0.639783 0
M  V30 350 H 38.5955 2.95755 -1.9032 0
M  V30 351 H 38.4695 3.75612 -0.345773 0
M  V30 352 H 40.8565 2.94266 0.221714 0
M  V30 353 H 40.9375 2.16347 -1.36483 0
M  V30 354 H 40.5815 4.43565 -2.47412 0
M  V30 355 H 40.5115 5.19465 -0.863899 0
M  V30 356 H 43.0025 3.64027 -1.01452 0
M  V30 357 H 43.3155 7.25203 -2.67021 0
M  V30 358 H 41.6605 6.52435 -2.39487 0
M  V30 359 H 44.8515 4.48581 -1.33763 0
M  V30 360 H 45.0245 6.13288 -2.09242 0
M  V30 361 N 38.4306 0.297415 1.54768 0
M  V30 362 C 39.8416 -0.195947 1.85669 0
M  V30 363 C 40.1926 -1.53707 1.21937 0
M  V30 364 O 39.3176 -2.10164 0.515754 0
M  V30 365 C 39.9126 -0.362318 3.36857 0
M  V30 366 C 38.4716 -0.799901 3.67802 0
M  V30 367 C 37.6186 0.0938578 2.77141 0
M  V30 368 H 40.5696 0.518538 1.4999 0
M  V30 369 H 40.5906 -1.19745 3.61167 0
M  V30 370 H 40.1026 0.613921 3.83214 0
M  V30 371 H 38.2036 -1.78682 3.26961 0
M  V30 372 H 38.3166 -0.621773 4.75048 0
M  V30 373 H 36.6806 -0.426254 2.51108 0
M  V30 374 H 37.4636 1.06639 3.26318 0
M  V30 375 N 39.9087 -1.5758 0.0250728 0
M  V30 376 C 41.3247 -1.56124 -0.331282 0
M  V30 377 C 41.5247 -1.03029 -1.73169 0
M  V30 378 O 40.5807 -0.675215 -2.43305 0
M  V30 379 C 41.8937 -3.00139 -0.183584 0
M  V30 380 C 43.4417 -3.11946 -0.256654 0
M  V30 381 C 43.9167 -4.57793 -0.137792 0
M  V30 382 N 45.4077 -4.6279 -0.194904 0
M  V30 383 C 46.1427 -5.7326 -0.126655 0
M  V30 384 N 45.6387 -6.928 -0.00755288 0
M  V30 385 N 47.4317 -5.61811 -0.180348 0
M  V30 386 H 39.5827 -1.90424 0.94087 0
M  V30 387 H 41.8457 -0.875761 0.362968 0
M  V30 388 H 41.5517 -3.4292 0.780927 0
M  V30 389 H 41.4257 -3.64899 -0.955448 0
M  V30 390 H 43.8127 -2.69079 -1.21162 0
M  V30 391 H 43.8937 -2.49915 0.545517 0
M  V30 392 H 43.5377 -5.01339 0.813739 0
M  V30 393 H 43.4677 -5.17798 -0.958775 0
M  V30 394 H 45.9587 -3.76807 -0.287267 0
M  V30 395 H 46.2717 -7.72791 0.0379428 0
M  V30 396 H 44.6167 -6.94995 0.0271731 0
M  V30 397 H 47.8077 -4.6731 -0.271767 0
M  V30 398 H 47.9807 -6.47882 -0.123697 0
M  V30 399 N 41.3868 0.248026 -1.55636 0
M  V30 400 C 42.3168 1.31079 -1.93237 0
M  V30 401 C 43.2978 1.50264 -0.797174 0
M  V30 402 O 44.4828 1.62891 -1.05737 0
M  V30 403 C 41.6128 2.66575 -2.22609 0
M  V30 404 C 40.5668 2.62087 -3.3837 0
M  V30 405 C 39.8928 4.01369 -3.53281 0
M  V30 406 C 41.1928 2.19171 -4.7409 0
M  V30 407 H 42.8868 0.998556 -2.82257 0
M  V30 408 H 40.4328 0.47891 -1.35803 0
M  V30 409 H 42.3858 3.41057 -2.47503 0
M  V30 410 H 41.1098 2.99432 -1.30414 0
M  V30 411 H 39.7688 1.90063 -3.13483 0
M  V30 412 H 39.4168 4.31489 -2.58508 0
M  V30 413 H 39.1168 3.99254 -4.31127 0
M  V30 414 H 40.6408 4.77552 -3.80495 0
M  V30 415 H 42.0548 2.83384 -4.98363 0
M  V30 416 H 40.4518 2.2817 -5.5503 0
M  V30 417 H 41.5218 1.14336 -4.71227 0
M  V30 418 N 42.8649 1.48995 0.513639 0
M  V30 419 C 43.7949 1.67636 1.62544 0
M  V30 420 C 44.7759 0.525087 1.61793 0
M  V30 421 O 45.9609 0.759502 1.78732 0
M  V30 422 C 43.0909 1.73114 3.01079 0
M  V30 423 C 42.0449 2.87905 3.16693 0
M  V30 424 C 41.3709 2.78486 4.56453 0
M  V30 425 C 42.6709 4.29005 2.97913 0
M  V30 426 H 44.3649 2.60716 1.47198 0
M  V30 427 H 41.9109 1.25465 0.706714 0
M  V30 428 H 43.8639 1.84742 3.78746 0
M  V30 429 H 42.5879 0.766241 3.17484 0
M  V30 430 H 41.2469 2.75859 2.41448 0
M  V30 431 H 40.8949 1.7993 4.69717 0
M  V30 432 H 40.5949 3.55523 4.67843 0
M  V30 433 H 42.1189 2.92104 5.36197 0
M  V30 434 H 43.5329 4.41798 3.65359 0
M  V30 435 H 41.9299 5.07166 3.20785 0
M  V30 436 H 42.9999 4.44329 1.94165 0
M  V30 437 N 44.343 -0.763751 1.37857 0
M  V30 438 C 45.754 -1.3405 1.29952 0
M  V30 439 C 46.105 -1.96138 -0.0492898 0
M  V30 440 O 45.23 -1.94372 -0.951239 0
M  V30 441 C 45.825 -2.43729 2.35333 0
M  V30 442 C 44.384 -2.97151 2.31037 0
M  V30 443 C 43.531 -1.70438 2.18738 0
M  V30 444 H 46.482 -0.563396 1.48363 0
M  V30 445 H 46.503 -3.23412 2.00462 0
M  V30 446 H 46.015 -1.9851 3.33489 0
M  V30 447 H 44.116 -3.46724 1.3643 0
M  V30 448 H 44.229 -3.52221 3.24772 0
M  V30 449 H 42.593 -1.93673 1.65418 0
M  V30 450 H 43.376 -1.27312 3.18821 0
M  V30 451 N 45.8211 -1.22559 -0.990812 0
M  V30 452 C 46.7511 -1.0218 -2.09956 0
M  V30 453 C 47.7321 0.0579394 -1.70001 0
M  V30 454 O 48.9171 -0.104684 -1.93918 0
M  V30 455 C 46.0471 -0.601023 -3.4206 0
M  V30 456 C 45.0011 -1.62694 -3.95872 0
M  V30 457 C 44.3271 -1.06193 -5.24049 0
M  V30 458 C 45.6271 -3.01743 -4.2632 0
M  V30 459 H 47.3211 -1.94916 -2.27262 0
M  V30 460 H 44.8671 -0.938566 -1.09211 0
M  V30 461 H 46.8201 -0.445561 -4.19038 0
M  V30 462 H 45.5441 0.362005 -3.24588 0
M  V30 463 H 44.2031 -1.77021 -3.21028 0
M  V30 464 H 43.8511 -0.0901903 -5.02919 0
M  V30 465 H 43.5511 -1.74732 -5.61019 0
M  V30 466 H 45.0751 -0.918092 -6.03658 0
M  V30 467 H 46.4891 -2.90777 -4.94087 0
M  V30 468 H 44.8861 -3.67425 -4.74467 0
M  V30 469 H 45.9561 -3.51518 -3.34011 0
M  V30 470 N 47.2992 1.18797 -1.03562 0
M  V30 471 C 48.2292 2.24472 -0.643019 0
M  V30 472 C 49.2102 1.66433 0.351283 0
M  V30 473 O 50.3952 1.92803 0.232505 0
M  V30 474 C 47.5252 3.473 4.24935e-05 0
M  V30 475 C 46.4792 4.18055 -0.917257 0
M  V30 476 C 45.8052 5.34519 -0.138941 0
M  V30 477 C 47.1052 4.72109 -2.23407 0
M  V30 478 H 48.7992 2.57566 -1.52643 0
M  V30 479 H 46.3452 1.23806 -0.735394 0
M  V30 480 H 48.2982 4.20426 0.286383 0
M  V30 481 H 47.0222 3.13424 0.918299 0
M  V30 482 H 45.6812 3.46821 -1.1879 0
M  V30 483 H 45.3292 4.96891 0.781562 0
M  V30 484 H 45.0292 5.82794 -0.750005 0
M  V30 485 H 46.5532 6.10438 0.1405 0
M  V30 486 H 47.9672 5.36955 -2.00879 0
M  V30 487 H 46.3642 5.30897 -2.79765 0
M  V30 488 H 47.4342 3.89807 -2.88407 0
M  V30 489 N 48.7773 0.814389 1.34928 0
M  V30 490 C 49.7073 0.244827 2.32213 0
M  V30 491 C 50.6883 -0.634024 1.57842 0
M  V30 492 O 51.8733 -0.562676 1.8587 0
M  V30 493 C 49.0033 -0.601106 3.42058 0
M  V30 494 C 47.9573 0.179896 4.27622 0
M  V30 495 C 47.2833 -0.788237 5.28858 0
M  V30 496 C 48.5833 1.38329 5.03649 0
M  V30 497 H 50.2773 1.05763 2.80097 0
M  V30 498 H 47.8233 0.510029 1.34665 0
M  V30 499 H 49.7763 -1.00968 4.09125 0
M  V30 500 H 48.5003 -1.44688 2.92802 0
M  V30 501 H 47.1593 0.569739 3.62146 0
M  V30 502 H 46.8073 -1.62973 4.75866 0
M  V30 503 H 46.5073 -0.269942 5.8698 0
M  V30 504 H 48.0313 -1.19485 5.98795 0
M  V30 505 H 49.4453 1.04918 5.63618 0
M  V30 506 H 47.8423 1.83662 5.71304 0
M  V30 507 H 48.9123 2.16592 4.33839 0
M  V30 508 N 50.2554 -1.46986 0.568584 0
M  V30 509 C 51.5014 -2.02741 0.0488709 0
M  V30 510 C 51.8344 -1.44077 -1.30214 0
M  V30 511 O 51.1094 -0.600552 -1.84996 0
M  V30 512 C 51.3924 -3.60086 -0.032047 0
M  V30 513 C 51.2454 -4.29162 1.34686 0
M  V30 514 C 52.5644 -4.33838 -0.739798 0
M  V30 515 H 49.6834 -0.736749 0.0192338 0
M  V30 516 H 52.3254 -1.75289 0.733065 0
M  V30 517 H 50.4754 -3.83606 -0.61473 0
M  V30 518 H 52.1474 -4.16948 1.97362 0
M  V30 519 H 50.3904 -3.89073 1.91846 0
M  V30 520 H 51.0614 -5.37826 1.24285 0
M  V30 521 H 53.5374 -4.15378 -0.244939 0
M  V30 522 H 52.4134 -5.43537 -0.765406 0
M  V30 523 H 52.6744 -4.03875 -1.79827 0
M  V30 524 N 51.7335 -0.305618 -1.54608 0
M  V30 525 C 52.6635 0.561482 -2.26649 0
M  V30 526 C 53.6445 1.13415 -1.26772 0
M  V30 527 O 54.8295 1.16262 -1.55553 0
M  V30 528 C 51.9595 1.73122 -3.01075 0
M  V30 529 C 50.9135 1.2887 -4.08138 0
M  V30 530 C 50.2395 2.54396 -4.70305 0
M  V30 531 C 51.5395 0.416578 -5.20636 0
M  V30 532 H 53.2335 -0.0393902 -2.99374 0
M  V30 533 H 50.7795 -0.020385 -1.43986 0
M  V30 534 H 52.7325 2.34396 -3.50195 0
M  V30 535 H 51.4565 2.3584 -2.25936 0
M  V30 536 H 50.1155 0.698991 -3.59875 0
M  V30 537 H 49.7635 3.15439 -3.918 0
M  V30 538 H 49.4635 2.25486 -5.42614 0
M  V30 539 H 50.9875 3.16464 -5.2219 0
M  V30 540 H 52.4015 0.935116 -5.65622 0
M  V30 541 H 50.7985 0.221046 -5.99693 0
M  V30 542 H 51.8685 -0.557162 -4.81688 0
M  V30 543 N 53.2116 1.57565 -0.0334293 0
M  V30 544 C 54.1416 2.13511 0.945265 0
M  V30 545 C 55.1226 1.05231 1.33643 0
M  V30 546 O 56.3076 1.33084 1.41429 0
M  V30 547 C 53.4376 2.6657 2.22616 0
M  V30 548 C 52.3916 3.79676 1.97561 0
M  V30 549 C 51.7176 4.1918 3.31952 0
M  V30 550 C 53.0176 5.0557 1.31135 0
M  V30 551 H 54.7116 2.95538 0.479325 0
M  V30 552 H 52.2576 1.42166 0.229115 0
M  V30 553 H 54.2106 3.04344 2.91466 0
M  V30 554 H 52.9346 1.8171 2.71384 0
M  V30 555 H 51.5936 3.42347 1.31127 0
M  V30 556 H 51.2416 3.31296 3.78487 0
M  V30 557 H 50.9416 4.95402 3.15992 0
M  V30 558 H 52.4656 4.59541 4.02063 0
M  V30 559 H 53.8796 5.40903 1.89992 0
M  V30 560 H 52.2766 5.86818 1.25559 0
M  V30 561 H 53.3466 4.84062 0.284894 0
M  V30 562 N 54.6897 -0.239769 1.55765 0
M  V30 563 C 55.9377 -0.964892 1.77579 0
M  V30 564 C 56.2587 -1.85582 0.598699 0
M  V30 565 O 55.5287 -1.92075 -0.385226 0
M  V30 566 H 54.1087 -0.359265 0.654933 0
M  V30 567 H 56.7707 -0.256001 1.93211 0
M  V30 568 H 55.8667 -1.58243 2.69009 0
M  V30 569 N 56.1678 -1.49265 -0.50573 0
M  V30 570 C 57.4078 -1.60128 -1.27038 0
M  V30 571 C 57.7718 -0.279557 -1.89954 0
M  V30 572 O 58.9728 -0.263329 -2.67507 0
M  V30 573 C 57.2438 -2.72507 -2.31246 0
M  V30 574 S 58.8028 -3.0329 -3.17113 0
M  V30 575 H 55.6208 -0.564863 -0.4318 0
M  V30 576 H 58.2228 -1.86902 -0.573397 0
M  V30 577 H 56.9268 -3.67068 -1.83546 0
M  V30 578 H 56.4578 -2.4771 -3.05619 0
M  V30 579 H 58.4728 -2.44448 -4.31809 0
M  V30 580 N 57.6459 0.756429 -1.3826 0
M  V30 581 C 58.5759 1.88374 -1.37976 0
M  V30 582 C 59.5569 1.68311 -0.246082 0
M  V30 583 O 60.7419 1.88944 -0.44874 0
M  V30 584 C 57.8719 3.25864 -1.20125 0
M  V30 585 C 56.8259 3.60523 -2.30666 0
M  V30 586 C 56.1519 4.9672 -1.97923 0
M  V30 587 C 57.4519 3.65692 -3.72916 0
M  V30 588 H 59.1459 1.88869 -2.32312 0
M  V30 589 H 56.6919 0.907272 -1.11824 0
M  V30 590 H 58.6449 4.0438 -1.18552 0
M  V30 591 H 57.3689 3.25841 -0.222498 0
M  V30 592 H 56.0279 2.84324 -2.3142 0
M  V30 593 H 55.6759 4.93253 -0.985393 0
M  V30 594 H 55.3759 5.20878 -2.71955 0
M  V30 595 H 56.8999 5.77618 -1.97964 0
M  V30 596 H 58.3139 4.34328 -3.74208 0
M  V30 597 H 56.7109 4.01358 -4.4613 0
M  V30 598 H 57.7809 2.65987 -4.05436 0
M  V30 599 N 59.124 1.23083 0.984299 0
M  V30 600 C 60.372 1.05848 1.72165 0
M  V30 601 C 60.693 -0.406049 1.90726 0
M  V30 602 O 59.963 -1.29139 1.47309 0
M  V30 603 H 58.543 0.388685 0.637913 0
M  V30 604 H 61.205 1.54736 1.18503 0
M  V30 605 H 60.301 1.54327 2.71274 0
M  V30 606 N 60.6021 -1.18246 1.0419 0
M  V30 607 C 61.5321 -2.24127 0.654914 0
M  V30 608 C 62.5131 -1.66617 -0.342451 0
M  V30 609 O 63.6981 -1.92924 -0.222277 0
M  V30 610 C 60.8281 -3.47295 0.0183757 0
M  V30 611 C 59.7821 -4.17563 0.939414 0
M  V30 612 C 59.1081 -5.34438 0.167286 0
M  V30 613 C 60.4081 -4.70917 2.25908 0
M  V30 614 H 62.1021 -2.56753 1.54007 0
M  V30 615 H 59.6481 -1.23414 0.74195 0
M  V30 616 H 61.6011 -4.20572 -0.264082 0
M  V30 617 H 60.3251 -3.13907 -0.901664 0
M  V30 618 H 58.9841 -3.46186 1.20628 0
M  V30 619 H 58.6321 -4.97298 -0.7552 0
M  V30 620 H 58.3321 -5.82388 0.780901 0
M  V30 621 H 59.8561 -6.10504 -0.108125 0
M  V30 622 H 61.2701 -5.35882 2.03724 0
M  V30 623 H 59.6671 -5.29406 2.82577 0
M  V30 624 H 60.7371 -3.88272 2.9047 0
M  V30 625 N 62.0802 -0.821533 -1.34494 0
M  V30 626 C 63.3282 -0.408139 -1.97936 0
M  V30 627 C 63.6492 1.03193 -1.65457 0
M  V30 628 O 62.9192 1.71622 -0.944595 0
M  V30 629 H 61.4992 -0.147928 -0.732206 0
M  V30 630 H 64.1612 -1.05067 -1.64155 0
M  V30 631 H 63.2572 -0.52601 -3.07635 0
M  V30 632 N 63.5583 1.46682 -0.576371 0
M  V30 633 C 64.8043 2.02712 -0.0596221 0
M  V30 634 C 65.1373 1.44765 1.29448 0
M  V30 635 O 64.4123 0.610355 1.84675 0
M  V30 636 C 64.6953 3.60098 0.0129503 0
M  V30 637 C 64.5483 4.28441 -1.3696 0
M  V30 638 C 65.8673 4.34224 0.71678 0
M  V30 639 H 62.9863 0.736637 -0.0231407 0
M  V30 640 H 65.6283 1.74898 -0.742351 0
M  V30 641 H 63.7783 3.83926 0.594378 0
M  V30 642 H 65.4503 4.15896 -1.9957 0
M  V30 643 H 63.6933 3.8805 -1.93907 0
M  V30 644 H 64.3643 5.3716 -1.27135 0
M  V30 645 H 66.8403 4.15503 0.222908 0
M  V30 646 H 65.7163 5.43936 0.73657 0
M  V30 647 H 65.9773 4.04823 1.77682 0
M  V30 648 N 65.0364 0.313813 1.54444 0
M  V30 649 C 65.9994 -0.54379 2.22656 0
M  V30 650 C 66.9994 -1.05124 1.21678 0
M  V30 651 O 68.1894 -0.945225 1.46325 0
M  V30 652 C 65.3214 -1.75427 2.92298 0
M  V30 653 H 66.5144 0.0523599 2.99854 0
M  V30 654 H 64.0674 0.0647834 1.56166 0
M  V30 655 H 64.8024 -2.38991 2.19211 0
M  V30 656 H 64.5874 -1.39791 3.66334 0
M  V30 657 H 66.0774 -2.36325 3.44297 0
M  V30 658 N 66.5145 -1.57545 0.0417849 0
M  V30 659 C 67.4775 -2.09885 -0.92093 0
M  V30 660 C 68.4775 -1.01648 -1.24596 0
M  V30 661 O 69.6675 -1.27759 -1.1842 0
M  V30 662 C 66.7995 -2.57527 -2.23367 0
M  V30 663 H 67.9925 -2.96236 -0.467382 0
M  V30 664 H 65.5455 -1.5493 -0.206467 0
M  V30 665 H 66.2805 -1.74542 -2.73323 0
M  V30 666 H 66.0655 -3.36613 -2.01083 0
M  V30 667 H 67.5555 -2.98201 -2.92346 0
M  V30 668 N 67.9926 0.231505 -1.5589 0
M  V30 669 C 68.9026 1.308 -1.94752 0
M  V30 670 C 69.9186 1.51826 -0.849989 0
M  V30 671 O 71.0946 1.6515 -1.15271 0
M  V30 672 C 68.1596 2.63968 -2.24771 0
M  V30 673 C 67.2206 2.51331 -3.48039 0
M  V30 674 C 66.4536 3.78148 -3.76616 0
M  V30 675 O 66.6766 4.80722 -3.07022 0
M  V30 676 O 65.6106 3.75857 -4.70123 0
M  V30 677 H 69.4366 1.0083 -2.86474 0
M  V30 678 H 67.0216 0.433547 -1.42971 0
M  V30 679 H 68.9036 3.42633 -2.45318 0
M  V30 680 H 67.5786 2.9364 -1.36225 0
M  V30 681 H 66.4856 1.709 -3.32782 0
M  V30 682 H 67.8186 2.26601 -4.36936 0
M  V30 683 N 69.4707 1.49531 0.497807 0
M  V30 684 C 70.7477 1.49682 1.25915 0
M  V30 685 C 71.1277 0.226339 2.09883 0
M  V30 686 O 70.4757 -0.791189 2.14365 0
M  V30 687 C 70.6857 2.77755 2.11313 0
M  V30 688 C 72.0337 3.27371 2.70395 0
M  V30 689 O 73.0577 2.78894 2.21578 0
M  V30 690 O 71.9167 4.11808 3.59272 0
M  V30 691 H 69.0107 0.599228 0.56996 0
M  V30 692 H 71.5567 1.61798 0.511816 0
M  V30 693 H 70.3287 3.61713 1.49264 0
M  V30 694 H 69.9517 2.68515 2.93233 0
M  V30 695 N 70.9488 -0.749086 1.3866 0
M  V30 696 C 71.9118 -1.84457 1.36045 0
M  V30 697 C 72.9118 -1.58682 0.260122 0
M  V30 698 O 74.1018 -1.66343 0.517261 0
M  V30 699 C 71.2338 -3.22008 1.11911 0
M  V30 700 H 72.4268 -1.88182 2.33512 0
M  V30 701 H 69.9798 -0.951266 1.24019 0
M  V30 702 H 70.7148 -3.2395 0.150686 0
M  V30 703 H 70.4998 -3.42111 1.91579 0
M  V30 704 H 71.9898 -4.0208 1.12788 0
M  V30 705 N 72.4269 -1.23603 -0.977757 0
M  V30 706 C 73.3369 -1.03632 -2.1047 0
M  V30 707 C 74.3529 0.0199435 -1.73989 0
M  V30 708 O 75.5289 -0.176076 -2.00629 0
M  V30 709 C 72.5939 -0.63276 -3.40877 0
M  V30 710 C 71.6549 -1.76437 -3.91367 0
M  V30 711 C 70.8879 -1.37997 -5.15551 0
M  V30 712 O 71.1109 -0.265357 -5.69782 0
M  V30 713 O 70.0449 -2.20201 -5.60174 0
M  V30 714 H 73.8709 -1.98086 -2.30208 0
M  V30 715 H 71.4559 -1.02332 -1.08851 0
M  V30 716 H 73.3379 -0.418761 -4.19314 0
M  V30 717 H 72.0129 0.282754 -3.22463 0
M  V30 718 H 70.9199 -2.03304 -3.14036 0
M  V30 719 H 72.2529 -2.6583 -4.14241 0
M  V30 720 N 73.905 1.17692 -1.04816 0
M  V30 721 C 75.151 1.88137 -0.75711 0
M  V30 722 C 75.484 1.80604 0.713841 0
M  V30 723 O 74.759 1.21146 1.52164 0
M  V30 724 C 75.042 3.38318 -1.2334 0
M  V30 725 C 74.895 3.54622 -2.76701 0
M  V30 726 C 76.214 4.32214 -0.829415 0
M  V30 727 H 73.333 0.683163 -0.27651 0
M  V30 728 H 75.975 1.38424 -1.30149 0
M  V30 729 H 74.125 3.80787 -0.770286 0
M  V30 730 H 75.797 3.21194 -3.31107 0
M  V30 731 H 74.04 2.97026 -3.16161 0
M  V30 732 H 74.711 4.60028 -3.05088 0
M  V30 733 H 77.187 3.97565 -1.22805 0
M  V30 734 H 76.063 5.35838 -1.19033 0
M  V30 735 H 76.324 4.41294 0.266891 0
M  V30 736 N 75.3831 0.828654 1.34056 0
M  V30 737 C 76.3331 0.226828 2.26869 0
M  V30 738 C 77.3171 -0.612243 1.48796 0
M  V30 739 O 78.5091 -0.465884 1.70759 0
M  V30 740 C 75.6381 -0.605654 3.37915 0
M  V30 741 C 74.7241 0.244361 4.23395 0
M  V30 742 N 75.1151 1.31815 4.88322 0
M  V30 743 C 73.4131 0.0296616 4.4599 0
M  V30 744 C 74.1141 1.83895 5.51867 0
M  V30 745 N 73.0901 1.14196 5.3147 0
M  V30 746 H 76.8921 1.04811 2.74576 0
M  V30 747 H 74.4061 0.67205 1.47842 0
M  V30 748 H 76.4031 -1.05302 4.03382 0
M  V30 749 H 75.0631 -1.42504 2.91758 0
M  V30 750 H 76.0741 1.70099 4.8917 0
M  V30 751 H 72.7511 -0.757097 4.10578 0
M  V30 752 H 74.1411 2.7376 6.136 0
M  V30 753 N 76.8612 -1.46375 0.584142 0
M  V30 754 C 77.8242 -2.28784 -0.138108 0
M  V30 755 C 78.8242 -1.38471 -0.817462 0
M  V30 756 O 80.0142 -1.60833 -0.669199 0
M  V30 757 C 77.1462 -3.18892 -1.20503 0
M  V30 758 H 78.3392 -2.94117 0.586127 0
M  V30 759 H 75.8922 -1.52509 0.342171 0
M  V30 760 H 76.6272 -2.58309 -1.96079 0
M  V30 761 H 76.4122 -3.85388 -0.722384 0
M  V30 762 H 77.9022 -3.80914 -1.71155 0
M  V30 763 N 78.3393 -0.321999 -1.54275 0
M  V30 764 C 79.2493 0.553631 -2.27974 0
M  V30 765 C 80.2653 1.13054 -1.32268 0
M  V30 766 O 81.4413 1.15084 -1.6528 0
M  V30 767 C 78.5063 1.69927 -3.02201 0
M  V30 768 C 77.5673 1.15433 -4.1349 0
M  V30 769 C 76.8003 2.24537 -4.84168 0
M  V30 770 O 77.0233 3.44852 -4.5435 0
M  V30 771 O 75.9573 1.90044 -5.7111 0
M  V30 772 H 79.7833 -0.0448345 -3.03667 0
M  V30 773 H 77.3683 -0.0877418 -1.49142 0
M  V30 774 H 79.2503 2.3663 -3.48689 0
M  V30 775 H 77.9253 2.28395 -2.29385 0
M  V30 776 H 76.8323 0.452436 -3.71354 0
M  V30 777 H 78.1653 0.614805 -4.88345 0
M  V30 778 N 79.8174 1.5752 -0.0501392 0
M  V30 779 C 80.7654 2.12651 0.942459 0
M  V30 780 C 81.7594 1.05807 1.32292 0
M  V30 781 O 82.9654 1.24217 1.3027 0
M  V30 782 H 79.3404 0.679673 0.321789 0
M  V30 783 H 81.3114 2.94951 0.452356 0
M  V30 784 C 80.0604 2.68565 2.20836 0
M  V30 785 H 79.3834 3.50439 1.92439 0
M  V30 786 H 80.8234 3.10761 2.8845 0
M  V30 787 C 79.2824 1.62291 2.95234 0
M  V30 788 O 79.8124 1.03508 3.88135 0
M  V30 789 N 78.0184 1.33836 2.57946 0
M  V30 790 H 77.5654 1.81826 1.82475 0
M  V30 791 H 77.5234 0.629595 3.08032 0
M  V30 792 N 81.2955 -0.223234 1.56011 0
M  V30 793 C 82.5415 -0.944891 1.8012 0
M  V30 794 C 82.8965 -1.82039 0.622862 0
M  V30 795 O 82.1895 -1.8773 -0.383143 0
M  V30 796 C 82.3835 -1.81948 3.0762 0
M  V30 797 C 82.2125 -1.03014 4.37742 0
M  V30 798 C 80.9825 -0.72574 5.00061 0
M  V30 799 C 83.1805 -0.396256 5.12771 0
M  V30 800 N 81.1625 0.0851816 6.13841 0
M  V30 801 C 82.5335 0.278137 6.19376 0
M  V30 802 C 84.5885 -0.309117 4.9694 0
M  V30 803 C 83.2915 1.03133 7.11868 0
M  V30 804 C 85.3175 0.430607 5.8983 0
M  V30 805 C 84.6795 1.09355 6.9586 0
M  V30 806 H 80.7785 -0.326081 0.710771 0
M  V30 807 H 83.3625 -0.215914 1.93499 0
M  V30 808 H 81.5335 -2.52029 2.95527 0
M  V30 809 H 83.2655 -2.47848 3.19927 0
M  V30 810 H 80.0205 -1.04335 4.61964 0
M  V30 811 H 80.4445 0.479428 6.753 0
M  V30 812 H 85.0865 -0.807313 4.15021 0
M  V30 813 H 82.8045 1.54105 7.9327 0
M  V30 814 H 86.3905 0.499012 5.79656 0
M  V30 815 H 85.2705 1.65679 7.66499 0
M  V30 816 N 82.7736 -1.49793 -0.48987 0
M  V30 817 C 83.7036 -1.70201 -1.59856 0
M  V30 818 C 84.6846 -0.55076 -1.60937 0
M  V30 819 O 85.8696 -0.787841 -1.77501 0
M  V30 820 C 82.9996 -1.77882 -2.98287 0
M  V30 821 C 81.9536 -2.92907 -3.12073 0
M  V30 822 C 81.2796 -2.85712 -4.51965 0
M  V30 823 C 82.5796 -4.3369 -2.91051 0
M  V30 824 H 84.2736 -2.63025 -1.43032 0
M  V30 825 H 81.8196 -1.26574 -0.686664 0
M  V30 826 H 83.7726 -1.90744 -3.75759 0
M  V30 827 H 82.4966 -0.816653 -3.16225 0
M  V30 828 H 81.1556 -2.79665 -2.37029 0
M  V30 829 H 80.8036 -1.8738 -4.66795 0
M  V30 830 H 80.5036 -3.62921 -4.62128 0
M  V30 831 H 82.0276 -3.00598 -5.31482 0
M  V30 832 H 83.4416 -4.47555 -3.58284 0
M  V30 833 H 81.8386 -5.12205 -3.12675 0
M  V30 834 H 82.9086 -4.47362 -1.87071 0
M  V30 835 N 84.2517 0.741722 -1.39055 0
M  V30 836 C 85.6677 1.04638 -1.20512 0
M  V30 837 C 85.8677 2.01405 -0.0620218 0
M  V30 838 O 84.9237 2.45547 0.588457 0
M  V30 839 C 86.2367 1.6151 -2.53643 0
M  V30 840 C 87.7847 1.73623 -2.6043 0
M  V30 841 C 88.2597 2.33906 -3.93767 0
M  V30 842 N 89.7507 2.41323 -3.9537 0
M  V30 843 C 90.4857 2.88888 -4.95309 0
M  V30 844 N 89.9817 3.36401 -6.05645 0
M  V30 845 N 91.7747 2.88037 -4.82692 0
M  V30 846 H 83.9257 0.0998155 -2.12165 0
M  V30 847 H 86.1887 0.106907 -0.941953 0
M  V30 848 H 85.8947 0.978739 -3.37807 0
M  V30 849 H 85.7687 2.60411 -2.72885 0
M  V30 850 H 88.1557 2.36384 -1.76655 0
M  V30 851 H 88.2367 0.733945 -2.45045 0
M  V30 852 H 87.8807 1.71776 -4.7797 0
M  V30 853 H 87.8107 3.34799 -4.06469 0
M  V30 854 H 90.3017 2.07734 -3.15682 0
M  V30 855 H 90.6147 3.71186 -6.77821 0
M  V30 856 H 88.9597 3.34427 -6.09248 0
M  V30 857 H 92.1507 2.50237 -3.95599 0
M  V30 858 H 92.3237 3.24792 -5.60726 0
M  V30 859 N 85.7298 1.2412 0.971189 0
M  V30 860 C 86.6598 1.05508 2.08304 0
M  V30 861 C 87.6408 -0.0308864 1.70072 0
M  V30 862 O 88.8258 0.135521 1.93727 0
M  V30 863 C 85.9558 0.655365 3.4106 0
M  V30 864 C 84.9098 1.68971 3.93234 0
M  V30 865 C 84.2358 1.14516 5.22293 0
M  V30 866 C 85.5358 3.08487 4.21465 0
M  V30 867 H 87.2298 1.98507 2.24132 0
M  V30 868 H 84.7758 0.955821 1.07704 0
M  V30 869 H 86.7288 0.51217 4.18276 0
M  V30 870 H 85.4528 -0.31032 3.25122 0
M  V30 871 H 84.1118 1.82106 3.18171 0
M  V30 872 H 83.7598 0.170189 5.02712 0
M  V30 873 H 83.4598 1.83635 5.58168 0
M  V30 874 H 84.9838 1.01401 6.02121 0
M  V30 875 H 86.3978 2.98601 4.89398 0
M  V30 876 H 84.7948 3.74926 4.68562 0
M  V30 877 H 85.8648 3.56787 3.28376 0
M  V30 878 N 87.2079 -1.17134 1.05439 0
M  V30 879 C 88.4379 -1.91094 0.785274 0
M  V30 880 C 88.8459 -1.77198 -0.663142 0
M  V30 881 O 88.1889 -1.10835 -1.46497 0
M  V30 882 C 88.2509 -3.42594 1.08949 0
M  V30 883 C 87.9149 -3.80274 2.53458 0
M  V30 884 C 88.9119 -3.82912 3.51673 0
M  V30 885 C 86.5969 -4.11162 2.88532 0
M  V30 886 C 88.5909 -4.15913 4.83006 0
M  V30 887 C 86.2779 -4.43831 4.20068 0
M  V30 888 C 87.2759 -4.46185 5.17115 0
M  V30 889 O 86.9639 -4.78083 6.46291 0
M  V30 890 H 86.6959 -0.613073 0.284811 0
M  V30 891 H 89.2499 -1.49461 1.40893 0
M  V30 892 H 87.4799 -3.84534 0.408741 0
M  V30 893 H 89.1689 -3.97817 0.805991 0
M  V30 894 H 89.9349 -3.5917 3.25917 0
M  V30 895 H 85.8139 -4.085 2.13656 0
M  V30 896 H 89.3579 -4.17665 5.5875 0
M  V30 897 H 85.2549 -4.67037 4.45586 0
M  V30 898 H 86.0229 -4.9593 6.51149 0
M  V30 899 N 88.686 -0.835752 -1.33615 0
M  V30 900 C 89.934 -0.429109 -1.97492 0
M  V30 901 C 90.255 1.01433 -1.66543 0
M  V30 902 O 89.525 1.70611 -0.962744 0
M  V30 903 H 88.105 -0.155686 -0.730596 0
M  V30 904 H 90.767 -1.06802 -1.63031 0
M  V30 905 H 89.863 -0.55861 -3.0706 0
M  V30 906 N 90.1641 1.46063 -0.591896 0
M  V30 907 C 91.3941 2.06418 -0.0867676 0
M  V30 908 C 91.8021 1.43975 1.22751 0
M  V30 909 O 91.1451 0.542531 1.75506 0
M  V30 910 C 91.2071 3.59213 0.143725 0
M  V30 911 C 90.8711 4.439 -1.08635 0
M  V30 912 C 91.8681 4.79864 -2.00067 0
M  V30 913 C 89.5531 4.84896 -1.31077 0
M  V30 914 C 91.5471 5.55661 -3.12282 0
M  V30 915 C 89.2341 5.6045 -2.43596 0
M  V30 916 C 90.2321 5.95747 -3.34027 0
M  V30 917 O 89.9201 6.69772 -4.4459 0
M  V30 918 H 89.6521 0.673443 -0.0587447 0
M  V30 919 H 92.2061 1.88539 -0.814994 0
M  V30 920 H 90.4361 3.75433 0.926668 0
M  V30 921 H 92.1251 4.01463 0.5985 0
M  V30 922 H 92.8911 4.48763 -1.83947 0
M  V30 923 H 88.7701 4.56867 -0.61594 0
M  V30 924 H 92.3141 5.8313 -3.82891 0
M  V30 925 H 88.2111 5.90965 -2.59674 0
M  V30 926 H 88.9791 6.88207 -4.43073 0
M  V30 927 N 91.6422 0.330177 1.54103 0
M  V30 928 C 92.5722 -0.525353 2.27513 0
M  V30 929 C 93.5532 -1.11383 1.2856 0
M  V30 930 O 94.7382 -1.13773 1.57383 0
M  V30 931 C 91.8682 -1.6831 3.03791 0
M  V30 932 C 90.8222 -1.2236 4.10137 0
M  V30 933 C 90.1482 -2.46882 4.74293 0
M  V30 934 C 91.4482 -0.333697 5.21233 0
M  V30 935 H 93.1422 0.087013 2.99274 0
M  V30 936 H 90.6882 0.0432893 1.43935 0
M  V30 937 H 92.6412 -2.28795 3.5388 0
M  V30 938 H 91.3652 -2.32216 2.29659 0
M  V30 939 H 90.0242 -0.64165 3.60941 0
M  V30 940 H 89.6722 -3.09165 3.96769 0
M  V30 941 H 89.3722 -2.16825 5.46133 0
M  V30 942 H 90.8962 -3.08117 5.27159 0
M  V30 943 H 92.3102 -0.845013 5.67038 0
M  V30 944 H 90.7072 -0.125612 5.99969 0
M  V30 945 H 91.7772 0.633724 4.80741 0
M  V30 946 N 93.1203 -1.57491 0.0584922 0
M  V30 947 C 94.5313 -1.80526 -0.476138 0
M  V30 948 C 94.8823 -0.971334 -1.70469 0
M  V30 949 O 94.0073 -0.190012 -2.15564 0
M  V30 950 C 94.6023 -3.27424 -0.870587 0
M  V30 951 C 93.1613 -3.51351 -1.35015 0
M  V30 952 C 92.3083 -2.75343 -0.32887 0
M  V30 953 H 95.2593 -1.56133 0.284312 0
M  V30 954 H 95.2803 -3.38745 -1.73299 0
M  V30 955 H 94.7923 -3.88093 0.0237627 0
M  V30 956 H 92.8933 -2.95971 -2.26345 0
M  V30 957 H 93.0063 -4.60059 -1.33726 0
M  V30 958 H 91.3703 -2.417 -0.803321 0
M  V30 959 H 92.1533 -3.38743 0.557521 0
M  V30 960 N 94.5984 0.214957 -1.56127 0
M  V30 961 C 95.5304 1.29004 -1.89448 0
M  V30 962 C 96.5434 1.42716 -0.783326 0
M  V30 963 O 97.7324 1.43496 -1.06166 0
M  V30 964 C 94.8324 2.66482 -2.09381 0
M  V30 965 C 94.0054 2.74633 -3.40434 0
M  V30 966 C 93.0644 3.9317 -3.49719 0
M  V30 967 O 92.0904 3.812 -4.227 0
M  V30 968 N 93.2924 5.07765 -2.81346 0
M  V30 969 H 96.0574 1.00743 -2.82261 0
M  V30 970 H 93.6184 0.40497 -1.56753 0
M  V30 971 H 95.6104 3.44173 -2.12901 0
M  V30 972 H 94.1804 2.87314 -1.23163 0
M  V30 973 H 93.4004 1.83368 -3.48955 0
M  V30 974 H 94.6884 2.77054 -4.26754 0
M  V30 975 H 94.0864 5.20386 -2.21843 0
M  V30 976 H 92.6434 5.83474 -2.90519 0
M  V30 977 N 96.0765 1.50051 0.48192 0
M  V30 978 C 97.4875 1.5348 1.06305 0
M  V30 979 C 97.8385 0.331997 1.93371 0
M  V30 980 O 96.9635 -0.556256 2.09129 0
M  V30 981 C 97.5585 2.7813 1.93466 0
M  V30 982 C 96.1175 2.84275 2.46707 0
M  V30 983 C 95.2645 2.47637 1.24785 0
M  V30 984 H 98.2155 1.56472 0.264995 0
M  V30 985 H 98.2365 2.59372 2.78399 0
M  V30 986 H 97.7485 3.65654 1.30072 0
M  V30 987 H 95.8495 2.01077 3.13686 0
M  V30 988 H 95.9625 3.8691 2.82555 0
M  V30 989 H 94.3265 1.99835 1.57918 0
M  V30 990 H 95.1095 3.37457 0.630694 0
M  V30 991 N 97.5546 -0.734337 1.39446 0
M  V30 992 C 98.7796 -1.52866 1.40167 0
M  V30 993 C 99.2046 -1.881 -0.00171513 0
M  V30 994 O 98.5626 -1.51957 -0.988879 0
M  V30 995 C 98.6106 -2.79235 2.28167 0
M  V30 996 O 97.7146 -3.75185 1.71201 0
M  V30 997 H 97.0556 -0.461618 0.477289 0
M  V30 998 H 99.5856 -0.905949 1.8345 0
M  V30 999 H 99.5956 -3.27963 2.42702 0
M  V30 1000 H 98.2706 -2.52923 3.30156 0
M  V30 1001 H 96.8476 -3.33958 1.65912 0
M  V30 1002 N 99.0327 -1.24633 -0.964593 0
M  V30 1003 C 100.449 -1.01239 -1.2338 0
M  V30 1004 C 100.649 0.2769 -1.99588 0
M  V30 1005 O 99.7047 0.992241 -2.32187 0
M  V30 1006 C 101.018 -2.22937 -2.01791 0
M  V30 1007 C 102.566 -2.27594 -2.14872 0
M  V30 1008 C 103.041 -3.48921 -2.96678 0
M  V30 1009 N 104.532 -3.49257 -3.04259 0
M  V30 1010 C 105.267 -4.39795 -3.67924 0
M  V30 1011 N 104.763 -5.40591 -4.33281 0
M  V30 1012 N 106.556 -4.275 -3.64966 0
M  V30 1013 H 98.7067 -2.0748 -0.454502 0
M  V30 1014 H 100.97 -0.910647 -0.26349 0
M  V30 1015 H 100.676 -3.16587 -1.53184 0
M  V30 1016 H 100.55 -2.25306 -3.02518 0
M  V30 1017 H 102.937 -1.34473 -2.6268 0
M  V30 1018 H 103.018 -2.2925 -1.13482 0
M  V30 1019 H 102.662 -4.42359 -2.49562 0
M  V30 1020 H 102.592 -3.4451 -3.98272 0
M  V30 1021 H 105.083 -2.76337 -2.57771 0
M  V30 1022 H 105.396 -6.05904 -4.79687 0
M  V30 1023 H 103.741 -5.44475 -4.3194 0
M  V30 1024 H 106.932 -3.47987 -3.13086 0
M  V30 1025 H 107.105 -4.98258 -4.14298 0
M  V30 1026 N 100.511 1.16574 -1.06058 0
M  V30 1027 C 101.461 2.18854 -0.63929 0
M  V30 1028 C 102.445 1.57505 0.328798 0
M  V30 1029 O 103.637 1.76408 0.144623 0
M  V30 1030 C 100.766 3.43291 -0.0247203 0
M  V30 1031 C 99.8518 4.11722 -1.01716 0
M  V30 1032 N 100.243 4.55841 -2.19186 0
M  V30 1033 C 98.5408 4.37872 -0.847569 0
M  V30 1034 C 99.2418 5.08751 -2.82042 0
M  V30 1035 N 98.2178 5.01489 -2.09784 0
M  V30 1036 H 102.02 2.5068 -1.53417 0
M  V30 1037 H 99.5338 1.32999 -0.931935 0
M  V30 1038 H 101.531 4.15856 0.294915 0
M  V30 1039 H 100.191 3.12954 0.865448 0
M  V30 1040 H 101.202 4.49649 -2.56975 0
M  V30 1041 H 97.8788 4.17499 -0.00918848 0
M  V30 1042 H 99.2688 5.52944 -3.81709 0
M  V30 1043 N 101.989 0.842826 1.3317 0
M  V30 1044 C 102.922 0.223862 2.27099 0
M  V30 1045 C 103.9 -0.631311 1.49844 0
M  V30 1046 O 105.084 -0.590708 1.79005 0
M  V30 1047 C 102.211 -0.685313 3.31694 0
M  V30 1048 C 101.257 0.094919 4.26394 0
M  V30 1049 S 102.09 1.45546 5.15341 0
M  V30 1050 C 103.246 0.551685 6.23464 0
M  V30 1051 H 103.479 1.02015 2.79249 0
M  V30 1052 H 101.012 0.639797 1.4052 0
M  V30 1053 H 102.97 -1.20426 3.92438 0
M  V30 1054 H 101.631 -1.4553 2.78352 0
M  V30 1055 H 100.824 -0.597059 5.00451 0
M  V30 1056 H 100.426 0.545054 3.70007 0
M  V30 1057 H 102.718 -0.248877 6.77043 0
M  V30 1058 H 103.661 1.26253 6.96754 0
M  V30 1059 H 104.069 0.131275 5.64347 0
M  V30 1060 N 103.467 -1.45747 0.599634 0
M  V30 1061 C 104.692 -2.07178 0.0960198 0
M  V30 1062 C 105.117 -1.44268 -1.207 0
M  V30 1063 O 104.475 -0.532503 -1.73303 0
M  V30 1064 C 104.523 -3.60579 -0.0385348 0
M  V30 1065 O 103.627 -3.97713 -1.0908 0
M  V30 1066 H 102.968 -0.660251 0.0704593 0
M  V30 1067 H 105.498 -1.87124 0.827385 0
M  V30 1068 H 105.508 -4.07298 -0.239304 0
M  V30 1069 H 104.183 -4.05756 0.912947 0
M  V30 1070 H 102.76 -3.62678 -0.867135 0
M  V30 1071 N 104.945 -0.338344 -1.53925 0
M  V30 1072 C 106.173 0.261298 -2.05243 0
M  V30 1073 C 106.588 1.44625 -1.21363 0
M  V30 1074 O 105.945 1.80811 -0.247736 0
M  V30 1075 C 105.996 0.681412 -3.5502 0
M  V30 1076 O 105.717 -0.456414 -4.35716 0
M  V30 1077 C 107.218 1.34232 -4.22489 0
M  V30 1078 H 104.438 0.0513685 -0.669031 0
M  V30 1079 H 106.982 -0.488822 -1.98572 0
M  V30 1080 H 105.137 1.38148 -3.61931 0
M  V30 1081 H 105.551 -0.122564 -5.24357 0
M  V30 1082 H 107.025 1.58708 -5.28693 0
M  V30 1083 H 107.502 2.29426 -3.74514 0
M  V30 1084 H 108.108 0.684424 -4.19757 0
M  V30 1085 N 106.423 1.57458 -0.0668435 0
M  V30 1086 C 107.356 2.08033 0.93795 0
M  V30 1087 C 108.334 0.984321 1.29421 0
M  V30 1088 O 109.518 1.25736 1.40437 0
M  V30 1089 C 106.645 2.53388 2.24749 0
M  V30 1090 C 105.691 3.74376 2.04315 0
M  V30 1091 S 106.524 5.19303 1.30706 0
M  V30 1092 C 107.68 5.67986 2.62951 0
M  V30 1093 H 107.913 2.92935 0.50759 0
M  V30 1094 H 105.446 1.5371 0.145804 0
M  V30 1095 H 107.404 2.8018 3.00016 0
M  V30 1096 H 106.065 1.68763 2.64911 0
M  V30 1097 H 105.258 4.04083 3.01218 0
M  V30 1098 H 104.86 3.47931 1.37186 0
M  V30 1099 H 107.152 5.74528 3.5906 0
M  V30 1100 H 108.095 6.66955 2.3786 0
M  V30 1101 H 108.503 4.95781 2.69929 0
M  V30 1102 N 107.901 -0.206675 1.56239 0
M  V30 1103 C 109.317 -0.557025 1.49564 0
M  V30 1104 C 109.517 -1.86424 0.764735 0
M  V30 1105 O 108.573 -2.50584 0.310491 0
M  V30 1106 C 109.886 -0.622478 2.94186 0
M  V30 1107 C 111.434 -0.712099 3.04792 0
M  V30 1108 C 111.909 -0.808767 4.50803 0
M  V30 1109 N 113.4 -0.8726 4.54907 0
M  V30 1110 C 114.135 -0.967365 5.65181 0
M  V30 1111 N 113.631 -1.02515 6.85173 0
M  V30 1112 N 115.424 -1.00366 5.53067 0
M  V30 1113 H 107.575 0.650943 2.02179 0
M  V30 1114 H 109.838 0.230387 0.919579 0
M  V30 1115 H 109.544 0.268727 3.50672 0
M  V30 1116 H 109.418 -1.4811 3.46905 0
M  V30 1117 H 111.805 -1.59374 2.48363 0
M  V30 1118 H 111.886 0.172489 2.55218 0
M  V30 1119 H 111.53 0.0684754 5.07854 0
M  V30 1120 H 111.46 -1.70899 4.98098 0
M  V30 1121 H 113.951 -0.837657 3.68499 0
M  V30 1122 H 114.264 -1.09765 7.64965 0
M  V30 1123 H 112.609 -0.994026 6.87855 0
M  V30 1124 H 115.8 -0.95527 4.58249 0
M  V30 1125 H 115.973 -1.07405 6.39037 0
M  V30 1126 N 109.379 -1.50304 -0.473955 0
M  V30 1127 C 110.604 -1.65175 -1.25427 0
M  V30 1128 C 111.029 -0.333673 -1.85117 0
M  V30 1129 O 110.387 0.702114 -1.67153 0
M  V30 1130 C 110.435 -2.74295 -2.34082 0
M  V30 1131 O 109.539 -2.35349 -3.38651 0
M  V30 1132 H 108.88 -0.551944 -0.369126 0
M  V30 1133 H 111.41 -1.96662 -0.564364 0
M  V30 1134 H 111.42 -2.97285 -2.79438 0
M  V30 1135 H 110.095 -3.69959 -1.90008 0
M  V30 1136 H 108.672 -2.22794 -2.99027 0
M  V30 1137 N 110.857 0.726932 -1.39834 0
M  V30 1138 C 111.82 1.82269 -1.38962 0
M  V30 1139 C 112.82 1.58248 -0.285334 0
M  V30 1140 O 114.01 1.65499 -0.54366 0
M  V30 1141 C 111.142 3.20186 -1.17019 0
M  V30 1142 H 112.335 1.84443 -2.36476 0
M  V30 1143 H 109.888 0.931416 -1.25516 0
M  V30 1144 H 110.623 3.23669 -0.202204 0
M  V30 1145 H 110.408 3.3902 -1.96998 0
M  V30 1146 H 111.898 4.00235 -1.1917 0
M  V30 1147 N 112.336 1.25143 0.95797 0
M  V30 1148 C 113.268 1.01023 2.05735 0
M  V30 1149 C 114.281 -0.0236902 1.62783 0
M  V30 1150 O 115.47 0.21448 1.77207 0
M  V30 1151 C 112.57 0.504595 3.35122 0
M  V30 1152 C 111.743 1.6039 4.06932 0
M  V30 1153 C 110.802 1.09922 5.14591 0
M  V30 1154 O 109.828 1.79293 5.40225 0
M  V30 1155 N 111.03 -0.0612545 5.80468 0
M  V30 1156 H 113.795 1.95683 2.26998 0
M  V30 1157 H 111.356 1.16303 1.12629 0
M  V30 1158 H 113.348 0.151516 4.04416 0
M  V30 1159 H 111.918 -0.347989 3.10657 0
M  V30 1160 H 111.138 2.12872 3.31782 0
M  V30 1161 H 112.426 2.34252 4.51667 0
M  V30 1162 H 111.824 -0.640985 5.62057 0
M  V30 1163 H 110.381 -0.355395 6.5083 0
M  V30 1164 N 113.814 -1.1601 1.06675 0
M  V30 1165 C 115.063 -1.85973 0.780818 0
M  V30 1166 C 115.376 -1.82819 -0.695444 0
M  V30 1167 O 116.582 -2.484 -1.09589 0
M  V30 1168 C 115.038 -3.33757 1.34665 0
M  V30 1169 C 114.646 -3.45374 2.85343 0
M  V30 1170 C 116.39 -4.0895 1.13843 0
M  V30 1171 C 114.297 -4.87266 3.35151 0
M  V30 1172 H 113.227 -0.696661 0.288407 0
M  V30 1173 H 115.878 -1.30903 1.28595 0
M  V30 1174 H 114.26 -3.88456 0.769274 0
M  V30 1175 H 115.434 -3.00816 3.49065 0
M  V30 1176 H 113.749 -2.83619 3.04876 0
M  V30 1177 H 116.346 -5.13654 1.4854 0
M  V30 1178 H 116.689 -4.16229 0.0770282 0
M  V30 1179 H 117.222 -3.605 1.68179 0
M  V30 1180 H 113.961 -4.85168 4.40786 0
M  V30 1181 H 113.481 -5.32433 2.76179 0
M  V30 1182 H 115.16 -5.56097 3.30704 0
M  V30 1183 N 115.292 -0.849877 -1.32721 0
M  V30 1184 C 116.222 -0.306308 -2.31482 0
M  V30 1185 C 117.203 0.591952 -1.59468 0
M  V30 1186 O 118.388 0.513199 -1.87296 0
M  V30 1187 C 115.518 0.510204 -3.43532 0
M  V30 1188 C 114.472 -0.293209 -4.26994 0
M  V30 1189 C 113.798 0.647743 -5.30762 0
M  V30 1190 C 115.098 -1.51634 -4.99804 0
M  V30 1191 H 116.792 -1.13153 -2.77195 0
M  V30 1192 H 114.338 -0.545553 -1.33266 0
M  V30 1193 H 116.291 0.900856 -4.11658 0
M  V30 1194 H 115.015 1.36874 -2.96535 0
M  V30 1195 H 113.674 -0.665555 -3.60508 0
M  V30 1196 H 113.322 1.50299 -4.8002 0
M  V30 1197 H 113.022 0.11422 -5.87489 0
M  V30 1198 H 114.546 1.03567 -6.01753 0
M  V30 1199 H 115.96 -1.19824 -5.60638 0
M  V30 1200 H 114.357 -1.98745 -5.66234 0
M  V30 1201 H 115.427 -2.28018 -4.27943 0
M  V30 1202 N 116.77 1.45427 -0.607355 0
M  V30 1203 C 117.733 2.28974 0.101693 0
M  V30 1204 C 118.733 1.39754 0.795329 0
M  V30 1205 O 119.923 1.61878 0.643527 0
M  V30 1206 C 117.055 3.20768 1.15414 0
M  V30 1207 H 118.248 2.93147 -0.632844 0
M  V30 1208 H 115.801 1.51945 -0.366391 0
M  V30 1209 H 116.536 2.61395 1.91945 0
M  V30 1210 H 116.321 3.86489 0.66098 0
M  V30 1211 H 117.811 3.83589 1.65073 0
M  V30 1212 N 118.248 0.346503 1.53744 0
M  V30 1213 C 119.473 -0.253074 2.0585 0
M  V30 1214 C 119.898 -1.43202 1.21962 0
M  V30 1215 O 119.256 -1.79783 0.234073 0
M  V30 1216 C 119.304 -0.643193 3.54817 0
M  V30 1217 O 118.408 -1.74286 3.73762 0
M  V30 1218 H 117.749 -0.0413583 0.662711 0
M  V30 1219 H 120.279 0.501574 1.98357 0
M  V30 1220 H 120.289 -0.919526 3.97503 0
M  V30 1221 H 118.964 0.218966 4.15323 0
M  V30 1222 H 117.541 -1.46356 3.42979 0
M  V30 1223 N 119.726 -1.57421 0.075193 0
M  V30 1224 C 120.689 -2.11791 -0.876203 0
M  V30 1225 C 121.689 -1.04268 -1.22412 0
M  V30 1226 O 122.879 -1.30242 -1.15684 0
M  V30 1227 C 120.011 -2.62207 -2.17854 0
M  V30 1228 H 121.204 -2.9716 -0.40444 0
M  V30 1229 H 118.757 -1.55333 -0.173557 0
M  V30 1230 H 119.492 -1.803 -2.6956 0
M  V30 1231 H 119.277 -3.40802 -1.93897 0
M  V30 1232 H 120.767 -3.04335 -2.85955 0
M  V30 1233 N 121.204 0.198386 -1.56346 0
M  V30 1234 C 122.134 1.24865 -1.9731 0
M  V30 1235 C 123.115 1.47651 -0.844576 0
M  V30 1236 O 124.3 1.59444 -1.10866 0
M  V30 1237 C 121.43 2.59358 -2.30977 0
M  V30 1238 C 120.384 2.5119 -3.46537 0
M  V30 1239 C 119.71 3.89926 -3.65871 0
M  V30 1240 C 121.01 2.03977 -4.80823 0
M  V30 1241 H 122.704 0.908252 -2.85291 0
M  V30 1242 H 120.25 0.435462 -1.37258 0
M  V30 1243 H 122.203 3.33011 -2.58228 0
M  V30 1244 H 120.927 2.95132 -1.39874 0
M  V30 1245 H 119.586 1.79993 -3.19371 0
M  V30 1246 H 119.234 4.23046 -2.72105 0
M  V30 1247 H 118.934 3.85336 -4.4361 0
M  V30 1248 H 120.458 4.65205 -3.95495 0
M  V30 1249 H 121.872 2.67386 -5.07127 0
M  V30 1250 H 120.269 2.10397 -5.62008 0
M  V30 1251 H 121.339 0.992861 -4.74626 0
M  V30 1252 N 122.682 1.50554 0.465978 0
M  V30 1253 C 123.645 1.69233 1.54574 0
M  V30 1254 C 124.645 0.562901 1.50626 0
M  V30 1255 O 125.835 0.830016 1.53155 0
M  V30 1256 C 122.967 1.7223 2.94193 0
M  V30 1257 H 124.16 2.65571 1.39327 0
M  V30 1258 H 121.713 1.40111 0.692711 0
M  V30 1259 H 122.448 0.77603 3.14878 0
M  V30 1260 H 122.233 2.54285 2.98466 0
M  V30 1261 H 123.723 1.88618 3.72576 0
M  V30 1262 N 124.16 -0.719506 1.40217 0
M  V30 1263 C 125.07 -1.86378 1.42479 0
M  V30 1264 C 126.086 -1.71073 0.317834 0
M  V30 1265 O 127.262 -1.93406 0.561794 0
M  V30 1266 C 124.327 -3.22136 1.28178 0
M  V30 1267 C 123.388 -3.49723 2.48982 0
M  V30 1268 C 122.621 -4.79004 2.35353 0
M  V30 1269 O 122.844 -5.53821 1.36524 0
M  V30 1270 O 121.778 -5.06839 3.2465 0
M  V30 1271 H 125.604 -1.87425 2.38968 0
M  V30 1272 H 123.189 -0.869405 1.21498 0
M  V30 1273 H 125.071 -4.03234 1.22395 0
M  V30 1274 H 123.746 -3.21825 0.347934 0
M  V30 1275 H 122.653 -2.6865 2.60342 0
M  V30 1276 H 123.986 -3.54828 3.41113 0
M  V30 1277 N 125.638 -1.25649 -0.95132 0
M  V30 1278 C 126.571 -1.00644 -2.04807 0
M  V30 1279 C 127.549 0.0654271 -1.62468 0
M  V30 1280 O 128.733 -0.074911 -1.88351 0
M  V30 1281 C 125.86 -0.522052 -3.34653 0
M  V30 1282 C 124.906 -1.58495 -3.95957 0
M  V30 1283 S 125.739 -3.17108 -4.31512 0
M  V30 1284 C 126.895 -2.70412 -5.64471 0
M  V30 1285 H 127.128 -1.93508 -2.25703 0
M  V30 1286 H 124.661 -1.09216 -1.09139 0
M  V30 1287 H 126.619 -0.24923 -4.09743 0
M  V30 1288 H 125.28 0.386146 -3.11717 0
M  V30 1289 H 124.473 -1.1968 -4.89584 0
M  V30 1290 H 124.075 -1.80862 -3.2736 0
M  V30 1291 H 126.367 -2.14245 -6.42733 0
M  V30 1292 H 127.31 -3.62693 -6.08161 0
M  V30 1293 H 127.718 -2.10302 -5.23864 0
M  V30 1294 N 127.117 1.15442 -1.07289 0
M  V30 1295 C 128.049 2.19773 -0.650585 0
M  V30 1296 C 129.062 1.60076 0.296572 0
M  V30 1297 O 130.251 1.78293 0.0859905 0
M  V30 1298 C 127.351 3.38838 0.0650398 0
M  V30 1299 C 126.524 4.2808 -0.898141 0
M  V30 1300 C 125.583 5.2574 -0.219926 0
M  V30 1301 O 124.609 5.62654 -0.860773 0
M  V30 1302 N 125.811 5.71205 1.03466 0
M  V30 1303 H 128.576 2.56622 -1.54808 0
M  V30 1304 H 126.137 1.30551 -0.957494 0
M  V30 1305 H 128.129 4.01222 0.529415 0
M  V30 1306 H 126.699 3.00409 0.864466 0
M  V30 1307 H 125.919 3.62804 -1.54165 0
M  V30 1308 H 127.207 4.84577 -1.5512 0
M  V30 1309 H 126.605 5.43325 1.57526 0
M  V30 1310 H 125.162 6.35633 1.44272 0
M  V30 1311 N 128.595 0.856903 1.32268 0
M  V30 1312 C 130.011 0.547061 1.49931 0
M  V30 1313 C 130.211 -0.921781 1.7918 0
M  V30 1314 O 129.267 -1.70469 1.8627 0
M  V30 1315 C 130.58 1.43599 2.64196 0
M  V30 1316 C 132.128 1.43665 2.78081 0
M  V30 1317 C 132.603 2.31085 3.95428 0
M  V30 1318 N 134.094 2.28893 4.02694 0
M  V30 1319 C 134.829 2.93262 4.92732 0
M  V30 1320 N 134.325 3.66751 5.87763 0
M  V30 1321 N 136.118 2.82638 4.85873 0
M  V30 1322 H 128.269 1.8075 1.11549 0
M  V30 1323 H 130.532 0.772144 0.549997 0
M  V30 1324 H 130.238 2.48058 2.49319 0
M  V30 1325 H 130.112 1.12502 3.60032 0
M  V30 1326 H 132.499 0.399701 2.92381 0
M  V30 1327 H 132.58 1.7878 1.82952 0
M  V30 1328 H 132.224 3.34849 3.81888 0
M  V30 1329 H 132.154 1.93302 4.89839 0
M  V30 1330 H 134.645 1.75466 3.34694 0
M  V30 1331 H 134.958 4.13027 6.53168 0
M  V30 1332 H 133.303 3.70859 5.87783 0
M  V30 1333 H 136.494 2.24774 4.10602 0
M  V30 1334 H 136.667 3.33084 5.55841 0
M  V30 1335 N 130.073 -1.45103 0.615059 0
M  V30 1336 C 131.32 -2.02183 0.113179 0
M  V30 1337 C 131.648 -1.48249 -1.25906 0
M  V30 1338 O 130.903 -0.650265 -1.84581 0
M  V30 1339 C 131.202 -3.57386 0.0318797 0
M  V30 1340 C 130.868 -4.30505 1.34077 0
M  V30 1341 C 129.53 -4.50197 1.69929 0
M  V30 1342 C 131.882 -4.72238 2.20546 0
M  V30 1343 C 129.21 -5.08881 2.91988 0
M  V30 1344 C 131.562 -5.32272 3.41861 0
M  V30 1345 C 130.226 -5.50187 3.77956 0
M  V30 1346 H 129.496 -0.739842 0.0414151 0
M  V30 1347 H 132.143 -1.74073 0.798168 0
M  V30 1348 H 130.448 -3.84817 -0.736409 0
M  V30 1349 H 132.145 -3.99264 -0.372712 0
M  V30 1350 H 128.735 -4.15496 1.05173 0
M  V30 1351 H 132.919 -4.56751 1.94146 0
M  V30 1352 H 128.175 -5.20939 3.2005 0
M  V30 1353 H 132.349 -5.63563 4.09109 0
M  V30 1354 H 129.976 -5.95427 4.72622 0
M  V30 1355 N 131.551 -0.354651 -1.53558 0
M  V30 1356 C 132.781 0.239167 -2.05211 0
M  V30 1357 C 133.189 1.43879 -1.22863 0
M  V30 1358 O 132.532 1.81857 -0.259565 0
M  V30 1359 C 132.594 0.707251 -3.52474 0
M  V30 1360 C 132.258 -0.374212 -4.55465 0
M  V30 1361 C 133.255 -1.22054 -5.0537 0
M  V30 1362 C 130.94 -0.531323 -4.99482 0
M  V30 1363 C 132.934 -2.20942 -5.97882 0
M  V30 1364 C 130.621 -1.52358 -5.91802 0
M  V30 1365 C 131.619 -2.36108 -6.40892 0
M  V30 1366 O 131.307 -3.33643 -7.31394 0
M  V30 1367 H 131.039 0.0479716 -0.674296 0
M  V30 1368 H 133.593 -0.508121 -1.99016 0
M  V30 1369 H 131.823 1.50596 -3.56171 0
M  V30 1370 H 133.512 1.22285 -3.87042 0
M  V30 1371 H 134.278 -1.1103 -4.7212 0
M  V30 1372 H 130.157 0.110738 -4.60867 0
M  V30 1373 H 133.701 -2.86348 -6.36121 0
M  V30 1374 H 129.598 -1.63434 -6.24467 0
M  V30 1375 H 130.366 -3.29244 -7.4936 0
M  V30 1376 N 133.029 1.57378 -0.0835403 0
M  V30 1377 C 134.277 1.93547 0.581718 0
M  V30 1378 C 134.598 0.96524 1.69435 0
M  V30 1379 O 133.868 0.0153369 1.95894 0
M  V30 1380 H 132.448 0.714521 0.217874 0
M  V30 1381 H 135.11 1.94366 -0.144158 0
M  V30 1382 H 134.206 2.95665 0.999423 0
M  V30 1383 N 134.507 -0.190092 1.56449 0
M  V30 1384 C 135.756 -0.907912 1.80111 0
M  V30 1385 C 136.069 -1.84214 0.657619 0
M  V30 1386 O 137.275 -2.60094 0.778663 0
M  V30 1387 C 135.731 -1.66485 3.19078 0
M  V30 1388 C 135.339 -0.7752 4.41242 0
M  V30 1389 C 137.083 -2.37201 3.52045 0
M  V30 1390 C 134.99 -1.53129 5.71231 0
M  V30 1391 H 133.92 -0.34276 0.671589 0
M  V30 1392 H 136.571 -0.161109 1.82791 0
M  V30 1393 H 134.953 -2.45572 3.10661 0
M  V30 1394 H 136.127 -0.0226298 4.60794 0
M  V30 1395 H 134.442 -0.178627 4.16017 0
M  V30 1396 H 137.039 -2.94329 4.46402 0
M  V30 1397 H 137.382 -3.11632 2.76028 0
M  V30 1398 H 137.915 -1.65075 3.61932 0
M  V30 1399 H 134.654 -0.82967 6.50228 0
M  V30 1400 H 134.174 -2.25767 5.55688 0
M  V30 1401 H 135.853 -2.08377 6.12526 0
M  V30 1402 N 135.985 -1.50799 -0.457987 0
M  V30 1403 C 137.396 -1.55152 -1.0385 0
M  V30 1404 C 137.747 -0.362719 -1.92818 0
M  V30 1405 O 136.872 0.522915 -2.09987 0
M  V30 1406 C 137.467 -2.81173 -1.89017 0
M  V30 1407 C 136.026 -2.88164 -2.42154 0
M  V30 1408 C 135.173 -2.49591 -1.20829 0
M  V30 1409 H 138.124 -1.56874 -0.240068 0
M  V30 1410 H 138.145 -2.63769 -2.74238 0
M  V30 1411 H 137.657 -3.67677 -1.24238 0
M  V30 1412 H 135.758 -2.06042 -3.10447 0
M  V30 1413 H 135.871 -3.91356 -2.76364 0
M  V30 1414 H 134.235 -2.02322 -1.54719 0
M  V30 1415 H 135.018 -3.38418 -0.576927 0
M  V30 1416 N 137.463 0.71206 -1.40597 0
M  V30 1417 C 138.709 1.47416 -1.39271 0
M  V30 1418 C 139.042 1.942 0.00388791 0
M  V30 1419 O 138.317 1.68403 0.973179 0
M  V30 1420 C 138.6 2.69774 -2.38525 0
M  V30 1421 C 138.453 2.28861 -3.87224 0
M  V30 1422 C 139.772 3.71939 -2.35264 0
M  V30 1423 H 136.891 0.534713 -0.5072 0
M  V30 1424 H 139.533 0.812375 -1.71757 0
M  V30 1425 H 137.683 3.26238 -2.10953 0
M  V30 1426 H 139.355 1.77852 -4.25636 0
M  V30 1427 H 137.598 1.60824 -4.02887 0
M  V30 1428 H 138.269 3.16584 -4.52193 0
M  V30 1429 H 140.745 3.25113 -2.59694 0
M  V30 1430 H 139.621 4.55186 -3.06753 0
M  V30 1431 H 139.882 4.20484 -1.36549 0
M  V30 1432 N 138.941 1.26152 0.944643 0
M  V30 1433 C 140.169 1.14259 1.72489 0
M  V30 1434 C 140.584 -0.302555 1.8636 0
M  V30 1435 O 139.941 -1.20741 1.36849 0
M  V30 1436 C 139.992 1.80266 3.13347 0
M  V30 1437 O 139.713 3.19133 3.00143 0
M  V30 1438 C 141.214 1.74283 4.07603 0
M  V30 1439 H 138.434 0.398051 0.540181 0
M  V30 1440 H 140.978 1.66706 1.18446 0
M  V30 1441 H 139.133 1.31766 3.64303 0
M  V30 1442 H 139.547 3.51744 3.89071 0
M  V30 1443 H 141.021 2.25111 5.04013 0
M  V30 1444 H 141.498 0.708631 4.33446 0
M  V30 1445 H 142.104 2.22319 3.62567 0
M  V30 1446 N 140.419 -1.14872 1.07899 0
M  V30 1447 C 141.667 -1.85422 0.803941 0
M  V30 1448 C 141.988 -1.83051 -0.67211 0
M  V30 1449 O 141.258 -1.27532 -1.48703 0
M  V30 1450 H 139.838 -0.686537 0.294408 0
M  V30 1451 H 142.5 -1.39226 1.3639 0
M  V30 1452 H 141.596 -2.90399 1.14346 0
M  V30 1453 N 141.898 -0.863906 -1.31812 0
M  V30 1454 C 143.144 -0.472535 -1.97218 0
M  V30 1455 C 143.477 0.971394 -1.68159 0
M  V30 1456 O 142.752 1.68309 -0.974798 0
M  V30 1457 C 143.035 -0.723054 -3.52766 0
M  V30 1458 C 142.888 -2.21608 -3.91421 0
M  V30 1459 C 144.207 -0.185522 -4.39709 0
M  V30 1460 H 141.326 -0.173158 -0.71637 0
M  V30 1461 H 143.968 -1.08403 -1.56041 0
M  V30 1462 H 142.118 -0.202577 -3.87971 0
M  V30 1463 H 143.79 -2.80334 -3.66347 0
M  V30 1464 H 142.033 -2.691 -3.40246 0
M  V30 1465 H 142.704 -2.34203 -4.99853 0
M  V30 1466 H 145.18 -0.630726 -4.11292 0
M  V30 1467 H 144.056 -0.390306 -5.47511 0
M  V30 1468 H 144.317 0.912229 -4.32586 0
M  V30 1469 N 143.376 1.44774 -0.622745 0
M  V30 1470 C 144.306 2.33382 0.0741861 0
M  V30 1471 C 145.287 1.47719 0.843387 0
M  V30 1472 O 146.472 1.76458 0.810934 0
M  V30 1473 C 143.602 3.30663 1.06204 0
M  V30 1474 C 142.556 4.26079 0.405037 0
M  V30 1475 C 141.882 5.13165 1.5022 0
M  V30 1476 C 143.182 5.1781 -0.683414 0
M  V30 1477 H 144.876 2.91905 -0.665713 0
M  V30 1478 H 142.422 1.40363 -0.321587 0
M  V30 1479 H 144.375 3.9153 1.55827 0
M  V30 1480 H 143.099 2.70331 1.83272 0
M  V30 1481 H 141.758 3.66532 -0.0704683 0
M  V30 1482 H 141.406 4.49191 2.26355 0
M  V30 1483 H 141.106 5.77812 1.06803 0
M  V30 1484 H 142.63 5.76902 2.00041 0
M  V30 1485 H 144.044 5.72661 -0.270631 0
M  V30 1486 H 142.441 5.91015 -1.04023 0
M  V30 1487 H 143.511 4.59326 -1.55395 0
M  V30 1488 N 144.854 0.36279 1.53368 0
M  V30 1489 C 146.131 -0.284021 1.93527 0
M  V30 1490 C 146.511 -1.66628 1.29608 0
M  V30 1491 O 145.859 -2.23942 0.45413 0
M  V30 1492 C 146.069 -0.337028 3.47369 0
M  V30 1493 C 147.417 -0.578708 4.20638 0
M  V30 1494 O 148.441 -0.418352 3.53735 0
M  V30 1495 O 147.3 -0.89074 5.39192 0
M  V30 1496 H 144.394 -0.169743 0.809393 0
M  V30 1497 H 146.94 0.41537 1.64538 0
M  V30 1498 H 145.712 0.632217 3.86159 0
M  V30 1499 H 145.335 -1.08243 3.82582 0
M  V30 1500 N 146.332 -1.57332 0.0918853 0
M  V30 1501 C 147.242 -2.17368 -0.882505 0
M  V30 1502 C 148.258 -1.14226 -1.31257 0
M  V30 1503 O 149.434 -1.46582 -1.38115 0
M  V30 1504 C 146.499 -2.73962 -2.12476 0
M  V30 1505 C 145.56 -3.92048 -1.7492 0
M  V30 1506 C 144.793 -4.45933 -2.93223 0
M  V30 1507 O 145.016 -3.98764 -4.07852 0
M  V30 1508 O 143.95 -5.36999 -2.71875 0
M  V30 1509 H 147.776 -3.01031 -0.40172 0
M  V30 1510 H 145.361 -1.48813 -0.132291 0
M  V30 1511 H 147.243 -3.10147 -2.85283 0
M  V30 1512 H 145.918 -1.93347 -2.59613 0
M  V30 1513 H 144.825 -3.6068 -0.993025 0
M  V30 1514 H 146.158 -4.74017 -1.32548 0
M  V30 1515 N 147.81 0.181792 -1.56548 0
M  V30 1516 C 148.72 1.24538 -1.98815 0
M  V30 1517 C 149.736 1.49045 -0.897861 0
M  V30 1518 O 150.912 1.61399 -1.20467 0
M  V30 1519 C 147.977 2.56683 -2.33055 0
M  V30 1520 C 147.038 2.40131 -3.55859 0
M  V30 1521 C 146.271 3.65975 -3.88456 0
M  V30 1522 O 146.494 4.70711 -3.22161 0
M  V30 1523 O 145.428 3.6071 -4.81842 0
M  V30 1524 H 149.254 0.916647 -2.89536 0
M  V30 1525 H 146.839 0.387842 -1.44278 0
M  V30 1526 H 148.721 3.34655 -2.56094 0
M  V30 1527 H 147.396 2.89157 -1.45498 0
M  V30 1528 H 146.303 1.60226 -3.38051 0
M  V30 1529 H 147.636 2.12585 -4.43924 0
M  V30 1530 N 149.288 1.51039 0.449983 0
M  V30 1531 C 150.516 1.66869 1.2232 0
M  V30 1532 C 150.931 0.360727 1.85322 0
M  V30 1533 O 150.288 -0.659531 1.70166 0
M  V30 1534 C 150.339 2.77524 2.31652 0
M  V30 1535 O 150.06 4.03252 1.7123 0
M  V30 1536 C 151.561 3.04512 3.2216 0
M  V30 1537 H 148.781 0.560326 0.369155 0
M  V30 1538 H 151.325 1.97385 0.534719 0
M  V30 1539 H 149.48 2.49642 2.96239 0
M  V30 1540 H 149.894 4.64609 2.43389 0
M  V30 1541 H 151.368 3.85551 3.95038 0
M  V30 1542 H 151.845 2.16415 3.8218 0
M  V30 1543 H 152.451 3.34005 2.63288 0
M  V30 1544 N 150.766 -0.704594 1.40972 0
M  V30 1545 C 151.713 -1.81862 1.42109 0
M  V30 1546 C 152.683 -1.63781 0.276593 0
M  V30 1547 O 153.868 -1.84759 0.4763 0
M  V30 1548 C 151.008 -3.19669 1.30022 0
M  V30 1549 C 150.121 -3.49246 2.54267 0
M  V30 1550 C 149.256 -4.76618 2.3454 0
M  V30 1551 C 148.295 -4.99133 3.54306 0
M  V30 1552 N 147.432 -6.17726 3.33706 0
M  V30 1553 H 152.272 -1.80226 2.37324 0
M  V30 1554 H 149.809 -0.880238 1.17857 0
M  V30 1555 H 151.767 -3.99263 1.21018 0
M  V30 1556 H 150.397 -3.20506 0.384192 0
M  V30 1557 H 149.449 -2.64125 2.73756 0
M  V30 1558 H 150.761 -3.61788 3.43381 0
M  V30 1559 H 149.915 -5.64249 2.22952 0
M  V30 1560 H 148.654 -4.66305 1.42867 0
M  V30 1561 H 147.659 -4.09953 3.66359 0
M  V30 1562 H 148.884 -5.11311 4.4692 0
M  V30 1563 H 146.83 -6.08642 2.44725 0
M  V30 1564 H 146.747 -6.30995 4.16391 0
M  V30 1565 H 148.015 -7.08115 3.25873 0
M  V30 1566 N 152.244 -1.26651 -0.937939 0
M  V30 1567 C 153.154 -1.10276 -2.07066 0
M  V30 1568 C 154.17 -0.0354197 -1.73964 0
M  V30 1569 O 155.346 -0.239816 -1.99967 0
M  V30 1570 C 152.411 -0.740887 -3.38691 0
M  V30 1571 C 151.472 -1.88799 -3.85556 0
M  V30 1572 C 150.705 -1.54329 -5.10899 0
M  V30 1573 O 150.928 -0.446494 -5.6865 0
M  V30 1574 O 149.862 -2.37911 -5.52885 0
M  V30 1575 H 153.688 -2.05309 -2.23789 0
M  V30 1576 H 151.273 -1.05743 -1.0554 0
M  V30 1577 H 153.155 -0.55195 -4.1777 0
M  V30 1578 H 151.83 0.180022 -3.23199 0
M  V30 1579 H 150.737 -2.13191 -3.07409 0
M  V30 1580 H 152.07 -2.78874 -4.05574 0
M  V30 1581 N 153.722 1.14298 -1.08507 0
M  V30 1582 C 154.968 1.85854 -0.826438 0
M  V30 1583 C 155.323 1.81413 0.640878 0
M  V30 1584 O 154.616 1.23463 1.46518 0
M  V30 1585 C 154.81 3.33547 -1.28379 0
M  V30 1586 C 154.639 3.52369 -2.79403 0
M  V30 1587 C 153.409 3.67159 -3.47164 0
M  V30 1588 C 155.607 3.49203 -3.77573 0
M  V30 1589 N 153.589 3.74149 -4.86709 0
M  V30 1590 C 154.96 3.6245 -5.03021 0
M  V30 1591 C 157.015 3.32547 -3.70563 0
M  V30 1592 C 155.718 3.60761 -6.2229 0
M  V30 1593 C 157.744 3.32162 -4.89308 0
M  V30 1594 C 157.106 3.45949 -6.13595 0
M  V30 1595 H 153.205 0.696705 -0.355143 0
M  V30 1596 H 155.789 1.36981 -1.38362 0
M  V30 1597 H 153.96 3.81008 -0.754166 0
M  V30 1598 H 155.692 3.92867 -0.971469 0
M  V30 1599 H 152.447 3.68433 -2.9758 0
M  V30 1600 H 152.871 3.81359 -5.5937 0
M  V30 1601 H 157.513 3.20797 -2.75407 0
M  V30 1602 H 155.231 3.71286 -7.17755 0
M  V30 1603 H 158.817 3.20485 -4.85573 0
M  V30 1604 H 157.697 3.456 -7.03939 0
M  V30 1605 N 155.201 0.870884 1.31352 0
M  V30 1606 C 156.134 0.271983 2.26573 0
M  V30 1607 C 157.112 -0.599385 1.51149 0
M  V30 1608 O 158.296 -0.552605 1.80218 0
M  V30 1609 C 155.423 -0.614801 3.33073 0
M  V30 1610 C 154.469 0.185342 4.26097 0
M  V30 1611 S 155.302 1.56444 5.12138 0
M  V30 1612 C 156.458 0.683807 6.22153 0
M  V30 1613 H 156.691 1.07916 2.77023 0
M  V30 1614 H 154.224 0.669459 1.39132 0
M  V30 1615 H 156.182 -1.12074 3.94905 0
M  V30 1616 H 154.843 -1.39593 2.81376 0
M  V30 1617 H 154.036 -0.490771 5.01605 0
M  V30 1618 H 153.638 0.623415 3.68768 0
M  V30 1619 H 155.93 -0.10521 6.77418 0
M  V30 1620 H 156.873 1.41004 6.93919 0
M  V30 1621 H 157.281 0.250952 5.63942 0
M  V30 1622 N 156.679 -1.44442 0.630414 0
M  V30 1623 C 157.626 -2.30678 -0.0749355 0
M  V30 1624 C 158.596 -1.4344 -0.837502 0
M  V30 1625 O 159.781 -1.72343 -0.818684 0
M  V30 1626 C 156.921 -3.28706 -1.05103 0
M  V30 1627 C 156.034 -4.31046 -0.286954 0
M  V30 1628 C 155.169 -5.16167 -1.2548 0
M  V30 1629 C 154.208 -6.10216 -0.479843 0
M  V30 1630 N 153.345 -6.88039 -1.39811 0
M  V30 1631 H 158.185 -2.90454 0.666386 0
M  V30 1632 H 155.722 -1.43107 0.340404 0
M  V30 1633 H 157.68 -3.84027 -1.63031 0
M  V30 1634 H 156.31 -2.70632 -1.75949 0
M  V30 1635 H 155.362 -3.78203 0.408243 0
M  V30 1636 H 156.674 -4.97794 0.316657 0
M  V30 1637 H 155.828 -5.76002 -1.90544 0
M  V30 1638 H 154.567 -4.49491 -1.89233 0
M  V30 1639 H 153.572 -5.49491 0.184295 0
M  V30 1640 H 154.797 -6.78928 0.152965 0
M  V30 1641 H 152.743 -6.24032 -2.02287 0
M  V30 1642 H 152.66 -7.51223 -0.848508 0
M  V30 1643 H 153.928 -7.52397 -2.03762 0
M  V30 1644 N 158.157 -0.370918 -1.53173 0
M  V30 1645 C 159.573 -0.0200818 -1.59587 0
M  V30 1646 C 159.773 1.46279 -1.38581 0
M  V30 1647 O 158.829 2.22506 -1.19363 0
M  V30 1648 C 160.142 -0.4808 -2.96831 0
M  V30 1649 C 161.69 -0.435477 -3.09956 0
M  V30 1650 C 162.165 -0.872092 -4.4962 0
M  V30 1651 N 163.656 -0.827364 -4.55751 0
M  V30 1652 C 164.391 -1.13683 -5.62018 0
M  V30 1653 N 163.887 -1.51584 -6.76014 0
M  V30 1654 N 165.68 -1.05927 -5.52029 0
M  V30 1655 H 157.831 -1.33652 -1.65079 0
M  V30 1656 H 160.094 -0.546634 -0.774529 0
M  V30 1657 H 159.8 -1.51577 -3.1736 0
M  V30 1658 H 159.674 0.129796 -3.76977 0
M  V30 1659 H 162.061 0.590371 -2.89134 0
M  V30 1660 H 162.142 -1.08164 -2.31806 0
M  V30 1661 H 161.786 -1.89608 -4.71181 0
M  V30 1662 H 161.716 -0.203127 -5.26208 0
M  V30 1663 H 164.207 -0.548216 -3.73902 0
M  V30 1664 H 164.52 -1.73609 -7.53047 0
M  V30 1665 H 162.865 -1.55454 -6.77391 0
M  V30 1666 H 166.056 -0.762321 -4.61851 0
M  V30 1667 H 166.229 -1.30378 -6.34749 0
M  V30 1668 N 159.635 1.57281 -0.100228 0
M  V30 1669 C 161.046 1.81725 0.428107 0
M  V30 1670 C 161.397 1.01619 1.67833 0
M  V30 1671 O 160.522 0.247098 2.14985 0
M  V30 1672 C 161.117 3.29617 0.78347 0
M  V30 1673 C 159.676 3.54808 1.25653 0
M  V30 1674 C 158.823 2.76118 0.255752 0
M  V30 1675 H 161.774 1.55324 -0.325608 0
M  V30 1676 H 161.795 3.4322 1.64256 0
M  V30 1677 H 161.307 3.87893 -0.12665 0
M  V30 1678 H 159.408 3.01868 2.18418 0
M  V30 1679 H 159.521 4.63443 1.21482 0
M  V30 1680 H 157.885 2.43745 0.738956 0
M  V30 1681 H 158.668 3.37145 -0.647136 0
M  V30 1682 N 161.113 -0.173488 1.56642 0
M  V30 1683 C 162.529 -0.525174 1.50712 0
M  V30 1684 C 162.729 -1.8476 0.804107 0
M  V30 1685 O 161.785 -2.49869 0.363574 0
M  V30 1686 C 163.098 -0.559937 2.95441 0
M  V30 1687 C 164.646 -0.647288 3.06234 0
M  V30 1688 C 165.121 -0.712963 4.52417 0
M  V30 1689 N 166.612 -0.775911 4.56655 0
M  V30 1690 C 167.347 -0.847264 5.67106 0
M  V30 1691 N 166.843 -0.879585 6.87194 0
M  V30 1692 N 168.636 -0.886117 5.55071 0
M  V30 1693 H 160.787 0.693681 2.00753 0
M  V30 1694 H 163.05 0.249841 0.914485 0
M  V30 1695 H 162.756 0.343049 3.50023 0
M  V30 1696 H 162.63 -1.40718 3.49969 0
M  V30 1697 H 165.017 -1.5407 2.51687 0
M  V30 1698 H 165.098 0.226586 2.54794 0
M  V30 1699 H 164.742 0.176183 5.07594 0
M  V30 1700 H 164.672 -1.60295 5.0161 0
M  V30 1701 H 167.163 -0.759304 3.70193 0
M  V30 1702 H 167.476 -0.935144 7.67121 0
M  V30 1703 H 165.821 -0.847898 6.89808 0
M  V30 1704 H 169.012 -0.857853 4.60172 0
M  V30 1705 H 169.185 -0.938263 6.41171 0
M  V30 1706 N 162.591 -1.51276 -0.441967 0
M  V30 1707 C 163.831 -1.65372 -1.20132 0
M  V30 1708 C 164.195 -0.359871 -1.88597 0
M  V30 1709 O 165.396 -0.376551 -2.66149 0
M  V30 1710 C 163.667 -2.8207 -2.1948 0
M  V30 1711 S 165.226 -3.16467 -3.03964 0
M  V30 1712 H 162.044 -0.582669 -0.407453 0
M  V30 1713 H 164.646 -1.89166 -0.493609 0
M  V30 1714 H 163.35 -3.74523 -1.67812 0
M  V30 1715 H 162.881 -2.6045 -2.94838 0
M  V30 1716 H 164.896 -2.62543 -4.21053 0
M  V30 1717 N 164.069 0.697108 -1.41344 0
M  V30 1718 C 165.317 1.45426 -1.40341 0
M  V30 1719 C 165.638 1.94996 -0.0128787 0
M  V30 1720 O 164.908 1.71599 0.945027 0
M  V30 1721 H 163.488 0.539594 -0.516573 0
M  V30 1722 H 166.15 0.825201 -1.76569 0
M  V30 1723 H 165.246 2.31817 -2.08967 0
M  V30 1724 N 165.547 1.27147 0.931209 0
M  V30 1725 C 166.793 1.13446 1.68101 0
M  V30 1726 C 167.126 -0.319628 1.91552 0
M  V30 1727 O 166.401 -1.23407 1.50336 0
M  V30 1728 C 166.684 1.91482 3.0497 0
M  V30 1729 C 166.537 3.44855 2.88782 0
M  V30 1730 C 167.856 1.71651 4.05246 0
M  V30 1731 H 164.975 0.413498 0.610072 0
M  V30 1732 H 167.617 1.56261 1.08086 0
M  V30 1733 H 165.767 1.55095 3.56199 0
M  V30 1734 H 167.439 3.9105 2.44698 0
M  V30 1735 H 165.682 3.71373 2.24198 0
M  V30 1736 H 166.353 3.94694 3.85902 0
M  V30 1737 H 168.829 2.0337 3.63015 0
M  V30 1738 H 167.705 2.28651 4.99009 0
M  V30 1739 H 167.966 0.663555 4.37092 0
M  V30 1740 N 167.025 -1.13721 1.09112 0
M  V30 1741 C 168.436 -1.6648 0.845068 0
M  V30 1742 C 168.787 -1.85911 -0.62701 0
M  V30 1743 O 167.912 -1.57556 -1.48341 0
M  V30 1744 C 168.507 -3.02413 1.52748 0
M  V30 1745 C 167.066 -3.52176 1.32849 0
M  V30 1746 C 166.213 -2.27492 1.58564 0
M  V30 1747 H 169.164 -0.976872 1.25072 0
M  V30 1748 H 169.185 -3.68223 0.958752 0
M  V30 1749 H 168.697 -2.88238 2.59885 0
M  V30 1750 H 166.798 -3.7156 0.278137 0
M  V30 1751 H 166.911 -4.32499 2.0611 0
M  V30 1752 H 165.275 -2.33923 1.00758 0
M  V30 1753 H 166.058 -2.15886 2.66924 0
M  V30 1754 N 168.503 -0.877838 -1.30888 0
M  V30 1755 C 169.78 -0.413052 -1.91189 0
M  V30 1756 C 170.16 1.1056 -1.79832 0
M  V30 1757 O 169.508 1.93771 -1.21099 0
M  V30 1758 C 169.718 -0.903191 -3.3711 0
M  V30 1759 C 171.066 -0.93395 -4.14201 0
M  V30 1760 O 172.09 -0.849373 -3.45925 0
M  V30 1761 O 170.949 -1.05772 -5.36167 0
M  V30 1762 H 168.043 -0.125035 -0.817493 0
M  V30 1763 H 170.589 -0.966269 -1.39504 0
M  V30 1764 H 169.361 -1.94692 -3.39427 0
M  V30 1765 H 168.984 -0.328732 -3.96239 0
M  V30 1766 N 169.982 1.44106 -0.638065 0
M  V30 1767 C 170.914 2.28976 0.101205 0
M  V30 1768 C 171.927 1.4167 0.802088 0
M  V30 1769 O 173.116 1.65755 0.662375 0
M  V30 1770 C 170.216 3.18217 1.16581 0
M  V30 1771 C 169.389 4.33978 0.546066 0
M  V30 1772 C 168.448 5.04202 1.50554 0
M  V30 1773 O 167.474 5.59986 1.01999 0
M  V30 1774 N 168.676 5.06296 2.8398 0
M  V30 1775 H 171.441 2.93064 -0.627186 0
M  V30 1776 H 169.002 1.54629 -0.479731 0
M  V30 1777 H 170.994 3.62061 1.80815 0
M  V30 1778 H 169.564 2.55833 1.79634 0
M  V30 1779 H 168.784 3.93239 -0.275046 0
M  V30 1780 H 170.072 5.08675 0.112793 0
M  V30 1781 H 169.47 4.62319 3.26002 0
M  V30 1782 H 168.027 5.53907 3.43556 0
M  V30 1783 N 171.46 0.379036 1.52974 0
M  V30 1784 C 172.707 -0.206421 2.01445 0
M  V30 1785 C 173.035 -1.47668 1.26587 0
M  V30 1786 O 172.29 -1.92514 0.351675 0
M  V30 1787 C 172.589 -0.53096 3.53434 0
M  V30 1788 C 172.255 0.646546 4.46241 0
M  V30 1789 C 170.917 0.969604 4.7133 0
M  V30 1790 C 173.269 1.43479 5.01062 0
M  V30 1791 C 170.597 2.08263 5.48492 0
M  V30 1792 C 172.949 2.53834 5.7944 0
M  V30 1793 C 171.613 2.86659 6.02812 0
M  V30 1794 H 170.883 -0.0755349 0.73714 0
M  V30 1795 H 173.53 0.514271 1.84465 0
M  V30 1796 H 171.835 -1.33285 3.68432 0
M  V30 1797 H 173.532 -0.996417 3.88423 0
M  V30 1798 H 170.122 0.384734 4.2687 0
M  V30 1799 H 174.306 1.19844 4.81613 0
M  V30 1800 H 169.562 2.34078 5.64816 0
M  V30 1801 H 173.736 3.15319 6.20924 0
M  V30 1802 H 171.363 3.73026 6.62387 0
M  V30 1803 N 172.938 -1.57226 0.108567 0
M  V30 1804 C 174.186 -1.94448 -0.550853 0
M  V30 1805 C 174.507 -0.992074 -1.67878 0
M  V30 1806 O 173.777 -0.0465 -1.95845 0
M  V30 1807 H 172.357 -0.717897 -0.206479 0
M  V30 1808 H 175.019 -1.94112 0.175062 0
M  V30 1809 H 174.115 -2.97218 -0.952259 0
M  V30 1810 N 174.416 0.165178 -1.56732 0
M  V30 1811 C 175.662 0.882112 -1.82611 0
M  V30 1812 C 175.995 1.81628 -0.687378 0
M  V30 1813 O 175.27 1.92009 0.310267 0
M  V30 1814 C 175.553 1.67245 -3.18906 0
M  V30 1815 C 175.406 0.760987 -4.43316 0
M  V30 1816 C 176.725 2.63884 -3.52212 0
M  V30 1817 H 173.844 0.319242 -0.664269 0
M  V30 1818 H 176.486 0.148052 -1.89422 0
M  V30 1819 H 174.636 2.29824 -3.1323 0
M  V30 1820 H 176.308 0.147596 -4.61064 0
M  V30 1821 H 174.551 0.0694102 -4.33744 0
M  V30 1822 H 175.222 1.34962 -5.35247 0
M  V30 1823 H 177.698 2.11429 -3.58381 0
M  V30 1824 H 176.574 3.16245 -4.48643 0
M  V30 1825 H 176.835 3.44377 -2.77231 0
M  V30 1826 N 175.894 1.51508 0.433938 0
M  V30 1827 C 177.31 1.39759 0.770682 0
M  V30 1828 C 177.51 0.482594 1.95636 0
M  V30 1829 O 176.566 -0.0609691 2.52426 0
M  V30 1830 C 177.879 2.81851 1.04787 0
M  V30 1831 C 179.427 2.91025 1.1521 0
M  V30 1832 C 179.902 4.34032 1.46219 0
M  V30 1833 N 181.393 4.37154 1.53136 0
M  V30 1834 C 182.128 5.4484 1.78709 0
M  V30 1835 N 181.624 6.62682 2.02051 0
M  V30 1836 N 183.417 5.32324 1.80519 0
M  V30 1837 H 175.568 2.09548 -0.346892 0
M  V30 1838 H 177.831 0.943446 -0.0928074 0
M  V30 1839 H 177.537 3.50815 0.249304 0
M  V30 1840 H 177.411 3.21386 1.97461 0
M  V30 1841 H 179.798 2.22257 1.94128 0
M  V30 1842 H 179.879 2.54983 0.204281 0
M  V30 1843 H 179.523 5.03351 0.678274 0
M  V30 1844 H 179.453 4.6759 2.42212 0
M  V30 1845 H 181.944 3.52197 1.36987 0
M  V30 1846 H 182.257 7.40543 2.20943 0
M  V30 1847 H 180.602 6.65791 1.99366 0
M  V30 1848 H 183.793 4.39246 1.61805 0
M  V30 1849 H 183.966 6.16328 2.00111 0
M  V30 1850 N 177.372 -0.689602 1.41712 0
M  V30 1851 C 178.618 -1.45181 1.41599 0
M  V30 1852 C 178.951 -1.94181 0.0270081 0
M  V30 1853 O 178.226 -1.6993 -0.946265 0
M  V30 1854 C 178.509 -2.65945 2.42787 0
M  V30 1855 C 178.362 -2.22672 3.90816 0
M  V30 1856 C 179.681 -3.68149 2.41151 0
M  V30 1857 H 176.8 -0.526576 0.515642 0
M  V30 1858 H 179.442 -0.784947 1.73028 0
M  V30 1859 H 177.592 -3.2284 2.16116 0
M  V30 1860 H 179.264 -1.71058 4.28412 0
M  V30 1861 H 177.507 -1.54394 4.05395 0
M  V30 1862 H 178.178 -3.0935 4.57172 0
M  V30 1863 H 180.654 -3.2094 2.64834 0
M  V30 1864 H 179.53 -4.50248 3.13955 0
M  V30 1865 H 179.791 -4.18259 1.43221 0
M  V30 1866 N 178.85 -1.27639 -0.924453 0
M  V30 1867 C 179.797 -1.10644 -2.0255 0
M  V30 1868 C 180.767 -0.00658438 -1.66099 0
M  V30 1869 O 181.952 -0.16952 -1.90045 0
M  V30 1870 C 179.092 -0.76309 -3.36557 0
M  V30 1871 C 178.205 -1.94091 -3.85944 0
M  V30 1872 C 177.34 -1.53914 -5.08413 0
M  V30 1873 C 176.379 -2.68425 -5.50104 0
M  V30 1874 N 175.516 -2.28815 -6.63768 0
M  V30 1875 H 180.356 -2.04858 -2.16419 0
M  V30 1876 H 177.893 -1.01974 -1.06017 0
M  V30 1877 H 179.851 -0.544822 -4.13627 0
M  V30 1878 H 178.481 0.142102 -3.22487 0
M  V30 1879 H 177.533 -2.27162 -3.05125 0
M  V30 1880 H 178.845 -2.7998 -4.12811 0
M  V30 1881 H 177.999 -1.28231 -5.92994 0
M  V30 1882 H 176.738 -0.651391 -4.8333 0
M  V30 1883 H 175.743 -2.94819 -4.64071 0
M  V30 1884 H 176.968 -3.57826 -5.7718 0
M  V30 1885 H 174.914 -1.42495 -6.40337 0
M  V30 1886 H 174.831 -3.08242 -6.90306 0
M  V30 1887 H 176.099 -2.06387 -7.51681 0
M  V30 1888 N 180.328 1.1314 -1.09713 0
M  V30 1889 C 181.291 2.16831 -0.742751 0
M  V30 1890 C 182.291 1.59159 0.229129 0
M  V30 1891 O 183.481 1.74199 0.00693237 0
M  V30 1892 C 180.613 3.40756 -0.0989168 0
M  V30 1893 H 181.806 2.49695 -1.66109 0
M  V30 1894 H 179.359 1.2802 -0.896699 0
M  V30 1895 H 180.094 3.13485 0.830514 0
M  V30 1896 H 179.879 3.83888 -0.798265 0
M  V30 1897 H 181.369 4.17386 0.133524 0
M  V30 1898 N 181.806 0.884767 1.30421 0
M  V30 1899 C 182.754 0.340869 2.30089 0
M  V30 1900 C 183.748 -0.55201 1.60154 0
M  V30 1901 O 184.954 -0.436467 1.74628 0
M  V30 1902 H 181.329 0.0915739 0.746404 0
M  V30 1903 H 183.3 1.19513 2.73421 0
M  V30 1904 C 182.049 -0.429779 3.45034 0
M  V30 1905 H 181.372 0.248024 3.9903 0
M  V30 1906 H 182.812 -0.775445 4.16849 0
M  V30 1907 C 181.271 -1.62677 2.95022 0
M  V30 1908 O 181.801 -2.72614 2.95033 0
M  V30 1909 N 180.007 -1.46387 2.51036 0
M  V30 1910 H 179.554 -0.569506 2.51226 0
M  V30 1911 H 179.512 -2.26612 2.17932 0
M  V30 1912 N 183.284 -1.43765 0.645699 0
M  V30 1913 C 184.214 -2.33471 -0.0370477 0
M  V30 1914 C 185.195 -1.49042 -0.819779 0
M  V30 1915 O 186.38 -1.77726 -0.782758 0
M  V30 1916 C 183.51 -3.32311 -1.0093 0
M  V30 1917 C 182.464 -4.2667 -0.337201 0
M  V30 1918 C 181.79 -5.1549 -1.42037 0
M  V30 1919 C 183.09 -5.16657 0.765706 0
M  V30 1920 H 184.784 -2.90809 0.712069 0
M  V30 1921 H 182.33 -1.39834 0.343876 0
M  V30 1922 H 184.283 -3.9396 -1.49578 0
M  V30 1923 H 183.007 -2.73213 -1.78948 0
M  V30 1924 H 181.666 -3.66374 0.128771 0
M  V30 1925 H 181.314 -4.52735 -2.1918 0
M  V30 1926 H 181.014 -5.79438 -0.975966 0
M  V30 1927 H 182.538 -5.80012 -1.90838 0
M  V30 1928 H 183.952 -5.72158 0.361702 0
M  V30 1929 H 182.349 -5.89286 1.13413 0
M  V30 1930 H 183.419 -4.56796 1.62683 0
M  V30 1931 N 184.763 -0.387143 -1.52771 0
M  V30 1932 C 186.179 -0.037007 -1.59557 0
M  V30 1933 C 186.379 1.44801 -1.40124 0
M  V30 1934 O 185.435 2.21227 -1.21716 0
M  V30 1935 C 186.748 -0.512256 -2.96305 0
M  V30 1936 C 188.296 -0.468328 -3.09476 0
M  V30 1937 C 188.771 -0.919731 -4.4867 0
M  V30 1938 N 190.262 -0.875656 -4.54848 0
M  V30 1939 C 190.997 -1.19637 -5.6078 0
M  V30 1940 N 190.493 -1.58745 -6.74368 0
M  V30 1941 N 192.286 -1.11776 -5.50874 0
M  V30 1942 H 184.437 -1.35395 -1.63652 0
M  V30 1943 H 186.7 -0.554818 -0.768688 0
M  V30 1944 H 186.406 -1.54935 -3.15734 0
M  V30 1945 H 186.28 0.089805 -3.77093 0
M  V30 1946 H 188.667 0.559671 -2.89744 0
M  V30 1947 H 188.748 -1.10616 -2.30646 0
M  V30 1948 H 188.392 -1.94595 -4.69143 0
M  V30 1949 H 188.322 -0.258927 -5.25963 0
M  V30 1950 H 190.813 -0.587843 -3.733 0
M  V30 1951 H 191.126 -1.81586 -7.51163 0
M  V30 1952 H 189.471 -1.6263 -6.75705 0
M  V30 1953 H 192.662 -0.811264 -4.61016 0
M  V30 1954 H 192.835 -1.37103 -6.3333 0
M  V30 1955 N 186.241 1.57166 -0.116904 0
M  V30 1956 C 187.657 1.5779 0.239693 0
M  V30 1957 C 187.857 1.1295 1.66867 0
M  V30 1958 O 186.913 0.81592 2.38954 0
M  V30 1959 C 188.226 3.00699 0.00828202 0
M  V30 1960 C 189.774 3.12912 0.0743438 0
M  V30 1961 C 190.249 4.57817 -0.129348 0
M  V30 1962 N 191.74 4.63139 -0.075247 0
M  V30 1963 C 192.475 5.73023 -0.207788 0
M  V30 1964 N 191.971 6.91665 -0.396382 0
M  V30 1965 N 193.764 5.61906 -0.14751 0
M  V30 1966 H 185.915 1.84615 -1.05029 0
M  V30 1967 H 188.178 0.85311 -0.41341 0
M  V30 1968 H 187.884 3.37784 -0.979531 0
M  V30 1969 H 187.758 3.69848 0.741077 0
M  V30 1970 H 190.145 2.75686 1.05268 0
M  V30 1971 H 190.226 2.4631 -0.690297 0
M  V30 1972 H 189.87 4.95742 -1.10465 0
M  V30 1973 H 189.8 5.22507 0.655253 0
M  V30 1974 H 192.291 3.7784 0.0670898 0
M  V30 1975 H 192.604 7.71255 -0.488437 0
M  V30 1976 H 190.949 6.93654 -0.432329 0
M  V30 1977 H 194.14 4.681 -0.00115036 0
M  V30 1978 H 194.313 6.47501 -0.254247 0
M  V30 1979 N 187.719 -0.156864 1.56817 0
M  V30 1980 C 189.135 -0.50916 1.5126 0
M  V30 1981 C 189.335 -1.83897 0.823658 0
M  V30 1982 O 188.391 -2.49469 0.390055 0
M  V30 1983 C 189.704 -0.52857 2.96018 0
M  V30 1984 C 191.252 -0.614771 3.06903 0
M  V30 1985 C 191.727 -0.664938 4.53147 0
M  V30 1986 N 193.218 -0.727433 4.57452 0
M  V30 1987 C 193.953 -0.787067 5.67973 0
M  V30 1988 N 193.449 -0.806649 6.88088 0
M  V30 1989 N 195.242 -0.827195 5.5598 0
M  V30 1990 H 187.393 0.714935 2.00006 0
M  V30 1991 H 189.656 0.259526 0.911784 0
M  V30 1992 H 189.362 0.380154 3.49639 0
M  V30 1993 H 189.236 -1.36998 3.51442 0
M  V30 1994 H 191.623 -1.51392 2.53307 0
M  V30 1995 H 191.704 0.253597 2.5454 0
M  V30 1996 H 191.348 0.230011 5.07379 0
M  V30 1997 H 191.278 -1.54966 5.03282 0
M  V30 1998 H 193.769 -0.719998 3.70978 0
M  V30 1999 H 194.082 -0.853727 7.6807 0
M  V30 2000 H 192.427 -0.774687 6.90669 0
M  V30 2001 H 195.618 -0.808998 4.61056 0
M  V30 2002 H 195.791 -0.870206 6.4213 0
M  V30 2003 N 189.197 -1.51736 -0.425897 0
M  V30 2004 C 190.613 -1.40166 -0.76326 0
M  V30 2005 C 190.813 -0.492962 -1.95377 0
M  V30 2006 O 189.869 0.0475815 -2.52455 0
M  V30 2007 C 191.182 -2.82403 -1.03291 0
M  V30 2008 C 192.73 -2.91632 -1.13665 0
M  V30 2009 C 193.205 -4.34801 -1.43916 0
M  V30 2010 N 194.696 -4.3796 -1.50816 0
M  V30 2011 C 195.431 -5.4578 -1.75817 0
M  V30 2012 N 194.927 -6.63744 -1.98534 0
M  V30 2013 N 196.72 -5.33274 -1.77694 0
M  V30 2014 H 188.871 -2.09361 0.358 0
M  V30 2015 H 191.134 -0.942941 0.0978094 0
M  V30 2016 H 190.84 -3.50943 -0.230696 0
M  V30 2017 H 190.714 -3.22428 -1.95754 0
M  V30 2018 H 193.101 -2.23284 -1.92947 0
M  V30 2019 H 193.182 -2.55088 -0.190756 0
M  V30 2020 H 192.826 -5.03703 -0.65157 0
M  V30 2021 H 192.756 -4.68868 -2.39729 0
M  V30 2022 H 195.247 -3.52919 -1.35118 0
M  V30 2023 H 195.56 -7.41704 -2.17013 0
M  V30 2024 H 193.905 -6.66839 -1.95832 0
M  V30 2025 H 197.096 -4.40098 -1.59473 0
M  V30 2026 H 197.269 -6.1738 -1.9684 0
M  V30 2027 N 190.675 0.682077 -1.42076 0
M  V30 2028 C 191.622 1.79578 -1.44984 0
M  V30 2029 C 192.592 1.6332 -0.302614 0
M  V30 2030 O 193.777 1.83978 -0.505633 0
M  V30 2031 C 190.917 3.1756 -1.35091 0
M  V30 2032 C 190.03 3.45156 -2.59791 0
M  V30 2033 C 189.165 4.72826 -2.42093 0
M  V30 2034 C 188.204 4.93433 -3.62202 0
M  V30 2035 N 187.341 6.12338 -3.43491 0
M  V30 2036 H 192.181 1.76427 -2.40161 0
M  V30 2037 H 189.718 0.861376 -1.19242 0
M  V30 2038 H 191.676 3.97287 -1.27354 0
M  V30 2039 H 190.306 3.19854 -0.435133 0
M  V30 2040 H 189.358 2.59736 -2.77923 0
M  V30 2041 H 190.67 3.5628 -3.49094 0
M  V30 2042 H 189.824 5.60631 -2.319 0
M  V30 2043 H 188.563 4.63973 -1.50268 0
M  V30 2044 H 187.568 4.04073 -3.72834 0
M  V30 2045 H 188.793 5.04136 -4.54998 0
M  V30 2046 H 186.739 6.04672 -2.54377 0
M  V30 2047 H 186.656 6.2429 -4.26377 0
M  V30 2048 H 187.924 7.02841 -3.37097 0
M  V30 2049 N 192.153 1.28127 0.917671 0
M  V30 2050 C 193.569 1.05749 1.19538 0
M  V30 2051 C 193.769 -0.202633 2.00479 0
M  V30 2052 O 192.825 -0.905382 2.3571 0
M  V30 2053 C 194.138 2.30273 1.93378 0
M  V30 2054 C 195.686 2.35412 2.06277 0
M  V30 2055 C 196.161 3.59692 2.83524 0
M  V30 2056 N 197.652 3.60309 2.91087 0
M  V30 2057 C 198.387 4.53147 3.51348 0
M  V30 2058 N 197.883 5.563 4.12919 0
M  V30 2059 N 199.676 4.40751 3.48849 0
M  V30 2060 H 191.827 2.09024 0.377184 0
M  V30 2061 H 194.09 0.919798 0.22951 0
M  V30 2062 H 193.796 3.22055 1.41328 0
M  V30 2063 H 193.67 2.36378 2.93947 0
M  V30 2064 H 196.057 1.4413 2.57508 0
M  V30 2065 H 196.138 2.33304 1.04895 0
M  V30 2066 H 195.782 4.51316 2.32973 0
M  V30 2067 H 195.712 3.59054 3.85211 0
M  V30 2068 H 198.203 2.85714 2.47338 0
M  V30 2069 H 198.516 6.2329 4.56869 0
M  V30 2070 H 196.861 5.60131 4.11435 0
M  V30 2071 H 200.052 3.59367 2.99955 0
M  V30 2072 H 200.225 5.13291 3.9552 0
M  V30 2073 N 193.631 -1.12557 1.10312 0
M  V30 2074 C 194.861 -1.87592 0.865617 0
M  V30 2075 C 195.269 -1.79851 -0.587389 0
M  V30 2076 O 194.612 -1.16949 -1.41664 0
M  V30 2077 C 194.674 -3.37665 1.23381 0
M  V30 2078 C 194.338 -3.69181 2.69359 0
M  V30 2079 C 195.335 -3.67652 3.67597 0
M  V30 2080 C 193.02 -3.98555 3.05711 0
M  V30 2081 C 195.014 -3.95053 5.00212 0
M  V30 2082 C 192.701 -4.25616 4.38514 0
M  V30 2083 C 193.699 -4.23851 5.35574 0
M  V30 2084 O 193.387 -4.50242 6.65986 0
M  V30 2085 H 193.119 -0.600442 0.310557 0
M  V30 2086 H 195.673 -1.4335 1.47105 0
M  V30 2087 H 193.903 -3.82454 0.571467 0
M  V30 2088 H 195.592 -3.94041 0.973994 0
M  V30 2089 H 196.358 -3.45024 3.40857 0
M  V30 2090 H 192.237 -3.99071 2.30789 0
M  V30 2091 H 195.781 -3.93591 5.75962 0
M  V30 2092 H 191.678 -4.47718 4.64994 0
M  V30 2093 H 192.446 -4.67867 6.71597 0
M  V30 2094 N 195.109 -0.891671 -1.2995 0
M  V30 2095 C 196.072 -0.36828 -2.26222 0
M  V30 2096 C 197.072 0.493014 -1.53056 0
M  V30 2097 O 198.262 0.299213 -1.71611 0
M  V30 2098 C 195.394 0.47442 -3.37583 0
M  V30 2099 H 196.587 -1.21844 -2.74033 0
M  V30 2100 H 194.14 -0.669107 -1.41254 0
M  V30 2101 H 194.875 1.34489 -2.95099 0
M  V30 2102 H 194.66 -0.142615 -3.91841 0
M  V30 2103 H 196.15 0.83218 -4.09224 0
M  V30 2104 N 196.587 1.43421 -0.653314 0
M  V30 2105 C 197.517 2.33487 0.0246656 0
M  V30 2106 C 198.498 1.49475 0.811863 0
M  V30 2107 O 199.683 1.78139 0.773322 0
M  V30 2108 C 196.813 3.32841 0.99166 0
M  V30 2109 C 195.767 4.26842 0.314568 0
M  V30 2110 C 195.093 5.16236 1.39302 0
M  V30 2111 C 196.393 5.16243 -0.793095 0
M  V30 2112 H 198.087 2.90427 -0.727481 0
M  V30 2113 H 195.633 1.39649 -0.351287 0
M  V30 2114 H 197.586 3.94747 1.47487 0
M  V30 2115 H 196.31 2.74158 1.77497 0
M  V30 2116 H 194.969 3.663 -0.148199 0
M  V30 2117 H 194.617 4.53891 2.16776 0
M  V30 2118 H 194.317 5.79948 0.945223 0
M  V30 2119 H 195.841 5.81015 1.87759 0
M  V30 2120 H 197.255 5.71958 -0.392039 0
M  V30 2121 H 195.652 5.88676 -1.16536 0
M  V30 2122 H 196.722 4.55927 -1.65103 0
M  V30 2123 N 198.065 0.39524 1.52563 0
M  V30 2124 C 199.293 -0.184943 2.06072 0
M  V30 2125 C 199.708 -1.40021 1.26647 0
M  V30 2126 O 199.065 -1.79767 0.314672 0
M  V30 2127 C 199.116 -0.549179 3.57304 0
M  V30 2128 O 198.837 0.617813 4.33722 0
M  V30 2129 C 200.338 -1.18459 4.2718 0
M  V30 2130 H 197.558 -0.0265025 0.670476 0
M  V30 2131 H 200.102 0.562184 1.96621 0
M  V30 2132 H 198.257 -1.2462 3.66809 0
M  V30 2133 H 198.671 0.317091 5.23541 0
M  V30 2134 H 200.145 -1.38976 5.34219 0
M  V30 2135 H 200.622 -2.15368 3.82771 0
M  V30 2136 H 201.228 -0.528163 4.22008 0
M  V30 2137 N 199.544 -1.57102 0.125237 0
M  V30 2138 C 200.792 -1.95021 -0.530198 0
M  V30 2139 C 201.113 -1.00982 -1.66816 0
M  V30 2140 O 200.383 -0.0672693 -1.95784 0
M  V30 2141 H 198.963 -0.720046 -0.198853 0
M  V30 2142 H 201.625 -1.93916 0.19564 0
M  V30 2143 H 200.721 -2.98211 -0.920681 0
M  V30 2144 N 201.022 0.148545 -1.56898 0
M  V30 2145 C 202.438 0.501131 -1.51528 0
M  V30 2146 C 202.638 1.83458 -0.833399 0
M  V30 2147 O 201.694 2.49259 -0.40328 0
M  V30 2148 C 203.007 0.512864 -2.96294 0
M  V30 2149 C 204.555 0.598487 -3.07225 0
M  V30 2150 C 205.03 0.640897 -4.53494 0
M  V30 2151 N 206.521 0.703163 -4.57832 0
M  V30 2152 C 207.256 0.756935 -5.68382 0
M  V30 2153 N 206.752 0.770147 -6.88506 0
M  V30 2154 N 208.545 0.797698 -5.56411 0
M  V30 2155 H 200.696 -0.725532 -1.99624 0
M  V30 2156 H 202.959 -0.264358 -0.910395 0
M  V30 2157 H 202.665 -0.398691 -3.49433 0
M  V30 2158 H 202.539 1.35133 -3.52163 0
M  V30 2159 H 204.926 1.50046 -2.54106 0
M  V30 2160 H 205.007 -0.267093 -2.54402 0
M  V30 2161 H 204.651 -0.256915 -5.0725 0
M  V30 2162 H 204.581 1.52295 -5.04097 0
M  V30 2163 H 207.072 0.700314 -3.71354 0
M  V30 2164 H 207.385 0.812983 -7.68512 0
M  V30 2165 H 205.73 0.738049 -6.9107 0
M  V30 2166 H 208.921 0.784535 -4.61479 0
M  V30 2167 H 209.094 0.83614 -6.42583 0
M  V30 2168 N 202.5 1.5196 0.417844 0
M  V30 2169 C 203.447 1.74678 1.50852 0
M  V30 2170 C 204.417 0.588947 1.55308 0
M  V30 2171 O 205.602 0.825544 1.72016 0
M  V30 2172 C 202.742 1.89544 2.88387 0
M  V30 2173 C 201.855 3.17166 2.93309 0
M  V30 2174 C 200.99 3.22513 4.22088 0
M  V30 2175 C 200.029 4.44372 4.20951 0
M  V30 2176 N 199.166 4.47161 5.41287 0
M  V30 2177 H 204.006 2.67768 1.30783 0
M  V30 2178 H 201.543 1.32689 0.63498 0
M  V30 2179 H 203.501 1.96146 3.68216 0
M  V30 2180 H 202.131 0.998424 3.06971 0
M  V30 2181 H 201.183 3.19778 2.06024 0
M  V30 2182 H 202.495 4.07021 2.88332 0
M  V30 2183 H 201.649 3.28139 5.10303 0
M  V30 2184 H 200.388 2.30581 4.29748 0
M  V30 2185 H 199.393 4.38902 3.31127 0
M  V30 2186 H 200.618 5.3759 4.14938 0
M  V30 2187 H 198.564 3.58108 5.49632 0
M  V30 2188 H 198.481 5.3085 5.3827 0
M  V30 2189 H 199.749 4.57005 6.3148 0
M  V30 2190 N 203.978 -0.674533 1.42435 0
M  V30 2191 C 205.224 -1.43521 1.4413 0
M  V30 2192 C 205.579 -1.92316 0.0567773 0
M  V30 2193 O 204.872 -1.68008 -0.921076 0
M  V30 2194 C 205.066 -2.64767 2.40069 0
M  V30 2195 C 204.895 -2.27836 3.87713 0
M  V30 2196 C 203.665 -2.17183 4.56245 0
M  V30 2197 C 205.863 -1.89466 4.78129 0
M  V30 2198 N 203.845 -1.73358 5.88915 0
M  V30 2199 C 205.216 -1.56561 5.99907 0
M  V30 2200 C 207.271 -1.7646 4.65582 0
M  V30 2201 C 205.974 -1.11957 7.10534 0
M  V30 2202 C 208 -1.3326 5.76191 0
M  V30 2203 C 207.362 -1.0128 6.97081 0
M  V30 2204 H 203.461 -0.521656 0.582579 0
M  V30 2205 H 206.045 -0.778381 1.78464 0
M  V30 2206 H 204.216 -3.28139 2.07796 0
M  V30 2207 H 205.948 -3.3136 2.32342 0
M  V30 2208 H 202.703 -2.3626 4.10461 0
M  V30 2209 H 203.127 -1.53867 6.59283 0
M  V30 2210 H 207.769 -1.99831 3.72595 0
M  V30 2211 H 205.487 -0.873318 8.03367 0
M  V30 2212 H 209.073 -1.23717 5.68494 0
M  V30 2213 H 207.953 -0.683597 7.81215 0
M  V30 2214 N 205.456 -1.28612 -0.910864 0
M  V30 2215 C 206.404 -1.1265 -2.03501 0
M  V30 2216 C 207.398 -0.0450054 -1.6934 0
M  V30 2217 O 208.604 -0.203988 -1.7884 0
M  V30 2218 H 204.979 -0.347639 -0.666822 0
M  V30 2219 H 206.95 -2.07849 -2.14106 0
M  V30 2220 C 205.699 -0.808143 -3.38178 0
M  V30 2221 H 205.022 -1.63231 -3.6496 0
M  V30 2222 H 206.462 -0.736426 -4.17556 0
M  V30 2223 C 204.921 0.488226 -3.33344 0
M  V30 2224 O 205.451 1.51766 -3.71927 0
M  V30 2225 N 203.657 0.490009 -2.86439 0
M  V30 2226 H 203.204 -0.348161 -2.55236 0
M  V30 2227 H 203.162 1.35741 -2.83587 0
M  V30 2228 N 206.934 1.1197 -1.10907 0
M  V30 2229 C 207.882 2.19927 -0.757303 0
M  V30 2230 C 208.876 1.67564 0.248747 0
M  V30 2231 O 210.082 1.79672 0.108605 0
M  V30 2232 H 206.457 0.716925 -0.226987 0
M  V30 2233 H 208.428 2.46847 -1.67658 0
M  V30 2234 C 207.177 3.47061 -0.210671 0
M  V30 2235 H 206.5 3.87703 -0.976049 0
M  V30 2236 H 207.94 4.24 -0.0026584 0
M  V30 2237 C 206.399 3.19864 1.05777 0
M  V30 2238 O 206.929 3.40049 2.13845 0
M  V30 2239 N 205.135 2.73636 0.978349 0
M  V30 2240 H 204.682 2.5741 0.0988246 0
M  V30 2241 H 204.64 2.55815 1.82773 0
M  V30 2242 N 208.412 0.89855 1.29475 0
M  V30 2243 C 209.362 0.346767 2.25348 0
M  V30 2244 C 210.346 -0.532509 1.51833 0
M  V30 2245 O 211.538 -0.374714 1.72988 0
M  V30 2246 C 208.667 -0.425681 3.40651 0
M  V30 2247 C 207.753 0.46845 4.21505 0
M  V30 2248 N 208.144 1.57514 4.80648 0
M  V30 2249 C 206.442 0.26603 4.45206 0
M  V30 2250 C 207.143 2.12889 5.41344 0
M  V30 2251 N 206.119 1.42208 5.24669 0
M  V30 2252 H 209.921 1.19219 2.68634 0
M  V30 2253 H 207.435 0.749473 1.44072 0
M  V30 2254 H 209.432 -0.837716 4.08397 0
M  V30 2255 H 208.092 -1.26838 2.98902 0
M  V30 2256 H 209.103 1.95789 4.79465 0
M  V30 2257 H 205.78 -0.538394 4.14014 0
M  V30 2258 H 207.17 3.05901 5.98226 0
M  V30 2259 N 209.89 -1.43072 0.660911 0
M  V30 2260 C 210.84 -2.27948 -0.04847 0
M  V30 2261 C 211.824 -1.40325 -0.787246 0
M  V30 2262 O 213.016 -1.63893 -0.668446 0
M  V30 2263 C 210.145 -3.28143 -1.00881 0
M  V30 2264 C 209.231 -4.23252 -0.268108 0
M  V30 2265 N 209.622 -5.00656 0.719528 0
M  V30 2266 C 207.92 -4.43092 -0.508493 0
M  V30 2267 C 208.621 -5.70019 1.15988 0
M  V30 2268 N 207.597 -5.41364 0.492584 0
M  V30 2269 H 211.399 -2.85213 0.709279 0
M  V30 2270 H 208.913 -1.54869 0.488822 0
M  V30 2271 H 210.91 -3.87736 -1.53188 0
M  V30 2272 H 209.57 -2.7244 -1.76654 0
M  V30 2273 H 210.581 -5.06115 1.09855 0
M  V30 2274 H 207.258 -3.98449 -1.24679 0
M  V30 2275 H 208.648 -6.4214 1.97751 0
M  V30 2276 N 211.368 -0.403325 -1.52352 0
M  V30 2277 C 212.298 0.416205 -2.29761 0
M  V30 2278 C 213.279 1.05123 -1.33728 0
M  V30 2279 O 214.464 1.06134 -1.62632 0
M  V30 2280 C 211.594 1.53624 -3.11475 0
M  V30 2281 C 210.548 1.02653 -4.15507 0
M  V30 2282 C 209.874 2.23971 -4.85532 0
M  V30 2283 C 211.174 0.08463 -5.22231 0
M  V30 2284 H 212.868 -0.229701 -2.98518 0
M  V30 2285 H 210.414 -0.111913 -1.43564 0
M  V30 2286 H 212.367 2.1165 -3.64393 0
M  V30 2287 H 211.091 2.20994 -2.40477 0
M  V30 2288 H 209.75 0.46871 -3.63591 0
M  V30 2289 H 209.398 2.89883 -4.11068 0
M  V30 2290 H 209.098 1.90521 -5.55856 0
M  V30 2291 H 210.622 2.82614 -5.41259 0
M  V30 2292 H 212.036 0.573509 -5.70424 0
M  V30 2293 H 210.433 -0.160783 -5.99885 0
M  V30 2294 H 211.503 -0.86237 -4.7717 0
M  V30 2295 N 212.846 1.57033 -0.133567 0
M  V30 2296 C 214.074 2.00044 0.528195 0
M  V30 2297 C 214.489 1.01349 1.59291 0
M  V30 2298 O 213.846 0.00848369 1.82498 0
M  V30 2299 C 213.897 3.43018 1.1411 0
M  V30 2300 O 213.618 4.37939 0.11892 0
M  V30 2301 C 215.119 4.01237 1.88477 0
M  V30 2302 H 212.339 0.656517 0.138661 0
M  V30 2303 H 214.883 2.03267 -0.224196 0
M  V30 2304 H 213.038 3.40688 1.84418 0
M  V30 2305 H 213.452 5.21436 0.56613 0
M  V30 2306 H 214.926 5.03314 2.26669 0
M  V30 2307 H 215.403 3.41193 2.76558 0
M  V30 2308 H 216.009 4.07156 1.22898 0
M  V30 2309 N 214.325 -0.140222 1.56975 0
M  V30 2310 C 215.572 -0.851687 1.83719 0
M  V30 2311 C 215.9 -1.80862 0.715485 0
M  V30 2312 O 215.155 -1.93464 -0.294956 0
M  V30 2313 C 215.454 -1.65386 3.16832 0
M  V30 2314 C 215.12 -0.843112 4.42947 0
M  V30 2315 C 213.782 -0.619464 4.77196 0
M  V30 2316 C 216.134 -0.276582 5.20466 0
M  V30 2317 C 213.462 0.181312 5.8642 0
M  V30 2318 C 215.814 0.51127 6.30531 0
M  V30 2319 C 214.478 0.745432 6.63325 0
M  V30 2320 H 213.748 -0.311654 0.672274 0
M  V30 2321 H 216.395 -0.115006 1.91154 0
M  V30 2322 H 214.7 -2.46084 3.04877 0
M  V30 2323 H 216.397 -2.20793 3.34741 0
M  V30 2324 H 212.987 -1.0275 4.16101 0
M  V30 2325 H 217.171 -0.436632 4.94376 0
M  V30 2326 H 212.427 0.372165 6.10266 0
M  V30 2327 H 216.601 0.957354 6.89788 0
M  V30 2328 H 214.228 1.36778 7.47794 0
M  V30 2329 N 215.803 -1.52179 -0.40978 0
M  V30 2330 C 217.028 -1.70347 -1.18308 0
M  V30 2331 C 217.453 -0.411887 -1.83535 0
M  V30 2332 O 216.811 0.630587 -1.6998 0
M  V30 2333 C 216.859 -2.83977 -2.22238 0
M  V30 2334 O 215.963 -2.495 -3.28365 0
M  V30 2335 H 215.304 -0.567103 -0.345384 0
M  V30 2336 H 217.834 -1.98879 -0.480445 0
M  V30 2337 H 217.844 -3.0887 -2.66577 0
M  V30 2338 H 216.519 -3.77685 -1.74146 0
M  V30 2339 H 215.096 -2.35277 -2.89308 0
M  V30 2340 N 217.281 0.66697 -1.42791 0
M  V30 2341 C 218.53 1.42278 -1.42968 0
M  V30 2342 C 218.843 1.9553 -0.0524489 0
M  V30 2343 O 220.049 2.71414 0.068363 0
M  V30 2344 C 218.505 2.57418 -2.51524 0
M  V30 2345 C 218.113 2.10832 -3.9529 0
M  V30 2346 C 219.857 3.34878 -2.60877 0
M  V30 2347 C 217.764 3.23101 -4.95338 0
M  V30 2348 H 216.694 0.534533 -0.531781 0
M  V30 2349 H 219.345 0.721302 -1.68729 0
M  V30 2350 H 217.727 3.29971 -2.18941 0
M  V30 2351 H 218.901 1.4538 -4.37266 0
M  V30 2352 H 217.216 1.46289 -3.89857 0
M  V30 2353 H 219.813 4.18505 -3.32802 0
M  V30 2354 H 220.156 3.81993 -1.6549 0
M  V30 2355 H 220.689 2.69398 -2.92693 0
M  V30 2356 H 217.428 2.80969 -5.9223 0
M  V30 2357 H 216.948 3.87309 -4.57987 0
M  V30 2358 H 218.627 3.88447 -5.17415 0
M  V30 2359 N 218.759 1.29093 0.90403 0
M  V30 2360 C 219.691 1.09658 2.01266 0
M  V30 2361 C 220.704 0.0453729 1.62737 0
M  V30 2362 O 221.893 0.289446 1.76138 0
M  V30 2363 C 218.993 0.646278 3.32681 0
M  V30 2364 C 218.166 1.77505 3.99763 0
M  V30 2365 C 217.225 1.31649 5.09465 0
M  V30 2366 O 216.251 2.02045 5.32134 0
M  V30 2367 N 217.453 0.184997 5.80205 0
M  V30 2368 H 220.218 2.05135 2.18494 0
M  V30 2369 H 217.779 1.20975 1.07594 0
M  V30 2370 H 219.771 0.322906 4.0341 0
M  V30 2371 H 218.341 -0.215916 3.11853 0
M  V30 2372 H 217.561 2.26752 3.22455 0
M  V30 2373 H 218.849 2.53198 4.41325 0
M  V30 2374 H 218.247 -0.402021 5.6427 0
M  V30 2375 H 216.804 -0.0790358 6.51752 0
M  V30 2376 N 220.237 -1.11381 1.11499 0
M  V30 2377 C 221.185 -2.19522 0.768956 0
M  V30 2378 C 222.179 -1.67693 -0.239857 0
M  V30 2379 O 223.385 -1.79727 -0.0990755 0
M  V30 2380 H 219.76 -0.715711 0.230786 0
M  V30 2381 H 221.731 -2.45954 1.68964 0
M  V30 2382 C 220.48 -3.46945 0.229073 0
M  V30 2383 H 219.803 -3.8718 0.996596 0
M  V30 2384 H 221.243 -4.23993 0.0251441 0
M  V30 2385 C 219.702 -3.2042 -1.04079 0
M  V30 2386 O 220.232 -3.41178 -2.12038 0
M  V30 2387 N 218.438 -2.74151 -0.963823 0
M  V30 2388 H 217.985 -2.57459 -0.0851722 0
M  V30 2389 H 217.943 -2.56781 -1.81414 0
M  V30 2390 N 221.715 -0.905404 -1.28997 0
M  V30 2391 C 222.945 -0.549049 -1.99171 0
M  V30 2392 C 223.353 0.87203 -1.67906 0
M  V30 2393 O 222.696 1.58796 -0.923561 0
M  V30 2394 C 222.758 -0.668306 -3.53234 0
M  V30 2395 C 222.422 -2.0574 -4.08069 0
M  V30 2396 C 223.419 -3.0292 -4.22534 0
M  V30 2397 C 221.104 -2.36833 -4.42962 0
M  V30 2398 C 223.098 -4.29314 -4.71135 0
M  V30 2399 C 220.785 -3.63467 -4.91258 0
M  V30 2400 C 221.783 -4.59522 -5.053 0
M  V30 2401 O 221.471 -5.83907 -5.52546 0
M  V30 2402 H 221.203 -0.208784 -0.64295 0
M  V30 2403 H 223.757 -1.21836 -1.65363 0
M  V30 2404 H 221.987 0.0580547 -3.86656 0
M  V30 2405 H 223.676 -0.320273 -4.04634 0
M  V30 2406 H 224.442 -2.80216 -3.95859 0
M  V30 2407 H 220.321 -1.62824 -4.31288 0
M  V30 2408 H 223.865 -5.04293 -4.8201 0
M  V30 2409 H 219.762 -3.86 -5.17372 0
M  V30 2410 H 220.53 -5.86578 -5.70849 0
M  V30 2411 N 223.193 1.4272 -0.668489 0
M  V30 2412 C 224.421 2.05966 -0.196348 0
M  V30 2413 C 224.836 1.50191 1.14403 0
M  V30 2414 O 224.193 0.639208 1.7094 0
M  V30 2415 C 224.244 3.61314 -0.115815 0
M  V30 2416 O 223.965 4.1502 -1.40322 0
M  V30 2417 C 225.466 4.41663 0.380579 0
M  V30 2418 H 222.686 0.663954 -0.0969829 0
M  V30 2419 H 225.23 1.82966 -0.913446 0
M  V30 2420 H 223.385 3.83448 0.551931 0
M  V30 2421 H 223.799 5.08832 -1.27243 0
M  V30 2422 H 225.273 5.5065 0.385848 0
M  V30 2423 H 225.75 4.15792 1.41471 0
M  V30 2424 H 226.356 4.24534 -0.255209 0
M  V30 2425 N 224.671 0.411399 1.52136 0
M  V30 2426 C 225.581 -0.419774 2.30814 0
M  V30 2427 C 226.597 -1.0515 1.38634 0
M  V30 2428 O 227.773 -1.05252 1.71709 0
M  V30 2429 C 224.838 -1.52019 3.11594 0
M  V30 2430 C 223.899 -0.91129 4.19516 0
M  V30 2431 C 223.132 -1.95927 4.96436 0
M  V30 2432 O 223.355 -3.17775 4.73683 0
M  V30 2433 O 222.289 -1.56423 5.81219 0
M  V30 2434 H 226.115 0.221805 3.02889 0
M  V30 2435 H 223.7 0.174547 1.48377 0
M  V30 2436 H 225.582 -2.15898 3.61892 0
M  V30 2437 H 224.257 -2.14633 2.42311 0
M  V30 2438 H 223.164 -0.235157 3.7336 0
M  V30 2439 H 224.497 -0.32904 4.91099 0
M  V30 2440 N 226.149 -1.5696 0.141893 0
M  V30 2441 C 227.096 -2.16501 -0.799737 0
M  V30 2442 C 228.066 -1.09643 -1.24771 0
M  V30 2443 O 229.251 -1.3766 -1.32115 0
M  V30 2444 C 226.391 -2.78679 -2.03549 0
M  V30 2445 C 225.504 -3.99914 -1.6338 0
M  V30 2446 C 224.639 -4.50106 -2.82096 0
M  V30 2447 C 223.678 -5.63819 -2.38275 0
M  V30 2448 N 222.815 -6.08651 -3.49983 0
M  V30 2449 H 227.655 -2.96632 -0.285179 0
M  V30 2450 H 225.192 -1.46533 -0.129053 0
M  V30 2451 H 227.15 -3.1287 -2.75986 0
M  V30 2452 H 225.78 -2.012 -2.52425 0
M  V30 2453 H 224.832 -3.71735 -0.807279 0
M  V30 2454 H 226.144 -4.82311 -1.27192 0
M  V30 2455 H 225.298 -4.86325 -3.62729 0
M  V30 2456 H 224.037 -3.66706 -3.21525 0
M  V30 2457 H 223.042 -5.2718 -1.56081 0
M  V30 2458 H 224.267 -6.49 -1.99938 0
M  V30 2459 H 222.213 -5.28188 -3.89042 0
M  V30 2460 H 222.13 -6.85961 -3.17794 0
M  V30 2461 H 223.398 -6.49515 -4.30988 0
M  V30 2462 N 227.627 0.131896 -1.57047 0
M  V30 2463 C 228.557 1.16384 -2.02428 0
M  V30 2464 C 229.538 1.43936 -0.90644 0
M  V30 2465 O 230.723 1.54599 -1.17528 0
M  V30 2466 C 227.853 2.49328 -2.4177 0
M  V30 2467 C 226.807 2.36266 -3.56879 0
M  V30 2468 C 226.133 3.74057 -3.8208 0
M  V30 2469 C 227.433 1.834 -4.89042 0
M  V30 2470 H 229.127 0.786433 -2.88887 0
M  V30 2471 H 226.673 0.376855 -1.38981 0
M  V30 2472 H 228.626 3.21759 -2.7212 0
M  V30 2473 H 227.35 2.88934 -1.52266 0
M  V30 2474 H 226.009 1.66286 -3.26718 0
M  V30 2475 H 225.657 4.11125 -2.89803 0
M  V30 2476 H 225.357 3.66174 -4.59554 0
M  V30 2477 H 226.881 4.48012 -4.1487 0
M  V30 2478 H 228.295 2.45636 -5.18011 0
M  V30 2479 H 226.692 1.8637 -5.70426 0
M  V30 2480 H 227.762 0.790662 -4.7841 0
M  V30 2481 N 229.106 1.52395 0.401703 0
M  V30 2482 C 230.354 1.66488 1.14569 0
M  V30 2483 C 230.675 0.400897 1.90835 0
M  V30 2484 O 229.945 -0.584415 1.8698 0
M  V30 2485 H 228.525 0.613672 0.425929 0
M  V30 2486 H 231.187 1.89464 0.457093 0
M  V30 2487 H 230.283 2.50942 1.85566 0
M  V30 2488 N 230.584 -0.659388 1.43143 0
M  V30 2489 C 231.83 -1.41984 1.45644 0
M  V30 2490 C 232.185 -1.92245 0.0771718 0
M  V30 2491 O 231.478 -1.68976 -0.903205 0
M  V30 2492 C 231.672 -2.62206 2.42864 0
M  V30 2493 C 231.501 -2.23711 3.90107 0
M  V30 2494 C 230.271 -2.12332 4.58523 0
M  V30 2495 C 232.469 -1.84384 4.80112 0
M  V30 2496 N 230.451 -1.67102 5.9072 0
M  V30 2497 C 231.822 -1.5019 6.01534 0
M  V30 2498 C 233.877 -1.71512 4.67427 0
M  V30 2499 C 232.58 -1.04414 7.11681 0
M  V30 2500 C 234.606 -1.27142 5.77572 0
M  V30 2501 C 233.968 -0.938808 6.98116 0
M  V30 2502 H 230.067 -0.515448 0.588079 0
M  V30 2503 H 232.651 -0.759409 1.79279 0
M  V30 2504 H 230.822 -3.25917 2.11265 0
M  V30 2505 H 232.554 -3.28877 2.35843 0
M  V30 2506 H 229.309 -2.31893 4.12944 0
M  V30 2507 H 229.733 -1.46866 6.60878 0
M  V30 2508 H 234.375 -1.95868 3.74694 0
M  V30 2509 H 232.093 -0.788061 8.04248 0
M  V30 2510 H 235.679 -1.17681 5.69774 0
M  V30 2511 H 234.559 -0.6007 7.81896 0
M  V30 2512 N 232.062 -1.29571 -0.897171 0
M  V30 2513 C 233.292 -1.20408 -1.67886 0
M  V30 2514 C 233.7 0.237429 -1.87704 0
M  V30 2515 O 233.043 1.17048 -1.41582 0
M  V30 2516 C 233.105 -1.84887 -3.08314 0
M  V30 2517 C 232.769 -3.34189 -3.11716 0
M  V30 2518 C 233.766 -4.30374 -2.91675 0
M  V30 2519 C 231.451 -3.75431 -3.33701 0
M  V30 2520 C 233.445 -5.65776 -2.93557 0
M  V30 2521 C 231.132 -5.10955 -3.35214 0
M  V30 2522 C 232.13 -6.05938 -3.15164 0
M  V30 2523 O 231.818 -7.38987 -3.1647 0
M  V30 2524 H 231.55 -0.418289 -0.531046 0
M  V30 2525 H 234.104 -1.71514 -1.13014 0
M  V30 2526 H 232.334 -1.28295 -3.64798 0
M  V30 2527 H 234.023 -1.70011 -3.6858 0
M  V30 2528 H 234.789 -3.99844 -2.74499 0
M  V30 2529 H 230.668 -3.01953 -3.48347 0
M  V30 2530 H 234.212 -6.39889 -2.77826 0
M  V30 2531 H 230.109 -5.4113 -3.51922 0
M  V30 2532 H 230.877 -7.47823 -3.3272 0
M  V30 2533 N 233.54 1.10788 -1.12088 0
M  V30 2534 C 234.49 2.15158 -0.754401 0
M  V30 2535 C 235.474 1.59026 0.244846 0
M  V30 2536 O 236.666 1.76927 0.0509097 0
M  V30 2537 C 233.795 3.42677 -0.206657 0
M  V30 2538 C 232.881 4.05751 -1.23398 0
M  V30 2539 N 233.272 4.43582 -2.43041 0
M  V30 2540 C 231.57 4.32764 -1.07848 0
M  V30 2541 C 232.271 4.93085 -3.08613 0
M  V30 2542 N 231.247 4.89664 -2.36072 0
M  V30 2543 H 235.049 2.42195 -1.6649 0
M  V30 2544 H 232.563 1.27872 -1.00112 0
M  V30 2545 H 234.56 4.16834 0.0740646 0
M  V30 2546 H 233.22 3.17101 0.698342 0
M  V30 2547 H 234.231 4.35395 -2.80449 0
M  V30 2548 H 230.908 4.16863 -0.230483 0
M  V30 2549 H 232.298 5.31933 -4.10483 0
M  V30 2550 N 235.018 0.912232 1.28515 0
M  V30 2551 C 236.243 0.559774 1.99703 0
M  V30 2552 C 236.668 -0.851393 1.67729 0
M  V30 2553 O 236.026 -1.56875 0.908834 0
M  V30 2554 C 236.074 0.773874 3.52198 0
M  V30 2555 O 235.178 -0.167842 4.12058 0
M  V30 2556 H 234.519 0.21723 0.627461 0
M  V30 2557 H 237.049 1.22725 1.63706 0
M  V30 2558 H 237.059 0.683386 4.02236 0
M  V30 2559 H 235.734 1.80261 3.74805 0
M  V30 2560 H 234.311 -0.0287509 3.72889 0
M  V30 2561 N 236.496 -1.42363 0.676048 0
M  V30 2562 C 237.429 -2.28141 -0.0516916 0
M  V30 2563 C 238.407 -1.41135 -0.807439 0
M  V30 2564 O 239.591 -1.70573 -0.802305 0
M  V30 2565 C 236.718 -3.21007 -1.08039 0
M  V30 2566 C 235.764 -4.24426 -0.420076 0
M  V30 2567 S 236.597 -5.29134 0.823246 0
M  V30 2568 C 237.753 -6.25566 -0.204344 0
M  V30 2569 H 237.986 -2.89515 0.675884 0
M  V30 2570 H 235.519 -1.47211 0.465635 0
M  V30 2571 H 237.477 -3.75048 -1.66881 0
M  V30 2572 H 236.138 -2.58766 -1.78042 0
M  V30 2573 H 235.331 -4.89596 -1.19633 0
M  V30 2574 H 234.933 -3.7388 0.0947845 0
M  V30 2575 H 237.225 -6.69098 -1.06369 0
M  V30 2576 H 238.168 -7.06895 0.412915 0
M  V30 2577 H 238.576 -5.61811 -0.55038 0
M  V30 2578 N 237.974 -0.419461 -1.51915 0
M  V30 2579 C 238.884 0.407528 -2.31033 0
M  V30 2580 C 239.9 1.04413 -1.3919 0
M  V30 2581 O 241.076 1.0434 -1.72265 0
M  V30 2582 C 238.141 1.50365 -3.12396 0
M  V30 2583 C 237.202 0.889029 -4.19994 0
M  V30 2584 C 236.435 1.93291 -4.97468 0
M  V30 2585 O 236.658 3.15259 -4.75361 0
M  V30 2586 O 235.592 1.53339 -5.8204 0
M  V30 2587 H 239.418 -0.237865 -3.02767 0
M  V30 2588 H 237.003 -0.182413 -1.48282 0
M  V30 2589 H 238.885 2.13975 -3.63032 0
M  V30 2590 H 237.56 2.13345 -2.43445 0
M  V30 2591 H 236.467 0.215353 -3.7348 0
M  V30 2592 H 237.8 0.302991 -4.91267 0
M  V30 2593 N 239.452 1.56882 -0.150215 0
M  V30 2594 C 240.415 2.1573 0.774157 0
M  V30 2595 C 241.415 1.0999 1.17298 0
M  V30 2596 O 242.605 1.35613 1.09338 0
M  V30 2597 C 239.737 2.72302 2.05096 0
M  V30 2598 H 240.93 2.98752 0.262201 0
M  V30 2599 H 238.483 1.55985 0.099248 0
M  V30 2600 H 239.218 1.92956 2.6065 0
M  V30 2601 H 239.003 3.49665 1.77416 0
M  V30 2602 H 240.493 3.17632 2.71109 0
M  V30 2603 N 240.93 -0.123565 1.57115 0
M  V30 2604 C 242.176 -0.833386 1.84885 0
M  V30 2605 C 242.509 -1.79742 0.735292 0
M  V30 2606 O 241.784 -1.92764 -0.25925 0
M  V30 2607 C 242.067 -1.5873 3.23228 0
M  V30 2608 C 241.92 -0.643183 4.45178 0
M  V30 2609 C 243.239 -2.54453 3.59085 0
M  V30 2610 H 240.358 -0.301518 0.6725 0
M  V30 2611 H 243 -0.097778 1.89748 0
M  V30 2612 H 241.15 -2.21438 3.19214 0
M  V30 2613 H 242.822 -0.0253015 4.61293 0
M  V30 2614 H 241.065 0.0456139 4.33776 0
M  V30 2615 H 241.736 -1.20724 5.38637 0
M  V30 2616 H 244.212 -2.01853 3.63861 0
M  V30 2617 H 243.088 -3.04238 4.5687 0
M  V30 2618 H 243.349 -3.36906 2.86264 0
M  V30 2619 N 242.408 -1.52605 -0.393616 0
M  V30 2620 C 243.824 -1.41753 -0.733357 0
M  V30 2621 C 244.024 -0.534293 -1.94287 0
M  V30 2622 O 243.08 -0.0059787 -2.52499 0
M  V30 2623 C 244.393 -2.84531 -0.972772 0
M  V30 2624 C 245.941 -2.93978 -1.07453 0
M  V30 2625 C 246.416 -4.37756 -1.3466 0
M  V30 2626 N 247.907 -4.4106 -1.41492 0
M  V30 2627 C 248.642 -5.49387 -1.642 0
M  V30 2628 N 248.138 -6.67806 -1.8441 0
M  V30 2629 N 249.931 -5.36923 -1.66342 0
M  V30 2630 H 242.082 -2.08555 0.402328 0
M  V30 2631 H 244.345 -0.940654 0.117789 0
M  V30 2632 H 244.051 -3.51353 -0.156204 0
M  V30 2633 H 243.925 -3.26508 -1.88871 0
M  V30 2634 H 246.312 -2.27326 -1.88167 0
M  V30 2635 H 246.393 -2.55435 -0.136605 0
M  V30 2636 H 246.037 -5.04972 -0.544581 0
M  V30 2637 H 245.967 -4.73848 -2.2973 0
M  V30 2638 H 248.458 -3.55705 -1.27601 0
M  V30 2639 H 248.771 -7.46141 -2.01231 0
M  V30 2640 H 247.116 -6.70843 -1.81644 0
M  V30 2641 H 250.307 -4.43381 -1.50102 0
M  V30 2642 H 250.48 -6.21416 -1.837 0
M  V30 2643 N 243.887 0.651787 -1.4349 0
M  V30 2644 C 245.303 0.96762 -1.26922 0
M  V30 2645 C 245.503 2.00602 -0.189982 0
M  V30 2646 O 244.559 2.48793 0.431107 0
M  V30 2647 C 245.872 1.45052 -2.63401 0
M  V30 2648 C 247.42 1.5671 -2.70945 0
M  V30 2649 C 247.895 2.0839 -4.07845 0
M  V30 2650 N 249.386 2.1569 -4.09917 0
M  V30 2651 C 250.121 2.56804 -5.12679 0
M  V30 2652 N 249.617 2.97203 -6.25813 0
M  V30 2653 N 251.41 2.56756 -5.00033 0
M  V30 2654 H 243.561 -0.0353158 -2.12371 0
M  V30 2655 H 245.824 0.0467858 -0.946845 0
M  V30 2656 H 245.53 0.761926 -3.43348 0
M  V30 2657 H 245.404 2.42529 -2.88894 0
M  V30 2658 H 247.791 2.2467 -1.9133 0
M  V30 2659 H 247.872 0.57662 -2.49216 0
M  V30 2660 H 247.516 1.41031 -4.87927 0
M  V30 2661 H 247.446 3.08271 -4.26938 0
M  V30 2662 H 249.937 1.87237 -3.28254 0
M  V30 2663 H 250.25 3.27328 -7.00055 0
M  V30 2664 H 248.595 2.95004 -6.29283 0
M  V30 2665 H 251.786 2.24572 -4.10713 0
M  V30 2666 H 251.959 2.88475 -5.80247 0
M  V30 2667 N 245.365 1.30045 0.890287 0
M  V30 2668 C 246.328 1.15963 1.977 0
M  V30 2669 C 247.328 0.0923777 1.60534 0
M  V30 2670 O 248.518 0.340071 1.70848 0
M  V30 2671 C 245.65 0.775451 3.31963 0
M  V30 2672 H 246.843 2.12502 2.11619 0
M  V30 2673 H 244.396 1.13366 1.07601 0
M  V30 2674 H 245.131 -0.189671 3.23745 0
M  V30 2675 H 244.916 1.54668 3.60306 0
M  V30 2676 H 246.406 0.700251 4.11687 0
M  V30 2677 N 246.843 -1.10192 1.12674 0
M  V30 2678 C 248.09 -1.82205 0.883606 0
M  V30 2679 C 248.418 -1.8532 -0.590492 0
M  V30 2680 O 247.673 -1.31137 -1.45264 0
M  V30 2681 C 247.972 -3.28552 1.4067 0
M  V30 2682 C 247.638 -3.45582 2.89627 0
M  V30 2683 C 246.3 -3.49937 3.30299 0
M  V30 2684 C 248.652 -3.50768 3.85501 0
M  V30 2685 C 245.98 -3.57049 4.65546 0
M  V30 2686 C 248.332 -3.59414 5.20581 0
M  V30 2687 C 246.996 -3.62034 5.60792 0
M  V30 2688 H 246.266 -0.666735 0.323334 0
M  V30 2689 H 248.913 -1.29868 1.40736 0
M  V30 2690 H 247.218 -3.83473 0.80347 0
M  V30 2691 H 248.915 -3.82788 1.19475 0
M  V30 2692 H 245.505 -3.42871 2.57172 0
M  V30 2693 H 249.689 -3.46651 3.55171 0
M  V30 2694 H 244.945 -3.57361 4.96088 0
M  V30 2695 H 249.119 -3.62371 5.94693 0
M  V30 2696 H 246.746 -3.67298 6.6558 0
M  V30 2697 N 248.321 -0.919034 -1.28029 0
M  V30 2698 C 249.737 -0.617972 -1.4715 0
M  V30 2699 C 249.937 0.835242 -1.83374 0
M  V30 2700 O 248.993 1.61388 -1.94191 0
M  V30 2701 C 250.306 -1.56041 -2.57044 0
M  V30 2702 C 251.854 -1.56769 -2.7091 0
M  V30 2703 C 252.329 -2.49688 -3.83953 0
M  V30 2704 N 253.82 -2.47845 -3.91314 0
M  V30 2705 C 254.555 -3.16437 -4.78179 0
M  V30 2706 N 254.051 -3.94376 -5.69596 0
M  V30 2707 N 255.844 -3.05498 -4.71834 0
M  V30 2708 H 247.995 -1.85866 -1.02798 0
M  V30 2709 H 250.258 -0.797506 -0.512531 0
M  V30 2710 H 249.964 -2.59671 -2.372 0
M  V30 2711 H 249.838 -1.29551 -3.54255 0
M  V30 2712 H 252.225 -0.538745 -2.90141 0
M  V30 2713 H 252.306 -1.87305 -1.74214 0
M  V30 2714 H 251.95 -3.52688 -3.65477 0
M  V30 2715 H 251.88 -2.16453 -4.80058 0
M  V30 2716 H 254.371 -1.91234 -3.25941 0
M  V30 2717 H 254.684 -4.43721 -6.32718 0
M  V30 2718 H 253.029 -3.98481 -5.69419 0
M  V30 2719 H 256.22 -2.44108 -3.99411 0
M  V30 2720 H 256.393 -3.59225 -5.39316 0
M  V30 2721 N 249.799 1.42003 -0.683588 0
M  V30 2722 C 251.045 2.01712 -0.209825 0
M  V30 2723 C 251.378 1.53968 1.18353 0
M  V30 2724 O 250.653 0.745661 1.79639 0
M  V30 2725 C 250.936 3.59202 -0.254197 0
M  V30 2726 C 250.789 4.17102 -1.68363 0
M  V30 2727 C 252.108 4.38344 0.392709 0
M  V30 2728 H 249.227 0.732891 -0.0777189 0
M  V30 2729 H 251.869 1.68909 -0.87004 0
M  V30 2730 H 250.019 3.87278 0.307954 0
M  V30 2731 H 251.691 3.99946 -2.29871 0
M  V30 2732 H 249.934 3.72597 -2.22157 0
M  V30 2733 H 250.605 5.26249 -1.6663 0
M  V30 2734 H 253.081 4.16011 -0.0859162 0
M  V30 2735 H 251.957 5.47901 0.331063 0
M  V30 2736 H 252.218 4.16887 1.47164 0
M  V30 2737 N 251.277 0.427512 1.51691 0
M  V30 2738 C 252.523 -0.134744 2.02953 0
M  V30 2739 C 252.878 -1.41235 1.30654 0
M  V30 2740 O 252.171 -1.87168 0.409713 0
M  V30 2741 C 252.365 -0.418249 3.54944 0
M  V30 2742 C 252.194 0.830327 4.41968 0
M  V30 2743 C 250.964 1.36097 4.86627 0
M  V30 2744 C 253.162 1.7137 4.84909 0
M  V30 2745 N 251.144 2.56311 5.57833 0
M  V30 2746 C 252.515 2.76195 5.55082 0
M  V30 2747 C 254.57 1.72928 4.66905 0
M  V30 2748 C 253.273 3.82512 6.09161 0
M  V30 2749 C 255.299 2.78175 5.21894 0
M  V30 2750 C 254.661 3.8172 5.92004 0
M  V30 2751 H 250.76 -0.0103958 0.781931 0
M  V30 2752 H 253.344 0.585981 1.85673 0
M  V30 2753 H 251.515 -1.10801 3.7226 0
M  V30 2754 H 253.247 -0.970999 3.92879 0
M  V30 2755 H 250.002 0.916311 4.64651 0
M  V30 2756 H 250.426 3.17242 5.98069 0
M  V30 2757 H 255.068 0.942081 4.12171 0
M  V30 2758 H 252.786 4.62077 6.62956 0
M  V30 2759 H 256.372 2.8031 5.09821 0
M  V30 2760 H 255.252 4.61821 6.33791 0
M  V30 2761 N 252.755 -1.56801 0.158532 0
M  V30 2762 C 253.665 -2.20916 -0.789518 0
M  V30 2763 C 254.681 -1.1969 -1.26294 0
M  V30 2764 O 255.857 -1.52308 -1.31773 0
M  V30 2765 C 252.922 -2.82727 -2.00665 0
M  V30 2766 C 251.983 -3.99114 -1.58134 0
M  V30 2767 C 251.216 -4.57968 -2.74045 0
M  V30 2768 O 251.439 -4.15704 -3.90572 0
M  V30 2769 O 250.373 -5.48047 -2.48855 0
M  V30 2770 H 254.199 -3.02464 -0.273681 0
M  V30 2771 H 251.784 -1.4924 -0.0690548 0
M  V30 2772 H 253.666 -3.21968 -2.71872 0
M  V30 2773 H 252.341 -2.04184 -2.51179 0
M  V30 2774 H 251.248 -3.64567 -0.839155 0
M  V30 2775 H 252.581 -4.79212 -1.12325 0
M  V30 2776 N 254.233 0.115231 -1.57178 0
M  V30 2777 C 255.165 1.16694 -1.97269 0
M  V30 2778 C 256.178 1.37445 -0.872502 0
M  V30 2779 O 257.367 1.36454 -1.15077 0
M  V30 2780 C 254.467 2.52627 -2.25905 0
M  V30 2781 C 253.64 2.52427 -3.57211 0
M  V30 2782 C 252.699 3.70134 -3.74016 0
M  V30 2783 O 251.725 3.53546 -4.46087 0
M  V30 2784 N 252.927 4.88844 -3.13068 0
M  V30 2785 H 255.692 0.82588 -2.88096 0
M  V30 2786 H 253.253 0.304461 -1.59011 0
M  V30 2787 H 255.245 3.29937 -2.34359 0
M  V30 2788 H 253.815 2.789 -1.41186 0
M  V30 2789 H 253.035 1.60805 -3.5991 0
M  V30 2790 H 254.323 2.49353 -4.43509 0
M  V30 2791 H 253.721 5.05225 -2.54489 0
M  V30 2792 H 252.278 5.63817 -3.27037 0
M  V30 2793 N 255.711 1.52812 0.385517 0
M  V30 2794 C 256.674 1.77188 1.45386 0
M  V30 2795 C 257.674 0.641953 1.4743 0
M  V30 2796 O 258.864 0.910033 1.4854 0
M  V30 2797 C 255.996 1.87582 2.8465 0
M  V30 2798 H 257.189 2.72583 1.25054 0
M  V30 2799 H 254.742 1.43586 0.617467 0
M  V30 2800 H 255.477 0.941849 3.10322 0
M  V30 2801 H 255.262 2.69748 2.84567 0
M  V30 2802 H 256.752 2.08102 3.62054 0
M  V30 2803 N 257.189 -0.644168 1.43834 0
M  V30 2804 C 258.417 -1.43147 1.49387 0
M  V30 2805 C 258.832 -1.88452 0.114583 0
M  V30 2806 O 258.189 -1.60047 -0.876989 0
M  V30 2807 C 258.24 -2.66046 2.44748 0
M  V30 2808 O 257.961 -2.22633 3.77314 0
M  V30 2809 C 259.462 -3.59311 2.59635 0
M  V30 2810 H 256.682 -0.439447 0.507077 0
M  V30 2811 H 259.226 -0.78895 1.88669 0
M  V30 2812 H 257.381 -3.26418 2.08638 0
M  V30 2813 H 257.795 -3.02216 4.28679 0
M  V30 2814 H 259.269 -4.42187 3.30416 0
M  V30 2815 H 259.746 -4.07259 1.64427 0
M  V30 2816 H 260.352 -3.04816 2.96593 0
M  V30 2817 N 258.668 -1.30515 -0.883378 0
M  V30 2818 C 260.079 -1.17509 -1.45081 0
M  V30 2819 C 260.43 0.223605 -1.94922 0
M  V30 2820 O 259.555 1.12041 -1.85137 0
M  V30 2821 C 260.15 -2.12715 -2.63701 0
M  V30 2822 C 258.709 -2.03682 -3.16529 0
M  V30 2823 C 257.856 -2.02706 -1.89224 0
M  V30 2824 H 260.807 -1.42762 -0.693165 0
M  V30 2825 H 260.828 -1.70891 -3.39965 0
M  V30 2826 H 260.34 -3.14505 -2.27395 0
M  V30 2827 H 258.441 -1.05039 -3.57488 0
M  V30 2828 H 258.554 -2.92146 -3.7972 0
M  V30 2829 H 256.918 -1.4753 -2.07622 0
M  V30 2830 H 257.701 -3.06229 -1.55174 0
M  V30 2831 N 260.146 1.09593 -1.13257 0
M  V30 2832 C 261.076 2.18214 -0.830946 0
M  V30 2833 C 262.057 1.68812 0.208966 0
M  V30 2834 O 263.242 1.9408 0.0682666 0
M  V30 2835 C 260.372 3.46051 -0.294296 0
M  V30 2836 C 259.326 4.08778 -1.26826 0
M  V30 2837 C 258.652 5.31419 -0.591449 0
M  V30 2838 C 259.952 4.51476 -2.62615 0
M  V30 2839 H 261.646 2.43703 -1.73923 0
M  V30 2840 H 259.192 1.17128 -0.837675 0
M  V30 2841 H 261.145 4.2134 -0.0709606 0
M  V30 2842 H 259.869 3.20079 0.649366 0
M  V30 2843 H 258.528 3.35505 -1.47756 0
M  V30 2844 H 258.176 5.01727 0.357633 0
M  V30 2845 H 257.876 5.74341 -1.24123 0
M  V30 2846 H 259.4 6.09433 -0.377355 0
M  V30 2847 H 260.814 5.17999 -2.45663 0
M  V30 2848 H 259.211 5.05277 -3.23752 0
M  V30 2849 H 260.281 3.63962 -3.20406 0
M  V30 2850 N 261.624 0.925811 1.2754 0
M  V30 2851 C 262.87 0.566092 1.94739 0
M  V30 2852 C 263.203 -0.890057 1.72603 0
M  V30 2853 O 262.478 -1.63467 1.05399 0
M  V30 2854 C 262.761 0.89054 3.48915 0
M  V30 2855 C 262.614 2.4003 3.80402 0
M  V30 2856 C 263.933 0.395101 4.38323 0
M  V30 2857 H 261.052 0.20714 0.707292 0
M  V30 2858 H 263.694 1.15725 1.50691 0
M  V30 2859 H 261.844 0.387452 3.86563 0
M  V30 2860 H 263.516 2.97494 3.52555 0
M  V30 2861 H 261.759 2.85028 3.2702 0
M  V30 2862 H 262.43 2.57785 4.8811 0
M  V30 2863 H 264.906 0.826241 4.07814 0
M  V30 2864 H 263.782 0.651086 5.45025 0
M  V30 2865 H 264.043 -0.704798 4.36446 0
M  V30 2866 N 263.102 -1.41638 0.69111 0
M  V30 2867 C 264.349 -2.01299 0.220193 0
M  V30 2868 C 264.677 -1.54715 -1.17871 0
M  V30 2869 O 263.932 -0.747193 -1.80874 0
M  V30 2870 C 264.231 -3.56714 0.221277 0
M  V30 2871 C 263.897 -4.22792 1.56709 0
M  V30 2872 C 262.559 -4.40557 1.93554 0
M  V30 2873 C 264.911 -4.59883 2.45268 0
M  V30 2874 C 262.239 -4.92688 3.18552 0
M  V30 2875 C 264.591 -5.13403 3.69595 0
M  V30 2876 C 263.255 -5.29379 4.06589 0
M  V30 2877 H 262.525 -0.736606 0.0805743 0
M  V30 2878 H 265.172 -1.69598 0.889319 0
M  V30 2879 H 263.477 -3.8818 -0.531391 0
M  V30 2880 H 265.174 -4.00678 -0.160547 0
M  V30 2881 H 261.764 -4.09336 1.2705 0
M  V30 2882 H 265.948 -4.45817 2.18084 0
M  V30 2883 H 261.204 -5.03242 3.47214 0
M  V30 2884 H 265.378 -5.41084 4.38407 0
M  V30 2885 H 263.005 -5.69537 5.03519 0
M  V30 2886 N 264.58 -0.43555 -1.51462 0
M  V30 2887 C 265.512 0.41257 -2.25456 0
M  V30 2888 C 266.525 0.987822 -1.29406 0
M  V30 2889 O 267.714 0.882266 -1.55172 0
M  V30 2890 C 264.814 1.58894 -2.99342 0
M  V30 2891 C 263.987 1.13288 -4.22474 0
M  V30 2892 C 263.046 2.17917 -4.78956 0
M  V30 2893 O 262.072 1.77425 -5.40841 0
M  V30 2894 N 263.274 3.50382 -4.62832 0
M  V30 2895 H 266.039 -0.221603 -2.9888 0
M  V30 2896 H 263.6 -0.264342 -1.59727 0
M  V30 2897 H 265.592 2.28508 -3.34015 0
M  V30 2898 H 264.162 2.12849 -2.28941 0
M  V30 2899 H 263.382 0.263881 -3.93316 0
M  V30 2900 H 264.67 0.805542 -5.02383 0
M  V30 2901 H 264.068 3.86013 -4.13534 0
M  V30 2902 H 262.625 4.15895 -5.01871 0
M  V30 2903 N 266.058 1.56714 -0.166846 0
M  V30 2904 C 266.968 2.21331 0.777791 0
M  V30 2905 C 267.984 1.20358 1.25658 0
M  V30 2906 O 269.16 1.53005 1.30964 0
M  V30 2907 C 266.225 2.83787 1.99163 0
M  V30 2908 C 265.286 3.99947 1.56016 0
M  V30 2909 C 264.519 4.59415 2.71613 0
M  V30 2910 O 264.742 4.17769 3.88362 0
M  V30 2911 O 263.676 5.49359 2.45945 0
M  V30 2912 H 267.502 3.02605 0.257636 0
M  V30 2913 H 265.087 1.49275 0.0611393 0
M  V30 2914 H 266.969 3.23405 2.70161 0
M  V30 2915 H 265.644 2.05513 2.50092 0
M  V30 2916 H 264.551 3.65007 0.819809 0
M  V30 2917 H 265.884 4.79801 1.09782 0
M  V30 2918 N 267.536 -0.106894 1.57237 0
M  V30 2919 C 268.782 -0.81373 1.85759 0
M  V30 2920 C 269.115 -1.78952 0.754315 0
M  V30 2921 O 268.39 -1.93029 -0.23879 0
M  V30 2922 C 268.673 -1.55293 3.24894 0
M  V30 2923 C 268.526 -0.595929 4.45835 0
M  V30 2924 C 269.845 -2.5063 3.61763 0
M  V30 2925 H 266.964 -0.294369 0.67566 0
M  V30 2926 H 269.606 -0.0776472 1.89841 0
M  V30 2927 H 267.756 -2.1804 3.21544 0
M  V30 2928 H 269.428 0.0236262 4.61294 0
M  V30 2929 H 267.671 0.0916191 4.33703 0
M  V30 2930 H 268.342 -1.15004 5.39887 0
M  V30 2931 H 270.818 -1.97982 3.65981 0
M  V30 2932 H 269.694 -2.99376 4.60071 0
M  V30 2933 H 269.955 -3.3385 2.89821 0
M  V30 2934 N 269.014 -1.53014 -0.377408 0
M  V30 2935 C 270.425 -1.60438 -0.954798 0
M  V30 2936 C 270.776 -0.464418 -1.90624 0
M  V30 2937 O 269.901 0.41087 -2.12464 0
M  V30 2938 C 270.496 -2.90797 -1.73847 0
M  V30 2939 C 269.055 -3.00595 -2.26538 0
M  V30 2940 C 268.202 -2.55645 -1.07429 0
M  V30 2941 H 271.153 -1.57926 -0.156575 0
M  V30 2942 H 271.174 -2.77935 -2.5987 0
M  V30 2943 H 270.686 -3.73746 -1.04574 0
M  V30 2944 H 268.787 -2.22208 -2.99089 0
M  V30 2945 H 268.9 -4.05456 -2.5523 0
M  V30 2946 H 267.264 -2.10239 -1.43777 0
M  V30 2947 H 268.047 -3.41 -0.396728 0
M  V30 2948 N 270.492 0.636531 -1.44174 0
M  V30 2949 C 271.722 1.42146 -1.49927 0
M  V30 2950 C 272.13 1.88812 -0.121063 0
M  V30 2951 O 271.473 1.61126 0.882267 0
M  V30 2952 C 271.535 2.67883 -2.39748 0
M  V30 2953 C 271.199 2.43048 -3.8701 0
M  V30 2954 C 272.196 2.05216 -4.77684 0
M  V30 2955 C 269.881 2.56856 -4.3166 0
M  V30 2956 C 271.875 1.81512 -6.11009 0
M  V30 2957 C 269.562 2.32766 -5.65034 0
M  V30 2958 C 270.56 1.95152 -6.54526 0
M  V30 2959 O 270.248 1.71326 -7.85431 0
M  V30 2960 H 269.98 0.442567 -0.51099 0
M  V30 2961 H 272.534 0.786158 -1.8976 0
M  V30 2962 H 270.764 3.34032 -1.94832 0
M  V30 2963 H 272.453 3.29874 -2.36513 0
M  V30 2964 H 273.219 1.94111 -4.44462 0
M  V30 2965 H 269.098 2.85104 -3.62266 0
M  V30 2966 H 272.642 1.52077 -6.80822 0
M  V30 2967 H 268.539 2.43479 -5.97819 0
M  V30 2968 H 269.307 1.85616 -7.97176 0
M  V30 2969 N 271.97 1.30982 0.876444 0
M  V30 2970 C 272.88 1.2003 2.01569 0
M  V30 2971 C 273.896 0.11838 1.73597 0
M  V30 2972 O 275.072 0.33495 1.98595 0
M  V30 2973 C 272.137 0.901637 3.34771 0
M  V30 2974 C 271.198 2.06979 3.76109 0
M  V30 2975 C 270.431 1.78529 5.02954 0
M  V30 2976 O 270.654 0.717296 5.65872 0
M  V30 2977 O 269.588 2.64019 5.40905 0
M  V30 2978 H 273.414 2.15753 2.13739 0
M  V30 2979 H 270.999 1.10658 1.00375 0
M  V30 2980 H 272.881 0.750645 4.1466 0
M  V30 2981 H 271.556 -0.0256141 3.2369 0
M  V30 2982 H 270.463 2.27616 2.96887 0
M  V30 2983 H 271.796 2.97907 3.91807 0
M  V30 2984 N 273.449 -1.08991 1.13837 0
M  V30 2985 C 274.726 -1.77863 0.813876 0
M  V30 2986 C 275.106 -1.99375 -0.693746 0
M  V30 2987 O 274.454 -1.59875 -1.63255 0
M  V30 2988 C 274.664 -3.0986 1.60586 0
M  V30 2989 C 276.012 -3.84493 1.8014 0
M  V30 2990 O 277.036 -3.19624 1.57222 0
M  V30 2991 O 275.895 -5.00957 2.18413 0
M  V30 2992 H 272.989 -0.771589 0.297624 0
M  V30 2993 H 275.535 -1.15507 1.24323 0
M  V30 2994 H 274.307 -2.89715 2.63022 0
M  V30 2995 H 273.93 -3.79942 1.17173 0
M  V30 2996 N 274.927 -0.932562 -1.27047 0
M  V30 2997 C 276.176 -0.571351 -1.93439 0
M  V30 2998 C 276.489 0.892467 -1.74053 0
M  V30 2999 O 277.695 1.36267 -2.34826 0
M  V30 3000 C 276.151 -0.97106 -3.46552 0
M  V30 3001 C 275.759 -2.4559 -3.74686 0
M  V30 3002 C 277.503 -0.681333 -4.18997 0
M  V30 3003 C 275.41 -2.79475 -5.21198 0
M  V30 3004 H 274.34 -0.209966 -0.724176 0
M  V30 3005 H 276.991 -1.13403 -1.44263 0
M  V30 3006 H 275.373 -0.336983 -3.94564 0
M  V30 3007 H 276.547 -3.13829 -3.37414 0
M  V30 3008 H 274.862 -2.71802 -3.15456 0
M  V30 3009 H 277.459 -0.910939 -5.26883 0
M  V30 3010 H 277.802 0.381628 -4.14547 0
M  V30 3011 H 278.335 -1.27473 -3.76823 0
M  V30 3012 H 275.074 -3.847 -5.30741 0
M  V30 3013 H 274.594 -2.1589 -5.596 0
M  V30 3014 H 276.273 -2.67478 -5.89122 0
M  V30 3015 N 276.405 1.4127 -0.698611 0
M  V30 3016 C 277.821 1.55241 -0.370462 0
M  V30 3017 C 278.021 1.67351 1.12231 0
M  V30 3018 O 277.077 1.65363 1.90818 0
M  V30 3019 C 278.39 2.78997 -1.12165 0
M  V30 3020 C 279.938 2.92797 -1.1063 0
M  V30 3021 C 280.413 4.19445 -1.8393 0
M  V30 3022 N 281.904 4.26409 -1.80914 0
M  V30 3023 C 282.639 5.23271 -2.34467 0
M  V30 3024 N 282.135 6.26145 -2.96504 0
M  V30 3025 N 283.928 5.15232 -2.24706 0
M  V30 3026 H 276.079 1.31654 -1.66676 0
M  V30 3027 H 278.342 0.635393 -0.703548 0
M  V30 3028 H 278.048 2.76268 -2.17644 0
M  V30 3029 H 277.922 3.70606 -0.702209 0
M  V30 3030 H 280.309 2.95039 -0.0597713 0
M  V30 3031 H 280.39 2.02353 -1.56483 0
M  V30 3032 H 280.034 4.17964 -2.88563 0
M  V30 3033 H 279.964 5.08866 -1.35509 0
M  V30 3034 H 282.455 3.527 -1.35687 0
M  V30 3035 H 282.768 6.96451 -3.34927 0
M  V30 3036 H 281.113 6.26638 -3.00583 0
M  V30 3037 H 284.304 4.33789 -1.7591 0
M  V30 3038 H 284.477 5.90552 -2.66745 0
M  V30 3039 N 277.883 0.443576 1.51229 0
M  V30 3040 C 278.813 -0.355142 2.30783 0
M  V30 3041 C 279.794 -1.0154 1.36468 0
M  V30 3042 O 280.979 -1.01785 1.65389 0
M  V30 3043 C 278.109 -1.45312 3.15439 0
M  V30 3044 C 277.063 -0.916002 4.18083 0
M  V30 3045 C 276.389 -2.1102 4.91299 0
M  V30 3046 C 277.689 0.0538602 5.22272 0
M  V30 3047 H 279.383 0.308767 2.97804 0
M  V30 3048 H 276.929 0.149937 1.43217 0
M  V30 3049 H 278.882 -2.01914 3.69876 0
M  V30 3050 H 277.606 -2.14541 2.46252 0
M  V30 3051 H 276.265 -0.372145 3.64706 0
M  V30 3052 H 275.913 -2.78882 4.18609 0
M  V30 3053 H 275.613 -1.75717 5.60712 0
M  V30 3054 H 277.137 -2.68164 5.48562 0
M  V30 3055 H 278.551 -0.422069 5.71744 0
M  V30 3056 H 276.948 0.319776 5.99247 0
M  V30 3057 H 278.018 0.98858 4.74716 0
M  V30 3058 N 279.361 -1.56624 0.175154 0
M  V30 3059 C 280.777 -1.58571 -0.180966 0
M  V30 3060 C 280.977 -1.19065 -1.6256 0
M  V30 3061 O 280.033 -0.904044 -2.35761 0
M  V30 3062 C 281.346 -3.00522 0.103326 0
M  V30 3063 C 282.894 -3.12972 0.0418426 0
M  V30 3064 C 283.369 -4.57022 0.299175 0
M  V30 3065 N 284.86 -4.62541 0.247086 0
M  V30 3066 C 285.595 -5.71857 0.420318 0
M  V30 3067 N 285.091 -6.89717 0.652816 0
M  V30 3068 N 286.884 -5.60972 0.355957 0
M  V30 3069 H 279.035 -1.80589 1.11809 0
M  V30 3070 H 281.298 -0.837178 0.444788 0
M  V30 3071 H 281.004 -3.33916 1.10422 0
M  V30 3072 H 280.878 -3.72344 -0.603299 0
M  V30 3073 H 283.265 -2.79403 -0.949636 0
M  V30 3074 H 283.346 -2.43578 0.781238 0
M  V30 3075 H 282.99 -4.913 1.28788 0
M  V30 3076 H 282.92 -5.24579 -0.460876 0
M  V30 3077 H 285.411 -3.77829 0.0731895 0
M  V30 3078 H 285.724 -7.68911 0.774347 0
M  V30 3079 H 284.069 -6.91572 0.689476 0
M  V30 3080 H 287.26 -4.67773 0.174882 0
M  V30 3081 H 287.433 -6.46111 0.494388 0
M  V30 3082 N 280.839 0.0985539 -1.57292 0
M  V30 3083 C 282.255 0.45267 -1.53046 0
M  V30 3084 C 282.455 1.80713 -0.891342 0
M  V30 3085 O 281.511 2.4785 -0.482375 0
M  V30 3086 C 282.824 0.418341 -2.97776 0
M  V30 3087 C 284.372 0.500443 -3.08973 0
M  V30 3088 C 284.847 0.496297 -4.55303 0
M  V30 3089 N 286.338 0.557151 -4.59837 0
M  V30 3090 C 287.073 0.575726 -5.70502 0
M  V30 3091 N 286.569 0.550714 -6.90608 0
M  V30 3092 N 288.362 0.620277 -5.58667 0
M  V30 3093 H 280.513 -0.788673 -1.97215 0
M  V30 3094 H 282.776 -0.293188 -0.901524 0
M  V30 3095 H 282.482 -0.509659 -3.47988 0
M  V30 3096 H 282.356 1.2386 -3.56284 0
M  V30 3097 H 284.743 1.41886 -2.58751 0
M  V30 3098 H 284.824 -0.347894 -2.53423 0
M  V30 3099 H 284.468 -0.418162 -5.06176 0
M  V30 3100 H 284.398 1.3618 -5.08687 0
M  V30 3101 H 286.889 0.581816 -3.73394 0
M  V30 3102 H 287.202 0.568075 -7.70709 0
M  V30 3103 H 285.547 0.517816 -6.93068 0
M  V30 3104 H 288.738 0.637322 -4.63741 0
M  V30 3105 H 288.911 0.631283 -6.44918 0
M  V30 3106 N 282.317 1.53212 0.369288 0
M  V30 3107 C 283.249 1.75668 1.47219 0
M  V30 3108 C 284.262 0.637387 1.49804 0
M  V30 3109 O 285.451 0.913561 1.5335 0
M  V30 3110 C 282.551 1.81818 2.85999 0
M  V30 3111 C 281.724 3.11409 3.07153 0
M  V30 3112 C 280.783 3.08849 4.26026 0
M  V30 3113 O 279.809 3.82659 4.2138 0
M  V30 3114 N 281.011 2.29409 5.33246 0
M  V30 3115 H 283.776 2.70832 1.28337 0
M  V30 3116 H 281.337 1.51944 0.55898 0
M  V30 3117 H 283.329 1.77588 3.63655 0
M  V30 3118 H 281.899 0.939544 2.98146 0
M  V30 3119 H 281.119 3.28971 2.1719 0
M  V30 3120 H 282.407 3.97059 3.18154 0
M  V30 3121 H 281.805 1.68946 5.39883 0
M  V30 3122 H 280.362 2.31001 6.09493 0
M  V30 3123 N 283.795 -0.628877 1.44509 0
M  V30 3124 C 284.742 -1.74074 1.51549 0
M  V30 3125 C 285.712 -1.62084 0.363021 0
M  V30 3126 O 286.897 -1.81975 0.573567 0
M  V30 3127 C 284.037 -3.12328 1.46784 0
M  V30 3128 C 283.15 -3.35277 2.72422 0
M  V30 3129 C 282.285 -4.63515 2.59475 0
M  V30 3130 C 281.324 -4.7965 3.80266 0
M  V30 3131 N 280.461 -5.99168 3.65981 0
M  V30 3132 H 285.301 -1.67392 2.46544 0
M  V30 3133 H 282.838 -0.816527 1.22357 0
M  V30 3134 H 284.796 -3.92286 1.42012 0
M  V30 3135 H 283.426 -3.18018 0.553544 0
M  V30 3136 H 282.478 -2.49242 2.87372 0
M  V30 3137 H 283.79 -3.43078 3.62076 0
M  V30 3138 H 282.944 -5.51638 2.52548 0
M  V30 3139 H 281.683 -4.58076 1.67384 0
M  V30 3140 H 280.688 -3.89957 3.87574 0
M  V30 3141 H 281.913 -4.86902 4.73395 0
M  V30 3142 H 279.859 -5.94814 2.76644 0
M  V30 3143 H 279.776 -6.08035 4.49254 0
M  V30 3144 H 281.044 -6.89846 3.6295 0
M  V30 3145 N 285.273 -1.31445 -0.869486 0
M  V30 3146 C 286.183 -1.21097 -2.0093 0
M  V30 3147 C 287.199 -0.127584 -1.73532 0
M  V30 3148 O 288.375 -0.345477 -1.98415 0
M  V30 3149 C 285.44 -0.919378 -3.34288 0
M  V30 3150 C 284.501 -2.08971 -3.75006 0
M  V30 3151 C 283.734 -1.81194 -5.02001 0
M  V30 3152 O 283.957 -0.747296 -5.65484 0
M  V30 3153 O 282.891 -2.66883 -5.39497 0
M  V30 3154 H 286.717 -2.16883 -2.12592 0
M  V30 3155 H 284.302 -1.11189 -0.997868 0
M  V30 3156 H 286.184 -0.772625 -4.14257 0
M  V30 3157 H 284.859 0.00844772 -3.23699 0
M  V30 3158 H 283.766 -2.29187 -2.95676 0
M  V30 3159 H 285.099 -2.9998 -3.90221 0
M  V30 3160 N 286.751 1.08385 -1.14413 0
M  V30 3161 C 287.714 2.13486 -0.834048 0
M  V30 3162 C 288.714 1.59988 0.161418 0
M  V30 3163 O 289.904 1.74071 -0.0669575 0
M  V30 3164 C 287.036 3.4003 -0.243354 0
M  V30 3165 H 288.229 2.42425 -1.7655 0
M  V30 3166 H 285.782 1.24101 -0.950189 0
M  V30 3167 H 286.517 3.16726 0.696807 0
M  V30 3168 H 286.302 3.80157 -0.960367 0
M  V30 3169 H 287.792 4.17577 -0.0436242 0
M  V30 3170 N 288.23 0.939286 1.26551 0
M  V30 3171 C 289.507 0.5038 1.89001 0
M  V30 3172 C 289.887 -1.01854 1.84903 0
M  V30 3173 O 289.235 -1.87773 1.30206 0
M  V30 3174 C 289.445 1.063 3.32417 0
M  V30 3175 C 290.793 1.13051 4.09273 0
M  V30 3176 O 291.817 1.01345 3.41479 0
M  V30 3177 O 290.676 1.31233 5.30509 0
M  V30 3178 H 287.77 0.163897 0.810597 0
M  V30 3179 H 290.316 1.03173 1.34735 0
M  V30 3180 H 289.088 2.10665 3.29752 0
M  V30 3181 H 288.711 0.517408 3.94219 0
M  V30 3182 N 289.708 -1.40897 0.706093 0
M  V30 3183 C 290.957 -2.00284 0.238574 0
M  V30 3184 C 291.27 -1.56604 -1.17194 0
M  V30 3185 O 292.476 -2.08624 -1.73748 0
M  V30 3186 C 290.932 -3.57934 0.375623 0
M  V30 3187 C 290.54 -4.10591 1.79217 0
M  V30 3188 C 292.284 -4.24488 -0.0315857 0
M  V30 3189 C 290.191 -5.60712 1.88032 0
M  V30 3190 H 289.121 -0.749144 0.0854398 0
M  V30 3191 H 291.772 -1.61251 0.875813 0
M  V30 3192 H 290.154 -3.94622 -0.330042 0
M  V30 3193 H 291.328 -3.85301 2.52745 0
M  V30 3194 H 289.643 -3.56601 2.15 0
M  V30 3195 H 292.24 -5.34698 0.0136842 0
M  V30 3196 H 292.583 -4.02261 -1.072 0
M  V30 3197 H 293.116 -3.92873 0.624181 0
M  V30 3198 H 289.855 -5.87781 2.90161 0
M  V30 3199 H 289.375 -5.87896 1.18903 0
M  V30 3200 H 291.054 -6.25658 1.64805 0
M  V30 3201 N 291.186 -0.45159 -1.50991 0
M  V30 3202 C 292.119 0.398179 -2.24699 0
M  V30 3203 C 293.097 1.01276 -1.27208 0
M  V30 3204 O 294.281 1.05247 -1.56382 0
M  V30 3205 C 291.408 1.55618 -3.00833 0
M  V30 3206 C 290.454 1.0609 -4.13095 0
M  V30 3207 S 291.287 -0.00865136 -5.35499 0
M  V30 3208 C 292.443 1.15369 -6.15175 0
M  V30 3209 H 292.676 -0.227555 -2.96428 0
M  V30 3210 H 290.209 -0.236251 -1.52582 0
M  V30 3211 H 292.167 2.21997 -3.45293 0
M  V30 3212 H 290.828 2.15337 -2.28667 0
M  V30 3213 H 290.021 1.92726 -4.65696 0
M  V30 3214 H 289.623 0.47513 -3.7097 0
M  V30 3215 H 291.915 2.06925 -6.45126 0
M  V30 3216 H 292.858 0.667344 -7.04948 0
M  V30 3217 H 293.266 1.3987 -5.46897 0
M  V30 3218 N 292.664 1.56529 -0.183458 0
M  V30 3219 C 293.91 1.97537 0.459036 0
M  V30 3220 C 294.243 1.06989 1.62071 0
M  V30 3221 O 293.518 0.11948 1.94133 0
M  V30 3222 C 293.801 3.47874 0.930368 0
M  V30 3223 C 293.654 4.492 -0.232317 0
M  V30 3224 C 294.973 4.01612 1.79989 0
M  V30 3225 H 292.092 0.718204 0.165383 0
M  V30 3226 H 294.734 1.88042 -0.272038 0
M  V30 3227 H 292.884 3.56095 1.55333 0
M  V30 3228 H 294.556 4.53027 -0.86972 0
M  V30 3229 H 292.799 4.24657 -0.885928 0
M  V30 3230 H 293.47 5.51823 0.139796 0
M  V30 3231 H 295.946 3.96097 1.27461 0
M  V30 3232 H 294.822 5.07195 2.09867 0
M  V30 3233 H 295.083 3.46163 2.74998 0
M  V30 3234 N 294.142 -0.090211 1.57342 0
M  V30 3235 C 295.072 -1.10976 2.05443 0
M  V30 3236 C 296.053 -1.41482 0.944284 0
M  V30 3237 O 297.238 -1.51428 1.21586 0
M  V30 3238 C 294.368 -2.42831 2.48295 0
M  V30 3239 C 293.322 -2.26721 3.63018 0
M  V30 3240 C 292.648 -3.63796 3.91863 0
M  V30 3241 C 293.948 -1.7037 4.93732 0
M  V30 3242 H 295.642 -0.709564 2.9087 0
M  V30 3243 H 293.188 -0.339874 1.39932 0
M  V30 3244 H 295.141 -3.14431 2.80555 0
M  V30 3245 H 293.865 -2.84795 1.59873 0
M  V30 3246 H 292.524 -1.57565 3.31012 0
M  V30 3247 H 292.172 -4.03297 3.00601 0
M  V30 3248 H 291.872 -3.53861 4.69101 0
M  V30 3249 H 293.396 -4.36855 4.26603 0
M  V30 3250 H 294.81 -2.31816 5.24342 0
M  V30 3251 H 293.207 -1.71181 5.75167 0
M  V30 3252 H 294.277 -0.663542 4.80339 0
M  V30 3253 N 295.62 -1.53406 -0.361157 0
M  V30 3254 C 296.867 -1.69802 -1.10333 0
M  V30 3255 C 297.195 -0.452087 -1.89173 0
M  V30 3256 O 296.45 0.566017 -1.87336 0
M  V30 3257 C 296.749 -2.90211 -2.08596 0
M  V30 3258 C 296.415 -4.26539 -1.46203 0
M  V30 3259 C 295.077 -4.6361 -1.28915 0
M  V30 3260 C 297.429 -5.113 -1.01101 0
M  V30 3261 C 294.757 -5.83075 -0.651157 0
M  V30 3262 C 297.109 -6.31415 -0.387007 0
M  V30 3263 C 295.773 -6.67195 -0.201657 0
M  V30 3264 H 295.043 -0.621351 -0.403737 0
M  V30 3265 H 297.69 -1.87598 -0.384609 0
M  V30 3266 H 295.995 -2.66946 -2.86788 0
M  V30 3267 H 297.692 -3.00091 -2.65982 0
M  V30 3268 H 294.282 -3.97352 -1.60653 0
M  V30 3269 H 298.466 -4.83206 -1.13249 0
M  V30 3270 H 293.722 -6.09385 -0.496006 0
M  V30 3271 H 297.896 -6.96394 -0.0293563 0
M  V30 3272 H 295.523 -7.59628 0.294766 0
M  V30 3273 N 297.098 0.621204 -1.44841 0
M  V30 3274 C 298.061 1.71459 -1.521 0
M  V30 3275 C 299.061 1.55696 -0.401933 0
M  V30 3276 O 300.251 1.61011 -0.664925 0
M  V30 3277 C 297.383 3.10624 -1.40447 0
M  V30 3278 H 298.576 1.66394 -2.49506 0
M  V30 3279 H 296.129 0.835745 -1.3208 0
M  V30 3280 H 296.864 3.21277 -0.441737 0
M  V30 3281 H 296.649 3.23473 -2.21602 0
M  V30 3282 H 298.139 3.90293 -1.4853 0
M  V30 3283 N 298.576 1.31904 0.862503 0
M  V30 3284 C 299.801 1.25135 1.65397 0
M  V30 3285 C 300.226 -0.179 1.87246 0
M  V30 3286 O 299.584 -1.1277 1.4196 0
M  V30 3287 C 299.632 2.00832 2.99498 0
M  V30 3288 O 298.736 1.35075 3.89652 0
M  V30 3289 H 298.077 0.431655 0.504549 0
M  V30 3290 H 300.607 1.74094 1.07483 0
M  V30 3291 H 300.617 2.10709 3.49379 0
M  V30 3292 H 299.292 3.04847 2.82916 0
M  V30 3293 H 297.869 1.33696 3.48109 0
M  V30 3294 N 300.054 -1.07777 1.14986 0
M  V30 3295 C 301.302 -1.79934 0.920235 0
M  V30 3296 C 301.623 -1.86955 -0.554336 0
M  V30 3297 O 300.893 -1.36731 -1.40291 0
M  V30 3298 H 299.473 -0.666424 0.337473 0
M  V30 3299 H 302.135 -1.3027 1.44968 0
M  V30 3300 H 301.231 -2.82539 1.32583 0
M  V30 3301 N 301.532 -0.945985 -1.26051 0
M  V30 3302 C 302.779 -0.596118 -1.93527 0
M  V30 3303 C 303.107 0.865559 -1.74179 0
M  V30 3304 O 302.362 1.63524 -1.0751 0
M  V30 3305 C 302.661 -0.890475 -3.46129 0
M  V30 3306 C 302.327 -2.3368 -3.85622 0
M  V30 3307 C 300.989 -2.73216 -3.96114 0
M  V30 3308 C 303.341 -3.27648 -4.05334 0
M  V30 3309 C 300.669 -4.05806 -4.2372 0
M  V30 3310 C 303.021 -4.59841 -4.3443 0
M  V30 3311 C 301.685 -4.99185 -4.43137 0
M  V30 3312 H 300.955 -0.218135 -0.708165 0
M  V30 3313 H 303.602 -1.1934 -1.49768 0
M  V30 3314 H 301.907 -0.210711 -3.91233 0
M  V30 3315 H 303.604 -0.598478 -3.96509 0
M  V30 3316 H 300.194 -2.02015 -3.78005 0
M  V30 3317 H 304.378 -2.98298 -3.96651 0
M  V30 3318 H 299.634 -4.35945 -4.28675 0
M  V30 3319 H 303.808 -5.32641 -4.48628 0
M  V30 3320 H 301.435 -6.01952 -4.64282 0
M  V30 3321 N 303.011 1.40521 -0.713556 0
M  V30 3322 C 303.961 2.27971 -0.036165 0
M  V30 3323 C 304.945 1.43151 0.734623 0
M  V30 3324 O 306.137 1.66261 0.607158 0
M  V30 3325 C 303.266 3.31661 0.886331 0
M  V30 3326 C 302.352 4.23955 0.110836 0
M  V30 3327 N 302.743 4.97641 -0.904847 0
M  V30 3328 C 301.041 4.44674 0.343692 0
M  V30 3329 C 301.742 5.65322 -1.37064 0
M  V30 3330 N 300.718 5.39162 -0.693168 0
M  V30 3331 H 304.52 2.82384 -0.814645 0
M  V30 3332 H 302.034 1.52948 -0.545963 0
M  V30 3333 H 304.031 3.93154 1.38692 0
M  V30 3334 H 302.691 2.78808 1.66421 0
M  V30 3335 H 303.702 5.01689 -1.28563 0
M  V30 3336 H 300.379 4.02801 1.09805 0
M  V30 3337 H 301.769 6.34359 -2.21447 0
M  V30 3338 N 304.489 0.459591 1.5075 0
M  V30 3339 C 305.737 -0.0991532 2.01857 0
M  V30 3340 C 306.058 -1.41247 1.34441 0
M  V30 3341 O 305.328 -1.89775 0.486022 0
M  V30 3342 H 303.908 -0.039633 0.745948 0
M  V30 3343 H 306.57 0.607387 1.85194 0
M  V30 3344 H 305.666 -0.258998 3.11023 0
M  V30 3345 N 305.967 -1.56429 0.191757 0
M  V30 3346 C 307.244 -1.89224 -0.495332 0
M  V30 3347 C 307.624 -1.10478 -1.79883 0
M  V30 3348 O 306.972 -0.204852 -2.2758 0
M  V30 3349 C 307.182 -3.41548 -0.717367 0
M  V30 3350 C 308.53 -4.11711 -1.03823 0
M  V30 3351 O 309.554 -3.4698 -0.805204 0
M  V30 3352 O 308.413 -5.2611 -1.47887 0
M  V30 3353 H 305.507 -0.785788 -0.25781 0
M  V30 3354 H 308.053 -1.68111 0.231721 0
M  V30 3355 H 306.825 -3.90772 0.203287 0
M  V30 3356 H 306.448 -3.68342 -1.497 0
M  V30 3357 N 307.445 0.0818655 -1.57387 0
M  V30 3358 C 308.67 0.799946 -1.91352 0
M  V30 3359 C 309.095 1.70833 -0.787258 0
M  V30 3360 O 308.453 1.79419 0.26048 0
M  V30 3361 C 308.501 1.57812 -3.24234 0
M  V30 3362 O 307.605 2.68806 -3.12757 0
M  V30 3363 H 306.946 0.21891 -0.626877 0
M  V30 3364 H 309.476 0.0531256 -2.04531 0
M  V30 3365 H 309.486 1.95952 -3.57864 0
M  V30 3366 H 308.161 0.911548 -4.05788 0
M  V30 3367 H 306.738 2.33597 -2.90666 0
M  V30 3368 N 308.923 1.53595 0.353017 0
M  V30 3369 C 310.148 1.7462 1.11904 0
M  V30 3370 C 310.573 0.479721 1.8188 0
M  V30 3371 O 309.931 -0.567066 1.72204 0
M  V30 3372 C 309.979 2.92029 2.11545 0
M  V30 3373 O 309.083 2.61516 3.18878 0
M  V30 3374 H 308.424 0.579531 0.324099 0
M  V30 3375 H 310.954 2.00525 0.406301 0
M  V30 3376 H 310.964 3.18551 2.5493 0
M  V30 3377 H 309.639 3.83888 1.60008 0
M  V30 3378 H 308.216 2.45852 2.80377 0
M  V30 3379 N 310.401 -0.613514 1.45168 0
M  V30 3380 C 311.812 -1.19539 1.43413 0
M  V30 3381 C 312.163 -1.95558 0.158632 0
M  V30 3382 O 311.288 -2.0335 -0.740119 0
M  V30 3383 C 311.883 -2.17445 2.59813 0
M  V30 3384 C 310.442 -2.71022 2.61197 0
M  V30 3385 C 309.589 -1.46323 2.35552 0
M  V30 3386 H 312.54 -0.403163 1.53494 0
M  V30 3387 H 312.561 -3.00373 2.33574 0
M  V30 3388 H 312.073 -1.62089 3.52631 0
M  V30 3389 H 310.174 -3.30332 1.7237 0
M  V30 3390 H 310.287 -3.15859 3.60236 0
M  V30 3391 H 308.651 -1.75072 1.84992 0
M  V30 3392 H 309.434 -0.92844 3.30507 0
M  V30 3393 N 311.879 -1.3236 -0.855495 0
M  V30 3394 C 313.126 -1.22872 -1.60962 0
M  V30 3395 C 313.454 0.209658 -1.93367 0
M  V30 3396 O 312.709 1.16243 -1.57436 0
M  V30 3397 C 313.008 -2.03275 -2.93963 0
M  V30 3398 C 312.674 -3.5264 -2.80991 0
M  V30 3399 C 311.336 -3.93364 -2.7716 0
M  V30 3400 C 313.688 -4.47626 -2.66983 0
M  V30 3401 C 311.016 -5.27319 -2.572 0
M  V30 3402 C 313.368 -5.81723 -2.48558 0
M  V30 3403 C 312.032 -6.2165 -2.4312 0
M  V30 3404 H 311.302 -0.44962 -0.589001 0
M  V30 3405 H 313.949 -1.63777 -0.992442 0
M  V30 3406 H 312.254 -1.55095 -3.59795 0
M  V30 3407 H 313.951 -1.93303 -3.51333 0
M  V30 3408 H 310.541 -3.20295 -2.84797 0
M  V30 3409 H 314.725 -4.17084 -2.68988 0
M  V30 3410 H 309.981 -5.57311 -2.51424 0
M  V30 3411 H 314.155 -6.5494 -2.36699 0
M  V30 3412 H 311.782 -7.25388 -2.27412 0
M  V30 3413 N 313.357 1.07166 -1.15556 0
M  V30 3414 C 314.634 1.76546 -0.842069 0
M  V30 3415 C 315.014 2.00453 0.661939 0
M  V30 3416 O 314.362 1.62452 1.60691 0
M  V30 3417 C 314.572 3.07266 -1.65495 0
M  V30 3418 C 315.92 3.81578 -1.86234 0
M  V30 3419 O 316.944 3.17083 -1.62287 0
M  V30 3420 O 315.803 4.97419 -2.26355 0
M  V30 3421 H 312.897 0.766756 -0.309862 0
M  V30 3422 H 315.443 1.13514 -1.26145 0
M  V30 3423 H 314.215 2.85494 -2.67598 0
M  V30 3424 H 313.838 3.7803 -1.23203 0
M  V30 3425 N 314.835 0.952656 1.25548 0
M  V30 3426 C 316.083 0.605176 1.92826 0
M  V30 3427 C 316.404 -0.860261 1.74999 0
M  V30 3428 O 315.674 -1.6125 1.11244 0
M  V30 3429 H 314.254 0.220832 0.713612 0
M  V30 3430 H 316.916 1.21047 1.52754 0
M  V30 3431 H 316.012 0.832798 3.00784 0
M  V30 3432 N 316.313 -1.40141 0.720998 0
M  V30 3433 C 317.541 -2.05096 0.272656 0
M  V30 3434 C 317.956 -1.54334 -1.0875 0
M  V30 3435 O 317.313 -0.702211 -1.6845 0
M  V30 3436 C 317.364 -3.60636 0.249835 0
M  V30 3437 O 317.085 -4.09526 1.55629 0
M  V30 3438 C 318.586 -4.42772 -0.216396 0
M  V30 3439 H 315.806 -0.659897 0.121558 0
M  V30 3440 H 318.35 -1.79449 0.980723 0
M  V30 3441 H 316.505 -3.85232 -0.409237 0
M  V30 3442 H 316.919 -5.03758 1.4604 0
M  V30 3443 H 318.393 -5.51702 -0.181212 0
M  V30 3444 H 318.87 -4.20756 -1.25941 0
M  V30 3445 H 319.476 -4.23294 0.412596 0
M  V30 3446 N 317.792 -0.46758 -1.50504 0
M  V30 3447 C 319.04 0.0884469 -2.01906 0
M  V30 3448 C 319.361 1.40532 -1.35188 0
M  V30 3449 O 318.631 1.89515 -0.496079 0
M  V30 3450 H 317.211 0.0356765 -0.746148 0
M  V30 3451 H 319.873 -0.6172 -1.84869 0
M  V30 3452 H 318.969 0.2425 -3.11156 0
M  V30 3453 N 319.27 1.56325 -0.20005 0
M  V30 3454 C 320.518 1.97329 0.436547 0
M  V30 3455 C 320.839 1.08826 1.61808 0
M  V30 3456 O 320.109 0.160604 1.95241 0
M  V30 3457 H 318.689 0.728714 0.164272 0
M  V30 3458 H 321.351 1.92761 -0.287937 0
M  V30 3459 H 320.447 3.02264 0.777353 0
M  V30 3460 N 320.748 -0.0735177 1.57428 0
M  V30 3461 C 321.995 -0.772999 1.87166 0
M  V30 3462 C 322.323 -1.77665 0.791551 0
M  V30 3463 O 321.578 -1.94541 -0.212636 0
M  V30 3464 C 321.877 -1.51799 3.23561 0
M  V30 3465 C 321.543 -0.654484 4.46125 0
M  V30 3466 C 320.205 -0.416511 4.79394 0
M  V30 3467 C 322.557 -0.0555862 5.2117 0
M  V30 3468 C 319.885 0.429869 5.85123 0
M  V30 3469 C 322.237 0.778239 6.27795 0
M  V30 3470 C 320.901 1.0261 6.59566 0
M  V30 3471 H 320.171 -0.282861 0.684888 0
M  V30 3472 H 322.818 -0.0338272 1.9147 0
M  V30 3473 H 321.123 -2.32932 3.1504 0
M  V30 3474 H 322.82 -2.06397 3.43804 0
M  V30 3475 H 319.41 -0.850091 4.20085 0
M  V30 3476 H 323.594 -0.226558 4.95783 0
M  V30 3477 H 318.85 0.630665 6.08139 0
M  V30 3478 H 323.024 1.24906 6.85107 0
M  V30 3479 H 320.651 1.68371 7.4132 0
M  V30 3480 N 322.226 -1.5378 -0.344866 0
M  V30 3481 C 323.156 -1.84662 -1.42906 0
M  V30 3482 C 324.137 -0.701648 -1.54955 0
M  V30 3483 O 325.322 -0.953438 -1.69184 0
M  V30 3484 C 322.452 -2.05503 -2.79974 0
M  V30 3485 C 321.406 -3.21318 -2.82734 0
M  V30 3486 C 320.732 -3.2749 -4.22675 0
M  V30 3487 C 322.032 -4.59456 -2.48389 0
M  V30 3488 H 323.726 -2.75461 -1.17311 0
M  V30 3489 H 321.272 -1.32542 -0.562896 0
M  V30 3490 H 323.225 -2.25691 -3.55867 0
M  V30 3491 H 321.949 -1.11434 -3.07002 0
M  V30 3492 H 320.608 -3.00984 -2.09294 0
M  V30 3493 H 320.256 -2.31019 -4.4681 0
M  V30 3494 H 319.956 -4.05316 -4.25433 0
M  V30 3495 H 321.48 -3.49887 -5.00412 0
M  V30 3496 H 322.894 -4.79667 -3.13995 0
M  V30 3497 H 321.291 -5.39675 -2.62432 0
M  V30 3498 H 322.361 -4.63155 -1.4358 0
M  V30 3499 N 323.704 0.605807 -1.45491 0
M  V30 3500 C 324.667 1.69836 -1.5391 0
M  V30 3501 C 325.667 1.55261 -0.418424 0
M  V30 3502 O 326.857 1.60296 -0.681965 0
M  V30 3503 C 323.989 3.09117 -1.43734 0
M  V30 3504 H 325.182 1.63738 -2.51257 0
M  V30 3505 H 322.735 0.821689 -1.32959 0
M  V30 3506 H 323.47 3.20791 -0.475788 0
M  V30 3507 H 323.255 3.21104 -2.25021 0
M  V30 3508 H 324.745 3.88696 -1.52661 0
M  V30 3509 N 325.182 1.32811 0.848464 0
M  V30 3510 C 326.132 1.18842 1.94578 0
M  V30 3511 C 327.116 0.0937517 1.60627 0
M  V30 3512 O 328.308 0.320887 1.74067 0
M  V30 3513 C 325.437 0.91999 3.30743 0
M  V30 3514 C 324.523 2.05665 3.70894 0
M  V30 3515 N 324.914 3.30579 3.8282 0
M  V30 3516 C 323.212 1.9612 4.00566 0
M  V30 3517 C 323.913 4.05067 4.17487 0
M  V30 3518 N 322.889 3.33419 4.2934 0
M  V30 3519 H 326.691 2.13536 2.0194 0
M  V30 3520 H 324.205 1.2468 1.0406 0
M  V30 3521 H 326.202 0.800859 4.09136 0
M  V30 3522 H 324.862 -0.0185076 3.24695 0
M  V30 3523 H 325.873 3.65441 3.66978 0
M  V30 3524 H 322.55 1.09871 4.02784 0
M  V30 3525 H 323.94 5.12815 4.34131 0
M  V30 3526 N 326.66 -1.06551 1.16123 0
M  V30 3527 C 327.623 -2.12132 0.867906 0
M  V30 3528 C 328.623 -1.60224 -0.135944 0
M  V30 3529 O 329.813 -1.73943 0.0946422 0
M  V30 3530 C 326.945 -3.396 0.297419 0
M  V30 3531 H 328.138 -2.39586 1.80385 0
M  V30 3532 H 325.691 -1.22574 0.969812 0
M  V30 3533 H 326.426 -3.17794 -0.64633 0
M  V30 3534 H 326.211 -3.78581 1.02073 0
M  V30 3535 H 327.701 -4.17455 0.110052 0
M  V30 3536 N 328.138 -0.959301 -1.25041 0
M  V30 3537 C 329.368 -0.63303 -1.96663 0
M  V30 3538 C 329.776 0.800031 -1.71453 0
M  V30 3539 O 329.119 1.54736 -0.99008 0
M  V30 3540 C 329.181 -0.817523 -3.50081 0
M  V30 3541 C 328.845 -2.22863 -3.98975 0
M  V30 3542 C 329.842 -3.20569 -4.09306 0
M  V30 3543 C 327.527 -2.55407 -4.32519 0
M  V30 3544 C 329.521 -4.4891 -4.52503 0
M  V30 3545 C 327.208 -3.83976 -4.754 0
M  V30 3546 C 328.206 -4.8054 -4.85356 0
M  V30 3547 O 327.894 -6.06817 -5.27284 0
M  V30 3548 H 327.626 -0.235866 -0.633516 0
M  V30 3549 H 330.18 -1.2874 -1.60047 0
M  V30 3550 H 328.41 -0.105992 -3.86555 0
M  V30 3551 H 330.099 -0.491604 -4.02912 0
M  V30 3552 H 330.865 -2.96753 -3.83618 0
M  V30 3553 H 326.744 -1.8097 -4.23994 0
M  V30 3554 H 330.288 -5.24283 -4.60188 0
M  V30 3555 H 326.185 -4.07596 -5.00535 0
M  V30 3556 H 326.953 -6.10262 -5.45457 0
M  V30 3557 N 329.616 1.39756 -0.72842 0
M  V30 3558 C 330.863 2.00645 -0.273487 0
M  V30 3559 C 331.191 1.57786 1.13727 0
M  V30 3560 O 330.446 0.794886 1.7883 0
M  V30 3561 C 330.745 3.56002 -0.315776 0
M  V30 3562 C 330.411 4.18489 -1.67863 0
M  V30 3563 C 329.073 4.3527 -2.05166 0
M  V30 3564 C 331.425 4.53219 -2.57375 0
M  V30 3565 C 328.753 4.84069 -3.31503 0
M  V30 3566 C 331.105 5.03423 -3.83077 0
M  V30 3567 C 329.769 5.18413 -4.20481 0
M  V30 3568 H 329.039 0.734211 -0.100076 0
M  V30 3569 H 331.686 1.6718 -0.933972 0
M  V30 3570 H 329.991 3.89452 0.428285 0
M  V30 3571 H 331.688 4.00963 0.0542575 0
M  V30 3572 H 328.278 4.05824 -1.37858 0
M  V30 3573 H 332.462 4.39878 -2.29827 0
M  V30 3574 H 327.718 4.93859 -3.60435 0
M  V30 3575 H 331.892 5.2927 -4.52599 0
M  V30 3576 H 329.519 5.55987 -5.18443 0
M  V30 3577 N 331.094 0.475555 1.50254 0
M  V30 3578 C 332.505 0.0215174 1.86688 0
M  V30 3579 C 332.856 -1.38467 1.39001 0
M  V30 3580 O 331.981 -2.02732 0.756894 0
M  V30 3581 C 332.576 0.0322715 3.38785 0
M  V30 3582 C 331.135 -0.366314 3.74613 0
M  V30 3583 C 330.282 0.415832 2.74164 0
M  V30 3584 H 333.233 0.689612 1.42934 0
M  V30 3585 H 333.254 -0.76889 3.7265 0
M  V30 3586 H 332.766 1.05584 3.73462 0
M  V30 3587 H 330.867 -1.39406 3.45538 0
M  V30 3588 H 330.98 -0.064555 4.79057 0
M  V30 3589 H 329.344 -0.131048 2.54363 0
M  V30 3590 H 330.127 1.43899 3.11686 0
M  V30 3591 N 332.573 -1.56217 0.208337 0
M  V30 3592 C 333.821 -1.97558 -0.426076 0
M  V30 3593 C 334.142 -1.09683 -1.61229 0
M  V30 3594 O 333.412 -0.170956 -1.95153 0
M  V30 3595 H 331.992 -0.729575 -0.160405 0
M  V30 3596 H 334.654 -1.92606 0.298155 0
M  V30 3597 H 333.75 -3.02672 -0.761312 0
M  V30 3598 N 334.051 0.0651679 -1.57465 0
M  V30 3599 C 335.462 0.616213 -1.76238 0
M  V30 3600 C 335.813 1.7756 -0.834689 0
M  V30 3601 O 334.938 2.1639 -0.0204156 0
M  V30 3602 C 335.533 1.12462 -3.1959 0
M  V30 3603 C 334.092 1.62147 -3.39684 0
M  V30 3604 C 333.239 0.543739 -2.71917 0
M  V30 3605 H 336.19 -0.161022 -1.57881 0
M  V30 3606 H 336.211 1.99324 -3.24114 0
M  V30 3607 H 335.723 0.280592 -3.87084 0
M  V30 3608 H 333.824 2.48854 -2.77313 0
M  V30 3609 H 333.937 1.69385 -4.48158 0
M  V30 3610 H 332.301 0.990352 -2.34657 0
M  V30 3611 H 333.084 -0.290216 -3.42071 0
M  V30 3612 N 335.529 1.53961 0.336706 0
M  V30 3613 C 336.777 1.71197 1.07405 0
M  V30 3614 C 337.098 0.481475 1.88962 0
M  V30 3615 O 336.368 -0.504585 1.8929 0
M  V30 3616 H 334.948 0.631185 0.399517 0
M  V30 3617 H 337.61 1.91232 0.376323 0
M  V30 3618 H 336.706 2.58587 1.74755 0
M  V30 3619 N 337.007 -0.598083 1.45811 0
M  V30 3620 C 337.937 -1.71873 1.58057 0
M  V30 3621 C 338.918 -1.64533 0.431615 0
M  V30 3622 O 340.103 -1.82787 0.65595 0
M  V30 3623 C 337.233 -3.10495 1.55597 0
M  V30 3624 C 336.187 -3.32654 2.69305 0
M  V30 3625 C 335.513 -4.71646 2.51902 0
M  V30 3626 C 336.813 -3.21981 4.11248 0
M  V30 3627 H 338.507 -1.61881 2.51863 0
M  V30 3628 H 336.053 -0.777372 1.21214 0
M  V30 3629 H 338.006 -3.88699 1.6276 0
M  V30 3630 H 336.73 -3.2135 0.583255 0
M  V30 3631 H 335.389 -2.56843 2.61586 0
M  V30 3632 H 335.037 -4.79246 1.52748 0
M  V30 3633 H 334.737 -4.87426 3.2816 0
M  V30 3634 H 336.261 -5.52038 2.60933 0
M  V30 3635 H 337.675 -3.90049 4.20161 0
M  V30 3636 H 336.072 -3.49289 4.87972 0
M  V30 3637 H 337.142 -2.1928 4.32486 0
M  V30 3638 N 338.485 -1.33259 -0.841409 0
M  V30 3639 C 339.733 -1.24326 -1.59334 0
M  V30 3640 C 340.054 0.191564 -1.94057 0
M  V30 3641 O 339.324 1.11967 -1.60749 0
M  V30 3642 H 337.904 -0.457174 -0.590763 0
M  V30 3643 H 340.566 -1.66947 -1.00571 0
M  V30 3644 H 339.662 -1.8352 -2.52442 0
M  V30 3645 N 339.963 1.05934 -1.16686 0
M  V30 3646 C 341.211 1.78447 -0.948744 0
M  V30 3647 C 341.532 1.87813 0.524523 0
M  V30 3648 O 340.802 1.38945 1.38098 0
M  V30 3649 H 339.382 0.660971 -0.348033 0
M  V30 3650 H 342.044 1.27947 -1.47022 0
M  V30 3651 H 341.14 2.80394 -1.37061 0
M  V30 3652 N 341.441 0.965919 1.2453 0
M  V30 3653 C 342.718 0.543777 1.87889 0
M  V30 3654 C 343.098 -0.97909 1.87021 0
M  V30 3655 O 342.446 -1.84969 1.3416 0
M  V30 3656 C 342.656 1.13327 3.30088 0
M  V30 3657 C 344.004 1.21707 4.06783 0
M  V30 3658 O 345.028 1.08566 3.39252 0
M  V30 3659 O 343.887 1.42456 5.27606 0
M  V30 3660 H 340.981 0.181054 0.806938 0
M  V30 3661 H 343.527 1.06007 1.32516 0
M  V30 3662 H 342.299 2.17612 3.25209 0
M  V30 3663 H 341.922 0.600911 3.93033 0
M  V30 3664 N 342.919 -1.39368 0.735821 0
M  V30 3665 C 344.147 -2.04795 0.294393 0
M  V30 3666 C 344.562 -1.55478 -1.07107 0
M  V30 3667 O 343.919 -0.720038 -1.67695 0
M  V30 3668 C 343.97 -3.6035 0.288071 0
M  V30 3669 O 343.691 -4.07852 1.59963 0
M  V30 3670 C 345.192 -4.42976 -0.169422 0
M  V30 3671 H 342.412 -0.658571 0.128551 0
M  V30 3672 H 344.956 -1.78399 0.999701 0
M  V30 3673 H 343.111 -3.85645 -0.368355 0
M  V30 3674 H 343.525 -5.02181 1.51375 0
M  V30 3675 H 344.999 -5.51864 -0.122687 0
M  V30 3676 H 345.476 -4.22068 -1.21472 0
M  V30 3677 H 346.082 -4.22832 0.457469 0
M  V30 3678 N 344.397 -0.483516 -1.5 0
M  V30 3679 C 345.347 0.32306 -2.257 0
M  V30 3680 C 346.331 0.950755 -1.29805 0
M  V30 3681 O 347.523 0.861247 -1.54634 0
M  V30 3682 C 344.652 1.39724 -3.13579 0
M  V30 3683 C 343.738 0.776663 -4.16928 0
M  V30 3684 N 344.129 -0.1104 -5.0568 0
M  V30 3685 C 342.427 1.03922 -4.33724 0
M  V30 3686 C 343.128 -0.46387 -5.79848 0
M  V30 3687 N 342.104 0.163987 -5.43353 0
M  V30 3688 H 345.906 -0.360086 -2.91686 0
M  V30 3689 H 343.42 -0.298456 -1.59634 0
M  V30 3690 H 345.417 1.98837 -3.66428 0
M  V30 3691 H 344.077 2.08225 -2.49143 0
M  V30 3692 H 345.088 -0.480069 -5.1567 0
M  V30 3693 H 341.765 1.71829 -3.80501 0
M  V30 3694 H 343.155 -1.18854 -6.61304 0
M  V30 3695 N 345.875 1.56104 -0.216619 0
M  V30 3696 C 347.122 1.98172 0.416416 0
M  V30 3697 C 347.45 1.10413 1.60122 0
M  V30 3698 O 346.705 0.147967 1.9514 0
M  V30 3699 C 347.004 3.45923 0.898464 0
M  V30 3700 C 346.67 4.50559 -0.175288 0
M  V30 3701 C 345.332 4.78897 -0.470271 0
M  V30 3702 C 347.684 5.1334 -0.901728 0
M  V30 3703 C 345.012 5.67299 -1.4963 0
M  V30 3704 C 347.364 6.02853 -1.91705 0
M  V30 3705 C 346.028 6.29537 -2.21901 0
M  V30 3706 H 345.298 0.725164 0.152377 0
M  V30 3707 H 347.945 1.88839 -0.318103 0
M  V30 3708 H 346.25 3.52434 1.71165 0
M  V30 3709 H 347.947 3.75841 1.39803 0
M  V30 3710 H 344.537 4.28551 0.0647806 0
M  V30 3711 H 348.721 4.91521 -0.687072 0
M  V30 3712 H 343.977 5.86239 -1.73592 0
M  V30 3713 H 348.151 6.50552 -2.48505 0
M  V30 3714 H 345.778 6.97835 -3.01548 0
M  V30 3715 N 347.353 -0.0568162 1.57498 0
M  V30 3716 C 348.63 -0.786954 1.79071 0
M  V30 3717 C 349.01 -1.95028 0.80792 0
M  V30 3718 O 348.358 -2.27968 -0.155858 0
M  V30 3719 C 348.568 -1.24594 3.26002 0
M  V30 3720 C 349.916 -1.67323 3.90241 0
M  V30 3721 O 350.94 -1.34124 3.29984 0
M  V30 3722 O 349.799 -2.28842 4.9628 0
M  V30 3723 H 346.893 -0.378262 0.735423 0
M  V30 3724 H 349.439 -0.035734 1.69662 0
M  V30 3725 H 348.211 -0.41423 3.89101 0
M  V30 3726 H 347.834 -2.05803 3.40192 0
M  V30 3727 N 348.832 -1.54138 -0.328536 0
M  V30 3728 C 349.795 -1.82462 -1.38709 0
M  V30 3729 C 350.795 -0.696229 -1.44946 0
M  V30 3730 O 351.985 -0.964535 -1.4506 0
M  V30 3731 C 349.117 -1.98018 -2.77492 0
M  V30 3732 H 350.31 -2.77037 -1.14851 0
M  V30 3733 H 347.863 -1.45779 -0.563751 0
M  V30 3734 H 348.598 -1.05637 -3.06613 0
M  V30 3735 H 348.383 -2.80124 -2.74359 0
M  V30 3736 H 349.873 -2.21396 -3.54081 0
M  V30 3737 N 350.31 0.590341 -1.46126 0
M  V30 3738 C 351.587 1.35029 -1.41515 0
M  V30 3739 C 351.967 2.10888 -0.0946472 0
M  V30 3740 O 351.315 2.08998 0.923693 0
M  V30 3741 C 351.525 2.28269 -2.63997 0
M  V30 3742 C 352.873 2.90338 -3.09821 0
M  V30 3743 O 353.897 2.38585 -2.64492 0
M  V30 3744 O 352.756 3.84321 -3.88535 0
M  V30 3745 H 349.85 0.606317 -0.562413 0
M  V30 3746 H 352.396 0.611994 -1.58281 0
M  V30 3747 H 351.168 1.71591 -3.51671 0
M  V30 3748 H 350.791 3.0945 -2.49652 0
M  V30 3749 N 351.788 1.33704 0.83433 0
M  V30 3750 C 352.698 1.26382 1.97648 0
M  V30 3751 C 353.714 0.173548 1.73132 0
M  V30 3752 O 354.89 0.397962 1.97429 0
M  V30 3753 C 351.955 1.00769 3.31733 0
M  V30 3754 C 351.016 2.1884 3.69334 0
M  V30 3755 C 350.249 1.9444 4.9702 0
M  V30 3756 O 350.472 0.896961 5.63303 0
M  V30 3757 O 349.406 2.81093 5.32231 0
M  V30 3758 H 353.232 2.22444 2.06767 0
M  V30 3759 H 350.817 1.13795 0.968037 0
M  V30 3760 H 352.699 0.882186 4.12062 0
M  V30 3761 H 351.374 0.0773783 3.23608 0
M  V30 3762 H 350.281 2.36946 2.89495 0
M  V30 3763 H 351.614 3.10221 3.82131 0
M  V30 3764 N 353.266 -1.05314 1.17247 0
M  V30 3765 C 354.677 -1.59753 0.96623 0
M  V30 3766 C 355.028 -1.9005 -0.487378 0
M  V30 3767 O 354.153 -1.68126 -1.36245 0
M  V30 3768 C 354.748 -2.90249 1.74759 0
M  V30 3769 C 353.307 -3.41352 1.58606 0
M  V30 3770 C 352.454 -2.15103 1.75002 0
M  V30 3771 H 355.405 -0.881406 1.31973 0
M  V30 3772 H 355.426 -3.60097 1.22925 0
M  V30 3773 H 354.938 -2.68166 2.8055 0
M  V30 3774 H 353.039 -3.68474 0.552985 0
M  V30 3775 H 353.152 -4.16019 2.37624 0
M  V30 3776 H 351.516 -2.25804 1.17833 0
M  V30 3777 H 352.299 -1.95491 2.82202 0
M  V30 3778 N 354.744 -0.972509 -1.24016 0
M  V30 3779 C 355.99 -0.647583 -1.92816 0
M  V30 3780 C 356.345 0.809015 -1.74564 0
M  V30 3781 O 355.638 1.57502 -1.09103 0
M  V30 3782 C 355.832 -0.963694 -3.44162 0
M  V30 3783 C 355.661 -2.44947 -3.77135 0
M  V30 3784 C 354.431 -3.11012 -3.98246 0
M  V30 3785 C 356.629 -3.42978 -3.83237 0
M  V30 3786 N 354.611 -4.49277 -4.18358 0
M  V30 3787 C 355.982 -4.66619 -4.08248 0
M  V30 3788 C 358.037 -3.37569 -3.65994 0
M  V30 3789 C 356.74 -5.85516 -4.17808 0
M  V30 3790 C 358.766 -4.55822 -3.76802 0
M  V30 3791 C 358.128 -5.78256 -4.02243 0
M  V30 3792 H 354.227 -0.287894 -0.727077 0
M  V30 3793 H 356.811 -1.24835 -1.49413 0
M  V30 3794 H 354.982 -0.391692 -3.8642 0
M  V30 3795 H 356.714 -0.596849 -4.00275 0
M  V30 3796 H 353.469 -2.61529 -3.94841 0
M  V30 3797 H 353.893 -5.20935 -4.32384 0
M  V30 3798 H 358.535 -2.43945 -3.45327 0
M  V30 3799 H 356.253 -6.79564 -4.37285 0
M  V30 3800 H 359.839 -4.53204 -3.64825 0
M  V30 3801 H 358.719 -6.68231 -4.10411 0
M  V30 3802 N 356.222 1.38976 -0.743202 0
M  V30 3803 C 357.45 2.04636 -0.30525 0
M  V30 3804 C 357.865 1.56044 1.06281 0
M  V30 3805 O 357.222 0.728921 1.67311 0
M  V30 3806 C 357.273 3.60193 -0.307177 0
M  V30 3807 O 356.994 4.06998 -1.62124 0
M  V30 3808 C 358.495 4.4306 0.145928 0
M  V30 3809 H 355.715 0.65788 -0.132041 0
M  V30 3810 H 358.259 1.77866 -1.00915 0
M  V30 3811 H 356.414 3.85835 0.347898 0
M  V30 3812 H 356.828 5.01371 -1.54036 0
M  V30 3813 H 358.302 5.51921 0.0934183 0
M  V30 3814 H 358.779 4.22706 1.19231 0
M  V30 3815 H 359.385 4.22584 -0.479886 0
M  V30 3816 N 357.7 0.491464 1.49741 0
M  V30 3817 C 358.947 -0.0564256 2.02421 0
M  V30 3818 C 359.275 -1.37872 1.37192 0
M  V30 3819 O 358.53 -1.89375 0.493508 0
M  V30 3820 C 358.829 -0.267329 3.56399 0
M  V30 3821 C 358.495 0.975775 4.40215 0
M  V30 3822 C 357.157 1.31655 4.62839 0
M  V30 3823 C 359.509 1.80251 4.89039 0
M  V30 3824 C 356.837 2.48375 5.31532 0
M  V30 3825 C 359.189 2.96116 5.59015 0
M  V30 3826 C 357.853 3.30585 5.79888 0
M  V30 3827 H 357.123 -0.0206476 0.740712 0
M  V30 3828 H 359.77 0.649686 1.80143 0
M  V30 3829 H 358.075 -1.05588 3.77304 0
M  V30 3830 H 359.772 -0.705549 3.94744 0
M  V30 3831 H 356.362 0.700315 4.2284 0
M  V30 3832 H 360.546 1.55239 4.71396 0
M  V30 3833 H 355.802 2.7533 5.45897 0
M  V30 3834 H 359.976 3.60509 5.95824 0
M  V30 3835 H 357.603 4.21132 6.32892 0
M  V30 3836 N 359.178 -1.55987 0.224894 0
M  V30 3837 C 360.403 -2.03232 -0.41369 0
M  V30 3838 C 360.828 -1.10359 -1.52323 0
M  V30 3839 O 360.186 -0.092395 -1.81064 0
M  V30 3840 C 360.234 -3.48682 -0.919405 0
M  V30 3841 O 359.338 -3.58947 -2.03054 0
M  V30 3842 H 358.679 -0.657428 -0.0931903 0
M  V30 3843 H 361.209 -2.01679 0.34451 0
M  V30 3844 H 361.219 -3.8907 -1.22835 0
M  V30 3845 H 359.894 -4.15761 -0.107339 0
M  V30 3846 H 358.471 -3.30448 -1.72796 0
M  V30 3847 N 360.656 0.0484629 -1.57525 0
M  V30 3848 C 361.881 0.759177 -1.93006 0
M  V30 3849 C 362.306 1.69125 -0.823317 0
M  V30 3850 O 361.664 1.79931 0.222364 0
M  V30 3851 C 361.712 1.50899 -3.27509 0
M  V30 3852 O 360.816 2.62112 -3.18388 0
M  V30 3853 H 360.157 0.205564 -0.631379 0
M  V30 3854 H 362.687 0.00972959 -2.04598 0
M  V30 3855 H 362.697 1.88317 -3.6194 0
M  V30 3856 H 361.372 0.825269 -4.0763 0
M  V30 3857 H 359.949 2.27379 -2.95556 0
M  V30 3858 N 362.134 1.5431 0.320358 0
M  V30 3859 C 363.362 1.76636 1.07738 0
M  V30 3860 C 363.777 0.51649 1.81598 0
M  V30 3861 O 363.134 -0.512942 1.75143 0
M  V30 3862 C 363.185 2.96158 2.07299 0
M  V30 3863 O 362.906 4.16313 1.36438 0
M  V30 3864 C 364.407 3.3072 2.95193 0
M  V30 3865 H 361.627 0.589597 0.320339 0
M  V30 3866 H 364.171 2.01207 0.36551 0
M  V30 3867 H 362.326 2.73851 2.74016 0
M  V30 3868 H 362.74 4.83565 2.03138 0
M  V30 3869 H 364.214 4.17643 3.60941 0
M  V30 3870 H 364.691 2.48026 3.62463 0
M  V30 3871 H 365.297 3.55117 2.34034 0
M  V30 3872 N 363.613 -0.582584 1.46437 0
M  V30 3873 C 364.89 -1.34276 1.4223 0
M  V30 3874 C 365.27 -2.10835 0.10583 0
M  V30 3875 O 364.618 -2.09485 -0.912596 0
M  V30 3876 C 364.828 -2.26865 2.65204 0
M  V30 3877 C 366.176 -2.88691 3.11356 0
M  V30 3878 O 367.2 -2.37178 2.65753 0
M  V30 3879 O 366.059 -3.82255 3.90568 0
M  V30 3880 H 363.153 -0.603326 0.565621 0
M  V30 3881 H 365.699 -0.603591 1.58603 0
M  V30 3882 H 364.471 -1.69724 3.52576 0
M  V30 3883 H 364.094 -3.08122 2.5129 0
M  V30 3884 N 365.091 -1.34144 -0.827227 0
M  V30 3885 C 366.021 -1.28005 -1.95287 0
M  V30 3886 C 367.002 -0.158321 -1.69362 0
M  V30 3887 O 368.187 -0.349987 -1.9102 0
M  V30 3888 C 365.317 -1.03036 -3.31664 0
M  V30 3889 C 364.271 -2.11628 -3.72019 0
M  V30 3890 C 363.597 -1.71854 -5.0633 0
M  V30 3891 C 364.897 -3.53417 -3.8457 0
M  V30 3892 H 366.591 -2.22187 -2.00682 0
M  V30 3893 H 364.137 -1.0696 -0.964135 0
M  V30 3894 H 366.09 -0.973863 -4.09993 0
M  V30 3895 H 364.814 -0.0529391 -3.26557 0
M  V30 3896 H 363.473 -2.16339 -2.95961 0
M  V30 3897 H 363.121 -0.727841 -4.97706 0
M  V30 3898 H 362.821 -2.44531 -5.34302 0
M  V30 3899 H 364.345 -1.67692 -5.87122 0
M  V30 3900 H 365.759 -3.51142 -4.5318 0
M  V30 3901 H 364.156 -4.24679 -4.2399 0
M  V30 3902 H 365.226 -3.91072 -2.86689 0
M  V30 3903 N 366.569 1.04691 -1.17803 0
M  V30 3904 C 367.519 2.10856 -0.867391 0
M  V30 3905 C 368.503 1.601 0.160206 0
M  V30 3906 O 369.695 1.76948 -0.042947 0
M  V30 3907 C 366.824 3.411 -0.388012 0
M  V30 3908 C 365.91 3.9864 -1.44732 0
M  V30 3909 N 366.301 4.30075 -2.66212 0
M  V30 3910 C 364.599 4.26439 -1.30637 0
M  V30 3911 C 365.3 4.76033 -3.34317 0
M  V30 3912 N 364.276 4.76462 -2.61696 0
M  V30 3913 H 368.078 2.33029 -1.79094 0
M  V30 3914 H 365.592 1.22386 -1.0675 0
M  V30 3915 H 367.589 4.16641 -0.146994 0
M  V30 3916 H 366.249 3.20357 0.529271 0
M  V30 3917 H 367.26 4.19917 -3.03134 0
M  V30 3918 H 363.937 4.15056 -0.451129 0
M  V30 3919 H 365.327 5.09427 -4.38103 0
M  V30 3920 N 368.047 0.979072 1.23499 0
M  V30 3921 C 369.295 0.645941 1.91499 0
M  V30 3922 C 369.616 -0.822948 1.76784 0
M  V30 3923 O 368.886 -1.58854 1.14639 0
M  V30 3924 H 367.466 0.235919 0.708767 0
M  V30 3925 H 370.128 1.2426 1.50152 0
M  V30 3926 H 369.224 0.896411 2.9895 0
M  V30 3927 N 369.525 -1.3858 0.750561 0
M  V30 3928 C 370.473 -2.32339 0.110162 0
M  V30 3929 C 371.467 -1.53864 -0.708674 0
M  V30 3930 O 372.673 -1.69417 -0.608112 0
M  V30 3931 H 369.048 -0.751812 0.0168275 0
M  V30 3932 H 371.019 -2.83959 0.917053 0
M  V30 3933 C 369.768 -3.39043 -0.771067 0
M  V30 3934 H 369.091 -3.99517 -0.150374 0
M  V30 3935 H 370.531 -4.07061 -1.1865 0
M  V30 3936 C 368.99 -2.77365 -1.91234 0
M  V30 3937 O 369.52 -2.66434 -3.00626 0
M  V30 3938 N 367.726 -2.35219 -1.70646 0
M  V30 3939 H 367.273 -2.4431 -0.81673 0
M  V30 3940 H 367.231 -1.94294 -2.47178 0
M  V30 3941 N 371.003 -0.499398 -1.49478 0
M  V30 3942 C 371.951 0.293604 -2.3074 0
M  V30 3943 C 372.945 0.96427 -1.39277 0
M  V30 3944 O 374.151 0.892141 -1.56336 0
M  V30 3945 H 370.526 0.113541 -0.743379 0
M  V30 3946 H 372.497 -0.411772 -2.95545 0
M  V30 3947 C 371.246 1.3462 -3.20582 0
M  V30 3948 H 370.569 0.83954 -3.90886 0
M  V30 3949 H 372.009 1.87308 -3.80384 0
M  V30 3950 C 370.468 2.36351 -2.40083 0
M  V30 3951 O 370.998 3.422 -2.10385 0
M  V30 3952 N 369.204 2.0878 -2.02137 0
M  V30 3953 H 368.751 1.22723 -2.26488 0
M  V30 3954 H 368.709 2.77075 -1.48583 0
M  V30 3955 N 372.481 1.55866 -0.233164 0
M  V30 3956 C 373.411 2.23783 0.666599 0
M  V30 3957 C 374.392 1.21343 1.19205 0
M  V30 3958 O 375.577 1.4996 1.23392 0
M  V30 3959 C 372.707 2.92671 1.86978 0
M  V30 3960 C 371.661 4.01682 1.47768 0
M  V30 3961 C 370.987 4.57926 2.76058 0
M  V30 3962 C 372.287 5.18126 0.658993 0
M  V30 3963 H 373.981 2.99232 0.100306 0
M  V30 3964 H 371.527 1.43924 0.046804 0
M  V30 3965 H 373.48 3.3888 2.50476 0
M  V30 3966 H 372.204 2.14688 2.46123 0
M  V30 3967 H 370.863 3.56222 0.866106 0
M  V30 3968 H 370.511 3.76659 3.33372 0
M  V30 3969 H 370.211 5.31505 2.50552 0
M  V30 3970 H 371.735 5.06859 3.40479 0
M  V30 3971 H 373.149 5.60644 1.19795 0
M  V30 3972 H 371.546 5.98009 0.500552 0
M  V30 3973 H 372.616 4.83763 -0.331856 0
M  V30 3974 N 373.959 -0.0401083 1.57549 0
M  V30 3975 C 375.206 -0.733125 1.88763 0
M  V30 3976 C 375.534 -1.75946 0.829058 0
M  V30 3977 O 374.789 -1.94949 -0.171323 0
M  V30 3978 C 375.088 -1.44902 3.26708 0
M  V30 3979 C 374.754 -0.559707 4.47413 0
M  V30 3980 C 373.416 -0.314731 4.8017 0
M  V30 3981 C 375.768 0.0549743 5.21171 0
M  V30 3982 C 373.096 0.553886 5.8408 0
M  V30 3983 C 375.448 0.911229 6.26003 0
M  V30 3984 C 374.112 1.16577 6.57241 0
M  V30 3985 H 373.382 -0.268269 0.690733 0
M  V30 3986 H 376.029 0.00679408 1.91499 0
M  V30 3987 H 374.334 -2.26197 3.1991 0
M  V30 3988 H 376.031 -1.99058 3.48105 0
M  V30 3989 H 372.621 -0.760793 4.21794 0
M  V30 3990 H 376.805 -0.121344 4.96152 0
M  V30 3991 H 372.061 0.759518 6.06664 0
M  V30 3992 H 376.235 1.3941 6.82303 0
M  V30 3993 H 373.862 1.84058 7.37582 0
M  V30 3994 N 375.437 -1.54477 -0.31217 0
M  V30 3995 C 376.367 -1.87652 -1.38957 0
M  V30 3996 C 377.348 -0.734358 -1.53431 0
M  V30 3997 O 378.533 -0.98911 -1.67123 0
M  V30 3998 C 375.663 -2.11396 -2.75552 0
M  V30 3999 C 374.617 -3.27243 -2.75855 0
M  V30 4000 C 373.943 -3.36382 -4.15633 0
M  V30 4001 C 375.243 -4.64622 -2.38587 0
M  V30 4002 H 376.937 -2.77887 -1.11442 0
M  V30 4003 H 374.483 -1.33707 -0.534655 0
M  V30 4004 H 376.436 -2.33189 -3.51 0
M  V30 4005 H 375.16 -1.17921 -3.04569 0
M  V30 4006 H 373.819 -3.05356 -2.02863 0
M  V30 4007 H 373.467 -2.40445 -4.41809 0
M  V30 4008 H 373.167 -4.14249 -4.1674 0
M  V30 4009 H 374.691 -3.60422 -4.92877 0
M  V30 4010 H 376.105 -4.86219 -3.03749 0
M  V30 4011 H 374.502 -5.45121 -2.50925 0
M  V30 4012 H 375.572 -4.66097 -1.33723 0
M  V30 4013 N 376.915 0.57481 -1.46744 0
M  V30 4014 C 378.161 1.3347 -1.52688 0
M  V30 4015 C 378.494 1.93353 -0.181229 0
M  V30 4016 O 377.769 1.76912 0.808237 0
M  V30 4017 C 378.052 2.45811 -2.63152 0
M  V30 4018 C 377.905 1.90912 -4.07275 0
M  V30 4019 C 379.224 3.47822 -2.69644 0
M  V30 4020 H 376.343 0.483935 -0.555856 0
M  V30 4021 H 378.985 0.644968 -1.78718 0
M  V30 4022 H 377.135 3.04646 -2.41088 0
M  V30 4023 H 378.807 1.36473 -4.4065 0
M  V30 4024 H 377.05 1.21691 -4.16382 0
M  V30 4025 H 377.721 2.72042 -4.80309 0
M  V30 4026 H 380.197 2.9888 -2.895 0
M  V30 4027 H 379.073 4.23876 -3.48742 0
M  V30 4028 H 379.334 4.05555 -1.76005 0
M  V30 4029 N 378.394 1.34581 0.820102 0
M  V30 4030 C 379.357 1.2628 1.91275 0
M  V30 4031 C 380.357 0.177344 1.59819 0
M  V30 4032 O 381.547 0.430156 1.68806 0
M  V30 4033 C 378.679 0.950327 3.27386 0
M  V30 4034 H 379.872 2.23421 2.00057 0
M  V30 4035 H 377.425 1.1891 1.0144 0
M  V30 4036 H 378.16 -0.0177938 3.24295 0
M  V30 4037 H 377.945 1.73549 3.51601 0
M  V30 4038 H 379.435 0.917492 4.07396 0
M  V30 4039 N 379.872 -1.04064 1.18357 0
M  V30 4040 C 381.118 -1.77528 0.980397 0
M  V30 4041 C 381.451 -1.87948 -0.48879 0
M  V30 4042 O 380.726 -1.3876 -1.36293 0
M  V30 4043 C 381.009 -3.20797 1.63588 0
M  V30 4044 C 380.862 -3.1832 3.17793 0
M  V30 4045 C 382.181 -4.18911 1.34914 0
M  V30 4046 H 379.3 -0.644443 0.357578 0
M  V30 4047 H 381.942 -1.2156 1.46024 0
M  V30 4048 H 380.092 -3.68586 1.22788 0
M  V30 4049 H 381.764 -2.78521 3.67728 0
M  V30 4050 H 380.007 -2.56351 3.49952 0
M  V30 4051 H 380.678 -4.19489 3.58794 0
M  V30 4052 H 383.154 -3.7967 1.70265 0
M  V30 4053 H 382.03 -5.17374 1.83346 0
M  V30 4054 H 382.291 -4.41262 0.272027 0
M  V30 4055 N 381.35 -0.985608 -1.22978 0
M  V30 4056 C 382.3 -0.50118 -2.22423 0
M  V30 4057 C 383.284 0.426649 -1.5514 0
M  V30 4058 O 384.476 0.254656 -1.75159 0
M  V30 4059 C 381.605 0.190003 -3.42774 0
M  V30 4060 C 380.691 -0.757703 -4.17276 0
M  V30 4061 N 381.082 -1.90251 -4.68656 0
M  V30 4062 C 379.38 -0.57209 -4.42316 0
M  V30 4063 C 380.081 -2.49676 -5.25392 0
M  V30 4064 N 379.057 -1.78013 -5.13627 0
M  V30 4065 H 382.859 -1.37441 -2.59783 0
M  V30 4066 H 380.373 -0.846941 -1.38567 0
M  V30 4067 H 382.37 0.55439 -4.13197 0
M  V30 4068 H 381.03 1.05946 -3.06929 0
M  V30 4069 H 382.041 -2.28354 -4.64839 0
M  V30 4070 H 378.718 0.251909 -4.16739 0
M  V30 4071 H 380.108 -3.46384 -5.75732 0
M  V30 4072 N 382.828 1.3818 -0.7579 0
M  V30 4073 C 383.738 2.3421 -0.135247 0
M  V30 4074 C 384.754 1.59487 0.695683 0
M  V30 4075 O 385.93 1.91657 0.618832 0
M  V30 4076 C 382.995 3.3862 0.744139 0
M  V30 4077 C 382.056 4.2918 -0.101658 0
M  V30 4078 C 381.289 5.28603 0.735851 0
M  V30 4079 O 381.512 5.35166 1.97366 0
M  V30 4080 O 380.446 6.01707 0.152372 0
M  V30 4081 H 384.272 2.8916 -0.928436 0
M  V30 4082 H 381.857 1.40101 -0.518855 0
M  V30 4083 H 383.739 4.02539 1.2466 0
M  V30 4084 H 382.414 2.86019 1.51575 0
M  V30 4085 H 381.321 3.68407 -0.650167 0
M  V30 4086 H 382.654 4.85048 -0.836024 0
M  V30 4087 N 384.306 0.507319 1.49211 0
M  V30 4088 C 385.236 -0.256939 2.32082 0
M  V30 4089 C 386.217 -0.956609 1.40652 0
M  V30 4090 O 387.402 -0.946788 1.69557 0
M  V30 4091 C 384.532 -1.31802 3.21318 0
M  V30 4092 C 383.486 -0.737855 4.21592 0
M  V30 4093 C 382.812 -1.89992 4.99807 0
M  V30 4094 C 384.112 0.275325 5.21574 0
M  V30 4095 H 385.806 0.434798 2.96226 0
M  V30 4096 H 383.352 0.210546 1.42452 0
M  V30 4097 H 385.305 -1.86045 3.78107 0
M  V30 4098 H 384.029 -2.03903 2.5513 0
M  V30 4099 H 382.688 -0.217126 3.65956 0
M  V30 4100 H 382.336 -2.60877 4.30061 0
M  V30 4101 H 382.036 -1.51777 5.6766 0
M  V30 4102 H 383.56 -2.44657 5.59442 0
M  V30 4103 H 384.974 -0.179193 5.7302 0
M  V30 4104 H 383.371 0.573649 5.97352 0
M  V30 4105 H 384.441 1.18903 4.70096 0
M  V30 4106 N 385.784 -1.5574 0.241426 0
M  V30 4107 C 387.032 -1.98417 -0.384075 0
M  V30 4108 C 387.353 -1.13078 -1.58866 0
M  V30 4109 O 386.623 -0.212312 -1.94746 0
M  V30 4110 H 385.203 -0.732813 -0.144894 0
M  V30 4111 H 387.865 -1.9193 0.338943 0
M  V30 4112 H 386.961 -3.04219 -0.696939 0
M  V30 4113 N 387.262 0.0317525 -1.57568 0
M  V30 4114 C 388.212 1.04101 -2.02847 0
M  V30 4115 C 389.196 1.3219 -0.917317 0
M  V30 4116 O 390.388 1.31819 -1.18121 0
M  V30 4117 C 387.517 2.34295 -2.5092 0
M  V30 4118 C 386.603 2.09308 -3.68851 0
M  V30 4119 N 386.994 1.5437 -4.81667 0
M  V30 4120 C 385.292 2.39604 -3.76172 0
M  V30 4121 C 385.993 1.45126 -5.63306 0
M  V30 4122 N 384.969 1.92589 -5.08341 0
M  V30 4123 H 388.771 0.610217 -2.87495 0
M  V30 4124 H 386.285 0.238108 -1.60645 0
M  V30 4125 H 388.282 3.07404 -2.81617 0
M  V30 4126 H 386.942 2.78055 -1.67677 0
M  V30 4127 H 387.953 1.22678 -5.03161 0
M  V30 4128 H 384.63 2.86457 -3.03724 0
M  V30 4129 H 386.02 1.03163 -6.63933 0
M  V30 4130 N 388.74 1.54641 0.303973 0
M  V30 4131 C 389.703 1.84646 1.35789 0
M  V30 4132 C 390.703 0.7192 1.4382 0
M  V30 4133 O 391.893 0.987491 1.43507 0
M  V30 4134 C 389.025 2.02407 2.74307 0
M  V30 4135 H 390.218 2.78829 1.10429 0
M  V30 4136 H 387.771 1.46658 0.540487 0
M  V30 4137 H 388.506 1.10502 3.04893 0
M  V30 4138 H 388.291 2.84453 2.69868 0
M  V30 4139 H 389.781 2.27002 3.50514 0
M  V30 4140 N 390.218 -0.567019 1.47046 0
M  V30 4141 C 391.148 -1.68482 1.61667 0
M  V30 4142 C 392.129 -1.6358 0.466418 0
M  V30 4143 O 393.314 -1.81354 0.694574 0
M  V30 4144 C 390.444 -3.07124 1.62148 0
M  V30 4145 C 389.398 -3.26867 2.76301 0
M  V30 4146 C 388.724 -4.66196 2.61849 0
M  V30 4147 C 390.024 -3.13186 4.17986 0
M  V30 4148 H 391.718 -1.56502 2.5524 0
M  V30 4149 H 389.264 -0.751486 1.22836 0
M  V30 4150 H 391.217 -3.8516 1.70968 0
M  V30 4151 H 389.941 -3.2004 0.651287 0
M  V30 4152 H 388.6 -2.51237 2.66975 0
M  V30 4153 H 388.248 -4.75898 1.62879 0
M  V30 4154 H 387.948 -4.80356 3.38425 0
M  V30 4155 H 389.472 -5.46379 2.72584 0
M  V30 4156 H 390.886 -3.81049 4.2834 0
M  V30 4157 H 389.283 -3.3886 4.95272 0
M  V30 4158 H 390.353 -2.10057 4.3704 0
M  V30 4159 N 391.696 -1.35014 -0.812953 0
M  V30 4160 C 392.944 -1.27678 -1.56661 0
M  V30 4161 C 393.265 0.150359 -1.94419 0
M  V30 4162 O 392.535 1.08532 -1.63088 0
M  V30 4163 H 391.115 -0.469602 -0.580933 0
M  V30 4164 H 393.777 -1.69043 -0.970076 0
M  V30 4165 H 392.873 -1.88833 -2.48492 0
M  V30 4166 N 393.175 1.03435 -1.18907 0
M  V30 4167 C 394.105 2.13503 -0.945448 0
M  V30 4168 C 395.086 1.69682 0.119189 0
M  V30 4169 O 396.271 1.94169 -0.034707 0
M  V30 4170 C 393.401 3.44004 -0.477316 0
M  V30 4171 C 392.355 4.0148 -1.48316 0
M  V30 4172 C 391.681 5.27537 -0.872311 0
M  V30 4173 C 392.981 4.36921 -2.86177 0
M  V30 4174 H 394.675 2.34141 -1.86597 0
M  V30 4175 H 392.221 1.12523 -0.898584 0
M  V30 4176 H 394.174 4.20372 -0.294204 0
M  V30 4177 H 392.898 3.23072 0.478786 0
M  V30 4178 H 391.557 3.27201 -1.65332 0
M  V30 4179 H 391.205 5.02917 0.0911752 0
M  V30 4180 H 390.905 5.66954 -1.54393 0
M  V30 4181 H 392.429 6.06576 -0.699871 0
M  V30 4182 H 393.843 5.04248 -2.72776 0
M  V30 4183 H 392.24 4.87405 -3.50081 0
M  V30 4184 H 393.31 3.46466 -3.39248 0
M  V30 4185 N 394.653 0.992116 1.22453 0
M  V30 4186 C 395.563 0.55065 2.28046 0
M  V30 4187 C 396.579 -0.400189 1.69335 0
M  V30 4188 O 397.755 -0.267215 1.99619 0
M  V30 4189 C 394.82 -0.128496 3.46462 0
M  V30 4190 C 393.881 0.865208 4.20491 0
M  V30 4191 C 393.114 0.218377 5.33253 0
M  V30 4192 O 393.337 -0.987894 5.6178 0
M  V30 4193 O 392.271 0.922845 5.94783 0
M  V30 4194 H 396.097 1.4291 2.67975 0
M  V30 4195 H 393.682 0.760326 1.28606 0
M  V30 4196 H 395.564 -0.508947 4.18315 0
M  V30 4197 H 394.239 -0.981526 3.0846 0
M  V30 4198 H 393.146 1.29658 3.50913 0
M  V30 4199 H 394.479 1.68741 4.62371 0
M  V30 4200 N 396.131 -1.37776 0.765217 0
M  V30 4201 C 397.081 -2.2768 0.12075 0
M  V30 4202 C 398.065 -1.45778 -0.680988 0
M  V30 4203 O 399.257 -1.684 -0.545033 0
M  V30 4204 C 396.386 -3.34722 -0.762626 0
M  V30 4205 C 395.472 -4.24074 0.0465881 0
M  V30 4206 N 395.863 -4.93939 1.08892 0
M  V30 4207 C 394.161 -4.45643 -0.178418 0
M  V30 4208 C 394.862 -5.59845 1.57951 0
M  V30 4209 N 393.838 -5.36218 0.892797 0
M  V30 4210 H 397.64 -2.79166 0.918889 0
M  V30 4211 H 395.154 -1.50816 0.602353 0
M  V30 4212 H 397.151 -3.98031 -1.24005 0
M  V30 4213 H 395.811 -2.84793 -1.55959 0
M  V30 4214 H 396.822 -4.96572 1.47095 0
M  V30 4215 H 393.499 -4.06599 -0.9478 0
M  V30 4216 H 394.889 -6.25703 2.44838 0
M  V30 4217 N 397.609 -0.515225 -1.4894 0
M  V30 4218 C 398.834 0.022727 -2.07388 0
M  V30 4219 C 399.259 1.2876 -1.37122 0
M  V30 4220 O 398.617 1.76067 -0.432431 0
M  V30 4221 C 398.665 0.244869 -3.59768 0
M  V30 4222 O 397.769 1.31667 -3.90817 0
M  V30 4223 H 397.11 -0.0325506 -0.663202 0
M  V30 4224 H 399.64 -0.718918 -1.91553 0
M  V30 4225 H 399.65 0.47205 -4.0526 0
M  V30 4226 H 398.325 -0.679194 -4.10317 0
M  V30 4227 H 396.902 1.07331 -3.5712 0
M  V30 4228 N 399.087 1.5561 -0.249682 0
M  V30 4229 C 400.312 2.03865 0.381305 0
M  V30 4230 C 400.737 1.12769 1.50548 0
M  V30 4231 O 400.095 0.121189 1.80895 0
M  V30 4232 C 400.143 3.50101 0.863816 0
M  V30 4233 O 399.247 3.62132 1.97318 0
M  V30 4234 H 398.588 0.658827 0.0827194 0
M  V30 4235 H 401.118 2.01105 -0.376552 0
M  V30 4236 H 401.128 3.90975 1.1663 0
M  V30 4237 H 399.803 4.1588 0.0411816 0
M  V30 4238 H 398.38 3.33155 1.67517 0
M  V30 4239 N 400.565 -0.0233959 1.57583 0
M  V30 4240 C 401.513 -1.04063 2.08023 0
M  V30 4241 C 402.507 -1.37084 0.995204 0
M  V30 4242 O 403.713 -1.35923 1.18004 0
M  V30 4243 H 400.088 -0.353144 0.663922 0
M  V30 4244 H 402.059 -0.589453 2.9252 0
M  V30 4245 C 400.808 -2.33123 2.57971 0
M  V30 4246 H 400.131 -2.08577 3.4108 0
M  V30 4247 H 401.571 -3.02632 2.96967 0
M  V30 4248 C 400.03 -3.02483 1.48342 0
M  V30 4249 O 400.56 -3.92541 0.852898 0
M  V30 4250 N 398.766 -2.63909 1.21658 0
M  V30 4251 H 398.313 -1.90758 1.73116 0
M  V30 4252 H 398.271 -3.10633 0.485218 0
M  V30 4253 N 402.043 -1.548 -0.295768 0
M  V30 4254 C 403.454 -1.65274 -0.868411 0
M  V30 4255 C 403.805 -0.56481 -1.87894 0
M  V30 4256 O 402.93 0.29767 -2.14343 0
M  V30 4257 C 403.525 -2.99603 -1.58188 0
M  V30 4258 C 402.084 -3.12181 -2.10286 0
M  V30 4259 C 401.231 -2.6098 -0.93727 0
M  V30 4260 H 404.182 -1.58534 -0.0726422 0
M  V30 4261 H 404.203 -2.91319 -2.44772 0
M  V30 4262 H 403.715 -3.78764 -0.846151 0
M  V30 4263 H 401.816 -2.3775 -2.8689 0
M  V30 4264 H 401.929 -4.18415 -2.33379 0
M  V30 4265 H 400.293 -2.17564 -1.32431 0
M  V30 4266 H 401.076 -3.42623 -0.215414 0
M  V30 4267 N 403.521 0.559213 -1.47345 0
M  V30 4268 C 404.469 1.68747 -1.60085 0
M  V30 4269 C 405.463 1.628 -0.46825 0
M  V30 4270 O 406.669 1.68009 -0.645977 0
M  V30 4271 H 403.044 0.558329 -0.503759 0
M  V30 4272 H 405.015 1.55138 -2.54902 0
M  V30 4273 C 403.764 3.07103 -1.63042 0
M  V30 4274 H 403.087 3.12361 -2.49541 0
M  V30 4275 H 404.527 3.85743 -1.76006 0
M  V30 4276 C 402.986 3.34935 -0.363357 0
M  V30 4277 O 403.516 3.98102 0.536416 0
M  V30 4278 N 401.722 2.89574 -0.244 0
M  V30 4279 H 401.269 2.38348 -0.977133 0
M  V30 4280 H 401.227 3.08566 0.602836 0
M  V30 4281 N 404.999 1.35443 0.805782 0
M  V30 4282 C 405.962 1.28301 1.89925 0
M  V30 4283 C 406.962 0.194285 1.59622 0
M  V30 4284 O 408.152 0.448036 1.6834 0
M  V30 4285 C 405.284 0.984997 3.2636 0
M  V30 4286 H 406.477 2.2553 1.97677 0
M  V30 4287 H 404.03 1.19979 1.00173 0
M  V30 4288 H 404.765 0.016603 3.24296 0
M  V30 4289 H 404.55 1.77269 3.4974 0
M  V30 4290 H 406.04 0.960651 4.064 0
M  V30 4291 N 406.477 -1.02803 1.19454 0
M  V30 4292 C 407.726 -1.7562 0.991996 0
M  V30 4293 C 408.039 -1.89672 -0.477901 0
M  V30 4294 O 409.245 -2.59468 -0.799287 0
M  V30 4295 C 407.701 -3.15812 1.72601 0
M  V30 4296 C 407.309 -3.0981 3.23607 0
M  V30 4297 C 409.053 -3.92918 1.60674 0
M  V30 4298 C 406.96 -4.44939 3.89594 0
M  V30 4299 H 405.89 -0.658352 0.367543 0
M  V30 4300 H 408.541 -1.15044 1.42959 0
M  V30 4301 H 406.923 -3.7686 1.21624 0
M  V30 4302 H 408.097 -2.58138 3.81709 0
M  V30 4303 H 406.412 -2.46201 3.35819 0
M  V30 4304 H 409.009 -4.9287 2.07323 0
M  V30 4305 H 409.352 -4.12502 0.561025 0
M  V30 4306 H 409.885 -3.38472 2.09001 0
M  V30 4307 H 406.624 -4.30559 4.94267 0
M  V30 4308 H 406.144 -4.96664 3.36281 0
M  V30 4309 H 407.823 -5.1382 3.93189 0
M  V30 4310 N 407.956 -0.998596 -1.21925 0
M  V30 4311 C 408.889 -0.498517 -2.22688 0
M  V30 4312 C 409.867 0.444301 -1.56412 0
M  V30 4313 O 411.051 0.368518 -1.84863 0
M  V30 4314 C 408.178 0.276639 -3.37568 0
M  V30 4315 C 407.224 -0.61302 -4.22071 0
M  V30 4316 S 408.057 -2.07168 -4.93803 0
M  V30 4317 C 409.213 -1.30617 -6.12119 0
M  V30 4318 H 409.446 -1.35234 -2.64762 0
M  V30 4319 H 406.979 -0.806018 -1.31692 0
M  V30 4320 H 408.937 0.717817 -4.04175 0
M  V30 4321 H 407.598 1.10581 -2.93991 0
M  V30 4322 H 406.791 -0.0162909 -5.03997 0
M  V30 4323 H 406.393 -0.991202 -3.60626 0
M  V30 4324 H 408.685 -0.57675 -6.75041 0
M  V30 4325 H 409.628 -2.10091 -6.76215 0
M  V30 4326 H 410.036 -0.816957 -5.58557 0
M  V30 4327 N 409.434 1.37368 -0.772513 0
M  V30 4328 C 410.397 2.28601 -0.165541 0
M  V30 4329 C 411.397 1.48062 0.627238 0
M  V30 4330 O 412.587 1.68268 0.450715 0
M  V30 4331 C 409.719 3.32023 0.772897 0
M  V30 4332 H 410.912 2.83787 -0.969787 0
M  V30 4333 H 408.465 1.46647 -0.540775 0
M  V30 4334 H 409.2 2.81962 1.60212 0
M  V30 4335 H 408.985 3.91555 0.206585 0
M  V30 4336 H 410.475 4.00197 1.19298 0
M  V30 4337 N 410.912 0.523116 1.48665 0
M  V30 4338 C 412.323 0.0808997 1.86525 0
M  V30 4339 C 412.674 -1.33975 1.43336 0
M  V30 4340 O 411.799 -2.00221 0.821009 0
M  V30 4341 C 412.394 0.140037 3.3851 0
M  V30 4342 C 410.953 -0.246948 3.75589 0
M  V30 4343 C 410.1 0.502845 2.72703 0
M  V30 4344 H 413.051 0.734736 1.40667 0
M  V30 4345 H 413.072 -0.649945 3.74908 0
M  V30 4346 H 412.584 1.17412 3.69914 0
M  V30 4347 H 410.685 -1.28343 3.49798 0
M  V30 4348 H 410.798 0.0878859 4.79019 0
M  V30 4349 H 409.162 -0.0500581 2.54651 0
M  V30 4350 H 409.945 1.53743 3.0695 0
M  V30 4351 N 412.39 -1.55475 0.257931 0
M  V30 4352 C 413.637 -1.99207 -0.363728 0
M  V30 4353 C 413.965 -1.1462 -1.57139 0
M  V30 4354 O 413.22 -0.199653 -1.94679 0
M  V30 4355 C 413.519 -3.48183 -0.806433 0
M  V30 4356 C 413.185 -4.49936 0.294684 0
M  V30 4357 C 411.847 -4.77481 0.597076 0
M  V30 4358 C 414.199 -5.10769 1.03751 0
M  V30 4359 C 411.527 -5.63132 1.64618 0
M  V30 4360 C 413.879 -5.97558 2.07622 0
M  V30 4361 C 412.543 -6.23432 2.38514 0
M  V30 4362 H 411.813 -0.728949 -0.133097 0
M  V30 4363 H 414.46 -1.8793 0.368059 0
M  V30 4364 H 412.765 -3.56848 -1.61761 0
M  V30 4365 H 414.462 -3.79415 -1.29789 0
M  V30 4366 H 411.052 -4.28572 0.0488649 0
M  V30 4367 H 415.236 -4.89527 0.817149 0
M  V30 4368 H 410.492 -5.8143 1.89074 0
M  V30 4369 H 414.666 -6.43735 2.65666 0
M  V30 4370 H 412.293 -6.89594 3.19943 0
M  V30 4371 N 413.868 0.0150385 -1.57593 0
M  V30 4372 C 415.098 0.713359 -1.93894 0
M  V30 4373 C 415.506 1.68663 -0.857289 0
M  V30 4374 O 414.849 1.82876 0.173788 0
M  V30 4375 C 414.911 1.51348 -3.26089 0
M  V30 4376 C 414.575 0.703451 -4.51554 0
M  V30 4377 C 415.572 -0.00237924 -5.199 0
M  V30 4378 C 413.257 0.653854 -4.98026 0
M  V30 4379 C 415.251 -0.746955 -6.33008 0
M  V30 4380 C 412.938 -0.0944578 -6.11027 0
M  V30 4381 C 413.936 -0.793609 -6.78374 0
M  V30 4382 O 413.624 -1.52974 -7.89211 0
M  V30 4383 H 413.356 0.204637 -0.644282 0
M  V30 4384 H 415.91 -0.0276411 -2.05381 0
M  V30 4385 H 414.14 2.29862 -3.10967 0
M  V30 4386 H 415.829 2.09572 -3.47612 0
M  V30 4387 H 416.595 0.0268803 -4.84993 0
M  V30 4388 H 412.474 1.18756 -4.45441 0
M  V30 4389 H 416.018 -1.2932 -6.85509 0
M  V30 4390 H 411.915 -0.125591 -6.45378 0
M  V30 4391 H 412.683 -1.44488 -8.05646 0
M  V30 4392 N 415.346 1.54954 0.287554 0
M  V30 4393 C 416.278 1.83224 1.37701 0
M  V30 4394 C 417.291 0.715898 1.46215 0
M  V30 4395 O 418.48 0.993565 1.48292 0
M  V30 4396 C 415.58 1.96723 2.75959 0
M  V30 4397 C 414.753 3.27253 2.90215 0
M  V30 4398 C 413.812 3.30998 4.09056 0
M  V30 4399 O 412.838 4.04457 4.00503 0
M  V30 4400 N 414.04 2.57353 5.20336 0
M  V30 4401 H 416.805 2.77254 1.138 0
M  V30 4402 H 414.366 1.54694 0.477652 0
M  V30 4403 H 416.358 1.96615 3.5373 0
M  V30 4404 H 414.928 1.09626 2.92747 0
M  V30 4405 H 414.148 3.40022 1.99447 0
M  V30 4406 H 415.436 4.13365 2.96659 0
M  V30 4407 H 414.834 1.97327 5.30169 0
M  V30 4408 H 413.391 2.62984 5.96391 0
M  V30 4409 N 416.824 -0.551391 1.4764 0
M  V30 4410 C 418.07 -1.30789 1.55774 0
M  V30 4411 C 418.425 -1.91143 0.219562 0
M  V30 4412 O 417.718 -1.7521 -0.775375 0
M  V30 4413 C 417.912 -2.43469 2.61644 0
M  V30 4414 C 417.741 -1.94157 4.05627 0
M  V30 4415 C 416.511 -1.77734 4.7301 0
M  V30 4416 C 418.709 -1.48262 4.92466 0
M  V30 4417 N 416.691 -1.22823 6.01488 0
M  V30 4418 C 418.062 -1.05156 6.11017 0
M  V30 4419 C 420.117 -1.36367 4.78862 0
M  V30 4420 C 418.82 -0.513357 7.17466 0
M  V30 4421 C 420.846 -0.839484 5.85411 0
M  V30 4422 C 420.208 -0.418377 7.03156 0
M  V30 4423 H 416.307 -0.470406 0.624694 0
M  V30 4424 H 418.891 -0.624331 1.84419 0
M  V30 4425 H 417.062 -3.09348 2.34859 0
M  V30 4426 H 418.794 -3.10477 2.59589 0
M  V30 4427 H 415.549 -2.00623 4.29007 0
M  V30 4428 H 415.973 -0.974393 6.69951 0
M  V30 4429 H 420.615 -1.67535 3.88191 0
M  V30 4430 H 418.333 -0.189318 8.07878 0
M  V30 4431 H 421.919 -0.750921 5.76934 0
M  V30 4432 H 420.799 -0.0190538 7.84198 0
M  V30 4433 N 418.302 -1.35869 -0.798587 0
M  V30 4434 C 419.249 -1.29446 -1.91082 0
M  V30 4435 C 420.219 -0.16487 -1.6528 0
M  V30 4436 O 421.404 -0.349888 -1.87564 0
M  V30 4437 C 418.544 -1.0804 -3.27752 0
M  V30 4438 C 417.657 -2.29993 -3.65687 0
M  V30 4439 C 416.792 -2.01673 -4.91428 0
M  V30 4440 C 415.831 -3.19636 -5.22015 0
M  V30 4441 N 414.968 -2.91039 -6.38937 0
M  V30 4442 H 419.808 -2.24553 -1.95907 0
M  V30 4443 H 417.345 -1.11615 -0.958148 0
M  V30 4444 H 419.303 -0.936586 -4.06551 0
M  V30 4445 H 417.933 -0.16592 -3.22373 0
M  V30 4446 H 416.985 -2.55211 -2.82085 0
M  V30 4447 H 418.297 -3.18052 -3.84245 0
M  V30 4448 H 417.451 -1.84168 -5.78072 0
M  V30 4449 H 416.19 -1.10911 -4.74921 0
M  V30 4450 H 415.195 -3.37709 -4.33858 0
M  V30 4451 H 416.42 -4.11211 -5.40447 0
M  V30 4452 H 414.366 -2.0288 -6.2384 0
M  V30 4453 H 414.283 -3.72635 -6.57784 0
M  V30 4454 H 415.551 -2.77093 -7.28587 0
M  V30 4455 N 419.78 1.02168 -1.19998 0
M  V30 4456 C 421.057 1.72816 -0.916191 0
M  V30 4457 C 421.437 2.03081 0.576325 0
M  V30 4458 O 420.785 1.69122 1.53656 0
M  V30 4459 C 420.995 2.9997 -1.78378 0
M  V30 4460 C 422.343 3.73336 -2.02251 0
M  V30 4461 O 423.367 3.09914 -1.75589 0
M  V30 4462 O 422.226 4.87371 -2.47249 0
M  V30 4463 H 419.32 0.752924 -0.342103 0
M  V30 4464 H 421.866 1.08062 -1.30846 0
M  V30 4465 H 420.638 2.73888 -2.79466 0
M  V30 4466 H 420.261 3.72464 -1.39126 0
M  V30 4467 N 421.258 1.00505 1.21394 0
M  V30 4468 C 422.504 0.688793 1.90745 0
M  V30 4469 C 422.837 -0.778486 1.77914 0
M  V30 4470 O 422.112 -1.56433 1.15581 0
M  V30 4471 C 422.395 1.11063 3.42545 0
M  V30 4472 C 422.248 2.63737 3.64367 0
M  V30 4473 C 423.567 0.673059 4.34923 0
M  V30 4474 H 420.686 0.251702 0.692687 0
M  V30 4475 H 423.328 1.25074 1.43026 0
M  V30 4476 H 421.478 0.632508 3.83317 0
M  V30 4477 H 423.15 3.19313 3.32922 0
M  V30 4478 H 421.393 3.05248 3.08231 0
M  V30 4479 H 422.064 2.88305 4.70727 0
M  V30 4480 H 424.54 1.08392 4.01734 0
M  V30 4481 H 423.416 0.996383 5.39781 0
M  V30 4482 H 423.677 -0.425808 4.40045 0
M  V30 4483 N 422.737 -1.36956 0.779787 0
M  V30 4484 C 424.014 -1.93697 0.272156 0
M  V30 4485 C 424.394 -1.71267 -1.23413 0
M  V30 4486 O 423.742 -1.06607 -2.02107 0
M  V30 4487 C 423.952 -3.42812 0.654291 0
M  V30 4488 C 425.3 -4.19921 0.628602 0
M  V30 4489 O 426.324 -3.51209 0.594172 0
M  V30 4490 O 425.183 -5.42465 0.662864 0
M  V30 4491 H 422.277 -0.824447 0.0649286 0
M  V30 4492 H 424.823 -1.46196 0.861682 0
M  V30 4493 H 423.595 -3.52754 1.69353 0
M  V30 4494 H 423.218 -3.97582 0.0381369 0
M  V30 4495 N 424.215 -0.530993 -1.48385 0
M  V30 4496 C 425.163 0.244595 -2.3131 0
M  V30 4497 C 426.157 0.93451 -1.41291 0
M  V30 4498 O 427.363 0.85878 -1.58193 0
M  V30 4499 H 423.738 0.0977472 -0.74562 0
M  V30 4500 H 425.709 -0.474369 -2.94605 0
M  V30 4501 C 424.458 1.2779 -3.23365 0
M  V30 4502 H 423.781 0.756439 -3.92579 0
M  V30 4503 H 425.221 1.79198 -3.84271 0
M  V30 4504 C 423.68 2.31205 -2.45042 0
M  V30 4505 O 424.21 3.37661 -2.17596 0
M  V30 4506 N 422.416 2.04446 -2.0652 0
M  V30 4507 H 421.963 1.17891 -2.2904 0
M  V30 4508 H 421.921 2.73861 -1.54427 0
M  V30 4509 N 425.693 1.55336 -0.266172 0
M  V30 4510 C 426.94 1.99397 0.353158 0
M  V30 4511 C 427.268 1.15451 1.56529 0
M  V30 4512 O 426.523 0.209974 1.9457 0
M  V30 4513 C 426.822 3.48606 0.787957 0
M  V30 4514 C 426.488 4.49773 -0.318541 0
M  V30 4515 C 425.15 4.77158 -0.62239 0
M  V30 4516 C 427.502 5.10212 -1.06459 0
M  V30 4517 C 424.83 5.62251 -1.67602 0
M  V30 4518 C 427.182 5.96449 -2.10788 0
M  V30 4519 C 425.846 6.22158 -2.41817 0
M  V30 4520 H 425.116 0.729644 0.12923 0
M  V30 4521 H 427.763 1.87732 -0.37802 0
M  V30 4522 H 426.068 3.57701 1.59866 0
M  V30 4523 H 427.765 3.80098 1.27775 0
M  V30 4524 H 424.355 4.2854 -0.0715925 0
M  V30 4525 H 428.539 4.89086 -0.843098 0
M  V30 4526 H 423.795 5.80419 -1.92155 0
M  V30 4527 H 427.969 6.42317 -2.69076 0
M  V30 4528 H 425.596 6.87888 -3.23596 0
M  V30 4529 N 427.171 -0.0066808 1.57599 0
M  V30 4530 C 428.118 -1.00024 2.08 0
M  V30 4531 C 429.088 -1.34549 0.973943 0
M  V30 4532 O 430.273 -1.44502 1.24595 0
M  V30 4533 C 427.413 -2.2891 2.58252 0
M  V30 4534 C 426.526 -2.00346 3.82734 0
M  V30 4535 C 425.661 -3.23265 4.21513 0
M  V30 4536 C 424.7 -2.90357 5.3885 0
M  V30 4537 N 423.837 -4.05793 5.72954 0
M  V30 4538 H 428.677 -0.563499 2.92624 0
M  V30 4539 H 426.214 -0.266592 1.44664 0
M  V30 4540 H 428.172 -3.04247 2.85464 0
M  V30 4541 H 426.802 -2.70265 1.76512 0
M  V30 4542 H 425.854 -1.15406 3.62471 0
M  V30 4543 H 427.166 -1.72086 4.68175 0
M  V30 4544 H 426.32 -4.06953 4.49971 0
M  V30 4545 H 425.059 -3.54657 3.34768 0
M  V30 4546 H 424.064 -2.05075 5.10122 0
M  V30 4547 H 425.289 -2.60219 6.27266 0
M  V30 4548 H 423.235 -4.37094 4.89167 0
M  V30 4549 H 423.152 -3.81034 6.52954 0
M  V30 4550 H 424.42 -4.90289 6.06001 0
M  V30 4551 N 428.649 -1.55105 -0.279332 0
M  V30 4552 C 429.579 -1.90557 -1.34945 0
M  V30 4553 C 430.56 -0.766738 -1.51839 0
M  V30 4554 O 431.745 -1.02434 -1.64988 0
M  V30 4555 C 428.875 -2.17193 -2.71006 0
M  V30 4556 C 427.829 -3.33021 -2.68851 0
M  V30 4557 C 427.155 -3.45123 -4.08405 0
M  V30 4558 C 428.455 -4.69578 -2.28678 0
M  V30 4559 H 430.149 -2.80188 -1.05522 0
M  V30 4560 H 427.695 -1.34811 -0.506173 0
M  V30 4561 H 429.648 -2.40581 -3.45975 0
M  V30 4562 H 428.372 -1.24355 -3.01999 0
M  V30 4563 H 427.031 -3.0959 -1.9634 0
M  V30 4564 H 426.679 -2.49762 -4.3661 0
M  V30 4565 H 426.379 -4.22995 -4.07859 0
M  V30 4566 H 427.903 -3.70796 -4.85121 0
M  V30 4567 H 429.317 -4.92553 -2.93368 0
M  V30 4568 H 427.714 -5.5032 -2.39306 0
M  V30 4569 H 428.784 -4.68828 -1.23807 0
M  V30 4570 N 430.127 0.543554 -1.4793 0
M  V30 4571 C 431.538 1.12561 -1.48953 0
M  V30 4572 C 431.889 1.94578 -0.251754 0
M  V30 4573 O 431.014 2.0665 0.642255 0
M  V30 4574 C 431.609 2.04801 -2.69892 0
M  V30 4575 C 430.168 2.58251 -2.73831 0
M  V30 4576 C 429.315 1.34918 -2.42265 0
M  V30 4577 H 432.266 0.32947 -1.55242 0
M  V30 4578 H 432.287 2.88886 -2.47639 0
M  V30 4579 H 431.799 1.4508 -3.59963 0
M  V30 4580 H 429.9 3.21732 -1.87934 0
M  V30 4581 H 430.013 2.98312 -3.74895 0
M  V30 4582 H 428.377 1.66046 -1.93134 0
M  V30 4583 H 429.16 0.769693 -3.3456 0
M  V30 4584 N 431.605 1.3629 0.791371 0
M  V30 4585 C 432.515 1.32606 1.93527 0
M  V30 4586 C 433.531 0.228541 1.72493 0
M  V30 4587 O 434.707 0.460571 1.96063 0
M  V30 4588 C 431.772 1.11271 3.28359 0
M  V30 4589 C 430.833 2.3048 3.62185 0
M  V30 4590 C 430.066 2.10154 4.90583 0
M  V30 4591 O 430.289 1.07572 5.60165 0
M  V30 4592 O 429.223 2.97884 5.23019 0
M  V30 4593 H 433.049 2.28909 1.99585 0
M  V30 4594 H 430.634 1.16818 0.931344 0
M  V30 4595 H 432.516 1.01283 4.09047 0
M  V30 4596 H 431.191 0.180292 3.23198 0
M  V30 4597 H 430.098 2.46036 2.81811 0
M  V30 4598 H 431.431 3.22221 3.72068 0
M  V30 4599 N 433.083 -1.0153 1.20538 0
M  V30 4600 C 434.36 -1.72327 0.925343 0
M  V30 4601 C 434.74 -2.03383 -0.565547 0
M  V30 4602 O 434.088 -1.69934 -1.52757 0
M  V30 4603 C 434.298 -2.9902 1.79967 0
M  V30 4604 C 435.646 -3.72258 2.04228 0
M  V30 4605 O 436.67 -3.08979 1.77231 0
M  V30 4606 O 435.529 -4.86053 2.4983 0
M  V30 4607 H 432.623 -0.751099 0.346092 0
M  V30 4608 H 435.169 -1.07366 1.31417 0
M  V30 4609 H 433.941 -2.72402 2.80915 0
M  V30 4610 H 433.564 -3.71721 1.41099 0
M  V30 4611 N 434.561 -1.01147 -1.20859 0
M  V30 4612 C 435.838 -0.613136 -1.85742 0
M  V30 4613 C 436.218 0.909004 -1.90526 0
M  V30 4614 O 435.566 1.79862 -1.40932 0
M  V30 4615 C 435.776 -1.255 -3.25654 0
M  V30 4616 C 437.124 -1.3672 -4.01986 0
M  V30 4617 O 438.148 -1.21082 -3.34989 0
M  V30 4618 O 437.007 -1.6194 -5.21956 0
M  V30 4619 H 434.101 -0.210878 -0.799662 0
M  V30 4620 H 436.647 -1.10853 -1.2849 0
M  V30 4621 H 435.419 -2.29532 -3.16908 0
M  V30 4622 H 435.042 -0.746369 -3.90532 0
M  V30 4623 N 436.039 1.36541 -0.78704 0
M  V30 4624 C 436.969 2.32659 -0.197992 0
M  V30 4625 C 437.95 1.56533 0.665697 0
M  V30 4626 O 439.135 1.84698 0.60001 0
M  V30 4627 C 436.265 3.40778 0.669901 0
M  V30 4628 C 435.219 4.27897 -0.0937039 0
M  V30 4629 C 434.545 5.27163 0.894629 0
M  V30 4630 C 435.845 5.06334 -1.28154 0
M  V30 4631 H 437.539 2.82171 -1.00099 0
M  V30 4632 H 435.085 1.35665 -0.482793 0
M  V30 4633 H 437.038 4.07008 1.09191 0
M  V30 4634 H 435.762 2.89827 1.50558 0
M  V30 4635 H 434.421 3.6322 -0.49666 0
M  V30 4636 H 434.069 4.72486 1.72527 0
M  V30 4637 H 433.769 5.86317 0.388149 0
M  V30 4638 H 435.293 5.96266 1.31525 0
M  V30 4639 H 436.707 5.65617 -0.93541 0
M  V30 4640 H 435.104 5.74888 -1.72115 0
M  V30 4641 H 436.174 4.38114 -2.07807 0
M  V30 4642 N 437.518 0.538854 1.48102 0
M  V30 4643 C 438.934 0.19732 1.58376 0
M  V30 4644 C 439.134 -1.29971 1.5398 0
M  V30 4645 O 438.19 -2.07861 1.43352 0
M  V30 4646 C 439.503 0.807716 2.89649 0
M  V30 4647 C 441.051 0.77726 3.03196 0
M  V30 4648 C 441.526 1.36639 4.37143 0
M  V30 4649 N 443.017 1.32875 4.43732 0
M  V30 4650 C 443.752 1.7544 5.45901 0
M  V30 4651 N 443.248 2.25776 6.54979 0
M  V30 4652 N 445.041 1.66623 5.36836 0
M  V30 4653 H 437.192 1.5117 1.49202 0
M  V30 4654 H 439.455 0.629327 0.708979 0
M  V30 4655 H 439.161 1.85909 2.98548 0
M  V30 4656 H 439.035 0.289975 3.76084 0
M  V30 4657 H 441.422 -0.265374 2.93904 0
M  V30 4658 H 441.503 1.33256 2.18349 0
M  V30 4659 H 441.147 2.408 4.47189 0
M  V30 4660 H 441.077 0.786689 5.20691 0
M  V30 4661 H 443.568 0.96037 3.65493 0
M  V30 4662 H 443.881 2.56226 7.29087 0
M  V30 4663 H 442.226 2.29775 6.55918 0
M  V30 4664 H 445.417 1.27089 4.50517 0
M  V30 4665 H 445.59 2.00115 6.16326 0
M  V30 4666 N 438.996 -1.55193 0.274407 0
M  V30 4667 C 440.244 -1.99187 -0.341902 0
M  V30 4668 C 440.565 -1.16422 -1.56431 0
M  V30 4669 O 439.835 -0.253573 -1.94252 0
M  V30 4670 H 438.415 -0.735721 -0.129317 0
M  V30 4671 H 441.077 -1.91168 0.379578 0
M  V30 4672 H 440.173 -3.05629 -0.632253 0
M  V30 4673 N 440.474 -0.00167713 -1.576 0
M  V30 4674 C 441.723 0.682021 -1.89819 0
M  V30 4675 C 442.036 1.74844 -0.876871 0
M  V30 4676 O 443.242 2.48688 -1.08934 0
M  V30 4677 C 441.698 1.26425 -3.36964 0
M  V30 4678 C 441.306 0.232568 -4.47396 0
M  V30 4679 C 443.05 1.92604 -3.78291 0
M  V30 4680 C 440.957 0.824882 -5.85619 0
M  V30 4681 H 439.887 0.258499 -0.708304 0
M  V30 4682 H 442.538 -0.0624957 -1.83394 0
M  V30 4683 H 440.92 2.05949 -3.38232 0
M  V30 4684 H 442.094 -0.5382 -4.57646 0
M  V30 4685 H 440.409 -0.32888 -4.15099 0
M  V30 4686 H 443.006 2.37827 -4.78897 0
M  V30 4687 H 443.349 2.75732 -3.11894 0
M  V30 4688 H 443.882 1.19812 -3.79328 0
M  V30 4689 H 440.621 0.0323542 -6.55492 0
M  V30 4690 H 440.141 1.56477 -5.79029 0
M  V30 4691 H 441.82 1.32301 -6.33329 0
M  V30 4692 N 441.952 1.55251 0.271103 0
M  V30 4693 C 442.884 1.84675 1.35749 0
M  V30 4694 C 443.897 0.731366 1.45447 0
M  V30 4695 O 445.086 1.00924 1.4723 0
M  V30 4696 C 442.186 1.99638 2.73857 0
M  V30 4697 C 441.359 3.30312 2.86727 0
M  V30 4698 C 440.418 3.35318 4.05522 0
M  V30 4699 O 439.444 4.08682 3.96191 0
M  V30 4700 N 440.646 2.62857 5.17577 0
M  V30 4701 H 443.411 2.78445 1.10853 0
M  V30 4702 H 440.972 1.55191 0.461218 0
M  V30 4703 H 442.964 2.00355 3.51625 0
M  V30 4704 H 441.534 1.12725 2.91568 0
M  V30 4705 H 440.754 3.42118 1.95829 0
M  V30 4706 H 442.042 4.16488 2.92258 0
M  V30 4707 H 441.44 2.02939 5.28046 0
M  V30 4708 H 439.997 2.69295 5.93568 0
M  V30 4709 N 443.43 -0.535701 1.48216 0
M  V30 4710 C 444.362 -1.65662 1.58394 0
M  V30 4711 C 445.375 -1.5591 0.468607 0
M  V30 4712 O 446.564 -1.62475 0.7392 0
M  V30 4713 C 443.664 -3.04276 1.4923 0
M  V30 4714 C 442.837 -3.39567 2.75705 0
M  V30 4715 C 441.896 -4.57436 2.60075 0
M  V30 4716 O 440.922 -4.60942 3.33948 0
M  V30 4717 N 442.124 -5.55259 1.69315 0
M  V30 4718 H 444.889 -1.5737 2.55058 0
M  V30 4719 H 442.45 -0.722845 1.44867 0
M  V30 4720 H 444.442 -3.80994 1.36477 0
M  V30 4721 H 443.012 -3.06677 0.605632 0
M  V30 4722 H 442.232 -2.52083 3.03064 0
M  V30 4723 H 443.52 -3.59929 3.59623 0
M  V30 4724 H 442.918 -5.552 1.08489 0
M  V30 4725 H 441.475 -6.31218 1.62504 0
M  V30 4726 N 444.908 -1.36708 -0.784132 0
M  V30 4727 C 445.838 -1.34153 -1.91116 0
M  V30 4728 C 446.819 -0.212121 -1.68772 0
M  V30 4729 O 448.004 -0.410581 -1.8981 0
M  V30 4730 C 445.134 -1.13535 -3.28218 0
M  V30 4731 C 444.088 -2.23356 -3.65097 0
M  V30 4732 C 443.414 -1.87875 -5.00607 0
M  V30 4733 C 444.714 -3.65473 -3.73131 0
M  V30 4734 H 446.408 -2.28459 -1.93512 0
M  V30 4735 H 443.954 -1.09973 -0.929618 0
M  V30 4736 H 445.907 -1.10381 -4.06687 0
M  V30 4737 H 444.631 -0.156804 -3.26223 0
M  V30 4738 H 443.29 -2.25645 -2.88929 0
M  V30 4739 H 442.938 -0.885814 -4.95139 0
M  V30 4740 H 442.638 -2.61406 -5.26252 0
M  V30 4741 H 444.162 -1.86286 -5.81489 0
M  V30 4742 H 445.576 -3.65382 -4.41779 0
M  V30 4743 H 443.973 -4.37953 -4.10265 0
M  V30 4744 H 445.043 -3.99995 -2.74102 0
M  V30 4745 N 446.386 1.0089 -1.21074 0
M  V30 4746 C 447.616 1.77933 -1.04993 0
M  V30 4747 C 448.024 1.84847 0.403495 0
M  V30 4748 O 447.367 1.30606 1.29181 0
M  V30 4749 C 447.429 3.23541 -1.56722 0
M  V30 4750 C 447.093 3.40214 -3.05129 0
M  V30 4751 C 448.09 3.2881 -4.02716 0
M  V30 4752 C 445.775 3.65781 -3.44252 0
M  V30 4753 C 447.769 3.42732 -5.37414 0
M  V30 4754 C 445.456 3.79346 -4.79103 0
M  V30 4755 C 446.454 3.67827 -5.75493 0
M  V30 4756 O 446.142 3.80965 -7.07899 0
M  V30 4757 H 445.874 0.566157 -0.369381 0
M  V30 4758 H 448.428 1.27826 -1.60779 0
M  V30 4759 H 446.658 3.74766 -0.953285 0
M  V30 4760 H 448.347 3.82245 -1.36543 0
M  V30 4761 H 449.113 3.08986 -3.73835 0
M  V30 4762 H 444.992 3.73831 -2.69762 0
M  V30 4763 H 448.536 3.33658 -6.12632 0
M  V30 4764 H 444.433 3.98672 -5.07672 0
M  V30 4765 H 445.201 3.97937 -7.15254 0
M  V30 4766 N 447.864 1.01787 1.20321 0
M  V30 4767 C 449.112 0.706538 1.89347 0
M  V30 4768 C 449.433 -0.766289 1.79313 0
M  V30 4769 O 448.703 -1.55126 1.19635 0
M  V30 4770 H 447.283 0.258348 0.700903 0
M  V30 4771 H 449.945 1.28974 1.46122 0
M  V30 4772 H 449.041 0.991066 2.95946 0
M  V30 4773 N 449.342 -1.36122 0.79427 0
M  V30 4774 C 450.57 -2.03362 0.380989 0
M  V30 4775 C 450.985 -1.59881 -1.00416 0
M  V30 4776 O 450.342 -0.790515 -1.6449 0
M  V30 4777 C 450.393 -3.58804 0.440649 0
M  V30 4778 O 450.114 -4.007 1.77118 0
M  V30 4779 C 451.615 -4.43296 0.0186117 0
M  V30 4780 H 448.835 -0.652526 0.156367 0
M  V30 4781 H 451.379 -1.73998 1.07447 0
M  V30 4782 H 449.534 -3.8686 -0.204458 0
M  V30 4783 H 449.948 -4.95309 1.72538 0
M  V30 4784 H 451.422 -5.51887 0.111488 0
M  V30 4785 H 451.899 -4.2684 -1.03461 0
M  V30 4786 H 452.505 -4.20512 0.636395 0
M  V30 4787 N 450.82 -0.546701 -1.47814 0
M  V30 4788 C 452.231 -0.110564 -1.86372 0
M  V30 4789 C 452.582 1.31678 -1.45449 0
M  V30 4790 O 451.707 1.98889 -0.852758 0
M  V30 4791 C 452.302 -0.193873 -3.38245 0
M  V30 4792 C 450.861 0.187164 -3.75934 0
M  V30 4793 C 450.008 -0.546166 -2.71868 0
M  V30 4794 H 452.959 -0.757022 -1.39481 0
M  V30 4795 H 452.98 0.590218 -3.75895 0
M  V30 4796 H 452.492 -1.23282 -3.67999 0
M  V30 4797 H 450.593 1.22762 -3.51796 0
M  V30 4798 H 450.706 -0.164083 -4.78819 0
M  V30 4799 H 449.07 0.00953904 -2.54698 0
M  V30 4800 H 449.853 -1.58606 -3.04465 0
M  V30 4801 N 452.299 1.55045 -0.282633 0
M  V30 4802 C 453.576 1.9179 0.384166 0
M  V30 4803 C 453.956 1.20778 1.73136 0
M  V30 4804 O 453.304 0.33719 2.25998 0
M  V30 4805 C 453.514 3.45149 0.517014 0
M  V30 4806 C 454.862 4.17064 0.796427 0
M  V30 4807 O 455.886 3.51084 0.601535 0
M  V30 4808 O 454.745 5.33837 1.16962 0
M  V30 4809 H 451.839 0.799483 0.211558 0
M  V30 4810 H 454.385 1.66474 -0.32934 0
M  V30 4811 H 453.157 3.88922 -0.430772 0
M  V30 4812 H 452.78 3.76443 1.2797 0
M  V30 4813 N 453.777 0.010035 1.57597 0
M  V30 4814 C 455.025 -0.671371 1.90623 0
M  V30 4815 C 455.346 -1.73753 0.885151 0
M  V30 4816 O 454.616 -1.95752 -0.0760611 0
M  V30 4817 H 453.196 -0.250968 0.703579 0
M  V30 4818 H 455.858 0.0533325 1.94827 0
M  V30 4819 H 454.954 -1.13626 2.90681 0
M  V30 4820 N 455.255 -1.55392 -0.262866 0
M  V30 4821 C 456.187 -1.85392 -1.34768 0
M  V30 4822 C 457.2 -0.739069 -1.45057 0
M  V30 4823 O 458.389 -1.01703 -1.46693 0
M  V30 4824 C 455.489 -2.01088 -2.72795 0
M  V30 4825 C 454.662 -3.31828 -2.84972 0
M  V30 4826 C 453.721 -3.37464 -4.03738 0
M  V30 4827 O 452.747 -4.10778 -3.94018 0
M  V30 4828 N 453.949 -2.65599 -5.16176 0
M  V30 4829 H 456.714 -2.79029 -1.09375 0
M  V30 4830 H 454.275 -1.55434 -0.452981 0
M  V30 4831 H 456.267 -2.02217 -3.50557 0
M  V30 4832 H 454.837 -1.1427 -2.90966 0
M  V30 4833 H 454.057 -3.43152 -1.94012 0
M  V30 4834 H 455.345 -4.18032 -2.90045 0
M  V30 4835 H 454.743 -2.05736 -5.26962 0
M  V30 4836 H 453.3 -2.72439 -5.92132 0
M  V30 4837 N 456.733 0.527833 -1.48498 0
M  V30 4838 C 458.144 1.10975 -1.50138 0
M  V30 4839 C 458.495 1.943 -0.272378 0
M  V30 4840 O 457.62 2.07319 0.620301 0
M  V30 4841 C 458.215 2.01927 -2.72049 0
M  V30 4842 C 456.774 2.55332 -2.76554 0
M  V30 4843 C 455.921 1.32341 -2.43683 0
M  V30 4844 H 458.872 0.312986 -1.55583 0
M  V30 4845 H 458.893 2.86244 -2.50689 0
M  V30 4846 H 458.405 1.41254 -3.61481 0
M  V30 4847 H 456.506 3.19721 -1.91336 0
M  V30 4848 H 456.619 2.94319 -3.78038 0
M  V30 4849 H 454.983 1.63989 -1.94884 0
M  V30 4850 H 455.766 0.734165 -3.35358 0
M  V30 4851 N 458.211 1.37122 0.776871 0
M  V30 4852 C 459.143 1.28342 1.89897 0
M  V30 4853 C 460.156 0.200277 1.61563 0
M  V30 4854 O 461.345 0.456012 1.72577 0
M  V30 4855 C 458.445 0.960427 3.25006 0
M  V30 4856 C 457.618 2.148 3.81025 0
M  V30 4857 C 456.677 1.79608 4.94598 0
M  V30 4858 O 455.703 2.51845 5.10454 0
M  V30 4859 N 456.905 0.737171 5.758 0
M  V30 4860 H 459.67 2.25027 1.97947 0
M  V30 4861 H 457.231 1.3068 0.955739 0
M  V30 4862 H 459.223 0.705942 3.98495 0
M  V30 4863 H 457.793 0.0823066 3.12492 0
M  V30 4864 H 457.013 2.56454 2.99374 0
M  V30 4865 H 458.301 2.9411 4.15183 0
M  V30 4866 H 457.699 0.137637 5.65533 0
M  V30 4867 H 456.256 0.542534 6.49538 0
M  V30 4868 N 459.689 -1.00246 1.21608 0
M  V30 4869 C 461.1 -1.55511 1.03312 0
M  V30 4870 C 461.451 -1.91946 -0.406332 0
M  V30 4871 O 460.576 -1.73753 -1.28992 0
M  V30 4872 C 461.171 -2.82576 1.86913 0
M  V30 4873 C 459.73 -3.34318 1.72941 0
M  V30 4874 C 458.877 -2.07487 1.83968 0
M  V30 4875 H 461.828 -0.824638 1.35593 0
M  V30 4876 H 461.849 -3.54559 1.38087 0
M  V30 4877 H 461.361 -2.56026 2.91672 0
M  V30 4878 H 459.462 -3.65797 0.70877 0
M  V30 4879 H 459.575 -4.05566 2.55055 0
M  V30 4880 H 457.939 -2.20603 1.27304 0
M  V30 4881 H 458.722 -1.83346 2.9024 0
M  V30 4882 N 461.167 -1.02423 -1.1978 0
M  V30 4883 C 462.395 -0.737456 -1.93311 0
M  V30 4884 C 462.81 0.703023 -1.75223 0
M  V30 4885 O 462.167 1.47761 -1.07112 0
M  V30 4886 C 462.218 -1.0733 -3.45199 0
M  V30 4887 O 461.939 -2.4572 -3.62702 0
M  V30 4888 C 463.44 -0.80866 -4.35862 0
M  V30 4889 H 460.66 -0.2702 -0.614193 0
M  V30 4890 H 463.204 -1.36747 -1.52054 0
M  V30 4891 H 461.359 -0.488545 -3.84307 0
M  V30 4892 H 461.773 -2.58081 -4.56612 0
M  V30 4893 H 463.247 -1.09365 -5.41057 0
M  V30 4894 H 463.724 0.257025 -4.38447 0
M  V30 4895 H 464.33 -1.37592 -4.02428 0
M  V30 4896 N 462.645 1.35699 -0.801477 0
M  V30 4897 C 463.577 2.28598 -0.166028 0
M  V30 4898 C 464.59 1.50044 0.631721 0
M  V30 4899 O 465.779 1.72339 0.464921 0
M  V30 4900 C 462.879 3.29625 0.787451 0
M  V30 4901 C 462.052 4.37384 0.037171 0
M  V30 4902 C 461.111 5.183 0.908375 0
M  V30 4903 O 460.137 5.68053 0.361189 0
M  V30 4904 N 461.339 5.35912 2.23112 0
M  V30 4905 H 464.104 2.83771 -0.964071 0
M  V30 4906 H 461.665 1.47994 -0.656469 0
M  V30 4907 H 463.657 3.80648 1.37439 0
M  V30 4908 H 462.227 2.75004 1.48632 0
M  V30 4909 H 461.447 3.87364 -0.730935 0
M  V30 4910 H 462.735 5.0653 -0.480109 0
M  V30 4911 H 462.133 4.97125 2.69968 0
M  V30 4912 H 460.69 5.90133 2.76741 0
M  V30 4913 N 464.123 0.554532 1.47522 0
M  V30 4914 C 465.534 0.120446 1.86311 0
M  V30 4915 C 465.885 -1.30904 1.46145 0
M  V30 4916 O 465.01 -1.98434 0.863294 0
M  V30 4917 C 465.605 0.211808 3.38137 0
M  V30 4918 C 464.164 -0.167224 3.76028 0
M  V30 4919 C 463.311 0.560576 2.71575 0
M  V30 4920 H 466.262 0.764408 1.39077 0
M  V30 4921 H 466.283 -0.570275 3.76202 0
M  V30 4922 H 465.795 1.25232 3.6734 0
M  V30 4923 H 463.896 -1.20894 3.52442 0
M  V30 4924 H 464.009 0.189473 4.78725 0
M  V30 4925 H 462.373 0.00396836 2.547 0
M  V30 4926 H 463.156 1.60219 3.0362 0
M  V30 4927 N 465.601 -1.54893 0.290851 0
M  V30 4928 C 466.531 -2.26103 -0.583084 0
M  V30 4929 C 467.512 -1.25684 -1.14619 0
M  V30 4930 O 468.697 -1.54436 -1.17741 0
M  V30 4931 C 465.827 -2.99409 -1.75987 0
M  V30 4932 C 464.781 -4.0689 -1.32758 0
M  V30 4933 C 464.107 -4.67856 -2.58872 0
M  V30 4934 C 465.407 -5.20215 -0.46624 0
M  V30 4935 H 467.101 -2.99398 0.0108214 0
M  V30 4936 H 464.647 -1.43998 0.00664468 0
M  V30 4937 H 466.6 -3.47943 -2.37727 0
M  V30 4938 H 465.324 -2.23675 -2.37985 0
M  V30 4939 H 463.983 -3.59191 -0.733299 0
M  V30 4940 H 463.631 -3.88772 -3.19163 0
M  V30 4941 H 463.331 -5.40438 -2.30653 0
M  V30 4942 H 464.855 -5.19147 -3.21433 0
M  V30 4943 H 466.269 -5.64704 -0.989047 0
M  V30 4944 H 464.666 -5.99455 -0.27826 0
M  V30 4945 H 465.736 -4.82198 0.511173 0
M  V30 4946 N 467.08 -0.0183926 -1.57589 0
M  V30 4947 C 468.491 0.521927 -1.79256 0
M  V30 4948 C 468.842 1.72885 -0.927636 0
M  V30 4949 O 467.967 2.15978 -0.135091 0
M  V30 4950 C 468.562 0.953632 -3.25102 0
M  V30 4951 C 467.121 1.43913 -3.47801 0
M  V30 4952 C 466.268 0.398837 -2.74417 0
M  V30 4953 H 469.219 -0.244485 -1.56805 0
M  V30 4954 H 469.24 1.81863 -3.34224 0
M  V30 4955 H 468.752 0.0750123 -3.88028 0
M  V30 4956 H 466.853 2.33804 -2.90115 0
M  V30 4957 H 466.966 1.45391 -4.56507 0
M  V30 4958 H 465.33 0.864572 -2.39577 0
M  V30 4959 H 466.113 -0.471132 -3.40052 0
M  V30 4960 N 468.558 1.5553 0.254621 0
M  V30 4961 C 469.786 1.81046 1.00149 0
M  V30 4962 C 470.201 0.593047 1.79244 0
M  V30 4963 O 469.558 -0.438196 1.77161 0
M  V30 4964 C 469.609 3.04684 1.94551 0
M  V30 4965 O 469.33 4.21725 1.18658 0
M  V30 4966 C 470.831 3.42943 2.80901 0
M  V30 4967 H 468.051 0.602653 0.295044 0
M  V30 4968 H 470.595 2.02576 0.279842 0
M  V30 4969 H 468.75 2.85226 2.62154 0
M  V30 4970 H 469.164 4.91746 1.82445 0
M  V30 4971 H 470.638 4.32576 3.42902 0
M  V30 4972 H 471.115 2.63176 3.51617 0
M  V30 4973 H 471.721 3.64724 2.18762 0
M  V30 4974 N 470.036 -0.519951 1.48776 0
M  V30 4975 C 471.282 -1.27711 1.57536 0
M  V30 4976 C 471.615 -1.92547 0.252866 0
M  V30 4977 O 470.89 -1.7979 -0.742021 0
M  V30 4978 C 471.173 -2.35875 2.72094 0
M  V30 4979 C 471.026 -1.75664 4.1408 0
M  V30 4980 C 472.345 -3.37575 2.82367 0
M  V30 4981 H 469.464 -0.462971 0.573434 0
M  V30 4982 H 472.106 -0.578194 1.80989 0
M  V30 4983 H 470.256 -2.95488 2.52228 0
M  V30 4984 H 471.928 -1.20025 4.45412 0
M  V30 4985 H 470.171 -1.06154 4.20611 0
M  V30 4986 H 470.842 -2.54029 4.90075 0
M  V30 4987 H 473.318 -2.87929 3.00393 0
M  V30 4988 H 472.194 -4.1064 3.64233 0
M  V30 4989 H 472.455 -3.98743 1.90936 0
M  V30 4990 N 471.514 -1.37532 -0.769588 0
M  V30 4991 C 472.742 -1.36059 -1.55871 0
M  V30 4992 C 473.157 0.053544 -1.88724 0
M  V30 4993 O 472.514 1.01591 -1.5161 0
M  V30 4994 C 472.565 -2.20107 -2.86767 0
M  V30 4995 O 472.286 -3.56009 -2.55321 0
M  V30 4996 C 473.787 -2.26636 -3.80987 0
M  V30 4997 H 471.007 -0.465967 -0.482821 0
M  V30 4998 H 473.551 -1.80901 -0.953686 0
M  V30 4999 H 471.706 -1.78768 -3.43687 0
M  V30 5000 H 472.12 -4.0009 -3.39158 0
M  V30 5001 H 473.594 -2.89763 -4.69831 0
M  V30 5002 H 474.071 -1.2754 -4.20274 0
M  V30 5003 H 474.677 -2.68296 -3.29996 0
M  V30 5004 N 472.992 0.995999 -1.22138 0
M  V30 5005 C 474.403 1.54961 -1.04135 0
M  V30 5006 C 474.754 1.92159 0.396147 0
M  V30 5007 O 473.879 1.74435 1.28069 0
M  V30 5008 C 474.474 2.81581 -1.88408 0
M  V30 5009 C 473.033 3.33396 -1.74712 0
M  V30 5010 C 472.18 2.06509 -1.85066 0
M  V30 5011 H 475.131 0.817436 -1.36028 0
M  V30 5012 H 475.152 3.53822 -1.39966 0
M  V30 5013 H 474.664 2.54476 -2.93025 0
M  V30 5014 H 472.765 3.65416 -0.728159 0
M  V30 5015 H 472.878 4.04208 -2.57202 0
M  V30 5016 H 471.242 2.19925 -1.28472 0
M  V30 5017 H 472.025 1.81804 -2.91208 0
M  V30 5018 N 474.47 1.03057 1.19235 0
M  V30 5019 C 475.886 0.747947 1.40989 0
M  V30 5020 C 476.086 -0.666752 1.90149 0
M  V30 5021 O 475.142 -1.43249 2.07933 0
M  V30 5022 C 476.455 1.7855 2.41951 0
M  V30 5023 C 478.003 1.80524 2.55695 0
M  V30 5024 C 478.478 2.83243 3.59913 0
M  V30 5025 N 479.969 2.8207 3.67411 0
M  V30 5026 C 480.704 3.58204 4.47747 0
M  V30 5027 N 480.2 4.44057 5.31775 0
M  V30 5028 N 481.993 3.46738 4.42413 0
M  V30 5029 H 474.144 1.94367 0.856468 0
M  V30 5030 H 476.407 0.840412 0.438647 0
M  V30 5031 H 476.113 2.79973 2.12857 0
M  V30 5032 H 475.987 1.6092 3.41152 0
M  V30 5033 H 478.374 0.79778 2.84112 0
M  V30 5034 H 478.455 2.02229 1.56643 0
M  V30 5035 H 478.099 3.84161 3.32239 0
M  V30 5036 H 478.029 2.58795 4.5862 0
M  V30 5037 H 480.52 2.19803 3.074 0
M  V30 5038 H 480.833 4.98884 5.90199 0
M  V30 5039 H 479.178 4.48129 5.3123 0
M  V30 5040 H 482.369 2.79077 3.75811 0
M  V30 5041 H 482.542 4.06322 5.04783 0
M  V30 5042 N 475.948 -1.35272 0.808662 0
M  V30 5043 C 477.364 -1.51806 0.492653 0
M  V30 5044 C 477.564 -1.7574 -0.985778 0
M  V30 5045 O 476.62 -1.80003 -1.77074 0
M  V30 5046 C 477.933 -2.69202 1.33981 0
M  V30 5047 C 479.481 -2.8308 1.33547 0
M  V30 5048 C 479.956 -4.03502 2.16679 0
M  V30 5049 N 481.447 -4.10684 2.14227 0
M  V30 5050 C 482.182 -5.02984 2.75308 0
M  V30 5051 N 481.678 -6.00603 3.45323 0
M  V30 5052 N 483.471 -4.95746 2.64938 0
M  V30 5053 H 475.622 -1.17993 1.76611 0
M  V30 5054 H 477.885 -0.577476 0.751814 0
M  V30 5055 H 477.591 -2.581 2.38909 0
M  V30 5056 H 477.465 -3.63854 0.994491 0
M  V30 5057 H 479.852 -2.93631 0.294036 0
M  V30 5058 H 479.933 -1.89278 1.72068 0
M  V30 5059 H 479.577 -3.93711 3.20864 0
M  V30 5060 H 479.507 -4.96489 1.75517 0
M  V30 5061 H 481.998 -3.40802 1.63285 0
M  V30 5062 H 482.311 -6.67633 3.89212 0
M  V30 5063 H 480.656 -6.0077 3.49428 0
M  V30 5064 H 483.847 -4.18439 2.09825 0
M  V30 5065 H 484.02 -5.67487 3.12829 0
M  V30 5066 N 477.426 -0.562348 -1.47226 0
M  V30 5067 C 478.837 -0.130325 -1.86245 0
M  V30 5068 C 479.188 1.30128 -1.46838 0
M  V30 5069 O 478.313 1.97974 -0.873805 0
M  V30 5070 C 478.908 -0.229738 -3.3802 0
M  V30 5071 C 477.467 0.14728 -3.76112 0
M  V30 5072 C 476.614 -0.574971 -2.71274 0
M  V30 5073 H 479.565 -0.771773 -1.3867 0
M  V30 5074 H 479.586 0.550316 -3.76499 0
M  V30 5075 H 479.098 -1.27178 -3.66671 0
M  V30 5076 H 477.199 1.19023 -3.53078 0
M  V30 5077 H 477.312 -0.214858 -4.78618 0
M  V30 5078 H 475.676 -0.0174756 -2.54694 0
M  V30 5079 H 476.459 -1.61827 -3.02766 0
M  V30 5080 N 478.904 1.54736 -0.299062 0
M  V30 5081 C 480.152 1.99706 0.31017 0
M  V30 5082 C 480.473 1.18896 1.54559 0
M  V30 5083 O 479.743 0.284445 1.93824 0
M  V30 5084 H 478.323 0.737686 0.117596 0
M  V30 5085 H 480.985 1.9054 -0.409943 0
M  V30 5086 H 480.081 3.06596 0.58355 0
M  V30 5087 N 480.382 0.0267497 1.57577 0
M  V30 5088 C 481.798 -0.32962 1.56159 0
M  V30 5089 C 481.998 -1.73059 1.03213 0
M  V30 5090 O 481.054 -2.43233 0.677804 0
M  V30 5091 C 482.367 -0.18039 3.00158 0
M  V30 5092 C 483.915 -0.253334 3.11973 0
M  V30 5093 C 484.39 -0.132921 4.57807 0
M  V30 5094 N 485.881 -0.189979 4.6281 0
M  V30 5095 C 486.616 -0.120554 5.73273 0
M  V30 5096 N 486.112 -0.000180315 6.928 0
M  V30 5097 N 487.905 -0.174369 5.61829 0
M  V30 5098 H 480.056 0.942896 1.90324 0
M  V30 5099 H 482.319 0.3639 0.875375 0
M  V30 5100 H 482.025 0.784576 3.42837 0
M  V30 5101 H 481.899 -0.951565 3.65 0
M  V30 5102 H 484.286 -1.20876 2.69208 0
M  V30 5103 H 484.367 0.548177 2.49857 0
M  V30 5104 H 484.011 0.819073 5.01252 0
M  V30 5105 H 483.941 -0.953264 5.179 0
M  V30 5106 H 486.432 -0.283257 3.76837 0
M  V30 5107 H 486.745 0.0461666 7.72786 0
M  V30 5108 H 485.09 0.034569 6.94991 0
M  V30 5109 H 488.281 -0.266794 4.67339 0
M  V30 5110 H 488.454 -0.116802 6.47895 0
M  V30 5111 N 481.861 -1.55662 -0.24637 0
M  V30 5112 C 483.272 -1.67953 -0.81539 0
M  V30 5113 C 483.623 -0.624302 -1.86002 0
M  V30 5114 O 482.748 0.229328 -2.15181 0
M  V30 5115 C 483.343 -3.04484 -1.48576 0
M  V30 5116 C 481.902 -3.18713 -2.00248 0
M  V30 5117 C 481.049 -2.6383 -0.853766 0
M  V30 5118 H 484 -1.58685 -0.0221692 0
M  V30 5119 H 484.021 -2.98959 -2.3538 0
M  V30 5120 H 483.533 -3.81264 -0.725222 0
M  V30 5121 H 481.634 -2.46757 -2.79181 0
M  V30 5122 H 481.747 -4.25628 -2.1995 0
M  V30 5123 H 480.111 -2.21667 -1.25442 0
M  V30 5124 H 480.894 -3.43135 -0.106302 0
M  V30 5125 N 483.339 0.512053 -1.4905 0
M  V30 5126 C 484.616 1.27337 -1.48474 0
M  V30 5127 C 484.996 2.1009 -0.206301 0
M  V30 5128 O 484.344 2.136 0.811609 0
M  V30 5129 C 484.554 2.13954 -2.75726 0
M  V30 5130 C 485.902 2.73507 -3.24776 0
M  V30 5131 O 486.926 2.24229 -2.76767 0
M  V30 5132 O 485.785 3.63186 -4.08361 0
M  V30 5133 H 482.879 0.575652 -0.593762 0
M  V30 5134 H 485.425 0.527232 -1.61302 0
M  V30 5135 H 484.197 1.52709 -3.60272 0
M  V30 5136 H 483.82 2.95782 -2.65705 0
M  V30 5137 N 484.817 1.37938 0.762283 0
M  V30 5138 C 485.767 1.30976 1.86626 0
M  V30 5139 C 486.751 0.195714 1.59705 0
M  V30 5140 O 487.943 0.430937 1.71674 0
M  V30 5141 C 485.072 1.12847 3.24223 0
M  V30 5142 C 484.158 2.28836 3.57064 0
M  V30 5143 N 484.549 3.54256 3.61022 0
M  V30 5144 C 482.847 2.21198 3.87282 0
M  V30 5145 C 483.548 4.30798 3.90881 0
M  V30 5146 N 482.524 3.60049 4.07266 0
M  V30 5147 H 486.326 2.25946 1.87951 0
M  V30 5148 H 483.84 1.31046 0.959206 0
M  V30 5149 H 485.837 1.05943 4.03214 0
M  V30 5150 H 484.497 0.188024 3.24155 0
M  V30 5151 H 485.508 3.8804 3.42995 0
M  V30 5152 H 482.185 1.35264 3.94981 0
M  V30 5153 H 483.575 5.39386 4.00639 0
M  V30 5154 N 486.295 -0.989507 1.22664 0
M  V30 5155 C 487.711 -1.25395 0.987331 0
M  V30 5156 C 487.911 -1.9899 -0.317056 0
M  V30 5157 O 486.967 -2.30141 -1.03882 0
M  V30 5158 C 488.28 -2.06242 2.18826 0
M  V30 5159 C 489.828 -2.19413 2.23219 0
M  V30 5160 C 490.303 -3.03648 3.42873 0
M  V30 5161 N 491.794 -3.11234 3.43056 0
M  V30 5162 C 492.529 -3.7671 4.32293 0
M  V30 5163 N 492.025 -4.44085 5.31752 0
M  V30 5164 N 493.818 -3.73505 4.2006 0
M  V30 5165 H 485.969 -0.496212 2.06522 0
M  V30 5166 H 488.232 -0.281784 0.905153 0
M  V30 5167 H 487.938 -1.59531 3.13437 0
M  V30 5168 H 487.812 -3.06996 2.19165 0
M  V30 5169 H 490.199 -2.65336 1.29154 0
M  V30 5170 H 490.28 -1.18078 2.26917 0
M  V30 5171 H 489.924 -2.58424 4.37241 0
M  V30 5172 H 489.854 -4.05132 3.36416 0
M  V30 5173 H 492.345 -2.63287 2.71088 0
M  V30 5174 H 492.658 -4.91797 5.96117 0
M  V30 5175 H 491.003 -4.42822 5.35662 0
M  V30 5176 H 494.194 -3.20033 3.41609 0
M  V30 5177 H 494.367 -4.24253 4.8981 0
M  V30 5178 N 487.773 -1.03688 -1.18687 0
M  V30 5179 C 489.184 -0.766488 -1.70241 0
M  V30 5180 C 489.535 0.713052 -1.82784 0
M  V30 5181 O 488.66 1.55529 -1.50465 0
M  V30 5182 C 489.255 -1.38475 -3.09209 0
M  V30 5183 C 487.814 -1.16276 -3.5799 0
M  V30 5184 C 486.961 -1.4778 -2.34641 0
M  V30 5185 H 489.912 -1.20378 -1.03415 0
M  V30 5186 H 489.933 -0.785939 -3.72295 0
M  V30 5187 H 489.445 -2.46157 -3.00048 0
M  V30 5188 H 487.546 -0.104508 -3.72453 0
M  V30 5189 H 487.659 -1.8571 -4.41643 0
M  V30 5190 H 486.023 -0.897366 -2.38368 0
M  V30 5191 H 486.806 -2.56562 -2.28102 0
M  V30 5192 N 489.251 1.34841 -0.815825 0
M  V30 5193 C 490.662 1.80937 -0.46029 0
M  V30 5194 C 491.013 1.67685 1.01863 0
M  V30 5195 O 490.138 1.21277 1.79223 0
M  V30 5196 C 490.733 3.28509 -0.828708 0
M  V30 5197 C 489.292 3.72712 -0.525644 0
M  V30 5198 C 488.439 2.56676 -1.04941 0
M  V30 5199 H 491.39 1.22688 -1.00664 0
M  V30 5200 H 491.411 3.80279 -0.129757 0
M  V30 5201 H 490.923 3.38122 -1.90513 0
M  V30 5202 H 489.024 3.68642 0.541666 0
M  V30 5203 H 489.137 4.67119 -1.06474 0
M  V30 5204 H 487.501 2.50302 -0.471286 0
M  V30 5205 H 488.284 2.69063 -2.13214 0
M  V30 5206 N 490.729 0.570148 1.46925 0
M  V30 5207 C 492.145 0.23087 1.57921 0
M  V30 5208 C 492.345 -1.26676 1.56702 0
M  V30 5209 O 491.401 -2.04774 1.47729 0
M  V30 5210 C 492.714 0.868973 2.8787 0
M  V30 5211 C 494.262 0.841397 3.01479 0
M  V30 5212 C 494.737 1.45881 4.34146 0
M  V30 5213 N 496.228 1.42258 4.40814 0
M  V30 5214 C 496.963 1.8698 5.42057 0
M  V30 5215 N 496.459 2.39618 6.50042 0
M  V30 5216 N 498.252 1.77972 5.33181 0
M  V30 5217 H 490.403 1.54301 1.45962 0
M  V30 5218 H 492.666 0.644224 0.69547 0
M  V30 5219 H 492.372 1.922 2.94537 0
M  V30 5220 H 492.246 0.369682 3.75384 0
M  V30 5221 H 494.633 -0.202973 2.94401 0
M  V30 5222 H 494.714 1.37858 2.15474 0
M  V30 5223 H 494.358 2.50231 4.4198 0
M  V30 5224 H 494.288 0.896958 5.18905 0
M  V30 5225 H 496.779 1.03768 3.63374 0
M  V30 5226 H 497.092 2.71633 7.23488 0
M  V30 5227 H 495.437 2.43636 6.50897 0
M  V30 5228 H 498.628 1.36617 4.4772 0
M  V30 5229 H 498.801 2.13143 6.11943 0
M  V30 5230 N 492.207 -1.54576 0.307264 0
M  V30 5231 C 493.618 -1.8579 -0.184121 0
M  V30 5232 C 493.969 -1.22914 -1.52927 0
M  V30 5233 O 493.094 -0.529126 -2.09831 0
M  V30 5234 C 493.689 -3.37081 -0.340862 0
M  V30 5235 C 492.248 -3.68304 -0.776465 0
M  V30 5236 C 491.395 -2.77076 0.111503 0
M  V30 5237 H 494.346 -1.49656 0.528078 0
M  V30 5238 H 494.367 -3.61922 -1.17443 0
M  V30 5239 H 493.879 -3.82815 0.638309 0
M  V30 5240 H 491.98 -3.28092 -1.76596 0
M  V30 5241 H 492.093 -4.75434 -0.591512 0
M  V30 5242 H 490.457 -2.51374 -0.410256 0
M  V30 5243 H 491.24 -3.25632 1.08714 0
M  V30 5244 N 493.685 -0.035106 -1.57561 0
M  V30 5245 C 495.096 0.502885 -1.798 0
M  V30 5246 C 495.447 1.71892 -0.945921 0
M  V30 5247 O 494.572 2.15822 -0.157991 0
M  V30 5248 C 495.167 0.919097 -3.26095 0
M  V30 5249 C 493.726 1.40216 -3.49308 0
M  V30 5250 C 492.873 0.369709 -2.74824 0
M  V30 5251 H 495.824 -0.261102 -1.56537 0
M  V30 5252 H 495.845 1.78308 -3.36135 0
M  V30 5253 H 495.357 0.0338526 -3.88085 0
M  V30 5254 H 493.458 2.30714 -2.92578 0
M  V30 5255 H 493.571 1.40541 -4.58023 0
M  V30 5256 H 491.935 0.839113 -2.40481 0
M  V30 5257 H 492.718 -0.507173 -3.39533 0
M  V30 5258 N 495.163 1.55791 0.238111 0
M  V30 5259 C 496.095 1.87513 1.31802 0
M  V30 5260 C 497.108 0.762053 1.43863 0
M  V30 5261 O 498.297 1.04024 1.45056 0
M  V30 5262 C 495.397 2.05402 2.69561 0
M  V30 5263 C 494.57 3.3632 2.79656 0
M  V30 5264 C 493.629 3.43844 3.98319 0
M  V30 5265 O 492.655 4.16994 3.87433 0
M  V30 5266 N 493.857 2.73777 5.11885 0
M  V30 5267 H 496.622 2.80734 1.04922 0
M  V30 5268 H 494.183 1.56135 0.428196 0
M  V30 5269 H 496.175 2.07769 3.47296 0
M  V30 5270 H 494.745 1.18884 2.89111 0
M  V30 5271 H 493.965 3.46195 1.88528 0
M  V30 5272 H 495.253 4.22594 2.83358 0
M  V30 5273 H 494.651 2.14094 5.23622 0
M  V30 5274 H 493.208 2.81825 5.87723 0
M  V30 5275 N 496.642 -0.504142 1.49319 0
M  V30 5276 C 498.053 -1.08572 1.51885 0
M  V30 5277 C 498.404 -1.93842 0.303255 0
M  V30 5278 O 497.529 -2.0828 -0.58724 0
M  V30 5279 C 498.124 -1.97574 2.75227 0
M  V30 5280 C 496.683 -2.509 2.80581 0
M  V30 5281 C 495.83 -1.28447 2.45757 0
M  V30 5282 H 498.781 -0.288194 1.56061 0
M  V30 5283 H 498.802 -2.82219 2.55211 0
M  V30 5284 H 498.314 -1.35486 3.63683 0
M  V30 5285 H 496.415 -3.16636 1.96398 0
M  V30 5286 H 496.528 -2.88268 3.82673 0
M  V30 5287 H 494.892 -1.60868 1.97468 0
M  V30 5288 H 495.675 -0.68072 3.36483 0
M  V30 5289 N 498.12 -1.38341 -0.754957 0
M  V30 5290 C 499.531 -1.30803 -1.3322 0
M  V30 5291 C 499.882 0.0368 -1.96165 0
M  V30 5292 O 499.007 0.938844 -1.94974 0
M  V30 5293 C 499.602 -2.3688 -2.42225 0
M  V30 5294 C 498.161 -2.32925 -2.95674 0
M  V30 5295 C 497.308 -2.19819 -1.69042 0
M  V30 5296 H 500.259 -1.48719 -0.553937 0
M  V30 5297 H 500.28 -2.02517 -3.22129 0
M  V30 5298 H 499.792 -3.34747 -1.96383 0
M  V30 5299 H 497.893 -1.38635 -3.45848 0
M  V30 5300 H 498.006 -3.27008 -3.50146 0
M  V30 5301 H 496.37 -1.66648 -1.92615 0
M  V30 5302 H 497.153 -3.19625 -1.25279 0
M  V30 5303 N 499.598 0.982988 -1.23187 0
M  V30 5304 C 501.009 1.53847 -1.05773 0
M  V30 5305 C 501.36 1.92568 0.375744 0
M  V30 5306 O 500.485 1.75783 1.26211 0
M  V30 5307 C 501.08 2.79567 -1.91384 0
M  V30 5308 C 499.639 3.31524 -1.78238 0
M  V30 5309 C 498.786 2.04534 -1.87246 0
M  V30 5310 H 501.737 0.802962 -1.36888 0
M  V30 5311 H 501.758 3.52317 -1.43711 0
M  V30 5312 H 501.27 2.51353 -2.95708 0
M  V30 5313 H 499.371 3.64623 -0.766875 0
M  V30 5314 H 499.484 4.01457 -2.61475 0
M  V30 5315 H 497.848 2.1855 -1.30797 0
M  V30 5316 H 498.631 1.78706 -2.9312 0
M  V30 5317 N 501.076 1.04316 1.18135 0
M  V30 5318 C 502.487 0.775505 1.69832 0
M  V30 5319 C 502.838 -0.703348 1.8316 0
M  V30 5320 O 501.963 -1.54729 1.51287 0
M  V30 5321 C 502.558 1.40112 3.0847 0
M  V30 5322 C 501.117 1.18172 3.57368 0
M  V30 5323 C 500.264 1.49022 2.33854 0
M  V30 5324 H 503.215 1.20925 1.02775 0
M  V30 5325 H 503.236 0.805672 3.71873 0
M  V30 5326 H 502.748 2.47744 2.98738 0
M  V30 5327 H 500.849 0.124258 3.72393 0
M  V30 5328 H 500.962 1.8805 4.40652 0
M  V30 5329 H 499.326 0.909995 2.37889 0
M  V30 5330 H 500.109 2.57768 2.26738 0
M  V30 5331 N 502.554 -1.34406 0.822964 0
M  V30 5332 C 503.802 -1.97892 0.410245 0
M  V30 5333 C 504.123 -1.65567 -1.03017 0
M  V30 5334 O 503.393 -0.94642 -1.71522 0
M  V30 5335 H 501.973 -0.732049 0.148707 0
M  V30 5336 H 504.635 -1.64043 1.05242 0
M  V30 5337 H 503.731 -3.07579 0.529284 0
M  V30 5338 N 504.032 -0.577932 -1.46621 0
M  V30 5339 C 505.28 -0.061566 -2.02006 0
M  V30 5340 C 505.601 1.30117 -1.4524 0
M  V30 5341 O 504.871 1.85313 -0.63529 0
M  V30 5342 H 503.451 -0.0197692 -0.746738 0
M  V30 5343 H 506.113 -0.752631 -1.79782 0
M  V30 5344 H 505.209 0.0110238 -3.12098 0
M  V30 5345 N 505.51 1.54411 -0.315457 0
M  V30 5346 C 506.457 2.24048 0.554166 0
M  V30 5347 C 507.427 1.2283 1.11812 0
M  V30 5348 O 508.612 1.51491 1.15997 0
M  V30 5349 C 505.752 2.99574 1.71316 0
M  V30 5350 C 504.865 4.15594 1.17922 0
M  V30 5351 C 504 4.78669 2.30324 0
M  V30 5352 C 503.039 5.86807 1.74137 0
M  V30 5353 N 502.176 6.43777 2.8017 0
M  V30 5354 H 507.016 2.97964 -0.0462602 0
M  V30 5355 H 504.553 1.47059 -0.0346009 0
M  V30 5356 H 506.511 3.41604 2.39505 0
M  V30 5357 H 505.141 2.28008 2.285 0
M  V30 5358 H 504.193 3.78404 0.389136 0
M  V30 5359 H 505.505 4.93459 0.728012 0
M  V30 5360 H 504.659 5.23626 3.06433 0
M  V30 5361 H 503.398 4.00168 2.78778 0
M  V30 5362 H 502.403 5.41261 0.965236 0
M  V30 5363 H 503.628 6.67201 1.2657 0
M  V30 5364 H 501.574 5.68153 3.2793 0
M  V30 5365 H 501.491 7.17031 2.39588 0
M  V30 5366 H 502.759 6.9339 3.56132 0
M  V30 5367 N 506.988 0.0434614 1.5754 0
M  V30 5368 C 508.399 -0.493343 1.80064 0
M  V30 5369 C 508.75 -1.71388 0.955023 0
M  V30 5370 O 507.875 -2.15736 0.169434 0
M  V30 5371 C 508.47 -0.90179 3.26578 0
M  V30 5372 C 507.029 -1.38362 3.50047 0
M  V30 5373 C 506.176 -0.355129 2.75017 0
M  V30 5374 H 509.127 0.2694 1.56397 0
M  V30 5375 H 509.148 -1.76523 3.37075 0
M  V30 5376 H 508.66 -0.013271 3.88098 0
M  V30 5377 H 506.761 -2.29159 2.93798 0
M  V30 5378 H 506.874 -1.3811 4.58762 0
M  V30 5379 H 505.238 -0.826348 2.40922 0
M  V30 5380 H 506.021 0.525172 3.39259 0
M  V30 5381 N 508.466 -1.55915 -0.229846 0
M  V30 5382 C 509.376 -1.94891 -1.30593 0
M  V30 5383 C 510.392 -0.851604 -1.51736 0
M  V30 5384 O 511.568 -1.15447 -1.65027 0
M  V30 5385 C 508.633 -2.25052 -2.63728 0
M  V30 5386 C 507.694 -3.48306 -2.5096 0
M  V30 5387 C 506.927 -3.77019 -3.77747 0
M  V30 5388 O 507.15 -3.07534 -4.80395 0
M  V30 5389 O 506.084 -4.70523 -3.75356 0
M  V30 5390 H 509.91 -2.86581 -1.00525 0
M  V30 5391 H 507.495 -1.43017 -0.432025 0
M  V30 5392 H 509.377 -2.45682 -3.42372 0
M  V30 5393 H 508.052 -1.36538 -2.93495 0
M  V30 5394 H 506.959 -3.32964 -1.70546 0
M  V30 5395 H 508.292 -4.37177 -2.26136 0
M  V30 5396 N 509.944 0.496216 -1.49584 0
M  V30 5397 C 511.36 0.827814 -1.36453 0
M  V30 5398 C 511.56 1.97464 -0.401285 0
M  V30 5399 O 510.616 2.51958 0.165296 0
M  V30 5400 C 511.929 1.16352 -2.77277 0
M  V30 5401 C 513.477 1.27145 -2.86013 0
M  V30 5402 C 513.952 1.64042 -4.27615 0
M  V30 5403 N 515.443 1.71082 -4.30448 0
M  V30 5404 C 516.178 2.01085 -5.36984 0
M  V30 5405 N 515.674 2.2928 -6.5376 0
M  V30 5406 N 517.467 2.02376 -5.24405 0
M  V30 5407 H 509.618 -0.259947 -2.10803 0
M  V30 5408 H 511.881 -0.0537163 -0.946477 0
M  V30 5409 H 511.587 0.394153 -3.49484 0
M  V30 5410 H 511.461 2.10582 -3.12946 0
M  V30 5411 H 513.848 2.03152 -2.1404 0
M  V30 5412 H 513.929 0.309542 -2.5392 0
M  V30 5413 H 513.573 0.88583 -5.00115 0
M  V30 5414 H 513.503 2.6134 -4.57175 0
M  V30 5415 H 515.994 1.51434 -3.46232 0
M  V30 5416 H 516.307 2.51376 -7.30774 0
M  V30 5417 H 514.652 2.26726 -6.56978 0
M  V30 5418 H 517.843 1.79829 -4.32179 0
M  V30 5419 H 518.016 2.25425 -6.07526 0
M  V30 5420 N 511.423 1.38739 0.74761 0
M  V30 5421 C 512.834 1.31507 1.32524 0
M  V30 5422 C 513.185 -0.0263963 1.96182 0
M  V30 5423 O 512.31 -0.92849 1.95469 0
M  V30 5424 C 512.905 2.38162 2.40966 0
M  V30 5425 C 511.464 2.34489 2.94434 0
M  V30 5426 C 510.611 2.20712 1.67873 0
M  V30 5427 H 513.562 1.4901 0.546043 0
M  V30 5428 H 513.583 2.04222 3.21051 0
M  V30 5429 H 513.095 3.35783 1.94605 0
M  V30 5430 H 511.196 1.40467 3.45108 0
M  V30 5431 H 511.309 3.28861 3.48407 0
M  V30 5432 H 509.673 1.67667 1.91729 0
M  V30 5433 H 510.456 3.20285 1.23582 0
M  V30 5434 N 512.901 -0.976442 1.23707 0
M  V30 5435 C 514.312 -1.53284 1.06587 0
M  V30 5436 C 514.663 -1.92765 -0.365526 0
M  V30 5437 O 513.788 -1.7645 -1.25277 0
M  V30 5438 C 514.383 -2.78548 1.92864 0
M  V30 5439 C 512.942 -3.30574 1.79994 0
M  V30 5440 C 512.089 -2.03538 1.88328 0
M  V30 5441 H 515.04 -0.795692 1.37311 0
M  V30 5442 H 515.061 -3.5155 1.45577 0
M  V30 5443 H 514.573 -2.49782 2.97037 0
M  V30 5444 H 512.674 -3.64211 0.786202 0
M  V30 5445 H 512.787 -4.00065 2.636 0
M  V30 5446 H 511.151 -2.17853 1.31954 0
M  V30 5447 H 511.934 -1.77149 2.94063 0
M  V30 5448 N 514.379 -1.04941 -1.1758 0
M  V30 5449 C 515.326 -0.648155 -2.21512 0
M  V30 5450 C 516.296 0.348431 -1.62404 0
M  V30 5451 O 517.481 0.240419 -1.89279 0
M  V30 5452 C 514.621 -0.0264291 -3.4509 0
M  V30 5453 C 513.734 -1.07154 -4.185 0
M  V30 5454 C 512.869 -0.417403 -5.29558 0
M  V30 5455 C 511.908 -1.447 -5.94751 0
M  V30 5456 N 511.045 -0.817203 -6.97328 0
M  V30 5457 H 515.885 -1.53891 -2.55189 0
M  V30 5458 H 513.422 -0.769699 -1.25356 0
M  V30 5459 H 515.38 0.351456 -4.15717 0
M  V30 5460 H 514.01 0.827802 -3.12005 0
M  V30 5461 H 513.062 -1.56728 -3.46613 0
M  V30 5462 H 514.374 -1.8532 -4.63096 0
M  V30 5463 H 513.528 0.0142061 -6.06698 0
M  V30 5464 H 512.267 0.396265 -4.86087 0
M  V30 5465 H 511.272 -1.88865 -5.16343 0
M  V30 5466 H 512.497 -2.26252 -6.40302 0
M  V30 5467 H 510.443 -0.0239995 -6.55996 0
M  V30 5468 H 510.36 -1.53644 -7.40223 0
M  V30 5469 H 511.628 -0.410283 -7.7842 0
M  V30 5470 N 515.857 1.33968 -0.830081 0
M  V30 5471 C 517.268 1.80439 -0.479455 0
M  V30 5472 C 517.619 1.68756 1.00079 0
M  V30 5473 O 516.744 1.23171 1.77927 0
M  V30 5474 C 517.339 3.27611 -0.863505 0
M  V30 5475 C 515.898 3.72133 -0.565145 0
M  V30 5476 C 515.045 2.55549 -1.07657 0
M  V30 5477 H 517.996 1.21614 -1.0196 0
M  V30 5478 H 518.017 3.8012 -0.170083 0
M  V30 5479 H 517.529 3.36082 -1.94089 0
M  V30 5480 H 515.63 3.69196 0.502536 0
M  V30 5481 H 515.743 4.65963 -1.11422 0
M  V30 5482 H 514.107 2.49788 -0.497807 0
M  V30 5483 H 514.89 2.66786 -2.16055 0
M  V30 5484 N 517.335 0.585699 1.46312 0
M  V30 5485 C 518.583 0.072278 2.01971 0
M  V30 5486 C 518.904 -1.29345 1.45928 0
M  V30 5487 O 518.174 -1.84973 0.645109 0
M  V30 5488 H 516.754 0.023729 0.746623 0
M  V30 5489 H 519.416 0.762155 1.7938 0
M  V30 5490 H 518.512 0.00552767 3.121 0
M  V30 5491 N 518.813 -1.54241 0.323641 0
M  V30 5492 C 520.224 -1.85975 -0.164405 0
M  V30 5493 C 520.575 -1.24529 -1.51615 0
M  V30 5494 O 519.7 -0.551351 -2.09258 0
M  V30 5495 C 520.295 -3.37424 -0.305091 0
M  V30 5496 C 518.854 -3.69107 -0.737358 0
M  V30 5497 C 518.001 -2.76942 0.140884 0
M  V30 5498 H 520.952 -1.49088 0.543922 0
M  V30 5499 H 520.973 -3.63147 -1.13598 0
M  V30 5500 H 520.485 -3.82116 0.678876 0
M  V30 5501 H 518.586 -3.29947 -1.73107 0
M  V30 5502 H 518.699 -4.76035 -0.541053 0
M  V30 5503 H 517.063 -2.51795 -0.383572 0
M  V30 5504 H 517.846 -3.24461 1.12162 0
M  V30 5505 N 520.291 -0.0518155 -1.57515 0
M  V30 5506 C 521.702 0.483787 -1.80323 0
M  V30 5507 C 522.053 1.70879 -0.964099 0
M  V30 5508 O 521.178 2.15643 -0.180872 0
M  V30 5509 C 521.773 0.884459 -3.27052 0
M  V30 5510 C 520.332 1.36504 -3.50776 0
M  V30 5511 C 519.479 0.340539 -2.75201 0
M  V30 5512 H 522.43 -0.277691 -1.56252 0
M  V30 5513 H 522.451 1.74733 -3.38007 0
M  V30 5514 H 521.963 -0.00731093 -3.88099 0
M  V30 5515 H 520.064 2.27598 -2.95009 0
M  V30 5516 H 520.177 1.35675 -4.59488 0
M  V30 5517 H 518.541 0.81356 -2.41357 0
M  V30 5518 H 519.324 -0.543156 -3.38976 0
M  V30 5519 N 521.769 1.56035 0.221574 0
M  V30 5520 C 523.015 1.79312 0.947372 0
M  V30 5521 C 523.348 0.621453 1.83988 0
M  V30 5522 O 522.623 -0.379287 1.90766 0
M  V30 5523 C 522.906 3.1267 1.78633 0
M  V30 5524 C 522.759 4.40284 0.920312 0
M  V30 5525 C 524.078 3.4247 2.7641 0
M  V30 5526 H 521.197 0.652328 0.342982 0
M  V30 5527 H 523.839 1.88765 0.216244 0
M  V30 5528 H 521.989 3.04741 2.40967 0
M  V30 5529 H 523.661 4.60232 0.313718 0
M  V30 5530 H 521.904 4.33212 0.225734 0
M  V30 5531 H 522.575 5.30033 1.54171 0
M  V30 5532 H 525.051 3.50526 2.24211 0
M  V30 5533 H 523.927 4.3695 3.32213 0
M  V30 5534 H 524.188 2.64635 3.54148 0
M  V30 5535 N 523.247 -0.488276 1.49845 0
M  V30 5536 C 524.179 -1.60539 1.63584 0
M  V30 5537 C 525.192 -1.5434 0.517972 0
M  V30 5538 O 526.381 -1.60041 0.790516 0
M  V30 5539 C 523.481 -2.99374 1.58835 0
M  V30 5540 C 522.654 -3.30624 2.86368 0
M  V30 5541 C 521.713 -4.4893 2.74496 0
M  V30 5542 O 520.739 -4.50085 3.48443 0
M  V30 5543 N 521.941 -5.49591 1.86894 0
M  V30 5544 H 524.706 -1.49176 2.59936 0
M  V30 5545 H 522.267 -0.67639 1.47094 0
M  V30 5546 H 524.259 -3.76459 1.48529 0
M  V30 5547 H 522.829 -3.04595 0.702892 0
M  V30 5548 H 522.049 -2.42314 3.1093 0
M  V30 5549 H 523.337 -3.48305 3.70892 0
M  V30 5550 H 522.735 -5.51467 1.26097 0
M  V30 5551 H 521.292 -6.25728 1.82503 0
M  V30 5552 N 524.725 -1.39134 -0.740242 0
M  V30 5553 C 526.136 -1.32208 -1.31825 0
M  V30 5554 C 526.487 0.0159919 -1.96193 0
M  V30 5555 O 525.612 0.918111 -1.95958 0
M  V30 5556 C 526.207 -2.39436 -2.39699 0
M  V30 5557 C 524.766 -2.36048 -2.93187 0
M  V30 5558 C 523.913 -2.21599 -1.66701 0
M  V30 5559 H 526.864 -1.49298 -0.538133 0
M  V30 5560 H 526.885 -2.05922 -3.19963 0
M  V30 5561 H 526.397 -3.36811 -1.92821 0
M  V30 5562 H 524.498 -1.42295 -3.44359 0
M  V30 5563 H 524.611 -3.30704 -3.46658 0
M  V30 5564 H 522.975 -1.68681 -1.90837 0
M  V30 5565 H 523.758 -3.20936 -1.21882 0
M  V30 5566 N 526.204 0.969867 -1.24223 0
M  V30 5567 C 527.62 1.23809 -1.00716 0
M  V30 5568 C 527.82 1.99469 0.285358 0
M  V30 5569 O 526.876 2.31764 1.00207 0
M  V30 5570 C 528.189 2.02734 -2.2208 0
M  V30 5571 C 529.737 2.15834 -2.26681 0
M  V30 5572 C 530.212 2.98154 -3.47661 0
M  V30 5573 N 531.703 3.05737 -3.47964 0
M  V30 5574 C 532.438 3.69785 -4.38231 0
M  V30 5575 N 531.934 4.35569 -5.3875 0
M  V30 5576 N 533.727 3.66775 -4.25949 0
M  V30 5577 H 525.878 0.463294 -2.07286 0
M  V30 5578 H 528.141 0.267348 -0.909521 0
M  V30 5579 H 527.847 1.54524 -3.15935 0
M  V30 5580 H 527.721 3.0347 -2.24021 0
M  V30 5581 H 530.108 2.63248 -1.33359 0
M  V30 5582 H 530.189 1.14453 -2.28767 0
M  V30 5583 H 529.833 2.51435 -4.41297 0
M  V30 5584 H 529.763 3.99729 -3.42818 0
M  V30 5585 H 532.254 2.58941 -2.75242 0
M  V30 5586 H 532.567 4.82251 -6.03866 0
M  V30 5587 H 530.912 4.34244 -5.42639 0
M  V30 5588 H 534.103 3.14558 -3.46657 0
M  V30 5589 H 534.276 4.16407 -4.96497 0
M  V30 5590 N 527.682 1.05563 1.17022 0
M  V30 5591 C 528.645 0.664098 2.19368 0
M  V30 5592 C 529.645 -0.286358 1.5823 0
M  V30 5593 O 530.835 -0.069728 1.7406 0
M  V30 5594 C 527.967 -0.0239932 3.40892 0
M  V30 5595 H 529.16 1.57 2.55521 0
M  V30 5596 H 526.713 0.849964 1.31169 0
M  V30 5597 H 527.448 -0.942988 3.10287 0
M  V30 5598 H 527.233 0.659351 3.86516 0
M  V30 5599 H 528.723 -0.283909 4.16634 0
M  V30 5600 N 529.16 -1.33526 0.837174 0
M  V30 5601 C 530.388 -2.02047 0.445494 0
M  V30 5602 C 530.803 -1.62995 -0.952788 0
M  V30 5603 O 530.16 -0.842447 -1.61892 0
M  V30 5604 C 530.211 -3.57221 0.554577 0
M  V30 5605 O 529.932 -3.94863 1.89776 0
M  V30 5606 C 531.433 -4.43012 0.159634 0
M  V30 5607 H 528.653 -0.647221 0.177048 0
M  V30 5608 H 531.197 -1.70492 1.12928 0
M  V30 5609 H 529.352 -3.87315 -0.0812781 0
M  V30 5610 H 529.766 -4.89569 1.88208 0
M  V30 5611 H 531.24 -5.51253 0.28701 0
M  V30 5612 H 531.717 -4.29916 -0.898289 0
M  V30 5613 H 532.323 -4.18274 0.769855 0
M  V30 5614 N 530.638 -0.59345 -1.46 0
M  V30 5615 C 531.548 0.135817 -2.34207 0
M  V30 5616 C 532.564 0.875008 -1.50398 0
M  V30 5617 O 533.74 0.835778 -1.83239 0
M  V30 5618 C 530.805 1.12977 -3.27776 0
M  V30 5619 C 529.866 0.394081 -4.27487 0
M  V30 5620 C 529.099 1.34068 -5.16586 0
M  V30 5621 O 529.322 2.5778 -5.08828 0
M  V30 5622 O 528.256 0.845426 -5.95933 0
M  V30 5623 H 532.082 -0.588691 -2.9794 0
M  V30 5624 H 529.667 -0.353784 -1.45151 0
M  V30 5625 H 531.549 1.70261 -3.85473 0
M  V30 5626 H 530.224 1.83556 -2.66625 0
M  V30 5627 H 529.131 -0.220869 -3.73447 0
M  V30 5628 H 530.464 -0.270939 -4.91454 0
M  V30 5629 N 532.116 1.54067 -0.331816 0
M  V30 5630 C 533.532 1.59587 0.0205388 0
M  V30 5631 C 533.732 1.34813 1.49759 0
M  V30 5632 O 532.788 1.13661 2.25471 0
M  V30 5633 C 534.101 2.97959 -0.405103 0
M  V30 5634 C 535.649 3.10964 -0.356454 0
M  V30 5635 C 536.124 4.51694 -0.757384 0
M  V30 5636 N 537.615 4.57709 -0.71111 0
M  V30 5637 C 538.35 5.64729 -0.993427 0
M  V30 5638 N 537.846 6.79652 -1.3433 0
M  V30 5639 N 539.639 5.54546 -0.918442 0
M  V30 5640 H 531.79 1.68426 -1.29407 0
M  V30 5641 H 534.053 0.78819 -0.526745 0
M  V30 5642 H 533.759 3.21115 -1.43451 0
M  V30 5643 H 533.633 3.76524 0.225692 0
M  V30 5644 H 536.02 2.87538 0.663763 0
M  V30 5645 H 536.101 2.34484 -1.02229 0
M  V30 5646 H 535.745 4.75853 -1.77555 0
M  V30 5647 H 535.675 5.26555 -0.0691444 0
M  V30 5648 H 538.166 3.75176 -0.452883 0
M  V30 5649 H 538.479 7.57221 -1.54388 0
M  V30 5650 H 536.824 6.81128 -1.38164 0
M  V30 5651 H 540.015 4.63641 -0.644536 0
M  V30 5652 H 540.188 6.37861 -1.14181 0
M  V30 5653 N 533.594 0.0601682 1.57485 0
M  V30 5654 C 535.005 -0.474217 1.80577 0
M  V30 5655 C 535.356 -1.70365 0.973147 0
M  V30 5656 O 534.481 -2.15544 0.192306 0
M  V30 5657 C 535.076 -0.867102 3.27516 0
M  V30 5658 C 533.635 -1.34642 3.51495 0
M  V30 5659 C 532.782 -0.32594 2.75378 0
M  V30 5660 H 535.733 0.285973 1.56102 0
M  V30 5661 H 535.754 -1.72938 3.38929 0
M  V30 5662 H 535.266 0.0278927 3.8809 0
M  V30 5663 H 533.367 -2.2603 2.96212 0
M  V30 5664 H 533.48 -1.33237 4.60201 0
M  V30 5665 H 531.844 -0.800749 2.41785 0
M  V30 5666 H 532.627 0.561125 3.38683 0
M  V30 5667 N 535.072 -1.5615 -0.213296 0
M  V30 5668 C 536.349 -1.70349 -0.961281 0
M  V30 5669 C 536.729 -0.609791 -2.02101 0
M  V30 5670 O 536.077 0.381987 -2.25285 0
M  V30 5671 C 536.287 -3.11982 -1.56424 0
M  V30 5672 C 537.635 -3.71649 -2.05334 0
M  V30 5673 O 538.659 -3.14995 -1.66302 0
M  V30 5674 O 537.518 -4.71038 -2.77102 0
M  V30 5675 H 534.612 -0.694121 -0.449582 0
M  V30 5676 H 537.158 -1.68464 -0.204426 0
M  V30 5677 H 535.93 -3.83046 -0.799457 0
M  V30 5678 H 535.553 -3.18019 -2.38641 0
M  V30 5679 N 536.55 0.480323 -1.50102 0
M  V30 5680 C 537.482 1.59669 -1.64433 0
M  V30 5681 C 538.495 1.54063 -0.52615 0
M  V30 5682 O 539.684 1.59619 -0.798992 0
M  V30 5683 C 536.784 2.98527 -1.6042 0
M  V30 5684 C 535.957 3.291 -2.88117 0
M  V30 5685 C 535.016 4.47468 -2.76873 0
M  V30 5686 O 534.042 4.4823 -3.50825 0
M  V30 5687 N 535.244 5.48593 -1.89806 0
M  V30 5688 H 538.009 1.47795 -2.60723 0
M  V30 5689 H 535.57 0.66858 -1.4745 0
M  V30 5690 H 537.562 3.75666 -1.50523 0
M  V30 5691 H 536.132 3.04218 -0.719036 0
M  V30 5692 H 535.352 2.40662 -3.12211 0
M  V30 5693 H 536.64 3.46334 -3.72734 0
M  V30 5694 H 536.038 5.50791 -1.2902 0
M  V30 5695 H 534.595 6.24752 -1.85819 0
M  V30 5696 N 538.028 1.39524 0.732853 0
M  V30 5697 C 539.258 1.3994 1.51988 0
M  V30 5698 C 539.666 -0.00727973 1.89199 0
M  V30 5699 O 539.009 -0.989521 1.54771 0
M  V30 5700 C 539.071 2.21026 2.83527 0
M  V30 5701 C 538.735 3.69633 2.68738 0
M  V30 5702 C 539.732 4.62665 2.37143 0
M  V30 5703 C 537.417 4.13244 2.85542 0
M  V30 5704 C 539.411 5.97291 2.22536 0
M  V30 5705 C 537.098 5.47945 2.70554 0
M  V30 5706 C 538.096 6.39783 2.39097 0
M  V30 5707 O 537.784 7.72002 2.24204 0
M  V30 5708 H 537.516 0.479795 0.476206 0
M  V30 5709 H 540.07 1.8399 0.913054 0
M  V30 5710 H 538.3 1.71728 3.46477 0
M  V30 5711 H 539.989 2.13594 3.45156 0
M  V30 5712 H 540.755 4.30272 2.2381 0
M  V30 5713 H 536.634 3.42094 3.09019 0
M  V30 5714 H 540.178 6.68939 1.97905 0
M  V30 5715 H 536.075 5.79928 2.83466 0
M  V30 5716 H 536.843 7.8275 2.39258 0
M  V30 5717 N 539.506 -0.963266 1.24736 0
M  V30 5718 C 540.754 -1.70343 1.08755 0
M  V30 5719 C 541.075 -1.91387 -0.373619 0
M  V30 5720 O 540.345 -1.4948 -1.2662 0
M  V30 5721 H 538.925 -0.631224 0.399456 0
M  V30 5722 H 541.587 -1.15859 1.56725 0
M  V30 5723 H 540.683 -2.68616 1.58909 0
M  V30 5724 N 540.985 -1.06182 -1.16461 0
M  V30 5725 C 542.396 -0.802426 -1.68576 0
M  V30 5726 C 542.747 0.67412 -1.84255 0
M  V30 5727 O 541.872 1.52303 -1.5373 0
M  V30 5728 C 542.467 -1.45002 -3.06202 0
M  V30 5729 C 541.026 -1.23843 -3.55443 0
M  V30 5730 C 540.173 -1.52724 -2.31454 0
M  V30 5731 H 543.124 -1.22545 -1.00839 0
M  V30 5732 H 543.145 -0.864731 -3.70544 0
M  V30 5733 H 542.657 -2.52466 -2.94759 0
M  V30 5734 H 540.758 -0.183487 -3.72148 0
M  V30 5735 H 540.871 -1.95036 -4.37604 0
M  V30 5736 H 539.235 -0.947726 -2.36411 0
M  V30 5737 H 540.018 -2.61343 -2.22609 0
M  V30 5738 N 542.463 1.3308 -0.844243 0
M  V30 5739 C 543.411 2.31028 -0.269954 0
M  V30 5740 C 544.405 1.58381 0.600997 0
M  V30 5741 O 545.611 1.73203 0.48996 0
M  V30 5742 H 541.986 0.748866 -0.0685782 0
M  V30 5743 H 543.957 2.76967 -1.11049 0
M  V30 5744 C 542.706 3.43549 0.535676 0
M  V30 5745 H 542.029 3.99604 -0.125202 0
M  V30 5746 H 543.469 4.14267 0.903262 0
M  V30 5747 C 541.928 2.8988 1.71672 0
M  V30 5748 O 542.458 2.86511 2.81557 0
M  V30 5749 N 540.664 2.46416 1.54037 0
M  V30 5750 H 540.211 2.49356 0.64649 0
M  V30 5751 H 540.169 2.1086 2.33207 0
M  V30 5752 N 543.941 0.601185 1.45683 0
M  V30 5753 C 545.19 0.0914953 2.01492 0
M  V30 5754 C 545.503 -1.28331 1.47616 0
M  V30 5755 O 546.709 -1.88537 1.95362 0
M  V30 5756 C 545.165 0.11291 3.59723 0
M  V30 5757 C 544.773 1.48717 4.22596 0
M  V30 5758 C 546.517 -0.341871 4.23121 0
M  V30 5759 C 544.424 1.46531 5.7296 0
M  V30 5760 H 543.354 0.0304365 0.753385 0
M  V30 5761 H 546.005 0.755568 1.67223 0
M  V30 5762 H 544.387 -0.617692 3.91153 0
M  V30 5763 H 545.561 2.23897 4.02749 0
M  V30 5764 H 543.876 1.88351 3.71366 0
M  V30 5765 H 546.473 -0.377304 5.33367 0
M  V30 5766 H 546.816 -1.36325 3.93346 0
M  V30 5767 H 547.349 0.335256 3.96385 0
M  V30 5768 H 544.088 2.46408 6.07423 0
M  V30 5769 H 543.608 0.755997 5.95017 0
M  V30 5770 H 545.287 1.18618 6.36034 0
M  V30 5771 N 545.419 -1.53889 0.339982 0
M  V30 5772 C 546.659 -2.02765 -0.258011 0
M  V30 5773 C 547.023 -1.22249 -1.48051 0
M  V30 5774 O 548.224 -1.61007 -2.15245 0
M  V30 5775 C 546.495 -3.5286 -0.567872 0
M  V30 5776 S 548.054 -4.23647 -1.14318 0
M  V30 5777 H 544.872 -0.706814 -0.0770389 0
M  V30 5778 H 547.474 -1.89594 0.476917 0
M  V30 5779 H 546.178 -4.09073 0.329745 0
M  V30 5780 H 545.709 -3.70144 -1.33256 0
M  V30 5781 H 547.724 -4.32676 -2.42911 0
M  V30 5782 N 546.897 -0.0685191 -1.57451 0
M  V30 5783 C 548.174 0.642167 -1.84758 0
M  V30 5784 C 548.554 1.87991 -0.960344 0
M  V30 5785 O 547.902 2.28485 -0.0257894 0
M  V30 5786 C 548.112 0.982946 -3.34872 0
M  V30 5787 C 549.46 1.35784 -4.02303 0
M  V30 5788 O 550.484 1.07477 -3.39598 0
M  V30 5789 O 549.343 1.88681 -5.12895 0
M  V30 5790 H 546.437 0.318625 -0.763156 0
M  V30 5791 H 548.983 -0.0992015 -1.6941 0
M  V30 5792 H 547.755 0.10372 -3.91163 0
M  V30 5793 H 547.378 1.78119 -3.55471 0
M  V30 5794 N 548.375 1.56261 0.205012 0
M  V30 5795 C 549.623 1.79684 0.925096 0
M  V30 5796 C 549.944 0.63989 1.84202 0
M  V30 5797 O 549.214 -0.342345 1.92885 0
M  V30 5798 H 547.794 0.662774 0.344587 0
M  V30 5799 H 550.456 1.93734 0.212899 0
M  V30 5800 H 549.552 2.72467 1.52211 0
M  V30 5801 N 549.853 -0.472356 1.50355 0
M  V30 5802 C 551.13 -1.23356 1.51798 0
M  V30 5803 C 551.51 -2.09469 0.26193 0
M  V30 5804 O 550.858 -2.15677 -0.754691 0
M  V30 5805 C 551.068 -2.06568 2.81302 0
M  V30 5806 C 552.416 -2.648 3.31913 0
M  V30 5807 O 553.44 -2.16812 2.82614 0
M  V30 5808 O 552.299 -3.52231 4.17846 0
M  V30 5809 H 549.393 -0.559707 0.608816 0
M  V30 5810 H 551.939 -0.48428 1.62643 0
M  V30 5811 H 550.711 -1.43103 3.64194 0
M  V30 5812 H 550.334 -2.88633 2.73454 0
M  V30 5813 N 551.331 -1.39911 -0.725443 0
M  V30 5814 C 552.578 -1.37654 -1.48518 0
M  V30 5815 C 552.906 0.0243982 -1.94485 0
M  V30 5816 O 552.161 1.00708 -1.67799 0
M  V30 5817 C 552.46 -2.30368 -2.7325 0
M  V30 5818 C 552.126 -3.77817 -2.461 0
M  V30 5819 C 550.788 -4.17991 -2.38405 0
M  V30 5820 C 553.14 -4.71036 -2.23103 0
M  V30 5821 C 550.468 -5.49433 -2.05768 0
M  V30 5822 C 552.82 -6.02766 -1.9198 0
M  V30 5823 C 551.484 -6.41993 -1.82761 0
M  V30 5824 H 550.754 -0.503713 -0.543465 0
M  V30 5825 H 553.401 -1.7249 -0.831822 0
M  V30 5826 H 551.706 -1.88683 -3.43375 0
M  V30 5827 H 553.403 -2.2591 -3.31309 0
M  V30 5828 H 549.993 -3.45982 -2.52972 0
M  V30 5829 H 554.177 -4.40823 -2.2801 0
M  V30 5830 H 549.433 -5.78738 -1.9716 0
M  V30 5831 H 553.607 -6.74519 -1.73197 0
M  V30 5832 H 551.234 -7.43761 -1.57237 0
M  V30 5833 N 552.809 0.956637 -1.25245 0
M  V30 5834 C 554.086 1.67716 -1.00651 0
M  V30 5835 C 554.466 2.0585 0.467866 0
M  V30 5836 O 553.814 1.77029 1.44475 0
M  V30 5837 C 554.024 2.90093 -1.94028 0
M  V30 5838 C 555.372 3.6209 -2.21756 0
M  V30 5839 O 556.396 3.00171 -1.9177 0
M  V30 5840 O 555.255 4.7358 -2.72735 0
M  V30 5841 H 552.349 0.733731 -0.381533 0
M  V30 5842 H 554.895 1.00974 -1.3639 0
M  V30 5843 H 553.667 2.58689 -2.93591 0
M  V30 5844 H 553.29 3.64566 -1.58674 0
M  V30 5845 N 554.287 1.06798 1.15896 0
M  V30 5846 C 555.515 0.808694 1.90441 0
M  V30 5847 C 555.93 -0.637506 1.77711 0
M  V30 5848 O 555.287 -1.43684 1.12522 0
M  V30 5849 C 555.338 1.20068 3.40978 0
M  V30 5850 O 555.059 2.59013 3.53333 0
M  V30 5851 C 556.56 0.96987 4.3256 0
M  V30 5852 H 553.78 0.292809 0.603742 0
M  V30 5853 H 556.324 1.42296 1.46874 0
M  V30 5854 H 554.479 0.630842 3.82229 0
M  V30 5855 H 554.893 2.7485 4.46719 0
M  V30 5856 H 556.367 1.29371 5.36626 0
M  V30 5857 H 556.844 -0.0941209 4.39099 0
M  V30 5858 H 557.45 1.52433 3.97044 0
M  V30 5859 N 555.766 -1.3263 0.851289 0
M  V30 5860 C 557.012 -1.9766 0.453694 0
M  V30 5861 C 557.345 -1.67225 -0.987396 0
M  V30 5862 O 556.62 -0.958693 -1.69232 0
M  V30 5863 C 556.903 -3.5344 0.68936 0
M  V30 5864 C 556.756 -3.93517 2.17862 0
M  V30 5865 C 558.075 -4.39866 0.143555 0
M  V30 5866 H 555.194 -0.717989 0.166314 0
M  V30 5867 H 557.836 -1.57068 1.06909 0
M  V30 5868 H 555.986 -3.88147 0.165546 0
M  V30 5869 H 557.658 -3.69006 2.76826 0
M  V30 5870 H 555.901 -3.42798 2.65841 0
M  V30 5871 H 556.572 -5.02065 2.29422 0
M  V30 5872 H 559.048 -4.11875 0.591451 0
M  V30 5873 H 557.924 -5.47858 0.338043 0
M  V30 5874 H 558.185 -4.31696 -0.953466 0
M  V30 5875 N 557.244 -0.608902 -1.45362 0
M  V30 5876 C 558.207 0.0992563 -2.28985 0
M  V30 5877 C 559.207 0.793841 -1.39838 0
M  V30 5878 O 560.397 0.641804 -1.61946 0
M  V30 5879 C 557.529 1.15073 -3.20891 0
M  V30 5880 H 558.722 -0.635964 -2.93079 0
M  V30 5881 H 556.275 -0.368007 -1.51906 0
M  V30 5882 H 557.01 1.91667 -2.616 0
M  V30 5883 H 556.795 0.656867 -3.86559 0
M  V30 5884 H 558.285 1.64665 -3.83765 0
M  V30 5885 N 558.722 1.53707 -0.348139 0
M  V30 5886 C 559.655 2.21481 0.549667 0
M  V30 5887 C 560.633 1.20046 1.09671 0
M  V30 5888 O 561.817 1.48883 1.15612 0
M  V30 5889 C 558.944 2.89585 1.75664 0
M  V30 5890 C 557.99 4.04948 1.33864 0
M  V30 5891 S 558.823 5.34325 0.354577 0
M  V30 5892 C 559.979 6.05934 1.56828 0
M  V30 5893 H 560.212 2.97289 -0.0259755 0
M  V30 5894 H 557.745 1.53833 -0.132216 0
M  V30 5895 H 559.703 3.29441 2.44906 0
M  V30 5896 H 558.364 2.13535 2.30351 0
M  V30 5897 H 557.557 4.51552 2.23868 0
M  V30 5898 H 557.159 3.66893 0.725651 0
M  V30 5899 H 559.451 6.29606 2.50205 0
M  V30 5900 H 560.394 6.98799 1.14395 0
M  V30 5901 H 560.802 5.36151 1.76642 0
M  V30 5902 N 560.2 0.0768682 1.57412 0
M  V30 5903 C 561.13 -0.886026 2.16037 0
M  V30 5904 C 562.111 -1.30691 1.08876 0
M  V30 5905 O 563.296 -1.37705 1.36934 0
M  V30 5906 C 560.426 -2.1518 2.72608 0
M  V30 5907 C 559.38 -1.87015 3.8498 0
M  V30 5908 C 558.706 -3.20266 4.28175 0
M  V30 5909 C 560.006 -1.17143 5.08994 0
M  V30 5910 H 561.7 -0.397642 2.96748 0
M  V30 5911 H 559.246 -0.189823 1.42743 0
M  V30 5912 H 561.199 -2.82962 3.12266 0
M  V30 5913 H 559.923 -2.66269 1.89125 0
M  V30 5914 H 558.582 -1.21636 3.45833 0
M  V30 5915 H 558.23 -3.69207 3.41607 0
M  V30 5916 H 557.93 -3.0221 5.03927 0
M  V30 5917 H 559.454 -3.89237 4.70454 0
M  V30 5918 H 560.868 -1.75003 5.45937 0
M  V30 5919 H 559.265 -1.09328 5.90057 0
M  V30 5920 H 560.335 -0.151295 4.84664 0
M  V30 5921 N 561.678 -1.56367 -0.196722 0
M  V30 5922 C 563.094 -1.49916 -0.54749 0
M  V30 5923 C 563.294 -0.77659 -1.85934 0
M  V30 5924 O 562.35 -0.32644 -2.50381 0
M  V30 5925 C 563.663 -2.94577 -0.603734 0
M  V30 5926 C 565.211 -3.05239 -0.692677 0
M  V30 5927 C 565.686 -4.51308 -0.780046 0
M  V30 5928 N 567.177 -4.55453 -0.843616 0
M  V30 5929 C 567.912 -5.65786 -0.931358 0
M  V30 5930 N 567.408 -6.85812 -0.981503 0
M  V30 5931 N 569.201 -5.53695 -0.968421 0
M  V30 5932 H 561.352 -2.01761 0.663803 0
M  V30 5933 H 563.615 -0.918094 0.236238 0
M  V30 5934 H 563.321 -3.50494 0.29105 0
M  V30 5935 H 563.195 -3.47841 -1.45898 0
M  V30 5936 H 565.582 -2.49372 -1.57789 0
M  V30 5937 H 565.663 -2.55103 0.188736 0
M  V30 5938 H 565.307 -5.078 0.100811 0
M  V30 5939 H 565.237 -4.99176 -1.67724 0
M  V30 5940 H 567.728 -3.69025 -0.814176 0
M  V30 5941 H 568.041 -7.65648 -1.04892 0
M  V30 5942 H 566.386 -6.88474 -0.950208 0
M  V30 5943 H 569.577 -4.58848 -0.926072 0
M  V30 5944 H 569.75 -6.39708 -1.03334 0
M  V30 5945 N 563.156 0.464375 -1.50603 0
M  V30 5946 C 564.404 1.21356 -1.61608 0
M  V30 5947 C 564.725 1.92329 -0.321643 0
M  V30 5948 O 563.995 1.84403 0.661232 0
M  V30 5949 H 562.575 0.45094 -0.595535 0
M  V30 5950 H 565.237 0.535046 -1.87412 0
M  V30 5951 H 564.333 1.95783 -2.43054 0
M  V30 5952 N 564.634 1.40294 0.718013 0
M  V30 5953 C 565.544 1.42678 1.86226 0
M  V30 5954 C 566.56 0.319655 1.71039 0
M  V30 5955 O 567.736 0.563852 1.93346 0
M  V30 5956 C 564.801 1.2852 3.21999 0
M  V30 5957 C 563.862 2.49354 3.49458 0
M  V30 5958 C 563.095 2.35863 4.78753 0
M  V30 5959 O 563.318 1.37114 5.53675 0
M  V30 5960 O 562.252 3.25189 5.06494 0
M  V30 5961 H 566.078 2.39167 1.87171 0
M  V30 5962 H 563.663 1.2159 0.868112 0
M  V30 5963 H 565.545 1.22824 4.03103 0
M  V30 5964 H 564.22 0.351359 3.21787 0
M  V30 5965 H 563.127 2.60628 2.68373 0
M  V30 5966 H 564.46 3.41491 3.54464 0
M  V30 5967 N 566.112 -0.949982 1.2575 0
M  V30 5968 C 567.045 -2.047 1.00862 0
M  V30 5969 C 568.023 -1.62475 -0.0636982 0
M  V30 5970 O 569.207 -1.88343 0.0769153 0
M  V30 5971 C 566.334 -3.34597 0.525613 0
M  V30 5972 C 565.38 -3.95788 1.58916 0
M  V30 5973 S 566.213 -4.31175 3.17567 0
M  V30 5974 C 567.369 -5.64183 2.71013 0
M  V30 5975 H 567.602 -2.25497 1.93749 0
M  V30 5976 H 565.135 -1.09022 1.09332 0
M  V30 5977 H 567.093 -4.09716 0.25359 0
M  V30 5978 H 565.754 -3.11758 -0.382828 0
M  V30 5979 H 564.947 -4.89457 1.20201 0
M  V30 5980 H 564.549 -3.27168 1.81211 0
M  V30 5981 H 566.841 -6.42504 2.14928 0
M  V30 5982 H 567.784 -6.07774 3.6334 0
M  V30 5983 H 568.192 -5.2364 2.1086 0
M  V30 5984 N 567.59 -1.07411 -1.15328 0
M  V30 5985 C 568.837 -0.797649 -1.86128 0
M  V30 5986 C 569.165 0.676298 -1.82364 0
M  V30 5987 O 568.42 1.51223 -1.24218 0
M  V30 5988 C 568.719 -1.25191 -3.34757 0
M  V30 5989 C 568.385 -2.73191 -3.58716 0
M  V30 5990 C 567.047 -3.13616 -3.64964 0
M  V30 5991 C 569.399 -3.68718 -3.6837 0
M  V30 5992 C 566.727 -4.48383 -3.78377 0
M  V30 5993 C 569.079 -5.03248 -3.83306 0
M  V30 5994 C 567.743 -5.43293 -3.878 0
M  V30 5995 H 567.013 -0.29188 -0.681092 0
M  V30 5996 H 569.66 -1.34524 -1.36292 0
M  V30 5997 H 567.965 -0.623712 -3.86804 0
M  V30 5998 H 569.662 -1.01489 -3.87945 0
M  V30 5999 H 566.252 -2.40898 -3.54494 0
M  V30 6000 H 570.436 -3.38614 -3.62842 0
M  V30 6001 H 565.692 -4.78877 -3.80114 0
M  V30 6002 H 569.866 -5.77142 -3.89718 0
M  V30 6003 H 567.493 -6.47721 -3.97946 0
M  V30 6004 N 569.068 1.32177 -0.85831 0
M  V30 6005 C 570.314 1.97417 -0.46417 0
M  V30 6006 C 570.647 1.67746 0.978514 0
M  V30 6007 O 569.922 0.967654 1.68721 0
M  V30 6008 C 570.205 3.53069 -0.708094 0
M  V30 6009 C 570.058 3.92357 -2.19946 0
M  V30 6010 C 571.377 4.39783 -0.166881 0
M  V30 6011 H 568.496 0.717097 -0.17012 0
M  V30 6012 H 571.138 1.56499 -1.07741 0
M  V30 6013 H 569.288 3.88054 -0.186128 0
M  V30 6014 H 570.96 3.67533 -2.78779 0
M  V30 6015 H 569.203 3.41384 -2.67656 0
M  V30 6016 H 569.874 5.00841 -2.32082 0
M  V30 6017 H 572.35 4.11556 -0.613285 0
M  V30 6018 H 571.226 5.47671 -0.367093 0
M  V30 6019 H 571.487 4.32196 0.930559 0
M  V30 6020 N 570.547 0.616602 1.45037 0
M  V30 6021 C 571.794 0.115331 2.02171 0
M  V30 6022 C 572.122 -1.25748 1.48383 0
M  V30 6023 O 571.377 -1.84511 0.652229 0
M  V30 6024 C 571.676 0.0356829 3.57382 0
M  V30 6025 C 571.342 1.34535 4.30362 0
M  V30 6026 C 570.004 1.70408 4.50016 0
M  V30 6027 C 572.356 2.21049 4.72003 0
M  V30 6028 C 569.684 2.92529 5.0857 0
M  V30 6029 C 572.036 3.42427 5.31908 0
M  V30 6030 C 570.7 3.78541 5.49784 0
M  V30 6031 H 569.97 0.0422024 0.739797 0
M  V30 6032 H 572.617 0.80002 1.73988 0
M  V30 6033 H 570.922 -0.732314 3.84895 0
M  V30 6034 H 572.619 -0.368463 3.99304 0
M  V30 6035 H 569.209 1.05615 4.15383 0
M  V30 6036 H 573.393 1.94632 4.56544 0
M  V30 6037 H 568.649 3.20605 5.20598 0
M  V30 6038 H 572.823 4.09709 5.63127 0
M  V30 6039 H 570.45 4.73255 5.94923 0
M  V30 6040 N 572.025 -1.5352 0.356285 0
M  V30 6041 C 572.972 -2.25439 -0.494569 0
M  V30 6042 C 573.942 -1.25752 -1.08516 0
M  V30 6043 O 575.127 -1.54513 -1.1194 0
M  V30 6044 C 572.267 -3.04011 -1.63313 0
M  V30 6045 C 571.38 -4.18574 -1.06862 0
M  V30 6046 C 570.515 -4.84607 -2.17552 0
M  V30 6047 C 569.554 -5.91218 -1.58518 0
M  V30 6048 N 568.691 -6.50979 -2.63003 0
M  V30 6049 H 573.531 -2.97737 0.125244 0
M  V30 6050 H 571.068 -1.46916 0.0735789 0
M  V30 6051 H 573.026 -3.47834 -2.30363 0
M  V30 6052 H 571.656 -2.33986 -2.22374 0
M  V30 6053 H 570.708 -3.79303 -0.288672 0
M  V30 6054 H 572.02 -4.95215 -0.596924 0
M  V30 6055 H 571.174 -5.31566 -2.92442 0
M  V30 6056 H 569.913 -4.07418 -2.6807 0
M  V30 6057 H 568.918 -5.4363 -0.821391 0
M  V30 6058 H 570.143 -6.70322 -1.08836 0
M  V30 6059 H 568.089 -5.76648 -3.12751 0
M  V30 6060 H 568.006 -7.23131 -2.20493 0
M  V30 6061 H 569.274 -7.02589 -3.37623 0
M  V30 6062 N 573.503 -0.0852151 -1.57369 0
M  V30 6063 C 574.751 0.579658 -1.93609 0
M  V30 6064 C 575.072 1.69332 -0.967043 0
M  V30 6065 O 574.342 1.95892 -0.0174215 0
M  V30 6066 H 572.922 0.217113 -0.714752 0
M  V30 6067 H 575.584 -0.146226 -1.94351 0
M  V30 6068 H 574.68 0.996276 -2.95771 0
M  V30 6069 N 574.981 1.5647 0.188427 0
M  V30 6070 C 576.397 1.50204 0.539532 0
M  V30 6071 C 576.597 0.78644 1.85519 0
M  V30 6072 O 575.653 0.339714 2.50204 0
M  V30 6073 C 576.966 2.94893 0.588103 0
M  V30 6074 C 578.514 3.05602 0.67648 0
M  V30 6075 C 578.989 4.51716 0.756101 0
M  V30 6076 N 580.48 4.55894 0.819451 0
M  V30 6077 C 581.215 5.66272 0.90134 0
M  V30 6078 N 580.711 6.86323 0.945118 0
M  V30 6079 N 582.504 5.54201 0.939043 0
M  V30 6080 H 574.655 2.01406 -0.674493 0
M  V30 6081 H 576.918 0.916828 -0.241103 0
M  V30 6082 H 576.624 3.50334 -0.309633 0
M  V30 6083 H 576.498 3.4861 1.44051 0
M  V30 6084 H 578.885 2.50206 1.56465 0
M  V30 6085 H 578.966 2.54999 -0.202262 0
M  V30 6086 H 578.61 5.07739 -0.12774 0
M  V30 6087 H 578.54 5.00058 1.65074 0
M  V30 6088 H 581.031 3.69452 0.794594 0
M  V30 6089 H 581.344 7.66194 1.0083 0
M  V30 6090 H 579.689 6.88968 0.913683 0
M  V30 6091 H 582.88 4.59333 0.901725 0
M  V30 6092 H 583.053 6.40247 0.999402 0
M  V30 6093 N 576.459 -0.456382 1.50847 0
M  V30 6094 C 577.705 -1.20618 1.63777 0
M  V30 6095 C 578.06 -1.8936 0.340677 0
M  V30 6096 O 577.353 -1.79786 -0.662378 0
M  V30 6097 C 577.547 -2.26336 2.76599 0
M  V30 6098 C 577.376 -1.67968 4.17153 0
M  V30 6099 C 576.146 -1.47293 4.83356 0
M  V30 6100 C 578.344 -1.16643 5.00898 0
M  V30 6101 N 576.326 -0.843222 6.08081 0
M  V30 6102 C 577.697 -0.660843 6.16468 0
M  V30 6103 C 579.752 -1.05637 4.86565 0
M  V30 6104 C 578.455 -0.0560365 7.19278 0
M  V30 6105 C 580.481 -0.465485 5.89565 0
M  V30 6106 C 579.843 0.0296516 7.04394 0
M  V30 6107 H 575.942 -0.429725 0.653345 0
M  V30 6108 H 578.526 -0.505784 1.88016 0
M  V30 6109 H 576.697 -2.93785 2.54056 0
M  V30 6110 H 578.429 -2.9334 2.78808 0
M  V30 6111 H 575.184 -1.72934 4.40898 0
M  V30 6112 H 575.608 -0.546357 6.74792 0
M  V30 6113 H 580.25 -1.42508 3.98059 0
M  V30 6114 H 577.968 0.324845 8.07447 0
M  V30 6115 H 581.554 -0.382493 5.80541 0
M  V30 6116 H 580.434 0.479705 7.82731 0
M  V30 6117 N 577.937 -1.40673 -0.710563 0
M  V30 6118 C 579.184 -1.39222 -1.47049 0
M  V30 6119 C 579.512 0.0037691 -1.945 0
M  V30 6120 O 578.767 0.989224 -1.68857 0
M  V30 6121 C 579.066 -2.33253 -2.70791 0
M  V30 6122 C 578.732 -3.80406 -2.42079 0
M  V30 6123 C 577.394 -4.20496 -2.33959 0
M  V30 6124 C 579.746 -4.73375 -2.18094 0
M  V30 6125 C 577.074 -5.51584 -1.99929 0
M  V30 6126 C 579.426 -6.04768 -1.85576 0
M  V30 6127 C 578.09 -6.43895 -1.75941 0
M  V30 6128 H 577.36 -0.509449 -0.538092 0
M  V30 6129 H 580.007 -1.73363 -0.81348 0
M  V30 6130 H 578.312 -1.92314 -3.41354 0
M  V30 6131 H 580.009 -2.29412 -3.28894 0
M  V30 6132 H 576.599 -3.48645 -2.49288 0
M  V30 6133 H 580.783 -4.43217 -2.23321 0
M  V30 6134 H 576.039 -5.80797 -1.91011 0
M  V30 6135 H 580.213 -6.76318 -1.66033 0
M  V30 6136 H 577.84 -7.45387 -1.4934 0
M  V30 6137 N 579.415 0.9433 -1.26252 0
M  V30 6138 C 580.661 1.69226 -1.12846 0
M  V30 6139 C 581.016 1.8963 0.325282 0
M  V30 6140 O 580.309 1.46435 1.23561 0
M  V30 6141 C 580.503 3.07073 -1.82868 0
M  V30 6142 C 580.332 3.00118 -3.34902 0
M  V30 6143 C 579.102 3.03251 -4.04186 0
M  V30 6144 C 581.3 2.80418 -4.31127 0
M  V30 6145 N 579.282 2.86573 -5.42908 0
M  V30 6146 C 580.653 2.72287 -5.5701 0
M  V30 6147 C 582.708 2.65185 -4.21404 0
M  V30 6148 C 581.411 2.50479 -6.74279 0
M  V30 6149 C 583.437 2.4475 -5.38378 0
M  V30 6150 C 582.799 2.37349 -6.63208 0
M  V30 6151 H 578.898 0.626716 -0.467708 0
M  V30 6152 H 581.482 1.11645 -1.5951 0
M  V30 6153 H 579.653 3.62797 -1.38682 0
M  V30 6154 H 581.385 3.70816 -1.62103 0
M  V30 6155 H 578.14 3.12882 -3.55531 0
M  V30 6156 H 578.564 2.81408 -6.15742 0
M  V30 6157 H 583.206 2.69675 -3.25631 0
M  V30 6158 H 580.924 2.4473 -7.70151 0
M  V30 6159 H 584.51 2.33872 -5.32724 0
M  V30 6160 H 583.39 2.21746 -7.52196 0
M  V30 6161 N 580.893 1.08022 1.14757 0
M  V30 6162 C 582.309 0.807072 1.3769 0
M  V30 6163 C 582.509 -0.585504 1.92806 0
M  V30 6164 O 581.565 -1.34301 2.13821 0
M  V30 6165 C 582.878 1.88651 2.34161 0
M  V30 6166 C 584.426 1.91206 2.47809 0
M  V30 6167 C 584.901 2.98253 3.47576 0
M  V30 6168 N 586.392 2.974 3.55117 0
M  V30 6169 C 587.127 3.76872 4.32152 0
M  V30 6170 N 586.623 4.66212 5.12463 0
M  V30 6171 N 588.416 3.6519 4.27309 0
M  V30 6172 H 580.567 1.97824 0.77326 0
M  V30 6173 H 582.83 0.85826 0.402608 0
M  V30 6174 H 582.536 2.88749 2.00791 0
M  V30 6175 H 582.41 1.75244 3.3402 0
M  V30 6176 H 584.797 0.917564 2.80472 0
M  V30 6177 H 584.878 2.08691 1.47925 0
M  V30 6178 H 584.522 3.97907 3.15646 0
M  V30 6179 H 584.452 2.78014 4.47231 0
M  V30 6180 H 586.943 2.32643 2.97801 0
M  V30 6181 H 587.256 5.23468 5.68508 0
M  V30 6182 H 585.601 4.70257 5.11745 0
M  V30 6183 H 588.792 2.94765 3.63636 0
M  V30 6184 H 588.965 4.27366 4.87095 0
M  V30 6185 N 582.371 -1.3172 0.865308 0
M  V30 6186 C 583.617 -1.97168 0.474633 0
M  V30 6187 C 583.95 -1.68263 -0.969604 0
M  V30 6188 O 583.225 -0.976588 -1.68205 0
M  V30 6189 C 583.508 -3.52689 0.726808 0
M  V30 6190 C 583.361 -3.91185 2.22024 0
M  V30 6191 C 584.68 -4.39689 0.190201 0
M  V30 6192 H 581.799 -0.716185 0.17392 0
M  V30 6193 H 584.441 -1.55925 1.08569 0
M  V30 6194 H 582.591 -3.8795 0.206705 0
M  V30 6195 H 584.263 -3.66049 2.80724 0
M  V30 6196 H 582.506 -3.3996 2.69462 0
M  V30 6197 H 583.177 -4.99604 2.34735 0
M  V30 6198 H 585.653 -4.11225 0.635103 0
M  V30 6199 H 584.529 -5.47469 0.396132 0
M  V30 6200 H 584.79 -4.32683 -0.907625 0
M  V30 6201 N 583.85 -0.624285 -1.44708 0
M  V30 6202 C 585.266 -0.289322 -1.56956 0
M  V30 6203 C 585.466 1.20773 -1.61295 0
M  V30 6204 O 584.522 1.9915 -1.55227 0
M  V30 6205 C 585.835 -0.975215 -2.84447 0
M  V30 6206 C 587.383 -0.952709 -2.98148 0
M  V30 6207 C 587.858 -1.61893 -4.28433 0
M  V30 6208 N 589.349 -1.5852 -4.35231 0
M  V30 6209 C 590.084 -2.06969 -5.34744 0
M  V30 6210 N 589.58 -2.63579 -6.40701 0
M  V30 6211 N 591.373 -1.97638 -5.26209 0
M  V30 6212 H 583.524 -1.59612 -1.40135 0
M  V30 6213 H 585.787 -0.669592 -0.671081 0
M  V30 6214 H 585.493 -2.02999 -2.87201 0
M  V30 6215 H 585.367 -0.508749 -3.73753 0
M  V30 6216 H 587.754 0.093568 -2.94952 0
M  V30 6217 H 587.835 -1.4576 -2.10209 0
M  V30 6218 H 587.479 -2.66463 -4.32389 0
M  V30 6219 H 587.409 -1.08893 -5.15218 0
M  V30 6220 H 589.899 -1.17183 -3.59272 0
M  V30 6221 H 590.213 -2.98298 -7.12908 0
M  V30 6222 H 588.558 -2.67626 -6.41406 0
M  V30 6223 H 591.749 -1.5314 -4.42341 0
M  V30 6224 H 591.922 -2.35708 -6.03611 0
M  V30 6225 N 585.328 1.53329 -0.364422 0
M  V30 6226 C 586.278 2.22472 0.499024 0
M  V30 6227 C 587.262 1.21952 1.0496 0
M  V30 6228 O 588.454 1.47405 0.979836 0
M  V30 6229 C 585.583 3.01659 1.6388 0
M  V30 6230 C 584.669 4.09555 1.10116 0
M  V30 6231 N 585.06 5.04988 0.286414 0
M  V30 6232 C 583.358 4.2424 1.37608 0
M  V30 6233 C 584.059 5.81699 -0.00781682 0
M  V30 6234 N 583.035 5.40394 0.589494 0
M  V30 6235 H 586.837 2.93611 -0.130284 0
M  V30 6236 H 584.351 1.61483 -0.172377 0
M  V30 6237 H 586.348 3.4971 2.26954 0
M  V30 6238 H 585.008 2.32051 2.27118 0
M  V30 6239 H 586.019 5.17847 -0.0742839 0
M  V30 6240 H 582.696 3.65858 2.01133 0
M  V30 6241 H 584.086 6.68587 -0.666394 0
M  V30 6242 N 586.806 0.0935595 1.57322 0
M  V30 6243 C 587.754 -0.883457 2.15169 0
M  V30 6244 C 588.748 -1.29324 1.09415 0
M  V30 6245 O 589.954 -1.26795 1.27762 0
M  V30 6246 H 586.329 -0.302923 0.688289 0
M  V30 6247 H 588.3 -0.370845 2.96087 0
M  V30 6248 C 587.049 -2.13345 2.74552 0
M  V30 6249 H 586.372 -1.82702 3.55612 0
M  V30 6250 H 587.812 -2.7977 3.18598 0
M  V30 6251 C 586.271 -2.90646 1.70371 0
M  V30 6252 O 586.801 -3.85133 1.14173 0
M  V30 6253 N 585.007 -2.54157 1.40899 0
M  V30 6254 H 584.554 -1.77391 1.86789 0
M  V30 6255 H 584.512 -3.06178 0.714301 0
M  V30 6256 N 588.284 -1.56567 -0.180126 0
M  V30 6257 C 589.7 -1.50488 -0.531559 0
M  V30 6258 C 589.9 -0.796267 -1.851 0
M  V30 6259 O 588.956 -0.352978 -2.50021 0
M  V30 6260 C 590.269 -2.95201 -0.572456 0
M  V30 6261 C 591.817 -3.05957 -0.660264 0
M  V30 6262 C 592.292 -4.5211 -0.732135 0
M  V30 6263 N 593.783 -4.56322 -0.795262 0
M  V30 6264 C 594.518 -5.66742 -0.871296 0
M  V30 6265 N 594.014 -6.86815 -0.908708 0
M  V30 6266 N 595.807 -5.54691 -0.909639 0
M  V30 6267 H 587.958 -2.01045 0.685165 0
M  V30 6268 H 590.221 -0.915536 0.245962 0
M  V30 6269 H 589.927 -3.50165 0.328208 0
M  V30 6270 H 589.801 -3.49369 -1.422 0
M  V30 6271 H 592.188 -2.51032 -1.55136 0
M  V30 6272 H 592.269 -2.54888 0.215783 0
M  V30 6273 H 591.913 -5.07664 0.154664 0
M  V30 6274 H 591.843 -5.00926 -1.6242 0
M  V30 6275 H 594.334 -3.69868 -0.77499 0
M  V30 6276 H 594.647 -7.66718 -0.967654 0
M  V30 6277 H 592.992 -6.89443 -0.877132 0
M  V30 6278 H 596.183 -4.59804 -0.877353 0
M  V30 6279 H 596.356 -6.40768 -0.965434 0
M  V30 6280 N 589.762 0.448376 -1.51087 0
M  V30 6281 C 591.008 1.20049 -1.6345 0
M  V30 6282 C 591.341 1.91121 -0.344444 0
M  V30 6283 O 590.616 1.83125 0.655396 0
M  V30 6284 C 590.899 2.22624 -2.83038 0
M  V30 6285 C 590.752 1.55708 -4.21989 0
M  V30 6286 C 592.071 3.23718 -2.98152 0
M  V30 6287 H 589.19 0.435085 -0.59487 0
M  V30 6288 H 591.832 0.491183 -1.83541 0
M  V30 6289 H 589.982 2.83117 -2.66039 0
M  V30 6290 H 591.654 0.986367 -4.50631 0
M  V30 6291 H 589.897 0.859647 -4.25197 0
M  V30 6292 H 590.568 2.30357 -5.01637 0
M  V30 6293 H 593.044 2.73269 -3.13788 0
M  V30 6294 H 591.92 3.92795 -3.83411 0
M  V30 6295 H 592.181 3.89179 -2.09743 0
M  V30 6296 N 591.24 1.41047 0.703093 0
M  V30 6297 C 592.17 1.45067 1.82969 0
M  V30 6298 C 593.151 0.31016 1.67248 0
M  V30 6299 O 594.336 0.520548 1.87093 0
M  V30 6300 C 591.466 1.32478 3.2104 0
M  V30 6301 C 590.42 2.44262 3.51454 0
M  V30 6302 C 589.746 2.16742 4.88801 0
M  V30 6303 C 591.046 3.86606 3.51189 0
M  V30 6304 H 592.74 2.39353 1.79863 0
M  V30 6305 H 590.286 1.15206 0.863919 0
M  V30 6306 H 592.239 1.33904 3.99559 0
M  V30 6307 H 590.963 0.346735 3.24754 0
M  V30 6308 H 589.622 2.42107 2.75282 0
M  V30 6309 H 589.27 1.17299 4.89132 0
M  V30 6310 H 588.97 2.91643 5.10116 0
M  V30 6311 H 590.494 2.19872 5.69639 0
M  V30 6312 H 591.908 3.90517 4.19725 0
M  V30 6313 H 590.305 4.61128 3.84033 0
M  V30 6314 H 591.375 4.15296 2.50315 0
M  V30 6315 N 592.718 -0.936591 1.26751 0
M  V30 6316 C 593.995 -1.66094 1.03306 0
M  V30 6317 C 594.375 -2.06568 -0.435058 0
M  V30 6318 O 593.723 -1.79305 -1.41641 0
M  V30 6319 C 593.933 -2.86969 1.98619 0
M  V30 6320 C 595.281 -3.58516 2.27489 0
M  V30 6321 O 596.305 -2.97082 1.96522 0
M  V30 6322 O 595.164 -4.69181 2.80235 0
M  V30 6323 H 592.258 -0.727568 0.393158 0
M  V30 6324 H 594.804 -0.987914 1.3798 0
M  V30 6325 H 593.576 -2.53985 2.9767 0
M  V30 6326 H 593.199 -3.61996 1.64454 0
M  V30 6327 N 594.196 -1.08629 -1.14182 0
M  V30 6328 C 595.144 -0.71284 -2.21408 0
M  V30 6329 C 596.138 0.282457 -1.67029 0
M  V30 6330 O 597.344 0.144783 -1.79417 0
M  V30 6331 H 593.719 -0.212497 -0.721352 0
M  V30 6332 H 595.69 -1.6265 -2.50175 0
M  V30 6333 C 594.439 -0.140704 -3.47415 0
M  V30 6334 H 593.762 -0.897739 -3.8959 0
M  V30 6335 H 595.202 0.0827677 -4.23919 0
M  V30 6336 C 593.661 1.122 -3.17668 0
M  V30 6337 O 594.191 2.20652 -3.35672 0
M  V30 6338 N 592.397 1.03328 -2.71609 0
M  V30 6339 H 591.944 0.150666 -2.57159 0
M  V30 6340 H 591.902 1.8789 -2.52081 0
M  V30 6341 N 595.674 1.31259 -0.872281 0
M  V30 6342 C 596.904 2.00504 -0.498183 0
M  V30 6343 C 597.312 1.65632 0.914479 0
M  V30 6344 O 596.655 0.882849 1.61095 0
M  V30 6345 C 596.717 3.5482 -0.578194 0
M  V30 6346 C 596.381 4.13172 -1.95289 0
M  V30 6347 C 597.378 4.30107 -2.92069 0
M  V30 6348 C 595.063 4.48846 -2.25483 0
M  V30 6349 C 597.057 4.81908 -4.17185 0
M  V30 6350 C 594.744 5.00349 -3.50847 0
M  V30 6351 C 595.742 5.16831 -4.46514 0
M  V30 6352 O 595.43 5.67228 -5.69656 0
M  V30 6353 H 595.162 0.648055 -0.192354 0
M  V30 6354 H 597.716 1.6841 -1.17589 0
M  V30 6355 H 595.946 3.86383 0.156438 0
M  V30 6356 H 597.635 4.05318 -0.217192 0
M  V30 6357 H 598.401 4.02862 -2.7005 0
M  V30 6358 H 594.28 4.35292 -1.51795 0
M  V30 6359 H 597.824 4.94688 -4.91863 0
M  V30 6360 H 593.721 5.27028 -3.72708 0
M  V30 6361 H 594.489 5.85592 -5.7186 0
M  V30 6362 N 597.152 0.631951 1.44375 0
M  V30 6363 C 598.563 0.219036 1.85411 0
M  V30 6364 C 598.914 -1.22974 1.52879 0
M  V30 6365 O 598.039 -1.93579 0.967266 0
M  V30 6366 C 598.634 0.39075 3.36539 0
M  V30 6367 C 597.193 0.0323351 3.76386 0
M  V30 6368 C 596.34 0.703744 2.68221 0
M  V30 6369 H 599.291 0.837056 1.3483 0
M  V30 6370 H 599.312 -0.370056 3.78696 0
M  V30 6371 H 598.824 1.44527 3.60185 0
M  V30 6372 H 596.925 -1.02042 3.58355 0
M  V30 6373 H 597.038 0.442969 4.77048 0
M  V30 6374 H 595.402 0.138974 2.54321 0
M  V30 6375 H 596.185 1.76088 2.947 0
M  V30 6376 N 598.631 -1.53133 0.372548 0
M  V30 6377 C 599.564 -2.22328 -0.514361 0
M  V30 6378 C 600.542 -1.21776 -1.07747 0
M  V30 6379 O 601.726 -1.50704 -1.13228 0
M  V30 6380 C 598.853 -2.92343 -1.71035 0
M  V30 6381 C 597.899 -4.07026 -1.27405 0
M  V30 6382 S 598.732 -5.34821 -0.269526 0
M  V30 6383 C 599.888 -6.08352 -1.47168 0
M  V30 6384 H 600.121 -2.9721 0.0732683 0
M  V30 6385 H 597.654 -1.53603 0.156673 0
M  V30 6386 H 599.612 -3.33296 -2.39634 0
M  V30 6387 H 598.273 -2.17173 -2.26925 0
M  V30 6388 H 597.466 -4.55056 -2.16656 0
M  V30 6389 H 597.068 -3.68001 -0.66719 0
M  V30 6390 H 599.36 -6.33507 -2.40157 0
M  V30 6391 H 600.303 -7.0053 -1.03263 0
M  V30 6392 H 600.711 -5.38893 -1.6809 0
M  V30 6393 N 600.109 -0.101901 -1.5727 0
M  V30 6394 C 601.52 0.426173 -1.81771 0
M  V30 6395 C 601.871 1.67725 -1.01797 0
M  V30 6396 O 600.996 2.14958 -0.249386 0
M  V30 6397 C 601.591 0.779962 -3.297 0
M  V30 6398 C 600.15 1.25275 -3.54941 0
M  V30 6399 C 599.297 0.252814 -2.76145 0
M  V30 6400 H 602.248 -0.32726 -1.55289 0
M  V30 6401 H 602.269 1.63891 -3.43395 0
M  V30 6402 H 601.781 -0.130778 -3.8788 0
M  V30 6403 H 599.882 2.18097 -3.021 0
M  V30 6404 H 599.995 1.20988 -4.63572 0
M  V30 6405 H 598.359 0.736362 -2.43823 0
M  V30 6406 H 599.142 -0.650724 -3.37076 0
M  V30 6407 N 601.587 1.56661 0.17182 0
M  V30 6408 C 602.836 1.81158 0.886831 0
M  V30 6409 C 603.149 0.679072 1.83434 0
M  V30 6410 O 604.355 0.808964 2.59168 0
M  V30 6411 C 602.811 3.20999 1.6275 0
M  V30 6412 C 602.419 4.42117 0.723652 0
M  V30 6413 C 604.163 3.5479 2.33076 0
M  V30 6414 C 602.07 5.7298 1.46452 0
M  V30 6415 H 601 0.675543 0.334899 0
M  V30 6416 H 603.651 1.82967 0.139765 0
M  V30 6417 H 602.033 3.13506 2.4193 0
M  V30 6418 H 603.207 4.60789 -0.0311485 0
M  V30 6419 H 601.522 4.16197 0.130063 0
M  V30 6420 H 604.119 4.49806 2.89099 0
M  V30 6421 H 604.462 2.79646 3.08389 0
M  V30 6422 H 604.995 3.63834 1.6084 0
M  V30 6423 H 601.734 6.51152 0.753729 0
M  V30 6424 H 601.254 5.58285 2.19266 0
M  V30 6425 H 602.933 6.14916 2.01214 0
M  V30 6426 N 603.065 -0.440357 1.51323 0
M  V30 6427 C 604.313 -1.18769 1.63518 0
M  V30 6428 C 604.634 -1.91793 0.352201 0
M  V30 6429 O 603.904 -1.85432 -0.631811 0
M  V30 6430 H 602.484 -0.441408 0.602634 0
M  V30 6431 H 605.146 -0.505162 1.8824 0
M  V30 6432 H 604.242 -1.91892 2.46138 0
M  V30 6433 N 604.543 -1.41418 -0.695603 0
M  V30 6434 C 605.493 -1.39731 -1.80165 0
M  V30 6435 C 606.477 -0.271689 -1.5859 0
M  V30 6436 O 607.669 -0.512354 -1.69422 0
M  V30 6437 C 604.798 -1.28187 -3.1847 0
M  V30 6438 C 603.884 -2.45612 -3.45739 0
M  V30 6439 N 604.275 -3.71077 -3.43708 0
M  V30 6440 C 602.573 -2.39424 -3.76288 0
M  V30 6441 C 603.274 -4.48957 -3.69882 0
M  V30 6442 N 602.25 -3.7907 -3.89624 0
M  V30 6443 H 606.052 -2.34656 -1.76957 0
M  V30 6444 H 603.566 -1.35473 -0.89559 0
M  V30 6445 H 605.563 -1.2506 -3.977 0
M  V30 6446 H 604.223 -0.342468 -3.22889 0
M  V30 6447 H 605.234 -4.03963 -3.2409 0
M  V30 6448 H 601.911 -1.53955 -3.88077 0
M  V30 6449 H 603.301 -5.57887 -3.74448 0
M  V30 6450 N 606.021 0.929856 -1.27246 0
M  V30 6451 C 607.268 1.67731 -1.13457 0
M  V30 6452 C 607.596 1.9185 0.319998 0
M  V30 6453 O 606.851 1.50524 1.25064 0
M  V30 6454 C 607.15 3.05116 -1.86115 0
M  V30 6455 C 606.816 3.00715 -3.35978 0
M  V30 6456 C 605.478 2.99222 -3.76855 0
M  V30 6457 C 607.83 2.92168 -4.3161 0
M  V30 6458 C 605.158 2.86962 -5.11732 0
M  V30 6459 C 607.51 2.81449 -5.66542 0
M  V30 6460 C 606.174 2.78305 -6.06715 0
M  V30 6461 H 605.444 0.613772 -0.415168 0
M  V30 6462 H 608.091 1.08456 -1.57827 0
M  V30 6463 H 606.396 3.68083 -1.34246 0
M  V30 6464 H 608.093 3.61822 -1.72876 0
M  V30 6465 H 604.683 3.02664 -3.03468 0
M  V30 6466 H 608.867 2.92421 -4.01003 0
M  V30 6467 H 604.123 2.82913 -5.42006 0
M  V30 6468 H 608.297 2.738 -6.40317 0
M  V30 6469 H 605.924 2.68561 -7.11181 0
M  V30 6470 N 607.499 1.09233 1.13605 0
M  V30 6471 C 608.745 0.838255 1.85324 0
M  V30 6472 C 609.1 -0.629314 1.81817 0
M  V30 6473 O 608.393 -1.45729 1.24393 0
M  V30 6474 C 608.587 1.305 3.32723 0
M  V30 6475 C 608.416 2.81641 3.50583 0
M  V30 6476 C 607.186 3.49494 3.64941 0
M  V30 6477 C 609.384 3.79789 3.46792 0
M  V30 6478 N 607.366 4.89082 3.71042 0
M  V30 6479 C 608.737 5.05319 3.59239 0
M  V30 6480 C 610.792 3.72673 3.30181 0
M  V30 6481 C 609.495 6.24574 3.56791 0
M  V30 6482 C 611.521 4.91413 3.29039 0
M  V30 6483 C 610.883 6.15785 3.42035 0
M  V30 6484 H 606.982 0.359572 0.69443 0
M  V30 6485 H 609.566 1.39232 1.36098 0
M  V30 6486 H 607.737 0.778411 3.8052 0
M  V30 6487 H 609.469 0.996465 3.92241 0
M  V30 6488 H 606.224 2.9992 3.66531 0
M  V30 6489 H 606.648 5.61787 3.77789 0
M  V30 6490 H 611.29 2.77444 3.19037 0
M  V30 6491 H 609.008 7.20105 3.66708 0
M  V30 6492 H 612.594 4.87604 3.17386 0
M  V30 6493 H 611.474 7.06126 3.41111 0
M  V30 6494 N 608.977 -1.30795 0.87923 0
M  V30 6495 C 610.393 -1.48981 0.57243 0
M  V30 6496 C 610.593 -1.80719 -0.891236 0
M  V30 6497 O 609.649 -1.89136 -1.67283 0
M  V30 6498 C 610.962 -2.61721 1.48063 0
M  V30 6499 C 612.51 -2.75603 1.48365 0
M  V30 6500 C 612.985 -3.91449 2.37763 0
M  V30 6501 N 614.476 -3.98751 2.35695 0
M  V30 6502 C 615.211 -4.87684 3.01583 0
M  V30 6503 N 614.707 -5.81454 3.76674 0
M  V30 6504 N 616.5 -4.81005 2.90844 0
M  V30 6505 H 608.651 -1.08465 1.82617 0
M  V30 6506 H 610.914 -0.536813 0.781368 0
M  V30 6507 H 610.62 -2.45073 2.52254 0
M  V30 6508 H 610.494 -3.58071 1.18596 0
M  V30 6509 H 612.881 -2.9166 0.44927 0
M  V30 6510 H 612.962 -1.79891 1.81859 0
M  V30 6511 H 612.606 -3.76149 3.41283 0
M  V30 6512 H 612.536 -4.86487 2.01589 0
M  V30 6513 H 615.027 -3.31668 1.81121 0
M  V30 6514 H 615.34 -6.46063 4.24054 0
M  V30 6515 H 613.685 -5.81403 3.80782 0
M  V30 6516 H 616.876 -4.06728 2.31711 0
M  V30 6517 H 617.049 -5.50107 3.42471 0
M  V30 6518 N 610.455 -0.639598 -1.44038 0
M  V30 6519 C 611.703 -0.147188 -2.01563 0
M  V30 6520 C 612.024 1.2384 -1.50628 0
M  V30 6521 O 611.294 1.82452 -0.713316 0
M  V30 6522 H 609.874 -0.0514231 -0.745228 0
M  V30 6523 H 612.536 -0.828205 -1.76428 0
M  V30 6524 H 611.632 -0.121358 -3.11864 0
M  V30 6525 N 611.933 1.52934 -0.380664 0
M  V30 6526 C 612.863 2.29118 0.450268 0
M  V30 6527 C 613.844 1.32153 1.07096 0
M  V30 6528 O 615.029 1.61038 1.08537 0
M  V30 6529 C 612.159 3.09161 1.58231 0
M  V30 6530 C 611.113 4.13938 1.0881 0
M  V30 6531 C 610.439 4.82153 2.31155 0
M  V30 6532 C 611.739 5.22048 0.162146 0
M  V30 6533 H 613.433 2.98826 -0.185361 0
M  V30 6534 H 610.979 1.43715 -0.0905886 0
M  V30 6535 H 612.932 3.61211 2.17036 0
M  V30 6536 H 611.656 2.3717 2.2454 0
M  V30 6537 H 610.315 3.62855 0.522633 0
M  V30 6538 H 609.963 4.06719 2.95953 0
M  V30 6539 H 609.663 5.52966 1.98752 0
M  V30 6540 H 611.187 5.37004 2.90618 0
M  V30 6541 H 612.601 5.6951 0.658126 0
M  V30 6542 H 610.998 6.00057 -0.0717122 0
M  V30 6543 H 612.068 4.78398 -0.791438 0
M  V30 6544 N 613.412 0.11024 1.57214 0
M  V30 6545 C 614.823 -0.416527 1.81994 0
M  V30 6546 C 615.174 -1.67183 1.02686 0
M  V30 6547 O 614.299 -2.14823 0.260782 0
M  V30 6548 C 614.894 -0.762466 3.30109 0
M  V30 6549 C 613.453 -1.23391 3.556 0
M  V30 6550 C 612.6 -0.238166 2.76275 0
M  V30 6551 H 615.551 0.335491 1.55113 0
M  V30 6552 H 615.572 -1.62068 3.44259 0
M  V30 6553 H 615.084 0.151346 3.87805 0
M  V30 6554 H 613.185 -2.16492 3.03253 0
M  V30 6555 H 613.298 -1.18528 4.64207 0
M  V30 6556 H 611.662 -0.723421 2.4421 0
M  V30 6557 H 612.445 0.668591 3.36727 0
M  V30 6558 N 614.89 -1.56749 -0.16351 0
M  V30 6559 C 616.138 -1.82074 -0.87713 0
M  V30 6560 C 616.459 -0.688503 -1.82441 0
M  V30 6561 O 615.729 0.291085 -1.93725 0
M  V30 6562 H 614.309 -0.671677 -0.326893 0
M  V30 6563 H 616.971 -1.9423 -0.161459 0
M  V30 6564 H 616.067 -2.76407 -1.44934 0
M  V30 6565 N 616.368 0.432326 -1.51554 0
M  V30 6566 C 617.645 1.19288 -1.55015 0
M  V30 6567 C 618.025 2.08701 -0.317375 0
M  V30 6568 O 617.373 2.17602 0.697243 0
M  V30 6569 C 617.583 1.99037 -2.86679 0
M  V30 6570 C 618.931 2.55907 -3.38817 0
M  V30 6571 O 619.955 2.09243 -2.88263 0
M  V30 6572 O 618.814 3.41029 -4.27038 0
M  V30 6573 H 615.908 0.543369 -0.623441 0
M  V30 6574 H 618.454 0.440988 -1.6387 0
M  V30 6575 H 617.226 1.33397 -3.6786 0
M  V30 6576 H 616.849 2.81281 -2.8101 0
M  V30 6577 N 617.846 1.41785 0.688094 0
M  V30 6578 C 619.095 1.4084 1.44385 0
M  V30 6579 C 619.408 0.0234166 1.95586 0
M  V30 6580 O 620.614 -0.108647 2.71283 0
M  V30 6581 C 619.07 2.47675 2.61123 0
M  V30 6582 C 618.678 3.92116 2.16677 0
M  V30 6583 C 620.422 2.55877 3.38714 0
M  V30 6584 C 618.329 4.90487 3.30419 0
M  V30 6585 H 617.259 0.523787 0.542368 0
M  V30 6586 H 619.91 1.6764 0.74627 0
M  V30 6587 H 618.292 2.14018 3.33185 0
M  V30 6588 H 619.466 4.35059 1.51856 0
M  V30 6589 H 617.781 3.87642 1.5206 0
M  V30 6590 H 620.378 3.26553 4.234 0
M  V30 6591 H 620.721 1.59801 3.84408 0
M  V30 6592 H 621.254 2.88662 2.73714 0
M  V30 6593 H 617.993 5.87994 2.89729 0
M  V30 6594 H 617.513 4.52187 3.94065 0
M  V30 6595 H 619.192 5.11591 3.96085 0
M  V30 6596 N 619.324 -0.923095 1.27737 0
M  V30 6597 C 620.549 -1.71054 1.17283 0
M  V30 6598 C 620.974 -1.86208 -0.266153 0
M  V30 6599 O 620.332 -1.36545 -1.1927 0
M  V30 6600 C 620.38 -3.0854 1.86642 0
M  V30 6601 O 619.484 -3.95528 1.16752 0
M  V30 6602 H 618.825 -0.524136 0.407649 0
M  V30 6603 H 621.355 -1.15487 1.6889 0
M  V30 6604 H 621.365 -3.58828 1.94182 0
M  V30 6605 H 620.04 -2.96828 2.91317 0
M  V30 6606 H 618.617 -3.53967 1.17312 0
M  V30 6607 N 620.802 -1.09834 -1.13024 0
M  V30 6608 C 621.765 -0.745058 -2.16752 0
M  V30 6609 C 622.765 0.227435 -1.59183 0
M  V30 6610 O 623.955 0.0050786 -1.74199 0
M  V30 6611 C 621.087 -0.102543 -3.40746 0
M  V30 6612 H 622.28 -1.66375 -2.49518 0
M  V30 6613 H 619.833 -0.898061 -1.27924 0
M  V30 6614 H 620.568 0.827177 -3.13573 0
M  V30 6615 H 620.353 -0.80235 -3.83803 0
M  V30 6616 H 621.843 0.129082 -4.174 0
M  V30 6617 N 622.28 1.30327 -0.886154 0
M  V30 6618 C 623.243 2.26376 -0.358687 0
M  V30 6619 C 624.243 1.52845 0.499498 0
M  V30 6620 O 625.433 1.71483 0.306485 0
M  V30 6621 C 622.565 3.37379 0.488726 0
M  V30 6622 H 623.758 2.74547 -1.20681 0
M  V30 6623 H 621.311 1.41536 -0.663113 0
M  V30 6624 H 622.046 2.94526 1.35739 0
M  V30 6625 H 621.831 3.91897 -0.126003 0
M  V30 6626 H 623.321 4.08868 0.84952 0
M  V30 6627 N 623.758 0.647228 1.43697 0
M  V30 6628 C 624.988 0.16551 2.05936 0
M  V30 6629 C 625.396 -1.17164 1.48557 0
M  V30 6630 O 624.739 -1.73307 0.60914 0
M  V30 6631 C 624.801 -0.00648082 3.59499 0
M  V30 6632 C 624.465 1.25503 4.39429 0
M  V30 6633 C 625.462 2.18241 4.71876 0
M  V30 6634 C 623.147 1.49494 4.79538 0
M  V30 6635 C 625.141 3.33268 5.43333 0
M  V30 6636 C 622.828 2.64815 5.50742 0
M  V30 6637 C 623.826 3.56528 5.82561 0
M  V30 6638 O 623.514 4.69836 6.52311 0
M  V30 6639 H 623.246 0.0844124 0.670709 0
M  V30 6640 H 625.8 0.88638 1.8529 0
M  V30 6641 H 624.03 -0.782661 3.78697 0
M  V30 6642 H 625.719 -0.444794 4.03456 0
M  V30 6643 H 626.485 2.00946 4.41413 0
M  V30 6644 H 622.364 0.789912 4.54182 0
M  V30 6645 H 625.908 4.04874 5.68087 0
M  V30 6646 H 621.805 2.82047 5.8062 0
M  V30 6647 H 622.573 4.69024 6.70789 0
M  V30 6648 N 625.236 -1.5273 0.388769 0
M  V30 6649 C 626.146 -2.30165 -0.453993 0
M  V30 6650 C 627.162 -1.37058 -1.07197 0
M  V30 6651 O 628.338 -1.70127 -1.0779 0
M  V30 6652 C 625.403 -3.09303 -1.56628 0
M  V30 6653 C 624.464 -4.18117 -0.973467 0
M  V30 6654 C 623.697 -4.93472 -2.03275 0
M  V30 6655 O 623.92 -4.68913 -3.24772 0
M  V30 6656 O 622.854 -5.78833 -1.65034 0
M  V30 6657 H 626.68 -3.03185 0.176816 0
M  V30 6658 H 624.265 -1.4862 0.152501 0
M  V30 6659 H 626.147 -3.58648 -2.21246 0
M  V30 6660 H 624.822 -2.39098 -2.18206 0
M  V30 6661 H 623.729 -3.7297 -0.290556 0
M  V30 6662 H 625.062 -4.90556 -0.401908 0
M  V30 6663 N 626.714 -0.118576 -1.57153 0
M  V30 6664 C 628.13 0.238014 -1.57815 0
M  V30 6665 C 628.33 1.66747 -1.13127 0
M  V30 6666 O 627.386 2.38867 -0.818462 0
M  V30 6667 C 628.699 0.00508207 -3.007 0
M  V30 6668 C 630.247 0.0710139 -3.12919 0
M  V30 6669 C 630.722 -0.13422 -4.57803 0
M  V30 6670 N 632.213 -0.0801755 -4.63131 0
M  V30 6671 C 632.948 -0.213885 -5.73001 0
M  V30 6672 N 632.444 -0.403742 -6.91623 0
M  V30 6673 N 634.237 -0.15349 -5.6189 0
M  V30 6674 H 626.388 -1.05226 -1.84503 0
M  V30 6675 H 628.651 -0.414318 -0.852669 0
M  V30 6676 H 628.357 -0.983125 -3.3768 0
M  V30 6677 H 628.231 0.73714 -3.69927 0
M  V30 6678 H 630.618 1.04975 -2.75798 0
M  V30 6679 H 630.699 -0.692918 -2.46236 0
M  V30 6680 H 630.343 -1.10992 -4.95624 0
M  V30 6681 H 630.273 0.649692 -5.22577 0
M  V30 6682 H 632.764 0.0630689 -3.77847 0
M  V30 6683 H 633.077 -0.496645 -7.71202 0
M  V30 6684 H 631.422 -0.43971 -6.93608 0
M  V30 6685 H 634.613 -0.00613174 -4.681 0
M  V30 6686 H 634.786 -0.261138 -6.47474 0
M  V30 6687 N 628.193 1.56834 0.155195 0
M  V30 6688 C 629.125 1.94235 1.21677 0
M  V30 6689 C 630.138 0.83724 1.39621 0
M  V30 6690 O 631.327 1.11567 1.39338 0
M  V30 6691 C 628.427 2.19402 2.58294 0
M  V30 6692 C 627.6 3.50671 2.61436 0
M  V30 6693 C 626.659 3.64475 3.79532 0
M  V30 6694 O 625.685 4.36945 3.64784 0
M  V30 6695 N 626.887 3.00526 4.96653 0
M  V30 6696 H 629.652 2.85901 0.898932 0
M  V30 6697 H 627.213 1.58185 0.34483 0
M  V30 6698 H 629.205 2.25886 3.35794 0
M  V30 6699 H 627.775 1.34042 2.82403 0
M  V30 6700 H 626.995 3.55702 1.69912 0
M  V30 6701 H 628.283 4.3702 2.60559 0
M  V30 6702 H 627.681 2.41549 5.11538 0
M  V30 6703 H 626.238 3.12583 5.71958 0
M  V30 6704 N 629.671 -0.424282 1.51781 0
M  V30 6705 C 630.948 -1.18464 1.55646 0
M  V30 6706 C 631.328 -2.08529 0.328438 0
M  V30 6707 O 630.676 -2.17969 -0.685693 0
M  V30 6708 C 630.886 -1.97514 2.87731 0
M  V30 6709 C 632.234 -2.54106 3.40169 0
M  V30 6710 O 633.258 -2.07711 2.89369 0
M  V30 6711 O 632.117 -3.38759 4.28841 0
M  V30 6712 H 629.211 -0.540055 0.626314 0
M  V30 6713 H 631.757 -0.432291 1.64102 0
M  V30 6714 H 630.529 -1.31444 3.68562 0
M  V30 6715 H 630.152 -2.79787 2.82498 0
M  V30 6716 N 631.149 -1.42148 -0.680565 0
M  V30 6717 C 632.397 -1.42029 -1.43779 0
M  V30 6718 C 632.718 -0.0356347 -1.94967 0
M  V30 6719 O 631.988 0.924936 -1.7269 0
M  V30 6720 H 630.568 -0.522835 -0.533529 0
M  V30 6721 H 633.23 -1.7752 -0.804538 0
M  V30 6722 H 632.326 -2.11658 -2.29363 0
M  V30 6723 N 632.627 0.916307 -1.28225 0
M  V30 6724 C 634.043 1.19425 -1.05876 0
M  V30 6725 C 634.243 2.005 0.2005 0
M  V30 6726 O 633.299 2.35806 0.902873 0
M  V30 6727 C 634.612 1.93133 -2.30478 0
M  V30 6728 C 636.16 2.06026 -2.35632 0
M  V30 6729 C 636.635 2.83141 -3.59994 0
M  V30 6730 N 638.126 2.90704 -3.60618 0
M  V30 6731 C 638.861 3.50865 -4.53521 0
M  V30 6732 N 638.357 4.12327 -5.56739 0
M  V30 6733 N 640.15 3.48379 -4.41122 0
M  V30 6734 H 632.301 0.37496 -2.09064 0
M  V30 6735 H 634.564 0.228531 -0.920042 0
M  V30 6736 H 634.27 1.40985 -3.22205 0
M  V30 6737 H 634.144 2.93696 -2.36691 0
M  V30 6738 H 636.531 2.57355 -1.44404 0
M  V30 6739 H 636.612 1.04647 -2.33415 0
M  V30 6740 H 636.256 2.32492 -4.51564 0
M  V30 6741 H 636.186 3.84829 -3.59464 0
M  V30 6742 H 638.677 2.47034 -2.85977 0
M  V30 6743 H 638.99 4.56205 -6.23776 0
M  V30 6744 H 637.335 4.10839 -5.60568 0
M  V30 6745 H 640.526 2.99572 -3.59686 0
M  V30 6746 H 640.699 3.94974 -5.13712 0
M  V30 6747 N 634.105 1.10431 1.1244 0
M  V30 6748 C 635.352 0.846717 1.83948 0
M  V30 6749 C 635.68 -0.627709 1.84093 0
M  V30 6750 O 634.935 -1.47876 1.28184 0
M  V30 6751 C 635.234 1.34022 3.3132 0
M  V30 6752 C 634.9 2.82606 3.51347 0
M  V30 6753 C 633.562 3.23182 3.56521 0
M  V30 6754 C 635.914 3.78356 3.58464 0
M  V30 6755 C 633.242 4.58258 3.66356 0
M  V30 6756 C 635.594 5.13234 3.69829 0
M  V30 6757 C 634.258 5.53384 3.73259 0
M  V30 6758 H 633.528 0.309836 0.673114 0
M  V30 6759 H 636.175 1.38091 1.32677 0
M  V30 6760 H 634.48 0.726047 3.85014 0
M  V30 6761 H 636.177 1.11739 3.85118 0
M  V30 6762 H 632.767 2.50212 3.47983 0
M  V30 6763 H 636.951 3.48115 3.53737 0
M  V30 6764 H 632.207 4.88787 3.67284 0
M  V30 6765 H 636.381 5.87272 3.74279 0
M  V30 6766 H 634.008 6.58045 3.80633 0
M  V30 6767 N 635.583 -1.29855 0.893053 0
M  V30 6768 C 636.829 -1.96116 0.516349 0
M  V30 6769 C 637.162 -1.70281 -0.933695 0
M  V30 6770 O 636.437 -1.01205 -1.66096 0
M  V30 6771 C 636.72 -3.51068 0.801455 0
M  V30 6772 C 636.573 -3.86387 2.30272 0
M  V30 6773 C 637.892 -4.39186 0.283423 0
M  V30 6774 H 635.011 -0.712335 0.189072 0
M  V30 6775 H 637.653 -1.53587 1.11852 0
M  V30 6776 H 635.803 -3.87424 0.288949 0
M  V30 6777 H 637.475 -3.60012 2.88425 0
M  V30 6778 H 635.718 -3.34167 2.76613 0
M  V30 6779 H 636.389 -4.94512 2.45279 0
M  V30 6780 H 638.865 -4.09785 0.722187 0
M  V30 6781 H 637.741 -5.46505 0.512169 0
M  V30 6782 H 638.002 -4.34511 -0.815643 0
M  V30 6783 N 637.061 -0.65484 -1.43351 0
M  V30 6784 C 638.308 -0.168892 -2.01794 0
M  V30 6785 C 638.636 1.2177 -1.51665 0
M  V30 6786 O 637.891 1.82717 -0.70092 0
M  V30 6787 C 638.19 -0.130424 -3.57162 0
M  V30 6788 C 637.856 -1.45898 -4.26643 0
M  V30 6789 C 636.518 -1.82279 -4.4534 0
M  V30 6790 C 638.87 -2.33485 -4.65976 0
M  V30 6791 C 636.198 -3.0591 -5.00635 0
M  V30 6792 C 638.55 -3.5641 -5.22642 0
M  V30 6793 C 637.214 -3.92985 -5.39555 0
M  V30 6794 H 636.484 -0.061802 -0.738418 0
M  V30 6795 H 639.131 -0.845869 -1.71806 0
M  V30 6796 H 637.436 0.630008 -3.86702 0
M  V30 6797 H 639.133 0.262465 -4.0014 0
M  V30 6798 H 635.723 -1.16591 -4.12437 0
M  V30 6799 H 639.907 -2.06668 -4.51223 0
M  V30 6800 H 635.163 -3.34295 -5.11915 0
M  V30 6801 H 639.337 -4.24495 -5.52066 0
M  V30 6802 H 636.964 -4.88862 -5.82167 0
M  V30 6803 N 638.539 1.52521 -0.396863 0
M  V30 6804 C 639.786 2.01672 0.182898 0
M  V30 6805 C 640.114 1.28302 1.46181 0
M  V30 6806 O 639.369 0.374118 1.92091 0
M  V30 6807 C 639.668 3.5403 0.489677 0
M  V30 6808 C 639.334 4.45456 -0.698581 0
M  V30 6809 C 637.996 4.70166 -1.02454 0
M  V30 6810 C 640.348 4.99354 -1.49316 0
M  V30 6811 C 637.676 5.46024 -2.1465 0
M  V30 6812 C 640.028 5.76439 -2.60579 0
M  V30 6813 C 638.692 5.99426 -2.93675 0
M  V30 6814 H 637.962 0.737971 0.066927 0
M  V30 6815 H 640.609 1.83853 -0.535764 0
M  V30 6816 H 638.914 3.69963 1.28976 0
M  V30 6817 H 640.611 3.8956 0.951018 0
M  V30 6818 H 637.201 4.26392 -0.434525 0
M  V30 6819 H 641.385 4.80182 -1.25457 0
M  V30 6820 H 636.641 5.62046 -2.40654 0
M  V30 6821 H 640.815 6.17202 -3.22544 0
M  V30 6822 H 638.442 6.57988 -3.80731 0
M  V30 6823 N 640.017 0.126909 1.57088 0
M  V30 6824 C 640.964 -0.82036 2.15728 0
M  V30 6825 C 641.934 -1.25811 1.08447 0
M  V30 6826 O 643.119 -1.33422 1.36393 0
M  V30 6827 C 640.259 -2.06199 2.76724 0
M  V30 6828 C 639.372 -1.67188 3.98337 0
M  V30 6829 C 638.507 -2.86378 4.47393 0
M  V30 6830 C 637.546 -2.43644 5.61519 0
M  V30 6831 N 636.683 -3.55775 6.05284 0
M  V30 6832 H 641.523 -0.313472 2.96347 0
M  V30 6833 H 639.06 -0.14303 1.46403 0
M  V30 6834 H 641.018 -2.78959 3.10222 0
M  V30 6835 H 639.648 -2.54333 1.98782 0
M  V30 6836 H 638.7 -0.842714 3.70948 0
M  V30 6837 H 640.012 -1.31789 4.81075 0
M  V30 6838 H 639.166 -3.67353 4.82842 0
M  V30 6839 H 637.905 -3.25009 3.63621 0
M  V30 6840 H 636.91 -1.61104 5.25667 0
M  V30 6841 H 638.135 -2.06122 6.47063 0
M  V30 6842 H 636.081 -3.94065 5.24451 0
M  V30 6843 H 635.998 -3.24325 6.82898 0
M  V30 6844 H 637.266 -4.37166 6.45373 0
M  V30 6845 N 641.495 -1.56914 -0.146875 0
M  V30 6846 C 642.743 -1.82994 -0.85777 0
M  V30 6847 C 643.064 -0.707814 -1.817 0
M  V30 6848 O 642.334 0.270521 -1.94023 0
M  V30 6849 H 640.914 -0.675106 -0.319751 0
M  V30 6850 H 643.576 -1.9439 -0.140849 0
M  V30 6851 H 642.672 -2.77928 -1.41994 0
M  V30 6852 N 642.974 0.416227 -1.52004 0
M  V30 6853 C 644.251 1.17637 -1.56272 0
M  V30 6854 C 644.631 2.08352 -0.339493 0
M  V30 6855 O 643.979 2.1833 0.674124 0
M  V30 6856 C 644.189 1.95986 -2.88774 0
M  V30 6857 C 645.537 2.52299 -3.41512 0
M  V30 6858 O 646.561 2.06174 -2.90467 0
M  V30 6859 O 645.42 3.3648 -4.30631 0
M  V30 6860 H 642.514 0.536726 -0.629169 0
M  V30 6861 H 645.06 0.423583 -1.64329 0
M  V30 6862 H 643.832 1.29487 -3.69254 0
M  V30 6863 H 643.455 2.78285 -2.83978 0
M  V30 6864 N 644.452 1.42507 0.673017 0
M  V30 6865 C 645.868 1.25472 0.986355 0
M  V30 6866 C 646.068 0.160181 2.00862 0
M  V30 6867 O 645.124 -0.467993 2.48125 0
M  V30 6868 C 646.437 2.61219 1.48947 0
M  V30 6869 C 647.985 2.68589 1.60715 0
M  V30 6870 C 648.46 4.04707 2.14422 0
M  V30 6871 N 649.951 4.0667 2.21752 0
M  V30 6872 C 650.686 5.0881 2.64386 0
M  V30 6873 N 650.182 6.21332 3.0646 0
M  V30 6874 N 651.975 4.96166 2.64151 0
M  V30 6875 H 644.126 2.124 -0.00378532 0
M  V30 6876 H 646.389 0.946046 0.0608367 0
M  V30 6877 H 646.095 3.42179 0.812812 0
M  V30 6878 H 645.969 2.85261 2.46791 0
M  V30 6879 H 648.356 1.87974 2.27486 0
M  V30 6880 H 648.437 2.48333 0.613552 0
M  V30 6881 H 648.081 4.8578 1.48258 0
M  V30 6882 H 648.011 4.22315 3.14575 0
M  V30 6883 H 650.502 3.25438 1.92089 0
M  V30 6884 H 650.815 6.95118 3.37684 0
M  V30 6885 H 649.16 6.24835 3.04313 0
M  V30 6886 H 652.351 4.07334 2.30644 0
M  V30 6887 H 652.524 5.759 2.97057 0
M  V30 6888 N 645.93 -0.909495 1.28709 0
M  V30 6889 C 647.16 -1.69027 1.188 0
M  V30 6890 C 647.568 -1.87469 -0.255329 0
M  V30 6891 O 646.911 -1.40458 -1.18394 0
M  V30 6892 C 646.973 -3.10064 1.81936 0
M  V30 6893 C 646.637 -3.14891 3.31199 0
M  V30 6894 C 647.634 -2.95768 4.27571 0
M  V30 6895 C 645.319 -3.37269 3.7223 0
M  V30 6896 C 647.313 -2.98942 5.6295 0
M  V30 6897 C 645 -3.40074 5.07733 0
M  V30 6898 C 645.998 -3.20932 6.02903 0
M  V30 6899 O 645.686 -3.23507 7.35934 0
M  V30 6900 H 645.418 -0.535014 0.413203 0
M  V30 6901 H 647.972 -1.14645 1.70428 0
M  V30 6902 H 646.202 -3.66005 1.24808 0
M  V30 6903 H 647.891 -3.70185 1.66486 0
M  V30 6904 H 648.657 -2.78302 3.97206 0
M  V30 6905 H 644.536 -3.51212 2.98615 0
M  V30 6906 H 648.08 -2.83919 6.37209 0
M  V30 6907 H 643.977 -3.5707 5.37747 0
M  V30 6908 H 644.745 -3.3984 7.44615 0
M  V30 6909 N 647.408 -1.11026 -1.11852 0
M  V30 6910 C 648.654 -0.867633 -1.83967 0
M  V30 6911 C 649.009 0.600309 -1.82795 0
M  V30 6912 O 648.302 1.43731 -1.26696 0
M  V30 6913 C 648.496 -1.35777 -3.30604 0
M  V30 6914 C 648.325 -2.87183 -3.46058 0
M  V30 6915 C 647.095 -3.55256 -3.59334 0
M  V30 6916 C 649.293 -3.85258 -3.40706 0
M  V30 6917 N 647.275 -4.94923 -3.63215 0
M  V30 6918 C 648.646 -5.1097 -3.51155 0
M  V30 6919 C 650.701 -3.77879 -3.2421 0
M  V30 6920 C 649.404 -6.30171 -3.46809 0
M  V30 6921 C 651.43 -4.96586 -3.2118 0
M  V30 6922 C 650.792 -6.21149 -3.32196 0
M  V30 6923 H 646.891 -0.370574 -0.688621 0
M  V30 6924 H 649.475 -1.41379 -1.33865 0
M  V30 6925 H 647.646 -0.83885 -3.79233 0
M  V30 6926 H 649.378 -1.05874 -3.90606 0
M  V30 6927 H 646.133 -3.05714 -3.61713 0
M  V30 6928 H 646.557 -5.67726 -3.68804 0
M  V30 6929 H 651.199 -2.82485 -3.14582 0
M  V30 6930 H 648.917 -7.25847 -3.55206 0
M  V30 6931 H 652.503 -4.92591 -3.09589 0
M  V30 6932 H 651.383 -7.11463 -3.29834 0
M  V30 6933 N 648.886 1.2938 -0.899927 0
M  V30 6934 C 649.816 2.30144 -0.39446 0
M  V30 6935 C 650.797 1.61611 0.530639 0
M  V30 6936 O 651.982 1.89119 0.441319 0
M  V30 6937 C 649.112 3.45229 0.37868 0
M  V30 6938 C 648.066 4.25564 -0.456012 0
M  V30 6939 C 647.392 5.32848 0.444637 0
M  V30 6940 C 648.692 4.93651 -1.70605 0
M  V30 6941 H 650.386 2.72673 -1.23653 0
M  V30 6942 H 647.932 1.31086 -0.596034 0
M  V30 6943 H 649.885 4.14797 0.743037 0
M  V30 6944 H 648.609 3.01545 1.25453 0
M  V30 6945 H 647.268 3.57704 -0.802704 0
M  V30 6946 H 646.916 4.85408 1.31863 0
M  V30 6947 H 646.616 5.87497 -0.110154 0
M  V30 6948 H 648.14 6.05268 0.805182 0
M  V30 6949 H 649.554 5.55655 -1.41141 0
M  V30 6950 H 647.951 5.58233 -2.20217 0
M  V30 6951 H 649.021 4.18926 -2.4419 0
M  V30 6952 N 650.364 0.662433 1.43002 0
M  V30 6953 C 651.611 0.179591 2.01702 0
M  V30 6954 C 651.939 -1.20964 1.52309 0
M  V30 6955 O 651.194 -1.82343 0.7106 0
M  V30 6956 C 651.493 0.149363 3.57088 0
M  V30 6957 C 651.159 1.48158 4.25864 0
M  V30 6958 C 649.821 1.84638 4.44367 0
M  V30 6959 C 652.173 2.35953 4.64732 0
M  V30 6960 C 649.501 3.08561 4.99006 0
M  V30 6961 C 651.853 3.59176 5.20745 0
M  V30 6962 C 650.517 3.95841 5.37463 0
M  V30 6963 H 649.787 0.0657172 0.73808 0
M  V30 6964 H 652.434 0.854968 1.71355 0
M  V30 6965 H 650.739 -0.609491 3.8703 0
M  V30 6966 H 652.436 -0.241241 4.00274 0
M  V30 6967 H 649.026 1.18777 4.11813 0
M  V30 6968 H 653.21 2.09058 4.50121 0
M  V30 6969 H 648.466 3.37005 5.10135 0
M  V30 6970 H 652.64 4.27417 5.49807 0
M  V30 6971 H 650.267 4.91942 5.79566 0
M  V30 6972 N 651.842 -1.52309 0.404946 0
M  V30 6973 C 653.258 -1.59503 0.0556255 0
M  V30 6974 C 653.458 -1.41805 -1.43156 0
M  V30 6975 O 652.514 -1.2429 -2.19792 0
M  V30 6976 C 653.827 -2.95687 0.546801 0
M  V30 6977 C 655.375 -3.08909 0.504413 0
M  V30 6978 C 655.85 -4.47566 0.97203 0
M  V30 6979 N 657.341 -4.53795 0.928679 0
M  V30 6980 C 658.076 -5.59346 1.26174 0
M  V30 6981 N 657.572 -6.72469 1.66604 0
M  V30 6982 N 659.365 -5.49532 1.18198 0
M  V30 6983 H 651.516 -1.6206 1.37296 0
M  V30 6984 H 653.779 -0.762161 0.563751 0
M  V30 6985 H 653.485 -3.13905 1.58609 0
M  V30 6986 H 653.359 -3.77172 -0.0457905 0
M  V30 6987 H 655.746 -2.90378 -0.525819 0
M  V30 6988 H 655.827 -2.2934 1.13301 0
M  V30 6989 H 655.471 -4.6684 2.00057 0
M  V30 6990 H 655.401 -5.25625 0.320292 0
M  V30 6991 H 657.892 -3.72588 0.631369 0
M  V30 6992 H 658.205 -7.48993 1.9034 0
M  V30 6993 H 656.55 -6.73761 1.70504 0
M  V30 6994 H 659.741 -4.60038 0.865011 0
M  V30 6995 H 659.914 -6.31687 1.44485 0
M  V30 6996 N 653.32 -0.135238 -1.57019 0
M  V30 6997 C 654.23 0.822226 -2.19719 0
M  V30 6998 C 655.246 1.28057 -1.17802 0
M  V30 6999 O 656.422 1.3402 -1.50335 0
M  V30 7000 C 653.487 2.0484 -2.79717 0
M  V30 7001 C 652.548 1.64042 -3.96723 0
M  V30 7002 C 651.781 2.80814 -4.53849 0
M  V30 7003 O 652.004 3.967 -4.0986 0
M  V30 7004 O 650.938 2.56963 -5.44292 0
M  V30 7005 H 654.764 0.318552 -3.02025 0
M  V30 7006 H 652.349 0.0912021 -1.49121 0
M  V30 7007 H 654.231 2.76622 -3.17897 0
M  V30 7008 H 652.906 2.54182 -2.00432 0
M  V30 7009 H 651.813 0.893182 -3.63281 0
M  V30 7010 H 653.146 1.19426 -4.77492 0
M  V30 7011 N 654.798 1.5699 0.138552 0
M  V30 7012 C 655.761 1.97984 1.15478 0
M  V30 7013 C 656.761 0.867416 1.35398 0
M  V30 7014 O 657.951 1.13387 1.32246 0
M  V30 7015 C 655.083 2.3031 2.51337 0
M  V30 7016 H 656.276 2.88953 0.802896 0
M  V30 7017 H 653.829 1.51555 0.382189 0
M  V30 7018 H 654.564 1.42159 2.91481 0
M  V30 7019 H 654.349 3.11425 2.38237 0
M  V30 7020 H 655.839 2.62834 3.24512 0
M  V30 7021 N 656.276 -0.40816 1.52223 0
M  V30 7022 C 657.224 -1.51788 1.76248 0
M  V30 7023 C 658.218 -1.57264 0.629638 0
M  V30 7024 O 659.424 -1.60659 0.811704 0
M  V30 7025 H 655.799 -0.504823 0.557367 0
M  V30 7026 H 657.77 -1.2871 2.69214 0
M  V30 7027 C 656.519 -2.89145 1.93107 0
M  V30 7028 H 655.842 -2.85674 2.79697 0
M  V30 7029 H 657.282 -3.66082 2.13916 0
M  V30 7030 C 655.741 -3.29581 0.698431 0
M  V30 7031 O 656.271 -4.01479 -0.133238 0
M  V30 7032 N 654.477 -2.85651 0.53405 0
M  V30 7033 H 654.024 -2.2731 1.21194 0
M  V30 7034 H 653.982 -3.13065 -0.289387 0
M  V30 7035 N 657.755 -1.42862 -0.66545 0
M  V30 7036 C 658.685 -1.49867 -1.79059 0
M  V30 7037 C 659.666 -0.354394 -1.66367 0
M  V30 7038 O 660.851 -0.569969 -1.85647 0
M  V30 7039 C 657.981 -1.40943 -3.17415 0
M  V30 7040 C 656.935 -2.53495 -3.44854 0
M  V30 7041 C 656.261 -2.29626 -4.82883 0
M  V30 7042 C 657.561 -3.95781 -3.40815 0
M  V30 7043 H 659.255 -2.44037 -1.73453 0
M  V30 7044 H 656.801 -1.17456 -0.833071 0
M  V30 7045 H 658.754 -1.4445 -3.95869 0
M  V30 7046 H 657.478 -0.432716 -3.23721 0
M  V30 7047 H 656.137 -2.4932 -2.68766 0
M  V30 7048 H 655.785 -1.30226 -4.8585 0
M  V30 7049 H 655.485 -3.05065 -5.02204 0
M  V30 7050 H 657.009 -2.34897 -5.63609 0
M  V30 7051 H 658.423 -4.01508 -4.09224 0
M  V30 7052 H 656.82 -4.71148 -3.71672 0
M  V30 7053 H 657.89 -4.21786 -2.39216 0
M  V30 7054 N 659.233 0.902656 -1.29189 0
M  V30 7055 C 660.143 2.03946 -1.15944 0
M  V30 7056 C 661.159 1.738 -0.0833803 0
M  V30 7057 O 662.335 1.9923 -0.29487 0
M  V30 7058 C 659.4 3.36519 -0.834006 0
M  V30 7059 C 658.461 3.80203 -1.9936 0
M  V30 7060 C 657.694 5.06449 -1.68359 0
M  V30 7061 O 657.917 5.67202 -0.603141 0
M  V30 7062 O 656.851 5.46114 -2.53067 0
M  V30 7063 H 660.677 2.18043 -2.11403 0
M  V30 7064 H 658.262 1.02584 -1.08613 0
M  V30 7065 H 660.144 4.16089 -0.666949 0
M  V30 7066 H 658.819 3.23573 0.0908245 0
M  V30 7067 H 657.726 3.01413 -2.21588 0
M  V30 7068 H 659.059 3.97729 -2.89952 0
M  V30 7069 N 660.711 1.11618 1.11262 0
M  V30 7070 C 662.122 0.881942 1.64556 0
M  V30 7071 C 662.473 -0.585442 1.87262 0
M  V30 7072 O 661.598 -1.44795 1.60821 0
M  V30 7073 C 662.193 1.59446 2.98935 0
M  V30 7074 C 660.752 1.40661 3.4913 0
M  V30 7075 C 659.899 1.63593 2.23903 0
M  V30 7076 H 662.85 1.27217 0.94877 0
M  V30 7077 H 662.871 1.04054 3.65996 0
M  V30 7078 H 662.383 2.66241 2.82378 0
M  V30 7079 H 660.484 0.360835 3.70849 0
M  V30 7080 H 660.597 2.15693 4.27801 0
M  V30 7081 H 658.961 1.05944 2.3162 0
M  V30 7082 H 659.744 2.71666 2.09886 0
M  V30 7083 N 662.189 -1.289 0.906776 0
M  V30 7084 C 663.437 -1.94883 0.535266 0
M  V30 7085 C 663.758 -1.71784 -0.922791 0
M  V30 7086 O 663.028 -1.05359 -1.65156 0
M  V30 7087 H 661.608 -0.721109 0.194962 0
M  V30 7088 H 664.27 -1.57018 1.15461 0
M  V30 7089 H 663.366 -3.03591 0.723821 0
M  V30 7090 N 663.667 -0.670007 -1.42649 0
M  V30 7091 C 664.897 -0.198252 -2.05647 0
M  V30 7092 C 665.305 1.14786 -1.50402 0
M  V30 7093 O 664.648 1.72316 -0.636634 0
M  V30 7094 C 664.71 -0.0507132 -3.59464 0
M  V30 7095 C 664.374 -1.32478 -4.37377 0
M  V30 7096 C 665.371 -2.2572 -4.68344 0
M  V30 7097 C 663.056 -1.57104 -4.77099 0
M  V30 7098 C 665.05 -3.4187 -5.37963 0
M  V30 7099 C 662.737 -2.73543 -5.46459 0
M  V30 7100 C 663.735 -3.65751 -5.76815 0
M  V30 7101 O 663.423 -4.80154 -6.44753 0
M  V30 7102 H 663.155 -0.0950721 -0.669281 0
M  V30 7103 H 665.709 -0.915745 -1.83857 0
M  V30 7104 H 663.939 0.722314 -3.79894 0
M  V30 7105 H 665.628 0.380552 -4.04112 0
M  V30 7106 H 666.394 -2.07943 -4.38161 0
M  V30 7107 H 662.273 -0.862069 -4.52868 0
M  V30 7108 H 665.817 -4.13861 -5.61574 0
M  V30 7109 H 661.714 -2.91248 -5.7606 0
M  V30 7110 H 662.482 -4.79637 -6.63243 0
M  V30 7111 N 665.145 1.52092 -0.413018 0
M  V30 7112 C 666.556 1.86617 0.0556967 0
M  V30 7113 C 666.907 1.33156 1.44097 0
M  V30 7114 O 666.032 0.672417 2.05688 0
M  V30 7115 C 666.627 3.38628 0.107844 0
M  V30 7116 C 665.186 3.72778 0.520904 0
M  V30 7117 C 664.333 2.75649 -0.302109 0
M  V30 7118 H 667.284 1.45663 -0.629919 0
M  V30 7119 H 667.305 3.69152 0.922324 0
M  V30 7120 H 666.817 3.77508 -0.900506 0
M  V30 7121 H 664.918 3.39478 1.53575 0
M  V30 7122 H 665.031 4.7838 0.262591 0
M  V30 7123 H 663.395 2.53603 0.236115 0
M  V30 7124 H 664.178 3.17369 -1.30888 0
M  V30 7125 N 666.623 0.143563 1.56945 0
M  V30 7126 C 667.555 -0.828353 2.13708 0
M  V30 7127 C 668.568 -1.21313 1.08568 0
M  V30 7128 O 669.757 -1.1578 1.35857 0
M  V30 7129 C 666.857 -2.12248 2.64204 0
M  V30 7130 C 666.03 -1.90561 3.93707 0
M  V30 7131 C 665.089 -3.03931 4.29549 0
M  V30 7132 O 664.115 -2.75772 4.97934 0
M  V30 7133 N 665.317 -4.31016 3.88852 0
M  V30 7134 H 668.082 -0.343242 2.97728 0
M  V30 7135 H 665.643 -0.0401152 1.6185 0
M  V30 7136 H 667.635 -2.87132 2.85197 0
M  V30 7137 H 666.205 -2.52033 1.84928 0
M  V30 7138 H 665.425 -0.997327 3.81375 0
M  V30 7139 H 666.713 -1.73405 4.78339 0
M  V30 7140 H 666.111 -4.56762 3.33743 0
M  V30 7141 H 664.668 -5.02691 4.14903 0
M  V30 7142 N 668.101 -1.57061 -0.130224 0
M  V30 7143 C 669.512 -1.73539 -0.68856 0
M  V30 7144 C 669.863 -0.760554 -1.80859 0
M  V30 7145 O 668.988 0.0690796 -2.1629 0
M  V30 7146 C 669.583 -3.14666 -1.25581 0
M  V30 7147 C 668.142 -3.32689 -1.76055 0
M  V30 7148 C 667.289 -2.69436 -0.655712 0
M  V30 7149 H 670.24 -1.58412 0.0956002 0
M  V30 7150 H 670.261 -3.15595 -2.12556 0
M  V30 7151 H 669.773 -3.85593 -0.440412 0
M  V30 7152 H 667.874 -2.66786 -2.60108 0
M  V30 7153 H 667.987 -4.4077 -1.87772 0
M  V30 7154 H 666.351 -2.30362 -1.08654 0
M  V30 7155 H 667.134 -3.42979 0.14852 0
M  V30 7156 N 669.579 0.400081 -1.52437 0
M  V30 7157 C 670.509 1.4947 -1.7939 0
M  V30 7158 C 671.49 1.57383 -0.645329 0
M  V30 7159 O 672.675 1.72511 -0.891826 0
M  V30 7160 C 669.805 2.87201 -1.95276 0
M  V30 7161 C 668.759 2.94134 -3.10917 0
M  V30 7162 C 668.085 4.34207 -3.1204 0
M  V30 7163 C 669.385 2.64791 -4.50203 0
M  V30 7164 H 671.079 1.27165 -2.71052 0
M  V30 7165 H 668.625 0.610312 -1.30427 0
M  V30 7166 H 670.578 3.63772 -2.12715 0
M  V30 7167 H 669.302 3.10819 -1.00294 0
M  V30 7168 H 667.961 2.20009 -2.93243 0
M  V30 7169 H 667.609 4.54848 -2.14761 0
M  V30 7170 H 667.309 4.39768 -3.89715 0
M  V30 7171 H 668.833 5.127 -3.31619 0
M  V30 7172 H 670.247 3.31083 -4.68035 0
M  V30 7173 H 668.644 2.81717 -5.29864 0
M  V30 7174 H 669.714 1.60184 -4.57678 0
M  V30 7175 N 671.057 1.43213 0.657864 0
M  V30 7176 C 672.285 1.48015 1.44566 0
M  V30 7177 C 672.7 0.0965951 1.88553 0
M  V30 7178 O 672.057 -0.892221 1.59203 0
M  V30 7179 C 672.108 2.42199 2.68369 0
M  V30 7180 O 671.829 3.75173 2.26223 0
M  V30 7181 C 673.33 2.56195 3.61772 0
M  V30 7182 H 670.55 0.502861 0.444266 0
M  V30 7183 H 673.094 1.87907 0.806917 0
M  V30 7184 H 671.249 2.05514 3.28394 0
M  V30 7185 H 671.663 4.25776 3.06293 0
M  V30 7186 H 673.137 3.26182 4.4532 0
M  V30 7187 H 673.614 1.60534 4.0881 0
M  V30 7188 H 674.22 2.93671 3.07632 0
M  V30 7189 N 672.536 -0.895792 1.29666 0
M  V30 7190 C 673.761 -1.68528 1.20885 0
M  V30 7191 C 674.186 -1.8673 -0.226595 0
M  V30 7192 O 673.544 -1.39044 -1.16347 0
M  V30 7193 C 673.592 -3.04512 1.93144 0
M  V30 7194 O 672.696 -3.92963 1.25115 0
M  V30 7195 H 672.037 -0.515371 0.418675 0
M  V30 7196 H 674.567 -1.11878 1.71302 0
M  V30 7197 H 674.577 -3.54628 2.0175 0
M  V30 7198 H 673.252 -2.90582 2.97548 0
M  V30 7199 H 671.829 -3.51399 1.24794 0
M  V30 7200 N 674.014 -1.12206 -1.10668 0
M  V30 7201 C 675.244 -0.897332 -1.86095 0
M  V30 7202 C 675.652 0.556778 -1.80822 0
M  V30 7203 O 674.995 1.39658 -1.19337 0
M  V30 7204 C 675.057 -1.29095 -3.35522 0
M  V30 7205 C 674.721 -2.75586 -3.64556 0
M  V30 7206 C 675.718 -3.73785 -3.6136 0
M  V30 7207 C 673.403 -3.12432 -3.93309 0
M  V30 7208 C 675.397 -5.06845 -3.86506 0
M  V30 7209 C 673.084 -4.45675 -4.18111 0
M  V30 7210 C 674.082 -5.42691 -4.147 0
M  V30 7211 O 673.77 -6.73532 -4.38873 0
M  V30 7212 H 673.502 -0.320704 -0.595084 0
M  V30 7213 H 676.056 -1.49517 -1.40833 0
M  V30 7214 H 674.286 -0.636299 -3.81429 0
M  V30 7215 H 675.975 -1.04073 -3.92331 0
M  V30 7216 H 676.741 -3.46664 -3.39189 0
M  V30 7217 H 672.62 -2.3753 -3.95096 0
M  V30 7218 H 676.164 -5.82559 -3.83758 0
M  V30 7219 H 672.061 -4.72526 -4.39761 0
M  V30 7220 H 672.829 -6.79442 -4.564 0
M  V30 7221 N 675.492 1.28418 -0.913599 0
M  V30 7222 C 676.74 1.94596 -0.545594 0
M  V30 7223 C 677.061 1.7227 0.913668 0
M  V30 7224 O 676.331 1.06233 1.64595 0
M  V30 7225 H 674.911 0.720065 -0.198783 0
M  V30 7226 H 677.573 1.56404 -1.16292 0
M  V30 7227 H 676.669 3.03202 -0.739911 0
M  V30 7228 N 676.97 0.677563 1.42291 0
M  V30 7229 C 677.9 0.014968 2.33495 0
M  V30 7230 C 678.881 -0.786376 1.50831 0
M  V30 7231 O 680.066 -0.742975 1.79426 0
M  V30 7232 C 677.196 -0.935023 3.34477 0
M  V30 7233 C 676.15 -0.242074 4.27315 0
M  V30 7234 C 675.476 -1.30519 5.18526 0
M  V30 7235 C 676.776 0.880604 5.14823 0
M  V30 7236 H 678.47 0.776671 2.89151 0
M  V30 7237 H 676.016 0.37494 1.39033 0
M  V30 7238 H 677.969 -1.40766 3.97194 0
M  V30 7239 H 676.693 -1.72818 2.77131 0
M  V30 7240 H 675.352 0.210351 3.65996 0
M  V30 7241 H 675 -2.09041 4.57505 0
M  V30 7242 H 674.7 -0.846652 5.81468 0
M  V30 7243 H 676.224 -1.7787 5.84119 0
M  V30 7244 H 677.638 0.489062 5.7121 0
M  V30 7245 H 676.035 1.26511 5.86613 0
M  V30 7246 H 677.105 1.72818 4.53059 0
M  V30 7247 N 678.448 -1.51871 0.421078 0
M  V30 7248 C 679.696 -2.01539 -0.150492 0
M  V30 7249 C 680.017 -1.30803 -1.44623 0
M  V30 7250 O 679.287 -0.437568 -1.90951 0
M  V30 7251 H 677.867 -0.744698 -0.0586041 0
M  V30 7252 H 680.529 -1.8668 0.560059 0
M  V30 7253 H 679.625 -3.10264 -0.338068 0
M  V30 7254 N 679.926 -0.151884 -1.56866 0
M  V30 7255 C 681.175 0.497992 -1.95456 0
M  V30 7256 C 681.488 1.6569 -1.03953 0
M  V30 7257 O 682.694 2.37173 -1.32142 0
M  V30 7258 C 681.15 0.93732 -3.4748 0
M  V30 7259 C 680.758 -0.194921 -4.47576 0
M  V30 7260 C 682.502 1.55671 -3.94926 0
M  V30 7261 C 680.409 0.26295 -5.90815 0
M  V30 7262 H 679.339 0.189811 -0.729717 0
M  V30 7263 H 681.99 -0.237011 -1.81963 0
M  V30 7264 H 680.372 1.72773 -3.56322 0
M  V30 7265 H 681.546 -0.971951 -4.50433 0
M  V30 7266 H 679.861 -0.72303 -4.10075 0
M  V30 7267 H 682.458 1.91099 -4.99385 0
M  V30 7268 H 682.801 2.44748 -3.36755 0
M  V30 7269 H 683.334 0.831109 -3.89021 0
M  V30 7270 H 680.073 -0.592568 -6.52816 0
M  V30 7271 H 679.593 1.00575 -5.91308 0
M  V30 7272 H 681.272 0.713333 -6.43056 0
M  V30 7273 N 681.404 1.57128 0.121893 0
M  V30 7274 C 682.815 1.73902 0.679348 0
M  V30 7275 C 683.166 0.770135 1.80453 0
M  V30 7276 O 682.291 -0.0576083 2.16323 0
M  V30 7277 C 682.886 3.15328 1.2391 0
M  V30 7278 C 681.445 3.33618 1.74288 0
M  V30 7279 C 680.592 2.6978 0.641414 0
M  V30 7280 H 683.543 1.58359 -0.104 0
M  V30 7281 H 683.564 3.16718 2.10879 0
M  V30 7282 H 683.076 3.85821 0.419957 0
M  V30 7283 H 681.177 2.68162 2.58689 0
M  V30 7284 H 681.29 4.4176 1.85432 0
M  V30 7285 H 679.654 2.30935 1.0743 0
M  V30 7286 H 680.437 3.42895 -0.166707 0
M  V30 7287 N 682.882 -0.391992 1.52647 0
M  V30 7288 C 684.112 -1.15692 1.71169 0
M  V30 7289 C 684.52 -1.84285 0.428444 0
M  V30 7290 O 683.863 -1.73393 -0.606669 0
M  V30 7291 C 683.925 -2.25033 2.80357 0
M  V30 7292 C 683.589 -1.76433 4.21569 0
M  V30 7293 C 684.586 -1.2427 5.0483 0
M  V30 7294 C 682.271 -1.82746 4.67877 0
M  V30 7295 C 684.265 -0.790657 6.32477 0
M  V30 7296 C 681.952 -1.37153 5.9551 0
M  V30 7297 C 682.95 -0.853997 6.7764 0
M  V30 7298 O 682.638 -0.404708 8.02881 0
M  V30 7299 H 682.37 -0.35297 0.576531 0
M  V30 7300 H 684.924 -0.464994 2.00067 0
M  V30 7301 H 683.154 -2.97641 2.46874 0
M  V30 7302 H 684.843 -2.86718 2.87311 0
M  V30 7303 H 685.609 -1.18752 4.70237 0
M  V30 7304 H 681.488 -2.21971 4.04042 0
M  V30 7305 H 685.032 -0.386024 6.96531 0
M  V30 7306 H 680.929 -1.42356 6.29607 0
M  V30 7307 H 681.697 -0.526459 8.16805 0
M  V30 7308 N 684.36 -1.4356 -0.65026 0
M  V30 7309 C 685.637 -1.35811 -1.40765 0
M  V30 7310 C 686.017 -0.00736379 -2.11099 0
M  V30 7311 O 685.365 1.00932 -2.05 0
M  V30 7312 C 685.575 -2.54332 -2.3899 0
M  V30 7313 C 686.923 -2.97551 -3.02901 0
M  V30 7314 O 687.947 -2.544 -2.49317 0
M  V30 7315 O 686.806 -3.72311 -4.00059 0
M  V30 7316 H 683.9 -0.536861 -0.629054 0
M  V30 7317 H 686.446 -1.55615 -0.676919 0
M  V30 7318 H 685.218 -3.44274 -1.85986 0
M  V30 7319 H 684.841 -2.36643 -3.19509 0
M  V30 7320 N 685.838 0.888903 -1.30139 0
M  V30 7321 C 687.254 1.17153 -1.08385 0
M  V30 7322 C 687.454 2.0088 0.157925 0
M  V30 7323 O 686.51 2.37668 0.852652 0
M  V30 7324 C 687.823 1.882 -2.34523 0
M  V30 7325 C 689.371 2.00981 -2.39949 0
M  V30 7326 C 689.846 2.75441 -3.65918 0
M  V30 7327 N 691.337 2.82989 -3.66704 0
M  V30 7328 C 692.072 3.41167 -4.60861 0
M  V30 7329 N 691.568 4.00425 -5.6536 0
M  V30 7330 N 693.361 3.38944 -4.48412 0
M  V30 7331 H 685.512 0.33053 -2.09812 0
M  V30 7332 H 687.775 0.208964 -0.924683 0
M  V30 7333 H 687.481 1.34119 -3.25123 0
M  V30 7334 H 687.355 2.88609 -2.42868 0
M  V30 7335 H 689.742 2.54234 -1.4983 0
M  V30 7336 H 689.823 0.996725 -2.35582 0
M  V30 7337 H 689.467 2.22861 -4.56394 0
M  V30 7338 H 689.397 3.77118 -3.67546 0
M  V30 7339 H 691.888 2.40912 -2.91153 0
M  V30 7340 H 692.201 4.42871 -6.33313 0
M  V30 7341 H 690.546 3.98856 -5.69157 0
M  V30 7342 H 693.737 2.91875 -3.6596 0
M  V30 7343 H 693.91 3.83989 -5.21974 0
M  V30 7344 N 687.317 1.12792 1.10072 0
M  V30 7345 C 688.566 0.880232 1.81479 0
M  V30 7346 C 688.879 -0.595575 1.86312 0
M  V30 7347 O 690.085 -0.959979 2.53962 0
M  V30 7348 C 688.541 1.52514 3.25987 0
M  V30 7349 C 688.149 3.036 3.29441 0
M  V30 7350 C 689.893 1.35788 4.02196 0
M  V30 7351 C 687.8 3.61007 4.68431 0
M  V30 7352 H 686.73 0.325654 0.680048 0
M  V30 7353 H 689.381 1.35485 1.23758 0
M  V30 7354 H 687.763 0.978188 3.83728 0
M  V30 7355 H 688.937 3.64819 2.81502 0
M  V30 7356 H 687.252 3.19765 2.66719 0
M  V30 7357 H 689.849 1.76096 5.0487 0
M  V30 7358 H 690.192 0.301972 4.15203 0
M  V30 7359 H 690.725 1.87426 3.50879 0
M  V30 7360 H 687.464 4.66375 4.60625 0
M  V30 7361 H 686.984 3.04564 5.16721 0
M  V30 7362 H 688.663 3.60289 5.37402 0
M  V30 7363 N 688.795 -1.27931 0.920396 0
M  V30 7364 C 690.072 -1.89728 0.475687 0
M  V30 7365 C 690.452 -1.8337 -1.04588 0
M  V30 7366 O 689.8 -1.27404 -1.89685 0
M  V30 7367 C 690.01 -3.33959 1.01354 0
M  V30 7368 C 691.358 -4.10907 1.06963 0
M  V30 7369 O 692.382 -3.42945 0.962646 0
M  V30 7370 O 691.241 -5.32399 1.23343 0
M  V30 7371 H 688.335 -0.81294 0.151845 0
M  V30 7372 H 690.881 -1.36252 1.01161 0
M  V30 7373 H 689.653 -3.32843 2.05746 0
M  V30 7374 H 689.276 -3.94944 0.458829 0
M  V30 7375 N 690.273 -0.685099 -1.4193 0
M  V30 7376 C 691.501 -0.220372 -2.05723 0
M  V30 7377 C 691.916 1.12642 -1.51516 0
M  V30 7378 O 691.273 1.70182 -0.659114 0
M  V30 7379 C 691.324 -0.157974 -3.61155 0
M  V30 7380 O 691.045 -1.45156 -4.13354 0
M  V30 7381 C 692.546 0.329009 -4.42077 0
M  V30 7382 H 689.766 -0.104725 -0.662777 0
M  V30 7383 H 692.31 -0.934736 -1.81887 0
M  V30 7384 H 690.465 0.507144 -3.84066 0
M  V30 7385 H 690.879 -1.33172 -5.07312 0
M  V30 7386 H 692.353 0.321559 -5.51063 0
M  V30 7387 H 692.83 1.36608 -4.17414 0
M  V30 7388 H 693.436 -0.304737 -4.24207 0
M  V30 7389 N 691.751 1.51645 -0.429126 0
M  V30 7390 C 692.714 2.26116 0.374726 0
M  V30 7391 C 693.714 1.29242 0.956714 0
M  V30 7392 O 694.904 1.53022 0.832452 0
M  V30 7393 C 692.036 3.04669 1.52937 0
M  V30 7394 H 693.229 2.9861 -0.277818 0
M  V30 7395 H 690.782 1.55236 -0.182097 0
M  V30 7396 H 691.517 2.36571 2.21821 0
M  V30 7397 H 691.302 3.75814 1.11833 0
M  V30 7398 H 692.792 3.61102 2.09751 0
M  V30 7399 N 693.229 0.160201 1.56784 0
M  V30 7400 C 694.478 -0.487619 1.95717 0
M  V30 7401 C 694.791 -1.65136 1.0483 0
M  V30 7402 O 695.997 -2.36468 1.33398 0
M  V30 7403 C 694.453 -0.91888 3.47972 0
M  V30 7404 C 694.061 0.218655 4.47466 0
M  V30 7405 C 695.805 -1.53575 3.95746 0
M  V30 7406 C 693.712 -0.231614 5.90946 0
M  V30 7407 H 692.642 -0.185939 0.730714 0
M  V30 7408 H 695.293 0.246657 1.81835 0
M  V30 7409 H 693.675 -1.70881 3.57234 0
M  V30 7410 H 694.849 0.995825 4.49911 0
M  V30 7411 H 693.164 0.744767 4.09685 0
M  V30 7412 H 695.761 -1.88448 5.00391 0
M  V30 7413 H 696.104 -2.42959 3.38048 0
M  V30 7414 H 696.637 -0.810467 3.89456 0
M  V30 7415 H 693.376 0.62718 6.52493 0
M  V30 7416 H 692.896 -0.974379 5.91833 0
M  V30 7417 H 694.575 -0.67922 6.43425 0
M  V30 7418 N 694.707 -1.5719 -0.113559 0
M  V30 7419 C 695.953 -1.86289 -0.816583 0
M  V30 7420 C 696.308 -0.748672 -1.77236 0
M  V30 7421 O 695.601 0.250889 -1.8995 0
M  V30 7422 C 695.795 -3.19593 -1.59984 0
M  V30 7423 C 695.624 -4.43876 -0.721414 0
M  V30 7424 C 694.394 -5.03913 -0.374172 0
M  V30 7425 C 696.592 -5.14287 -0.0366045 0
M  V30 7426 N 694.574 -6.11741 0.514352 0
M  V30 7427 C 695.945 -6.15913 0.710706 0
M  V30 7428 C 698 -4.97885 0.039247 0
M  V30 7429 C 696.703 -7.0291 1.52675 0
M  V30 7430 C 698.729 -5.85373 0.842135 0
M  V30 7431 C 698.091 -6.86506 1.57762 0
M  V30 7432 H 694.19 -0.731839 -0.275564 0
M  V30 7433 H 696.774 -1.94535 -0.080033 0
M  V30 7434 H 694.945 -3.12432 -2.30739 0
M  V30 7435 H 696.677 -3.3648 -2.24862 0
M  V30 7436 H 693.432 -4.68131 -0.717653 0
M  V30 7437 H 693.856 -6.70293 0.950623 0
M  V30 7438 H 698.498 -4.19651 -0.51503 0
M  V30 7439 H 696.216 -7.80547 2.09217 0
M  V30 7440 H 699.802 -5.74746 0.903256 0
M  V30 7441 H 698.682 -7.53032 2.1889 0
M  V30 7442 N 696.185 0.383891 -1.52853 0
M  V30 7443 C 697.431 1.12667 -1.69345 0
M  V30 7444 C 697.786 1.87519 -0.430635 0
M  V30 7445 O 697.079 1.82742 0.575846 0
M  V30 7446 C 697.273 2.12881 -2.87082 0
M  V30 7447 C 697.102 1.47873 -4.24692 0
M  V30 7448 C 695.872 1.24064 -4.89833 0
M  V30 7449 C 698.07 0.926118 -5.05893 0
M  V30 7450 N 696.052 0.552138 -6.11412 0
M  V30 7451 C 697.423 0.365966 -6.18919 0
M  V30 7452 C 699.478 0.823023 -4.91051 0
M  V30 7453 C 698.181 -0.287204 -7.18726 0
M  V30 7454 C 700.207 0.183666 -5.91115 0
M  V30 7455 C 699.569 -0.365693 -7.0345 0
M  V30 7456 H 695.668 0.398064 -0.673104 0
M  V30 7457 H 698.252 0.415504 -1.90215 0
M  V30 7458 H 696.423 2.81329 -2.67784 0
M  V30 7459 H 698.155 2.79703 -2.92486 0
M  V30 7460 H 694.91 1.51701 -4.48647 0
M  V30 7461 H 695.334 0.223783 -6.7663 0
M  V30 7462 H 699.976 1.23354 -4.04405 0
M  V30 7463 H 697.694 -0.709719 -8.04977 0
M  V30 7464 H 701.28 0.105074 -5.81705 0
M  V30 7465 H 700.16 -0.85261 -7.79551 0
M  V30 7466 N 697.663 1.43903 0.642637 0
M  V30 7467 C 698.573 1.52349 1.78401 0
M  V30 7468 C 699.589 0.409869 1.69104 0
M  V30 7469 O 700.765 0.665548 1.90085 0
M  V30 7470 C 697.83 1.45408 3.14734 0
M  V30 7471 C 696.891 2.67528 3.35749 0
M  V30 7472 C 696.124 2.60909 4.65577 0
M  V30 7473 O 696.347 1.6627 5.45628 0
M  V30 7474 O 695.281 3.5158 4.88544 0
M  V30 7475 H 699.107 2.48752 1.7423 0
M  V30 7476 H 696.692 1.26021 0.802439 0
M  V30 7477 H 698.574 1.44019 3.96026 0
M  V30 7478 H 697.249 0.521437 3.19473 0
M  V30 7479 H 696.156 2.74487 2.5418 0
M  V30 7480 H 697.489 3.598 3.35864 0
M  V30 7481 N 699.141 -0.881989 1.30609 0
M  V30 7482 C 700.552 -1.44956 1.17664 0
M  V30 7483 C 700.903 -1.94945 -0.221531 0
M  V30 7484 O 700.028 -1.85257 -1.11844 0
M  V30 7485 C 700.623 -2.63474 2.12995 0
M  V30 7486 C 699.182 -3.16312 2.04019 0
M  V30 7487 C 698.329 -1.89008 2.02907 0
M  V30 7488 H 701.28 -0.691645 1.42835 0
M  V30 7489 H 701.301 -3.39783 1.71253 0
M  V30 7490 H 700.813 -2.2706 3.14746 0
M  V30 7491 H 698.914 -3.57376 1.0542 0
M  V30 7492 H 699.027 -3.79409 2.9255 0
M  V30 7493 H 697.391 -2.07465 1.47751 0
M  V30 7494 H 698.174 -1.54848 3.06394 0
M  V30 7495 N 700.619 -1.13374 -1.09472 0
M  V30 7496 C 701.847 -0.918351 -1.85402 0
M  V30 7497 C 702.262 0.53281 -1.81126 0
M  V30 7498 O 701.619 1.36879 -1.20708 0
M  V30 7499 C 701.67 -1.39743 -3.33398 0
M  V30 7500 O 701.391 -2.79172 -3.37631 0
M  V30 7501 C 702.892 -1.22042 -4.2617 0
M  V30 7502 H 700.112 -0.327511 -0.585643 0
M  V30 7503 H 702.656 -1.50617 -1.38328 0
M  V30 7504 H 700.811 -0.852619 -3.77901 0
M  V30 7505 H 701.225 -3.00428 -4.29934 0
M  V30 7506 H 702.699 -1.60438 -5.2817 0
M  V30 7507 H 703.176 -0.162047 -4.38901 0
M  V30 7508 H 703.782 -1.75323 -3.87482 0
M  V30 7509 N 702.098 1.27442 -0.927168 0
M  V30 7510 C 703.346 1.94007 -0.566203 0
M  V30 7511 C 703.667 1.7323 0.895345 0
M  V30 7512 O 702.937 1.07973 1.63459 0
M  V30 7513 H 701.517 0.717917 -0.206409 0
M  V30 7514 H 704.179 1.55161 -1.17945 0
M  V30 7515 H 703.275 3.02401 -0.772028 0
M  V30 7516 N 703.576 0.692616 1.41565 0
M  V30 7517 C 704.526 0.00231847 2.28 0
M  V30 7518 C 705.51 -0.755793 1.42044 0
M  V30 7519 O 706.702 -0.631772 1.65341 0
M  V30 7520 C 703.831 -0.935468 3.30309 0
M  V30 7521 C 702.917 -0.173761 4.23744 0
M  V30 7522 N 703.308 0.830872 4.98929 0
M  V30 7523 C 701.606 -0.409666 4.44115 0
M  V30 7524 C 702.307 1.28656 5.67294 0
M  V30 7525 N 701.283 0.613053 5.40132 0
M  V30 7526 H 705.085 0.772635 2.83562 0
M  V30 7527 H 702.599 0.523198 1.53741 0
M  V30 7528 H 704.596 -1.44513 3.91052 0
M  V30 7529 H 703.256 -1.70542 2.76307 0
M  V30 7530 H 704.267 1.21101 5.03542 0
M  V30 7531 H 700.944 -1.15773 4.01127 0
M  V30 7532 H 702.334 2.12006 6.37576 0
M  V30 7533 N 705.054 -1.51416 0.437162 0
M  V30 7534 C 706.282 -2.06503 -0.128045 0
M  V30 7535 C 706.697 -1.30461 -1.36475 0
M  V30 7536 O 706.054 -0.364127 -1.78831 0
M  V30 7537 C 706.105 -3.58683 -0.450437 0
M  V30 7538 O 705.826 -4.31853 0.737186 0
M  V30 7539 C 707.327 -4.30284 -1.06633 0
M  V30 7540 H 704.547 -0.670952 -0.00800269 0
M  V30 7541 H 707.091 -1.94996 0.616193 0
M  V30 7542 H 705.246 -3.70106 -1.14457 0
M  V30 7543 H 705.66 -5.22467 0.461347 0
M  V30 7544 H 707.134 -5.37848 -1.24191 0
M  V30 7545 H 707.611 -3.88564 -2.0473 0
M  V30 7546 H 708.217 -4.23304 -0.411585 0
M  V30 7547 N 706.532 -0.168513 -1.56696 0
M  V30 7548 C 707.779 0.477158 -1.96798 0
M  V30 7549 C 708.107 1.63442 -1.05437 0
M  V30 7550 O 707.362 1.95503 -0.0878903 0
M  V30 7551 C 707.661 1.00441 -3.42996 0
M  V30 7552 C 707.327 -0.0366556 -4.50885 0
M  V30 7553 C 705.989 -0.322785 -4.80116 0
M  V30 7554 C 708.341 -0.743447 -5.1587 0
M  V30 7555 C 705.669 -1.32114 -5.71632 0
M  V30 7556 C 708.021 -1.73077 -6.08463 0
M  V30 7557 C 706.685 -2.02437 -6.36062 0
M  V30 7558 H 705.955 0.174604 -0.720135 0
M  V30 7559 H 708.602 -0.259884 -1.89728 0
M  V30 7560 H 706.907 1.81922 -3.47004 0
M  V30 7561 H 708.604 1.51294 -3.71364 0
M  V30 7562 H 705.194 0.196532 -4.28149 0
M  V30 7563 H 709.378 -0.535602 -4.93401 0
M  V30 7564 H 704.634 -1.55482 -5.913 0
M  V30 7565 H 708.808 -2.28382 -6.57886 0
M  V30 7566 H 706.435 -2.79946 -7.06777 0
M  V30 7567 N 708.01 1.57248 0.105221 0
M  V30 7568 C 709.257 1.8557 0.810552 0
M  V30 7569 C 709.585 0.755595 1.79223 0
M  V30 7570 O 708.84 -0.251788 1.94073 0
M  V30 7571 C 709.139 3.20437 1.58287 0
M  V30 7572 C 708.805 4.44716 0.744235 0
M  V30 7573 C 707.467 4.78458 0.513013 0
M  V30 7574 C 709.819 5.20953 0.160578 0
M  V30 7575 C 707.147 5.8587 -0.311894 0
M  V30 7576 C 709.499 6.29235 -0.651596 0
M  V30 7577 C 708.163 6.615 -0.893005 0
M  V30 7578 H 707.433 0.67905 0.296602 0
M  V30 7579 H 710.08 1.91363 0.0723968 0
M  V30 7580 H 708.385 3.10283 2.39232 0
M  V30 7581 H 710.082 3.39576 2.13282 0
M  V30 7582 H 706.672 4.18287 0.934555 0
M  V30 7583 H 710.856 4.95226 0.3264 0
M  V30 7584 H 706.112 6.09286 -0.508012 0
M  V30 7585 H 710.286 6.87484 -1.11077 0
M  V30 7586 H 707.913 7.44562 -1.53401 0
M  V30 7587 N 709.488 -0.375779 1.53054 0
M  V30 7588 C 710.735 -1.11948 1.68742 0
M  V30 7589 C 711.063 -1.89596 0.434015 0
M  V30 7590 O 710.318 -1.86787 -0.583867 0
M  V30 7591 C 710.617 -2.11356 2.88207 0
M  V30 7592 C 710.283 -1.50266 4.25124 0
M  V30 7593 C 708.945 -1.33333 4.62359 0
M  V30 7594 C 711.297 -1.05976 5.10312 0
M  V30 7595 C 708.625 -0.706765 5.82427 0
M  V30 7596 C 710.977 -0.447241 6.31017 0
M  V30 7597 C 709.641 -0.265314 6.66973 0
M  V30 7598 H 708.911 -0.409648 0.61747 0
M  V30 7599 H 711.558 -0.402492 1.87222 0
M  V30 7600 H 709.863 -2.89322 2.64197 0
M  V30 7601 H 711.56 -2.68833 2.97539 0
M  V30 7602 H 708.15 -1.64437 3.95801 0
M  V30 7603 H 712.334 -1.17855 4.82104 0
M  V30 7604 H 707.59 -0.554132 6.08884 0
M  V30 7605 H 711.764 -0.0958064 6.96334 0
M  V30 7606 H 709.391 0.222267 7.59875 0
M  V30 7607 N 710.966 -1.44241 -0.634997 0
M  V30 7608 C 711.898 -1.46793 -1.76024 0
M  V30 7609 C 712.911 -0.361781 -1.58729 0
M  V30 7610 O 714.1 -0.627297 -1.67114 0
M  V30 7611 C 711.2 -1.28248 -3.13697 0
M  V30 7612 C 710.373 -2.52038 -3.57485 0
M  V30 7613 C 709.432 -2.2845 -4.74022 0
M  V30 7614 O 708.458 -3.01915 -4.82531 0
M  V30 7615 N 709.66 -1.31264 -5.65464 0
M  V30 7616 H 712.425 -2.43797 -1.74307 0
M  V30 7617 H 709.986 -1.39631 -0.819438 0
M  V30 7618 H 711.978 -1.10321 -3.89373 0
M  V30 7619 H 710.548 -0.39623 -3.10079 0
M  V30 7620 H 709.768 -2.85268 -2.72059 0
M  V30 7621 H 711.056 -3.34382 -3.83492 0
M  V30 7622 H 710.454 -0.705817 -5.6128 0
M  V30 7623 H 709.011 -1.19316 -6.40786 0
M  V30 7624 N 712.444 0.87505 -1.31075 0
M  V30 7625 C 713.354 2.01441 -1.20244 0
M  V30 7626 C 714.37 1.73584 -0.120227 0
M  V30 7627 O 715.546 1.98559 -0.337063 0
M  V30 7628 C 712.611 3.34675 -0.905199 0
M  V30 7629 C 711.672 3.75889 -2.0738 0
M  V30 7630 C 710.905 5.02764 -1.79064 0
M  V30 7631 O 711.128 5.65795 -0.723318 0
M  V30 7632 O 710.062 5.40623 -2.64594 0
M  V30 7633 H 713.888 2.13509 -2.1598 0
M  V30 7634 H 711.473 1.00257 -1.10765 0
M  V30 7635 H 713.355 4.1458 -0.755057 0
M  V30 7636 H 712.03 3.23692 0.0221695 0
M  V30 7637 H 710.937 2.96645 -2.27931 0
M  V30 7638 H 712.27 3.91489 -2.98324 0
M  V30 7639 N 713.922 1.13953 1.08869 0
M  V30 7640 C 715.199 0.815768 1.77777 0
M  V30 7641 C 715.579 -0.691624 1.99449 0
M  V30 7642 O 714.927 -1.63085 1.60049 0
M  V30 7643 C 715.137 1.60916 3.09689 0
M  V30 7644 C 716.485 1.80549 3.84301 0
M  V30 7645 O 717.509 1.57562 3.19457 0
M  V30 7646 O 716.368 2.18946 5.00724 0
M  V30 7647 H 713.462 0.298445 0.771271 0
M  V30 7648 H 716.008 1.24446 1.15374 0
M  V30 7649 H 714.78 2.6333 2.89435 0
M  V30 7650 H 714.403 1.17578 3.79817 0
M  V30 7651 N 715.4 -1.26948 0.933913 0
M  V30 7652 C 716.816 -1.46419 0.635103 0
M  V30 7653 C 717.016 -1.84336 -0.813785 0
M  V30 7654 O 716.072 -1.96061 -1.59111 0
M  V30 7655 C 717.385 -2.55206 1.5903 0
M  V30 7656 C 718.933 -2.69062 1.5992 0
M  V30 7657 C 719.408 -3.81013 2.54152 0
M  V30 7658 N 720.899 -3.88395 2.52395 0
M  V30 7659 C 721.634 -4.74454 3.21996 0
M  V30 7660 N 721.13 -5.64954 4.00997 0
M  V30 7661 N 722.923 -4.68237 3.10983 0
M  V30 7662 H 715.074 -1.00622 1.87053 0
M  V30 7663 H 717.337 -0.503189 0.803433 0
M  V30 7664 H 717.043 -2.34153 2.62422 0
M  V30 7665 H 716.917 -3.52719 1.33677 0
M  V30 7666 H 719.304 -2.89492 0.572569 0
M  V30 7667 H 719.385 -1.72016 1.89325 0
M  V30 7668 H 719.029 -3.61336 3.5693 0
M  V30 7669 H 718.959 -4.77499 2.22041 0
M  V30 7670 H 721.45 -3.23687 1.95025 0
M  V30 7671 H 721.763 -6.27496 4.51074 0
M  V30 7672 H 720.108 -5.6473 4.05099 0
M  V30 7673 H 723.299 -3.96535 2.48753 0
M  V30 7674 H 723.472 -5.35087 3.65494 0
M  V30 7675 N 716.879 -0.700114 -1.41195 0
M  V30 7676 C 718.109 -0.241828 -2.0518 0
M  V30 7677 C 718.517 1.1157 -1.52803 0
M  V30 7678 O 717.86 1.70926 -0.673042 0
M  V30 7679 C 717.922 -0.12695 -3.59276 0
M  V30 7680 C 717.586 -1.41725 -4.34469 0
M  V30 7681 C 718.583 -2.35604 -4.63451 0
M  V30 7682 C 716.268 -1.67189 -4.73659 0
M  V30 7683 C 718.262 -3.53204 -5.3059 0
M  V30 7684 C 715.949 -2.85073 -5.40534 0
M  V30 7685 C 716.947 -3.77904 -5.68927 0
M  V30 7686 O 716.635 -4.93723 -6.34424 0
M  V30 7687 H 716.367 -0.109247 -0.667114 0
M  V30 7688 H 718.921 -0.954538 -1.81873 0
M  V30 7689 H 717.151 0.641571 -3.81341 0
M  V30 7690 H 718.84 0.294748 -4.04828 0
M  V30 7691 H 719.606 -2.1719 -4.33651 0
M  V30 7692 H 715.485 -0.957935 -4.50937 0
M  V30 7693 H 719.029 -4.25679 -5.52669 0
M  V30 7694 H 714.926 -3.03402 -5.69752 0
M  V30 7695 H 715.694 -4.93597 -6.5292 0
M  V30 7696 N 718.357 1.51182 -0.445186 0
M  V30 7697 C 719.603 2.03097 0.111049 0
M  V30 7698 C 719.958 1.32293 1.397 0
M  V30 7699 O 719.251 0.431529 1.86677 0
M  V30 7700 C 719.445 3.55408 0.376797 0
M  V30 7701 C 719.274 4.40969 -0.88185 0
M  V30 7702 C 718.044 4.85006 -1.41766 0
M  V30 7703 C 720.242 4.82876 -1.77017 0
M  V30 7704 N 718.224 5.54804 -2.62803 0
M  V30 7705 C 719.595 5.51821 -2.82654 0
M  V30 7706 C 721.65 4.64855 -1.78365 0
M  V30 7707 C 720.353 6.04655 -3.89595 0
M  V30 7708 C 722.379 5.18612 -2.84246 0
M  V30 7709 C 721.741 5.87509 -3.88603 0
M  V30 7710 H 717.84 0.781999 0.0012696 0
M  V30 7711 H 720.424 1.84976 -0.60761 0
M  V30 7712 H 718.595 3.73528 1.06449 0
M  V30 7713 H 720.327 3.93985 0.925082 0
M  V30 7714 H 717.082 4.6355 -0.970476 0
M  V30 7715 H 717.506 5.94326 -3.24201 0
M  V30 7716 H 722.148 4.11043 -0.990119 0
M  V30 7717 H 719.866 6.57518 -4.69782 0
M  V30 7718 H 723.452 5.06515 -2.86241 0
M  V30 7719 H 722.332 6.28358 -4.69186 0
M  V30 7720 N 719.835 0.176821 1.56605 0
M  V30 7721 C 721.251 -0.179278 1.5859 0
M  V30 7722 C 721.451 -1.62433 1.19238 0
M  V30 7723 O 720.507 -2.35665 0.906552 0
M  V30 7724 C 721.82 0.106524 3.00511 0
M  V30 7725 C 723.368 0.0451731 3.12967 0
M  V30 7726 C 723.843 0.304038 4.5699 0
M  V30 7727 N 725.334 0.252008 4.62514 0
M  V30 7728 C 726.069 0.426404 5.71812 0
M  V30 7729 N 725.565 0.660155 6.89648 0
M  V30 7730 N 727.358 0.361926 5.60934 0
M  V30 7731 H 719.509 1.12001 1.8047 0
M  V30 7732 H 721.772 0.445679 0.836704 0
M  V30 7733 H 721.478 1.10778 3.33798 0
M  V30 7734 H 721.352 -0.599337 3.72408 0
M  V30 7735 H 723.739 -0.946662 2.79504 0
M  V30 7736 H 723.82 0.78383 2.43495 0
M  V30 7737 H 723.464 1.29311 4.91163 0
M  V30 7738 H 723.394 -0.455294 5.24628 0
M  V30 7739 H 725.885 0.0772102 3.77821 0
M  V30 7740 H 726.198 0.782529 7.68828 0
M  V30 7741 H 724.543 0.696835 6.91498 0
M  V30 7742 H 727.734 0.17986 4.67754 0
M  V30 7743 H 727.907 0.501263 6.46058 0
M  V30 7744 N 721.313 -1.57302 -0.09688 0
M  V30 7745 C 722.56 -1.85997 -0.800699 0
M  V30 7746 C 722.888 -0.765089 -1.7882 0
M  V30 7747 O 722.143 0.241492 -1.94204 0
M  V30 7748 C 722.442 -3.21272 -1.56586 0
M  V30 7749 C 722.108 -4.45104 -0.72064 0
M  V30 7750 C 720.77 -4.78723 -0.487632 0
M  V30 7751 C 723.122 -5.2103 -0.132948 0
M  V30 7752 C 720.45 -5.85697 0.34296 0
M  V30 7753 C 722.802 -6.28881 0.684957 0
M  V30 7754 C 721.466 -6.61017 0.928073 0
M  V30 7755 H 720.736 -0.680613 -0.292997 0
M  V30 7756 H 723.383 -1.91399 -0.0622474 0
M  V30 7757 H 721.688 -3.11547 -2.37583 0
M  V30 7758 H 723.385 -3.40702 -2.11478 0
M  V30 7759 H 719.975 -4.18777 -0.912359 0
M  V30 7760 H 724.159 -4.95392 -0.300132 0
M  V30 7761 H 719.415 -6.09008 0.540317 0
M  V30 7762 H 723.589 -6.86886 1.14721 0
M  V30 7763 H 721.216 -7.43738 1.57348 0
M  V30 7764 N 722.791 0.367657 -1.53252 0
M  V30 7765 C 723.739 1.47061 -1.8021 0
M  V30 7766 C 724.733 1.55539 -0.671112 0
M  V30 7767 O 725.939 1.58451 -0.854014 0
M  V30 7768 H 722.314 0.489868 -0.570555 0
M  V30 7769 H 724.285 1.21527 -2.72532 0
M  V30 7770 C 723.034 2.83924 -2.00706 0
M  V30 7771 H 722.357 2.78158 -2.87172 0
M  V30 7772 H 723.797 3.60281 -2.23547 0
M  V30 7773 C 722.256 3.27613 -0.785568 0
M  V30 7774 O 722.786 4.01691 0.0267459 0
M  V30 7775 N 720.992 2.84134 -0.609597 0
M  V30 7776 H 720.539 2.24017 -1.27178 0
M  V30 7777 H 720.497 3.13723 0.206281 0
M  V30 7778 N 724.269 1.44576 0.627338 0
M  V30 7779 C 725.179 1.54232 1.76776 0
M  V30 7780 C 726.195 0.427782 1.6866 0
M  V30 7781 O 727.371 0.685671 1.89369 0
M  V30 7782 C 724.436 1.48738 3.13174 0
M  V30 7783 C 723.497 2.71074 3.32893 0
M  V30 7784 C 722.73 2.65832 4.62784 0
M  V30 7785 O 722.953 1.72048 5.43834 0
M  V30 7786 O 721.887 3.56742 4.84787 0
M  V30 7787 H 725.713 2.50586 1.71582 0
M  V30 7788 H 723.298 1.26865 0.789028 0
M  V30 7789 H 725.18 1.48211 3.94476 0
M  V30 7790 H 723.855 0.555292 3.18902 0
M  V30 7791 H 722.762 2.77168 2.51254 0
M  V30 7792 H 724.095 3.63342 3.32029 0
M  V30 7793 N 725.747 -0.868086 1.31537 0
M  V30 7794 C 726.657 -2.00801 1.21311 0
M  V30 7795 C 727.673 -1.73518 0.129431 0
M  V30 7796 O 728.849 -1.98378 0.347588 0
M  V30 7797 C 725.914 -3.3419 0.922935 0
M  V30 7798 C 724.975 -3.74783 2.0937 0
M  V30 7799 C 724.208 -5.01807 1.81728 0
M  V30 7800 O 724.431 -5.65404 0.753313 0
M  V30 7801 O 723.365 -5.39213 2.67457 0
M  V30 7802 H 727.191 -2.12361 2.17109 0
M  V30 7803 H 724.776 -0.996684 1.11295 0
M  V30 7804 H 726.658 -4.14174 0.777033 0
M  V30 7805 H 725.333 -3.237 -0.00500301 0
M  V30 7806 H 724.24 -2.95432 2.29501 0
M  V30 7807 H 725.573 -3.89902 3.00396 0
M  V30 7808 N 727.225 -1.14528 -1.08264 0
M  V30 7809 C 728.453 -0.937964 -1.84418 0
M  V30 7810 C 728.868 0.51357 -1.81681 0
M  V30 7811 O 728.225 1.35591 -1.22153 0
M  V30 7812 C 728.276 -1.43272 -3.31897 0
M  V30 7813 O 727.997 -2.82738 -3.34651 0
M  V30 7814 C 729.498 -1.26555 -4.24851 0
M  V30 7815 H 726.718 -0.333704 -0.582136 0
M  V30 7816 H 729.262 -1.52076 -1.36723 0
M  V30 7817 H 727.417 -0.892653 -3.76975 0
M  V30 7818 H 727.831 -3.04971 -4.26724 0
M  V30 7819 H 729.305 -1.66031 -5.26439 0
M  V30 7820 H 729.782 -0.208589 -4.38704 0
M  V30 7821 H 730.388 -1.79423 -3.856 0
M  V30 7822 N 728.703 1.26451 -0.940633 0
M  V30 7823 C 729.635 2.25556 -0.407104 0
M  V30 7824 C 730.648 1.55888 0.469324 0
M  V30 7825 O 731.837 1.76292 0.279858 0
M  V30 7826 C 728.937 3.36109 0.434064 0
M  V30 7827 C 728.11 4.3532 -0.426082 0
M  V30 7828 C 727.169 5.25004 0.354563 0
M  V30 7829 O 726.195 5.68684 -0.242219 0
M  V30 7830 N 727.397 5.5652 1.65123 0
M  V30 7831 H 730.162 2.7197 -1.25907 0
M  V30 7832 H 727.723 1.40212 -0.809456 0
M  V30 7833 H 729.715 3.93059 0.963684 0
M  V30 7834 H 728.285 2.89194 1.18683 0
M  V30 7835 H 727.505 3.77449 -1.13692 0
M  V30 7836 H 728.793 4.986 -1.01366 0
M  V30 7837 H 728.191 5.22912 2.15822 0
M  V30 7838 H 726.748 6.16115 2.12711 0
M  V30 7839 N 730.181 0.707592 1.40822 0
M  V30 7840 C 731.597 0.38034 1.55002 0
M  V30 7841 C 731.797 -1.11163 1.68062 0
M  V30 7842 O 730.853 -1.89761 1.66574 0
M  V30 7843 C 732.166 1.1394 2.78277 0
M  V30 7844 C 733.714 1.12492 2.92087 0
M  V30 7845 C 734.189 1.86597 4.18265 0
M  V30 7846 N 735.68 1.83626 4.25248 0
M  V30 7847 C 736.415 2.37794 5.21768 0
M  V30 7848 N 735.911 3.00485 6.24244 0
M  V30 7849 N 737.704 2.27982 5.13791 0
M  V30 7850 H 729.855 1.67511 1.3059 0
M  V30 7851 H 732.118 0.707579 0.630901 0
M  V30 7852 H 731.824 2.19398 2.74877 0
M  V30 7853 H 731.698 0.725793 3.70151 0
M  V30 7854 H 734.085 0.0785564 2.94995 0
M  V30 7855 H 734.166 1.57768 2.01353 0
M  V30 7856 H 733.81 2.91219 4.16118 0
M  V30 7857 H 733.74 1.38746 5.07993 0
M  V30 7858 H 736.231 1.3793 3.51829 0
M  V30 7859 H 736.544 3.39355 6.94304 0
M  V30 7860 H 734.889 3.04567 6.24711 0
M  V30 7861 H 738.08 1.78669 4.3266 0
M  V30 7862 H 738.253 2.70499 5.88841 0
M  V30 7863 N 731.66 -1.50943 0.453197 0
M  V30 7864 C 732.908 -2.01813 -0.107709 0
M  V30 7865 C 733.229 -1.33841 -1.41816 0
M  V30 7866 O 732.499 -0.477973 -1.8998 0
M  V30 7867 H 731.079 -0.745773 -0.0427948 0
M  V30 7868 H 733.741 -1.8545 0.599531 0
M  V30 7869 H 732.837 -3.10911 -0.27218 0
M  V30 7870 N 733.138 -0.185124 -1.56509 0
M  V30 7871 C 734.415 0.503348 -1.89013 0
M  V30 7872 C 734.795 1.80349 -1.09715 0
M  V30 7873 O 734.143 2.27665 -0.195203 0
M  V30 7874 C 734.353 0.731839 -3.41241 0
M  V30 7875 C 735.701 1.05568 -4.11267 0
M  V30 7876 O 736.725 0.819906 -3.46635 0
M  V30 7877 O 735.584 1.50116 -5.25478 0
M  V30 7878 H 732.678 0.261139 -0.784688 0
M  V30 7879 H 735.224 -0.224592 -1.68207 0
M  V30 7880 H 733.996 -0.18672 -3.90854 0
M  V30 7881 H 733.619 1.5126 -3.67704 0
M  V30 7882 N 734.616 1.57351 0.0885366 0
M  V30 7883 C 736.027 1.75303 0.642308 0
M  V30 7884 C 736.378 0.808238 1.78779 0
M  V30 7885 O 735.503 -0.01171 2.16397 0
M  V30 7886 C 736.098 3.17885 1.17194 0
M  V30 7887 C 734.657 3.37239 1.67172 0
M  V30 7888 C 733.804 2.7108 0.584045 0
M  V30 7889 H 736.755 1.58103 -0.137567 0
M  V30 7890 H 736.776 3.2112 2.04114 0
M  V30 7891 H 736.288 3.86625 0.338024 0
M  V30 7892 H 734.389 2.73588 2.52943 0
M  V30 7893 H 734.502 4.45594 1.76019 0
M  V30 7894 H 732.866 2.33161 1.02508 0
M  V30 7895 H 733.649 3.42464 -0.239403 0
M  V30 7896 N 736.094 -0.359525 1.53444 0
M  V30 7897 C 737.342 -1.09935 1.69584 0
M  V30 7898 C 737.663 -1.89656 0.453371 0
M  V30 7899 O 736.933 -1.8852 -0.53263 0
M  V30 7900 H 735.513 -0.408843 0.625185 0
M  V30 7901 H 738.175 -0.40467 1.90653 0
M  V30 7902 H 737.271 -1.78575 2.55964 0
M  V30 7903 N 737.572 -1.44907 -0.619662 0
M  V30 7904 C 738.802 -1.51575 -1.40387 0
M  V30 7905 C 739.21 -0.14309 -1.88658 0
M  V30 7906 O 738.553 0.863403 -1.62145 0
M  V30 7907 C 738.615 -2.42858 -2.65067 0
M  V30 7908 C 738.279 -3.8982 -2.38515 0
M  V30 7909 C 739.276 -4.80047 -1.99627 0
M  V30 7910 C 736.961 -4.34628 -2.51801 0
M  V30 7911 C 738.955 -6.13086 -1.74369 0
M  V30 7912 C 736.642 -5.67712 -2.26156 0
M  V30 7913 C 737.64 -6.56759 -1.875 0
M  V30 7914 O 737.328 -7.87377 -1.62148 0
M  V30 7915 H 737.06 -0.51612 -0.436573 0
M  V30 7916 H 739.614 -1.90664 -0.763959 0
M  V30 7917 H 737.844 -1.98717 -3.31735 0
M  V30 7918 H 739.533 -2.40346 -3.27091 0
M  V30 7919 H 740.299 -4.46697 -1.8891 0
M  V30 7920 H 736.178 -3.65568 -2.80857 0
M  V30 7921 H 739.722 -6.8255 -1.44122 0
M  V30 7922 H 735.619 -6.0062 -2.36486 0
M  V30 7923 H 736.387 -7.99288 -1.763 0
M  V30 7924 N 739.05 0.861098 -1.31996 0
M  V30 7925 C 740.461 1.43065 -1.19955 0
M  V30 7926 C 740.812 1.95273 0.190489 0
M  V30 7927 O 739.937 1.87012 1.08882 0
M  V30 7928 C 740.532 2.60052 -2.1716 0
M  V30 7929 C 739.091 3.13026 -2.09026 0
M  V30 7930 C 738.238 1.85756 -2.05888 0
M  V30 7931 H 741.189 0.668834 -1.43918 0
M  V30 7932 H 741.21 3.37016 -1.76637 0
M  V30 7933 H 740.722 2.22024 -3.18319 0
M  V30 7934 H 738.823 3.55653 -1.11092 0
M  V30 7935 H 738.936 3.74707 -2.98549 0
M  V30 7936 H 737.3 2.05088 -1.51033 0
M  V30 7937 H 738.083 1.49954 -3.08818 0
M  V30 7938 N 740.528 1.15101 1.07655 0
M  V30 7939 C 741.475 0.844958 2.14777 0
M  V30 7940 C 742.445 -0.200798 1.64882 0
M  V30 7941 O 743.63 -0.0690278 1.90675 0
M  V30 7942 C 740.77 0.337018 3.4345 0
M  V30 7943 C 739.883 1.44398 4.07153 0
M  V30 7944 C 739.018 0.892487 5.23649 0
M  V30 7945 C 738.057 1.9766 5.79307 0
M  V30 7946 N 737.194 1.44171 6.87138 0
M  V30 7947 H 742.034 1.76242 2.40297 0
M  V30 7948 H 739.571 0.879435 1.17917 0
M  V30 7949 H 741.529 0.024256 4.17193 0
M  V30 7950 H 740.159 -0.543531 3.18191 0
M  V30 7951 H 739.211 1.87299 3.31094 0
M  V30 7952 H 740.523 2.26262 4.4453 0
M  V30 7953 H 739.677 0.532083 6.04362 0
M  V30 7954 H 738.416 0.0429854 4.87681 0
M  V30 7955 H 737.421 2.34586 4.97242 0
M  V30 7956 H 738.646 2.82982 6.17331 0
M  V30 7957 H 736.592 0.614518 6.53115 0
M  V30 7958 H 736.509 2.19665 7.23383 0
M  V30 7959 H 737.777 1.10945 7.71564 0
M  V30 7960 N 742.006 -1.2595 0.947325 0
M  V30 7961 C 743.417 -1.75389 0.639963 0
M  V30 7962 C 743.768 -1.77081 -0.844788 0
M  V30 7963 O 742.893 -1.3869 -1.66114 0
M  V30 7964 C 743.488 -3.18506 1.15496 0
M  V30 7965 C 742.047 -3.65534 0.897894 0
M  V30 7966 C 741.194 -2.44818 1.30228 0
M  V30 7967 H 744.145 -1.1194 1.12495 0
M  V30 7968 H 744.166 -3.77045 0.511627 0
M  V30 7969 H 743.678 -3.17243 2.23559 0
M  V30 7970 H 741.779 -3.72221 -0.168096 0
M  V30 7971 H 741.892 -4.54039 1.52922 0
M  V30 7972 H 740.256 -2.44291 0.720678 0
M  V30 7973 H 741.039 -2.46251 2.39198 0
M  V30 7974 N 743.484 -0.715051 -1.40445 0
M  V30 7975 C 744.733 -0.251322 -2.00128 0
M  V30 7976 C 745.046 1.16194 -1.57347 0
M  V30 7977 O 746.252 1.72416 -2.09726 0
M  V30 7978 C 744.708 -0.398407 -3.57688 0
M  V30 7979 C 744.316 -1.81828 -4.09442 0
M  V30 7980 C 746.06 0.00455625 -4.245 0
M  V30 7981 C 743.967 -1.91598 -5.59503 0
M  V30 7982 H 742.897 -0.0902081 -0.748584 0
M  V30 7983 H 745.548 -0.886062 -1.6069 0
M  V30 7984 H 743.93 0.304908 -3.94824 0
M  V30 7985 H 745.104 -2.55193 -3.83684 0
M  V30 7986 H 743.419 -2.17266 -3.55225 0
M  V30 7987 H 746.016 -0.0477303 -5.34679 0
M  V30 7988 H 746.359 1.04636 -4.02935 0
M  V30 7989 H 746.892 -0.649184 -3.92467 0
M  V30 7990 H 743.631 -2.93898 -5.85922 0
M  V30 7991 H 743.151 -1.22644 -5.87127 0
M  V30 7992 H 744.83 -1.68785 -6.24596 0
M  V30 7993 N 744.962 1.50701 -0.461195 0
M  V30 7994 C 746.187 2.07171 0.0974773 0
M  V30 7995 C 746.612 1.32391 1.3362 0
M  V30 7996 O 745.97 0.368676 1.77512 0
M  V30 7997 C 746.018 3.58651 0.374409 0
M  V30 7998 O 745.122 3.85816 1.4567 0
M  V30 7999 H 744.463 0.663944 -0.00862047 0
M  V30 8000 H 746.993 1.94021 -0.649394 0
M  V30 8001 H 747.003 4.03295 0.617843 0
M  V30 8002 H 745.678 4.12498 -0.530829 0
M  V30 8003 H 744.255 3.53018 1.20136 0
M  V30 8004 N 746.441 0.193421 1.56409 0
M  V30 8005 C 747.687 -0.446449 1.97825 0
M  V30 8006 C 748.02 -1.61386 1.08019 0
M  V30 8007 O 747.295 -1.94053 0.131839 0
M  V30 8008 C 747.578 -0.908199 3.48459 0
M  V30 8009 C 747.431 0.260914 4.49043 0
M  V30 8010 C 748.75 -1.77428 4.0275 0
M  V30 8011 H 745.869 -0.160807 0.719243 0
M  V30 8012 H 748.511 0.284006 1.87865 0
M  V30 8013 H 746.661 -1.53062 3.57077 0
M  V30 8014 H 748.333 0.898548 4.52464 0
M  V30 8015 H 746.576 0.912949 4.24085 0
M  V30 8016 H 747.247 -0.104657 5.51901 0
M  V30 8017 H 749.723 -1.24936 3.96901 0
M  V30 8018 H 748.599 -2.06633 5.08521 0
M  V30 8019 H 748.86 -2.72788 3.47907 0
M  V30 8020 N 747.919 -1.57396 -0.0801906 0
M  V30 8021 C 749.165 -1.87979 -0.776884 0
M  V30 8022 C 749.52 -0.786098 -1.75608 0
M  V30 8023 O 748.813 0.210541 -1.9044 0
M  V30 8024 C 749.007 -3.22915 -1.53169 0
M  V30 8025 C 748.836 -4.45306 -0.627099 0
M  V30 8026 C 747.606 -5.04593 -0.267201 0
M  V30 8027 C 749.804 -5.14249 0.0724916 0
M  V30 8028 N 747.786 -6.10513 0.643995 0
M  V30 8029 C 749.157 -6.14267 0.841191 0
M  V30 8030 C 751.212 -4.97689 0.144847 0
M  V30 8031 C 749.915 -6.99514 1.67551 0
M  V30 8032 C 751.941 -5.83455 0.966112 0
M  V30 8033 C 751.303 -6.83005 1.72288 0
M  V30 8034 H 747.402 -0.737519 -0.259979 0
M  V30 8035 H 749.986 -1.94661 -0.0387512 0
M  V30 8036 H 748.157 -3.17256 -2.2406 0
M  V30 8037 H 749.889 -3.41174 -2.17675 0
M  V30 8038 H 746.644 -4.69548 -0.618194 0
M  V30 8039 H 747.068 -6.68125 1.09259 0
M  V30 8040 H 751.71 -4.20649 -0.4259 0
M  V30 8041 H 749.428 -7.75934 2.25726 0
M  V30 8042 H 753.014 -5.727 1.02497 0
M  V30 8043 H 751.894 -7.48219 2.34813 0
M  V30 8044 N 749.397 0.351382 -1.53633 0
M  V30 8045 C 750.329 1.45159 -1.77374 0
M  V30 8046 C 751.342 1.4905 -0.654826 0
M  V30 8047 O 752.531 1.52274 -0.931396 0
M  V30 8048 C 749.631 2.83858 -1.85143 0
M  V30 8049 C 748.804 3.03498 -3.14972 0
M  V30 8050 C 747.863 4.22393 -3.138 0
M  V30 8051 O 746.889 4.16885 -3.87551 0
M  V30 8052 N 748.091 5.30533 -2.35617 0
M  V30 8053 H 750.856 1.25167 -2.72311 0
M  V30 8054 H 748.417 0.54121 -1.52586 0
M  V30 8055 H 750.409 3.61557 -1.8182 0
M  V30 8056 H 748.979 2.9703 -0.974275 0
M  V30 8057 H 748.199 2.13336 -3.31484 0
M  V30 8058 H 749.487 3.13498 -4.00745 0
M  V30 8059 H 748.885 5.37875 -1.75235 0
M  V30 8060 H 747.442 6.06756 -2.38098 0
M  V30 8061 N 750.875 1.45233 0.611969 0
M  V30 8062 C 752.123 1.48727 1.36838 0
M  V30 8063 C 752.444 0.128616 1.94575 0
M  V30 8064 O 751.714 -0.84149 1.76906 0
M  V30 8065 H 750.294 0.547695 0.507976 0
M  V30 8066 H 752.956 1.81156 0.718925 0
M  V30 8067 H 752.052 2.2236 2.19003 0
M  V30 8068 N 752.353 -0.854086 1.3245 0
M  V30 8069 C 753.602 -1.60318 1.22397 0
M  V30 8070 C 753.915 -1.9444 -0.212664 0
M  V30 8071 O 755.121 -2.67991 -0.435066 0
M  V30 8072 C 753.577 -2.8909 2.1437 0
M  V30 8073 C 753.185 -2.62391 3.63119 0
M  V30 8074 C 754.929 -3.67104 2.13155 0
M  V30 8075 C 752.836 -3.87167 4.47052 0
M  V30 8076 H 751.766 -0.601586 0.454544 0
M  V30 8077 H 754.417 -0.943023 1.57415 0
M  V30 8078 H 752.799 -3.56567 1.72268 0
M  V30 8079 H 753.973 -2.03222 4.13567 0
M  V30 8080 H 752.288 -1.97706 3.66471 0
M  V30 8081 H 754.885 -4.59696 2.731 0
M  V30 8082 H 755.228 -4.00876 1.12268 0
M  V30 8083 H 755.761 -3.06533 2.5354 0
M  V30 8084 H 752.5 -3.58536 5.48755 0
M  V30 8085 H 752.02 -4.45729 4.01355 0
M  V30 8086 H 753.699 -4.549 4.60081 0
M  V30 8087 N 753.831 -1.1567 -1.07043 0
M  V30 8088 C 755.242 -0.942408 -1.61169 0
M  V30 8089 C 755.593 0.515537 -1.89306 0
M  V30 8090 O 754.718 1.38726 -1.66084 0
M  V30 8091 C 755.313 -1.70431 -2.92812 0
M  V30 8092 C 753.872 -1.53521 -3.43669 0
M  V30 8093 C 753.019 -1.7179 -2.17678 0
M  V30 8094 H 755.97 -1.3065 -0.9009 0
M  V30 8095 H 755.991 -1.17566 -3.61882 0
M  V30 8096 H 755.503 -2.76538 -2.72302 0
M  V30 8097 H 753.604 -0.498224 -3.69254 0
M  V30 8098 H 753.717 -2.31422 -4.19501 0
M  V30 8099 H 752.081 -1.14468 -2.27529 0
M  V30 8100 H 752.864 -2.79269 -1.99659 0
M  V30 8101 N 755.309 1.25446 -0.953992 0
M  V30 8102 C 756.272 2.24156 -0.478179 0
M  V30 8103 C 757.272 1.55278 0.417776 0
M  V30 8104 O 758.462 1.72866 0.215155 0
M  V30 8105 C 755.594 3.39495 0.309202 0
M  V30 8106 H 756.787 2.67764 -1.35064 0
M  V30 8107 H 754.34 1.37822 -0.737206 0
M  V30 8108 H 755.075 3.01307 1.19936 0
M  V30 8109 H 754.86 3.90679 -0.333562 0
M  V30 8110 H 756.35 4.12796 0.631594 0
M  V30 8111 N 756.787 0.722489 1.40064 0
M  V30 8112 C 758.012 0.273446 2.05589 0
M  V30 8113 C 758.437 -1.07875 1.54093 0
M  V30 8114 O 757.795 -1.68095 0.679252 0
M  V30 8115 C 757.843 0.271023 3.5958 0
M  V30 8116 O 756.947 -0.745499 4.05606 0
M  V30 8117 H 756.288 0.126856 0.65177 0
M  V30 8118 H 758.818 0.984906 1.79334 0
M  V30 8119 H 758.828 0.111084 4.07849 0
M  V30 8120 H 757.503 1.25776 3.96425 0
M  V30 8121 H 756.08 -0.552719 3.68781 0
M  V30 8122 N 758.265 -1.50454 0.469181 0
M  V30 8123 C 759.676 -1.86695 0.0136034 0
M  V30 8124 C 760.027 -1.38413 -1.39055 0
M  V30 8125 O 759.152 -0.748294 -2.03051 0
M  V30 8126 C 759.747 -3.38795 0.0179098 0
M  V30 8127 C 758.306 -3.74455 -0.382191 0
M  V30 8128 C 757.453 -2.74338 0.404207 0
M  V30 8129 H 760.404 -1.43225 0.683547 0
M  V30 8130 H 760.425 -3.72321 -0.78468 0
M  V30 8131 H 759.937 -3.73906 1.04 0
M  V30 8132 H 758.038 -3.44944 -1.4087 0
M  V30 8133 H 758.151 -4.79025 -0.084862 0
M  V30 8134 H 756.515 -2.54305 -0.141829 0
M  V30 8135 H 757.298 -3.12293 1.42577 0
M  V30 8136 N 759.743 -0.201713 -1.56304 0
M  V30 8137 C 760.69 0.716499 -2.19397 0
M  V30 8138 C 761.66 1.20494 -1.14326 0
M  V30 8139 O 762.845 1.26763 -1.42604 0
M  V30 8140 C 759.985 1.92762 -2.86246 0
M  V30 8141 C 759.098 1.47993 -4.0586 0
M  V30 8142 C 758.233 2.64706 -4.60547 0
M  V30 8143 C 757.272 2.16576 -5.72504 0
M  V30 8144 N 756.409 3.26491 -6.21569 0
M  V30 8145 H 761.249 0.171724 -2.97505 0
M  V30 8146 H 758.786 0.073016 -1.46919 0
M  V30 8147 H 760.744 2.6384 -3.23178 0
M  V30 8148 H 759.374 2.44559 -2.10691 0
M  V30 8149 H 758.426 0.66477 -3.74546 0
M  V30 8150 H 759.738 1.08686 -4.86815 0
M  V30 8151 H 758.892 3.43898 -4.99819 0
M  V30 8152 H 757.631 3.0729 -3.78713 0
M  V30 8153 H 756.636 1.3584 -5.32755 0
M  V30 8154 H 757.861 1.75015 -6.56161 0
M  V30 8155 H 755.807 3.68594 -5.42655 0
M  V30 8156 H 755.724 2.91374 -6.97594 0
M  V30 8157 H 756.992 4.05877 -6.65495 0
M  V30 8158 N 761.222 1.57436 0.0718424 0
M  V30 8159 C 762.47 1.86878 0.769484 0
M  V30 8160 C 762.791 0.7937 1.78116 0
M  V30 8161 O 762.061 -0.177642 1.95093 0
M  V30 8162 H 760.641 0.689593 0.287177 0
M  V30 8163 H 763.303 1.94841 0.0479427 0
M  V30 8164 H 762.399 2.84387 1.28572 0
M  V30 8165 N 762.7 -0.34323 1.53817 0
M  V30 8166 C 763.663 -1.40444 1.8113 0
M  V30 8167 C 764.663 -1.45604 0.682366 0
M  V30 8168 O 765.853 -1.45974 0.950649 0
M  V30 8169 C 762.985 -2.79369 1.95361 0
M  V30 8170 H 764.178 -1.17489 2.75928 0
M  V30 8171 H 761.731 -0.577636 1.45234 0
M  V30 8172 H 762.466 -3.07607 1.02707 0
M  V30 8173 H 762.251 -2.7702 2.77493 0
M  V30 8174 H 763.741 -3.56178 2.18008 0
M  V30 8175 N 764.178 -1.45556 -0.604258 0
M  V30 8176 C 765.425 -1.49746 -1.36317 0
M  V30 8177 C 765.753 -0.140516 -1.93992 0
M  V30 8178 O 765.008 0.861244 -1.7573 0
M  V30 8179 C 765.307 -2.52697 -2.52743 0
M  V30 8180 C 764.973 -3.97315 -2.13195 0
M  V30 8181 C 763.635 -4.36692 -2.02123 0
M  V30 8182 C 765.987 -4.88249 -1.8238 0
M  V30 8183 C 763.315 -5.64895 -1.58463 0
M  V30 8184 C 765.667 -6.16867 -1.40205 0
M  V30 8185 C 764.331 -6.55172 -1.27694 0
M  V30 8186 H 763.601 -0.54796 -0.49882 0
M  V30 8187 H 766.248 -1.7892 -0.682643 0
M  V30 8188 H 764.553 -2.17105 -3.26148 0
M  V30 8189 H 766.25 -2.53176 -3.10971 0
M  V30 8190 H 762.84 -3.66176 -2.22739 0
M  V30 8191 H 767.024 -4.58561 -1.89829 0
M  V30 8192 H 762.28 -5.93365 -1.47402 0
M  V30 8193 H 766.454 -6.86771 -1.15408 0
M  V30 8194 H 764.081 -7.54411 -0.936375 0
M  V30 8195 N 765.656 0.84705 -1.32902 0
M  V30 8196 C 766.586 1.97166 -1.25091 0
M  V30 8197 C 767.567 1.69578 -0.133161 0
M  V30 8198 O 768.752 1.91519 -0.321591 0
M  V30 8199 C 765.882 3.33157 -0.981006 0
M  V30 8200 C 764.836 3.75119 -2.06082 0
M  V30 8201 C 764.162 5.08826 -1.64318 0
M  V30 8202 C 765.462 3.89774 -3.47669 0
M  V30 8203 H 767.156 2.03958 -2.19184 0
M  V30 8204 H 764.702 0.979907 -1.05517 0
M  V30 8205 H 766.655 4.11393 -0.912891 0
M  V30 8206 H 765.379 3.266 -0.00445559 0
M  V30 8207 H 764.038 2.9914 -2.11921 0
M  V30 8208 H 763.686 4.98732 -0.653876 0
M  V30 8209 H 763.386 5.37873 -2.36572 0
M  V30 8210 H 764.91 5.89546 -1.58958 0
M  V30 8211 H 766.324 4.58343 -3.44376 0
M  V30 8212 H 764.721 4.30248 -4.18338 0
M  V30 8213 H 765.791 2.92463 -3.86773 0
M  V30 8214 N 767.134 1.16236 1.06428 0
M  V30 8215 C 768.359 0.967688 1.83441 0
M  V30 8216 C 768.784 -0.479167 1.81894 0
M  V30 8217 O 768.142 -1.34224 1.21875 0
M  V30 8218 C 768.19 1.49806 3.2801 0
M  V30 8219 O 767.294 0.703481 4.06356 0
M  V30 8220 H 766.635 0.344468 0.56766 0
M  V30 8221 H 769.165 1.54442 1.34197 0
M  V30 8222 H 769.175 1.51495 3.78831 0
M  V30 8223 H 767.85 2.55133 3.2845 0
M  V30 8224 H 766.427 0.756986 3.65136 0
M  V30 8225 N 768.612 -1.24939 0.960631 0
M  V30 8226 C 769.56 -2.27659 0.47686 0
M  V30 8227 C 770.554 -1.63148 -0.455961 0
M  V30 8228 O 771.76 -1.76911 -0.332029 0
M  V30 8229 H 768.135 -0.739651 0.135723 0
M  V30 8230 H 770.106 -2.65844 1.35534 0
M  V30 8231 C 768.855 -3.46976 -0.224191 0
M  V30 8232 H 768.178 -3.96854 0.484471 0
M  V30 8233 H 769.618 -4.20717 -0.526615 0
M  V30 8234 C 768.077 -3.04159 -1.44876 0
M  V30 8235 O 768.607 -3.10697 -2.54618 0
M  V30 8236 N 766.813 -2.59284 -1.31226 0
M  V30 8237 H 766.36 -2.54164 -0.419361 0
M  V30 8238 H 766.318 -2.31 -2.13275 0
M  V30 8239 N 770.09 -0.729906 -1.39679 0
M  V30 8240 C 771.367 -0.202149 -1.94553 0
M  V30 8241 C 771.747 1.29507 -1.66707 0
M  V30 8242 O 771.095 2.05819 -0.992517 0
M  V30 8243 C 771.305 -0.530279 -3.44948 0
M  V30 8244 C 772.653 -0.476808 -4.21914 0
M  V30 8245 O 773.677 -0.467171 -3.53123 0
M  V30 8246 O 772.536 -0.466869 -5.44502 0
M  V30 8247 H 769.63 -0.0351644 -0.826252 0
M  V30 8248 H 772.176 -0.808417 -1.49207 0
M  V30 8249 H 770.948 -1.56526 -3.5863 0
M  V30 8250 H 770.571 0.10522 -3.97461 0
M  V30 8251 N 771.568 1.50203 -0.477153 0
M  V30 8252 C 772.531 2.27194 0.302599 0
M  V30 8253 C 773.531 1.32221 0.915112 0
M  V30 8254 O 774.721 1.55593 0.783348 0
M  V30 8255 C 771.853 3.0938 1.43167 0
M  V30 8256 H 773.046 2.97575 -0.372678 0
M  V30 8257 H 770.599 1.54578 -0.231392 0
M  V30 8258 H 771.334 2.43509 2.14182 0
M  V30 8259 H 771.119 3.79181 0.998197 0
M  V30 8260 H 772.609 3.67592 1.98157 0
M  V30 8261 N 773.046 0.209999 1.56195 0
M  V30 8262 C 774.009 -0.691232 2.18528 0
M  V30 8263 C 775.009 -1.13013 1.14388 0
M  V30 8264 O 776.199 -1.04081 1.39688 0
M  V30 8265 C 773.331 -1.94551 2.79934 0
M  V30 8266 H 774.524 -0.147953 2.99535 0
M  V30 8267 H 772.077 -0.0396243 1.5625 0
M  V30 8268 H 772.812 -2.53094 2.02766 0
M  V30 8269 H 772.597 -1.63938 3.56184 0
M  V30 8270 H 774.087 -2.58785 3.2775 0
M  V30 8271 N 774.524 -1.57472 -0.0634922 0
M  V30 8272 C 775.754 -1.91608 -0.772645 0
M  V30 8273 C 776.162 -0.805019 -1.71219 0
M  V30 8274 O 775.505 0.229941 -1.82255 0
M  V30 8275 C 775.567 -3.21281 -1.61304 0
M  V30 8276 C 775.231 -4.49177 -0.841973 0
M  V30 8277 C 776.228 -5.19661 -0.157494 0
M  V30 8278 C 773.913 -4.9578 -0.80669 0
M  V30 8279 C 775.907 -6.35006 0.551948 0
M  V30 8280 C 773.594 -6.11028 -0.0934812 0
M  V30 8281 C 774.592 -6.80493 0.58463 0
M  V30 8282 O 774.28 -7.93542 1.28633 0
M  V30 8283 H 774.012 -0.637685 -0.224352 0
M  V30 8284 H 776.566 -2.05369 -0.0355279 0
M  V30 8285 H 774.796 -3.03752 -2.39315 0
M  V30 8286 H 776.485 -3.41003 -2.20162 0
M  V30 8287 H 777.251 -4.84681 -0.176006 0
M  V30 8288 H 773.13 -4.41579 -1.32397 0
M  V30 8289 H 776.674 -6.89161 1.0818 0
M  V30 8290 H 772.571 -6.45459 -0.0729258 0
M  V30 8291 H 773.339 -8.09708 1.19646 0
M  V30 8292 N 776.003 0.335068 -1.53997 0
M  V30 8293 C 777.231 1.09418 -1.756 0
M  V30 8294 C 777.646 1.82083 -0.499138 0
M  V30 8295 O 777.003 1.74646 0.529631 0
M  V30 8296 C 777.054 2.10115 -2.94166 0
M  V30 8297 O 776.775 1.40404 -4.14992 0
M  V30 8298 C 778.276 2.98336 -3.27888 0
M  V30 8299 H 775.496 0.32595 -0.586513 0
M  V30 8300 H 778.04 0.384693 -2.00849 0
M  V30 8301 H 776.195 2.76616 -2.71224 0
M  V30 8302 H 776.609 2.07743 -4.81605 0
M  V30 8303 H 778.083 3.6491 -4.1418 0
M  V30 8304 H 778.56 3.64814 -2.44556 0
M  V30 8305 H 779.166 2.37412 -3.52868 0
M  V30 8306 N 777.481 1.45874 0.596531 0
M  V30 8307 C 778.711 1.5379 1.37958 0
M  V30 8308 C 779.119 0.173086 1.88407 0
M  V30 8309 O 778.462 -0.837498 1.63498 0
M  V30 8310 C 778.524 2.47044 2.61169 0
M  V30 8311 C 778.188 3.93565 2.32283 0
M  V30 8312 C 779.185 4.83162 1.91965 0
M  V30 8313 C 776.87 4.38579 2.44854 0
M  V30 8314 C 778.864 6.15782 1.64593 0
M  V30 8315 C 776.551 5.71238 2.17095 0
M  V30 8316 C 777.549 6.59659 1.77028 0
M  V30 8317 O 777.237 7.89857 1.49601 0
M  V30 8318 H 776.969 0.523 0.428307 0
M  V30 8319 H 779.523 1.91855 0.733529 0
M  V30 8320 H 777.753 2.0397 3.28532 0
M  V30 8321 H 779.442 2.4552 3.23226 0
M  V30 8322 H 780.208 4.49646 1.8178 0
M  V30 8323 H 776.087 3.6999 2.75006 0
M  V30 8324 H 779.631 6.84757 1.33245 0
M  V30 8325 H 775.528 6.04306 2.26901 0
M  V30 8326 H 776.296 8.01991 1.63561 0
M  V30 8327 N 778.959 -0.83999 1.33349 0
M  V30 8328 C 780.206 -1.59517 1.24742 0
M  V30 8329 C 780.534 -1.93598 -0.187077 0
M  V30 8330 O 779.789 -1.58782 -1.14398 0
M  V30 8331 C 780.088 -2.91571 2.06691 0
M  V30 8332 C 779.754 -2.76856 3.55895 0
M  V30 8333 C 778.416 -2.72551 3.96572 0
M  V30 8334 C 780.768 -2.61741 4.50712 0
M  V30 8335 C 778.096 -2.51028 5.30285 0
M  V30 8336 C 780.448 -2.41752 5.84584 0
M  V30 8337 C 779.112 -2.35848 6.24445 0
M  V30 8338 H 778.382 -0.583714 0.456463 0
M  V30 8339 H 781.029 -0.973261 1.64924 0
M  V30 8340 H 779.334 -3.57961 1.59284 0
M  V30 8341 H 781.031 -3.49053 1.9739 0
M  V30 8342 H 777.621 -2.81039 3.23597 0
M  V30 8343 H 781.805 -2.64102 4.20195 0
M  V30 8344 H 777.061 -2.44903 5.60208 0
M  V30 8345 H 781.235 -2.2904 6.57658 0
M  V30 8346 H 778.862 -2.18931 7.27993 0
M  V30 8347 N 780.437 -1.16799 -1.0581 0
M  V30 8348 C 781.667 -0.975454 -1.82122 0
M  V30 8349 C 782.075 0.479584 -1.83021 0
M  V30 8350 O 781.418 1.34471 -1.25153 0
M  V30 8351 C 781.48 -1.43209 -3.29744 0
M  V30 8352 C 781.144 -2.908 -3.5254 0
M  V30 8353 C 782.141 -3.88775 -3.45181 0
M  V30 8354 C 779.826 -3.28832 -3.79703 0
M  V30 8355 C 781.82 -5.22782 -3.64661 0
M  V30 8356 C 779.507 -4.63007 -3.98832 0
M  V30 8357 C 780.505 -5.59791 -3.91309 0
M  V30 8358 O 780.193 -6.9154 -4.09911 0
M  V30 8359 H 779.925 -0.345655 -0.580947 0
M  V30 8360 H 782.479 -1.55355 -1.34365 0
M  V30 8361 H 780.709 -0.797504 -3.78387 0
M  V30 8362 H 782.398 -1.2062 -3.87564 0
M  V30 8363 H 783.164 -3.60738 -3.2418 0
M  V30 8364 H 779.043 -2.54073 -3.84666 0
M  V30 8365 H 782.587 -5.98312 -3.58705 0
M  V30 8366 H 778.484 -4.90752 -4.19324 0
M  V30 8367 H 779.252 -6.98188 -4.27172 0
M  V30 8368 N 781.915 1.24427 -0.967243 0
M  V30 8369 C 782.862 2.25398 -0.496419 0
M  V30 8370 C 783.832 1.59667 0.457781 0
M  V30 8371 O 785.017 1.87213 0.368246 0
M  V30 8372 C 782.157 3.44474 0.207693 0
M  V30 8373 C 781.27 4.24804 -0.785221 0
M  V30 8374 C 780.405 5.31169 -0.0572631 0
M  V30 8375 C 779.444 6.03195 -1.04027 0
M  V30 8376 N 778.581 7.01265 -0.34235 0
M  V30 8377 H 783.421 2.65039 -1.36229 0
M  V30 8378 H 780.958 1.30288 -0.682902 0
M  V30 8379 H 782.916 4.12376 0.632612 0
M  V30 8380 H 781.546 3.05672 1.03752 0
M  V30 8381 H 780.598 3.56445 -1.32858 0
M  V30 8382 H 781.91 4.74599 -1.53483 0
M  V30 8383 H 781.064 6.05205 0.425674 0
M  V30 8384 H 779.803 4.8228 0.725047 0
M  V30 8385 H 778.808 5.27964 -1.53409 0
M  V30 8386 H 780.033 6.54173 -1.82302 0
M  V30 8387 H 777.979 6.54648 0.420993 0
M  V30 8388 H 777.896 7.48939 -1.03084 0
M  V30 8389 H 779.164 7.7941 0.118634 0
M  V30 8390 N 783.393 0.737304 1.3929 0
M  V30 8391 C 784.641 0.285691 2.00071 0
M  V30 8392 C 784.962 -1.13169 1.58801 0
M  V30 8393 O 784.232 -1.77104 0.837308 0
M  V30 8394 H 782.812 0.102638 0.739915 0
M  V30 8395 H 785.474 0.947775 1.70303 0
M  V30 8396 H 784.57 0.335906 3.10287 0
M  V30 8397 N 784.871 -1.49948 0.485112 0
M  V30 8398 C 786.099 -2.06806 -0.0622824 0
M  V30 8399 C 786.514 -1.34736 -1.32256 0
M  V30 8400 O 785.871 -0.420836 -1.77582 0
M  V30 8401 C 785.922 -3.59934 -0.336096 0
M  V30 8402 O 785.643 -4.29289 0.874203 0
M  V30 8403 C 787.144 -4.33459 -0.928903 0
M  V30 8404 H 784.364 -0.670867 0.0133472 0
M  V30 8405 H 786.908 -1.92937 0.677917 0
M  V30 8406 H 785.063 -3.7356 -1.02625 0
M  V30 8407 H 785.477 -5.20735 0.627332 0
M  V30 8408 H 786.951 -5.41527 -1.07017 0
M  V30 8409 H 787.428 -3.94881 -1.92265 0
M  V30 8410 H 788.034 -4.24399 -0.276705 0
M  V30 8411 N 786.349 -0.21828 -1.56081 0
M  V30 8412 C 787.296 0.693189 -2.20144 0
M  V30 8413 C 788.266 1.19274 -1.15598 0
M  V30 8414 O 789.451 1.25243 -1.4394 0
M  V30 8415 C 786.591 1.89715 -2.88275 0
M  V30 8416 C 785.704 1.4368 -4.07407 0
M  V30 8417 C 784.839 2.59807 -4.63329 0
M  V30 8418 C 783.878 2.10492 -5.74769 0
M  V30 8419 N 783.015 3.1988 -6.24997 0
M  V30 8420 H 787.855 0.14016 -2.9767 0
M  V30 8421 H 785.392 0.0574292 -1.46988 0
M  V30 8422 H 787.35 2.60398 -3.25958 0
M  V30 8423 H 785.98 2.42311 -2.13273 0
M  V30 8424 H 785.032 0.625007 -3.7523 0
M  V30 8425 H 786.344 1.03517 -4.8794 0
M  V30 8426 H 785.498 3.38577 -5.03438 0
M  V30 8427 H 784.237 3.03256 -3.81951 0
M  V30 8428 H 783.242 1.30182 -5.34165 0
M  V30 8429 H 784.467 1.68045 -6.5798 0
M  V30 8430 H 782.413 3.62817 -5.46534 0
M  V30 8431 H 782.33 2.83958 -7.00645 0
M  V30 8432 H 783.598 3.98796 -6.69763 0
M  V30 8433 N 787.827 1.57504 0.0551401 0
M  V30 8434 C 789.057 1.92015 0.762472 0
M  V30 8435 C 789.465 0.814088 1.7079 0
M  V30 8436 O 788.808 -0.220273 1.82375 0
M  V30 8437 C 788.87 3.22132 1.59598 0
M  V30 8438 C 788.534 4.49617 0.818141 0
M  V30 8439 C 789.531 5.19738 0.129933 0
M  V30 8440 C 787.216 4.96201 0.780387 0
M  V30 8441 C 789.21 6.34704 -0.585616 0
M  V30 8442 C 786.897 6.11069 0.0610756 0
M  V30 8443 C 787.895 6.80174 -0.62071 0
M  V30 8444 O 787.583 7.92849 -1.3284 0
M  V30 8445 H 787.315 0.638866 0.220967 0
M  V30 8446 H 789.869 2.05385 0.0246362 0
M  V30 8447 H 788.099 3.05016 2.37701 0
M  V30 8448 H 789.788 3.42166 2.18351 0
M  V30 8449 H 790.554 4.84767 0.150299 0
M  V30 8450 H 786.433 4.42275 1.30054 0
M  V30 8451 H 789.977 6.88578 -1.11833 0
M  V30 8452 H 785.874 6.45488 0.0386945 0
M  V30 8453 H 786.642 8.09062 -1.23938 0
M  V30 8454 N 789.305 -0.326896 1.54172 0
M  V30 8455 C 790.551 -1.06304 1.7341 0
M  V30 8456 C 790.906 -1.85791 0.499935 0
M  V30 8457 O 790.199 -1.84753 -0.507625 0
M  V30 8458 C 790.393 -2.0208 2.94785 0
M  V30 8459 C 790.222 -1.32009 4.29888 0
M  V30 8460 C 788.992 -1.05798 4.941 0
M  V30 8461 C 791.19 -0.737721 5.08982 0
M  V30 8462 N 789.172 -0.324836 6.1304 0
M  V30 8463 C 790.543 -0.136006 6.19851 0
M  V30 8464 C 792.598 -0.640206 4.93767 0
M  V30 8465 C 791.301 0.553757 7.17165 0
M  V30 8466 C 793.327 0.0358492 5.91389 0
M  V30 8467 C 792.689 0.626522 7.01608 0
M  V30 8468 H 788.788 -0.372808 0.687414 0
M  V30 8469 H 791.372 -0.34462 1.91626 0
M  V30 8470 H 789.543 -2.71197 2.78041 0
M  V30 8471 H 791.275 -2.68655 3.02666 0
M  V30 8472 H 788.03 -1.34945 4.53968 0
M  V30 8473 H 788.454 0.0274982 6.76994 0
M  V30 8474 H 793.096 -1.0826 4.08705 0
M  V30 8475 H 790.814 1.00799 8.01789 0
M  V30 8476 H 794.4 0.110895 5.81694 0
M  V30 8477 H 793.28 1.14135 7.7585 0
M  V30 8478 N 790.784 -1.46188 -0.588786 0
M  V30 8479 C 791.731 -1.56292 -1.69828 0
M  V30 8480 C 792.701 -0.407581 -1.61022 0
M  V30 8481 O 793.886 -0.623532 -1.80324 0
M  V30 8482 C 791.026 -1.55341 -3.08161 0
M  V30 8483 C 790.139 -2.81564 -3.27636 0
M  V30 8484 C 789.274 -2.72158 -4.56183 0
M  V30 8485 C 788.313 -3.93348 -4.68981 0
M  V30 8486 N 787.45 -3.82365 -5.88848 0
M  V30 8487 H 792.29 -2.51066 -1.6053 0
M  V30 8488 H 789.827 -1.24562 -0.782474 0
M  V30 8489 H 791.785 -1.52776 -3.88221 0
M  V30 8490 H 790.415 -0.641034 -3.16371 0
M  V30 8491 H 789.467 -2.94136 -2.41223 0
M  V30 8492 H 790.779 -3.714 -3.32962 0
M  V30 8493 H 789.933 -2.67665 -5.44464 0
M  V30 8494 H 788.672 -1.79953 -4.53286 0
M  V30 8495 H 787.677 -3.98181 -3.7912 0
M  V30 8496 H 788.902 -4.86643 -4.73662 0
M  V30 8497 H 786.848 -2.92942 -5.86959 0
M  V30 8498 H 786.765 -4.65851 -5.95415 0
M  V30 8499 H 788.033 -3.81836 -6.79575 0
M  V30 8500 N 792.262 0.832906 -1.33792 0
M  V30 8501 C 793.509 1.58853 -1.25586 0
M  V30 8502 C 793.837 1.93695 0.176807 0
M  V30 8503 O 793.092 1.59386 1.13554 0
M  V30 8504 C 793.391 2.9047 -2.08235 0
M  V30 8505 C 793.057 2.74965 -3.57358 0
M  V30 8506 C 791.719 2.70444 -3.98012 0
M  V30 8507 C 794.071 2.59347 -4.52093 0
M  V30 8508 C 791.399 2.48212 -5.31608 0
M  V30 8509 C 793.751 2.38649 -5.85858 0
M  V30 8510 C 792.415 2.32533 -6.25687 0
M  V30 8511 H 791.685 0.581285 -0.459553 0
M  V30 8512 H 794.332 0.964501 -1.65438 0
M  V30 8513 H 792.637 3.57111 -1.6118 0
M  V30 8514 H 794.334 3.48001 -1.99239 0
M  V30 8515 H 790.924 2.79319 -3.25083 0
M  V30 8516 H 795.108 2.6187 -4.2159 0
M  V30 8517 H 790.364 2.41929 -5.61498 0
M  V30 8518 H 794.538 2.25549 -6.58863 0
M  V30 8519 H 792.165 2.15067 -7.29143 0
M  V30 8520 N 793.74 1.17359 1.05189 0
M  V30 8521 C 795.017 0.871914 1.75091 0
M  V30 8522 C 795.397 -0.627821 2.01548 0
M  V30 8523 O 794.745 -1.5791 1.65156 0
M  V30 8524 C 794.955 1.70687 3.04413 0
M  V30 8525 C 796.303 1.92684 3.78362 0
M  V30 8526 O 797.327 1.67645 3.14282 0
M  V30 8527 O 796.186 2.34765 4.93505 0
M  V30 8528 H 793.28 0.322831 0.761386 0
M  V30 8529 H 795.826 1.28054 1.11357 0
M  V30 8530 H 794.598 2.72405 2.80911 0
M  V30 8531 H 794.221 1.29602 3.75884 0
M  V30 8532 N 795.218 -1.23913 0.973828 0
M  V30 8533 C 796.166 -2.27141 0.50098 0
M  V30 8534 C 797.16 -1.63623 -0.438631 0
M  V30 8535 O 798.366 -1.77253 -0.313247 0
M  V30 8536 H 794.741 -0.73817 0.14356 0
M  V30 8537 H 796.712 -2.64392 1.38346 0
M  V30 8538 C 795.461 -3.47195 -0.187377 0
M  V30 8539 H 794.784 -3.96318 0.526535 0
M  V30 8540 H 796.224 -4.21252 -0.481962 0
M  V30 8541 C 794.683 -3.05678 -1.41642 0
M  V30 8542 O 795.213 -3.1338 -2.51309 0
M  V30 8543 N 793.419 -2.60661 -1.28469 0
M  V30 8544 H 792.966 -2.54594 -0.39238 0
M  V30 8545 H 792.924 -2.33249 -2.10813 0
M  V30 8546 N 796.696 -0.74468 -1.38897 0
M  V30 8547 C 797.606 -0.112892 -2.34328 0
M  V30 8548 C 798.622 0.71087 -1.58816 0
M  V30 8549 O 799.798 0.637092 -1.91058 0
M  V30 8550 C 796.863 0.776417 -3.37894 0
M  V30 8551 C 795.924 -0.0606999 -4.29257 0
M  V30 8552 C 795.157 0.786258 -5.27877 0
M  V30 8553 O 795.38 2.02463 -5.33259 0
M  V30 8554 O 794.314 0.209781 -6.01534 0
M  V30 8555 H 798.14 -0.900801 -2.90033 0
M  V30 8556 H 795.725 -0.505462 -1.4059 0
M  V30 8557 H 797.607 1.28496 -4.01331 0
M  V30 8558 H 796.282 1.54297 -2.84559 0
M  V30 8559 H 795.189 -0.614984 -3.69011 0
M  V30 8560 H 796.522 -0.789702 -4.85824 0
M  V30 8561 N 798.174 1.49689 -0.493057 0
M  V30 8562 C 799.59 1.58907 -0.148526 0
M  V30 8563 C 799.79 1.4991 1.34645 0
M  V30 8564 O 798.846 1.36893 2.12171 0
M  V30 8565 C 800.159 2.91996 -0.718265 0
M  V30 8566 C 801.707 3.05443 -0.683658 0
M  V30 8567 C 802.182 4.41138 -1.23132 0
M  V30 8568 N 803.673 4.47608 -1.19167 0
M  V30 8569 C 804.408 5.51038 -1.5857 0
M  V30 8570 N 803.904 6.61612 -2.05528 0
M  V30 8571 N 805.697 5.41706 -1.50036 0
M  V30 8572 H 797.848 1.5378 -1.46511 0
M  V30 8573 H 800.111 0.727996 -0.607228 0
M  V30 8574 H 799.817 3.04123 -1.7664 0
M  V30 8575 H 799.691 3.76798 -0.17419 0
M  V30 8576 H 802.078 2.92949 0.355626 0
M  V30 8577 H 802.159 2.22344 -1.26479 0
M  V30 8578 H 801.803 4.54382 -2.26935 0
M  V30 8579 H 801.733 5.22864 -0.626201 0
M  V30 8580 H 804.224 3.68274 -0.847524 0
M  V30 8581 H 804.537 7.36622 -2.33685 0
M  V30 8582 H 802.882 6.62674 -2.09497 0
M  V30 8583 H 806.073 4.54212 -1.13176 0
M  V30 8584 H 806.246 6.22188 -1.81068 0
M  V30 8585 N 799.652 0.226554 1.55963 0
M  V30 8586 C 800.582 -0.676079 2.23498 0
M  V30 8587 C 801.563 -1.19718 1.20837 0
M  V30 8588 O 802.748 -1.24027 1.49436 0
M  V30 8589 C 799.878 -1.88217 2.91876 0
M  V30 8590 C 798.832 -1.4947 4.01052 0
M  V30 8591 C 798.158 -2.77997 4.56751 0
M  V30 8592 C 799.458 -0.680951 5.17842 0
M  V30 8593 H 801.152 -0.112989 2.99187 0
M  V30 8594 H 798.698 -0.0529046 1.43903 0
M  V30 8595 H 800.651 -2.51911 3.37815 0
M  V30 8596 H 799.375 -2.47031 2.13643 0
M  V30 8597 H 798.034 -0.881199 3.55852 0
M  V30 8598 H 797.682 -3.34966 3.75243 0
M  V30 8599 H 797.382 -2.52803 5.30438 0
M  V30 8600 H 798.906 -3.42625 5.05411 0
M  V30 8601 H 800.32 -1.22171 5.60131 0
M  V30 8602 H 798.717 -0.525898 5.97791 0
M  V30 8603 H 799.787 0.311346 4.83899 0
M  V30 8604 N 801.13 -1.57531 -0.0467866 0
M  V30 8605 C 802.546 -1.54451 -0.402107 0
M  V30 8606 C 802.746 -0.950275 -1.77685 0
M  V30 8607 O 801.802 -0.563602 -2.4613 0
M  V30 8608 C 803.115 -2.9899 -0.320212 0
M  V30 8609 C 804.663 -3.10452 -0.398588 0
M  V30 8610 C 805.138 -4.56689 -0.346335 0
M  V30 8611 N 806.629 -4.6142 -0.405666 0
M  V30 8612 C 807.364 -5.72087 -0.387845 0
M  V30 8613 N 806.86 -6.92045 -0.32336 0
M  V30 8614 N 808.653 -5.60404 -0.436263 0
M  V30 8615 H 800.804 -1.94515 0.853087 0
M  V30 8616 H 803.067 -0.891397 0.322669 0
M  V30 8617 H 802.773 -3.46124 0.623794 0
M  V30 8618 H 802.647 -3.60164 -1.1208 0
M  V30 8619 H 805.034 -2.63276 -1.33302 0
M  V30 8620 H 805.115 -2.52142 0.431026 0
M  V30 8621 H 804.759 -5.04527 0.584356 0
M  V30 8622 H 804.689 -5.12889 -1.19382 0
M  V30 8623 H 807.18 -3.75105 -0.458737 0
M  V30 8624 H 807.493 -7.7216 -0.314375 0
M  V30 8625 H 805.838 -6.94396 -0.28967 0
M  V30 8626 H 809.029 -4.65586 -0.48451 0
M  V30 8627 H 809.202 -6.46645 -0.418907 0
M  V30 8628 N 802.608 0.318715 -1.54344 0
M  V30 8629 C 803.541 1.41644 -1.7892 0
M  V30 8630 C 804.519 1.495 -0.639421 0
M  V30 8631 O 805.703 1.66835 -0.877404 0
M  V30 8632 C 802.83 2.79701 -1.9101 0
M  V30 8633 C 801.876 2.89354 -3.13331 0
M  V30 8634 S 802.709 2.53264 -4.71824 0
M  V30 8635 C 803.865 3.93384 -4.86826 0
M  V30 8636 H 804.098 1.20585 -2.71747 0
M  V30 8637 H 801.631 0.515828 -1.45529 0
M  V30 8638 H 803.589 3.59227 -1.98661 0
M  V30 8639 H 802.25 2.9804 -0.991516 0
M  V30 8640 H 801.443 3.90574 -3.1854 0
M  V30 8641 H 801.045 2.17805 -3.04035 0
M  V30 8642 H 803.337 4.88191 -4.69761 0
M  V30 8643 H 804.28 3.93156 -5.88926 0
M  V30 8644 H 804.688 3.82564 -4.15097 0
M  V30 8645 N 804.086 1.46499 0.581025 0
M  V30 8646 C 804.996 1.59778 1.71779 0
M  V30 8647 C 806.012 0.481223 1.67213 0
M  V30 8648 O 807.188 0.74557 1.87091 0
M  V30 8649 C 804.253 1.58626 3.08283 0
M  V30 8650 C 803.314 2.81527 3.241 0
M  V30 8651 C 802.547 2.80421 4.54092 0
M  V30 8652 O 802.77 1.89262 5.38085 0
M  V30 8653 O 801.704 3.71984 4.73193 0
M  V30 8654 H 805.53 2.55918 1.63523 0
M  V30 8655 H 803.115 1.29311 0.748267 0
M  V30 8656 H 804.997 1.60686 3.89561 0
M  V30 8657 H 803.672 0.656467 3.16973 0
M  V30 8658 H 802.579 2.85021 2.42309 0
M  V30 8659 H 803.912 3.73721 3.20302 0
M  V30 8660 N 805.565 -0.825799 1.34232 0
M  V30 8661 C 806.976 -1.39835 1.23706 0
M  V30 8662 C 807.327 -1.95709 -0.138649 0
M  V30 8663 O 806.452 -1.89833 -1.03886 0
M  V30 8664 C 807.047 -2.54203 2.23978 0
M  V30 8665 C 805.606 -3.07374 2.17251 0
M  V30 8666 C 804.753 -1.80232 2.10741 0
M  V30 8667 H 807.704 -0.630442 1.4564 0
M  V30 8668 H 807.725 -3.32214 1.8551 0
M  V30 8669 H 807.237 -2.13506 3.24094 0
M  V30 8670 H 805.338 -3.52583 1.20483 0
M  V30 8671 H 805.451 -3.6666 3.08379 0
M  V30 8672 H 803.815 -2.01012 1.56417 0
M  V30 8673 H 804.598 -1.41713 3.12686 0
M  V30 8674 N 807.043 -1.17915 -1.04565 0
M  V30 8675 C 808.291 -0.969505 -1.77327 0
M  V30 8676 C 808.612 0.502569 -1.88412 0
M  V30 8677 O 807.882 1.36467 -1.40547 0
M  V30 8678 H 806.462 -0.355723 -0.656864 0
M  V30 8679 H 809.124 -1.48506 -1.26223 0
M  V30 8680 H 808.22 -1.40324 -2.78775 0
M  V30 8681 N 808.521 1.23394 -0.980386 0
M  V30 8682 C 809.751 1.9556 -0.666319 0
M  V30 8683 C 810.159 1.72786 0.770815 0
M  V30 8684 O 809.502 1.0162 1.53033 0
M  V30 8685 C 809.564 3.48643 -0.876825 0
M  V30 8686 C 809.228 3.95135 -2.29602 0
M  V30 8687 C 810.225 4.03806 -3.2747 0
M  V30 8688 C 807.91 4.28122 -2.62711 0
M  V30 8689 C 809.904 4.44818 -4.56526 0
M  V30 8690 C 807.591 4.68814 -3.9199 0
M  V30 8691 C 808.589 4.77129 -4.88709 0
M  V30 8692 O 808.277 5.16908 -6.15679 0
M  V30 8693 H 808.009 0.629422 -0.246585 0
M  V30 8694 H 810.563 1.57839 -1.31438 0
M  V30 8695 H 808.793 3.86319 -0.171587 0
M  V30 8696 H 810.482 4.0202 -0.55992 0
M  V30 8697 H 811.248 3.78526 -3.03222 0
M  V30 8698 H 807.127 4.20861 -1.8814 0
M  V30 8699 H 810.671 4.51223 -5.32018 0
M  V30 8700 H 806.568 4.93545 -4.16033 0
M  V30 8701 H 807.336 5.3502 -6.19432 0
M  V30 8702 N 809.999 0.752036 1.385 0
M  V30 8703 C 811.41 0.375385 1.82887 0
M  V30 8704 C 811.761 -1.09575 1.62751 0
M  V30 8705 O 810.886 -1.84685 1.12785 0
M  V30 8706 C 811.481 0.674563 3.32017 0
M  V30 8707 C 810.04 0.351208 3.74758 0
M  V30 8708 C 809.187 0.928531 2.61292 0
M  V30 8709 H 812.138 0.948313 1.27251 0
M  V30 8710 H 812.159 -0.0477781 3.8047 0
M  V30 8711 H 811.671 1.74533 3.46641 0
M  V30 8712 H 809.772 -0.713042 3.65714 0
M  V30 8713 H 809.885 0.845675 4.71577 0
M  V30 8714 H 808.249 0.354012 2.52228 0
M  V30 8715 H 809.032 2.0043 2.78716 0
M  V30 8716 N 811.477 -1.49425 0.500989 0
M  V30 8717 C 812.424 -2.29126 -0.277443 0
M  V30 8718 C 813.394 -1.35522 -0.960363 0
M  V30 8719 O 814.579 -1.64479 -0.967027 0
M  V30 8720 C 811.719 -3.18193 -1.33593 0
M  V30 8721 C 810.832 -4.26854 -0.664791 0
M  V30 8722 C 809.967 -5.03137 -1.70372 0
M  V30 8723 C 809.006 -6.03635 -1.01445 0
M  V30 8724 N 808.143 -6.73083 -1.99758 0
M  V30 8725 H 812.983 -2.95187 0.408458 0
M  V30 8726 H 810.52 -1.45546 0.213275 0
M  V30 8727 H 812.478 -3.68207 -1.96161 0
M  V30 8728 H 811.108 -2.54116 -1.9906 0
M  V30 8729 H 810.16 -3.80328 0.0741708 0
M  V30 8730 H 811.472 -4.9865 -0.122197 0
M  V30 8731 H 810.626 -5.5702 -2.40445 0
M  V30 8732 H 809.365 -4.31114 -2.28017 0
M  V30 8733 H 808.37 -5.48984 -0.299496 0
M  V30 8734 H 809.595 -6.77644 -0.444497 0
M  V30 8735 H 807.541 -6.03832 -2.56365 0
M  V30 8736 H 807.458 -7.40855 -1.50565 0
M  V30 8737 H 808.726 -7.3157 -2.69119 0
M  V30 8738 N 812.955 -0.234822 -1.55841 0
M  V30 8739 C 814.18 0.400741 -2.03492 0
M  V30 8740 C 814.605 1.51618 -1.11327 0
M  V30 8741 O 813.963 1.81002 -0.103922 0
M  V30 8742 C 814.011 0.897184 -3.49261 0
M  V30 8743 O 813.115 2.00764 -3.60233 0
M  V30 8744 H 812.456 0.0890023 -0.658008 0
M  V30 8745 H 814.986 -0.357345 -2.01455 0
M  V30 8746 H 814.996 1.20356 -3.89844 0
M  V30 8747 H 813.671 0.0808639 -4.15821 0
M  V30 8748 H 812.248 1.70689 -3.31541 0
M  V30 8749 N 814.433 1.57553 0.0384317 0
M  V30 8750 C 815.682 1.88022 0.730108 0
M  V30 8751 C 815.995 0.83209 1.77019 0
M  V30 8752 O 817.201 1.0257 2.51379 0
M  V30 8753 C 815.657 3.33637 1.3496 0
M  V30 8754 C 815.265 4.46659 0.346352 0
M  V30 8755 C 817.009 3.73266 2.02169 0
M  V30 8756 C 814.916 5.8333 0.973652 0
M  V30 8757 H 813.846 0.701496 0.276442 0
M  V30 8758 H 816.497 1.83493 -0.0158028 0
M  V30 8759 H 814.879 3.32882 2.1449 0
M  V30 8760 H 816.053 4.58868 -0.421558 0
M  V30 8761 H 814.368 4.15802 -0.223133 0
M  V30 8762 H 816.965 4.72689 2.49938 0
M  V30 8763 H 817.308 3.04776 2.8358 0
M  V30 8764 H 817.841 3.76156 1.29427 0
M  V30 8765 H 814.58 6.55197 0.199163 0
M  V30 8766 H 814.1 5.7486 1.71162 0
M  V30 8767 H 815.779 6.29757 1.48376 0
M  V30 8768 N 815.911 -0.310526 1.54511 0
M  V30 8769 C 816.841 -1.38757 1.878 0
M  V30 8770 C 817.822 -1.53353 0.735991 0
M  V30 8771 O 819.007 -1.67018 0.990887 0
M  V30 8772 C 816.137 -2.75327 2.11689 0
M  V30 8773 C 815.091 -2.75506 3.27537 0
M  V30 8774 C 814.417 -4.15275 3.36824 0
M  V30 8775 C 815.717 -2.38093 4.64875 0
M  V30 8776 H 817.411 -1.11146 2.78005 0
M  V30 8777 H 814.957 -0.533232 1.33763 0
M  V30 8778 H 816.91 -3.50752 2.33562 0
M  V30 8779 H 815.634 -3.04443 1.18245 0
M  V30 8780 H 814.293 -2.02538 3.05572 0
M  V30 8781 H 813.941 -4.41553 2.40915 0
M  V30 8782 H 813.641 -4.16299 4.14692 0
M  V30 8783 H 815.165 -4.92493 3.60947 0
M  V30 8784 H 816.579 -3.03232 4.86542 0
M  V30 8785 H 814.976 -2.50345 5.45387 0
M  V30 8786 H 816.046 -1.33227 4.66239 0
M  V30 8787 N 817.389 -1.46805 -0.573248 0
M  V30 8788 C 818.805 -1.31969 -0.897577 0
M  V30 8789 C 819.005 -0.298171 -1.99282 0
M  V30 8790 O 818.061 0.295953 -2.5076 0
M  V30 8791 C 819.374 -2.70859 -1.30598 0
M  V30 8792 C 820.922 -2.79022 -1.4183 0
M  V30 8793 C 821.397 -4.18516 -1.86033 0
M  V30 8794 N 822.888 -4.2098 -1.9321 0
M  V30 8795 C 823.623 -5.25814 -2.28707 0
M  V30 8796 N 823.119 -6.40968 -2.6293 0
M  V30 8797 N 824.912 -5.13184 -2.29343 0
M  V30 8798 H 817.063 -2.11869 0.150094 0
M  V30 8799 H 819.326 -0.947989 0.00447895 0
M  V30 8800 H 819.032 -3.46965 -0.575161 0
M  V30 8801 H 818.906 -3.01585 -2.26554 0
M  V30 8802 H 821.293 -2.03198 -2.13996 0
M  V30 8803 H 821.374 -2.51969 -0.441024 0
M  V30 8804 H 821.018 -4.94839 -1.14442 0
M  V30 8805 H 820.948 -4.42982 -2.84735 0
M  V30 8806 H 823.439 -3.37898 -1.69214 0
M  V30 8807 H 823.752 -7.16729 -2.88996 0
M  V30 8808 H 822.097 -6.44314 -2.60547 0
M  V30 8809 H 825.288 -4.22255 -2.02036 0
M  V30 8810 H 825.461 -5.94996 -2.56679 0
M  V30 8811 N 818.867 0.818669 -1.34668 0
M  V30 8812 C 820.144 1.56118 -1.17841 0
M  V30 8813 C 820.524 2.09646 0.24731 0
M  V30 8814 O 819.872 1.91329 1.24922 0
M  V30 8815 C 820.082 2.67922 -2.23649 0
M  V30 8816 C 821.43 3.36579 -2.58843 0
M  V30 8817 O 822.454 2.78182 -2.22471 0
M  V30 8818 O 821.313 4.42045 -3.21339 0
M  V30 8819 H 818.407 0.689216 -0.457067 0
M  V30 8820 H 820.953 0.859674 -1.46314 0
M  V30 8821 H 819.725 2.26153 -3.19328 0
M  V30 8822 H 819.348 3.45719 -1.96377 0
M  V30 8823 N 820.346 1.18468 1.03938 0
M  V30 8824 C 821.593 0.980833 1.77161 0
M  V30 8825 C 821.921 -0.489425 1.88242 0
M  V30 8826 O 821.176 -1.37961 1.388 0
M  V30 8827 C 821.475 1.58229 3.20466 0
M  V30 8828 C 821.141 3.07889 3.29416 0
M  V30 8829 C 819.803 3.48737 3.31566 0
M  V30 8830 C 822.155 4.03903 3.29411 0
M  V30 8831 C 819.483 4.84171 3.31355 0
M  V30 8832 C 821.835 5.39253 3.3074 0
M  V30 8833 C 820.499 5.79547 3.31182 0
M  V30 8834 H 819.769 0.358912 0.648277 0
M  V30 8835 H 822.416 1.47552 1.22069 0
M  V30 8836 H 820.721 1.00964 3.78568 0
M  V30 8837 H 822.418 1.39998 3.75768 0
M  V30 8838 H 819.008 2.75335 3.28464 0
M  V30 8839 H 823.192 3.73395 3.2694 0
M  V30 8840 H 818.448 5.14685 3.30015 0
M  V30 8841 H 822.622 6.13417 3.29686 0
M  V30 8842 H 820.249 6.84466 3.30772 0
M  V30 8843 N 821.824 -1.22873 0.986916 0
M  V30 8844 C 822.757 -2.23154 0.477245 0
M  V30 8845 C 823.735 -1.55981 -0.459206 0
M  V30 8846 O 824.919 -1.84503 -0.386141 0
M  V30 8847 C 822.046 -3.37289 -0.308838 0
M  V30 8848 C 821.092 -4.22637 0.572717 0
M  V30 8849 S 821.925 -4.95758 2.02446 0
M  V30 8850 C 823.081 -6.13338 1.2477 0
M  V30 8851 H 823.314 -2.6604 1.32702 0
M  V30 8852 H 820.847 -1.32455 0.793415 0
M  V30 8853 H 822.805 -4.03472 -0.756351 0
M  V30 8854 H 821.466 -2.92922 -1.13381 0
M  V30 8855 H 820.659 -5.0399 -0.0318024 0
M  V30 8856 H 820.261 -3.61555 0.956746 0
M  V30 8857 H 822.553 -6.7556 0.51231 0
M  V30 8858 H 823.496 -6.78189 2.03629 0
M  V30 8859 H 823.904 -5.59311 0.763622 0
M  V30 8860 N 823.302 -0.75937 -1.38099 0
M  V30 8861 C 824.55 -0.317485 -1.99591 0
M  V30 8862 C 824.871 1.10628 -1.60581 0
M  V30 8863 O 824.141 1.7575 -0.865378 0
M  V30 8864 H 822.721 -0.114397 -0.738189 0
M  V30 8865 H 825.383 -0.974749 -1.68774 0
M  V30 8866 H 824.479 -0.385227 -3.09713 0
M  V30 8867 N 824.78 1.49157 -0.508906 0
M  V30 8868 C 826.02 2.04376 0.0310623 0
M  V30 8869 C 826.384 1.37946 1.33547 0
M  V30 8870 O 827.585 1.83931 1.96017 0
M  V30 8871 C 825.856 3.56985 0.172191 0
M  V30 8872 S 827.415 4.33728 0.665267 0
M  V30 8873 H 824.233 0.710997 -0.00199266 0
M  V30 8874 H 826.835 1.83119 -0.684674 0
M  V30 8875 H 825.539 4.02874 -0.78234 0
M  V30 8876 H 825.07 3.82661 0.912933 0
M  V30 8877 H 827.085 4.56992 1.9332 0
M  V30 8878 N 826.258 0.243083 1.55714 0
M  V30 8879 C 827.19 -0.690766 2.18543 0
M  V30 8880 C 828.203 -1.14163 1.16064 0
M  V30 8881 O 829.392 -1.06906 1.42946 0
M  V30 8882 C 826.492 -1.95016 2.77168 0
M  V30 8883 C 825.665 -1.65137 4.05029 0
M  V30 8884 C 824.724 -2.75998 4.48009 0
M  V30 8885 O 823.75 -2.43547 5.14464 0
M  V30 8886 N 824.952 -4.05414 4.15476 0
M  V30 8887 H 827.717 -0.153203 2.99308 0
M  V30 8888 H 825.278 0.0628968 1.61778 0
M  V30 8889 H 827.27 -2.68414 3.0288 0
M  V30 8890 H 825.84 -2.39762 2.00582 0
M  V30 8891 H 825.06 -0.752768 3.86946 0
M  V30 8892 H 826.348 -1.42633 4.88399 0
M  V30 8893 H 825.746 -4.34613 3.62116 0
M  V30 8894 H 824.303 -4.75288 4.46032 0
M  V30 8895 N 827.736 -1.57571 -0.0300757 0
M  V30 8896 C 828.646 -2.09892 -1.04798 0
M  V30 8897 C 829.662 -1.03732 -1.39698 0
M  V30 8898 O 830.838 -1.35461 -1.49038 0
M  V30 8899 C 827.903 -2.56707 -2.33028 0
M  V30 8900 C 826.964 -3.77345 -2.04718 0
M  V30 8901 C 826.197 -4.21918 -3.26834 0
M  V30 8902 O 826.42 -3.66025 -4.37472 0
M  V30 8903 O 825.354 -5.14362 -3.12594 0
M  V30 8904 H 829.18 -2.97023 -0.633344 0
M  V30 8905 H 826.765 -1.47344 -0.246991 0
M  V30 8906 H 828.647 -2.87154 -3.08417 0
M  V30 8907 H 827.322 -1.72688 -2.73789 0
M  V30 8908 H 826.229 -3.51919 -1.26901 0
M  V30 8909 H 827.562 -4.62345 -1.68813 0
M  V30 8910 N 829.214 0.302327 -1.54673 0
M  V30 8911 C 830.164 1.37443 -1.81916 0
M  V30 8912 C 831.148 1.45999 -0.676251 0
M  V30 8913 O 832.34 1.50174 -0.93685 0
M  V30 8914 C 829.469 2.73966 -2.06876 0
M  V30 8915 C 828.555 2.69637 -3.27348 0
M  V30 8916 N 828.946 2.34926 -4.47933 0
M  V30 8917 C 827.244 3.00742 -3.29348 0
M  V30 8918 C 827.945 2.39862 -5.29944 0
M  V30 8919 N 826.921 2.77163 -4.67634 0
M  V30 8920 H 830.723 1.09567 -2.72713 0
M  V30 8921 H 828.237 0.5109 -1.54154 0
M  V30 8922 H 830.234 3.51265 -2.2454 0
M  V30 8923 H 828.894 3.02754 -1.17346 0
M  V30 8924 H 829.905 2.07403 -4.74557 0
M  V30 8925 H 826.582 3.34434 -2.49921 0
M  V30 8926 H 827.972 2.15835 -6.3629 0
M  V30 8927 N 830.692 1.47107 0.565454 0
M  V30 8928 C 831.938 1.53535 1.32495 0
M  V30 8929 C 832.271 0.193537 1.93233 0
M  V30 8930 O 831.546 -0.796956 1.77423 0
M  V30 8931 C 831.829 2.64712 2.4413 0
M  V30 8932 C 831.682 4.08482 1.88314 0
M  V30 8933 C 833.001 2.71853 3.46098 0
M  V30 8934 H 830.12 0.558926 0.480386 0
M  V30 8935 H 832.762 1.79125 0.633575 0
M  V30 8936 H 830.912 2.43023 3.03104 0
M  V30 8937 H 832.584 4.4151 1.33665 0
M  V30 8938 H 830.827 4.17148 1.19037 0
M  V30 8939 H 831.498 4.82032 2.68978 0
M  V30 8940 H 833.974 2.91397 2.97031 0
M  V30 8941 H 832.85 3.51433 4.21646 0
M  V30 8942 H 833.111 1.78584 4.04426 0
M  V30 8943 N 832.17 -0.811516 1.35101 0
M  V30 8944 C 833.08 -1.95475 1.29718 0
M  V30 8945 C 834.096 -1.72813 0.202909 0
M  V30 8946 O 835.272 -1.96725 0.431414 0
M  V30 8947 C 832.337 -3.29975 1.06385 0
M  V30 8948 C 831.398 -3.65566 2.25077 0
M  V30 8949 C 830.631 -4.93648 2.02848 0
M  V30 8950 O 830.854 -5.617 0.992442 0
M  V30 8951 O 829.788 -5.27384 2.90087 0
M  V30 8952 H 833.614 -2.02961 2.25921 0
M  V30 8953 H 831.199 -0.948583 1.15422 0
M  V30 8954 H 833.081 -4.10506 0.951999 0
M  V30 8955 H 831.756 -3.2343 0.132294 0
M  V30 8956 H 830.663 -2.85432 2.41825 0
M  V30 8957 H 831.996 -3.7681 3.16662 0
M  V30 8958 N 833.648 -1.19017 -1.03309 0
M  V30 8959 C 835.059 -0.993206 -1.5809 0
M  V30 8960 C 835.41 0.45505 -1.9085 0
M  V30 8961 O 834.535 1.33372 -1.70414 0
M  V30 8962 C 835.13 -1.79661 -2.87241 0
M  V30 8963 C 833.689 -1.64377 -3.38611 0
M  V30 8964 C 832.836 -1.78628 -2.12102 0
M  V30 8965 H 835.787 -1.3345 -0.858879 0
M  V30 8966 H 835.808 -1.29019 -3.57958 0
M  V30 8967 H 835.32 -2.85061 -2.63366 0
M  V30 8968 H 833.421 -0.615447 -3.67482 0
M  V30 8969 H 833.534 -2.44651 -4.11926 0
M  V30 8970 H 831.898 -1.21648 -2.23772 0
M  V30 8971 H 832.681 -2.8548 -1.90673 0
M  V30 8972 N 835.127 1.22348 -0.993418 0
M  V30 8973 C 836.375 1.90733 -0.668246 0
M  V30 8974 C 836.696 1.77732 0.802261 0
M  V30 8975 O 835.966 1.16486 1.57505 0
M  V30 8976 H 834.546 0.705966 -0.244174 0
M  V30 8977 H 837.208 1.48691 -1.26004 0
M  V30 8978 H 836.304 2.97883 -0.931239 0
M  V30 8979 N 836.605 0.766683 1.37694 0
M  V30 8980 C 838.016 0.394761 1.82479 0
M  V30 8981 C 838.367 -1.07842 1.63904 0
M  V30 8982 O 837.492 -1.83479 1.14737 0
M  V30 8983 C 838.087 0.70974 3.31283 0
M  V30 8984 C 836.646 0.390936 3.74364 0
M  V30 8985 C 835.793 0.956192 2.60293 0
M  V30 8986 H 838.744 0.961756 1.26238 0
M  V30 8987 H 838.765 -0.00742144 3.80499 0
M  V30 8988 H 838.277 1.782 3.4477 0
M  V30 8989 H 836.378 -0.674213 3.66449 0
M  V30 8990 H 836.491 0.895645 4.70654 0
M  V30 8991 H 834.855 0.380744 2.51838 0
M  V30 8992 H 835.638 2.03375 2.76575 0
M  V30 8993 N 838.083 -1.48885 0.516809 0
M  V30 8994 C 839.499 -1.58651 0.173788 0
M  V30 8995 C 839.699 -1.52033 -1.32243 0
M  V30 8996 O 838.755 -1.40251 -2.09967 0
M  V30 8997 C 840.068 -2.90816 0.764628 0
M  V30 8998 C 841.616 -3.04316 0.732164 0
M  V30 8999 C 842.091 -4.39123 1.30135 0
M  V30 9000 N 843.582 -4.45656 1.26273 0
M  V30 9001 C 844.317 -5.48446 1.67317 0
M  V30 9002 N 843.813 -6.58258 2.16028 0
M  V30 9003 N 845.606 -5.39251 1.58635 0
M  V30 9004 H 837.757 -1.5143 1.48939 0
M  V30 9005 H 840.02 -0.718243 0.618733 0
M  V30 9006 H 839.726 -3.01275 1.81456 0
M  V30 9007 H 839.6 -3.76473 0.234113 0
M  V30 9008 H 841.987 -2.93478 -0.308975 0
M  V30 9009 H 842.068 -2.20303 1.3 0
M  V30 9010 H 841.712 -4.50714 2.34135 0
M  V30 9011 H 841.642 -5.21801 0.709305 0
M  V30 9012 H 844.133 -3.66879 0.906006 0
M  V30 9013 H 844.446 -7.32811 2.45374 0
M  V30 9014 H 842.791 -6.59257 2.20013 0
M  V30 9015 H 845.982 -4.52354 1.20387 0
M  V30 9016 H 846.155 -6.19229 1.90944 0
M  V30 9017 N 839.561 -0.251338 -1.55583 0
M  V30 9018 C 840.807 0.365823 -2.00083 0
M  V30 9019 C 841.162 1.55242 -1.13656 0
M  V30 9020 O 840.455 1.90624 -0.193108 0
M  V30 9021 C 840.649 0.821186 -3.47838 0
M  V30 9022 C 840.478 -0.319746 -4.48562 0
M  V30 9023 C 839.248 -0.795866 -4.98993 0
M  V30 9024 C 841.446 -1.14825 -5.01318 0
M  V30 9025 N 839.428 -1.90875 -5.83472 0
M  V30 9026 C 840.799 -2.10943 -5.83012 0
M  V30 9027 C 842.854 -1.18431 -4.8361 0
M  V30 9028 C 841.557 -3.10383 -6.48888 0
M  V30 9029 C 843.583 -2.16703 -5.50267 0
M  V30 9030 C 842.945 -3.11557 -6.31753 0
M  V30 9031 H 839.044 0.0996971 -0.775619 0
M  V30 9032 H 841.628 -0.36993 -1.91153 0
M  V30 9033 H 839.799 1.52622 -3.57157 0
M  V30 9034 H 841.531 1.41367 -3.79206 0
M  V30 9035 H 838.286 -0.379242 -4.72079 0
M  V30 9036 H 838.71 -2.46808 -6.30408 0
M  V30 9037 H 843.352 -0.464824 -4.20237 0
M  V30 9038 H 841.07 -3.83277 -7.11424 0
M  V30 9039 H 844.656 -2.20204 -5.38518 0
M  V30 9040 H 843.536 -3.86357 -6.82421 0
M  V30 9041 N 841.039 1.57585 0.0217189 0
M  V30 9042 C 842.45 1.7787 0.567377 0
M  V30 9043 C 842.801 0.883337 1.7519 0
M  V30 9044 O 841.926 0.0800819 2.16252 0
M  V30 9045 C 842.521 3.2257 1.03606 0
M  V30 9046 C 841.08 3.44026 1.52718 0
M  V30 9047 C 840.227 2.73313 0.468545 0
M  V30 9048 H 843.178 1.57377 -0.2045 0
M  V30 9049 H 843.199 3.29488 1.9031 0
M  V30 9050 H 842.711 3.87711 0.173739 0
M  V30 9051 H 840.812 2.8407 2.41111 0
M  V30 9052 H 840.925 4.52659 1.56962 0
M  V30 9053 H 839.289 2.37299 0.925263 0
M  V30 9054 H 840.072 3.41141 -0.384438 0
M  V30 9055 N 842.517 -0.29412 1.54831 0
M  V30 9056 C 843.794 -1.04847 1.65126 0
M  V30 9057 C 844.174 -2.04996 0.503986 0
M  V30 9058 O 843.522 -2.22996 -0.498496 0
M  V30 9059 C 843.732 -1.72418 3.03435 0
M  V30 9060 C 845.08 -2.24362 3.60481 0
M  V30 9061 O 846.104 -1.8244 3.05932 0
M  V30 9062 O 844.963 -3.01196 4.56008 0
M  V30 9063 H 842.057 -0.485032 0.669831 0
M  V30 9064 H 844.603 -0.291659 1.67175 0
M  V30 9065 H 843.375 -0.997351 3.78376 0
M  V30 9066 H 842.998 -2.54839 3.05193 0
M  V30 9067 N 843.995 -1.47404 -0.557645 0
M  V30 9068 C 845.241 -1.54235 -1.31679 0
M  V30 9069 C 845.574 -0.203782 -1.93128 0
M  V30 9070 O 844.849 0.787536 -1.77843 0
M  V30 9071 C 845.132 -2.66003 -2.42723 0
M  V30 9072 C 844.985 -4.09475 -1.86145 0
M  V30 9073 C 846.304 -2.73685 -3.44652 0
M  V30 9074 H 843.423 -0.561466 -0.477415 0
M  V30 9075 H 846.065 -1.79459 -0.624067 0
M  V30 9076 H 844.215 -2.44627 -3.01811 0
M  V30 9077 H 845.887 -4.42213 -1.31321 0
M  V30 9078 H 844.13 -4.17774 -1.16823 0
M  V30 9079 H 844.801 -4.83451 -2.66418 0
M  V30 9080 H 847.277 -2.92968 -2.95481 0
M  V30 9081 H 846.153 -3.53665 -4.19777 0
M  V30 9082 H 846.414 -1.80726 -4.03473 0
M  V30 9083 N 845.473 0.80434 -1.35529 0
M  V30 9084 C 846.436 1.89788 -1.28503 0
M  V30 9085 C 847.436 1.59601 -0.195983 0
M  V30 9086 O 848.626 1.68292 -0.449827 0
M  V30 9087 C 845.758 3.26255 -0.98847 0
M  V30 9088 H 846.951 1.97436 -2.25741 0
M  V30 9089 H 844.504 1.00046 -1.20086 0
M  V30 9090 H 845.239 3.24294 -0.0200541 0
M  V30 9091 H 845.024 3.49551 -1.77641 0
M  V30 9092 H 846.514 4.06298 -0.964975 0
M  V30 9093 N 846.951 1.19563 1.02676 0
M  V30 9094 C 848.367 0.948304 1.28372 0
M  V30 9095 C 848.567 -0.378096 1.97921 0
M  V30 9096 O 847.623 -1.1091 2.26838 0
M  V30 9097 C 848.936 2.12381 2.12873 0
M  V30 9098 C 850.484 2.16366 2.26174 0
M  V30 9099 C 850.959 3.33374 3.14048 0
M  V30 9100 N 852.45 3.33323 3.21636 0
M  V30 9101 C 853.185 4.20504 3.89825 0
M  V30 9102 N 852.681 5.17845 4.60227 0
M  V30 9103 N 854.474 4.08375 3.86246 0
M  V30 9104 H 846.625 2.04899 0.559485 0
M  V30 9105 H 848.888 0.89606 0.309484 0
M  V30 9106 H 848.594 3.08383 1.69094 0
M  V30 9107 H 848.468 2.09621 3.1359 0
M  V30 9108 H 850.855 1.20933 2.69182 0
M  V30 9109 H 850.936 2.23179 1.25 0
M  V30 9110 H 850.58 4.29087 2.71747 0
M  V30 9111 H 850.51 3.23798 4.15286 0
M  V30 9112 H 853.001 2.62863 2.71498 0
M  V30 9113 H 853.314 5.80712 5.09896 0
M  V30 9114 H 851.659 5.21791 4.59085 0
M  V30 9115 H 854.85 3.31606 3.30386 0
M  V30 9116 H 855.023 4.76532 4.39114 0
M  V30 9117 N 848.429 -1.21819 0.999893 0
M  V30 9118 C 849.84 -1.72517 0.713775 0
M  V30 9119 C 850.191 -1.80505 -0.768922 0
M  V30 9120 O 849.316 -1.45611 -1.60083 0
M  V30 9121 C 849.911 -3.13321 1.28901 0
M  V30 9122 C 848.47 -3.61396 1.05212 0
M  V30 9123 C 847.617 -2.39074 1.40494 0
M  V30 9124 H 850.568 -1.07068 1.17141 0
M  V30 9125 H 850.589 -3.74535 0.671084 0
M  V30 9126 H 850.101 -3.07475 2.36814 0
M  V30 9127 H 848.202 -3.72599 -0.0100732 0
M  V30 9128 H 848.315 -4.47145 1.72042 0
M  V30 9129 H 846.679 -2.41015 0.823642 0
M  V30 9130 H 847.462 -2.35884 2.49427 0
M  V30 9131 N 849.908 -0.773975 -1.37286 0
M  V30 9132 C 851.319 -0.404433 -1.82267 0
M  V30 9133 C 851.67 1.06971 -1.64474 0
M  V30 9134 O 850.795 1.82867 -1.15708 0
M  V30 9135 C 851.39 -0.727298 -3.30902 0
M  V30 9136 C 849.949 -0.410784 -3.74152 0
M  V30 9137 C 849.096 -0.969983 -2.59782 0
M  V30 9138 H 852.047 -0.968437 -1.25726 0
M  V30 9139 H 852.068 -0.0127575 -3.80498 0
M  V30 9140 H 851.58 -1.80026 -3.4382 0
M  V30 9141 H 849.681 0.65477 -3.66802 0
M  V30 9142 H 849.794 -0.920592 -4.70172 0
M  V30 9143 H 848.158 -0.394094 -2.51633 0
M  V30 9144 H 848.941 -2.04839 -2.75492 0
M  V30 9145 N 851.386 1.48609 -0.524698 0
M  V30 9146 C 852.633 2.02497 0.0113214 0
M  V30 9147 C 852.961 1.40229 1.34781 0
M  V30 9148 O 852.216 0.53557 1.88229 0
M  V30 9149 C 852.515 3.56906 0.187873 0
M  V30 9150 C 852.181 4.37932 -1.07359 0
M  V30 9151 C 850.843 4.59792 -1.41933 0
M  V30 9152 C 853.195 4.84902 -1.911 0
M  V30 9153 C 850.523 5.25868 -2.60154 0
M  V30 9154 C 852.875 5.52281 -3.08495 0
M  V30 9155 C 851.539 5.7238 -3.4342 0
M  V30 9156 H 850.809 0.740988 0.0041428 0
M  V30 9157 H 853.456 1.78651 -0.689652 0
M  V30 9158 H 851.761 3.79563 0.971572 0
M  V30 9159 H 853.458 3.96218 0.617443 0
M  V30 9160 H 850.048 4.21175 -0.794331 0
M  V30 9161 H 854.232 4.67821 -1.65701 0
M  V30 9162 H 849.488 5.39628 -2.87422 0
M  V30 9163 H 853.662 5.87645 -3.73692 0
M  V30 9164 H 851.289 6.23354 -4.35126 0
M  V30 9165 N 852.864 0.259585 1.55447 0
M  V30 9166 C 853.812 -0.6507 2.23313 0
M  V30 9167 C 854.806 -1.17014 1.22491 0
M  V30 9168 O 856.012 -1.12557 1.40467 0
M  V30 9169 H 852.387 -0.228354 0.71649 0
M  V30 9170 H 854.358 -0.0553039 2.98349 0
M  V30 9171 C 853.107 -1.83081 2.95596 0
M  V30 9172 H 852.43 -1.44027 3.72956 0
M  V30 9173 H 853.87 -2.44469 3.46426 0
M  V30 9174 C 852.329 -2.70976 2.00184 0
M  V30 9175 O 852.859 -3.70882 1.54304 0
M  V30 9176 N 851.065 -2.37813 1.67014 0
M  V30 9177 H 850.612 -1.5662 2.04519 0
M  V30 9178 H 850.57 -2.96896 1.03443 0
M  V30 9179 N 854.342 -1.57594 -0.0133615 0
M  V30 9180 C 855.753 -1.78168 -0.557937 0
M  V30 9181 C 856.104 -0.892616 -1.74719 0
M  V30 9182 O 855.229 -0.0915491 -2.16206 0
M  V30 9183 C 855.824 -3.23115 -1.01894 0
M  V30 9184 C 854.383 -3.44831 -1.50892 0
M  V30 9185 C 853.53 -2.73558 -0.454044 0
M  V30 9186 H 856.481 -1.57266 0.212843 0
M  V30 9187 H 856.502 -3.30493 -1.8856 0
M  V30 9188 H 856.014 -3.87798 -0.153175 0
M  V30 9189 H 854.115 -2.85345 -2.39602 0
M  V30 9190 H 854.228 -4.53485 -1.54559 0
M  V30 9191 H 852.592 -2.37787 -0.912666 0
M  V30 9192 H 853.375 -3.40932 0.402524 0
M  V30 9193 N 855.82 0.285905 -1.54985 0
M  V30 9194 C 856.77 1.35505 -1.83364 0
M  V30 9195 C 857.754 1.45273 -0.691698 0
M  V30 9196 O 858.946 1.49172 -0.952725 0
M  V30 9197 C 856.075 2.71756 -2.0977 0
M  V30 9198 C 855.161 2.6615 -3.30189 0
M  V30 9199 N 855.552 2.30161 -4.50399 0
M  V30 9200 C 853.85 2.97232 -3.3252 0
M  V30 9201 C 854.551 2.34228 -5.32459 0
M  V30 9202 N 853.527 2.72187 -4.70548 0
M  V30 9203 H 857.329 1.06668 -2.7386 0
M  V30 9204 H 854.843 0.494521 -1.54688 0
M  V30 9205 H 856.84 3.48864 -2.28253 0
M  V30 9206 H 855.5 3.01492 -1.20551 0
M  V30 9207 H 856.511 2.02358 -4.7673 0
M  V30 9208 H 853.188 3.31764 -2.53454 0
M  V30 9209 H 854.578 2.09074 -6.38543 0
M  V30 9210 N 857.298 1.47698 0.54982 0
M  V30 9211 C 858.546 1.54397 1.30407 0
M  V30 9212 C 858.867 0.211026 1.93855 0
M  V30 9213 O 858.137 -0.765701 1.80316 0
M  V30 9214 H 856.717 0.568747 0.484289 0
M  V30 9215 H 859.379 1.84042 0.641444 0
M  V30 9216 H 858.475 2.31449 2.09375 0
M  V30 9217 N 858.776 -0.797141 1.35954 0
M  V30 9218 C 860.024 -1.55161 1.29497 0
M  V30 9219 C 860.345 -1.94582 -0.127659 0
M  V30 9220 O 859.615 -1.64343 -1.06622 0
M  V30 9221 H 858.195 -0.575413 0.47635 0
M  V30 9222 H 860.857 -0.950282 1.70164 0
M  V30 9223 H 859.953 -2.46272 1.9172 0
M  V30 9224 N 860.254 -1.20106 -1.0204 0
M  V30 9225 C 861.217 -0.948261 -2.08664 0
M  V30 9226 C 862.217 0.0746753 -1.60627 0
M  V30 9227 O 863.407 -0.160981 -1.73455 0
M  V30 9228 C 860.539 -0.426854 -3.38217 0
M  V30 9229 H 861.732 -1.894 -2.32524 0
M  V30 9230 H 859.285 -1.0159 -1.18782 0
M  V30 9231 H 860.02 0.524532 -3.2003 0
M  V30 9232 H 859.805 -1.16451 -3.74408 0
M  V30 9233 H 861.295 -0.269346 -4.1673 0
M  V30 9234 N 861.732 1.21287 -1.00634 0
M  V30 9235 C 862.642 2.27388 -0.577226 0
M  V30 9236 C 863.658 1.69791 0.380399 0
M  V30 9237 O 864.834 1.99918 0.2439 0
M  V30 9238 C 861.899 3.46588 0.0880532 0
M  V30 9239 C 860.96 4.19453 -0.914222 0
M  V30 9240 C 860.193 5.32962 -0.280596 0
M  V30 9241 O 860.416 5.62895 0.922265 0
M  V30 9242 O 859.35 5.93666 -0.992196 0
M  V30 9243 H 863.176 2.66289 -1.46028 0
M  V30 9244 H 860.761 1.2771 -0.775283 0
M  V30 9245 H 862.643 4.18881 0.460094 0
M  V30 9246 H 861.318 3.09585 0.945461 0
M  V30 9247 H 860.225 3.49376 -1.33744 0
M  V30 9248 H 861.558 4.6037 -1.74126 0
M  V30 9249 N 863.21 0.781244 1.36873 0
M  V30 9250 C 864.621 0.414093 1.8205 0
M  V30 9251 C 864.972 -1.06098 1.65039 0
M  V30 9252 O 864.097 -1.82251 1.16677 0
M  V30 9253 C 864.692 0.744837 3.30511 0
M  V30 9254 C 863.251 0.430621 3.73929 0
M  V30 9255 C 862.398 0.983746 2.59264 0
M  V30 9256 H 865.349 0.975091 1.2521 0
M  V30 9257 H 865.37 0.032936 3.80486 0
M  V30 9258 H 864.882 1.81847 3.42861 0
M  V30 9259 H 862.983 -0.635308 3.67144 0
M  V30 9260 H 863.096 0.945514 4.69677 0
M  V30 9261 H 861.46 0.407433 2.5142 0
M  V30 9262 H 862.243 2.06297 2.74402 0
M  V30 9263 N 864.689 -1.48329 0.532571 0
M  V30 9264 C 865.937 -2.021 -0.000581206 0
M  V30 9265 C 866.258 -1.4117 -1.34522 0
M  V30 9266 O 865.528 -0.578005 -1.87179 0
M  V30 9267 H 864.108 -0.746993 -0.00320281 0
M  V30 9268 H 866.77 -1.82011 0.696991 0
M  V30 9269 H 865.866 -3.11917 -0.106991 0
M  V30 9270 N 866.167 -0.267825 -1.55308 0
M  V30 9271 C 867.13 0.60965 -2.20943 0
M  V30 9272 C 868.13 1.0869 -1.18504 0
M  V30 9273 O 869.32 0.988248 -1.43455 0
M  V30 9274 C 866.452 1.84027 -2.86961 0
M  V30 9275 H 867.645 0.0366806 -2.99878 0
M  V30 9276 H 865.198 -0.0183941 -1.56289 0
M  V30 9277 H 865.933 2.45394 -2.1202 0
M  V30 9278 H 865.718 1.50605 -3.62023 0
M  V30 9279 H 867.208 2.46442 -3.37129 0
M  V30 9280 N 867.645 1.57599 0.00500368 0
M  V30 9281 C 868.922 1.81561 0.727654 0
M  V30 9282 C 869.302 0.871604 1.92266 0
M  V30 9283 O 868.65 -0.0808232 2.28357 0
M  V30 9284 C 868.86 3.29922 1.13809 0
M  V30 9285 C 870.208 3.95531 1.54403 0
M  V30 9286 O 871.232 3.34215 1.23202 0
M  V30 9287 O 870.091 5.03535 2.12402 0
M  V30 9288 H 867.185 0.747462 0.353878 0
M  V30 9289 H 869.731 1.69688 -0.0200667 0
M  V30 9290 H 868.503 3.90253 0.286078 0
M  V30 9291 H 868.126 3.46775 1.94507 0
M  V30 9292 N 869.123 -0.277682 1.55134 0
M  V30 9293 C 870.348 -1.03254 1.7987 0
M  V30 9294 C 870.773 -1.79324 0.567861 0
M  V30 9295 O 870.131 -1.74764 -0.4824 0
M  V30 9296 C 870.179 -1.9705 3.02 0
M  V30 9297 O 869.283 -3.05744 2.76757 0
M  V30 9298 H 868.624 -0.295447 0.594649 0
M  V30 9299 H 871.154 -0.308013 2.02268 0
M  V30 9300 H 871.164 -2.3909 3.30606 0
M  V30 9301 H 869.839 -1.41094 3.91236 0
M  V30 9302 H 868.416 -2.68052 2.59235 0
M  V30 9303 N 870.601 -1.47988 -0.541979 0
M  V30 9304 C 871.564 -1.61148 -1.62984 0
M  V30 9305 C 872.564 -0.48553 -1.53295 0
M  V30 9306 O 873.754 -0.751012 -1.5718 0
M  V30 9307 C 870.886 -1.57038 -3.02576 0
M  V30 9308 H 872.079 -2.58138 -1.52659 0
M  V30 9309 H 869.632 -1.36405 -0.763106 0
M  V30 9310 H 870.367 -0.614807 -3.18419 0
M  V30 9311 H 870.152 -2.38769 -3.11018 0
M  V30 9312 H 871.642 -1.69416 -3.81691 0
M  V30 9313 N 872.079 0.78992 -1.36375 0
M  V30 9314 C 872.989 1.93386 -1.32812 0
M  V30 9315 C 874.005 1.72468 -0.230377 0
M  V30 9316 O 875.181 1.96014 -0.462657 0
M  V30 9317 C 872.246 3.2824 -1.11621 0
M  V30 9318 C 871.307 3.61939 -2.30865 0
M  V30 9319 C 870.54 4.90359 -2.10675 0
M  V30 9320 O 870.763 5.6005 -1.08168 0
M  V30 9321 O 869.697 5.22702 -2.9844 0
M  V30 9322 H 873.523 1.99342 -2.29121 0
M  V30 9323 H 871.108 0.9301 -1.16917 0
M  V30 9324 H 872.99 4.08939 -1.01719 0
M  V30 9325 H 871.665 3.23178 -0.183732 0
M  V30 9326 H 870.572 2.81549 -2.46335 0
M  V30 9327 H 871.905 3.71725 -3.22617 0
M  V30 9328 N 873.557 1.20646 1.01402 0
M  V30 9329 C 874.805 1.01618 1.74695 0
M  V30 9330 C 875.126 -0.452438 1.89679 0
M  V30 9331 O 874.396 -1.32693 1.44116 0
M  V30 9332 H 872.976 0.373013 0.647202 0
M  V30 9333 H 875.638 1.518 1.22241 0
M  V30 9334 H 874.734 1.47666 2.74957 0
M  V30 9335 N 875.035 -1.20752 1.01276 0
M  V30 9336 C 876.312 -1.85676 0.615112 0
M  V30 9337 C 876.692 -1.90623 -0.906976 0
M  V30 9338 O 876.04 -1.41124 -1.79712 0
M  V30 9339 C 876.25 -3.2552 1.25847 0
M  V30 9340 C 877.598 -4.0184 1.37148 0
M  V30 9341 O 878.622 -3.3486 1.21438 0
M  V30 9342 O 877.481 -5.21783 1.62495 0
M  V30 9343 H 874.575 -0.799437 0.211729 0
M  V30 9344 H 877.121 -1.28372 1.10989 0
M  V30 9345 H 875.893 -3.16664 2.29869 0
M  V30 9346 H 875.516 -3.90452 0.750524 0
M  V30 9347 N 876.513 -0.788492 -1.36457 0
M  V30 9348 C 877.759 -0.360995 -1.99561 0
M  V30 9349 C 878.092 1.06433 -1.62437 0
M  V30 9350 O 877.367 1.7352 -0.878705 0
M  V30 9351 C 877.65 -0.523735 -3.56271 0
M  V30 9352 C 877.503 -1.99268 -4.03252 0
M  V30 9353 C 878.822 0.0617908 -4.40057 0
M  V30 9354 H 875.941 -0.13264 -0.724966 0
M  V30 9355 H 878.583 -0.994659 -1.61884 0
M  V30 9356 H 876.733 0.0156979 -3.88497 0
M  V30 9357 H 878.405 -2.59311 -3.81518 0
M  V30 9358 H 876.648 -2.49561 -3.54826 0
M  V30 9359 H 877.319 -2.05752 -5.12221 0
M  V30 9360 H 879.795 -0.398674 -4.14186 0
M  V30 9361 H 878.671 -0.0821089 -5.48839 0
M  V30 9362 H 878.932 1.15381 -4.26778 0
M  V30 9363 N 877.991 1.48044 -0.54043 0
M  V30 9364 C 879.239 2.02097 -0.0101367 0
M  V30 9365 C 879.56 1.41881 1.33771 0
M  V30 9366 O 878.83 0.587923 1.8687 0
M  V30 9367 H 877.41 0.747 -0.000758716 0
M  V30 9368 H 880.072 1.81639 -0.706634 0
M  V30 9369 H 879.168 3.11969 0.0904474 0
M  V30 9370 N 879.47 0.276058 1.55163 0
M  V30 9371 C 880.747 -0.392292 1.91626 0
M  V30 9372 C 881.127 -1.73646 1.20043 0
M  V30 9373 O 880.475 -2.26139 0.327606 0
M  V30 9374 C 880.685 -0.531641 3.44927 0
M  V30 9375 C 882.033 -0.8141 4.16722 0
M  V30 9376 O 883.057 -0.616413 3.50826 0
M  V30 9377 O 881.916 -1.19224 5.33337 0
M  V30 9378 H 879.01 -0.214945 0.798579 0
M  V30 9379 H 881.556 0.32228 1.66612 0
M  V30 9380 H 880.328 0.414282 3.89101 0
M  V30 9381 H 879.951 -1.29564 3.75897 0
M  V30 9382 N 880.948 -1.576 0.00335426 0
M  V30 9383 C 882.196 -1.90336 -0.679446 0
M  V30 9384 C 882.517 -0.877777 -1.74127 0
M  V30 9385 O 881.787 0.0843585 -1.95718 0
M  V30 9386 H 880.367 -0.702509 -0.253948 0
M  V30 9387 H 883.029 -1.94848 0.0450731 0
M  V30 9388 H 882.125 -2.90197 -1.14857 0
M  V30 9389 N 882.426 0.269451 -1.5528 0
M  V30 9390 C 883.703 1.02207 -1.66773 0
M  V30 9391 C 884.083 2.04168 -0.536536 0
M  V30 9392 O 883.431 2.23761 0.462956 0
M  V30 9393 C 883.641 1.67569 -3.0614 0
M  V30 9394 C 884.989 2.18599 -3.64005 0
M  V30 9395 O 886.013 1.7755 -3.08795 0
M  V30 9396 O 884.872 2.93903 -4.60742 0
M  V30 9397 H 881.966 0.474314 -0.677462 0
M  V30 9398 H 884.512 0.265026 -1.67618 0
M  V30 9399 H 883.284 0.937029 -3.79915 0
M  V30 9400 H 882.907 2.49951 -3.09209 0
M  V30 9401 N 883.904 1.48273 0.534124 0
M  V30 9402 C 885.152 1.55771 1.28762 0
M  V30 9403 C 885.473 0.231575 1.9362 0
M  V30 9404 O 884.743 -0.746533 1.81118 0
M  V30 9405 H 883.323 0.573851 0.47823 0
M  V30 9406 H 885.985 1.84712 0.621888 0
M  V30 9407 H 885.081 2.33657 2.06908 0
M  V30 9408 N 885.382 -0.782676 1.36792 0
M  V30 9409 C 886.659 -1.52939 1.21939 0
M  V30 9410 C 887.039 -2.10228 -0.191639 0
M  V30 9411 O 886.387 -1.94574 -1.19805 0
M  V30 9412 C 886.597 -2.61898 2.30674 0
M  V30 9413 C 887.945 -3.29598 2.67676 0
M  V30 9414 O 888.969 -2.72186 2.29768 0
M  V30 9415 O 887.828 -4.3337 3.32946 0
M  V30 9416 H 884.922 -0.676856 0.47518 0
M  V30 9417 H 887.468 -0.82058 1.48542 0
M  V30 9418 H 886.24 -2.17607 3.25212 0
M  V30 9419 H 885.863 -3.40391 2.05475 0
M  V30 9420 N 886.86 -1.21182 -1.00761 0
M  V30 9421 C 888.107 -1.02746 -1.74498 0
M  V30 9422 C 888.435 0.439344 -1.89473 0
M  V30 9423 O 887.69 1.34232 -1.42409 0
M  V30 9424 C 887.989 -1.6667 -3.16158 0
M  V30 9425 C 887.655 -3.16515 -3.21137 0
M  V30 9426 C 886.317 -3.57405 -3.22203 0
M  V30 9427 C 888.669 -4.12495 -3.18587 0
M  V30 9428 C 885.997 -4.92786 -3.18401 0
M  V30 9429 C 888.349 -5.47833 -3.16326 0
M  V30 9430 C 887.013 -5.88124 -3.157 0
M  V30 9431 H 886.283 -0.375974 -0.638533 0
M  V30 9432 H 888.93 -1.50736 -1.18114 0
M  V30 9433 H 887.235 -1.10966 -3.75758 0
M  V30 9434 H 888.932 -1.49911 -3.71924 0
M  V30 9435 H 885.522 -2.83947 -3.21048 0
M  V30 9436 H 889.706 -3.81932 -3.16925 0
M  V30 9437 H 884.962 -5.23253 -3.16253 0
M  V30 9438 H 889.136 -6.21942 -3.13306 0
M  V30 9439 H 886.763 -6.92995 -3.12508 0
M  V30 9440 N 888.338 1.20213 -1.01915 0
M  V30 9441 C 889.586 1.89272 -0.708552 0
M  V30 9442 C 889.907 1.79394 0.76438 0
M  V30 9443 O 889.177 1.198 1.54999 0
M  V30 9444 H 887.757 0.700628 -0.259094 0
M  V30 9445 H 890.419 1.45985 -1.29129 0
M  V30 9446 H 889.515 2.95841 -0.994215 0
M  V30 9447 N 889.816 0.795718 1.36037 0
M  V30 9448 C 890.779 0.204318 2.28287 0
M  V30 9449 C 891.779 -0.602017 1.49105 0
M  V30 9450 O 892.969 -0.422089 1.69009 0
M  V30 9451 C 890.101 -0.716431 3.33287 0
M  V30 9452 H 891.294 1.01781 2.821 0
M  V30 9453 H 888.847 0.565588 1.45708 0
M  V30 9454 H 889.582 -1.55403 2.84641 0
M  V30 9455 H 889.367 -0.140096 3.9185 0
M  V30 9456 H 890.857 -1.12488 4.02164 0
M  V30 9457 N 891.294 -1.47756 0.548274 0
M  V30 9458 C 892.542 -2.02089 0.0208542 0
M  V30 9459 C 892.863 -1.42589 -1.33017 0
M  V30 9460 O 892.133 -0.597825 -1.86555 0
M  V30 9461 H 890.713 -0.746985 0.00472023 0
M  V30 9462 H 893.375 -1.81262 0.716257 0
M  V30 9463 H 892.471 -3.12012 -0.0739016 0
M  V30 9464 N 892.772 -0.284283 -1.55015 0
M  V30 9465 C 894.018 0.330352 -2.00091 0
M  V30 9466 C 894.351 1.54814 -1.17244 0
M  V30 9467 O 893.626 1.92954 -0.244753 0
M  V30 9468 C 893.909 0.703492 -3.53161 0
M  V30 9469 C 893.762 -0.522275 -4.46758 0
M  V30 9470 C 895.081 1.53645 -4.12409 0
M  V30 9471 H 892.2 0.118599 -0.727395 0
M  V30 9472 H 894.842 -0.393054 -1.8589 0
M  V30 9473 H 892.992 1.31983 -3.65394 0
M  V30 9474 H 894.664 -1.16082 -4.46456 0
M  V30 9475 H 892.907 -1.15865 -4.1804 0
M  V30 9476 H 893.578 -0.217295 -5.51572 0
M  V30 9477 H 896.054 1.01583 -4.0351 0
M  V30 9478 H 894.93 1.76633 -5.19704 0
M  V30 9479 H 895.191 2.5204 -3.63219 0
M  V30 9480 N 894.251 1.57596 -0.0117121 0
M  V30 9481 C 895.199 2.1029 0.994035 0
M  V30 9482 C 896.193 1.02549 1.34833 0
M  V30 9483 O 897.399 1.21003 1.3326 0
M  V30 9484 H 893.774 0.671624 0.338268 0
M  V30 9485 H 895.745 2.93761 0.524147 0
M  V30 9486 C 894.494 2.63099 2.27319 0
M  V30 9487 H 893.817 3.45642 2.00927 0
M  V30 9488 H 895.257 3.03635 2.95942 0
M  V30 9489 C 893.716 1.55044 2.99104 0
M  V30 9490 O 894.246 0.940127 3.90544 0
M  V30 9491 N 892.452 1.27506 2.61133 0
M  V30 9492 H 891.999 1.77322 1.86855 0
M  V30 9493 H 891.957 0.554292 3.09475 0
M  V30 9494 N 895.729 -0.261212 1.5542 0
M  V30 9495 C 896.676 -1.32315 1.89107 0
M  V30 9496 C 897.646 -1.48517 0.743767 0
M  V30 9497 O 898.831 -1.62733 0.996123 0
M  V30 9498 C 895.971 -2.67626 2.17877 0
M  V30 9499 C 895.084 -2.59549 3.45338 0
M  V30 9500 C 894.219 -3.87118 3.63748 0
M  V30 9501 C 893.258 -3.736 4.8486 0
M  V30 9502 N 892.395 -4.93029 4.99867 0
M  V30 9503 H 897.235 -1.02886 2.79675 0
M  V30 9504 H 894.772 -0.496812 1.38456 0
M  V30 9505 H 896.73 -3.4637 2.32559 0
M  V30 9506 H 895.36 -2.95232 1.30529 0
M  V30 9507 H 894.412 -1.72452 3.39064 0
M  V30 9508 H 895.724 -2.45465 4.34222 0
M  V30 9509 H 894.878 -4.74305 3.78312 0
M  V30 9510 H 893.617 -4.04084 2.73071 0
M  V30 9511 H 892.622 -2.84797 4.70288 0
M  V30 9512 H 893.847 -3.58143 5.76984 0
M  V30 9513 H 891.793 -5.10383 4.12123 0
M  V30 9514 H 891.71 -4.81521 5.82815 0
M  V30 9515 H 892.978 -5.81754 5.18828 0
M  V30 9516 N 897.207 -1.48554 -0.526253 0
M  V30 9517 C 898.484 -1.47252 -1.28748 0
M  V30 9518 C 898.864 -0.186245 -2.10277 0
M  V30 9519 O 898.212 0.831954 -2.12816 0
M  V30 9520 C 898.422 -2.73672 -2.16575 0
M  V30 9521 C 899.77 -3.22151 -2.76593 0
M  V30 9522 O 900.794 -2.74614 -2.2686 0
M  V30 9523 O 899.653 -4.04877 -3.67066 0
M  V30 9524 H 896.747 -0.588242 -0.581292 0
M  V30 9525 H 899.293 -1.60792 -0.5426 0
M  V30 9526 H 898.065 -3.58798 -1.56139 0
M  V30 9527 H 897.688 -2.6287 -2.98304 0
M  V30 9528 N 898.685 0.775411 -1.37205 0
M  V30 9529 C 899.933 1.53081 -1.3195 0
M  V30 9530 C 900.254 1.9476 0.0966864 0
M  V30 9531 O 899.524 1.66019 1.03993 0
M  V30 9532 H 898.104 0.567762 -0.485444 0
M  V30 9533 H 900.766 0.92309 -1.71654 0
M  V30 9534 H 899.862 2.4319 -1.95614 0
M  V30 9535 N 900.163 1.21714 1.00117 0
M  V30 9536 C 901.411 1.03465 1.73607 0
M  V30 9537 C 901.732 -0.432295 1.90148 0
M  V30 9538 O 901.002 -1.31157 1.45515 0
M  V30 9539 H 899.582 0.379857 0.643209 0
M  V30 9540 H 902.244 1.53088 1.20624 0
M  V30 9541 H 901.34 1.50574 2.73375 0
M  V30 9542 N 901.641 -1.19671 1.02551 0
M  V30 9543 C 902.866 -1.93774 0.739363 0
M  V30 9544 C 903.291 -1.74787 -0.695064 0
M  V30 9545 O 902.649 -1.04796 -1.47944 0
M  V30 9546 C 902.697 -3.43684 1.09149 0
M  V30 9547 O 901.801 -4.11874 0.208213 0
M  V30 9548 H 901.142 -0.605064 0.273484 0
M  V30 9549 H 903.672 -1.51846 1.37128 0
M  V30 9550 H 903.682 -3.94339 1.04695 0
M  V30 9551 H 902.357 -3.56826 2.13654 0
M  V30 9552 H 900.934 -3.716 0.311045 0
M  V30 9553 N 903.119 -0.802921 -1.35613 0
M  V30 9554 C 904.535 -0.486214 -1.52014 0
M  V30 9555 C 904.735 0.993219 -1.75321 0
M  V30 9556 O 903.791 1.77835 -1.79251 0
M  V30 9557 C 905.104 -1.32839 -2.69767 0
M  V30 9558 C 906.652 -1.32346 -2.83643 0
M  V30 9559 C 907.127 -2.14967 -4.04417 0
M  V30 9560 N 908.618 -2.12484 -4.11588 0
M  V30 9561 C 909.353 -2.73173 -5.04147 0
M  V30 9562 N 908.849 -3.42774 -6.02061 0
M  V30 9563 N 910.642 -2.62834 -4.96865 0
M  V30 9564 H 902.793 -1.76109 -1.18741 0
M  V30 9565 H 905.056 -0.74936 -0.580658 0
M  V30 9566 H 904.762 -2.37813 -2.5911 0
M  V30 9567 H 904.636 -0.979058 -3.64272 0
M  V30 9568 H 907.023 -0.281586 -2.93753 0
M  V30 9569 H 907.104 -1.71264 -1.90006 0
M  V30 9570 H 906.748 -3.19193 -3.95068 0
M  V30 9571 H 906.678 -1.73411 -4.97228 0
M  V30 9572 H 909.169 -1.61839 -3.41492 0
M  V30 9573 H 909.482 -3.86378 -6.69277 0
M  V30 9574 H 907.827 -3.46878 -6.02246 0
M  V30 9575 H 911.018 -2.08049 -4.19325 0
M  V30 9576 H 911.191 -3.10421 -5.68808 0
M  V30 9577 N 904.597 1.47463 -0.556102 0
M  V30 9578 C 905.843 2.02775 -0.0316806 0
M  V30 9579 C 906.176 1.42967 1.3143 0
M  V30 9580 O 905.451 0.584847 1.85499 0
M  V30 9581 C 905.734 3.60046 0.0625742 0
M  V30 9582 C 905.587 4.30288 -1.31043 0
M  V30 9583 C 906.906 4.33195 0.776553 0
M  V30 9584 H 904.025 0.736886 -0.0129869 0
M  V30 9585 H 906.667 1.75904 -0.718177 0
M  V30 9586 H 904.817 3.83071 0.647231 0
M  V30 9587 H 906.489 4.18607 -1.9382 0
M  V30 9588 H 904.732 3.90685 -1.8854 0
M  V30 9589 H 905.403 5.38861 -1.1972 0
M  V30 9590 H 907.879 4.15156 0.280147 0
M  V30 9591 H 906.755 5.42869 0.81146 0
M  V30 9592 H 907.016 4.02336 1.83244 0
M  V30 9593 N 906.075 0.2925 1.54862 0
M  V30 9594 C 907.321 -0.319736 2.00264 0
M  V30 9595 C 907.654 -1.5419 1.18064 0
M  V30 9596 O 906.929 -1.92821 0.254983 0
M  V30 9597 C 907.212 -0.684753 3.5353 0
M  V30 9598 C 907.065 0.545961 4.46474 0
M  V30 9599 C 908.384 -1.51456 4.13218 0
M  V30 9600 H 905.503 -0.11474 0.728014 0
M  V30 9601 H 908.145 0.402907 1.85679 0
M  V30 9602 H 906.295 -1.30044 3.66089 0
M  V30 9603 H 907.967 1.18448 4.45834 0
M  V30 9604 H 906.21 1.1808 4.1742 0
M  V30 9605 H 906.881 0.246544 5.51449 0
M  V30 9606 H 909.357 -0.994421 4.04043 0
M  V30 9607 H 908.233 -1.73875 5.20633 0
M  V30 9608 H 908.494 -2.5011 3.64551 0
M  V30 9609 N 907.553 -1.57587 0.0200696 0
M  V30 9610 C 908.799 -1.91708 -0.661503 0
M  V30 9611 C 909.132 -0.895968 -1.72296 0
M  V30 9612 O 908.407 0.082577 -1.94325 0
M  V30 9613 C 908.69 -3.36344 -1.28627 0
M  V30 9614 C 908.543 -4.49186 -0.234982 0
M  V30 9615 C 909.862 -3.80771 -2.20685 0
M  V30 9616 H 906.981 -0.69717 -0.239005 0
M  V30 9617 H 909.623 -1.8985 0.0754764 0
M  V30 9618 H 907.773 -3.38058 -1.91439 0
M  V30 9619 H 909.445 -4.59606 0.395011 0
M  V30 9620 H 907.688 -4.31557 0.440565 0
M  V30 9621 H 908.359 -5.47395 -0.711558 0
M  V30 9622 H 910.835 -3.80735 -1.67868 0
M  V30 9623 H 909.711 -4.82685 -2.61356 0
M  V30 9624 H 909.972 -3.15764 -3.09428 0
M  V30 9625 N 909.032 0.252966 -1.55557 0
M  V30 9626 C 909.964 1.33585 -1.86246 0
M  V30 9627 C 910.977 1.44584 -0.748291 0
M  V30 9628 O 912.166 1.46042 -1.02635 0
M  V30 9629 C 909.266 2.71509 -2.02821 0
M  V30 9630 C 908.439 2.82853 -3.33636 0
M  V30 9631 C 907.498 4.01581 -3.40028 0
M  V30 9632 O 906.524 3.91394 -4.13278 0
M  V30 9633 N 907.726 5.14474 -2.6888 0
M  V30 9634 H 910.491 1.07596 -2.7972 0
M  V30 9635 H 908.052 0.443075 -1.55719 0
M  V30 9636 H 910.044 3.49262 -2.04445 0
M  V30 9637 H 908.614 2.90232 -1.1612 0
M  V30 9638 H 907.834 1.91823 -3.4438 0
M  V30 9639 H 909.122 2.87378 -4.19871 0
M  V30 9640 H 908.52 5.25641 -2.09087 0
M  V30 9641 H 907.077 5.90385 -2.76204 0
M  V30 9642 N 910.51 1.48831 0.518367 0
M  V30 9643 C 911.443 1.588 1.63884 0
M  V30 9644 C 912.421 0.437847 1.56594 0
M  V30 9645 O 913.605 0.651042 1.769 0
M  V30 9646 C 910.732 1.52681 3.02335 0
M  V30 9647 C 909.778 2.7268 3.27945 0
M  V30 9648 S 910.611 4.34536 3.12951 0
M  V30 9649 C 911.767 4.31034 4.53828 0
M  V30 9650 H 912 2.53587 1.5518 0
M  V30 9651 H 909.533 1.37507 0.702218 0
M  V30 9652 H 911.491 1.49837 3.82177 0
M  V30 9653 H 910.152 0.592107 3.08469 0
M  V30 9654 H 909.345 2.64569 4.28974 0
M  V30 9655 H 908.947 2.72847 2.55794 0
M  V30 9656 H 911.239 4.01683 5.45579 0
M  V30 9657 H 912.182 5.32282 4.66991 0
M  V30 9658 H 912.59 3.61343 4.33695 0
M  V30 9659 N 911.988 -0.768124 1.37614 0
M  V30 9660 C 912.898 -1.91249 1.35871 0
M  V30 9661 C 913.914 -1.7208 0.257786 0
M  V30 9662 O 915.09 -1.95253 0.493782 0
M  V30 9663 C 912.155 -3.26423 1.16829 0
M  V30 9664 C 911.216 -3.5822 2.36594 0
M  V30 9665 C 910.449 -4.86945 2.1845 0
M  V30 9666 O 910.672 -5.58258 1.17064 0
M  V30 9667 O 909.606 -5.17888 3.06718 0
M  V30 9668 H 913.432 -1.95671 2.32264 0
M  V30 9669 H 911.017 -0.911382 1.18382 0
M  V30 9670 H 912.899 -4.07269 1.08212 0
M  V30 9671 H 911.574 -3.22845 0.235123 0
M  V30 9672 H 910.481 -2.77594 2.50783 0
M  V30 9673 H 911.814 -3.66545 3.2849 0
M  V30 9674 N 913.466 -1.22244 -0.994698 0
M  V30 9675 C 914.376 -1.00722 -2.11878 0
M  V30 9676 C 915.392 0.043919 -1.73945 0
M  V30 9677 O 916.568 -0.148411 -2.00852 0
M  V30 9678 C 913.633 -0.585723 -3.41717 0
M  V30 9679 C 912.694 -1.71027 -3.93762 0
M  V30 9680 C 911.927 -1.30879 -5.17403 0
M  V30 9681 O 912.15 -0.18681 -5.70094 0
M  V30 9682 O 911.084 -2.1246 -5.63156 0
M  V30 9683 H 914.91 -1.94894 -2.32916 0
M  V30 9684 H 912.495 -1.00822 -1.10251 0
M  V30 9685 H 914.377 -0.360935 -4.19851 0
M  V30 9686 H 913.052 0.327166 -3.22042 0
M  V30 9687 H 911.959 -1.98956 -3.16808 0
M  V30 9688 H 913.292 -2.60096 -4.17865 0
M  V30 9689 N 914.944 1.19125 -1.03184 0
M  V30 9690 C 916.19 1.89163 -0.731111 0
M  V30 9691 C 916.523 1.79604 0.738662 0
M  V30 9692 O 915.798 1.19037 1.53819 0
M  V30 9693 C 916.081 3.39986 -1.18666 0
M  V30 9694 C 915.934 3.58401 -2.71788 0
M  V30 9695 C 917.253 4.33316 -0.769772 0
M  V30 9696 H 914.372 0.686908 -0.267069 0
M  V30 9697 H 917.014 1.40205 -1.28229 0
M  V30 9698 H 915.164 3.81813 -0.717736 0
M  V30 9699 H 916.836 3.25727 -3.26649 0
M  V30 9700 H 915.079 3.01355 -3.12038 0
M  V30 9701 H 915.75 4.64189 -2.98719 0
M  V30 9702 H 918.226 3.9922 -1.17314 0
M  V30 9703 H 917.102 5.37427 -1.11637 0
M  V30 9704 H 917.363 4.40884 0.327681 0
M  V30 9705 N 916.422 0.810101 1.35185 0
M  V30 9706 C 917.385 0.22852 2.28058 0
M  V30 9707 C 918.385 -0.586168 1.49735 0
M  V30 9708 O 919.575 -0.40414 1.69447 0
M  V30 9709 C 916.707 -0.681041 3.34028 0
M  V30 9710 H 917.9 1.04768 2.81005 0
M  V30 9711 H 915.453 0.58101 1.451 0
M  V30 9712 H 916.188 -1.52375 2.86273 0
M  V30 9713 H 915.973 -0.0985276 3.91976 0
M  V30 9714 H 917.463 -1.08217 4.03335 0
M  V30 9715 N 917.9 -1.47166 0.563914 0
M  V30 9716 C 919.316 -1.58018 0.224173 0
M  V30 9717 C 919.516 -1.56163 -1.27339 0
M  V30 9718 O 918.572 -1.4686 -2.05398 0
M  V30 9719 C 919.885 -2.88236 0.856762 0
M  V30 9720 C 921.433 -3.01833 0.82861 0
M  V30 9721 C 921.908 -4.34761 1.44039 0
M  V30 9722 N 923.399 -4.41413 1.40388 0
M  V30 9723 C 924.134 -5.42845 1.84681 0
M  V30 9724 N 923.63 -6.51052 2.3686 0
M  V30 9725 N 925.423 -5.33931 1.75711 0
M  V30 9726 H 917.574 -1.46615 1.53681 0
M  V30 9727 H 919.837 -0.698195 0.64127 0
M  V30 9728 H 919.543 -2.95349 1.90949 0
M  V30 9729 H 919.417 -3.75537 0.353766 0
M  V30 9730 H 921.804 -2.94312 -0.215451 0
M  V30 9731 H 921.885 -2.16056 1.36943 0
M  V30 9732 H 921.529 -4.43037 2.48355 0
M  V30 9733 H 921.459 -5.1928 0.874953 0
M  V30 9734 H 923.95 -3.63811 1.02227 0
M  V30 9735 H 924.263 -7.24633 2.68564 0
M  V30 9736 H 922.608 -6.51924 2.40875 0
M  V30 9737 H 925.799 -4.48295 1.34718 0
M  V30 9738 H 925.972 -6.12841 2.10547 0
M  V30 9739 N 919.378 -0.300708 -1.54705 0
M  V30 9740 C 920.606 0.31127 -2.04545 0
M  V30 9741 C 921.021 1.47542 -1.178 0
M  V30 9742 O 920.378 1.81361 -0.203571 0
M  V30 9743 C 920.429 0.767783 -3.53253 0
M  V30 9744 O 920.15 -0.350027 -4.36699 0
M  V30 9745 C 921.651 1.44494 -4.1909 0
M  V30 9746 H 918.871 0.067668 -0.667579 0
M  V30 9747 H 921.415 -0.440254 -1.99705 0
M  V30 9748 H 919.57 1.46933 -3.58454 0
M  V30 9749 H 919.984 0.00534038 -5.245 0
M  V30 9750 H 921.458 1.71553 -5.24665 0
M  V30 9751 H 921.935 2.3849 -3.68808 0
M  V30 9752 H 922.541 0.786581 -4.17963 0
M  V30 9753 N 920.856 1.57574 -0.0284266 0
M  V30 9754 C 922.102 1.92056 0.651327 0
M  V30 9755 C 922.435 0.905092 1.71819 0
M  V30 9756 O 921.71 -0.0722703 1.94366 0
M  V30 9757 C 921.993 3.37021 1.26841 0
M  V30 9758 C 921.846 4.49304 0.211157 0
M  V30 9759 C 923.165 3.81936 2.18662 0
M  V30 9760 H 920.284 0.698428 0.235304 0
M  V30 9761 H 922.926 1.89807 -0.0855435 0
M  V30 9762 H 921.076 3.39068 1.89644 0
M  V30 9763 H 922.748 4.5939 -0.419379 0
M  V30 9764 H 920.991 4.31317 -0.463445 0
M  V30 9765 H 921.662 5.47764 0.682518 0
M  V30 9766 H 924.138 3.8162 1.65847 0
M  V30 9767 H 923.014 4.84064 2.58792 0
M  V30 9768 H 923.275 3.174 3.07749 0
M  V30 9769 N 922.334 -0.244713 1.55689 0
M  V30 9770 C 923.282 -1.32276 1.91326 0
M  V30 9771 C 924.276 -1.49714 0.792589 0
M  V30 9772 O 925.482 -1.51163 0.977227 0
M  V30 9773 H 921.857 -0.442979 0.607679 0
M  V30 9774 H 923.828 -0.99486 2.81327 0
M  V30 9775 C 922.577 -2.67077 2.22633 0
M  V30 9776 H 921.9 -2.54458 3.08368 0
M  V30 9777 H 923.34 -3.41378 2.5147 0
M  V30 9778 C 921.799 -3.20335 1.04342 0
M  V30 9779 O 922.329 -4.00633 0.292543 0
M  V30 9780 N 920.535 -2.78392 0.833457 0
M  V30 9781 H 920.082 -2.13202 1.44577 0
M  V30 9782 H 920.04 -3.1437 0.0436713 0
M  V30 9783 N 923.813 -1.49104 -0.510467 0
M  V30 9784 C 925.059 -1.58346 -1.26705 0
M  V30 9785 C 925.392 -0.265121 -1.92382 0
M  V30 9786 O 924.667 0.730558 -1.80258 0
M  V30 9787 C 924.95 -2.7359 -2.34137 0
M  V30 9788 C 924.803 -4.1519 -1.73024 0
M  V30 9789 C 926.122 -2.84511 -3.3577 0
M  V30 9790 H 923.241 -0.57637 -0.459311 0
M  V30 9791 H 925.883 -1.81353 -0.566658 0
M  V30 9792 H 924.033 -2.54105 -2.93876 0
M  V30 9793 H 925.705 -4.46167 -1.17186 0
M  V30 9794 H 923.948 -4.21279 -1.03473 0
M  V30 9795 H 924.619 -4.91683 -2.50903 0
M  V30 9796 H 927.095 -3.0222 -2.86011 0
M  V30 9797 H 925.971 -3.6684 -4.08313 0
M  V30 9798 H 926.232 -1.93471 -3.97519 0
M  V30 9799 N 925.291 0.760815 -1.38019 0
M  V30 9800 C 926.537 1.52198 -1.34028 0
M  V30 9801 C 926.87 1.94067 0.0718309 0
M  V30 9802 O 926.145 1.64895 1.0315 0
M  V30 9803 C 926.428 2.77954 -2.2894 0
M  V30 9804 C 926.281 2.42269 -3.7898 0
M  V30 9805 C 927.6 3.79943 -2.22107 0
M  V30 9806 H 924.719 0.552131 -0.488181 0
M  V30 9807 H 927.361 0.871971 -1.6881 0
M  V30 9808 H 925.511 3.33419 -1.9941 0
M  V30 9809 H 927.183 1.92635 -4.19153 0
M  V30 9810 H 925.426 1.74822 -3.97014 0
M  V30 9811 H 926.097 3.32211 -4.4084 0
M  V30 9812 H 928.573 3.34 -2.4816 0
M  V30 9813 H 927.449 4.6564 -2.90639 0
M  V30 9814 H 927.71 4.25004 -1.21753 0
M  V30 9815 N 926.769 1.22769 0.988202 0
M  V30 9816 C 927.702 0.945196 2.07705 0
M  V30 9817 C 928.68 -0.11363 1.62202 0
M  V30 9818 O 929.864 0.0189624 1.8849 0
M  V30 9819 C 926.991 0.422474 3.36055 0
M  V30 9820 C 926.037 1.4667 4.00487 0
M  V30 9821 S 926.87 3.04158 4.40736 0
M  V30 9822 C 928.026 2.53536 5.7225 0
M  V30 9823 H 928.259 1.86723 2.31348 0
M  V30 9824 H 925.792 1.05928 1.12333 0
M  V30 9825 H 927.75 0.12748 4.10302 0
M  V30 9826 H 926.411 -0.478515 3.10434 0
M  V30 9827 H 925.604 1.05093 4.92921 0
M  V30 9828 H 925.206 1.71064 3.32585 0
M  V30 9829 H 927.498 1.95069 6.4881 0
M  V30 9830 H 928.441 3.44479 6.1866 0
M  V30 9831 H 928.849 1.94658 5.29876 0
M  V30 9832 N 928.247 -1.18576 1.03814 0
M  V30 9833 C 929.493 -1.88773 0.741132 0
M  V30 9834 C 929.826 -1.79993 -0.729127 0
M  V30 9835 O 929.101 -1.19851 -1.53186 0
M  V30 9836 C 929.384 -3.39352 1.20468 0
M  V30 9837 C 929.237 -3.56955 2.73684 0
M  V30 9838 C 930.556 -4.32901 0.792741 0
M  V30 9839 H 927.675 -0.685482 0.270708 0
M  V30 9840 H 930.317 -1.39523 1.2897 0
M  V30 9841 H 928.467 -3.81427 0.737974 0
M  V30 9842 H 930.139 -3.2399 3.28372 0
M  V30 9843 H 928.382 -2.99696 3.13632 0
M  V30 9844 H 929.053 -4.62598 3.01176 0
M  V30 9845 H 931.529 -3.98592 1.1943 0
M  V30 9846 H 930.405 -5.36828 1.14486 0
M  V30 9847 H 930.666 -4.41052 -0.304295 0
M  V30 9848 N 929.725 -0.817259 -1.34754 0
M  V30 9849 C 930.655 -0.249769 -2.3216 0
M  V30 9850 C 931.636 0.630663 -1.57977 0
M  V30 9851 O 932.821 0.558719 -1.85989 0
M  V30 9852 C 929.951 0.593825 -3.42186 0
M  V30 9853 C 928.905 -0.188997 -4.27583 0
M  V30 9854 C 928.231 0.776979 -5.29025 0
M  V30 9855 C 929.531 -1.39401 -5.03354 0
M  V30 9856 H 931.225 -1.06359 -2.79872 0
M  V30 9857 H 928.771 -0.512894 -1.34556 0
M  V30 9858 H 930.724 1.00097 -4.09339 0
M  V30 9859 H 929.448 1.44064 -2.93109 0
M  V30 9860 H 928.107 -0.577445 -3.62024 0
M  V30 9861 H 927.755 1.61959 -4.76212 0
M  V30 9862 H 927.455 0.257448 -5.87036 0
M  V30 9863 H 928.979 1.18211 -5.99048 0
M  V30 9864 H 930.393 -1.06117 -5.63393 0
M  V30 9865 H 928.79 -1.84878 -5.70912 0
M  V30 9866 H 929.86 -2.17515 -4.33377 0
M  V30 9867 N 931.203 1.46865 -0.571711 0
M  V30 9868 C 932.449 2.0273 -0.0531858 0
M  V30 9869 C 932.782 1.44353 1.29907 0
M  V30 9870 O 932.057 0.604488 1.84868 0
M  V30 9871 C 932.34 3.60092 0.0243831 0
M  V30 9872 C 932.193 4.28874 -1.35599 0
M  V30 9873 C 933.512 4.33994 0.730563 0
M  V30 9874 H 930.631 0.736706 -0.0208018 0
M  V30 9875 H 933.273 1.75132 -0.736794 0
M  V30 9876 H 931.423 3.83736 0.606565 0
M  V30 9877 H 933.095 4.16527 -1.98249 0
M  V30 9878 H 931.338 3.88664 -1.92674 0
M  V30 9879 H 932.009 5.37561 -1.25429 0
M  V30 9880 H 934.485 4.1543 0.236098 0
M  V30 9881 H 933.361 5.43699 0.753836 0
M  V30 9882 H 933.622 4.04257 1.78967 0
M  V30 9883 N 932.681 0.308908 1.54543 0
M  V30 9884 C 934.092 -0.182144 1.85809 0
M  V30 9885 C 934.443 -1.52796 1.23076 0
M  V30 9886 O 933.568 -2.09775 0.531358 0
M  V30 9887 C 934.163 -0.337275 3.37117 0
M  V30 9888 C 932.722 -0.772545 3.68387 0
M  V30 9889 C 931.869 0.114451 2.77064 0
M  V30 9890 H 934.82 0.529671 1.496 0
M  V30 9891 H 934.841 -1.17058 3.62046 0
M  V30 9892 H 934.353 0.642382 3.82747 0
M  V30 9893 H 932.454 -1.76247 3.2828 0
M  V30 9894 H 932.567 -0.586453 4.75497 0
M  V30 9895 H 930.931 -0.407581 2.51418 0
M  V30 9896 H 931.714 1.09061 3.25516 0
M  V30 9897 N 934.159 -1.57557 0.0367827 0
M  V30 9898 C 935.089 -2.13712 -0.940719 0
M  V30 9899 C 936.07 -1.05515 -1.33419 0
M  V30 9900 O 937.255 -1.33385 -1.41146 0
M  V30 9901 C 934.385 -2.67043 -2.22048 0
M  V30 9902 C 933.339 -3.80096 -1.96752 0
M  V30 9903 C 932.665 -4.19886 -3.31059 0
M  V30 9904 C 933.965 -5.05848 -1.30058 0
M  V30 9905 H 935.659 -2.9564 -0.473033 0
M  V30 9906 H 933.205 -1.42214 -0.226089 0
M  V30 9907 H 935.158 -3.04964 -2.90818 0
M  V30 9908 H 933.882 -1.82287 -2.70996 0
M  V30 9909 H 932.541 -3.42625 -1.30398 0
M  V30 9910 H 932.189 -3.32101 -3.77781 0
M  V30 9911 H 931.889 -4.96073 -3.14937 0
M  V30 9912 H 933.413 -4.60395 -4.01084 0
M  V30 9913 H 934.827 -5.41306 -1.8884 0
M  V30 9914 H 933.224 -5.87084 -1.24309 0
M  V30 9915 H 934.294 -4.84122 -0.274591 0
M  V30 9916 N 935.637 0.236453 -1.55816 0
M  V30 9917 C 936.567 1.29639 -1.94206 0
M  V30 9918 C 937.548 1.49667 -0.808319 0
M  V30 9919 O 938.733 1.621 -1.06945 0
M  V30 9920 C 935.863 2.64914 -2.24584 0
M  V30 9921 C 934.817 2.59565 -3.40308 0
M  V30 9922 C 934.143 3.98732 -3.56254 0
M  V30 9923 C 935.443 2.15642 -4.75706 0
M  V30 9924 H 937.137 0.977552 -2.82992 0
M  V30 9925 H 934.683 0.468804 -1.36155 0
M  V30 9926 H 936.636 3.39209 -2.50031 0
M  V30 9927 H 935.36 2.98455 -1.32636 0
M  V30 9928 H 934.019 1.87728 -3.14887 0
M  V30 9929 H 933.667 4.29556 -2.61707 0
M  V30 9930 H 933.367 3.96039 -4.34082 0
M  V30 9931 H 934.891 4.74711 -3.84033 0
M  V30 9932 H 936.305 2.79673 -5.00456 0
M  V30 9933 H 934.702 2.24039 -5.56711 0
M  V30 9934 H 935.772 1.10831 -4.72064 0
M  V30 9935 N 937.115 1.49373 0.502552 0
M  V30 9936 C 938.045 1.68839 1.61294 0
M  V30 9937 C 939.026 0.537096 1.61398 0
M  V30 9938 O 940.211 0.772764 1.78163 0
M  V30 9939 C 937.341 1.75347 2.99784 0
M  V30 9940 C 936.295 2.90251 3.14545 0
M  V30 9941 C 935.621 2.8187 4.54371 0
M  V30 9942 C 936.921 4.31207 2.94717 0
M  V30 9943 H 938.615 2.61803 1.45257 0
M  V30 9944 H 936.161 1.25987 0.697371 0
M  V30 9945 H 938.114 1.87552 3.77362 0
M  V30 9946 H 936.838 0.789814 3.16906 0
M  V30 9947 H 935.497 2.77646 2.39392 0
M  V30 9948 H 935.145 1.83416 4.68367 0
M  V30 9949 H 934.845 3.5899 4.65188 0
M  V30 9950 H 936.369 2.96081 5.34012 0
M  V30 9951 H 937.783 4.44501 3.62065 0
M  V30 9952 H 936.18 5.09536 3.17007 0
M  V30 9953 H 937.25 4.45759 1.90857 0
M  V30 9954 N 938.594 -0.753485 1.38421 0
M  V30 9955 C 939.524 -1.8808 1.38377 0
M  V30 9956 C 940.505 -1.68258 0.249664 0
M  V30 9957 O 941.69 -1.88848 0.45276 0
M  V30 9958 C 938.82 -3.25608 1.20818 0
M  V30 9959 C 937.774 -3.60032 2.31433 0
M  V30 9960 C 937.1 -4.96297 1.9898 0
M  V30 9961 C 938.4 -3.64898 3.73694 0
M  V30 9962 H 940.094 -1.88375 2.32713 0
M  V30 9963 H 937.64 -0.90489 1.12017 0
M  V30 9964 H 939.593 -4.04127 1.19412 0
M  V30 9965 H 938.317 -3.25793 0.229433 0
M  V30 9966 H 936.976 -2.83831 2.32025 0
M  V30 9967 H 936.624 -4.93043 0.995889 0
M  V30 9968 H 936.324 -5.20298 2.73063 0
M  V30 9969 H 937.848 -5.77196 1.99193 0
M  V30 9970 H 939.262 -4.33531 3.75132 0
M  V30 9971 H 937.659 -4.00407 4.46983 0
M  V30 9972 H 938.729 -2.65124 4.06002 0
M  V30 9973 N 940.072 -1.23292 -0.981677 0
M  V30 9974 C 941.002 -1.03738 -2.09191 0
M  V30 9975 C 941.983 0.0453041 -1.7004 0
M  V30 9976 O 943.168 -0.119092 -1.93834 0
M  V30 9977 C 940.298 -0.626426 -3.41604 0
M  V30 9978 C 939.252 -1.65631 -3.94652 0
M  V30 9979 C 938.578 -1.10084 -5.23245 0
M  V30 9980 C 939.878 -3.04903 -4.24066 0
M  V30 9981 H 941.572 -1.966 -2.25807 0
M  V30 9982 H 939.118 -0.946656 -1.0851 0
M  V30 9983 H 941.071 -0.476689 -4.18695 0
M  V30 9984 H 939.795 0.337873 -3.24848 0
M  V30 9985 H 938.454 -1.79402 -3.19704 0
M  V30 9986 H 938.102 -0.127562 -5.02838 0
M  V30 9987 H 937.802 -1.78896 -5.59705 0
M  V30 9988 H 939.326 -0.962928 -6.02959 0
M  V30 9989 H 940.74 -2.94441 -4.91912 0
M  V30 9990 H 939.137 -3.70941 -4.71724 0
M  V30 9991 H 940.207 -3.53991 -3.31389 0
M  V30 9992 N 941.55 1.18024 -1.04442 0
M  V30 9993 C 942.79 1.89787 -0.758957 0
M  V30 9994 C 943.154 1.78757 0.700707 0
M  V30 9995 O 944.355 2.45265 1.09994 0
M  V30 9996 C 942.626 3.36047 -1.21685 0
M  V30 9997 S 944.185 4.25864 -1.05761 0
M  V30 9998 H 941.003 0.655311 -0.275841 0
M  V30 9999 H 943.605 1.42589 -1.33749 0
M  V30 10000 H 942.309 3.41606 -2.2745 0
M  V30 10001 H 941.84 3.88286 -0.63227 0
M  V30 10002 H 943.855 4.96195 0.022729 0
M  V30 10003 N 943.028 0.824394 1.34319 0
M  V30 10004 C 944.274 0.413779 1.98534 0
M  V30 10005 C 944.607 -1.02089 1.65201 0
M  V30 10006 O 943.882 -1.71129 0.924402 0
M  V30 10007 C 944.165 0.61801 3.54757 0
M  V30 10008 C 944.018 2.0989 3.97827 0
M  V30 10009 C 945.337 0.0549041 4.40066 0
M  V30 10010 H 942.456 0.151815 0.721194 0
M  V30 10011 H 945.098 1.03723 1.5919 0
M  V30 10012 H 943.248 0.0873107 3.88402 0
M  V30 10013 H 944.92 2.69335 3.74508 0
M  V30 10014 H 943.163 2.58881 3.48085 0
M  V30 10015 H 943.834 2.1926 5.06586 0
M  V30 10016 H 946.31 0.508348 4.12983 0
M  V30 10017 H 945.186 0.227595 5.48428 0
M  V30 10018 H 945.447 -1.04025 4.29687 0
M  V30 10019 N 944.506 -1.46559 0.579492 0
M  V30 10020 C 945.436 -2.33059 -0.143437 0
M  V30 10021 C 946.417 -1.4515 -0.886868 0
M  V30 10022 O 947.602 -1.73973 -0.862961 0
M  V30 10023 C 944.732 -3.27364 -1.15973 0
M  V30 10024 C 943.686 -4.24689 -0.531348 0
M  V30 10025 C 943.012 -5.08479 -1.65388 0
M  V30 10026 C 944.312 -5.1961 0.529391 0
M  V30 10027 H 946.006 -2.93753 0.578762 0
M  V30 10028 H 943.552 -1.41256 0.279775 0
M  V30 10029 H 945.505 -3.86732 -1.67382 0
M  V30 10030 H 944.229 -2.64771 -1.91217 0
M  V30 10031 H 942.888 -3.6658 -0.0383749 0
M  V30 10032 H 942.536 -4.42273 -2.3959 0
M  V30 10033 H 942.236 -5.74387 -1.23909 0
M  V30 10034 H 943.76 -5.70709 -2.17079 0
M  V30 10035 H 945.174 -5.73212 0.100506 0
M  V30 10036 H 943.571 -5.93843 0.86432 0
M  V30 10037 H 944.641 -4.63737 1.4169 0
M  V30 10038 N 945.984 -0.3171 -1.54377 0
M  V30 10039 C 947.232 0.286842 -2.00054 0
M  V30 10040 C 947.553 1.53161 -1.20692 0
M  V30 10041 O 946.823 1.93479 -0.307045 0
M  V30 10042 H 945.403 0.108979 -0.739008 0
M  V30 10043 H 948.065 -0.432152 -1.90049 0
M  V30 10044 H 947.161 0.547729 -3.07256 0
M  V30 10045 N 947.462 1.57535 -0.0451378 0
M  V30 10046 C 948.392 2.14208 0.929372 0
M  V30 10047 C 949.373 1.06221 1.32858 0
M  V30 10048 O 950.558 1.34132 1.40436 0
M  V30 10049 C 947.688 2.68217 2.20629 0
M  V30 10050 C 946.642 3.81134 1.94734 0
M  V30 10051 C 945.968 4.21636 3.28828 0
M  V30 10052 C 947.268 5.06531 1.27374 0
M  V30 10053 H 948.962 2.95886 0.457348 0
M  V30 10054 H 946.508 1.42332 0.218544 0
M  V30 10055 H 948.461 3.06502 2.89196 0
M  V30 10056 H 947.185 1.83722 2.70026 0
M  V30 10057 H 945.844 3.43312 1.28579 0
M  V30 10058 H 945.492 3.34099 3.76014 0
M  V30 10059 H 945.192 4.97736 3.12302 0
M  V30 10060 H 946.716 4.62516 3.98637 0
M  V30 10061 H 948.13 5.423 1.85967 0
M  V30 10062 H 946.527 5.87735 1.21194 0
M  V30 10063 H 947.597 4.84261 0.248913 0
M  V30 10064 N 948.94 -0.228186 1.55939 0
M  V30 10065 C 950.168 -0.970618 1.8272 0
M  V30 10066 C 950.583 -1.78212 0.623385 0
M  V30 10067 O 949.94 -1.77879 -0.408063 0
M  V30 10068 C 949.991 -1.89352 3.07942 0
M  V30 10069 O 949.712 -1.11483 4.23678 0
M  V30 10070 C 951.213 -2.75039 3.47661 0
M  V30 10071 H 948.433 -0.284772 0.607574 0
M  V30 10072 H 950.977 -0.245419 2.03022 0
M  V30 10073 H 949.132 -2.57275 2.89635 0
M  V30 10074 H 949.546 -1.74073 4.94772 0
M  V30 10075 H 951.02 -3.35511 4.38334 0
M  V30 10076 H 951.497 -3.471 2.69106 0
M  V30 10077 H 952.103 -2.1254 3.68384 0
M  V30 10078 N 950.418 -1.49637 -0.494624 0
M  V30 10079 C 951.648 -1.62928 -1.27036 0
M  V30 10080 C 952.056 -0.302464 -1.86767 0
M  V30 10081 O 951.399 0.722878 -1.68879 0
M  V30 10082 C 951.461 -2.64449 -2.43531 0
M  V30 10083 C 951.125 -4.08632 -2.0462 0
M  V30 10084 C 952.122 -4.95238 -1.58225 0
M  V30 10085 C 949.807 -4.54405 -2.1406 0
M  V30 10086 C 951.801 -6.25658 -1.21782 0
M  V30 10087 C 949.488 -5.84836 -1.77228 0
M  V30 10088 C 950.486 -6.70287 -1.31165 0
M  V30 10089 O 950.174 -7.98287 -0.948339 0
M  V30 10090 H 949.906 -0.551263 -0.391261 0
M  V30 10091 H 952.46 -1.96453 -0.599621 0
M  V30 10092 H 950.69 -2.26117 -3.137 0
M  V30 10093 H 952.379 -2.67203 -3.05545 0
M  V30 10094 H 953.145 -4.611 -1.50373 0
M  V30 10095 H 949.024 -3.88056 -2.48865 0
M  V30 10096 H 952.568 -6.92309 -0.857566 0
M  V30 10097 H 948.465 -6.18502 -1.84732 0
M  V30 10098 H 949.233 -8.11353 -1.07925 0
M  V30 10099 N 951.896 0.746133 -1.38819 0
M  V30 10100 C 952.859 1.84167 -1.36437 0
M  V30 10101 C 953.859 1.58626 -0.263499 0
M  V30 10102 O 955.049 1.66233 -0.520801 0
M  V30 10103 C 952.181 3.21769 -1.12596 0
M  V30 10104 H 953.374 1.87684 -2.33912 0
M  V30 10105 H 950.927 0.948625 -1.24221 0
M  V30 10106 H 951.662 3.23917 -0.15758 0
M  V30 10107 H 951.447 3.41702 -1.92307 0
M  V30 10108 H 952.937 4.0184 -1.13643 0
M  V30 10109 N 953.375 1.23811 0.975125 0
M  V30 10110 C 954.305 1.04846 2.08638 0
M  V30 10111 C 955.286 -0.0362859 1.70061 0
M  V30 10112 O 956.471 0.12937 1.93769 0
M  V30 10113 C 953.601 0.644534 3.41267 0
M  V30 10114 C 952.555 1.67722 3.93768 0
M  V30 10115 C 951.881 1.12857 5.22654 0
M  V30 10116 C 953.181 3.07147 4.22443 0
M  V30 10117 H 954.875 1.97795 2.24761 0
M  V30 10118 H 952.421 0.952397 1.08006 0
M  V30 10119 H 954.374 0.498887 4.18436 0
M  V30 10120 H 953.098 -0.320641 3.25022 0
M  V30 10121 H 951.757 1.81095 3.18748 0
M  V30 10122 H 951.405 0.154227 5.02764 0
M  V30 10123 H 951.105 1.81862 5.58749 0
M  V30 10124 H 952.629 0.994891 6.0244 0
M  V30 10125 H 954.043 2.97045 4.90344 0
M  V30 10126 H 952.44 3.73437 4.6975 0
M  V30 10127 H 953.51 3.55743 3.29507 0
M  V30 10128 N 954.853 -1.17469 1.05066 0
M  V30 10129 C 956.099 -1.87976 0.761113 0
M  V30 10130 C 956.432 -1.80756 -0.709995 0
M  V30 10131 O 955.707 -1.21469 -1.51906 0
M  V30 10132 C 955.99 -3.38055 1.2406 0
M  V30 10133 C 955.843 -3.54032 2.77455 0
M  V30 10134 C 957.162 -4.32036 0.838612 0
M  V30 10135 H 954.281 -0.682573 0.277963 0
M  V30 10136 H 956.923 -1.38147 1.30443 0
M  V30 10137 H 955.073 -3.80622 0.778388 0
M  V30 10138 H 956.745 -3.20489 3.3179 0
M  V30 10139 H 954.988 -2.96352 3.16793 0
M  V30 10140 H 955.659 -4.59377 3.06066 0
M  V30 10141 H 958.135 -3.97303 1.23651 0
M  V30 10142 H 957.011 -5.35583 1.20173 0
M  V30 10143 H 957.272 -4.41349 -0.257498 0
M  V30 10144 N 956.331 -0.831506 -1.3388 0
M  V30 10145 C 957.263 -0.216908 -2.28171 0
M  V30 10146 C 958.276 0.598141 -1.51414 0
M  V30 10147 O 959.465 0.426416 -1.73332 0
M  V30 10148 C 956.565 0.713831 -3.31297 0
M  V30 10149 C 955.738 -0.0602673 -4.37358 0
M  V30 10150 C 954.797 0.792696 -5.20195 0
M  V30 10151 O 953.823 0.234564 -5.68716 0
M  V30 10152 N 955.025 2.11119 -5.40748 0
M  V30 10153 H 957.79 -1.02704 -2.81553 0
M  V30 10154 H 955.351 -0.689272 -1.46495 0
M  V30 10155 H 957.343 1.28925 -3.83615 0
M  V30 10156 H 955.913 1.42469 -2.78247 0
M  V30 10157 H 955.133 -0.817041 -3.8564 0
M  V30 10158 H 956.421 -0.592822 -5.05335 0
M  V30 10159 H 955.819 2.58828 -5.03016 0
M  V30 10160 H 954.376 2.63527 -5.96151 0
M  V30 10161 N 957.809 1.4625 -0.587256 0
M  V30 10162 C 958.742 2.27392 0.191837 0
M  V30 10163 C 959.72 1.35905 0.89267 0
M  V30 10164 O 960.904 1.65319 0.905643 0
M  V30 10165 C 958.031 3.13758 1.27567 0
M  V30 10166 C 957.077 4.21041 0.680186 0
M  V30 10167 S 957.91 5.33194 -0.496419 0
M  V30 10168 C 959.066 6.23127 0.588506 0
M  V30 10169 H 959.299 2.93123 -0.496635 0
M  V30 10170 H 956.832 1.49795 -0.37426 0
M  V30 10171 H 958.79 3.6408 1.8962 0
M  V30 10172 H 957.451 2.47332 1.93612 0
M  V30 10173 H 956.644 4.81316 1.49503 0
M  V30 10174 H 956.246 3.73755 0.135227 0
M  V30 10175 H 958.538 6.61294 1.47298 0
M  V30 10176 H 959.481 7.08096 0.0224093 0
M  V30 10177 H 959.889 5.57365 0.894696 0
M  V30 10178 N 959.287 0.325282 1.54207 0
M  V30 10179 C 960.219 -0.57395 2.21897 0
M  V30 10180 C 961.232 -1.0785 1.21952 0
M  V30 10181 O 962.421 -0.991782 1.48411 0
M  V30 10182 C 959.521 -1.8005 2.87115 0
M  V30 10183 C 958.694 -1.43435 4.13213 0
M  V30 10184 C 957.753 -2.51862 4.62009 0
M  V30 10185 O 956.779 -2.15934 5.26651 0
M  V30 10186 N 957.981 -3.8282 4.36382 0
M  V30 10187 H 960.746 0.00566918 2.99699 0
M  V30 10188 H 958.307 0.148563 1.61217 0
M  V30 10189 H 960.299 -2.51981 3.16682 0
M  V30 10190 H 958.869 -2.28792 2.13009 0
M  V30 10191 H 958.089 -0.546598 3.90392 0
M  V30 10192 H 959.377 -1.16544 4.95273 0
M  V30 10193 H 958.775 -4.14807 3.84645 0
M  V30 10194 H 957.332 -4.50976 4.70599 0
M  V30 10195 N 960.765 -1.57509 0.0534917 0
M  V30 10196 C 962.181 -1.56696 -0.303067 0
M  V30 10197 C 962.381 -1.06135 -1.71282 0
M  V30 10198 O 961.437 -0.71899 -2.42047 0
M  V30 10199 C 962.75 -3.00421 -0.129418 0
M  V30 10200 C 964.298 -3.12358 -0.200346 0
M  V30 10201 C 964.773 -4.57967 -0.0551971 0
M  V30 10202 N 966.264 -4.63066 -0.111398 0
M  V30 10203 C 966.999 -5.73395 -0.0232344 0
M  V30 10204 N 966.495 -6.92701 0.11741 0
M  V30 10205 N 968.288 -5.62045 -0.078984 0
M  V30 10206 H 960.439 -1.88696 0.975064 0
M  V30 10207 H 962.702 -0.869072 0.378706 0
M  V30 10208 H 962.408 -3.41456 0.842653 0
M  V30 10209 H 962.282 -3.66563 -0.889476 0
M  V30 10210 H 964.669 -2.71221 -1.16289 0
M  V30 10211 H 964.75 -2.48891 0.590506 0
M  V30 10212 H 964.394 -4.9979 0.904034 0
M  V30 10213 H 964.324 -5.19443 -0.865223 0
M  V30 10214 H 966.815 -3.77263 -0.219256 0
M  V30 10215 H 967.128 -7.72597 0.177326 0
M  V30 10216 H 965.473 -6.94833 0.152526 0
M  V30 10217 H 968.664 -4.67725 -0.187434 0
M  V30 10218 H 968.837 -6.48 -0.00681731 0
M  V30 10219 N 962.243 0.219913 -1.56058 0
M  V30 10220 C 963.19 1.27254 -1.92549 0
M  V30 10221 C 964.16 1.46493 -0.782883 0
M  V30 10222 O 965.345 1.60035 -1.03892 0
M  V30 10223 C 962.485 2.61756 -2.24896 0
M  V30 10224 C 961.598 2.50302 -3.52098 0
M  V30 10225 C 960.733 3.77338 -3.73884 0
M  V30 10226 C 959.772 3.60613 -4.94595 0
M  V30 10227 N 958.909 4.79603 -5.12763 0
M  V30 10228 H 963.749 0.954352 -2.82305 0
M  V30 10229 H 961.286 0.459928 -1.39725 0
M  V30 10230 H 963.244 3.40082 -2.4166 0
M  V30 10231 H 961.874 2.91668 -1.38311 0
M  V30 10232 H 960.926 1.63401 -3.43517 0
M  V30 10233 H 962.238 2.33866 -4.40577 0
M  V30 10234 H 961.392 4.64108 -3.90754 0
M  V30 10235 H 960.131 3.96702 -2.83689 0
M  V30 10236 H 959.136 2.72228 -4.77674 0
M  V30 10237 H 960.361 3.42719 -5.86277 0
M  V30 10238 H 958.307 4.99277 -4.2551 0
M  V30 10239 H 958.224 4.65899 -5.95377 0
M  V30 10240 H 959.492 5.67794 -5.34069 0
M  V30 10241 N 963.721 1.49897 0.486681 0
M  V30 10242 C 964.969 1.59789 1.23742 0
M  V30 10243 C 965.29 0.293056 1.92785 0
M  V30 10244 O 964.56 -0.688534 1.83401 0
M  V30 10245 H 963.14 0.588775 0.459731 0
M  V30 10246 H 965.802 1.86597 0.562808 0
M  V30 10247 H 964.898 2.40121 1.9937 0
M  V30 10248 N 965.199 -0.738761 1.39212 0
M  V30 10249 C 966.162 -1.83441 1.37412 0
M  V30 10250 C 967.162 -1.58484 0.271908 0
M  V30 10251 O 968.352 -1.65954 0.529609 0
M  V30 10252 C 965.484 -3.21167 1.143 0
M  V30 10253 H 966.677 -1.86441 2.34904 0
M  V30 10254 H 964.23 -0.942023 1.24722 0
M  V30 10255 H 964.965 -3.23829 0.174756 0
M  V30 10256 H 964.75 -3.40678 1.94116 0
M  V30 10257 H 966.24 -4.01231 1.15773 0
M  V30 10258 N 966.677 -1.24326 -0.968545 0
M  V30 10259 C 968.088 -1.07561 -1.52603 0
M  V30 10260 C 968.439 0.353245 -1.92994 0
M  V30 10261 O 967.564 1.24151 -1.77244 0
M  V30 10262 C 968.159 -1.94634 -2.77314 0
M  V30 10263 C 966.718 -1.82095 -3.29421 0
M  V30 10264 C 965.865 -1.8962 -2.02335 0
M  V30 10265 H 968.816 -1.37815 -0.786932 0
M  V30 10266 H 968.837 -1.47812 -3.50616 0
M  V30 10267 H 968.349 -2.98621 -2.47885 0
M  V30 10268 H 966.45 -0.809376 -3.63703 0
M  V30 10269 H 966.563 -2.66142 -3.98378 0
M  V30 10270 H 964.927 -1.33339 -2.17009 0
M  V30 10271 H 965.71 -2.95185 -1.75273 0
M  V30 10272 N 968.156 1.1691 -1.05688 0
M  V30 10273 C 969.572 1.39288 -0.779167 0
M  V30 10274 C 969.772 1.91587 0.624231 0
M  V30 10275 O 968.828 2.11072 1.38582 0
M  V30 10276 C 970.141 2.37914 -1.83895 0
M  V30 10277 C 971.689 2.51611 -1.86175 0
M  V30 10278 C 972.164 3.53514 -2.9119 0
M  V30 10279 N 973.655 3.61036 -2.90184 0
M  V30 10280 C 974.39 4.39657 -3.68088 0
M  V30 10281 N 973.886 5.21752 -4.55793 0
M  V30 10282 N 975.679 4.3458 -3.56507 0
M  V30 10283 H 967.83 0.81296 -1.96226 0
M  V30 10284 H 970.093 0.419818 -0.849975 0
M  V30 10285 H 969.799 2.06568 -2.84645 0
M  V30 10286 H 969.673 3.37483 -1.68479 0
M  V30 10287 H 972.06 2.82264 -0.86087 0
M  V30 10288 H 972.141 1.52099 -2.05668 0
M  V30 10289 H 971.785 3.23599 -3.91467 0
M  V30 10290 H 971.715 4.52742 -2.68947 0
M  V30 10291 H 974.206 3.02428 -2.26596 0
M  V30 10292 H 974.519 5.78939 -5.11907 0
M  V30 10293 H 972.864 5.21116 -4.59851 0
M  V30 10294 H 976.055 3.69501 -2.87379 0
M  V30 10295 H 976.228 4.95607 -4.17466 0
M  V30 10296 N 969.634 0.838594 1.33437 0
M  V30 10297 C 970.88 0.434813 1.98084 0
M  V30 10298 C 971.213 -1.00331 1.66275 0
M  V30 10299 O 970.488 -1.70139 0.942501 0
M  V30 10300 C 970.771 0.655602 3.54082 0
M  V30 10301 C 970.624 2.14097 3.95578 0
M  V30 10302 C 971.943 0.101576 4.39983 0
M  V30 10303 H 969.062 0.159456 0.719544 0
M  V30 10304 H 971.704 1.05406 1.58081 0
M  V30 10305 H 969.854 0.128501 3.88287 0
M  V30 10306 H 971.526 2.73292 3.71631 0
M  V30 10307 H 969.769 2.62558 3.4532 0
M  V30 10308 H 970.44 2.24621 5.04231 0
M  V30 10309 H 972.916 0.552122 4.12421 0
M  V30 10310 H 971.792 0.28575 5.48156 0
M  V30 10311 H 972.053 -0.994616 4.30767 0
M  V30 10312 N 971.112 -1.45937 0.595003 0
M  V30 10313 C 972.042 -2.33198 -0.11871 0
M  V30 10314 C 973.023 -1.46083 -0.871423 0
M  V30 10315 O 974.208 -1.74879 -0.844461 0
M  V30 10316 C 971.338 -3.28576 -1.12495 0
M  V30 10317 C 970.292 -4.25229 -0.486275 0
M  V30 10318 C 969.618 -5.10204 -1.59986 0
M  V30 10319 C 970.918 -5.19019 0.584473 0
M  V30 10320 H 972.612 -2.93122 0.609886 0
M  V30 10321 H 970.158 -1.40951 0.294742 0
M  V30 10322 H 972.111 -3.88485 -1.6327 0
M  V30 10323 H 970.835 -2.66784 -1.88398 0
M  V30 10324 H 969.494 -3.666 0.000507962 0
M  V30 10325 H 969.142 -4.44789 -2.34886 0
M  V30 10326 H 968.842 -5.75669 -1.1781 0
M  V30 10327 H 970.366 -5.7298 -2.11014 0
M  V30 10328 H 971.78 -5.73073 0.161297 0
M  V30 10329 H 970.177 -5.92893 0.927256 0
M  V30 10330 H 971.247 -4.62208 1.46601 0
M  V30 10331 N 972.59 -0.333456 -1.54032 0
M  V30 10332 C 973.52 0.52051 -2.27625 0
M  V30 10333 C 974.501 1.1111 -1.28797 0
M  V30 10334 O 975.686 1.13438 -1.57625 0
M  V30 10335 C 972.816 1.67663 -3.04149 0
M  V30 10336 C 971.77 1.21487 -4.10396 0
M  V30 10337 C 971.096 2.45872 -4.74817 0
M  V30 10338 C 972.396 0.322603 -5.21303 0
M  V30 10339 H 974.09 -0.0933823 -2.99254 0
M  V30 10340 H 971.636 -0.0463526 -1.43925 0
M  V30 10341 H 973.589 2.28041 -3.54366 0
M  V30 10342 H 972.313 2.31727 -2.30153 0
M  V30 10343 H 970.972 0.633966 -3.61077 0
M  V30 10344 H 970.62 3.0832 -3.97426 0
M  V30 10345 H 970.32 2.15662 -5.46593 0
M  V30 10346 H 971.844 3.06994 -5.27814 0
M  V30 10347 H 973.258 0.832942 -5.67217 0
M  V30 10348 H 971.655 0.112843 -5.99994 0
M  V30 10349 H 972.725 -0.643954 -4.80605 0
M  V30 10350 N 974.068 1.57479 -0.061844 0
M  V30 10351 C 975.298 1.97142 0.61794 0
M  V30 10352 C 975.706 0.938533 1.64281 0
M  V30 10353 O 975.049 -0.084385 1.83506 0
M  V30 10354 C 975.111 3.33083 1.35263 0
M  V30 10355 C 974.775 4.54447 0.482372 0
M  V30 10356 C 975.772 5.1927 -0.255954 0
M  V30 10357 C 973.457 5.00623 0.410167 0
M  V30 10358 C 975.451 6.28612 -1.05481 0
M  V30 10359 C 973.138 6.09839 -0.392369 0
M  V30 10360 C 974.136 6.73696 -1.12354 0
M  V30 10361 O 973.824 7.80811 -1.91285 0
M  V30 10362 H 973.556 0.653497 0.172969 0
M  V30 10363 H 976.11 2.05002 -0.127781 0
M  V30 10364 H 974.34 3.21808 2.14421 0
M  V30 10365 H 976.029 3.5742 1.92368 0
M  V30 10366 H 976.795 4.84546 -0.209703 0
M  V30 10367 H 972.674 4.50704 0.968883 0
M  V30 10368 H 976.218 6.78385 -1.62602 0
M  V30 10369 H 972.115 6.43997 -0.44022 0
M  V30 10370 H 972.883 7.9764 -1.83611 0
M  V30 10371 N 975.546 -0.211634 1.56173 0
M  V30 10372 C 976.786 -0.941505 1.81425 0
M  V30 10373 C 977.15 -1.8113 0.636862 0
M  V30 10374 O 978.351 -2.57568 0.768907 0
M  V30 10375 C 976.622 -1.75002 3.11623 0
M  V30 10376 S 978.181 -2.53418 3.58225 0
M  V30 10377 H 974.999 -0.316088 0.636875 0
M  V30 10378 H 977.601 -0.206244 1.94409 0
M  V30 10379 H 976.305 -1.10136 3.95346 0
M  V30 10380 H 975.836 -2.5274 3.01473 0
M  V30 10381 H 977.851 -3.77234 3.22349 0
M  V30 10382 N 977.024 -1.50153 -0.478725 0
M  V30 10383 C 977.971 -1.68458 -1.57767 0
M  V30 10384 C 978.941 -0.5259 -1.57555 0
M  V30 10385 O 980.126 -0.755574 -1.75202 0
M  V30 10386 C 977.266 -1.77772 -2.95789 0
M  V30 10387 C 976.379 -3.05092 -3.05848 0
M  V30 10388 C 975.514 -3.05247 -4.34739 0
M  V30 10389 C 974.553 -4.27053 -4.38512 0
M  V30 10390 N 973.69 -4.24991 -5.58862 0
M  V30 10391 H 978.53 -2.62282 -1.41464 0
M  V30 10392 H 976.067 -1.30023 -0.687921 0
M  V30 10393 H 978.025 -1.81152 -3.75819 0
M  V30 10394 H 976.655 -0.873944 -3.10744 0
M  V30 10395 H 975.707 -3.11219 -2.1874 0
M  V30 10396 H 977.019 -3.95075 -3.04495 0
M  V30 10397 H 976.173 -3.07314 -5.23109 0
M  V30 10398 H 974.912 -2.13081 -4.38689 0
M  V30 10399 H 973.917 -4.25206 -3.4854 0
M  V30 10400 H 975.142 -5.20437 -4.36259 0
M  V30 10401 H 973.088 -3.35674 -5.63612 0
M  V30 10402 H 973.005 -5.08734 -5.59219 0
M  V30 10403 H 974.273 -4.31193 -6.49379 0
M  V30 10404 N 978.502 0.731368 -1.39602 0
M  V30 10405 C 979.918 1.03739 -1.21286 0
M  V30 10406 C 980.118 2.01353 -0.0769875 0
M  V30 10407 O 979.174 2.45978 0.570193 0
M  V30 10408 C 980.487 1.59621 -2.54837 0
M  V30 10409 C 982.035 1.71683 -2.61713 0
M  V30 10410 C 982.51 2.30973 -3.95494 0
M  V30 10411 N 984.001 2.38378 -3.97153 0
M  V30 10412 C 984.736 2.852 -4.97442 0
M  V30 10413 N 984.232 3.31891 -6.08129 0
M  V30 10414 N 986.025 2.84441 -4.84819 0
M  V30 10415 H 978.176 0.0840456 -2.12234 0
M  V30 10416 H 980.439 0.0999038 -0.942721 0
M  V30 10417 H 980.145 0.953608 -3.38525 0
M  V30 10418 H 980.019 2.58375 -2.74813 0
M  V30 10419 H 982.406 2.35064 -1.78406 0
M  V30 10420 H 982.487 0.715714 -2.45583 0
M  V30 10421 H 982.131 1.68219 -4.79234 0
M  V30 10422 H 982.061 3.31769 -4.08946 0
M  V30 10423 H 984.552 2.05382 -3.17217 0
M  V30 10424 H 984.865 3.66138 -6.8056 0
M  V30 10425 H 983.21 3.2989 -6.11717 0
M  V30 10426 H 986.401 2.4729 -3.97448 0
M  V30 10427 H 986.574 3.20616 -5.63124 0
M  V30 10428 N 979.98 1.24838 0.961938 0
M  V30 10429 C 981.205 1.11967 1.7458 0
M  V30 10430 C 981.63 -0.323287 1.85301 0
M  V30 10431 O 980.988 -1.23412 1.32812 0
M  V30 10432 C 981.036 1.77066 3.14134 0
M  V30 10433 O 980.14 1.04534 3.98932 0
M  V30 10434 H 979.481 0.391338 0.536424 0
M  V30 10435 H 982.011 1.65259 1.20626 0
M  V30 10436 H 982.021 1.83056 3.64629 0
M  V30 10437 H 980.696 2.82052 3.05646 0
M  V30 10438 H 979.273 1.06372 3.57407 0
M  V30 10439 N 981.458 -1.16348 1.06306 0
M  V30 10440 C 982.388 -2.2291 0.695234 0
M  V30 10441 C 983.369 -1.67208 -0.312343 0
M  V30 10442 O 984.554 -1.93293 -0.187442 0
M  V30 10443 C 981.684 -3.47205 0.0810149 0
M  V30 10444 C 980.638 -4.15801 1.01458 0
M  V30 10445 C 979.964 -5.3405 0.263656 0
M  V30 10446 C 981.264 -4.66766 2.34365 0
M  V30 10447 H 982.958 -2.53934 1.58613 0
M  V30 10448 H 980.504 -1.22056 0.76409 0
M  V30 10449 H 982.457 -4.2098 -0.18818 0
M  V30 10450 H 981.181 -3.15482 -0.844897 0
M  V30 10451 H 979.84 -3.43954 1.26852 0
M  V30 10452 H 979.488 -4.9858 -0.665378 0
M  V30 10453 H 979.188 -5.80885 0.88582 0
M  V30 10454 H 980.712 -6.106 0.00200994 0
M  V30 10455 H 982.126 -5.3212 2.13356 0
M  V30 10456 H 980.523 -5.24223 2.9208 0
M  V30 10457 H 981.593 -3.82969 2.97426 0
M  V30 10458 N 982.937 -0.845659 -1.3299 0
M  V30 10459 C 983.869 -0.241097 -2.27928 0
M  V30 10460 C 984.882 0.582048 -1.5204 0
M  V30 10461 O 986.071 0.408008 -1.73774 0
M  V30 10462 C 983.171 0.678652 -3.32035 0
M  V30 10463 C 982.344 -0.106652 -4.3727 0
M  V30 10464 C 981.403 0.737478 -5.21006 0
M  V30 10465 O 980.429 0.174231 -5.68933 0
M  V30 10466 N 981.631 2.05372 -5.42957 0
M  V30 10467 H 984.396 -1.05685 -2.80448 0
M  V30 10468 H 981.957 -0.704771 -1.45755 0
M  V30 10469 H 983.949 1.24849 -3.84961 0
M  V30 10470 H 982.519 1.3951 -2.79742 0
M  V30 10471 H 981.739 -0.857897 -3.84752 0
M  V30 10472 H 983.027 -0.646386 -5.04677 0
M  V30 10473 H 982.425 2.53478 -5.05733 0
M  V30 10474 H 980.982 2.5719 -5.98913 0
M  V30 10475 N 984.415 1.45619 -0.602734 0
M  V30 10476 C 985.325 2.34288 0.120902 0
M  V30 10477 C 986.341 1.50952 0.865414 0
M  V30 10478 O 987.517 1.83768 0.824094 0
M  V30 10479 C 984.582 3.28489 1.10888 0
M  V30 10480 C 983.643 4.2773 0.366853 0
M  V30 10481 C 982.876 5.17429 1.30776 0
M  V30 10482 O 983.099 5.10459 2.54535 0
M  V30 10483 O 982.033 5.96459 0.807464 0
M  V30 10484 H 985.859 2.97559 -0.60765 0
M  V30 10485 H 983.444 1.44922 -0.363019 0
M  V30 10486 H 985.326 3.86549 1.67803 0
M  V30 10487 H 984.001 2.67789 1.81854 0
M  V30 10488 H 982.908 3.73299 -0.244643 0
M  V30 10489 H 984.241 4.91271 -0.302226 0
M  V30 10490 N 985.893 0.34162 1.53853 0
M  V30 10491 C 987.139 -0.248546 2.01876 0
M  V30 10492 C 987.494 -1.48352 1.22513 0
M  V30 10493 O 986.787 -1.89174 0.303919 0
M  V30 10494 C 986.981 -0.616989 3.52034 0
M  V30 10495 C 986.81 0.580727 4.45935 0
M  V30 10496 C 985.58 1.08544 4.93504 0
M  V30 10497 C 987.778 1.43858 4.93771 0
M  V30 10498 N 985.76 2.24568 5.71351 0
M  V30 10499 C 987.131 2.44575 5.69722 0
M  V30 10500 C 989.186 1.46425 4.75882 0
M  V30 10501 C 987.889 3.47687 6.29688 0
M  V30 10502 C 989.915 2.48416 5.36697 0
M  V30 10503 C 989.277 3.4786 6.12514 0
M  V30 10504 H 985.376 -0.0543067 0.780112 0
M  V30 10505 H 987.96 0.480749 1.88671 0
M  V30 10506 H 986.131 -1.31539 3.65448 0
M  V30 10507 H 987.863 -1.19018 3.86803 0
M  V30 10508 H 984.618 0.653832 4.69065 0
M  V30 10509 H 985.042 2.83143 6.14946 0
M  V30 10510 H 989.684 0.709044 4.16812 0
M  V30 10511 H 987.402 4.24103 6.87868 0
M  V30 10512 H 990.988 2.51227 5.24763 0
M  V30 10513 H 989.868 4.25486 6.58734 0
M  V30 10514 N 987.371 -1.57444 0.0701946 0
M  V30 10515 C 988.617 -1.93716 -0.600178 0
M  V30 10516 C 988.95 -0.950329 -1.69359 0
M  V30 10517 O 988.225 0.0207123 -1.94489 0
M  V30 10518 C 988.508 -3.40266 -1.17861 0
M  V30 10519 C 988.361 -4.49706 -0.0919575 0
M  V30 10520 C 989.68 -3.87599 -2.08459 0
M  V30 10521 H 986.799 -0.704421 -0.216704 0
M  V30 10522 H 989.441 -1.89514 0.135838 0
M  V30 10523 H 987.591 -3.43977 -1.80587 0
M  V30 10524 H 989.263 -4.58116 0.541031 0
M  V30 10525 H 987.506 -4.29937 0.577639 0
M  V30 10526 H 988.177 -5.49381 -0.537048 0
M  V30 10527 H 990.653 -3.85883 -1.5567 0
M  V30 10528 H 989.529 -4.90755 -2.45867 0
M  V30 10529 H 989.79 -3.25448 -2.99226 0
M  V30 10530 O 988.888 0.0704711 -1.61346 0
M  V30 10531 H 989.579 0.696202 -1.80756 0
M  V30 END ATOM
M  V30 BEGIN BOND
M  V30 END BOND
M  V30 END CTAB
M  END
$$$$
