drugbank_target|P51606 N-acylglucosamine 2-epimerase (DB00141)
 OpenBabel12092119243D

  0  0  0     0  0            999 V3000
M  V30 BEGIN CTAB
M  V30 COUNTS 6757 6856 0 0 0
M  V30 BEGIN ATOM
M  V30 1 H -0.908 1.98254 -0.117106 0
M  V30 2 N 0 1.576 0 0
M  V30 3 C 0.933 2.03868 1.02534 0
M  V30 4 C 1.911 0.928543 1.3348 0
M  V30 5 O 3.095 1.19667 1.45644 0
M  V30 6 C 0.222 2.43627 2.35294 0
M  V30 7 C -0.732 3.65373 2.2001 0
M  V30 8 S 0.101 5.13292 1.52614 0
M  V30 9 C 1.257 5.56322 2.86805 0
M  V30 10 H 1.49 2.90518 0.631377 0
M  V30 11 H -0.977 1.52953 0.210867 0
M  V30 12 H 0.981 2.67203 3.11629 0
M  V30 13 H -0.358 1.57376 2.7183 0
M  V30 14 H -1.165 3.90944 3.18086 0
M  V30 15 H -1.563 3.418 1.51819 0
M  V30 16 H 0.729 5.58782 3.83104 0
M  V30 17 H 1.672 6.56266 2.65933 0
M  V30 18 H 2.08 4.83886 2.90714 0
M  V30 19 N 1.4781 -0.272755 1.55222 0
M  V30 20 C 2.7031 -1.02683 1.80197 0
M  V30 21 C 3.1281 -1.79142 0.573551 0
M  V30 22 O 2.4861 -1.74917 -0.476849 0
M  V30 23 C 2.5341 -1.9609 3.02624 0
M  V30 24 O 1.6381 -3.04863 2.77727 0
M  V30 25 H 0.9791 -0.293557 0.595584 0
M  V30 26 H 3.5091 -0.30159 2.02365 0
M  V30 27 H 3.5191 -2.38039 3.31363 0
M  V30 28 H 2.1941 -1.39851 3.91682 0
M  V30 29 H 0.7711 -2.67228 2.60084 0
M  V30 30 N 2.9562 -1.48159 -0.537278 0
M  V30 31 C 3.9032 -1.62138 -1.64256 0
M  V30 32 C 4.8732 -0.463668 -1.59497 0
M  V30 33 O 6.0582 -0.686241 -1.78032 0
M  V30 34 C 3.1982 -1.66028 -3.02537 0
M  V30 35 C 2.3112 -2.92855 -3.17585 0
M  V30 36 C 1.4462 -2.87952 -4.46382 0
M  V30 37 C 0.4852 -4.09516 -4.54932 0
M  V30 38 N -0.3778 -4.02733 -5.75109 0
M  V30 39 H 4.4622 -2.56529 -1.51647 0
M  V30 40 H 1.9992 -1.27224 -0.738414 0
M  V30 41 H 3.9572 -1.66265 -3.82638 0
M  V30 42 H 2.5872 -0.751331 -3.13934 0
M  V30 43 H 1.6392 -3.02395 -2.30784 0
M  V30 44 H 2.9512 -3.82822 -3.19764 0
M  V30 45 H 2.1052 -2.8655 -5.34765 0
M  V30 46 H 0.8442 -1.95702 -4.46712 0
M  V30 47 H -0.1508 -4.11201 -3.64957 0
M  V30 48 H 1.0742 -5.02917 -4.56346 0
M  V30 49 H -0.9798 -3.13299 -5.76351 0
M  V30 50 H -1.0628 -4.86397 -5.78752 0
M  V30 51 H 0.2052 -4.05379 -6.65799 0
M  V30 52 N 4.4343 0.785586 -1.36625 0
M  V30 53 C 5.6823 1.54057 -1.30808 0
M  V30 54 C 6.0033 1.94683 0.111157 0
M  V30 55 O 5.2733 1.65241 1.05224 0
M  V30 56 H 3.8533 0.571354 -0.481211 0
M  V30 57 H 6.5153 0.935821 -1.70963 0
M  V30 58 H 5.6113 2.44637 -1.93801 0
M  V30 59 N 5.9124 1.20967 1.01018 0
M  V30 60 C 6.8424 0.988272 2.11555 0
M  V30 61 C 7.8234 -0.0849778 1.69888 0
M  V30 62 O 9.0084 0.0738202 1.9406 0
M  V30 63 C 6.1384 0.546528 3.42973 0
M  V30 64 C 5.0924 1.56375 3.9841 0
M  V30 65 C 4.4184 0.97842 5.25672 0
M  V30 66 C 5.7184 2.94922 4.31066 0
M  V30 67 H 7.4124 1.91276 2.30334 0
M  V30 68 H 4.9584 0.921073 1.1069 0
M  V30 69 H 6.9114 0.378839 4.19694 0
M  V30 70 H 5.6354 -0.413598 3.23971 0
M  V30 71 H 4.2944 1.71891 3.23804 0
M  V30 72 H 3.9424 0.0101688 5.02999 0
M  V30 73 H 3.6424 1.65784 5.63728 0
M  V30 74 H 5.1664 0.821939 6.05043 0
M  V30 75 H 6.5804 2.8288 4.9865 0
M  V30 76 H 4.9774 3.5983 4.80253 0
M  V30 77 H 6.0474 3.4616 3.39561 0
M  V30 78 N 7.3905 -1.2043 1.01659 0
M  V30 79 C 8.8015 -1.71517 0.737482 0
M  V30 80 C 9.1525 -1.81547 -0.743973 0
M  V30 81 O 8.2775 -1.47803 -1.58061 0
M  V30 82 C 8.8725 -3.11515 1.33206 0
M  V30 83 C 7.4315 -3.59912 1.10183 0
M  V30 84 C 6.5785 -2.37116 1.43776 0
M  V30 85 H 9.5295 -1.05444 1.18606 0
M  V30 86 H 9.5505 -3.73575 0.722636 0
M  V30 87 H 9.0625 -3.04182 2.41028 0
M  V30 88 H 7.1635 -3.72577 0.0412756 0
M  V30 89 H 7.2765 -4.44731 1.78188 0
M  V30 90 H 5.6405 -2.39857 0.856778 0
M  V30 91 H 6.4235 -2.32424 2.52654 0
M  V30 92 N 8.8686 -0.792821 -1.36206 0
M  V30 93 C 9.8316 -0.199459 -2.2833 0
M  V30 94 C 10.8316 0.605189 -1.48977 0
M  V30 95 O 12.0216 0.425685 -1.68919 0
M  V30 96 C 9.1536 0.723523 -3.33134 0
M  V30 97 H 10.3466 -1.01181 -2.82316 0
M  V30 98 H 7.8996 -0.562485 -1.45828 0
M  V30 99 H 8.6346 1.56008 -2.84309 0
M  V30 100 H 8.4196 0.148436 -3.91819 0
M  V30 101 H 9.9096 1.13344 -4.01924 0
M  V30 102 N 10.3467 1.47872 -0.545128 0
M  V30 103 C 11.7627 1.5829 -0.204032 0
M  V30 104 C 11.9627 1.54529 1.29317 0
M  V30 105 O 11.0187 1.44232 2.07252 0
M  V30 106 C 12.3317 2.89304 -0.819987 0
M  V30 107 C 13.8797 3.02864 -0.790105 0
M  V30 108 C 14.3547 4.3656 -1.38491 0
M  V30 109 N 15.8457 4.43165 -1.34755 0
M  V30 110 C 16.5807 5.45153 -1.77753 0
M  V30 111 N 16.0767 6.54016 -2.2855 0
M  V30 112 N 17.8697 5.36125 -1.68897 0
M  V30 113 H 10.0207 1.4856 -1.51802 0
M  V30 114 H 12.2837 0.706305 -0.632327 0
M  V30 115 H 11.9897 2.97757 -1.87173 0
M  V30 116 H 11.8637 3.75957 -0.305915 0
M  V30 117 H 14.2507 2.94014 0.252913 0
M  V30 118 H 14.3317 2.17782 -1.34181 0
M  V30 119 H 13.9757 4.46164 -2.42693 0
M  V30 120 H 13.9057 5.20353 -0.808754 0
M  V30 121 H 16.3967 3.65083 -0.975855 0
M  V30 122 H 16.7097 7.27994 -2.59314 0
M  V30 123 H 15.0547 6.54938 -2.32553 0
M  V30 124 H 18.2457 4.49975 -1.28998 0
M  V30 125 H 18.4187 6.15472 -2.02726 0
M  V30 126 N 11.8248 0.280983 1.55075 0
M  V30 127 C 12.7568 -0.637268 2.20163 0
M  V30 128 C 13.7698 -1.11298 1.18813 0
M  V30 129 O 14.9588 -1.03388 1.4551 0
M  V30 130 C 12.0588 -1.88199 2.81841 0
M  V30 131 C 11.2318 -1.55211 4.08936 0
M  V30 132 C 10.2908 -2.64991 4.54606 0
M  V30 133 O 9.3168 -2.30929 5.2025 0
M  V30 134 N 10.5188 -3.95161 4.25238 0
M  V30 135 H 13.2838 -0.0801694 2.99593 0
M  V30 136 H 10.8448 0.102329 1.61576 0
M  V30 137 H 12.8368 -2.60948 3.09335 0
M  V30 138 H 11.4068 -2.34799 2.06369 0
M  V30 139 H 10.6268 -0.658185 3.88666 0
M  V30 140 H 11.9148 -1.30681 4.91732 0
M  V30 141 H 11.3128 -4.25653 3.72607 0
M  V30 142 H 9.8698 -4.6427 4.5749 0
M  V30 143 N 13.3029 -1.57598 0.00835791 0
M  V30 144 C 14.5799 -1.82172 -0.712235 0
M  V30 145 C 14.9599 -0.887873 -1.9152 0
M  V30 146 O 14.3079 0.06146 -2.28417 0
M  V30 147 C 14.5179 -3.30875 -1.11008 0
M  V30 148 C 15.8659 -3.96826 -1.51044 0
M  V30 149 O 16.8899 -3.35248 -1.20364 0
M  V30 150 O 15.7489 -5.05318 -2.08125 0
M  V30 151 H 12.8429 -0.750435 -0.347529 0
M  V30 152 H 15.3889 -1.69665 0.0344523 0
M  V30 153 H 14.1609 -3.90481 -0.252982 0
M  V30 154 H 13.7839 -3.48412 -1.9156 0
M  V30 155 N 14.781 0.264519 -1.55364 0
M  V30 156 C 15.714 1.35297 -1.83766 0
M  V30 157 C 16.692 1.47171 -0.691336 0
M  V30 158 O 17.876 1.63663 -0.935238 0
M  V30 159 C 15.003 2.72847 -2.00679 0
M  V30 160 C 14.049 2.78214 -3.23263 0
M  V30 161 S 14.882 2.36601 -4.80396 0
M  V30 162 C 16.038 3.7611 -5.00292 0
M  V30 163 H 16.271 1.11003 -2.758 0
M  V30 164 H 13.804 0.464596 -1.47244 0
M  V30 165 H 15.762 3.52057 -2.11108 0
M  V30 166 H 14.423 2.94388 -1.09518 0
M  V30 167 H 13.616 3.7919 -3.3201 0
M  V30 168 H 13.218 2.07034 -3.11469 0
M  V30 169 H 15.51 4.71457 -4.86554 0
M  V30 170 H 16.453 3.7231 -6.02321 0
M  V30 171 H 16.861 3.67806 -4.28228 0
M  V30 172 N 16.2591 1.48442 0.529413 0
M  V30 173 C 17.1691 1.6569 1.66084 0
M  V30 174 C 18.1851 0.539432 1.65427 0
M  V30 175 O 19.3611 0.810572 1.84368 0
M  V30 176 C 16.4261 1.69315 3.02545 0
M  V30 177 C 15.4871 2.92694 3.14052 0
M  V30 178 C 14.7201 2.96137 4.44003 0
M  V30 179 O 14.9431 2.07973 5.31134 0
M  V30 180 O 13.8771 3.88312 4.59888 0
M  V30 181 H 17.7031 2.61483 1.54469 0
M  V30 182 H 15.2881 1.3185 0.702567 0
M  V30 183 H 17.1701 1.74217 3.83701 0
M  V30 184 H 15.8451 0.766966 3.14483 0
M  V30 185 H 14.7521 2.93324 2.32189 0
M  V30 186 H 16.0851 3.84699 3.0703 0
M  V30 187 N 17.7372 -0.778329 1.37039 0
M  V30 188 C 18.6842 -1.89139 1.32269 0
M  V30 189 C 19.6542 -1.65017 0.189387 0
M  V30 190 O 20.8392 -1.87024 0.377693 0
M  V30 191 C 17.9792 -3.26112 1.12894 0
M  V30 192 C 17.0922 -3.62233 2.35396 0
M  V30 193 C 16.2272 -4.8838 2.08946 0
M  V30 194 C 15.2662 -5.17212 3.2735 0
M  V30 195 N 14.4032 -6.34546 3.00492 0
M  V30 196 H 19.2432 -1.92552 2.27437 0
M  V30 197 H 16.7802 -0.941473 1.13025 0
M  V30 198 H 18.7382 -4.05116 0.996835 0
M  V30 199 H 17.3682 -3.22091 0.213758 0
M  V30 200 H 16.4202 -2.78265 2.5937 0
M  V30 201 H 17.7322 -3.79481 3.23721 0
M  V30 202 H 16.8862 -5.75274 1.92729 0
M  V30 203 H 15.6252 -4.73222 1.17949 0
M  V30 204 H 14.6302 -4.28796 3.44113 0
M  V30 205 H 15.8552 -5.34283 4.19188 0
M  V30 206 H 13.8012 -6.20759 2.12118 0
M  V30 207 H 13.7182 -6.52179 3.82358 0
M  V30 208 H 14.9862 -7.24394 2.87879 0
M  V30 209 N 19.2153 -1.21501 -1.00376 0
M  V30 210 C 20.1253 -0.991447 -2.12621 0
M  V30 211 C 21.1413 0.0568446 -1.73907 0
M  V30 212 O 22.3173 -0.13348 -2.00957 0
M  V30 213 C 19.3823 -0.560312 -3.42142 0
M  V30 214 C 18.4433 -1.68096 -3.95022 0
M  V30 215 C 17.6763 -1.2703 -5.18362 0
M  V30 216 O 17.8993 -0.144438 -5.70217 0
M  V30 217 O 16.8333 -2.08269 -5.64719 0
M  V30 218 H 20.6593 -1.93158 -2.34358 0
M  V30 219 H 18.2443 -0.999999 -1.10997 0
M  V30 220 H 20.1263 -0.329724 -4.20108 0
M  V30 221 H 18.8013 0.351089 -3.2179 0
M  V30 222 H 17.7083 -1.96597 -3.18278 0
M  V30 223 H 19.0413 -2.56983 -4.19786 0
M  V30 224 N 20.6934 1.19889 -1.02296 0
M  V30 225 C 22.1094 1.41462 -0.738954 0
M  V30 226 C 22.3094 1.89721 0.678846 0
M  V30 227 O 21.3654 2.07016 1.4457 0
M  V30 228 C 22.6784 2.43083 -1.77005 0
M  V30 229 C 24.2264 2.5684 -1.78892 0
M  V30 230 C 24.7014 3.61709 -2.80945 0
M  V30 231 N 26.1924 3.69199 -2.79725 0
M  V30 232 C 26.9274 4.50019 -3.55345 0
M  V30 233 N 26.4234 5.34592 -4.40662 0
M  V30 234 N 28.2164 4.44612 -3.43914 0
M  V30 235 H 20.3674 0.868827 -1.93817 0
M  V30 236 H 22.6304 0.44399 -0.837602 0
M  V30 237 H 22.3364 2.14636 -2.78612 0
M  V30 238 H 22.2104 3.4217 -1.58744 0
M  V30 239 H 24.5974 2.84614 -0.779674 0
M  V30 240 H 24.6784 1.57927 -2.01228 0
M  V30 241 H 24.3224 3.34678 -3.82038 0
M  V30 242 H 24.2524 4.60259 -2.5587 0
M  V30 243 H 26.7434 3.08794 -2.17842 0
M  V30 244 H 27.0564 5.93363 -4.95116 0
M  V30 245 H 25.4014 5.34073 -4.44737 0
M  V30 246 H 28.5924 3.7758 -2.76679 0
M  V30 247 H 28.7654 5.0736 -4.031 0
M  V30 248 N 22.1715 0.800033 1.35784 0
M  V30 249 C 23.0815 0.207204 2.33683 0
M  V30 250 C 24.0975 -0.64631 1.61551 0
M  V30 251 O 25.2735 -0.559604 1.93469 0
M  V30 252 C 22.3385 -0.639659 3.40748 0
M  V30 253 C 21.3995 0.233585 4.28664 0
M  V30 254 C 20.6325 -0.572954 5.30616 0
M  V30 255 O 20.8555 -1.80816 5.40982 0
M  V30 256 O 19.7895 0.0327285 6.01891 0
M  V30 257 H 23.6155 1.01692 2.86169 0
M  V30 258 H 21.2005 0.561691 1.38439 0
M  V30 259 H 23.0825 -1.12223 4.06182 0
M  V30 260 H 21.7575 -1.42708 2.90544 0
M  V30 261 H 20.6645 0.763147 3.66233 0
M  V30 262 H 21.9975 0.984784 4.82248 0
M  V30 263 N 23.6496 -1.47581 0.552962 0
M  V30 264 C 24.8776 -2.06875 0.0320556 0
M  V30 265 C 25.2926 -1.40625 -1.25976 0
M  V30 266 O 24.6496 -0.501349 -1.75479 0
M  V30 267 C 24.7006 -3.61092 -0.17167 0
M  V30 268 O 24.4216 -4.24858 1.06899 0
M  V30 269 C 25.9226 -4.37242 -0.730344 0
M  V30 270 H 23.1426 -0.669561 0.043915 0
M  V30 271 H 25.6866 -1.89646 0.765163 0
M  V30 272 H 23.8416 -3.7785 -0.854894 0
M  V30 273 H 24.2556 -5.17334 0.864059 0
M  V30 274 H 25.7296 -5.45842 -0.822203 0
M  V30 275 H 26.2066 -4.03235 -1.74064 0
M  V30 276 H 26.8126 -4.25219 -0.0829543 0
M  V30 277 N 25.1277 -0.289203 -1.54924 0
M  V30 278 C 26.0577 0.58549 -2.2604 0
M  V30 279 C 27.0387 1.14753 -1.25562 0
M  V30 280 O 28.2237 1.17906 -1.54311 0
M  V30 281 C 25.3537 1.76305 -2.99222 0
M  V30 282 C 24.3077 1.33191 -4.06748 0
M  V30 283 C 23.6337 2.5937 -4.6758 0
M  V30 284 C 24.9337 0.471775 -5.20165 0
M  V30 285 H 26.6277 -0.00763532 -2.99399 0
M  V30 286 H 24.1737 -0.00511229 -1.43999 0
M  V30 287 H 26.1267 2.38097 -3.47689 0
M  V30 288 H 24.8507 2.38223 -2.23422 0
M  V30 289 H 23.5097 0.737121 -3.59113 0
M  V30 290 H 23.1577 3.19576 -3.88433 0
M  V30 291 H 22.8577 2.31228 -5.40192 0
M  V30 292 H 24.3817 3.21985 -5.18804 0
M  V30 293 H 25.7957 0.995056 -5.64599 0
M  V30 294 H 24.1927 0.284639 -5.99425 0
M  V30 295 H 25.2627 -0.506041 -4.82252 0
M  V30 296 N 26.6058 1.57591 -0.0167156 0
M  V30 297 C 27.5378 2.06343 0.997753 0
M  V30 298 C 28.5508 0.984469 1.29661 0
M  V30 299 O 29.7398 1.26093 1.26344 0
M  V30 300 C 26.8398 2.46255 2.32834 0
M  V30 301 C 26.0128 3.77083 2.21646 0
M  V30 302 C 25.0718 4.0368 3.37534 0
M  V30 303 O 24.0978 4.7411 3.14973 0
M  V30 304 N 25.2998 3.52881 4.60929 0
M  V30 305 H 28.0648 2.93997 0.581875 0
M  V30 306 H 25.6258 1.61002 0.170316 0
M  V30 307 H 27.6178 2.61149 3.09166 0
M  V30 308 H 26.1878 1.64032 2.66106 0
M  V30 309 H 25.4078 3.72106 1.30119 0
M  V30 310 H 26.6958 4.62822 2.11361 0
M  V30 311 H 26.0938 2.95878 4.82154 0
M  V30 312 H 24.6508 3.73076 5.34469 0
M  V30 313 N 28.0839 -0.256276 1.55502 0
M  V30 314 C 29.0469 -1.30047 1.88734 0
M  V30 315 C 30.0469 -1.4154 0.763086 0
M  V30 316 O 31.2369 -1.40403 1.03115 0
M  V30 317 C 28.3689 -2.67953 2.10747 0
M  V30 318 H 29.5619 -1.01802 2.82093 0
M  V30 319 H 27.1149 -0.495134 1.4825 0
M  V30 320 H 27.8499 -3.01351 1.19825 0
M  V30 321 H 27.6349 -2.60993 2.92617 0
M  V30 322 H 29.1249 -3.43368 2.37673 0
M  V30 323 N 29.562 -1.4872 -0.521534 0
M  V30 324 C 30.808 -1.58378 -1.27624 0
M  V30 325 C 31.163 -0.258028 -1.90662 0
M  V30 326 O 30.456 0.739917 -1.76736 0
M  V30 327 C 30.65 -2.66497 -2.38148 0
M  V30 328 C 30.479 -4.09456 -1.85945 0
M  V30 329 C 29.249 -4.76495 -1.68168 0
M  V30 330 C 31.447 -4.95353 -1.3831 0
M  V30 331 N 29.429 -6.0384 -1.1068 0
M  V30 332 C 30.8 -6.13012 -0.928238 0
M  V30 333 C 32.855 -4.81512 -1.26692 0
M  V30 334 C 31.558 -7.18354 -0.368701 0
M  V30 335 C 33.584 -5.86984 -0.721368 0
M  V30 336 C 32.946 -7.03857 -0.276623 0
M  V30 337 H 29.045 -0.634045 -0.457724 0
M  V30 338 H 31.629 -1.85639 -0.587049 0
M  V30 339 H 29.8 -2.41043 -3.04553 0
M  V30 340 H 31.532 -2.65791 -3.05184 0
M  V30 341 H 28.287 -4.32962 -1.91939 0
M  V30 342 H 28.711 -6.71778 -0.839217 0
M  V30 343 H 33.353 -3.91487 -1.5968 0
M  V30 344 H 31.071 -8.08096 -0.0265122 0
M  V30 345 H 34.657 -5.78329 -0.634531 0
M  V30 346 H 33.537 -7.84077 0.138947 0
M  V30 347 N 31.0401 0.771051 -1.3745 0
M  V30 348 C 31.9871 1.88435 -1.3327 0
M  V30 349 C 32.9571 1.64914 -0.198136 0
M  V30 350 O 34.1421 1.86821 -0.387606 0
M  V30 351 C 31.2821 3.25509 -1.14622 0
M  V30 352 C 30.3951 3.60979 -2.37314 0
M  V30 353 C 29.5301 4.87265 -2.11533 0
M  V30 354 C 28.5691 5.15469 -3.30088 0
M  V30 355 N 27.7061 6.32944 -3.03853 0
M  V30 356 H 32.5461 1.91344 -2.28455 0
M  V30 357 H 30.0831 0.935466 -1.13523 0
M  V30 358 H 32.0411 4.04582 -1.01831 0
M  V30 359 H 30.6711 3.21974 -0.230837 0
M  V30 360 H 29.7231 2.76885 -2.60842 0
M  V30 361 H 31.0351 3.77759 -3.25729 0
M  V30 362 H 30.1891 5.74244 -1.95777 0
M  V30 363 H 28.9281 4.7259 -1.20457 0
M  V30 364 H 27.9331 4.26966 -3.46382 0
M  V30 365 H 29.1581 5.32052 -4.22016 0
M  V30 366 H 27.1041 6.19625 -2.15407 0
M  V30 367 H 27.0211 6.50143 -3.85812 0
M  V30 368 H 28.2891 7.22857 -2.91716 0
M  V30 369 N 32.5182 1.22032 0.997298 0
M  V30 370 C 33.4282 1.00271 2.12092 0
M  V30 371 C 34.4442 -0.047621 1.73935 0
M  V30 372 O 35.6202 0.144136 2.00884 0
M  V30 373 C 32.6852 0.578449 3.4184 0
M  V30 374 C 31.7462 1.70189 3.94125 0
M  V30 375 C 30.9792 1.29778 5.17681 0
M  V30 376 O 31.2022 0.174676 5.70132 0
M  V30 377 O 30.1362 2.11261 5.63607 0
M  V30 378 H 33.9622 1.94398 2.3333 0
M  V30 379 H 31.5472 1.00587 1.10465 0
M  V30 380 H 33.4292 0.351998 4.19927 0
M  V30 381 H 32.1042 -0.334019 3.21972 0
M  V30 382 H 31.0112 1.98282 3.1723 0
M  V30 383 H 32.3442 2.59206 4.18417 0
M  V30 384 N 33.9963 -1.19345 1.0293 0
M  V30 385 C 35.4123 -1.41069 0.746446 0
M  V30 386 C 35.6123 -1.90078 -0.668776 0
M  V30 387 O 34.6683 -2.0778 -1.4347 0
M  V30 388 C 35.9813 -2.42141 1.78292 0
M  V30 389 C 37.5293 -2.55887 1.80252 0
M  V30 390 C 38.0043 -3.60214 2.8286 0
M  V30 391 N 39.4953 -3.67711 2.81679 0
M  V30 392 C 40.2303 -4.48128 3.57727 0
M  V30 393 N 39.7263 -5.32248 4.43491 0
M  V30 394 N 41.5193 -4.42782 3.46267 0
M  V30 395 H 33.6703 -0.858536 1.94275 0
M  V30 396 H 35.9333 -0.439541 0.839945 0
M  V30 397 H 35.6393 -2.13155 2.79746 0
M  V30 398 H 35.5133 -3.41323 1.60557 0
M  V30 399 H 37.9003 -2.84196 0.794757 0
M  V30 400 H 37.9813 -1.56858 2.02062 0
M  V30 401 H 37.6253 -3.32647 3.83807 0
M  V30 402 H 37.5553 -4.58895 2.58307 0
M  V30 403 H 40.0463 -3.07634 2.19476 0
M  V30 404 H 40.3593 -5.90729 4.98256 0
M  V30 405 H 38.7043 -5.31707 4.47564 0
M  V30 406 H 41.8953 -3.76107 2.78677 0
M  V30 407 H 42.0683 -5.05215 4.05785 0
M  V30 408 N 35.4744 -0.807222 -1.35358 0
M  V30 409 C 36.7204 -0.388463 -1.99045 0
M  V30 410 C 37.0534 1.04184 -1.63888 0
M  V30 411 O 36.3284 1.72292 -0.902535 0
M  V30 412 C 36.6114 -0.572783 -3.55515 0
M  V30 413 C 36.4644 -2.04807 -4.00468 0
M  V30 414 C 37.7834 0.00114064 -4.401 0
M  V30 415 H 34.9024 -0.142619 -0.723069 0
M  V30 416 H 37.5444 -1.01687 -1.60498 0
M  V30 417 H 35.6944 -0.0378425 -3.88482 0
M  V30 418 H 37.3664 -2.64544 -3.77908 0
M  V30 419 H 35.6094 -2.54427 -3.51353 0
M  V30 420 H 36.2804 -2.12792 -5.09337 0
M  V30 421 H 38.7564 -0.455716 -4.13597 0
M  V30 422 H 37.6324 -0.157737 -5.48673 0
M  V30 423 H 37.8934 1.09488 -4.28328 0
M  V30 424 N 36.9525 1.47285 -0.560781 0
M  V30 425 C 38.2005 2.02064 -0.0379868 0
M  V30 426 C 38.5215 1.43711 1.31803 0
M  V30 427 O 37.7915 0.61362 1.86042 0
M  V30 428 H 36.3715 0.746918 -0.0110531 0
M  V30 429 H 39.0335 1.80648 -0.731598 0
M  V30 430 H 38.1295 3.12064 0.0474463 0
M  V30 431 N 38.4306 0.297415 1.54768 0
M  V30 432 C 39.3626 -0.613881 2.20826 0
M  V30 433 C 40.3756 -1.10032 1.19987 0
M  V30 434 O 41.5646 -1.01839 1.46598 0
M  V30 435 C 38.6646 -1.852 2.83821 0
M  V30 436 C 37.8376 -1.50865 4.10559 0
M  V30 437 C 36.8966 -2.60154 4.57391 0
M  V30 438 O 35.9226 -2.25398 5.2267 0
M  V30 439 N 37.1246 -3.90629 4.29406 0
M  V30 440 H 39.8896 -0.048389 2.99661 0
M  V30 441 H 37.4506 0.11946 1.61459 0
M  V30 442 H 39.4426 -2.57652 3.12086 0
M  V30 443 H 38.0126 -2.32597 2.08847 0
M  V30 444 H 37.2326 -0.616925 3.89343 0
M  V30 445 H 38.5206 -1.25458 4.9309 0
M  V30 446 H 37.9186 -4.21677 3.77101 0
M  V30 447 H 36.4756 -4.59391 4.62388 0
M  V30 448 N 39.9087 -1.5758 0.0250728 0
M  V30 449 C 40.8187 -2.1343 -0.973905 0
M  V30 450 C 41.8347 -1.08556 -1.35984 0
M  V30 451 O 43.0107 -1.40592 -1.44207 0
M  V30 452 C 40.0757 -2.64703 -2.23904 0
M  V30 453 C 39.1367 -3.84276 -1.91391 0
M  V30 454 C 38.3697 -4.33095 -3.11873 0
M  V30 455 O 38.5927 -3.81107 -4.24398 0
M  V30 456 O 37.5267 -5.24984 -2.94406 0
M  V30 457 H 41.3527 -2.99057 -0.529036 0
M  V30 458 H 38.9377 -1.48118 -0.195288 0
M  V30 459 H 40.8197 -2.97769 -2.98181 0
M  V30 460 H 39.4947 -1.82161 -2.6758 0
M  V30 461 H 38.4017 -3.56143 -1.14511 0
M  V30 462 H 39.7347 -4.67968 -1.52534 0
M  V30 463 N 41.3868 0.248026 -1.55636 0
M  V30 464 C 42.3168 1.31079 -1.93237 0
M  V30 465 C 43.2978 1.50264 -0.797174 0
M  V30 466 O 44.4828 1.62891 -1.05737 0
M  V30 467 C 41.6128 2.66575 -2.22609 0
M  V30 468 C 40.5668 2.62087 -3.3837 0
M  V30 469 C 39.8928 4.01369 -3.53281 0
M  V30 470 C 41.1928 2.19171 -4.7409 0
M  V30 471 H 42.8868 0.998556 -2.82257 0
M  V30 472 H 40.4328 0.47891 -1.35803 0
M  V30 473 H 42.3858 3.41057 -2.47503 0
M  V30 474 H 41.1098 2.99432 -1.30414 0
M  V30 475 H 39.7688 1.90063 -3.13483 0
M  V30 476 H 39.4168 4.31489 -2.58508 0
M  V30 477 H 39.1168 3.99254 -4.31127 0
M  V30 478 H 40.6408 4.77552 -3.80495 0
M  V30 479 H 42.0548 2.83384 -4.98363 0
M  V30 480 H 40.4518 2.2817 -5.5503 0
M  V30 481 H 41.5218 1.14336 -4.71227 0
M  V30 482 N 42.8649 1.48995 0.513639 0
M  V30 483 C 44.1419 1.48338 1.27495 0
M  V30 484 C 44.5219 0.204065 2.10111 0
M  V30 485 O 43.8699 -0.813881 2.13514 0
M  V30 486 C 44.0799 2.75498 2.14247 0
M  V30 487 C 45.4279 3.24484 2.73852 0
M  V30 488 O 46.4519 2.76528 2.24523 0
M  V30 489 O 45.3109 4.07974 3.6362 0
M  V30 490 H 42.4049 0.593149 0.576284 0
M  V30 491 H 44.9509 1.61246 0.528948 0
M  V30 492 H 43.7229 3.60109 1.53092 0
M  V30 493 H 43.3459 2.6539 2.96064 0
M  V30 494 N 44.343 -0.763751 1.37857 0
M  V30 495 C 45.759 -1.06542 1.18832 0
M  V30 496 C 45.959 -2.01478 0.0299722 0
M  V30 497 O 45.015 -2.4458 -0.627447 0
M  V30 498 C 46.328 -1.65525 2.51042 0
M  V30 499 C 47.876 -1.77745 2.57635 0
M  V30 500 C 48.351 -2.4014 3.89996 0
M  V30 501 N 49.842 -2.47582 3.91481 0
M  V30 502 C 50.577 -2.96732 4.9065 0
M  V30 503 N 50.073 -3.45993 6.00217 0
M  V30 504 N 51.866 -2.95679 4.78048 0
M  V30 505 H 44.017 -0.133556 2.1198 0
M  V30 506 H 46.28 -0.121879 0.940133 0
M  V30 507 H 45.986 -1.03236 3.36207 0
M  V30 508 H 45.86 -2.64719 2.68707 0
M  V30 509 H 48.247 -2.39164 1.72872 0
M  V30 510 H 48.328 -0.772836 2.43846 0
M  V30 511 H 47.972 -1.79358 4.75177 0
M  V30 512 H 47.902 -3.41223 4.01092 0
M  V30 513 H 50.393 -2.1273 3.12337 0
M  V30 514 H 50.706 -3.81922 6.7183 0
M  V30 515 H 49.051 -3.44077 6.03851 0
M  V30 516 H 52.242 -2.56499 3.91568 0
M  V30 517 H 52.415 -3.33672 5.55488 0
M  V30 518 N 45.8211 -1.22559 -0.990812 0
M  V30 519 C 47.0671 -1.05297 -1.73322 0
M  V30 520 C 47.4001 0.410655 -1.89808 0
M  V30 521 O 46.6751 1.30439 -1.44277 0
M  V30 522 C 46.9581 -1.76713 -3.13759 0
M  V30 523 C 46.8111 -3.30684 -3.04907 0
M  V30 524 C 48.1301 -1.52121 -4.12974 0
M  V30 525 H 45.2491 -0.38392 -0.629106 0
M  V30 526 H 47.8911 -1.50926 -1.15418 0
M  V30 527 H 46.0411 -1.37924 -3.63193 0
M  V30 528 H 47.7131 -3.7893 -2.63077 0
M  V30 529 H 45.9561 -3.60253 -2.41661 0
M  V30 530 H 46.6271 -3.75833 -4.04294 0
M  V30 531 H 49.1031 -1.85819 -3.72304 0
M  V30 532 H 47.9791 -2.04582 -5.0935 0
M  V30 533 H 48.2401 -0.454257 -4.3976 0
M  V30 534 N 47.2992 1.18797 -1.03562 0
M  V30 535 C 48.5452 1.8893 -0.737113 0
M  V30 536 C 48.8782 1.79837 0.732956 0
M  V30 537 O 48.1532 1.19525 1.5344 0
M  V30 538 C 48.4362 3.39607 -1.19745 0
M  V30 539 C 48.2892 3.57537 -2.72924 0
M  V30 540 C 49.6082 4.33069 -0.783526 0
M  V30 541 H 46.7272 0.686057 -0.269249 0
M  V30 542 H 49.3692 1.39797 -1.28673 0
M  V30 543 H 47.5192 3.81583 -0.729855 0
M  V30 544 H 49.1912 3.24688 -3.27682 0
M  V30 545 H 47.4342 3.00363 -3.12993 0
M  V30 546 H 48.1052 4.63238 -3.00191 0
M  V30 547 H 50.5812 3.98846 -1.18581 0
M  V30 548 H 49.4572 5.3707 -1.13343 0
M  V30 549 H 49.7182 4.40986 0.313681 0
M  V30 550 N 48.7773 0.814389 1.34928 0
M  V30 551 C 49.7403 0.235759 2.27984 0
M  V30 552 C 50.7403 -0.581412 1.49921 0
M  V30 553 O 51.9303 -0.398758 1.69575 0
M  V30 554 C 49.0623 -0.670433 3.34242 0
M  V30 555 H 50.2553 1.05659 2.80671 0
M  V30 556 H 47.8083 0.585614 1.44915 0
M  V30 557 H 48.5433 -1.51466 2.86755 0
M  V30 558 H 48.3283 -0.0860822 3.92005 0
M  V30 559 H 49.8183 -1.06935 4.03676 0
M  V30 560 N 50.2554 -1.46986 0.568584 0
M  V30 561 C 51.5024 -2.02441 0.0487986 0
M  V30 562 C 51.8304 -1.44169 -1.30559 0
M  V30 563 O 51.0854 -0.591213 -1.86556 0
M  V30 564 C 51.3844 -3.57306 -0.081836 0
M  V30 565 C 51.0504 -4.34552 1.20313 0
M  V30 566 C 49.7124 -4.55376 1.5552 0
M  V30 567 C 52.0644 -4.79016 2.05411 0
M  V30 568 C 49.3924 -5.17913 2.7565 0
M  V30 569 C 51.7444 -5.42879 3.24754 0
M  V30 570 C 50.4084 -5.61933 3.60261 0
M  V30 571 H 49.6784 -0.740785 0.0178567 0
M  V30 572 H 52.3254 -1.76525 0.742384 0
M  V30 573 H 50.6304 -3.8228 -0.858463 0
M  V30 574 H 52.3274 -3.97876 -0.499546 0
M  V30 575 H 48.9174 -4.18631 0.919014 0
M  V30 576 H 53.1014 -4.62696 1.79516 0
M  V30 577 H 48.3574 -5.30858 3.03315 0
M  V30 578 H 52.5314 -5.76293 3.90973 0
M  V30 579 H 50.1584 -6.10161 4.53439 0
M  V30 580 N 51.7335 -0.305618 -1.54608 0
M  V30 581 C 52.9795 0.295595 -2.01241 0
M  V30 582 C 53.3345 1.51171 -1.19018 0
M  V30 583 O 52.6275 1.89832 -0.259684 0
M  V30 584 C 52.8215 0.698983 -3.50498 0
M  V30 585 C 52.6505 -0.476491 -4.47168 0
M  V30 586 C 51.4205 -0.969963 -4.95903 0
M  V30 587 C 53.6185 -1.32294 -4.96994 0
M  V30 588 N 51.6005 -2.11172 -5.76437 0
M  V30 589 C 52.9715 -2.31212 -5.75275 0
M  V30 590 C 55.0265 -1.35278 -4.7917 0
M  V30 591 C 53.7295 -3.32896 -6.37631 0
M  V30 592 C 55.7555 -2.35823 -5.42348 0
M  V30 593 C 55.1175 -3.33469 -6.20466 0
M  V30 594 H 51.2165 0.0724992 -0.778632 0
M  V30 595 H 53.8005 -0.436583 -1.89742 0
M  V30 596 H 51.9715 1.40032 -3.62278 0
M  V30 597 H 53.7035 1.28013 -3.8392 0
M  V30 598 H 50.4585 -0.544178 -4.70463 0
M  V30 599 H 50.8825 -2.68714 -6.21387 0
M  V30 600 H 55.5245 -0.61157 -4.18354 0
M  V30 601 H 53.2425 -4.07933 -6.97579 0
M  V30 602 H 56.8285 -2.38911 -5.30484 0
M  V30 603 H 55.7085 -4.09996 -6.68485 0
M  V30 604 N 53.2116 1.57565 -0.0334293 0
M  V30 605 C 54.1446 2.05997 0.981866 0
M  V30 606 C 55.1226 0.956647 1.3148 0
M  V30 607 O 56.3066 1.22729 1.43073 0
M  V30 608 C 53.4336 2.48564 2.30074 0
M  V30 609 C 52.4796 3.69958 2.12211 0
M  V30 610 S 53.3126 5.16414 1.41692 0
M  V30 611 C 54.4686 5.6228 2.7494 0
M  V30 612 H 54.7016 2.91792 0.569612 0
M  V30 613 H 52.2346 1.53366 0.178376 0
M  V30 614 H 54.1926 2.73753 3.05892 0
M  V30 615 H 52.8536 1.63106 2.68431 0
M  V30 616 H 52.0466 3.97603 3.09722 0
M  V30 617 H 51.6486 3.44943 1.44535 0
M  V30 618 H 53.9406 5.66783 3.71165 0
M  V30 619 H 54.8836 6.61759 2.51953 0
M  V30 620 H 55.2916 4.89944 2.80384 0
M  V30 621 N 54.6897 -0.239769 1.55765 0
M  V30 622 C 55.5997 -1.31831 1.94056 0
M  V30 623 C 56.6157 -1.52275 0.841925 0
M  V30 624 O 57.7917 -1.65759 1.14394 0
M  V30 625 C 54.8567 -2.65156 2.23368 0
M  V30 626 C 53.9177 -2.53173 3.46701 0
M  V30 627 C 53.1507 -3.8014 3.74606 0
M  V30 628 O 53.3737 -4.82343 3.04469 0
M  V30 629 O 52.3077 -3.78344 4.68123 0
M  V30 630 H 56.1337 -1.02347 2.85935 0
M  V30 631 H 53.7187 -0.441123 1.42739 0
M  V30 632 H 55.6007 -3.43929 2.43497 0
M  V30 633 H 54.2757 -2.94358 1.34666 0
M  V30 634 H 53.1827 -1.72662 3.31871 0
M  V30 635 H 54.5157 -2.28915 4.35728 0
M  V30 636 N 56.1678 -1.49265 -0.50573 0
M  V30 637 C 57.1178 -1.6198 -1.60457 0
M  V30 638 C 58.1018 -0.47568 -1.53708 0
M  V30 639 O 59.2938 -0.728392 -1.61318 0
M  V30 640 C 56.4228 -1.68526 -2.99089 0
M  V30 641 C 55.5088 -2.885 -3.10852 0
M  V30 642 N 55.8998 -4.12635 -2.92517 0
M  V30 643 C 54.1978 -2.86338 -3.41945 0
M  V30 644 C 54.8988 -4.93258 -3.08337 0
M  V30 645 N 53.8748 -4.26533 -3.37003 0
M  V30 646 H 57.6768 -2.55681 -1.44928 0
M  V30 647 H 55.1908 -1.45972 -0.711752 0
M  V30 648 H 57.1878 -1.75732 -3.78053 0
M  V30 649 H 55.8478 -0.759584 -3.1569 0
M  V30 650 H 56.8588 -4.42689 -2.68787 0
M  V30 651 H 53.5358 -2.03129 -3.64753 0
M  V30 652 H 54.9258 -6.01856 -2.98695 0
M  V30 653 N 57.6459 0.756429 -1.3826 0
M  V30 654 C 58.8709 1.55077 -1.37717 0
M  V30 655 C 59.2959 1.88073 0.03164 0
M  V30 656 O 58.6539 1.50364 1.01293 0
M  V30 657 C 58.7019 2.8283 -2.23695 0
M  V30 658 O 57.8059 3.77862 -1.6521 0
M  V30 659 H 57.1469 0.469152 -0.469885 0
M  V30 660 H 59.6769 0.935019 -1.81985 0
M  V30 661 H 59.6869 3.31783 -2.37453 0
M  V30 662 H 58.3619 2.58144 -3.2609 0
M  V30 663 H 56.9389 3.36555 -1.60578 0
M  V30 664 N 59.124 1.23083 0.984299 0
M  V30 665 C 60.074 0.975749 2.06066 0
M  V30 666 C 61.058 -0.0768251 1.60716 0
M  V30 667 O 62.25 0.134805 1.76486 0
M  V30 668 C 59.379 0.564673 3.38624 0
M  V30 669 C 58.465 1.65244 3.90583 0
M  V30 670 N 58.856 2.88193 4.15666 0
M  V30 671 C 57.154 1.52612 4.19077 0
M  V30 672 C 57.855 3.58593 4.58024 0
M  V30 673 N 56.831 2.86093 4.62225 0
M  V30 674 H 60.633 1.90957 2.23411 0
M  V30 675 H 58.147 1.12963 1.16675 0
M  V30 676 H 60.144 0.36322 4.15315 0
M  V30 677 H 58.804 -0.362147 3.22674 0
M  V30 678 H 59.815 3.24537 4.03604 0
M  V30 679 H 56.492 0.666121 4.12152 0
M  V30 680 H 57.882 4.63974 4.85982 0
M  V30 681 N 60.6021 -1.18246 1.0419 0
M  V30 682 C 61.8791 -1.84121 0.660208 0
M  V30 683 C 62.2591 -1.92778 -0.860221 0
M  V30 684 O 61.6071 -1.45464 -1.76217 0
M  V30 685 C 61.8171 -3.22355 1.33747 0
M  V30 686 C 63.1651 -3.98376 1.46906 0
M  V30 687 O 64.1891 -3.31799 1.29568 0
M  V30 688 O 63.0481 -5.17665 1.75171 0
M  V30 689 H 60.1421 -0.794036 0.231161 0
M  V30 690 H 62.6881 -1.25628 1.14087 0
M  V30 691 H 61.4601 -3.10964 2.37522 0
M  V30 692 H 61.0831 -3.88506 0.845515 0
M  V30 693 N 62.0802 -0.821533 -1.34494 0
M  V30 694 C 63.0122 -0.199946 -2.28326 0
M  V30 695 C 64.0252 0.609377 -1.50965 0
M  V30 696 O 65.2142 0.439285 -1.7301 0
M  V30 697 C 62.3142 0.738431 -3.30757 0
M  V30 698 C 61.4872 -0.0277632 -4.37391 0
M  V30 699 C 60.5462 0.831332 -5.19591 0
M  V30 700 O 59.5722 0.276822 -5.68526 0
M  V30 701 N 60.7742 2.15132 -5.39165 0
M  V30 702 H 63.5392 -1.00609 -2.82308 0
M  V30 703 H 61.1002 -0.678366 -1.47003 0
M  V30 704 H 63.0922 1.31773 -3.82646 0
M  V30 705 H 61.6622 1.44533 -2.7718 0
M  V30 706 H 60.8822 -0.788359 -3.86236 0
M  V30 707 H 62.1702 -0.555251 -5.05761 0
M  V30 708 H 61.5682 2.62559 -5.01078 0
M  V30 709 H 60.1252 2.6795 -5.94177 0
M  V30 710 N 63.5583 1.46682 -0.576371 0
M  V30 711 C 64.4683 2.34032 0.163141 0
M  V30 712 C 65.4843 1.49367 0.892501 0
M  V30 713 O 66.6603 1.82252 0.857106 0
M  V30 714 C 63.7253 3.26435 1.16795 0
M  V30 715 C 62.7863 4.26998 0.443944 0
M  V30 716 C 62.0193 5.14986 1.40088 0
M  V30 717 O 62.2423 5.05785 2.637 0
M  V30 718 O 61.1763 5.94906 0.914917 0
M  V30 719 H 65.0023 2.98607 -0.55388 0
M  V30 720 H 62.5873 1.45554 -0.336821 0
M  V30 721 H 64.4693 3.83459 1.74748 0
M  V30 722 H 63.1443 2.64465 1.86655 0
M  V30 723 H 62.0513 3.7368 -0.177271 0
M  V30 724 H 63.3843 4.91736 -0.213566 0
M  V30 725 N 65.0364 0.313813 1.54444 0
M  V30 726 C 65.9864 -0.571898 2.20711 0
M  V30 727 C 66.9704 -1.08913 1.18435 0
M  V30 728 O 68.1624 -1.02777 1.44104 0
M  V30 729 C 65.2914 -1.7371 2.96108 0
M  V30 730 C 64.3774 -1.23522 4.05713 0
M  V30 731 N 64.7684 -0.452288 5.03774 0
M  V30 732 C 63.0664 -1.51482 4.19487 0
M  V30 733 C 63.7674 -0.183438 5.81411 0
M  V30 734 N 62.7434 -0.766845 5.38164 0
M  V30 735 H 66.5454 0.0336802 2.93881 0
M  V30 736 H 64.0594 0.119192 1.61962 0
M  V30 737 H 66.0564 -2.38329 3.4206 0
M  V30 738 H 64.7164 -2.34625 2.24458 0
M  V30 739 H 65.7274 -0.0960131 5.17811 0
M  V30 740 H 62.4044 -2.13053 3.59047 0
M  V30 741 H 63.7944 0.446216 6.70417 0
M  V30 742 N 66.5145 -1.57545 0.0417849 0
M  V30 743 C 67.7625 -1.91937 -0.632829 0
M  V30 744 C 68.0835 -0.919978 -1.71934 0
M  V30 745 O 67.3535 0.0366064 -1.95866 0
M  V30 746 H 65.9335 -0.708493 -0.236742 0
M  V30 747 H 68.5955 -1.9468 0.0925745 0
M  V30 748 H 67.6915 -2.92912 -1.07746 0
M  V30 749 N 67.9926 0.231505 -1.5589 0
M  V30 750 C 69.2406 0.955461 -1.78088 0
M  V30 751 C 69.5616 1.85262 -0.608533 0
M  V30 752 O 68.8316 1.92277 0.375035 0
M  V30 753 H 67.4116 0.355787 -0.656829 0
M  V30 754 H 70.0736 0.245751 -1.93344 0
M  V30 755 H 69.1696 1.56814 -2.69844 0
M  V30 756 N 69.4707 1.49531 0.497807 0
M  V30 757 C 70.7177 1.59179 1.25173 0
M  V30 758 C 71.0457 0.279932 1.92475 0
M  V30 759 O 70.3007 -0.732383 1.81479 0
M  V30 760 C 70.5997 2.70252 2.33878 0
M  V30 761 C 70.2657 4.11644 1.84012 0
M  V30 762 C 68.9277 4.50121 1.70132 0
M  V30 763 C 71.2797 5.00121 1.46725 0
M  V30 764 C 68.6077 5.74845 1.17348 0
M  V30 765 C 70.9597 6.25366 0.95392 0
M  V30 766 C 69.6237 6.6267 0.801538 0
M  V30 767 H 68.8937 0.582478 0.45804 0
M  V30 768 H 71.5407 1.83373 0.551948 0
M  V30 769 H 69.8457 2.40041 3.09657 0
M  V30 770 H 71.5427 2.74925 2.9192 0
M  V30 771 H 68.1327 3.81274 1.95775 0
M  V30 772 H 72.3167 4.71048 1.56294 0
M  V30 773 H 67.5727 6.02444 1.04264 0
M  V30 774 H 71.7467 6.93301 0.656225 0
M  V30 775 H 69.3737 7.59197 0.390351 0
M  V30 776 N 70.9488 -0.749086 1.3866 0
M  V30 777 C 72.1958 -1.50833 1.35114 0
M  V30 778 C 72.5238 -1.94415 -0.0574049 0
M  V30 779 O 71.7788 -1.66065 -1.03541 0
M  V30 780 C 72.0778 -2.7712 2.25697 0
M  V30 781 C 71.7438 -2.52477 3.73585 0
M  V30 782 C 70.4058 -2.45466 4.13884 0
M  V30 783 C 72.7578 -2.31066 4.67181 0
M  V30 784 C 70.0858 -2.15064 5.45861 0
M  V30 785 C 72.4378 -2.02183 5.9942 0
M  V30 786 C 71.1018 -1.93631 6.38798 0
M  V30 787 H 70.3718 -0.551936 0.494416 0
M  V30 788 H 73.0188 -0.860979 1.71054 0
M  V30 789 H 71.3238 -3.46528 1.82827 0
M  V30 790 H 73.0208 -3.35096 2.20254 0
M  V30 791 H 69.6108 -2.58807 3.41638 0
M  V30 792 H 73.7948 -2.35459 4.3689 0
M  V30 793 H 69.0508 -2.06954 5.75308 0
M  V30 794 H 73.2248 -1.8462 6.71482 0
M  V30 795 H 70.8518 -1.69839 7.40985 0
M  V30 796 N 72.4269 -1.23603 -0.977757 0
M  V30 797 C 73.6549 -1.09646 -1.75458 0
M  V30 798 C 74.0699 0.351859 -1.85492 0
M  V30 799 O 73.4269 1.24327 -1.336 0
M  V30 800 C 73.4779 -1.71895 -3.18016 0
M  V30 801 O 73.1989 -3.11063 -3.08498 0
M  V30 802 C 74.6999 -1.63415 -4.12081 0
M  V30 803 H 71.9199 -0.38359 -0.550545 0
M  V30 804 H 74.4639 -1.63507 -1.22824 0
M  V30 805 H 72.6189 -1.22061 -3.67668 0
M  V30 806 H 73.0329 -3.41305 -3.9826 0
M  V30 807 H 74.5069 -2.11669 -5.09804 0
M  V30 808 H 74.9839 -0.593462 -4.35172 0
M  V30 809 H 75.5899 -2.12628 -3.68334 0
M  V30 810 N 73.905 1.17692 -1.04816 0
M  V30 811 C 75.145 1.89545 -0.764979 0
M  V30 812 C 75.509 1.78979 0.695028 0
M  V30 813 O 76.71 2.45613 1.09215 0
M  V30 814 C 74.981 3.35659 -1.22751 0
M  V30 815 S 76.54 4.25526 -1.07112 0
M  V30 816 H 73.358 0.654432 -0.27792 0
M  V30 817 H 75.96 1.42163 -1.34201 0
M  V30 818 H 74.664 3.40882 -2.28533 0
M  V30 819 H 74.195 3.88083 -0.644594 0
M  V30 820 H 76.21 4.962 0.00697508 0
M  V30 821 N 75.3831 0.828654 1.34056 0
M  V30 822 C 76.3131 0.269443 2.3194 0
M  V30 823 C 77.2941 -0.617247 1.58506 0
M  V30 824 O 78.4791 -0.542931 1.86456 0
M  V30 825 C 75.6091 -0.564793 3.42677 0
M  V30 826 C 74.5631 0.225241 4.27407 0
M  V30 827 C 73.8891 -0.7321 5.29664 0
M  V30 828 C 75.1891 1.43663 5.02154 0
M  V30 829 H 76.8831 1.08728 2.7896 0
M  V30 830 H 74.4291 0.524283 1.34117 0
M  V30 831 H 76.3821 -0.966233 4.10173 0
M  V30 832 H 75.1061 -1.41574 2.9432 0
M  V30 833 H 73.7651 0.608117 3.61521 0
M  V30 834 H 73.4131 -1.57916 4.77568 0
M  V30 835 H 73.1131 -0.20767 5.87233 0
M  V30 836 H 74.6371 -1.13128 6.00029 0
M  V30 837 H 76.0511 1.1089 5.62473 0
M  V30 838 H 74.4481 1.89711 5.69324 0
M  V30 839 H 75.5181 2.21181 4.31517 0
M  V30 840 N 76.8612 -1.46375 0.584142 0
M  V30 841 C 78.1092 -2.01978 0.0701287 0
M  V30 842 C 78.4302 -1.4579 -1.295 0
M  V30 843 O 77.7002 -0.64314 -1.85042 0
M  V30 844 H 76.2802 -0.746648 0.0229345 0
M  V30 845 H 78.9422 -1.79461 0.760245 0
M  V30 846 H 78.0382 -3.121 0.0022064 0
M  V30 847 N 78.3393 -0.321999 -1.54275 0
M  V30 848 C 79.7553 0.0306999 -1.5957 0
M  V30 849 C 79.9553 1.50614 -1.33857 0
M  V30 850 O 79.0113 2.2619 -1.12223 0
M  V30 851 C 80.3243 -0.386122 -2.98211 0
M  V30 852 C 81.8723 -0.336647 -3.11184 0
M  V30 853 C 82.3473 -0.728607 -4.52167 0
M  V30 854 N 83.8383 -0.681952 -4.58152 0
M  V30 855 C 84.5733 -0.957449 -5.6535 0
M  V30 856 N 84.0693 -1.3 -6.80494 0
M  V30 857 N 85.8623 -0.883113 -5.55119 0
M  V30 858 H 78.0133 -1.28332 -1.69247 0
M  V30 859 H 80.2763 -0.521716 -0.791528 0
M  V30 860 H 79.9823 -1.41404 -3.22022 0
M  V30 861 H 79.8563 0.249662 -3.76373 0
M  V30 862 H 82.2433 0.682058 -2.8711 0
M  V30 863 H 82.3243 -1.00734 -2.3513 0
M  V30 864 H 81.9683 -1.74522 -4.76974 0
M  V30 865 H 81.8983 -0.0356152 -5.26588 0
M  V30 866 H 84.3893 -0.428985 -3.75457 0
M  V30 867 H 84.7023 -1.49563 -7.58189 0
M  V30 868 H 83.0473 -1.33824 -6.81994 0
M  V30 869 H 86.2383 -0.615001 -4.64042 0
M  V30 870 H 86.4113 -1.10118 -6.38575 0
M  V30 871 N 79.8174 1.5752 -0.0501392 0
M  V30 872 C 80.7274 2.14952 0.939827 0
M  V30 873 C 81.7434 1.10706 1.34239 0
M  V30 874 O 82.9194 1.42869 1.41952 0
M  V30 875 C 79.9844 2.68232 2.19665 0
M  V30 876 C 79.0454 3.87272 1.85253 0
M  V30 877 C 78.2784 4.38002 3.04943 0
M  V30 878 O 78.5014 3.87811 4.18281 0
M  V30 879 O 77.4354 5.29602 2.86017 0
M  V30 880 H 81.2614 2.9986 0.481392 0
M  V30 881 H 78.8464 1.4841 0.171699 0
M  V30 882 H 80.7284 3.02475 2.93406 0
M  V30 883 H 79.4034 1.86395 2.64648 0
M  V30 884 H 78.3104 3.5792 1.0883 0
M  V30 885 H 79.6434 4.70336 1.4507 0
M  V30 886 N 81.2955 -0.223234 1.56011 0
M  V30 887 C 82.5435 -0.946003 1.78592 0
M  V30 888 C 82.8645 -1.84936 0.618349 0
M  V30 889 O 82.1345 -1.92473 -0.364833 0
M  V30 890 H 80.7145 -0.352298 0.658707 0
M  V30 891 H 83.3765 -0.235494 1.93472 0
M  V30 892 H 82.4725 -1.55381 2.70672 0
M  V30 893 N 82.7736 -1.49793 -0.48987 0
M  V30 894 C 84.1896 -1.36803 -0.822022 0
M  V30 895 C 84.3896 -0.409652 -1.97292 0
M  V30 896 O 83.4456 0.154614 -2.52026 0
M  V30 897 C 84.7586 -2.77768 -1.15175 0
M  V30 898 C 86.3066 -2.86549 -1.25931 0
M  V30 899 C 86.7816 -4.28306 -1.62228 0
M  V30 900 N 88.2726 -4.31169 -1.69256 0
M  V30 901 C 89.0076 -5.37832 -1.98807 0
M  V30 902 N 88.5036 -6.54726 -2.26507 0
M  V30 903 N 90.2966 -5.25258 -2.00152 0
M  V30 904 H 82.4476 -2.10691 0.268881 0
M  V30 905 H 84.7106 -0.946241 0.057728 0
M  V30 906 H 84.4166 -3.49648 -0.379335 0
M  V30 907 H 84.2906 -3.13836 -2.09253 0
M  V30 908 H 86.6776 -2.14899 -2.02243 0
M  V30 909 H 86.7586 -2.54049 -0.298776 0
M  V30 910 H 86.4026 -5.00486 -0.864622 0
M  V30 911 H 86.3326 -4.58279 -2.594 0
M  V30 912 H 88.8236 -3.4687 -1.49965 0
M  V30 913 H 89.1366 -7.31833 -2.48276 0
M  V30 914 H 87.4816 -6.57933 -2.23939 0
M  V30 915 H 90.6726 -4.32938 -1.77996 0
M  V30 916 H 90.8456 -6.08476 -2.22848 0
M  V30 917 N 84.2517 0.741722 -1.39055 0
M  V30 918 C 85.4977 1.50336 -1.36113 0
M  V30 919 C 85.8307 1.94148 0.0450796 0
M  V30 920 O 85.1057 1.66301 1.00868 0
M  V30 921 C 85.3887 2.74773 -2.32749 0
M  V30 922 C 85.2417 2.37023 -3.82283 0
M  V30 923 C 86.5607 3.76846 -2.27322 0
M  V30 924 H 83.6797 0.545351 -0.495743 0
M  V30 925 H 86.3217 0.848624 -1.69995 0
M  V30 926 H 84.4717 3.30639 -2.03986 0
M  V30 927 H 86.1437 1.8684 -4.21768 0
M  V30 928 H 84.3867 1.69334 -3.99385 0
M  V30 929 H 85.0577 3.26104 -4.45376 0
M  V30 930 H 87.5337 3.30548 -2.5274 0
M  V30 931 H 86.4097 4.6159 -2.97028 0
M  V30 932 H 86.6707 4.23286 -1.27599 0
M  V30 933 N 85.7298 1.2412 0.971189 0
M  V30 934 C 86.9598 1.10415 1.7462 0
M  V30 935 C 87.3678 -0.346462 1.86001 0
M  V30 936 O 86.7108 -1.25104 1.34517 0
M  V30 937 C 86.7728 1.66596 3.18568 0
M  V30 938 C 86.4368 3.15446 3.3067 0
M  V30 939 C 87.4338 4.12636 3.16271 0
M  V30 940 C 85.1188 3.55337 3.55022 0
M  V30 941 C 87.1128 5.47699 3.26044 0
M  V30 942 C 84.7998 4.90542 3.64434 0
M  V30 943 C 85.7978 5.86532 3.49956 0
M  V30 944 O 85.4858 7.19279 3.59017 0
M  V30 945 H 85.2178 0.386616 0.55453 0
M  V30 946 H 87.7718 1.64633 1.22821 0
M  V30 947 H 86.0018 1.06808 3.71657 0
M  V30 948 H 87.6908 1.48232 3.77865 0
M  V30 949 H 88.4568 3.8316 2.97344 0
M  V30 950 H 84.3358 2.8113 3.65359 0
M  V30 951 H 87.8798 6.22603 3.14661 0
M  V30 952 H 83.7768 5.19691 3.82873 0
M  V30 953 H 84.5448 7.27153 3.75754 0
M  V30 954 N 87.2079 -1.17134 1.05439 0
M  V30 955 C 88.4849 -1.83411 0.679699 0
M  V30 956 C 88.8649 -1.9368 -0.839726 0
M  V30 957 O 88.2129 -1.47325 -1.74664 0
M  V30 958 C 88.4229 -3.20918 1.37159 0
M  V30 959 C 89.7709 -3.96796 1.51123 0
M  V30 960 O 90.7949 -3.30406 1.3308 0
M  V30 961 O 89.6539 -5.15778 1.80651 0
M  V30 962 H 86.7479 -0.79154 0.239569 0
M  V30 963 H 89.2939 -1.24411 1.15413 0
M  V30 964 H 88.0659 -3.08428 2.40807 0
M  V30 965 H 87.6889 -3.87587 0.886674 0
M  V30 966 N 88.686 -0.835752 -1.33615 0
M  V30 967 C 89.963 -0.352017 -1.92406 0
M  V30 968 C 90.343 1.16225 -1.76224 0
M  V30 969 O 89.691 1.97526 -1.14873 0
M  V30 970 C 89.901 -0.795485 -3.39813 0
M  V30 971 C 91.249 -0.801703 -4.16963 0
M  V30 972 O 92.273 -0.738889 -3.48452 0
M  V30 973 O 91.132 -0.886607 -5.3926 0
M  V30 974 H 88.226 -0.0989641 -0.821057 0
M  V30 975 H 90.772 -0.921397 -1.42507 0
M  V30 976 H 89.544 -1.83795 -3.45449 0
M  V30 977 H 89.167 -0.202505 -3.97084 0
M  V30 978 N 90.1641 1.46063 -0.591896 0
M  V30 979 C 91.0941 2.33172 0.123673 0
M  V30 980 C 92.0751 1.45897 0.87453 0
M  V30 981 O 93.2601 1.74698 0.848181 0
M  V30 982 C 90.3901 3.28336 1.13194 0
M  V30 983 C 89.3441 4.25124 0.495324 0
M  V30 984 C 88.6701 5.09863 1.61071 0
M  V30 985 C 89.9701 5.19143 -0.573425 0
M  V30 986 H 91.6641 2.93252 -0.603646 0
M  V30 987 H 89.2101 1.41014 -0.291741 0
M  V30 988 H 91.1631 3.88137 1.64097 0
M  V30 989 H 89.8871 2.66383 1.88965 0
M  V30 990 H 88.5461 3.66599 0.00729452 0
M  V30 991 H 88.1941 4.44288 2.35832 0
M  V30 992 H 87.8941 5.75417 1.19035 0
M  V30 993 H 89.4181 5.72529 2.12233 0
M  V30 994 H 90.8321 5.73106 -0.1491 0
M  V30 995 H 89.2291 5.93089 -0.914636 0
M  V30 996 H 90.2991 4.62519 -1.45617 0
M  V30 997 N 91.6422 0.330177 1.54103 0
M  V30 998 C 92.5892 -0.532762 2.24567 0
M  V30 999 C 93.5592 -1.10635 1.23892 0
M  V30 1000 O 94.7442 -1.14546 1.5259 0
M  V30 1001 C 91.8842 -1.6845 3.01195 0
M  V30 1002 C 90.9972 -1.13951 4.167 0
M  V30 1003 C 90.1322 -2.25746 4.80845 0
M  V30 1004 C 89.1712 -1.6853 5.88442 0
M  V30 1005 N 88.3082 -2.74014 6.46421 0
M  V30 1006 H 93.1482 0.0746905 2.97906 0
M  V30 1007 H 90.6852 0.048632 1.4702 0
M  V30 1008 H 92.6432 -2.36234 3.43874 0
M  V30 1009 H 91.2732 -2.26314 2.30178 0
M  V30 1010 H 90.3252 -0.35301 3.78758 0
M  V30 1011 H 91.6372 -0.680892 4.94131 0
M  V30 1012 H 90.7912 -3.01422 5.26526 0
M  V30 1013 H 89.5302 -2.74947 4.0281 0
M  V30 1014 H 88.5352 -0.913543 5.42157 0
M  V30 1015 H 89.7602 -1.20198 6.68378 0
M  V30 1016 H 87.7062 -3.22494 5.71256 0
M  V30 1017 H 87.6232 -2.32735 7.19285 0
M  V30 1018 H 88.8912 -3.49499 6.96757 0
M  V30 1019 N 93.1203 -1.57491 0.0584922 0
M  V30 1020 C 94.3503 -1.9701 -0.622134 0
M  V30 1021 C 94.7583 -0.935034 -1.6448 0
M  V30 1022 O 94.1013 0.0882904 -1.83488 0
M  V30 1023 C 94.1633 -3.32794 -1.35972 0
M  V30 1024 C 93.8273 -4.54343 -0.492043 0
M  V30 1025 C 94.8243 -5.19323 0.244901 0
M  V30 1026 C 92.5093 -5.00534 -0.420821 0
M  V30 1027 C 94.5033 -6.28835 1.04143 0
M  V30 1028 C 92.1903 -6.09921 0.379389 0
M  V30 1029 C 93.1883 -6.73933 1.10919 0
M  V30 1030 O 92.8763 -7.81216 1.89623 0
M  V30 1031 H 92.6083 -0.653127 -0.174359 0
M  V30 1032 H 95.1623 -2.05029 0.123418 0
M  V30 1033 H 93.3923 -3.21351 -2.15105 0
M  V30 1034 H 95.0813 -3.5701 -1.93129 0
M  V30 1035 H 95.8473 -4.8459 0.19939 0
M  V30 1036 H 91.7263 -4.50496 -0.978474 0
M  V30 1037 H 95.2703 -6.7873 1.61157 0
M  V30 1038 H 91.1673 -6.44089 0.426512 0
M  V30 1039 H 91.9353 -7.98029 1.81913 0
M  V30 1040 N 94.5984 0.214957 -1.56127 0
M  V30 1041 C 95.8444 0.939762 -1.79712 0
M  V30 1042 C 96.1774 1.83723 -0.629247 0
M  V30 1043 O 95.4524 1.90925 0.371197 0
M  V30 1044 C 95.7354 1.77306 -3.13424 0
M  V30 1045 C 95.5884 0.90164 -4.40671 0
M  V30 1046 C 96.9074 2.74956 -3.43638 0
M  V30 1047 H 94.0264 0.340214 -0.653776 0
M  V30 1048 H 96.6684 0.20824 -1.88855 0
M  V30 1049 H 94.8184 2.39673 -3.0576 0
M  V30 1050 H 96.4904 0.294206 -4.60361 0
M  V30 1051 H 94.7334 0.207368 -4.33304 0
M  V30 1052 H 95.4044 1.51923 -5.30682 0
M  V30 1053 H 97.8804 2.22724 -3.51473 0
M  V30 1054 H 96.7564 3.30358 -4.38355 0
M  V30 1055 H 97.0174 3.53023 -2.66134 0
M  V30 1056 N 96.0765 1.50051 0.48192 0
M  V30 1057 C 97.3225 1.61706 1.2338 0
M  V30 1058 C 97.6775 0.308488 1.89911 0
M  V30 1059 O 96.9705 -0.692798 1.78636 0
M  V30 1060 C 97.1645 2.72717 2.30998 0
M  V30 1061 C 96.9935 4.14242 1.75024 0
M  V30 1062 C 95.7635 4.80786 1.55476 0
M  V30 1063 C 97.9615 4.98846 1.25128 0
M  V30 1064 N 95.9435 6.06563 0.946311 0
M  V30 1065 C 97.3145 6.15258 0.765382 0
M  V30 1066 C 99.3695 4.84702 1.13881 0
M  V30 1067 C 98.0725 7.19079 0.178113 0
M  V30 1068 C 100.098 5.8869 0.565486 0
M  V30 1069 C 99.4605 7.04343 0.0899105 0
M  V30 1070 H 95.5595 0.645958 0.440753 0
M  V30 1071 H 98.1435 1.8713 0.537624 0
M  V30 1072 H 96.3145 2.49033 2.98055 0
M  V30 1073 H 98.0465 2.73789 2.9803 0
M  V30 1074 H 94.8015 4.37899 1.80392 0
M  V30 1075 H 95.2255 6.73767 0.660812 0
M  V30 1076 H 99.8675 3.95583 1.49244 0
M  V30 1077 H 97.5855 8.07882 -0.187749 0
M  V30 1078 H 101.171 5.79808 0.480974 0
M  V30 1079 H 100.051 7.83433 -0.346782 0
M  V30 1080 N 97.5546 -0.734337 1.39446 0
M  V30 1081 C 98.4846 -1.86155 1.40955 0
M  V30 1082 C 99.4656 -1.67898 0.272827 0
M  V30 1083 O 100.651 -1.88207 0.478743 0
M  V30 1084 C 97.7806 -3.23912 1.25294 0
M  V30 1085 C 96.7346 -3.56808 2.36373 0
M  V30 1086 C 96.0606 -4.93508 2.058 0
M  V30 1087 C 97.3606 -3.59713 3.78687 0
M  V30 1088 H 99.0546 -1.8515 2.35287 0
M  V30 1089 H 96.6006 -0.889367 1.13253 0
M  V30 1090 H 98.5536 -4.02443 1.2497 0
M  V30 1091 H 97.2776 -3.25446 0.274308 0
M  V30 1092 H 95.9366 -2.80606 2.35914 0
M  V30 1093 H 95.5846 -4.91623 1.06374 0
M  V30 1094 H 95.2846 -5.16486 2.80208 0
M  V30 1095 H 96.8086 -5.74396 2.07128 0
M  V30 1096 H 98.2226 -4.2832 3.81071 0
M  V30 1097 H 96.6196 -3.94209 4.52459 0
M  V30 1098 H 97.6896 -2.59504 4.09617 0
M  V30 1099 N 99.0327 -1.24633 -0.964593 0
M  V30 1100 C 99.9647 -0.999302 -2.06268 0
M  V30 1101 C 100.978 0.0323226 -1.62768 0
M  V30 1102 O 102.167 -0.205079 -1.77318 0
M  V30 1103 C 99.2667 -0.486816 -3.35385 0
M  V30 1104 C 98.4397 -1.5823 -4.07777 0
M  V30 1105 C 97.4987 -1.07191 -5.15166 0
M  V30 1106 O 96.5247 -1.76426 -5.41168 0
M  V30 1107 N 97.7267 0.0920373 -5.80427 0
M  V30 1108 H 100.492 -1.94477 -2.28033 0
M  V30 1109 H 98.0527 -1.15704 -1.13244 0
M  V30 1110 H 100.045 -0.130066 -4.04491 0
M  V30 1111 H 98.6147 0.364459 -3.10468 0
M  V30 1112 H 97.8347 -2.11109 -3.32906 0
M  V30 1113 H 99.1227 -2.31854 -4.52903 0
M  V30 1114 H 98.5207 0.670784 -5.61709 0
M  V30 1115 H 97.0777 0.389905 -6.50633 0
M  V30 1116 N 100.511 1.16574 -1.06058 0
M  V30 1117 C 101.759 1.86677 -0.77434 0
M  V30 1118 C 102.08 1.81959 0.701147 0
M  V30 1119 O 101.35 1.2515 1.50713 0
M  V30 1120 H 99.9298 0.691134 -0.283449 0
M  V30 1121 H 102.592 1.41378 -1.34158 0
M  V30 1122 H 101.688 2.92181 -1.09711 0
M  V30 1123 N 101.989 0.842826 1.3317 0
M  V30 1124 C 103.405 0.531128 1.50503 0
M  V30 1125 C 103.605 -0.940734 1.78192 0
M  V30 1126 O 102.661 -1.72436 1.84451 0
M  V30 1127 C 103.974 1.40789 2.65705 0
M  V30 1128 C 105.522 1.40708 2.79589 0
M  V30 1129 C 105.997 2.26878 3.97857 0
M  V30 1130 N 107.488 2.24609 4.05099 0
M  V30 1131 C 108.223 2.88019 4.95815 0
M  V30 1132 N 107.719 3.60496 5.9162 0
M  V30 1133 N 109.512 2.77469 4.88843 0
M  V30 1134 H 101.663 1.79557 1.1346 0
M  V30 1135 H 103.926 0.766267 0.558156 0
M  V30 1136 H 103.632 2.454 2.51936 0
M  V30 1137 H 103.506 1.08677 3.61205 0
M  V30 1138 H 105.893 0.368668 2.92788 0
M  V30 1139 H 105.974 1.76829 1.84838 0
M  V30 1140 H 105.618 3.3078 3.85418 0
M  V30 1141 H 105.548 1.88096 4.91861 0
M  V30 1142 H 108.039 1.71906 3.36536 0
M  V30 1143 H 108.352 4.06076 6.57512 0
M  V30 1144 H 106.697 3.64604 5.91683 0
M  V30 1145 H 109.888 2.20406 4.12963 0
M  V30 1146 H 110.061 3.2717 5.59342 0
M  V30 1147 N 103.467 -1.45747 0.599634 0
M  V30 1148 C 104.399 -2.28628 -0.161879 0
M  V30 1149 C 105.412 -1.39494 -0.839367 0
M  V30 1150 O 106.601 -1.63941 -0.706089 0
M  V30 1151 C 103.701 -3.15014 -1.24976 0
M  V30 1152 C 102.874 -4.32378 -0.660935 0
M  V30 1153 C 101.933 -5.00033 -1.63869 0
M  V30 1154 O 100.959 -5.57085 -1.1681 0
M  V30 1155 N 102.161 -4.98589 -2.97303 0
M  V30 1156 H 104.926 -2.94624 0.549265 0
M  V30 1157 H 102.487 -1.55847 0.438565 0
M  V30 1158 H 104.479 -3.5714 -1.9035 0
M  V30 1159 H 103.049 -2.5098 -1.86354 0
M  V30 1160 H 102.269 -3.9383 0.170688 0
M  V30 1161 H 103.557 -5.08197 -0.247619 0
M  V30 1162 H 102.955 -4.53514 -3.38145 0
M  V30 1163 H 101.512 -5.44603 -3.58121 0
M  V30 1164 N 104.945 -0.338344 -1.53925 0
M  V30 1165 C 106.191 0.260143 -2.01125 0
M  V30 1166 C 106.524 1.50617 -1.22589 0
M  V30 1167 O 105.799 1.91979 -0.312113 0
M  V30 1168 C 106.082 0.579499 -3.55407 0
M  V30 1169 C 105.935 -0.678264 -4.44657 0
M  V30 1170 C 107.254 1.39122 -4.17532 0
M  V30 1171 H 104.373 0.0930772 -0.731099 0
M  V30 1172 H 107.015 -0.457852 -1.84401 0
M  V30 1173 H 105.165 1.19118 -3.69788 0
M  V30 1174 H 106.837 -1.31631 -4.42121 0
M  V30 1175 H 105.08 -1.3042 -4.13731 0
M  V30 1176 H 105.751 -0.410143 -5.50474 0
M  V30 1177 H 108.227 0.874035 -4.06817 0
M  V30 1178 H 107.103 1.58342 -5.25565 0
M  V30 1179 H 107.364 2.39178 -3.71815 0
M  V30 1180 N 106.423 1.57458 -0.0668435 0
M  V30 1181 C 107.669 1.94401 0.598316 0
M  V30 1182 C 108.024 0.946335 1.67518 0
M  V30 1183 O 107.317 -0.0321442 1.91573 0
M  V30 1184 C 107.511 3.35784 1.22409 0
M  V30 1185 C 107.34 4.49212 0.209367 0
M  V30 1186 C 106.11 5.04887 -0.204218 0
M  V30 1187 C 108.308 5.11335 -0.551431 0
M  V30 1188 N 106.29 6.01854 -1.21016 0
M  V30 1189 C 107.661 6.03754 -1.41 0
M  V30 1190 C 109.716 4.94173 -0.608038 0
M  V30 1191 C 108.419 6.80854 -2.32013 0
M  V30 1192 C 110.445 5.71912 -1.50566 0
M  V30 1193 C 109.807 6.63976 -2.35191 0
M  V30 1194 H 105.906 0.758538 0.190114 0
M  V30 1195 H 108.49 1.94175 -0.142832 0
M  V30 1196 H 106.661 3.36757 1.93518 0
M  V30 1197 H 108.393 3.59976 1.84931 0
M  V30 1198 H 105.148 4.73266 0.177908 0
M  V30 1199 H 105.572 6.55035 -1.71049 0
M  V30 1200 H 110.214 4.22788 0.032022 0
M  V30 1201 H 107.932 7.5152 -2.97057 0
M  V30 1202 H 111.518 5.60656 -1.55423 0
M  V30 1203 H 110.398 7.2308 -3.03522 0
M  V30 1204 N 107.901 -0.206675 1.56239 0
M  V30 1205 C 108.834 -1.28383 1.88661 0
M  V30 1206 C 109.812 -1.44504 0.745481 0
M  V30 1207 O 110.996 -1.60079 0.995336 0
M  V30 1208 C 108.123 -2.65211 2.10667 0
M  V30 1209 C 107.169 -2.66025 3.33366 0
M  V30 1210 S 108.002 -2.18609 4.88846 0
M  V30 1211 C 109.158 -3.57283 5.13906 0
M  V30 1212 H 109.391 -1.00691 2.7973 0
M  V30 1213 H 106.924 -0.409627 1.48867 0
M  V30 1214 H 108.882 -3.43979 2.24029 0
M  V30 1215 H 107.543 -2.90121 1.20369 0
M  V30 1216 H 106.736 -3.66607 3.45855 0
M  V30 1217 H 106.338 -1.95331 3.18938 0
M  V30 1218 H 108.63 -4.53074 5.03717 0
M  V30 1219 H 109.573 -3.49699 6.15724 0
M  V30 1220 H 109.981 -3.51659 4.41583 0
M  V30 1221 N 109.379 -1.50304 -0.473955 0
M  V30 1222 C 110.609 -1.64663 -1.24778 0
M  V30 1223 C 111.017 -0.328174 -1.86332 0
M  V30 1224 O 110.36 0.699536 -1.69859 0
M  V30 1225 C 110.422 -2.6778 -2.39863 0
M  V30 1226 C 110.086 -4.11413 -1.98969 0
M  V30 1227 C 111.083 -4.97372 -1.51385 0
M  V30 1228 C 108.768 -4.57312 -2.07777 0
M  V30 1229 C 110.762 -6.27277 -1.13148 0
M  V30 1230 C 108.449 -5.87223 -1.69152 0
M  V30 1231 C 109.447 -6.72031 -1.21915 0
M  V30 1232 O 109.135 -7.99518 -0.838237 0
M  V30 1233 H 108.867 -0.556602 -0.383627 0
M  V30 1234 H 111.421 -1.9726 -0.572491 0
M  V30 1235 H 109.651 -2.30419 -3.10554 0
M  V30 1236 H 111.34 -2.71388 -3.01833 0
M  V30 1237 H 112.106 -4.63128 -1.44004 0
M  V30 1238 H 107.985 -3.91449 -2.43493 0
M  V30 1239 H 111.529 -6.93425 -0.762077 0
M  V30 1240 H 107.426 -6.20989 -1.76191 0
M  V30 1241 H 108.194 -8.12764 -0.967339 0
M  V30 1242 N 110.857 0.726932 -1.39834 0
M  V30 1243 C 112.097 1.4992 -1.38936 0
M  V30 1244 C 112.461 1.91996 0.0126883 0
M  V30 1245 O 113.662 2.68399 0.146715 0
M  V30 1246 C 111.933 2.70013 -2.34153 0
M  V30 1247 S 113.492 3.59563 -2.51515 0
M  V30 1248 H 110.31 0.51271 -0.492595 0
M  V30 1249 H 112.912 0.85107 -1.76003 0
M  V30 1250 H 111.616 2.37254 -3.34871 0
M  V30 1251 H 111.147 3.39748 -1.98331 0
M  V30 1252 H 113.162 4.63973 -1.75909 0
M  V30 1253 N 112.336 1.25143 0.95797 0
M  V30 1254 C 113.752 1.01892 1.22842 0
M  V30 1255 C 113.952 -0.266311 1.99732 0
M  V30 1256 O 113.008 -0.979913 2.3271 0
M  V30 1257 C 114.321 2.24004 2.00606 0
M  V30 1258 C 115.869 2.28731 2.13662 0
M  V30 1259 C 116.344 3.5049 2.94823 0
M  V30 1260 N 117.835 3.50866 3.02403 0
M  V30 1261 C 118.57 4.4174 3.65586 0
M  V30 1262 N 118.066 5.42882 4.30408 0
M  V30 1263 N 119.859 4.29429 3.62694 0
M  V30 1264 H 112.01 2.07718 0.443493 0
M  V30 1265 H 114.273 0.912031 0.258657 0
M  V30 1266 H 113.979 3.17395 1.51503 0
M  V30 1267 H 113.853 2.26907 3.01319 0
M  V30 1268 H 116.24 1.35865 2.61963 0
M  V30 1269 H 116.321 2.29848 1.12265 0
M  V30 1270 H 115.965 4.43676 2.47213 0
M  V30 1271 H 115.895 3.46617 3.96439 0
M  V30 1272 H 118.386 2.777 2.56302 0
M  V30 1273 H 118.699 6.0844 4.76467 0
M  V30 1274 H 117.044 5.46758 4.29047 0
M  V30 1275 H 120.235 3.49643 3.11236 0
M  V30 1276 H 120.408 5.00448 4.1165 0
M  V30 1277 N 113.814 -1.1601 1.06675 0
M  V30 1278 C 114.744 -2.22688 0.702307 0
M  V30 1279 C 115.725 -1.67306 -0.307032 0
M  V30 1280 O 116.91 -1.93352 -0.181305 0
M  V30 1281 C 114.04 -3.47178 0.092038 0
M  V30 1282 C 112.994 -4.15477 1.02777 0
M  V30 1283 C 112.32 -5.33963 0.28061 0
M  V30 1284 C 113.62 -4.66019 2.35846 0
M  V30 1285 H 115.314 -2.53429 1.59419 0
M  V30 1286 H 112.86 -1.21813 0.767961 0
M  V30 1287 H 114.813 -4.21037 -0.174814 0
M  V30 1288 H 113.537 -3.15749 -0.834877 0
M  V30 1289 H 112.196 -3.43549 1.27944 0
M  V30 1290 H 111.844 -4.98788 -0.649545 0
M  V30 1291 H 111.544 -5.806 0.904258 0
M  V30 1292 H 113.068 -6.10596 0.021396 0
M  V30 1293 H 114.482 -5.3144 2.15045 0
M  V30 1294 H 112.879 -5.23293 2.93743 0
M  V30 1295 H 113.949 -3.82023 2.98641 0
M  V30 1296 N 115.292 -0.849877 -1.32721 0
M  V30 1297 C 116.522 -0.46408 -2.0132 0
M  V30 1298 C 116.93 0.94246 -1.64056 0
M  V30 1299 O 116.273 1.6257 -0.855379 0
M  V30 1300 C 116.335 -0.517887 -3.5575 0
M  V30 1301 C 115.999 -1.88248 -4.16427 0
M  V30 1302 C 116.996 -2.84726 -4.35002 0
M  V30 1303 C 114.681 -2.17832 -4.52609 0
M  V30 1304 C 116.675 -4.08945 -4.8892 0
M  V30 1305 C 114.362 -3.42304 -5.06232 0
M  V30 1306 C 115.36 -4.37677 -5.24335 0
M  V30 1307 O 115.048 -5.59946 -5.76815 0
M  V30 1308 H 114.78 -0.181327 -0.651227 0
M  V30 1309 H 117.334 -1.14713 -1.70382 0
M  V30 1310 H 115.564 0.221997 -3.86062 0
M  V30 1311 H 117.253 -0.148366 -4.05629 0
M  V30 1312 H 118.019 -2.63174 -4.07388 0
M  V30 1313 H 113.898 -1.44385 -4.37806 0
M  V30 1314 H 117.442 -4.83396 -5.02966 0
M  V30 1315 H 113.339 -3.63709 -5.33278 0
M  V30 1316 H 114.107 -5.61838 -5.95214 0
M  V30 1317 N 116.77 1.45427 -0.607355 0
M  V30 1318 C 118.186 1.57283 -0.270985 0
M  V30 1319 C 118.386 1.59875 1.22647 0
M  V30 1320 O 117.442 1.52893 2.00948 0
M  V30 1321 C 118.755 2.85566 -0.941952 0
M  V30 1322 C 120.303 2.9924 -0.917849 0
M  V30 1323 C 120.778 4.30293 -1.56882 0
M  V30 1324 N 122.269 4.37051 -1.5343 0
M  V30 1325 C 123.004 5.37123 -2.00715 0
M  V30 1326 N 122.5 6.43734 -2.56084 0
M  V30 1327 N 124.293 5.28479 -1.91484 0
M  V30 1328 H 116.444 1.41988 -1.57966 0
M  V30 1329 H 118.707 0.67885 -0.661715 0
M  V30 1330 H 118.413 2.8955 -1.99633 0
M  V30 1331 H 118.287 3.74322 -0.465096 0
M  V30 1332 H 120.674 2.94822 0.127984 0
M  V30 1333 H 120.755 2.11895 -1.43297 0
M  V30 1334 H 120.399 4.35469 -2.61398 0
M  V30 1335 H 120.329 5.16454 -1.02873 0
M  V30 1336 H 122.82 3.60615 -1.12982 0
M  V30 1337 H 123.133 7.16341 -2.89958 0
M  V30 1338 H 121.478 6.44485 -2.60122 0
M  V30 1339 H 124.669 4.44098 -1.47967 0
M  V30 1340 H 124.842 6.0632 -2.28648 0
M  V30 1341 N 118.248 0.346503 1.53744 0
M  V30 1342 C 119.476 -0.25041 2.05379 0
M  V30 1343 C 119.891 -1.43979 1.22129 0
M  V30 1344 O 119.248 -1.80677 0.257321 0
M  V30 1345 C 119.299 -0.662575 3.55376 0
M  V30 1346 O 119.02 0.479515 4.35468 0
M  V30 1347 C 120.521 -1.31989 4.23195 0
M  V30 1348 H 117.741 -0.0478198 0.669294 0
M  V30 1349 H 120.285 0.499346 1.9831 0
M  V30 1350 H 118.44 -1.36227 3.62658 0
M  V30 1351 H 118.854 0.15037 5.24284 0
M  V30 1352 H 120.328 -1.55902 5.29527 0
M  V30 1353 H 120.805 -2.27436 3.75725 0
M  V30 1354 H 121.411 -0.662154 4.20114 0
M  V30 1355 N 119.726 -1.57421 0.075193 0
M  V30 1356 C 120.973 -1.93618 -0.593146 0
M  V30 1357 C 121.301 -0.955484 -1.69413 0
M  V30 1358 O 120.556 0.0283251 -1.9568 0
M  V30 1359 C 120.855 -3.36428 -1.20626 0
M  V30 1360 C 120.521 -4.50307 -0.231078 0
M  V30 1361 C 119.183 -4.81186 0.0371936 0
M  V30 1362 C 121.535 -5.19374 0.435888 0
M  V30 1363 C 118.863 -5.78466 0.979461 0
M  V30 1364 C 121.215 -6.17665 1.3665 0
M  V30 1365 C 119.879 -6.46958 1.6432 0
M  V30 1366 H 119.149 -0.708499 -0.217047 0
M  V30 1367 H 121.796 -1.90937 0.146793 0
M  V30 1368 H 120.101 -3.35592 -2.02201 0
M  V30 1369 H 121.798 -3.61727 -1.73073 0
M  V30 1370 H 118.388 -4.26227 -0.450357 0
M  V30 1371 H 122.572 -4.95711 0.241748 0
M  V30 1372 H 117.828 -5.99487 1.20106 0
M  V30 1373 H 122.002 -6.70284 1.88924 0
M  V30 1374 H 119.629 -7.2215 2.37494 0
M  V30 1375 N 121.204 0.198386 -1.56346 0
M  V30 1376 C 122.114 1.2664 -1.97483 0
M  V30 1377 C 123.13 1.49989 -0.882002 0
M  V30 1378 O 124.306 1.62668 -1.18748 0
M  V30 1379 C 121.371 2.59141 -2.30319 0
M  V30 1380 C 120.432 2.43892 -3.53292 0
M  V30 1381 C 119.665 3.70074 -3.84553 0
M  V30 1382 O 119.888 4.74101 -3.1715 0
M  V30 1383 O 118.822 3.658 -4.7799 0
M  V30 1384 H 122.648 0.947304 -2.88548 0
M  V30 1385 H 120.233 0.403123 -1.43859 0
M  V30 1386 H 122.115 3.37352 -2.5253 0
M  V30 1387 H 120.79 2.90684 -1.42423 0
M  V30 1388 H 119.697 1.63803 -3.36332 0
M  V30 1389 H 121.03 2.17282 -4.41644 0
M  V30 1390 N 122.682 1.50554 0.465978 0
M  V30 1391 C 124.098 1.38093 0.800154 0
M  V30 1392 C 124.298 0.440988 1.96615 0
M  V30 1393 O 123.354 -0.114499 2.5224 0
M  V30 1394 C 124.667 2.79565 1.10742 0
M  V30 1395 C 126.215 2.88516 1.21357 0
M  V30 1396 C 126.69 4.30833 1.55393 0
M  V30 1397 N 128.181 4.33807 1.62375 0
M  V30 1398 C 128.916 5.40927 1.90225 0
M  V30 1399 N 128.412 6.58247 2.16062 0
M  V30 1400 N 130.205 5.28376 1.9177 0
M  V30 1401 H 122.356 2.10237 -0.302366 0
M  V30 1402 H 124.619 0.945203 -0.0727746 0
M  V30 1403 H 124.325 3.50208 0.323661 0
M  V30 1404 H 124.199 3.17125 2.04234 0
M  V30 1405 H 126.586 2.1809 1.98799 0
M  V30 1406 H 126.667 2.54492 0.258321 0
M  V30 1407 H 126.311 5.01799 0.784889 0
M  V30 1408 H 126.241 4.62347 2.52076 0
M  V30 1409 H 128.732 3.49212 1.44427 0
M  V30 1410 H 129.045 7.3569 2.36601 0
M  V30 1411 H 127.39 6.61413 2.13444 0
M  V30 1412 H 130.581 4.35715 1.71085 0
M  V30 1413 H 130.754 6.11944 2.13139 0
M  V30 1414 N 124.16 -0.719506 1.40217 0
M  V30 1415 C 125.407 -1.47933 1.38283 0
M  V30 1416 C 125.735 -1.94493 -0.0161536 0
M  V30 1417 O 124.99 -1.68224 -0.999956 0
M  V30 1418 C 125.289 -2.72271 2.31524 0
M  V30 1419 C 124.955 -2.44496 3.78857 0
M  V30 1420 C 123.617 -2.36631 4.18998 0
M  V30 1421 C 125.969 -2.21104 4.71977 0
M  V30 1422 C 123.297 -2.03437 5.503 0
M  V30 1423 C 125.649 -1.89423 6.03574 0
M  V30 1424 C 124.313 -1.80038 6.42762 0
M  V30 1425 H 123.583 -0.541325 0.506012 0
M  V30 1426 H 126.23 -0.824502 1.72842 0
M  V30 1427 H 124.535 -3.42572 1.90137 0
M  V30 1428 H 126.232 -3.30348 2.27313 0
M  V30 1429 H 122.822 -2.51503 3.47051 0
M  V30 1430 H 127.006 -2.26139 4.41786 0
M  V30 1431 H 122.262 -1.94705 5.79569 0
M  V30 1432 H 126.436 -1.70336 6.75247 0
M  V30 1433 H 124.063 -1.54083 7.44421 0
M  V30 1434 N 125.638 -1.25649 -0.95132 0
M  V30 1435 C 127.054 -1.02542 -1.223 0
M  V30 1436 C 127.254 0.255715 -1.99871 0
M  V30 1437 O 126.31 0.967558 -2.33226 0
M  V30 1438 C 127.623 -2.25065 -1.99415 0
M  V30 1439 C 129.171 -2.29861 -2.12446 0
M  V30 1440 C 129.646 -3.52048 -2.92961 0
M  V30 1441 N 131.137 -3.52465 -3.00538 0
M  V30 1442 C 131.872 -4.43672 -3.63239 0
M  V30 1443 N 131.368 -5.45157 -4.27523 0
M  V30 1444 N 133.161 -4.31346 -3.60412 0
M  V30 1445 H 125.312 -2.07951 -0.432471 0
M  V30 1446 H 127.575 -0.91339 -0.253816 0
M  V30 1447 H 127.281 -3.18194 -1.49817 0
M  V30 1448 H 127.155 -2.28502 -3.00111 0
M  V30 1449 H 129.542 -1.37252 -2.61239 0
M  V30 1450 H 129.623 -2.3044 -1.11044 0
M  V30 1451 H 129.267 -4.44981 -2.44856 0
M  V30 1452 H 129.197 -3.48715 -3.94596 0
M  V30 1453 H 131.688 -2.79056 -2.54826 0
M  V30 1454 H 132.001 -6.10958 -4.73234 0
M  V30 1455 H 130.346 -5.49025 -4.26141 0
M  V30 1456 H 133.537 -3.51288 -3.09377 0
M  V30 1457 H 133.71 -5.02624 -4.0899 0
M  V30 1458 N 127.117 1.15442 -1.07289 0
M  V30 1459 C 128.067 2.18164 -0.662467 0
M  V30 1460 C 129.051 1.57845 0.312074 0
M  V30 1461 O 130.243 1.76552 0.125905 0
M  V30 1462 C 127.372 3.43246 -0.0611295 0
M  V30 1463 C 126.458 4.1062 -1.06077 0
M  V30 1464 N 126.849 4.53491 -2.24008 0
M  V30 1465 C 125.147 4.36949 -0.893964 0
M  V30 1466 C 125.848 5.05731 -2.87422 0
M  V30 1467 N 124.824 4.99236 -2.15091 0
M  V30 1468 H 128.626 2.49038 -1.56068 0
M  V30 1469 H 126.14 1.32003 -0.945988 0
M  V30 1470 H 128.137 4.16145 0.250792 0
M  V30 1471 H 126.797 3.13854 0.832207 0
M  V30 1472 H 127.808 4.46898 -2.6173 0
M  V30 1473 H 124.485 4.17466 -0.0534693 0
M  V30 1474 H 125.875 5.48865 -3.87553 0
M  V30 1475 N 128.595 0.856903 1.32268 0
M  V30 1476 C 129.558 0.308171 2.27119 0
M  V30 1477 C 130.558 -0.533421 1.51695 0
M  V30 1478 O 131.748 -0.344607 1.70757 0
M  V30 1479 C 128.88 -0.563757 3.36206 0
M  V30 1480 H 130.073 1.14535 2.77167 0
M  V30 1481 H 127.626 0.631421 1.42978 0
M  V30 1482 H 128.361 -1.42266 2.91429 0
M  V30 1483 H 128.146 0.0386749 3.92081 0
M  V30 1484 H 129.636 -0.940386 4.06874 0
M  V30 1485 N 130.073 -1.45103 0.615059 0
M  V30 1486 C 131.005 -2.28786 -0.13762 0
M  V30 1487 C 132.018 -1.40376 -0.824525 0
M  V30 1488 O 133.207 -1.64681 -0.688662 0
M  V30 1489 C 130.307 -3.16322 -1.21628 0
M  V30 1490 C 129.48 -4.33054 -0.615039 0
M  V30 1491 C 128.539 -5.01743 -1.58556 0
M  V30 1492 O 127.565 -5.58293 -1.10895 0
M  V30 1493 N 128.767 -5.01714 -2.91998 0
M  V30 1494 H 131.532 -2.94025 0.580483 0
M  V30 1495 H 129.093 -1.55373 0.45507 0
M  V30 1496 H 131.085 -3.59139 -1.86552 0
M  V30 1497 H 129.655 -2.52943 -1.83681 0
M  V30 1498 H 128.875 -3.93627 0.21245 0
M  V30 1499 H 130.163 -5.08431 -0.193704 0
M  V30 1500 H 129.561 -4.57075 -3.33316 0
M  V30 1501 H 128.118 -5.48371 -3.52325 0
M  V30 1502 N 131.551 -0.354651 -1.53558 0
M  V30 1503 C 132.481 0.489091 -2.2832 0
M  V30 1504 C 133.462 1.09324 -1.30316 0
M  V30 1505 O 134.647 1.11255 -1.59173 0
M  V30 1506 C 131.777 1.63456 -3.0643 0
M  V30 1507 C 130.731 1.1582 -4.12031 0
M  V30 1508 C 130.057 2.39305 -4.7816 0
M  V30 1509 C 131.357 0.250731 -5.21698 0
M  V30 1510 H 133.051 -0.134614 -2.99097 0
M  V30 1511 H 130.597 -0.0661826 -1.43848 0
M  V30 1512 H 132.55 2.23136 -3.57475 0
M  V30 1513 H 131.274 2.28533 -2.33325 0
M  V30 1514 H 129.933 0.584146 -3.61916 0
M  V30 1515 H 129.581 3.02814 -4.01637 0
M  V30 1516 H 129.281 2.08109 -5.49513 0
M  V30 1517 H 130.805 2.99691 -5.31994 0
M  V30 1518 H 132.219 0.754695 -5.68311 0
M  V30 1519 H 130.616 0.0301468 -6.00092 0
M  V30 1520 H 131.686 -0.710125 -4.79672 0
M  V30 1521 N 133.029 1.57378 -0.0835403 0
M  V30 1522 C 133.959 2.1641 0.87686 0
M  V30 1523 C 134.94 1.09429 1.30228 0
M  V30 1524 O 136.125 1.37516 1.37124 0
M  V30 1525 C 133.255 2.73517 2.14022 0
M  V30 1526 C 132.209 3.85769 1.85381 0
M  V30 1527 C 131.535 4.29529 3.18448 0
M  V30 1528 C 132.835 5.09486 1.14984 0
M  V30 1529 H 134.529 2.96914 0.385059 0
M  V30 1530 H 132.075 1.42823 0.18377 0
M  V30 1531 H 134.028 3.13463 2.81636 0
M  V30 1532 H 132.752 1.90252 2.65465 0
M  V30 1533 H 131.411 3.46345 1.20169 0
M  V30 1534 H 131.059 3.43169 3.67755 0
M  V30 1535 H 130.759 5.05204 3.00071 0
M  V30 1536 H 132.283 4.72099 3.8724 0
M  V30 1537 H 133.697 5.46674 1.72687 0
M  V30 1538 H 132.094 5.90515 1.06826 0
M  V30 1539 H 133.164 4.84724 0.130749 0
M  V30 1540 N 134.507 -0.190092 1.56449 0
M  V30 1541 C 135.784 -0.935886 1.71757 0
M  V30 1542 C 136.164 -2.01173 0.639726 0
M  V30 1543 O 135.512 -2.25827 -0.348502 0
M  V30 1544 C 135.722 -1.51775 3.1427 0
M  V30 1545 C 137.07 -1.99794 3.74656 0
M  V30 1546 O 138.094 -1.61607 3.1743 0
M  V30 1547 O 136.953 -2.70079 4.751 0
M  V30 1548 H 134.047 -0.439229 0.700719 0
M  V30 1549 H 136.593 -0.179395 1.68749 0
M  V30 1550 H 135.365 -0.742505 3.84191 0
M  V30 1551 H 134.988 -2.33894 3.21527 0
M  V30 1552 N 135.985 -1.50799 -0.457987 0
M  V30 1553 C 136.948 -1.7005 -1.53674 0
M  V30 1554 C 137.948 -0.570881 -1.50325 0
M  V30 1555 O 139.138 -0.838126 -1.52712 0
M  V30 1556 C 136.27 -1.73788 -2.93276 0
M  V30 1557 H 137.463 -2.66306 -1.37917 0
M  V30 1558 H 135.016 -1.40477 -0.685271 0
M  V30 1559 H 135.751 -0.792717 -3.14462 0
M  V30 1560 H 135.536 -2.55864 -2.97113 0
M  V30 1561 H 137.026 -1.90591 -3.71571 0
M  V30 1562 N 137.463 0.71206 -1.40597 0
M  V30 1563 C 138.426 1.80785 -1.40888 0
M  V30 1564 C 139.426 1.57937 -0.302103 0
M  V30 1565 O 140.616 1.64913 -0.561182 0
M  V30 1566 C 137.748 3.18927 -1.20409 0
M  V30 1567 H 138.941 1.81924 -2.38419 0
M  V30 1568 H 136.494 0.91805 -1.26497 0
M  V30 1569 H 137.229 3.23436 -0.236522 0
M  V30 1570 H 137.014 3.36911 -2.00582 0
M  V30 1571 H 138.504 3.98949 -1.23408 0
M  V30 1572 N 138.941 1.26152 0.944643 0
M  V30 1573 C 139.888 1.07408 2.04285 0
M  V30 1574 C 140.858 -0.0198413 1.66088 0
M  V30 1575 O 142.043 0.139264 1.90291 0
M  V30 1576 C 139.183 0.70945 3.37729 0
M  V30 1577 C 138.296 1.87926 3.88983 0
M  V30 1578 C 137.431 1.45807 5.10797 0
M  V30 1579 C 136.47 2.5964 5.54305 0
M  V30 1580 N 135.607 2.18226 6.67324 0
M  V30 1581 H 140.447 2.01389 2.1965 0
M  V30 1582 H 137.984 1.00275 1.07626 0
M  V30 1583 H 139.942 0.478948 4.14442 0
M  V30 1584 H 138.572 -0.193389 3.2222 0
M  V30 1585 H 137.624 2.22279 3.08701 0
M  V30 1586 H 138.936 2.73377 4.17213 0
M  V30 1587 H 138.09 1.18781 5.94959 0
M  V30 1588 H 136.829 0.574414 4.84305 0
M  V30 1589 H 135.834 2.87399 4.68702 0
M  V30 1590 H 137.059 3.48599 5.828 0
M  V30 1591 H 135.005 1.3229 6.42523 0
M  V30 1592 H 134.922 2.97221 6.95123 0
M  V30 1593 H 136.19 1.94403 7.54869 0
M  V30 1594 N 140.419 -1.14872 1.07899 0
M  V30 1595 C 141.382 -2.17986 0.708161 0
M  V30 1596 C 142.382 -1.58775 -0.25442 0
M  V30 1597 O 143.572 -1.74166 -0.034645 0
M  V30 1598 C 140.704 -3.40871 0.0446929 0
M  V30 1599 H 141.897 -2.52306 1.62116 0
M  V30 1600 H 139.45 -1.2943 0.876218 0
M  V30 1601 H 140.185 -3.12124 -0.880281 0
M  V30 1602 H 139.97 -3.8511 0.737091 0
M  V30 1603 H 141.46 -4.17121 -0.19991 0
M  V30 1604 N 141.898 -0.863906 -1.31812 0
M  V30 1605 C 143.146 -0.470904 -1.96537 0
M  V30 1606 C 143.467 0.978771 -1.68657 0
M  V30 1607 O 142.737 1.6853 -0.998717 0
M  V30 1608 H 141.317 -0.171148 -0.72713 0
M  V30 1609 H 143.979 -1.10236 -1.60729 0
M  V30 1610 H 143.075 -0.623616 -3.05806 0
M  V30 1611 N 143.376 1.44774 -0.622745 0
M  V30 1612 C 144.624 2.01721 -0.123655 0
M  V30 1613 C 144.945 1.49172 1.25589 0
M  V30 1614 O 144.215 0.691974 1.83272 0
M  V30 1615 H 142.795 0.745777 -0.0427225 0
M  V30 1616 H 145.457 1.77382 -0.807559 0
M  V30 1617 H 144.553 3.11984 -0.0849534 0
M  V30 1618 N 144.854 0.36279 1.53368 0
M  V30 1619 C 145.764 -0.492994 2.29362 0
M  V30 1620 C 146.78 -1.09507 1.35219 0
M  V30 1621 O 147.956 -1.10662 1.68273 0
M  V30 1622 C 145.021 -1.61855 3.066 0
M  V30 1623 C 144.082 -1.04429 4.16405 0
M  V30 1624 C 143.315 -2.11621 4.89951 0
M  V30 1625 O 143.538 -3.32684 4.63333 0
M  V30 1626 O 142.472 -1.74835 5.75948 0
M  V30 1627 H 146.298 0.125331 3.03441 0
M  V30 1628 H 143.883 0.127253 1.48857 0
M  V30 1629 H 145.765 -2.27302 3.54841 0
M  V30 1630 H 144.44 -2.22233 2.3536 0
M  V30 1631 H 143.347 -0.353819 3.72423 0
M  V30 1632 H 144.68 -0.485113 4.89804 0
M  V30 1633 N 146.332 -1.57332 0.0918853 0
M  V30 1634 C 147.579 -1.94236 -0.572577 0
M  V30 1635 C 147.907 -0.973398 -1.6839 0
M  V30 1636 O 147.162 0.00756912 -1.95699 0
M  V30 1637 C 147.461 -3.37689 -1.17051 0
M  V30 1638 C 147.127 -4.50527 -0.183304 0
M  V30 1639 C 145.789 -4.81119 0.0882276 0
M  V30 1640 C 148.141 -5.18883 0.49095 0
M  V30 1641 C 145.469 -5.77395 1.04076 0
M  V30 1642 C 147.821 -6.1618 1.43193 0
M  V30 1643 C 146.485 -6.45179 1.71173 0
M  V30 1644 H 145.755 -0.710762 -0.209521 0
M  V30 1645 H 148.402 -1.9077 0.167036 0
M  V30 1646 H 146.707 -3.37718 -1.9863 0
M  V30 1647 H 148.404 -3.63543 -1.69227 0
M  V30 1648 H 144.994 -4.26681 -0.405124 0
M  V30 1649 H 149.178 -4.95427 0.294312 0
M  V30 1650 H 144.434 -5.98179 1.26457 0
M  V30 1651 H 148.608 -6.68243 1.96023 0
M  V30 1652 H 146.235 -7.1959 2.4514 0
M  V30 1653 N 147.81 0.181792 -1.56548 0
M  V30 1654 C 148.74 1.22765 -1.98623 0
M  V30 1655 C 149.721 1.46747 -0.860189 0
M  V30 1656 O 150.906 1.58259 -1.12551 0
M  V30 1657 C 148.036 2.56894 -2.33715 0
M  V30 1658 C 146.99 2.475 -3.49182 0
M  V30 1659 C 146.316 3.86023 -3.69986 0
M  V30 1660 C 147.616 1.98866 -4.82959 0
M  V30 1661 H 149.31 0.877942 -2.86239 0
M  V30 1662 H 146.856 0.42088 -1.37712 0
M  V30 1663 H 148.809 3.30253 -2.61746 0
M  V30 1664 H 147.533 2.93632 -1.42997 0
M  V30 1665 H 146.192 1.76596 -3.21262 0
M  V30 1666 H 145.84 4.20136 -2.76576 0
M  V30 1667 H 145.54 3.80609 -4.47672 0
M  V30 1668 H 147.064 4.60984 -4.00407 0
M  V30 1669 H 148.478 2.61992 -5.09934 0
M  V30 1670 H 146.875 2.04424 -5.64208 0
M  V30 1671 H 147.945 0.942465 -4.75653 0
M  V30 1672 N 149.288 1.51039 0.449983 0
M  V30 1673 C 150.218 1.74379 1.55288 0
M  V30 1674 C 151.199 0.593236 1.5942 0
M  V30 1675 O 152.384 0.834625 1.7535 0
M  V30 1676 C 149.514 1.85728 2.93466 0
M  V30 1677 C 148.468 3.01078 3.04197 0
M  V30 1678 C 147.794 2.97595 4.44231 0
M  V30 1679 C 149.094 4.41254 2.7945 0
M  V30 1680 H 150.788 2.66725 1.36008 0
M  V30 1681 H 148.334 1.2835 0.652864 0
M  V30 1682 H 150.287 2.0064 3.70569 0
M  V30 1683 H 149.011 0.900207 3.13949 0
M  V30 1684 H 147.67 2.85851 2.29531 0
M  V30 1685 H 147.318 1.99691 4.61663 0
M  V30 1686 H 147.018 3.75046 4.52343 0
M  V30 1687 H 148.542 3.14583 5.23326 0
M  V30 1688 H 149.956 4.56897 3.46292 0
M  V30 1689 H 148.353 5.20315 2.98985 0
M  V30 1690 H 149.423 4.52164 1.75144 0
M  V30 1691 N 150.766 -0.704594 1.40972 0
M  V30 1692 C 152.182 -1.01406 1.23244 0
M  V30 1693 C 152.382 -2.01169 0.115399 0
M  V30 1694 O 151.438 -2.47021 -0.523147 0
M  V30 1695 C 152.751 -1.54728 2.57836 0
M  V30 1696 C 154.299 -1.66658 2.64942 0
M  V30 1697 C 154.774 -2.23383 3.9983 0
M  V30 1698 N 156.265 -2.30756 4.01629 0
M  V30 1699 C 157 -2.75655 5.02794 0
M  V30 1700 N 156.496 -3.20225 6.14352 0
M  V30 1701 N 158.289 -2.75138 4.90159 0
M  V30 1702 H 150.44 -0.0435285 2.12355 0
M  V30 1703 H 152.703 -0.0818951 0.944456 0
M  V30 1704 H 152.409 -0.888832 3.40283 0
M  V30 1705 H 152.283 -2.53084 2.79693 0
M  V30 1706 H 154.67 -2.31617 1.8286 0
M  V30 1707 H 154.751 -0.668717 2.46904 0
M  V30 1708 H 154.395 -1.59043 4.82357 0
M  V30 1709 H 154.325 -3.23904 4.15203 0
M  V30 1710 H 156.816 -1.99291 3.21079 0
M  V30 1711 H 157.129 -3.53084 6.87424 0
M  V30 1712 H 155.474 -3.18156 6.17901 0
M  V30 1713 H 158.665 -2.39661 4.02095 0
M  V30 1714 H 158.838 -3.09812 5.6914 0
M  V30 1715 N 152.244 -1.26651 -0.937939 0
M  V30 1716 C 153.474 -1.15006 -1.71631 0
M  V30 1717 C 153.882 0.297026 -1.86854 0
M  V30 1718 O 153.225 1.21493 -1.37786 0
M  V30 1719 C 153.287 -1.74984 -3.14039 0
M  V30 1720 C 152.951 -3.24103 -3.2219 0
M  V30 1721 C 153.948 -4.20877 -3.05219 0
M  V30 1722 C 151.633 -3.64625 -3.45476 0
M  V30 1723 C 153.627 -5.56151 -3.11408 0
M  V30 1724 C 151.314 -5.00032 -3.513 0
M  V30 1725 C 152.312 -5.95604 -3.34282 0
M  V30 1726 O 152 -7.28545 -3.3982 0
M  V30 1727 H 151.732 -0.401183 -0.544085 0
M  V30 1728 H 154.286 -1.67832 -1.18413 0
M  V30 1729 H 152.516 -1.16624 -3.68695 0
M  V30 1730 H 154.205 -1.58199 -3.73802 0
M  V30 1731 H 154.971 -3.90908 -2.87081 0
M  V30 1732 H 150.85 -2.90718 -3.57777 0
M  V30 1733 H 154.394 -6.30727 -2.98043 0
M  V30 1734 H 150.291 -5.29659 -3.68959 0
M  V30 1735 H 151.059 -7.3686 -3.56343 0
M  V30 1736 N 153.722 1.14298 -1.08507 0
M  V30 1737 C 154.685 2.17607 -0.719711 0
M  V30 1738 C 155.685 1.58907 0.245997 0
M  V30 1739 O 156.875 1.74181 0.0254081 0
M  V30 1740 C 154.007 3.40842 -0.0627695 0
M  V30 1741 H 155.2 2.51443 -1.63452 0
M  V30 1742 H 152.753 1.28963 -0.88307 0
M  V30 1743 H 153.488 3.12587 0.863716 0
M  V30 1744 H 153.273 3.84713 -0.757504 0
M  V30 1745 H 154.763 4.17221 0.177786 0
M  V30 1746 N 155.201 0.870884 1.31352 0
M  V30 1747 C 156.617 0.562932 1.49343 0
M  V30 1748 C 156.817 -0.902725 1.80148 0
M  V30 1749 O 155.873 -1.68484 1.88067 0
M  V30 1750 C 157.186 1.46393 2.62659 0
M  V30 1751 C 158.734 1.46607 2.76542 0
M  V30 1752 C 159.209 2.35266 3.92955 0
M  V30 1753 N 160.7 2.33151 4.00243 0
M  V30 1754 C 161.435 2.98471 4.89594 0
M  V30 1755 N 160.931 3.72964 5.8384 0
M  V30 1756 N 162.724 2.87775 4.82848 0
M  V30 1757 H 154.875 1.81923 1.09626 0
M  V30 1758 H 157.138 0.777934 0.541777 0
M  V30 1759 H 156.844 2.50689 2.46674 0
M  V30 1760 H 156.718 1.16314 3.58819 0
M  V30 1761 H 159.105 0.43069 2.9194 0
M  V30 1762 H 159.186 1.8071 1.81046 0
M  V30 1763 H 158.83 3.38881 3.78315 0
M  V30 1764 H 158.76 1.98487 4.87761 0
M  V30 1765 H 161.251 1.79006 3.32814 0
M  V30 1766 H 161.564 4.19932 6.4875 0
M  V30 1767 H 159.909 3.77073 5.83816 0
M  V30 1768 H 163.1 2.29116 4.08195 0
M  V30 1769 H 163.273 3.38961 5.52277 0
M  V30 1770 N 156.679 -1.44442 0.630414 0
M  V30 1771 C 157.925 -2.02351 0.134816 0
M  V30 1772 C 158.258 -1.4947 -1.23986 0
M  V30 1773 O 157.533 -0.678475 -1.82283 0
M  V30 1774 C 157.816 -3.59898 0.120707 0
M  V30 1775 C 157.669 -4.23063 1.52767 0
M  V30 1776 C 158.988 -4.36585 -0.555127 0
M  V30 1777 H 156.107 -0.73527 0.0504646 0
M  V30 1778 H 158.749 -1.72022 0.806751 0
M  V30 1779 H 156.899 -3.85868 -0.451477 0
M  V30 1780 H 158.571 -4.08202 2.14869 0
M  V30 1781 H 156.814 -3.80586 2.08175 0
M  V30 1782 H 157.485 -5.32071 1.46984 0
M  V30 1783 H 159.961 -4.16044 -0.0685429 0
M  V30 1784 H 158.837 -5.46294 -0.534185 0
M  V30 1785 H 159.098 -4.11138 -1.62535 0
M  V30 1786 N 158.157 -0.370918 -1.53173 0
M  V30 1787 C 159.12 0.460778 -2.24521 0
M  V30 1788 C 160.12 1.00536 -1.25496 0
M  V30 1789 O 161.31 0.890266 -1.49733 0
M  V30 1790 C 158.442 1.64457 -2.98608 0
M  V30 1791 H 159.635 -0.163613 -2.99453 0
M  V30 1792 H 157.188 -0.122699 -1.55818 0
M  V30 1793 H 157.923 2.30691 -2.2793 0
M  V30 1794 H 157.708 1.26099 -3.7127 0
M  V30 1795 H 159.198 2.23384 -3.5283 0
M  V30 1796 N 159.635 1.57281 -0.100228 0
M  V30 1797 C 161.046 1.81725 0.428107 0
M  V30 1798 C 161.397 1.01619 1.67833 0
M  V30 1799 O 160.522 0.247098 2.14985 0
M  V30 1800 C 161.117 3.29617 0.78347 0
M  V30 1801 C 159.676 3.54808 1.25653 0
M  V30 1802 C 158.823 2.76118 0.255752 0
M  V30 1803 H 161.774 1.55324 -0.325608 0
M  V30 1804 H 161.795 3.4322 1.64256 0
M  V30 1805 H 161.307 3.87893 -0.12665 0
M  V30 1806 H 159.408 3.01868 2.18418 0
M  V30 1807 H 159.521 4.63443 1.21482 0
M  V30 1808 H 157.885 2.43745 0.738956 0
M  V30 1809 H 158.668 3.37145 -0.647136 0
M  V30 1810 N 161.113 -0.173488 1.56642 0
M  V30 1811 C 162.524 -0.736155 1.71574 0
M  V30 1812 C 162.875 -1.82888 0.710389 0
M  V30 1813 O 162 -2.16017 -0.1287 0
M  V30 1814 C 162.595 -1.34211 3.11083 0
M  V30 1815 C 161.154 -1.85162 3.27707 0
M  V30 1816 C 160.301 -0.729765 2.67525 0
M  V30 1817 H 163.252 0.0518786 1.58615 0
M  V30 1818 H 163.273 -2.21178 3.09613 0
M  V30 1819 H 162.785 -0.546579 3.84232 0
M  V30 1820 H 160.886 -2.67366 2.59512 0
M  V30 1821 H 160.999 -1.99855 4.35425 0
M  V30 1822 H 159.363 -1.14965 2.27278 0
M  V30 1823 H 160.146 0.0538806 3.43258 0
M  V30 1824 N 162.591 -1.51276 -0.441967 0
M  V30 1825 C 163.839 -1.63392 -1.18943 0
M  V30 1826 C 164.16 -0.350159 -1.9183 0
M  V30 1827 O 163.43 0.633784 -1.85364 0
M  V30 1828 H 162.01 -0.602164 -0.442049 0
M  V30 1829 H 164.672 -1.88186 -0.507165 0
M  V30 1830 H 163.768 -2.45934 -1.92154 0
M  V30 1831 N 164.069 0.697108 -1.41344 0
M  V30 1832 C 165.016 1.81106 -1.43071 0
M  V30 1833 C 165.986 1.63632 -0.285275 0
M  V30 1834 O 167.171 1.84504 -0.486091 0
M  V30 1835 C 164.311 3.18975 -1.31715 0
M  V30 1836 C 163.424 3.47892 -2.56115 0
M  V30 1837 C 162.559 4.75367 -2.37064 0
M  V30 1838 C 161.598 4.97247 -3.56948 0
M  V30 1839 N 160.735 6.15947 -3.36977 0
M  V30 1840 H 165.575 1.78965 -2.38276 0
M  V30 1841 H 163.112 0.873975 -1.18322 0
M  V30 1842 H 165.07 3.98615 -1.23133 0
M  V30 1843 H 163.7 3.20297 -0.401183 0
M  V30 1844 H 162.752 2.62669 -2.75153 0
M  V30 1845 H 164.064 3.59962 -3.45295 0
M  V30 1846 H 163.218 5.63059 -2.25941 0
M  V30 1847 H 161.957 4.65541 -1.45338 0
M  V30 1848 H 160.962 4.08004 -3.68527 0
M  V30 1849 H 162.187 5.08934 -4.49626 0
M  V30 1850 H 160.133 6.07336 -2.47949 0
M  V30 1851 H 160.05 6.28777 -4.19732 0
M  V30 1852 H 161.318 7.06377 -3.29623 0
M  V30 1853 N 165.547 1.27147 0.931209 0
M  V30 1854 C 166.494 1.09568 2.03134 0
M  V30 1855 C 167.464 -0.00222433 1.661 0
M  V30 1856 O 168.649 0.159439 1.90133 0
M  V30 1857 C 165.789 0.745231 3.36957 0
M  V30 1858 C 164.902 1.92041 3.86968 0
M  V30 1859 C 164.037 1.51216 5.09222 0
M  V30 1860 C 163.076 2.65504 5.5152 0
M  V30 1861 N 162.213 2.25291 6.64972 0
M  V30 1862 H 167.053 2.03708 2.17502 0
M  V30 1863 H 164.59 1.01411 1.06556 0
M  V30 1864 H 166.548 0.522878 4.1391 0
M  V30 1865 H 165.178 -0.159202 3.22407 0
M  V30 1866 H 164.23 2.25541 3.06326 0
M  V30 1867 H 165.542 2.77787 4.1429 0
M  V30 1868 H 164.696 1.25084 5.93666 0
M  V30 1869 H 163.435 0.625749 4.83669 0
M  V30 1870 H 162.44 2.92354 4.65628 0
M  V30 1871 H 163.665 3.54761 5.7907 0
M  V30 1872 H 161.611 1.39098 6.41083 0
M  V30 1873 H 161.528 3.04577 6.91931 0
M  V30 1874 H 162.796 2.02398 7.52765 0
M  V30 1875 N 167.025 -1.13721 1.09112 0
M  V30 1876 C 168.265 -1.86576 0.834801 0
M  V30 1877 C 168.629 -1.81435 -0.628122 0
M  V30 1878 O 169.83 -2.49497 -1.00024 0
M  V30 1879 C 168.101 -3.30872 1.35124 0
M  V30 1880 S 169.66 -4.21257 1.22832 0
M  V30 1881 H 166.478 -0.643666 0.302017 0
M  V30 1882 H 169.08 -1.37085 1.39385 0
M  V30 1883 H 167.784 -3.32166 2.41027 0
M  V30 1884 H 167.315 -3.85423 0.788185 0
M  V30 1885 H 169.33 -4.95884 0.177191 0
M  V30 1886 N 168.503 -0.877838 -1.30888 0
M  V30 1887 C 169.466 -0.344265 -2.266 0
M  V30 1888 C 170.466 0.50922 -1.52524 0
M  V30 1889 O 171.656 0.317398 -1.71284 0
M  V30 1890 C 168.788 0.510198 -3.37061 0
M  V30 1891 H 169.981 -1.1893 -2.7531 0
M  V30 1892 H 167.534 -0.654088 -1.41956 0
M  V30 1893 H 168.269 1.37612 -2.93655 0
M  V30 1894 H 168.054 -0.101047 -3.9197 0
M  V30 1895 H 169.544 0.875537 -4.08319 0
M  V30 1896 N 169.982 1.44106 -0.638065 0
M  V30 1897 C 171.229 2.01978 -0.14533 0
M  V30 1898 C 171.557 1.50234 1.23532 0
M  V30 1899 O 170.812 0.679548 1.83523 0
M  V30 1900 C 171.111 3.5729 -0.0887327 0
M  V30 1901 C 170.777 4.28317 -1.40909 0
M  V30 1902 C 169.439 4.47437 -1.77069 0
M  V30 1903 C 171.791 4.6867 -2.28031 0
M  V30 1904 C 169.119 5.04171 -3.00047 0
M  V30 1905 C 171.471 5.26766 -3.50286 0
M  V30 1906 C 170.135 5.44104 -3.86661 0
M  V30 1907 H 169.405 0.739089 -0.0531801 0
M  V30 1908 H 172.052 1.72781 -0.825761 0
M  V30 1909 H 170.357 3.8594 0.675095 0
M  V30 1910 H 172.054 3.99807 0.309145 0
M  V30 1911 H 168.644 4.1377 -1.1177 0
M  V30 1912 H 172.828 4.53604 -2.01388 0
M  V30 1913 H 168.084 5.15782 -3.28298 0
M  V30 1914 H 172.258 5.56983 -4.18023 0
M  V30 1915 H 169.885 5.87832 -4.82034 0
M  V30 1916 N 171.46 0.379036 1.52974 0
M  V30 1917 C 172.706 -0.206727 2.01744 0
M  V30 1918 C 173.039 -1.47314 1.26539 0
M  V30 1919 O 172.314 -1.91084 0.362903 0
M  V30 1920 C 172.597 -0.485066 3.56818 0
M  V30 1921 C 172.45 0.795919 4.42702 0
M  V30 1922 C 173.769 -1.28003 4.21074 0
M  V30 1923 H 170.888 -0.0736607 0.73331 0
M  V30 1924 H 173.53 0.506581 1.83122 0
M  V30 1925 H 171.68 -1.09272 3.72816 0
M  V30 1926 H 173.352 1.43307 4.38476 0
M  V30 1927 H 171.595 1.41344 4.10127 0
M  V30 1928 H 172.266 0.555947 5.49193 0
M  V30 1929 H 174.742 -0.765867 4.08991 0
M  V30 1930 H 173.618 -1.44352 5.29579 0
M  V30 1931 H 173.879 -2.29236 3.78026 0
M  V30 1932 N 172.938 -1.57226 0.108567 0
M  V30 1933 C 173.868 -2.17778 -0.84232 0
M  V30 1934 C 174.849 -1.11487 -1.2847 0
M  V30 1935 O 176.034 -1.39681 -1.34918 0
M  V30 1936 C 173.164 -2.76888 -2.09644 0
M  V30 1937 C 172.118 -3.88669 -1.79221 0
M  V30 1938 C 171.444 -4.34541 -3.11574 0
M  V30 1939 C 172.744 -5.11251 -1.06864 0
M  V30 1940 H 174.438 -2.97489 -0.337774 0
M  V30 1941 H 171.984 -1.43097 -0.161025 0
M  V30 1942 H 173.937 -3.17904 -2.76614 0
M  V30 1943 H 172.661 -1.94451 -2.62405 0
M  V30 1944 H 171.32 -3.48213 -1.14644 0
M  V30 1945 H 170.968 -3.48977 -3.62249 0
M  V30 1946 H 170.668 -5.09914 -2.91996 0
M  V30 1947 H 172.192 -4.782 -3.7968 0
M  V30 1948 H 173.606 -5.49352 -1.63968 0
M  V30 1949 H 172.003 -5.9214 -0.974178 0
M  V30 1950 H 173.073 -4.8487 -0.0536168 0
M  V30 1951 N 174.416 0.165178 -1.56732 0
M  V30 1952 C 175.644 0.896218 -1.86482 0
M  V30 1953 C 176.059 1.75555 -0.694675 0
M  V30 1954 O 175.416 1.79379 0.33607 0
M  V30 1955 C 175.467 1.76792 -3.1532 0
M  V30 1956 O 175.188 0.943239 -4.27825 0
M  V30 1957 C 176.689 2.6081 -3.58459 0
M  V30 1958 H 173.909 0.260064 -0.618553 0
M  V30 1959 H 176.453 0.163428 -2.03846 0
M  V30 1960 H 174.608 2.45398 -2.99764 0
M  V30 1961 H 175.022 1.53998 -5.01383 0
M  V30 1962 H 176.496 3.17579 -4.51495 0
M  V30 1963 H 176.973 3.35977 -2.82872 0
M  V30 1964 H 177.579 1.97526 -3.76648 0
M  V30 1965 N 175.894 1.51508 0.433938 0
M  V30 1966 C 177.31 1.39759 0.770682 0
M  V30 1967 C 177.51 0.482594 1.95636 0
M  V30 1968 O 176.566 -0.0609691 2.52426 0
M  V30 1969 C 177.879 2.81851 1.04787 0
M  V30 1970 C 179.427 2.91025 1.1521 0
M  V30 1971 C 179.902 4.34032 1.46219 0
M  V30 1972 N 181.393 4.37154 1.53136 0
M  V30 1973 C 182.128 5.4484 1.78709 0
M  V30 1974 N 181.624 6.62682 2.02051 0
M  V30 1975 N 183.417 5.32324 1.80519 0
M  V30 1976 H 175.568 2.09548 -0.346892 0
M  V30 1977 H 177.831 0.943446 -0.0928074 0
M  V30 1978 H 177.537 3.50815 0.249304 0
M  V30 1979 H 177.411 3.21386 1.97461 0
M  V30 1980 H 179.798 2.22257 1.94128 0
M  V30 1981 H 179.879 2.54983 0.204281 0
M  V30 1982 H 179.523 5.03351 0.678274 0
M  V30 1983 H 179.453 4.6759 2.42212 0
M  V30 1984 H 181.944 3.52197 1.36987 0
M  V30 1985 H 182.257 7.40543 2.20943 0
M  V30 1986 H 180.602 6.65791 1.99366 0
M  V30 1987 H 183.793 4.39246 1.61805 0
M  V30 1988 H 183.966 6.16328 2.00111 0
M  V30 1989 N 177.372 -0.689602 1.41712 0
M  V30 1990 C 178.649 -1.44457 1.31877 0
M  V30 1991 C 179.029 -2.11039 -0.0508537 0
M  V30 1992 O 178.377 -2.02138 -1.06547 0
M  V30 1993 C 178.587 -2.45913 2.47645 0
M  V30 1994 C 179.935 -3.10991 2.89084 0
M  V30 1995 O 180.959 -2.56238 2.47428 0
M  V30 1996 O 179.818 -4.10174 3.61137 0
M  V30 1997 H 176.912 -0.64362 0.519309 0
M  V30 1998 H 179.458 -0.719576 1.53689 0
M  V30 1999 H 178.23 -1.95409 3.39015 0
M  V30 2000 H 177.853 -3.25913 2.27742 0
M  V30 2001 N 178.85 -1.27639 -0.924453 0
M  V30 2002 C 180.098 -1.13941 -1.66918 0
M  V30 2003 C 180.419 0.314589 -1.92446 0
M  V30 2004 O 179.689 1.21964 -1.53303 0
M  V30 2005 H 178.269 -0.418678 -0.618642 0
M  V30 2006 H 180.931 -1.60213 -1.10985 0
M  V30 2007 H 180.027 -1.67094 -2.63602 0
M  V30 2008 N 180.328 1.1314 -1.09713 0
M  V30 2009 C 181.744 1.36477 -0.827423 0
M  V30 2010 C 181.944 1.93654 0.556817 0
M  V30 2011 O 181 2.15791 1.31112 0
M  V30 2012 C 182.313 2.31334 -1.92106 0
M  V30 2013 C 183.861 2.44943 -1.94864 0
M  V30 2014 C 184.336 3.4311 -3.0338 0
M  V30 2015 N 185.827 3.50662 -3.02639 0
M  V30 2016 C 186.562 4.2651 -3.83246 0
M  V30 2017 N 186.058 5.05485 -4.73768 0
M  V30 2018 N 187.851 4.2184 -3.71493 0
M  V30 2019 H 180.002 0.743807 -1.9895 0
M  V30 2020 H 182.265 0.389823 -0.864143 0
M  V30 2021 H 181.971 1.96483 -2.91698 0
M  V30 2022 H 181.845 3.31381 -1.80184 0
M  V30 2023 H 184.232 2.79079 -0.959099 0
M  V30 2024 H 184.313 1.4481 -2.10864 0
M  V30 2025 H 183.957 3.09704 -4.02549 0
M  V30 2026 H 183.887 4.43055 -2.84622 0
M  V30 2027 H 186.378 2.94315 -2.37039 0
M  V30 2028 H 186.691 5.60675 -5.3185 0
M  V30 2029 H 185.036 5.04708 -4.77802 0
M  V30 2030 H 188.227 3.5922 -3.00131 0
M  V30 2031 H 188.4 4.80697 -4.3455 0
M  V30 2032 N 181.806 0.884767 1.30421 0
M  V30 2033 C 183.217 0.553656 1.78302 0
M  V30 2034 C 183.568 -0.930153 1.7275 0
M  V30 2035 O 182.693 -1.72681 1.30423 0
M  V30 2036 C 183.288 0.998234 3.2376 0
M  V30 2037 C 181.847 0.71854 3.69478 0
M  V30 2038 C 180.994 1.18132 2.50879 0
M  V30 2039 H 183.945 1.06901 1.17294 0
M  V30 2040 H 183.966 0.327118 3.79091 0
M  V30 2041 H 183.478 2.0782 3.27769 0
M  V30 2042 H 181.579 -0.349444 3.70958 0
M  V30 2043 H 181.692 1.30595 4.60958 0
M  V30 2044 H 180.056 0.600669 2.47516 0
M  V30 2045 H 180.839 2.26902 2.57624 0
M  V30 2046 N 183.284 -1.43765 0.645699 0
M  V30 2047 C 184.53 -2.02197 0.156271 0
M  V30 2048 C 184.863 -1.50776 -1.22393 0
M  V30 2049 O 184.138 -0.697771 -1.81553 0
M  V30 2050 C 184.421 -3.59749 0.158872 0
M  V30 2051 C 184.274 -4.21419 1.57245 0
M  V30 2052 C 185.593 -4.37149 -0.50879 0
M  V30 2053 H 182.712 -0.734694 0.0582602 0
M  V30 2054 H 185.354 -1.71157 0.824951 0
M  V30 2055 H 183.504 -3.86325 -0.410525 0
M  V30 2056 H 185.176 -4.059 2.19186 0
M  V30 2057 H 183.419 -3.78356 2.122 0
M  V30 2058 H 184.09 -5.30482 1.52619 0
M  V30 2059 H 186.566 -4.16093 -0.024412 0
M  V30 2060 H 185.442 -5.4683 -0.476213 0
M  V30 2061 H 185.703 -4.12839 -1.58165 0
M  V30 2062 N 184.763 -0.387143 -1.52771 0
M  V30 2063 C 185.71 0.449048 -2.26389 0
M  V30 2064 C 186.68 1.05961 -1.27912 0
M  V30 2065 O 187.865 1.08804 -1.56737 0
M  V30 2066 C 185.005 1.57155 -3.0724 0
M  V30 2067 C 184.118 0.984066 -4.20643 0
M  V30 2068 C 183.253 2.07745 -4.88892 0
M  V30 2069 C 182.292 1.46574 -5.94292 0
M  V30 2070 N 181.429 2.49834 -6.56146 0
M  V30 2071 H 186.269 -0.185205 -2.97424 0
M  V30 2072 H 183.806 -0.103164 -1.46738 0
M  V30 2073 H 185.764 2.23309 -3.52405 0
M  V30 2074 H 184.394 2.17615 -2.38419 0
M  V30 2075 H 183.446 0.212193 -3.79808 0
M  V30 2076 H 184.758 0.497029 -4.96318 0
M  V30 2077 H 183.912 2.81673 -5.3735 0
M  V30 2078 H 182.651 2.59807 -4.12737 0
M  V30 2079 H 181.656 0.711696 -5.45174 0
M  V30 2080 H 182.881 0.953088 -6.72379 0
M  V30 2081 H 180.827 3.0107 -5.82832 0
M  V30 2082 H 180.744 2.05879 -7.27427 0
M  V30 2083 H 182.012 3.23399 -7.09249 0
M  V30 2084 N 186.241 1.57166 -0.116904 0
M  V30 2085 C 187.487 1.95412 0.542405 0
M  V30 2086 C 187.82 1.00019 1.66463 0
M  V30 2087 O 187.095 0.0370346 1.94465 0
M  V30 2088 C 187.378 3.43615 1.07708 0
M  V30 2089 C 187.231 4.49781 -0.0415868 0
M  V30 2090 C 188.55 3.93616 1.96861 0
M  V30 2091 H 185.669 0.710543 0.195696 0
M  V30 2092 H 188.311 1.89027 -0.192038 0
M  V30 2093 H 186.461 3.49187 1.70296 0
M  V30 2094 H 188.133 4.56308 -0.676793 0
M  V30 2095 H 186.376 4.28033 -0.705019 0
M  V30 2096 H 187.047 5.50733 0.373717 0
M  V30 2097 H 189.523 3.90335 1.44146 0
M  V30 2098 H 188.399 4.97838 2.3119 0
M  V30 2099 H 188.66 3.34188 2.89432 0
M  V30 2100 N 187.719 -0.156864 1.56817 0
M  V30 2101 C 188.651 -1.21883 1.94106 0
M  V30 2102 C 189.664 -1.3971 0.835754 0
M  V30 2103 O 190.853 -1.39457 1.11418 0
M  V30 2104 C 187.953 -2.58527 2.19127 0
M  V30 2105 C 187.126 -2.61809 3.50393 0
M  V30 2106 C 186.185 -3.7992 3.64071 0
M  V30 2107 O 185.211 -3.65249 4.36557 0
M  V30 2108 N 186.413 -4.96973 2.99997 0
M  V30 2109 H 189.178 -0.901974 2.85805 0
M  V30 2110 H 186.739 -0.346513 1.58148 0
M  V30 2111 H 188.731 -3.36034 2.25529 0
M  V30 2112 H 187.301 -2.82545 1.33742 0
M  V30 2113 H 186.521 -1.7029 3.5552 0
M  V30 2114 H 187.809 -2.61024 4.36742 0
M  V30 2115 H 187.207 -5.11794 2.41004 0
M  V30 2116 H 185.764 -5.7229 3.11974 0
M  V30 2117 N 189.197 -1.51736 -0.425897 0
M  V30 2118 C 190.613 -1.40166 -0.76326 0
M  V30 2119 C 190.813 -0.492962 -1.95377 0
M  V30 2120 O 189.869 0.0475815 -2.52455 0
M  V30 2121 C 191.182 -2.82403 -1.03291 0
M  V30 2122 C 192.73 -2.91632 -1.13665 0
M  V30 2123 C 193.205 -4.34801 -1.43916 0
M  V30 2124 N 194.696 -4.3796 -1.50816 0
M  V30 2125 C 195.431 -5.4578 -1.75817 0
M  V30 2126 N 194.927 -6.63744 -1.98534 0
M  V30 2127 N 196.72 -5.33274 -1.77694 0
M  V30 2128 H 188.871 -2.09361 0.358 0
M  V30 2129 H 191.134 -0.942941 0.0978094 0
M  V30 2130 H 190.84 -3.50943 -0.230696 0
M  V30 2131 H 190.714 -3.22428 -1.95754 0
M  V30 2132 H 193.101 -2.23284 -1.92947 0
M  V30 2133 H 193.182 -2.55088 -0.190756 0
M  V30 2134 H 192.826 -5.03703 -0.65157 0
M  V30 2135 H 192.756 -4.68868 -2.39729 0
M  V30 2136 H 195.247 -3.52919 -1.35118 0
M  V30 2137 H 195.56 -7.41704 -2.17013 0
M  V30 2138 H 193.905 -6.66839 -1.95832 0
M  V30 2139 H 197.096 -4.40098 -1.59473 0
M  V30 2140 H 197.269 -6.1738 -1.9684 0
M  V30 2141 N 190.675 0.682077 -1.42076 0
M  V30 2142 C 191.903 1.47057 -1.4554 0
M  V30 2143 C 192.318 1.8869 -0.0645779 0
M  V30 2144 O 191.675 1.57666 0.919115 0
M  V30 2145 C 191.726 2.72442 -2.37609 0
M  V30 2146 O 191.447 2.32559 -3.71279 0
M  V30 2147 C 192.948 3.66069 -2.50017 0
M  V30 2148 H 190.168 0.452737 -0.495248 0
M  V30 2149 H 192.712 0.838695 -1.8651 0
M  V30 2150 H 190.867 3.31835 -1.9991 0
M  V30 2151 H 191.281 3.13475 -4.20516 0
M  V30 2152 H 192.755 4.50792 -3.18576 0
M  V30 2153 H 193.232 4.11476 -1.53572 0
M  V30 2154 H 193.838 3.12572 -2.88407 0
M  V30 2155 N 192.153 1.28127 0.917671 0
M  V30 2156 C 193.402 1.14432 1.66097 0
M  V30 2157 C 193.715 -0.307247 1.93172 0
M  V30 2158 O 194.921 -0.565259 2.65551 0
M  V30 2159 C 193.377 2.00015 2.99202 0
M  V30 2160 C 192.985 3.49889 2.79789 0
M  V30 2161 C 194.729 1.94996 3.77064 0
M  V30 2162 C 192.636 4.27636 4.08511 0
M  V30 2163 H 191.566 0.424662 0.62304 0
M  V30 2164 H 194.217 1.52628 1.01868 0
M  V30 2165 H 192.599 1.54672 3.64544 0
M  V30 2166 H 193.773 4.03162 2.23152 0
M  V30 2167 H 192.088 3.56392 2.15345 0
M  V30 2168 H 194.685 2.50354 4.72469 0
M  V30 2169 H 195.028 0.925819 4.05875 0
M  V30 2170 H 195.561 2.38287 3.18534 0
M  V30 2171 H 192.3 5.30615 3.84874 0
M  V30 2172 H 191.82 3.79137 4.64774 0
M  V30 2173 H 193.499 4.37346 4.76799 0
M  V30 2174 N 193.631 -1.12557 1.10312 0
M  V30 2175 C 194.878 -1.84038 0.844759 0
M  V30 2176 C 195.206 -1.84026 -0.629668 0
M  V30 2177 O 194.461 -1.28026 -1.48013 0
M  V30 2178 C 194.76 -3.31462 1.33669 0
M  V30 2179 C 194.426 -3.51647 2.82232 0
M  V30 2180 C 193.088 -3.56864 3.22802 0
M  V30 2181 C 195.44 -3.58867 3.77974 0
M  V30 2182 C 192.768 -3.66844 4.57867 0
M  V30 2183 C 195.12 -3.70375 5.1284 0
M  V30 2184 C 193.784 -3.73848 5.52986 0
M  V30 2185 H 193.054 -0.673444 0.309119 0
M  V30 2186 H 195.701 -1.32824 1.37949 0
M  V30 2187 H 194.006 -3.85091 0.721949 0
M  V30 2188 H 195.703 -3.85236 1.11329 0
M  V30 2189 H 192.293 -3.48249 2.49842 0
M  V30 2190 H 196.477 -3.54107 3.47738 0
M  V30 2191 H 191.733 -3.67804 4.88396 0
M  V30 2192 H 195.907 -3.74904 5.86873 0
M  V30 2193 H 193.534 -3.81333 6.57639 0
M  V30 2194 N 195.109 -0.891671 -1.2995 0
M  V30 2195 C 196.334 -0.527932 -2.00568 0
M  V30 2196 C 196.759 0.877969 -1.66353 0
M  V30 2197 O 196.117 1.58301 -0.883762 0
M  V30 2198 C 196.165 -0.717745 -3.53385 0
M  V30 2199 O 195.269 0.233376 -4.11739 0
M  V30 2200 H 194.61 -0.20722 -0.630837 0
M  V30 2201 H 197.14 -1.20105 -1.65638 0
M  V30 2202 H 197.15 -0.619307 -4.03272 0
M  V30 2203 H 195.825 -1.74276 -3.77625 0
M  V30 2204 H 194.402 0.0880706 -3.72796 0
M  V30 2205 N 196.587 1.43421 -0.653314 0
M  V30 2206 C 197.497 2.34568 0.0388565 0
M  V30 2207 C 198.513 1.53888 0.81207 0
M  V30 2208 O 199.689 1.86539 0.759294 0
M  V30 2209 C 196.754 3.32167 0.993269 0
M  V30 2210 C 195.815 4.28751 0.216977 0
M  V30 2211 C 195.048 5.21688 1.12593 0
M  V30 2212 O 195.271 5.19052 2.36519 0
M  V30 2213 O 194.205 5.98919 0.598284 0
M  V30 2214 H 198.031 2.95251 -0.711386 0
M  V30 2215 H 195.616 1.43564 -0.413502 0
M  V30 2216 H 197.498 3.92183 1.54176 0
M  V30 2217 H 196.173 2.73987 1.72374 0
M  V30 2218 H 195.08 3.72215 -0.375101 0
M  V30 2219 H 196.413 4.89913 -0.473924 0
M  V30 2220 N 198.065 0.39524 1.52563 0
M  V30 2221 C 199.305 -0.184744 2.03563 0
M  V30 2222 C 199.669 -1.43548 1.27507 0
M  V30 2223 O 200.87 -2.093 1.68662 0
M  V30 2224 C 199.141 -0.440294 3.54678 0
M  V30 2225 S 200.7 -0.989712 4.27493 0
M  V30 2226 H 197.518 -0.0515075 0.709132 0
M  V30 2227 H 200.12 0.544957 1.87751 0
M  V30 2228 H 198.824 0.477005 4.07618 0
M  V30 2229 H 198.355 -1.19825 3.74707 0
M  V30 2230 H 200.37 -2.27155 4.41152 0
M  V30 2231 N 199.544 -1.57102 0.125237 0
M  V30 2232 C 200.791 -1.95407 -0.531248 0
M  V30 2233 C 201.119 -1.0089 -1.66287 0
M  V30 2234 O 200.374 -0.0339431 -1.95671 0
M  V30 2235 C 200.673 -3.40096 -1.09862 0
M  V30 2236 C 200.339 -4.50815 -0.0876989 0
M  V30 2237 C 199.001 -4.80824 0.19026 0
M  V30 2238 C 201.353 -5.17724 0.600902 0
M  V30 2239 C 198.681 -5.75058 1.163 0
M  V30 2240 C 201.033 -6.13005 1.56231 0
M  V30 2241 C 199.697 -6.41403 1.8482 0
M  V30 2242 H 198.967 -0.715046 -0.194397 0
M  V30 2243 H 201.614 -1.90373 0.207463 0
M  V30 2244 H 199.919 -3.41855 -1.91422 0
M  V30 2245 H 201.616 -3.6705 -1.61478 0
M  V30 2246 H 198.206 -4.27444 -0.314528 0
M  V30 2247 H 202.39 -4.94691 0.399333 0
M  V30 2248 H 197.646 -5.95362 1.39117 0
M  V30 2249 H 201.82 -6.63934 2.10153 0
M  V30 2250 H 199.447 -7.14229 2.60349 0
M  V30 2251 N 201.022 0.148545 -1.56898 0
M  V30 2252 C 202.252 0.875118 -1.8715 0
M  V30 2253 C 202.66 1.75322 -0.711262 0
M  V30 2254 O 202.003 1.80745 0.328151 0
M  V30 2255 C 202.065 1.7844 -3.12089 0
M  V30 2256 C 201.729 1.08361 -4.43967 0
M  V30 2257 C 202.726 0.438247 -5.1805 0
M  V30 2258 C 200.411 1.07358 -4.90693 0
M  V30 2259 C 202.405 -0.20779 -6.37061 0
M  V30 2260 C 200.092 0.42373 -6.09629 0
M  V30 2261 C 201.09 -0.215829 -6.82659 0
M  V30 2262 O 200.778 -0.855378 -7.99336 0
M  V30 2263 H 200.51 0.258504 -0.624621 0
M  V30 2264 H 203.064 0.14652 -2.04877 0
M  V30 2265 H 201.294 2.55389 -2.90367 0
M  V30 2266 H 202.983 2.38279 -3.286 0
M  V30 2267 H 203.749 0.437817 -4.8302 0
M  V30 2268 H 199.628 1.5608 -4.33774 0
M  V30 2269 H 203.172 -0.70758 -6.94002 0
M  V30 2270 H 199.069 0.421822 -6.4412 0
M  V30 2271 H 199.837 -0.756892 -8.14993 0
M  V30 2272 N 202.5 1.5196 0.417844 0
M  V30 2273 C 203.728 1.69426 1.18753 0
M  V30 2274 C 204.143 0.399955 1.84515 0
M  V30 2275 O 203.5 -0.623288 1.71527 0
M  V30 2276 C 203.551 2.82375 2.25714 0
M  V30 2277 O 203.272 4.06793 1.62638 0
M  V30 2278 C 204.773 3.11277 3.15628 0
M  V30 2279 H 201.993 0.568031 0.357186 0
M  V30 2280 H 204.537 1.98475 0.49273 0
M  V30 2281 H 202.692 2.5587 2.90877 0
M  V30 2282 H 203.106 4.69667 2.3348 0
M  V30 2283 H 204.58 3.93843 3.86771 0
M  V30 2284 H 205.057 2.24473 3.77503 0
M  V30 2285 H 205.663 3.39515 2.56144 0
M  V30 2286 N 203.978 -0.674533 1.42435 0
M  V30 2287 C 204.911 -1.79924 1.40366 0
M  V30 2288 C 205.889 -1.60378 0.267899 0
M  V30 2289 O 207.073 -1.82847 0.458159 0
M  V30 2290 C 204.2 -3.16927 1.19478 0
M  V30 2291 C 203.246 -3.55221 2.36051 0
M  V30 2292 S 204.079 -3.5762 3.98583 0
M  V30 2293 C 205.235 -4.97315 3.80038 0
M  V30 2294 H 205.468 -1.81405 2.35541 0
M  V30 2295 H 203.001 -0.845221 1.29211 0
M  V30 2296 H 204.959 -3.96007 1.08114 0
M  V30 2297 H 203.62 -3.13031 0.258883 0
M  V30 2298 H 202.813 -4.54804 2.17185 0
M  V30 2299 H 202.415 -2.83502 2.43932 0
M  V30 2300 H 204.707 -5.85401 3.41045 0
M  V30 2301 H 205.65 -5.21228 4.79298 0
M  V30 2302 H 206.058 -4.69845 3.12899 0
M  V30 2303 N 205.456 -1.28612 -0.910864 0
M  V30 2304 C 206.419 -1.12803 -1.9952 0
M  V30 2305 C 207.419 -0.0668264 -1.60661 0
M  V30 2306 O 208.609 -0.312847 -1.71368 0
M  V30 2307 C 205.741 -0.72254 -3.33155 0
M  V30 2308 H 206.934 -2.09109 -2.14973 0
M  V30 2309 H 204.487 -1.11639 -1.09391 0
M  V30 2310 H 205.222 0.241152 -3.23402 0
M  V30 2311 H 205.007 -1.48916 -3.62721 0
M  V30 2312 H 206.497 -0.634666 -4.12749 0
M  V30 2313 N 206.934 1.1197 -1.10907 0
M  V30 2314 C 207.867 2.16998 -0.706192 0
M  V30 2315 C 208.845 1.59903 0.294897 0
M  V30 2316 O 210.029 1.87513 0.192636 0
M  V30 2317 C 207.156 3.38673 -0.0427664 0
M  V30 2318 C 206.202 4.14414 -1.00811 0
M  V30 2319 S 207.035 4.72079 -2.52789 0
M  V30 2320 C 208.191 5.97083 -1.87731 0
M  V30 2321 H 208.424 2.50837 -1.59587 0
M  V30 2322 H 205.957 1.23508 -0.926555 0
M  V30 2323 H 207.915 4.09142 0.333668 0
M  V30 2324 H 206.576 3.03105 0.823788 0
M  V30 2325 H 205.769 5.016 -0.491259 0
M  V30 2326 H 205.371 3.49678 -1.3267 0
M  V30 2327 H 207.663 6.66599 -1.21044 0
M  V30 2328 H 208.606 6.53403 -2.72892 0
M  V30 2329 H 209.014 5.4837 -1.33979 0
M  V30 2330 N 208.412 0.89855 1.29475 0
M  V30 2331 C 209.36 0.365253 2.29714 0
M  V30 2332 C 210.354 -0.534993 1.6073 0
M  V30 2333 O 211.56 -0.417921 1.75081 0
M  V30 2334 H 207.935 0.0994853 0.74539 0
M  V30 2335 H 209.906 1.22406 2.72138 0
M  V30 2336 C 208.655 -0.393159 3.4547 0
M  V30 2337 H 207.978 0.290332 3.98744 0
M  V30 2338 H 209.418 -0.731189 4.17648 0
M  V30 2339 C 207.877 -1.59539 2.9673 0
M  V30 2340 O 208.407 -2.69469 2.97908 0
M  V30 2341 N 206.613 -1.43716 2.52575 0
M  V30 2342 H 206.16 -0.542828 2.51816 0
M  V30 2343 H 206.118 -2.24288 2.20323 0
M  V30 2344 N 209.89 -1.43072 0.660911 0
M  V30 2345 C 210.8 -2.34585 -0.0264163 0
M  V30 2346 C 211.816 -1.54316 -0.803898 0
M  V30 2347 O 212.992 -1.86939 -0.749391 0
M  V30 2348 C 210.057 -3.32689 -0.975639 0
M  V30 2349 C 209.118 -4.2886 -0.194236 0
M  V30 2350 C 208.351 -5.22278 -1.09825 0
M  V30 2351 O 208.574 -5.20299 -2.33763 0
M  V30 2352 O 207.508 -5.99228 -0.566513 0
M  V30 2353 H 211.334 -2.94869 0.727034 0
M  V30 2354 H 208.919 -1.43342 0.42111 0
M  V30 2355 H 210.801 -3.92995 -1.52094 0
M  V30 2356 H 209.476 -2.74898 -1.70918 0
M  V30 2357 H 208.383 -3.72011 0.394835 0
M  V30 2358 H 209.716 -4.89655 0.499899 0
M  V30 2359 N 211.368 -0.403325 -1.52352 0
M  V30 2360 C 212.298 0.416205 -2.29761 0
M  V30 2361 C 213.279 1.05123 -1.33728 0
M  V30 2362 O 214.464 1.06134 -1.62632 0
M  V30 2363 C 211.594 1.53624 -3.11475 0
M  V30 2364 C 210.548 1.02653 -4.15507 0
M  V30 2365 C 209.874 2.23971 -4.85532 0
M  V30 2366 C 211.174 0.08463 -5.22231 0
M  V30 2367 H 212.868 -0.229701 -2.98518 0
M  V30 2368 H 210.414 -0.111913 -1.43564 0
M  V30 2369 H 212.367 2.1165 -3.64393 0
M  V30 2370 H 211.091 2.20994 -2.40477 0
M  V30 2371 H 209.75 0.46871 -3.63591 0
M  V30 2372 H 209.398 2.89883 -4.11068 0
M  V30 2373 H 209.098 1.90521 -5.55856 0
M  V30 2374 H 210.622 2.82614 -5.41259 0
M  V30 2375 H 212.036 0.573509 -5.70424 0
M  V30 2376 H 210.433 -0.160783 -5.99885 0
M  V30 2377 H 211.503 -0.86237 -4.7717 0
M  V30 2378 N 212.846 1.57033 -0.133567 0
M  V30 2379 C 214.092 1.96764 0.515326 0
M  V30 2380 C 214.447 1.01653 1.63353 0
M  V30 2381 O 213.74 0.0491374 1.91537 0
M  V30 2382 C 213.934 3.40674 1.08057 0
M  V30 2383 C 213.763 4.49696 0.0186522 0
M  V30 2384 C 212.533 5.03567 -0.418174 0
M  V30 2385 C 214.731 5.08536 -0.767809 0
M  V30 2386 N 212.713 5.9618 -1.46434 0
M  V30 2387 C 214.084 5.97231 -1.6648 0
M  V30 2388 C 216.139 4.9115 -0.817087 0
M  V30 2389 C 214.842 6.70401 -2.60681 0
M  V30 2390 C 216.868 5.65012 -1.74687 0
M  V30 2391 C 216.23 6.53403 -2.63141 0
M  V30 2392 H 212.329 0.765919 0.157771 0
M  V30 2393 H 214.913 1.93395 -0.22506 0
M  V30 2394 H 213.084 3.44662 1.79061 0
M  V30 2395 H 214.816 3.67495 1.69497 0
M  V30 2396 H 211.571 4.73594 -0.0229803 0
M  V30 2397 H 211.995 6.47191 -1.98678 0
M  V30 2398 H 216.637 4.22543 -0.147326 0
M  V30 2399 H 214.355 7.38245 -3.28664 0
M  V30 2400 H 217.941 5.53559 -1.79063 0
M  V30 2401 H 216.821 7.09556 -3.33917 0
M  V30 2402 N 214.325 -0.140222 1.56975 0
M  V30 2403 C 215.741 -0.493088 1.51792 0
M  V30 2404 C 215.941 -1.83013 0.843116 0
M  V30 2405 O 214.997 -2.49041 0.416493 0
M  V30 2406 C 216.31 -0.497144 2.96562 0
M  V30 2407 C 217.858 -0.582186 3.07538 0
M  V30 2408 C 218.333 -0.616838 4.53827 0
M  V30 2409 N 219.824 -0.678873 4.58198 0
M  V30 2410 C 220.559 -0.726782 5.68775 0
M  V30 2411 N 220.055 -0.733623 6.88905 0
M  V30 2412 N 221.848 -0.768179 5.56826 0
M  V30 2413 H 213.999 0.736108 1.99237 0
M  V30 2414 H 216.262 0.269182 0.90898 0
M  V30 2415 H 215.968 0.417217 3.49217 0
M  V30 2416 H 215.842 -1.33263 3.52875 0
M  V30 2417 H 218.229 -1.48697 2.54899 0
M  V30 2418 H 218.31 0.280581 2.54257 0
M  V30 2419 H 217.954 0.283812 5.07106 0
M  V30 2420 H 217.884 -1.49619 5.04898 0
M  V30 2421 H 220.375 -0.68061 3.7172 0
M  V30 2422 H 220.688 -0.772215 7.68932 0
M  V30 2423 H 219.033 -0.701389 6.91452 0
M  V30 2424 H 222.224 -0.760051 4.61888 0
M  V30 2425 H 222.397 -0.80205 6.43017 0
M  V30 2426 N 215.803 -1.52179 -0.40978 0
M  V30 2427 C 216.766 -1.74853 -1.48186 0
M  V30 2428 C 217.766 -0.618417 -1.48433 0
M  V30 2429 O 218.956 -0.886286 -1.49969 0
M  V30 2430 C 216.088 -1.8303 -2.87598 0
M  V30 2431 H 217.281 -2.70559 -1.29374 0
M  V30 2432 H 214.834 -1.42586 -0.640233 0
M  V30 2433 H 215.569 -0.89236 -3.11781 0
M  V30 2434 H 215.354 -2.65187 -2.88822 0
M  V30 2435 H 216.844 -2.02316 -3.65319 0
M  V30 2436 N 217.281 0.66697 -1.42791 0
M  V30 2437 C 218.509 1.45505 -1.47091 0
M  V30 2438 C 218.924 1.8861 -0.0845873 0
M  V30 2439 O 218.281 1.58632 0.90234 0
M  V30 2440 C 218.332 2.69906 -2.40485 0
M  V30 2441 O 218.053 2.28608 -3.73725 0
M  V30 2442 C 219.554 3.63396 -2.53886 0
M  V30 2443 H 216.774 0.447459 -0.500022 0
M  V30 2444 H 219.318 0.818866 -1.8739 0
M  V30 2445 H 217.473 3.29696 -2.03419 0
M  V30 2446 H 217.887 3.08997 -4.23817 0
M  V30 2447 H 219.361 4.47387 -3.2334 0
M  V30 2448 H 219.838 4.09824 -1.57927 0
M  V30 2449 H 220.444 3.09495 -2.91706 0
M  V30 2450 N 218.759 1.29093 0.90403 0
M  V30 2451 C 220.007 1.16583 1.65085 0
M  V30 2452 C 220.328 -0.283933 1.92922 0
M  V30 2453 O 219.598 -1.19509 1.55224 0
M  V30 2454 H 218.178 0.428467 0.611903 0
M  V30 2455 H 220.84 1.61959 1.08422 0
M  V30 2456 H 219.936 1.71266 2.6091 0
M  V30 2457 N 220.237 -1.11381 1.11499 0
M  V30 2458 C 221.147 -2.21019 0.786628 0
M  V30 2459 C 222.163 -1.72597 -0.220507 0
M  V30 2460 O 223.339 -2.01321 -0.0565251 0
M  V30 2461 C 220.404 -3.459 0.235333 0
M  V30 2462 C 219.465 -4.09107 1.30115 0
M  V30 2463 C 218.698 -5.28027 0.776068 0
M  V30 2464 O 218.921 -5.6904 -0.393661 0
M  V30 2465 O 217.855 -5.81835 1.54114 0
M  V30 2466 H 221.681 -2.51521 1.70209 0
M  V30 2467 H 219.266 -1.19928 0.890928 0
M  V30 2468 H 221.148 -4.21346 -0.067715 0
M  V30 2469 H 219.823 -3.17049 -0.652828 0
M  V30 2470 H 218.73 -3.35391 1.65722 0
M  V30 2471 H 220.063 -4.42139 2.16273 0
M  V30 2472 N 221.715 -0.905404 -1.28997 0
M  V30 2473 C 222.961 -0.535039 -1.95615 0
M  V30 2474 C 223.294 0.917404 -1.71165 0
M  V30 2475 O 222.569 1.65123 -1.02785 0
M  V30 2476 C 222.852 -0.834918 -3.50287 0
M  V30 2477 C 222.705 -2.33948 -3.84172 0
M  V30 2478 C 224.024 -0.325318 -4.38896 0
M  V30 2479 H 221.143 -0.195861 -0.710498 0
M  V30 2480 H 223.785 -1.13313 -1.52513 0
M  V30 2481 H 221.935 -0.325904 -3.87131 0
M  V30 2482 H 223.607 -2.91847 -3.57243 0
M  V30 2483 H 221.85 -2.79789 -3.31513 0
M  V30 2484 H 222.521 -2.49987 -4.92149 0
M  V30 2485 H 224.997 -0.761256 -4.09077 0
M  V30 2486 H 223.873 -0.564295 -5.45992 0
M  V30 2487 H 224.134 0.774144 -4.35269 0
M  V30 2488 N 223.193 1.4272 -0.668489 0
M  V30 2489 C 224.609 1.55992 -0.33745 0
M  V30 2490 C 224.809 1.64933 1.15756 0
M  V30 2491 O 223.865 1.61278 1.94282 0
M  V30 2492 C 225.178 2.81314 -1.06222 0
M  V30 2493 C 226.726 2.95078 -1.04394 0
M  V30 2494 C 227.201 4.23252 -1.74991 0
M  V30 2495 N 228.692 4.3015 -1.71829 0
M  V30 2496 C 229.427 5.28127 -2.23315 0
M  V30 2497 N 228.923 6.32293 -2.83156 0
M  V30 2498 N 230.716 5.19882 -2.13726 0
M  V30 2499 H 222.867 1.3516 -1.63846 0
M  V30 2500 H 225.13 0.650174 -0.689912 0
M  V30 2501 H 224.836 2.80823 -2.11734 0
M  V30 2502 H 224.71 3.72012 -0.62344 0
M  V30 2503 H 227.097 2.951 0.0028244 0
M  V30 2504 H 227.178 2.05627 -1.52155 0
M  V30 2505 H 226.822 4.2399 -2.79633 0
M  V30 2506 H 226.752 5.11626 -1.24685 0
M  V30 2507 H 229.243 3.55499 -1.28175 0
M  V30 2508 H 229.556 7.03398 -3.20079 0
M  V30 2509 H 227.901 6.32873 -2.87223 0
M  V30 2510 H 231.092 4.37423 -1.66669 0
M  V30 2511 H 231.265 5.96077 -2.54158 0
M  V30 2512 N 224.671 0.411399 1.52136 0
M  V30 2513 C 225.901 -0.16284 2.05957 0
M  V30 2514 C 226.309 -1.3922 1.28119 0
M  V30 2515 O 225.652 -1.80768 0.326881 0
M  V30 2516 C 225.714 -0.575946 3.54856 0
M  V30 2517 C 225.378 0.542998 4.53763 0
M  V30 2518 C 226.375 1.40726 5.00492 0
M  V30 2519 C 224.06 0.716337 4.97166 0
M  V30 2520 C 226.054 2.4298 5.8927 0
M  V30 2521 C 223.741 1.74218 5.8574 0
M  V30 2522 C 224.739 2.59731 6.31687 0
M  V30 2523 O 224.427 3.60558 7.18507 0
M  V30 2524 H 224.159 -0.0229125 0.675612 0
M  V30 2525 H 226.713 0.581634 1.96993 0
M  V30 2526 H 224.943 -1.37274 3.61515 0
M  V30 2527 H 226.632 -1.07836 3.91313 0
M  V30 2528 H 227.398 1.28476 4.67674 0
M  V30 2529 H 223.277 0.0603857 4.6096 0
M  V30 2530 H 226.821 3.0976 6.25055 0
M  V30 2531 H 222.718 1.86498 6.17971 0
M  V30 2532 H 223.486 3.56829 7.36624 0
M  V30 2533 N 226.149 -1.5696 0.141893 0
M  V30 2534 C 227.081 -2.13619 -0.830627 0
M  V30 2535 C 228.094 -1.08439 -1.21428 0
M  V30 2536 O 229.283 -1.35734 -1.15925 0
M  V30 2537 C 226.383 -2.63978 -2.12529 0
M  V30 2538 C 225.556 -3.93504 -1.9098 0
M  V30 2539 C 224.615 -4.29225 -3.04388 0
M  V30 2540 O 223.641 -4.97641 -2.76302 0
M  V30 2541 N 224.843 -3.88393 -4.31429 0
M  V30 2542 H 227.608 -2.97691 -0.34641 0
M  V30 2543 H 225.169 -1.61846 -0.0418375 0
M  V30 2544 H 227.161 -2.84891 -2.87436 0
M  V30 2545 H 225.731 -1.84659 -2.52229 0
M  V30 2546 H 224.951 -3.81269 -1.00139 0
M  V30 2547 H 226.239 -4.78154 -1.73914 0
M  V30 2548 H 225.637 -3.33257 -4.57117 0
M  V30 2549 H 224.194 -4.14368 -5.03133 0
M  V30 2550 N 227.627 0.131896 -1.57047 0
M  V30 2551 C 228.855 0.856461 -1.88341 0
M  V30 2552 C 229.27 1.74042 -0.731757 0
M  V30 2553 O 228.627 1.80051 0.297945 0
M  V30 2554 C 228.678 1.70064 -3.18999 0
M  V30 2555 O 228.399 0.852278 -4.2973 0
M  V30 2556 C 229.9 2.53148 -3.63911 0
M  V30 2557 H 227.12 0.246885 -0.62393 0
M  V30 2558 H 229.664 0.120152 -2.04147 0
M  V30 2559 H 227.819 2.38984 -3.04902 0
M  V30 2560 H 228.233 1.43329 -5.04537 0
M  V30 2561 H 229.707 3.07931 -4.58129 0
M  V30 2562 H 230.184 3.29901 -2.89935 0
M  V30 2563 H 230.79 1.89492 -3.80753 0
M  V30 2564 N 229.106 1.52395 0.401703 0
M  V30 2565 C 230.016 1.7917 1.51444 0
M  V30 2566 C 231.032 0.677691 1.6026 0
M  V30 2567 O 232.208 0.963909 1.76835 0
M  V30 2568 C 229.273 1.94347 2.87107 0
M  V30 2569 C 228.334 3.18257 2.88116 0
M  V30 2570 C 227.567 3.32701 4.17308 0
M  V30 2571 O 227.79 2.52238 5.11598 0
M  V30 2572 O 226.724 4.25891 4.25324 0
M  V30 2573 H 230.55 2.73633 1.31752 0
M  V30 2574 H 228.135 1.3733 0.588296 0
M  V30 2575 H 230.017 2.06109 3.67555 0
M  V30 2576 H 228.692 1.03073 3.06851 0
M  V30 2577 H 227.599 3.11947 2.06494 0
M  V30 2578 H 228.932 4.09336 2.73322 0
M  V30 2579 N 230.584 -0.659388 1.43143 0
M  V30 2580 C 231.547 -1.75432 1.47501 0
M  V30 2581 C 232.547 -1.56707 0.360512 0
M  V30 2582 O 233.737 -1.62717 0.622002 0
M  V30 2583 C 230.869 -3.14239 1.32162 0
M  V30 2584 H 232.062 -1.7295 2.45006 0
M  V30 2585 H 229.615 -0.870469 1.29817 0
M  V30 2586 H 230.35 -3.22336 0.356401 0
M  V30 2587 H 230.135 -3.29235 2.12948 0
M  V30 2588 H 231.625 -3.94094 1.3813 0
M  V30 2589 N 232.062 -1.29571 -0.897171 0
M  V30 2590 C 233.308 -1.17863 -1.65034 0
M  V30 2591 C 233.641 0.268729 -1.92332 0
M  V30 2592 O 232.916 1.19378 -1.53555 0
M  V30 2593 C 233.199 -1.995 -2.99786 0
M  V30 2594 C 233.052 -3.5239 -2.79538 0
M  V30 2595 C 234.371 -1.82335 -4.00552 0
M  V30 2596 H 231.49 -0.429528 -0.598895 0
M  V30 2597 H 234.132 -1.59072 -1.03905 0
M  V30 2598 H 232.282 -1.64485 -3.51962 0
M  V30 2599 H 233.954 -3.97401 -2.34244 0
M  V30 2600 H 232.197 -3.77187 -2.14273 0
M  V30 2601 H 232.868 -4.04787 -3.75302 0
M  V30 2602 H 235.344 -2.12924 -3.57495 0
M  V30 2603 H 234.22 -2.41801 -4.92771 0
M  V30 2604 H 234.481 -0.779209 -4.35179 0
M  V30 2605 N 233.54 1.10788 -1.12088 0
M  V30 2606 C 234.45 2.20599 -0.798338 0
M  V30 2607 C 235.466 1.72712 0.21135 0
M  V30 2608 O 236.642 2.01348 0.0458477 0
M  V30 2609 C 233.707 3.45771 -0.253674 0
M  V30 2610 C 232.768 4.08411 -1.32283 0
M  V30 2611 C 232.001 5.27608 -0.80406 0
M  V30 2612 O 232.224 5.69241 0.363478 0
M  V30 2613 O 231.158 5.8101 -1.57198 0
M  V30 2614 H 234.984 2.50614 -1.7154 0
M  V30 2615 H 232.569 1.19454 -0.897275 0
M  V30 2616 H 234.451 4.21376 0.0453691 0
M  V30 2617 H 233.126 3.1739 0.636005 0
M  V30 2618 H 232.033 3.34507 -1.67499 0
M  V30 2619 H 233.366 4.40986 -2.18614 0
M  V30 2620 N 235.018 0.912232 1.28515 0
M  V30 2621 C 235.951 0.343928 2.25593 0
M  V30 2622 C 236.929 -0.550994 1.5298 0
M  V30 2623 O 238.113 -0.494991 1.81885 0
M  V30 2624 C 235.24 -0.508525 3.34861 0
M  V30 2625 C 234.286 0.320808 4.25292 0
M  V30 2626 S 235.119 1.72658 5.06902 0
M  V30 2627 C 236.275 0.881394 6.19663 0
M  V30 2628 H 236.508 1.16674 2.73449 0
M  V30 2629 H 234.041 0.713384 1.36931 0
M  V30 2630 H 235.999 -0.994539 3.9827 0
M  V30 2631 H 234.66 -1.30571 2.85675 0
M  V30 2632 H 233.853 -0.330941 5.02912 0
M  V30 2633 H 233.455 0.74042 3.66598 0
M  V30 2634 H 235.747 0.110359 6.7741 0
M  V30 2635 H 236.69 1.63009 6.89082 0
M  V30 2636 H 237.098 0.430239 5.62858 0
M  V30 2637 N 236.496 -1.42363 0.676048 0
M  V30 2638 C 237.429 -2.28141 -0.0516916 0
M  V30 2639 C 238.407 -1.41135 -0.807439 0
M  V30 2640 O 239.591 -1.70573 -0.802305 0
M  V30 2641 C 236.718 -3.21007 -1.08039 0
M  V30 2642 C 235.764 -4.24426 -0.420076 0
M  V30 2643 S 236.597 -5.29134 0.823246 0
M  V30 2644 C 237.753 -6.25566 -0.204344 0
M  V30 2645 H 237.986 -2.89515 0.675884 0
M  V30 2646 H 235.519 -1.47211 0.465635 0
M  V30 2647 H 237.477 -3.75048 -1.66881 0
M  V30 2648 H 236.138 -2.58766 -1.78042 0
M  V30 2649 H 235.331 -4.89596 -1.19633 0
M  V30 2650 H 234.933 -3.7388 0.0947845 0
M  V30 2651 H 237.225 -6.69098 -1.06369 0
M  V30 2652 H 238.168 -7.06895 0.412915 0
M  V30 2653 H 238.576 -5.61811 -0.55038 0
M  V30 2654 N 237.974 -0.419461 -1.51915 0
M  V30 2655 C 239.251 0.211999 -1.94448 0
M  V30 2656 C 239.631 1.61703 -1.35703 0
M  V30 2657 O 238.979 2.22102 -0.536931 0
M  V30 2658 C 239.189 0.207872 -3.4838 0
M  V30 2659 C 240.537 0.422192 -4.22496 0
M  V30 2660 O 241.561 0.286778 -3.55044 0
M  V30 2661 O 240.42 0.690009 -5.42126 0
M  V30 2662 H 237.514 0.139586 -0.815135 0
M  V30 2663 H 240.06 -0.476151 -1.62883 0
M  V30 2664 H 238.832 -0.775102 -3.83546 0
M  V30 2665 H 238.455 0.939688 -3.86336 0
M  V30 2666 N 239.452 1.56882 -0.150215 0
M  V30 2667 C 240.384 2.14057 0.819286 0
M  V30 2668 C 241.397 1.09082 1.20851 0
M  V30 2669 O 242.586 1.36347 1.15203 0
M  V30 2670 C 239.686 2.65102 2.11127 0
M  V30 2671 C 238.859 3.94511 1.88891 0
M  V30 2672 C 237.918 4.30834 3.02107 0
M  V30 2673 O 236.944 4.99099 2.73659 0
M  V30 2674 N 238.146 3.90676 4.29363 0
M  V30 2675 H 240.911 2.97871 0.330618 0
M  V30 2676 H 238.472 1.61866 0.0332538 0
M  V30 2677 H 240.464 2.86411 2.85921 0
M  V30 2678 H 239.034 1.85994 2.51247 0
M  V30 2679 H 238.254 3.81795 0.981152 0
M  V30 2680 H 239.542 4.7907 1.71376 0
M  V30 2681 H 238.94 3.35677 4.55343 0
M  V30 2682 H 237.497 4.1703 5.00928 0
M  V30 2683 N 240.93 -0.123565 1.57115 0
M  V30 2684 C 242.179 -0.830704 1.83799 0
M  V30 2685 C 242.492 -1.81259 0.735158 0
M  V30 2686 O 243.698 -2.56558 0.888278 0
M  V30 2687 C 242.154 -1.52802 3.25852 0
M  V30 2688 C 241.762 -0.587356 4.44133 0
M  V30 2689 C 243.506 -2.22056 3.61789 0
M  V30 2690 C 241.413 -1.28764 5.77212 0
M  V30 2691 H 240.343 -0.313967 0.685522 0
M  V30 2692 H 242.994 -0.0834359 1.8331 0
M  V30 2693 H 241.376 -2.32175 3.20797 0
M  V30 2694 H 242.55 0.172829 4.60476 0
M  V30 2695 H 240.865 -0.00201892 4.164 0
M  V30 2696 H 243.462 -2.75131 4.58483 0
M  V30 2697 H 243.805 -2.99644 2.88997 0
M  V30 2698 H 244.338 -1.49576 3.68608 0
M  V30 2699 H 241.077 -0.55314 6.53162 0
M  V30 2700 H 240.597 -2.01995 5.64764 0
M  V30 2701 H 242.276 -1.8221 6.20813 0
M  V30 2702 N 242.408 -1.52605 -0.393616 0
M  V30 2703 C 243.654 -1.67672 -1.14079 0
M  V30 2704 C 243.987 -0.413121 -1.89755 0
M  V30 2705 O 243.262 0.588952 -1.85369 0
M  V30 2706 C 243.545 -2.9088 -2.12276 0
M  V30 2707 C 243.398 -4.27329 -1.40394 0
M  V30 2708 C 244.717 -3.09628 -3.12759 0
M  V30 2709 H 241.836 -0.610168 -0.413356 0
M  V30 2710 H 244.478 -1.85193 -0.424696 0
M  V30 2711 H 242.628 -2.76073 -2.73342 0
M  V30 2712 H 244.3 -4.53894 -0.82327 0
M  V30 2713 H 242.543 -4.2802 -0.705801 0
M  V30 2714 H 243.214 -5.09615 -2.12123 0
M  V30 2715 H 245.69 -3.23436 -2.61779 0
M  V30 2716 H 244.566 -3.97322 -3.78717 0
M  V30 2717 H 244.827 -2.23637 -3.81365 0
M  V30 2718 N 243.887 0.651787 -1.4349 0
M  V30 2719 C 244.837 1.75783 -1.45205 0
M  V30 2720 C 245.821 1.57679 -0.320328 0
M  V30 2721 O 247.013 1.67767 -0.564211 0
M  V30 2722 C 244.142 3.14377 -1.3792 0
M  V30 2723 C 243.228 3.38023 -2.56127 0
M  V30 2724 N 243.619 3.32135 -3.81471 0
M  V30 2725 C 241.917 3.68747 -2.50882 0
M  V30 2726 C 242.618 3.55902 -4.60118 0
M  V30 2727 N 241.594 3.77783 -3.90872 0
M  V30 2728 H 245.396 1.69657 -2.39987 0
M  V30 2729 H 242.91 0.853508 -1.38163 0
M  V30 2730 H 244.907 3.93666 -1.37231 0
M  V30 2731 H 243.567 3.21683 -0.441596 0
M  V30 2732 H 244.578 3.11515 -4.13738 0
M  V30 2733 H 241.255 3.8316 -1.65816 0
M  V30 2734 H 242.645 3.57116 -5.69138 0
M  V30 2735 N 245.365 1.30045 0.890287 0
M  V30 2736 C 246.611 1.19747 1.64415 0
M  V30 2737 C 246.966 -0.246591 1.90813 0
M  V30 2738 O 246.259 -1.174 1.51419 0
M  V30 2739 C 246.453 1.95409 2.99249 0
M  V30 2740 C 246.282 3.47025 2.86013 0
M  V30 2741 C 245.052 4.1638 2.86279 0
M  V30 2742 C 247.25 4.42353 2.62351 0
M  V30 2743 N 245.232 5.54293 2.63879 0
M  V30 2744 C 246.603 5.67792 2.49022 0
M  V30 2745 C 248.658 4.32009 2.47533 0
M  V30 2746 C 247.361 6.8406 2.22383 0
M  V30 2747 C 249.387 5.48038 2.22279 0
M  V30 2748 C 248.749 6.72455 2.09722 0
M  V30 2749 H 244.848 0.493223 0.60684 0
M  V30 2750 H 247.432 1.6399 1.04954 0
M  V30 2751 H 245.603 1.53565 3.56752 0
M  V30 2752 H 247.335 1.77298 3.63796 0
M  V30 2753 H 244.09 3.68164 2.97913 0
M  V30 2754 H 244.514 6.26852 2.55706 0
M  V30 2755 H 249.156 3.36503 2.55979 0
M  V30 2756 H 246.874 7.79612 2.12675 0
M  V30 2757 H 250.46 5.41939 2.11643 0
M  V30 2758 H 249.34 7.60722 1.90453 0
M  V30 2759 N 246.843 -1.10192 1.12674 0
M  V30 2760 C 248.089 -1.82475 0.884915 0
M  V30 2761 C 248.422 -1.85093 -0.58773 0
M  V30 2762 O 247.697 -1.3134 -1.43457 0
M  V30 2763 C 247.98 -3.29018 1.46353 0
M  V30 2764 C 247.833 -3.34718 3.00473 0
M  V30 2765 C 249.152 -4.25473 1.12519 0
M  V30 2766 H 246.271 -0.662492 0.322915 0
M  V30 2767 H 248.913 -1.2913 1.39375 0
M  V30 2768 H 247.063 -3.74576 1.03077 0
M  V30 2769 H 248.735 -2.97622 3.52447 0
M  V30 2770 H 246.978 -2.74541 3.35872 0
M  V30 2771 H 247.649 -4.37918 3.36053 0
M  V30 2772 H 250.125 -3.88161 1.499 0
M  V30 2773 H 249.001 -5.26365 1.55663 0
M  V30 2774 H 249.262 -4.42084 0.0377407 0
M  V30 2775 N 248.321 -0.919034 -1.28029 0
M  V30 2776 C 249.253 -0.368762 -2.26214 0
M  V30 2777 C 250.266 0.495716 -1.55069 0
M  V30 2778 O 251.455 0.30974 -1.75792 0
M  V30 2779 C 248.555 0.491049 -3.35324 0
M  V30 2780 C 247.728 -0.352133 -4.3598 0
M  V30 2781 C 246.787 0.443622 -5.24327 0
M  V30 2782 O 245.813 -0.14566 -5.69014 0
M  V30 2783 N 247.015 1.74545 -5.53637 0
M  V30 2784 H 249.78 -1.21273 -2.74068 0
M  V30 2785 H 247.341 -0.785541 -1.41566 0
M  V30 2786 H 249.333 1.03026 -3.91366 0
M  V30 2787 H 247.903 1.23574 -2.87138 0
M  V30 2788 H 247.123 -1.07269 -3.79324 0
M  V30 2789 H 248.411 -0.928883 -5.00249 0
M  V30 2790 H 247.809 2.24666 -5.19174 0
M  V30 2791 H 246.366 2.23138 -6.12416 0
M  V30 2792 N 249.799 1.42003 -0.683588 0
M  V30 2793 C 250.709 2.34597 -0.0109075 0
M  V30 2794 C 251.725 1.55576 0.779245 0
M  V30 2795 O 252.901 1.88107 0.719555 0
M  V30 2796 C 249.966 3.34199 0.922588 0
M  V30 2797 C 249.027 4.29115 0.125984 0
M  V30 2798 C 248.26 5.23959 1.01502 0
M  V30 2799 O 248.483 5.23952 2.25456 0
M  V30 2800 O 247.417 6.00053 0.47111 0
M  V30 2801 H 251.243 2.93675 -0.773853 0
M  V30 2802 H 248.828 1.42654 -0.443861 0
M  V30 2803 H 250.71 3.95365 1.45823 0
M  V30 2804 H 249.385 2.77582 1.66523 0
M  V30 2805 H 248.292 3.71335 -0.453969 0
M  V30 2806 H 249.625 4.88798 -0.577736 0
M  V30 2807 N 251.277 0.427512 1.51691 0
M  V30 2808 C 252.554 -0.201684 1.94557 0
M  V30 2809 C 252.934 -1.60981 1.36559 0
M  V30 2810 O 252.282 -2.21814 0.548702 0
M  V30 2811 C 252.492 -0.189394 3.48486 0
M  V30 2812 C 253.84 -0.39978 4.22714 0
M  V30 2813 O 254.864 -0.267945 3.55191 0
M  V30 2814 O 253.723 -0.661249 5.42485 0
M  V30 2815 H 250.817 -0.135261 0.815864 0
M  V30 2816 H 253.363 0.484782 1.62628 0
M  V30 2817 H 252.135 0.795431 3.8313 0
M  V30 2818 H 251.758 -0.919187 3.86829 0
M  V30 2819 N 252.755 -1.56801 0.158532 0
M  V30 2820 C 253.718 -2.16138 -0.762705 0
M  V30 2821 C 254.718 -1.1061 -1.16713 0
M  V30 2822 O 255.908 -1.36191 -1.08617 0
M  V30 2823 C 253.04 -2.73386 -2.03649 0
M  V30 2824 H 254.233 -2.98886 -0.246354 0
M  V30 2825 H 251.786 -1.56035 -0.0909744 0
M  V30 2826 H 252.521 -1.94335 -2.59623 0
M  V30 2827 H 252.306 -3.50601 -1.75559 0
M  V30 2828 H 253.796 -3.19065 -2.6942 0
M  V30 2829 N 254.233 0.115231 -1.57178 0
M  V30 2830 C 255.458 0.840354 -1.89612 0
M  V30 2831 C 255.883 1.72464 -0.750845 0
M  V30 2832 O 255.241 1.78826 0.298478 0
M  V30 2833 C 255.289 1.64654 -3.20814 0
M  V30 2834 O 254.393 2.7538 -3.06985 0
M  V30 2835 H 253.734 0.232158 -0.622092 0
M  V30 2836 H 256.264 0.0964977 -2.04372 0
M  V30 2837 H 256.274 2.03499 -3.53627 0
M  V30 2838 H 254.949 0.997416 -4.03763 0
M  V30 2839 H 253.526 2.3971 -2.85646 0
M  V30 2840 N 255.711 1.52812 0.385517 0
M  V30 2841 C 256.959 1.67694 1.12797 0
M  V30 2842 C 257.28 0.421115 1.90399 0
M  V30 2843 O 256.55 -0.564551 1.87589 0
M  V30 2844 H 255.13 0.618155 0.419396 0
M  V30 2845 H 257.792 1.89938 0.436972 0
M  V30 2846 H 256.888 2.52896 1.82894 0
M  V30 2847 N 257.189 -0.644168 1.43834 0
M  V30 2848 C 258.119 -1.76814 1.52509 0
M  V30 2849 C 259.1 -1.65823 0.379052 0
M  V30 2850 O 260.285 -1.84781 0.597466 0
M  V30 2851 C 257.415 -3.15288 1.4564 0
M  V30 2852 C 256.369 -3.41053 2.58586 0
M  V30 2853 C 255.695 -4.79421 2.36769 0
M  V30 2854 C 256.995 -3.34902 4.00797 0
M  V30 2855 H 258.689 -1.69812 2.46586 0
M  V30 2856 H 256.235 -0.815542 1.1868 0
M  V30 2857 H 258.188 -3.93681 1.50311 0
M  V30 2858 H 256.912 -3.23043 0.480725 0
M  V30 2859 H 255.571 -2.65035 2.53282 0
M  V30 2860 H 255.219 -4.83863 1.37424 0
M  V30 2861 H 254.919 -4.9762 3.12487 0
M  V30 2862 H 256.443 -5.6006 2.43238 0
M  V30 2863 H 257.857 -4.03218 4.07539 0
M  V30 2864 H 256.254 -3.64637 4.76613 0
M  V30 2865 H 257.324 -2.32928 4.25291 0
M  V30 2866 N 258.668 -1.30515 -0.883378 0
M  V30 2867 C 259.916 -1.19194 -1.63209 0
M  V30 2868 C 260.237 0.253205 -1.93349 0
M  V30 2869 O 259.507 1.17025 -1.57105 0
M  V30 2870 H 258.087 -0.438148 -0.605009 0
M  V30 2871 H 260.749 -1.63663 -1.05832 0
M  V30 2872 H 259.845 -1.75396 -2.58153 0
M  V30 2873 N 260.146 1.09593 -1.13257 0
M  V30 2874 C 261.562 1.33775 -0.870423 0
M  V30 2875 C 261.762 1.95327 0.494926 0
M  V30 2876 O 260.818 2.19853 1.2418 0
M  V30 2877 C 262.131 2.25106 -1.99369 0
M  V30 2878 C 263.679 2.3862 -2.02558 0
M  V30 2879 C 264.154 3.33285 -3.14142 0
M  V30 2880 N 265.645 3.40857 -3.13641 0
M  V30 2881 C 266.38 4.14101 -3.96621 0
M  V30 2882 N 265.876 4.90157 -4.8961 0
M  V30 2883 N 267.669 4.09808 -3.84726 0
M  V30 2884 H 259.82 0.680136 -2.01216 0
M  V30 2885 H 262.083 0.362133 -0.876107 0
M  V30 2886 H 261.789 1.87103 -2.97801 0
M  V30 2887 H 261.663 3.25481 -1.90635 0
M  V30 2888 H 264.05 2.75887 -1.0474 0
M  V30 2889 H 264.131 1.38028 -2.15364 0
M  V30 2890 H 263.775 2.96741 -4.12198 0
M  V30 2891 H 263.705 4.33776 -2.98574 0
M  V30 2892 H 266.196 2.86624 -2.46282 0
M  V30 2893 H 266.509 5.4347 -5.49418 0
M  V30 2894 H 264.854 4.89251 -4.93617 0
M  V30 2895 H 268.045 3.4949 -3.11408 0
M  V30 2896 H 268.218 4.66629 -4.49623 0
M  V30 2897 N 261.624 0.925811 1.2754 0
M  V30 2898 C 263.035 0.610102 1.7645 0
M  V30 2899 C 263.386 -0.874723 1.75622 0
M  V30 2900 O 262.511 -1.68444 1.35851 0
M  V30 2901 C 263.106 1.10073 3.20421 0
M  V30 2902 C 261.665 0.835723 3.67005 0
M  V30 2903 C 260.812 1.26054 2.46993 0
M  V30 2904 H 263.763 1.10579 1.13833 0
M  V30 2905 H 263.784 0.447557 3.77859 0
M  V30 2906 H 263.296 2.18143 3.20991 0
M  V30 2907 H 261.397 -0.231249 3.71882 0
M  V30 2908 H 261.51 1.45193 4.56569 0
M  V30 2909 H 259.874 0.679111 2.45479 0
M  V30 2910 H 260.657 2.34984 2.50275 0
M  V30 2911 N 263.102 -1.41638 0.69111 0
M  V30 2912 C 264.034 -2.29194 -0.0161523 0
M  V30 2913 C 265.047 -1.44549 -0.748955 0
M  V30 2914 O 266.236 -1.681 -0.6004 0
M  V30 2915 C 263.336 -3.22325 -1.0469 0
M  V30 2916 C 262.509 -4.35706 -0.384621 0
M  V30 2917 C 261.568 -5.09443 -1.31737 0
M  V30 2918 O 260.594 -5.63386 -0.811451 0
M  V30 2919 N 261.796 -5.16487 -2.64993 0
M  V30 2920 H 264.561 -2.90534 0.735523 0
M  V30 2921 H 262.122 -1.52742 0.53679 0
M  V30 2922 H 264.114 -3.68522 -1.67252 0
M  V30 2923 H 262.684 -2.62323 -1.70015 0
M  V30 2924 H 261.904 -3.91948 0.420804 0
M  V30 2925 H 263.192 -5.08743 0.0760765 0
M  V30 2926 H 262.59 -4.741 -3.08619 0
M  V30 2927 H 261.147 -5.66276 -3.22761 0
M  V30 2928 N 264.58 -0.43555 -1.51462 0
M  V30 2929 C 265.51 0.367376 -2.30592 0
M  V30 2930 C 266.491 1.02263 -1.35928 0
M  V30 2931 O 267.676 1.02661 -1.64847 0
M  V30 2932 C 264.806 1.46983 -3.14664 0
M  V30 2933 C 263.76 0.938161 -4.17591 0
M  V30 2934 C 263.086 2.13622 -4.90173 0
M  V30 2935 C 264.386 -0.0261621 -5.22293 0
M  V30 2936 H 266.08 -0.292969 -2.97963 0
M  V30 2937 H 263.626 -0.14234 -1.43295 0
M  V30 2938 H 265.579 2.03873 -3.688 0
M  V30 2939 H 264.303 2.15843 -2.4511 0
M  V30 2940 H 262.962 0.391481 -3.64504 0
M  V30 2941 H 262.61 2.81098 -4.17124 0
M  V30 2942 H 262.31 1.78688 -5.59772 0
M  V30 2943 H 263.834 2.7107 -5.47132 0
M  V30 2944 H 265.248 0.452384 -5.71512 0
M  V30 2945 H 263.645 -0.287992 -5.99409 0
M  V30 2946 H 264.715 -0.963391 -4.75233 0
M  V30 2947 N 266.058 1.56714 -0.166846 0
M  V30 2948 C 266.99 2.14914 0.796537 0
M  V30 2949 C 268.003 1.10357 1.19688 0
M  V30 2950 O 269.192 1.37561 1.13751 0
M  V30 2951 C 266.292 2.67326 2.08303 0
M  V30 2952 C 265.465 3.96493 1.84696 0
M  V30 2953 C 264.524 4.34014 2.97521 0
M  V30 2954 O 263.55 5.01973 2.6835 0
M  V30 2955 N 264.752 3.95208 4.25196 0
M  V30 2956 H 267.517 2.98205 0.299006 0
M  V30 2957 H 265.078 1.61892 0.0160839 0
M  V30 2958 H 267.07 2.89428 2.82867 0
M  V30 2959 H 265.64 1.88649 2.4926 0
M  V30 2960 H 264.86 3.82814 0.940602 0
M  V30 2961 H 266.148 4.8086 1.66285 0
M  V30 2962 H 265.546 3.40487 4.51758 0
M  V30 2963 H 264.103 4.2232 4.96477 0
M  V30 2964 N 267.536 -0.106894 1.57237 0
M  V30 2965 C 268.784 -0.810921 1.85117 0
M  V30 2966 C 269.105 -1.7984 0.753827 0
M  V30 2967 O 268.375 -1.94649 -0.221056 0
M  V30 2968 H 266.955 -0.302466 0.683025 0
M  V30 2969 H 269.617 -0.0913324 1.94686 0
M  V30 2970 H 268.713 -1.34875 2.81452 0
M  V30 2971 N 269.014 -1.53014 -0.377408 0
M  V30 2972 C 269.977 -1.77957 -1.44444 0
M  V30 2973 C 270.977 -0.649763 -1.47087 0
M  V30 2974 O 272.167 -0.917897 -1.48055 0
M  V30 2975 C 269.299 -1.89089 -2.83651 0
M  V30 2976 H 270.492 -2.73243 -1.23606 0
M  V30 2977 H 268.045 -1.43912 -0.609844 0
M  V30 2978 H 268.78 -0.958293 -3.09818 0
M  V30 2979 H 268.565 -2.71254 -2.83132 0
M  V30 2980 H 270.055 -2.1002 -3.60945 0
M  V30 2981 N 270.492 0.636531 -1.44174 0
M  V30 2982 C 271.903 1.21806 -1.41493 0
M  V30 2983 C 272.254 1.95785 -0.1275 0
M  V30 2984 O 271.379 2.02147 0.772376 0
M  V30 2985 C 271.974 2.21551 -2.56321 0
M  V30 2986 C 270.533 2.75143 -2.56853 0
M  V30 2987 C 269.68 1.50052 -2.33195 0
M  V30 2988 H 272.631 0.427531 -1.52833 0
M  V30 2989 H 272.652 3.0405 -2.28765 0
M  V30 2990 H 272.164 1.67679 -3.50008 0
M  V30 2991 H 270.265 3.33033 -1.67093 0
M  V30 2992 H 270.378 3.2155 -3.55165 0
M  V30 2993 H 268.742 1.77993 -1.82183 0
M  V30 2994 H 269.525 0.980903 -3.28988 0
M  V30 2995 N 271.97 1.30982 0.876444 0
M  V30 2996 C 272.933 1.18054 1.96459 0
M  V30 2997 C 273.933 0.109399 1.60427 0
M  V30 2998 O 275.123 0.358173 1.70478 0
M  V30 2999 C 272.255 0.810616 3.31122 0
M  V30 3000 H 273.448 2.14735 2.09354 0
M  V30 3001 H 271.001 1.145 1.06392 0
M  V30 3002 H 271.736 -0.155322 3.23928 0
M  V30 3003 H 271.521 1.58481 3.58645 0
M  V30 3004 H 273.011 0.743876 4.10921 0
M  V30 3005 N 273.449 -1.08991 1.13837 0
M  V30 3006 C 274.412 -2.13925 0.822715 0
M  V30 3007 C 275.412 -1.599 -0.1699 0
M  V30 3008 O 276.602 -1.74104 0.0577251 0
M  V30 3009 C 273.734 -3.40155 0.225318 0
M  V30 3010 H 274.927 -2.43358 1.75262 0
M  V30 3011 H 272.48 -1.24603 0.943594 0
M  V30 3012 H 273.215 -3.16352 -0.713594 0
M  V30 3013 H 273 -3.80661 0.940193 0
M  V30 3014 H 274.49 -4.17594 0.0214784 0
M  V30 3015 N 274.927 -0.932562 -1.27047 0
M  V30 3016 C 275.837 -0.441219 -2.30414 0
M  V30 3017 C 276.853 0.480525 -1.67233 0
M  V30 3018 O 278.029 0.362151 -1.98117 0
M  V30 3019 C 275.094 0.293651 -3.45454 0
M  V30 3020 C 274.155 -0.663601 -4.2414 0
M  V30 3021 C 273.388 0.0362932 -5.33688 0
M  V30 3022 O 273.611 1.2548 -5.56427 0
M  V30 3023 O 272.545 -0.638015 -5.98509 0
M  V30 3024 H 276.371 -1.29962 -2.74488 0
M  V30 3025 H 273.956 -0.6981 -1.32087 0
M  V30 3026 H 275.838 0.707951 -4.15411 0
M  V30 3027 H 274.513 1.12758 -3.03426 0
M  V30 3028 H 273.42 -1.12768 -3.56699 0
M  V30 3029 H 274.753 -1.46489 -4.69896 0
M  V30 3030 N 276.405 1.4127 -0.698611 0
M  V30 3031 C 277.816 1.84187 -0.305289 0
M  V30 3032 C 278.167 1.58449 1.15708 0
M  V30 3033 O 277.292 1.05651 1.88856 0
M  V30 3034 C 277.887 3.3435 -0.547314 0
M  V30 3035 C 276.446 3.75826 -0.207878 0
M  V30 3036 C 275.593 2.64647 -0.828099 0
M  V30 3037 H 278.544 1.30778 -0.89904 0
M  V30 3038 H 278.565 3.8001 0.192998 0
M  V30 3039 H 278.077 3.53051 -1.61172 0
M  V30 3040 H 276.178 3.62725 0.852143 0
M  V30 3041 H 276.291 4.74462 -0.665021 0
M  V30 3042 H 274.655 2.53395 -0.257458 0
M  V30 3043 H 275.438 2.86165 -1.89643 0
M  V30 3044 N 277.883 0.443576 1.51229 0
M  V30 3045 C 278.816 -0.410089 2.24485 0
M  V30 3046 C 279.794 -1.01949 1.26669 0
M  V30 3047 O 280.978 -1.06075 1.55821 0
M  V30 3048 C 278.105 -1.57211 3.00004 0
M  V30 3049 C 277.151 -1.08279 4.12526 0
M  V30 3050 S 277.984 -0.0197476 5.35496 0
M  V30 3051 C 279.14 -1.18629 6.14555 0
M  V30 3052 H 279.373 0.211832 2.96544 0
M  V30 3053 H 276.906 0.228156 1.52705 0
M  V30 3054 H 278.864 -2.23825 3.44111 0
M  V30 3055 H 277.525 -2.16547 2.27522 0
M  V30 3056 H 276.718 -1.95193 4.64667 0
M  V30 3057 H 276.32 -0.494797 3.70713 0
M  V30 3058 H 278.612 -2.10344 6.4402 0
M  V30 3059 H 279.555 -0.70472 7.04584 0
M  V30 3060 H 279.963 -1.42768 5.46148 0
M  V30 3061 N 279.361 -1.56624 0.175154 0
M  V30 3062 C 280.324 -2.16934 -0.739738 0
M  V30 3063 C 281.324 -1.11842 -1.15533 0
M  V30 3064 O 282.514 -1.37335 -1.07167 0
M  V30 3065 C 279.646 -2.75531 -2.00738 0
M  V30 3066 H 280.839 -2.99131 -0.214639 0
M  V30 3067 H 278.392 -1.56123 -0.0744197 0
M  V30 3068 H 279.127 -1.97078 -2.57548 0
M  V30 3069 H 278.912 -3.52444 -1.71831 0
M  V30 3070 H 280.402 -3.21904 -2.66021 0
M  V30 3071 N 280.839 0.0985539 -1.57292 0
M  V30 3072 C 282.085 0.803867 -1.86188 0
M  V30 3073 C 282.418 1.78549 -0.763794 0
M  V30 3074 O 281.693 1.93153 0.22855 0
M  V30 3075 C 281.976 1.53568 -3.25713 0
M  V30 3076 C 281.829 0.572277 -4.46145 0
M  V30 3077 C 283.148 2.48708 -3.63087 0
M  V30 3078 H 280.267 0.290781 -0.677211 0
M  V30 3079 H 282.909 0.0675783 -1.8988 0
M  V30 3080 H 281.059 2.16332 -3.22696 0
M  V30 3081 H 282.731 -0.0480894 -4.61275 0
M  V30 3082 H 280.974 -0.114618 -4.33649 0
M  V30 3083 H 281.645 1.12139 -5.40489 0
M  V30 3084 H 284.121 1.96039 -3.67026 0
M  V30 3085 H 282.997 2.96932 -4.61652 0
M  V30 3086 H 283.258 3.32309 -2.91588 0
M  V30 3087 N 282.317 1.53212 0.369288 0
M  V30 3088 C 283.728 1.60943 0.946276 0
M  V30 3089 C 284.079 0.47452 1.90375 0
M  V30 3090 O 283.204 -0.399597 2.12679 0
M  V30 3091 C 283.799 2.91715 1.72302 0
M  V30 3092 C 282.358 3.01792 2.24941 0
M  V30 3093 C 281.505 2.56211 1.06072 0
M  V30 3094 H 284.456 1.58007 0.148198 0
M  V30 3095 H 284.477 2.79309 2.58393 0
M  V30 3096 H 283.989 3.74295 1.0259 0
M  V30 3097 H 282.09 2.23791 2.97906 0
M  V30 3098 H 282.203 4.06803 2.53077 0
M  V30 3099 H 280.567 2.10998 1.4266 0
M  V30 3100 H 281.35 3.41206 0.378639 0
M  V30 3101 N 283.795 -0.628877 1.44509 0
M  V30 3102 C 284.728 -1.75367 1.46019 0
M  V30 3103 C 285.706 -1.59444 0.318787 0
M  V30 3104 O 286.89 -1.81297 0.516099 0
M  V30 3105 C 284.017 -3.12965 1.29501 0
M  V30 3106 C 283.063 -3.47532 2.47233 0
M  V30 3107 S 283.896 -3.44758 4.09758 0
M  V30 3108 C 285.052 -4.84973 3.95667 0
M  V30 3109 H 285.285 -1.7382 2.41193 0
M  V30 3110 H 282.818 -0.803686 1.31834 0
M  V30 3111 H 284.776 -3.92367 1.20658 0
M  V30 3112 H 283.437 -3.12049 0.358341 0
M  V30 3113 H 282.63 -4.47664 2.31544 0
M  V30 3114 H 282.232 -2.75598 2.52828 0
M  V30 3115 H 284.524 -5.74255 3.59496 0
M  V30 3116 H 285.467 -5.05716 4.95638 0
M  V30 3117 H 285.875 -4.59653 3.27688 0
M  V30 3118 N 285.273 -1.31445 -0.869486 0
M  V30 3119 C 286.206 -1.13465 -1.97992 0
M  V30 3120 C 287.184 -0.0380291 -1.62556 0
M  V30 3121 O 288.368 -0.194544 -1.87493 0
M  V30 3122 C 285.495 -0.733822 -3.30655 0
M  V30 3123 C 284.541 -1.83356 -3.85075 0
M  V30 3124 S 285.374 -3.43909 -4.10472 0
M  V30 3125 C 286.53 -3.05763 -5.46132 0
M  V30 3126 H 286.763 -2.07471 -2.1294 0
M  V30 3127 H 284.296 -1.15936 -1.01972 0
M  V30 3128 H 286.254 -0.509306 -4.07328 0
M  V30 3129 H 284.915 0.187123 -3.13542 0
M  V30 3130 H 284.108 -1.50574 -4.80982 0
M  V30 3131 H 283.71 -2.01315 -3.15195 0
M  V30 3132 H 286.002 -2.54686 -6.27807 0
M  V30 3133 H 286.945 -4.00635 -5.83864 0
M  V30 3134 H 287.353 -2.43192 -5.09429 0
M  V30 3135 N 286.751 1.08385 -1.14413 0
M  V30 3136 C 287.681 2.17321 -0.854044 0
M  V30 3137 C 288.662 1.69024 0.191049 0
M  V30 3138 O 289.847 1.94141 0.0476779 0
M  V30 3139 C 286.977 3.45719 -0.330983 0
M  V30 3140 C 285.931 4.07409 -1.31155 0
M  V30 3141 C 285.257 5.30762 -0.64778 0
M  V30 3142 C 286.557 4.48665 -2.67388 0
M  V30 3143 H 288.251 2.41845 -1.76498 0
M  V30 3144 H 285.797 1.16233 -0.850051 0
M  V30 3145 H 287.75 4.21241 -0.115645 0
M  V30 3146 H 286.474 3.2075 0.615381 0
M  V30 3147 H 285.133 3.33919 -1.51306 0
M  V30 3148 H 284.781 5.02078 0.304398 0
M  V30 3149 H 284.481 5.72992 -1.30207 0
M  V30 3150 H 286.005 6.08998 -0.441972 0
M  V30 3151 H 287.419 5.15364 -2.51143 0
M  V30 3152 H 285.816 5.01814 -3.29093 0
M  V30 3153 H 286.886 3.60543 -3.24248 0
M  V30 3154 N 288.23 0.939286 1.26551 0
M  V30 3155 C 289.16 0.465044 2.28822 0
M  V30 3156 C 290.141 -0.480692 1.63167 0
M  V30 3157 O 291.326 -0.382955 1.90387 0
M  V30 3158 C 288.456 -0.27234 3.46231 0
M  V30 3159 C 287.41 0.58666 4.2396 0
M  V30 3160 C 286.736 -0.280573 5.33963 0
M  V30 3161 C 288.036 1.85704 4.88171 0
M  V30 3162 H 289.73 1.31979 2.68741 0
M  V30 3163 H 287.276 0.636061 1.29191 0
M  V30 3164 H 289.229 -0.615133 4.16886 0
M  V30 3165 H 287.953 -1.16121 3.0526 0
M  V30 3166 H 286.612 0.91232 3.55067 0
M  V30 3167 H 286.26 -1.16874 4.89234 0
M  V30 3168 H 285.96 0.29076 5.8688 0
M  V30 3169 H 287.484 -0.618678 6.07458 0
M  V30 3170 H 288.898 1.58161 5.51052 0
M  V30 3171 H 287.295 2.37279 5.51197 0
M  V30 3172 H 288.365 2.56957 4.11219 0
M  V30 3173 N 289.708 -1.40897 0.706093 0
M  V30 3174 C 290.656 -2.32572 0.0361893 0
M  V30 3175 C 291.65 -1.51532 -0.757266 0
M  V30 3176 O 292.856 -1.67396 -0.661703 0
M  V30 3177 H 289.231 -0.751966 -0.00709935 0
M  V30 3178 H 291.202 -2.86733 0.826249 0
M  V30 3179 C 289.951 -3.36418 -0.87854 0
M  V30 3180 H 289.274 -3.98836 -0.277401 0
M  V30 3181 H 290.714 -4.0308 -1.3154 0
M  V30 3182 C 289.173 -2.71141 -1.99961 0
M  V30 3183 O 289.703 -2.56735 -3.0895 0
M  V30 3184 N 287.909 -2.29671 -1.78043 0
M  V30 3185 H 287.456 -2.41588 -0.894042 0
M  V30 3186 H 287.414 -1.86332 -2.53235 0
M  V30 3187 N 291.186 -0.45159 -1.50991 0
M  V30 3188 C 292.116 0.342898 -2.30969 0
M  V30 3189 C 293.097 1.00815 -1.37005 0
M  V30 3190 O 294.282 1.00907 -1.65926 0
M  V30 3191 C 291.412 1.43637 -3.16205 0
M  V30 3192 C 290.366 0.893818 -4.18563 0
M  V30 3193 C 289.692 2.08411 -4.92411 0
M  V30 3194 C 290.992 -0.0815568 -5.22236 0
M  V30 3195 H 292.686 -0.324556 -2.97636 0
M  V30 3196 H 290.232 -0.157531 -1.43136 0
M  V30 3197 H 292.185 1.9995 -3.70942 0
M  V30 3198 H 290.909 2.13232 -2.47386 0
M  V30 3199 H 289.568 0.352798 -3.64898 0
M  V30 3200 H 289.216 2.76658 -4.20082 0
M  V30 3201 H 288.916 1.72741 -5.61636 0
M  V30 3202 H 290.44 2.65251 -5.49976 0
M  V30 3203 H 291.854 0.391742 -5.7196 0
M  V30 3204 H 290.251 -0.351551 -5.99069 0
M  V30 3205 H 291.321 -1.01374 -4.74185 0
M  V30 3206 N 292.664 1.56529 -0.183458 0
M  V30 3207 C 293.91 1.97537 0.459036 0
M  V30 3208 C 294.243 1.06989 1.62071 0
M  V30 3209 O 293.518 0.11948 1.94133 0
M  V30 3210 C 293.801 3.47874 0.930368 0
M  V30 3211 C 293.654 4.492 -0.232317 0
M  V30 3212 C 294.973 4.01612 1.79989 0
M  V30 3213 H 292.092 0.718204 0.165383 0
M  V30 3214 H 294.734 1.88042 -0.272038 0
M  V30 3215 H 292.884 3.56095 1.55333 0
M  V30 3216 H 294.556 4.53027 -0.86972 0
M  V30 3217 H 292.799 4.24657 -0.885928 0
M  V30 3218 H 293.47 5.51823 0.139796 0
M  V30 3219 H 295.946 3.96097 1.27461 0
M  V30 3220 H 294.822 5.07195 2.09867 0
M  V30 3221 H 295.083 3.46163 2.74998 0
M  V30 3222 N 294.142 -0.090211 1.57342 0
M  V30 3223 C 295.052 -1.12735 2.05738 0
M  V30 3224 C 296.068 -1.43557 0.983231 0
M  V30 3225 O 297.244 -1.54101 1.29672 0
M  V30 3226 C 294.309 -2.42659 2.47624 0
M  V30 3227 C 293.37 -2.18975 3.69254 0
M  V30 3228 C 292.603 -3.42704 4.09133 0
M  V30 3229 O 292.826 -4.51127 3.49057 0
M  V30 3230 O 291.76 -3.32003 5.02053 0
M  V30 3231 H 295.586 -0.746279 2.94388 0
M  V30 3232 H 293.171 -0.303064 1.46294 0
M  V30 3233 H 295.053 -3.19155 2.7517 0
M  V30 3234 H 293.728 -2.80182 1.62109 0
M  V30 3235 H 292.635 -1.40244 3.46818 0
M  V30 3236 H 293.968 -1.86342 4.55563 0
M  V30 3237 N 295.62 -1.53406 -0.361157 0
M  V30 3238 C 296.552 -1.76446 -1.46286 0
M  V30 3239 C 297.565 -0.645322 -1.49464 0
M  V30 3240 O 298.754 -0.921681 -1.52864 0
M  V30 3241 C 295.854 -1.83332 -2.85031 0
M  V30 3242 C 295.027 -3.13033 -3.05498 0
M  V30 3243 C 294.086 -3.11104 -4.24383 0
M  V30 3244 O 293.112 -3.84888 -4.19344 0
M  V30 3245 N 294.314 -2.32234 -5.32022 0
M  V30 3246 H 297.079 -2.71508 -1.26899 0
M  V30 3247 H 294.64 -1.52238 -0.550915 0
M  V30 3248 H 296.632 -1.79514 -3.62708 0
M  V30 3249 H 295.202 -0.955342 -2.97644 0
M  V30 3250 H 294.422 -3.30119 -2.15442 0
M  V30 3251 H 295.71 -3.9874 -3.16044 0
M  V30 3252 H 295.108 -1.71807 -5.38979 0
M  V30 3253 H 293.665 -2.3423 -6.08259 0
M  V30 3254 N 297.098 0.621204 -1.44841 0
M  V30 3255 C 298.028 1.74366 -1.55303 0
M  V30 3256 C 299.009 1.65199 -0.405385 0
M  V30 3257 O 300.194 1.83807 -0.626787 0
M  V30 3258 C 297.324 3.12931 -1.50637 0
M  V30 3259 C 296.278 3.36896 -2.63979 0
M  V30 3260 C 295.604 4.75594 -2.44366 0
M  V30 3261 C 296.904 3.28483 -4.06074 0
M  V30 3262 H 298.598 1.65867 -2.49256 0
M  V30 3263 H 296.144 0.796558 -1.19962 0
M  V30 3264 H 298.097 3.9124 -1.56555 0
M  V30 3265 H 296.821 3.22237 -0.532057 0
M  V30 3266 H 295.48 2.60972 -2.57467 0
M  V30 3267 H 295.128 4.81616 -1.45105 0
M  V30 3268 H 294.828 4.92586 -3.20364 0
M  V30 3269 H 296.352 5.5612 -2.52117 0
M  V30 3270 H 297.766 3.96684 -4.13902 0
M  V30 3271 H 296.163 3.57008 -4.82354 0
M  V30 3272 H 297.233 2.26133 -4.28943 0
M  V30 3273 N 298.576 1.31904 0.862503 0
M  V30 3274 C 299.824 1.21776 1.61292 0
M  V30 3275 C 300.145 -0.222413 1.93727 0
M  V30 3276 O 299.415 -1.1451 1.58947 0
M  V30 3277 H 297.995 0.447717 0.597962 0
M  V30 3278 H 300.657 1.65326 1.03215 0
M  V30 3279 H 299.753 1.7948 2.5533 0
M  V30 3280 N 300.054 -1.07777 1.14986 0
M  V30 3281 C 300.964 -2.18404 0.856546 0
M  V30 3282 C 301.98 -1.73211 -0.165485 0
M  V30 3283 O 303.156 -2.01399 0.00755219 0
M  V30 3284 C 300.221 -3.44977 0.34526 0
M  V30 3285 C 299.282 -4.0476 1.43065 0
M  V30 3286 C 298.515 -5.25291 0.943663 0
M  V30 3287 O 298.738 -5.70004 -0.212426 0
M  V30 3288 O 297.672 -5.76638 1.72547 0
M  V30 3289 H 301.498 -2.45978 1.78125 0
M  V30 3290 H 299.083 -1.17033 0.928631 0
M  V30 3291 H 300.965 -4.21348 0.0663671 0
M  V30 3292 H 299.64 -3.18965 -0.551631 0
M  V30 3293 H 298.547 -3.29949 1.76309 0
M  V30 3294 H 299.88 -4.35035 2.30229 0
M  V30 3295 N 301.532 -0.945985 -1.26051 0
M  V30 3296 C 302.495 -0.463897 -2.24456 0
M  V30 3297 C 303.495 0.427655 -1.55009 0
M  V30 3298 O 304.685 0.226157 -1.72726 0
M  V30 3299 C 301.817 0.330812 -3.39291 0
M  V30 3300 H 303.01 -1.33357 -2.68619 0
M  V30 3301 H 300.563 -0.728416 -1.38289 0
M  V30 3302 H 301.298 1.21852 -3.00537 0
M  V30 3303 H 301.083 -0.308679 -3.90883 0
M  V30 3304 H 302.573 0.657865 -4.12386 0
M  V30 3305 N 303.011 1.40521 -0.713556 0
M  V30 3306 C 304.288 1.94775 -0.17943 0
M  V30 3307 C 304.668 1.65184 1.31444 0
M  V30 3308 O 304.016 0.968429 2.06963 0
M  V30 3309 C 304.226 3.45543 -0.489986 0
M  V30 3310 C 305.574 4.22442 -0.427536 0
M  V30 3311 O 306.598 3.53644 -0.425929 0
M  V30 3312 O 305.457 5.4501 -0.403292 0
M  V30 3313 H 302.551 0.826606 -0.0255192 0
M  V30 3314 H 305.097 1.5014 -0.790949 0
M  V30 3315 H 303.869 3.60432 -1.5233 0
M  V30 3316 H 303.492 3.97311 0.151598 0
M  V30 3317 N 304.489 0.459591 1.5075 0
M  V30 3318 C 305.399 -0.34613 2.32033 0
M  V30 3319 C 306.415 -1.00686 1.41909 0
M  V30 3320 O 307.591 -0.997361 1.7497 0
M  V30 3321 C 304.656 -1.42029 3.16273 0
M  V30 3322 C 303.717 -0.777362 4.22203 0
M  V30 3323 C 302.95 -1.80034 5.02418 0
M  V30 3324 O 303.173 -3.02544 4.83553 0
M  V30 3325 O 302.107 -1.37853 5.85901 0
M  V30 3326 H 305.933 0.318054 3.0203 0
M  V30 3327 H 303.518 0.221663 1.47746 0
M  V30 3328 H 305.4 -2.04275 3.68578 0
M  V30 3329 H 304.075 -2.06815 2.49016 0
M  V30 3330 H 302.982 -0.116256 3.73919 0
M  V30 3331 H 304.315 -0.172634 4.91897 0
M  V30 3332 N 305.967 -1.56429 0.191757 0
M  V30 3333 C 306.877 -2.22541 -0.742481 0
M  V30 3334 C 307.893 -1.22342 -1.23727 0
M  V30 3335 O 309.069 -1.55069 -1.28513 0
M  V30 3336 C 306.134 -2.8692 -1.94623 0
M  V30 3337 C 305.195 -4.02378 -1.49633 0
M  V30 3338 C 304.428 -4.63678 -2.6427 0
M  V30 3339 O 304.651 -4.23895 -3.81666 0
M  V30 3340 O 303.585 -5.53202 -2.37174 0
M  V30 3341 H 307.411 -3.02977 -0.209462 0
M  V30 3342 H 304.996 -1.49353 -0.0373832 0
M  V30 3343 H 306.878 -3.27663 -2.64982 0
M  V30 3344 H 305.553 -2.09466 -2.46791 0
M  V30 3345 H 304.46 -3.66265 -0.761636 0
M  V30 3346 H 305.793 -4.81487 -1.02134 0
M  V30 3347 N 307.445 0.0818655 -1.57387 0
M  V30 3348 C 308.375 1.09885 -2.06028 0
M  V30 3349 C 309.356 1.4098 -0.951774 0
M  V30 3350 O 310.541 1.50781 -1.22387 0
M  V30 3351 C 307.671 2.4151 -2.4958 0
M  V30 3352 C 306.625 2.24792 -3.64215 0
M  V30 3353 C 305.951 3.61712 -3.93787 0
M  V30 3354 C 307.251 1.67749 -4.94629 0
M  V30 3355 H 308.945 0.694128 -2.91243 0
M  V30 3356 H 306.491 0.332448 -1.4011 0
M  V30 3357 H 308.444 3.12939 -2.82219 0
M  V30 3358 H 307.168 2.83943 -1.61381 0
M  V30 3359 H 305.827 1.55807 -3.31843 0
M  V30 3360 H 305.475 4.01697 -3.02735 0
M  V30 3361 H 305.175 3.51368 -4.70971 0
M  V30 3362 H 306.699 4.34587 -4.28913 0
M  V30 3363 H 308.113 2.29032 -5.25564 0
M  V30 3364 H 306.51 1.68128 -5.76067 0
M  V30 3365 H 307.58 0.638059 -4.80684 0
M  V30 3366 N 308.923 1.53595 0.353017 0
M  V30 3367 C 309.886 1.80232 1.41594 0
M  V30 3368 C 310.886 0.673081 1.46035 0
M  V30 3369 O 312.076 0.941335 1.46576 0
M  V30 3370 C 309.208 1.93578 2.80607 0
M  V30 3371 H 310.401 2.75174 1.19244 0
M  V30 3372 H 307.954 1.44864 0.586872 0
M  V30 3373 H 308.689 1.00746 3.08254 0
M  V30 3374 H 308.474 2.75724 2.78781 0
M  V30 3375 H 309.964 2.15735 3.57558 0
M  V30 3376 N 310.401 -0.613514 1.45168 0
M  V30 3377 C 311.649 -1.36997 1.48581 0
M  V30 3378 C 311.97 -1.94589 0.126545 0
M  V30 3379 O 311.24 -1.76816 -0.843372 0
M  V30 3380 H 309.82 -0.508558 0.547154 0
M  V30 3381 H 312.482 -0.720853 1.81079 0
M  V30 3382 H 311.578 -2.1924 2.22127 0
M  V30 3383 N 311.879 -1.3236 -0.855495 0
M  V30 3384 C 312.826 -1.21225 -1.964 0
M  V30 3385 C 313.796 -0.0946204 -1.6583 0
M  V30 3386 O 314.981 -0.27002 -1.8888 0
M  V30 3387 C 312.121 -0.940419 -3.32039 0
M  V30 3388 C 311.234 -2.14276 -3.75113 0
M  V30 3389 C 310.369 -1.80648 -4.9954 0
M  V30 3390 C 309.408 -2.97208 -5.35102 0
M  V30 3391 N 308.545 -2.63678 -6.50706 0
M  V30 3392 H 313.385 -2.16042 -2.05255 0
M  V30 3393 H 310.922 -1.07451 -1.00463 0
M  V30 3394 H 312.88 -0.763311 -4.10158 0
M  V30 3395 H 311.51 -0.0290413 -3.22787 0
M  V30 3396 H 310.562 -2.43017 -2.92655 0
M  V30 3397 H 311.874 -3.01468 -3.97389 0
M  V30 3398 H 311.028 -1.59484 -5.85363 0
M  V30 3399 H 309.767 -0.906678 -4.79198 0
M  V30 3400 H 308.772 -3.19004 -4.47791 0
M  V30 3401 H 309.997 -3.87918 -5.57401 0
M  V30 3402 H 307.943 -1.76238 -6.31883 0
M  V30 3403 H 307.86 -3.444 -6.72997 0
M  V30 3404 H 309.128 -2.45942 -7.39684 0
M  V30 3405 N 313.357 1.07166 -1.15556 0
M  V30 3406 C 314.587 1.83248 -0.954133 0
M  V30 3407 C 314.995 1.82449 0.500911 0
M  V30 3408 O 314.338 1.23575 1.35923 0
M  V30 3409 C 314.4 3.31393 -1.39351 0
M  V30 3410 C 314.064 3.5591 -2.86666 0
M  V30 3411 C 315.061 3.49695 -3.8472 0
M  V30 3412 C 312.746 3.83515 -3.24379 0
M  V30 3413 C 314.74 3.70737 -5.18491 0
M  V30 3414 C 312.427 4.04209 -4.58321 0
M  V30 3415 C 313.425 3.97815 -5.55186 0
M  V30 3416 O 313.113 4.17954 -6.86709 0
M  V30 3417 H 312.845 0.584941 -0.338851 0
M  V30 3418 H 315.399 1.36169 -1.53777 0
M  V30 3419 H 313.629 3.79292 -0.75329 0
M  V30 3420 H 315.318 3.88945 -1.16089 0
M  V30 3421 H 316.084 3.28368 -3.56931 0
M  V30 3422 H 311.963 3.87605 -2.49567 0
M  V30 3423 H 315.507 3.65663 -5.94085 0
M  V30 3424 H 311.404 4.25023 -4.85825 0
M  V30 3425 H 312.172 4.35291 -6.93155 0
M  V30 3426 N 314.835 0.952656 1.25548 0
M  V30 3427 C 315.798 0.475794 2.24207 0
M  V30 3428 C 316.798 -0.419428 1.55234 0
M  V30 3429 O 317.988 -0.216994 1.72843 0
M  V30 3430 C 315.12 -0.312814 3.39462 0
M  V30 3431 H 316.313 1.34779 2.67908 0
M  V30 3432 H 313.866 0.735739 1.37901 0
M  V30 3433 H 314.601 -1.20257 3.01179 0
M  V30 3434 H 314.386 0.329404 3.90714 0
M  V30 3435 H 315.876 -0.635986 4.12729 0
M  V30 3436 N 316.313 -1.40141 0.720998 0
M  V30 3437 C 317.223 -2.34486 0.0731031 0
M  V30 3438 C 318.239 -1.57587 -0.737723 0
M  V30 3439 O 319.415 -1.89949 -0.669429 0
M  V30 3440 C 316.48 -3.36528 -0.833656 0
M  V30 3441 C 315.541 -4.29298 -0.0121673 0
M  V30 3442 C 314.774 -5.26466 -0.875742 0
M  V30 3443 O 314.997 -5.29745 -2.11485 0
M  V30 3444 O 313.931 -6.01092 -0.31185 0
M  V30 3445 H 317.757 -2.9152 0.851444 0
M  V30 3446 H 315.342 -1.41427 0.481527 0
M  V30 3447 H 317.224 -3.99093 -1.35289 0
M  V30 3448 H 315.899 -2.81899 -1.59105 0
M  V30 3449 H 314.806 -3.70001 0.552262 0
M  V30 3450 H 316.139 -4.87094 0.707129 0
M  V30 3451 N 317.792 -0.46758 -1.50504 0
M  V30 3452 C 318.722 0.318381 -2.31319 0
M  V30 3453 C 319.703 0.993564 -1.38066 0
M  V30 3454 O 320.888 0.991411 -1.66987 0
M  V30 3455 C 318.018 1.40275 -3.17711 0
M  V30 3456 C 316.972 0.849373 -4.19487 0
M  V30 3457 C 316.298 2.03177 -4.94594 0
M  V30 3458 C 317.598 -0.136942 -5.2212 0
M  V30 3459 H 319.292 -0.356106 -2.97275 0
M  V30 3460 H 316.838 -0.172703 -1.42961 0
M  V30 3461 H 318.791 1.96004 -3.73042 0
M  V30 3462 H 317.515 2.10596 -2.49634 0
M  V30 3463 H 316.174 0.314076 -3.65252 0
M  V30 3464 H 315.822 2.72187 -4.22993 0
M  V30 3465 H 315.522 1.66774 -5.63436 0
M  V30 3466 H 317.046 2.59403 -5.52759 0
M  V30 3467 H 318.46 0.331056 -5.72343 0
M  V30 3468 H 316.857 -0.41507 -5.98663 0
M  V30 3469 H 317.927 -1.06398 -4.73083 0
M  V30 3470 N 319.27 1.56325 -0.20005 0
M  V30 3471 C 320.518 1.97329 0.436547 0
M  V30 3472 C 320.839 1.08826 1.61808 0
M  V30 3473 O 320.109 0.160604 1.95241 0
M  V30 3474 H 318.689 0.728714 0.164272 0
M  V30 3475 H 321.351 1.92761 -0.287937 0
M  V30 3476 H 320.447 3.02264 0.777353 0
M  V30 3477 N 320.748 -0.0735177 1.57428 0
M  V30 3478 C 322.025 -0.805903 1.78226 0
M  V30 3479 C 322.405 -1.95874 0.787189 0
M  V30 3480 O 321.753 -2.2779 -0.180029 0
M  V30 3481 C 321.963 -1.28045 3.24662 0
M  V30 3482 C 323.311 -1.71453 3.88444 0
M  V30 3483 O 324.335 -1.37616 3.28543 0
M  V30 3484 O 323.194 -2.34093 4.93825 0
M  V30 3485 H 320.288 -0.386041 0.73137 0
M  V30 3486 H 322.834 -0.0537269 1.69615 0
M  V30 3487 H 321.606 -0.455476 3.8864 0
M  V30 3488 H 321.229 -2.094 3.37991 0
M  V30 3489 N 322.226 -1.5378 -0.344866 0
M  V30 3490 C 323.472 -1.72158 -1.0832 0
M  V30 3491 C 323.827 -0.478218 -1.86362 0
M  V30 3492 O 323.12 0.529152 -1.84148 0
M  V30 3493 C 323.314 -2.92407 -2.05506 0
M  V30 3494 C 323.143 -4.28318 -1.37017 0
M  V30 3495 C 321.913 -4.92832 -1.11558 0
M  V30 3496 C 324.111 -5.08086 -0.797071 0
M  V30 3497 N 322.093 -6.12619 -0.396358 0
M  V30 3498 C 323.464 -6.1965 -0.208336 0
M  V30 3499 C 325.519 -4.92986 -0.697787 0
M  V30 3500 C 324.222 -7.17763 0.470023 0
M  V30 3501 C 326.248 -5.91391 -0.033171 0
M  V30 3502 C 325.61 -7.02292 0.544599 0
M  V30 3503 H 321.709 -0.683017 -0.380805 0
M  V30 3504 H 324.293 -1.91211 -0.366961 0
M  V30 3505 H 322.464 -2.74857 -2.74423 0
M  V30 3506 H 324.196 -2.9951 -2.72169 0
M  V30 3507 H 320.951 -4.52362 -1.40234 0
M  V30 3508 H 321.375 -6.7698 -0.0515119 0
M  V30 3509 H 326.017 -4.07414 -1.13022 0
M  V30 3510 H 323.735 -8.0291 0.914351 0
M  V30 3511 H 327.321 -5.81784 0.0430009 0
M  V30 3512 H 326.201 -7.77129 1.05073 0
M  V30 3513 N 323.704 0.605807 -1.45491 0
M  V30 3514 C 324.944 1.37606 -1.51142 0
M  V30 3515 C 325.308 1.91413 -0.150075 0
M  V30 3516 O 326.509 2.68677 -0.0812828 0
M  V30 3517 C 324.78 2.49197 -2.56195 0
M  V30 3518 S 326.339 3.36953 -2.81083 0
M  V30 3519 H 323.157 0.469118 -0.534275 0
M  V30 3520 H 325.759 0.698845 -1.82583 0
M  V30 3521 H 324.463 2.0802 -3.53773 0
M  V30 3522 H 323.994 3.21717 -2.26411 0
M  V30 3523 H 326.009 4.47395 -2.14598 0
M  V30 3524 N 325.182 1.32811 0.848464 0
M  V30 3525 C 326.145 1.22194 1.9391 0
M  V30 3526 C 327.145 0.143404 1.60159 0
M  V30 3527 O 328.335 0.394253 1.6968 0
M  V30 3528 C 325.467 0.88067 3.29328 0
M  V30 3529 H 326.66 2.19127 2.04752 0
M  V30 3530 H 324.213 1.16731 1.0394 0
M  V30 3531 H 324.948 -0.0865776 3.24184 0
M  V30 3532 H 324.733 1.66052 3.55203 0
M  V30 3533 H 326.223 0.830871 4.09251 0
M  V30 3534 N 326.66 -1.06551 1.16123 0
M  V30 3535 C 328.076 -1.3142 0.905585 0
M  V30 3536 C 328.276 -1.96571 -0.442964 0
M  V30 3537 O 327.332 -2.23068 -1.18308 0
M  V30 3538 C 328.645 -2.19741 2.05267 0
M  V30 3539 C 330.193 -2.33165 2.08813 0
M  V30 3540 C 330.668 -3.24838 3.22868 0
M  V30 3541 N 332.159 -3.32421 3.22568 0
M  V30 3542 C 332.894 -4.0344 4.0746 0
M  V30 3543 N 332.39 -4.77003 5.02434 0
M  V30 3544 N 334.183 -3.99464 3.95456 0
M  V30 3545 H 326.334 -0.626548 2.02949 0
M  V30 3546 H 328.597 -0.338777 0.8854 0
M  V30 3547 H 328.303 -1.79142 3.02657 0
M  V30 3548 H 328.177 -3.20313 1.99198 0
M  V30 3549 H 330.564 -2.73013 1.12018 0
M  V30 3550 H 330.645 -1.3227 2.18948 0
M  V30 3551 H 330.289 -2.85708 4.19921 0
M  V30 3552 H 330.219 -4.25707 3.0997 0
M  V30 3553 H 332.71 -2.79994 2.53795 0
M  V30 3554 H 333.023 -5.28712 5.63634 0
M  V30 3555 H 331.368 -4.75992 5.06415 0
M  V30 3556 H 334.559 -3.4111 3.20564 0
M  V30 3557 H 334.732 -4.54544 4.61837 0
M  V30 3558 N 328.138 -0.959301 -1.25041 0
M  V30 3559 C 329.554 -0.664474 -1.4511 0
M  V30 3560 C 329.754 0.776481 -1.85938 0
M  V30 3561 O 328.81 1.55128 -1.99227 0
M  V30 3562 C 330.123 -1.64139 -2.5195 0
M  V30 3563 C 331.671 -1.65309 -2.65786 0
M  V30 3564 C 332.146 -2.61777 -3.75815 0
M  V30 3565 N 333.637 -2.60169 -3.83231 0
M  V30 3566 C 334.372 -3.31489 -4.6787 0
M  V30 3567 N 333.868 -4.12298 -5.56761 0
M  V30 3568 N 335.661 -3.20354 -4.61876 0
M  V30 3569 H 327.812 -1.89043 -0.968332 0
M  V30 3570 H 330.075 -0.813408 -0.4869 0
M  V30 3571 H 329.781 -2.67086 -2.28819 0
M  V30 3572 H 329.655 -1.40756 -3.49954 0
M  V30 3573 H 332.042 -0.630778 -2.8828 0
M  V30 3574 H 332.123 -1.92753 -1.68167 0
M  V30 3575 H 331.767 -3.64137 -3.54071 0
M  V30 3576 H 331.697 -2.31616 -4.72929 0
M  V30 3577 H 334.188 -2.01507 -3.19692 0
M  V30 3578 H 334.501 -4.63625 -6.18281 0
M  V30 3579 H 332.846 -4.16395 -5.56454 0
M  V30 3580 H 336.037 -2.56692 -3.91442 0
M  V30 3581 H 336.21 -3.76201 -5.27614 0
M  V30 3582 N 329.616 1.39756 -0.72842 0
M  V30 3583 C 330.865 1.99879 -0.270407 0
M  V30 3584 C 331.178 1.58449 1.14688 0
M  V30 3585 O 332.384 2.11362 1.70407 0
M  V30 3586 C 330.84 3.57292 -0.43252 0
M  V30 3587 C 330.448 4.07688 -1.85727 0
M  V30 3588 C 332.192 4.24485 -0.0359507 0
M  V30 3589 C 330.099 5.5765 -1.96928 0
M  V30 3590 H 329.029 0.747689 -0.0973472 0
M  V30 3591 H 331.68 1.59837 -0.901355 0
M  V30 3592 H 330.062 3.95097 0.267219 0
M  V30 3593 H 331.236 3.81231 -2.58843 0
M  V30 3594 H 329.551 3.53135 -2.20646 0
M  V30 3595 H 332.148 5.34609 -0.0987484 0
M  V30 3596 H 332.491 4.03915 1.00787 0
M  V30 3597 H 333.024 3.9183 -0.686604 0
M  V30 3598 H 329.763 5.8309 -2.99476 0
M  V30 3599 H 329.283 5.8593 -1.28241 0
M  V30 3600 H 330.962 6.22957 -1.74737 0
M  V30 3601 N 331.094 0.475555 1.50254 0
M  V30 3602 C 332.024 -0.30611 2.31485 0
M  V30 3603 C 333.005 -0.986228 1.38591 0
M  V30 3604 O 334.19 -0.982541 1.67511 0
M  V30 3605 C 331.32 -1.38588 3.1845 0
M  V30 3606 C 330.274 -0.827115 4.19932 0
M  V30 3607 C 329.6 -2.00551 4.95665 0
M  V30 3608 C 330.9 0.16463 5.2204 0
M  V30 3609 H 332.594 0.371866 2.97082 0
M  V30 3610 H 330.14 0.180282 1.42867 0
M  V30 3611 H 332.093 -1.94023 3.74076 0
M  V30 3612 H 330.817 -2.09269 2.50747 0
M  V30 3613 H 329.476 -0.294702 3.65414 0
M  V30 3614 H 329.124 -2.6994 4.2443 0
M  V30 3615 H 328.824 -1.63784 5.64313 0
M  V30 3616 H 330.348 -2.56468 5.54127 0
M  V30 3617 H 331.762 -0.300699 5.72511 0
M  V30 3618 H 330.159 0.446813 5.98434 0
M  V30 3619 H 331.229 1.08905 4.72512 0
M  V30 3620 N 332.573 -1.56217 0.208337 0
M  V30 3621 C 333.505 -2.1695 -0.739276 0
M  V30 3622 C 334.518 -1.13492 -1.1672 0
M  V30 3623 O 335.707 -1.40529 -1.10063 0
M  V30 3624 C 332.807 -2.72755 -2.01142 0
M  V30 3625 C 331.98 -4.0125 -1.74118 0
M  V30 3626 C 331.039 -4.41749 -2.85909 0
M  V30 3627 O 330.065 -5.08912 -2.54946 0
M  V30 3628 N 331.267 -4.06342 -4.14568 0
M  V30 3629 H 334.032 -2.98893 -0.219837 0
M  V30 3630 H 331.593 -1.61878 0.0268445 0
M  V30 3631 H 333.585 -2.96826 -2.75094 0
M  V30 3632 H 332.155 -1.95191 -2.4417 0
M  V30 3633 H 331.375 -3.85173 -0.838775 0
M  V30 3634 H 332.663 -4.851 -1.53477 0
M  V30 3635 H 332.061 -3.52345 -4.42571 0
M  V30 3636 H 330.618 -4.35335 -4.85105 0
M  V30 3637 N 334.051 0.0651679 -1.57465 0
M  V30 3638 C 335.001 1.0838 -2.00594 0
M  V30 3639 C 335.985 1.34106 -0.889071 0
M  V30 3640 O 337.177 1.34295 -1.15299 0
M  V30 3641 C 334.306 2.39565 -2.45894 0
M  V30 3642 C 333.392 2.17085 -3.64328 0
M  V30 3643 N 333.783 1.64553 -4.78285 0
M  V30 3644 C 332.081 2.4753 -3.71006 0
M  V30 3645 C 332.782 1.57042 -5.60101 0
M  V30 3646 N 331.758 2.03328 -5.04141 0
M  V30 3647 H 335.56 0.671062 -2.86136 0
M  V30 3648 H 333.074 0.27213 -1.60104 0
M  V30 3649 H 335.071 3.13308 -2.75034 0
M  V30 3650 H 333.731 2.81549 -1.61741 0
M  V30 3651 H 334.742 1.33323 -5.00445 0
M  V30 3652 H 331.419 2.92835 -2.9758 0
M  V30 3653 H 332.809 1.17223 -6.61595 0
M  V30 3654 N 335.529 1.53961 0.336706 0
M  V30 3655 C 336.775 1.7179 1.07777 0
M  V30 3656 C 337.108 0.483263 1.88091 0
M  V30 3657 O 336.383 -0.519747 1.87427 0
M  V30 3658 C 336.666 2.98558 2.01334 0
M  V30 3659 C 336.519 4.32245 1.24437 0
M  V30 3660 C 337.838 3.21023 3.01052 0
M  V30 3661 H 334.957 0.625089 0.390426 0
M  V30 3662 H 337.599 1.86641 0.35567 0
M  V30 3663 H 335.749 2.86028 2.62908 0
M  V30 3664 H 337.421 4.56637 0.654243 0
M  V30 3665 H 335.664 4.30344 0.546458 0
M  V30 3666 H 336.335 5.17137 1.93063 0
M  V30 3667 H 338.811 3.32929 2.49595 0
M  V30 3668 H 337.687 4.11104 3.6371 0
M  V30 3669 H 337.948 2.37637 3.72802 0
M  V30 3670 N 337.007 -0.598083 1.45811 0
M  V30 3671 C 337.939 -1.72231 1.51225 0
M  V30 3672 C 338.952 -1.57757 0.402059 0
M  V30 3673 O 340.141 -1.65464 0.669624 0
M  V30 3674 C 337.241 -3.10331 1.3619 0
M  V30 3675 C 336.414 -3.50955 2.61054 0
M  V30 3676 C 335.473 -4.68055 2.40439 0
M  V30 3677 O 334.499 -4.74691 3.14097 0
M  V30 3678 N 335.701 -5.61941 1.45612 0
M  V30 3679 H 338.466 -1.68046 2.48154 0
M  V30 3680 H 336.027 -0.783637 1.41671 0
M  V30 3681 H 338.019 -3.86439 1.20195 0
M  V30 3682 H 336.589 -3.0897 0.475015 0
M  V30 3683 H 335.809 -2.64711 2.92099 0
M  V30 3684 H 337.097 -3.74858 3.44034 0
M  V30 3685 H 336.495 -5.59301 0.848431 0
M  V30 3686 H 335.052 -6.37542 1.35585 0
M  V30 3687 N 338.485 -1.33259 -0.841409 0
M  V30 3688 C 339.901 -1.12538 -1.13169 0
M  V30 3689 C 340.101 0.0854037 -2.01319 0
M  V30 3690 O 339.157 0.766417 -2.40587 0
M  V30 3691 C 340.47 -2.41156 -1.79623 0
M  V30 3692 C 342.018 -2.47038 -1.922 0
M  V30 3693 C 342.493 -3.7561 -2.6207 0
M  V30 3694 N 343.984 -3.76667 -2.69585 0
M  V30 3695 C 344.719 -4.72861 -3.2433 0
M  V30 3696 N 344.215 -5.79428 -3.79783 0
M  V30 3697 N 346.008 -4.6034 -3.22558 0
M  V30 3698 H 338.159 -2.10868 -0.254676 0
M  V30 3699 H 340.422 -0.931615 -0.175493 0
M  V30 3700 H 340.128 -3.29747 -1.22311 0
M  V30 3701 H 340.002 -2.53114 -2.79666 0
M  V30 3702 H 342.389 -1.58898 -2.48667 0
M  V30 3703 H 342.47 -2.39022 -0.911148 0
M  V30 3704 H 342.114 -4.64131 -2.06263 0
M  V30 3705 H 342.044 -3.80902 -3.63622 0
M  V30 3706 H 344.535 -2.99648 -2.30259 0
M  V30 3707 H 344.848 -6.48867 -4.19752 0
M  V30 3708 H 343.193 -5.83166 -3.78078 0
M  V30 3709 H 346.384 -3.76244 -2.78492 0
M  V30 3710 H 346.557 -5.35478 -3.64921 0
M  V30 3711 N 339.963 1.05934 -1.16686 0
M  V30 3712 C 341.24 1.75643 -0.860747 0
M  V30 3713 C 341.62 2.01144 0.640641 0
M  V30 3714 O 340.968 1.64147 1.58959 0
M  V30 3715 C 341.178 3.05493 -1.68745 0
M  V30 3716 C 342.526 3.79581 -1.90271 0
M  V30 3717 O 343.55 3.15344 -1.65641 0
M  V30 3718 O 342.409 4.9499 -2.31618 0
M  V30 3719 H 339.503 0.763426 -0.317977 0
M  V30 3720 H 342.049 1.1217 -1.27342 0
M  V30 3721 H 340.821 2.8264 -2.70611 0
M  V30 3722 H 340.444 3.76702 -1.27206 0
M  V30 3723 N 341.441 0.965919 1.2453 0
M  V30 3724 C 342.689 0.625593 1.92174 0
M  V30 3725 C 343.01 -0.841652 1.75901 0
M  V30 3726 O 342.28 -1.60061 1.12948 0
M  V30 3727 H 340.86 0.228388 0.71123 0
M  V30 3728 H 343.522 1.2266 1.51461 0
M  V30 3729 H 342.618 0.864653 2.99884 0
M  V30 3730 N 342.919 -1.39368 0.735821 0
M  V30 3731 C 343.851 -2.2913 0.0567723 0
M  V30 3732 C 344.864 -1.46859 -0.702589 0
M  V30 3733 O 346.053 -1.69925 -0.546616 0
M  V30 3734 C 343.153 -3.25492 -0.943823 0
M  V30 3735 C 342.326 -4.36709 -0.24581 0
M  V30 3736 C 341.385 -5.13376 -1.15463 0
M  V30 3737 O 340.411 -5.65683 -0.631803 0
M  V30 3738 N 341.613 -5.24656 -2.48427 0
M  V30 3739 H 344.378 -2.88047 0.827582 0
M  V30 3740 H 341.939 -1.50957 0.585112 0
M  V30 3741 H 343.931 -3.73657 -1.55443 0
M  V30 3742 H 342.501 -2.676 -1.61583 0
M  V30 3743 H 341.721 -3.9041 0.545286 0
M  V30 3744 H 343.009 -5.08244 0.237891 0
M  V30 3745 H 342.407 -4.83679 -2.93379 0
M  V30 3746 H 340.964 -5.76258 -3.04582 0
M  V30 3747 N 344.397 -0.483516 -1.5 0
M  V30 3748 C 345.36 0.292965 -2.2732 0
M  V30 3749 C 346.36 0.909499 -1.32608 0
M  V30 3750 O 347.55 0.776745 -1.55924 0
M  V30 3751 C 344.682 1.41854 -3.09984 0
M  V30 3752 H 345.875 -0.385289 -2.97415 0
M  V30 3753 H 343.428 -0.237942 -1.54478 0
M  V30 3754 H 344.163 2.13148 -2.44414 0
M  V30 3755 H 343.948 0.982114 -3.79601 0
M  V30 3756 H 345.438 1.96597 -3.68429 0
M  V30 3757 N 345.875 1.56104 -0.216619 0
M  V30 3758 C 347.121 1.98466 0.417033 0
M  V30 3759 C 347.454 1.10403 1.59765 0
M  V30 3760 O 346.729 0.160632 1.93836 0
M  V30 3761 C 347.012 3.49769 0.85637 0
M  V30 3762 C 346.865 4.48606 -0.327546 0
M  V30 3763 C 348.184 4.05339 1.7143 0
M  V30 3764 H 345.303 0.721551 0.150112 0
M  V30 3765 H 347.945 1.87423 -0.311864 0
M  V30 3766 H 346.095 3.5931 1.47745 0
M  V30 3767 H 347.767 4.5108 -0.965618 0
M  V30 3768 H 346.01 4.22682 -0.975805 0
M  V30 3769 H 346.681 5.51995 0.0227149 0
M  V30 3770 H 349.157 3.98712 1.19031 0
M  V30 3771 H 348.033 5.11533 1.99061 0
M  V30 3772 H 348.294 3.51918 2.67593 0
M  V30 3773 N 347.353 -0.0568162 1.57498 0
M  V30 3774 C 348.283 -1.06593 2.0775 0
M  V30 3775 C 349.264 -1.39448 0.974082 0
M  V30 3776 O 350.449 -1.48815 1.24771 0
M  V30 3777 C 347.579 -2.37509 2.5339 0
M  V30 3778 C 346.533 -2.1897 3.67745 0
M  V30 3779 C 345.859 -3.55402 3.99492 0
M  V30 3780 C 347.159 -1.59859 4.97235 0
M  V30 3781 H 348.853 -0.647706 2.9231 0
M  V30 3782 H 346.399 -0.310116 1.40621 0
M  V30 3783 H 348.352 -3.08409 2.87162 0
M  V30 3784 H 347.076 -2.8134 1.65878 0
M  V30 3785 H 345.735 -1.50508 3.3428 0
M  V30 3786 H 345.383 -3.9683 3.09088 0
M  V30 3787 H 345.083 -3.43831 4.76502 0
M  V30 3788 H 346.607 -4.27708 4.35773 0
M  V30 3789 H 348.021 -2.20642 5.29141 0
M  V30 3790 H 346.418 -1.58942 5.78669 0
M  V30 3791 H 347.488 -0.561506 4.81638 0
M  V30 3792 N 348.832 -1.54138 -0.328536 0
M  V30 3793 C 349.742 -1.86192 -1.42723 0
M  V30 3794 C 350.758 -0.753382 -1.56844 0
M  V30 3795 O 351.934 -1.04718 -1.72035 0
M  V30 3796 C 348.999 -2.07824 -2.77507 0
M  V30 3797 C 348.06 -3.31641 -2.72603 0
M  V30 3798 C 347.293 -3.52232 -4.00959 0
M  V30 3799 O 347.516 -2.7636 -4.9898 0
M  V30 3800 O 346.45 -4.45699 -4.0452 0
M  V30 3801 H 350.276 -2.79608 -1.18547 0
M  V30 3802 H 347.861 -1.3998 -0.522104 0
M  V30 3803 H 349.743 -2.23411 -3.57303 0
M  V30 3804 H 348.418 -1.17596 -3.01584 0
M  V30 3805 H 347.325 -3.21444 -1.91376 0
M  V30 3806 H 348.658 -4.2191 -2.53481 0
M  V30 3807 N 350.31 0.590341 -1.46126 0
M  V30 3808 C 351.258 1.72105 -1.5647 0
M  V30 3809 C 352.252 1.63756 -0.433612 0
M  V30 3810 O 353.458 1.69342 -0.610194 0
M  V30 3811 H 349.833 0.568889 -0.491802 0
M  V30 3812 H 351.804 1.6051 -2.51553 0
M  V30 3813 C 350.553 3.10493 -1.56491 0
M  V30 3814 H 349.876 3.17583 -2.4286 0
M  V30 3815 H 351.316 3.8939 -1.67785 0
M  V30 3816 C 349.775 3.3563 -0.292231 0
M  V30 3817 O 350.305 3.96875 0.620739 0
M  V30 3818 N 348.511 2.90026 -0.182523 0
M  V30 3819 H 348.058 2.40367 -0.926356 0
M  V30 3820 H 348.016 3.07218 0.668152 0
M  V30 3821 N 351.788 1.33704 0.83433 0
M  V30 3822 C 353.034 1.25603 1.59222 0
M  V30 3823 C 353.367 -0.176659 1.93395 0
M  V30 3824 O 352.642 -1.11915 1.59076 0
M  V30 3825 C 352.925 2.13576 2.89926 0
M  V30 3826 C 352.778 3.65326 2.62406 0
M  V30 3827 C 354.097 2.01238 3.91397 0
M  V30 3828 H 351.216 0.457613 0.577719 0
M  V30 3829 H 353.858 1.63848 0.961972 0
M  V30 3830 H 352.008 1.8109 3.43713 0
M  V30 3831 H 353.68 4.08124 2.15017 0
M  V30 3832 H 351.923 3.8698 1.96033 0
M  V30 3833 H 352.594 4.22232 3.55562 0
M  V30 3834 H 355.07 2.29738 3.46929 0
M  V30 3835 H 353.946 2.65036 4.80673 0
M  V30 3836 H 354.207 0.985951 4.30966 0
M  V30 3837 N 353.266 -1.05314 1.17247 0
M  V30 3838 C 354.491 -1.82509 0.985148 0
M  V30 3839 C 354.916 -1.82343 -0.461788 0
M  V30 3840 O 354.274 -1.23151 -1.33055 0
M  V30 3841 C 354.322 -3.26566 1.52929 0
M  V30 3842 O 353.426 -4.05666 0.742225 0
M  V30 3843 H 352.767 -0.564347 0.349869 0
M  V30 3844 H 355.297 -1.32718 1.55715 0
M  V30 3845 H 355.307 -3.77369 1.55103 0
M  V30 3846 H 353.982 -3.26001 2.58256 0
M  V30 3847 H 352.559 -3.64397 0.791794 0
M  V30 3848 N 354.744 -0.972509 -1.24016 0
M  V30 3849 C 355.654 -0.5143 -2.28893 0
M  V30 3850 C 356.67 0.427078 -1.68677 0
M  V30 3851 O 357.846 0.298939 -1.99169 0
M  V30 3852 C 354.911 0.183598 -3.46214 0
M  V30 3853 C 353.972 -0.798202 -4.21814 0
M  V30 3854 C 353.205 -0.133514 -5.33533 0
M  V30 3855 O 353.428 1.07714 -5.60137 0
M  V30 3856 O 352.362 -0.828103 -5.96176 0
M  V30 3857 H 356.188 -1.38629 -2.70214 0
M  V30 3858 H 353.773 -0.739769 -1.29799 0
M  V30 3859 H 355.655 0.575433 -4.17453 0
M  V30 3860 H 354.33 1.03048 -3.0686 0
M  V30 3861 H 353.237 -1.24059 -3.52931 0
M  V30 3862 H 354.57 -1.61364 -4.64997 0
M  V30 3863 N 356.222 1.38976 -0.743202 0
M  V30 3864 C 357.47 1.99948 -0.29417 0
M  V30 3865 C 357.791 1.59279 1.12495 0
M  V30 3866 O 357.061 0.844808 1.76748 0
M  V30 3867 H 355.641 0.739473 -0.105774 0
M  V30 3868 H 358.303 1.699 -0.954986 0
M  V30 3869 H 357.399 3.10142 -0.349056 0
M  V30 3870 N 357.7 0.491464 1.49741 0
M  V30 3871 C 358.948 -0.0563141 2.02022 0
M  V30 3872 C 359.269 -1.38363 1.37407 0
M  V30 3873 O 358.539 -1.88702 0.526166 0
M  V30 3874 H 357.119 -0.0238014 0.746621 0
M  V30 3875 H 359.781 0.646533 1.83864 0
M  V30 3876 H 358.877 -0.192967 3.11503 0
M  V30 3877 N 359.178 -1.55987 0.224894 0
M  V30 3878 C 360.125 -2.20436 -0.68385 0
M  V30 3879 C 361.095 -1.16102 -1.18783 0
M  V30 3880 O 362.28 -1.4447 -1.24632 0
M  V30 3881 C 359.42 -2.89076 -1.88491 0
M  V30 3882 C 358.533 -4.08012 -1.41951 0
M  V30 3883 C 357.668 -4.64426 -2.5784 0
M  V30 3884 C 356.707 -5.75656 -2.08053 0
M  V30 3885 N 355.844 -6.26347 -3.17227 0
M  V30 3886 H 360.684 -2.97727 -0.12754 0
M  V30 3887 H 358.221 -1.47011 -0.0511978 0
M  V30 3888 H 360.179 -3.27059 -2.59014 0
M  V30 3889 H 358.809 -2.14298 -2.41405 0
M  V30 3890 H 357.861 -3.75492 -0.609095 0
M  V30 3891 H 359.173 -4.88375 -1.01447 0
M  V30 3892 H 358.327 -5.04869 -3.3644 0
M  V30 3893 H 357.066 -3.83233 -3.01635 0
M  V30 3894 H 356.071 -5.34712 -1.27916 0
M  V30 3895 H 357.296 -6.58686 -1.65255 0
M  V30 3896 H 355.242 -5.48067 -3.60497 0
M  V30 3897 H 355.159 -7.01843 -2.80986 0
M  V30 3898 H 356.427 -6.71447 -3.95953 0
M  V30 3899 N 360.656 0.0484629 -1.57525 0
M  V30 3900 C 361.566 1.07241 -2.08654 0
M  V30 3901 C 362.582 1.409 -1.02095 0
M  V30 3902 O 363.758 1.50609 -1.33712 0
M  V30 3903 C 360.823 2.36008 -2.5397 0
M  V30 3904 C 359.884 2.09108 -3.7493 0
M  V30 3905 C 359.117 3.31736 -4.18075 0
M  V30 3906 O 359.34 4.41714 -3.60895 0
M  V30 3907 O 358.274 3.18576 -5.10679 0
M  V30 3908 H 362.1 0.667965 -2.96263 0
M  V30 3909 H 359.685 0.26417 -1.47046 0
M  V30 3910 H 361.567 3.11747 -2.83535 0
M  V30 3911 H 360.242 2.75786 -1.69481 0
M  V30 3912 H 359.149 1.31 -3.50414 0
M  V30 3913 H 360.482 1.74198 -4.60343 0
M  V30 3914 N 362.134 1.5431 0.320358 0
M  V30 3915 C 363.064 1.86912 1.3995 0
M  V30 3916 C 364.045 0.726211 1.53819 0
M  V30 3917 O 365.23 0.980233 1.67646 0
M  V30 3918 C 362.36 2.09932 2.7667 0
M  V30 3919 C 361.314 3.25776 2.77586 0
M  V30 3920 C 360.64 3.34173 4.17412 0
M  V30 3921 C 361.94 4.6335 2.41048 0
M  V30 3922 H 363.634 2.77292 1.12914 0
M  V30 3923 H 361.18 1.33421 0.541738 0
M  V30 3924 H 363.133 2.31324 3.52232 0
M  V30 3925 H 361.857 1.16304 3.0519 0
M  V30 3926 H 360.516 3.04276 2.04479 0
M  V30 3927 H 360.164 2.38098 4.43078 0
M  V30 3928 H 359.864 4.12033 4.18931 0
M  V30 3929 H 361.388 3.57803 4.94782 0
M  V30 3930 H 362.802 4.84602 3.06324 0
M  V30 3931 H 361.199 5.43782 2.53813 0
M  V30 3932 H 362.269 4.65381 1.36193 0
M  V30 3933 N 363.613 -0.582584 1.46437 0
M  V30 3934 C 365.024 -1.1647 1.45916 0
M  V30 3935 C 365.375 -1.95177 0.200077 0
M  V30 3936 O 364.5 -2.04874 -0.696819 0
M  V30 3937 C 365.095 -2.11885 2.64367 0
M  V30 3938 C 363.654 -2.65421 2.66887 0
M  V30 3939 C 362.801 -1.41294 2.38603 0
M  V30 3940 H 365.752 -0.370514 1.54314 0
M  V30 3941 H 365.773 -2.9535 2.39892 0
M  V30 3942 H 365.285 -1.54573 3.5599 0
M  V30 3943 H 363.386 -3.26602 1.79338 0
M  V30 3944 H 363.499 -3.08147 3.66854 0
M  V30 3945 H 361.863 -1.71109 1.88663 0
M  V30 3946 H 362.646 -0.858125 3.32402 0
M  V30 3947 N 365.091 -1.34144 -0.827227 0
M  V30 3948 C 366.339 -1.26009 -1.58007 0
M  V30 3949 C 366.66 0.170971 -1.94249 0
M  V30 3950 O 365.93 1.10256 -1.61927 0
M  V30 3951 H 364.51 -0.463414 -0.585881 0
M  V30 3952 H 367.172 -1.68005 -0.987951 0
M  V30 3953 H 366.268 -1.86187 -2.50481 0
M  V30 3954 N 366.569 1.04691 -1.17803 0
M  V30 3955 C 367.809 1.79352 -0.980423 0
M  V30 3956 C 368.173 1.85853 0.481958 0
M  V30 3957 O 369.374 2.56656 0.798809 0
M  V30 3958 C 367.645 3.19088 -1.6099 0
M  V30 3959 S 369.204 4.10164 -1.55918 0
M  V30 3960 H 366.022 0.617631 -0.352211 0
M  V30 3961 H 368.624 1.25575 -1.49837 0
M  V30 3962 H 367.328 3.11962 -2.66661 0
M  V30 3963 H 366.859 3.77941 -1.09197 0
M  V30 3964 H 368.874 4.92907 -0.570685 0
M  V30 3965 N 368.047 0.979072 1.23499 0
M  V30 3966 C 368.977 0.537606 2.27227 0
M  V30 3967 C 369.958 -0.428539 1.64613 0
M  V30 3968 O 371.143 -0.322191 1.91509 0
M  V30 3969 C 368.273 -0.162052 3.46922 0
M  V30 3970 C 367.227 0.721242 4.21879 0
M  V30 3971 C 366.553 -0.110555 5.34586 0
M  V30 3972 C 367.853 2.01141 4.82016 0
M  V30 3973 H 369.547 1.40462 2.64406 0
M  V30 3974 H 367.093 0.67684 1.27102 0
M  V30 3975 H 369.046 -0.482192 4.18632 0
M  V30 3976 H 367.77 -1.06351 3.08799 0
M  V30 3977 H 366.429 1.02482 3.51984 0
M  V30 3978 H 366.077 -1.0125 4.92704 0
M  V30 3979 H 365.777 0.477325 5.85658 0
M  V30 3980 H 367.301 -0.425107 6.09118 0
M  V30 3981 H 368.715 1.75612 5.45741 0
M  V30 3982 H 367.112 2.54695 5.43369 0
M  V30 3983 H 368.182 2.69909 4.02836 0
M  V30 3984 N 369.525 -1.3858 0.750561 0
M  V30 3985 C 370.773 -1.99789 0.30477 0
M  V30 3986 C 371.094 -1.59874 -1.11649 0
M  V30 3987 O 370.364 -0.85417 -1.76297 0
M  V30 3988 H 368.944 -0.738902 0.109694 0
M  V30 3989 H 371.606 -1.69391 0.963983 0
M  V30 3990 H 370.702 -3.09952 0.365499 0
M  V30 3991 N 371.003 -0.499398 -1.49478 0
M  V30 3992 C 372.419 -0.155261 -1.58843 0
M  V30 3993 C 372.619 1.34008 -1.50479 0
M  V30 3994 O 371.675 2.11589 -1.37791 0
M  V30 3995 C 372.988 -0.730636 -2.91689 0
M  V30 3996 C 374.536 -0.696599 -3.0515 0
M  V30 3997 C 375.011 -1.25001 -4.40612 0
M  V30 3998 N 376.502 -1.21064 -4.47099 0
M  V30 3999 C 377.237 -1.60905 -5.50361 0
M  V30 4000 N 376.733 -2.08331 -6.60735 0
M  V30 4001 N 378.526 -1.52331 -5.41065 0
M  V30 4002 H 370.677 -1.47162 -1.53158 0
M  V30 4003 H 372.94 -0.610309 -0.725415 0
M  V30 4004 H 372.646 -1.77928 -3.03372 0
M  V30 4005 H 372.52 -0.190161 -3.7672 0
M  V30 4006 H 374.907 0.343204 -2.93097 0
M  V30 4007 H 374.988 -1.2742 -2.21806 0
M  V30 4008 H 374.632 -2.28859 -4.53416 0
M  V30 4009 H 374.562 -0.64836 -5.22593 0
M  V30 4010 H 377.053 -0.863128 -3.67911 0
M  V30 4011 H 377.366 -2.36805 -7.35624 0
M  V30 4012 H 375.711 -2.12304 -6.6178 0
M  V30 4013 H 378.902 -1.151 -4.53729 0
M  V30 4014 H 379.075 -1.83704 -6.21415 0
M  V30 4015 N 372.481 1.55866 -0.233164 0
M  V30 4016 C 373.413 2.18099 0.704668 0
M  V30 4017 C 374.426 1.15334 1.14899 0
M  V30 4018 O 375.615 1.42262 1.07814 0
M  V30 4019 C 372.715 2.7592 1.96777 0
M  V30 4020 C 371.888 4.03969 1.67713 0
M  V30 4021 C 370.947 4.46242 2.78845 0
M  V30 4022 O 369.973 5.12903 2.46818 0
M  V30 4023 N 371.175 4.12886 4.08051 0
M  V30 4024 H 373.94 2.99205 0.172258 0
M  V30 4025 H 371.501 1.61815 -0.0525945 0
M  V30 4026 H 373.493 3.01165 2.70337 0
M  V30 4027 H 372.063 1.99051 2.41034 0
M  V30 4028 H 371.283 3.86459 0.777391 0
M  V30 4029 H 372.571 4.8748 1.4574 0
M  V30 4030 H 371.969 3.59342 4.3691 0
M  V30 4031 H 370.526 4.42997 4.78118 0
M  V30 4032 N 373.959 -0.0401083 1.57549 0
M  V30 4033 C 374.891 -1.07149 2.02612 0
M  V30 4034 C 375.904 -1.33126 0.937085 0
M  V30 4035 O 377.093 -1.30808 1.21456 0
M  V30 4036 C 374.193 -2.41561 2.37701 0
M  V30 4037 C 373.366 -2.35096 3.68848 0
M  V30 4038 C 372.425 -3.51867 3.91249 0
M  V30 4039 O 371.451 -3.3186 4.62447 0
M  V30 4040 N 372.653 -4.73351 3.36035 0
M  V30 4041 H 375.418 -0.687485 2.91708 0
M  V30 4042 H 372.979 -0.228248 1.60283 0
M  V30 4043 H 374.971 -3.18379 2.49833 0
M  V30 4044 H 373.541 -2.71846 1.54332 0
M  V30 4045 H 372.761 -1.4345 3.67173 0
M  V30 4046 H 374.049 -2.27908 4.54901 0
M  V30 4047 H 373.447 -4.92507 2.78304 0
M  V30 4048 H 372.004 -5.47572 3.53565 0
M  V30 4049 N 375.437 -1.54477 -0.31217 0
M  V30 4050 C 376.385 -1.85395 -1.40469 0
M  V30 4051 C 377.379 -0.726749 -1.53019 0
M  V30 4052 O 378.585 -0.910582 -1.55269 0
M  V30 4053 H 374.96 -0.587845 -0.46898 0
M  V30 4054 H 376.931 -2.76736 -1.11623 0
M  V30 4055 C 375.68 -2.10811 -2.76503 0
M  V30 4056 H 375.003 -2.97014 -2.67625 0
M  V30 4057 H 376.443 -2.3639 -3.51988 0
M  V30 4058 C 374.902 -0.903165 -3.24568 0
M  V30 4059 O 375.432 -0.118085 -4.01526 0
M  V30 4060 N 373.638 -0.711634 -2.81752 0
M  V30 4061 H 373.185 -1.35171 -2.19286 0
M  V30 4062 H 373.143 0.0930473 -3.14262 0
M  V30 4063 N 376.915 0.57481 -1.46744 0
M  V30 4064 C 378.326 1.15695 -1.46532 0
M  V30 4065 C 378.677 1.95068 -0.210425 0
M  V30 4066 O 377.802 2.05241 0.685944 0
M  V30 4067 C 378.397 2.1048 -2.65487 0
M  V30 4068 C 376.956 2.64002 -2.68291 0
M  V30 4069 C 376.103 1.40026 -2.39349 0
M  V30 4070 H 379.054 0.362325 -1.54509 0
M  V30 4071 H 379.075 2.94074 -2.41455 0
M  V30 4072 H 378.587 1.52683 -3.56805 0
M  V30 4073 H 376.688 3.25646 -1.81067 0
M  V30 4074 H 376.801 3.06197 -3.68483 0
M  V30 4075 H 375.165 1.70106 -1.89568 0
M  V30 4076 H 375.948 0.840485 -3.32852 0
M  V30 4077 N 378.394 1.34581 0.820102 0
M  V30 4078 C 379.642 1.26845 1.57336 0
M  V30 4079 C 379.963 -0.160667 1.94337 0
M  V30 4080 O 379.233 -1.09396 1.6251 0
M  V30 4081 H 377.813 0.466514 0.583415 0
M  V30 4082 H 380.475 1.68526 0.979027 0
M  V30 4083 H 379.571 1.87513 2.4949 0
M  V30 4084 N 379.872 -1.04064 1.18357 0
M  V30 4085 C 380.822 -2.10393 0.878561 0
M  V30 4086 C 381.806 -1.60183 -0.151713 0
M  V30 4087 O 382.998 -1.76923 0.0523303 0
M  V30 4088 C 380.127 -3.4089 0.406096 0
M  V30 4089 C 379.213 -3.97866 1.46844 0
M  V30 4090 N 379.604 -4.28657 2.68489 0
M  V30 4091 C 377.902 -4.2574 1.32896 0
M  V30 4092 C 378.603 -4.74253 3.36836 0
M  V30 4093 N 377.579 -4.75068 2.64219 0
M  V30 4094 H 381.381 -2.32076 1.80327 0
M  V30 4095 H 378.895 -1.21818 1.07397 0
M  V30 4096 H 380.892 -4.16557 0.169088 0
M  V30 4097 H 379.552 -3.20633 -0.512275 0
M  V30 4098 H 380.563 -4.18304 3.05356 0
M  V30 4099 H 377.24 -4.1481 0.473134 0
M  V30 4100 H 378.63 -5.07096 4.40798 0
M  V30 4101 N 381.35 -0.985608 -1.22978 0
M  V30 4102 C 382.578 -0.675582 -1.95559 0
M  V30 4103 C 382.993 0.758413 -1.72897 0
M  V30 4104 O 382.35 1.51094 -1.02357 0
M  V30 4105 C 382.401 -0.96293 -3.48439 0
M  V30 4106 O 382.122 -2.34057 -3.70336 0
M  V30 4107 C 383.623 -0.669585 -4.38214 0
M  V30 4108 H 380.843 -0.250523 -0.622478 0
M  V30 4109 H 383.387 -1.3184 -1.56328 0
M  V30 4110 H 381.542 -0.366033 -3.85667 0
M  V30 4111 H 381.956 -2.43424 -4.64591 0
M  V30 4112 H 383.43 -0.920967 -5.44263 0
M  V30 4113 H 383.907 0.396383 -4.37408 0
M  V30 4114 H 384.513 -1.2472 -4.06602 0
M  V30 4115 N 382.828 1.3818 -0.7579 0
M  V30 4116 C 383.758 2.33027 -0.148597 0
M  V30 4117 C 384.739 1.55085 0.69875 0
M  V30 4118 O 385.924 1.83384 0.639053 0
M  V30 4119 C 383.054 3.3928 0.742034 0
M  V30 4120 C 382.008 4.28 -0.00291946 0
M  V30 4121 C 381.334 5.25146 1.00625 0
M  V30 4122 C 382.634 5.08938 -1.17385 0
M  V30 4123 H 384.328 2.84231 -0.940909 0
M  V30 4124 H 381.874 1.36659 -0.453908 0
M  V30 4125 H 383.827 4.046 1.17799 0
M  V30 4126 H 382.551 2.86569 1.56671 0
M  V30 4127 H 381.21 3.64192 -0.419504 0
M  V30 4128 H 380.858 4.68721 1.8251 0
M  V30 4129 H 380.558 5.85361 0.512428 0
M  V30 4130 H 382.082 5.93342 1.44143 0
M  V30 4131 H 383.496 5.67474 -0.815224 0
M  V30 4132 H 381.893 5.7841 -1.59882 0
M  V30 4133 H 382.963 4.42424 -1.98468 0
M  V30 4134 N 384.306 0.507319 1.49211 0
M  V30 4135 C 385.216 -0.272136 2.33016 0
M  V30 4136 C 386.232 -0.961206 1.45041 0
M  V30 4137 O 387.408 -0.941191 1.78055 0
M  V30 4138 C 384.473 -1.31895 3.20631 0
M  V30 4139 C 383.534 -0.642648 4.24463 0
M  V30 4140 C 382.767 -1.63959 5.07891 0
M  V30 4141 O 382.99 -2.87007 4.92933 0
M  V30 4142 O 381.924 -1.19143 5.8999 0
M  V30 4143 H 385.75 0.413982 3.00865 0
M  V30 4144 H 383.335 0.268556 1.46966 0
M  V30 4145 H 385.217 -1.92446 3.7489 0
M  V30 4146 H 383.892 -1.98788 2.5547 0
M  V30 4147 H 382.799 0.00276252 3.741 0
M  V30 4148 H 384.132 -0.0160534 4.92197 0
M  V30 4149 N 385.784 -1.5574 0.241426 0
M  V30 4150 C 386.747 -2.19877 -0.647063 0
M  V30 4151 C 387.747 -1.16642 -1.10686 0
M  V30 4152 O 388.937 -1.41757 -1.01245 0
M  V30 4153 C 386.069 -2.83797 -1.88871 0
M  V30 4154 H 387.262 -2.99772 -0.087574 0
M  V30 4155 H 384.815 -1.56298 -0.00813574 0
M  V30 4156 H 385.55 -2.07824 -2.48957 0
M  V30 4157 H 385.335 -3.59414 -1.56728 0
M  V30 4158 H 386.825 -3.32898 -2.52129 0
M  V30 4159 N 387.262 0.0317525 -1.57568 0
M  V30 4160 C 388.51 0.721676 -1.88776 0
M  V30 4161 C 388.831 1.76039 -0.838772 0
M  V30 4162 O 388.101 1.95482 0.127935 0
M  V30 4163 H 386.681 0.269534 -0.696678 0
M  V30 4164 H 389.343 -0.00165879 -1.949 0
M  V30 4165 H 388.439 1.21293 -2.87566 0
M  V30 4166 N 388.74 1.54641 0.303973 0
M  V30 4167 C 389.986 1.74969 1.03718 0
M  V30 4168 C 390.341 0.527461 1.85029 0
M  V30 4169 O 389.634 -0.480143 1.85486 0
M  V30 4170 C 389.828 2.97753 1.97681 0
M  V30 4171 C 389.657 4.318 1.25613 0
M  V30 4172 C 388.427 4.95616 0.984518 0
M  V30 4173 C 390.625 5.10021 0.662081 0
M  V30 4174 N 388.607 6.13455 0.233794 0
M  V30 4175 C 389.978 6.19984 0.0439736 0
M  V30 4176 C 392.033 4.94663 0.566835 0
M  V30 4177 C 390.736 7.16264 -0.66016 0
M  V30 4178 C 392.762 5.91271 -0.123637 0
M  V30 4179 C 392.124 7.00601 -0.730608 0
M  V30 4180 H 388.223 0.692873 0.362562 0
M  V30 4181 H 390.807 1.92116 0.316135 0
M  V30 4182 H 388.978 2.82036 2.6704 0
M  V30 4183 H 390.71 3.06621 2.64132 0
M  V30 4184 H 387.465 4.55921 1.28191 0
M  V30 4185 H 387.889 6.76879 -0.127996 0
M  V30 4186 H 392.531 4.10267 1.02181 0
M  V30 4187 H 390.249 8.00204 -1.12691 0
M  V30 4188 H 393.835 5.81466 -0.197236 0
M  V30 4189 H 392.715 7.7407 -1.2564 0
M  V30 4190 N 390.218 -0.567019 1.47046 0
M  V30 4191 C 391.465 -1.32462 1.53167 0
M  V30 4192 C 391.793 -1.93571 0.189841 0
M  V30 4193 O 391.048 -1.77865 -0.816243 0
M  V30 4194 C 391.347 -2.4623 2.59047 0
M  V30 4195 C 391.013 -2.03014 4.02612 0
M  V30 4196 C 389.675 -1.90944 4.41694 0
M  V30 4197 C 392.027 -1.69895 4.92732 0
M  V30 4198 C 389.355 -1.44035 5.68745 0
M  V30 4199 C 391.707 -1.2446 6.20236 0
M  V30 4200 C 390.371 -1.10979 6.5821 0
M  V30 4201 H 389.641 -0.484713 0.560477 0
M  V30 4202 H 392.288 -0.636888 1.80599 0
M  V30 4203 H 390.593 -3.20517 2.25335 0
M  V30 4204 H 392.29 -3.04427 2.61008 0
M  V30 4205 H 388.88 -2.13348 3.71726 0
M  V30 4206 H 393.064 -1.78098 4.63244 0
M  V30 4207 H 388.32 -1.32254 5.96925 0
M  V30 4208 H 392.494 -0.978924 6.89485 0
M  V30 4209 H 390.121 -0.744078 7.5655 0
M  V30 4210 N 391.696 -1.35014 -0.812953 0
M  V30 4211 C 392.626 -1.30069 -1.93919 0
M  V30 4212 C 393.607 -0.176275 -1.69184 0
M  V30 4213 O 394.792 -0.370227 -1.90638 0
M  V30 4214 C 391.922 -1.06547 -3.30552 0
M  V30 4215 C 390.876 -2.15561 -3.69753 0
M  V30 4216 C 390.202 -1.77214 -5.04479 0
M  V30 4217 C 391.502 -3.57476 -3.808 0
M  V30 4218 H 393.196 -2.24303 -1.98314 0
M  V30 4219 H 390.742 -1.07977 -0.952736 0
M  V30 4220 H 392.695 -1.01729 -4.08937 0
M  V30 4221 H 391.419 -0.0875719 -3.26483 0
M  V30 4222 H 390.078 -2.19466 -2.9365 0
M  V30 4223 H 389.726 -0.780589 -4.96906 0
M  V30 4224 H 389.426 -2.50184 -5.31678 0
M  V30 4225 H 390.95 -1.7391 -5.8531 0
M  V30 4226 H 392.364 -3.55929 -4.4943 0
M  V30 4227 H 390.761 -4.29152 -4.19462 0
M  V30 4228 H 391.831 -3.94091 -2.82525 0
M  V30 4229 N 393.175 1.03435 -1.18907 0
M  V30 4230 C 394.105 2.13503 -0.945448 0
M  V30 4231 C 395.086 1.69682 0.119189 0
M  V30 4232 O 396.271 1.94169 -0.034707 0
M  V30 4233 C 393.401 3.44004 -0.477316 0
M  V30 4234 C 392.355 4.0148 -1.48316 0
M  V30 4235 C 391.681 5.27537 -0.872311 0
M  V30 4236 C 392.981 4.36921 -2.86177 0
M  V30 4237 H 394.675 2.34141 -1.86597 0
M  V30 4238 H 392.221 1.12523 -0.898584 0
M  V30 4239 H 394.174 4.20372 -0.294204 0
M  V30 4240 H 392.898 3.23072 0.478786 0
M  V30 4241 H 391.557 3.27201 -1.65332 0
M  V30 4242 H 391.205 5.02917 0.0911752 0
M  V30 4243 H 390.905 5.66954 -1.54393 0
M  V30 4244 H 392.429 6.06576 -0.699871 0
M  V30 4245 H 393.843 5.04248 -2.72776 0
M  V30 4246 H 392.24 4.87405 -3.50081 0
M  V30 4247 H 393.31 3.46466 -3.39248 0
M  V30 4248 N 394.653 0.992116 1.22453 0
M  V30 4249 C 396.069 0.702713 1.43297 0
M  V30 4250 C 396.269 -0.726909 1.87932 0
M  V30 4251 O 395.325 -1.49792 2.0327 0
M  V30 4252 C 396.638 1.70762 2.47509 0
M  V30 4253 C 398.186 1.72298 2.61309 0
M  V30 4254 C 398.661 2.71649 3.68742 0
M  V30 4255 N 400.152 2.70239 3.76199 0
M  V30 4256 C 400.887 3.43778 4.58917 0
M  V30 4257 N 400.383 4.26914 5.45633 0
M  V30 4258 N 402.176 3.32487 4.5322 0
M  V30 4259 H 394.327 1.91543 0.917871 0
M  V30 4260 H 396.59 0.826031 0.465162 0
M  V30 4261 H 396.296 2.73059 2.21657 0
M  V30 4262 H 396.17 1.49985 3.46099 0
M  V30 4263 H 398.557 0.706989 2.86506 0
M  V30 4264 H 398.638 1.97143 1.62997 0
M  V30 4265 H 398.282 3.73397 3.44292 0
M  V30 4266 H 398.212 2.44074 4.66622 0
M  V30 4267 H 400.703 2.09912 3.14237 0
M  V30 4268 H 401.016 4.79855 6.05771 0
M  V30 4269 H 399.361 4.31002 5.45218 0
M  V30 4270 H 402.552 2.6698 3.84499 0
M  V30 4271 H 402.725 3.90058 5.17454 0
M  V30 4272 N 396.131 -1.37776 0.765217 0
M  V30 4273 C 397.081 -2.2768 0.12075 0
M  V30 4274 C 398.065 -1.45778 -0.680988 0
M  V30 4275 O 399.257 -1.684 -0.545033 0
M  V30 4276 C 396.386 -3.34722 -0.762626 0
M  V30 4277 C 395.472 -4.24074 0.0465881 0
M  V30 4278 N 395.863 -4.93939 1.08892 0
M  V30 4279 C 394.161 -4.45643 -0.178418 0
M  V30 4280 C 394.862 -5.59845 1.57951 0
M  V30 4281 N 393.838 -5.36218 0.892797 0
M  V30 4282 H 397.64 -2.79166 0.918889 0
M  V30 4283 H 395.154 -1.50816 0.602353 0
M  V30 4284 H 397.151 -3.98031 -1.24005 0
M  V30 4285 H 395.811 -2.84793 -1.55959 0
M  V30 4286 H 396.822 -4.96572 1.47095 0
M  V30 4287 H 393.499 -4.06599 -0.9478 0
M  V30 4288 H 394.889 -6.25703 2.44838 0
M  V30 4289 N 397.609 -0.515225 -1.4894 0
M  V30 4290 C 398.849 0.0223983 -2.04388 0
M  V30 4291 C 399.213 1.32961 -1.38511 0
M  V30 4292 O 400.414 1.95236 -1.8476 0
M  V30 4293 C 398.685 0.157056 -3.57055 0
M  V30 4294 S 400.244 0.646875 -4.34006 0
M  V30 4295 H 397.062 -0.00500662 -0.710982 0
M  V30 4296 H 399.664 -0.69243 -1.82827 0
M  V30 4297 H 398.368 -0.799412 -4.02539 0
M  V30 4298 H 397.899 0.896704 -3.83044 0
M  V30 4299 H 399.914 1.91381 -4.57808 0
M  V30 4300 N 399.087 1.5561 -0.249682 0
M  V30 4301 C 400.336 1.98187 0.37479 0
M  V30 4302 C 400.649 1.14111 1.58865 0
M  V30 4303 O 401.855 1.46714 2.28445 0
M  V30 4304 C 400.311 3.52661 0.718192 0
M  V30 4305 C 399.919 4.45481 -0.474428 0
M  V30 4306 C 401.663 4.03888 1.3067 0
M  V30 4307 C 399.57 5.91303 -0.107026 0
M  V30 4308 H 398.5 0.740159 0.143808 0
M  V30 4309 H 401.151 1.80125 -0.350336 0
M  V30 4310 H 399.533 3.66429 1.50152 0
M  V30 4311 H 400.707 4.43473 -1.25172 0
M  V30 4312 H 399.022 4.04751 -0.978052 0
M  V30 4313 H 401.619 5.10358 1.59496 0
M  V30 4314 H 401.962 3.51401 2.23211 0
M  V30 4315 H 402.495 3.93457 0.586211 0
M  V30 4316 H 399.234 6.47833 -0.999642 0
M  V30 4317 H 398.754 5.9644 0.634013 0
M  V30 4318 H 400.433 6.46258 0.309807 0
M  V30 4319 N 400.565 -0.0233959 1.57583 0
M  V30 4320 C 401.981 -0.379134 1.55031 0
M  V30 4321 C 402.181 -1.76255 0.976548 0
M  V30 4322 O 401.237 -2.45266 0.600078 0
M  V30 4323 C 402.55 -0.275792 2.99433 0
M  V30 4324 C 404.098 -0.352458 3.11009 0
M  V30 4325 C 404.573 -0.278501 4.57152 0
M  V30 4326 N 406.064 -0.337123 4.61972 0
M  V30 4327 C 406.799 -0.302876 5.726 0
M  V30 4328 N 406.295 -0.220589 6.92449 0
M  V30 4329 N 408.088 -0.353023 5.6099 0
M  V30 4330 H 400.239 0.881869 1.93227 0
M  V30 4331 H 402.502 0.335867 0.886509 0
M  V30 4332 H 402.208 0.675108 3.4516 0
M  V30 4333 H 402.082 -1.06721 3.61788 0
M  V30 4334 H 404.469 -1.29379 2.65226 0
M  V30 4335 H 404.55 0.468409 2.51475 0
M  V30 4336 H 404.194 0.659189 5.03604 0
M  V30 4337 H 404.124 -1.11755 5.14605 0
M  V30 4338 H 406.615 -0.403002 3.75745 0
M  V30 4339 H 406.928 -0.199713 7.72542 0
M  V30 4340 H 405.273 -0.186555 6.9475 0
M  V30 4341 H 408.464 -0.415339 4.66254 0
M  V30 4342 H 408.637 -0.322866 6.47195 0
M  V30 4343 N 402.043 -1.548 -0.295768 0
M  V30 4344 C 402.99 -1.86113 -1.36494 0
M  V30 4345 C 403.96 -0.7105 -1.50137 0
M  V30 4346 O 405.145 -0.959626 -1.64912 0
M  V30 4347 C 402.285 -2.11861 -2.72413 0
M  V30 4348 C 401.398 -3.39471 -2.67177 0
M  V30 4349 C 400.533 -3.55035 -3.95125 0
M  V30 4350 C 399.572 -4.76418 -3.84308 0
M  V30 4351 N 398.709 -4.8876 -5.04042 0
M  V30 4352 H 403.549 -2.77314 -1.09091 0
M  V30 4353 H 401.086 -1.37315 -0.52753 0
M  V30 4354 H 403.044 -2.24786 -3.51464 0
M  V30 4355 H 401.674 -1.2392 -2.98066 0
M  V30 4356 H 400.726 -3.35139 -1.79962 0
M  V30 4357 H 402.038 -4.28646 -2.55076 0
M  V30 4358 H 401.192 -3.67653 -4.82614 0
M  V30 4359 H 399.931 -2.64002 -4.10066 0
M  V30 4360 H 398.936 -4.63827 -2.95202 0
M  V30 4361 H 400.161 -5.68863 -3.70906 0
M  V30 4362 H 398.107 -4.00652 -5.19436 0
M  V30 4363 H 398.024 -5.71945 -4.94384 0
M  V30 4364 H 399.292 -5.0574 -5.93167 0
M  V30 4365 N 403.521 0.559213 -1.47345 0
M  V30 4366 C 404.769 1.31388 -1.53563 0
M  V30 4367 C 405.09 1.93985 -0.198678 0
M  V30 4368 O 404.36 1.79825 0.777167 0
M  V30 4369 H 402.94 0.487901 -0.565652 0
M  V30 4370 H 405.602 0.65315 -1.8363 0
M  V30 4371 H 404.698 2.10844 -2.30111 0
M  V30 4372 N 404.999 1.35443 0.805782 0
M  V30 4373 C 406.276 1.19325 1.54987 0
M  V30 4374 C 406.656 -0.227294 2.09873 0
M  V30 4375 O 406.004 -1.2309 1.92512 0
M  V30 4376 C 406.214 2.26196 2.65775 0
M  V30 4377 C 407.562 2.62043 3.34094 0
M  V30 4378 O 408.586 2.25115 2.76046 0
M  V30 4379 O 407.445 3.25542 4.38958 0
M  V30 4380 H 404.539 0.463623 0.684823 0
M  V30 4381 H 407.085 1.47127 0.845674 0
M  V30 4382 H 405.857 3.21471 2.23096 0
M  V30 4383 H 405.48 1.99667 3.43829 0
M  V30 4384 N 406.477 -1.02803 1.19454 0
M  V30 4385 C 407.888 -1.57667 0.999899 0
M  V30 4386 C 408.239 -1.91041 -0.446956 0
M  V30 4387 O 407.364 -1.70978 -1.32648 0
M  V30 4388 C 407.959 -2.86477 1.80877 0
M  V30 4389 C 406.518 -3.37911 1.65811 0
M  V30 4390 C 405.665 -2.11343 1.79526 0
M  V30 4391 H 408.616 -0.853214 1.33813 0
M  V30 4392 H 408.637 -3.57408 1.30536 0
M  V30 4393 H 408.149 -2.62155 2.86175 0
M  V30 4394 H 406.25 -3.67218 0.63102 0
M  V30 4395 H 406.363 -4.10885 2.46395 0
M  V30 4396 H 404.727 -2.23254 1.22596 0
M  V30 4397 H 405.51 -1.89461 2.86285 0
M  V30 4398 N 407.956 -0.998596 -1.21925 0
M  V30 4399 C 408.866 -0.562736 -2.27751 0
M  V30 4400 C 409.882 0.391203 -1.69545 0
M  V30 4401 O 411.058 0.256625 -1.99758 0
M  V30 4402 C 408.123 0.11012 -3.46525 0
M  V30 4403 C 407.184 -0.887495 -4.20026 0
M  V30 4404 C 406.417 -0.246654 -5.3313 0
M  V30 4405 O 406.64 0.958088 -5.62296 0
M  V30 4406 O 405.574 -0.954374 -5.94286 0
M  V30 4407 H 409.4 -1.44329 -2.67213 0
M  V30 4408 H 406.985 -0.767135 -1.28201 0
M  V30 4409 H 408.867 0.486756 -4.18579 0
M  V30 4410 H 407.542 0.965154 -3.08976 0
M  V30 4411 H 406.449 -1.31517 -3.5022 0
M  V30 4412 H 407.782 -1.71191 -4.6147 0
M  V30 4413 N 409.434 1.37368 -0.772513 0
M  V30 4414 C 410.364 2.32856 -0.173304 0
M  V30 4415 C 411.345 1.55818 0.682262 0
M  V30 4416 O 412.53 1.84052 0.619566 0
M  V30 4417 C 409.66 3.40048 0.706007 0
M  V30 4418 C 408.614 4.27973 -0.0483144 0
M  V30 4419 C 407.94 5.26184 0.950491 0
M  V30 4420 C 409.24 5.07665 -1.22776 0
M  V30 4421 H 410.934 2.83217 -0.971002 0
M  V30 4422 H 408.48 1.3617 -0.468377 0
M  V30 4423 H 410.433 4.05827 1.13501 0
M  V30 4424 H 409.157 2.88214 1.53623 0
M  V30 4425 H 407.816 3.63726 -0.458107 0
M  V30 4426 H 407.464 4.7063 1.77529 0
M  V30 4427 H 407.164 5.85872 0.450314 0
M  V30 4428 H 408.688 5.94838 1.37842 0
M  V30 4429 H 410.102 5.66578 -0.875366 0
M  V30 4430 H 408.499 5.76681 -1.66007 0
M  V30 4431 H 409.569 4.40294 -2.03149 0
M  V30 4432 N 410.912 0.523116 1.48665 0
M  V30 4433 C 412.328 0.180511 1.58576 0
M  V30 4434 C 412.528 -1.31597 1.52592 0
M  V30 4435 O 411.584 -2.0937 1.4114 0
M  V30 4436 C 412.897 0.776949 2.90489 0
M  V30 4437 C 414.445 0.745058 3.04003 0
M  V30 4438 C 414.92 1.31995 4.38567 0
M  V30 4439 N 416.411 1.28162 4.45117 0
M  V30 4440 C 417.146 1.6964 5.47731 0
M  V30 4441 N 416.642 2.18816 6.57337 0
M  V30 4442 N 418.435 1.6092 5.38573 0
M  V30 4443 H 410.586 1.4958 1.50797 0
M  V30 4444 H 412.849 0.621772 0.715614 0
M  V30 4445 H 412.555 1.82732 3.00503 0
M  V30 4446 H 412.429 0.25007 3.7637 0
M  V30 4447 H 414.816 -0.296532 2.93606 0
M  V30 4448 H 414.897 1.30933 2.1975 0
M  V30 4449 H 414.541 2.36043 4.49718 0
M  V30 4450 H 414.471 0.731418 5.21496 0
M  V30 4451 H 416.962 0.92155 3.66491 0
M  V30 4452 H 417.275 2.48478 7.31764 0
M  V30 4453 H 415.62 2.22805 6.58318 0
M  V30 4454 H 418.811 1.22304 4.5184 0
M  V30 4455 H 418.984 1.93567 6.18414 0
M  V30 4456 N 412.39 -1.55475 0.257931 0
M  V30 4457 C 413.353 -2.20551 -0.623706 0
M  V30 4458 C 414.353 -1.17809 -1.09443 0
M  V30 4459 O 415.543 -1.42823 -0.997362 0
M  V30 4460 C 412.675 -2.85784 -1.8585 0
M  V30 4461 H 413.868 -2.99848 -0.0557743 0
M  V30 4462 H 411.421 -1.56298 0.0084422 0
M  V30 4463 H 412.156 -2.10453 -2.46739 0
M  V30 4464 H 411.941 -3.61057 -1.52907 0
M  V30 4465 H 413.431 -3.35553 -2.48584 0
M  V30 4466 N 413.868 0.0150385 -1.57593 0
M  V30 4467 C 414.818 1.01943 -2.0394 0
M  V30 4468 C 415.802 1.31209 -0.931286 0
M  V30 4469 O 416.994 1.30559 -1.19513 0
M  V30 4470 C 414.123 2.31621 -2.53391 0
M  V30 4471 C 413.209 2.05384 -3.7105 0
M  V30 4472 N 413.6 1.49253 -4.83278 0
M  V30 4473 C 411.898 2.35601 -3.78693 0
M  V30 4474 C 412.599 1.39143 -5.64813 0
M  V30 4475 N 411.575 1.87187 -5.10355 0
M  V30 4476 H 415.377 0.57969 -2.88126 0
M  V30 4477 H 412.891 0.221056 -1.60888 0
M  V30 4478 H 414.888 3.044 -2.84862 0
M  V30 4479 H 413.548 2.76261 -1.70616 0
M  V30 4480 H 414.559 1.17334 -5.04433 0
M  V30 4481 H 411.236 2.8322 -3.06746 0
M  V30 4482 H 412.626 0.961153 -6.6499 0
M  V30 4483 N 415.346 1.54954 0.287554 0
M  V30 4484 C 416.592 1.75132 1.02257 0
M  V30 4485 C 416.925 0.542858 1.86458 0
M  V30 4486 O 416.2 -0.459856 1.88986 0
M  V30 4487 C 416.483 3.04812 1.91733 0
M  V30 4488 C 416.336 4.35985 1.10622 0
M  V30 4489 C 417.655 3.30438 2.90687 0
M  V30 4490 H 414.774 0.637194 0.370341 0
M  V30 4491 H 417.416 1.87678 0.296111 0
M  V30 4492 H 415.566 2.94247 2.53675 0
M  V30 4493 H 417.238 4.58487 0.508636 0
M  V30 4494 H 415.481 4.31865 0.409271 0
M  V30 4495 H 416.152 5.23017 1.76513 0
M  V30 4496 H 418.628 3.40701 2.38877 0
M  V30 4497 H 417.504 4.22467 3.50447 0
M  V30 4498 H 417.765 2.49377 3.65053 0
M  V30 4499 N 416.824 -0.551391 1.4764 0
M  V30 4500 C 418.073 -1.30467 1.53822 0
M  V30 4501 C 418.386 -1.94495 0.207661 0
M  V30 4502 O 419.592 -2.71099 0.147533 0
M  V30 4503 C 418.048 -2.36616 2.71184 0
M  V30 4504 C 417.656 -1.78754 4.10793 0
M  V30 4505 C 419.4 -3.13088 2.86663 0
M  V30 4506 C 417.307 -2.82717 5.19447 0
M  V30 4507 H 416.237 -0.490584 0.572576 0
M  V30 4508 H 418.888 -0.58494 1.73927 0
M  V30 4509 H 417.27 -3.11529 2.4447 0
M  V30 4510 H 418.444 -1.10173 4.47435 0
M  V30 4511 H 416.759 -1.14846 4.00249 0
M  V30 4512 H 419.356 -3.90736 3.65007 0
M  V30 4513 H 419.699 -3.67635 1.95321 0
M  V30 4514 H 420.232 -2.45288 3.13175 0
M  V30 4515 H 416.971 -2.33018 6.12685 0
M  V30 4516 H 416.491 -3.4969 4.87316 0
M  V30 4517 H 418.17 -3.46102 5.46646 0
M  V30 4518 N 418.302 -1.35869 -0.798587 0
M  V30 4519 C 419.579 -1.20145 -1.54352 0
M  V30 4520 C 419.959 0.216161 -2.0999 0
M  V30 4521 O 419.307 1.22068 -1.93162 0
M  V30 4522 C 419.517 -2.27602 -2.64572 0
M  V30 4523 C 420.865 -2.63811 -3.32699 0
M  V30 4524 O 421.889 -2.26576 -2.74849 0
M  V30 4525 O 420.748 -3.27866 -4.37226 0
M  V30 4526 H 417.842 -0.467248 -0.682355 0
M  V30 4527 H 420.388 -1.47574 -0.837859 0
M  V30 4528 H 419.16 -3.2265 -2.21388 0
M  V30 4529 H 418.783 -2.01488 -3.42766 0
M  V30 4530 N 419.78 1.02168 -1.19998 0
M  V30 4531 C 420.727 2.10601 -0.944228 0
M  V30 4532 C 421.697 1.65639 0.123664 0
M  V30 4533 O 422.882 1.9079 -0.0199941 0
M  V30 4534 C 420.022 3.41504 -0.496865 0
M  V30 4535 C 419.135 3.99973 -1.63234 0
M  V30 4536 C 418.27 5.18915 -1.13579 0
M  V30 4537 C 417.309 5.69456 -2.24468 0
M  V30 4538 N 416.446 6.79665 -1.76068 0
M  V30 4539 H 421.286 2.31814 -1.8726 0
M  V30 4540 H 418.823 1.13686 -0.933483 0
M  V30 4541 H 420.781 4.16626 -0.218843 0
M  V30 4542 H 419.411 3.2038 0.394508 0
M  V30 4543 H 418.463 3.21997 -2.0254 0
M  V30 4544 H 419.775 4.33492 -2.46752 0
M  V30 4545 H 418.929 6.01222 -0.813429 0
M  V30 4546 H 417.668 4.8695 -0.270434 0
M  V30 4547 H 416.673 4.85757 -2.57526 0
M  V30 4548 H 417.898 6.03459 -3.11472 0
M  V30 4549 H 415.844 6.49538 -0.918516 0
M  V30 4550 H 415.761 7.12349 -2.5317 0
M  V30 4551 H 417.029 7.65549 -1.46817 0
M  V30 4552 N 421.258 1.00505 1.21394 0
M  V30 4553 C 422.505 0.687774 1.90462 0
M  V30 4554 C 422.833 -0.78147 1.7811 0
M  V30 4555 O 422.088 -1.58208 1.1519 0
M  V30 4556 C 422.387 1.0546 3.41486 0
M  V30 4557 C 422.053 2.51812 3.74034 0
M  V30 4558 C 420.715 2.91804 3.82628 0
M  V30 4559 C 423.067 3.46614 3.8924 0
M  V30 4560 C 420.395 4.2556 4.03876 0
M  V30 4561 C 422.747 4.80044 4.11995 0
M  V30 4562 C 421.411 5.19759 4.18816 0
M  V30 4563 H 420.681 0.251674 0.696951 0
M  V30 4564 H 423.328 1.26349 1.43903 0
M  V30 4565 H 421.633 0.397133 3.89782 0
M  V30 4566 H 423.33 0.786976 3.93202 0
M  V30 4567 H 419.92 2.1982 3.67936 0
M  V30 4568 H 424.104 3.16883 3.81967 0
M  V30 4569 H 419.36 4.55901 4.07387 0
M  V30 4570 H 423.534 5.53439 4.22704 0
M  V30 4571 H 421.161 6.23418 4.35033 0
M  V30 4572 N 422.737 -1.36956 0.779787 0
M  V30 4573 C 423.667 -2.32761 0.185651 0
M  V30 4574 C 424.648 -1.56177 -0.673989 0
M  V30 4575 O 425.833 -1.84378 -0.609797 0
M  V30 4576 C 422.963 -3.40418 -0.687964 0
M  V30 4577 C 421.917 -4.27941 0.0710102 0
M  V30 4578 C 421.243 -5.26681 -0.922573 0
M  V30 4579 C 422.543 -5.07006 1.25467 0
M  V30 4580 H 424.237 -2.82698 0.986008 0
M  V30 4581 H 421.783 -1.3592 0.475592 0
M  V30 4582 H 423.736 -4.06423 -1.11348 0
M  V30 4583 H 422.46 -2.89025 -1.52093 0
M  V30 4584 H 421.119 -3.63478 0.47739 0
M  V30 4585 H 420.767 -4.71565 -1.7503 0
M  V30 4586 H 420.467 -5.86103 -0.419237 0
M  V30 4587 H 421.991 -5.9556 -1.34686 0
M  V30 4588 H 423.405 -5.66105 0.905401 0
M  V30 4589 H 421.802 -5.75793 1.69063 0
M  V30 4590 H 422.872 -4.3921 2.05481 0
M  V30 4591 N 424.215 -0.530993 -1.48385 0
M  V30 4592 C 425.145 0.219985 -2.32461 0
M  V30 4593 C 426.126 0.934111 -1.42156 0
M  V30 4594 O 427.311 0.919694 -1.71042 0
M  V30 4595 C 424.441 1.26674 -3.23375 0
M  V30 4596 C 423.395 0.67069 -4.22712 0
M  V30 4597 C 422.721 1.82017 -5.02766 0
M  V30 4598 C 424.021 -0.358268 -5.2107 0
M  V30 4599 H 425.715 -0.48187 -2.95497 0
M  V30 4600 H 423.261 -0.233182 -1.42099 0
M  V30 4601 H 425.214 1.80006 -3.81019 0
M  V30 4602 H 423.938 1.99818 -2.58341 0
M  V30 4603 H 422.597 0.158878 -3.66256 0
M  V30 4604 H 422.245 2.54002 -4.34157 0
M  V30 4605 H 421.945 1.42727 -5.70003 0
M  V30 4606 H 423.469 2.35725 -5.63264 0
M  V30 4607 H 424.883 0.0880081 -5.73232 0
M  V30 4608 H 423.28 -0.66861 -5.96364 0
M  V30 4609 H 424.35 -1.26367 -4.68145 0
M  V30 4610 N 425.693 1.55336 -0.266172 0
M  V30 4611 C 426.623 2.25146 0.618981 0
M  V30 4612 C 427.604 1.23845 1.16604 0
M  V30 4613 O 428.789 1.52544 1.20183 0
M  V30 4614 C 425.919 2.96572 1.80728 0
M  V30 4615 C 424.873 4.04726 1.39215 0
M  V30 4616 C 424.199 4.63678 2.66283 0
M  V30 4617 C 425.499 5.19407 0.548942 0
M  V30 4618 H 427.193 2.99377 0.0368116 0
M  V30 4619 H 424.739 1.43991 0.0162651 0
M  V30 4620 H 426.692 3.44116 2.43232 0
M  V30 4621 H 425.416 2.19861 2.41514 0
M  V30 4622 H 424.075 3.57979 0.790351 0
M  V30 4623 H 423.723 3.83646 3.25308 0
M  V30 4624 H 423.423 5.367 2.39222 0
M  V30 4625 H 424.947 5.13967 3.29651 0
M  V30 4626 H 426.361 5.63059 1.07876 0
M  V30 4627 H 424.758 5.98936 0.373593 0
M  V30 4628 H 425.828 4.8295 -0.434394 0
M  V30 4629 N 427.171 -0.0066808 1.57599 0
M  V30 4630 C 428.582 -0.550379 1.78403 0
M  V30 4631 C 428.933 -1.74339 0.900014 0
M  V30 4632 O 428.058 -2.16166 0.100713 0
M  V30 4633 C 428.653 -1.00523 3.23544 0
M  V30 4634 C 427.212 -1.49428 3.45468 0
M  V30 4635 C 426.359 -0.442444 2.73748 0
M  V30 4636 H 429.31 0.219508 1.57175 0
M  V30 4637 H 429.331 -1.87157 3.31289 0
M  V30 4638 H 428.843 -0.136735 3.87859 0
M  V30 4639 H 426.944 -2.3839 2.86358 0
M  V30 4640 H 427.057 -1.52635 4.54136 0
M  V30 4641 H 425.421 -0.902578 2.38171 0
M  V30 4642 H 426.204 0.416973 3.40758 0
M  V30 4643 N 428.649 -1.55105 -0.279332 0
M  V30 4644 C 429.896 -1.75412 -1.01177 0
M  V30 4645 C 430.224 -0.551728 -1.86511 0
M  V30 4646 O 429.479 0.465919 -1.90073 0
M  V30 4647 C 429.778 -3.0086 -1.92919 0
M  V30 4648 C 429.444 -4.33689 -1.23387 0
M  V30 4649 C 428.106 -4.69792 -1.04159 0
M  V30 4650 C 430.458 -5.15941 -0.738562 0
M  V30 4651 C 427.786 -5.85707 -0.341166 0
M  V30 4652 C 430.138 -6.32579 -0.0517636 0
M  V30 4653 C 428.802 -6.67326 0.152292 0
M  V30 4654 H 428.072 -0.641879 -0.370233 0
M  V30 4655 H 430.719 -1.89373 -0.284627 0
M  V30 4656 H 429.024 -2.81773 -2.72234 0
M  V30 4657 H 430.721 -3.13768 -2.49701 0
M  V30 4658 H 427.311 -4.05309 -1.39364 0
M  V30 4659 H 431.495 -4.8853 -0.874764 0
M  V30 4660 H 426.751 -6.11157 -0.172287 0
M  V30 4661 H 430.925 -6.9557 0.339828 0
M  V30 4662 H 428.552 -7.56998 0.697014 0
M  V30 4663 N 430.127 0.543554 -1.4793 0
M  V30 4664 C 431.077 1.64527 -1.57844 0
M  V30 4665 C 432.061 1.54869 -0.436408 0
M  V30 4666 O 433.253 1.63119 -0.687101 0
M  V30 4667 C 430.382 3.03281 -1.6086 0
M  V30 4668 C 429.468 3.18093 -2.80495 0
M  V30 4669 N 429.859 3.02923 -4.05057 0
M  V30 4670 C 428.157 3.49121 -2.77543 0
M  V30 4671 C 428.858 3.20791 -4.85251 0
M  V30 4672 N 427.834 3.47749 -4.17818 0
M  V30 4673 H 431.636 1.51388 -2.5191 0
M  V30 4674 H 429.15 0.748671 -1.44113 0
M  V30 4675 H 431.147 3.82403 -1.66054 0
M  V30 4676 H 429.807 3.17521 -0.678996 0
M  V30 4677 H 430.818 2.79966 -4.35705 0
M  V30 4678 H 427.495 3.69804 -1.93781 0
M  V30 4679 H 428.885 3.13915 -5.9406 0
M  V30 4680 N 431.605 1.3629 0.791371 0
M  V30 4681 C 432.83 1.33726 1.58531 0
M  V30 4682 C 433.255 -0.0794933 1.87932 0
M  V30 4683 O 432.613 -1.05087 1.47738 0
M  V30 4684 C 432.661 2.16425 2.88431 0
M  V30 4685 O 431.765 1.5554 3.81944 0
M  V30 4686 H 431.106 0.457793 0.480959 0
M  V30 4687 H 433.636 1.79547 0.981031 0
M  V30 4688 H 433.646 2.28933 3.37718 0
M  V30 4689 H 432.321 3.19415 2.66359 0
M  V30 4690 H 430.898 1.51961 3.40532 0
M  V30 4691 N 433.083 -1.0153 1.20538 0
M  V30 4692 C 434.331 -1.74803 1.01432 0
M  V30 4693 C 434.652 -1.8963 -0.454456 0
M  V30 4694 O 433.922 -1.43975 -1.32846 0
M  V30 4695 H 432.502 -0.647598 0.372324 0
M  V30 4696 H 435.164 -1.22402 1.5167 0
M  V30 4697 H 434.26 -2.75114 1.47373 0
M  V30 4698 N 434.561 -1.01147 -1.20859 0
M  V30 4699 C 435.807 -0.708598 -1.90658 0
M  V30 4700 C 436.162 0.753069 -1.7705 0
M  V30 4701 O 435.455 1.53952 -1.14059 0
M  V30 4702 C 435.649 -1.0727 -3.40922 0
M  V30 4703 C 435.478 -2.56821 -3.69152 0
M  V30 4704 C 434.248 -3.23524 -3.8815 0
M  V30 4705 C 436.446 -3.54997 -3.72131 0
M  V30 4706 N 434.428 -4.62359 -4.03853 0
M  V30 4707 C 435.799 -4.79371 -3.93196 0
M  V30 4708 C 437.854 -3.49042 -3.55069 0
M  V30 4709 C 436.557 -5.98512 -3.98969 0
M  V30 4710 C 438.583 -4.67579 -3.6211 0
M  V30 4711 C 437.945 -5.9076 -3.83643 0
M  V30 4712 H 434.044 -0.31088 -0.71755 0
M  V30 4713 H 436.628 -1.29526 -1.45366 0
M  V30 4714 H 434.799 -0.51443 -3.84978 0
M  V30 4715 H 436.531 -0.723891 -3.98173 0
M  V30 4716 H 433.286 -2.73958 -3.86321 0
M  V30 4717 H 433.71 -5.34427 -4.15592 0
M  V30 4718 H 438.352 -2.54808 -3.37391 0
M  V30 4719 H 436.07 -6.93132 -4.15444 0
M  V30 4720 H 439.656 -4.64581 -3.50222 0
M  V30 4721 H 438.536 -6.8095 -3.88944 0
M  V30 4722 N 436.039 1.36541 -0.78704 0
M  V30 4723 C 437.316 1.9355 -0.282424 0
M  V30 4724 C 437.696 1.71919 1.22503 0
M  V30 4725 O 437.044 1.07677 2.01539 0
M  V30 4726 C 437.254 3.4246 -0.672462 0
M  V30 4727 C 438.602 4.19582 -0.650863 0
M  V30 4728 O 439.626 3.50889 -0.612789 0
M  V30 4729 O 438.485 5.42106 -0.691623 0
M  V30 4730 H 435.579 0.824091 -0.0693 0
M  V30 4731 H 438.125 1.45736 -0.869423 0
M  V30 4732 H 436.897 3.51851 -1.71221 0
M  V30 4733 H 436.52 3.97556 -0.0592211 0
M  V30 4734 N 437.518 0.538854 1.48102 0
M  V30 4735 C 438.929 0.100679 1.86428 0
M  V30 4736 C 439.28 -1.32447 1.44749 0
M  V30 4737 O 438.405 -1.99339 0.842199 0
M  V30 4738 C 439 0.175933 3.38343 0
M  V30 4739 C 437.559 -0.207098 3.7583 0
M  V30 4740 C 436.706 0.531741 2.72154 0
M  V30 4741 H 439.657 0.749614 1.3988 0
M  V30 4742 H 439.678 -0.610144 3.75576 0
M  V30 4743 H 439.19 1.21328 3.68648 0
M  V30 4744 H 437.291 -1.24626 3.5114 0
M  V30 4745 H 437.404 0.138687 4.78899 0
M  V30 4746 H 435.768 -0.0230462 2.5469 0
M  V30 4747 H 436.551 1.56989 3.05302 0
M  V30 4748 N 438.996 -1.55193 0.274407 0
M  V30 4749 C 440.273 -1.91584 -0.394331 0
M  V30 4750 C 440.653 -1.19858 -1.73774 0
M  V30 4751 O 440.001 -0.3252 -2.26174 0
M  V30 4752 C 440.211 -3.4487 -0.535311 0
M  V30 4753 C 441.559 -4.16636 -0.818534 0
M  V30 4754 O 442.583 -3.5076 -0.620146 0
M  V30 4755 O 441.442 -5.33209 -1.19792 0
M  V30 4756 H 438.536 -0.798349 -0.215794 0
M  V30 4757 H 441.082 -1.66646 0.320507 0
M  V30 4758 H 439.854 -3.89145 0.410141 0
M  V30 4759 H 439.477 -3.75759 -1.29964 0
M  V30 4760 N 440.474 -0.00167713 -1.576 0
M  V30 4761 C 441.424 0.997744 -2.0501 0
M  V30 4762 C 442.408 1.30214 -0.94515 0
M  V30 4763 O 443.6 1.29284 -1.20891 0
M  V30 4764 C 440.729 2.2892 -2.55833 0
M  V30 4765 C 439.815 2.01437 -3.73208 0
M  V30 4766 N 440.206 1.44119 -4.84833 0
M  V30 4767 C 438.504 2.31571 -3.8117 0
M  V30 4768 C 439.205 1.33145 -5.66257 0
M  V30 4769 N 438.181 1.81763 -5.12312 0
M  V30 4770 H 441.983 0.549098 -2.88725 0
M  V30 4771 H 439.497 0.20398 -1.61114 0
M  V30 4772 H 441.494 3.01361 -2.88075 0
M  V30 4773 H 440.154 2.74436 -1.73537 0
M  V30 4774 H 441.165 1.11978 -5.0565 0
M  V30 4775 H 437.842 2.7995 -3.09732 0
M  V30 4776 H 439.232 0.890567 -6.65972 0
M  V30 4777 N 441.952 1.55251 0.271103 0
M  V30 4778 C 443.2 1.75599 1.00047 0
M  V30 4779 C 443.521 0.561188 1.8675 0
M  V30 4780 O 442.791 -0.423846 1.9126 0
M  V30 4781 H 441.371 0.647562 0.372387 0
M  V30 4782 H 444.033 1.92656 0.294876 0
M  V30 4783 H 443.129 2.65766 1.6363 0
M  V30 4784 N 443.43 -0.535701 1.48216 0
M  V30 4785 C 444.678 -1.28928 1.55634 0
M  V30 4786 C 444.999 -1.93645 0.229514 0
M  V30 4787 O 444.269 -1.81038 -0.74846 0
M  V30 4788 H 442.849 -0.47884 0.573342 0
M  V30 4789 H 445.511 -0.623853 1.84646 0
M  V30 4790 H 444.607 -2.07157 2.33436 0
M  V30 4791 N 444.908 -1.36708 -0.784132 0
M  V30 4792 C 445.838 -1.34153 -1.91116 0
M  V30 4793 C 446.819 -0.212121 -1.68772 0
M  V30 4794 O 448.004 -0.410581 -1.8981 0
M  V30 4795 C 445.134 -1.13535 -3.28218 0
M  V30 4796 C 444.088 -2.23356 -3.65097 0
M  V30 4797 C 443.414 -1.87875 -5.00607 0
M  V30 4798 C 444.714 -3.65473 -3.73131 0
M  V30 4799 H 446.408 -2.28459 -1.93512 0
M  V30 4800 H 443.954 -1.09973 -0.929618 0
M  V30 4801 H 445.907 -1.10381 -4.06687 0
M  V30 4802 H 444.631 -0.156804 -3.26223 0
M  V30 4803 H 443.29 -2.25645 -2.88929 0
M  V30 4804 H 442.938 -0.885814 -4.95139 0
M  V30 4805 H 442.638 -2.61406 -5.26252 0
M  V30 4806 H 444.162 -1.86286 -5.81489 0
M  V30 4807 H 445.576 -3.65382 -4.41779 0
M  V30 4808 H 443.973 -4.37953 -4.10265 0
M  V30 4809 H 445.043 -3.99995 -2.74102 0
M  V30 4810 N 446.386 1.0089 -1.21074 0
M  V30 4811 C 447.633 1.74607 -1.0256 0
M  V30 4812 C 447.961 1.89426 0.44136 0
M  V30 4813 O 447.216 1.42266 1.34384 0
M  V30 4814 C 447.515 3.16335 -1.66334 0
M  V30 4815 C 447.181 3.21474 -3.16173 0
M  V30 4816 C 445.843 3.22583 -3.57062 0
M  V30 4817 C 448.195 3.19025 -4.12156 0
M  V30 4818 C 445.523 3.18925 -4.92446 0
M  V30 4819 C 447.875 3.16909 -5.47496 0
M  V30 4820 C 446.539 3.16326 -5.87787 0
M  V30 4821 H 445.809 0.638933 -0.375294 0
M  V30 4822 H 448.456 1.18274 -1.50611 0
M  V30 4823 H 446.761 3.75876 -1.10566 0
M  V30 4824 H 448.458 3.72083 -1.49516 0
M  V30 4825 H 445.048 3.2135 -2.83605 0
M  V30 4826 H 449.232 3.17332 -3.81595 0
M  V30 4827 H 444.488 3.16809 -5.22917 0
M  V30 4828 H 448.662 3.13968 -6.21609 0
M  V30 4829 H 446.289 3.13246 -6.92662 0
M  V30 4830 N 447.864 1.01787 1.20321 0
M  V30 4831 C 449.094 0.72614 1.93419 0
M  V30 4832 C 449.502 -0.717317 1.75075 0
M  V30 4833 O 448.845 -1.49836 1.06278 0
M  V30 4834 C 448.907 0.983621 3.45782 0
M  V30 4835 C 448.571 2.41645 3.87888 0
M  V30 4836 C 449.568 3.39732 3.93545 0
M  V30 4837 C 447.253 2.75752 4.19841 0
M  V30 4838 C 449.247 4.69988 4.30569 0
M  V30 4839 C 446.934 4.06221 4.56539 0
M  V30 4840 C 447.932 5.0315 4.61876 0
M  V30 4841 O 447.62 6.31284 4.97731 0
M  V30 4842 H 447.352 0.265824 0.621541 0
M  V30 4843 H 449.906 1.3623 1.53722 0
M  V30 4844 H 448.136 0.290301 3.85609 0
M  V30 4845 H 449.825 0.683279 4.00108 0
M  V30 4846 H 450.591 3.14718 3.69022 0
M  V30 4847 H 446.47 2.00993 4.14877 0
M  V30 4848 H 450.014 5.45642 4.3465 0
M  V30 4849 H 445.911 4.31013 4.80518 0
M  V30 4850 H 446.679 6.35591 5.15719 0
M  V30 4851 N 449.342 -1.36122 0.79427 0
M  V30 4852 C 450.589 -1.99111 0.368905 0
M  V30 4853 C 450.917 -1.63032 -1.0607 0
M  V30 4854 O 450.172 -0.879303 -1.74833 0
M  V30 4855 C 450.471 -3.5409 0.48527 0
M  V30 4856 C 450.137 -4.10003 1.87638 0
M  V30 4857 C 448.799 -4.24986 2.257 0
M  V30 4858 C 451.151 -4.40423 2.78706 0
M  V30 4859 C 448.479 -4.67701 3.54221 0
M  V30 4860 C 450.831 -4.84573 4.0666 0
M  V30 4861 C 449.495 -4.97761 4.44737 0
M  V30 4862 H 448.765 -0.7286 0.134992 0
M  V30 4863 H 451.412 -1.62534 1.01267 0
M  V30 4864 H 449.717 -3.91052 -0.241984 0
M  V30 4865 H 451.414 -4.00766 0.137109 0
M  V30 4866 H 448.004 -3.98784 1.57064 0
M  V30 4867 H 452.188 -4.28412 2.50553 0
M  V30 4868 H 447.444 -4.761 3.83587 0
M  V30 4869 H 451.618 -5.07074 4.77336 0
M  V30 4870 H 449.245 -5.30618 5.44379 0
M  V30 4871 N 450.82 -0.546701 -1.47814 0
M  V30 4872 C 451.752 0.244196 -2.27895 0
M  V30 4873 C 452.765 0.88911 -1.36377 0
M  V30 4874 O 453.954 0.764733 -1.61289 0
M  V30 4875 C 451.054 1.36252 -3.10304 0
M  V30 4876 C 450.227 0.816382 -4.29714 0
M  V30 4877 C 449.286 1.81789 -4.93801 0
M  V30 4878 O 448.312 1.36818 -5.52512 0
M  V30 4879 N 449.514 3.15085 -4.87547 0
M  V30 4880 H 452.279 -0.442694 -2.96412 0
M  V30 4881 H 449.84 -0.382095 -1.57327 0
M  V30 4882 H 451.832 2.03102 -3.50045 0
M  V30 4883 H 450.402 1.95281 -2.44099 0
M  V30 4884 H 449.622 -0.0285981 -3.9419 0
M  V30 4885 H 450.91 0.430668 -5.06974 0
M  V30 4886 H 450.308 3.54275 -4.41028 0
M  V30 4887 H 448.865 3.77522 -5.31339 0
M  V30 4888 N 452.299 1.55045 -0.282633 0
M  V30 4889 C 453.576 1.9179 0.384166 0
M  V30 4890 C 453.956 1.20778 1.73136 0
M  V30 4891 O 453.304 0.33719 2.25998 0
M  V30 4892 C 453.514 3.45149 0.517014 0
M  V30 4893 C 454.862 4.17064 0.796427 0
M  V30 4894 O 455.886 3.51084 0.601535 0
M  V30 4895 O 454.745 5.33837 1.16962 0
M  V30 4896 H 451.839 0.799483 0.211558 0
M  V30 4897 H 454.385 1.66474 -0.32934 0
M  V30 4898 H 453.157 3.88922 -0.430772 0
M  V30 4899 H 452.78 3.76443 1.2797 0
M  V30 4900 N 453.777 0.010035 1.57597 0
M  V30 4901 C 454.74 -0.963029 2.07986 0
M  V30 4902 C 455.74 -1.26619 0.991173 0
M  V30 4903 O 456.93 -1.2097 1.25347 0
M  V30 4904 C 454.062 -2.2851 2.52974 0
M  V30 4905 H 455.255 -0.526971 2.95234 0
M  V30 4906 H 452.808 -0.237639 1.54483 0
M  V30 4907 H 453.543 -2.76784 1.69 0
M  V30 4908 H 453.328 -2.07824 3.32493 0
M  V30 4909 H 454.818 -2.98294 2.9225 0
M  V30 4910 N 455.255 -1.55392 -0.262866 0
M  V30 4911 C 456.532 -1.67204 -1.01499 0
M  V30 4912 C 456.912 -0.545186 -2.03939 0
M  V30 4913 O 456.26 0.453467 -2.23955 0
M  V30 4914 C 456.47 -3.06847 -1.6627 0
M  V30 4915 C 457.818 -3.64928 -2.17054 0
M  V30 4916 O 458.842 -3.09545 -1.76239 0
M  V30 4917 O 457.701 -4.61984 -2.91947 0
M  V30 4918 H 454.795 -0.679467 -0.471438 0
M  V30 4919 H 457.341 -1.67729 -0.257918 0
M  V30 4920 H 456.113 -3.80309 -0.920915 0
M  V30 4921 H 455.736 -3.10266 -2.48638 0
M  V30 4922 N 456.733 0.527833 -1.48498 0
M  V30 4923 C 457.681 1.65313 -1.63628 0
M  V30 4924 C 458.675 1.6177 -0.502676 0
M  V30 4925 O 459.881 1.66601 -0.681469 0
M  V30 4926 H 456.256 0.547518 -0.515488 0
M  V30 4927 H 458.227 1.49696 -2.58135 0
M  V30 4928 C 456.976 3.03576 -1.6952 0
M  V30 4929 H 456.299 3.06997 -2.56111 0
M  V30 4930 H 457.739 3.81923 -1.84149 0
M  V30 4931 C 456.198 3.34089 -0.43432 0
M  V30 4932 O 456.728 3.99151 0.451852 0
M  V30 4933 N 454.934 2.88991 -0.305368 0
M  V30 4934 H 454.481 2.36222 -1.02747 0
M  V30 4935 H 454.439 3.09776 0.537249 0
M  V30 4936 N 458.211 1.37122 0.776871 0
M  V30 4937 C 459.458 1.32047 1.53524 0
M  V30 4938 C 459.786 -0.0965631 1.9426 0
M  V30 4939 O 459.041 -1.06866 1.63945 0
M  V30 4940 C 459.34 2.20068 2.81611 0
M  V30 4941 C 459.006 3.68423 2.59953 0
M  V30 4942 C 457.668 4.08854 2.53755 0
M  V30 4943 C 460.02 4.62431 2.40431 0
M  V30 4944 C 457.348 5.41417 2.26018 0
M  V30 4945 C 459.7 5.95225 2.14219 0
M  V30 4946 C 458.364 6.34767 2.06462 0
M  V30 4947 H 457.634 0.483196 0.561785 0
M  V30 4948 H 460.281 1.69284 0.895268 0
M  V30 4949 H 458.586 1.75809 3.50141 0
M  V30 4950 H 460.283 2.13458 3.39465 0
M  V30 4951 H 456.873 3.36354 2.65638 0
M  V30 4952 H 461.057 4.32057 2.44213 0
M  V30 4953 H 456.313 5.71022 2.18504 0
M  V30 4954 H 460.487 6.67626 1.98112 0
M  V30 4955 H 458.114 7.37413 1.84733 0
M  V30 4956 N 459.689 -1.00246 1.21608 0
M  V30 4957 C 460.929 -1.75589 1.04631 0
M  V30 4958 C 461.293 -1.87513 -0.412648 0
M  V30 4959 O 462.494 -2.59444 -0.703003 0
M  V30 4960 C 460.765 -3.12893 1.72722 0
M  V30 4961 S 462.324 -4.04095 1.71034 0
M  V30 4962 H 459.142 -0.604133 0.374892 0
M  V30 4963 H 461.744 -1.19927 1.54395 0
M  V30 4964 H 460.448 -3.0185 2.78055 0
M  V30 4965 H 459.979 -3.73628 1.23149 0
M  V30 4966 H 461.994 -4.9045 0.753231 0
M  V30 4967 N 461.167 -1.02423 -1.1978 0
M  V30 4968 C 462.578 -0.748389 -1.71044 0
M  V30 4969 C 462.929 0.732398 -1.82017 0
M  V30 4970 O 462.054 1.57116 -1.48807 0
M  V30 4971 C 462.649 -1.35187 -3.1066 0
M  V30 4972 C 461.208 -1.12472 -3.59203 0
M  V30 4973 C 460.355 -1.45283 -2.36195 0
M  V30 4974 H 463.306 -1.19275 -1.04686 0
M  V30 4975 H 463.327 -0.746408 -3.73107 0
M  V30 4976 H 462.839 -2.4296 -3.02642 0
M  V30 4977 H 460.94 -0.0649983 -3.72543 0
M  V30 4978 H 461.053 -1.81016 -4.43588 0
M  V30 4979 H 459.417 -0.872034 -2.39307 0
M  V30 4980 H 460.2 -2.54129 -2.30811 0
M  V30 4981 N 462.645 1.35699 -0.801477 0
M  V30 4982 C 463.873 2.03157 -0.391768 0
M  V30 4983 C 464.288 1.60412 0.995668 0
M  V30 4984 O 463.645 0.799228 1.64069 0
M  V30 4985 C 463.696 3.58566 -0.459671 0
M  V30 4986 O 463.417 3.99756 -1.7924 0
M  V30 4987 C 464.918 4.4328 -0.0421205 0
M  V30 4988 H 462.138 0.651688 -0.159825 0
M  V30 4989 H 464.682 1.73426 -1.08368 0
M  V30 4990 H 462.837 3.86963 0.183939 0
M  V30 4991 H 463.251 4.94387 -1.75162 0
M  V30 4992 H 464.725 5.51821 -0.140754 0
M  V30 4993 H 465.202 4.27383 1.01196 0
M  V30 4994 H 465.808 4.20168 -0.658687 0
M  V30 4995 N 464.123 0.554532 1.47522 0
M  V30 4996 C 465.055 -0.232106 2.28022 0
M  V30 4997 C 466.068 -0.881865 1.36847 0
M  V30 4998 O 467.257 -0.756168 1.61692 0
M  V30 4999 C 464.357 -1.34604 3.11022 0
M  V30 5000 C 463.53 -0.793582 4.30141 0
M  V30 5001 C 462.589 -1.79168 4.94758 0
M  V30 5002 O 461.615 -1.33886 5.5323 0
M  V30 5003 N 462.817 -3.12495 4.89211 0
M  V30 5004 H 465.582 0.458407 2.96173 0
M  V30 5005 H 463.143 0.390433 1.57122 0
M  V30 5006 H 465.135 -2.01243 3.51118 0
M  V30 5007 H 463.705 -1.93983 2.45131 0
M  V30 5008 H 462.925 0.0495025 3.94169 0
M  V30 5009 H 464.213 -0.403776 5.07195 0
M  V30 5010 H 463.611 -3.51931 4.42901 0
M  V30 5011 H 462.168 -3.74698 5.33333 0
M  V30 5012 N 465.601 -1.54893 0.290851 0
M  V30 5013 C 466.531 -2.26103 -0.583084 0
M  V30 5014 C 467.512 -1.25684 -1.14619 0
M  V30 5015 O 468.697 -1.54436 -1.17741 0
M  V30 5016 C 465.827 -2.99409 -1.75987 0
M  V30 5017 C 464.781 -4.0689 -1.32758 0
M  V30 5018 C 464.107 -4.67856 -2.58872 0
M  V30 5019 C 465.407 -5.20215 -0.46624 0
M  V30 5020 H 467.101 -2.99398 0.0108214 0
M  V30 5021 H 464.647 -1.43998 0.00664468 0
M  V30 5022 H 466.6 -3.47943 -2.37727 0
M  V30 5023 H 465.324 -2.23675 -2.37985 0
M  V30 5024 H 463.983 -3.59191 -0.733299 0
M  V30 5025 H 463.631 -3.88772 -3.19163 0
M  V30 5026 H 463.331 -5.40438 -2.30653 0
M  V30 5027 H 464.855 -5.19147 -3.21433 0
M  V30 5028 H 466.269 -5.64704 -0.989047 0
M  V30 5029 H 464.666 -5.99455 -0.27826 0
M  V30 5030 H 465.736 -4.82198 0.511173 0
M  V30 5031 N 467.08 -0.0183926 -1.57589 0
M  V30 5032 C 467.99 0.982943 -2.13015 0
M  V30 5033 C 469.006 1.36443 -1.07979 0
M  V30 5034 O 470.182 1.44802 -1.3998 0
M  V30 5035 C 467.247 2.25024 -2.63752 0
M  V30 5036 C 466.308 1.93018 -3.83461 0
M  V30 5037 C 465.541 3.13706 -4.31769 0
M  V30 5038 O 465.764 4.2601 -3.79305 0
M  V30 5039 O 464.698 2.96629 -5.23732 0
M  V30 5040 H 468.524 0.541709 -2.9883 0
M  V30 5041 H 466.109 0.201565 -1.48034 0
M  V30 5042 H 467.991 2.99441 -2.96502 0
M  V30 5043 H 466.666 2.68349 -1.81026 0
M  V30 5044 H 465.573 1.16019 -3.55655 0
M  V30 5045 H 466.906 1.54516 -4.67317 0
M  V30 5046 N 468.558 1.5553 0.254621 0
M  V30 5047 C 469.804 1.7818 0.980989 0
M  V30 5048 C 470.159 0.586059 1.83257 0
M  V30 5049 O 469.452 -0.420889 1.8692 0
M  V30 5050 C 469.646 3.03891 1.88109 0
M  V30 5051 C 469.475 4.35578 1.11812 0
M  V30 5052 C 468.245 4.98497 0.826343 0
M  V30 5053 C 470.443 5.11869 0.499486 0
M  V30 5054 N 468.425 6.13888 0.0385095 0
M  V30 5055 C 469.796 6.1981 -0.153292 0
M  V30 5056 C 471.851 4.96216 0.409175 0
M  V30 5057 C 470.554 7.13801 -0.8877 0
M  V30 5058 C 472.58 5.90578 -0.311683 0
M  V30 5059 C 471.942 6.97922 -0.953129 0
M  V30 5060 H 468.041 0.704057 0.340335 0
M  V30 5061 H 470.625 1.93025 0.254855 0
M  V30 5062 H 468.796 2.90389 2.57932 0
M  V30 5063 H 470.528 3.14869 2.54244 0
M  V30 5064 H 467.283 4.59769 1.13621 0
M  V30 5065 H 467.707 6.76129 -0.343275 0
M  V30 5066 H 472.349 4.1331 0.890765 0
M  V30 5067 H 470.067 7.96214 -1.38092 0
M  V30 5068 H 473.653 5.80544 -0.382125 0
M  V30 5069 H 472.533 7.69681 -1.50203 0
M  V30 5070 N 470.036 -0.519951 1.48776 0
M  V30 5071 C 470.999 -1.60574 1.6355 0
M  V30 5072 C 471.999 -1.52557 0.508234 0
M  V30 5073 O 473.189 -1.56047 0.774262 0
M  V30 5074 C 470.321 -3.00211 1.61512 0
M  V30 5075 H 471.514 -1.4881 2.60376 0
M  V30 5076 H 469.067 -0.742772 1.37523 0
M  V30 5077 H 469.802 -3.17471 0.662009 0
M  V30 5078 H 469.587 -3.07439 2.43359 0
M  V30 5079 H 471.077 -3.79134 1.75064 0
M  V30 5080 N 471.514 -1.37532 -0.769588 0
M  V30 5081 C 472.447 -1.27839 -1.8903 0
M  V30 5082 C 473.425 -0.158504 -1.61826 0
M  V30 5083 O 474.609 -0.333086 -1.85534 0
M  V30 5084 C 471.736 -0.977072 -3.24301 0
M  V30 5085 C 470.782 -2.11414 -3.70414 0
M  V30 5086 S 471.615 -3.73409 -3.83831 0
M  V30 5087 C 472.771 -3.45432 -5.21946 0
M  V30 5088 H 473.004 -2.22694 -1.96963 0
M  V30 5089 H 470.537 -1.2318 -0.930914 0
M  V30 5090 H 472.495 -0.810049 -4.02428 0
M  V30 5091 H 471.156 -0.0459701 -3.14066 0
M  V30 5092 H 470.349 -1.85837 -4.68488 0
M  V30 5093 H 469.951 -2.24141 -2.99394 0
M  V30 5094 H 472.243 -3.00554 -6.07185 0
M  V30 5095 H 473.186 -4.42841 -5.52537 0
M  V30 5096 H 473.594 -2.80311 -4.89986 0
M  V30 5097 N 472.992 0.995999 -1.22138 0
M  V30 5098 C 473.939 2.08551 -0.988687 0
M  V30 5099 C 474.909 1.65864 0.0885021 0
M  V30 5100 O 476.094 1.90704 -0.0604589 0
M  V30 5101 C 473.234 3.40374 -0.569191 0
M  V30 5102 C 472.347 3.96421 -1.71681 0
M  V30 5103 C 471.482 5.1639 -1.2456 0
M  V30 5104 C 470.521 5.64567 -2.36497 0
M  V30 5105 N 469.658 6.75777 -1.90445 0
M  V30 5106 H 474.498 2.2779 -1.92135 0
M  V30 5107 H 472.035 1.1168 -0.957388 0
M  V30 5108 H 473.993 4.16068 -0.307166 0
M  V30 5109 H 472.623 3.21145 0.326462 0
M  V30 5110 H 471.675 3.17628 -2.09324 0
M  V30 5111 H 472.987 4.2816 -2.55891 0
M  V30 5112 H 472.141 5.99362 -0.940774 0
M  V30 5113 H 470.88 4.86266 -0.373662 0
M  V30 5114 H 469.885 4.80185 -2.67772 0
M  V30 5115 H 471.11 5.96716 -3.24202 0
M  V30 5116 H 469.056 6.47443 -1.05609 0
M  V30 5117 H 468.973 7.06818 -2.68223 0
M  V30 5118 H 470.241 7.62262 -1.63022 0
M  V30 5119 N 474.47 1.03057 1.19235 0
M  V30 5120 C 475.4 0.633497 2.24742 0
M  V30 5121 C 476.381 -0.358335 1.66283 0
M  V30 5122 O 477.566 -0.240676 1.92703 0
M  V30 5123 C 474.696 -0.0147648 3.47297 0
M  V30 5124 C 473.65 0.899527 4.18441 0
M  V30 5125 C 472.976 0.116281 5.34574 0
M  V30 5126 C 474.276 2.21404 4.73051 0
M  V30 5127 H 475.97 1.5155 2.58211 0
M  V30 5128 H 473.516 0.73014 1.24117 0
M  V30 5129 H 475.469 -0.304202 4.20301 0
M  V30 5130 H 474.193 -0.931577 3.13032 0
M  V30 5131 H 472.852 1.17319 3.47321 0
M  V30 5132 H 472.5 -0.802619 4.96555 0
M  V30 5133 H 472.2 0.725293 5.83107 0
M  V30 5134 H 473.724 -0.166376 6.10373 0
M  V30 5135 H 475.138 1.98601 5.37802 0
M  V30 5136 H 473.535 2.77512 5.32078 0
M  V30 5137 H 474.605 2.86752 3.91026 0
M  V30 5138 N 475.948 -1.35272 0.808662 0
M  V30 5139 C 477.194 -1.99434 0.399717 0
M  V30 5140 C 477.549 -1.62992 -1.02232 0
M  V30 5141 O 476.842 -0.884091 -1.69983 0
M  V30 5142 C 477.036 -3.53556 0.522798 0
M  V30 5143 C 476.865 -4.04969 1.95525 0
M  V30 5144 C 475.635 -4.34228 2.58407 0
M  V30 5145 C 477.833 -4.23362 2.92009 0
M  V30 5146 N 475.815 -4.71585 3.93041 0
M  V30 5147 C 477.186 -4.63739 4.11517 0
M  V30 5148 C 479.241 -4.05576 2.88813 0
M  V30 5149 C 477.944 -4.88189 5.28265 0
M  V30 5150 C 479.97 -4.31184 4.04765 0
M  V30 5151 C 479.332 -4.71834 5.23022 0
M  V30 5152 H 475.431 -0.757534 0.19408 0
M  V30 5153 H 478.015 -1.63939 1.05034 0
M  V30 5154 H 476.186 -3.88277 -0.0978471 0
M  V30 5155 H 477.918 -4.04604 0.0882378 0
M  V30 5156 H 474.673 -4.24621 2.09747 0
M  V30 5157 H 475.097 -4.9452 4.62363 0
M  V30 5158 H 479.739 -3.73288 1.98535 0
M  V30 5159 H 477.457 -5.1935 6.19113 0
M  V30 5160 H 481.043 -4.18972 4.03675 0
M  V30 5161 H 479.923 -4.91263 6.11253 0
M  V30 5162 N 477.426 -0.562348 -1.47226 0
M  V30 5163 C 478.672 -0.0485293 -2.03342 0
M  V30 5164 C 479.027 1.28898 -1.42839 0
M  V30 5165 O 478.32 1.82719 -0.576563 0
M  V30 5166 C 478.514 0.0969817 -3.57268 0
M  V30 5167 C 478.343 -1.22487 -4.32697 0
M  V30 5168 C 477.113 -1.79357 -4.72397 0
M  V30 5169 C 479.311 -2.14332 -4.67511 0
M  V30 5170 N 477.293 -3.05493 -5.32491 0
M  V30 5171 C 478.664 -3.25049 -5.27961 0
M  V30 5172 C 480.719 -2.14263 -4.4944 0
M  V30 5173 C 479.422 -4.35804 -5.72248 0
M  V30 5174 C 481.448 -3.24033 -4.94729 0
M  V30 5175 C 480.81 -4.3347 -5.55233 0
M  V30 5176 H 476.909 -0.0600464 -0.779691 0
M  V30 5177 H 479.493 -0.750769 -1.79643 0
M  V30 5178 H 477.664 0.768353 -3.80724 0
M  V30 5179 H 479.396 0.613333 -4.00025 0
M  V30 5180 H 476.151 -1.33093 -4.54514 0
M  V30 5181 H 476.575 -3.698 -5.67077 0
M  V30 5182 H 481.217 -1.30935 -4.02015 0
M  V30 5183 H 478.935 -5.19888 -6.18661 0
M  V30 5184 H 482.521 -3.25073 -4.82513 0
M  V30 5185 H 481.401 -5.17008 -5.89638 0
M  V30 5186 N 478.904 1.54736 -0.299062 0
M  V30 5187 C 480.315 1.8569 0.193971 0
M  V30 5188 C 480.666 1.22101 1.53577 0
M  V30 5189 O 479.791 0.51799 2.10109 0
M  V30 5190 C 480.386 3.36895 0.358733 0
M  V30 5191 C 478.945 3.67887 0.795986 0
M  V30 5192 C 478.092 2.77131 -0.096807 0
M  V30 5193 H 481.043 1.49934 -0.520134 0
M  V30 5194 H 481.064 3.61294 1.19361 0
M  V30 5195 H 480.576 3.83148 -0.617998 0
M  V30 5196 H 478.677 3.27151 1.78334 0
M  V30 5197 H 478.79 4.75114 0.616718 0
M  V30 5198 H 477.154 2.51153 0.423581 0
M  V30 5199 H 477.937 3.26204 -1.06986 0
M  V30 5200 N 480.382 0.0267497 1.57577 0
M  V30 5201 C 481.332 -0.965003 2.06571 0
M  V30 5202 C 482.316 -1.28694 0.965746 0
M  V30 5203 O 483.508 -1.27345 1.22932 0
M  V30 5204 C 480.637 -2.24821 2.59443 0
M  V30 5205 C 479.723 -1.95474 3.76365 0
M  V30 5206 N 480.114 -1.36387 4.87065 0
M  V30 5207 C 478.412 -2.25478 3.84806 0
M  V30 5208 C 479.113 -1.24119 5.68304 0
M  V30 5209 N 478.089 -1.7359 5.15138 0
M  V30 5210 H 481.891 -0.503095 2.89562 0
M  V30 5211 H 479.405 -0.178322 1.61418 0
M  V30 5212 H 481.402 -2.9674 2.92833 0
M  V30 5213 H 480.062 -2.7164 1.77881 0
M  V30 5214 H 481.073 -1.03919 5.07367 0
M  V30 5215 H 477.75 -2.74987 3.14147 0
M  V30 5216 H 479.14 -0.784504 6.67304 0
M  V30 5217 N 481.861 -1.55662 -0.24637 0
M  V30 5218 C 483.086 -1.81914 -0.996093 0
M  V30 5219 C 483.511 -0.603875 -1.78143 0
M  V30 5220 O 482.869 0.447091 -1.75701 0
M  V30 5221 C 482.917 -3.05908 -1.90925 0
M  V30 5222 O 482.021 -2.82861 -3.00105 0
M  V30 5223 H 481.362 -0.600481 -0.283406 0
M  V30 5224 H 483.892 -2.02848 -0.267199 0
M  V30 5225 H 483.902 -3.35356 -2.3238 0
M  V30 5226 H 482.577 -3.93999 -1.33183 0
M  V30 5227 H 481.154 -2.64583 -2.62775 0
M  V30 5228 N 483.339 0.512053 -1.4905 0
M  V30 5229 C 484.249 1.64139 -1.67617 0
M  V30 5230 C 485.265 1.64786 -0.558701 0
M  V30 5231 O 486.441 1.8341 -0.832034 0
M  V30 5232 C 483.506 3.00548 -1.72835 0
M  V30 5233 C 482.567 3.10615 -2.96339 0
M  V30 5234 C 481.8 4.40517 -3.01298 0
M  V30 5235 O 482.023 5.28671 -2.14157 0
M  V30 5236 O 480.957 4.55325 -3.93653 0
M  V30 5237 H 484.783 1.51407 -2.63267 0
M  V30 5238 H 482.368 0.687131 -1.32661 0
M  V30 5239 H 484.25 3.81641 -1.78683 0
M  V30 5240 H 482.925 3.13566 -0.803616 0
M  V30 5241 H 481.832 2.2875 -2.96014 0
M  V30 5242 H 483.165 3.0252 -3.88256 0
M  V30 5243 N 484.817 1.37938 0.762283 0
M  V30 5244 C 485.78 1.34279 1.85747 0
M  V30 5245 C 486.78 0.244969 1.58923 0
M  V30 5246 O 487.97 0.501365 1.66829 0
M  V30 5247 C 485.102 1.08833 3.23061 0
M  V30 5248 H 486.295 2.31705 1.90401 0
M  V30 5249 H 483.848 1.23105 0.963057 0
M  V30 5250 H 484.583 0.119767 3.24079 0
M  V30 5251 H 484.368 1.88306 3.43923 0
M  V30 5252 H 485.858 1.08946 4.03138 0
M  V30 5253 N 486.295 -0.989507 1.22664 0
M  V30 5254 C 487.228 -2.07805 0.942985 0
M  V30 5255 C 488.206 -1.6219 -0.115356 0
M  V30 5256 O 489.39 -1.88492 0.0169565 0
M  V30 5257 C 486.517 -3.361 0.418898 0
M  V30 5258 C 485.563 -4.00643 1.46244 0
M  V30 5259 S 486.396 -4.41059 3.03689 0
M  V30 5260 C 487.552 -5.7252 2.52927 0
M  V30 5261 H 487.785 -2.31547 1.86476 0
M  V30 5262 H 485.318 -1.12446 1.05808 0
M  V30 5263 H 487.276 -4.10315 0.123114 0
M  V30 5264 H 485.937 -3.10383 -0.481818 0
M  V30 5265 H 485.13 -4.93033 1.04569 0
M  V30 5266 H 484.732 -3.32767 1.7071 0
M  V30 5267 H 487.024 -6.49017 1.94379 0
M  V30 5268 H 487.967 -6.19026 3.4382 0
M  V30 5269 H 488.375 -5.30083 1.94094 0
M  V30 5270 N 487.773 -1.03688 -1.18687 0
M  V30 5271 C 489.022 -0.733235 -1.879 0
M  V30 5272 C 489.335 0.741745 -1.8099 0
M  V30 5273 O 490.541 1.15875 -2.4553 0
M  V30 5274 C 488.997 -1.26127 -3.37076 0
M  V30 5275 C 488.605 -2.76461 -3.52524 0
M  V30 5276 C 490.349 -1.03398 -4.11715 0
M  V30 5277 C 488.256 -3.22642 -4.95637 0
M  V30 5278 H 487.186 -0.270584 -0.703776 0
M  V30 5279 H 489.837 -1.25222 -1.34133 0
M  V30 5280 H 488.219 -0.670165 -3.90288 0
M  V30 5281 H 489.393 -3.41296 -3.09602 0
M  V30 5282 H 487.708 -2.97559 -2.91286 0
M  V30 5283 H 490.305 -1.3542 -5.17267 0
M  V30 5284 H 490.648 0.0289246 -4.1629 0
M  V30 5285 H 491.181 -1.5895 -3.64664 0
M  V30 5286 H 487.92 -4.28296 -4.96228 0
M  V30 5287 H 487.44 -2.62539 -5.39289 0
M  V30 5288 H 489.119 -3.16444 -5.64333 0
M  V30 5289 N 489.251 1.34841 -0.815825 0
M  V30 5290 C 490.214 2.27959 -0.238185 0
M  V30 5291 C 491.214 1.49983 0.579816 0
M  V30 5292 O 492.404 1.69617 0.396953 0
M  V30 5293 C 489.536 3.34314 0.666876 0
M  V30 5294 H 490.729 2.80558 -1.05958 0
M  V30 5295 H 488.282 1.44852 -0.587156 0
M  V30 5296 H 489.017 2.86916 1.5116 0
M  V30 5297 H 488.802 3.92014 0.0819106 0
M  V30 5298 H 490.292 4.0379 1.06506 0
M  V30 5299 N 490.729 0.570148 1.46925 0
M  V30 5300 C 491.976 0.0509529 2.02436 0
M  V30 5301 C 492.304 -1.30405 1.44308 0
M  V30 5302 O 491.559 -1.86493 0.593198 0
M  V30 5303 C 491.858 -0.0780336 3.57315 0
M  V30 5304 C 491.524 1.20775 4.34424 0
M  V30 5305 C 490.186 1.56004 4.5521 0
M  V30 5306 C 492.538 2.0592 4.78797 0
M  V30 5307 C 489.866 2.76201 5.17619 0
M  V30 5308 C 492.218 3.25332 5.42533 0
M  V30 5309 C 490.882 3.60859 5.61549 0
M  V30 5310 H 490.152 0.018645 0.740765 0
M  V30 5311 H 492.799 0.744262 1.76445 0
M  V30 5312 H 491.104 -0.854394 3.82371 0
M  V30 5313 H 492.801 -0.495312 3.97929 0
M  V30 5314 H 489.391 0.923469 4.18533 0
M  V30 5315 H 493.575 1.80008 4.62505 0
M  V30 5316 H 488.831 3.0388 5.30535 0
M  V30 5317 H 493.005 3.91586 5.75876 0
M  V30 5318 H 490.632 4.54088 6.09678 0
M  V30 5319 N 492.207 -1.54576 0.307264 0
M  V30 5320 C 493.137 -2.26708 -0.55907 0
M  V30 5321 C 494.118 -1.26893 -1.1328 0
M  V30 5322 O 495.303 -1.55677 -1.16097 0
M  V30 5323 C 492.433 -3.01259 -1.72801 0
M  V30 5324 C 491.387 -4.08275 -1.28435 0
M  V30 5325 C 490.713 -4.70575 -2.53895 0
M  V30 5326 C 492.013 -5.2068 -0.411038 0
M  V30 5327 H 493.707 -2.9937 0.042576 0
M  V30 5328 H 491.253 -1.43983 0.0219173 0
M  V30 5329 H 493.206 -3.50444 -2.34023 0
M  V30 5330 H 491.93 -2.26187 -2.356 0
M  V30 5331 H 490.589 -3.59949 -0.695161 0
M  V30 5332 H 490.237 -3.92136 -3.15021 0
M  V30 5333 H 489.937 -5.42854 -2.24908 0
M  V30 5334 H 491.461 -5.22527 -3.15908 0
M  V30 5335 H 492.875 -5.65721 -0.929097 0
M  V30 5336 H 491.272 -5.99716 -0.214664 0
M  V30 5337 H 492.342 -4.81629 0.562287 0
M  V30 5338 N 493.685 -0.035106 -1.57561 0
M  V30 5339 C 494.618 0.979673 -2.06101 0
M  V30 5340 C 495.596 1.31378 -0.958046 0
M  V30 5341 O 496.78 1.42942 -1.22881 0
M  V30 5342 C 493.907 2.29809 -2.48808 0
M  V30 5343 C 492.953 2.11817 -3.70184 0
M  V30 5344 S 493.786 1.41143 -5.16565 0
M  V30 5345 C 494.942 2.74341 -5.62572 0
M  V30 5346 H 495.175 0.566506 -2.91853 0
M  V30 5347 H 492.708 0.176744 -1.53385 0
M  V30 5348 H 494.666 3.056 -2.74078 0
M  V30 5349 H 493.327 2.68257 -1.63392 0
M  V30 5350 H 492.52 3.09299 -3.97933 0
M  V30 5351 H 492.122 1.44168 -3.45097 0
M  V30 5352 H 494.414 3.70562 -5.67177 0
M  V30 5353 H 495.357 2.51249 -6.62027 0
M  V30 5354 H 495.765 2.79863 -4.90242 0
M  V30 5355 N 495.163 1.55791 0.238111 0
M  V30 5356 C 496.411 1.77681 0.963001 0
M  V30 5357 C 496.732 0.600674 1.85518 0
M  V30 5358 O 496.002 -0.383182 1.92116 0
M  V30 5359 H 494.582 0.655315 0.358568 0
M  V30 5360 H 497.244 1.93239 0.253945 0
M  V30 5361 H 496.34 2.69177 1.57956 0
M  V30 5362 N 496.642 -0.504142 1.49319 0
M  V30 5363 C 497.872 -1.28071 1.62116 0
M  V30 5364 C 498.28 -1.86955 0.290566 0
M  V30 5365 O 497.623 -1.68415 -0.733616 0
M  V30 5366 C 497.685 -2.4521 2.62893 0
M  V30 5367 C 497.349 -2.07218 4.0732 0
M  V30 5368 C 498.346 -1.61375 4.94221 0
M  V30 5369 C 496.031 -2.16949 4.53033 0
M  V30 5370 C 498.025 -1.25763 6.2487 0
M  V30 5371 C 495.712 -1.80949 5.83696 0
M  V30 5372 C 496.71 -1.3543 6.69438 0
M  V30 5373 O 496.398 -0.99915 7.97667 0
M  V30 5374 H 496.13 -0.394763 0.54876 0
M  V30 5375 H 498.684 -0.612118 1.96067 0
M  V30 5376 H 496.914 -3.15134 2.24115 0
M  V30 5377 H 498.603 -3.0724 2.65252 0
M  V30 5378 H 499.369 -1.53306 4.60133 0
M  V30 5379 H 495.248 -2.5133 3.86463 0
M  V30 5380 H 498.792 -0.901631 6.91749 0
M  V30 5381 H 494.689 -1.88667 6.17313 0
M  V30 5382 H 495.457 -1.13089 8.1065 0
M  V30 5383 N 498.12 -1.38341 -0.754957 0
M  V30 5384 C 499.345 -1.37882 -1.5493 0
M  V30 5385 C 499.77 0.0296385 -1.88077 0
M  V30 5386 O 499.128 1.01133 -1.50472 0
M  V30 5387 C 499.176 -2.23996 -2.82592 0
M  V30 5388 O 498.28 -1.65612 -3.77686 0
M  V30 5389 H 497.621 -0.470384 -0.468652 0
M  V30 5390 H 500.151 -1.82084 -0.933082 0
M  V30 5391 H 500.161 -2.37806 -3.3153 0
M  V30 5392 H 498.836 -3.26365 -2.57796 0
M  V30 5393 H 497.413 -1.60936 -3.36384 0
M  V30 5394 N 499.598 0.982988 -1.23187 0
M  V30 5395 C 500.875 1.69814 -0.970707 0
M  V30 5396 C 501.255 2.04811 0.511424 0
M  V30 5397 O 500.603 1.73924 1.48198 0
M  V30 5398 C 500.813 2.94143 -1.87831 0
M  V30 5399 C 502.161 3.66712 -2.14026 0
M  V30 5400 O 503.185 3.04171 -1.8536 0
M  V30 5401 O 502.044 4.79258 -2.62629 0
M  V30 5402 H 499.138 0.741659 -0.365884 0
M  V30 5403 H 501.684 1.03844 -1.34218 0
M  V30 5404 H 500.456 2.64858 -2.88038 0
M  V30 5405 H 500.079 3.6785 -1.50905 0
M  V30 5406 N 501.076 1.04316 1.18135 0
M  V30 5407 C 502.301 0.768047 1.92655 0
M  V30 5408 C 502.726 -0.66904 1.758 0
M  V30 5409 O 502.084 -1.46372 1.06981 0
M  V30 5410 C 502.132 1.14239 3.42026 0
M  V30 5411 O 501.236 0.269333 4.1152 0
M  V30 5412 H 500.577 0.282436 0.600937 0
M  V30 5413 H 503.107 1.39367 1.49793 0
M  V30 5414 H 503.117 1.10538 3.92741 0
M  V30 5415 H 501.792 2.18928 3.53615 0
M  V30 5416 H 500.369 0.366175 3.71098 0
M  V30 5417 N 502.554 -1.34406 0.822964 0
M  V30 5418 C 503.802 -1.97892 0.410245 0
M  V30 5419 C 504.123 -1.65567 -1.03017 0
M  V30 5420 O 503.393 -0.94642 -1.71522 0
M  V30 5421 H 501.973 -0.732049 0.148707 0
M  V30 5422 H 504.635 -1.64043 1.05242 0
M  V30 5423 H 503.731 -3.07579 0.529284 0
M  V30 5424 N 504.032 -0.577932 -1.46621 0
M  V30 5425 C 505.309 0.00495287 -1.95599 0
M  V30 5426 C 505.689 1.46428 -1.5206 0
M  V30 5427 O 505.037 2.1517 -0.769046 0
M  V30 5428 C 505.247 -0.162114 -3.48623 0
M  V30 5429 C 506.595 -0.0274623 -4.24591 0
M  V30 5430 O 507.619 -0.0907067 -3.56084 0
M  V30 5431 O 506.478 0.1122 -5.46385 0
M  V30 5432 H 503.572 0.0525057 -0.825332 0
M  V30 5433 H 506.118 -0.645914 -1.56927 0
M  V30 5434 H 504.89 -1.17679 -3.73185 0
M  V30 5435 H 504.513 0.525407 -3.94113 0
M  V30 5436 N 505.51 1.54411 -0.315457 0
M  V30 5437 C 506.921 1.85885 0.174265 0
M  V30 5438 C 507.272 1.23723 1.52273 0
M  V30 5439 O 506.397 0.540246 2.09548 0
M  V30 5440 C 506.992 3.37257 0.322981 0
M  V30 5441 C 505.551 3.68711 0.756922 0
M  V30 5442 C 504.698 2.77013 -0.126195 0
M  V30 5443 H 507.649 1.49374 -0.536007 0
M  V30 5444 H 507.67 3.62539 1.15522 0
M  V30 5445 H 507.182 3.82471 -0.658602 0
M  V30 5446 H 505.283 3.29024 1.74854 0
M  V30 5447 H 505.396 4.75741 0.566291 0
M  V30 5448 H 503.76 2.51588 0.39692 0
M  V30 5449 H 504.543 3.25051 -1.1044 0
M  V30 5450 N 506.988 0.0434614 1.5754 0
M  V30 5451 C 508.234 -0.632971 1.92669 0
M  V30 5452 C 508.567 -1.70947 0.921446 0
M  V30 5453 O 507.842 -1.94426 -0.0537202 0
M  V30 5454 C 508.125 -1.23619 3.38216 0
M  V30 5455 C 507.978 -0.168274 4.49485 0
M  V30 5456 C 509.297 -2.15008 3.84005 0
M  V30 5457 H 506.416 -0.228629 0.700641 0
M  V30 5458 H 509.058 0.103651 1.89717 0
M  V30 5459 H 507.208 -1.864 3.40863 0
M  V30 5460 H 508.88 0.463196 4.58969 0
M  V30 5461 H 507.123 0.504581 4.30855 0
M  V30 5462 H 507.794 -0.630218 5.48391 0
M  V30 5463 H 510.27 -1.62198 3.83185 0
M  V30 5464 H 509.146 -2.54161 4.86511 0
M  V30 5465 H 509.407 -3.04707 3.20322 0
M  V30 5466 N 508.466 -1.55915 -0.229846 0
M  V30 5467 C 509.396 -1.94754 -1.28815 0
M  V30 5468 C 510.377 -0.814657 -1.49323 0
M  V30 5469 O 511.562 -1.07631 -1.61645 0
M  V30 5470 C 508.692 -2.25705 -2.63959 0
M  V30 5471 C 507.646 -3.41406 -2.5812 0
M  V30 5472 C 506.972 -3.57941 -3.97218 0
M  V30 5473 C 508.272 -4.76616 -2.13623 0
M  V30 5474 H 509.966 -2.83404 -0.965547 0
M  V30 5475 H 507.512 -1.36353 -0.463028 0
M  V30 5476 H 509.465 -2.51467 -3.38146 0
M  V30 5477 H 508.189 -1.339 -2.9789 0
M  V30 5478 H 506.848 -3.1568 -1.86391 0
M  V30 5479 H 506.496 -2.63526 -4.28443 0
M  V30 5480 H 506.196 -4.35757 -3.94195 0
M  V30 5481 H 507.72 -3.86042 -4.73079 0
M  V30 5482 H 509.134 -5.01637 -2.77549 0
M  V30 5483 H 507.531 -5.57655 -2.21677 0
M  V30 5484 H 508.601 -4.7253 -1.08829 0
M  V30 5485 N 509.944 0.496216 -1.49584 0
M  V30 5486 C 510.874 1.60576 -1.69521 0
M  V30 5487 C 511.855 1.61169 -0.543933 0
M  V30 5488 O 513.04 1.77834 -0.78031 0
M  V30 5489 C 510.17 2.99038 -1.76616 0
M  V30 5490 C 509.124 3.13312 -2.91581 0
M  V30 5491 C 508.45 4.53172 -2.83794 0
M  V30 5492 C 509.75 2.92886 -4.32452 0
M  V30 5493 H 511.444 1.44146 -2.62416 0
M  V30 5494 H 508.99 0.692024 -1.26282 0
M  V30 5495 H 510.943 3.76564 -1.8915 0
M  V30 5496 H 509.667 3.16568 -0.80324 0
M  V30 5497 H 508.326 2.38213 -2.78658 0
M  V30 5498 H 507.974 4.67585 -1.854 0
M  V30 5499 H 507.674 4.63662 -3.60958 0
M  V30 5500 H 509.198 5.32752 -2.98342 0
M  V30 5501 H 510.612 3.60178 -4.46032 0
M  V30 5502 H 509.009 3.14844 -5.10875 0
M  V30 5503 H 510.079 1.88966 -4.46565 0
M  V30 5504 N 511.423 1.38739 0.74761 0
M  V30 5505 C 512.839 1.20067 1.05148 0
M  V30 5506 C 513.039 0.0534835 2.01429 0
M  V30 5507 O 512.095 -0.59886 2.45296 0
M  V30 5508 C 513.408 2.52957 1.62584 0
M  V30 5509 C 514.956 2.59692 1.74726 0
M  V30 5510 C 515.431 3.92772 2.35573 0
M  V30 5511 N 516.922 3.94343 2.42997 0
M  V30 5512 C 517.657 4.9408 2.90985 0
M  V30 5513 N 517.153 6.04214 3.38965 0
M  V30 5514 N 518.946 4.81466 2.9008 0
M  V30 5515 H 511.097 2.12121 0.108808 0
M  V30 5516 H 513.36 0.941491 0.110899 0
M  V30 5517 H 513.066 3.37389 0.993051 0
M  V30 5518 H 512.94 2.71779 2.61565 0
M  V30 5519 H 515.327 1.75651 2.3713 0
M  V30 5520 H 515.408 2.44731 0.744326 0
M  V30 5521 H 515.052 4.77238 1.738 0
M  V30 5522 H 514.982 4.05046 3.36519 0
M  V30 5523 H 517.473 3.14799 2.0907 0
M  V30 5524 H 517.786 6.76241 3.74056 0
M  V30 5525 H 516.131 6.07825 3.37007 0
M  V30 5526 H 519.322 3.94535 2.51912 0
M  V30 5527 H 519.495 5.59344 3.27166 0
M  V30 5528 N 512.901 -0.976442 1.23707 0
M  V30 5529 C 513.831 -2.08749 1.04624 0
M  V30 5530 C 514.812 -1.70057 -0.0380956 0
M  V30 5531 O 515.997 -1.93782 0.127308 0
M  V30 5532 C 513.127 -3.41335 0.640902 0
M  V30 5533 C 512.081 -3.93947 1.67302 0
M  V30 5534 C 511.407 -5.22774 1.12301 0
M  V30 5535 C 512.707 -4.22769 3.06697 0
M  V30 5536 H 514.401 -2.24972 1.97555 0
M  V30 5537 H 511.947 -1.08108 0.951247 0
M  V30 5538 H 513.9 -4.18489 0.494434 0
M  V30 5539 H 512.624 -3.24988 -0.324099 0
M  V30 5540 H 511.283 -3.18941 1.80755 0
M  V30 5541 H 510.931 -5.0278 0.148877 0
M  V30 5542 H 510.631 -5.58942 1.81267 0
M  V30 5543 H 512.155 -6.02546 0.988479 0
M  V30 5544 H 513.569 -4.90659 2.96524 0
M  V30 5545 H 511.966 -4.70147 3.72937 0
M  V30 5546 H 513.036 -3.29885 3.55392 0
M  V30 5547 N 514.379 -1.04941 -1.1758 0
M  V30 5548 C 515.626 -0.757989 -1.87779 0
M  V30 5549 C 515.954 0.714827 -1.80888 0
M  V30 5550 O 515.209 1.53824 -1.20982 0
M  V30 5551 C 515.508 -1.18062 -3.37337 0
M  V30 5552 C 515.174 -2.65521 -3.6443 0
M  V30 5553 C 513.836 -3.05804 -3.71534 0
M  V30 5554 C 516.188 -3.60822 -3.76108 0
M  V30 5555 C 513.516 -4.40256 -3.87803 0
M  V30 5556 C 515.868 -4.95005 -3.93895 0
M  V30 5557 C 514.532 -5.34945 -3.99237 0
M  V30 5558 H 513.802 -0.277368 -0.68713 0
M  V30 5559 H 516.449 -1.31603 -1.39115 0
M  V30 5560 H 514.754 -0.541525 -3.8804 0
M  V30 5561 H 516.451 -0.932368 -3.9001 0
M  V30 5562 H 513.041 -2.33324 -3.59524 0
M  V30 5563 H 517.225 -3.30841 -3.69943 0
M  V30 5564 H 512.481 -4.70707 -3.90186 0
M  V30 5565 H 516.655 -5.68746 -4.01872 0
M  V30 5566 H 514.282 -6.39135 -4.11596 0
M  V30 5567 N 515.857 1.33968 -0.830081 0
M  V30 5568 C 517.087 2.01987 -0.434142 0
M  V30 5569 C 517.495 1.62639 0.96671 0
M  V30 5570 O 516.838 0.831151 1.63822 0
M  V30 5571 C 516.9 3.5648 -0.465018 0
M  V30 5572 C 516.564 4.19176 -1.82045 0
M  V30 5573 C 517.561 4.39181 -2.78237 0
M  V30 5574 C 515.246 4.55792 -2.11089 0
M  V30 5575 C 517.24 4.94937 -4.01642 0
M  V30 5576 C 514.927 5.11258 -3.34752 0
M  V30 5577 C 515.925 5.30775 -4.29845 0
M  V30 5578 O 515.613 5.85064 -5.51322 0
M  V30 5579 H 515.345 0.653847 -0.171639 0
M  V30 5580 H 517.899 1.72066 -1.12171 0
M  V30 5581 H 516.129 3.8569 0.279284 0
M  V30 5582 H 517.818 4.05804 -0.0881334 0
M  V30 5583 H 518.584 4.11249 -2.57097 0
M  V30 5584 H 514.463 4.39901 -1.3787 0
M  V30 5585 H 518.007 5.10086 -4.75876 0
M  V30 5586 H 513.904 5.38619 -3.55753 0
M  V30 5587 H 514.672 6.03489 -5.5294 0
M  V30 5588 N 517.335 0.585699 1.46312 0
M  V30 5589 C 518.267 -0.183687 2.28463 0
M  V30 5590 C 519.28 -0.85264 1.38686 0
M  V30 5591 O 520.469 -0.721701 1.6326 0
M  V30 5592 C 517.569 -1.27977 3.13808 0
M  V30 5593 C 516.742 -0.702164 4.31727 0
M  V30 5594 C 515.801 -1.68633 4.98447 0
M  V30 5595 O 514.827 -1.22121 5.55945 0
M  V30 5596 N 516.029 -3.02047 4.95729 0
M  V30 5597 H 518.794 0.521127 2.95134 0
M  V30 5598 H 516.355 0.423673 1.56258 0
M  V30 5599 H 518.347 -1.9375 3.55307 0
M  V30 5600 H 516.917 -1.8874 2.4919 0
M  V30 5601 H 516.137 0.1331 3.93975 0
M  V30 5602 H 517.425 -0.296101 5.07938 0
M  V30 5603 H 516.823 -3.42457 4.50266 0
M  V30 5604 H 515.38 -3.63301 5.41161 0
M  V30 5605 N 518.813 -1.54241 0.323641 0
M  V30 5606 C 520.059 -2.00867 -0.279323 0
M  V30 5607 C 520.392 -1.21146 -1.5178 0
M  V30 5608 O 519.667 -0.29378 -1.92269 0
M  V30 5609 C 519.95 -3.54837 -0.613387 0
M  V30 5610 C 519.803 -4.45284 0.635803 0
M  V30 5611 C 521.122 -4.16186 -1.43099 0
M  V30 5612 H 518.241 -0.730177 -0.100049 0
M  V30 5613 H 520.883 -1.84829 0.440235 0
M  V30 5614 H 519.033 -3.68634 -1.22641 0
M  V30 5615 H 520.705 -4.43357 1.27406 0
M  V30 5616 H 518.948 -4.14956 1.26466 0
M  V30 5617 H 519.619 -5.5084 0.357597 0
M  V30 5618 H 522.095 -4.05964 -0.912814 0
M  V30 5619 H 520.971 -5.24031 -1.6335 0
M  V30 5620 H 521.232 -3.69516 -2.42715 0
M  V30 5621 N 520.291 -0.0518155 -1.57515 0
M  V30 5622 C 521.254 0.907547 -2.10467 0
M  V30 5623 C 522.254 1.23947 -1.02439 0
M  V30 5624 O 523.444 1.17604 -1.2851 0
M  V30 5625 C 520.576 2.21723 -2.58944 0
M  V30 5626 H 521.769 0.44851 -2.96527 0
M  V30 5627 H 519.322 0.196598 -1.55059 0
M  V30 5628 H 520.057 2.72206 -1.76279 0
M  V30 5629 H 519.842 1.98935 -3.37886 0
M  V30 5630 H 521.332 2.90441 -3.00056 0
M  V30 5631 N 521.769 1.56035 0.221574 0
M  V30 5632 C 522.679 1.95581 1.29558 0
M  V30 5633 C 523.695 0.859639 1.51282 0
M  V30 5634 O 524.871 1.16321 1.64413 0
M  V30 5635 C 521.936 2.26447 2.62531 0
M  V30 5636 C 520.997 3.49632 2.4911 0
M  V30 5637 C 520.23 3.79017 3.75742 0
M  V30 5638 O 520.453 3.10077 4.78757 0
M  V30 5639 O 519.387 4.72507 3.72855 0
M  V30 5640 H 523.213 2.8711 0.990035 0
M  V30 5641 H 520.798 1.43244 0.424434 0
M  V30 5642 H 522.68 2.47494 3.41064 0
M  V30 5643 H 521.355 1.38092 2.92766 0
M  V30 5644 H 520.262 3.33864 1.68777 0
M  V30 5645 H 521.595 4.3837 2.23814 0
M  V30 5646 N 523.247 -0.488276 1.49845 0
M  V30 5647 C 524.477 -1.26344 1.63465 0
M  V30 5648 C 524.885 -1.86637 0.310379 0
M  V30 5649 O 524.228 -1.69184 -0.715712 0
M  V30 5650 C 524.29 -2.42407 2.65479 0
M  V30 5651 C 523.954 -2.02886 4.09495 0
M  V30 5652 C 524.951 -1.56124 4.95904 0
M  V30 5653 C 522.636 -2.12131 4.55308 0
M  V30 5654 C 524.63 -1.19129 6.26169 0
M  V30 5655 C 522.317 -1.74747 5.85582 0
M  V30 5656 C 523.315 -1.28322 6.70837 0
M  V30 5657 O 523.003 -0.914491 7.98682 0
M  V30 5658 H 522.735 -0.388921 0.552916 0
M  V30 5659 H 525.289 -0.591288 1.96705 0
M  V30 5660 H 523.519 -3.12739 2.27445 0
M  V30 5661 H 525.208 -3.04409 2.68495 0
M  V30 5662 H 525.974 -1.48417 4.61733 0
M  V30 5663 H 521.853 -2.47217 3.89107 0
M  V30 5664 H 525.397 -0.828211 6.92666 0
M  V30 5665 H 521.294 -1.82109 6.19279 0
M  V30 5666 H 522.062 -1.04485 8.11804 0
M  V30 5667 N 524.725 -1.39134 -0.740242 0
M  V30 5668 C 525.953 -1.39334 -1.5295 0
M  V30 5669 C 526.368 0.0135008 -1.88795 0
M  V30 5670 O 525.725 0.983524 -1.5373 0
M  V30 5671 C 525.776 -2.2614 -2.82034 0
M  V30 5672 O 525.497 -3.61345 -2.47712 0
M  V30 5673 C 526.998 -2.34666 -3.76094 0
M  V30 5674 H 524.218 -0.476103 -0.472828 0
M  V30 5675 H 526.762 -1.82883 -0.9151 0
M  V30 5676 H 524.917 -1.86018 -3.39818 0
M  V30 5677 H 525.331 -4.07194 -3.30595 0
M  V30 5678 H 526.805 -2.99663 -4.63579 0
M  V30 5679 H 527.282 -1.36426 -4.17474 0
M  V30 5680 H 527.888 -2.75236 -3.2423 0
M  V30 5681 N 526.204 0.969867 -1.24223 0
M  V30 5682 C 527.451 1.71256 -1.08063 0
M  V30 5683 C 527.779 1.90734 0.380872 0
M  V30 5684 O 527.034 1.46469 1.29789 0
M  V30 5685 C 527.333 3.10883 -1.76314 0
M  V30 5686 C 526.999 3.11252 -3.26241 0
M  V30 5687 C 525.661 3.1106 -3.67144 0
M  V30 5688 C 528.013 3.05751 -4.22097 0
M  V30 5689 C 525.341 3.03097 -5.02344 0
M  V30 5690 C 527.693 2.9933 -5.57301 0
M  V30 5691 C 526.357 2.97466 -5.97554 0
M  V30 5692 H 525.627 0.62667 -0.395431 0
M  V30 5693 H 528.274 1.13422 -1.54297 0
M  V30 5694 H 526.579 3.72168 -1.22468 0
M  V30 5695 H 528.276 3.67138 -1.61277 0
M  V30 5696 H 524.866 3.12165 -2.93685 0
M  V30 5697 H 529.05 3.05031 -3.91497 0
M  V30 5698 H 524.306 3.00013 -5.32731 0
M  V30 5699 H 528.48 2.94033 -6.31283 0
M  V30 5700 H 526.107 2.91051 -7.02277 0
M  V30 5701 N 527.682 1.05563 1.17022 0
M  V30 5702 C 529.098 0.777684 1.39371 0
M  V30 5703 C 529.298 -0.626269 1.91521 0
M  V30 5704 O 528.354 -1.38806 2.10924 0
M  V30 5705 C 529.667 1.83642 2.3811 0
M  V30 5706 C 531.215 1.85907 2.51809 0
M  V30 5707 C 531.69 2.90813 3.53824 0
M  V30 5708 N 533.181 2.898 3.61345 0
M  V30 5709 C 533.916 3.6762 4.40049 0
M  V30 5710 N 533.412 4.55237 5.22237 0
M  V30 5711 N 535.205 3.56044 4.34959 0
M  V30 5712 H 527.356 1.9614 0.815047 0
M  V30 5713 H 529.619 0.849527 0.420722 0
M  V30 5714 H 529.325 2.84425 2.06871 0
M  V30 5715 H 529.199 1.6812 3.37662 0
M  V30 5716 H 531.586 0.857865 2.82356 0
M  V30 5717 H 531.667 2.05506 1.52318 0
M  V30 5718 H 531.311 3.91122 3.24015 0
M  V30 5719 H 531.241 2.68465 4.53028 0
M  V30 5720 H 533.732 2.26274 3.02669 0
M  V30 5721 H 534.045 5.11291 5.79484 0
M  V30 5722 H 532.39 4.59296 5.21605 0
M  V30 5723 H 535.581 2.86986 3.69806 0
M  V30 5724 H 535.754 4.16938 4.96051 0
M  V30 5725 N 529.16 -1.33526 0.837174 0
M  V30 5726 C 530.092 -2.28077 0.226579 0
M  V30 5727 C 531.105 -1.51666 -0.591717 0
M  V30 5728 O 532.294 -1.73511 -0.419064 0
M  V30 5729 C 529.394 -3.31597 -0.69978 0
M  V30 5730 C 528.567 -4.37329 0.0788067 0
M  V30 5731 C 527.626 -5.20526 -0.770637 0
M  V30 5732 O 526.652 -5.68811 -0.210453 0
M  V30 5733 N 527.854 -5.41639 -2.08825 0
M  V30 5734 H 530.619 -2.81115 1.03897 0
M  V30 5735 H 528.18 -1.46201 0.695476 0
M  V30 5736 H 530.172 -3.84158 -1.27298 0
M  V30 5737 H 528.742 -2.78848 -1.41288 0
M  V30 5738 H 527.962 -3.8529 0.833381 0
M  V30 5739 H 529.25 -5.05079 0.614238 0
M  V30 5740 H 528.648 -5.04108 -2.56693 0
M  V30 5741 H 527.205 -5.97263 -2.60998 0
M  V30 5742 N 530.638 -0.59345 -1.46 0
M  V30 5743 C 531.885 -0.0831523 -2.02329 0
M  V30 5744 C 532.213 1.28093 -1.46364 0
M  V30 5745 O 531.468 1.85526 -0.622793 0
M  V30 5746 C 531.767 0.021178 -3.57394 0
M  V30 5747 C 531.433 -1.27671 -4.32448 0
M  V30 5748 C 530.095 -1.63227 -4.5267 0
M  V30 5749 C 532.447 -2.13511 -4.7546 0
M  V30 5750 C 529.775 -2.84401 -5.1316 0
M  V30 5751 C 532.127 -3.33922 -5.37289 0
M  V30 5752 C 530.791 -3.69747 -5.55737 0
M  V30 5753 H 530.061 -0.0304276 -0.740375 0
M  V30 5754 H 532.708 -0.772239 -1.75239 0
M  V30 5755 H 531.013 0.793454 -3.83682 0
M  V30 5756 H 532.71 0.431942 -3.98667 0
M  V30 5757 H 529.3 -0.989937 -4.17011 0
M  V30 5758 H 533.484 -1.87344 -4.59582 0
M  V30 5759 H 528.74 -3.12282 -5.25633 0
M  V30 5760 H 532.914 -4.00698 -5.69574 0
M  V30 5761 H 530.541 -4.6373 -6.02377 0
M  V30 5762 N 532.116 1.54067 -0.331816 0
M  V30 5763 C 533.532 1.59587 0.0205388 0
M  V30 5764 C 533.732 1.34813 1.49759 0
M  V30 5765 O 532.788 1.13661 2.25471 0
M  V30 5766 C 534.101 2.97959 -0.405103 0
M  V30 5767 C 535.649 3.10964 -0.356454 0
M  V30 5768 C 536.124 4.51694 -0.757384 0
M  V30 5769 N 537.615 4.57709 -0.71111 0
M  V30 5770 C 538.35 5.64729 -0.993427 0
M  V30 5771 N 537.846 6.79652 -1.3433 0
M  V30 5772 N 539.639 5.54546 -0.918442 0
M  V30 5773 H 531.79 1.68426 -1.29407 0
M  V30 5774 H 534.053 0.78819 -0.526745 0
M  V30 5775 H 533.759 3.21115 -1.43451 0
M  V30 5776 H 533.633 3.76524 0.225692 0
M  V30 5777 H 536.02 2.87538 0.663763 0
M  V30 5778 H 536.101 2.34484 -1.02229 0
M  V30 5779 H 535.745 4.75853 -1.77555 0
M  V30 5780 H 535.675 5.26555 -0.0691444 0
M  V30 5781 H 538.166 3.75176 -0.452883 0
M  V30 5782 H 538.479 7.57221 -1.54388 0
M  V30 5783 H 536.824 6.81128 -1.38164 0
M  V30 5784 H 540.015 4.63641 -0.644536 0
M  V30 5785 H 540.188 6.37861 -1.14181 0
M  V30 5786 N 533.594 0.0601682 1.57485 0
M  V30 5787 C 534.871 -0.651956 1.84415 0
M  V30 5788 C 535.251 -1.88498 0.950361 0
M  V30 5789 O 534.599 -2.28496 0.0136719 0
M  V30 5790 C 534.809 -1.00069 3.34346 0
M  V30 5791 C 536.157 -1.37915 4.01578 0
M  V30 5792 O 537.181 -1.09277 3.39024 0
M  V30 5793 O 536.04 -1.91399 5.11887 0
M  V30 5794 H 533.134 -0.322668 0.761455 0
M  V30 5795 H 535.68 0.0902159 1.6946 0
M  V30 5796 H 534.452 -0.124463 3.91102 0
M  V30 5797 H 534.075 -1.80001 3.54521 0
M  V30 5798 N 535.072 -1.5615 -0.213296 0
M  V30 5799 C 536.483 -1.69645 -0.779582 0
M  V30 5800 C 536.834 -0.663615 -1.84636 0
M  V30 5801 O 535.959 0.183633 -2.15619 0
M  V30 5802 C 536.554 -3.07567 -1.42084 0
M  V30 5803 C 535.113 -3.22889 -1.93442 0
M  V30 5804 C 534.26 -2.65581 -0.797612 0
M  V30 5805 H 537.211 -1.58696 0.0114951 0
M  V30 5806 H 537.232 -3.03884 -2.28986 0
M  V30 5807 H 536.744 -3.82716 -0.644187 0
M  V30 5808 H 534.845 -2.52623 -2.73884 0
M  V30 5809 H 534.958 -4.30197 -2.10872 0
M  V30 5810 H 533.322 -2.24278 -1.20712 0
M  V30 5811 H 534.105 -3.43284 -0.033494 0
M  V30 5812 N 536.55 0.480323 -1.50102 0
M  V30 5813 C 537.46 1.60547 -1.71061 0
M  V30 5814 C 538.476 1.63564 -0.593529 0
M  V30 5815 O 539.652 1.81604 -0.870751 0
M  V30 5816 C 536.717 2.96814 -1.79171 0
M  V30 5817 C 535.778 3.04259 -3.02861 0
M  V30 5818 C 535.011 4.34027 -3.10574 0
M  V30 5819 O 535.234 5.24009 -2.25323 0
M  V30 5820 O 534.168 4.46873 -4.03223 0
M  V30 5821 H 537.994 1.45788 -2.6642 0
M  V30 5822 H 535.579 0.658838 -1.34088 0
M  V30 5823 H 537.461 3.77765 -1.86738 0
M  V30 5824 H 536.136 3.11791 -0.869947 0
M  V30 5825 H 535.043 2.22419 -3.008 0
M  V30 5826 H 536.376 2.94216 -3.94586 0
M  V30 5827 N 538.028 1.39524 0.732853 0
M  V30 5828 C 539.258 1.3994 1.51988 0
M  V30 5829 C 539.666 -0.00727973 1.89199 0
M  V30 5830 O 539.009 -0.989521 1.54771 0
M  V30 5831 C 539.071 2.21026 2.83527 0
M  V30 5832 C 538.735 3.69633 2.68738 0
M  V30 5833 C 539.732 4.62665 2.37143 0
M  V30 5834 C 537.417 4.13244 2.85542 0
M  V30 5835 C 539.411 5.97291 2.22536 0
M  V30 5836 C 537.098 5.47945 2.70554 0
M  V30 5837 C 538.096 6.39783 2.39097 0
M  V30 5838 O 537.784 7.72002 2.24204 0
M  V30 5839 H 537.516 0.479795 0.476206 0
M  V30 5840 H 540.07 1.8399 0.913054 0
M  V30 5841 H 538.3 1.71728 3.46477 0
M  V30 5842 H 539.989 2.13594 3.45156 0
M  V30 5843 H 540.755 4.30272 2.2381 0
M  V30 5844 H 536.634 3.42094 3.09019 0
M  V30 5845 H 540.178 6.68939 1.97905 0
M  V30 5846 H 536.075 5.79928 2.83466 0
M  V30 5847 H 536.843 7.8275 2.39258 0
M  V30 5848 N 539.506 -0.963266 1.24736 0
M  V30 5849 C 540.754 -1.70343 1.08755 0
M  V30 5850 C 541.075 -1.91387 -0.373619 0
M  V30 5851 O 540.345 -1.4948 -1.2662 0
M  V30 5852 H 538.925 -0.631224 0.399456 0
M  V30 5853 H 541.587 -1.15859 1.56725 0
M  V30 5854 H 540.683 -2.68616 1.58909 0
M  V30 5855 N 540.985 -1.06182 -1.16461 0
M  V30 5856 C 541.895 -0.682671 -2.24448 0
M  V30 5857 C 542.911 0.30078 -1.71381 0
M  V30 5858 O 544.087 0.150376 -2.00838 0
M  V30 5859 C 541.152 -0.0737202 -3.46622 0
M  V30 5860 C 540.213 -1.10889 -4.14731 0
M  V30 5861 C 539.446 -0.528908 -5.31073 0
M  V30 5862 O 539.669 0.65868 -5.66584 0
M  V30 5863 O 538.603 -1.26805 -5.88391 0
M  V30 5864 H 542.429 -1.58291 -2.59187 0
M  V30 5865 H 540.014 -0.834013 -1.23954 0
M  V30 5866 H 541.896 0.264192 -4.20571 0
M  V30 5867 H 540.571 0.800015 -3.13658 0
M  V30 5868 H 539.478 -1.49896 -3.42756 0
M  V30 5869 H 540.811 -1.95412 -4.51747 0
M  V30 5870 N 542.463 1.3308 -0.844243 0
M  V30 5871 C 543.709 1.98304 -0.452453 0
M  V30 5872 C 544.064 1.65645 0.978746 0
M  V30 5873 O 543.357 0.928849 1.6758 0
M  V30 5874 C 543.551 3.52045 -0.616354 0
M  V30 5875 C 543.38 3.99643 -2.06193 0
M  V30 5876 C 542.15 4.27224 -2.69829 0
M  V30 5877 C 544.348 4.15471 -3.03131 0
M  V30 5878 N 542.33 4.60998 -4.05406 0
M  V30 5879 C 543.701 4.52665 -4.23668 0
M  V30 5880 C 545.756 3.97776 -2.99465 0
M  V30 5881 C 544.459 4.74011 -5.41023 0
M  V30 5882 C 546.485 4.20301 -4.16055 0
M  V30 5883 C 545.847 4.57801 -5.35348 0
M  V30 5884 H 541.946 0.752122 -0.214096 0
M  V30 5885 H 544.53 1.61096 -1.09344 0
M  V30 5886 H 542.701 3.884 -0.00513205 0
M  V30 5887 H 544.433 4.04228 -0.19548 0
M  V30 5888 H 541.188 4.18911 -2.20931 0
M  V30 5889 H 541.612 4.82087 -4.75312 0
M  V30 5890 H 546.254 3.67893 -2.08362 0
M  V30 5891 H 543.972 5.02753 -6.32665 0
M  V30 5892 H 547.558 4.08122 -4.14641 0
M  V30 5893 H 546.438 4.74884 -6.24063 0
M  V30 5894 N 543.941 0.601185 1.45683 0
M  V30 5895 C 545.188 0.0938811 2.02282 0
M  V30 5896 C 545.516 -1.27315 1.47041 0
M  V30 5897 O 544.771 -1.85193 0.632623 0
M  V30 5898 C 545.07 -0.00222425 3.574 0
M  V30 5899 C 544.736 1.29963 4.31764 0
M  V30 5900 C 543.398 1.65625 4.51798 0
M  V30 5901 C 545.75 2.1603 4.74321 0
M  V30 5902 C 543.078 2.87119 5.11644 0
M  V30 5903 C 545.43 3.36766 5.3551 0
M  V30 5904 C 544.094 3.72689 5.53768 0
M  V30 5905 H 543.364 0.0343535 0.740203 0
M  V30 5906 H 546.011 0.781522 1.74827 0
M  V30 5907 H 544.316 -0.773096 3.84097 0
M  V30 5908 H 546.013 -0.410794 3.9889 0
M  V30 5909 H 542.603 1.01204 4.1648 0
M  V30 5910 H 546.787 1.89778 4.58582 0
M  V30 5911 H 542.043 3.15065 5.2397 0
M  V30 5912 H 546.217 4.03713 5.67441 0
M  V30 5913 H 543.844 4.66918 5.99909 0
M  V30 5914 N 545.419 -1.53889 0.339982 0
M  V30 5915 C 546.667 -2.00458 -0.257112 0
M  V30 5916 C 546.988 -1.22953 -1.51353 0
M  V30 5917 O 546.258 -0.335734 -1.93002 0
M  V30 5918 H 544.838 -0.740544 -0.0979965 0
M  V30 5919 H 547.5 -1.89386 0.460317 0
M  V30 5920 H 546.596 -3.08035 -0.502057 0
M  V30 5921 N 546.897 -0.0685191 -1.57451 0
M  V30 5922 C 548.127 0.609577 -1.97402 0
M  V30 5923 C 548.535 1.63882 -0.945489 0
M  V30 5924 O 547.878 1.8354 0.0766052 0
M  V30 5925 C 547.94 1.3385 -3.33653 0
M  V30 5926 C 547.604 0.463103 -4.54648 0
M  V30 5927 C 548.601 -0.277964 -5.19156 0
M  V30 5928 C 546.286 0.388941 -5.00792 0
M  V30 5929 C 548.28 -1.08145 -6.28159 0
M  V30 5930 C 545.967 -0.418217 -6.09667 0
M  V30 5931 C 546.965 -1.15208 -6.73213 0
M  V30 5932 O 546.653 -1.94594 -7.79993 0
M  V30 5933 H 546.385 0.170197 -0.654224 0
M  V30 5934 H 548.939 -0.13647 -2.04946 0
M  V30 5935 H 547.169 2.13055 -3.22714 0
M  V30 5936 H 548.858 1.90851 -3.58233 0
M  V30 5937 H 549.624 -0.230241 -4.84453 0
M  V30 5938 H 545.503 0.949769 -4.5111 0
M  V30 5939 H 549.047 -1.65476 -6.7769 0
M  V30 5940 H 544.944 -0.467515 -6.43805 0
M  V30 5941 H 545.712 -1.8699 -7.96854 0
M  V30 5942 N 548.375 1.56261 0.205012 0
M  V30 5943 C 549.305 1.96779 1.257 0
M  V30 5944 C 550.286 0.838309 1.48008 0
M  V30 5945 O 551.471 1.10189 1.59913 0
M  V30 5946 C 548.601 2.29876 2.60335 0
M  V30 5947 C 547.555 3.45469 2.52656 0
M  V30 5948 C 546.881 3.64215 3.91473 0
M  V30 5949 C 548.181 4.79954 2.06014 0
M  V30 5950 H 549.875 2.84904 0.920338 0
M  V30 5951 H 547.421 1.37072 0.441277 0
M  V30 5952 H 549.374 2.56814 3.34102 0
M  V30 5953 H 548.098 1.38622 2.95722 0
M  V30 5954 H 546.757 3.18605 1.81345 0
M  V30 5955 H 546.405 2.70309 4.24196 0
M  V30 5956 H 546.105 4.41973 3.87213 0
M  V30 5957 H 547.629 3.93519 4.66878 0
M  V30 5958 H 549.043 5.05989 2.69533 0
M  V30 5959 H 547.44 5.61111 2.12777 0
M  V30 5960 H 548.51 4.74201 1.01297 0
M  V30 5961 N 549.853 -0.472356 1.50355 0
M  V30 5962 C 551.078 -1.25251 1.65309 0
M  V30 5963 C 551.503 -1.85081 0.335643 0
M  V30 5964 O 550.861 -1.67227 -0.700335 0
M  V30 5965 C 550.909 -2.3379 2.74544 0
M  V30 5966 O 550.013 -3.38401 2.35709 0
M  V30 5967 H 549.354 -0.368539 0.552336 0
M  V30 5968 H 551.884 -0.562271 1.96722 0
M  V30 5969 H 551.894 -2.79121 2.97583 0
M  V30 5970 H 550.569 -1.89614 3.70161 0
M  V30 5971 H 549.146 -2.9879 2.23112 0
M  V30 5972 N 551.331 -1.39911 -0.725443 0
M  V30 5973 C 552.747 -1.21725 -1.03224 0
M  V30 5974 C 552.947 -0.0855224 -2.01318 0
M  V30 5975 O 552.003 0.55976 -2.46217 0
M  V30 5976 C 553.316 -2.55511 -1.58539 0
M  V30 5977 C 554.864 -2.62439 -1.70572 0
M  V30 5978 C 555.339 -3.9647 -2.29294 0
M  V30 5979 N 556.83 -3.98159 -2.36692 0
M  V30 5980 C 557.565 -4.98647 -2.83088 0
M  V30 5981 N 557.061 -6.0953 -3.2931 0
M  V30 5982 N 558.854 -4.8602 -2.82384 0
M  V30 5983 H 551.005 -2.12267 -0.075048 0
M  V30 5984 H 553.268 -0.943136 -0.0959066 0
M  V30 5985 H 552.974 -3.38926 -0.939249 0
M  V30 5986 H 552.848 -2.75905 -2.57208 0
M  V30 5987 H 555.235 -1.79401 -2.34306 0
M  V30 5988 H 555.316 -2.45885 -0.705297 0
M  V30 5989 H 554.96 -4.79942 -1.66186 0
M  V30 5990 H 554.89 -4.10349 -3.30032 0
M  V30 5991 H 557.381 -3.18085 -2.04035 0
M  V30 5992 H 557.694 -6.82106 -3.6325 0
M  V30 5993 H 556.039 -6.1311 -3.27294 0
M  V30 5994 H 559.23 -3.98493 -2.45603 0
M  V30 5995 H 559.403 -5.64478 -3.18226 0
M  V30 5996 N 552.809 0.956637 -1.25245 0
M  V30 5997 C 553.719 2.0868 -1.0719 0
M  V30 5998 C 554.735 1.73997 -0.00959074 0
M  V30 5999 O 555.911 2.00301 -0.210104 0
M  V30 6000 C 552.976 3.39754 -0.690526 0
M  V30 6001 C 552.037 3.88316 -1.83055 0
M  V30 6002 C 551.27 5.13134 -1.46728 0
M  V30 6003 O 551.493 5.6925 -0.362029 0
M  V30 6004 O 550.427 5.56356 -2.29677 0
M  V30 6005 H 554.253 2.26813 -2.01965 0
M  V30 6006 H 551.838 1.07098 -1.04165 0
M  V30 6007 H 553.72 4.18543 -0.489871 0
M  V30 6008 H 552.395 3.22896 0.227981 0
M  V30 6009 H 551.302 3.1054 -2.08604 0
M  V30 6010 H 552.635 4.09669 -2.72822 0
M  V30 6011 N 554.287 1.06798 1.15896 0
M  V30 6012 C 555.535 0.786211 1.8618 0
M  V30 6013 C 555.856 -0.689547 1.82401 0
M  V30 6014 O 555.126 -1.49913 1.26107 0
M  V30 6015 H 553.706 0.287843 0.689315 0
M  V30 6016 H 556.368 1.35055 1.40521 0
M  V30 6017 H 555.464 1.1157 2.91477 0
M  V30 6018 N 555.766 -1.3263 0.851289 0
M  V30 6019 C 556.713 -2.28952 0.291469 0
M  V30 6020 C 557.683 -1.54897 -0.599676 0
M  V30 6021 O 558.868 -1.83137 -0.535305 0
M  V30 6022 C 556.008 -3.41206 -0.516992 0
M  V30 6023 C 555.121 -4.30148 0.399566 0
M  V30 6024 C 554.256 -5.29527 -0.4212 0
M  V30 6025 C 553.295 -6.10112 0.492969 0
M  V30 6026 N 552.432 -7.01499 -0.290414 0
M  V30 6027 H 557.272 -2.76228 1.11813 0
M  V30 6028 H 554.809 -1.35907 0.562826 0
M  V30 6029 H 556.767 -4.05005 -1.00132 0
M  V30 6030 H 555.397 -2.9509 -1.30851 0
M  V30 6031 H 554.449 -3.66959 1.00227 0
M  V30 6032 H 555.761 -4.8649 1.1013 0
M  V30 6033 H 554.915 -5.98914 -0.968832 0
M  V30 6034 H 553.654 -4.73794 -1.15632 0
M  V30 6035 H 552.659 -5.39632 1.05251 0
M  V30 6036 H 553.884 -6.6793 1.22664 0
M  V30 6037 H 551.83 -6.48199 -1.00868 0
M  V30 6038 H 551.747 -7.55178 0.352354 0
M  V30 6039 H 553.015 -7.75176 -0.819882 0
M  V30 6040 N 557.244 -0.608902 -1.45362 0
M  V30 6041 C 558.49 -0.104762 -2.02529 0
M  V30 6042 C 558.823 1.26191 -1.47613 0
M  V30 6043 O 558.098 1.8327 -0.65134 0
M  V30 6044 C 558.381 -0.0672661 -3.60037 0
M  V30 6045 C 558.234 -1.4647 -4.25284 0
M  V30 6046 C 559.553 0.619877 -4.35713 0
M  V30 6047 H 556.672 -0.0395438 -0.735938 0
M  V30 6048 H 559.314 -0.781126 -1.73201 0
M  V30 6049 H 557.464 0.50871 -3.85155 0
M  V30 6050 H 559.136 -2.08785 -4.11347 0
M  V30 6051 H 557.379 -2.02502 -3.83634 0
M  V30 6052 H 558.05 -1.39069 -5.34195 0
M  V30 6053 H 560.526 0.130297 -4.15896 0
M  V30 6054 H 559.402 0.615224 -5.45441 0
M  V30 6055 H 559.663 1.68621 -4.0868 0
M  V30 6056 N 558.722 1.53707 -0.348139 0
M  V30 6057 C 559.685 2.23812 0.494058 0
M  V30 6058 C 560.685 1.23989 1.02388 0
M  V30 6059 O 561.875 1.48395 0.912396 0
M  V30 6060 C 559.007 2.96133 1.68872 0
M  V30 6061 H 560.2 2.99663 -0.119141 0
M  V30 6062 H 557.753 1.55983 -0.0995539 0
M  V30 6063 H 558.488 2.24481 2.34049 0
M  V30 6064 H 558.273 3.69357 1.31596 0
M  V30 6065 H 559.763 3.49475 2.28597 0
M  V30 6066 N 560.2 0.0768682 1.57412 0
M  V30 6067 C 561.13 -0.886026 2.16037 0
M  V30 6068 C 562.111 -1.30691 1.08876 0
M  V30 6069 O 563.296 -1.37705 1.36934 0
M  V30 6070 C 560.426 -2.1518 2.72608 0
M  V30 6071 C 559.38 -1.87015 3.8498 0
M  V30 6072 C 558.706 -3.20266 4.28175 0
M  V30 6073 C 560.006 -1.17143 5.08994 0
M  V30 6074 H 561.7 -0.397642 2.96748 0
M  V30 6075 H 559.246 -0.189823 1.42743 0
M  V30 6076 H 561.199 -2.82962 3.12266 0
M  V30 6077 H 559.923 -2.66269 1.89125 0
M  V30 6078 H 558.582 -1.21636 3.45833 0
M  V30 6079 H 558.23 -3.69207 3.41607 0
M  V30 6080 H 557.93 -3.0221 5.03927 0
M  V30 6081 H 559.454 -3.89237 4.70454 0
M  V30 6082 H 560.868 -1.75003 5.45937 0
M  V30 6083 H 559.265 -1.09328 5.90057 0
M  V30 6084 H 560.335 -0.151295 4.84664 0
M  V30 6085 N 561.678 -1.56367 -0.196722 0
M  V30 6086 C 562.903 -1.84991 -0.937714 0
M  V30 6087 C 563.328 -0.660244 -1.76132 0
M  V30 6088 O 562.686 0.390967 -1.77034 0
M  V30 6089 C 562.734 -3.11828 -1.81096 0
M  V30 6090 O 561.838 -2.92266 -2.90955 0
M  V30 6091 H 561.179 -0.609193 -0.264159 0
M  V30 6092 H 563.709 -2.03595 -0.202529 0
M  V30 6093 H 563.719 -3.42579 -2.21594 0
M  V30 6094 H 562.394 -3.98037 -1.2058 0
M  V30 6095 H 560.971 -2.72809 -2.54224 0
M  V30 6096 N 563.156 0.464375 -1.50603 0
M  V30 6097 C 564.405 1.21277 -1.61167 0
M  V30 6098 C 564.718 1.92953 -0.320704 0
M  V30 6099 O 565.924 2.69778 -0.30534 0
M  V30 6100 C 564.38 2.20403 -2.84518 0
M  V30 6101 C 563.988 1.54499 -4.20516 0
M  V30 6102 C 565.732 2.95843 -3.0443 0
M  V30 6103 C 563.639 2.51951 -5.35047 0
M  V30 6104 H 562.569 0.456367 -0.600204 0
M  V30 6105 H 565.22 0.48254 -1.77042 0
M  V30 6106 H 563.602 2.96746 -2.62217 0
M  V30 6107 H 564.776 0.83899 -4.53098 0
M  V30 6108 H 563.091 0.913152 -4.06264 0
M  V30 6109 H 565.688 3.6879 -3.87167 0
M  V30 6110 H 566.031 3.55622 -2.16423 0
M  V30 6111 H 566.564 2.26611 -3.26944 0
M  V30 6112 H 563.303 1.96901 -6.25228 0
M  V30 6113 H 562.823 3.20683 -5.06875 0
M  V30 6114 H 564.502 3.13643 -5.65895 0
M  V30 6115 N 564.634 1.40294 0.718013 0
M  V30 6116 C 565.581 1.40367 1.8321 0
M  V30 6117 C 566.551 0.260952 1.64037 0
M  V30 6118 O 567.736 0.458648 1.85205 0
M  V30 6119 C 564.876 1.26965 3.20895 0
M  V30 6120 C 563.989 2.50922 3.51656 0
M  V30 6121 C 563.124 2.29981 4.78834 0
M  V30 6122 C 562.163 3.49527 5.02491 0
M  V30 6123 N 561.3 3.27796 6.20882 0
M  V30 6124 H 566.14 2.35593 1.82482 0
M  V30 6125 H 563.677 1.17012 0.891444 0
M  V30 6126 H 565.635 1.17202 4.00399 0
M  V30 6127 H 564.265 0.353591 3.20858 0
M  V30 6128 H 563.317 2.71223 2.66725 0
M  V30 6129 H 564.629 3.39913 3.65048 0
M  V30 6130 H 563.783 2.17558 5.66351 0
M  V30 6131 H 562.522 1.38411 4.67647 0
M  V30 6132 H 561.527 3.6243 4.1343 0
M  V30 6133 H 562.752 4.42021 5.15553 0
M  V30 6134 H 560.698 2.38906 6.1095 0
M  V30 6135 H 560.615 4.10351 6.34939 0
M  V30 6136 H 561.883 3.19101 7.11193 0
M  V30 6137 N 566.112 -0.949982 1.2575 0
M  V30 6138 C 567.36 -1.6918 1.10555 0
M  V30 6139 C 567.681 -1.91773 -0.353298 0
M  V30 6140 O 566.951 -1.50814 -1.25027 0
M  V30 6141 H 565.531 -0.626952 0.406129 0
M  V30 6142 H 568.193 -1.1419 1.57945 0
M  V30 6143 H 567.289 -2.66915 1.61749 0
M  V30 6144 N 567.59 -1.07411 -1.15328 0
M  V30 6145 C 568.838 -0.796073 -1.85761 0
M  V30 6146 C 569.159 0.679864 -1.82764 0
M  V30 6147 O 568.429 1.49242 -1.269 0
M  V30 6148 H 567.009 -0.291495 -0.687779 0
M  V30 6149 H 569.671 -1.35799 -1.39802 0
M  V30 6150 H 568.767 -1.13114 -2.90881 0
M  V30 6151 N 569.068 1.32177 -0.85831 0
M  V30 6152 C 570.479 1.79381 -0.517621 0
M  V30 6153 C 570.83 1.70841 0.964769 0
M  V30 6154 O 569.955 1.26917 1.75274 0
M  V30 6155 C 570.55 3.25706 -0.932801 0
M  V30 6156 C 569.109 3.70851 -0.643953 0
M  V30 6157 C 568.256 2.53208 -1.13054 0
M  V30 6158 H 571.207 1.19424 -1.04516 0
M  V30 6159 H 571.228 3.79673 -0.250674 0
M  V30 6160 H 570.74 3.31889 -2.01174 0
M  V30 6161 H 568.841 3.70178 0.424112 0
M  V30 6162 H 568.954 4.63495 -1.21281 0
M  V30 6163 H 567.318 2.48676 -0.550679 0
M  V30 6164 H 568.101 2.62143 -2.21666 0
M  V30 6165 N 570.547 0.616602 1.45037 0
M  V30 6166 C 571.794 0.115331 2.02171 0
M  V30 6167 C 572.122 -1.25748 1.48383 0
M  V30 6168 O 571.377 -1.84511 0.652229 0
M  V30 6169 C 571.676 0.0356829 3.57382 0
M  V30 6170 C 571.342 1.34535 4.30362 0
M  V30 6171 C 570.004 1.70408 4.50016 0
M  V30 6172 C 572.356 2.21049 4.72003 0
M  V30 6173 C 569.684 2.92529 5.0857 0
M  V30 6174 C 572.036 3.42427 5.31908 0
M  V30 6175 C 570.7 3.78541 5.49784 0
M  V30 6176 H 569.97 0.0422024 0.739797 0
M  V30 6177 H 572.617 0.80002 1.73988 0
M  V30 6178 H 570.922 -0.732314 3.84895 0
M  V30 6179 H 572.619 -0.368463 3.99304 0
M  V30 6180 H 569.209 1.05615 4.15383 0
M  V30 6181 H 573.393 1.94632 4.56544 0
M  V30 6182 H 568.649 3.20605 5.20598 0
M  V30 6183 H 572.823 4.09709 5.63127 0
M  V30 6184 H 570.45 4.73255 5.94923 0
M  V30 6185 N 572.025 -1.5352 0.356285 0
M  V30 6186 C 572.972 -2.25439 -0.494569 0
M  V30 6187 C 573.942 -1.25752 -1.08516 0
M  V30 6188 O 575.127 -1.54513 -1.1194 0
M  V30 6189 C 572.267 -3.04011 -1.63313 0
M  V30 6190 C 571.38 -4.18574 -1.06862 0
M  V30 6191 C 570.515 -4.84607 -2.17552 0
M  V30 6192 C 569.554 -5.91218 -1.58518 0
M  V30 6193 N 568.691 -6.50979 -2.63003 0
M  V30 6194 H 573.531 -2.97737 0.125244 0
M  V30 6195 H 571.068 -1.46916 0.0735789 0
M  V30 6196 H 573.026 -3.47834 -2.30363 0
M  V30 6197 H 571.656 -2.33986 -2.22374 0
M  V30 6198 H 570.708 -3.79303 -0.288672 0
M  V30 6199 H 572.02 -4.95215 -0.596924 0
M  V30 6200 H 571.174 -5.31566 -2.92442 0
M  V30 6201 H 569.913 -4.07418 -2.6807 0
M  V30 6202 H 568.918 -5.4363 -0.821391 0
M  V30 6203 H 570.143 -6.70322 -1.08836 0
M  V30 6204 H 568.089 -5.76648 -3.12751 0
M  V30 6205 H 568.006 -7.23131 -2.20493 0
M  V30 6206 H 569.274 -7.02589 -3.37623 0
M  V30 6207 N 573.503 -0.0852151 -1.57369 0
M  V30 6208 C 574.751 0.579658 -1.93609 0
M  V30 6209 C 575.072 1.69332 -0.967043 0
M  V30 6210 O 574.342 1.95892 -0.0174215 0
M  V30 6211 H 572.922 0.217113 -0.714752 0
M  V30 6212 H 575.584 -0.146226 -1.94351 0
M  V30 6213 H 574.68 0.996276 -2.95771 0
M  V30 6214 N 574.981 1.5647 0.188427 0
M  V30 6215 C 576.221 1.82803 0.914469 0
M  V30 6216 C 576.585 0.663681 1.80165 0
M  V30 6217 O 577.786 0.807059 2.56398 0
M  V30 6218 C 576.057 3.14187 1.70357 0
M  V30 6219 S 577.616 3.61947 2.48072 0
M  V30 6220 H 574.434 0.641497 0.306599 0
M  V30 6221 H 577.036 1.94694 0.177361 0
M  V30 6222 H 575.74 3.96937 1.04255 0
M  V30 6223 H 575.271 3.05192 2.48237 0
M  V30 6224 H 577.286 3.27913 3.72407 0
M  V30 6225 N 576.459 -0.456382 1.50847 0
M  V30 6226 C 577.706 -1.20736 1.62571 0
M  V30 6227 C 578.034 -1.9163 0.332904 0
M  V30 6228 O 577.289 -1.8343 -0.682058 0
M  V30 6229 C 577.588 -2.26336 2.76599 0
M  V30 6230 C 577.254 -1.7259 4.16562 0
M  V30 6231 C 575.916 -1.57654 4.54641 0
M  V30 6232 C 578.268 -1.32877 5.03977 0
M  V30 6233 C 575.596 -1.0145 5.77862 0
M  V30 6234 C 577.948 -0.7811 6.27759 0
M  V30 6235 C 576.612 -0.618488 6.64628 0
M  V30 6236 H 575.882 -0.441803 0.594888 0
M  V30 6237 H 578.529 -0.501169 1.84826 0
M  V30 6238 H 576.834 -3.0292 2.48489 0
M  V30 6239 H 578.531 -2.84227 2.82871 0
M  V30 6240 H 575.121 -1.85187 3.86528 0
M  V30 6241 H 579.305 -1.43245 4.75179 0
M  V30 6242 H 574.561 -0.876109 6.0509 0
M  V30 6243 H 578.735 -0.464783 6.94847 0
M  V30 6244 H 576.362 -0.180838 7.59985 0
M  V30 6245 N 577.937 -1.40673 -0.710563 0
M  V30 6246 C 578.887 -1.37812 -1.81636 0
M  V30 6247 C 579.871 -0.254853 -1.58869 0
M  V30 6248 O 581.063 -0.494356 -1.69956 0
M  V30 6249 C 578.192 -1.24802 -3.19811 0
M  V30 6250 C 577.278 -2.41931 -3.48325 0
M  V30 6251 N 577.669 -3.67411 -3.47625 0
M  V30 6252 C 575.967 -2.35419 -3.78806 0
M  V30 6253 C 576.668 -4.45008 -3.74623 0
M  V30 6254 N 575.644 -3.74916 -3.93623 0
M  V30 6255 H 579.446 -2.32766 -1.79436 0
M  V30 6256 H 576.96 -1.34516 -0.909909 0
M  V30 6257 H 578.957 -1.20835 -3.99004 0
M  V30 6258 H 577.617 -0.308202 -3.23234 0
M  V30 6259 H 578.628 -4.00503 -3.28356 0
M  V30 6260 H 575.305 -1.4983 -3.89689 0
M  V30 6261 H 576.695 -5.53884 -3.80344 0
M  V30 6262 N 579.415 0.9433 -1.26252 0
M  V30 6263 C 580.661 1.69175 -1.11837 0
M  V30 6264 C 580.994 1.91238 0.337891 0
M  V30 6265 O 580.269 1.49152 1.24836 0
M  V30 6266 C 580.552 3.06783 -1.88563 0
M  V30 6267 C 580.405 2.9206 -3.42083 0
M  V30 6268 C 581.724 4.06865 -1.67776 0
M  V30 6269 H 578.843 0.61399 -0.407658 0
M  V30 6270 H 581.485 1.09572 -1.55222 0
M  V30 6271 H 579.635 3.57663 -1.51689 0
M  V30 6272 H 581.307 2.48419 -3.88698 0
M  V30 6273 H 579.55 2.27731 -3.69217 0
M  V30 6274 H 580.221 3.89651 -3.90994 0
M  V30 6275 H 582.697 3.64939 -1.99897 0
M  V30 6276 H 581.573 5.01168 -2.23879 0
M  V30 6277 H 581.834 4.37705 -0.621816 0
M  V30 6278 N 580.893 1.08022 1.14757 0
M  V30 6279 C 582.304 0.829144 1.67279 0
M  V30 6280 C 582.655 -0.644721 1.85305 0
M  V30 6281 O 581.78 -1.49838 1.56133 0
M  V30 6282 C 582.375 1.49855 3.03857 0
M  V30 6283 C 580.934 1.29482 3.53428 0
M  V30 6284 C 580.081 1.56386 2.28995 0
M  V30 6285 H 583.032 1.24134 0.988762 0
M  V30 6286 H 583.053 0.923572 3.69121 0
M  V30 6287 H 582.565 2.57123 2.90705 0
M  V30 6288 H 580.666 0.242669 3.71809 0
M  V30 6289 H 580.779 2.01974 4.34446 0
M  V30 6290 H 579.143 0.985217 2.34874 0
M  V30 6291 H 579.926 2.64851 2.18423 0
M  V30 6292 N 582.371 -1.3172 0.865308 0
M  V30 6293 C 583.787 -1.4958 0.556596 0
M  V30 6294 C 583.987 -1.79763 -0.910353 0
M  V30 6295 O 583.043 -1.87351 -1.6928 0
M  V30 6296 C 584.356 -2.63277 1.45279 0
M  V30 6297 C 585.904 -2.77161 1.45433 0
M  V30 6298 C 586.379 -3.93949 2.33598 0
M  V30 6299 N 587.87 -4.01228 2.31453 0
M  V30 6300 C 588.605 -4.90855 2.96393 0
M  V30 6301 N 588.101 -5.85416 3.70486 0
M  V30 6302 N 589.894 -4.84063 2.85726 0
M  V30 6303 H 582.045 -1.10396 1.81456 0
M  V30 6304 H 584.308 -0.54507 0.775631 0
M  V30 6305 H 584.014 -2.47734 2.49641 0
M  V30 6306 H 583.888 -3.59309 1.14792 0
M  V30 6307 H 586.275 -2.9212 0.41831 0
M  V30 6308 H 586.356 -1.8181 1.79941 0
M  V30 6309 H 586 -3.79748 3.37274 0
M  V30 6310 H 585.93 -4.88598 1.96417 0
M  V30 6311 H 588.421 -3.3357 1.77593 0
M  V30 6312 H 588.734 -6.50525 4.17178 0
M  V30 6313 H 587.079 -5.85409 3.74594 0
M  V30 6314 H 590.27 -4.09163 2.27384 0
M  V30 6315 H 590.443 -5.53708 3.36617 0
M  V30 6316 N 583.85 -0.624285 -1.44708 0
M  V30 6317 C 585.09 -0.129273 -2.03991 0
M  V30 6318 C 585.454 1.22321 -1.47992 0
M  V30 6319 O 586.654 1.80993 -1.98734 0
M  V30 6320 C 584.926 -0.108231 -3.57236 0
M  V30 6321 S 586.485 0.323158 -4.37608 0
M  V30 6322 H 583.303 -0.0577318 -0.708652 0
M  V30 6323 H 585.904 -0.826139 -1.77187 0
M  V30 6324 H 584.609 -1.0958 -3.955 0
M  V30 6325 H 584.139 0.610101 -3.8864 0
M  V30 6326 H 586.154 1.56894 -4.70743 0
M  V30 6327 N 585.328 1.53329 -0.364422 0
M  V30 6328 C 586.258 2.28627 0.474543 0
M  V30 6329 C 587.239 1.31009 1.08492 0
M  V30 6330 O 588.424 1.59878 1.10239 0
M  V30 6331 C 585.554 3.07465 1.61501 0
M  V30 6332 C 584.508 4.1276 1.13194 0
M  V30 6333 C 583.834 4.79674 2.36255 0
M  V30 6334 C 585.134 5.21847 0.217507 0
M  V30 6335 H 586.828 2.99005 -0.153656 0
M  V30 6336 H 584.374 1.43803 -0.0753406 0
M  V30 6337 H 586.327 3.58889 2.20855 0
M  V30 6338 H 585.051 2.34775 2.27042 0
M  V30 6339 H 583.71 3.62281 0.56109 0
M  V30 6340 H 583.358 4.03557 3.00251 0
M  V30 6341 H 583.058 5.50827 2.04606 0
M  V30 6342 H 584.582 5.33892 2.96297 0
M  V30 6343 H 585.996 5.6878 0.718493 0
M  V30 6344 H 584.393 6.00099 -0.00806408 0
M  V30 6345 H 585.463 4.7921 -0.740653 0
M  V30 6346 N 586.806 0.0935595 1.57322 0
M  V30 6347 C 587.769 -0.851426 2.12799 0
M  V30 6348 C 588.769 -1.21187 1.0569 0
M  V30 6349 O 589.959 -1.14156 1.31583 0
M  V30 6350 C 587.091 -2.14779 2.64731 0
M  V30 6351 H 588.284 -0.369733 2.97612 0
M  V30 6352 H 585.837 -0.155417 1.55525 0
M  V30 6353 H 586.572 -2.67437 1.83434 0
M  V30 6354 H 586.357 -1.89907 3.43042 0
M  V30 6355 H 587.847 -2.82383 3.07651 0
M  V30 6356 N 588.284 -1.56567 -0.180126 0
M  V30 6357 C 589.217 -1.90813 -1.25163 0
M  V30 6358 C 590.195 -0.7699 -1.43218 0
M  V30 6359 O 591.379 -1.02236 -1.58367 0
M  V30 6360 C 588.506 -2.15138 -2.61597 0
M  V30 6361 C 587.552 -3.37834 -2.60328 0
M  V30 6362 S 588.385 -4.92486 -2.1028 0
M  V30 6363 C 589.541 -5.19896 -3.48509 0
M  V30 6364 H 589.774 -2.81398 -0.959283 0
M  V30 6365 H 587.307 -1.49541 -0.3843 0
M  V30 6366 H 589.265 -2.29835 -3.40127 0
M  V30 6367 H 587.926 -1.25276 -2.88036 0
M  V30 6368 H 587.119 -3.52027 -3.60684 0
M  V30 6369 H 586.721 -3.22208 -1.8989 0
M  V30 6370 H 589.013 -5.11334 -4.44459 0
M  V30 6371 H 589.956 -6.21571 -3.39198 0
M  V30 6372 H 590.364 -4.47489 -3.44114 0
M  V30 6373 N 589.762 0.448376 -1.51087 0
M  V30 6374 C 591.002 1.20832 -1.64861 0
M  V30 6375 C 591.366 1.88748 -0.351873 0
M  V30 6376 O 592.567 2.66307 -0.365265 0
M  V30 6377 C 590.838 2.20674 -2.81137 0
M  V30 6378 S 592.397 3.05303 -3.15176 0
M  V30 6379 H 589.215 0.40992 -0.580936 0
M  V30 6380 H 591.817 0.501624 -1.88955 0
M  V30 6381 H 590.521 1.69399 -3.73808 0
M  V30 6382 H 590.052 2.9594 -2.59198 0
M  V30 6383 H 592.067 4.22162 -2.60756 0
M  V30 6384 N 591.24 1.41047 0.703093 0
M  V30 6385 C 592.15 1.44645 1.84703 0
M  V30 6386 C 593.166 0.337778 1.7069 0
M  V30 6387 O 594.342 0.584327 1.92737 0
M  V30 6388 C 591.407 1.31928 3.20618 0
M  V30 6389 C 590.468 2.53047 3.46794 0
M  V30 6390 C 589.701 2.40927 4.76224 0
M  V30 6391 O 589.924 1.42978 5.5219 0
M  V30 6392 O 588.858 3.30543 5.03016 0
M  V30 6393 H 592.684 2.41139 1.84624 0
M  V30 6394 H 590.269 1.22504 0.855167 0
M  V30 6395 H 592.151 1.27092 4.01778 0
M  V30 6396 H 590.826 0.385469 3.21397 0
M  V30 6397 H 589.733 2.6346 2.65593 0
M  V30 6398 H 591.066 3.45231 3.50822 0
M  V30 6399 N 592.718 -0.936591 1.26751 0
M  V30 6400 C 593.628 -2.06949 1.10496 0
M  V30 6401 C 594.644 -1.7396 0.037271 0
M  V30 6402 O 595.82 -1.99941 0.241944 0
M  V30 6403 C 592.885 -3.38612 0.744491 0
M  V30 6404 C 591.946 -3.85355 1.89209 0
M  V30 6405 C 591.179 -5.10735 1.54873 0
M  V30 6406 O 591.402 -5.68602 0.452546 0
M  V30 6407 O 590.336 -5.52632 2.38499 0
M  V30 6408 H 594.162 -2.23571 2.05547 0
M  V30 6409 H 591.747 -1.05428 1.05855 0
M  V30 6410 H 593.629 -4.17711 0.556396 0
M  V30 6411 H 592.304 -3.23218 -0.176582 0
M  V30 6412 H 591.211 -3.07182 2.13518 0
M  V30 6413 H 592.544 -4.05277 2.79305 0
M  V30 6414 N 594.196 -1.08629 -1.14182 0
M  V30 6415 C 595.129 -0.662329 -2.18377 0
M  V30 6416 C 596.107 0.327054 -1.59277 0
M  V30 6417 O 597.291 0.230376 -1.87087 0
M  V30 6418 C 594.418 0.0254765 -3.3869 0
M  V30 6419 C 593.464 -0.924414 -4.16361 0
M  V30 6420 S 594.297 -2.43226 -4.77076 0
M  V30 6421 C 595.453 -1.75663 -6.00744 0
M  V30 6422 H 595.686 -1.54501 -2.54001 0
M  V30 6423 H 593.219 -0.901484 -1.2535 0
M  V30 6424 H 595.177 0.416032 -4.08386 0
M  V30 6425 H 593.838 0.884689 -3.01384 0
M  V30 6426 H 593.031 -0.390099 -5.02488 0
M  V30 6427 H 592.633 -1.25598 -3.5228 0
M  V30 6428 H 594.925 -1.07589 -6.68903 0
M  V30 6429 H 595.868 -2.59673 -6.58768 0
M  V30 6430 H 596.276 -1.22903 -5.50958 0
M  V30 6431 N 595.674 1.31259 -0.872281 0
M  V30 6432 C 596.604 2.30929 -0.345554 0
M  V30 6433 C 597.585 1.60449 0.5648 0
M  V30 6434 O 598.77 1.8814 0.481335 0
M  V30 6435 C 595.9 3.44348 0.451823 0
M  V30 6436 C 594.854 4.26435 -0.365641 0
M  V30 6437 C 594.18 5.31785 0.557562 0
M  V30 6438 C 595.48 4.97159 -1.60095 0
M  V30 6439 H 597.174 2.75234 -1.17841 0
M  V30 6440 H 594.72 1.3232 -0.568094 0
M  V30 6441 H 596.673 4.13128 0.830854 0
M  V30 6442 H 595.397 2.98816 1.31821 0
M  V30 6443 H 594.056 3.59326 -0.726649 0
M  V30 6444 H 593.704 4.82502 1.4213 0
M  V30 6445 H 593.404 5.87598 0.0144878 0
M  V30 6446 H 594.928 6.03424 0.933387 0
M  V30 6447 H 596.342 5.58523 -1.29323 0
M  V30 6448 H 594.739 5.62779 -2.08327 0
M  V30 6449 H 595.809 4.24012 -2.35249 0
M  V30 6450 N 597.152 0.631951 1.44375 0
M  V30 6451 C 598.4 0.136497 2.01639 0
M  V30 6452 C 598.721 -1.24637 1.49969 0
M  V30 6453 O 597.991 -1.82827 0.70363 0
M  V30 6454 H 596.571 0.0474703 0.74549 0
M  V30 6455 H 599.233 0.818837 1.76865 0
M  V30 6456 H 598.329 0.104817 3.11924 0
M  V30 6457 N 598.631 -1.53133 0.372548 0
M  V30 6458 C 599.594 -2.24569 -0.458389 0
M  V30 6459 C 600.594 -1.25603 -1.00402 0
M  V30 6460 O 601.784 -1.49827 -0.888672 0
M  V30 6461 C 598.916 -2.98783 -1.6414 0
M  V30 6462 H 600.109 -2.99436 0.166799 0
M  V30 6463 H 597.662 -1.55805 0.124357 0
M  V30 6464 H 598.397 -2.28176 -2.30448 0
M  V30 6465 H 598.182 -3.71404 -1.25704 0
M  V30 6466 H 599.672 -3.53068 -2.23008 0
M  V30 6467 N 600.109 -0.101901 -1.5727 0
M  V30 6468 C 601.039 0.851544 -2.17419 0
M  V30 6469 C 602.02 1.28942 -1.10941 0
M  V30 6470 O 603.205 1.35509 -1.39107 0
M  V30 6471 C 600.335 2.10816 -2.75996 0
M  V30 6472 C 599.289 1.80867 -3.87906 0
M  V30 6473 C 598.615 3.13413 -4.33216 0
M  V30 6474 C 599.915 1.0903 -5.10793 0
M  V30 6475 H 601.609 0.350381 -2.97343 0
M  V30 6476 H 599.155 0.16709 -1.43027 0
M  V30 6477 H 601.108 2.77959 -3.16729 0
M  V30 6478 H 599.832 2.63227 -1.93337 0
M  V30 6479 H 598.491 1.16119 -3.47724 0
M  V30 6480 H 598.139 3.63725 -3.47438 0
M  V30 6481 H 597.839 2.94155 -5.08671 0
M  V30 6482 H 599.363 3.81704 -4.76586 0
M  V30 6483 H 600.777 1.66295 -5.48652 0
M  V30 6484 H 599.174 0.99927 -5.91722 0
M  V30 6485 H 600.244 0.0741704 -4.84843 0
M  V30 6486 N 601.587 1.56661 0.17182 0
M  V30 6487 C 602.517 1.99401 1.21498 0
M  V30 6488 C 603.498 0.869516 1.46197 0
M  V30 6489 O 604.683 1.13556 1.57539 0
M  V30 6490 C 601.813 2.35346 2.55401 0
M  V30 6491 C 600.767 3.5075 2.45272 0
M  V30 6492 C 600.093 3.72437 3.8366 0
M  V30 6493 C 601.393 4.84216 1.95787 0
M  V30 6494 H 603.087 2.86792 0.859699 0
M  V30 6495 H 600.633 1.37977 0.412103 0
M  V30 6496 H 602.586 2.63843 3.2858 0
M  V30 6497 H 601.31 1.44864 2.92715 0
M  V30 6498 H 599.969 3.2238 1.74547 0
M  V30 6499 H 599.617 2.79246 4.18367 0
M  V30 6500 H 599.317 4.50087 3.77751 0
M  V30 6501 H 600.841 4.03334 4.58426 0
M  V30 6502 H 602.255 5.11592 2.5874 0
M  V30 6503 H 600.652 5.65498 2.00827 0
M  V30 6504 H 601.722 4.76243 0.912159 0
M  V30 6505 N 603.065 -0.440357 1.51323 0
M  V30 6506 C 604.29 -1.21716 1.67928 0
M  V30 6507 C 604.715 -1.84328 0.374826 0
M  V30 6508 O 604.073 -1.68675 -0.664706 0
M  V30 6509 C 604.121 -2.27914 2.79442 0
M  V30 6510 O 603.225 -3.33325 2.42834 0
M  V30 6511 H 602.566 -0.35674 0.560029 0
M  V30 6512 H 605.096 -0.520417 1.97871 0
M  V30 6513 H 605.106 -2.72746 3.03436 0
M  V30 6514 H 603.781 -1.8172 3.741 0
M  V30 6515 H 602.358 -2.9399 2.294 0
M  V30 6516 N 604.543 -1.41418 -0.695603 0
M  V30 6517 C 605.959 -1.23887 -1.00619 0
M  V30 6518 C 606.159 -0.128206 -2.01092 0
M  V30 6519 O 605.215 0.507408 -2.47349 0
M  V30 6520 C 606.528 -2.58816 -1.53083 0
M  V30 6521 C 608.076 -2.65998 -1.64967 0
M  V30 6522 C 608.551 -4.01244 -2.20833 0
M  V30 6523 N 610.042 -4.0309 -2.28194 0
M  V30 6524 C 610.777 -5.04539 -2.72448 0
M  V30 6525 N 610.273 -6.16378 -3.16306 0
M  V30 6526 N 612.066 -4.91901 -2.72011 0
M  V30 6527 H 604.217 -2.12379 -0.0300061 0
M  V30 6528 H 606.48 -0.944958 -0.0758797 0
M  V30 6529 H 606.186 -3.40842 -0.867147 0
M  V30 6530 H 606.06 -2.81299 -2.51298 0
M  V30 6531 H 608.447 -1.84331 -2.30448 0
M  V30 6532 H 608.528 -2.47325 -0.652982 0
M  V30 6533 H 608.172 -4.83359 -1.55968 0
M  V30 6534 H 608.102 -4.17257 -3.21254 0
M  V30 6535 H 610.593 -3.22341 -1.97242 0
M  V30 6536 H 610.906 -6.89658 -3.487 0
M  V30 6537 H 609.251 -6.19914 -3.14215 0
M  V30 6538 H 612.442 -4.03613 -2.37095 0
M  V30 6539 H 612.615 -5.71102 -3.06181 0
M  V30 6540 N 606.021 0.929856 -1.27246 0
M  V30 6541 C 607.432 1.49223 -1.12203 0
M  V30 6542 C 607.783 1.93989 0.293731 0
M  V30 6543 O 606.908 1.80978 1.18642 0
M  V30 6544 C 607.503 2.71198 -2.0307 0
M  V30 6545 C 606.062 3.23666 -1.92139 0
M  V30 6546 C 605.209 1.96409 -1.95752 0
M  V30 6547 H 608.16 0.744181 -1.4017 0
M  V30 6548 H 608.181 3.45905 -1.58524 0
M  V30 6549 H 607.693 2.38585 -3.06102 0
M  V30 6550 H 605.794 3.61042 -0.920834 0
M  V30 6551 H 605.907 3.90006 -2.78267 0
M  V30 6552 H 604.271 2.12806 -1.39949 0
M  V30 6553 H 605.054 1.66113 -3.00436 0
M  V30 6554 N 607.499 1.09233 1.13605 0
M  V30 6555 C 608.462 0.733553 2.17144 0
M  V30 6556 C 609.462 -0.235873 1.59061 0
M  V30 6557 O 610.652 -0.0143167 1.74194 0
M  V30 6558 C 607.784 0.084471 3.40795 0
M  V30 6559 H 608.977 1.65049 2.50397 0
M  V30 6560 H 606.53 0.891264 1.28399 0
M  V30 6561 H 607.265 -0.843795 3.1313 0
M  V30 6562 H 607.05 0.781985 3.84223 0
M  V30 6563 H 608.54 -0.151216 4.17326 0
M  V30 6564 N 608.977 -1.30795 0.87923 0
M  V30 6565 C 610.388 -1.78535 0.546093 0
M  V30 6566 C 610.739 -1.72354 -0.937467 0
M  V30 6567 O 609.864 -1.2969 -1.73233 0
M  V30 6568 C 610.459 -3.24181 0.9845 0
M  V30 6569 C 609.018 -3.69779 0.702871 0
M  V30 6570 C 608.165 -2.51377 1.17068 0
M  V30 6571 H 611.116 -1.17746 1.06403 0
M  V30 6572 H 611.137 -3.79227 0.311045 0
M  V30 6573 H 610.649 -3.28647 2.06429 0
M  V30 6574 H 608.75 -3.70806 -0.365166 0
M  V30 6575 H 608.863 -4.61507 1.28639 0
M  V30 6576 H 607.227 -2.47768 0.590172 0
M  V30 6577 H 608.01 -2.58584 2.25808 0
M  V30 6578 N 610.455 -0.639598 -1.44038 0
M  V30 6579 C 611.418 0.0506628 -2.29144 0
M  V30 6580 C 612.418 0.764001 -1.41491 0
M  V30 6581 O 613.608 0.607309 -1.63271 0
M  V30 6582 C 610.74 1.0824 -3.2326 0
M  V30 6583 H 611.933 -0.697987 -2.91664 0
M  V30 6584 H 609.486 -0.400146 -1.51091 0
M  V30 6585 H 610.221 1.86075 -2.65606 0
M  V30 6586 H 610.006 0.574725 -3.87865 0
M  V30 6587 H 611.496 1.56487 -3.87171 0
M  V30 6588 N 611.933 1.52934 -0.380664 0
M  V30 6589 C 613.344 1.86457 0.0952684 0
M  V30 6590 C 613.695 1.3007 1.46889 0
M  V30 6591 O 612.82 0.628636 2.07068 0
M  V30 6592 C 613.415 3.38323 0.179648 0
M  V30 6593 C 611.974 3.71589 0.599858 0
M  V30 6594 C 611.121 2.76228 -0.243572 0
M  V30 6595 H 614.072 1.46966 -0.59888 0
M  V30 6596 H 614.093 3.67113 1.00042 0
M  V30 6597 H 613.605 3.79333 -0.820228 0
M  V30 6598 H 611.706 3.36144 1.60742 0
M  V30 6599 H 611.819 4.77715 0.364003 0
M  V30 6600 H 610.183 2.53045 0.289855 0
M  V30 6601 H 610.966 3.20074 -1.24127 0
M  V30 6602 N 613.412 0.11024 1.57214 0
M  V30 6603 C 614.637 -0.561179 1.99664 0
M  V30 6604 C 615.062 -1.59985 0.989266 0
M  V30 6605 O 614.42 -1.81255 -0.0402399 0
M  V30 6606 C 614.468 -1.17189 3.41027 0
M  V30 6607 O 613.572 -2.28755 3.4314 0
M  V30 6608 H 612.913 -0.14101 0.648855 0
M  V30 6609 H 615.443 0.196128 2.03658 0
M  V30 6610 H 615.453 -1.50954 3.79047 0
M  V30 6611 H 614.128 -0.411041 4.13864 0
M  V30 6612 H 612.705 -1.96495 3.16929 0
M  V30 6613 N 614.89 -1.56749 -0.16351 0
M  V30 6614 C 616.301 -1.72039 -0.725216 0
M  V30 6615 C 616.652 -0.72202 -1.82432 0
M  V30 6616 O 615.777 0.114942 -2.16095 0
M  V30 6617 C 616.372 -3.11932 -1.32227 0
M  V30 6618 C 614.931 -3.28879 -1.83072 0
M  V30 6619 C 614.078 -2.67984 -0.712716 0
M  V30 6620 H 617.029 -1.58579 0.0619772 0
M  V30 6621 H 617.05 -3.11015 -2.19202 0
M  V30 6622 H 616.562 -3.84572 -0.522103 0
M  V30 6623 H 614.663 -2.61209 -2.65708 0
M  V30 6624 H 614.776 -4.36688 -1.97079 0
M  V30 6625 H 613.14 -2.28005 -1.13515 0
M  V30 6626 H 613.923 -3.43216 0.0757361 0
M  V30 6627 N 616.368 0.432326 -1.51554 0
M  V30 6628 C 617.331 1.50765 -1.72634 0
M  V30 6629 C 618.331 1.49334 -0.596314 0
M  V30 6630 O 619.521 1.51268 -0.863925 0
M  V30 6631 C 616.653 2.90284 -1.7874 0
M  V30 6632 H 617.846 1.33377 -2.68609 0
M  V30 6633 H 615.399 0.661329 -1.4162 0
M  V30 6634 H 616.134 3.13071 -0.845977 0
M  V30 6635 H 615.919 2.92727 -2.6087 0
M  V30 6636 H 617.409 3.68282 -1.96871 0
M  V30 6637 N 617.846 1.41785 0.688094 0
M  V30 6638 C 619.257 1.3701 1.26828 0
M  V30 6639 C 619.608 0.056835 1.96118 0
M  V30 6640 O 618.733 -0.84475 1.99231 0
M  V30 6641 C 619.328 2.48168 2.30648 0
M  V30 6642 C 617.887 2.46766 2.84224 0
M  V30 6643 C 617.034 2.27633 1.58361 0
M  V30 6644 H 619.985 1.51192 0.482351 0
M  V30 6645 H 620.006 2.17655 3.121 0
M  V30 6646 H 619.518 3.43735 1.80188 0
M  V30 6647 H 617.619 1.54978 3.3884 0
M  V30 6648 H 617.732 3.43342 3.34145 0
M  V30 6649 H 616.096 1.75648 1.84445 0
M  V30 6650 H 616.879 3.25238 1.09887 0
M  V30 6651 N 619.324 -0.923095 1.27737 0
M  V30 6652 C 620.552 -1.70525 1.17171 0
M  V30 6653 C 620.967 -1.86847 -0.270881 0
M  V30 6654 O 620.324 -1.38879 -1.18401 0
M  V30 6655 C 620.375 -3.10242 1.85559 0
M  V30 6656 O 620.096 -2.94683 3.24182 0
M  V30 6657 C 621.597 -4.04586 1.81176 0
M  V30 6658 H 618.817 -0.533347 0.407163 0
M  V30 6659 H 621.361 -1.15599 1.68692 0
M  V30 6660 H 619.516 -3.62014 1.3793 0
M  V30 6661 H 619.93 -3.83045 3.58297 0
M  V30 6662 H 621.404 -5.00119 2.33633 0
M  V30 6663 H 621.881 -4.3218 0.782099 0
M  V30 6664 H 622.487 -3.58741 2.2844 0
M  V30 6665 N 620.802 -1.09834 -1.13024 0
M  V30 6666 C 622.213 -0.855651 -1.65938 0
M  V30 6667 C 622.564 0.615159 -1.86307 0
M  V30 6668 O 621.689 1.47335 -1.58497 0
M  V30 6669 C 622.284 -1.5467 -3.01434 0
M  V30 6670 C 620.843 -1.35088 -3.51323 0
M  V30 6671 C 619.99 -1.6001 -2.26478 0
M  V30 6672 H 622.941 -1.25691 -0.968889 0
M  V30 6673 H 622.962 -0.982179 -3.67605 0
M  V30 6674 H 622.474 -2.61715 -2.86578 0
M  V30 6675 H 620.575 -0.30179 -3.71376 0
M  V30 6676 H 620.688 -2.0886 -4.31178 0
M  V30 6677 H 619.052 -1.02246 -2.33276 0
M  V30 6678 H 619.835 -2.68293 -2.14182 0
M  V30 6679 N 622.28 1.30327 -0.886154 0
M  V30 6680 C 623.243 2.26376 -0.358687 0
M  V30 6681 C 624.243 1.52845 0.499498 0
M  V30 6682 O 625.433 1.71483 0.306485 0
M  V30 6683 C 622.565 3.37379 0.488726 0
M  V30 6684 H 623.758 2.74547 -1.20681 0
M  V30 6685 H 621.311 1.41536 -0.663113 0
M  V30 6686 H 622.046 2.94526 1.35739 0
M  V30 6687 H 621.831 3.91897 -0.126003 0
M  V30 6688 H 623.321 4.08868 0.84952 0
M  V30 6689 N 623.758 0.647228 1.43697 0
M  V30 6690 C 624.998 0.16171 2.03759 0
M  V30 6691 C 625.362 -1.19951 1.49919 0
M  V30 6692 O 626.563 -1.77808 2.01588 0
M  V30 6693 C 624.834 0.16505 3.57019 0
M  V30 6694 S 626.393 -0.253497 4.38067 0
M  V30 6695 H 623.211 0.0689985 0.707644 0
M  V30 6696 H 625.813 0.854224 1.7585 0
M  V30 6697 H 624.517 1.15858 3.93707 0
M  V30 6698 H 624.048 -0.548194 3.89562 0
M  V30 6699 H 626.063 -1.49385 4.73179 0
M  V30 6700 N 625.236 -1.5273 0.388769 0
M  V30 6701 C 626.652 -1.59553 0.0387049 0
M  V30 6702 C 626.852 -1.40278 -1.44652 0
M  V30 6703 O 625.908 -1.21951 -2.21098 0
M  V30 6704 C 627.221 -2.9625 0.515409 0
M  V30 6705 C 628.769 -3.09426 0.471621 0
M  V30 6706 C 629.244 -4.48572 0.924505 0
M  V30 6707 N 630.735 -4.54754 0.880496 0
M  V30 6708 C 631.47 -5.60653 1.20234 0
M  V30 6709 N 630.966 -6.74198 1.59463 0
M  V30 6710 N 632.759 -5.50755 1.12363 0
M  V30 6711 H 624.91 -1.63508 1.35569 0
M  V30 6712 H 627.173 -0.768097 0.555636 0
M  V30 6713 H 626.879 -3.15569 1.5527 0
M  V30 6714 H 626.753 -3.77102 -0.085792 0
M  V30 6715 H 629.14 -2.89804 -0.556588 0
M  V30 6716 H 629.221 -2.30528 1.10862 0
M  V30 6717 H 628.865 -4.68936 1.95094 0
M  V30 6718 H 628.795 -5.25935 0.264524 0
M  V30 6719 H 631.286 -3.73237 0.591815 0
M  V30 6720 H 631.599 -7.5097 1.82385 0
M  V30 6721 H 629.944 -6.75531 1.63349 0
M  V30 6722 H 633.135 -4.6093 0.816169 0
M  V30 6723 H 633.308 -6.33184 1.37777 0
M  V30 6724 N 626.714 -0.118576 -1.57153 0
M  V30 6725 C 627.962 0.538461 -1.94795 0
M  V30 6726 C 628.283 1.67243 -1.00274 0
M  V30 6727 O 627.553 1.95811 -0.0589692 0
M  V30 6728 H 626.133 0.201904 -0.719197 0
M  V30 6729 H 628.795 -0.187418 -1.93997 0
M  V30 6730 H 627.891 0.933315 -2.97818 0
M  V30 6731 N 628.193 1.56834 0.155195 0
M  V30 6732 C 629.156 1.96748 1.17571 0
M  V30 6733 C 630.156 0.853006 1.3631 0
M  V30 6734 O 631.346 1.11978 1.33441 0
M  V30 6735 C 628.478 2.27631 2.53765 0
M  V30 6736 H 629.671 2.88085 0.833498 0
M  V30 6737 H 627.224 1.51141 0.398242 0
M  V30 6738 H 627.959 1.39059 2.92973 0
M  V30 6739 H 627.744 3.0888 2.41527 0
M  V30 6740 H 629.234 2.59377 3.27282 0
M  V30 6741 N 629.671 -0.424282 1.51781 0
M  V30 6742 C 630.581 -1.54087 1.76902 0
M  V30 6743 C 631.597 -1.61249 0.653826 0
M  V30 6744 O 632.773 -1.78247 0.937552 0
M  V30 6745 C 629.838 -2.8996 1.90063 0
M  V30 6746 C 628.899 -2.92809 3.13945 0
M  V30 6747 C 628.132 -4.22201 3.26469 0
M  V30 6748 O 628.355 -5.15286 2.44616 0
M  V30 6749 O 627.289 -4.31599 4.1953 0
M  V30 6750 H 631.115 -1.358 2.71647 0
M  V30 6751 H 628.7 -0.608618 1.36441 0
M  V30 6752 H 630.582 -3.70575 2.0063 0
M  V30 6753 H 629.257 -3.08347 0.985067 0
M  V30 6754 H 628.164 -2.11102 3.08847 0
M  V30 6755 H 629.497 -2.79369 4.05233 0
M  V30 6756 O 631.188 -1.51103 -0.570103 0
M  V30 6757 H 631.879 -1.50032 -1.22516 0
M  V30 END ATOM
M  V30 BEGIN BOND
M  V30 END BOND
M  V30 END CTAB
M  END
$$$$
