drugbank_target|P51671 Eotaxin (DB05429)
 OpenBabel12092120313D

  0  0  0     0  0            999 V3000
M  V30 BEGIN CTAB
M  V30 COUNTS 1561 1578 0 0 0
M  V30 BEGIN ATOM
M  V30 1 H -0.908 1.98254 -0.117106 0
M  V30 2 N 0 1.576 0 0
M  V30 3 C 0.933 2.03868 1.02534 0
M  V30 4 C 1.911 0.928543 1.3348 0
M  V30 5 O 3.095 1.19667 1.45644 0
M  V30 6 C 0.222 2.43627 2.35294 0
M  V30 7 C -0.732 3.65373 2.2001 0
M  V30 8 S 0.101 5.13292 1.52614 0
M  V30 9 C 1.257 5.56322 2.86805 0
M  V30 10 H 1.49 2.90518 0.631377 0
M  V30 11 H -0.977 1.52953 0.210867 0
M  V30 12 H 0.981 2.67203 3.11629 0
M  V30 13 H -0.358 1.57376 2.7183 0
M  V30 14 H -1.165 3.90944 3.18086 0
M  V30 15 H -1.563 3.418 1.51819 0
M  V30 16 H 0.729 5.58782 3.83104 0
M  V30 17 H 1.672 6.56266 2.65933 0
M  V30 18 H 2.08 4.83886 2.90714 0
M  V30 19 N 1.4781 -0.272755 1.55222 0
M  V30 20 C 2.4251 -1.33716 1.88119 0
M  V30 21 C 3.3951 -1.49066 0.73271 0
M  V30 22 O 4.5801 -1.63469 0.984002 0
M  V30 23 C 1.7201 -2.69238 2.15882 0
M  V30 24 C 0.8331 -2.62108 3.43399 0
M  V30 25 C -0.0319 -3.89811 3.60861 0
M  V30 26 C -0.9929 -3.77193 4.8207 0
M  V30 27 N -1.8559 -4.9673 4.96189 0
M  V30 28 H 2.9841 -1.04962 2.78903 0
M  V30 29 H 0.5211 -0.507088 1.38083 0
M  V30 30 H 2.4791 -3.48089 2.29978 0
M  V30 31 H 1.1091 -2.96194 1.28331 0
M  V30 32 H 0.1611 -1.74967 3.37773 0
M  V30 33 H 1.4731 -2.48685 4.32386 0
M  V30 34 H 0.6271 -4.77103 3.74777 0
M  V30 35 H -0.6339 -4.06102 2.7006 0
M  V30 36 H -1.6289 -2.88284 4.68159 0
M  V30 37 H -0.4039 -3.62421 5.74307 0
M  V30 38 H -2.4579 -5.13431 4.08319 0
M  V30 39 H -2.5409 -4.85839 5.79221 0
M  V30 40 H -1.2729 -5.85594 5.1449 0
M  V30 41 N 2.9562 -1.48159 -0.537278 0
M  V30 42 C 4.2022 -1.56035 -1.29541 0
M  V30 43 C 4.5352 -0.230377 -1.92829 0
M  V30 44 O 3.8102 0.762952 -1.78911 0
M  V30 45 C 4.0932 -2.69323 -2.39034 0
M  V30 46 C 3.9462 -4.12002 -1.80485 0
M  V30 47 C 5.2652 -2.78408 -3.40847 0
M  V30 48 H 2.3842 -0.567992 -0.469632 0
M  V30 49 H 5.0262 -1.80302 -0.599277 0
M  V30 50 H 3.1762 -2.48763 -2.98412 0
M  V30 51 H 4.8482 -4.43981 -1.25215 0
M  V30 52 H 3.0912 -4.19344 -1.11055 0
M  V30 53 H 3.7622 -4.87077 -2.59731 0
M  V30 54 H 6.2382 -2.97012 -2.91416 0
M  V30 55 H 5.1142 -3.59416 -4.14863 0
M  V30 56 H 5.3752 -1.86269 -4.00944 0
M  V30 57 N 4.4343 0.785586 -1.36625 0
M  V30 58 C 5.6593 1.57963 -1.34397 0
M  V30 59 C 6.0843 1.87964 0.071526 0
M  V30 60 O 5.4423 1.48182 1.0446 0
M  V30 61 C 5.4903 2.87511 -2.17646 0
M  V30 62 O 4.5943 3.81281 -1.57158 0
M  V30 63 H 3.9353 0.479014 -0.459828 0
M  V30 64 H 6.4653 0.973411 -1.79961 0
M  V30 65 H 6.4753 3.36745 -2.30362 0
M  V30 66 H 5.1503 2.65002 -3.20541 0
M  V30 67 H 3.7273 3.39885 -1.53403 0
M  V30 68 N 5.9124 1.20967 1.01018 0
M  V30 69 C 6.8754 0.965918 2.07853 0
M  V30 70 C 7.8754 -0.0610545 1.60684 0
M  V30 71 O 9.0654 0.175681 1.73312 0
M  V30 72 C 6.1974 0.455513 3.37843 0
M  V30 73 H 7.3904 1.91365 2.3091 0
M  V30 74 H 4.9434 1.02594 1.17916 0
M  V30 75 H 5.6784 -0.497381 3.20463 0
M  V30 76 H 5.4634 1.19622 3.73407 0
M  V30 77 H 6.9534 0.304667 4.16487 0
M  V30 78 N 7.3905 -1.2043 1.01659 0
M  V30 79 C 8.3535 -2.21433 0.591616 0
M  V30 80 C 9.3535 -1.57203 -0.338226 0
M  V30 81 O 10.5435 -1.73737 -0.126918 0
M  V30 82 C 7.6755 -3.40628 -0.136058 0
M  V30 83 H 8.8685 -2.60545 1.48514 0
M  V30 84 H 6.4215 -1.33893 0.806379 0
M  V30 85 H 7.1565 -3.07019 -1.04449 0
M  V30 86 H 6.9415 -3.88475 0.531917 0
M  V30 87 H 8.4315 -4.15475 -0.420735 0
M  V30 88 N 8.8686 -0.792821 -1.36206 0
M  V30 89 C 9.7986 -0.207853 -2.32573 0
M  V30 90 C 10.7796 0.659055 -1.56813 0
M  V30 91 O 11.9646 0.592176 -1.84951 0
M  V30 92 C 9.0946 0.655449 -3.41059 0
M  V30 93 C 8.0486 -0.111842 -4.27854 0
M  V30 94 C 7.3746 0.872274 -5.27537 0
M  V30 95 C 8.6746 -1.30299 -5.05786 0
M  V30 96 H 10.3686 -1.01294 -2.81744 0
M  V30 97 H 7.9146 -0.48854 -1.3546 0
M  V30 98 H 9.8676 1.07464 -4.07467 0
M  V30 99 H 8.5916 1.49328 -2.90463 0
M  V30 100 H 7.2506 -0.512053 -3.63006 0
M  V30 101 H 6.8986 1.70523 -4.73214 0
M  V30 102 H 6.5986 0.363291 -5.86476 0
M  V30 103 H 8.1226 1.28996 -5.96818 0
M  V30 104 H 9.5366 -0.959379 -5.65216 0
M  V30 105 H 7.9336 -1.7455 -5.74154 0
M  V30 106 H 9.0036 -2.09663 -4.37229 0
M  V30 107 N 10.3467 1.47872 -0.545128 0
M  V30 108 C 11.2767 2.32661 0.197793 0
M  V30 109 C 12.2577 1.43041 0.920504 0
M  V30 110 O 13.4427 1.71912 0.90333 0
M  V30 111 C 10.5727 3.24569 1.23582 0
M  V30 112 C 9.5267 4.23333 0.630323 0
M  V30 113 C 8.8527 5.0448 1.77211 0
M  V30 114 C 10.1527 5.20704 -0.407974 0
M  V30 115 H 11.8467 2.95024 -0.510045 0
M  V30 116 H 9.3927 1.4187 -0.246731 0
M  V30 117 H 11.3457 3.8272 1.76362 0
M  V30 118 H 10.0697 2.60236 1.97344 0
M  V30 119 H 8.7287 3.6639 0.123922 0
M  V30 120 H 8.3767 4.36561 2.49847 0
M  V30 121 H 8.0767 5.71339 1.37281 0
M  V30 122 H 9.6007 5.65487 2.3034 0
M  V30 123 H 11.0147 5.7329 0.033305 0
M  V30 124 H 9.4117 5.95699 -0.725486 0
M  V30 125 H 10.4817 4.66917 -1.30828 0
M  V30 126 N 11.8248 0.280983 1.55075 0
M  V30 127 C 13.0708 -0.327573 2.00745 0
M  V30 128 C 13.4258 -1.53045 1.16598 0
M  V30 129 O 12.7188 -1.90221 0.229451 0
M  V30 130 C 12.9128 -0.754656 3.49342 0
M  V30 131 C 12.7418 0.40529 4.4787 0
M  V30 132 C 11.5118 0.890947 4.97383 0
M  V30 133 C 13.7098 1.24371 4.99035 0
M  V30 134 N 11.6918 2.01975 5.79724 0
M  V30 135 C 13.0628 2.22031 5.7888 0
M  V30 136 C 15.1178 1.27638 4.81262 0
M  V30 137 C 13.8208 3.22709 6.42846 0
M  V30 138 C 15.8468 2.27164 5.46031 0
M  V30 139 C 15.2088 3.23556 6.25692 0
M  V30 140 H 11.3078 -0.0848774 0.77738 0
M  V30 141 H 13.8918 0.406342 1.90413 0
M  V30 142 H 12.0628 -1.45778 3.60005 0
M  V30 143 H 13.7948 -1.34105 3.81835 0
M  V30 144 H 10.5498 0.469262 4.71269 0
M  V30 145 H 10.9738 2.58794 6.25584 0
M  V30 146 H 15.6158 0.544936 4.19274 0
M  V30 147 H 13.3338 3.96784 7.0398 0
M  V30 148 H 16.9198 2.30441 5.34217 0
M  V30 149 H 15.7998 3.99309 6.74924 0
M  V30 150 N 13.3029 -1.57598 0.00835791 0
M  V30 151 C 14.2329 -2.1198 -0.979113 0
M  V30 152 C 15.2139 -1.03091 -1.35301 0
M  V30 153 O 16.3989 -1.30818 -1.43528 0
M  V30 154 C 13.5289 -2.62995 -2.26828 0
M  V30 155 C 12.4829 -3.76485 -2.03576 0
M  V30 156 C 11.8089 -4.13846 -3.38579 0
M  V30 157 C 13.1089 -5.0342 -1.39161 0
M  V30 158 H 14.8029 -2.94738 -0.526281 0
M  V30 159 H 12.3489 -1.41783 -0.251704 0
M  V30 160 H 14.3019 -2.99669 -2.96271 0
M  V30 161 H 13.0259 -1.7737 -2.7424 0
M  V30 162 H 11.6849 -3.40217 -1.36557 0
M  V30 163 H 11.3329 -3.25232 -3.83709 0
M  V30 164 H 11.0329 -4.90312 -3.23834 0
M  V30 165 H 12.5569 -4.53086 -4.09323 0
M  V30 166 H 13.9709 -5.37812 -1.98573 0
M  V30 167 H 12.3679 -5.84746 -1.34878 0
M  V30 168 H 13.4379 -4.83548 -0.361868 0
M  V30 169 N 14.781 0.264519 -1.55364 0
M  V30 170 C 15.711 1.33121 -1.91836 0
M  V30 171 C 16.692 1.51101 -0.781192 0
M  V30 172 O 17.877 1.64003 -1.04003 0
M  V30 173 C 15.007 2.68921 -2.19769 0
M  V30 174 C 13.961 2.65661 -3.35571 0
M  V30 175 C 13.287 4.05093 -3.49004 0
M  V30 176 C 14.587 2.24187 -4.71739 0
M  V30 177 H 16.281 1.02844 -2.81182 0
M  V30 178 H 13.827 0.493286 -1.35287 0
M  V30 179 H 15.78 3.43663 -2.43872 0
M  V30 180 H 14.504 3.00799 -1.27231 0
M  V30 181 H 13.163 1.93377 -3.1145 0
M  V30 182 H 12.811 4.34206 -2.53917 0
M  V30 183 H 12.511 4.03804 -4.26868 0
M  V30 184 H 14.035 4.81561 -3.75408 0
M  V30 185 H 15.449 2.88654 -4.9533 0
M  V30 186 H 13.846 2.34044 -5.52579 0
M  V30 187 H 14.916 1.19327 -4.69988 0
M  V30 188 N 16.2591 1.48442 0.529413 0
M  V30 189 C 17.1891 1.65902 1.64313 0
M  V30 190 C 18.1701 0.507897 1.6234 0
M  V30 191 O 19.3551 0.740503 1.79528 0
M  V30 192 C 16.4851 1.69911 3.02898 0
M  V30 193 C 15.4391 2.8453 3.19729 0
M  V30 194 C 14.7651 2.73629 4.59381 0
M  V30 195 C 16.0651 4.25821 3.02447 0
M  V30 196 H 17.7591 2.5914 1.49955 0
M  V30 197 H 15.3051 1.24709 0.719982 0
M  V30 198 H 17.2581 1.80715 3.80684 0
M  V30 199 H 15.9821 0.732524 3.18279 0
M  V30 200 H 14.6411 2.73283 2.44361 0
M  V30 201 H 14.2891 1.74938 4.71599 0
M  V30 202 H 13.9891 3.50541 4.71588 0
M  V30 203 H 15.5131 2.86401 5.39265 0
M  V30 204 H 16.9271 4.37898 3.70024 0
M  V30 205 H 15.3241 5.03735 3.26146 0
M  V30 206 H 16.3941 4.42244 1.98867 0
M  V30 207 N 17.7372 -0.778329 1.37039 0
M  V30 208 C 18.9862 -1.53189 1.3121 0
M  V30 209 C 19.2992 -1.95328 -0.103095 0
M  V30 210 O 20.5052 -2.70012 -0.283826 0
M  V30 211 C 18.9612 -2.76591 2.30272 0
M  V30 212 C 18.5692 -2.41577 3.77286 0
M  V30 213 C 20.3132 -3.5455 2.33441 0
M  V30 214 C 18.2202 -3.61441 4.68096 0
M  V30 215 H 17.1502 -0.5751 0.487622 0
M  V30 216 H 19.8012 -0.853101 1.62464 0
M  V30 217 H 18.1832 -3.46326 1.92027 0
M  V30 218 H 19.3572 -1.79668 4.2433 0
M  V30 219 H 17.6722 -1.76806 3.76999 0
M  V30 220 H 20.2692 -4.43628 2.98493 0
M  V30 221 H 20.6122 -3.93936 1.34611 0
M  V30 222 H 21.1452 -2.91805 2.7036 0
M  V30 223 H 17.8842 -3.27142 5.6803 0
M  V30 224 H 17.4042 -4.22478 4.25761 0
M  V30 225 H 19.0832 -4.28335 4.8491 0
M  V30 226 N 19.2153 -1.21501 -1.00376 0
M  V30 227 C 20.1783 -0.976927 -2.07337 0
M  V30 228 C 21.1783 0.0525322 -1.60714 0
M  V30 229 O 22.3683 -0.184869 -1.73216 0
M  V30 230 C 19.5003 -0.473423 -3.37597 0
M  V30 231 H 20.6933 -1.92587 -2.29892 0
M  V30 232 H 18.2463 -1.03217 -1.17371 0
M  V30 233 H 18.9813 0.480379 -3.20722 0
M  V30 234 H 18.7663 -1.216 -3.72768 0
M  V30 235 H 20.2563 -0.32675 -4.1632 0
M  V30 236 N 20.6934 1.19889 -1.02296 0
M  V30 237 C 21.6564 2.21116 -0.603351 0
M  V30 238 C 22.6564 1.5738 0.329884 0
M  V30 239 O 23.8464 1.73802 0.117702 0
M  V30 240 C 20.9784 3.40696 0.117992 0
M  V30 241 H 22.1714 2.59754 -1.49893 0
M  V30 242 H 19.7244 1.33463 -0.813468 0
M  V30 243 H 20.4594 3.07569 1.0282 0
M  V30 244 H 20.2444 3.88188 -0.552511 0
M  V30 245 H 21.7344 4.15692 0.398696 0
M  V30 246 N 22.1715 0.800033 1.35784 0
M  V30 247 C 23.1345 0.211565 2.28221 0
M  V30 248 C 24.1345 -0.59728 1.49296 0
M  V30 249 O 25.3245 -0.416721 1.69142 0
M  V30 250 C 22.4565 -0.705846 3.33513 0
M  V30 251 H 23.6495 1.02677 2.81776 0
M  V30 252 H 21.2025 0.570211 1.45528 0
M  V30 253 H 21.9375 -1.54498 2.85133 0
M  V30 254 H 21.7225 -0.127655 3.91892 0
M  V30 255 H 23.2125 -1.11211 4.02519 0
M  V30 256 N 23.6496 -1.47581 0.552962 0
M  V30 257 C 24.8966 -2.02482 0.0273243 0
M  V30 258 C 25.2246 -1.42776 -1.32081 0
M  V30 259 O 24.4796 -0.571393 -1.87173 0
M  V30 260 C 24.7786 -3.57199 -0.119728 0
M  V30 261 C 24.4446 -4.35804 1.15697 0
M  V30 262 C 23.1066 -4.57 1.50681 0
M  V30 263 C 25.4586 -4.81167 2.00319 0
M  V30 264 C 22.7866 -5.20807 2.70142 0
M  V30 265 C 25.1386 -5.46293 3.18978 0
M  V30 266 C 23.8026 -5.65722 3.54281 0
M  V30 267 H 23.0726 -0.740933 0.00999866 0
M  V30 268 H 25.7196 -1.77302 0.72362 0
M  V30 269 H 24.0246 -3.81348 -0.89896 0
M  V30 270 H 25.7216 -3.97324 -0.541718 0
M  V30 271 H 22.3116 -4.19582 0.874561 0
M  V30 272 H 26.4956 -4.64574 1.74599 0
M  V30 273 H 21.7516 -5.34045 2.97668 0
M  V30 274 H 25.9256 -5.80407 3.84838 0
M  V30 275 H 23.5526 -6.14936 4.46942 0
M  V30 276 N 25.1277 -0.289203 -1.54924 0
M  V30 277 C 26.3527 0.329299 -2.04769 0
M  V30 278 C 26.7777 1.4763 -1.16564 0
M  V30 279 O 26.1357 1.80527 -0.167186 0
M  V30 280 C 26.1837 0.774438 -3.52186 0
M  V30 281 O 25.2877 1.88038 -3.67036 0
M  V30 282 H 24.6287 0.0659259 -0.660719 0
M  V30 283 H 27.1587 -0.42761 -2.00082 0
M  V30 284 H 27.1687 1.06642 -3.93816 0
M  V30 285 H 25.8437 -0.0646707 -4.1585 0
M  V30 286 H 24.4207 1.58985 -3.3731 0
M  V30 287 N 26.6058 1.57591 -0.0167156 0
M  V30 288 C 28.0168 1.79201 0.523834 0
M  V30 289 C 28.3678 0.925796 1.72984 0
M  V30 290 O 27.4928 0.132792 2.15992 0
M  V30 291 C 28.0878 3.25 0.957091 0
M  V30 292 C 26.6468 3.47648 1.44283 0
M  V30 293 C 25.7938 2.74374 0.401757 0
M  V30 294 H 28.7448 1.56831 -0.242816 0
M  V30 295 H 28.7658 3.34031 1.82219 0
M  V30 296 H 28.2778 3.88019 0.0791415 0
M  V30 297 H 26.3788 2.89866 2.34113 0
M  V30 298 H 26.4918 4.56352 1.45877 0
M  V30 299 H 24.8558 2.39485 0.867121 0
M  V30 300 H 25.6388 3.40102 -0.467513 0
M  V30 301 N 28.0839 -0.256276 1.55502 0
M  V30 302 C 29.0159 -1.33981 1.85962 0
M  V30 303 C 30.0289 -1.44743 0.745212 0
M  V30 304 O 31.2179 -1.4626 1.02324 0
M  V30 305 C 28.3179 -2.7194 2.02242 0
M  V30 306 C 27.4909 -2.83562 3.33033 0
M  V30 307 C 26.5499 -4.02304 3.39172 0
M  V30 308 O 25.5759 -3.92273 4.12444 0
M  V30 309 N 26.7779 -5.15045 2.67784 0
M  V30 310 H 29.5429 -1.08191 2.7949 0
M  V30 311 H 27.1039 -0.446388 1.55624 0
M  V30 312 H 29.0959 -3.49697 2.03701 0
M  V30 313 H 27.6659 -2.90479 1.15502 0
M  V30 314 H 26.8859 -1.92555 3.43971 0
M  V30 315 H 28.1739 -2.88271 4.19258 0
M  V30 316 H 27.5719 -5.26085 2.07968 0
M  V30 317 H 26.1289 -5.90972 2.74947 0
M  V30 318 N 29.562 -1.4872 -0.521534 0
M  V30 319 C 30.81 -1.56857 -1.27437 0
M  V30 320 C 31.131 -0.247982 -1.93417 0
M  V30 321 O 30.401 0.731151 -1.81744 0
M  V30 322 H 28.981 -0.577885 -0.473347 0
M  V30 323 H 31.643 -1.85233 -0.606205 0
M  V30 324 H 30.739 -2.35402 -2.0492 0
M  V30 325 N 31.0401 0.771051 -1.3745 0
M  V30 326 C 31.9701 1.89827 -1.3597 0
M  V30 327 C 32.9511 1.68562 -0.228216 0
M  V30 328 O 34.1361 1.8941 -0.428675 0
M  V30 329 C 31.2661 3.2712 -1.16662 0
M  V30 330 C 30.2201 3.6295 -2.2683 0
M  V30 331 C 29.5461 4.98791 -1.92644 0
M  V30 332 C 30.8461 3.69627 -3.69017 0
M  V30 333 H 32.5401 1.91323 -2.30295 0
M  V30 334 H 30.0861 0.919082 -1.10855 0
M  V30 335 H 32.0391 4.05615 -1.14256 0
M  V30 336 H 30.7631 3.26059 -0.187926 0
M  V30 337 H 29.4221 2.86763 -2.28392 0
M  V30 338 H 29.0701 4.94271 -0.933021 0
M  V30 339 H 28.7701 5.23733 -2.66416 0
M  V30 340 H 30.2941 5.79685 -1.91826 0
M  V30 341 H 31.7081 4.38273 -3.69581 0
M  V30 342 H 30.1051 4.06067 -4.41848 0
M  V30 343 H 31.1751 2.70273 -4.02592 0
M  V30 344 N 32.5182 1.22032 0.997298 0
M  V30 345 C 33.4812 0.987909 2.06816 0
M  V30 346 C 34.4812 -0.0440084 1.6074 0
M  V30 347 O 35.6712 0.194053 1.73116 0
M  V30 348 C 32.8032 0.49132 3.37341 0
M  V30 349 H 33.9962 1.93803 2.28868 0
M  V30 350 H 31.5492 1.03838 1.16822 0
M  V30 351 H 32.2842 -0.463364 3.20973 0
M  V30 352 H 32.0692 1.23575 3.72118 0
M  V30 353 H 33.5592 0.348824 4.16141 0
M  V30 354 N 33.9963 -1.19345 1.0293 0
M  V30 355 C 35.2443 -1.88665 0.724574 0
M  V30 356 C 35.5653 -1.80036 -0.749144 0
M  V30 357 O 34.8353 -1.2111 -1.53978 0
M  V30 358 H 33.4153 -0.698406 0.265025 0
M  V30 359 H 36.0773 -1.44885 1.30362 0
M  V30 360 H 35.1733 -2.94987 1.01926 0
M  V30 361 N 35.4744 -0.807222 -1.35358 0
M  V30 362 C 36.8854 -0.44876 -1.81226 0
M  V30 363 C 37.2364 1.02929 -1.67033 0
M  V30 364 O 36.3614 1.79991 -1.20133 0
M  V30 365 C 36.9564 -0.807774 -3.2903 0
M  V30 366 C 35.5154 -0.501901 -3.73039 0
M  V30 367 C 34.6624 -1.03304 -2.57339 0
M  V30 368 H 37.6134 -0.998808 -1.23327 0
M  V30 369 H 37.6344 -0.10554 -3.80354 0
M  V30 370 H 37.1464 -1.88357 -3.39328 0
M  V30 371 H 35.2474 0.565128 -3.68289 0
M  V30 372 H 35.3604 -1.03497 -4.67787 0
M  V30 373 H 33.7244 -0.455339 -2.50597 0
M  V30 374 H 34.5074 -2.11496 -2.70415 0
M  V30 375 N 36.9525 1.47285 -0.560781 0
M  V30 376 C 37.9155 2.28535 0.174488 0
M  V30 377 C 38.9155 1.37153 0.839388 0
M  V30 378 O 40.1055 1.59748 0.694702 0
M  V30 379 C 37.2375 3.16934 1.25561 0
M  V30 380 H 38.4305 2.95012 -0.539262 0
M  V30 381 H 35.9835 1.53034 -0.317865 0
M  V30 382 H 36.7185 2.55157 2.00164 0
M  V30 383 H 36.5035 3.8419 0.783604 0
M  V30 384 H 37.9935 3.78143 1.77193 0
M  V30 385 N 38.4306 0.297415 1.54768 0
M  V30 386 C 39.6556 -0.318435 2.04941 0
M  V30 387 C 40.0806 -1.4701 1.17345 0
M  V30 388 O 39.4386 -1.80436 0.176758 0
M  V30 389 C 39.4866 -0.755749 3.52592 0
M  V30 390 O 38.5906 -1.86088 3.68028 0
M  V30 391 H 37.9316 -0.062421 0.661059 0
M  V30 392 H 40.4616 0.438215 1.99852 0
M  V30 393 H 40.4716 -1.04552 3.94376 0
M  V30 394 H 39.1466 0.0867233 4.1581 0
M  V30 395 H 37.7236 -1.57193 3.38149 0
M  V30 396 N 39.9087 -1.5758 0.0250728 0
M  V30 397 C 41.1547 -1.91917 -0.655413 0
M  V30 398 C 41.4877 -0.901433 -1.72011 0
M  V30 399 O 40.7627 0.0764069 -1.9435 0
M  V30 400 C 41.0457 -3.36751 -1.27558 0
M  V30 401 C 40.8987 -4.49258 -0.220719 0
M  V30 402 C 42.2177 -3.81469 -2.19475 0
M  V30 403 H 39.3367 -0.697925 -0.23679 0
M  V30 404 H 41.9787 -1.89825 0.0815036 0
M  V30 405 H 40.1287 -3.38664 -1.90365 0
M  V30 406 H 41.8007 -4.59478 0.409601 0
M  V30 407 H 40.0437 -4.31415 0.454264 0
M  V30 408 H 40.7147 -5.47618 -0.694175 0
M  V30 409 H 43.1907 -3.81266 -1.66659 0
M  V30 410 H 42.0667 -4.83512 -2.59822 0
M  V30 411 H 42.3277 -3.16744 -3.08424 0
M  V30 412 N 41.3868 0.248026 -1.55636 0
M  V30 413 C 42.7978 0.817177 -1.67866 0
M  V30 414 C 43.1488 1.86069 -0.622322 0
M  V30 415 O 42.2738 2.15157 0.231618 0
M  V30 416 C 42.8688 1.489 -3.04326 0
M  V30 417 C 41.4278 2.00587 -3.185 0
M  V30 418 C 40.5748 0.856573 -2.63739 0
M  V30 419 H 43.5258 0.0238579 -1.58682 0
M  V30 420 H 43.5468 2.35698 -2.98708 0
M  V30 421 H 43.0588 0.729279 -3.81186 0
M  V30 422 H 41.1598 2.79443 -2.4646 0
M  V30 423 H 41.2728 2.20402 -4.25393 0
M  V30 424 H 39.6368 1.25678 -2.21534 0
M  V30 425 H 40.4198 0.109953 -3.43124 0
M  V30 426 N 42.8649 1.48995 0.513639 0
M  V30 427 C 44.0929 1.61531 1.29288 0
M  V30 428 C 44.5079 0.281801 1.86685 0
M  V30 429 O 43.8649 -0.731111 1.67215 0
M  V30 430 C 43.9159 2.67449 2.43215 0
M  V30 431 O 43.6369 3.95626 1.88179 0
M  V30 432 C 45.1379 2.90575 3.34785 0
M  V30 433 H 42.3579 0.544165 0.392588 0
M  V30 434 H 44.9019 1.9494 0.617956 0
M  V30 435 H 43.0569 2.36853 3.0656 0
M  V30 436 H 43.4709 4.53868 2.62876 0
M  V30 437 H 44.9449 3.68449 4.11035 0
M  V30 438 H 45.4219 2.00011 3.91015 0
M  V30 439 H 46.0279 3.22538 2.77218 0
M  V30 440 N 44.343 -0.763751 1.37857 0
M  V30 441 C 45.571 -1.55293 1.36718 0
M  V30 442 C 45.986 -1.88745 -0.0455434 0
M  V30 443 O 45.343 -1.52039 -1.00947 0
M  V30 444 C 45.394 -2.85831 2.2132 0
M  V30 445 O 45.115 -2.5381 3.57089 0
M  V30 446 C 46.616 -3.80023 2.28249 0
M  V30 447 H 43.836 -0.480841 0.468009 0
M  V30 448 H 46.38 -0.946009 1.81303 0
M  V30 449 H 44.535 -3.42926 1.80223 0
M  V30 450 H 44.949 -3.37459 4.01524 0
M  V30 451 H 46.423 -4.68599 2.91752 0
M  V30 452 H 46.9 -4.1973 1.2932 0
M  V30 453 H 47.506 -3.28855 2.69693 0
M  V30 454 N 45.8211 -1.22559 -0.990812 0
M  V30 455 C 47.0611 -1.06302 -1.74583 0
M  V30 456 C 47.4251 0.394737 -1.87898 0
M  V30 457 O 48.6261 0.678214 -2.60103 0
M  V30 458 C 46.8971 -1.75699 -3.11231 0
M  V30 459 S 48.4561 -1.74882 -4.02445 0
M  V30 460 H 45.2741 -0.380639 -0.600529 0
M  V30 461 H 47.8761 -1.55532 -1.18449 0
M  V30 462 H 46.5801 -2.80923 -2.99183 0
M  V30 463 H 46.1111 -1.26708 -3.72436 0
M  V30 464 H 48.1261 -0.799997 -4.89709 0
M  V30 465 N 47.2992 1.18797 -1.03562 0
M  V30 466 C 48.5392 1.90346 -0.744832 0
M  V30 467 C 48.9032 1.78231 0.713972 0
M  V30 468 O 50.1042 2.44441 1.11813 0
M  V30 469 C 48.3752 3.36942 -1.19184 0
M  V30 470 S 49.9342 4.26638 -1.02593 0
M  V30 471 H 46.7522 0.657343 -0.270963 0
M  V30 472 H 49.3542 1.43579 -1.32685 0
M  V30 473 H 48.0582 3.43287 -2.24905 0
M  V30 474 H 47.5892 3.88745 -0.603397 0
M  V30 475 H 49.6042 4.96164 0.0596033 0
M  V30 476 N 48.7773 0.814389 1.34928 0
M  V30 477 C 50.0243 0.398423 1.98542 0
M  V30 478 C 50.3523 -1.03638 1.64589 0
M  V30 479 O 49.6073 -1.73509 0.90516 0
M  V30 480 C 49.9063 0.537781 3.53331 0
M  V30 481 C 49.5723 1.93704 4.07172 0
M  V30 482 C 48.2343 2.31984 4.21589 0
M  V30 483 C 50.5863 2.85213 4.36237 0
M  V30 484 C 47.9143 3.61125 4.62391 0
M  V30 485 C 50.2663 4.13809 4.78482 0
M  V30 486 C 48.9303 4.52077 4.91104 0
M  V30 487 H 48.2003 0.145793 0.726516 0
M  V30 488 H 50.8473 1.03669 1.61012 0
M  V30 489 H 49.1523 -0.183906 3.91368 0
M  V30 490 H 50.8493 0.196588 4.00518 0
M  V30 491 H 47.4393 1.62966 3.96409 0
M  V30 492 H 51.6233 2.56885 4.24645 0
M  V30 493 H 46.8793 3.90612 4.70353 0
M  V30 494 H 51.0533 4.84811 4.99932 0
M  V30 495 H 48.6803 5.52196 5.22478 0
M  V30 496 N 50.2554 -1.46986 0.568584 0
M  V30 497 C 51.2034 -2.31858 -0.185649 0
M  V30 498 C 52.1974 -1.43624 -0.898249 0
M  V30 499 O 53.4034 -1.60327 -0.818242 0
M  V30 500 H 49.7784 -0.747866 -0.0787399 0
M  V30 501 H 51.7494 -2.93303 0.549191 0
M  V30 502 C 50.4984 -3.26513 -1.19519 0
M  V30 503 H 49.8214 -3.94377 -0.656285 0
M  V30 504 H 51.2614 -3.88707 -1.6936 0
M  V30 505 C 49.7204 -2.50847 -2.24894 0
M  V30 506 O 50.2504 -2.26119 -3.32014 0
M  V30 507 N 48.4564 -2.11656 -1.99124 0
M  V30 508 H 48.0034 -2.31966 -1.12024 0
M  V30 509 H 47.9614 -1.61347 -2.69842 0
M  V30 510 N 51.7335 -0.305618 -1.54608 0
M  V30 511 C 52.6635 0.561482 -2.26649 0
M  V30 512 C 53.6445 1.13415 -1.26772 0
M  V30 513 O 54.8295 1.16262 -1.55553 0
M  V30 514 C 51.9595 1.73122 -3.01075 0
M  V30 515 C 50.9135 1.2887 -4.08138 0
M  V30 516 C 50.2395 2.54396 -4.70305 0
M  V30 517 C 51.5395 0.416578 -5.20636 0
M  V30 518 H 53.2335 -0.0393902 -2.99374 0
M  V30 519 H 50.7795 -0.020385 -1.43986 0
M  V30 520 H 52.7325 2.34396 -3.50195 0
M  V30 521 H 51.4565 2.3584 -2.25936 0
M  V30 522 H 50.1155 0.698991 -3.59875 0
M  V30 523 H 49.7635 3.15439 -3.918 0
M  V30 524 H 49.4635 2.25486 -5.42614 0
M  V30 525 H 50.9875 3.16464 -5.2219 0
M  V30 526 H 52.4015 0.935116 -5.65622 0
M  V30 527 H 50.7985 0.221046 -5.99693 0
M  V30 528 H 51.8685 -0.557162 -4.81688 0
M  V30 529 N 53.2116 1.57565 -0.0334293 0
M  V30 530 C 54.1746 2.09393 0.932048 0
M  V30 531 C 55.1746 1.00986 1.25134 0
M  V30 532 O 56.3646 1.27129 1.19096 0
M  V30 533 C 53.4966 2.56338 2.2473 0
M  V30 534 H 54.6896 2.95984 0.483085 0
M  V30 535 H 52.2426 1.54819 0.21468 0
M  V30 536 H 52.9776 1.7309 2.74245 0
M  V30 537 H 52.7626 3.35542 2.02865 0
M  V30 538 H 54.2526 2.96646 2.93923 0
M  V30 539 N 54.6897 -0.239769 1.55765 0
M  V30 540 C 55.6377 -1.31668 1.91745 0
M  V30 541 C 56.6317 -1.49462 0.797338 0
M  V30 542 O 57.8377 -1.50852 0.982021 0
M  V30 543 H 54.2127 -0.441048 0.609082 0
M  V30 544 H 56.1837 -0.985923 2.81642 0
M  V30 545 C 54.9327 -2.66368 2.2348 0
M  V30 546 H 54.2557 -2.53478 3.09175 0
M  V30 547 H 55.6957 -3.40578 2.52553 0
M  V30 548 C 54.1547 -3.20002 1.05359 0
M  V30 549 O 54.6847 -4.00538 0.305261 0
M  V30 550 N 52.8907 -2.78126 0.842292 0
M  V30 551 H 52.4377 -2.12742 1.45253 0
M  V30 552 H 52.3957 -3.14354 0.053652 0
M  V30 553 N 56.1678 -1.49265 -0.50573 0
M  V30 554 C 57.5838 -1.35923 -0.836486 0
M  V30 555 C 57.7838 -0.388704 -1.97715 0
M  V30 556 O 56.8398 0.181336 -2.51848 0
M  V30 557 C 58.1528 -2.76531 -1.18115 0
M  V30 558 C 59.7008 -2.85197 -1.28964 0
M  V30 559 C 60.1758 -4.26561 -1.66761 0
M  V30 560 N 61.6668 -4.2935 -1.73819 0
M  V30 561 C 62.4018 -5.35693 -2.045 0
M  V30 562 N 61.8978 -6.52287 -2.33438 0
M  V30 563 N 63.6908 -5.23105 -2.05711 0
M  V30 564 H 55.8418 -2.10965 0.246519 0
M  V30 565 H 58.1048 -0.9468 0.0476887 0
M  V30 566 H 57.8108 -3.49226 -0.416398 0
M  V30 567 H 57.6848 -3.11599 -2.1257 0
M  V30 568 H 60.0718 -2.12742 -2.04511 0
M  V30 569 H 60.1528 -2.53718 -0.325704 0
M  V30 570 H 59.7968 -4.99541 -0.917656 0
M  V30 571 H 59.7268 -4.55502 -2.64246 0
M  V30 572 H 62.2178 -3.4526 -1.53635 0
M  V30 573 H 62.5308 -7.29158 -2.56024 0
M  V30 574 H 60.8758 -6.55521 -2.30905 0
M  V30 575 H 64.0668 -4.31026 -1.82577 0
M  V30 576 H 64.2398 -6.06078 -2.29289 0
M  V30 577 N 57.6459 0.756429 -1.3826 0
M  V30 578 C 58.5929 1.87011 -1.35261 0
M  V30 579 C 59.5629 1.64695 -0.215616 0
M  V30 580 O 60.7479 1.864 -0.407399 0
M  V30 581 C 57.8879 3.24275 -1.18068 0
M  V30 582 C 57.0009 3.58442 -2.41129 0
M  V30 583 C 56.1359 4.84994 -2.16689 0
M  V30 584 C 55.1749 5.11939 -3.35537 0
M  V30 585 N 54.3119 6.29685 -3.10549 0
M  V30 586 H 59.1519 1.8891 -2.30472 0
M  V30 587 H 56.6889 0.923373 -1.14509 0
M  V30 588 H 58.6469 4.03479 -1.06116 0
M  V30 589 H 57.2769 3.21711 -0.264973 0
M  V30 590 H 56.3289 2.74103 -2.63764 0
M  V30 591 H 57.6409 3.74283 -3.29717 0
M  V30 592 H 56.7949 5.72135 -2.01857 0
M  V30 593 H 55.5339 4.71286 -1.25462 0
M  V30 594 H 54.5389 4.23268 -3.50891 0
M  V30 595 H 55.7639 5.27546 -4.27635 0
M  V30 596 H 53.7099 6.17306 -2.21967 0
M  V30 597 H 53.6269 6.46014 -3.92686 0
M  V30 598 H 54.8949 7.19722 -2.99367 0
M  V30 599 N 59.124 1.23083 0.984299 0
M  V30 600 C 60.373 1.05466 1.71929 0
M  V30 601 C 60.686 -0.409211 1.91272 0
M  V30 602 O 61.892 -0.705226 2.62181 0
M  V30 603 C 60.348 1.83874 3.09384 0
M  V30 604 C 59.956 3.34566 2.97943 0
M  V30 605 C 61.7 1.74734 3.8687 0
M  V30 606 C 59.607 4.05381 4.30605 0
M  V30 607 H 58.537 0.391039 0.644674 0
M  V30 608 H 61.188 1.47013 1.09815 0
M  V30 609 H 59.57 1.35131 3.72231 0
M  V30 610 H 60.744 3.90767 2.44209 0
M  V30 611 H 59.059 3.44476 2.33934 0
M  V30 612 H 61.656 2.24957 4.85076 0
M  V30 613 H 61.999 0.709372 4.10212 0
M  V30 614 H 62.532 2.21067 3.30717 0
M  V30 615 H 59.271 5.09467 4.1246 0
M  V30 616 H 58.791 3.53967 4.84218 0
M  V30 617 H 60.47 4.11458 4.99311 0
M  V30 618 N 60.6021 -1.18246 1.0419 0
M  V30 619 C 62.0131 -1.69914 0.773698 0
M  V30 620 C 62.3641 -1.83085 -0.705297 0
M  V30 621 O 61.4891 -1.51123 -1.5489 0
M  V30 622 C 62.0841 -3.08619 1.39784 0
M  V30 623 C 60.6431 -3.57494 1.17792 0
M  V30 624 C 59.7901 -2.34013 1.48773 0
M  V30 625 H 62.7411 -1.02904 1.20816 0
M  V30 626 H 62.7621 -3.71958 0.801714 0
M  V30 627 H 62.2741 -2.99001 2.47426 0
M  V30 628 H 60.3751 -3.72406 0.120295 0
M  V30 629 H 60.4881 -4.40852 1.87581 0
M  V30 630 H 58.8521 -2.37986 0.907463 0
M  V30 631 H 59.6351 -2.27013 2.57527 0
M  V30 632 N 62.0802 -0.821533 -1.34494 0
M  V30 633 C 63.0102 -0.257138 -2.3208 0
M  V30 634 C 63.9912 0.625645 -1.58176 0
M  V30 635 O 65.1762 0.552811 -1.86166 0
M  V30 636 C 62.3062 0.582958 -3.42372 0
M  V30 637 C 61.2602 -0.202571 -4.2752 0
M  V30 638 C 60.5862 0.760179 -5.29269 0
M  V30 639 C 61.8862 -1.40998 -5.02908 0
M  V30 640 H 63.5802 -1.07247 -2.79532 0
M  V30 641 H 61.1262 -0.517163 -1.34393 0
M  V30 642 H 63.0792 0.987972 -4.09655 0
M  V30 643 H 61.8032 1.43133 -2.93565 0
M  V30 644 H 60.4622 -0.588936 -3.61838 0
M  V30 645 H 60.1102 1.60447 -4.76724 0
M  V30 646 H 59.8102 0.238809 -5.87115 0
M  V30 647 H 61.3342 1.16308 -5.9942 0
M  V30 648 H 62.7482 -1.07905 -5.63054 0
M  V30 649 H 61.1452 -1.86689 -5.70322 0
M  V30 650 H 62.2152 -2.1889 -4.32684 0
M  V30 651 N 63.5583 1.46682 -0.576371 0
M  V30 652 C 64.4903 2.28341 0.198231 0
M  V30 653 C 65.5033 1.38141 0.861453 0
M  V30 654 O 66.6923 1.62797 0.732082 0
M  V30 655 C 63.7923 3.12986 1.29972 0
M  V30 656 C 62.9653 4.31271 0.729639 0
M  V30 657 C 62.0243 4.97363 1.71803 0
M  V30 658 O 61.0503 5.55156 1.25658 0
M  V30 659 N 62.2523 4.93796 3.05198 0
M  V30 660 H 65.0173 2.9546 -0.502324 0
M  V30 661 H 62.5783 1.56525 -0.413715 0
M  V30 662 H 64.5703 3.54066 1.96008 0
M  V30 663 H 63.1403 2.47984 1.90323 0
M  V30 664 H 62.3603 3.94052 -0.108012 0
M  V30 665 H 63.6483 5.07739 0.328438 0
M  V30 666 H 63.0463 4.48077 3.45317 0
M  V30 667 H 61.6033 5.38837 3.6674 0
M  V30 668 N 65.0364 0.313813 1.54444 0
M  V30 669 C 66.4524 -0.0391619 1.59552 0
M  V30 670 C 66.6524 -1.51322 1.33056 0
M  V30 671 O 65.7084 -2.26782 1.11022 0
M  V30 672 C 67.0214 0.370302 2.98411 0
M  V30 673 C 68.5694 0.320139 3.11358 0
M  V30 674 C 69.0444 0.704617 4.52547 0
M  V30 675 N 70.5354 0.657645 4.58508 0
M  V30 676 C 71.2704 0.927453 5.6585 0
M  V30 677 N 70.7664 1.26389 6.81174 0
M  V30 678 N 72.5594 0.853662 5.5558 0
M  V30 679 H 64.7104 1.27433 1.69925 0
M  V30 680 H 66.9734 0.517511 0.794284 0
M  V30 681 H 66.6794 1.39694 3.22767 0
M  V30 682 H 66.5534 -0.269619 3.76235 0
M  V30 683 H 68.9404 -0.697275 2.86744 0
M  V30 684 H 69.0214 0.99486 2.35661 0
M  V30 685 H 68.6654 1.7199 4.77893 0
M  V30 686 H 68.5954 0.00768843 5.26599 0
M  V30 687 H 71.0864 0.409067 3.75679 0
M  V30 688 H 71.3994 1.4554 7.58972 0
M  V30 689 H 69.7444 1.30206 6.82694 0
M  V30 690 H 72.9354 0.590383 4.64362 0
M  V30 691 H 73.1084 1.0673 6.3915 0
M  V30 692 N 66.5145 -1.57545 0.0417849 0
M  V30 693 C 67.4445 -2.14009 -0.933929 0
M  V30 694 C 68.4255 -1.05938 -1.33083 0
M  V30 695 O 69.6105 -1.33833 -1.40721 0
M  V30 696 C 66.7405 -2.67747 -2.21199 0
M  V30 697 C 65.6945 -3.80718 -1.95544 0
M  V30 698 C 65.0205 -4.20935 -3.29724 0
M  V30 699 C 66.3205 -5.06258 -1.28452 0
M  V30 700 H 68.0145 -2.95788 -0.463645 0
M  V30 701 H 65.5605 -1.42285 -0.221573 0
M  V30 702 H 67.5135 -3.05886 -2.89848 0
M  V30 703 H 66.2375 -1.83147 -2.70416 0
M  V30 704 H 64.8965 -3.43037 -1.2931 0
M  V30 705 H 64.5445 -3.33298 -3.76724 0
M  V30 706 H 64.2445 -4.9707 -3.13361 0
M  V30 707 H 65.7685 -4.61666 -3.9962 0
M  V30 708 H 67.1825 -5.41903 -1.8712 0
M  V30 709 H 65.5795 -5.87475 -1.22445 0
M  V30 710 H 66.6495 -4.84207 -0.259219 0
M  V30 711 N 67.9926 0.231505 -1.5589 0
M  V30 712 C 68.9026 1.308 -1.94752 0
M  V30 713 C 69.9186 1.51826 -0.849989 0
M  V30 714 O 71.0946 1.6515 -1.15271 0
M  V30 715 C 68.1596 2.63968 -2.24771 0
M  V30 716 C 67.2206 2.51331 -3.48039 0
M  V30 717 C 66.4536 3.78148 -3.76616 0
M  V30 718 O 66.6766 4.80722 -3.07022 0
M  V30 719 O 65.6106 3.75857 -4.70123 0
M  V30 720 H 69.4366 1.0083 -2.86474 0
M  V30 721 H 67.0216 0.433547 -1.42971 0
M  V30 722 H 68.9036 3.42633 -2.45318 0
M  V30 723 H 67.5786 2.9364 -1.36225 0
M  V30 724 H 66.4856 1.709 -3.32782 0
M  V30 725 H 67.8186 2.26601 -4.36936 0
M  V30 726 N 69.4707 1.49531 0.497807 0
M  V30 727 C 70.6957 1.63159 1.28039 0
M  V30 728 C 71.1207 0.30418 1.85624 0
M  V30 729 O 70.4787 -0.728618 1.66015 0
M  V30 730 C 70.5267 2.70537 2.38416 0
M  V30 731 O 69.6307 2.29931 3.42353 0
M  V30 732 H 68.9717 0.546001 0.377861 0
M  V30 733 H 71.5017 1.9574 0.59558 0
M  V30 734 H 71.5117 2.92802 2.84132 0
M  V30 735 H 70.1867 3.6689 1.95869 0
M  V30 736 H 68.7637 2.18009 3.02533 0
M  V30 737 N 70.9488 -0.749086 1.3866 0
M  V30 738 C 72.1788 -1.53611 1.38157 0
M  V30 739 C 72.5868 -1.89177 -0.0293595 0
M  V30 740 O 71.9298 -1.53606 -1.00752 0
M  V30 741 C 71.9918 -2.86087 2.17702 0
M  V30 742 C 71.6558 -2.73034 3.66472 0
M  V30 743 C 72.6528 -2.42526 4.59866 0
M  V30 744 C 70.3378 -2.90345 4.09884 0
M  V30 745 C 72.3318 -2.29492 5.94653 0
M  V30 746 C 70.0188 -2.7693 5.4475 0
M  V30 747 C 71.0168 -2.46547 6.36949 0
M  V30 748 O 70.7048 -2.33199 7.69333 0
M  V30 749 H 70.4368 -0.481773 0.474205 0
M  V30 750 H 72.9908 -0.934465 1.82912 0
M  V30 751 H 71.2208 -3.48458 1.67672 0
M  V30 752 H 72.9098 -3.47625 2.09551 0
M  V30 753 H 73.6758 -2.28816 4.27631 0
M  V30 754 H 69.5548 -3.1299 3.38464 0
M  V30 755 H 73.0988 -2.05698 6.66584 0
M  V30 756 H 68.9958 -2.90215 5.76581 0
M  V30 757 H 69.7638 -2.48376 7.79905 0
M  V30 758 N 72.4269 -1.23603 -0.977757 0
M  V30 759 C 73.8429 -0.999251 -1.24447 0
M  V30 760 C 74.0429 0.298053 -1.99283 0
M  V30 761 O 73.0989 1.01681 -2.31122 0
M  V30 762 C 74.4119 -2.20784 -2.04144 0
M  V30 763 C 75.9599 -2.25303 -2.17273 0
M  V30 764 C 76.4349 -3.45755 -3.00362 0
M  V30 765 N 77.9259 -3.4601 -3.07947 0
M  V30 766 C 78.6609 -4.35868 -3.72568 0
M  V30 767 N 78.1569 -5.35966 -4.38991 0
M  V30 768 N 79.9499 -4.23605 -3.6948 0
M  V30 769 H 72.1009 -2.06986 -0.476483 0
M  V30 770 H 74.3639 -0.907801 -0.273134 0
M  V30 771 H 74.0699 -3.14945 -1.56533 0
M  V30 772 H 73.9439 -2.22085 -3.04891 0
M  V30 773 H 76.3309 -1.3168 -2.64092 0
M  V30 774 H 76.4119 -2.28033 -1.15907 0
M  V30 775 H 76.0559 -4.39687 -2.5424 0
M  V30 776 H 75.9859 -3.40266 -4.01904 0
M  V30 777 H 78.4769 -2.73588 -2.60688 0
M  V30 778 H 78.7899 -6.00783 -4.86086 0
M  V30 779 H 77.1349 -5.39863 -4.37691 0
M  V30 780 H 80.3259 -3.44647 -3.16759 0
M  V30 781 H 80.4989 -4.93836 -4.1956 0
M  V30 782 N 73.905 1.17692 -1.04816 0
M  V30 783 C 75.321 1.39863 -0.768794 0
M  V30 784 C 75.521 1.91118 0.638451 0
M  V30 785 O 74.577 2.10036 1.40146 0
M  V30 786 C 75.89 2.39274 -1.82122 0
M  V30 787 C 77.438 2.52987 -1.843 0
M  V30 788 C 77.913 3.55669 -2.88555 0
M  V30 789 N 79.404 3.63183 -2.87493 0
M  V30 790 C 80.139 4.42381 -3.64811 0
M  V30 791 N 79.635 5.25125 -4.51903 0
M  V30 792 N 81.428 4.37217 -3.53267 0
M  V30 793 H 73.579 0.82752 -1.95617 0
M  V30 794 H 75.842 0.426123 -0.846831 0
M  V30 795 H 75.548 2.08678 -2.83102 0
M  V30 796 H 75.422 3.38725 -1.65967 0
M  V30 797 H 77.809 2.82896 -0.839869 0
M  V30 798 H 77.89 1.53623 -2.04532 0
M  V30 799 H 77.534 3.26499 -3.89051 0
M  V30 800 H 77.464 4.54728 -2.65575 0
M  V30 801 H 79.955 3.04103 -2.24343 0
M  V30 802 H 80.268 5.82728 -5.07591 0
M  V30 803 H 78.613 5.24519 -4.55966 0
M  V30 804 H 81.804 3.71626 -2.84625 0
M  V30 805 H 81.977 4.98696 -4.13771 0
M  V30 806 N 75.3831 0.828654 1.34056 0
M  V30 807 C 76.6321 0.415828 1.97367 0
M  V30 808 C 76.9451 -1.02796 1.6641 0
M  V30 809 O 78.1511 -1.54497 2.23255 0
M  V30 810 C 76.6071 0.692601 3.53173 0
M  V30 811 C 76.2151 2.15038 3.93017 0
M  V30 812 C 77.9591 0.346222 4.23086 0
M  V30 813 C 75.8661 2.37174 5.41758 0
M  V30 814 H 74.7961 0.151755 0.738571 0
M  V30 815 H 77.4471 1.01581 1.52819 0
M  V30 816 H 75.8291 0.0223764 3.95994 0
M  V30 817 H 77.0031 2.86024 3.61285 0
M  V30 818 H 75.3181 2.45875 3.36057 0
M  V30 819 H 77.9151 0.48937 5.32456 0
M  V30 820 H 78.2581 -0.709842 4.10204 0
M  V30 821 H 78.7911 0.971258 3.85761 0
M  V30 822 H 75.5301 3.41308 5.59633 0
M  V30 823 H 75.0501 1.70738 5.74986 0
M  V30 824 H 76.7291 2.19818 6.08514 0
M  V30 825 N 76.8612 -1.46375 0.584142 0
M  V30 826 C 78.0892 -2.06761 0.0759296 0
M  V30 827 C 78.5042 -1.43266 -1.22965 0
M  V30 828 O 77.8612 -0.538458 -1.74376 0
M  V30 829 C 77.9122 -3.61375 -0.0950384 0
M  V30 830 O 77.6332 -4.22495 1.15887 0
M  V30 831 C 79.1342 -4.38693 -0.637434 0
M  V30 832 H 76.3542 -0.668479 0.0581075 0
M  V30 833 H 78.8982 -1.8798 0.805218 0
M  V30 834 H 77.0532 -3.79578 -0.774554 0
M  V30 835 H 77.4672 -5.15385 0.973598 0
M  V30 836 H 78.9412 -5.47464 -0.706237 0
M  V30 837 H 79.4182 -4.06836 -1.65472 0
M  V30 838 H 80.0242 -4.25299 0.00725967 0
M  V30 839 N 78.3393 -0.321999 -1.54275 0
M  V30 840 C 79.5643 0.285791 -2.05422 0
M  V30 841 C 79.9893 1.45124 -1.19669 0
M  V30 842 O 79.3473 1.80132 -0.205441 0
M  V30 843 C 79.3953 0.69956 -3.53749 0
M  V30 844 O 78.4993 1.8021 -3.70942 0
M  V30 845 H 77.8403 0.0518962 -0.661969 0
M  V30 846 H 80.3703 -0.469954 -1.9913 0
M  V30 847 H 80.3803 0.982649 -3.9599 0
M  V30 848 H 79.0553 -0.152864 -4.15619 0
M  V30 849 H 77.6323 1.51794 -3.40607 0
M  V30 850 N 79.8174 1.5752 -0.0501392 0
M  V30 851 C 81.0654 1.9227 0.622642 0
M  V30 852 C 81.3864 0.929083 1.71444 0
M  V30 853 O 80.6564 -0.0262186 1.95882 0
M  V30 854 H 79.2364 0.709739 0.232981 0
M  V30 855 H 81.8984 1.94628 -0.102898 0
M  V30 856 H 80.9944 2.93479 1.06191 0
M  V30 857 N 81.2955 -0.223234 1.56011 0
M  V30 858 C 82.2425 -1.27664 1.92277 0
M  V30 859 C 83.2125 -1.46659 0.779763 0
M  V30 860 O 84.3975 -1.60256 1.03551 0
M  V30 861 C 81.5375 -2.62234 2.24338 0
M  V30 862 C 80.6505 -2.51051 3.51564 0
M  V30 863 C 79.7855 -3.78133 3.7308 0
M  V30 864 C 78.8245 -3.61665 4.93827 0
M  V30 865 N 77.9615 -4.80693 5.11741 0
M  V30 866 H 82.8015 -0.960358 2.82101 0
M  V30 867 H 80.3385 -0.462901 1.39627 0
M  V30 868 H 82.2965 -3.40596 2.40936 0
M  V30 869 H 80.9265 -2.91961 1.3769 0
M  V30 870 H 79.9785 -1.64132 3.43169 0
M  V30 871 H 81.2905 -2.34803 4.40079 0
M  V30 872 H 80.4445 -4.64938 3.89766 0
M  V30 873 H 79.1835 -3.97304 2.82844 0
M  V30 874 H 78.1885 -2.73244 4.77093 0
M  V30 875 H 79.4135 -3.43966 5.85546 0
M  V30 876 H 77.3595 -5.00181 4.24446 0
M  V30 877 H 77.2765 -4.67165 5.94384 0
M  V30 878 H 78.5445 -5.6893 5.3286 0
M  V30 879 N 82.7736 -1.49793 -0.48987 0
M  V30 880 C 84.0136 -1.61466 -1.25332 0
M  V30 881 C 84.3776 -0.299688 -1.89647 0
M  V30 882 O 85.5786 -0.291687 -2.67213 0
M  V30 883 C 83.8496 -2.74944 -2.28343 0
M  V30 884 S 85.4086 -3.06637 -3.13878 0
M  V30 885 H 82.2266 -0.569411 -0.425784 0
M  V30 886 H 84.8286 -1.875 -0.553541 0
M  V30 887 H 83.5326 -3.68994 -1.79643 0
M  V30 888 H 83.0636 -2.50938 -3.02975 0
M  V30 889 H 85.0786 -2.49015 -4.29192 0
M  V30 890 N 84.2517 0.741722 -1.39055 0
M  V30 891 C 85.6627 1.31966 -1.32068 0
M  V30 892 C 86.0137 1.96192 0.0180797 0
M  V30 893 O 85.1387 1.95861 0.920196 0
M  V30 894 C 85.7337 2.39954 -2.39181 0
M  V30 895 C 84.2927 2.93438 -2.35735 0
M  V30 896 C 83.4397 1.66936 -2.21422 0
M  V30 897 H 86.3907 0.539721 -1.4924 0
M  V30 898 H 86.4117 3.20182 -2.05581 0
M  V30 899 H 85.9237 1.9318 -3.36605 0
M  V30 900 H 84.0247 3.4451 -1.41929 0
M  V30 901 H 84.1377 3.4701 -3.30335 0
M  V30 902 H 82.5017 1.91016 -1.68478 0
M  V30 903 H 83.2847 1.22224 -3.20806 0
M  V30 904 N 85.7298 1.2412 0.971189 0
M  V30 905 C 86.6618 0.988349 2.06795 0
M  V30 906 C 87.6748 -0.0409541 1.62748 0
M  V30 907 O 88.8638 0.195673 1.77424 0
M  V30 908 C 85.9638 0.469023 3.35639 0
M  V30 909 C 85.1368 1.56065 4.08611 0
M  V30 910 C 84.1958 1.04458 5.15728 0
M  V30 911 O 83.2218 1.73553 5.42096 0
M  V30 912 N 84.4238 -0.122817 5.8037 0
M  V30 913 H 87.1888 1.93265 2.29061 0
M  V30 914 H 84.7498 1.15102 1.13856 0
M  V30 915 H 86.7418 0.108613 4.04554 0
M  V30 916 H 85.3118 -0.380919 3.1027 0
M  V30 917 H 84.5318 2.09341 3.34021 0
M  V30 918 H 85.8198 2.29449 4.54126 0
M  V30 919 H 85.2178 -0.700563 5.61345 0
M  V30 920 H 83.7748 -0.424404 6.50417 0
M  V30 921 N 87.2079 -1.17134 1.05439 0
M  V30 922 C 88.1549 -2.21235 0.657539 0
M  V30 923 C 89.1249 -1.62551 -0.341543 0
M  V30 924 O 90.3099 -1.89379 -0.232393 0
M  V30 925 C 87.4499 -3.45076 0.0410575 0
M  V30 926 C 86.5629 -4.18042 1.08927 0
M  V30 927 C 85.6979 -5.29376 0.439848 0
M  V30 928 C 84.7369 -5.94132 1.4722 0
M  V30 929 N 83.8739 -6.96975 0.846756 0
M  V30 930 H 88.7139 -2.54534 1.54972 0
M  V30 931 H 86.2509 -1.25028 0.775006 0
M  V30 932 H 88.2089 -4.15862 -0.33383 0
M  V30 933 H 86.8389 -3.12353 -0.814568 0
M  V30 934 H 85.8909 -3.45945 1.58196 0
M  V30 935 H 87.2029 -4.62306 1.87282 0
M  V30 936 H 86.3569 -6.06699 0.0115125 0
M  V30 937 H 85.0959 -4.86251 -0.375656 0
M  V30 938 H 84.1009 -5.15538 1.91052 0
M  V30 939 H 85.3259 -6.39337 2.28965 0
M  V30 940 H 83.2719 -6.5598 0.0518075 0
M  V30 941 H 83.1889 -7.39565 1.5678 0
M  V30 942 H 84.4569 -7.78239 0.443277 0
M  V30 943 N 88.686 -0.835752 -1.33615 0
M  V30 944 C 89.649 -0.272 -2.2758 0
M  V30 945 C 90.649 0.557487 -1.50827 0
M  V30 946 O 91.839 0.37173 -1.70188 0
M  V30 947 C 88.971 0.617173 -3.35267 0
M  V30 948 H 90.164 -1.10111 -2.78954 0
M  V30 949 H 87.717 -0.608594 -1.43965 0
M  V30 950 H 88.452 1.46884 -2.89129 0
M  V30 951 H 88.237 0.0237066 -3.92093 0
M  V30 952 H 89.727 1.005 -4.05326 0
M  V30 953 N 90.1641 1.46063 -0.591896 0
M  V30 954 C 91.4101 2.02638 -0.0811191 0
M  V30 955 C 91.7431 1.4613 1.27905 0
M  V30 956 O 91.0181 0.629908 1.84017 0
M  V30 957 C 91.3011 3.60091 -0.0252436 0
M  V30 958 C 91.1541 4.26965 -1.41496 0
M  V30 959 C 92.4731 4.3496 0.670685 0
M  V30 960 H 89.5921 0.73635 -0.0309524 0
M  V30 961 H 92.2341 1.741 -0.760859 0
M  V30 962 H 90.3841 3.84535 0.553624 0
M  V30 963 H 92.0561 4.13756 -2.0397 0
M  V30 964 H 90.2991 3.85971 -1.98011 0
M  V30 965 H 90.9701 5.35781 -1.32825 0
M  V30 966 H 93.4461 4.15716 0.178825 0
M  V30 967 H 92.3221 5.44686 0.678837 0
M  V30 968 H 92.5831 4.06685 1.73379 0
M  V30 969 N 91.6422 0.330177 1.54103 0
M  V30 970 C 92.8912 -0.271336 1.99867 0
M  V30 971 C 93.2042 -1.52723 1.22209 0
M  V30 972 O 94.4102 -2.20515 1.58383 0
M  V30 973 C 92.8662 -0.534032 3.55916 0
M  V30 974 C 92.4742 0.705193 4.42415 0
M  V30 975 C 94.2182 -1.09514 4.1013 0
M  V30 976 C 92.1252 0.414035 5.89949 0
M  V30 977 H 91.0552 -0.105166 0.74663 0
M  V30 978 H 93.7062 0.443429 1.78062 0
M  V30 979 H 92.0882 -1.30915 3.73734 0
M  V30 980 H 93.2622 1.4804 4.36372 0
M  V30 981 H 91.5772 1.18698 3.99124 0
M  V30 982 H 94.1742 -1.3277 5.17954 0
M  V30 983 H 94.5172 -2.04656 3.62521 0
M  V30 984 H 95.0502 -0.381038 3.95971 0
M  V30 985 H 91.7892 1.33481 6.41766 0
M  V30 986 H 91.3092 -0.323336 5.98928 0
M  V30 987 H 92.9882 0.0263105 6.46995 0
M  V30 988 N 93.1203 -1.57491 0.0584922 0
M  V30 989 C 94.3673 -1.92978 -0.613648 0
M  V30 990 C 94.6953 -0.937461 -1.70417 0
M  V30 991 O 93.9503 0.049078 -1.95638 0
M  V30 992 C 94.2493 -3.3513 -1.24188 0
M  V30 993 C 93.9153 -4.50037 -0.278826 0
M  V30 994 C 92.5773 -4.81198 -0.0138447 0
M  V30 995 C 94.9293 -5.19807 0.380777 0
M  V30 996 C 92.2573 -5.79473 0.918052 0
M  V30 997 C 94.6093 -6.19079 1.30091 0
M  V30 998 C 93.2733 -6.48665 1.57449 0
M  V30 999 H 92.5433 -0.706157 -0.22455 0
M  V30 1000 H 95.1903 -1.91082 0.126533 0
M  V30 1001 H 93.4953 -3.33429 -2.05749 0
M  V30 1002 H 95.1923 -3.59871 -1.769 0
M  V30 1003 H 91.7823 -4.25726 -0.495539 0
M  V30 1004 H 95.9663 -4.95939 0.189158 0
M  V30 1005 H 91.2223 -6.00727 1.1374 0
M  V30 1006 H 95.3963 -6.7225 1.81804 0
M  V30 1007 H 93.0233 -7.24628 2.29822 0
M  V30 1008 N 94.5984 0.214957 -1.56127 0
M  V30 1009 C 95.5454 1.26642 -1.92952 0
M  V30 1010 C 96.5154 1.46244 -0.78753 0
M  V30 1011 O 97.7004 1.59704 -1.04399 0
M  V30 1012 C 94.8404 2.6104 -2.25726 0
M  V30 1013 C 93.9534 2.49183 -3.52891 0
M  V30 1014 C 93.0884 3.76149 -3.7508 0
M  V30 1015 C 92.1274 3.59041 -4.95738 0
M  V30 1016 N 91.2644 4.77972 -5.14283 0
M  V30 1017 H 96.1044 0.945384 -2.82607 0
M  V30 1018 H 93.6414 0.455489 -1.3987 0
M  V30 1019 H 95.5994 3.39313 -2.42739 0
M  V30 1020 H 94.2294 2.91227 -1.39236 0
M  V30 1021 H 93.2814 1.6231 -3.44034 0
M  V30 1022 H 94.5934 2.32466 -4.41318 0
M  V30 1023 H 93.7474 4.62865 -3.92226 0
M  V30 1024 H 92.4864 3.95799 -2.84947 0
M  V30 1025 H 91.4914 2.7071 -4.78535 0
M  V30 1026 H 92.7164 3.40856 -5.87362 0
M  V30 1027 H 90.6624 4.97923 -4.27093 0
M  V30 1028 H 90.5794 4.64006 -5.96853 0
M  V30 1029 H 91.8474 5.66096 -5.35869 0
M  V30 1030 N 96.0765 1.50051 0.48192 0
M  V30 1031 C 97.3045 1.64237 1.25832 0
M  V30 1032 C 97.7195 0.321336 1.86045 0
M  V30 1033 O 97.0765 -0.695478 1.68729 0
M  V30 1034 C 97.1275 2.72548 2.37487 0
M  V30 1035 O 96.8485 3.99529 1.79745 0
M  V30 1036 C 98.3495 2.9761 3.28547 0
M  V30 1037 H 95.5695 0.55237 0.380957 0
M  V30 1038 H 98.1135 1.96207 0.576467 0
M  V30 1039 H 96.2685 2.43303 3.01467 0
M  V30 1040 H 96.6825 4.59342 2.5319 0
M  V30 1041 H 98.1565 3.77084 4.03127 0
M  V30 1042 H 98.6335 2.0826 3.86684 0
M  V30 1043 H 99.2395 3.28345 2.70314 0
M  V30 1044 N 97.5546 -0.734337 1.39446 0
M  V30 1045 C 98.5016 -1.84835 1.38219 0
M  V30 1046 C 99.4716 -1.64331 0.24179 0
M  V30 1047 O 100.657 -1.85728 0.437002 0
M  V30 1048 C 97.7966 -3.22355 1.23212 0
M  V30 1049 C 96.9096 -3.5456 2.46801 0
M  V30 1050 C 96.0446 -4.81485 2.24377 0
M  V30 1051 C 95.0836 -5.06536 3.43639 0
M  V30 1052 N 94.2206 -6.24665 3.20528 0
M  V30 1053 H 99.0606 -1.85219 2.33448 0
M  V30 1054 H 96.5976 -0.905039 1.15963 0
M  V30 1055 H 98.5556 -4.0174 1.12522 0
M  V30 1056 H 97.1856 -3.21248 0.316121 0
M  V30 1057 H 96.2376 -2.69872 2.68092 0
M  V30 1058 H 97.5496 -3.6899 3.3563 0
M  V30 1059 H 96.7036 -5.68852 2.10933 0
M  V30 1060 H 95.4426 -4.6923 1.32944 0
M  V30 1061 H 94.4476 -4.17632 3.5758 0
M  V30 1062 H 95.6726 -5.20676 4.35974 0
M  V30 1063 H 93.6186 -6.13696 2.3176 0
M  V30 1064 H 93.5356 -6.39685 4.02913 0
M  V30 1065 H 94.8036 -7.14868 3.10779 0
M  V30 1066 N 99.0327 -1.24633 -0.964593 0
M  V30 1067 C 99.9627 -1.06611 -2.07741 0
M  V30 1068 C 100.944 0.0218666 -1.70086 0
M  V30 1069 O 102.129 -0.145793 -1.93652 0
M  V30 1070 C 99.2587 -0.673444 -3.40708 0
M  V30 1071 C 98.2127 -1.71054 -3.92332 0
M  V30 1072 C 97.5387 -1.17285 -5.21678 0
M  V30 1073 C 98.8387 -3.10718 -4.19824 0
M  V30 1074 H 100.533 -1.99693 -2.23076 0
M  V30 1075 H 98.0787 -0.96152 -1.07195 0
M  V30 1076 H 100.032 -0.534345 -4.17998 0
M  V30 1077 H 98.7557 0.293073 -3.25282 0
M  V30 1078 H 97.4147 -1.83791 -3.17201 0
M  V30 1079 H 97.0627 -0.196847 -5.02615 0
M  V30 1080 H 96.7627 -1.86592 -5.57187 0
M  V30 1081 H 98.2867 -1.04593 -6.01575 0
M  V30 1082 H 99.7007 -3.01192 -4.87808 0
M  V30 1083 H 98.0977 -3.77406 -4.66567 0
M  V30 1084 H 99.1677 -3.58524 -3.26479 0
M  V30 1085 N 100.511 1.16574 -1.06058 0
M  V30 1086 C 101.474 2.19085 -0.673392 0
M  V30 1087 C 102.474 1.5835 0.279648 0
M  V30 1088 O 103.664 1.74088 0.0623488 0
M  V30 1089 C 100.796 3.40899 0.00954234 0
M  V30 1090 H 101.989 2.54853 -1.58081 0
M  V30 1091 H 99.5418 1.30808 -0.855516 0
M  V30 1092 H 100.277 3.10684 0.929826 0
M  V30 1093 H 100.062 3.86233 -0.67573 0
M  V30 1094 H 101.552 4.1675 0.266245 0
M  V30 1095 N 101.989 0.842826 1.3317 0
M  V30 1096 C 102.936 0.276885 2.29133 0
M  V30 1097 C 103.906 -0.609527 1.54512 0
M  V30 1098 O 105.091 -0.546955 1.82792 0
M  V30 1099 C 102.231 -0.538707 3.40869 0
M  V30 1100 C 101.344 0.372169 4.30394 0
M  V30 1101 C 100.479 -0.454908 5.29249 0
M  V30 1102 C 99.5179 0.45411 6.10413 0
M  V30 1103 N 98.6549 -0.335075 7.013 0
M  V30 1104 H 103.495 1.10052 2.76934 0
M  V30 1105 H 101.032 0.554161 1.36262 0
M  V30 1106 H 102.99 -1.02709 4.0436 0
M  V30 1107 H 101.62 -1.32727 2.9425 0
M  V30 1108 H 100.672 0.97888 3.6759 0
M  V30 1109 H 101.984 1.0703 4.87182 0
M  V30 1110 H 101.138 -1.00695 5.98285 0
M  V30 1111 H 99.8769 -1.18646 4.73048 0
M  V30 1112 H 98.8819 1.01813 5.40291 0
M  V30 1113 H 100.107 1.18409 6.68697 0
M  V30 1114 H 98.0529 -1.04994 6.47543 0
M  V30 1115 H 97.9699 0.304262 7.55387 0
M  V30 1116 H 99.2379 -0.869224 7.74638 0
M  V30 1117 N 103.467 -1.45747 0.599634 0
M  V30 1118 C 104.744 -1.95585 0.0240846 0
M  V30 1119 C 105.124 -1.54217 -1.44154 0
M  V30 1120 O 104.472 -0.800903 -2.14004 0
M  V30 1121 C 104.682 -3.48344 0.21385 0
M  V30 1122 C 106.03 -4.24504 0.0904902 0
M  V30 1123 O 107.054 -3.55911 0.143558 0
M  V30 1124 O 105.913 -5.46491 -0.0310766 0
M  V30 1125 H 103.007 -0.82602 -0.0402478 0
M  V30 1126 H 105.553 -1.55951 0.669139 0
M  V30 1127 H 104.325 -3.71397 1.23206 0
M  V30 1128 H 103.948 -3.9485 -0.466842 0
M  V30 1129 N 104.945 -0.338344 -1.53925 0
M  V30 1130 C 106.194 0.260732 -2.00008 0
M  V30 1131 C 106.507 1.52073 -1.23017 0
M  V30 1132 O 107.713 2.19672 -1.5955 0
M  V30 1133 C 106.169 0.51515 -3.56194 0
M  V30 1134 C 105.777 -0.728645 -4.42035 0
M  V30 1135 C 107.521 1.07337 -4.10706 0
M  V30 1136 C 105.428 -0.445315 -5.89721 0
M  V30 1137 H 104.358 0.101205 -0.747177 0
M  V30 1138 H 107.009 -0.452866 -1.77824 0
M  V30 1139 H 105.391 1.28932 -3.74423 0
M  V30 1140 H 106.565 -1.50352 -4.35581 0
M  V30 1141 H 104.88 -1.20813 -3.98489 0
M  V30 1142 H 107.477 1.30022 -5.18651 0
M  V30 1143 H 107.82 2.0273 -3.63602 0
M  V30 1144 H 108.353 0.360034 -3.96167 0
M  V30 1145 H 105.092 -1.36883 -6.41049 0
M  V30 1146 H 104.612 0.291569 -5.99091 0
M  V30 1147 H 106.291 -0.0606218 -6.46972 0
M  V30 1148 N 106.423 1.57458 -0.0668435 0
M  V30 1149 C 107.663 1.95175 0.607116 0
M  V30 1150 C 108.027 0.946039 1.67075 0
M  V30 1151 O 109.228 1.2107 2.39991 0
M  V30 1152 C 107.499 3.37582 1.17358 0
M  V30 1153 S 109.058 3.97271 1.86336 0
M  V30 1154 H 105.876 0.682604 0.19893 0
M  V30 1155 H 108.478 1.95002 -0.139519 0
M  V30 1156 H 107.182 4.08566 0.387553 0
M  V30 1157 H 106.713 3.41288 1.95669 0
M  V30 1158 H 108.728 3.83772 3.14537 0
M  V30 1159 N 107.901 -0.206675 1.56239 0
M  V30 1160 C 108.864 -1.23976 1.92776 0
M  V30 1161 C 109.864 -1.39041 0.807729 0
M  V30 1162 O 111.054 -1.37051 1.0753 0
M  V30 1163 C 108.186 -2.61112 2.19165 0
M  V30 1164 H 109.379 -0.927764 2.85189 0
M  V30 1165 H 106.932 -0.447718 1.4975 0
M  V30 1166 H 107.667 -2.97386 1.29352 0
M  V30 1167 H 107.452 -2.51552 3.00772 0
M  V30 1168 H 108.942 -3.35633 2.48476 0
M  V30 1169 N 109.379 -1.50304 -0.473955 0
M  V30 1170 C 110.656 -1.51667 -1.23518 0
M  V30 1171 C 111.036 -0.259701 -2.09496 0
M  V30 1172 O 110.384 0.756986 -2.15597 0
M  V30 1173 C 110.594 -2.81082 -2.06868 0
M  V30 1174 C 111.942 -3.31631 -2.65153 0
M  V30 1175 O 112.966 -2.82384 -2.17113 0
M  V30 1176 O 111.825 -4.17471 -3.52675 0
M  V30 1177 H 108.919 -0.60822 -0.560355 0
M  V30 1178 H 111.465 -1.62592 -0.486011 0
M  V30 1179 H 110.237 -3.64041 -1.4349 0
M  V30 1180 H 109.86 -2.73146 -2.88924 0
M  V30 1181 N 110.857 0.726932 -1.39834 0
M  V30 1182 C 112.268 1.30558 -1.3346 0
M  V30 1183 C 112.619 1.962 -0.00273003 0
M  V30 1184 O 111.744 1.96826 0.899371 0
M  V30 1185 C 112.339 2.37404 -2.41713 0
M  V30 1186 C 110.898 2.90921 -2.38835 0
M  V30 1187 C 110.045 1.64578 -2.2318 0
M  V30 1188 H 112.996 0.523862 -1.49804 0
M  V30 1189 H 113.017 3.17984 -2.08966 0
M  V30 1190 H 112.529 1.89599 -3.38635 0
M  V30 1191 H 110.63 3.42985 -1.45575 0
M  V30 1192 H 110.743 3.43487 -3.33997 0
M  V30 1193 H 109.107 1.89219 -1.70494 0
M  V30 1194 H 109.89 1.18814 -3.22084 0
M  V30 1195 N 112.336 1.25143 0.95797 0
M  V30 1196 C 113.283 1.05235 2.05412 0
M  V30 1197 C 114.253 -0.0374561 1.66058 0
M  V30 1198 O 115.438 0.119073 1.90428 0
M  V30 1199 C 112.578 0.673589 3.38462 0
M  V30 1200 C 111.691 1.8379 3.90954 0
M  V30 1201 C 110.826 1.40381 5.12315 0
M  V30 1202 C 109.865 2.53746 5.57027 0
M  V30 1203 N 109.002 2.11136 6.69601 0
M  V30 1204 H 113.842 1.99048 2.21774 0
M  V30 1205 H 111.379 0.991277 1.08683 0
M  V30 1206 H 113.337 0.434964 4.14926 0
M  V30 1207 H 111.967 -0.227554 3.21997 0
M  V30 1208 H 111.019 2.18992 3.11041 0
M  V30 1209 H 112.331 2.68937 4.20089 0
M  V30 1210 H 111.485 1.12464 5.96185 0
M  V30 1211 H 110.224 0.523015 4.84887 0
M  V30 1212 H 109.229 2.82412 4.71724 0
M  V30 1213 H 110.454 3.42398 5.86464 0
M  V30 1214 H 108.4 1.25468 6.4389 0
M  V30 1215 H 108.317 2.89832 6.98236 0
M  V30 1216 H 109.585 1.86385 7.56889 0
M  V30 1217 N 113.814 -1.1601 1.06675 0
M  V30 1218 C 114.761 -2.20525 0.680967 0
M  V30 1219 C 115.731 -1.62904 -0.324283 0
M  V30 1220 O 116.916 -1.89615 -0.212294 0
M  V30 1221 C 114.056 -3.45013 0.0776551 0
M  V30 1222 C 113.169 -4.16863 1.13355 0
M  V30 1223 C 112.304 -5.2888 0.49597 0
M  V30 1224 C 111.343 -5.92537 1.53513 0
M  V30 1225 N 110.48 -6.96038 0.920631 0
M  V30 1226 H 115.32 -2.52876 1.57663 0
M  V30 1227 H 112.857 -1.24199 0.788223 0
M  V30 1228 H 114.815 -4.16193 -0.289704 0
M  V30 1229 H 113.445 -3.132 -0.781393 0
M  V30 1230 H 112.497 -3.44248 1.61857 0
M  V30 1231 H 113.809 -4.60294 1.92174 0
M  V30 1232 H 112.963 -6.06653 0.0758604 0
M  V30 1233 H 111.702 -4.86622 -0.324062 0
M  V30 1234 H 110.707 -5.13482 1.9651 0
M  V30 1235 H 111.932 -6.36873 2.35733 0
M  V30 1236 H 109.878 -6.55888 0.12138 0
M  V30 1237 H 109.795 -7.3786 1.64616 0
M  V30 1238 H 111.063 -7.77725 0.525795 0
M  V30 1239 N 115.292 -0.849877 -1.32721 0
M  V30 1240 C 116.239 -0.289033 -2.28983 0
M  V30 1241 C 117.209 0.601324 -1.54833 0
M  V30 1242 O 118.394 0.537253 -1.8308 0
M  V30 1243 C 115.534 0.520623 -3.4115 0
M  V30 1244 C 114.647 -0.394989 -4.3019 0
M  V30 1245 C 113.782 0.426834 -5.29482 0
M  V30 1246 C 112.821 -0.486476 -6.10164 0
M  V30 1247 N 111.958 0.297879 -7.01468 0
M  V30 1248 H 116.798 -1.11519 -2.76347 0
M  V30 1249 H 114.335 -0.56138 -1.35967 0
M  V30 1250 H 116.293 1.00563 -4.04899 0
M  V30 1251 H 114.923 1.31165 -2.9495 0
M  V30 1252 H 113.975 -0.99836 -3.67065 0
M  V30 1253 H 115.287 -1.09612 -4.86607 0
M  V30 1254 H 114.441 0.975205 -5.98811 0
M  V30 1255 H 113.18 1.16136 -4.73671 0
M  V30 1256 H 112.185 -1.04677 -5.39743 0
M  V30 1257 H 113.41 -1.21953 -6.6806 0
M  V30 1258 H 111.356 1.01558 -6.48091 0
M  V30 1259 H 111.273 -0.344318 -7.55216 0
M  V30 1260 H 112.541 0.828131 -7.75089 0
M  V30 1261 N 116.77 1.45427 -0.607355 0
M  V30 1262 C 118.016 2.03097 -0.111035 0
M  V30 1263 C 118.371 1.46735 1.24445 0
M  V30 1264 O 117.664 0.632478 1.8086 0
M  V30 1265 C 117.858 3.57398 -0.0129263 0
M  V30 1266 C 117.687 4.28726 -1.35735 0
M  V30 1267 C 116.457 4.66659 -1.93798 0
M  V30 1268 C 118.655 4.60699 -2.28607 0
M  V30 1269 N 116.637 5.22845 -3.21723 0
M  V30 1270 C 118.008 5.17716 -3.41131 0
M  V30 1271 C 120.063 4.42638 -2.27982 0
M  V30 1272 C 118.766 5.58576 -4.53194 0
M  V30 1273 C 120.792 4.84531 -3.39093 0
M  V30 1274 C 120.154 5.4164 -4.50339 0
M  V30 1275 H 116.253 0.777476 -0.083994 0
M  V30 1276 H 118.837 1.77249 -0.805655 0
M  V30 1277 H 117.008 3.82907 0.650914 0
M  V30 1278 H 118.74 4.01722 0.490033 0
M  V30 1279 H 115.495 4.50207 -1.47007 0
M  V30 1280 H 115.919 5.55438 -3.87063 0
M  V30 1281 H 120.561 3.97798 -1.43235 0
M  V30 1282 H 118.279 6.02382 -5.38667 0
M  V30 1283 H 121.865 4.72289 -3.39757 0
M  V30 1284 H 120.745 5.73461 -5.34895 0
M  V30 1285 N 118.248 0.346503 1.53744 0
M  V30 1286 C 119.494 -0.249473 2.0126 0
M  V30 1287 C 119.827 -1.49965 1.23386 0
M  V30 1288 O 119.102 -1.91811 0.32229 0
M  V30 1289 C 119.385 -0.560643 3.55709 0
M  V30 1290 C 119.238 0.701836 4.44291 0
M  V30 1291 C 120.557 -1.36905 4.18264 0
M  V30 1292 H 117.676 -0.0891987 0.731582 0
M  V30 1293 H 120.318 0.467624 1.84156 0
M  V30 1294 H 118.468 -1.17156 3.70414 0
M  V30 1295 H 120.14 1.33974 4.41417 0
M  V30 1296 H 118.383 1.32612 4.13033 0
M  V30 1297 H 119.054 0.43933 5.50249 0
M  V30 1298 H 121.53 -0.852448 4.07275 0
M  V30 1299 H 120.406 -1.55553 5.26398 0
M  V30 1300 H 120.667 -2.37203 3.73078 0
M  V30 1301 N 119.726 -1.57421 0.075193 0
M  V30 1302 C 120.658 -2.09904 -0.920483 0
M  V30 1303 C 121.671 -1.03191 -1.25918 0
M  V30 1304 O 122.86 -1.30695 -1.21577 0
M  V30 1305 C 119.96 -2.54726 -2.23534 0
M  V30 1306 C 119.133 -3.8505 -2.07498 0
M  V30 1307 C 118.192 -4.15929 -3.22319 0
M  V30 1308 O 117.218 -4.85474 -2.9716 0
M  V30 1309 N 118.42 -3.69745 -4.47514 0
M  V30 1310 H 121.185 -2.95954 -0.472359 0
M  V30 1311 H 118.746 -1.61523 -0.110444 0
M  V30 1312 H 120.738 -2.72443 -2.9926 0
M  V30 1313 H 119.308 -1.73795 -2.59835 0
M  V30 1314 H 118.528 -3.76679 -1.16219 0
M  V30 1315 H 119.816 -4.70348 -1.94038 0
M  V30 1316 H 119.214 -3.13569 -4.7084 0
M  V30 1317 H 117.771 -3.92655 -5.20255 0
M  V30 1318 N 121.204 0.198386 -1.56346 0
M  V30 1319 C 122.481 0.944982 -1.71258 0
M  V30 1320 C 122.861 2.0151 -0.629048 0
M  V30 1321 O 122.209 2.25639 0.360473 0
M  V30 1322 C 122.419 1.5344 -3.1346 0
M  V30 1323 C 123.767 2.01778 -3.73591 0
M  V30 1324 O 124.791 1.63288 -3.16568 0
M  V30 1325 O 123.65 2.72594 -4.73661 0
M  V30 1326 H 120.744 0.442939 -0.69838 0
M  V30 1327 H 123.29 0.188342 -1.68652 0
M  V30 1328 H 122.062 0.762869 -3.83792 0
M  V30 1329 H 121.685 2.35596 -3.20282 0
M  V30 1330 N 122.682 1.50554 0.465978 0
M  V30 1331 C 123.907 1.65838 1.24549 0
M  V30 1332 C 124.332 0.343486 1.84937 0
M  V30 1333 O 123.69 -0.69324 1.67523 0
M  V30 1334 C 123.738 2.75533 2.32624 0
M  V30 1335 O 122.842 2.37142 3.37398 0
M  V30 1336 H 122.183 0.553893 0.366194 0
M  V30 1337 H 124.713 1.96959 0.553927 0
M  V30 1338 H 124.723 2.98763 2.77857 0
M  V30 1339 H 123.398 3.70962 1.88043 0
M  V30 1340 H 121.975 2.24377 2.97841 0
M  V30 1341 N 124.16 -0.719506 1.40217 0
M  V30 1342 C 125.093 -1.84298 1.34571 0
M  V30 1343 C 126.071 -1.61149 0.216741 0
M  V30 1344 O 127.255 -1.84212 0.399756 0
M  V30 1345 C 124.382 -3.20568 1.09335 0
M  V30 1346 C 123.428 -3.62551 2.24631 0
M  V30 1347 S 124.261 -3.7012 3.87004 0
M  V30 1348 C 125.417 -5.09154 3.64024 0
M  V30 1349 H 125.65 -1.88807 2.2965 0
M  V30 1350 H 123.183 -0.885901 1.26456 0
M  V30 1351 H 125.141 -3.99246 0.954602 0
M  V30 1352 H 123.802 -3.13696 0.159164 0
M  V30 1353 H 122.995 -4.61483 2.02606 0
M  V30 1354 H 122.597 -2.91119 2.34789 0
M  V30 1355 H 124.889 -5.95955 3.22248 0
M  V30 1356 H 125.832 -5.36213 4.62473 0
M  V30 1357 H 126.24 -4.79562 2.97793 0
M  V30 1358 N 125.638 -1.25649 -0.95132 0
M  V30 1359 C 126.585 -1.06323 -2.04851 0
M  V30 1360 C 127.555 0.0286491 -1.66075 0
M  V30 1361 O 128.74 -0.12917 -1.90362 0
M  V30 1362 C 125.88 -0.691529 -3.381 0
M  V30 1363 C 124.993 -1.85861 -3.89974 0
M  V30 1364 C 124.128 -1.43096 -5.11563 0
M  V30 1365 C 123.167 -2.56696 -5.55674 0
M  V30 1366 N 122.304 -2.14684 -6.68472 0
M  V30 1367 H 127.144 -2.00222 -2.20715 0
M  V30 1368 H 124.681 -0.997027 -1.08156 0
M  V30 1369 H 126.639 -0.456963 -4.1469 0
M  V30 1370 H 125.269 0.210474 -3.22113 0
M  V30 1371 H 124.321 -2.20639 -3.09875 0
M  V30 1372 H 125.633 -2.71161 -4.18657 0
M  V30 1373 H 124.787 -1.15624 -5.9558 0
M  V30 1374 H 123.526 -0.548722 -4.84603 0
M  V30 1375 H 122.531 -2.84909 -4.7022 0
M  V30 1376 H 123.756 -3.45503 -5.8464 0
M  V30 1377 H 121.702 -1.28881 -6.43215 0
M  V30 1378 H 121.619 -2.9353 -6.96689 0
M  V30 1379 H 122.887 -1.90397 -7.5589 0
M  V30 1380 N 127.117 1.15442 -1.07289 0
M  V30 1381 C 128.347 1.89821 -0.815576 0
M  V30 1382 C 128.755 1.7823 0.634867 0
M  V30 1383 O 128.098 1.13152 1.44715 0
M  V30 1384 C 128.16 3.40817 -1.14385 0
M  V30 1385 C 127.824 3.76193 -2.59476 0
M  V30 1386 C 128.821 3.77269 -3.57721 0
M  V30 1387 C 126.506 4.0652 -2.95037 0
M  V30 1388 C 128.5 4.08176 -4.89562 0
M  V30 1389 C 126.187 4.37092 -4.27076 0
M  V30 1390 C 127.185 4.37902 -5.24148 0
M  V30 1391 O 126.873 4.67741 -6.53815 0
M  V30 1392 H 126.605 0.608465 -0.294528 0
M  V30 1393 H 129.159 1.472 -1.43252 0
M  V30 1394 H 127.389 3.83835 -0.469865 0
M  V30 1395 H 129.078 3.96485 -0.869179 0
M  V30 1396 H 129.844 3.5394 -3.3159 0
M  V30 1397 H 125.723 4.05049 -2.20128 0
M  V30 1398 H 129.267 4.08723 -5.65324 0
M  V30 1399 H 125.164 4.59889 -4.5296 0
M  V30 1400 H 125.932 4.85509 -6.58957 0
M  V30 1401 N 128.595 0.856903 1.32268 0
M  V30 1402 C 129.525 0.31858 2.31316 0
M  V30 1403 C 130.506 -0.583487 1.59779 0
M  V30 1404 O 131.691 -0.503259 1.87566 0
M  V30 1405 C 128.821 -0.491979 3.43798 0
M  V30 1406 C 127.775 0.315849 4.26833 0
M  V30 1407 C 127.101 -0.619586 5.31098 0
M  V30 1408 C 128.401 1.54282 4.98993 0
M  V30 1409 H 130.095 1.14621 2.76591 0
M  V30 1410 H 127.641 0.552613 1.32974 0
M  V30 1411 H 129.594 -0.879012 4.1213 0
M  V30 1412 H 128.318 -1.35299 2.97257 0
M  V30 1413 H 126.977 0.684664 3.6015 0
M  V30 1414 H 126.625 -1.47751 4.8081 0
M  V30 1415 H 126.325 -0.0830621 5.87541 0
M  V30 1416 H 127.849 -1.00375 6.02293 0
M  V30 1417 H 129.263 1.22796 5.59995 0
M  V30 1418 H 127.66 2.01745 5.65172 0
M  V30 1419 H 128.73 2.30285 4.26728 0
M  V30 1420 N 130.073 -1.45103 0.615059 0
M  V30 1421 C 131.35 -1.95549 0.0448276 0
M  V30 1422 C 131.73 -1.55737 -1.4251 0
M  V30 1423 O 131.078 -0.823556 -2.13143 0
M  V30 1424 C 131.288 -3.48098 0.250785 0
M  V30 1425 C 132.636 -4.24384 0.135509 0
M  V30 1426 O 133.66 -3.55738 0.181299 0
M  V30 1427 O 132.519 -5.46493 0.0268878 0
M  V30 1428 H 129.613 -0.8264 -0.0314845 0
M  V30 1429 H 132.159 -1.55232 0.685642 0
M  V30 1430 H 130.931 -3.7007 1.27139 0
M  V30 1431 H 130.554 -3.95323 -0.424937 0
M  V30 1432 N 131.551 -0.354651 -1.53558 0
M  V30 1433 C 132.483 0.5315 -2.22952 0
M  V30 1434 C 133.496 1.05503 -1.23988 0
M  V30 1435 O 134.685 0.963279 -1.50277 0
M  V30 1436 C 131.785 1.74538 -2.90499 0
M  V30 1437 C 130.958 1.35524 -4.15875 0
M  V30 1438 C 130.017 2.42999 -4.66731 0
M  V30 1439 O 129.043 2.05844 -5.30676 0
M  V30 1440 N 130.245 3.74423 -4.43608 0
M  V30 1441 H 133.01 -0.0628615 -2.99634 0
M  V30 1442 H 130.571 -0.179302 -1.60904 0
M  V30 1443 H 132.563 2.45892 -3.21433 0
M  V30 1444 H 131.133 2.24686 -2.17336 0
M  V30 1445 H 130.353 0.471998 -3.91364 0
M  V30 1446 H 131.641 1.07071 -4.97406 0
M  V30 1447 H 131.039 4.07391 -3.92491 0
M  V30 1448 H 129.596 4.41913 -4.7912 0
M  V30 1449 N 133.029 1.57378 -0.0835403 0
M  V30 1450 C 133.976 2.13384 0.879539 0
M  V30 1451 C 134.946 1.04936 1.28754 0
M  V30 1452 O 136.131 1.32662 1.37133 0
M  V30 1453 C 133.271 2.70932 2.13752 0
M  V30 1454 C 132.384 3.93575 1.7811 0
M  V30 1455 C 131.519 4.39326 2.98607 0
M  V30 1456 C 130.558 5.54587 2.59037 0
M  V30 1457 N 129.695 5.95243 3.72331 0
M  V30 1458 H 134.535 2.9537 0.395076 0
M  V30 1459 H 132.072 1.45953 0.183349 0
M  V30 1460 H 134.03 3.02411 2.87408 0
M  V30 1461 H 132.66 1.91693 2.59718 0
M  V30 1462 H 131.712 3.68483 0.94469 0
M  V30 1463 H 133.024 4.77258 1.45005 0
M  V30 1464 H 132.178 4.72528 3.80529 0
M  V30 1465 H 130.917 3.5452 3.34913 0
M  V30 1466 H 129.922 5.21024 1.75539 0
M  V30 1467 H 131.147 6.41133 2.23887 0
M  V30 1468 H 129.093 5.13385 4.08378 0
M  V30 1469 H 129.01 6.73694 3.43034 0
M  V30 1470 H 130.278 6.33072 4.54797 0
M  V30 1471 N 134.507 -0.190092 1.56449 0
M  V30 1472 C 135.732 -0.929864 1.85387 0
M  V30 1473 C 136.157 -1.7585 0.667704 0
M  V30 1474 O 135.515 -1.77198 -0.383459 0
M  V30 1475 C 135.563 -1.79773 3.12593 0
M  V30 1476 O 134.667 -2.89713 2.93496 0
M  V30 1477 H 134.008 -0.261574 0.610307 0
M  V30 1478 H 136.538 -0.193896 2.03679 0
M  V30 1479 H 136.548 -2.20139 3.43515 0
M  V30 1480 H 135.223 -1.18892 3.98544 0
M  V30 1481 H 133.8 -2.53065 2.73884 0
M  V30 1482 N 135.985 -1.50799 -0.457987 0
M  V30 1483 C 137.396 -1.55152 -1.0385 0
M  V30 1484 C 137.747 -0.362719 -1.92818 0
M  V30 1485 O 136.872 0.522915 -2.09987 0
M  V30 1486 C 137.467 -2.81173 -1.89017 0
M  V30 1487 C 136.026 -2.88164 -2.42154 0
M  V30 1488 C 135.173 -2.49591 -1.20829 0
M  V30 1489 H 138.124 -1.56874 -0.240068 0
M  V30 1490 H 138.145 -2.63769 -2.74238 0
M  V30 1491 H 137.657 -3.67677 -1.24238 0
M  V30 1492 H 135.758 -2.06042 -3.10447 0
M  V30 1493 H 135.871 -3.91356 -2.76364 0
M  V30 1494 H 134.235 -2.02322 -1.54719 0
M  V30 1495 H 135.018 -3.38418 -0.576927 0
M  V30 1496 N 137.463 0.71206 -1.40597 0
M  V30 1497 C 138.691 1.50111 -1.42388 0
M  V30 1498 C 139.106 1.88784 -0.0245395 0
M  V30 1499 O 138.463 1.55681 0.952351 0
M  V30 1500 C 138.514 2.7742 -2.31776 0
M  V30 1501 O 138.235 2.40382 -3.66262 0
M  V30 1502 C 139.736 3.7129 -2.42196 0
M  V30 1503 H 136.956 0.46314 -0.485533 0
M  V30 1504 H 139.5 0.878068 -1.8469 0
M  V30 1505 H 137.655 3.36001 -1.92827 0
M  V30 1506 H 138.069 3.22324 -4.13772 0
M  V30 1507 H 139.543 4.57448 -3.08943 0
M  V30 1508 H 140.02 4.14641 -1.44809 0
M  V30 1509 H 140.626 3.18619 -2.81712 0
M  V30 1510 N 138.941 1.26152 0.944643 0
M  V30 1511 C 140.352 1.10454 1.50522 0
M  V30 1512 C 140.703 -0.31635 1.93633 0
M  V30 1513 O 139.828 -1.20746 1.79581 0
M  V30 1514 C 140.423 1.99891 2.73549 0
M  V30 1515 C 138.982 1.88348 3.25886 0
M  V30 1516 C 138.129 1.93447 1.9868 0
M  V30 1517 H 141.08 1.39292 0.760489 0
M  V30 1518 H 141.101 1.54477 3.47732 0
M  V30 1519 H 140.613 3.03297 2.42141 0
M  V30 1520 H 138.714 0.878636 3.62092 0
M  V30 1521 H 138.827 2.73696 3.93227 0
M  V30 1522 H 137.191 1.37456 2.14425 0
M  V30 1523 H 137.974 2.98476 1.69607 0
M  V30 1524 N 140.419 -1.14872 1.07899 0
M  V30 1525 C 141.366 -2.19791 0.704319 0
M  V30 1526 C 142.336 -1.63238 -0.306987 0
M  V30 1527 O 143.521 -1.8983 -0.192171 0
M  V30 1528 C 140.661 -3.44911 0.114244 0
M  V30 1529 C 139.774 -4.15637 1.1777 0
M  V30 1530 C 138.909 -5.28324 0.552037 0
M  V30 1531 C 137.948 -5.90875 1.59789 0
M  V30 1532 N 137.085 -6.95022 0.994404 0
M  V30 1533 H 141.925 -2.5119 1.60336 0
M  V30 1534 H 139.462 -1.23356 0.801352 0
M  V30 1535 H 141.42 -4.16477 -0.245544 0
M  V30 1536 H 140.05 -3.14011 -0.74813 0
M  V30 1537 H 139.102 -3.42512 1.65499 0
M  V30 1538 H 140.414 -4.5823 1.97046 0
M  V30 1539 H 139.568 -6.06538 0.1402 0
M  V30 1540 H 138.307 -4.86939 -0.272431 0
M  V30 1541 H 137.312 -5.11369 2.01945 0
M  V30 1542 H 138.537 -6.34337 2.42474 0
M  V30 1543 H 136.483 -6.55722 0.190939 0
M  V30 1544 H 136.4 -7.36073 1.72432 0
M  V30 1545 H 137.668 -7.77123 0.608253 0
M  V30 1546 N 141.898 -0.863906 -1.31812 0
M  V30 1547 C 143.309 -0.52522 -1.7916 0
M  V30 1548 C 143.66 0.957518 -1.71248 0
M  V30 1549 O 142.785 1.74734 -1.27659 0
M  V30 1550 C 143.38 -0.9466 -3.25307 0
M  V30 1551 C 141.939 -0.659668 -3.70574 0
M  V30 1552 C 141.086 -1.14126 -2.52726 0
M  V30 1553 H 144.037 -1.05022 -1.1898 0
M  V30 1554 H 144.058 -0.266766 -3.79564 0
M  V30 1555 H 143.57 -2.02579 -3.31034 0
M  V30 1556 H 141.671 0.408416 -3.70355 0
M  V30 1557 H 141.784 -1.23245 -4.62977 0
M  V30 1558 H 140.148 -0.561216 -2.4844 0
M  V30 1559 H 140.931 -2.22775 -2.61201 0
M  V30 1560 O 143.415 1.42347 -0.762857 0
M  V30 1561 H 144.106 1.90974 -0.323817 0
M  V30 END ATOM
M  V30 BEGIN BOND
M  V30 END BOND
M  V30 END CTAB
M  END
$$$$
